
#######################################################################
#
#                 Cambridge Crystallographic Data Centre
#                                CCDC 
#
#######################################################################
#
# If this CIF has been generated from an entry in the Cambridge 
# Structural Database, then it will include bibliographic, chemical, 
# crystal, experimental, refinement or atomic coordinate data resulting 
# from the CCDC's data processing and validation procedures.
#
#######################################################################

data_PARTEN02
_chemical_formula_moiety         'C15 H20 O3'
_chemical_name_systematic        
1a,5-dimethyl-8-methylene-2,3,6,7,7a,8,10a,10b-octahydrooxireno[9,10]cyclodeca[1,2-b]furan-9(1aH)-one
_symmetry_cell_setting           orthorhombic
_symmetry_space_group_name_H-M   'P 21 21 21'
_symmetry_Int_Tables_number      19
_space_group_name_Hall           'P 2ac 2ab'
loop_
_symmetry_equiv_pos_site_id
_symmetry_equiv_pos_as_xyz
1 x,y,z
2 1/2+x,1/2-y,-z
3 -x,1/2+y,1/2-z
4 1/2-x,-y,1/2+z
_cell_length_a                   11.9456(11)
_cell_length_b                   12.2757(12)
_cell_length_c                   18.780(2)
_cell_angle_alpha                90
_cell_angle_beta                 90
_cell_angle_gamma                90
_cell_volume                     2753.91
_exptl_crystal_colour            colorless
_exptl_crystal_description       prism
_cell_formula_units_Z            8
loop_
_atom_site_label
_atom_site_type_symbol
_atom_site_fract_x
_atom_site_fract_y
_atom_site_fract_z
O1 O 0.45906(12) 0.59197(15) 0.01498(9)
O2 O 0.4483(2) 0.57614(19) -0.10269(10)
O3 O 0.52124(17) 0.5283(2) 0.15484(10)
C1 C 0.39092(15) 0.63347(16) 0.07341(11)
H1 H 0.4136 0.7082 0.0846
C2 C 0.26927(15) 0.63343(16) 0.04505(10)
H2 H 0.2356 0.5634 0.0579
C3 C 0.28764(19) 0.63290(17) -0.03367(11)
C4 C 0.4034(2) 0.59853(19) -0.04725(12)
C5 C 0.40961(19) 0.56255(19) 0.13677(12)
H3 H 0.3533 0.5051 0.1423
C6 C 0.4612(2) 0.5967(2) 0.20429(13)
C7 C 0.4190(3) 0.5447(3) 0.27135(14)
H4 H 0.4773 0.5463 0.3073
H5 H 0.4002 0.4691 0.2621
C8 C 0.3145(3) 0.6054(2) 0.29904(13)
H6 H 0.2825 0.5654 0.3386
H7 H 0.3363 0.6769 0.3162
C9 C 0.2285(2) 0.6178(2) 0.24171(13)
H8 H 0.1886 0.5551 0.2302
C10 C 0.2015(2) 0.70651(19) 0.20510(12)
C11 C 0.1282(2) 0.6994(3) 0.14078(13)
H9 H 0.0667 0.7504 0.1461
H10 H 0.0965 0.6267 0.1382
C12 C 0.18949(18) 0.7238(2) 0.07049(11)
H11 H 0.1341 0.7366 0.0337
H12 H 0.2321 0.7905 0.0763
C13 C 0.2181(3) 0.6551(3) -0.08521(15)
H13 H 0.2414 0.6494 -0.1323
H14 H 0.1453 0.6767 -0.0748
C14 C 0.5144(3) 0.7069(3) 0.21262(17)
H15 H 0.5830 0.6998 0.2388
H16 H 0.4643 0.7542 0.2380
H17 H 0.5297 0.7370 0.1665
C15 C 0.2409(4) 0.8188(2) 0.22229(15)
H18 H 0.2806 0.8178 0.2667
H19 H 0.1776 0.8667 0.2260
H20 H 0.2897 0.8440 0.1852
O4 O 0.35362(12) -0.00309(14) 0.06710(8)
O5 O 0.44523(15) -0.12929(16) 0.00501(12)
O6 O 0.24333(14) 0.09448(14) 0.18789(8)
C16 C 0.27295(16) 0.08459(16) 0.05456(11)
H21 H 0.3127 0.1539 0.0492
C17 C 0.21433(16) 0.05480(15) -0.01622(10)
H22 H 0.1477 0.0117 -0.0047
C18 C 0.29931(17) -0.02089(17) -0.04972(13)
C19 C 0.37440(17) -0.05954(18) 0.00654(14)
C20 C 0.19604(17) 0.09065(17) 0.11752(11)
H23 H 0.1295 0.0443 0.1135
C21 C 0.1804(2) 0.1861(2) 0.16224(12)
C22 C 0.0648(2) 0.2041(3) 0.19314(14)
H24 H 0.0712 0.2425 0.2381
H25 H 0.0297 0.1342 0.2023
C23 C -0.0088(2) 0.2703(3) 0.14207(14)
H26 H -0.0854 0.2705 0.1592
H27 H 0.0173 0.3451 0.1406
C24 C -0.00518(17) 0.2228(2) 0.06895(13)
H28 H -0.0431 0.1573 0.0631
C25 C 0.04501(15) 0.26163(18) 0.01113(12)
C26 C 0.05864(17) 0.1921(2) -0.05341(12)
H29 H 0.0369 0.2342 -0.0949
H30 H 0.0078 0.1308 -0.0498
C27 C 0.17794(18) 0.14837(18) -0.06521(11)
H31 H 0.1840 0.1238 -0.1141
H32 H 0.2301 0.2082 -0.0591
C28 C 0.3097(3) -0.0542(2) -0.11614(16)
H33 H 0.3658 -0.1035 -0.1282
H34 H 0.2610 -0.0285 -0.1509
C29 C 0.2511(2) 0.2871(2) 0.15453(16)
H35 H 0.2577 0.3225 0.1999
H36 H 0.2165 0.3357 0.1211
H37 H 0.3242 0.2673 0.1376
C30 C 0.0940(2) 0.37330(18) 0.00453(15)
H38 H 0.0769 0.4147 0.0465
H39 H 0.0629 0.4090 -0.0364
H40 H 0.1738 0.3679 -0.0008
loop_
_geom_bond_atom_site_label_1
_geom_bond_atom_site_label_2
_geom_bond_site_symmetry_1
_geom_bond_site_symmetry_2
O1 C1 1_555 1_555
O2 C4 1_555 1_555
O3 C5 1_555 1_555
C1 H1 1_555 1_555
C2 C1 1_555 1_555
H2 C2 1_555 1_555
C3 C2 1_555 1_555
C4 O1 1_555 1_555
C5 C1 1_555 1_555
H3 C5 1_555 1_555
C6 O3 1_555 1_555
C7 C6 1_555 1_555
H4 C7 1_555 1_555
H5 C7 1_555 1_555
C8 C7 1_555 1_555
H6 C8 1_555 1_555
H7 C8 1_555 1_555
C9 C8 1_555 1_555
H8 C9 1_555 1_555
C10 C9 1_555 1_555
C11 C10 1_555 1_555
H9 C11 1_555 1_555
H10 C11 1_555 1_555
C12 C2 1_555 1_555
H11 C12 1_555 1_555
H12 C12 1_555 1_555
C13 C3 1_555 1_555
H13 C13 1_555 1_555
H14 C13 1_555 1_555
C14 C6 1_555 1_555
H15 C14 1_555 1_555
H16 C14 1_555 1_555
H17 C14 1_555 1_555
C15 C10 1_555 1_555
H18 C15 1_555 1_555
H19 C15 1_555 1_555
H20 C15 1_555 1_555
O4 C16 1_555 1_555
O5 C19 1_555 1_555
O6 C20 1_555 1_555
C16 H21 1_555 1_555
C17 C16 1_555 1_555
H22 C17 1_555 1_555
C18 C17 1_555 1_555
C19 O4 1_555 1_555
C20 C16 1_555 1_555
H23 C20 1_555 1_555
C21 O6 1_555 1_555
C22 C21 1_555 1_555
H24 C22 1_555 1_555
H25 C22 1_555 1_555
C23 C22 1_555 1_555
H26 C23 1_555 1_555
H27 C23 1_555 1_555
C24 C23 1_555 1_555
H28 C24 1_555 1_555
C25 C24 1_555 1_555
C26 C25 1_555 1_555
H29 C26 1_555 1_555
H30 C26 1_555 1_555
C27 C17 1_555 1_555
H31 C27 1_555 1_555
H32 C27 1_555 1_555
C28 C18 1_555 1_555
H33 C28 1_555 1_555
H34 C28 1_555 1_555
C29 C21 1_555 1_555
H35 C29 1_555 1_555
H36 C29 1_555 1_555
H37 C29 1_555 1_555
C30 C25 1_555 1_555
H38 C30 1_555 1_555
H39 C30 1_555 1_555
H40 C30 1_555 1_555
C3 C4 1_555 1_555
C5 C6 1_555 1_555
C11 C12 1_555 1_555
C18 C19 1_555 1_555
C20 C21 1_555 1_555
C26 C27 1_555 1_555

#END
