
#######################################################################
#
#                 Cambridge Crystallographic Data Centre
#                                CCDC 
#
#######################################################################
#
# If this CIF has been generated from an entry in the Cambridge 
# Structural Database, then it will include bibliographic, chemical, 
# crystal, experimental, refinement or atomic coordinate data resulting 
# from the CCDC's data processing and validation procedures.
#
#######################################################################

data_PARVEL
_chemical_formula_moiety         'C9 H7 N2 O3 1+,H2 O1,Cl1 1-'
_chemical_name_systematic        
'2-(Carboxycarbonyl)imidazo[1,2-a]pyridin-1-ium chloride monohydrate'
_symmetry_cell_setting           monoclinic
_symmetry_space_group_name_H-M   'P 2/c'
_symmetry_Int_Tables_number      13
_space_group_name_Hall           '-P 2yc'
loop_
_symmetry_equiv_pos_site_id
_symmetry_equiv_pos_as_xyz
1 x,y,z
2 -x,y,1/2-z
3 -x,-y,-z
4 x,-y,1/2+z
_cell_length_a                   6.8215(14)
_cell_length_b                   11.724(2)
_cell_length_c                   11.570(2)
_cell_angle_alpha                90
_cell_angle_beta                 103.04(3)
_cell_angle_gamma                90
_cell_volume                     901.453
_cell_formula_units_Z            4
loop_
_atom_site_label
_atom_site_type_symbol
_atom_site_fract_x
_atom_site_fract_y
_atom_site_fract_z
Cl1 Cl 0.0000 -0.2986(9) 0.2500
C1 C 0.2482(11) 0.2507(8) 0.1842(8)
C2 C 0.2413(13) 0.3483(9) 0.2494(9)
H1 H 0.2323 0.3447 0.3284
C3 C 0.2480(14) 0.4492(9) 0.1946(10)
H2 H 0.2422 0.5161 0.2368
C4 C 0.2636(15) 0.4570(9) 0.0743(10)
H3 H 0.2676 0.5277 0.0385
C5 C 0.2725(15) 0.3610(10) 0.0135(9)
H4 H 0.2851 0.3645 -0.0648
C6 C 0.2676(12) 0.1469(8) 0.0263(7)
H5 H 0.2774 0.1262 -0.0498
C7 C 0.2560(10) 0.0770(8) 0.1131(7)
C8 C 0.2525(12) -0.0490(8) 0.1262(7)
C9 C 0.2453(13) -0.1231(8) 0.0131(8)
N1 N 0.2461(10) 0.1414(6) 0.2137(6)
H6 H 0.2399 0.1149 0.2821
N2 N 0.2627(10) 0.2547(6) 0.0679(6)
O1 O 0.2480(12) -0.0930(6) 0.2196(6)
O2 O 0.2659(14) -0.2244(7) 0.0294(6)
O3 O 0.2224(10) -0.0696(6) -0.0793(5)
O4 O 0.5000 -0.3232(11) 0.2500
H7 H 0.576(14) -0.285(8) 0.269(9)
H7A H 0.424(14) -0.285(8) 0.231(9)
loop_
_geom_bond_atom_site_label_1
_geom_bond_atom_site_label_2
_geom_bond_site_symmetry_1
_geom_bond_site_symmetry_2
C1 C2 1_555 1_555
C2 H1 1_555 1_555
C3 C2 1_555 1_555
H2 C3 1_555 1_555
C4 C3 1_555 1_555
H3 C4 1_555 1_555
C5 C4 1_555 1_555
H4 C5 1_555 1_555
C6 H5 1_555 1_555
C7 C6 1_555 1_555
C8 C7 1_555 1_555
C9 C8 1_555 1_555
N1 C1 1_555 1_555
H6 N1 1_555 1_555
N2 C1 1_555 1_555
O1 C8 1_555 1_555
O2 C9 1_555 1_555
O3 C9 1_555 1_555
O4 H7 1_555 1_555
H7A O4 1_555 1_555
C5 N2 1_555 1_555
C6 N2 1_555 1_555
C7 N1 1_555 1_555

#END
