
#######################################################################
#
#                 Cambridge Crystallographic Data Centre
#                                CCDC 
#
#######################################################################
#
# If this CIF has been generated from an entry in the Cambridge 
# Structural Database, then it will include bibliographic, chemical, 
# crystal, experimental, refinement or atomic coordinate data resulting 
# from the CCDC's data processing and validation procedures.
#
#######################################################################

data_PASTEL
_chemical_formula_moiety         'C72 H58 N8 O8,2(C1 H2 Cl2)'
_chemical_name_systematic        
'5,10,15,20-tetrakis(4-(2-(pyridin-3-yloxy)ethoxy)phenyl)porphyrin dichloromethane solvate'
_symmetry_cell_setting           monoclinic
_symmetry_space_group_name_H-M   'P 21/c'
_symmetry_Int_Tables_number      14
_space_group_name_Hall           '-P 2ybc'
loop_
_symmetry_equiv_pos_site_id
_symmetry_equiv_pos_as_xyz
1 x,y,z
2 -x,1/2+y,1/2-z
3 -x,-y,-z
4 x,1/2-y,1/2+z
_cell_length_a                   14.921(4)
_cell_length_b                   21.964(5)
_cell_length_c                   29.730(8)
_cell_angle_alpha                90
_cell_angle_beta                 90.045(9)
_cell_angle_gamma                90
_cell_volume                     9743.26
_exptl_crystal_colour            colorless
_exptl_crystal_description       Prism
_cell_formula_units_Z            6
loop_
_atom_site_label
_atom_site_type_symbol
_atom_site_fract_x
_atom_site_fract_y
_atom_site_fract_z
O1 O 0.2824(2) 0.40368(13) -0.11467(10)
O2 O 0.2828(2) 0.35734(14) -0.20209(10)
O3 O -0.3844(2) 0.18973(14) 0.12171(11)
O4 O -0.5003(2) 0.09652(15) 0.08108(11)
O5 O -0.2414(2) 0.59145(14) 0.42013(10)
O6 O -0.2413(2) 0.62778(15) 0.51023(10)
O7 O 0.3988(2) 0.81956(15) 0.19682(13)
O8 O 0.5441(2) 0.90408(14) 0.20526(11)
N1 N 0.1185(2) 0.53603(16) 0.11374(12)
N2 N -0.0026(2) 0.43222(16) 0.10365(12)
H1 H 0.000(3) 0.4639(14) 0.1228(12)
N3 N -0.0828(2) 0.46469(16) 0.18908(12)
N4 N 0.0389(2) 0.56857(16) 0.19945(12)
H2 H 0.024(3) 0.5416(16) 0.1782(11)
N5 N 0.4267(3) 0.30111(19) -0.29256(13)
N6 N -0.5386(3) -0.0643(2) 0.07403(15)
N7 N -0.2490(3) 0.74496(19) 0.59419(14)
N8 N 0.5666(3) 1.05544(18) 0.25596(15)
C1 C 0.1746(3) 0.58345(19) 0.12504(15)
C2 C 0.2423(3) 0.5910(2) 0.09106(15)
H3 H 0.2889 0.6205 0.0911
C3 C 0.2272(3) 0.5487(2) 0.05931(15)
H4 H 0.2613 0.5425 0.0328
C4 C 0.1487(3) 0.51420(19) 0.07319(14)
C5 C 0.1143(3) 0.4645(2) 0.04956(14)
C6 C 0.0451(3) 0.42600(19) 0.06438(14)
C7 C 0.0113(3) 0.3735(2) 0.04190(15)
H5 H 0.0317 0.3581 0.0139
C8 C -0.0548(3) 0.3494(2) 0.06732(15)
H6 H -0.0882 0.3137 0.0605
C9 C -0.0658(3) 0.38704(19) 0.10637(14)
C10 C -0.1310(3) 0.38038(19) 0.13962(15)
C11 C -0.1407(3) 0.4188(2) 0.17697(14)
C12 C -0.2139(3) 0.4151(2) 0.20916(15)
H7 H -0.2633 0.3878 0.2082
C13 C -0.1981(3) 0.4578(2) 0.24064(16)
H8 H -0.2342 0.4661 0.2662
C14 C -0.1165(3) 0.4887(2) 0.22847(14)
C15 C -0.0791(3) 0.5368(2) 0.25325(15)
C16 C -0.0060(3) 0.57297(19) 0.23950(14)
C17 C 0.0351(3) 0.62099(19) 0.26455(15)
H9 H 0.0179 0.6343 0.2937
C18 C 0.1024(3) 0.6440(2) 0.23981(15)
H10 H 0.1408 0.6765 0.2484
C19 C 0.1063(3) 0.61115(19) 0.19842(15)
C20 C 0.1684(3) 0.61949(19) 0.16372(14)
C21 C 0.1554(3) 0.4493(2) 0.00526(14)
C22 C 0.1522(3) 0.4896(2) -0.03086(15)
H11 H 0.1215 0.5272 -0.0274
C23 C 0.1925(3) 0.4764(2) -0.07175(15)
H12 H 0.1890 0.5044 -0.0961
C24 C 0.2377(3) 0.4219(2) -0.07658(14)
C25 C 0.2403(3) 0.3806(2) -0.04148(15)
H13 H 0.2700 0.3427 -0.0453
C26 C 0.2003(3) 0.3940(2) -0.00113(15)
H14 H 0.2031 0.3653 0.0228
C27 C 0.2776(3) 0.4423(2) -0.15333(15)
H15 H 0.3035 0.4828 -0.1465
H16 H 0.2144 0.4479 -0.1627
C28 C 0.3301(3) 0.4117(2) -0.18990(16)
H17 H 0.3357 0.4390 -0.2162
H18 H 0.3910 0.4014 -0.1791
C29 C 0.3177(3) 0.3226(2) -0.23565(14)
C30 C 0.2701(3) 0.2707(2) -0.24719(15)
H19 H 0.2174 0.2598 -0.2312
C31 C 0.3007(3) 0.2354(2) -0.28227(16)
H20 H 0.2688 0.2001 -0.2915
C32 C 0.3792(3) 0.2525(2) -0.30373(16)
H21 H 0.4001 0.2280 -0.3279
C33 C 0.3966(3) 0.3357(2) -0.25856(15)
H22 H 0.4304 0.3704 -0.2498
C34 C -0.1969(3) 0.3297(2) 0.13427(15)
C35 C -0.2516(3) 0.3264(2) 0.09642(15)
H23 H -0.2453 0.3563 0.0735
C36 C -0.3149(3) 0.2809(2) 0.09122(15)
H24 H -0.3519 0.2800 0.0652
C37 C -0.3240(3) 0.2366(2) 0.12400(16)
C38 C -0.2692(3) 0.2382(2) 0.16159(18)
H25 H -0.2746 0.2076 0.1840
C39 C -0.2066(3) 0.2842(2) 0.16662(17)
H26 H -0.1696 0.2849 0.1926
C40 C -0.4631(3) 0.1993(2) 0.09515(18)
H27 H -0.4480 0.1986 0.0627
H28 H -0.4903 0.2393 0.1024
C41 C -0.5268(3) 0.1489(2) 0.10623(18)
H29 H -0.5248 0.1400 0.1389
H30 H -0.5887 0.1608 0.0982
C42 C -0.5360(3) 0.0417(2) 0.09307(15)
C43 C -0.5926(3) 0.0314(2) 0.12931(16)
H31 H -0.6121 0.0639 0.1480
C44 C -0.6197(3) -0.0281(2) 0.13719(17)
H32 H -0.6580 -0.0371 0.1619
C45 C -0.5915(4) -0.0737(2) 0.10954(18)
H33 H -0.6104 -0.1141 0.1159
C46 C -0.5123(3) -0.0071(2) 0.06659(17)
H34 H -0.4748 0.0004 0.0414
C47 C -0.1192(3) 0.5510(2) 0.29788(14)
C48 C -0.1161(3) 0.5087(2) 0.33262(15)
H35 H -0.0868 0.4709 0.3278
C49 C -0.1547(3) 0.5202(2) 0.37419(15)
H36 H -0.1510 0.4910 0.3977
C50 C -0.1990(3) 0.5753(2) 0.38094(14)
C51 C -0.2026(3) 0.6186(2) 0.34681(14)
H37 H -0.2324 0.6562 0.3516
C52 C -0.1623(3) 0.6064(2) 0.30593(15)
H38 H -0.1640 0.6363 0.2828
C53 C -0.2392(3) 0.5489(2) 0.45665(15)
H39 H -0.1765 0.5409 0.4658
H40 H -0.2670 0.5099 0.4474
C54 C -0.2902(3) 0.5762(2) 0.49483(15)
H41 H -0.3507 0.5887 0.4847
H42 H -0.2969 0.5462 0.5194
C55 C -0.2764(3) 0.6603(2) 0.54526(15)
C56 C -0.3580(4) 0.6491(2) 0.56564(16)
H43 H -0.3956 0.6168 0.5559
C57 C -0.3829(4) 0.6867(3) 0.60088(18)
H44 H -0.4378 0.6798 0.6162
C58 C -0.3286(4) 0.7336(2) 0.61359(18)
H45 H -0.3480 0.7595 0.6373
C59 C -0.2246(4) 0.7084(2) 0.56050(16)
H46 H -0.1687 0.7158 0.5462
C60 C 0.2329(3) 0.67116(19) 0.16947(15)
C61 C 0.3205(3) 0.6616(2) 0.18275(17)
H47 H 0.3418 0.6211 0.1859
C62 C 0.3780(3) 0.7097(2) 0.19164(18)
H48 H 0.4380 0.7019 0.2007
C63 C 0.3483(3) 0.7688(2) 0.18741(17)
C64 C 0.2610(4) 0.7795(2) 0.1734(2)
H49 H 0.2401 0.8201 0.1698
C65 C 0.2042(3) 0.7311(2) 0.16451(19)
H50 H 0.1446 0.7389 0.1549
C66 C 0.4751(3) 0.8110(2) 0.22540(18)
H51 H 0.5245 0.7915 0.2085
H52 H 0.4593 0.7846 0.2512
C67 C 0.5030(3) 0.8726(2) 0.24158(17)
H53 H 0.4501 0.8955 0.2523
H54 H 0.5458 0.8685 0.2669
C68 C 0.5637(3) 0.9643(2) 0.21130(15)
C69 C 0.6011(3) 0.9952(2) 0.17553(16)
H55 H 0.6142 0.9747 0.1482
C70 C 0.6192(3) 1.0564(2) 0.18021(17)
H56 H 0.6440 1.0789 0.1560
C71 C 0.6006(3) 1.0843(2) 0.22053(18)
H57 H 0.6129 1.1266 0.2232
C72 C 0.5483(3) 0.9959(2) 0.25108(17)
H58 H 0.5237 0.9744 0.2759
O9 O 0.3804(2) 0.67801(14) 0.03200(11)
O10 O 0.4849(2) 0.59318(15) 0.08215(11)
O11 O -0.2564(2) 0.91673(13) 0.27006(9)
O12 O -0.2384(2) 0.87774(14) 0.35918(10)
N9 N 0.1087(2) 0.96965(15) -0.03364(11)
N10 N 0.0185(2) 0.93044(16) 0.04744(11)
H59 H 0.010(3) 0.9572(16) 0.0252(10)
N11 N 0.5171(3) 0.45501(18) 0.14453(14)
N12 N -0.3861(3) 0.81886(19) 0.44750(13)
C73 C 0.2342(3) 0.9152(2) -0.05666(15)
H60 H 0.2807 0.8857 -0.0568
C74 C 0.1645(3) 0.92209(19) -0.02313(14)
C75 C 0.1546(3) 0.88328(19) 0.01428(14)
C76 C 0.0874(3) 0.88874(19) 0.04700(14)
C77 C 0.0796(3) 0.8541(2) 0.08740(15)
H61 H 0.1175 0.8215 0.0962
C78 C 0.0090(3) 0.8757(2) 0.11115(15)
H62 H -0.0108 0.8610 0.1395
C79 C -0.0305(3) 0.92448(19) 0.08624(14)
C80 C -0.1039(3) 0.96019(19) 0.09902(14)
C81 C -0.1410(3) 1.0078(2) 0.07343(14)
C82 C -0.2200(3) 1.0414(2) 0.08728(15)
H63 H -0.2552 1.0338 0.1133
C83 C 0.2167(3) 0.8307(2) 0.01958(14)
C84 C 0.3075(3) 0.8383(2) 0.02618(15)
H64 H 0.3314 0.8784 0.0272
C85 C 0.3652(3) 0.7890(2) 0.03136(15)
H65 H 0.4274 0.7953 0.0363
C86 C 0.3305(3) 0.7306(2) 0.02918(14)
C87 C 0.2393(3) 0.7217(2) 0.02239(14)
H66 H 0.2156 0.6815 0.0210
C88 C 0.1834(3) 0.7709(2) 0.01765(14)
H67 H 0.1211 0.7644 0.0130
C89 C 0.4741(3) 0.6843(2) 0.04026(18)
H68 H 0.4843 0.7052 0.0693
H69 H 0.5023 0.7087 0.0161
C90 C 0.5138(3) 0.6219(2) 0.04143(18)
H70 H 0.4934 0.5981 0.0151
H71 H 0.5800 0.6244 0.0407
C91 C 0.5141(3) 0.5351(2) 0.08966(16)
C92 C 0.5626(3) 0.4998(2) 0.05989(17)
H72 H 0.5786 0.5149 0.0310
C93 C 0.5871(3) 0.4422(2) 0.07332(17)
H73 H 0.6199 0.4167 0.0535
C94 C 0.5643(3) 0.4215(2) 0.11526(17)
H74 H 0.5827 0.3818 0.1239
C95 C 0.4928(3) 0.5107(2) 0.13138(16)
H75 H 0.4590 0.5350 0.1517
C96 C -0.1432(3) 0.9483(2) 0.14424(14)
C97 C -0.1901(3) 0.8953(2) 0.15422(14)
H76 H -0.1967 0.8649 0.1318
C98 C -0.2274(3) 0.8862(2) 0.19614(14)
H77 H -0.2598 0.8499 0.2023
C99 C -0.2176(3) 0.9302(2) 0.22939(14)
C100 C -0.1707(3) 0.98326(19) 0.22052(14)
H78 H -0.1636 1.0135 0.2431
C101 C -0.1343(3) 0.9914(2) 0.17813(14)
H79 H -0.1021 1.0277 0.1720
C102 C -0.2412(3) 0.9580(2) 0.30668(14)
H80 H -0.2665 0.9986 0.2996
H81 H -0.1762 0.9626 0.3124
C103 C -0.2865(3) 0.9317(2) 0.34693(15)
H82 H -0.2859 0.9612 0.3720
H83 H -0.3496 0.9216 0.3398
C104 C -0.2741(3) 0.8418(2) 0.39205(14)
C105 C -0.2284(3) 0.7888(2) 0.40241(15)
H84 H -0.1745 0.7786 0.3872
C106 C -0.2629(3) 0.7511(2) 0.43526(15)
H85 H -0.2335 0.7142 0.4431
C107 C -0.3415(3) 0.7683(2) 0.45659(16)
H86 H -0.3648 0.7421 0.4792
C108 C -0.3523(3) 0.8553(2) 0.41533(14)
H87 H -0.3832 0.8919 0.4082
O9B O -0.3804(2) 1.32199(14) -0.03200(11)
O10B O -0.4849(2) 1.40682(15) -0.08215(11)
O11B O 0.2564(2) 1.08327(13) -0.27006(9)
O12B O 0.2384(2) 1.12226(14) -0.35918(10)
N9B N -0.1087(2) 1.03035(15) 0.03364(11)
N10B N -0.0185(2) 1.06956(16) -0.04744(11)
H59B H -0.010(3) 1.0428(16) -0.0252(10)
N11B N -0.5171(3) 1.54499(18) -0.14453(14)
N12B N 0.3861(3) 1.18114(19) -0.44750(13)
C73B C -0.2342(3) 1.0848(2) 0.05666(15)
H60B H -0.2807 1.1143 0.0568
C74B C -0.1645(3) 1.07791(19) 0.02313(14)
C75B C -0.1546(3) 1.11672(19) -0.01428(14)
C76B C -0.0874(3) 1.11126(19) -0.04700(14)
C77B C -0.0796(3) 1.1459(2) -0.08740(15)
H61B H -0.1175 1.1785 -0.0962
C78B C -0.0090(3) 1.1243(2) -0.11115(15)
H62B H 0.0108 1.1390 -0.1395
C79B C 0.0305(3) 1.07552(19) -0.08624(14)
C80B C 0.1039(3) 1.03981(19) -0.09902(14)
C81B C 0.1410(3) 0.9922(2) -0.07343(14)
C82B C 0.2200(3) 0.9586(2) -0.08728(15)
H63B H 0.2552 0.9662 -0.1133
C83B C -0.2167(3) 1.1693(2) -0.01958(14)
C84B C -0.3075(3) 1.1617(2) -0.02618(15)
H64B H -0.3314 1.1216 -0.0272
C85B C -0.3652(3) 1.2110(2) -0.03136(15)
H65B H -0.4274 1.2047 -0.0363
C86B C -0.3305(3) 1.2694(2) -0.02918(14)
C87B C -0.2393(3) 1.2783(2) -0.02239(14)
H66B H -0.2156 1.3185 -0.0210
C88B C -0.1834(3) 1.2291(2) -0.01765(14)
H67B H -0.1211 1.2356 -0.0130
C89B C -0.4741(3) 1.3157(2) -0.04026(18)
H68B H -0.4843 1.2948 -0.0693
H69B H -0.5023 1.2913 -0.0161
C90B C -0.5138(3) 1.3781(2) -0.04143(18)
H70B H -0.4934 1.4019 -0.0151
H71B H -0.5800 1.3756 -0.0407
C91B C -0.5141(3) 1.4649(2) -0.08966(16)
C92B C -0.5626(3) 1.5002(2) -0.05989(17)
H72B H -0.5786 1.4851 -0.0310
C93B C -0.5871(3) 1.5578(2) -0.07332(17)
H73B H -0.6199 1.5833 -0.0535
C94B C -0.5643(3) 1.5785(2) -0.11526(17)
H74B H -0.5827 1.6182 -0.1239
C95B C -0.4928(3) 1.4893(2) -0.13138(16)
H75B H -0.4590 1.4650 -0.1517
C96B C 0.1432(3) 1.0517(2) -0.14424(14)
C97B C 0.1901(3) 1.1047(2) -0.15422(14)
H76B H 0.1967 1.1351 -0.1318
C98B C 0.2274(3) 1.1138(2) -0.19614(14)
H77B H 0.2598 1.1501 -0.2023
C99B C 0.2176(3) 1.0698(2) -0.22939(14)
C100B C 0.1707(3) 1.01674(19) -0.22052(14)
H78B H 0.1636 0.9865 -0.2431
C101B C 0.1343(3) 1.0086(2) -0.17813(14)
H79B H 0.1021 0.9723 -0.1720
C102B C 0.2412(3) 1.0420(2) -0.30668(14)
H80B H 0.2665 1.0014 -0.2996
H81B H 0.1762 1.0374 -0.3124
C103B C 0.2865(3) 1.0683(2) -0.34693(15)
H82B H 0.2859 1.0388 -0.3720
H83B H 0.3496 1.0784 -0.3398
C104B C 0.2741(3) 1.1582(2) -0.39205(14)
C105B C 0.2284(3) 1.2112(2) -0.40241(15)
H84B H 0.1745 1.2214 -0.3872
C106B C 0.2629(3) 1.2489(2) -0.43526(15)
H85B H 0.2335 1.2858 -0.4431
C107B C 0.3415(3) 1.2317(2) -0.45659(16)
H86B H 0.3648 1.2579 -0.4792
C108B C 0.3523(3) 1.1447(2) -0.41533(14)
H87B H 0.3832 1.1081 -0.4082
Cl1 Cl 0.94172(9) 0.72228(7) 0.17002(5)
Cl2 Cl 0.99210(11) 0.68796(8) 0.07933(6)
C109 C 0.9205(4) 0.6723(3) 0.12531(18)
H88 H 0.8573 0.6765 0.1157
H89 H 0.9299 0.6299 0.1355
Cl3 Cl 0.95219(12) 0.77139(8) 0.31041(6)
Cl4 Cl 1.02212(13) 0.84299(9) 0.23685(6)
C110 C 0.9445(4) 0.8377(3) 0.2830(2)
H90 H 0.9562 0.8714 0.3043
H91 H 0.8827 0.8425 0.2713
Cl7 Cl 1.0476(6) 0.6722(3) 0.3943(2)
Cl8 Cl 0.9566(2) 0.70569(18) 0.47205(13)
C112 C 0.9708(8) 0.6467(5) 0.4340(4)
Cl5? Cl 1.0879(3) 0.68473(16) 0.38772(12)
Cl6? Cl 0.9559(2) 0.6754(2) 0.45414(16)
C111? C 1.0004(8) 0.6376(5) 0.4059(4)
loop_
_geom_bond_atom_site_label_1
_geom_bond_atom_site_label_2
_geom_bond_site_symmetry_1
_geom_bond_site_symmetry_2
O1 C24 1_555 1_555
O2 C28 1_555 1_555
O3 C37 1_555 1_555
O4 C41 1_555 1_555
O5 C50 1_555 1_555
O6 C54 1_555 1_555
O7 C63 1_555 1_555
O8 C67 1_555 1_555
N1 C1 1_555 1_555
N2 H1 1_555 1_555
N3 C11 1_555 1_555
N4 H2 1_555 1_555
N5 C32 1_555 1_555
N6 C45 1_555 1_555
N7 C58 1_555 1_555
N8 C71 1_555 1_555
C1 C2 1_555 1_555
C2 H3 1_555 1_555
C3 C2 1_555 1_555
H4 C3 1_555 1_555
C4 N1 1_555 1_555
C5 C4 1_555 1_555
C6 N2 1_555 1_555
C7 C6 1_555 1_555
H5 C7 1_555 1_555
C8 C7 1_555 1_555
H6 C8 1_555 1_555
C9 N2 1_555 1_555
C10 C9 1_555 1_555
C11 C10 1_555 1_555
C12 C11 1_555 1_555
H7 C12 1_555 1_555
C13 C12 1_555 1_555
H8 C13 1_555 1_555
C14 N3 1_555 1_555
C15 C14 1_555 1_555
C16 N4 1_555 1_555
C17 C16 1_555 1_555
H9 C17 1_555 1_555
C18 C17 1_555 1_555
H10 C18 1_555 1_555
C19 N4 1_555 1_555
C20 C1 1_555 1_555
C21 C5 1_555 1_555
C22 C21 1_555 1_555
H11 C22 1_555 1_555
C23 C22 1_555 1_555
H12 C23 1_555 1_555
C24 C23 1_555 1_555
C25 C24 1_555 1_555
H13 C25 1_555 1_555
C26 C21 1_555 1_555
H14 C26 1_555 1_555
C27 O1 1_555 1_555
H15 C27 1_555 1_555
H16 C27 1_555 1_555
C28 C27 1_555 1_555
H17 C28 1_555 1_555
H18 C28 1_555 1_555
C29 O2 1_555 1_555
C30 C29 1_555 1_555
H19 C30 1_555 1_555
C31 C30 1_555 1_555
H20 C31 1_555 1_555
C32 C31 1_555 1_555
H21 C32 1_555 1_555
C33 N5 1_555 1_555
H22 C33 1_555 1_555
C34 C10 1_555 1_555
C35 C34 1_555 1_555
H23 C35 1_555 1_555
C36 C35 1_555 1_555
H24 C36 1_555 1_555
C37 C36 1_555 1_555
C38 C37 1_555 1_555
H25 C38 1_555 1_555
C39 C34 1_555 1_555
H26 C39 1_555 1_555
C40 O3 1_555 1_555
H27 C40 1_555 1_555
H28 C40 1_555 1_555
C41 C40 1_555 1_555
H29 C41 1_555 1_555
H30 C41 1_555 1_555
C42 O4 1_555 1_555
C43 C42 1_555 1_555
H31 C43 1_555 1_555
C44 C43 1_555 1_555
H32 C44 1_555 1_555
C45 C44 1_555 1_555
H33 C45 1_555 1_555
C46 N6 1_555 1_555
H34 C46 1_555 1_555
C47 C15 1_555 1_555
C48 C47 1_555 1_555
H35 C48 1_555 1_555
C49 C48 1_555 1_555
H36 C49 1_555 1_555
C50 C49 1_555 1_555
C51 C50 1_555 1_555
H37 C51 1_555 1_555
C52 C47 1_555 1_555
H38 C52 1_555 1_555
C53 O5 1_555 1_555
H39 C53 1_555 1_555
H40 C53 1_555 1_555
C54 C53 1_555 1_555
H41 C54 1_555 1_555
H42 C54 1_555 1_555
C55 O6 1_555 1_555
C56 C55 1_555 1_555
H43 C56 1_555 1_555
C57 C56 1_555 1_555
H44 C57 1_555 1_555
C58 C57 1_555 1_555
H45 C58 1_555 1_555
C59 N7 1_555 1_555
H46 C59 1_555 1_555
C60 C20 1_555 1_555
C61 C60 1_555 1_555
H47 C61 1_555 1_555
C62 C61 1_555 1_555
H48 C62 1_555 1_555
C63 C62 1_555 1_555
C64 C63 1_555 1_555
H49 C64 1_555 1_555
C65 C60 1_555 1_555
H50 C65 1_555 1_555
C66 O7 1_555 1_555
H51 C66 1_555 1_555
H52 C66 1_555 1_555
C67 C66 1_555 1_555
H53 C67 1_555 1_555
H54 C67 1_555 1_555
C68 O8 1_555 1_555
C69 C68 1_555 1_555
H55 C69 1_555 1_555
C70 C69 1_555 1_555
H56 C70 1_555 1_555
C71 C70 1_555 1_555
H57 C71 1_555 1_555
C72 N8 1_555 1_555
H58 C72 1_555 1_555
O9 C86 1_555 1_555
O10 C90 1_555 1_555
O11 C99 1_555 1_555
O12 C103 1_555 1_555
N9 C74 1_555 1_555
N10 H59 1_555 1_555
N11 C94 1_555 1_555
N12 C107 1_555 1_555
C73 H60 1_555 1_555
C74 C73 1_555 1_555
C75 C74 1_555 1_555
C76 N10 1_555 1_555
C77 C76 1_555 1_555
H61 C77 1_555 1_555
C78 C77 1_555 1_555
H62 C78 1_555 1_555
C79 N10 1_555 1_555
C80 C79 1_555 1_555
C81 C80 1_555 1_555
C82 C81 1_555 1_555
H63 C82 1_555 1_555
C83 C75 1_555 1_555
C84 C83 1_555 1_555
H64 C84 1_555 1_555
C85 C84 1_555 1_555
H65 C85 1_555 1_555
C86 C85 1_555 1_555
C87 C86 1_555 1_555
H66 C87 1_555 1_555
C88 C83 1_555 1_555
H67 C88 1_555 1_555
C89 O9 1_555 1_555
H68 C89 1_555 1_555
H69 C89 1_555 1_555
C90 C89 1_555 1_555
H70 C90 1_555 1_555
H71 C90 1_555 1_555
C91 O10 1_555 1_555
C92 C91 1_555 1_555
H72 C92 1_555 1_555
C93 C92 1_555 1_555
H73 C93 1_555 1_555
C94 C93 1_555 1_555
H74 C94 1_555 1_555
C95 N11 1_555 1_555
H75 C95 1_555 1_555
C96 C80 1_555 1_555
C97 C96 1_555 1_555
H76 C97 1_555 1_555
C98 C97 1_555 1_555
H77 C98 1_555 1_555
C99 C98 1_555 1_555
C100 C99 1_555 1_555
H78 C100 1_555 1_555
C101 C96 1_555 1_555
H79 C101 1_555 1_555
C102 O11 1_555 1_555
H80 C102 1_555 1_555
H81 C102 1_555 1_555
C103 C102 1_555 1_555
H82 C103 1_555 1_555
H83 C103 1_555 1_555
C104 O12 1_555 1_555
C105 C104 1_555 1_555
H84 C105 1_555 1_555
C106 C105 1_555 1_555
H85 C106 1_555 1_555
C107 C106 1_555 1_555
H86 C107 1_555 1_555
C108 N12 1_555 1_555
H87 C108 1_555 1_555
Cl1 C109 1_555 1_555
Cl2 C109 1_555 1_555
C109 H88 1_555 1_555
H89 C109 1_555 1_555
Cl3 C110 1_555 1_555
Cl4 C110 1_555 1_555
C110 H90 1_555 1_555
H91 C110 1_555 1_555
Cl7 C112 1_555 1_555
Cl8 C112 1_555 1_555
O9B C86B 1_555 1_555
O10B C90B 1_555 1_555
O11B C99B 1_555 1_555
O12B C103B 1_555 1_555
N9B C81 1_555 1_555
N10B H59B 1_555 1_555
N11B C94B 1_555 1_555
N12B C107B 1_555 1_555
C73B C82 1_555 1_555
H60B C73B 1_555 1_555
C74B N9B 1_555 1_555
C75B C74B 1_555 1_555
C76B N10B 1_555 1_555
C77B C76B 1_555 1_555
H61B C77B 1_555 1_555
C78B C77B 1_555 1_555
H62B C78B 1_555 1_555
C79B N10B 1_555 1_555
C80B C79B 1_555 1_555
C81B N9 1_555 1_555
C82B C73 1_555 1_555
H63B C82B 1_555 1_555
C83B C75B 1_555 1_555
C84B C83B 1_555 1_555
H64B C84B 1_555 1_555
C85B C84B 1_555 1_555
H65B C85B 1_555 1_555
C86B C85B 1_555 1_555
C87B C86B 1_555 1_555
H66B C87B 1_555 1_555
C88B C83B 1_555 1_555
H67B C88B 1_555 1_555
C89B O9B 1_555 1_555
H68B C89B 1_555 1_555
H69B C89B 1_555 1_555
C90B C89B 1_555 1_555
H70B C90B 1_555 1_555
H71B C90B 1_555 1_555
C91B O10B 1_555 1_555
C92B C91B 1_555 1_555
H72B C92B 1_555 1_555
C93B C92B 1_555 1_555
H73B C93B 1_555 1_555
C94B C93B 1_555 1_555
H74B C94B 1_555 1_555
C95B N11B 1_555 1_555
H75B C95B 1_555 1_555
C96B C80B 1_555 1_555
C97B C96B 1_555 1_555
H76B C97B 1_555 1_555
C98B C97B 1_555 1_555
H77B C98B 1_555 1_555
C99B C98B 1_555 1_555
C100B C99B 1_555 1_555
H78B C100B 1_555 1_555
C101B C96B 1_555 1_555
H79B C101B 1_555 1_555
C102B O11B 1_555 1_555
H80B C102B 1_555 1_555
H81B C102B 1_555 1_555
C103B C102B 1_555 1_555
H82B C103B 1_555 1_555
H83B C103B 1_555 1_555
C104B O12B 1_555 1_555
C105B C104B 1_555 1_555
H84B C105B 1_555 1_555
C106B C105B 1_555 1_555
H85B C106B 1_555 1_555
C107B C106B 1_555 1_555
H86B C107B 1_555 1_555
C108B N12B 1_555 1_555
H87B C108B 1_555 1_555
C3 C4 1_555 1_555
C5 C6 1_555 1_555
C8 C9 1_555 1_555
C13 C14 1_555 1_555
C15 C16 1_555 1_555
C18 C19 1_555 1_555
C19 C20 1_555 1_555
C25 C26 1_555 1_555
C29 C33 1_555 1_555
C38 C39 1_555 1_555
C42 C46 1_555 1_555
C51 C52 1_555 1_555
C55 C59 1_555 1_555
C64 C65 1_555 1_555
C68 C72 1_555 1_555
C75 C76 1_555 1_555
C78 C79 1_555 1_555
C87 C88 1_555 1_555
C91 C95 1_555 1_555
C100 C101 1_555 1_555
C104 C108 1_555 1_555
C73B C74B 1_555 1_555
C75B C76B 1_555 1_555
C78B C79B 1_555 1_555
C80B C81B 1_555 1_555
C81B C82B 1_555 1_555
C87B C88B 1_555 1_555
C91B C95B 1_555 1_555
C100B C101B 1_555 1_555
C104B C108B 1_555 1_555

#END
