
#######################################################################
#
#                 Cambridge Crystallographic Data Centre
#                                CCDC 
#
#######################################################################
#
# If this CIF has been generated from an entry in the Cambridge 
# Structural Database, then it will include bibliographic, chemical, 
# crystal, experimental, refinement or atomic coordinate data resulting 
# from the CCDC's data processing and validation procedures.
#
#######################################################################

data_PATGOG
_chemical_compound_source        'from soft coral Sarcophyton solidun'
_chemical_formula_moiety         'C20 H28 O3'
_chemical_name_systematic        'Sarsolilide A'
_symmetry_cell_setting           orthorhombic
_symmetry_space_group_name_H-M   'P 21 21 21'
_symmetry_Int_Tables_number      19
_space_group_name_Hall           'P 2ac 2ab'
loop_
_symmetry_equiv_pos_site_id
_symmetry_equiv_pos_as_xyz
1 x,y,z
2 1/2+x,1/2-y,-z
3 -x,1/2+y,1/2-z
4 1/2-x,-y,1/2+z
_cell_length_a                   10.945(3)
_cell_length_b                   11.533(2)
_cell_length_c                   14.051(3)
_cell_angle_alpha                90
_cell_angle_beta                 90
_cell_angle_gamma                90
_cell_volume                     1773.64
_exptl_crystal_colour            colorless
_chemical_melting_point          '240.2-242.0 deg.C'
_cell_formula_units_Z            4
loop_
_atom_site_label
_atom_site_type_symbol
_atom_site_fract_x
_atom_site_fract_y
_atom_site_fract_z
O1 O 0.0429(3) 0.1288(3) 0.5984(2)
O2 O 0.0174(3) 0.3099(3) 0.6366(2)
O3 O 0.1528(3) 0.4964(3) 0.8226(2)
C1 C 0.0854(5) 0.2271(4) 0.5988(3)
C2 C 0.2066(4) 0.2515(4) 0.5538(3)
C3 C 0.2281(5) 0.3517(4) 0.5106(3)
C4 C 0.1535(6) 0.4563(4) 0.5183(3)
C5 C 0.1498(5) 0.4926(4) 0.6236(3)
C6 C 0.0538(5) 0.4202(4) 0.6824(3)
C7 C 0.1003(4) 0.3917(4) 0.7839(3)
C8 C 0.0018(4) 0.3454(4) 0.8509(3)
C9 C 0.0691(5) 0.2993(5) 0.9363(4)
C10 C 0.1955(5) 0.2635(4) 0.8980(3)
C11 C 0.2004(4) 0.2964(4) 0.7930(3)
C12 C 0.3251(4) 0.3221(4) 0.7591(3)
C13 C 0.3955(5) 0.2562(5) 0.7023(3)
C14 C 0.3487(5) 0.1414(4) 0.6610(3)
C15 C 0.2972(5) 0.1567(5) 0.5588(3)
C16 C -0.0655(5) 0.4850(5) 0.6842(4)
C17 C 0.2776(5) 0.2096(5) 0.9451(4)
C18 C 0.5215(5) 0.2868(5) 0.6742(4)
C19 C 0.5434(6) 0.4155(6) 0.6572(5)
C20 C 0.6168(7) 0.2367(9) 0.7411(7)
H1 H 0.3003 0.3562 0.4719
H2 H 0.1860 0.5174 0.4794
H3 H 0.0715 0.4392 0.4985
H4 H 0.1315 0.5737 0.6295
H5 H 0.2296 0.4776 0.6490
H6 H -0.0527 0.4070 0.8682
H7 H -0.0435 0.2844 0.8205
H8 H 0.0774 0.3586 0.9838
H9 H 0.0267 0.2340 0.9629
H10 H 0.1799 0.2344 0.7503
H11 H 0.3591 0.3945 0.7798
H12 H 0.4148 0.0868 0.6592
H13 H 0.2849 0.1123 0.7013
H14 H 0.2579 0.0858 0.5401
H15 H 0.3636 0.1728 0.5161
H16 H -0.0662 0.5540 0.7224
H17 H -0.1334 0.4367 0.7014
H18 H -0.0718 0.5058 0.6182
H19 H 0.2650 0.1888 1.0105
H20 H 0.3532 0.1906 0.9142
H21 H 0.5312 0.2491 0.6137
H22 H 0.4802 0.4312 0.6116
H23 H 0.6203 0.4424 0.6328
H24 H 0.5253 0.4548 0.7157
H25 H 0.7006 0.2573 0.7302
H26 H 0.6111 0.1549 0.7531
H27 H 0.5862 0.2786 0.7951
H28 H 0.0858 0.5419 0.8492
loop_
_geom_bond_atom_site_label_1
_geom_bond_atom_site_label_2
_geom_bond_site_symmetry_1
_geom_bond_site_symmetry_2
O1 C1 1_555 1_555
O2 C1 1_555 1_555
O3 C7 1_555 1_555
C1 C2 1_555 1_555
C2 C3 1_555 1_555
C3 C4 1_555 1_555
C4 C5 1_555 1_555
C5 C6 1_555 1_555
C6 O2 1_555 1_555
C7 C6 1_555 1_555
C8 C7 1_555 1_555
C9 C8 1_555 1_555
C10 C9 1_555 1_555
C11 C7 1_555 1_555
C12 C11 1_555 1_555
C13 C12 1_555 1_555
C14 C13 1_555 1_555
C15 C2 1_555 1_555
C16 C6 1_555 1_555
C17 C10 1_555 1_555
C18 C13 1_555 1_555
C19 C18 1_555 1_555
C20 C18 1_555 1_555
H1 C3 1_555 1_555
H2 C4 1_555 1_555
H3 C4 1_555 1_555
H4 C5 1_555 1_555
H5 C5 1_555 1_555
H6 C8 1_555 1_555
H7 C8 1_555 1_555
H8 C9 1_555 1_555
H9 C9 1_555 1_555
H10 C11 1_555 1_555
H11 C12 1_555 1_555
H12 C14 1_555 1_555
H13 C14 1_555 1_555
H14 C15 1_555 1_555
H15 C15 1_555 1_555
H16 C16 1_555 1_555
H17 C16 1_555 1_555
H18 C16 1_555 1_555
H19 C17 1_555 1_555
H20 C17 1_555 1_555
H21 C18 1_555 1_555
H22 C19 1_555 1_555
H23 C19 1_555 1_555
H24 C19 1_555 1_555
H25 C20 1_555 1_555
H26 C20 1_555 1_555
H27 C20 1_555 1_555
H28 O3 1_555 1_555
C10 C11 1_555 1_555
C14 C15 1_555 1_555

#END
