
#######################################################################
#
#                 Cambridge Crystallographic Data Centre
#                                CCDC 
#
#######################################################################
#
# If this CIF has been generated from an entry in the Cambridge 
# Structural Database, then it will include bibliographic, chemical, 
# crystal, experimental, refinement or atomic coordinate data resulting 
# from the CCDC's data processing and validation procedures.
#
#######################################################################

data_PATGEY
_chemical_formula_moiety         'C25 H19 F3 O4 S1'
_chemical_name_systematic        
trans-(4-((4-Methylphenyl)sulfonyl)-3-phenyl-5-(trifluoromethyl)-2,3-dihydrofuran-2-yl)(phenyl)methanone
_symmetry_cell_setting           triclinic
_symmetry_space_group_name_H-M   'P -1'
_symmetry_Int_Tables_number      2
_space_group_name_Hall           '-P 1'
loop_
_symmetry_equiv_pos_site_id
_symmetry_equiv_pos_as_xyz
1 x,y,z
2 -x,-y,-z
_cell_length_a                   7.507(3)
_cell_length_b                   9.928(4)
_cell_length_c                   15.803(7)
_cell_angle_alpha                94.793(6)
_cell_angle_beta                 98.333(5)
_cell_angle_gamma                99.126(5)
_cell_volume                     1143.74
_exptl_crystal_colour            'light yellow'
_chemical_melting_point          '108.9-109.8 deg.C'
_cell_formula_units_Z            2
loop_
_atom_site_label
_atom_site_type_symbol
_atom_site_fract_x
_atom_site_fract_y
_atom_site_fract_z
C1 C 0.2639(3) 0.4381(3) 0.94328(17)
C2 C 0.2990(3) 0.4066(3) 0.86152(18)
H1 H 0.3165 0.3182 0.8449
C3 C 0.3088(3) 0.5034(3) 0.80329(16)
H2 H 0.3314 0.4799 0.7481
C4 C 0.2849(3) 0.6345(2) 0.82801(14)
C5 C 0.2510(4) 0.6694(3) 0.91023(17)
H3 H 0.2348 0.7581 0.9271
C6 C 0.2416(4) 0.5706(3) 0.96667(17)
H4 H 0.2196 0.5940 1.0220
C7 C 0.5062(3) 0.8203(2) 0.74142(14)
C8 C 0.6159(3) 0.9328(2) 0.78137(15)
C9 C 0.7654(3) 0.8748(2) 0.67377(14)
H5 H 0.8774 0.8350 0.6777
C10 C 0.5956(3) 0.7596(2) 0.67029(13)
H6 H 0.5151 0.7545 0.6150
C11 C 0.6414(3) 0.6195(2) 0.68344(14)
C12 C 0.7627(3) 0.5999(2) 0.75447(16)
H7 H 0.8192 0.6743 0.7941
C13 C 0.8002(4) 0.4700(3) 0.76662(19)
H8 H 0.8807 0.4573 0.8147
C14 C 0.7183(4) 0.3595(3) 0.7076(2)
H9 H 0.7433 0.2723 0.7159
C15 C 0.6011(4) 0.3780(3) 0.6370(2)
H10 H 0.5476 0.3034 0.5969
C16 C 0.5609(3) 0.5066(2) 0.62455(17)
H11 H 0.4794 0.5178 0.5764
C17 C 0.7434(3) 0.9505(2) 0.59390(15)
C18 C 0.7914(3) 0.8861(2) 0.51422(14)
C19 C 0.8697(3) 0.7679(2) 0.51207(16)
H12 H 0.8904 0.7246 0.5616
C20 C 0.9165(4) 0.7153(3) 0.43650(18)
H13 H 0.9680 0.6361 0.4352
C21 C 0.8878(4) 0.7784(3) 0.36351(18)
H14 H 0.9213 0.7426 0.3131
C22 C 0.8099(4) 0.8945(3) 0.36395(17)
H15 H 0.7901 0.9368 0.3139
C23 C 0.7613(3) 0.9479(3) 0.43865(16)
H16 H 0.7077 1.0262 0.4388
C24 C 0.2489(5) 0.3301(4) 1.0047(2)
H17 H 0.3455 0.3549 1.0531
H18 H 0.2586 0.2432 0.9759
H19 H 0.1329 0.3233 1.0244
C25 C 0.6040(5) 1.0270(3) 0.8586(2)
F1 F 0.5189(4) 0.9651(2) 0.91408(13)
F2 F 0.5220(4) 1.1288(2) 0.83921(15)
F3 F 0.7638(4) 1.0844(3) 0.89886(17)
O1 O 0.7718(2) 0.96949(17) 0.74963(10)
O2 O 0.2006(2) 0.6813(2) 0.66939(11)
O3 O 0.1987(3) 0.8639(2) 0.78534(15)
O4 O 0.6792(2) 1.05503(17) 0.59652(12)
S1 S 0.27957(8) 0.75420(7) 0.75197(4)
loop_
_geom_bond_atom_site_label_1
_geom_bond_atom_site_label_2
_geom_bond_site_symmetry_1
_geom_bond_site_symmetry_2
C1 C2 1_555 1_555
C2 H1 1_555 1_555
C3 C2 1_555 1_555
H2 C3 1_555 1_555
C4 C3 1_555 1_555
C5 C4 1_555 1_555
H3 C5 1_555 1_555
C6 C1 1_555 1_555
H4 C6 1_555 1_555
C7 C8 1_555 1_555
C8 C25 1_555 1_555
C9 H5 1_555 1_555
C10 C7 1_555 1_555
H6 C10 1_555 1_555
C11 C10 1_555 1_555
C12 C11 1_555 1_555
H7 C12 1_555 1_555
C13 C12 1_555 1_555
H8 C13 1_555 1_555
C14 C13 1_555 1_555
H9 C14 1_555 1_555
C15 C14 1_555 1_555
H10 C15 1_555 1_555
C16 C11 1_555 1_555
H11 C16 1_555 1_555
C17 C9 1_555 1_555
C18 C17 1_555 1_555
C19 C18 1_555 1_555
H12 C19 1_555 1_555
C20 C19 1_555 1_555
H13 C20 1_555 1_555
C21 C20 1_555 1_555
H14 C21 1_555 1_555
C22 C21 1_555 1_555
H15 C22 1_555 1_555
C23 C18 1_555 1_555
H16 C23 1_555 1_555
C24 C1 1_555 1_555
H17 C24 1_555 1_555
H18 C24 1_555 1_555
H19 C24 1_555 1_555
C25 F1 1_555 1_555
F2 C25 1_555 1_555
F3 C25 1_555 1_555
O1 C8 1_555 1_555
O2 S1 1_555 1_555
O3 S1 1_555 1_555
O4 C17 1_555 1_555
S1 C4 1_555 1_555
C5 C6 1_555 1_555
C7 S1 1_555 1_555
C9 C10 1_555 1_555
C9 O1 1_555 1_555
C15 C16 1_555 1_555
C22 C23 1_555 1_555

#END
