
#######################################################################
#
#                 Cambridge Crystallographic Data Centre
#                                CCDC 
#
#######################################################################
#
# If this CIF has been generated from an entry in the Cambridge 
# Structural Database, then it will include bibliographic, chemical, 
# crystal, experimental, refinement or atomic coordinate data resulting 
# from the CCDC's data processing and validation procedures.
#
#######################################################################

data_PATHOJ
_chemical_formula_moiety         'C20 H18 N4 O6 S2,0.5(C2 H6 O1)'
_chemical_name_systematic        
'(+-)-8-(7-Hydroxy-6-(methylsulfamoyl)quinolin-8-yl)-6-(methylsulfamoyl)quinolinium-7-olate ethanol solvate'
_symmetry_cell_setting           triclinic
_symmetry_space_group_name_H-M   'P -1'
_symmetry_Int_Tables_number      2
_space_group_name_Hall           '-P 1'
loop_
_symmetry_equiv_pos_site_id
_symmetry_equiv_pos_as_xyz
1 x,y,z
2 -x,-y,-z
_cell_length_a                   10.3864(7)
_cell_length_b                   12.0874(8)
_cell_length_c                   19.6179(13)
_cell_angle_alpha                77.098(1)
_cell_angle_beta                 89.065(1)
_cell_angle_gamma                68.274(1)
_cell_volume                     2224.21
_exptl_crystal_colour            orange
_exptl_crystal_description       block
_cell_formula_units_Z            4
_exptl_crystal_recrystallization_method ethanol
loop_
_atom_site_label
_atom_site_type_symbol
_atom_site_fract_x
_atom_site_fract_y
_atom_site_fract_z
S1 S 0.48622(7) 0.85325(6) 0.38822(3)
S2 S 0.27498(6) 0.63784(6) 0.06424(3)
O1 O 0.4819(3) 0.8293(2) 0.24454(12)
O2 O 0.36366(19) 0.6397(2) 0.20702(9)
O3 O 0.5176(2) 0.95345(18) 0.34795(10)
O4 O 0.51053(19) 0.82101(17) 0.46289(9)
O5 O 0.2635(2) 0.6698(2) -0.01078(10)
O6 O 0.26358(19) 0.52509(18) 0.09988(10)
N1 N 0.7639(2) 0.4007(2) 0.28795(11)
N2 N 0.8325(2) 0.5881(2) 0.16169(12)
N3 N 0.3225(2) 0.8864(2) 0.37107(14)
N4 N 0.1536(2) 0.7447(2) 0.09158(14)
C1 C 0.8357(3) 0.2991(3) 0.33398(14)
C2 C 0.8600(3) 0.2902(3) 0.40595(14)
C3 C 0.8049(3) 0.3934(2) 0.43054(14)
C4 C 0.7240(3) 0.5051(2) 0.38376(13)
C5 C 0.6573(3) 0.6146(2) 0.40588(13)
C6 C 0.5778(3) 0.7192(2) 0.35841(13)
C7 C 0.5614(3) 0.7204(2) 0.28635(13)
C8 C 0.6240(2) 0.6146(2) 0.26304(12)
C9 C 0.7064(2) 0.5049(2) 0.31220(13)
C10 C 0.9327(3) 0.5864(3) 0.11754(15)
C11 C 0.9059(3) 0.6040(3) 0.04653(15)
C12 C 0.7757(3) 0.6175(3) 0.02224(14)
C13 C 0.6715(3) 0.6181(2) 0.06800(13)
C14 C 0.5356(3) 0.6318(2) 0.04536(13)
C15 C 0.4378(2) 0.6345(2) 0.09215(13)
C16 C 0.4608(3) 0.6302(2) 0.16625(12)
C17 C 0.5967(2) 0.6159(2) 0.18860(12)
C18 C 0.6989(2) 0.6066(2) 0.14075(13)
C19 C 0.2612(4) 0.8021(4) 0.4091(2)
C20 C 0.1416(5) 0.8707(3) 0.0640(2)
H6 H 0.490(4) 0.828(3) 0.213(2)
H7 H 0.852(3) 0.579(3) 0.2043(17)
H8 H 0.305(4) 0.905(3) 0.3334(19)
H9 H 0.161(4) 0.727(3) 0.1353(19)
H10 H 0.868(3) 0.229(3) 0.3169(16)
H11 H 0.915(3) 0.213(3) 0.4356(16)
H12 H 0.821(3) 0.393(3) 0.4783(17)
H13 H 0.667(3) 0.615(3) 0.4541(16)
H14 H 1.022(4) 0.570(3) 0.1396(18)
H15 H 0.975(3) 0.606(3) 0.0180(16)
H16 H 0.757(3) 0.626(3) -0.0221(16)
H17 H 0.514(3) 0.637(3) -0.0002(17)
H18 H 0.305(4) 0.767(4) 0.457(2)
H19 H 0.161(5) 0.848(4) 0.409(2)
H20 H 0.276(5) 0.737(4) 0.388(2)
H21 H 0.137(4) 0.886(3) 0.016(2)
H22 H 0.065(5) 0.922(5) 0.082(3)
H23 H 0.220(6) 0.889(5) 0.080(3)
S3 S 0.10135(6) 0.52995(5) 0.33334(3)
S4 S 0.15256(8) 1.18052(7) 0.15201(4)
O7 O 0.07613(19) 0.76848(16) 0.24177(9)
O8 O 0.15063(18) 0.94603(16) 0.23883(9)
O9 O 0.1063(2) 0.44255(16) 0.39705(10)
O10 O 0.0304(2) 0.52985(17) 0.27131(10)
O11 O 0.2267(3) 1.1009(2) 0.10628(13)
O12 O 0.1085(2) 1.30921(18) 0.12464(11)
N5 N -0.1976(2) 1.02217(19) 0.38815(11)
N6 N -0.3414(2) 1.0908(2) 0.25629(12)
N7 N 0.2580(2) 0.5099(2) 0.31617(13)
N8 N 0.2515(3) 1.1437(3) 0.22244(15)
C21 C -0.2542(3) 1.0296(3) 0.44839(14)
C22 C -0.2493(3) 0.9281(3) 0.50151(15)
C23 C -0.1815(3) 0.8140(3) 0.49133(14)
C24 C -0.1197(2) 0.8003(2) 0.42743(13)
C25 C -0.0465(3) 0.6845(2) 0.41272(13)
C26 C 0.0145(2) 0.6765(2) 0.35109(13)
C27 C 0.0046(2) 0.7837(2) 0.29921(12)
C28 C -0.0736(2) 0.8990(2) 0.30975(12)
C29 C -0.1323(2) 0.9080(2) 0.37600(13)
C30 C -0.4690(3) 1.1771(3) 0.23901(16)
C31 C -0.4892(3) 1.2876(3) 0.19318(17)
C32 C -0.3745(3) 1.3065(3) 0.16596(15)
C33 C -0.2413(3) 1.2179(2) 0.18462(13)
C34 C -0.1214(3) 1.2379(2) 0.16011(13)
C35 C 0.0057(3) 1.1481(2) 0.17968(13)
C36 C 0.0274(3) 1.0298(2) 0.22548(13)
C37 C -0.0905(3) 1.0121(2) 0.25521(12)
C38 C -0.2224(3) 1.1047(2) 0.23265(12)
C39 C 0.3689(3) 0.4658(3) 0.37189(19)
C40 C 0.1941(4) 1.2050(4) 0.2770(2)
H24 H 0.114(4) 0.829(4) 0.233(2)
H25 H -0.334(3) 1.025(3) 0.2870(17)
H26 H 0.268(3) 0.553(3) 0.2824(17)
H27 H 0.280(4) 1.067(4) 0.2352(19)
H28 H -0.303(3) 1.113(3) 0.4541(14)
H29 H -0.293(3) 0.942(3) 0.5402(17)
H30 H -0.175(3) 0.743(3) 0.5256(16)
H31 H -0.038(3) 0.612(3) 0.4460(16)
H32 H -0.542(4) 1.152(3) 0.2605(17)
H33 H -0.574(4) 1.346(3) 0.1827(18)
H34 H -0.383(4) 1.376(3) 0.1336(18)
H35 H -0.130(3) 1.315(3) 0.1313(17)
H36 H 0.376(4) 0.385(4) 0.402(2)
H37 H 0.450(5) 0.458(4) 0.350(2)
H38 H 0.357(4) 0.523(4) 0.401(2)
H39 H 0.151(4) 1.299(4) 0.254(2)
H40 H 0.274(5) 1.179(4) 0.321(2)
H41 H 0.108(5) 1.169(5) 0.303(3)
O13 O 0.4835(4) 0.9221(3) 0.10501(18)
C41 C 0.5679(7) 0.9992(5) 0.0954(3)
H1 H 0.5503 1.0498 0.0467
H2 H 0.5399 1.0552 0.1276
C42 C 0.7161(6) 0.9240(6) 0.1092(3)
H3 H 0.7696 0.9770 0.1021
H4 H 0.7441 0.8690 0.0771
H5 H 0.7340 0.8754 0.1577
C43? C 0.605(5) 0.988(3) 0.095(3)
C44? C 0.4830(12) 1.0799(10) 0.0391(6)
H42? H 0.6967 0.9708 0.0753
H43? H 0.6041 1.0174 0.1380
H44? H 0.4939 1.1588 0.0254
H45? H 0.3936 1.0914 0.0596
H46? H 0.4859 1.0465 -0.0023
O14? O 0.563(2) 0.8818(18) 0.1062(9)
loop_
_geom_bond_atom_site_label_1
_geom_bond_atom_site_label_2
_geom_bond_site_symmetry_1
_geom_bond_site_symmetry_2
S1 O3 1_555 1_555
S2 O5 1_555 1_555
O1 C7 1_555 1_555
O2 C16 1_555 1_555
O4 S1 1_555 1_555
O6 S2 1_555 1_555
N1 C1 1_555 1_555
N2 C10 1_555 1_555
N3 S1 1_555 1_555
N4 S2 1_555 1_555
C1 C2 1_555 1_555
C2 C3 1_555 1_555
C3 C4 1_555 1_555
C4 C5 1_555 1_555
C5 C6 1_555 1_555
C6 S1 1_555 1_555
C7 C6 1_555 1_555
C8 C7 1_555 1_555
C9 N1 1_555 1_555
C10 C11 1_555 1_555
C11 C12 1_555 1_555
C12 C13 1_555 1_555
C13 C14 1_555 1_555
C14 C15 1_555 1_555
C15 S2 1_555 1_555
C16 C15 1_555 1_555
C17 C8 1_555 1_555
C18 N2 1_555 1_555
C19 N3 1_555 1_555
C20 N4 1_555 1_555
S3 O9 1_555 1_555
S4 O11 1_555 1_555
O7 C27 1_555 1_555
O8 C36 1_555 1_555
O10 S3 1_555 1_555
O12 S4 1_555 1_555
N5 C21 1_555 1_555
N6 C30 1_555 1_555
N7 S3 1_555 1_555
N8 S4 1_555 1_555
C21 C22 1_555 1_555
C22 C23 1_555 1_555
C23 C24 1_555 1_555
C24 C25 1_555 1_555
C25 C26 1_555 1_555
C26 S3 1_555 1_555
C27 C26 1_555 1_555
C28 C27 1_555 1_555
C29 N5 1_555 1_555
C30 C31 1_555 1_555
C31 C32 1_555 1_555
C32 C33 1_555 1_555
C33 C34 1_555 1_555
C34 C35 1_555 1_555
C35 S4 1_555 1_555
C36 C35 1_555 1_555
C37 C28 1_555 1_555
C38 N6 1_555 1_555
C39 N7 1_555 1_555
C40 N8 1_555 1_555
O13 C41 1_555 1_555
C41 H1 1_555 1_555
H2 C41 1_555 1_555
C42 C41 1_555 1_555
H3 C42 1_555 1_555
H4 C42 1_555 1_555
H5 C42 1_555 1_555
H6 O1 1_555 1_555
H7 N2 1_555 1_555
H8 N3 1_555 1_555
H9 N4 1_555 1_555
H10 C1 1_555 1_555
H11 C2 1_555 1_555
H12 C3 1_555 1_555
H13 C5 1_555 1_555
H14 C10 1_555 1_555
H15 C11 1_555 1_555
H16 C12 1_555 1_555
H17 C14 1_555 1_555
H18 C19 1_555 1_555
H19 C19 1_555 1_555
H20 C19 1_555 1_555
H21 C20 1_555 1_555
H22 C20 1_555 1_555
H23 C20 1_555 1_555
H24 O7 1_555 1_555
H25 N6 1_555 1_555
H26 N7 1_555 1_555
H27 N8 1_555 1_555
H28 C21 1_555 1_555
H29 C22 1_555 1_555
H30 C23 1_555 1_555
H31 C25 1_555 1_555
H32 C30 1_555 1_555
H33 C31 1_555 1_555
H34 C32 1_555 1_555
H35 C34 1_555 1_555
H36 C39 1_555 1_555
H37 C39 1_555 1_555
H38 C39 1_555 1_555
H39 C40 1_555 1_555
H40 C40 1_555 1_555
H41 C40 1_555 1_555
C4 C9 1_555 1_555
C8 C9 1_555 1_555
C13 C18 1_555 1_555
C16 C17 1_555 1_555
C17 C18 1_555 1_555
C24 C29 1_555 1_555
C28 C29 1_555 1_555
C33 C38 1_555 1_555
C36 C37 1_555 1_555
C37 C38 1_555 1_555

#END
