
#######################################################################
#
#                 Cambridge Crystallographic Data Centre
#                                CCDC 
#
#######################################################################
#
# If this CIF has been generated from an entry in the Cambridge 
# Structural Database, then it will include bibliographic, chemical, 
# crystal, experimental, refinement or atomic coordinate data resulting 
# from the CCDC's data processing and validation procedures.
#
#######################################################################

data_PATWUF
_chemical_formula_moiety         'C18 H17 Br2 N5 O2 S1'
_chemical_name_systematic        
4,10-dibromo-7-(2-ethylhexyl)-6H-pyrrolo[3,4-b][1,2,5]thiadiazolo[3,4-g]quinoxaline-6,8(7H)-dione
_symmetry_cell_setting           triclinic
_symmetry_space_group_name_H-M   'P -1'
_symmetry_Int_Tables_number      2
_space_group_name_Hall           '-P 1'
loop_
_symmetry_equiv_pos_site_id
_symmetry_equiv_pos_as_xyz
1 x,y,z
2 -x,-y,-z
_cell_length_a                   5.19960(10)
_cell_length_b                   11.6680(3)
_cell_length_c                   16.1507(4)
_cell_angle_alpha                95.6110(10)
_cell_angle_beta                 91.880(2)
_cell_angle_gamma                97.692(2)
_cell_volume                     965.33
_exptl_crystal_colour            red
_exptl_crystal_description       needle
_cell_formula_units_Z            2
loop_
_atom_site_label
_atom_site_type_symbol
_atom_site_fract_x
_atom_site_fract_y
_atom_site_fract_z
Br1 Br 0.29339(13) 0.52266(5) 0.61760(4)
Br2 Br -0.48113(12) 0.92693(5) 0.61432(4)
S1 S -0.2818(4) 0.67047(17) 0.80931(11)
O1 O -0.1327(8) 0.9203(3) 0.2988(3)
O2 O 0.4829(8) 0.6768(3) 0.3138(3)
N1 N -0.1499(8) 0.8426(4) 0.4726(3)
N2 N 0.2149(9) 0.6771(4) 0.4784(3)
N3 N 0.1881(9) 0.8025(4) 0.2867(3)
N4 N -0.3657(10) 0.7650(5) 0.7523(3)
N5 N -0.0792(10) 0.6100(5) 0.7531(3)
C1 C -0.2366(11) 0.7514(5) 0.6817(4)
C2 C -0.0699(11) 0.6642(5) 0.6816(4)
C3 C 0.0791(11) 0.6380(5) 0.6139(4)
C4 C 0.0605(11) 0.6995(5) 0.5443(4)
C5 C -0.1201(10) 0.7864(5) 0.5435(3)
C6 C -0.2589(10) 0.8138(5) 0.6120(3)
C7 C -0.0077(10) 0.8135(5) 0.4132(3)
C8 C 0.1775(10) 0.7351(5) 0.4161(4)
C9 C -0.0050(10) 0.8568(4) 0.3283(4)
C10 C 0.3086(11) 0.7305(4) 0.3354(3)
C11 C 0.2563(12) 0.8206(5) 0.2015(4)
H1 H 0.4300 0.8016 0.1926
H2 H 0.2563 0.9018 0.1932
C12 C 0.007(3) 0.6166(11) 0.1552(8)
H3 H 0.1643 0.5817 0.1464
H4 H -0.0295 0.6163 0.2137
C13 C 0.053(3) 0.7408(13) 0.1345(9)
H5 H -0.1088 0.7737 0.1273
C14 C -0.211(5) 0.5447(16) 0.1048(13)
H6 H -0.2308 0.4670 0.1207
H7 H -0.3683 0.5776 0.1142
H8 H -0.1744 0.5430 0.0468
C15 C 0.226(2) 0.7431(6) 0.0504(4)
H9 H 0.4103 0.7517 0.0659
H10 H 0.1809 0.6713 0.0143
C16 C 0.1673(13) 0.8429(6) 0.0071(4)
H11 H 0.2223 0.9143 0.0430
H12 H -0.0191 0.8366 -0.0034
C17 C 0.3004(12) 0.8493(6) -0.0746(4)
H13 H 0.2602 0.7745 -0.1075
H14 H 0.4868 0.8633 -0.0630
C18 C 0.2248(15) 0.9427(6) -0.1260(4)
H15 H 0.3171 0.9410 -0.1766
H16 H 0.0413 0.9286 -0.1393
H17 H 0.2683 1.0175 -0.0948
H18? H 0.4433 0.8402 0.2002
H19? H 0.1780 0.8862 0.1848
C19? C -0.113(3) 0.6784(13) 0.1383(8)
H20? H -0.2014 0.7421 0.1233
H21? H -0.1599 0.6643 0.1945
C20? C 0.171(3) 0.7182(13) 0.1406(9)
H22? H 0.2636 0.6541 0.1543
C21? C -0.223(5) 0.5703(17) 0.0805(13)
H23? H -0.4074 0.5549 0.0854
H24? H -0.1859 0.5831 0.0240
H25? H -0.1442 0.5050 0.0956
H26? H 0.4117 0.7425 0.0458
H27? H 0.1428 0.6748 0.0158
loop_
_geom_bond_atom_site_label_1
_geom_bond_atom_site_label_2
_geom_bond_site_symmetry_1
_geom_bond_site_symmetry_2
Br1 C3 1_555 1_555
Br2 C6 1_555 1_555
S1 N4 1_555 1_555
O1 C9 1_555 1_555
O2 C10 1_555 1_555
N1 C5 1_555 1_555
N2 C4 1_555 1_555
N3 C9 1_555 1_555
N4 C1 1_555 1_555
N5 S1 1_555 1_555
C1 C2 1_555 1_555
C2 N5 1_555 1_555
C3 C2 1_555 1_555
C4 C3 1_555 1_555
C5 C4 1_555 1_555
C6 C1 1_555 1_555
C7 N1 1_555 1_555
C8 N2 1_555 1_555
C9 C7 1_555 1_555
C10 N3 1_555 1_555
C11 N3 1_555 1_555
H1 C11 1_555 1_555
H2 C11 1_555 1_555
C12 H3 1_555 1_555
H4 C12 1_555 1_555
C13 C11 1_555 1_555
H5 C13 1_555 1_555
C14 C12 1_555 1_555
H6 C14 1_555 1_555
H7 C14 1_555 1_555
H8 C14 1_555 1_555
C15 C13 1_555 1_555
H9 C15 1_555 1_555
H10 C15 1_555 1_555
C16 C15 1_555 1_555
H11 C16 1_555 1_555
H12 C16 1_555 1_555
C17 C16 1_555 1_555
H13 C17 1_555 1_555
H14 C17 1_555 1_555
C18 C17 1_555 1_555
H15 C18 1_555 1_555
H16 C18 1_555 1_555
H17 C18 1_555 1_555
C5 C6 1_555 1_555
C7 C8 1_555 1_555
C8 C10 1_555 1_555
C12 C13 1_555 1_555

#END
