
#######################################################################
#
#                 Cambridge Crystallographic Data Centre
#                                CCDC 
#
#######################################################################
#
# If this CIF has been generated from an entry in the Cambridge 
# Structural Database, then it will include bibliographic, chemical, 
# crystal, experimental, refinement or atomic coordinate data resulting 
# from the CCDC's data processing and validation procedures.
#
#######################################################################

data_PAVJON
_chemical_formula_moiety         'C21 H19 F1 N4 O1'
_chemical_name_systematic        
(Z)-1-[4-Fluoro-2-(pyrrolidin-1-yl)phenyl]-3-phenyl-2-(1H-1,2,4-triazol-1-yl)prop-2-en-1-one
_symmetry_cell_setting           monoclinic
_symmetry_space_group_name_H-M   'P 21/c'
_symmetry_Int_Tables_number      14
_space_group_name_Hall           '-P 2ybc'
loop_
_symmetry_equiv_pos_site_id
_symmetry_equiv_pos_as_xyz
1 x,y,z
2 -x,1/2+y,1/2-z
3 -x,-y,-z
4 x,1/2-y,1/2+z
_cell_length_a                   11.217(2)
_cell_length_b                   10.067(2)
_cell_length_c                   15.793(3)
_cell_angle_alpha                90
_cell_angle_beta                 94.47(3)
_cell_angle_gamma                90
_cell_volume                     1777.95
_exptl_crystal_colour            yellow
_exptl_crystal_description       plate
_cell_formula_units_Z            4
loop_
_atom_site_label
_atom_site_type_symbol
_atom_site_fract_x
_atom_site_fract_y
_atom_site_fract_z
F1 F 0.06331(9) 0.07121(12) 0.14879(7)
N1 N 0.73647(12) -0.01216(15) 0.27605(9)
O1 O 0.54633(11) 0.01888(14) 0.36550(8)
C1 C 0.62355(15) -0.06156(19) 0.24237(11)
C2 C 0.18387(18) -0.0239(2) 0.25987(13)
C3 C 0.29747(16) -0.06191(18) 0.29689(11)
C4 C 0.39893(16) -0.02771(18) 0.25277(11)
N2 N 0.76525(14) 0.11901(16) 0.27051(10)
N3 N 0.30375(13) -0.13062(16) 0.37147(9)
C5 C 0.38080(18) 0.02722(19) 0.17088(12)
C6 C 0.70879(16) -0.19160(19) 0.12221(11)
C7 C 0.52247(16) -0.02255(19) 0.29265(12)
C8 C 0.61641(17) -0.14582(19) 0.17621(11)
C9 C 0.87605(18) -0.2952(2) 0.01763(12)
N4 N 0.91459(14) 0.00330(19) 0.34166(10)
C10 C 0.68283(18) -0.3030(2) 0.07170(11)
C11 C 0.90214(18) -0.1816(2) 0.06478(12)
C12 C 0.82010(17) -0.1292(2) 0.11679(12)
C13 C 0.17490(16) 0.0344(2) 0.18190(13)
C14 C 0.19584(18) -0.1755(2) 0.41003(13)
C15 C 0.82587(17) -0.0775(2) 0.31872(12)
C16 C 0.87283(19) 0.1214(2) 0.31018(13)
C17 C 0.26982(18) 0.0594(2) 0.13393(14)
C18 C 0.76540(19) -0.3541(2) 0.01975(12)
C19 C 0.40905(18) -0.2063(2) 0.40537(14)
C20 C 0.3575(2) -0.3164(2) 0.45719(15)
C21 C 0.2455(2) -0.2535(3) 0.48764(15)
H1 H 0.5351(16) -0.1852(18) 0.1620(10)
H2 H 0.1166(17) -0.0388(19) 0.2867(12)
H3 H 0.4540(15) -0.2398(18) 0.3554(11)
H4 H 0.2578(17) 0.1005(19) 0.0796(12)
H5 H 0.6041(17) -0.3451(19) 0.0728(11)
H6 H 0.8209(17) -0.174(2) 0.3276(12)
H7 H 0.1441(17) -0.096(2) 0.4266(11)
H8 H 0.3393(17) -0.396(2) 0.4217(12)
H9 H 0.4500(16) 0.0451(18) 0.1429(12)
H10 H 0.9173(18) 0.205(2) 0.3160(12)
H11 H 0.7450(17) -0.432(2) -0.0150(12)
H12 H 0.9352(18) -0.332(2) -0.0180(11)
H13 H 0.9777(18) -0.1339(19) 0.0632(11)
H14 H 0.1457(18) -0.2321(19) 0.3678(12)
H15 H 0.8385(17) -0.0451(19) 0.1478(12)
H16 H 0.4656(19) -0.144(2) 0.4417(13)
H17 H 0.1847(19) -0.322(2) 0.5052(13)
H18 H 0.4184(19) -0.346(2) 0.5040(12)
H19 H 0.267(2) -0.193(2) 0.5352(14)
loop_
_geom_bond_atom_site_label_1
_geom_bond_atom_site_label_2
_geom_bond_site_symmetry_1
_geom_bond_site_symmetry_2
F1 C13 1_555 1_555
N1 C1 1_555 1_555
O1 C7 1_555 1_555
C1 C7 1_555 1_555
C2 C3 1_555 1_555
C3 C4 1_555 1_555
C4 C5 1_555 1_555
N2 N1 1_555 1_555
N3 C3 1_555 1_555
C5 C17 1_555 1_555
C6 C8 1_555 1_555
C7 C4 1_555 1_555
C8 C1 1_555 1_555
C9 C11 1_555 1_555
N4 C15 1_555 1_555
C10 C6 1_555 1_555
C11 C12 1_555 1_555
C12 C6 1_555 1_555
C13 C2 1_555 1_555
C14 N3 1_555 1_555
C15 N1 1_555 1_555
C16 N2 1_555 1_555
C17 C13 1_555 1_555
C18 C9 1_555 1_555
C19 N3 1_555 1_555
C20 C19 1_555 1_555
C21 C14 1_555 1_555
H1 C8 1_555 1_555
H2 C2 1_555 1_555
H3 C19 1_555 1_555
H4 C17 1_555 1_555
H5 C10 1_555 1_555
H6 C15 1_555 1_555
H7 C14 1_555 1_555
H8 C20 1_555 1_555
H9 C5 1_555 1_555
H10 C16 1_555 1_555
H11 C18 1_555 1_555
H12 C9 1_555 1_555
H13 C11 1_555 1_555
H14 C14 1_555 1_555
H15 C12 1_555 1_555
H16 C19 1_555 1_555
H17 C21 1_555 1_555
H18 C20 1_555 1_555
H19 C21 1_555 1_555
N4 C16 1_555 1_555
C10 C18 1_555 1_555
C20 C21 1_555 1_555

#END
