
#######################################################################
#
#                 Cambridge Crystallographic Data Centre
#                                CCDC 
#
#######################################################################
#
# If this CIF has been generated from an entry in the Cambridge 
# Structural Database, then it will include bibliographic, chemical, 
# crystal, experimental, refinement or atomic coordinate data resulting 
# from the CCDC's data processing and validation procedures.
#
#######################################################################

data_PAWDOJ
_chemical_formula_moiety         'C21 H21 N1 O1'
_chemical_name_systematic        
1-(1-benzyl-2,5-dimethyl-4-phenyl-1H-pyrrol-3-yl)ethan-1-one
_symmetry_cell_setting           monoclinic
_symmetry_space_group_name_H-M   'P 21/c'
_symmetry_Int_Tables_number      14
_space_group_name_Hall           '-P 2ybc'
loop_
_symmetry_equiv_pos_site_id
_symmetry_equiv_pos_as_xyz
1 x,y,z
2 -x,1/2+y,1/2-z
3 -x,-y,-z
4 x,1/2-y,1/2+z
_cell_length_a                   10.7210(2)
_cell_length_b                   13.7039(2)
_cell_length_c                   11.5761(2)
_cell_angle_alpha                90
_cell_angle_beta                 107.0322(6)
_cell_angle_gamma                90
_cell_volume                     1626.16
_exptl_crystal_colour            colorless
_exptl_crystal_description       prism
_chemical_melting_point          '364-365 K'
_cell_formula_units_Z            4
loop_
_atom_site_label
_atom_site_type_symbol
_atom_site_fract_x
_atom_site_fract_y
_atom_site_fract_z
C1 C 0.69940(10) 0.00933(7) 0.28342(9)
C2 C 0.77764(9) 0.04143(7) 0.21445(9)
C3 C 0.88508(9) 0.09425(7) 0.29356(9)
C4 C 0.86945(10) 0.09142(7) 0.40726(9)
C5 C 0.57153(11) -0.04261(8) 0.24566(11)
H1 H 0.5842 -0.1110 0.2711
H2 H 0.5354 -0.0394 0.1576
H3 H 0.5110 -0.0115 0.2835
C6 C 0.74045(9) 0.03075(7) 0.08261(9)
C7 C 0.77732(11) 0.10944(8) 0.00737(9)
H4 H 0.8575 0.0906 -0.0112
H5 H 0.7916 0.1710 0.0525
H6 H 0.7068 0.1178 -0.0680
C8 C 0.99949(9) 0.13556(7) 0.26504(8)
C9 C 1.06614(10) 0.08215(8) 0.19876(9)
H7 H 1.0369 0.0184 0.1715
C10 C 1.17418(11) 0.12067(9) 0.17224(11)
H8 H 1.2177 0.0838 0.1263
C11 C 1.21862(11) 0.21310(10) 0.21292(11)
H9 H 1.2924 0.2397 0.1945
C12 C 1.15563(11) 0.26646(9) 0.28026(11)
H10 H 1.1871 0.3293 0.3094
C13 C 1.04641(10) 0.22844(8) 0.30547(10)
H11 H 1.0029 0.2661 0.3508
C14 C 0.95716(11) 0.12583(8) 0.52522(9)
H12 H 1.0417 0.1445 0.5154
H13 H 0.9697 0.0733 0.5849
H14 H 0.9178 0.1823 0.5529
C15 C 0.70566(11) 0.02234(8) 0.50245(9)
H15 H 0.7778 -0.0018 0.5712
H16 H 0.6384 -0.0294 0.4805
C16 C 0.64695(10) 0.11232(7) 0.54209(9)
C17 C 0.69601(10) 0.14761(8) 0.65922(9)
H17 H 0.7676 0.1155 0.7143
C18 C 0.64164(11) 0.22944(8) 0.69680(10)
H18 H 0.6760 0.2528 0.7771
C19 C 0.53749(11) 0.27678(8) 0.61709(10)
H19 H 0.5005 0.3329 0.6424
C20 C 0.48743(11) 0.24209(8) 0.50021(10)
H20 H 0.4156 0.2742 0.4455
C21 C 0.54191(10) 0.16052(8) 0.46281(9)
H21 H 0.5073 0.1373 0.3824
N1 N 0.75568(8) 0.04036(6) 0.39956(8)
O1 O 0.67584(8) -0.03911(6) 0.03179(7)
loop_
_geom_bond_atom_site_label_1
_geom_bond_atom_site_label_2
_geom_bond_site_symmetry_1
_geom_bond_site_symmetry_2
C1 C2 1_555 1_555
C2 C3 1_555 1_555
C3 C4 1_555 1_555
C4 C14 1_555 1_555
C5 C1 1_555 1_555
H1 C5 1_555 1_555
H2 C5 1_555 1_555
H3 C5 1_555 1_555
C6 C2 1_555 1_555
C7 C6 1_555 1_555
H4 C7 1_555 1_555
H5 C7 1_555 1_555
H6 C7 1_555 1_555
C8 C3 1_555 1_555
C9 C8 1_555 1_555
H7 C9 1_555 1_555
C10 C9 1_555 1_555
H8 C10 1_555 1_555
C11 C10 1_555 1_555
H9 C11 1_555 1_555
C12 C11 1_555 1_555
H10 C12 1_555 1_555
C13 C8 1_555 1_555
H11 C13 1_555 1_555
C14 H12 1_555 1_555
H13 C14 1_555 1_555
H14 C14 1_555 1_555
C15 H15 1_555 1_555
H16 C15 1_555 1_555
C16 C15 1_555 1_555
C17 C16 1_555 1_555
H17 C17 1_555 1_555
C18 C17 1_555 1_555
H18 C18 1_555 1_555
C19 C18 1_555 1_555
H19 C19 1_555 1_555
C20 C19 1_555 1_555
H20 C20 1_555 1_555
C21 C16 1_555 1_555
H21 C21 1_555 1_555
N1 C1 1_555 1_555
O1 C6 1_555 1_555
C4 N1 1_555 1_555
C12 C13 1_555 1_555
C15 N1 1_555 1_555
C20 C21 1_555 1_555

#END
