
#######################################################################
#
#                 Cambridge Crystallographic Data Centre
#                                CCDC 
#
#######################################################################
#
# If this CIF has been generated from an entry in the Cambridge 
# Structural Database, then it will include bibliographic, chemical, 
# crystal, experimental, refinement or atomic coordinate data resulting 
# from the CCDC's data processing and validation procedures.
#
#######################################################################

data_PAWLUV
_chemical_formula_moiety         'C34 H48 O6 Si2'
_chemical_name_systematic        
7-((t-Butyl(dimethyl)silyl)oxy)-6-(((t-butyl(diphenyl)silyl)oxy)methyl)-7a-methyl-hexahydro-5H-furo(3,2-b)oxireno(1,5)cyclopenta(1,2-d)pyran-2(3H)-one
_symmetry_cell_setting           monoclinic
_symmetry_space_group_name_H-M   'P 21/n'
_symmetry_Int_Tables_number      14
_space_group_name_Hall           '-P 2yn'
loop_
_symmetry_equiv_pos_site_id
_symmetry_equiv_pos_as_xyz
1 x,y,z
2 1/2-x,1/2+y,1/2-z
3 -x,-y,-z
4 1/2+x,1/2-y,1/2+z
_cell_length_a                   15.770(3)
_cell_length_b                   12.148(2)
_cell_length_c                   18.296(4)
_cell_angle_alpha                90
_cell_angle_beta                 94.68(3)
_cell_angle_gamma                90
_cell_volume                     3493.35
_cell_formula_units_Z            4
loop_
_atom_site_label
_atom_site_type_symbol
_atom_site_fract_x
_atom_site_fract_y
_atom_site_fract_z
Si1 Si 0.9535(1) 0.0347(1) 0.2184(1)
Si2 Si 1.2682(1) 0.0366(1) 0.4462(1)
O1 O 1.2758(1) 0.0321(1) 0.3563(1)
O2 O 1.3350(1) 0.2036(1) 0.2041(1)
O3 O 1.3816(1) 0.0696(1) 0.0740(1)
O4 O 1.3990(1) 0.0013(2) -0.0368(1)
O5 O 1.2850(1) -0.1181(1) 0.1303(1)
O6 O 1.0567(1) 0.0270(1) 0.2134(1)
C1 C 1.3289(2) 0.1560(2) 0.4864(1)
C2 C 1.1553(2) 0.0504(3) 0.4668(1)
C3 C 1.2550(2) -0.1911(3) 0.4578(2)
C4 C 1.3998(2) -0.1173(3) 0.4531(2)
C5 C 1.3227(3) -0.0940(3) 0.5656(2)
C6 C 1.3134(2) -0.0972(2) 0.4819(1)
C7 C 0.9473(2) 0.0864(2) 0.0679(1)
C8 C 0.9314(2) -0.1088(2) 0.1014(1)
C9 C 0.8122(2) 0.0237(3) 0.1135(2)
C10 C 0.9087(1) 0.0089(2) 0.1216(1)
C11 C 1.1181(1) 0.0478(2) 0.2740(1)
C12 C 1.1940(1) 0.1060(2) 0.2467(1)
C13 C 1.2348(1) 0.0485(2) 0.1839(1)
C14 C 1.2368(1) -0.0761(2) 0.1869(1)
C15 C 1.2662(1) 0.1239(2) 0.3076(1)
C16 C 1.3458(1) 0.1305(2) 0.2670(1)
C17 C 1.4319(1) 0.1345(2) 0.3095(1)
C18 C 1.3265(1) 0.0863(1) 0.1928(1)
C19 C 1.3887(1) 0.0299(2) 0.1492(1)
C20 C 1.3729(1) -0.0932(2) 0.1416(1)
C21 C 1.4113(1) -0.1179(2) 0.0706(1)
C22 C 1.3971(1) -0.0136(2) 0.0280(1)
C23 C 0.9172(1) -0.0733(2) 0.2811(1)
C24 C 0.9734(1) -0.1491(2) 0.3154(1)
C25 C 0.9463(2) -0.2338(2) 0.3585(1)
C26 C 0.8616(2) -0.2476(2) 0.3660(1)
C27 C 0.8037(1) -0.1746(2) 0.3328(1)
C28 C 0.8310(1) -0.0883(2) 0.2924(1)
C29 C 0.9269(1) 0.1750(2) 0.2522(1)
C30 C 0.8854(1) 0.1926(2) 0.3148(1)
C31 C 0.8666(2) 0.2976(2) 0.3386(2)
C32 C 0.8888(1) 0.3868(2) 0.2997(2)
C33 C 0.9300(2) 0.3729(2) 0.2378(2)
C34 C 0.9501(1) 0.2687(2) 0.2149(1)
H1 H 1.3040 0.2230 0.4669
H2 H 1.3869 0.1513 0.4744
H3 H 1.3271 0.1554 0.5387
H4 H 1.1332 0.1194 0.4481
H5 H 1.1518 0.0479 0.5189
H6 H 1.1227 -0.0088 0.4441
H7 H 1.2789 -0.2591 0.4765
H8 H 1.2485 -0.1939 0.4052
H9 H 1.2004 -0.1799 0.4763
H10 H 1.4224 -0.1861 0.4718
H11 H 1.4379 -0.0588 0.4688
H12 H 1.3937 -0.1199 0.4005
H13 H 1.3459 -0.1626 0.5841
H14 H 1.2679 -0.0825 0.5837
H15 H 1.3601 -0.0349 0.5818
H16 H 0.9232 0.0713 0.0191
H17 H 1.0078 0.0756 0.0704
H18 H 0.9353 0.1612 0.0805
H19 H 0.9092 -0.1241 0.0521
H20 H 0.9072 -0.1593 0.1343
H21 H 0.9922 -0.1171 0.1052
H22 H 0.7913 0.0100 0.0635
H23 H 0.7982 0.0976 0.1267
H24 H 0.7865 -0.0272 0.1451
H25 H 1.1360 -0.0212 0.2971
H26 H 1.0930 0.0931 0.3102
H27 H 1.1748 0.1787 0.2290
H28 H 1.2079 0.0732 0.1366
H29 H 1.2622 -0.1000 0.2343
H30 H 1.1792 -0.1046 0.1807
H31 H 1.2575 0.1921 0.3345
H32 H 1.4755 0.1385 0.2760
H33 H 1.4398 0.0693 0.3390
H34 H 1.4351 0.1981 0.3407
H35 H 1.4465 0.0428 0.1715
H36 H 1.4008 -0.1346 0.1828
H37 H 1.4715 -0.1344 0.0790
H38 H 1.3827 -0.1794 0.0453
H39 H 1.0311 -0.1427 0.3091
H40 H 0.9858 -0.2812 0.3823
H41 H 0.8430 -0.3060 0.3934
H42 H 0.7459 -0.1839 0.3378
H43 H 0.7913 -0.0383 0.2719
H44 H 0.8696 0.1323 0.3418
H45 H 0.8388 0.3068 0.3811
H46 H 0.8759 0.4572 0.3153
H47 H 0.9446 0.4340 0.2109
H48 H 0.9800 0.2608 0.1734
loop_
_geom_bond_atom_site_label_1
_geom_bond_atom_site_label_2
_geom_bond_site_symmetry_1
_geom_bond_site_symmetry_2
Si1 O6 1_555 1_555
Si2 O1 1_555 1_555
O1 C15 1_555 1_555
O2 C16 1_555 1_555
O3 C19 1_555 1_555
O4 C22 1_555 1_555
O5 C14 1_555 1_555
O6 C11 1_555 1_555
C1 Si2 1_555 1_555
C2 Si2 1_555 1_555
C3 C6 1_555 1_555
C4 C6 1_555 1_555
C5 C6 1_555 1_555
C6 Si2 1_555 1_555
C7 C10 1_555 1_555
C8 C10 1_555 1_555
C9 C10 1_555 1_555
C10 Si1 1_555 1_555
C11 C12 1_555 1_555
C12 C13 1_555 1_555
C13 C14 1_555 1_555
C14 H29 1_555 1_555
C15 C12 1_555 1_555
C16 C15 1_555 1_555
C17 C16 1_555 1_555
C18 O2 1_555 1_555
C19 C18 1_555 1_555
C20 O5 1_555 1_555
C21 C20 1_555 1_555
C22 O3 1_555 1_555
C23 Si1 1_555 1_555
C24 C23 1_555 1_555
C25 C24 1_555 1_555
C26 C25 1_555 1_555
C27 C26 1_555 1_555
C28 C23 1_555 1_555
C29 Si1 1_555 1_555
C30 C29 1_555 1_555
C31 C30 1_555 1_555
C32 C31 1_555 1_555
C33 C32 1_555 1_555
C34 C29 1_555 1_555
H1 C1 1_555 1_555
H2 C1 1_555 1_555
H3 C1 1_555 1_555
H4 C2 1_555 1_555
H5 C2 1_555 1_555
H6 C2 1_555 1_555
H7 C3 1_555 1_555
H8 C3 1_555 1_555
H9 C3 1_555 1_555
H10 C4 1_555 1_555
H11 C4 1_555 1_555
H12 C4 1_555 1_555
H13 C5 1_555 1_555
H14 C5 1_555 1_555
H15 C5 1_555 1_555
H16 C7 1_555 1_555
H17 C7 1_555 1_555
H18 C7 1_555 1_555
H19 C8 1_555 1_555
H20 C8 1_555 1_555
H21 C8 1_555 1_555
H22 C9 1_555 1_555
H23 C9 1_555 1_555
H24 C9 1_555 1_555
H25 C11 1_555 1_555
H26 C11 1_555 1_555
H27 C12 1_555 1_555
H28 C13 1_555 1_555
H30 C14 1_555 1_555
H31 C15 1_555 1_555
H32 C17 1_555 1_555
H33 C17 1_555 1_555
H34 C17 1_555 1_555
H35 C19 1_555 1_555
H36 C20 1_555 1_555
H37 C21 1_555 1_555
H38 C21 1_555 1_555
H39 C24 1_555 1_555
H40 C25 1_555 1_555
H41 C26 1_555 1_555
H42 C27 1_555 1_555
H43 C28 1_555 1_555
H44 C30 1_555 1_555
H45 C31 1_555 1_555
H46 C32 1_555 1_555
H47 C33 1_555 1_555
H48 C34 1_555 1_555
C13 C18 1_555 1_555
C16 C18 1_555 1_555
C19 C20 1_555 1_555
C21 C22 1_555 1_555
C27 C28 1_555 1_555
C33 C34 1_555 1_555

#END
