
#######################################################################
#
#                 Cambridge Crystallographic Data Centre
#                                CCDC 
#
#######################################################################
#
# If this CIF has been generated from an entry in the Cambridge 
# Structural Database, then it will include bibliographic, chemical, 
# crystal, experimental, refinement or atomic coordinate data resulting 
# from the CCDC's data processing and validation procedures.
#
#######################################################################

data_PAWPOV
_chemical_formula_moiety         'C30 H50 N2 O3 S1 Si2'
_chemical_name_systematic        
N-{1-acetyl-5-[2-({[t-butyl(dimethyl)silyl]oxy}methyl)prop-2-en-1-yl]-2-(trimethylsilyl)-1,3,4,5-tetrahydrobenzo[cd]indol-4-yl}-2-methylpropane-2-sulfinamide
_symmetry_cell_setting           orthorhombic
_symmetry_space_group_name_H-M   'P 21 21 21'
_symmetry_Int_Tables_number      19
_space_group_name_Hall           'P 2ac 2ab'
loop_
_symmetry_equiv_pos_site_id
_symmetry_equiv_pos_as_xyz
1 x,y,z
2 1/2-x,-y,1/2+z
3 -x,1/2+y,1/2-z
4 1/2+x,1/2-y,-z
_cell_length_a                   17.4551(6)
_cell_length_b                   18.2777(7)
_cell_length_c                   21.1819(7)
_cell_angle_alpha                90
_cell_angle_beta                 90
_cell_angle_gamma                90
_cell_volume                     6757.85
_exptl_crystal_colour            colorless
_exptl_crystal_description       block
_cell_formula_units_Z            8
loop_
_atom_site_label
_atom_site_type_symbol
_atom_site_fract_x
_atom_site_fract_y
_atom_site_fract_z
S1 S 0.31959(5) 0.53640(4) 0.12828(3)
Si1 Si 0.24971(5) 0.20501(4) -0.11906(4)
Si2 Si 0.56907(5) 0.66030(5) 0.01738(4)
O1 O 0.32591(12) 0.21604(11) -0.07390(9)
O2 O 0.27347(14) 0.49015(11) 0.17255(9)
O3 O 0.5539(2) 0.72942(16) -0.09578(12)
N1 N 0.31480(14) 0.50270(12) 0.05550(10)
H1 H 0.2771 0.5140 0.0297
N2 N 0.47278(14) 0.63465(12) -0.09446(10)
C1 C 0.40663(15) 0.53231(14) -0.07281(12)
C2 C 0.41667(16) 0.58585(14) -0.11845(12)
C3 C 0.37207(17) 0.58418(16) -0.17352(13)
H2 H 0.3770 0.6206 -0.2053
C4 C 0.32095(18) 0.52753(16) -0.17936(13)
H3 H 0.2906 0.5249 -0.2165
C5 C 0.31130(17) 0.47360(16) -0.13344(13)
H4 H 0.2749 0.4356 -0.1396
C6 C 0.35459(15) 0.47556(14) -0.07909(12)
C7 C 0.35342(16) 0.41855(14) -0.02704(12)
H5 H 0.3000 0.3994 -0.0229
C8 C 0.37733(16) 0.45278(14) 0.03661(12)
H6 H 0.3814 0.4129 0.0687
C9 C 0.45371(16) 0.49399(15) 0.03430(12)
H7 H 0.4614 0.5206 0.0745
H8 H 0.4961 0.4585 0.0296
C10 C 0.45557(15) 0.54769(14) -0.02003(12)
C11 C 0.49566(16) 0.61037(15) -0.03211(12)
C12 C 0.5081(2) 0.69308(17) -0.12432(15)
C13 C 0.4911(2) 0.70748(18) -0.19247(15)
H9 H 0.5207 0.7499 -0.2068
H10 H 0.4363 0.7174 -0.1976
H11 H 0.5052 0.6645 -0.2176
C14 C 0.40676(16) 0.35407(14) -0.04577(13)
H12 H 0.3945 0.3390 -0.0895
H13 H 0.4604 0.3716 -0.0454
C15 C 0.40070(16) 0.28833(14) -0.00345(12)
C16 C 0.45495(18) 0.26970(17) 0.03737(14)
C17 C 0.32986(17) 0.24231(15) -0.01106(13)
H14 H 0.3315 0.2006 0.0187
H15 H 0.2838 0.2719 -0.0015
C18 C 0.2892(2) 0.2069(2) -0.20053(16)
H16 H 0.3130 0.2545 -0.2085
H17 H 0.2477 0.1988 -0.2309
H18 H 0.3277 0.1682 -0.2051
C19 C 0.1792(2) 0.28016(19) -0.1056(2)
H19 H 0.2036 0.3274 -0.1143
H20 H 0.1619 0.2790 -0.0616
H21 H 0.1352 0.2736 -0.1337
C20 C 0.20329(18) 0.11388(17) -0.10252(14)
C21 C 0.1784(2) 0.1089(2) -0.03358(16)
H22 H 0.1546 0.0611 -0.0259
H23 H 0.1414 0.1477 -0.0244
H24 H 0.2233 0.1145 -0.0062
C22 C 0.2599(2) 0.05163(18) -0.1164(2)
H25 H 0.2354 0.0045 -0.1076
H26 H 0.3053 0.0571 -0.0896
H27 H 0.2752 0.0535 -0.1609
C23 C 0.1321(2) 0.1056(2) -0.14389(17)
H28 H 0.1078 0.0582 -0.1354
H29 H 0.1469 0.1082 -0.1885
H30 H 0.0959 0.1450 -0.1344
C24 C 0.2647(2) 0.62116(17) 0.11497(17)
C25 C 0.2534(4) 0.6532(2) 0.1811(2)
H31 H 0.2241 0.6989 0.1780
H32 H 0.3035 0.6633 0.2001
H33 H 0.2254 0.6182 0.2073
C26 C 0.1882(3) 0.6063(2) 0.0836(2)
H34 H 0.1610 0.6526 0.0771
H35 H 0.1574 0.5742 0.1107
H36 H 0.1967 0.5824 0.0428
C27 C 0.3148(3) 0.66968(19) 0.0746(2)
H37 H 0.2879 0.7155 0.0656
H38 H 0.3266 0.6446 0.0348
H39 H 0.3626 0.6803 0.0971
C28 C 0.6669(2) 0.6512(3) -0.0173(2)
H40 H 0.6683 0.6755 -0.0585
H41 H 0.6794 0.5993 -0.0225
H42 H 0.7044 0.6742 0.0109
C29 C 0.5753(2) 0.61240(19) 0.09555(17)
H43 H 0.5254 0.6147 0.1168
H44 H 0.6141 0.6363 0.1219
H45 H 0.5895 0.5611 0.0889
C30 C 0.5399(2) 0.75558(17) 0.03816(16)
H46 H 0.5349 0.7847 -0.0005
H47 H 0.5788 0.7776 0.0656
H48 H 0.4906 0.7545 0.0603
S2 S 0.15148(4) 0.33708(4) 0.08463(3)
Si3 Si 0.52014(6) 0.49141(5) 0.32869(5)
Si4 Si 0.08740(5) 0.07443(4) 0.20680(4)
O4 O 0.52635(11) 0.42448(11) 0.27749(10)
O5 O 0.18727(12) 0.39379(12) 0.04400(9)
O6 O 0.07243(15) 0.05496(14) 0.33343(11)
N3 N 0.19376(13) 0.33597(14) 0.15602(10)
H49 H 0.2036(15) 0.3773(15) 0.1655(12)
N4 N 0.14903(13) 0.15131(12) 0.31780(10)
C31 C 0.23130(14) 0.23441(14) 0.27916(12)
C32 C 0.28199(14) 0.29281(14) 0.27641(12)
C33 C 0.29863(16) 0.32704(16) 0.33292(13)
H50 H 0.3332 0.3672 0.3334
C34 C 0.26549(17) 0.30355(17) 0.38921(13)
H51 H 0.2785 0.3281 0.4273
C35 C 0.21435(18) 0.24589(17) 0.39183(13)
H52 H 0.1915 0.2311 0.4305
C36 C 0.19776(15) 0.21024(15) 0.33497(13)
C37 C 0.15227(16) 0.14077(14) 0.25037(12)
C38 C 0.20291(15) 0.19165(13) 0.22739(12)
C39 C 0.23574(16) 0.20831(14) 0.16313(12)
H53 H 0.1964 0.1986 0.1305
H54 H 0.2798 0.1755 0.1550
C40 C 0.26206(15) 0.28791(14) 0.15824(12)
H55 H 0.2909 0.2939 0.1178
C41 C 0.31389(14) 0.31396(13) 0.21291(12)
H56 H 0.3166 0.3686 0.2111
C42 C 0.39636(14) 0.28362(15) 0.20356(13)
H57 H 0.3955 0.2301 0.2105
H58 H 0.4120 0.2922 0.1592
C43 C 0.45553(15) 0.31667(15) 0.24625(12)
C44 C 0.46515(17) 0.39800(16) 0.24039(14)
H59 H 0.4746 0.4106 0.1956
H60 H 0.4171 0.4224 0.2536
C45 C 0.49820(18) 0.27672(18) 0.28445(15)
H61 H 0.4920 0.2251 0.2856
H62 H 0.5351 0.2996 0.3108
C46 C 0.4875(4) 0.5760(3) 0.2880(3)
H63 H 0.5237 0.5885 0.2543
H64 H 0.4850 0.6163 0.3184
H65 H 0.4366 0.5678 0.2698
C47 C 0.4493(3) 0.4704(3) 0.3907(2)
H66 H 0.3981 0.4670 0.3718
H67 H 0.4497 0.5094 0.4225
H68 H 0.4623 0.4237 0.4107
C48 C 0.6178(2) 0.4984(2) 0.3616(2)
C49 C 0.6730(3) 0.5213(4) 0.3076(3)
H69 H 0.7252 0.5253 0.3242
H70 H 0.6568 0.5686 0.2905
H71 H 0.6717 0.4843 0.2741
C50 C 0.6221(3) 0.5569(3) 0.4131(2)
H72 H 0.6744 0.5593 0.4297
H73 H 0.5866 0.5445 0.4473
H74 H 0.6081 0.6045 0.3952
C51 C 0.6415(4) 0.4247(4) 0.3889(3)
H75 H 0.6933 0.4284 0.4066
H76 H 0.6409 0.3877 0.3554
H77 H 0.6056 0.4105 0.4223
C52 C 0.10690(18) 0.10576(18) 0.35687(14)
C53 C 0.1052(2) 0.1195(2) 0.42579(15)
H78 H 0.0727 0.0828 0.4463
H79 H 0.0845 0.1684 0.4338
H80 H 0.1573 0.1163 0.4428
C54 C -0.01495(17) 0.09947(18) 0.21919(16)
H81 H -0.0280 0.0937 0.2639
H82 H -0.0476 0.0674 0.1937
H83 H -0.0231 0.1504 0.2065
C55 C 0.10539(19) 0.08718(17) 0.11985(14)
H84 H 0.0726 0.0537 0.0958
H85 H 0.1593 0.0767 0.1105
H86 H 0.0937 0.1378 0.1080
C56 C 0.1091(2) -0.02482(17) 0.21944(17)
H87 H 0.1012 -0.0372 0.2640
H88 H 0.1625 -0.0346 0.2078
H89 H 0.0750 -0.0546 0.1931
C57 C 0.05772(16) 0.37247(17) 0.10894(13)
C58 C 0.01563(19) 0.3074(2) 0.13774(16)
H90 H -0.0354 0.3229 0.1517
H91 H 0.0447 0.2889 0.1740
H92 H 0.0105 0.2687 0.1061
C59 C 0.0666(2) 0.43609(19) 0.15459(16)
H93 H 0.0159 0.4540 0.1669
H94 H 0.0953 0.4756 0.1341
H95 H 0.0944 0.4196 0.1922
C60 C 0.01935(19) 0.3978(2) 0.04781(15)
H96 H -0.0316 0.4175 0.0574
H97 H 0.0144 0.3563 0.0188
H98 H 0.0506 0.4360 0.0281
H99? H 0.4394 0.2254 0.0600
H100? H 0.4627 0.3096 0.0676
H101? H 0.5028 0.2603 0.0146
loop_
_geom_bond_atom_site_label_1
_geom_bond_atom_site_label_2
_geom_bond_site_symmetry_1
_geom_bond_site_symmetry_2
S1 O2 1_555 1_555
Si1 O1 1_555 1_555
Si2 C11 1_555 1_555
O1 C17 1_555 1_555
O3 C12 1_555 1_555
N1 S1 1_555 1_555
H1 N1 1_555 1_555
N2 C2 1_555 1_555
C1 C2 1_555 1_555
C2 C3 1_555 1_555
C3 H2 1_555 1_555
C4 C3 1_555 1_555
H3 C4 1_555 1_555
C5 C4 1_555 1_555
H4 C5 1_555 1_555
C6 C1 1_555 1_555
C7 C6 1_555 1_555
H5 C7 1_555 1_555
C8 N1 1_555 1_555
H6 C8 1_555 1_555
C9 C8 1_555 1_555
H7 C9 1_555 1_555
H8 C9 1_555 1_555
C10 C1 1_555 1_555
C11 N2 1_555 1_555
C12 N2 1_555 1_555
C13 C12 1_555 1_555
H9 C13 1_555 1_555
H10 C13 1_555 1_555
H11 C13 1_555 1_555
C14 C7 1_555 1_555
H12 C14 1_555 1_555
H13 C14 1_555 1_555
C15 C14 1_555 1_555
C16 C15 1_555 1_555
C17 C15 1_555 1_555
H14 C17 1_555 1_555
H15 C17 1_555 1_555
C18 Si1 1_555 1_555
H16 C18 1_555 1_555
H17 C18 1_555 1_555
H18 C18 1_555 1_555
C19 Si1 1_555 1_555
H19 C19 1_555 1_555
H20 C19 1_555 1_555
H21 C19 1_555 1_555
C20 Si1 1_555 1_555
C21 C20 1_555 1_555
H22 C21 1_555 1_555
H23 C21 1_555 1_555
H24 C21 1_555 1_555
C22 C20 1_555 1_555
H25 C22 1_555 1_555
H26 C22 1_555 1_555
H27 C22 1_555 1_555
C23 C20 1_555 1_555
H28 C23 1_555 1_555
H29 C23 1_555 1_555
H30 C23 1_555 1_555
C24 S1 1_555 1_555
C25 C24 1_555 1_555
H31 C25 1_555 1_555
H32 C25 1_555 1_555
H33 C25 1_555 1_555
C26 C24 1_555 1_555
H34 C26 1_555 1_555
H35 C26 1_555 1_555
H36 C26 1_555 1_555
C27 C24 1_555 1_555
H37 C27 1_555 1_555
H38 C27 1_555 1_555
H39 C27 1_555 1_555
C28 Si2 1_555 1_555
H40 C28 1_555 1_555
H41 C28 1_555 1_555
H42 C28 1_555 1_555
C29 Si2 1_555 1_555
H43 C29 1_555 1_555
H44 C29 1_555 1_555
H45 C29 1_555 1_555
C30 Si2 1_555 1_555
H46 C30 1_555 1_555
H47 C30 1_555 1_555
H48 C30 1_555 1_555
S2 O5 1_555 1_555
Si3 O4 1_555 1_555
Si4 C37 1_555 1_555
O4 C44 1_555 1_555
O6 C52 1_555 1_555
N3 S2 1_555 1_555
H49 N3 1_555 1_555
N4 C36 1_555 1_555
C31 C32 1_555 1_555
C32 C33 1_555 1_555
C33 H50 1_555 1_555
C34 C33 1_555 1_555
H51 C34 1_555 1_555
C35 C34 1_555 1_555
H52 C35 1_555 1_555
C36 C31 1_555 1_555
C37 N4 1_555 1_555
C38 C31 1_555 1_555
C39 C38 1_555 1_555
H53 C39 1_555 1_555
H54 C39 1_555 1_555
C40 N3 1_555 1_555
H55 C40 1_555 1_555
C41 C32 1_555 1_555
H56 C41 1_555 1_555
C42 C41 1_555 1_555
H57 C42 1_555 1_555
H58 C42 1_555 1_555
C43 C42 1_555 1_555
C44 C43 1_555 1_555
H59 C44 1_555 1_555
H60 C44 1_555 1_555
C45 C43 1_555 1_555
H61 C45 1_555 1_555
H62 C45 1_555 1_555
C46 Si3 1_555 1_555
H63 C46 1_555 1_555
H64 C46 1_555 1_555
H65 C46 1_555 1_555
C47 Si3 1_555 1_555
H66 C47 1_555 1_555
H67 C47 1_555 1_555
H68 C47 1_555 1_555
C48 Si3 1_555 1_555
C49 C48 1_555 1_555
H69 C49 1_555 1_555
H70 C49 1_555 1_555
H71 C49 1_555 1_555
C50 C48 1_555 1_555
H72 C50 1_555 1_555
H73 C50 1_555 1_555
H74 C50 1_555 1_555
C51 C48 1_555 1_555
H75 C51 1_555 1_555
H76 C51 1_555 1_555
H77 C51 1_555 1_555
C52 N4 1_555 1_555
C53 C52 1_555 1_555
H78 C53 1_555 1_555
H79 C53 1_555 1_555
H80 C53 1_555 1_555
C54 Si4 1_555 1_555
H81 C54 1_555 1_555
H82 C54 1_555 1_555
H83 C54 1_555 1_555
C55 Si4 1_555 1_555
H84 C55 1_555 1_555
H85 C55 1_555 1_555
H86 C55 1_555 1_555
C56 Si4 1_555 1_555
H87 C56 1_555 1_555
H88 C56 1_555 1_555
H89 C56 1_555 1_555
C57 S2 1_555 1_555
C58 C57 1_555 1_555
H90 C58 1_555 1_555
H91 C58 1_555 1_555
H92 C58 1_555 1_555
C59 C57 1_555 1_555
H93 C59 1_555 1_555
H94 C59 1_555 1_555
H95 C59 1_555 1_555
C60 C57 1_555 1_555
H96 C60 1_555 1_555
H97 C60 1_555 1_555
H98 C60 1_555 1_555
C5 C6 1_555 1_555
C7 C8 1_555 1_555
C9 C10 1_555 1_555
C10 C11 1_555 1_555
C35 C36 1_555 1_555
C37 C38 1_555 1_555
C39 C40 1_555 1_555
C40 C41 1_555 1_555

#END
