
#######################################################################
#
#                 Cambridge Crystallographic Data Centre
#                                CCDC 
#
#######################################################################
#
# If this CIF has been generated from an entry in the Cambridge 
# Structural Database, then it will include bibliographic, chemical, 
# crystal, experimental, refinement or atomic coordinate data resulting 
# from the CCDC's data processing and validation procedures.
#
#######################################################################

data_PAXGOM
_chemical_formula_moiety         'C11 H10 N2 O1 2+,2(Cl1 O4 1-)'
_chemical_name_systematic        "3,3'-Carbonyldipyridinium diperchlorate"
_symmetry_cell_setting           orthorhombic
_symmetry_space_group_name_H-M   'P 21 21 2'
_symmetry_Int_Tables_number      18
_space_group_name_Hall           'P 2 2ab'
loop_
_symmetry_equiv_pos_site_id
_symmetry_equiv_pos_as_xyz
1 x,y,z
2 -x,-y,z
3 1/2-x,1/2+y,-z
4 1/2+x,1/2-y,-z
_cell_length_a                   8.5315(3)
_cell_length_b                   15.1772(6)
_cell_length_c                   5.6107(2)
_cell_angle_alpha                90
_cell_angle_beta                 90
_cell_angle_gamma                90
_cell_volume                     726.497
_exptl_crystal_colour            colorless
_exptl_crystal_description       block
_cell_formula_units_Z            2
loop_
_atom_site_label
_atom_site_type_symbol
_atom_site_fract_x
_atom_site_fract_y
_atom_site_fract_z
C1 C 0.1257(3) 0.13417(17) 0.4051(5)
H1 H 0.0408 0.1642 0.3402
C2 C 0.1807(3) 0.05924(17) 0.2988(4)
H2 H 0.1340 0.0381 0.1604
C3 C 0.3062(3) 0.01520(14) 0.3985(4)
H3 H 0.3449 -0.0357 0.3274
C4 C 0.3745(3) 0.04756(14) 0.6063(4)
C5 C 0.3158(3) 0.12400(15) 0.7048(4)
H4 H 0.3609 0.1474 0.8419
C6 C 0.5000 0.0000 0.7390(6)
N1 N 0.1948(2) 0.16399(13) 0.6032(4)
H5 H 0.1591 0.2113 0.6677
O1 O 0.5000 0.0000 0.9548(4)
C1A C 0.8743(3) -0.13417(17) 0.4051(5)
H1A H 0.9592 -0.1642 0.3402
C2A C 0.8193(3) -0.05924(17) 0.2988(4)
H2A H 0.8660 -0.0381 0.1604
C3A C 0.6938(3) -0.01520(14) 0.3985(4)
H3A H 0.6551 0.0357 0.3274
C4A C 0.6255(3) -0.04756(14) 0.6063(4)
C5A C 0.6842(3) -0.12400(15) 0.7048(4)
H4A H 0.6391 -0.1474 0.8419
N1A N 0.8052(2) -0.16399(13) 0.6032(4)
H5A H 0.8409 -0.2113 0.6677
Cl1 Cl 0.30796(6) 0.32979(4) 1.13244(10)
O2 O 0.2552(3) 0.31908(15) 0.8930(4)
O3 O 0.1779(3) 0.33349(15) 1.2909(4)
O4 O 0.4064(2) 0.25628(13) 1.1946(4)
O5 O 0.3940(3) 0.41004(13) 1.1460(5)
loop_
_geom_bond_atom_site_label_1
_geom_bond_atom_site_label_2
_geom_bond_site_symmetry_1
_geom_bond_site_symmetry_2
C1 H1 1_555 1_555
C2 C1 1_555 1_555
H2 C2 1_555 1_555
C3 C2 1_555 1_555
H3 C3 1_555 1_555
C4 C3 1_555 1_555
C5 C4 1_555 1_555
H4 C5 1_555 1_555
C6 C4 1_555 1_555
N1 C1 1_555 1_555
H5 N1 1_555 1_555
O1 C6 1_555 1_555
Cl1 O2 1_555 1_555
O3 Cl1 1_555 1_555
O4 Cl1 1_555 1_555
O5 Cl1 1_555 1_555
C1A H1A 1_555 1_555
C2A C1A 1_555 1_555
H2A C2A 1_555 1_555
C3A C2A 1_555 1_555
H3A C3A 1_555 1_555
C4A C6 1_555 1_555
C5A C4A 1_555 1_555
H4A C5A 1_555 1_555
N1A C1A 1_555 1_555
H5A N1A 1_555 1_555
C5 N1 1_555 1_555
C3A C4A 1_555 1_555
C5A N1A 1_555 1_555

#END
