
#######################################################################
#
#                 Cambridge Crystallographic Data Centre
#                                CCDC 
#
#######################################################################
#
# If this CIF has been generated from an entry in the Cambridge 
# Structural Database, then it will include bibliographic, chemical, 
# crystal, experimental, refinement or atomic coordinate data resulting 
# from the CCDC's data processing and validation procedures.
#
#######################################################################

data_PAXGUS
_chemical_formula_moiety         'C14 H11 Br1 N2 O1'
_chemical_name_systematic        
8-Bromo-3-(cyclopropylcarbonyl)-5-methylindolizine-1-carbonitrile
_symmetry_cell_setting           triclinic
_symmetry_space_group_name_H-M   'P -1'
_symmetry_Int_Tables_number      2
_space_group_name_Hall           '-P 1'
loop_
_symmetry_equiv_pos_site_id
_symmetry_equiv_pos_as_xyz
1 x,y,z
2 -x,-y,-z
_cell_length_a                   8.3443(7)
_cell_length_b                   14.5827(13)
_cell_length_c                   16.9132(14)
_cell_angle_alpha                70.418(4)
_cell_angle_beta                 88.849(4)
_cell_angle_gamma                76.833(4)
_cell_volume                     1884.48
_exptl_crystal_colour            brown
_exptl_crystal_description       block
_cell_formula_units_Z            6
loop_
_atom_site_label
_atom_site_type_symbol
_atom_site_fract_x
_atom_site_fract_y
_atom_site_fract_z
Br1 Br 0.19909(4) 0.54881(2) 0.167549(17)
O1 O 0.3515(2) 0.55570(16) -0.23976(11)
N1 N 0.2480(2) 0.50577(15) -0.06225(12)
N2 N -0.0973(4) 0.7573(2) 0.02687(16)
C1 C 0.1094(4) 0.7134(3) -0.36610(17)
H1 H 0.0176 0.7695 -0.3929
H2 H 0.2148 0.7308 -0.3658
C2 C 0.1090(4) 0.6175(3) -0.37514(18)
H3 H 0.2142 0.5755 -0.3803
H4 H 0.0169 0.6142 -0.4074
C3 C 0.0760(3) 0.6309(2) -0.29139(16)
H5 H -0.0378 0.6372 -0.2744
C4 C 0.2085(3) 0.5798(2) -0.22413(16)
C5 C 0.1577(3) 0.5688(2) -0.13826(15)
C6 C 0.0458(3) 0.6420(2) -0.12020(16)
H6 H -0.0318 0.6928 -0.1586
C7 C 0.0660(3) 0.6288(2) -0.03475(15)
C8 C -0.0227(4) 0.6977(2) 0.00283(17)
C9 C 0.1922(3) 0.54384(18) 0.00154(15)
C10 C 0.2650(3) 0.4931(2) 0.08306(16)
C11 C 0.3832(4) 0.4075(2) 0.10048(18)
H7 H 0.4347 0.3754 0.1541
C12 C 0.4265(4) 0.3683(2) 0.03594(19)
H8 H 0.5051 0.3081 0.0485
C13 C 0.3596(3) 0.4136(2) -0.04408(17)
C14 C 0.3917(4) 0.3656(2) -0.10947(19)
H9 H 0.4715 0.3030 -0.0872
H10 H 0.4334 0.4089 -0.1574
H11 H 0.2910 0.3540 -0.1261
Br2 Br 0.46179(4) 0.08329(2) 0.081708(18)
O2 O 0.7806(2) -0.26508(16) 0.47575(11)
N3 N 0.6118(2) -0.15356(15) 0.30490(12)
N4 N 0.2182(4) 0.1597(2) 0.23731(19)
C15 C 0.5985(4) -0.3051(3) 0.62270(17)
H12 H 0.5205 -0.3340 0.6607
H13 H 0.7051 -0.3503 0.6255
C16 C 0.5944(5) -0.1992(3) 0.6058(2)
H14 H 0.6984 -0.1792 0.5984
H15 H 0.5139 -0.1629 0.6335
C17 C 0.5321(3) -0.2299(2) 0.53902(16)
H16 H 0.4123 -0.2129 0.5276
C18 C 0.6347(3) -0.2247(2) 0.46623(15)
C19 C 0.5511(3) -0.15996(19) 0.38451(15)
C20 C 0.4309(3) -0.0747(2) 0.37356(16)
H17 H 0.3686 -0.0599 0.4159
C21 C 0.4158(3) -0.01316(19) 0.28948(15)
C22 C 0.3082(4) 0.0835(2) 0.25739(18)
C23 C 0.5298(3) -0.06160(19) 0.24619(15)
C24 C 0.5740(3) -0.0387(2) 0.16214(15)
C25 C 0.6904(3) -0.1037(2) 0.13926(16)
H18 H 0.7250 -0.0863 0.0847
C26 C 0.7591(3) -0.1979(2) 0.19828(16)
H19 H 0.8365 -0.2433 0.1813
C27 C 0.7170(3) -0.22544(19) 0.27943(16)
C28 C 0.7673(4) -0.3313(2) 0.33769(19)
H20 H 0.8405 -0.3708 0.3105
H21 H 0.6712 -0.3577 0.3523
H22 H 0.8226 -0.3334 0.3877
Br3 Br -0.27413(4) 1.16393(2) 0.23629(2)
O3 O 0.1415(2) 0.68795(15) 0.26399(12)
N5 N 0.0605(3) 0.90135(17) 0.24767(13)
N6 N -0.2081(4) 1.0176(3) 0.46003(18)
C29 C 0.3862(4) 0.5520(3) 0.3895(2)
H23 H 0.3983 0.5487 0.3332
H24 H 0.4868 0.5249 0.4256
C30 C 0.2311(4) 0.5385(3) 0.4284(2)
H25 H 0.2362 0.5032 0.4885
H26 H 0.1476 0.5270 0.3962
C31 C 0.2666(4) 0.6409(2) 0.39932(19)
H27 H 0.2951 0.6665 0.4425
C32 C 0.1748(3) 0.7145(2) 0.32149(17)
C33 C 0.1166(3) 0.8167(2) 0.31987(16)
C34 C 0.0518(3) 0.8423(2) 0.38694(17)
H28 H 0.0720 0.8011 0.4429
C35 C -0.0480(3) 0.9381(2) 0.35932(17)
C36 C -0.1394(4) 0.9854(2) 0.41319(18)
C37 C -0.0449(3) 0.9762(2) 0.27152(16)
C38 C -0.1185(3) 1.0661(2) 0.20829(17)
C39 C -0.0805(4) 1.0834(2) 0.12739(19)
H29 H -0.1322 1.1424 0.0854
C40 C 0.0386(4) 1.0104(3) 0.10818(18)
H30 H 0.0698 1.0244 0.0531
C41 C 0.1104(4) 0.9210(2) 0.16544(17)
C42 C 0.2461(4) 0.8478(3) 0.1459(2)
H31 H 0.2645 0.8719 0.0870
H32 H 0.2167 0.7845 0.1598
H33 H 0.3450 0.8396 0.1781
loop_
_geom_bond_atom_site_label_1
_geom_bond_atom_site_label_2
_geom_bond_site_symmetry_1
_geom_bond_site_symmetry_2
Br1 C10 1_555 1_555
Br2 C24 1_555 1_555
Br3 C38 1_555 1_555
O1 C4 1_555 1_555
O2 C18 1_555 1_555
O3 C32 1_555 1_555
N1 C5 1_555 1_555
N2 C8 1_555 1_555
N3 C19 1_555 1_555
N4 C22 1_555 1_555
N5 C33 1_555 1_555
N6 C36 1_555 1_555
C1 H1 1_555 1_555
H2 C1 1_555 1_555
C2 C1 1_555 1_555
H3 C2 1_555 1_555
H4 C2 1_555 1_555
C3 C1 1_555 1_555
H5 C3 1_555 1_555
C4 C3 1_555 1_555
C5 C4 1_555 1_555
C6 C5 1_555 1_555
H6 C6 1_555 1_555
C7 C6 1_555 1_555
C8 C7 1_555 1_555
C9 N1 1_555 1_555
C10 C9 1_555 1_555
C11 C10 1_555 1_555
H7 C11 1_555 1_555
C12 C11 1_555 1_555
H8 C12 1_555 1_555
C13 N1 1_555 1_555
C14 C13 1_555 1_555
H9 C14 1_555 1_555
H10 C14 1_555 1_555
H11 C14 1_555 1_555
C15 H12 1_555 1_555
H13 C15 1_555 1_555
C16 C15 1_555 1_555
H14 C16 1_555 1_555
H15 C16 1_555 1_555
C17 C15 1_555 1_555
H16 C17 1_555 1_555
C18 C17 1_555 1_555
C19 C18 1_555 1_555
C20 C19 1_555 1_555
H17 C20 1_555 1_555
C21 C20 1_555 1_555
C22 C21 1_555 1_555
C23 N3 1_555 1_555
C24 C23 1_555 1_555
C25 C24 1_555 1_555
H18 C25 1_555 1_555
C26 C25 1_555 1_555
H19 C26 1_555 1_555
C27 N3 1_555 1_555
C28 C27 1_555 1_555
H20 C28 1_555 1_555
H21 C28 1_555 1_555
H22 C28 1_555 1_555
C29 H23 1_555 1_555
H24 C29 1_555 1_555
C30 C29 1_555 1_555
H25 C30 1_555 1_555
H26 C30 1_555 1_555
C31 C29 1_555 1_555
H27 C31 1_555 1_555
C32 C31 1_555 1_555
C33 C32 1_555 1_555
C34 C33 1_555 1_555
H28 C34 1_555 1_555
C35 C34 1_555 1_555
C36 C35 1_555 1_555
C37 N5 1_555 1_555
C38 C37 1_555 1_555
C39 C38 1_555 1_555
H29 C39 1_555 1_555
C40 C39 1_555 1_555
H30 C40 1_555 1_555
C41 N5 1_555 1_555
C42 C41 1_555 1_555
H31 C42 1_555 1_555
H32 C42 1_555 1_555
H33 C42 1_555 1_555
C2 C3 1_555 1_555
C7 C9 1_555 1_555
C12 C13 1_555 1_555
C16 C17 1_555 1_555
C21 C23 1_555 1_555
C26 C27 1_555 1_555
C30 C31 1_555 1_555
C35 C37 1_555 1_555
C40 C41 1_555 1_555

#END
