
#######################################################################
#
#                 Cambridge Crystallographic Data Centre
#                                CCDC 
#
#######################################################################
#
# If this CIF has been generated from an entry in the Cambridge 
# Structural Database, then it will include bibliographic, chemical, 
# crystal, experimental, refinement or atomic coordinate data resulting 
# from the CCDC's data processing and validation procedures.
#
#######################################################################

data_PAXQAG
_chemical_formula_moiety         'C18 H20 B2 N4 O1'
_chemical_name_systematic        (\m~2~-Oxo)-bis(7-azaindole)-diethyl-diborate
_symmetry_cell_setting           monoclinic
_symmetry_space_group_name_H-M   'P 21/n'
_symmetry_Int_Tables_number      14
_space_group_name_Hall           '-P 2yn'
loop_
_symmetry_equiv_pos_site_id
_symmetry_equiv_pos_as_xyz
1 x,y,z
2 1/2-x,1/2+y,1/2-z
3 -x,-y,-z
4 1/2+x,1/2-y,1/2+z
_cell_length_a                   12.865(4)
_cell_length_b                   10.085(3)
_cell_length_c                   13.476(4)
_cell_angle_alpha                90
_cell_angle_beta                 103.81(2)
_cell_angle_gamma                90
_cell_volume                     1697.88
_exptl_crystal_colour            colorless
_chemical_melting_point          290deg.C
_cell_formula_units_Z            4
loop_
_atom_site_label
_atom_site_type_symbol
_atom_site_fract_x
_atom_site_fract_y
_atom_site_fract_z
O1 O 0.2301(2) 0.2265(2) 0.0679(2)
N1 N 0.2553(3) 0.4623(3) 0.0429(2)
B1 B 0.2205(4) 0.3519(4) 0.1143(3)
C1 C 0.2216(4) 0.5920(4) 0.0280(4)
N2 N 0.3655(2) 0.3076(3) -0.0162(2)
B2 B 0.3306(3) 0.1883(4) 0.0487(3)
C2 C 0.2437(11) 0.6739(13) -0.0427(9)
N3 N 0.3130(3) 0.3559(3) 0.2185(2)
C5 C 0.3154(7) 0.6353(10) -0.1040(7)
N4 N 0.4154(2) 0.1919(3) 0.1573(2)
C6 C 0.3577(7) 0.5048(10) -0.0926(7)
C8 C 0.4266(10) 0.4339(14) -0.1336(8)
C10 C 0.4315(3) 0.3034(4) -0.0837(3)
C11 C 0.3214(3) 0.4292(4) -0.0157(3)
C12 C 0.3173(4) 0.4308(4) 0.3050(3)
C13 C 0.3927(10) 0.4212(12) 0.3963(9)
C15 C 0.4808(7) 0.3374(8) 0.4045(6)
C17 C 0.4867(8) 0.2599(9) 0.3223(6)
C19 C 0.5586(7) 0.1646(10) 0.2945(7)
C21 C 0.5084(3) 0.1216(4) 0.1907(3)
C22 C 0.3980(3) 0.2739(3) 0.2305(2)
C23 C 0.1060(3) 0.3846(4) 0.1346(3)
C24 C 0.0639(4) 0.2840(5) 0.1972(4)
C25 C 0.3324(3) 0.0494(4) -0.0071(3)
C26 C 0.2546(3) 0.0393(4) -0.1111(3)
H1 H 0.1102(3) 0.4696(4) 0.1689(3)
H2 H 0.0549(3) 0.3934(4) 0.0692(3)
H3 H -0.0049(4) 0.3118(5) 0.2054(4)
H4 H 0.1126(4) 0.2761(5) 0.2631(4)
H5 H 0.0572(4) 0.1997(5) 0.1632(4)
H6 H 0.4042(3) 0.0336(4) -0.0152(3)
H7 H 0.3158(3) -0.0201(4) 0.0365(3)
H8 H 0.2604(3) -0.0468(4) -0.1397(3)
H9 H 0.2714(3) 0.1060(4) -0.1557(3)
H10 H 0.1829(3) 0.0523(4) -0.1039(3)
C3? C 0.4499(10) 0.4022(12) -0.1378(9)
C4? C 0.4039(8) 0.5308(2) -0.1343(8)
C7? C 0.3378(7) 0.5452(11) -0.0703(7)
C9? C 0.2780(11) 0.6537(12) -0.0426(9)
C14? C 0.5724(9) 0.1225(12) 0.2827(8)
C16? C 0.5531(8) 0.2125(9) 0.3540(7)
C18? C 0.4594(8) 0.2929(11) 0.3269(8)
C20? C 0.4118(10) 0.3973(12) 0.3771(9)
loop_
_geom_bond_atom_site_label_1
_geom_bond_atom_site_label_2
_geom_bond_site_symmetry_1
_geom_bond_site_symmetry_2
O1 B1 1_555 1_555
N1 B1 1_555 1_555
B1 N3 1_555 1_555
C1 N1 1_555 1_555
N2 B2 1_555 1_555
B2 O1 1_555 1_555
C2 C1 1_555 1_555
N3 C12 1_555 1_555
C5 C2 1_555 1_555
N4 B2 1_555 1_555
C6 C5 1_555 1_555
C8 C6 1_555 1_555
C10 N2 1_555 1_555
C11 N1 1_555 1_555
C12 C13 1_555 1_555
C13 C15 1_555 1_555
C15 C17 1_555 1_555
C17 C19 1_555 1_555
C19 C21 1_555 1_555
C21 N4 1_555 1_555
C22 N3 1_555 1_555
C23 B1 1_555 1_555
C24 C23 1_555 1_555
C25 B2 1_555 1_555
C26 C25 1_555 1_555
H1 C23 1_555 1_555
H2 C23 1_555 1_555
H3 C24 1_555 1_555
H4 C24 1_555 1_555
H5 C24 1_555 1_555
H6 C25 1_555 1_555
H7 C25 1_555 1_555
H8 C26 1_555 1_555
H9 C26 1_555 1_555
H10 C26 1_555 1_555
N2 C11 1_555 1_555
N4 C22 1_555 1_555
C6 C11 1_555 1_555
C8 C10 1_555 1_555
C17 C22 1_555 1_555

#END
