
#######################################################################
#
#                 Cambridge Crystallographic Data Centre
#                                CCDC 
#
#######################################################################
#
# If this CIF has been generated from an entry in the Cambridge 
# Structural Database, then it will include bibliographic, chemical, 
# crystal, experimental, refinement or atomic coordinate data resulting 
# from the CCDC's data processing and validation procedures.
#
#######################################################################

data_PAXYIX
_chemical_formula_moiety         'C22 H30 N1 O5 P1'
_chemical_name_systematic        
2-Diethoxyphosphinyl-1-benzyl-6,7-dimethoxy-1,2,3,4-tetrahydroisoquinoline
_symmetry_cell_setting           monoclinic
_symmetry_space_group_name_H-M   'C 2/c'
_symmetry_Int_Tables_number      15
_space_group_name_Hall           '-C 2yn'
loop_
_symmetry_equiv_pos_site_id
_symmetry_equiv_pos_as_xyz
1 x,y,z
2 1/2+x,1/2+y,z
3 -x,y,1/2-z
4 1/2-x,1/2+y,1/2-z
5 -x,-y,-z
6 1/2-x,1/2-y,-z
7 x,-y,1/2+z
8 1/2+x,1/2-y,1/2+z
_cell_length_a                   26.1190(11)
_cell_length_b                   11.9826(5)
_cell_length_c                   15.2042(7)
_cell_angle_alpha                90
_cell_angle_beta                 111.5270(10)
_cell_angle_gamma                90
_cell_volume                     4426.58
_exptl_crystal_colour            colorless
_exptl_crystal_description       block
_chemical_melting_point          99-101deg.C
_cell_formula_units_Z            8
loop_
_atom_site_label
_atom_site_type_symbol
_atom_site_fract_x
_atom_site_fract_y
_atom_site_fract_z
P1 P 0.28142(3) 0.48432(8) 0.05225(6)
O1 O 0.24037(9) 0.40121(19) 0.07250(16)
O2 O 0.33243(9) 0.4036(2) 0.08439(18)
O3 O 0.28829(11) 0.5911(2) 0.10153(16)
O4 O 0.05453(13) 0.7482(3) -0.3045(2)
O5 O 0.01630(11) 0.5536(3) -0.3584(2)
N1 N 0.26385(10) 0.5008(2) -0.06172(17)
C1 C 0.14898(17) 0.3511(4) 0.0594(4)
H1 H 0.1138 0.3799 0.0552
H2 H 0.1637 0.3048 0.1145
H3 H 0.1447 0.3078 0.0040
C2 C 0.18750(17) 0.4460(4) 0.0664(3)
H4 H 0.1727 0.4936 0.0113
H5 H 0.1919 0.4904 0.1221
C3 C 0.38214(16) 0.4375(4) 0.0719(4)
H6 H 0.3881 0.5169 0.0837
H7 H 0.3793 0.4226 0.0076
C4 C 0.42837(18) 0.3739(5) 0.1391(4)
H8 H 0.4620 0.3953 0.1317
H9 H 0.4222 0.2955 0.1267
H10 H 0.4310 0.3896 0.2025
C5 C 0.25441(15) 0.4025(3) -0.1245(3)
H11 H 0.2822 0.3623 -0.1346
C6 C 0.19402(15) 0.3758(3) -0.1700(3)
H12 H 0.1799 0.3037 -0.1767
C7 C 0.15893(13) 0.4782(3) -0.2035(2)
C8 C 0.10400(14) 0.4664(3) -0.2650(2)
H13 H 0.0901 0.3954 -0.2845
C9 C 0.07034(14) 0.5572(3) -0.2970(2)
C10 C 0.09049(14) 0.6638(3) -0.2672(2)
C11 C 0.14447(13) 0.6760(3) -0.2060(2)
H14 H 0.1581 0.7470 -0.1857
C12 C 0.17896(12) 0.5836(3) -0.1740(2)
C13 C 0.27076(13) 0.6544(3) -0.1676(2)
H15 H 0.2662 0.6053 -0.2207
H16 H 0.2545 0.7257 -0.1931
C14 C 0.33067(14) 0.6712(3) -0.1146(2)
C15 C 0.34915(16) 0.7448(3) -0.0385(3)
H17 H 0.3238 0.7842 -0.0209
C16 C 0.40475(19) 0.7598(4) 0.0112(3)
H18 H 0.4163 0.8090 0.0620
C17 C 0.44249(19) 0.7044(5) -0.0128(3)
H19 H 0.4798 0.7149 0.0213
C18 C 0.42543(19) 0.6329(6) -0.0876(4)
H20 H 0.4513 0.5948 -0.1050
C19 C 0.36924(17) 0.6162(5) -0.1385(3)
H21 H 0.3581 0.5669 -0.1893
C20 C 0.23852(12) 0.6049(3) -0.1099(2)
C21 C 0.0701(3) 0.8516(5) -0.2763(5)
H22 H 0.0407 0.9023 -0.3085
H23 H 0.1019 0.8704 -0.2906
H24 H 0.0789 0.8572 -0.2093
C22 C -0.0077(2) 0.4487(5) -0.3878(4)
H25 H -0.0450 0.4582 -0.4307
H26 H -0.0073 0.4067 -0.3338
H27 H 0.0128 0.4093 -0.4191
loop_
_geom_bond_atom_site_label_1
_geom_bond_atom_site_label_2
_geom_bond_site_symmetry_1
_geom_bond_site_symmetry_2
P1 O1 1_555 1_555
O1 C2 1_555 1_555
O2 P1 1_555 1_555
O3 P1 1_555 1_555
O4 C10 1_555 1_555
O5 C9 1_555 1_555
N1 P1 1_555 1_555
C1 H1 1_555 1_555
H2 C1 1_555 1_555
H3 C1 1_555 1_555
C2 C1 1_555 1_555
H4 C2 1_555 1_555
H5 C2 1_555 1_555
C3 O2 1_555 1_555
H6 C3 1_555 1_555
H7 C3 1_555 1_555
C4 C3 1_555 1_555
H8 C4 1_555 1_555
H9 C4 1_555 1_555
H10 C4 1_555 1_555
C5 N1 1_555 1_555
H11 C5 1_555 1_555
C6 C5 1_555 1_555
H12 C6 1_555 1_555
C7 C6 1_555 1_555
C8 C7 1_555 1_555
H13 C8 1_555 1_555
C9 C8 1_555 1_555
C10 C9 1_555 1_555
C11 C10 1_555 1_555
H14 C11 1_555 1_555
C12 C7 1_555 1_555
C13 H15 1_555 1_555
H16 C13 1_555 1_555
C14 C13 1_555 1_555
C15 C14 1_555 1_555
H17 C15 1_555 1_555
C16 C15 1_555 1_555
H18 C16 1_555 1_555
C17 C16 1_555 1_555
H19 C17 1_555 1_555
C18 C17 1_555 1_555
H20 C18 1_555 1_555
C19 C14 1_555 1_555
H21 C19 1_555 1_555
C20 N1 1_555 1_555
C21 O4 1_555 1_555
H22 C21 1_555 1_555
H23 C21 1_555 1_555
H24 C21 1_555 1_555
C22 O5 1_555 1_555
H25 C22 1_555 1_555
H26 C22 1_555 1_555
H27 C22 1_555 1_555
C11 C12 1_555 1_555
C12 C20 1_555 1_555
C13 C20 1_555 1_555
C18 C19 1_555 1_555

#END
