
#######################################################################
#
#                 Cambridge Crystallographic Data Centre
#                                CCDC 
#
#######################################################################
#
# If this CIF has been generated from an entry in the Cambridge 
# Structural Database, then it will include bibliographic, chemical, 
# crystal, experimental, refinement or atomic coordinate data resulting 
# from the CCDC's data processing and validation procedures.
#
#######################################################################

data_PAYJAD
_chemical_compound_source        'eggs of the toad Bufo bufo gargarizans'
_chemical_formula_moiety         'C27 H36 O8'
_chemical_name_systematic        
11,14-dihydroxy-3-[(2-hydroxypropanoyl)oxy]-12-oxobufa-20,22-dienolide
_chemical_properties_biological  
'potent cytotoxic agent against human gastric cancer cells BGC-823 and human lung cancer cells A549'
_symmetry_cell_setting           monoclinic
_symmetry_space_group_name_H-M   'P 21'
_symmetry_Int_Tables_number      4
_space_group_name_Hall           'P 2yb'
loop_
_symmetry_equiv_pos_site_id
_symmetry_equiv_pos_as_xyz
1 x,y,z
2 -x,1/2+y,-z
_cell_length_a                   6.26417(6)
_cell_length_b                   18.04765(14)
_cell_length_c                   10.53779(10)
_cell_angle_alpha                90
_cell_angle_beta                 91.2643(9)
_cell_angle_gamma                90
_cell_volume                     1191.04
_exptl_crystal_colour            colorless
_exptl_crystal_description       blocks
_cell_formula_units_Z            2
loop_
_atom_site_label
_atom_site_type_symbol
_atom_site_fract_x
_atom_site_fract_y
_atom_site_fract_z
O1 O 0.6248(2) 0.63147(9) -0.06430(13)
O2 O 0.8593(2) 0.62670(7) 0.47062(12)
H1 H 0.9777 0.6220 0.5044
O3 O 1.0712(2) 0.51720(7) 0.57067(12)
O4 O 0.5016(2) 0.34768(7) 0.52116(12)
H2 H 0.4842 0.3125 0.4727
O5 O 1.1196(3) 0.33760(9) 0.96381(14)
O6 O 0.9711(4) 0.28319(11) 1.12788(15)
O7 O 0.8233(2) 0.61663(7) -0.23843(12)
O8 O 0.5974(2) 0.72163(7) -0.36684(12)
H3 H 0.6917 0.6934 -0.3899
C1 C 0.6842(3) 0.64379(10) 0.21279(18)
H4 H 0.5919 0.6796 0.1703
H5 H 0.7548 0.6688 0.2836
C2 C 0.8530(3) 0.61832(13) 0.12041(19)
H6 H 0.9308 0.6611 0.0904
H7 H 0.9538 0.5860 0.1645
C3 C 0.7557(3) 0.57755(12) 0.00815(19)
H8 H 0.8686 0.5579 -0.0452
C4 C 0.6126(3) 0.51521(11) 0.05125(17)
H9 H 0.7009 0.4764 0.0885
H10 H 0.5388 0.4945 -0.0224
C5 C 0.4456(3) 0.53906(10) 0.14849(17)
H11 H 0.3488 0.5740 0.1052
C6 C 0.3111(3) 0.47225(10) 0.18741(19)
H12 H 0.1904 0.4893 0.2356
H13 H 0.2559 0.4475 0.1118
C7 C 0.4412(3) 0.41733(10) 0.26727(18)
H14 H 0.5548 0.3970 0.2168
H15 H 0.3501 0.3767 0.2927
C8 C 0.5378(3) 0.45491(9) 0.38596(16)
H16 H 0.4172 0.4727 0.4352
C9 C 0.6715(3) 0.52449(9) 0.35222(16)
H17 H 0.7985 0.5083 0.3072
C10 C 0.5445(3) 0.58032(10) 0.26524(17)
C11 C 0.7445(3) 0.55937(9) 0.48069(16)
H18 H 0.6178 0.5685 0.5313
C12 C 0.8840(3) 0.50278(9) 0.54991(16)
C13 C 0.7780(3) 0.43055(9) 0.58836(16)
C14 C 0.6567(3) 0.39732(9) 0.47039(17)
C15 C 0.8319(3) 0.35219(10) 0.40711(17)
H19 H 0.9323 0.3842 0.3648
H20 H 0.7717 0.3174 0.3460
C16 C 0.9393(3) 0.31174(10) 0.51926(18)
H21 H 1.0796 0.2938 0.4972
H22 H 0.8532 0.2702 0.5464
C17 C 0.9554(3) 0.37158(10) 0.62371(17)
H23 H 1.0934 0.3963 0.6139
C18 C 0.6261(3) 0.45009(10) 0.69629(17)
H24 H 0.7061 0.4722 0.7652
H25 H 0.5577 0.4058 0.7255
H26 H 0.5199 0.4844 0.6655
C19 C 0.3662(3) 0.61722(11) 0.34017(18)
H27 H 0.4278 0.6510 0.4011
H28 H 0.2864 0.5799 0.3835
H29 H 0.2728 0.6438 0.2828
C20 C 0.9517(3) 0.34302(10) 0.75778(17)
C21 C 1.1103(3) 0.35980(11) 0.83971(19)
H30 H 1.2221 0.3885 0.8103
C22 C 0.7813(3) 0.29847(10) 0.80685(18)
H31 H 0.6698 0.2835 0.7530
C23 C 0.7817(4) 0.27819(11) 0.9301(2)
H32 H 0.6680 0.2506 0.9601
C24 C 0.9537(4) 0.29815(12) 1.01659(19)
C25 C 0.6768(3) 0.64489(10) -0.18462(17)
C26 C 0.5183(3) 0.69710(10) -0.24854(17)
H33 H 0.4978 0.7402 -0.1936
C27 C 0.3057(3) 0.65730(11) -0.2668(2)
H34 H 0.2058 0.6895 -0.3098
H35 H 0.2513 0.6439 -0.1855
H36 H 0.3259 0.6134 -0.3166
loop_
_geom_bond_atom_site_label_1
_geom_bond_atom_site_label_2
_geom_bond_site_symmetry_1
_geom_bond_site_symmetry_2
O1 C3 1_555 1_555
O2 H1 1_555 1_555
O3 C12 1_555 1_555
O4 H2 1_555 1_555
O5 C21 1_555 1_555
O6 C24 1_555 1_555
O7 C25 1_555 1_555
O8 H3 1_555 1_555
C1 H4 1_555 1_555
H5 C1 1_555 1_555
C2 C1 1_555 1_555
H6 C2 1_555 1_555
H7 C2 1_555 1_555
C3 C2 1_555 1_555
H8 C3 1_555 1_555
C4 C3 1_555 1_555
H9 C4 1_555 1_555
H10 C4 1_555 1_555
C5 C4 1_555 1_555
H11 C5 1_555 1_555
C6 C5 1_555 1_555
H12 C6 1_555 1_555
H13 C6 1_555 1_555
C7 C6 1_555 1_555
H14 C7 1_555 1_555
H15 C7 1_555 1_555
C8 C7 1_555 1_555
H16 C8 1_555 1_555
C9 C8 1_555 1_555
H17 C9 1_555 1_555
C10 C1 1_555 1_555
C11 O2 1_555 1_555
H18 C11 1_555 1_555
C12 C11 1_555 1_555
C13 C12 1_555 1_555
C14 O4 1_555 1_555
C15 C14 1_555 1_555
H19 C15 1_555 1_555
H20 C15 1_555 1_555
C16 C15 1_555 1_555
H21 C16 1_555 1_555
H22 C16 1_555 1_555
C17 C13 1_555 1_555
H23 C17 1_555 1_555
C18 C13 1_555 1_555
H24 C18 1_555 1_555
H25 C18 1_555 1_555
H26 C18 1_555 1_555
C19 C10 1_555 1_555
H27 C19 1_555 1_555
H28 C19 1_555 1_555
H29 C19 1_555 1_555
C20 C17 1_555 1_555
C21 C20 1_555 1_555
H30 C21 1_555 1_555
C22 C20 1_555 1_555
H31 C22 1_555 1_555
C23 C22 1_555 1_555
H32 C23 1_555 1_555
C24 O5 1_555 1_555
C25 O1 1_555 1_555
C26 O8 1_555 1_555
H33 C26 1_555 1_555
C27 C26 1_555 1_555
H34 C27 1_555 1_555
H35 C27 1_555 1_555
H36 C27 1_555 1_555
C5 C10 1_555 1_555
C8 C14 1_555 1_555
C9 C10 1_555 1_555
C9 C11 1_555 1_555
C13 C14 1_555 1_555
C16 C17 1_555 1_555
C23 C24 1_555 1_555
C25 C26 1_555 1_555

#END
