
#######################################################################
#
#                 Cambridge Crystallographic Data Centre
#                                CCDC 
#
#######################################################################
#
# If this CIF has been generated from an entry in the Cambridge 
# Structural Database, then it will include bibliographic, chemical, 
# crystal, experimental, refinement or atomic coordinate data resulting 
# from the CCDC's data processing and validation procedures.
#
#######################################################################

data_PAZCID01
_chemical_formula_moiety         'C14 H10 Cl2 N2 O1'
_chemical_name_systematic        '2,4-Dichlorobenzaldehyde benzoylhydrazone'
_chemical_properties_biological  'no bactericidal activity'
_symmetry_cell_setting           monoclinic
_symmetry_space_group_name_H-M   'P 21/n'
_symmetry_Int_Tables_number      14
_space_group_name_Hall           '-P 2yn'
loop_
_symmetry_equiv_pos_site_id
_symmetry_equiv_pos_as_xyz
1 x,y,z
2 1/2-x,1/2+y,1/2-z
3 -x,-y,-z
4 1/2+x,1/2-y,1/2+z
_cell_length_a                   10.5093(5)
_cell_length_b                   17.6499(9)
_cell_length_c                   14.7982(5)
_cell_angle_alpha                90
_cell_angle_beta                 104.732(2)
_cell_angle_gamma                90
_cell_volume                     2654.65
_exptl_crystal_colour            colorless
_exptl_crystal_description       needle
_chemical_melting_point          '462-464 K'
_cell_formula_units_Z            8
_exptl_crystal_recrystallization_method methanol/heptane
loop_
_atom_site_label
_atom_site_type_symbol
_atom_site_fract_x
_atom_site_fract_y
_atom_site_fract_z
C1 C 0.9744(3) 0.2791(2) 0.4130(2)
C2 C 1.0069(4) 0.2530(2) 0.3333(2)
Cl1 Cl 0.88367(11) 0.24508(8) 0.22962(7)
C3 C 1.1341(4) 0.2319(2) 0.3322(2)
C4 C 1.2304(3) 0.2401(2) 0.4129(2)
Cl2 Cl 1.38988(9) 0.21204(6) 0.41435(7)
C5 C 1.2047(3) 0.2684(2) 0.4935(2)
C6 C 1.0782(3) 0.2879(2) 0.4932(2)
C7 C 0.8401(3) 0.30026(19) 0.4129(2)
N1 N 0.8088(2) 0.31225(16) 0.48924(18)
N2 N 0.6809(2) 0.33750(15) 0.47809(18)
C8 C 0.6388(3) 0.35245(19) 0.5553(2)
O1 O 0.7063(2) 0.33619(14) 0.63429(15)
C9 C 0.5089(3) 0.39111(19) 0.5402(2)
C10 C 0.4681(3) 0.4105(2) 0.6196(2)
C11 C 0.3509(3) 0.4491(2) 0.6110(3)
C12 C 0.2736(3) 0.4686(2) 0.5233(3)
C13 C 0.3138(3) 0.4495(2) 0.4452(3)
C14 C 0.4316(3) 0.4117(2) 0.4533(2)
H1 H 1.1531 0.2124 0.2772
H2 H 1.2738 0.2742 0.5486
H3 H 1.0607 0.3078 0.5484
H4 H 0.7754 0.3051 0.3552
H5 H 0.6384 0.3498 0.4207
H6 H 0.5206 0.3971 0.6797
H7 H 0.3234 0.4623 0.6653
H8 H 0.1932 0.4950 0.5176
H9 H 0.2605 0.4622 0.3851
H10 H 0.4596 0.3999 0.3987
C15 C 0.6153(3) 0.08524(19) 0.2827(2)
C16 C 0.6209(3) 0.0106(2) 0.2537(2)
Cl3 Cl 0.52231(9) -0.01937(6) 0.14709(7)
C17 C 0.7043(3) -0.0421(2) 0.3072(3)
C18 C 0.7821(4) -0.0205(2) 0.3925(3)
Cl4 Cl 0.88383(11) -0.08745(6) 0.46080(8)
C19 C 0.7790(4) 0.0525(2) 0.4258(3)
C20 C 0.6955(3) 0.1049(2) 0.3702(2)
C21 C 0.5242(3) 0.1414(2) 0.2283(2)
N3 N 0.5423(3) 0.21111(16) 0.24940(18)
N4 N 0.4467(3) 0.25948(16) 0.20021(18)
C22 C 0.4585(3) 0.3342(2) 0.2229(2)
O2 O 0.5583(2) 0.36061(14) 0.27595(15)
C23 C 0.3420(3) 0.3832(2) 0.1820(2)
C24 C 0.3613(4) 0.4617(2) 0.1883(2)
C25 C 0.2562(4) 0.5106(2) 0.1570(3)
C26 C 0.1312(4) 0.4825(2) 0.1200(3)
C27 C 0.1109(4) 0.4053(2) 0.1131(3)
C28 C 0.2154(3) 0.3552(2) 0.1441(2)
H11 H 0.7078 -0.0925 0.2853
H12 H 0.8326 0.0666 0.4853
H13 H 0.6929 0.1552 0.3923
H14 H 0.4530 0.1260 0.1781
H15 H 0.3745 0.2418 0.1621
H16 H 0.4469 0.4814 0.2142
H17 H 0.2703 0.5638 0.1610
H18 H 0.0592 0.5162 0.0994
H19 H 0.0250 0.3861 0.0870
H20 H 0.2006 0.3021 0.1395
loop_
_geom_bond_atom_site_label_1
_geom_bond_atom_site_label_2
_geom_bond_site_symmetry_1
_geom_bond_site_symmetry_2
C1 C2 1_555 1_555
C2 Cl1 1_555 1_555
C3 C2 1_555 1_555
C4 C3 1_555 1_555
Cl2 C4 1_555 1_555
C5 C4 1_555 1_555
C6 C1 1_555 1_555
C7 C1 1_555 1_555
N1 C7 1_555 1_555
N2 N1 1_555 1_555
C8 N2 1_555 1_555
O1 C8 1_555 1_555
C9 C8 1_555 1_555
C10 C9 1_555 1_555
C11 C10 1_555 1_555
C12 C11 1_555 1_555
C13 C12 1_555 1_555
C14 C9 1_555 1_555
C15 C16 1_555 1_555
C16 Cl3 1_555 1_555
C17 C16 1_555 1_555
C18 C17 1_555 1_555
Cl4 C18 1_555 1_555
C19 C18 1_555 1_555
C20 C15 1_555 1_555
C21 C15 1_555 1_555
N3 C21 1_555 1_555
N4 N3 1_555 1_555
C22 N4 1_555 1_555
O2 C22 1_555 1_555
C23 C22 1_555 1_555
C24 C23 1_555 1_555
C25 C24 1_555 1_555
C26 C25 1_555 1_555
C27 C26 1_555 1_555
C28 C23 1_555 1_555
H1 C3 1_555 1_555
H2 C5 1_555 1_555
H3 C6 1_555 1_555
H4 C7 1_555 1_555
H5 N2 1_555 1_555
H6 C10 1_555 1_555
H7 C11 1_555 1_555
H8 C12 1_555 1_555
H9 C13 1_555 1_555
H10 C14 1_555 1_555
H11 C17 1_555 1_555
H12 C19 1_555 1_555
H13 C20 1_555 1_555
H14 C21 1_555 1_555
H15 N4 1_555 1_555
H16 C24 1_555 1_555
H17 C25 1_555 1_555
H18 C26 1_555 1_555
H19 C27 1_555 1_555
H20 C28 1_555 1_555
C5 C6 1_555 1_555
C13 C14 1_555 1_555
C19 C20 1_555 1_555
C27 C28 1_555 1_555

#END
