
#######################################################################
#
#                 Cambridge Crystallographic Data Centre
#                                CCDC 
#
#######################################################################
#
# If this CIF has been generated from an entry in the Cambridge 
# Structural Database, then it will include bibliographic, chemical, 
# crystal, experimental, refinement or atomic coordinate data resulting 
# from the CCDC's data processing and validation procedures.
#
#######################################################################

data_PAZFAY
_chemical_formula_moiety         'C12 H4 Cl2 F6 N4 S1'
_chemical_name_systematic        
5-Amino-1-(2,6-dichloro-4-(trifluoromethyl)phenyl)-4-(trifluoromethylsulfanyl)-1H-pyrazole-3-carbonitrile
_symmetry_cell_setting           monoclinic
_symmetry_space_group_name_H-M   'P 21/n'
_symmetry_Int_Tables_number      14
_space_group_name_Hall           '-P 2yn'
loop_
_symmetry_equiv_pos_site_id
_symmetry_equiv_pos_as_xyz
1 x,y,z
2 1/2-x,1/2+y,1/2-z
3 -x,-y,-z
4 1/2+x,1/2-y,1/2+z
_cell_length_a                   10.7801(8)
_cell_length_b                   12.7006(9)
_cell_length_c                   12.1039(9)
_cell_angle_alpha                90
_cell_angle_beta                 96.9730(10)
_cell_angle_gamma                90
_cell_volume                     1644.93
_exptl_crystal_colour            colorless
_exptl_crystal_description       prism
_chemical_melting_point          '434-436 K'
_cell_formula_units_Z            4
_exptl_crystal_recrystallization_method toluene
loop_
_atom_site_label
_atom_site_type_symbol
_atom_site_fract_x
_atom_site_fract_y
_atom_site_fract_z
Cl1 Cl 1.17081(7) 0.08140(6) 0.57001(6)
Cl2 Cl 0.77652(7) 0.31669(7) 0.40429(7)
S1 S 1.05416(7) 0.41352(7) 0.84033(6)
F1 F 1.0052(3) 0.60601(19) 0.8706(2)
F2 F 0.852(2) 0.516(2) 0.830(2)
F4 F 0.9607(13) 0.5570(11) 0.7024(10)
F6 F 1.0293(15) 0.1466(7) 0.0813(8)
F9 F 1.0824(13) 0.0015(11) 0.1475(7)
F10 F 0.8933(7) 0.0364(11) 0.1036(7)
N1 N 0.7652(3) 0.2128(2) 0.8963(2)
N2 N 0.8823(2) 0.19271(17) 0.64758(18)
N3 N 0.96566(19) 0.23574(17) 0.58307(16)
N4 N 1.1189(2) 0.3691(2) 0.5841(2)
C1 C 0.9642(3) 0.5287(3) 0.8031(3)
C2 C 0.9915(2) 0.3283(2) 0.73624(19)
C3 C 0.8993(2) 0.2506(2) 0.7390(2)
C4 C 1.0329(2) 0.3159(2) 0.63280(19)
C5 C 0.8250(3) 0.2289(2) 0.8273(2)
C6 C 0.9741(2) 0.19387(19) 0.47544(19)
C7 C 1.0653(2) 0.1209(2) 0.45895(19)
C8 C 1.0749(2) 0.0802(2) 0.3545(2)
H1 H 1.1357 0.0305 0.3440
C9 C 0.9923(2) 0.1149(2) 0.2663(2)
C10 C 0.9004(2) 0.1872(2) 0.2804(2)
H2 H 0.8452 0.2096 0.2200
C11 C 0.8914(2) 0.2260(2) 0.3853(2)
C12 C 1.0025(4) 0.0728(3) 0.1517(3)
H3 H 1.145(3) 0.347(3) 0.525(2)
H4 H 1.144(3) 0.4243(19) 0.615(3)
F3? F 0.841(2) 0.5160(19) 0.788(2)
F5? F 0.9846(13) 0.5642(12) 0.7017(12)
F7? F 0.9506(19) 0.1303(13) 0.0777(5)
F8? F 1.1159(10) 0.0611(16) 0.1334(9)
F11? F 0.9570(19) -0.0224(10) 0.1410(9)
loop_
_geom_bond_atom_site_label_1
_geom_bond_atom_site_label_2
_geom_bond_site_symmetry_1
_geom_bond_site_symmetry_2
Cl1 C7 1_555 1_555
Cl2 C11 1_555 1_555
S1 C1 1_555 1_555
F1 C1 1_555 1_555
F2 C1 1_555 1_555
F4 C1 1_555 1_555
F6 C12 1_555 1_555
F9 C12 1_555 1_555
F10 C12 1_555 1_555
N1 C5 1_555 1_555
N2 N3 1_555 1_555
N3 C4 1_555 1_555
N4 C4 1_555 1_555
C2 S1 1_555 1_555
C3 N2 1_555 1_555
C4 C2 1_555 1_555
C5 C3 1_555 1_555
C6 N3 1_555 1_555
C7 C6 1_555 1_555
C8 C7 1_555 1_555
H1 C8 1_555 1_555
C9 C8 1_555 1_555
C10 C9 1_555 1_555
H2 C10 1_555 1_555
C11 C6 1_555 1_555
C12 C9 1_555 1_555
H3 N4 1_555 1_555
H4 N4 1_555 1_555
C2 C3 1_555 1_555
C10 C11 1_555 1_555

#END
