
#######################################################################
#
#                 Cambridge Crystallographic Data Centre
#                                CCDC 
#
#######################################################################
#
# If this CIF has been generated from an entry in the Cambridge 
# Structural Database, then it will include bibliographic, chemical, 
# crystal, experimental, refinement or atomic coordinate data resulting 
# from the CCDC's data processing and validation procedures.
#
#######################################################################

data_PAZQAK
_chemical_formula_moiety         'C22 H24 Cl1 N3 O1,C1 H4 O1'
_chemical_name_systematic        
"5'-(4-Chlorophenyl)-6',7',8',9'-tetrahydro-1'H-spiro[cyclohexane-1,2'-pyrimido[4,5-b]quinolin]-4'(3'H)-one methanol solvate"
_symmetry_cell_setting           triclinic
_symmetry_space_group_name_H-M   'P -1'
_symmetry_Int_Tables_number      2
_space_group_name_Hall           '-P 1'
loop_
_symmetry_equiv_pos_site_id
_symmetry_equiv_pos_as_xyz
1 x,y,z
2 -x,-y,-z
_cell_length_a                   8.355(2)
_cell_length_b                   10.746(3)
_cell_length_c                   12.843(4)
_cell_angle_alpha                98.611(2)
_cell_angle_beta                 99.924(3)
_cell_angle_gamma                110.707(3)
_cell_volume                     1034.31
_exptl_crystal_colour            colorless
_exptl_crystal_description       block
_cell_formula_units_Z            2
loop_
_atom_site_label
_atom_site_type_symbol
_atom_site_fract_x
_atom_site_fract_y
_atom_site_fract_z
Cl1 Cl 0.47155(5) 0.94837(4) 0.86693(3)
O1 O 0.79191(15) 0.90076(13) 0.52609(9)
N1 N 0.44526(16) 0.53913(13) 0.21298(10)
N2 N 0.74050(17) 0.66897(14) 0.23332(11)
N3 N 0.90071(18) 0.85539(15) 0.38323(11)
C1 C 0.30338(19) 0.50079(15) 0.25546(12)
C2 C 0.1437(2) 0.38199(17) 0.18348(13)
H1 H 0.1830 0.3164 0.1437
H2 H 0.0807 0.4159 0.1292
C3 C 0.0171(2) 0.30833(18) 0.24700(14)
H3 H -0.0929 0.2406 0.1961
H4 H 0.0712 0.2590 0.2913
C4 C -0.0250(2) 0.41052(19) 0.32024(14)
H5 H -0.1146 0.3615 0.3571
H6 H -0.0748 0.4622 0.2760
C5 C 0.1414(2) 0.50988(17) 0.40530(13)
H7 H 0.1176 0.5879 0.4403
H8 H 0.1698 0.4628 0.4622
C6 C 0.30015(19) 0.56401(15) 0.35775(12)
C7 C 0.45316(19) 0.67574(15) 0.41848(11)
C8 C 0.60154(19) 0.71667(15) 0.37576(11)
C9 C 0.59371(19) 0.64248(15) 0.27332(12)
C10 C 0.7697(2) 0.83111(16) 0.43461(12)
C11 C 0.88819(19) 0.80214(15) 0.26948(12)
C12 C 1.0627(2) 0.78831(17) 0.26423(13)
H9 H 1.1610 0.8748 0.3051
H10 H 1.0714 0.7151 0.3006
C13 C 1.0842(2) 0.75558(19) 0.14924(14)
H11 H 1.2038 0.7565 0.1521
H12 H 0.9973 0.6629 0.1109
C14 C 1.0572(2) 0.8594(2) 0.08717(15)
H13 H 1.1508 0.9508 0.1217
H14 H 1.0660 0.8341 0.0116
C15 C 0.8780(3) 0.8646(2) 0.08627(15)
H15 H 0.7843 0.7746 0.0480
H16 H 0.8631 0.9335 0.0465
C16 C 0.8598(2) 0.90153(18) 0.20187(15)
H17 H 0.7406 0.9014 0.1992
H18 H 0.9470 0.9950 0.2376
C17 C 0.45493(18) 0.74436(15) 0.52921(12)
C18 C 0.3998(2) 0.85132(16) 0.54471(13)
H19 H 0.3580 0.8816 0.4838
C19 C 0.4050(2) 0.91522(17) 0.64851(13)
H20 H 0.3686 0.9896 0.6589
C20 C 0.4638(2) 0.86884(16) 0.73632(12)
C21 C 0.5142(2) 0.75973(18) 0.72245(13)
H21 H 0.5521 0.7276 0.7833
C22 C 0.5089(2) 0.69730(17) 0.61844(13)
H22 H 0.5426 0.6215 0.6082
H23 H 0.996(3) 0.926(2) 0.4156(17)
H24 H 0.723(3) 0.621(2) 0.1703(18)
O2 O 0.31427(19) 0.50545(13) 0.98262(10)
H25 H 0.3669 0.5054 1.0446
C23 C 0.3592(3) 0.6407(2) 0.97101(16)
H26 H 0.3591 0.6981 1.0379
H27 H 0.2729 0.6434 0.9101
H28 H 0.4769 0.6748 0.9570
loop_
_geom_bond_atom_site_label_1
_geom_bond_atom_site_label_2
_geom_bond_site_symmetry_1
_geom_bond_site_symmetry_2
Cl1 C20 1_555 1_555
O1 C10 1_555 1_555
N1 C1 1_555 1_555
N2 C9 1_555 1_555
N3 C10 1_555 1_555
C1 C2 1_555 1_555
C2 H1 1_555 1_555
H2 C2 1_555 1_555
C3 C2 1_555 1_555
H3 C3 1_555 1_555
H4 C3 1_555 1_555
C4 C3 1_555 1_555
H5 C4 1_555 1_555
H6 C4 1_555 1_555
C5 C4 1_555 1_555
H7 C5 1_555 1_555
H8 C5 1_555 1_555
C6 C1 1_555 1_555
C7 C6 1_555 1_555
C8 C7 1_555 1_555
C9 N1 1_555 1_555
C10 C8 1_555 1_555
C11 N2 1_555 1_555
C12 C11 1_555 1_555
H9 C12 1_555 1_555
H10 C12 1_555 1_555
C13 C12 1_555 1_555
H11 C13 1_555 1_555
H12 C13 1_555 1_555
C14 C13 1_555 1_555
H13 C14 1_555 1_555
H14 C14 1_555 1_555
C15 C14 1_555 1_555
H15 C15 1_555 1_555
H16 C15 1_555 1_555
C16 C11 1_555 1_555
H17 C16 1_555 1_555
H18 C16 1_555 1_555
C17 C7 1_555 1_555
C18 C17 1_555 1_555
H19 C18 1_555 1_555
C19 C18 1_555 1_555
H20 C19 1_555 1_555
C20 C19 1_555 1_555
C21 C20 1_555 1_555
H21 C21 1_555 1_555
C22 C17 1_555 1_555
H22 C22 1_555 1_555
H23 N3 1_555 1_555
H24 N2 1_555 1_555
O2 H25 1_555 1_555
C23 O2 1_555 1_555
H26 C23 1_555 1_555
H27 C23 1_555 1_555
H28 C23 1_555 1_555
N3 C11 1_555 1_555
C5 C6 1_555 1_555
C8 C9 1_555 1_555
C15 C16 1_555 1_555
C21 C22 1_555 1_555

#END
