
#######################################################################
#
#                 Cambridge Crystallographic Data Centre
#                                CCDC 
#
#######################################################################
#
# If this CIF has been generated from an entry in the Cambridge 
# Structural Database, then it will include bibliographic, chemical, 
# crystal, experimental, refinement or atomic coordinate data resulting 
# from the CCDC's data processing and validation procedures.
#
#######################################################################

data_PEBLOA
_chemical_formula_moiety         'C10 H13 N1 O2 S1'
_chemical_name_systematic        acetyl(ethyl(2-hydroxyphenyl)sulfonio)azanide
_symmetry_cell_setting           monoclinic
_symmetry_space_group_name_H-M   'P 21/c'
_symmetry_Int_Tables_number      14
_space_group_name_Hall           '-P 2ybc'
loop_
_symmetry_equiv_pos_site_id
_symmetry_equiv_pos_as_xyz
1 x,y,z
2 -x,1/2+y,1/2-z
3 -x,-y,-z
4 x,1/2-y,1/2+z
_cell_length_a                   9.659(13)
_cell_length_b                   13.696(18)
_cell_length_c                   8.211(10)
_cell_angle_alpha                90
_cell_angle_beta                 100.341(13)
_cell_angle_gamma                90
_cell_volume                     1068.59
_exptl_crystal_colour            colorless
_exptl_crystal_description       block
_cell_formula_units_Z            4
loop_
_atom_site_label
_atom_site_type_symbol
_atom_site_fract_x
_atom_site_fract_y
_atom_site_fract_z
S1 S 0.15817(6) 0.52975(4) 0.13533(10)
O1 O -0.01518(17) 0.37321(12) 0.2064(3)
H1 H -0.0539 0.3182 0.2155
O2 O 0.13171(17) 0.70735(12) 0.2675(3)
N1 N 0.28691(19) 0.61269(14) 0.1530(4)
C1 C 0.0914(3) 0.38652(16) 0.3360(4)
C2 C 0.1888(2) 0.46049(16) 0.3217(4)
C3 C 0.3028(3) 0.47785(18) 0.4481(4)
H2 H 0.3671 0.5289 0.4372
C4 C 0.3228(3) 0.4208(2) 0.5898(5)
H3 H 0.4017 0.4313 0.6753
C5 C 0.2253(3) 0.34762(19) 0.6052(4)
H4 H 0.2379 0.3088 0.7026
C6 C 0.1108(3) 0.33062(18) 0.4810(4)
H5 H 0.0451 0.2809 0.4941
C7 C 0.2212(2) 0.44630(18) -0.0054(4)
H6 H 0.1534 0.3918 -0.0296
H7 H 0.2233 0.4809 -0.1108
C8 C 0.3657(3) 0.40423(19) 0.0575(4)
H8 H 0.3918 0.3601 -0.0259
H9 H 0.3645 0.3680 0.1602
H10 H 0.4346 0.4574 0.0790
C9 C 0.2441(2) 0.69619(17) 0.2122(4)
C10 C 0.3414(3) 0.78208(18) 0.2118(5)
H11 H 0.3012 0.8393 0.2578
H12 H 0.3532 0.7960 0.0980
H13 H 0.4332 0.7668 0.2794
loop_
_geom_bond_atom_site_label_1
_geom_bond_atom_site_label_2
_geom_bond_site_symmetry_1
_geom_bond_site_symmetry_2
S1 N1 1_555 1_555
O1 H1 1_555 1_555
O2 C9 1_555 1_555
N1 C9 1_555 1_555
C1 O1 1_555 1_555
C2 S1 1_555 1_555
C3 C2 1_555 1_555
H2 C3 1_555 1_555
C4 C3 1_555 1_555
H3 C4 1_555 1_555
C5 C4 1_555 1_555
H4 C5 1_555 1_555
C6 C1 1_555 1_555
H5 C6 1_555 1_555
C7 S1 1_555 1_555
H6 C7 1_555 1_555
H7 C7 1_555 1_555
C8 C7 1_555 1_555
H8 C8 1_555 1_555
H9 C8 1_555 1_555
H10 C8 1_555 1_555
C9 C10 1_555 1_555
C10 H11 1_555 1_555
H12 C10 1_555 1_555
H13 C10 1_555 1_555
C1 C2 1_555 1_555
C5 C6 1_555 1_555

#END
