
#######################################################################
#
#                 Cambridge Crystallographic Data Centre
#                                CCDC 
#
#######################################################################
#
# If this CIF has been generated from an entry in the Cambridge 
# Structural Database, then it will include bibliographic, chemical, 
# crystal, experimental, refinement or atomic coordinate data resulting 
# from the CCDC's data processing and validation procedures.
#
#######################################################################

data_PECBEE
_chemical_formula_moiety         'C28 H44 Br4 Si2'
_chemical_name_systematic        
E-1,1,6,6-Tetrabromo-3,4-bis(tri-isopropylsilylethynyl)-1,3,5-hexatriene
_symmetry_cell_setting           triclinic
_symmetry_space_group_name_H-M   'P -1'
_symmetry_Int_Tables_number      2
_space_group_name_Hall           '-P 1'
loop_
_symmetry_equiv_pos_site_id
_symmetry_equiv_pos_as_xyz
1 x,y,z
2 -x,-y,-z
_cell_length_a                   8.310(2)
_cell_length_b                   9.514(2)
_cell_length_c                   11.899(3)
_cell_angle_alpha                112.204(7)
_cell_angle_beta                 97.872(7)
_cell_angle_gamma                90.175(7)
_cell_volume                     861.239
_exptl_crystal_colour            'pale orange'
_chemical_melting_point          '78-79 deg.C'
_cell_formula_units_Z            1
loop_
_atom_site_label
_atom_site_type_symbol
_atom_site_fract_x
_atom_site_fract_y
_atom_site_fract_z
Br1 Br 0.1269(2) 0.4076(1) 0.3776(1)
Br2 Br 0.2095(2) 0.4265(1) 0.1366(1)
C1 C 0.1263(10) 0.3044(10) 0.2055(8)
C2 C 0.0642(9) 0.1636(9) 0.1521(7)
C3 C 0.0545(9) 0.0631(8) 0.0242(7)
C4 C 0.1645(9) 0.0826(9) -0.0527(7)
C5 C 0.2566(10) 0.0917(9) -0.1195(7)
Si1 Si 0.3923(3) 0.1109(3) -0.2239(3)
C6 C 0.6071(10) 0.1259(11) -0.1425(8)
C7 C 0.6371(13) 0.2580(13) -0.0193(10)
C8 C 0.7344(11) 0.1283(12) -0.2234(10)
C9 C 0.3584(12) -0.0702(11) -0.3664(8)
C10 C 0.4040(16) -0.2072(13) -0.3367(12)
C11 C 0.1838(13) -0.0873(14) -0.4357(10)
C12 C 0.3439(13) 0.2893(12) -0.2506(10)
C13 C 0.4003(16) 0.2952(16) -0.3664(11)
C14 C 0.1764(15) 0.3364(18) -0.2414(14)
H1 H 0.620 0.031 -0.126
H2 H 0.550 0.247 0.028
H3 H 0.627 0.356 -0.032
H4 H 0.746 0.259 0.028
H5 H 0.720 0.038 -0.303
H6 H 0.843 0.129 -0.176
H7 H 0.727 0.223 -0.241
H8 H 0.433 -0.063 -0.423
H9 H 0.526 -0.202 -0.319
H10 H 0.366 -0.282 -0.422
H11 H 0.358 -0.240 -0.277
H12 H 0.178 0.004 -0.458
H13 H 0.094 -0.089 -0.388
H14 H 0.172 -0.181 -0.512
H15 H 0.415 0.371 -0.182
H16 H 0.515 0.271 -0.380
H17 H 0.384 0.403 -0.357
H18 H 0.323 0.226 -0.438
H19 H 0.137 0.334 -0.166
H20 H 0.121 0.250 -0.315
H21 H 0.151 0.435 -0.250
C3A C -0.0545(9) -0.0631(8) -0.0242(7)
C2A C -0.0642(9) -0.1636(9) -0.1521(7)
C4A C -0.1645(9) -0.0826(9) 0.0527(7)
C1A C -0.1263(10) -0.3044(10) -0.2055(8)
C5A C -0.2566(10) -0.0917(9) 0.1195(7)
Br1A Br -0.1269(2) -0.4076(1) -0.3776(1)
Br2A Br -0.2095(2) -0.4265(1) -0.1366(1)
Si1A Si -0.3923(3) -0.1109(3) 0.2239(3)
C6A C -0.6071(10) -0.1259(11) 0.1425(8)
C9A C -0.3584(12) 0.0702(11) 0.3664(8)
C12A C -0.3439(13) -0.2893(12) 0.2506(10)
C7A C -0.6371(13) -0.2580(13) 0.0193(10)
C8A C -0.7344(11) -0.1283(12) 0.2234(10)
H1A H -0.620 -0.031 0.126
C10A C -0.4040(16) 0.2072(13) 0.3367(12)
C11A C -0.1838(13) 0.0873(14) 0.4357(10)
H8A H -0.433 0.063 0.423
C13A C -0.4003(16) -0.2952(16) 0.3664(11)
C14A C -0.1764(15) -0.3364(18) 0.2414(14)
H15A H -0.415 -0.371 0.182
H2A H -0.550 -0.247 -0.028
H3A H -0.627 -0.356 0.032
H4A H -0.746 -0.259 -0.028
H5A H -0.720 -0.038 0.303
H6A H -0.843 -0.129 0.176
H7A H -0.727 -0.223 0.241
H9A H -0.526 0.202 0.319
H10A H -0.366 0.282 0.422
H11A H -0.358 0.240 0.277
H12A H -0.178 -0.004 0.458
H13A H -0.094 0.089 0.388
H14A H -0.172 0.181 0.512
H16A H -0.515 -0.271 0.380
H17A H -0.384 -0.403 0.357
H18A H -0.323 -0.226 0.438
H19A H -0.137 -0.334 0.166
H20A H -0.121 -0.250 0.315
H21A H -0.151 -0.435 0.250
loop_
_geom_bond_atom_site_label_1
_geom_bond_atom_site_label_2
_geom_bond_site_symmetry_1
_geom_bond_site_symmetry_2
Br1 C1 1_555 1_555
Br2 C1 1_555 1_555
C1 C2 1_555 1_555
C2 C3 1_555 1_555
C3 C4 1_555 1_555
C4 C5 1_555 1_555
C5 Si1 1_555 1_555
Si1 C6 1_555 1_555
C6 C7 1_555 1_555
C7 H2 1_555 1_555
C8 C6 1_555 1_555
C9 Si1 1_555 1_555
C10 C9 1_555 1_555
C11 C9 1_555 1_555
C12 Si1 1_555 1_555
C13 C12 1_555 1_555
C14 C12 1_555 1_555
H1 C6 1_555 1_555
H3 C7 1_555 1_555
H4 C7 1_555 1_555
H5 C8 1_555 1_555
H6 C8 1_555 1_555
H7 C8 1_555 1_555
H8 C9 1_555 1_555
H9 C10 1_555 1_555
H10 C10 1_555 1_555
H11 C10 1_555 1_555
H12 C11 1_555 1_555
H13 C11 1_555 1_555
H14 C11 1_555 1_555
H15 C12 1_555 1_555
H16 C13 1_555 1_555
H17 C13 1_555 1_555
H18 C13 1_555 1_555
H19 C14 1_555 1_555
H20 C14 1_555 1_555
H21 C14 1_555 1_555
C3A C3 1_555 1_555
C2A C3A 1_555 1_555
C4A C3A 1_555 1_555
C1A C2A 1_555 1_555
C5A C4A 1_555 1_555
Br1A C1A 1_555 1_555
Br2A C1A 1_555 1_555
Si1A C5A 1_555 1_555
C6A Si1A 1_555 1_555
C9A Si1A 1_555 1_555
C12A Si1A 1_555 1_555
C7A C6A 1_555 1_555
C8A C6A 1_555 1_555
H1A C6A 1_555 1_555
C10A C9A 1_555 1_555
C11A C9A 1_555 1_555
H8A C9A 1_555 1_555
C13A C12A 1_555 1_555
C14A C12A 1_555 1_555
H15A C12A 1_555 1_555
H2A C7A 1_555 1_555
H3A C7A 1_555 1_555
H4A C7A 1_555 1_555
H5A C8A 1_555 1_555
H6A C8A 1_555 1_555
H7A C8A 1_555 1_555
H9A C10A 1_555 1_555
H10A C10A 1_555 1_555
H11A C10A 1_555 1_555
H12A C11A 1_555 1_555
H13A C11A 1_555 1_555
H14A C11A 1_555 1_555
H16A C13A 1_555 1_555
H17A C13A 1_555 1_555
H18A C13A 1_555 1_555
H19A C14A 1_555 1_555
H20A C14A 1_555 1_555
H21A C14A 1_555 1_555

#END
