
#######################################################################
#
#                 Cambridge Crystallographic Data Centre
#                                CCDC 
#
#######################################################################
#
# If this CIF has been generated from an entry in the Cambridge 
# Structural Database, then it will include bibliographic, chemical, 
# crystal, experimental, refinement or atomic coordinate data resulting 
# from the CCDC's data processing and validation procedures.
#
#######################################################################

data_PECBAA
_chemical_formula_moiety         'C56 H84 Si4'
_chemical_name_systematic        
1,2,7,8-tetrakis(Tri-isopropylsilylethynyl)-cyclododeca-1,7-dien-3,5,9,11-tetrayne
_symmetry_cell_setting           triclinic
_symmetry_space_group_name_H-M   'P -1'
_symmetry_Int_Tables_number      2
_space_group_name_Hall           '-P 1'
loop_
_symmetry_equiv_pos_site_id
_symmetry_equiv_pos_as_xyz
1 x,y,z
2 -x,-y,-z
_cell_length_a                   11.739(3)
_cell_length_b                   12.445(3)
_cell_length_c                   12.438(3)
_cell_angle_alpha                101.262(8)
_cell_angle_beta                 105.936(7)
_cell_angle_gamma                117.635(8)
_cell_volume                     1432.61
_exptl_crystal_colour            'deep red'
_chemical_melting_point          '200 deg.C (dec)'
_cell_formula_units_Z            1
loop_
_atom_site_label
_atom_site_type_symbol
_atom_site_fract_x
_atom_site_fract_y
_atom_site_fract_z
Si1 Si 0.1495(1) 0.2562(2) 0.4015(1)
C1 C -0.0237(7) 0.0974(6) 0.3192(6)
C2 C -0.0229(13) -0.0070(8) 0.2399(10)
C3 C -0.1375(8) 0.1109(11) 0.2396(9)
C4 C 0.2829(9) 0.2330(12) 0.4873(10)
C5 C 0.4212(8) 0.2973(10) 0.5014(8)
C6 C 0.2539(10) 0.1705(11) 0.5772(9)
C7 C 0.1283(12) 0.3807(8) 0.4874(9)
C8 C 0.1968(13) 0.5037(11) 0.5077(10)
C9 C 0.0516(11) 0.3339(9) 0.5666(8)
C10 C 0.2038(5) 0.3109(5) 0.2866(4)
C11 C 0.2395(5) 0.3395(5) 0.2101(4)
C12 C 0.2878(4) 0.3742(5) 0.1196(4)
C13 C 0.4364(5) 0.4448(5) 0.1499(4)
C14 C 0.5496(5) 0.5041(5) 0.1487(4)
C15 C 0.6631(4) 0.5679(5) 0.1207(4)
C16 C 0.7402(5) 0.6140(5) 0.0747(4)
C17 C 0.1969(5) 0.3444(5) 0.0064(4)
C18 C 0.0490(5) 0.2827(5) -0.0326(4)
C19 C -0.0765(5) 0.2318(5) -0.0709(5)
Si2 Si -0.2690(1) 0.1635(2) -0.1380(1)
C20 C -0.3018(7) 0.2133(8) -0.2681(6)
C21 C -0.2788(10) 0.1505(10) -0.3686(7)
C22 C -0.2109(11) 0.3612(9) -0.2321(10)
C23 C -0.3143(7) 0.2253(8) -0.0166(7)
C24 C -0.4497(7) 0.2255(8) -0.0709(8)
C25 C -0.2063(9) 0.3329(8) 0.0916(7)
C26 C -0.3650(7) -0.0170(7) -0.1937(7)
C27 C -0.5208(7) -0.0894(8) -0.2543(8)
C28 C -0.3120(9) -0.0735(8) -0.1156(8)
H1 H -0.046 0.071 0.385
H2 H 0.044 -0.022 0.294
H3 H 0.012 0.020 0.179
H4 H -0.119 -0.090 0.198
H5 H -0.137 0.183 0.293
H6 H -0.236 0.030 0.199
H7 H -0.106 0.138 0.177
H8 H 0.441 0.340 0.443
H9 H 0.479 0.259 0.519
H10 H 0.446 0.364 0.578
H11 H 0.154 0.134 0.566
H12 H 0.320 0.229 0.664
H13 H 0.267 0.097 0.554
H14 H 0.247 0.539 0.457
H15 H 0.254 0.483 0.565
H16 H 0.185 0.571 0.554
H17 H -0.020 0.237 0.526
H18 H 0.002 0.381 0.563
H19 H 0.110 0.356 0.653
H20 H -0.404 0.182 -0.298
H21 H -0.333 0.053 -0.394
H22 H -0.308 0.173 -0.440
H23 H -0.175 0.186 -0.338
H24 H -0.233 0.399 -0.168
H25 H -0.106 0.402 -0.201
H26 H -0.245 0.379 -0.305
H27 H -0.529 0.145 -0.143
H28 H -0.486 0.245 -0.011
H29 H -0.410 0.301 -0.096
H30 H -0.121 0.333 0.135
H31 H -0.178 0.406 0.062
H32 H -0.249 0.345 0.148
H33 H -0.337 -0.035 -0.261
H34 H -0.550 -0.052 -0.313
H35 H -0.563 -0.185 -0.298
H36 H -0.555 -0.079 -0.190
H37 H -0.213 -0.047 -0.070
H38 H -0.341 -0.033 -0.061
H39 H -0.377 -0.171 -0.147
C17A C 0.8031(5) 0.6556(5) -0.0064(4)
C16A C 0.2598(5) 0.3860(5) -0.0747(4)
C12A C 0.7122(4) 0.6258(5) -0.1196(4)
C18A C 0.9510(5) 0.7173(5) 0.0326(4)
C15A C 0.3369(4) 0.4321(5) -0.1207(4)
C11A C 0.7605(5) 0.6605(5) -0.2101(4)
C13A C 0.5636(5) 0.5552(5) -0.1499(4)
C19A C 1.0765(5) 0.7682(5) 0.0709(5)
C14A C 0.4504(5) 0.4959(5) -0.1487(4)
C10A C 0.7962(5) 0.6891(5) -0.2866(4)
Si2A Si 1.2690(1) 0.8365(2) 0.1380(1)
Si1A Si 0.8505(1) 0.7438(2) -0.4015(1)
C20A C 1.3018(7) 0.7867(8) 0.2681(6)
C23A C 1.3143(7) 0.7747(8) 0.0166(7)
C26A C 1.3650(7) 1.0170(7) 0.1937(7)
C1A C 1.0237(7) 0.9026(6) -0.3192(6)
C4A C 0.7171(9) 0.7670(12) -0.4873(10)
C7A C 0.8717(12) 0.6193(8) -0.4874(9)
C21A C 1.2788(10) 0.8495(10) 0.3686(7)
C22A C 1.2109(11) 0.6388(9) 0.2321(10)
H20A H 1.404 0.818 0.298
C24A C 1.4497(7) 0.7745(8) 0.0709(8)
C25A C 1.2063(9) 0.6671(8) -0.0916(7)
C27A C 1.5208(7) 1.0894(8) 0.2543(8)
C28A C 1.3120(9) 1.0735(8) 0.1156(8)
H33A H 1.337 1.035 0.261
C2A C 1.0229(13) 1.0070(8) -0.2399(10)
C3A C 1.1375(8) 0.8891(11) -0.2396(9)
H1A H 1.046 0.929 -0.385
C5A C 0.5788(8) 0.7027(10) -0.5014(8)
C6A C 0.7461(10) 0.8295(11) -0.5772(9)
C8A C 0.8032(13) 0.4963(11) -0.5077(10)
C9A C 0.9484(11) 0.6661(9) -0.5666(8)
H21A H 1.333 0.947 0.394
H22A H 1.308 0.827 0.440
H23A H 1.175 0.814 0.338
H24A H 1.233 0.601 0.168
H25A H 1.106 0.598 0.201
H26A H 1.245 0.621 0.305
H27A H 1.529 0.855 0.143
H28A H 1.486 0.755 0.011
H29A H 1.410 0.699 0.096
H30A H 1.121 0.667 -0.135
H31A H 1.178 0.594 -0.062
H32A H 1.249 0.655 -0.148
H34A H 1.550 1.052 0.313
H35A H 1.563 1.185 0.298
H36A H 1.555 1.079 0.190
H37A H 1.213 1.047 0.070
H38A H 1.341 1.033 0.061
H39A H 1.377 1.171 0.147
H2A H 0.956 1.022 -0.294
H3A H 0.988 0.980 -0.179
H4A H 1.119 1.090 -0.198
H5A H 1.137 0.817 -0.293
H6A H 1.236 0.970 -0.199
H7A H 1.106 0.862 -0.177
H8A H 0.559 0.660 -0.443
H9A H 0.521 0.741 -0.519
H10A H 0.554 0.636 -0.578
H11A H 0.846 0.866 -0.566
H12A H 0.680 0.771 -0.664
H13A H 0.733 0.903 -0.554
H14A H 0.753 0.461 -0.457
H15A H 0.746 0.517 -0.565
H16A H 0.815 0.429 -0.554
H17A H 1.020 0.763 -0.526
H18A H 0.998 0.619 -0.563
H19A H 0.890 0.644 -0.653
loop_
_geom_bond_atom_site_label_1
_geom_bond_atom_site_label_2
_geom_bond_site_symmetry_1
_geom_bond_site_symmetry_2
Si1 C1 1_555 1_555
C1 C2 1_555 1_555
C2 H2 1_555 1_555
C3 C1 1_555 1_555
C4 Si1 1_555 1_555
C5 C4 1_555 1_555
C6 C4 1_555 1_555
C7 Si1 1_555 1_555
C8 C7 1_555 1_555
C9 C7 1_555 1_555
C10 Si1 1_555 1_555
C11 C10 1_555 1_555
C12 C11 1_555 1_555
C13 C12 1_555 1_555
C14 C13 1_555 1_555
C15 C14 1_555 1_555
C16 C15 1_555 1_555
C17 C12 1_555 1_555
C18 C17 1_555 1_555
C19 C18 1_555 1_555
Si2 C19 1_555 1_555
C20 Si2 1_555 1_555
C21 C20 1_555 1_555
C22 C20 1_555 1_555
C23 Si2 1_555 1_555
C24 C23 1_555 1_555
C25 C23 1_555 1_555
C26 Si2 1_555 1_555
C27 C26 1_555 1_555
C28 C26 1_555 1_555
H1 C1 1_555 1_555
H3 C2 1_555 1_555
H4 C2 1_555 1_555
H5 C3 1_555 1_555
H6 C3 1_555 1_555
H7 C3 1_555 1_555
H8 C5 1_555 1_555
H9 C5 1_555 1_555
H10 C5 1_555 1_555
H11 C6 1_555 1_555
H12 C6 1_555 1_555
H13 C6 1_555 1_555
H14 C8 1_555 1_555
H15 C8 1_555 1_555
H16 C8 1_555 1_555
H17 C9 1_555 1_555
H18 C9 1_555 1_555
H19 C9 1_555 1_555
H20 C20 1_555 1_555
H21 C21 1_555 1_555
H22 C21 1_555 1_555
H23 C21 1_555 1_555
H24 C22 1_555 1_555
H25 C22 1_555 1_555
H26 C22 1_555 1_555
H27 C24 1_555 1_555
H28 C24 1_555 1_555
H29 C24 1_555 1_555
H30 C25 1_555 1_555
H31 C25 1_555 1_555
H32 C25 1_555 1_555
H33 C26 1_555 1_555
H34 C27 1_555 1_555
H35 C27 1_555 1_555
H36 C27 1_555 1_555
H37 C28 1_555 1_555
H38 C28 1_555 1_555
H39 C28 1_555 1_555
C17A C16 1_555 1_555
C16A C17 1_555 1_555
C12A C17A 1_555 1_555
C18A C17A 1_555 1_555
C15A C16A 1_555 1_555
C11A C12A 1_555 1_555
C13A C12A 1_555 1_555
C19A C18A 1_555 1_555
C14A C15A 1_555 1_555
C10A C11A 1_555 1_555
Si2A C19A 1_555 1_555
Si1A C10A 1_555 1_555
C20A Si2A 1_555 1_555
C23A Si2A 1_555 1_555
C26A Si2A 1_555 1_555
C1A Si1A 1_555 1_555
C4A Si1A 1_555 1_555
C7A Si1A 1_555 1_555
C21A C20A 1_555 1_555
C22A C20A 1_555 1_555
H20A C20A 1_555 1_555
C24A C23A 1_555 1_555
C25A C23A 1_555 1_555
C27A C26A 1_555 1_555
C28A C26A 1_555 1_555
H33A C26A 1_555 1_555
C2A C1A 1_555 1_555
C3A C1A 1_555 1_555
H1A C1A 1_555 1_555
C5A C4A 1_555 1_555
C6A C4A 1_555 1_555
C8A C7A 1_555 1_555
C9A C7A 1_555 1_555
H21A C21A 1_555 1_555
H22A C21A 1_555 1_555
H23A C21A 1_555 1_555
H24A C22A 1_555 1_555
H25A C22A 1_555 1_555
H26A C22A 1_555 1_555
H27A C24A 1_555 1_555
H28A C24A 1_555 1_555
H29A C24A 1_555 1_555
H30A C25A 1_555 1_555
H31A C25A 1_555 1_555
H32A C25A 1_555 1_555
H34A C27A 1_555 1_555
H35A C27A 1_555 1_555
H36A C27A 1_555 1_555
H37A C28A 1_555 1_555
H38A C28A 1_555 1_555
H39A C28A 1_555 1_555
H2A C2A 1_555 1_555
H3A C2A 1_555 1_555
H4A C2A 1_555 1_555
H5A C3A 1_555 1_555
H6A C3A 1_555 1_555
H7A C3A 1_555 1_555
H8A C5A 1_555 1_555
H9A C5A 1_555 1_555
H10A C5A 1_555 1_555
H11A C6A 1_555 1_555
H12A C6A 1_555 1_555
H13A C6A 1_555 1_555
H14A C8A 1_555 1_555
H15A C8A 1_555 1_555
H16A C8A 1_555 1_555
H17A C9A 1_555 1_555
H18A C9A 1_555 1_555
H19A C9A 1_555 1_555
C13A C14A 1_555 1_555

#END
