
#######################################################################
#
#                 Cambridge Crystallographic Data Centre
#                                CCDC 
#
#######################################################################
#
# If this CIF has been generated from an entry in the Cambridge 
# Structural Database, then it will include bibliographic, chemical, 
# crystal, experimental, refinement or atomic coordinate data resulting 
# from the CCDC's data processing and validation procedures.
#
#######################################################################

data_PECPOF
_chemical_formula_moiety         'C4 H2 N10 O6,4(H2 O1)'
_chemical_name_systematic        
"N^4^,N^8^-dinitro-4H,8H-bis[1,2,5]oxadiazolo[3,4-b:3',4'-e]pyrazine-4,8-diamine tetrahydrate"
_symmetry_cell_setting           monoclinic
_symmetry_space_group_name_H-M   'P 21/c'
_symmetry_Int_Tables_number      14
_space_group_name_Hall           '-P 2ybc'
loop_
_symmetry_equiv_pos_site_id
_symmetry_equiv_pos_as_xyz
1 x,y,z
2 -x,1/2+y,1/2-z
3 -x,-y,-z
4 x,1/2-y,1/2+z
_cell_length_a                   11.4262(18)
_cell_length_b                   6.9655(12)
_cell_length_c                   8.5126(14)
_cell_angle_alpha                90
_cell_angle_beta                 101.721(3)
_cell_angle_gamma                90
_cell_volume                     663.384
_exptl_crystal_colour            'whiteish colorless'
_exptl_crystal_description       block
_cell_formula_units_Z            2
loop_
_atom_site_label
_atom_site_type_symbol
_atom_site_fract_x
_atom_site_fract_y
_atom_site_fract_z
O1 O 0.81784(9) 0.44319(16) 0.63405(14)
N1 N 0.45114(10) 0.23482(17) 0.72363(14)
O2 O 0.67244(8) -0.20635(14) 0.30292(12)
O3 O 0.63809(10) 0.43681(16) 0.48611(13)
N2 N 0.71849(10) 0.37517(17) 0.58788(14)
N3 N 0.69431(10) 0.21035(16) 0.67766(14)
N4 N 0.60199(9) 0.10019(16) 0.59579(14)
C1 C 0.61351(11) -0.02671(18) 0.47444(16)
C2 C 0.48648(11) 0.12645(18) 0.61950(16)
N5 N 0.71017(10) -0.07551(16) 0.42849(14)
H1 H 0.7687(17) 0.145(3) 0.718(2)
O1B O 0.18216(9) -0.44319(16) 0.36595(14)
N1B N 0.54886(10) -0.23482(17) 0.27637(14)
O2B O 0.32756(8) 0.20635(14) 0.69708(12)
O3B O 0.36191(10) -0.43681(16) 0.51389(13)
N2B N 0.28151(10) -0.37517(17) 0.41212(14)
N3B N 0.30569(10) -0.21035(16) 0.32234(14)
N4B N 0.39801(9) -0.10019(16) 0.40421(14)
C1B C 0.38649(11) 0.02671(18) 0.52556(16)
C2B C 0.51352(11) -0.12645(18) 0.38050(16)
N5B N 0.28983(10) 0.07551(16) 0.57151(14)
H1B H 0.2313(17) -0.145(3) 0.282(2)
O4 O 1.03606(10) 0.21270(16) 0.56147(14)
H2 H 0.999(2) 0.149(4) 0.628(3)
H3 H 1.097(2) 0.147(3) 0.555(3)
O5 O 0.91665(9) 0.06906(17) 0.79571(13)
H4 H 0.9500(19) 0.145(3) 0.871(3)
H5 H 0.923(2) -0.048(4) 0.836(3)
loop_
_geom_bond_atom_site_label_1
_geom_bond_atom_site_label_2
_geom_bond_site_symmetry_1
_geom_bond_site_symmetry_2
O1 N2 1_555 1_555
N1 C2 1_555 1_555
O2 N5 1_555 1_555
O3 N2 1_555 1_555
N2 N3 1_555 1_555
N3 N4 1_555 1_555
N4 C1 1_555 1_555
C1 N5 1_555 1_555
C2 N4 1_555 1_555
H1 N3 1_555 1_555
O4 H2 1_555 1_555
H3 O4 1_555 1_555
O5 H4 1_555 1_555
H5 O5 1_555 1_555
O1B N2B 1_555 1_555
N1B O2 1_555 1_555
O2B N1 1_555 1_555
O3B N2B 1_555 1_555
N2B N3B 1_555 1_555
N3B N4B 1_555 1_555
N4B C1B 1_555 1_555
C1B C2 1_555 1_555
C2B C1 1_555 1_555
N5B O2B 1_555 1_555
H1B N3B 1_555 1_555
N1B C2B 1_555 1_555
N4B C2B 1_555 1_555
C1B N5B 1_555 1_555

#END
