
#######################################################################
#
#                 Cambridge Crystallographic Data Centre
#                                CCDC 
#
#######################################################################
#
# If this CIF has been generated from an entry in the Cambridge 
# Structural Database, then it will include bibliographic, chemical, 
# crystal, experimental, refinement or atomic coordinate data resulting 
# from the CCDC's data processing and validation procedures.
#
#######################################################################

data_PECQIZ01
_chemical_name_common            9-(4-Methoxyphenyl)anthracene
_chemical_formula_moiety         'C21 H16 O1'
_chemical_name_systematic        '4-(9-anthryl)phenyl methyl ether'
_symmetry_cell_setting           monoclinic
_symmetry_space_group_name_H-M   'P 21/n'
_symmetry_Int_Tables_number      14
_space_group_name_Hall           '-P 2yn'
loop_
_symmetry_equiv_pos_site_id
_symmetry_equiv_pos_as_xyz
1 x,y,z
2 1/2-x,1/2+y,1/2-z
3 -x,-y,-z
4 1/2+x,1/2-y,1/2+z
_cell_length_a                   12.28(5)
_cell_length_b                   9.30(4)
_cell_length_c                   14.03(5)
_cell_angle_alpha                90
_cell_angle_beta                 90.71(3)
_cell_angle_gamma                90
_cell_volume                     1602.16
_exptl_crystal_colour            colorless
_exptl_crystal_description       block
_cell_formula_units_Z            4
loop_
_atom_site_label
_atom_site_type_symbol
_atom_site_fract_x
_atom_site_fract_y
_atom_site_fract_z
C1 C 0.8165(5) 0.0815(6) 0.4300(4)
H1 H 0.7625 0.1400 0.4550
C2 C 0.8139(5) -0.0652(6) 0.4467(4)
H2 H 0.7572 -0.1048 0.4813
C3 C 0.8987(5) -0.1571(7) 0.4108(4)
H3 H 0.8977 -0.2548 0.4250
C4 C 0.9805(5) -0.1030(7) 0.3562(4)
H4 H 1.0334 -0.1645 0.3325
C5 C 0.9854(4) 0.0502(6) 0.3349(4)
C6 C 0.9023(4) 0.1451(6) 0.3738(4)
C7 C 0.9070(4) 0.2967(5) 0.3554(3)
C8 C 0.9922(4) 0.3504(6) 0.2950(4)
C9 C 1.0736(4) 0.2547(6) 0.2569(4)
C10 C 1.0681(4) 0.1059(6) 0.2773(4)
H5 H 1.1199 0.0441 0.2522
C11 C 1.0004(5) 0.5019(6) 0.2699(4)
H6 H 0.9493 0.5666 0.2931
C12 C 1.0833(6) 0.5514(7) 0.2120(4)
H7 H 1.0872 0.6487 0.1970
C13 C 1.1625(6) 0.4548(9) 0.1753(5)
H8 H 1.2175 0.4897 0.1366
C14 C 1.1584(5) 0.3113(8) 0.1965(4)
H9 H 1.2105 0.2494 0.1719
C15 C 0.8267(4) 0.3966(5) 0.4011(4)
C16 C 0.8396(4) 0.4353(5) 0.4975(4)
H10 H 0.8980 0.3976 0.5322
C17 C 0.7671(4) 0.5291(5) 0.5430(4)
H11 H 0.7774 0.5528 0.6069
C18 C 0.6794(4) 0.5863(6) 0.4913(4)
C19 C 0.6647(5) 0.5497(6) 0.3944(4)
H12 H 0.6067 0.5880 0.3595
C20 C 0.7373(5) 0.4561(6) 0.3515(4)
H13 H 0.7265 0.4320 0.2877
C21 C 0.5190(5) 0.7426(7) 0.4902(5)
H14 H 0.5454 0.7928 0.4353
H15 H 0.4817 0.8088 0.5309
H16 H 0.4697 0.6681 0.4701
O1 O 0.6111(3) 0.6785(4) 0.5425(3)
loop_
_geom_bond_atom_site_label_1
_geom_bond_atom_site_label_2
_geom_bond_site_symmetry_1
_geom_bond_site_symmetry_2
C1 H1 1_555 1_555
C2 C1 1_555 1_555
H2 C2 1_555 1_555
C3 C2 1_555 1_555
H3 C3 1_555 1_555
C4 C3 1_555 1_555
H4 C4 1_555 1_555
C5 C4 1_555 1_555
C6 C1 1_555 1_555
C7 C6 1_555 1_555
C8 C7 1_555 1_555
C9 C8 1_555 1_555
C10 C5 1_555 1_555
H5 C10 1_555 1_555
C11 C8 1_555 1_555
H6 C11 1_555 1_555
C12 C11 1_555 1_555
H7 C12 1_555 1_555
C13 C12 1_555 1_555
H8 C13 1_555 1_555
C14 C9 1_555 1_555
H9 C14 1_555 1_555
C15 C7 1_555 1_555
C16 C15 1_555 1_555
H10 C16 1_555 1_555
C17 C16 1_555 1_555
H11 C17 1_555 1_555
C18 C17 1_555 1_555
C19 C18 1_555 1_555
H12 C19 1_555 1_555
C20 C15 1_555 1_555
H13 C20 1_555 1_555
C21 H14 1_555 1_555
H15 C21 1_555 1_555
H16 C21 1_555 1_555
O1 C18 1_555 1_555
C5 C6 1_555 1_555
C9 C10 1_555 1_555
C13 C14 1_555 1_555
C19 C20 1_555 1_555
C21 O1 1_555 1_555

#END
