
#######################################################################
#
#                 Cambridge Crystallographic Data Centre
#                                CCDC 
#
#######################################################################
#
# If this CIF has been generated from an entry in the Cambridge 
# Structural Database, then it will include bibliographic, chemical, 
# crystal, experimental, refinement or atomic coordinate data resulting 
# from the CCDC's data processing and validation procedures.
#
#######################################################################

data_PECWID10
_chemical_formula_moiety         'C24 H16 O1 S3'
_chemical_name_systematic        
1-(Phenylsulfinyl)-9-(phenylthio)dibenzothiophene
_symmetry_cell_setting           monoclinic
_symmetry_space_group_name_H-M   'P 21/n'
_symmetry_Int_Tables_number      14
_space_group_name_Hall           '-P 2yn'
loop_
_symmetry_equiv_pos_site_id
_symmetry_equiv_pos_as_xyz
1 x,y,z
2 1/2-x,1/2+y,1/2-z
3 -x,-y,-z
4 1/2+x,1/2-y,1/2+z
_cell_length_a                   9.980
_cell_length_b                   8.843
_cell_length_c                   21.933
_cell_angle_alpha                90
_cell_angle_beta                 92.20
_cell_angle_gamma                90
_cell_volume                     1934.23
_exptl_crystal_colour            colorless
_chemical_melting_point          '211-212 deg.C'
_cell_formula_units_Z            4
loop_
_atom_site_label
_atom_site_type_symbol
_atom_site_fract_x
_atom_site_fract_y
_atom_site_fract_z
S1 S 1.08598(5) -0.14121(5) 0.42275(2)
S2 S 0.75893(4) 0.33998(5) 0.44824(2)
S3 S 1.01559(5) 0.46040(5) 0.39832(2)
O1 O 0.65421(12) 0.30697(15) 0.49361(6)
C1 C 1.15059(17) 0.03856(20) 0.43823(7)
C2 C 1.05702(16) 0.15500(20) 0.42794(7)
C3 C 0.92305(16) 0.09411(19) 0.41404(7)
C4 C 0.92738(17) -0.06483(20) 0.40644(8)
C5 C 0.81419(19) -0.14976(21) 0.39110(9)
C6 C 0.69284(19) -0.07844(23) 0.38415(9)
C7 C 0.68232(17) 0.07469(22) 0.39693(9)
C8 C 0.79414(16) 0.16010(20) 0.41271(7)
C9 C 1.28404(17) 0.06474(22) 0.45649(8)
C10 C 1.32644(17) 0.21159(23) 0.46301(8)
C11 C 1.23978(18) 0.33010(22) 0.44834(8)
C12 C 1.10760(16) 0.30434(19) 0.42927(8)
C13 C 0.66833(17) 0.42743(21) 0.38424(9)
C14 C 0.71093(20) 0.41860(25) 0.32500(9)
C15 C 0.63846(25) 0.49499(30) 0.27935(11)
C16 C 0.52625(25) 0.57532(29) 0.29247(13)
C17 C 0.48418(21) 0.58263(27) 0.35150(13)
C18 C 0.55575(19) 0.51044(23) 0.39768(10)
C19 C 1.07593(17) 0.47443(20) 0.32322(8)
C20 C 1.16860(19) 0.37958(23) 0.29841(9)
C21 C 1.20401(21) 0.39999(27) 0.23868(9)
C22 C 1.14857(22) 0.51236(27) 0.20379(9)
C23 C 1.05663(23) 0.60849(26) 0.22832(10)
C24 C 1.01966(20) 0.58940(23) 0.28769(9)
H1 H 0.8200(18) -0.2576(22) 0.3854(9)
H2 H 0.6138(18) -0.1372(22) 0.3748(8)
H3 H 0.5945(17) 0.1189(20) 0.3990(8)
H4 H 1.3417(16) -0.0214(19) 0.4655(8)
H5 H 1.4193(17) 0.2297(21) 0.4762(8)
H6 H 1.2740(16) 0.4365(20) 0.4499(7)
H7 H 0.7834(18) 0.3563(21) 0.3157(8)
H8 H 0.6708(22) 0.4811(26) 0.2408(10)
H9 H 0.4838(23) 0.6218(27) 0.2617(11)
H10 H 0.4092(21) 0.6378(25) 0.3602(10)
H11 H 0.5304(18) 0.5153(21) 0.4391(8)
H12 H 1.2013(19) 0.3043(22) 0.3212(9)
H13 H 1.2609(23) 0.3311(27) 0.2224(11)
H14 H 1.1739(21) 0.5214(23) 0.1618(10)
H15 H 1.0172(21) 0.6921(25) 0.2071(10)
H16 H 0.9568(20) 0.6543(24) 0.3045(9)
loop_
_geom_bond_atom_site_label_1
_geom_bond_atom_site_label_2
_geom_bond_site_symmetry_1
_geom_bond_site_symmetry_2
S1 C1 1_555 1_555
S2 O1 1_555 1_555
S3 C12 1_555 1_555
C1 C2 1_555 1_555
C2 C3 1_555 1_555
C3 C4 1_555 1_555
C4 S1 1_555 1_555
C5 C4 1_555 1_555
C6 C5 1_555 1_555
C7 C6 1_555 1_555
C8 S2 1_555 1_555
C9 C1 1_555 1_555
C10 C9 1_555 1_555
C11 C10 1_555 1_555
C12 C2 1_555 1_555
C13 S2 1_555 1_555
C14 C13 1_555 1_555
C15 C14 1_555 1_555
C16 C15 1_555 1_555
C17 C16 1_555 1_555
C18 C13 1_555 1_555
C19 S3 1_555 1_555
C20 C19 1_555 1_555
C21 C20 1_555 1_555
C22 C21 1_555 1_555
C23 C22 1_555 1_555
C24 C19 1_555 1_555
H1 C5 1_555 1_555
H2 C6 1_555 1_555
H3 C7 1_555 1_555
H4 C9 1_555 1_555
H5 C10 1_555 1_555
H6 C11 1_555 1_555
H7 C14 1_555 1_555
H8 C15 1_555 1_555
H9 C16 1_555 1_555
H10 C17 1_555 1_555
H11 C18 1_555 1_555
H12 C20 1_555 1_555
H13 C21 1_555 1_555
H14 C22 1_555 1_555
H15 C23 1_555 1_555
H16 C24 1_555 1_555
C3 C8 1_555 1_555
C7 C8 1_555 1_555
C11 C12 1_555 1_555
C17 C18 1_555 1_555
C23 C24 1_555 1_555

#END
