
#######################################################################
#
#                 Cambridge Crystallographic Data Centre
#                                CCDC 
#
#######################################################################
#
# If this CIF has been generated from an entry in the Cambridge 
# Structural Database, then it will include bibliographic, chemical, 
# crystal, experimental, refinement or atomic coordinate data resulting 
# from the CCDC's data processing and validation procedures.
#
#######################################################################

data_PECWOM
_chemical_formula_moiety         'C26 H17 Cl1 N2 O4'
_chemical_name_systematic        
(2R,3S)-3-(3-chlorophenyl)-3'-methyl-1'-phenyl-3H,4H-spiro[furo[3,2-c]chromene-2,4'-pyrazole]-4,5'(1'H)-dione
_symmetry_cell_setting           orthorhombic
_symmetry_space_group_name_H-M   'P 21 21 21'
_symmetry_Int_Tables_number      19
_space_group_name_Hall           'P 2ac 2ab'
loop_
_symmetry_equiv_pos_site_id
_symmetry_equiv_pos_as_xyz
1 x,y,z
2 1/2-x,-y,1/2+z
3 1/2+x,1/2-y,-z
4 -x,1/2+y,1/2-z
_cell_length_a                   8.624(3)
_cell_length_b                   9.752(4)
_cell_length_c                   26.737(10)
_cell_angle_alpha                90
_cell_angle_beta                 90
_cell_angle_gamma                90
_cell_volume                     2248.62
_exptl_crystal_colour            colorless
_exptl_crystal_description       prismatic
_chemical_melting_point          '129-130 deg.C'
_cell_formula_units_Z            4
_chemical_properties_physical    ', Heat-sensitive'
_exptl_crystal_recrystallization_method dichloromethane
_exptl_crystal_preparation       ', Magnetic properties'
loop_
_atom_site_label
_atom_site_type_symbol
_atom_site_fract_x
_atom_site_fract_y
_atom_site_fract_z
Cl1 Cl -0.6004(5) 0.6293(5) 0.91776(18)
N1 N 0.0338(12) 0.5142(11) 0.9267(4)
N2 N 0.0859(13) 0.3954(11) 0.9020(4)
O1 O -0.2358(12) 0.4686(11) 0.7013(4)
O2 O -0.0122(8) 0.5397(9) 0.6694(3)
O3 O 0.1410(8) 0.6291(8) 0.8101(3)
O4 O 0.1605(12) 0.3294(10) 0.8237(3)
C1 C 0.1322(12) 0.6032(12) 0.6740(5)
C2 C 0.2125(16) 0.6245(16) 0.6299(5)
H1 H 0.1714 0.5975 0.5993
C3 C 0.352(2) 0.6855(18) 0.6329(7)
H2 H 0.4059 0.7040 0.6035
C4 C 0.4211(17) 0.7232(16) 0.6802(6)
H3 H 0.5186 0.7635 0.6818
C5 C 0.3380(17) 0.6973(15) 0.7222(5)
H4 H 0.3807 0.7194 0.7531
C6 C 0.1909(12) 0.6386(11) 0.7206(4)
C7 C 0.0984(14) 0.6050(11) 0.7627(4)
C8 C -0.0455(13) 0.5465(13) 0.7574(5)
C9 C -0.1079(14) 0.5176(13) 0.7105(5)
C10 C -0.1169(14) 0.5289(11) 0.8090(5)
H5 H -0.1517 0.4338 0.8128
C11 C 0.0380(15) 0.5502(11) 0.8407(4)
C12 C 0.1058(15) 0.4100(12) 0.8528(4)
C13 C 0.0148(15) 0.6040(14) 0.8925(4)
C14 C -0.029(2) 0.7492(15) 0.9062(5)
H6 H -0.0706 0.7508 0.9395
H7 H -0.1064 0.7822 0.8832
H8 H 0.0607 0.8068 0.9045
C15 C -0.2485(12) 0.6226(12) 0.8209(4)
C16 C -0.3546(13) 0.5887(14) 0.8590(5)
H9 H -0.3461 0.5045 0.8750
C17 C -0.4691(14) 0.6767(14) 0.8728(5)
C18 C -0.4895(16) 0.7999(13) 0.8473(6)
H10 H -0.5680 0.8601 0.8566
C19 C -0.3923(15) 0.8314(12) 0.8083(5)
H11 H -0.4092 0.9106 0.7897
C20 C -0.2678(14) 0.7451(13) 0.7963(4)
H12 H -0.1979 0.7709 0.7715
C21 C 0.1168(17) 0.2769(13) 0.9332(5)
C22 C 0.2173(14) 0.1763(13) 0.9167(4)
H13 H 0.2708 0.1872 0.8868
C23 C 0.238(2) 0.0573(14) 0.9456(5)
H14 H 0.3013 -0.0131 0.9341
C24 C 0.165(3) 0.0458(17) 0.9901(7)
H15 H 0.1855 -0.0295 1.0104
C25 C 0.057(2) 0.147(2) 1.0066(6)
H16 H 0.0018 0.1362 1.0362
C26 C 0.038(2) 0.2611(15) 0.9773(5)
H17 H -0.0298 0.3294 0.9876
loop_
_geom_bond_atom_site_label_1
_geom_bond_atom_site_label_2
_geom_bond_site_symmetry_1
_geom_bond_site_symmetry_2
Cl1 C17 1_555 1_555
N1 N2 1_555 1_555
N2 C12 1_555 1_555
O1 C9 1_555 1_555
O2 C1 1_555 1_555
O3 C7 1_555 1_555
O4 C12 1_555 1_555
C1 C2 1_555 1_555
C2 H1 1_555 1_555
C3 C2 1_555 1_555
H2 C3 1_555 1_555
C4 C3 1_555 1_555
H3 C4 1_555 1_555
C5 C4 1_555 1_555
H4 C5 1_555 1_555
C6 C1 1_555 1_555
C7 C6 1_555 1_555
C8 C7 1_555 1_555
C9 O2 1_555 1_555
C10 C8 1_555 1_555
H5 C10 1_555 1_555
C11 O3 1_555 1_555
C12 C11 1_555 1_555
C13 N1 1_555 1_555
C14 C13 1_555 1_555
H6 C14 1_555 1_555
H7 C14 1_555 1_555
H8 C14 1_555 1_555
C15 C10 1_555 1_555
C16 C15 1_555 1_555
H9 C16 1_555 1_555
C17 C16 1_555 1_555
C18 C17 1_555 1_555
H10 C18 1_555 1_555
C19 C18 1_555 1_555
H11 C19 1_555 1_555
C20 C15 1_555 1_555
H12 C20 1_555 1_555
C21 N2 1_555 1_555
C22 C21 1_555 1_555
H13 C22 1_555 1_555
C23 C22 1_555 1_555
H14 C23 1_555 1_555
C24 C23 1_555 1_555
H15 C24 1_555 1_555
C25 C24 1_555 1_555
H16 C25 1_555 1_555
C26 C21 1_555 1_555
H17 C26 1_555 1_555
C5 C6 1_555 1_555
C8 C9 1_555 1_555
C10 C11 1_555 1_555
C11 C13 1_555 1_555
C19 C20 1_555 1_555
C25 C26 1_555 1_555

#END
