
#######################################################################
#
#                 Cambridge Crystallographic Data Centre
#                                CCDC 
#
#######################################################################
#
# If this CIF has been generated from an entry in the Cambridge 
# Structural Database, then it will include bibliographic, chemical, 
# crystal, experimental, refinement or atomic coordinate data resulting 
# from the CCDC's data processing and validation procedures.
#
#######################################################################

data_PECWEA
_chemical_formula_moiety         'C10 H12 O4'
_chemical_name_systematic        Octahydrofuro(3,2-e)(1)benzofuran-2,7-dione
_symmetry_cell_setting           monoclinic
_symmetry_space_group_name_H-M   'P 21'
_symmetry_Int_Tables_number      4
_space_group_name_Hall           'P 2yb'
loop_
_symmetry_equiv_pos_site_id
_symmetry_equiv_pos_as_xyz
1 x,y,z
2 -x,1/2+y,-z
_cell_length_a                   7.0222(4)
_cell_length_b                   12.2044(6)
_cell_length_c                   10.4549(6)
_cell_angle_alpha                90
_cell_angle_beta                 95.6310(10)
_cell_angle_gamma                90
_cell_volume                     891.679
_exptl_crystal_colour            colorless
_exptl_crystal_description       prism
_cell_formula_units_Z            4
loop_
_atom_site_label
_atom_site_type_symbol
_atom_site_fract_x
_atom_site_fract_y
_atom_site_fract_z
O1 O 0.1306(2) 0.17267(15) -0.09978(17)
O2 O 0.4424(2) 0.20709(12) -0.08722(15)
C1 C 0.2923(3) 0.13795(19) -0.09422(19)
C2 C 0.3591(3) 0.02159(17) -0.0950(2)
H1 H 0.324(3) -0.015(2) -0.018(2)
H2 H 0.295(3) -0.019(2) -0.169(2)
C3 C 0.5770(3) 0.02783(16) -0.09783(18)
H3 H 0.607(3) 0.0121(19) -0.184(2)
C4 C 0.6254(3) 0.14910(17) -0.0658(2)
H4 H 0.711(3) 0.182(2) -0.127(2)
C5 C 0.7076(3) 0.16805(18) 0.0722(2)
H5 H 0.850(3) 0.155(2) 0.077(2)
H6 H 0.685(3) 0.245(2) 0.093(2)
C6 C 0.6199(3) 0.08971(19) 0.1636(2)
H7 H 0.478(3) 0.096(2) 0.156(2)
H8 H 0.661(3) 0.1048(19) 0.253(2)
C7 C 0.6704(3) -0.02865(18) 0.13672(19)
H9 H 0.585(3) -0.079(2) 0.173(2)
C8 C 0.6835(3) -0.05436(16) -0.00767(18)
H10 H 0.627(3) -0.124(2) -0.027(2)
C9 C 0.8987(3) -0.06218(19) -0.0186(2)
H11 H 0.950(4) 0.001(2) -0.057(3)
H12 H 0.933(4) -0.126(3) -0.064(3)
C10 C 0.9911(3) -0.06923(17) 0.1168(2)
O3 O 0.8612(2) -0.05115(14) 0.20114(13)
O4 O 1.1561(2) -0.08672(15) 0.15355(16)
O5 O 0.3421(2) 0.85238(16) 0.65520(17)
O6 O 0.6509(2) 0.81802(13) 0.70389(14)
C11 C 0.4979(3) 0.83578(18) 0.6194(2)
C12 C 0.5514(3) 0.8295(2) 0.4844(2)
H13 H 0.490(3) 0.764(2) 0.447(2)
H14 H 0.497(3) 0.892(2) 0.436(2)
C13 C 0.7696(3) 0.82171(16) 0.49629(19)
H15 H 0.820(3) 0.892(2) 0.482(2)
C14 C 0.8237(3) 0.79651(18) 0.6403(2)
H16 H 0.923(3) 0.845(2) 0.677(2)
C15 C 0.8821(3) 0.6781(2) 0.6678(2)
H17 H 1.025(4) 0.670(2) 0.656(2)
H18 H 0.865(3) 0.664(2) 0.753(2)
C16 C 0.7662(3) 0.59981(18) 0.5784(2)
H19 H 0.619(3) 0.612(2) 0.585(2)
H20 H 0.788(3) 0.526(2) 0.602(2)
C17 C 0.8056(3) 0.61714(16) 0.4398(2)
H21 H 0.704(3) 0.586(2) 0.386(2)
C18 C 0.8459(3) 0.73815(16) 0.40566(18)
H22 H 0.787(3) 0.7521(19) 0.321(2)
C19 C 1.0635(3) 0.74220(18) 0.4031(2)
H23 H 1.128(4) 0.777(2) 0.481(3)
H24 H 1.110(4) 0.782(2) 0.331(3)
C20 C 1.1275(3) 0.62500(19) 0.4031(2)
O7 O 0.9796(2) 0.55744(13) 0.41735(16)
O8 O 1.2858(2) 0.58948(16) 0.39408(17)
loop_
_geom_bond_atom_site_label_1
_geom_bond_atom_site_label_2
_geom_bond_site_symmetry_1
_geom_bond_site_symmetry_2
O1 C1 1_555 1_555
O2 C1 1_555 1_555
C1 C2 1_555 1_555
C2 H1 1_555 1_555
H2 C2 1_555 1_555
C3 C2 1_555 1_555
H3 C3 1_555 1_555
C4 O2 1_555 1_555
H4 C4 1_555 1_555
C5 C4 1_555 1_555
H5 C5 1_555 1_555
H6 C5 1_555 1_555
C6 C5 1_555 1_555
H7 C6 1_555 1_555
H8 C6 1_555 1_555
C7 C6 1_555 1_555
H9 C7 1_555 1_555
C8 C3 1_555 1_555
H10 C8 1_555 1_555
C9 C8 1_555 1_555
H11 C9 1_555 1_555
H12 C9 1_555 1_555
C10 C9 1_555 1_555
O3 C7 1_555 1_555
O4 C10 1_555 1_555
O5 C11 1_555 1_555
O6 C11 1_555 1_555
C11 C12 1_555 1_555
C12 H13 1_555 1_555
H14 C12 1_555 1_555
C13 C12 1_555 1_555
H15 C13 1_555 1_555
C14 O6 1_555 1_555
H16 C14 1_555 1_555
C15 C14 1_555 1_555
H17 C15 1_555 1_555
H18 C15 1_555 1_555
C16 C15 1_555 1_555
H19 C16 1_555 1_555
H20 C16 1_555 1_555
C17 C16 1_555 1_555
H21 C17 1_555 1_555
C18 C13 1_555 1_555
H22 C18 1_555 1_555
C19 C18 1_555 1_555
H23 C19 1_555 1_555
H24 C19 1_555 1_555
C20 C19 1_555 1_555
O7 C17 1_555 1_555
O8 C20 1_555 1_555
C3 C4 1_555 1_555
C7 C8 1_555 1_555
C10 O3 1_555 1_555
C13 C14 1_555 1_555
C17 C18 1_555 1_555
C20 O7 1_555 1_555

#END
