
#######################################################################
#
#                 Cambridge Crystallographic Data Centre
#                                CCDC 
#
#######################################################################
#
# If this CIF has been generated from an entry in the Cambridge 
# Structural Database, then it will include bibliographic, chemical, 
# crystal, experimental, refinement or atomic coordinate data resulting 
# from the CCDC's data processing and validation procedures.
#
#######################################################################

data_PECXUR01
_chemical_compound_source        'Sophora tonkinensis'
_chemical_formula_moiety         'C15 H22 N2 O2,H2 O1'
_chemical_name_systematic        
'12-hydroxy-13,14-didehydromatridin-15-one monohydrate'
_chemical_properties_biological  'antiviral activity'
_symmetry_cell_setting           orthorhombic
_symmetry_space_group_name_H-M   'P 21 21 21'
_symmetry_Int_Tables_number      19
_space_group_name_Hall           'P 2ac 2ab'
loop_
_symmetry_equiv_pos_site_id
_symmetry_equiv_pos_as_xyz
1 x,y,z
2 1/2-x,-y,1/2+z
3 1/2+x,1/2-y,-z
4 -x,1/2+y,1/2-z
_cell_length_a                   7.9518(14)
_cell_length_b                   12.143(2)
_cell_length_c                   14.869(2)
_cell_angle_alpha                90
_cell_angle_beta                 90
_cell_angle_gamma                90
_cell_volume                     1435.73
_exptl_crystal_colour            colorless
_exptl_crystal_description       block
_cell_formula_units_Z            4
loop_
_atom_site_label
_atom_site_type_symbol
_atom_site_fract_x
_atom_site_fract_y
_atom_site_fract_z
O1 O 0.1566(2) 0.24132(8) 0.67642(7)
H1 H 0.2114 0.2004 0.7091
O2 O 0.2836(2) 0.61783(9) 0.68498(9)
N1 N 0.0874(2) 0.49165(8) 0.64397(7)
N2 N -0.3312(2) 0.47841(10) 0.55422(8)
C1 C 0.2056(3) 0.53107(12) 0.70033(10)
C2 C 0.2426(3) 0.46717(14) 0.78168(11)
H2 H 0.3159 0.4967 0.8240
C3 C 0.1760(3) 0.36958(13) 0.79714(10)
H3 H 0.2005 0.3334 0.8507
C4 C 0.0615(3) 0.31568(11) 0.73018(9)
H4 H -0.0242 0.2738 0.7629
C5 C -0.0270(2) 0.40107(10) 0.67049(8)
H5 H -0.1199 0.4330 0.7051
C6 C -0.1017(2) 0.34500(9) 0.58685(9)
H6 H -0.0092 0.3069 0.5564
C7 C -0.2331(3) 0.25804(12) 0.61024(12)
H7 H -0.2561 0.2135 0.5575
H8 H -0.1890 0.2100 0.6567
C8 C -0.3949(3) 0.31017(15) 0.64277(13)
H9 H -0.4794 0.2536 0.6515
H10 H -0.3757 0.3463 0.7001
C9 C -0.4571(3) 0.39308(14) 0.57517(13)
H11 H -0.4875 0.3550 0.5202
H12 H -0.5576 0.4282 0.5985
C10 C -0.4018(3) 0.55282(14) 0.48579(12)
H13 H -0.5042 0.5858 0.5089
H14 H -0.4308 0.5105 0.4327
C11 C -0.2802(4) 0.64293(13) 0.45999(13)
H15 H -0.2583 0.6892 0.5119
H16 H -0.3300 0.6885 0.4135
C12 C -0.1158(3) 0.59490(14) 0.42597(11)
H17 H -0.0350 0.6537 0.4170
H18 H -0.1345 0.5592 0.3685
C13 C -0.0443(3) 0.51094(11) 0.49315(9)
H19 H 0.0478 0.4718 0.4633
C14 C -0.1764(2) 0.42619(10) 0.51935(9)
H20 H -0.2066 0.3848 0.4651
C15 C 0.0279(3) 0.56846(11) 0.57460(10)
H21 H 0.1209 0.6147 0.5557
H22 H -0.0576 0.6159 0.6004
O3 O -0.3600(2) 0.61570(12) 0.71116(10)
H23 H -0.3293 0.5694 0.6715
H24 H -0.4637 0.6305 0.7042
loop_
_geom_bond_atom_site_label_1
_geom_bond_atom_site_label_2
_geom_bond_site_symmetry_1
_geom_bond_site_symmetry_2
O1 H1 1_555 1_555
O2 C1 1_555 1_555
N1 C1 1_555 1_555
N2 C9 1_555 1_555
C1 C2 1_555 1_555
C2 H2 1_555 1_555
C3 C2 1_555 1_555
H3 C3 1_555 1_555
C4 O1 1_555 1_555
H4 C4 1_555 1_555
C5 N1 1_555 1_555
H5 C5 1_555 1_555
C6 C5 1_555 1_555
H6 C6 1_555 1_555
C7 C6 1_555 1_555
H7 C7 1_555 1_555
H8 C7 1_555 1_555
C8 C7 1_555 1_555
H9 C8 1_555 1_555
H10 C8 1_555 1_555
C9 C8 1_555 1_555
H11 C9 1_555 1_555
H12 C9 1_555 1_555
C10 N2 1_555 1_555
H13 C10 1_555 1_555
H14 C10 1_555 1_555
C11 C10 1_555 1_555
H15 C11 1_555 1_555
H16 C11 1_555 1_555
C12 C11 1_555 1_555
H17 C12 1_555 1_555
H18 C12 1_555 1_555
C13 C12 1_555 1_555
H19 C13 1_555 1_555
C14 N2 1_555 1_555
H20 C14 1_555 1_555
C15 N1 1_555 1_555
H21 C15 1_555 1_555
H22 C15 1_555 1_555
O3 H23 1_555 1_555
H24 O3 1_555 1_555
C3 C4 1_555 1_555
C4 C5 1_555 1_555
C6 C14 1_555 1_555
C13 C14 1_555 1_555
C13 C15 1_555 1_555

#END
