
#######################################################################
#
#                 Cambridge Crystallographic Data Centre
#                                CCDC 
#
#######################################################################
#
# If this CIF has been generated from an entry in the Cambridge 
# Structural Database, then it will include bibliographic, chemical, 
# crystal, experimental, refinement or atomic coordinate data resulting 
# from the CCDC's data processing and validation procedures.
#
#######################################################################

data_PECYAY
_chemical_formula_moiety         'C32 H28 Cl4 N4 O4'
_chemical_name_systematic        
7,14,22,29-Tetra-aza-1,5,16,20-tetrachloro-31,31,32,32-tetramethoxynonacyclo-(18.10.1.1^5,16^0^2,19^.0^4,17^.0^6,15^.0^8,13^.0^21,30^.0^23,28^)dotriaconta-6,8(13),9,11,14,21,23(28),24,26,29-decaene
_symmetry_cell_setting           orthorhombic
_symmetry_space_group_name_H-M   'P b c n'
_symmetry_Int_Tables_number      60
_space_group_name_Hall           '-P 2n 2ab'
loop_
_symmetry_equiv_pos_site_id
_symmetry_equiv_pos_as_xyz
1 x,y,z
2 1/2-x,1/2-y,1/2+z
3 -x,y,1/2-z
4 1/2+x,1/2-y,-z
5 -x,-y,-z
6 1/2+x,1/2+y,1/2-z
7 x,-y,1/2+z
8 1/2-x,1/2+y,z
_cell_length_a                   20.395(2)
_cell_length_b                   11.2144(13)
_cell_length_c                   13.2709(16)
_cell_angle_alpha                90
_cell_angle_beta                 90
_cell_angle_gamma                90
_cell_volume                     3035.29
_exptl_crystal_colour            colorless
_exptl_crystal_description       cubic
_chemical_melting_point          310-313deg.C(dec)
_cell_formula_units_Z            4
loop_
_atom_site_label
_atom_site_type_symbol
_atom_site_fract_x
_atom_site_fract_y
_atom_site_fract_z
Cl1 Cl 0.41291(3) 0.12248(6) -0.03367(5)
Cl2 Cl 0.30835(3) 0.14635(6) 0.35638(6)
N1 N 0.37324(9) 0.38350(15) 0.27743(16)
N2 N 0.41882(10) 0.37494(16) 0.07178(16)
O1 O 0.28168(8) 0.16095(13) 0.12430(14)
C1 C 0.40122(11) 0.2823(2) 0.12359(18)
O2 O 0.33913(8) -0.01693(13) 0.14276(13)
C2 C 0.37714(10) 0.28598(19) 0.22393(18)
C3 C 0.34036(11) 0.10706(19) 0.15018(19)
C4 C 0.45832(11) 0.09255(19) 0.16010(17)
H1 H 0.4625 0.0092 0.1390
C5 C 0.41378(12) 0.4813(2) 0.1246(2)
C6 C 0.52534(11) 0.15093(19) 0.15325(17)
H2 H 0.5214 0.2359 0.1657
H3 H 0.5432 0.1399 0.0861
C7 C 0.39145(13) 0.5949(2) 0.2761(2)
H4 H 0.3787 0.5989 0.3433
C8 C 0.39274(11) 0.4846(2) 0.2258(2)
C9 C 0.36293(11) 0.15913(18) 0.25405(18)
C10 C 0.40382(11) 0.15202(19) 0.09593(17)
C11 C 0.42891(10) 0.09527(18) 0.26920(17)
H5 H 0.4199 0.0130 0.2898
C12 C 0.25568(16) 0.1355(2) 0.0258(3)
H6 H 0.2780 0.1833 -0.0235
H7 H 0.2097 0.1537 0.0246
H8 H 0.2620 0.0526 0.0106
C13 C 0.43079(14) 0.5873(2) 0.0751(2)
H9 H 0.4439 0.5857 0.0080
C14 C 0.42799(16) 0.6923(2) 0.1258(3)
H10 H 0.4390 0.7627 0.0929
C15 C 0.28485(14) -0.0763(2) 0.1901(3)
H11 H 0.2905 -0.0748 0.2619
H12 H 0.2830 -0.1575 0.1674
H13 H 0.2448 -0.0363 0.1727
C16 C 0.40897(15) 0.6959(2) 0.2259(3)
H14 H 0.4081 0.7687 0.2594
Cl1B Cl 0.58709(3) 0.12248(6) 0.53367(5)
Cl2B Cl 0.69165(3) 0.14635(6) 0.14362(6)
N1B N 0.62676(9) 0.38350(15) 0.22257(16)
N2B N 0.58118(10) 0.37494(16) 0.42822(16)
O1B O 0.71832(8) 0.16095(13) 0.37570(14)
C1B C 0.59878(11) 0.2823(2) 0.37641(18)
O2B O 0.66087(8) -0.01693(13) 0.35724(13)
C2B C 0.62286(10) 0.28598(19) 0.27607(18)
C3B C 0.65964(11) 0.10706(19) 0.34982(19)
C4B C 0.54168(11) 0.09255(19) 0.33990(17)
H1B H 0.5375 0.0092 0.3610
C5B C 0.58622(12) 0.4813(2) 0.3754(2)
C6B C 0.47466(11) 0.15093(19) 0.34675(17)
H2B H 0.4786 0.2359 0.3343
H3B H 0.4568 0.1399 0.4139
C7B C 0.60855(13) 0.5949(2) 0.2239(2)
H4B H 0.6213 0.5989 0.1567
C8B C 0.60726(11) 0.4846(2) 0.2742(2)
C9B C 0.63707(11) 0.15913(18) 0.24595(18)
C10B C 0.59618(11) 0.15202(19) 0.40407(17)
C11B C 0.57109(10) 0.09527(18) 0.23080(17)
H5B H 0.5801 0.0130 0.2102
C12B C 0.74432(16) 0.1355(2) 0.4742(3)
H6B H 0.7220 0.1833 0.5235
H7B H 0.7903 0.1537 0.4754
H8B H 0.7380 0.0526 0.4894
C13B C 0.56921(14) 0.5873(2) 0.4249(2)
H9B H 0.5561 0.5857 0.4920
C14B C 0.57201(16) 0.6923(2) 0.3742(3)
H10B H 0.5610 0.7627 0.4071
C15B C 0.71515(14) -0.0763(2) 0.3099(3)
H11B H 0.7095 -0.0748 0.2381
H12B H 0.7170 -0.1575 0.3326
H13B H 0.7552 -0.0363 0.3273
C16B C 0.59103(15) 0.6959(2) 0.2741(3)
H14B H 0.5919 0.7687 0.2406
loop_
_geom_bond_atom_site_label_1
_geom_bond_atom_site_label_2
_geom_bond_site_symmetry_1
_geom_bond_site_symmetry_2
Cl1 C10 1_555 1_555
Cl2 C9 1_555 1_555
N1 C2 1_555 1_555
N2 C1 1_555 1_555
O1 C3 1_555 1_555
C1 C2 1_555 1_555
O2 C3 1_555 1_555
C2 C9 1_555 1_555
C3 C9 1_555 1_555
C4 H1 1_555 1_555
C5 N2 1_555 1_555
C6 C4 1_555 1_555
H2 C6 1_555 1_555
H3 C6 1_555 1_555
C7 H4 1_555 1_555
C8 N1 1_555 1_555
C9 C11 1_555 1_555
C10 C1 1_555 1_555
C11 C4 1_555 1_555
H5 C11 1_555 1_555
C12 O1 1_555 1_555
H6 C12 1_555 1_555
H7 C12 1_555 1_555
H8 C12 1_555 1_555
C13 C5 1_555 1_555
H9 C13 1_555 1_555
C14 C13 1_555 1_555
H10 C14 1_555 1_555
C15 O2 1_555 1_555
H11 C15 1_555 1_555
H12 C15 1_555 1_555
H13 C15 1_555 1_555
C16 C7 1_555 1_555
H14 C16 1_555 1_555
Cl1B C10B 1_555 1_555
Cl2B C9B 1_555 1_555
N1B C2B 1_555 1_555
N2B C1B 1_555 1_555
O1B C3B 1_555 1_555
C1B C2B 1_555 1_555
O2B C3B 1_555 1_555
C2B C9B 1_555 1_555
C3B C9B 1_555 1_555
C4B H1B 1_555 1_555
C5B N2B 1_555 1_555
C6B C11 1_555 1_555
H2B C6B 1_555 1_555
H3B C6B 1_555 1_555
C7B H4B 1_555 1_555
C8B N1B 1_555 1_555
C9B C11B 1_555 1_555
C10B C1B 1_555 1_555
C11B C6 1_555 1_555
H5B C11B 1_555 1_555
C12B O1B 1_555 1_555
H6B C12B 1_555 1_555
H7B C12B 1_555 1_555
H8B C12B 1_555 1_555
C13B C5B 1_555 1_555
H9B C13B 1_555 1_555
C14B C13B 1_555 1_555
H10B C14B 1_555 1_555
C15B O2B 1_555 1_555
H11B C15B 1_555 1_555
H12B C15B 1_555 1_555
H13B C15B 1_555 1_555
C16B C7B 1_555 1_555
H14B C16B 1_555 1_555
C3 C10 1_555 1_555
C4 C10 1_555 1_555
C5 C8 1_555 1_555
C7 C8 1_555 1_555
C14 C16 1_555 1_555
C3B C10B 1_555 1_555
C4B C6B 1_555 1_555
C4B C10B 1_555 1_555
C4B C11B 1_555 1_555
C5B C8B 1_555 1_555
C7B C8B 1_555 1_555
C14B C16B 1_555 1_555

#END
