
#######################################################################
#
#                 Cambridge Crystallographic Data Centre
#                                CCDC 
#
#######################################################################
#
# If this CIF has been generated from an entry in the Cambridge 
# Structural Database, then it will include bibliographic, chemical, 
# crystal, experimental, refinement or atomic coordinate data resulting 
# from the CCDC's data processing and validation procedures.
#
#######################################################################

data_PECYIG
_chemical_formula_moiety         'C40 H32 Cl4 N4 O4'
_chemical_name_systematic        
7,18,26,37-Tetra-aza-1,5,20,24-tetrachloro-39,39,40,40-tetramethoxynonacyclo-(22.14.1.1^5,20^0^2,23^.0^4,21^.0^6,19^.0^8,17^.0^10,15^.0^25,38^.0^27,36^.0^29,34^)-tetraconta-6(19),7,10(15),12,17,25(38),26,29(34),31,36-decaene
_symmetry_cell_setting           orthorhombic
_symmetry_space_group_name_H-M   'P b c n'
_symmetry_Int_Tables_number      60
_space_group_name_Hall           '-P 2n 2ab'
loop_
_symmetry_equiv_pos_site_id
_symmetry_equiv_pos_as_xyz
1 x,y,z
2 1/2-x,1/2-y,1/2+z
3 -x,y,1/2-z
4 1/2+x,1/2-y,-z
5 -x,-y,-z
6 1/2+x,1/2+y,1/2-z
7 x,-y,1/2+z
8 1/2-x,1/2+y,z
_cell_length_a                   19.7883(12)
_cell_length_b                   13.4551(8)
_cell_length_c                   13.2360(8)
_cell_angle_alpha                90
_cell_angle_beta                 90
_cell_angle_gamma                90
_cell_volume                     3524.13
_exptl_crystal_colour            yellow
_exptl_crystal_description       cubic
_cell_formula_units_Z            4
loop_
_atom_site_label
_atom_site_type_symbol
_atom_site_fract_x
_atom_site_fract_y
_atom_site_fract_z
Cl1 Cl 0.41391(2) 0.10834(3) -0.03574(3)
Cl2 Cl 0.30101(2) 0.12223(3) 0.35321(4)
N1 N 0.36891(7) 0.32102(9) 0.27933(9)
N2 N 0.41735(6) 0.31703(9) 0.07214(9)
C1 C 0.52720(8) 0.12760(10) 0.15369(11)
C2 C 0.45741(7) 0.08012(10) 0.15918(10)
C3 C 0.40019(7) 0.23966(10) 0.12286(11)
C4 C 0.35837(7) 0.13514(10) 0.25214(11)
O1 O 0.33316(6) -0.00728(8) 0.13409(10)
C5 C 0.41085(8) 0.40591(11) 0.12560(11)
C6 C 0.40266(8) 0.13189(10) 0.09399(11)
O2 O 0.27667(6) 0.14434(9) 0.11941(10)
C7 C 0.37400(7) 0.24184(10) 0.22506(11)
C8 C 0.42486(9) 0.49434(11) 0.07616(13)
C9 C 0.38569(9) 0.49785(11) 0.27936(12)
C10 C 0.41950(8) 0.58506(11) 0.12590(13)
C11 C 0.40046(9) 0.58708(11) 0.23014(13)
C12 C 0.38928(8) 0.40746(10) 0.22887(11)
C13 C 0.42649(7) 0.08105(10) 0.26817(11)
C14 C 0.33582(8) 0.09533(11) 0.14567(12)
C15 C 0.39529(13) 0.68095(13) 0.27972(16)
C16 C 0.42285(13) 0.76431(14) 0.12448(18)
C17 C 0.43092(10) 0.67746(13) 0.07485(16)
C18 C 0.40592(14) 0.76601(14) 0.22718(18)
C19 C 0.25377(13) 0.1361(3) 0.0164(2)
C20 C 0.27420(13) -0.0570(2) 0.1717(3)
H1 H 0.4593(10) 0.0157(15) 0.1386(13)
H2 H 0.5451(10) 0.1202(12) 0.0864(14)
H3 H 0.5237(8) 0.1991(13) 0.1665(11)
H4 H 0.4158(9) 0.0163(14) 0.2883(14)
H5 H 0.3697(10) 0.4984(14) 0.3521(15)
H6 H 0.3836(12) 0.6766(18) 0.3449(17)
H7 H 0.4373(10) 0.4899(15) 0.0015(17)
H8 H 0.4410(12) 0.6738(17) 0.0036(18)
H9 H 0.4283(13) 0.824(2) 0.089(2)
H10 H 0.2070(16) 0.151(2) 0.014(2)
H11 H 0.281(2) -0.068(3) 0.243(3)
H12 H 0.4035(13) 0.831(2) 0.2608(18)
H13 H 0.2632(16) 0.073(2) -0.006(2)
H14 H 0.2820(17) 0.182(3) -0.026(2)
H15 H 0.234(3) -0.023(4) 0.161(4)
H16 H 0.2703(19) -0.119(2) 0.143(2)
Cl1B Cl 0.58609(2) 0.10834(3) 0.53574(3)
Cl2B Cl 0.69899(2) 0.12223(3) 0.14679(4)
N1B N 0.63109(7) 0.32102(9) 0.22067(9)
N2B N 0.58265(6) 0.31703(9) 0.42786(9)
C1B C 0.47280(8) 0.12760(10) 0.34631(11)
C2B C 0.54259(7) 0.08012(10) 0.34082(10)
C3B C 0.59981(7) 0.23966(10) 0.37714(11)
C4B C 0.64163(7) 0.13514(10) 0.24786(11)
O1B O 0.66684(6) -0.00728(8) 0.36591(10)
C5B C 0.58915(8) 0.40591(11) 0.37440(11)
C6B C 0.59734(8) 0.13189(10) 0.40601(11)
O2B O 0.72333(6) 0.14434(9) 0.38059(10)
C7B C 0.62600(7) 0.24184(10) 0.27494(11)
C8B C 0.57514(9) 0.49434(11) 0.42384(13)
C9B C 0.61431(9) 0.49785(11) 0.22064(12)
C10B C 0.58050(8) 0.58506(11) 0.37410(13)
C11B C 0.59954(9) 0.58708(11) 0.26986(13)
C12B C 0.61072(8) 0.40746(10) 0.27113(11)
C13B C 0.57351(7) 0.08105(10) 0.23183(11)
C14B C 0.66418(8) 0.09533(11) 0.35433(12)
C15B C 0.60471(13) 0.68095(13) 0.22028(16)
C16B C 0.57715(13) 0.76431(14) 0.37552(18)
C17B C 0.56908(10) 0.67746(13) 0.42515(16)
C18B C 0.59408(14) 0.76601(14) 0.27282(18)
C19B C 0.74623(13) 0.1361(3) 0.4836(2)
C20B C 0.72580(13) -0.0570(2) 0.3283(3)
H1B H 0.5407(10) 0.0157(15) 0.3614(13)
H2B H 0.4549(10) 0.1202(12) 0.4136(14)
H3B H 0.4763(8) 0.1991(13) 0.3335(11)
H4B H 0.5842(9) 0.0163(14) 0.2117(14)
H5B H 0.6303(10) 0.4984(14) 0.1479(15)
H6B H 0.6164(12) 0.6766(18) 0.1551(17)
H7B H 0.5627(10) 0.4899(15) 0.4985(17)
H8B H 0.5590(12) 0.6738(17) 0.4964(18)
H9B H 0.5717(13) 0.824(2) 0.411(2)
H10B H 0.7930(16) 0.151(2) 0.486(2)
H11B H 0.719(2) -0.068(3) 0.257(3)
H12B H 0.5965(13) 0.831(2) 0.2392(18)
H13B H 0.7368(16) 0.073(2) 0.506(2)
H14B H 0.7180(17) 0.182(3) 0.526(2)
H15B H 0.766(3) -0.023(4) 0.339(4)
H16B H 0.7297(19) -0.119(2) 0.357(2)
loop_
_geom_bond_atom_site_label_1
_geom_bond_atom_site_label_2
_geom_bond_site_symmetry_1
_geom_bond_site_symmetry_2
Cl1 C6 1_555 1_555
Cl2 C4 1_555 1_555
N1 C7 1_555 1_555
N2 C3 1_555 1_555
C1 C2 1_555 1_555
C2 C6 1_555 1_555
C3 C6 1_555 1_555
C4 C7 1_555 1_555
O1 C14 1_555 1_555
C5 N2 1_555 1_555
C6 C14 1_555 1_555
O2 C14 1_555 1_555
C7 C3 1_555 1_555
C8 C5 1_555 1_555
C9 C11 1_555 1_555
C10 C8 1_555 1_555
C11 C10 1_555 1_555
C12 N1 1_555 1_555
C13 C2 1_555 1_555
C14 C4 1_555 1_555
C15 C11 1_555 1_555
C16 C17 1_555 1_555
C17 C10 1_555 1_555
C18 C15 1_555 1_555
C19 O2 1_555 1_555
C20 O1 1_555 1_555
H1 C2 1_555 1_555
H2 C1 1_555 1_555
H3 C1 1_555 1_555
H4 C13 1_555 1_555
H5 C9 1_555 1_555
H6 C15 1_555 1_555
H7 C8 1_555 1_555
H8 C17 1_555 1_555
H9 C16 1_555 1_555
H10 C19 1_555 1_555
H11 C20 1_555 1_555
H12 C18 1_555 1_555
H13 C19 1_555 1_555
H14 C19 1_555 1_555
H15 C20 1_555 1_555
H16 C20 1_555 1_555
Cl1B C6B 1_555 1_555
Cl2B C4B 1_555 1_555
N1B C7B 1_555 1_555
N2B C3B 1_555 1_555
C1B C13 1_555 1_555
C2B C1B 1_555 1_555
C3B C6B 1_555 1_555
C4B C7B 1_555 1_555
O1B C14B 1_555 1_555
C5B N2B 1_555 1_555
C6B C2B 1_555 1_555
O2B C14B 1_555 1_555
C7B C3B 1_555 1_555
C8B C5B 1_555 1_555
C9B C11B 1_555 1_555
C10B C8B 1_555 1_555
C11B C10B 1_555 1_555
C12B N1B 1_555 1_555
C13B C1 1_555 1_555
C14B C4B 1_555 1_555
C15B C11B 1_555 1_555
C16B C17B 1_555 1_555
C17B C10B 1_555 1_555
C18B C15B 1_555 1_555
C19B O2B 1_555 1_555
C20B O1B 1_555 1_555
H1B C2B 1_555 1_555
H2B C1B 1_555 1_555
H3B C1B 1_555 1_555
H4B C13B 1_555 1_555
H5B C9B 1_555 1_555
H6B C15B 1_555 1_555
H7B C8B 1_555 1_555
H8B C17B 1_555 1_555
H9B C16B 1_555 1_555
H10B C19B 1_555 1_555
H11B C20B 1_555 1_555
H12B C18B 1_555 1_555
H13B C19B 1_555 1_555
H14B C19B 1_555 1_555
H15B C20B 1_555 1_555
H16B C20B 1_555 1_555
C4 C13 1_555 1_555
C5 C12 1_555 1_555
C9 C12 1_555 1_555
C16 C18 1_555 1_555
C2B C13B 1_555 1_555
C4B C13B 1_555 1_555
C5B C12B 1_555 1_555
C6B C14B 1_555 1_555
C9B C12B 1_555 1_555
C16B C18B 1_555 1_555

#END
