
#######################################################################
#
#                 Cambridge Crystallographic Data Centre
#                                CCDC 
#
#######################################################################
#
# If this CIF has been generated from an entry in the Cambridge 
# Structural Database, then it will include bibliographic, chemical, 
# crystal, experimental, refinement or atomic coordinate data resulting 
# from the CCDC's data processing and validation procedures.
#
#######################################################################

data_PECZII
_chemical_name_common            
"Methyl (3R,3'S)-1',1''-dimethyl-2,2''-dioxodispiro[indoline-3,2'-pyrrolidine-3',3''-indoline]-4'-carboxylate"
_chemical_formula_moiety         'C22 H21 N3 O4'
_chemical_name_systematic        
"Methyl 1',1''-dimethyl-2,2''-dioxo-1,1'',2,2''-tetrahydrodispiro[indole-3,2'-pyrrolidine-3',3''-indole]-4'-carboxylate"
_symmetry_cell_setting           triclinic
_symmetry_space_group_name_H-M   'P -1'
_symmetry_Int_Tables_number      2
_space_group_name_Hall           '-P 1'
loop_
_symmetry_equiv_pos_site_id
_symmetry_equiv_pos_as_xyz
1 x,y,z
2 -x,-y,-z
_cell_length_a                   9.4418(3)
_cell_length_b                   10.0132(3)
_cell_length_c                   12.8861(4)
_cell_angle_alpha                67.465(2)
_cell_angle_beta                 88.237(2)
_cell_angle_gamma                62.8420(10)
_cell_volume                     985.679
_exptl_crystal_colour            colorless
_exptl_crystal_description       block
_cell_formula_units_Z            2
loop_
_atom_site_label
_atom_site_type_symbol
_atom_site_fract_x
_atom_site_fract_y
_atom_site_fract_z
C1 C 0.7776(3) 1.0526(3) 0.51871(15)
H1 H 0.6672 1.1089 0.5272
H2 H 0.8311 1.1134 0.5210
H3 H 0.8314 0.9442 0.5797
C2 C 0.77232(13) 0.91697(13) 0.39598(9)
C3 C 0.76315(11) 0.95234(11) 0.26878(8)
C4 C 0.76056(12) 1.11630(12) 0.21751(10)
C5 C 0.77058(15) 1.16217(15) 0.30477(11)
C6 C 0.7641(2) 1.3110(2) 0.28366(17)
H4 H 0.7739 1.3393 0.3429
C7 C 0.7427(2) 1.41584(19) 0.17152(19)
H5 H 0.7374 1.5172 0.1548
C8 C 0.7291(2) 1.37485(16) 0.08406(16)
H6 H 0.7136 1.4490 0.0091
C9 C 0.73808(15) 1.22285(14) 0.10554(11)
H7 H 0.7292 1.1947 0.0461
C10 C 0.61443(11) 0.95525(12) 0.21822(9)
H8 H 0.5964 0.8689 0.2757
C11 C 0.66671(12) 0.90746(15) 0.11868(10)
H9 H 0.6483 0.8173 0.1245
H10 H 0.6070 1.0006 0.0465
C12 C 0.90212(11) 0.81284(11) 0.24386(8)
C13 C 0.93053(14) 0.73661(15) 0.08136(10)
H11 H 1.0405 0.7158 0.0853
H12 H 0.8829 0.7789 0.0033
H13 H 0.9282 0.6357 0.1250
C14 C 0.46237(12) 1.11772(13) 0.18539(10)
C15 C 0.2897(3) 1.3079(2) 0.25589(17)
H14 H 0.3143 1.3946 0.2131
H15 H 0.2644 1.3125 0.3276
H16 H 0.1986 1.3214 0.2135
C16 C 0.92790(12) 0.63976(11) 0.32962(8)
C17 C 1.16767(12) 0.63888(13) 0.34810(9)
C18 C 1.06891(11) 0.79224(12) 0.26043(9)
C19 C 1.13393(14) 0.89045(15) 0.19952(12)
H17 H 1.0693 0.9923 0.1397
C20 C 1.29723(16) 0.83568(18) 0.22851(14)
H18 H 1.3422 0.9014 0.1880
C21 C 1.39322(15) 0.68469(19) 0.31685(14)
H19 H 1.5024 0.6499 0.3353
C22 C 1.32993(14) 0.58367(17) 0.37874(12)
H20 H 1.3946 0.4822 0.4389
N1 N 0.78263(14) 1.03949(13) 0.41018(9)
N2 N 0.83966(10) 0.85688(10) 0.12758(7)
N3 N 1.08062(11) 0.55400(11) 0.38933(8)
H21 H 1.1191 0.4587 0.4458
O1 O 0.77037(12) 0.79974(10) 0.47206(7)
O2 O 0.83142(10) 0.58935(10) 0.33842(7)
O3 O 0.38293(12) 1.20557(12) 0.09240(8)
O4 O 0.42723(12) 1.15085(11) 0.27609(8)
loop_
_geom_bond_atom_site_label_1
_geom_bond_atom_site_label_2
_geom_bond_site_symmetry_1
_geom_bond_site_symmetry_2
C1 H1 1_555 1_555
H2 C1 1_555 1_555
H3 C1 1_555 1_555
C2 C3 1_555 1_555
C3 C4 1_555 1_555
C4 C5 1_555 1_555
C5 C6 1_555 1_555
C6 H4 1_555 1_555
C7 C6 1_555 1_555
H5 C7 1_555 1_555
C8 C7 1_555 1_555
H6 C8 1_555 1_555
C9 C4 1_555 1_555
H7 C9 1_555 1_555
C10 C3 1_555 1_555
H8 C10 1_555 1_555
C11 C10 1_555 1_555
H9 C11 1_555 1_555
H10 C11 1_555 1_555
C12 C3 1_555 1_555
C13 H11 1_555 1_555
H12 C13 1_555 1_555
H13 C13 1_555 1_555
C14 C10 1_555 1_555
C15 H14 1_555 1_555
H15 C15 1_555 1_555
H16 C15 1_555 1_555
C16 C12 1_555 1_555
C17 C18 1_555 1_555
C18 C12 1_555 1_555
C19 C18 1_555 1_555
H17 C19 1_555 1_555
C20 C19 1_555 1_555
H18 C20 1_555 1_555
C21 C20 1_555 1_555
H19 C21 1_555 1_555
C22 C17 1_555 1_555
H20 C22 1_555 1_555
N1 C1 1_555 1_555
N2 C11 1_555 1_555
N3 C16 1_555 1_555
H21 N3 1_555 1_555
O1 C2 1_555 1_555
O2 C16 1_555 1_555
O3 C14 1_555 1_555
O4 C14 1_555 1_555
C2 N1 1_555 1_555
C5 N1 1_555 1_555
C8 C9 1_555 1_555
C12 N2 1_555 1_555
C13 N2 1_555 1_555
C15 O4 1_555 1_555
C17 N3 1_555 1_555
C21 C22 1_555 1_555

#END
