
#######################################################################
#
#                 Cambridge Crystallographic Data Centre
#                                CCDC 
#
#######################################################################
#
# If this CIF has been generated from an entry in the Cambridge 
# Structural Database, then it will include bibliographic, chemical, 
# crystal, experimental, refinement or atomic coordinate data resulting 
# from the CCDC's data processing and validation procedures.
#
#######################################################################

data_PEDCEJ
_chemical_formula_moiety         'C23 H20 N2 O1,1.5(H2 O1)'
_chemical_name_systematic        
'3-(2,3-diphenyl-1H-indol-1-yl)propanamide sesquihydrate'
_symmetry_cell_setting           monoclinic
_symmetry_space_group_name_H-M   'C 2/c'
_symmetry_Int_Tables_number      15
_space_group_name_Hall           '-C 2yn'
loop_
_symmetry_equiv_pos_site_id
_symmetry_equiv_pos_as_xyz
1 x,y,z
2 -x,y,1/2-z
3 1/2+x,1/2+y,z
4 1/2-x,1/2+y,1/2-z
5 -x,-y,-z
6 x,-y,1/2+z
7 1/2-x,1/2-y,-z
8 1/2+x,1/2-y,1/2+z
_cell_length_a                   24.0516(14)
_cell_length_b                   8.6236(5)
_cell_length_c                   20.5558(10)
_cell_angle_alpha                90
_cell_angle_beta                 106.207(3)
_cell_angle_gamma                90
_cell_volume                     4094.07
_cell_formula_units_Z            8
_exptl_crystal_recrystallization_method 'dichloromethane/petroleum ether'
loop_
_atom_site_label
_atom_site_type_symbol
_atom_site_fract_x
_atom_site_fract_y
_atom_site_fract_z
O1 O 0.43434(16) 1.0834(4) 0.0140(3)
N1 N 0.26879(14) 1.0121(4) 0.03141(17)
N2 N 0.44991(17) 0.8358(5) -0.0054(2)
H1 H 0.4847 0.8541 -0.0068
H2 H 0.4364 0.7429 -0.0110
C1 C 0.0520(2) 0.9285(7) 0.1577(3)
H3 H 0.0231 0.9138 0.1792
C2 C 0.0998(2) 0.8346(6) 0.1719(2)
H4 H 0.1037 0.7561 0.2038
C3 C 0.14258(19) 0.8553(5) 0.1390(2)
H5 H 0.1746 0.7899 0.1490
C4 C 0.13793(17) 0.9722(4) 0.0917(2)
C5 C 0.18248(18) 0.9966(4) 0.0553(2)
C6 C 0.24151(17) 0.9823(4) 0.08189(19)
C7 C 0.33041(18) 1.0369(5) 0.0398(2)
H6 H 0.3502 1.0461 0.0877
H7 H 0.3355 1.1338 0.0182
C8 C 0.3575(2) 0.9082(5) 0.0102(3)
H8 H 0.3330 0.8840 -0.0347
H9 H 0.3600 0.8163 0.0381
C9 C 0.41743(18) 0.9497(5) 0.0056(2)
C10 C 0.22692(19) 1.0480(4) -0.0269(2)
C11 C 0.17204(19) 1.0349(4) -0.0152(2)
C12 C 0.27563(17) 0.9407(4) 0.1519(2)
C13 C 0.2695(2) 1.0289(5) 0.2063(2)
H10 H 0.2459 1.1164 0.1986
C14 C 0.2984(3) 0.9864(6) 0.2715(3)
H11 H 0.2936 1.0446 0.3076
C15 C 0.3342(3) 0.8589(7) 0.2839(3)
H12 H 0.3545 0.8330 0.3281
C16 C 0.3397(2) 0.7699(7) 0.2304(3)
H13 H 0.3633 0.6825 0.2385
C17 C 0.3104(2) 0.8099(5) 0.1644(2)
H14 H 0.3140 0.7488 0.1285
C18 C 0.0477(2) 1.0446(6) 0.1111(3)
H15 H 0.0156 1.1095 0.1014
C19 C 0.08946(19) 1.0680(5) 0.0784(2)
H16 H 0.0854 1.1482 0.0472
C20 C 0.1219(2) 1.0555(5) -0.0691(2)
H17 H 0.0853 1.0450 -0.0629
C21 C 0.1291(2) 1.0922(6) -0.1323(2)
H18 H 0.0965 1.1039 -0.1690
C22 C 0.1824(2) 1.1117(6) -0.1421(2)
H19 H 0.1851 1.1400 -0.1848
C23 C 0.2329(2) 1.0902(5) -0.0900(2)
H20 H 0.2692 1.1035 -0.0970
O2 O 0.5000 0.7556(6) 0.2500
H21 H 0.5000 0.8542(6) 0.2500
O3 O 0.4702(3) 0.0558(7) 0.1854(3)
H22 H 0.4904(4) -0.0063(10) 0.1693(5)
H23? H 0.4741(11) 0.7477(6) 0.2124(9)
loop_
_geom_bond_atom_site_label_1
_geom_bond_atom_site_label_2
_geom_bond_site_symmetry_1
_geom_bond_site_symmetry_2
O1 C9 1_555 1_555
N1 C6 1_555 1_555
N2 H1 1_555 1_555
H2 N2 1_555 1_555
C1 H3 1_555 1_555
C2 C1 1_555 1_555
H4 C2 1_555 1_555
C3 C2 1_555 1_555
H5 C3 1_555 1_555
C4 C3 1_555 1_555
C5 C4 1_555 1_555
C6 C5 1_555 1_555
C7 N1 1_555 1_555
H6 C7 1_555 1_555
H7 C7 1_555 1_555
C8 C7 1_555 1_555
H8 C8 1_555 1_555
H9 C8 1_555 1_555
C9 N2 1_555 1_555
C10 N1 1_555 1_555
C11 C5 1_555 1_555
C12 C6 1_555 1_555
C13 C12 1_555 1_555
H10 C13 1_555 1_555
C14 C13 1_555 1_555
H11 C14 1_555 1_555
C15 C14 1_555 1_555
H12 C15 1_555 1_555
C16 C15 1_555 1_555
H13 C16 1_555 1_555
C17 C12 1_555 1_555
H14 C17 1_555 1_555
C18 C1 1_555 1_555
H15 C18 1_555 1_555
C19 C4 1_555 1_555
H16 C19 1_555 1_555
C20 C11 1_555 1_555
H17 C20 1_555 1_555
C21 C20 1_555 1_555
H18 C21 1_555 1_555
C22 C21 1_555 1_555
H19 C22 1_555 1_555
C23 C10 1_555 1_555
H20 C23 1_555 1_555
O2 H21 1_555 1_555
O3 H22 1_555 1_555
C8 C9 1_555 1_555
C10 C11 1_555 1_555
C16 C17 1_555 1_555
C18 C19 1_555 1_555
C22 C23 1_555 1_555

#END
