
#######################################################################
#
#                 Cambridge Crystallographic Data Centre
#                                CCDC 
#
#######################################################################
#
# If this CIF has been generated from an entry in the Cambridge 
# Structural Database, then it will include bibliographic, chemical, 
# crystal, experimental, refinement or atomic coordinate data resulting 
# from the CCDC's data processing and validation procedures.
#
#######################################################################

data_PEDKAM
_chemical_formula_moiety         '2(C18 H26 N2 2+),C16 H6 O12 S4 4-,2(H2 O1)'
_chemical_name_systematic        
"bis(1,1'-dibutyl-4,4'-bipyridinium) pyrene-1,3,6,8-tetrasulfonate dihydrate"
_symmetry_cell_setting           monoclinic
_symmetry_space_group_name_H-M   'C 2/c'
_symmetry_Int_Tables_number      15
_space_group_name_Hall           '-C 2yn'
loop_
_symmetry_equiv_pos_site_id
_symmetry_equiv_pos_as_xyz
1 x,y,z
2 1/2+x,1/2+y,z
3 -x,y,1/2-z
4 1/2-x,1/2+y,1/2-z
5 -x,-y,-z
6 1/2-x,1/2-y,-z
7 x,-y,1/2+z
8 1/2+x,1/2-y,1/2+z
_cell_length_a                   25.573(4)
_cell_length_b                   6.9899(10)
_cell_length_c                   28.737(5)
_cell_angle_alpha                90
_cell_angle_beta                 105.123(7)
_cell_angle_gamma                90
_cell_volume                     4958.92
_exptl_crystal_colour            colorless
_exptl_crystal_description       Prism
_cell_formula_units_Z            4
loop_
_atom_site_label
_atom_site_type_symbol
_atom_site_fract_x
_atom_site_fract_y
_atom_site_fract_z
S1 S 1.116347(19) 0.72846(8) 0.149066(16)
S2 S 0.894432(19) 0.75889(8) 0.090785(16)
O1 O 1.14739(5) 0.8948(2) 0.17066(5)
O2 O 1.14038(5) 0.5473(2) 0.16992(5)
O3 O 1.10248(6) 0.7297(2) 0.09648(5)
O4 O 0.86401(6) 0.5883(2) 0.09705(5)
O5 O 0.86738(6) 0.9347(2) 0.09900(5)
O6 O 0.91242(6) 0.7602(2) 0.04712(5)
C1 C 1.05322(8) 0.7414(3) 0.16492(7)
C2 C 1.00483(8) 0.7454(3) 0.12826(7)
H1 H 1.0061 0.7447 0.0955
C3 C 0.95500(8) 0.7504(3) 0.13921(7)
C4 C 0.95204(7) 0.7498(3) 0.18760(6)
C5 C 1.00113(7) 0.7477(3) 0.22528(6)
C6 C 1.05216(7) 0.7440(3) 0.21400(6)
C7 C 0.90115(7) 0.7487(3) 0.20053(7)
H2 H 0.8682 0.7508 0.1758
C8 C 1.10075(7) 0.7447(3) 0.25280(7)
H3 H 1.1349 0.7423 0.2456
S1B S 0.883653(19) 0.72846(8) 0.350934(16)
S2B S 1.105568(19) 0.75889(8) 0.409215(16)
O1B O 0.85261(5) 0.8948(2) 0.32934(5)
O2B O 0.85962(5) 0.5473(2) 0.33008(5)
O3B O 0.89752(6) 0.7297(2) 0.40352(5)
O4B O 1.13599(6) 0.5883(2) 0.40295(5)
O5B O 1.13262(6) 0.9347(2) 0.40100(5)
O6B O 1.08758(6) 0.7602(2) 0.45288(5)
C1B C 0.94678(8) 0.7414(3) 0.33508(7)
C2B C 0.99517(8) 0.7454(3) 0.37174(7)
H1B H 0.9939 0.7447 0.4045
C3B C 1.04500(8) 0.7504(3) 0.36079(7)
C4B C 1.04796(7) 0.7498(3) 0.31240(6)
C5B C 0.99887(7) 0.7477(3) 0.27472(6)
C6B C 0.94784(7) 0.7440(3) 0.28600(6)
C7B C 1.09885(7) 0.7487(3) 0.29947(7)
H2B H 1.1318 0.7508 0.3242
C8B C 0.89925(7) 0.7447(3) 0.24720(7)
H3B H 0.8651 0.7423 0.2544
N1 N 0.35827(7) 0.7656(2) 0.22351(6)
C9 C 0.38288(9) 0.7869(3) 0.18746(8)
H4 H 0.3619 0.8107 0.1555
C10 C 0.43853(9) 0.7741(3) 0.19727(7)
H5 H 0.4556 0.7871 0.1718
C11 C 0.46992(8) 0.7422(3) 0.24410(7)
C12 C 0.44265(9) 0.7146(3) 0.27996(7)
H6 H 0.4626 0.6867 0.3120
C13 C 0.38706(9) 0.7279(3) 0.26888(7)
H7 H 0.3689 0.7103 0.2935
C14 C 0.29805(9) 0.7842(4) 0.21378(9)
H8 H 0.2838 0.8548 0.1832
H9 H 0.2892 0.8588 0.2400
C15 C 0.27106(8) 0.5917(4) 0.21027(7)
H10 H 0.2333 0.6087 0.2125
H11 H 0.2903 0.5121 0.2379
C16 C 0.27030(9) 0.4869(4) 0.16365(7)
H12 H 0.3071 0.4898 0.1586
H13 H 0.2457 0.5552 0.1364
C17 C 0.25162(9) 0.2771(4) 0.16363(8)
H14 H 0.2744 0.2107 0.1917
H15 H 0.2549 0.2138 0.1341
H16 H 0.2138 0.2736 0.1651
N1B N 0.64173(7) 0.7656(2) 0.27649(6)
C9B C 0.61712(9) 0.7869(3) 0.31254(8)
H4B H 0.6381 0.8107 0.3445
C10B C 0.56147(9) 0.7741(3) 0.30273(7)
H5B H 0.5444 0.7871 0.3282
C11B C 0.53008(8) 0.7422(3) 0.25590(7)
C12B C 0.55735(9) 0.7146(3) 0.22004(7)
H6B H 0.5374 0.6867 0.1880
C13B C 0.61294(9) 0.7279(3) 0.23112(7)
H7B H 0.6311 0.7103 0.2065
C14B C 0.70195(9) 0.7842(4) 0.28622(9)
H8B H 0.7162 0.8548 0.3168
H9B H 0.7108 0.8588 0.2600
C15B C 0.72894(8) 0.5917(4) 0.28973(7)
H10B H 0.7667 0.6087 0.2875
H11B H 0.7097 0.5121 0.2621
C16B C 0.72970(9) 0.4869(4) 0.33635(7)
H12B H 0.6929 0.4898 0.3414
H13B H 0.7543 0.5552 0.3636
C17B C 0.74838(9) 0.2771(4) 0.33637(8)
H14B H 0.7256 0.2107 0.3083
H15B H 0.7451 0.2138 0.3659
H16B H 0.7862 0.2736 0.3349
N2 N 0.14491(7) 0.2334(3) 0.05837(6)
C18 C 0.16386(8) 0.4036(3) 0.04822(7)
H17 H 0.1485 0.5180 0.0567
C19 C 0.20543(8) 0.4145(3) 0.02567(7)
H18 H 0.2187 0.5356 0.0190
C20 C 0.22799(8) 0.2462(3) 0.01268(7)
C21 C 0.20722(8) 0.0721(3) 0.02388(7)
H19 H 0.2216 -0.0449 0.0158
C22 C 0.16575(8) 0.0698(3) 0.04678(7)
H20 H 0.1520 -0.0491 0.0543
C23 C 0.09963(8) 0.2271(3) 0.08211(7)
H21 H 0.1050 0.3296 0.1067
H22 H 0.1006 0.1029 0.0989
C24 C 0.04457(9) 0.2516(3) 0.04698(7)
H23 H 0.0394 0.1512 0.0219
H24 H 0.0430 0.3774 0.0309
C25 C -0.00089(9) 0.2393(3) 0.07174(9)
H25 H 0.0012 0.1139 0.0881
H26 H 0.0045 0.3400 0.0968
C26 C -0.05682(10) 0.2618(4) 0.03780(11)
H27 H -0.0600 0.3887 0.0228
H28 H -0.0842 0.2481 0.0559
H29 H -0.0625 0.1632 0.0127
N2E N 0.35509(7) 0.2666(3) -0.05837(6)
C18E C 0.33614(8) 0.0964(3) -0.04822(7)
H17E H 0.3515 -0.0180 -0.0567
C19E C 0.29457(8) 0.0855(3) -0.02567(7)
H18E H 0.2813 -0.0356 -0.0190
C20E C 0.27201(8) 0.2538(3) -0.01268(7)
C21E C 0.29278(8) 0.4279(3) -0.02388(7)
H19E H 0.2784 0.5449 -0.0158
C22E C 0.33425(8) 0.4302(3) -0.04678(7)
H20E H 0.3480 0.5491 -0.0543
C23E C 0.40037(8) 0.2729(3) -0.08211(7)
H21E H 0.3950 0.1704 -0.1067
H22E H 0.3994 0.3971 -0.0989
C24E C 0.45543(9) 0.2484(3) -0.04698(7)
H23E H 0.4606 0.3488 -0.0219
H24E H 0.4570 0.1226 -0.0309
C25E C 0.50089(9) 0.2607(3) -0.07174(9)
H25E H 0.4988 0.3861 -0.0881
H26E H 0.4955 0.1600 -0.0968
C26E C 0.55682(10) 0.2382(4) -0.03780(11)
H27E H 0.5600 0.1113 -0.0228
H28E H 0.5842 0.2519 -0.0559
H29E H 0.5625 0.3368 -0.0127
O7 O 0.30157(7) 0.7569(3) 0.06355(6)
H30 H 0.3237(12) 0.863(3) 0.0706(11)
H31 H 0.3229(11) 0.655(3) 0.0723(10)
loop_
_geom_bond_atom_site_label_1
_geom_bond_atom_site_label_2
_geom_bond_site_symmetry_1
_geom_bond_site_symmetry_2
S1 O1 1_555 1_555
S2 O4 1_555 1_555
O2 S1 1_555 1_555
O3 S1 1_555 1_555
O5 S2 1_555 1_555
O6 S2 1_555 1_555
N1 C9 1_555 1_555
N2 C18 1_555 1_555
C1 S1 1_555 1_555
C2 C1 1_555 1_555
H1 C2 1_555 1_555
C3 S2 1_555 1_555
C4 C3 1_555 1_555
C5 C4 1_555 1_555
C6 C1 1_555 1_555
C7 C4 1_555 1_555
H2 C7 1_555 1_555
C8 C6 1_555 1_555
H3 C8 1_555 1_555
C9 H4 1_555 1_555
C10 C9 1_555 1_555
H5 C10 1_555 1_555
C11 C10 1_555 1_555
C12 C11 1_555 1_555
H6 C12 1_555 1_555
C13 N1 1_555 1_555
H7 C13 1_555 1_555
C14 N1 1_555 1_555
H8 C14 1_555 1_555
H9 C14 1_555 1_555
C15 C14 1_555 1_555
H10 C15 1_555 1_555
H11 C15 1_555 1_555
C16 C15 1_555 1_555
H12 C16 1_555 1_555
H13 C16 1_555 1_555
C17 C16 1_555 1_555
H14 C17 1_555 1_555
H15 C17 1_555 1_555
H16 C17 1_555 1_555
C18 H17 1_555 1_555
C19 C18 1_555 1_555
H18 C19 1_555 1_555
C20 C19 1_555 1_555
C21 C20 1_555 1_555
H19 C21 1_555 1_555
C22 N2 1_555 1_555
H20 C22 1_555 1_555
C23 N2 1_555 1_555
H21 C23 1_555 1_555
H22 C23 1_555 1_555
C24 C23 1_555 1_555
H23 C24 1_555 1_555
H24 C24 1_555 1_555
C25 C24 1_555 1_555
H25 C25 1_555 1_555
H26 C25 1_555 1_555
C26 C25 1_555 1_555
H27 C26 1_555 1_555
H28 C26 1_555 1_555
H29 C26 1_555 1_555
O7 H30 1_555 1_555
H31 O7 1_555 1_555
S1B O1B 1_555 1_555
S2B O4B 1_555 1_555
O2B S1B 1_555 1_555
O3B S1B 1_555 1_555
O5B S2B 1_555 1_555
O6B S2B 1_555 1_555
N1B C9B 1_555 1_555
N2E C18E 1_555 1_555
C1B S1B 1_555 1_555
C2B C1B 1_555 1_555
H1B C2B 1_555 1_555
C3B S2B 1_555 1_555
C4B C3B 1_555 1_555
C5B C5 1_555 1_555
C6B C1B 1_555 1_555
C7B C8 1_555 1_555
H2B C7B 1_555 1_555
C8B C7 1_555 1_555
H3B C8B 1_555 1_555
C9B H4B 1_555 1_555
C10B C9B 1_555 1_555
H5B C10B 1_555 1_555
C11B C11 1_555 1_555
C12B C11B 1_555 1_555
H6B C12B 1_555 1_555
C13B N1B 1_555 1_555
H7B C13B 1_555 1_555
C14B N1B 1_555 1_555
H8B C14B 1_555 1_555
H9B C14B 1_555 1_555
C15B C14B 1_555 1_555
H10B C15B 1_555 1_555
H11B C15B 1_555 1_555
C16B C15B 1_555 1_555
H12B C16B 1_555 1_555
H13B C16B 1_555 1_555
C17B C16B 1_555 1_555
H14B C17B 1_555 1_555
H15B C17B 1_555 1_555
H16B C17B 1_555 1_555
C18E H17E 1_555 1_555
C19E C18E 1_555 1_555
H18E C19E 1_555 1_555
C20E C20 1_555 1_555
C21E C20E 1_555 1_555
H19E C21E 1_555 1_555
C22E N2E 1_555 1_555
H20E C22E 1_555 1_555
C23E N2E 1_555 1_555
H21E C23E 1_555 1_555
H22E C23E 1_555 1_555
C24E C23E 1_555 1_555
H23E C24E 1_555 1_555
H24E C24E 1_555 1_555
C25E C24E 1_555 1_555
H25E C25E 1_555 1_555
H26E C25E 1_555 1_555
C26E C25E 1_555 1_555
H27E C26E 1_555 1_555
H28E C26E 1_555 1_555
H29E C26E 1_555 1_555
C2 C3 1_555 1_555
C5 C6 1_555 1_555
C12 C13 1_555 1_555
C21 C22 1_555 1_555
C2B C3B 1_555 1_555
C4B C5B 1_555 1_555
C4B C7B 1_555 1_555
C5B C6B 1_555 1_555
C6B C8B 1_555 1_555
C10B C11B 1_555 1_555
C12B C13B 1_555 1_555
C19E C20E 1_555 1_555
C21E C22E 1_555 1_555

#END
