
#######################################################################
#
#                 Cambridge Crystallographic Data Centre
#                                CCDC 
#
#######################################################################
#
# If this CIF has been generated from an entry in the Cambridge 
# Structural Database, then it will include bibliographic, chemical, 
# crystal, experimental, refinement or atomic coordinate data resulting 
# from the CCDC's data processing and validation procedures.
#
#######################################################################

data_PEDSIC
_chemical_formula_moiety         'C25 H26 N6 O2,1.5(C4 H8 O1)'
_chemical_name_systematic        
"5,5'-(Pentane-3,3-diyl)-2,2'-bis(3-hydroxyphenyldiazo)-bis(1H-pyrrole) tetrahydrofuran solvate"
_symmetry_cell_setting           monoclinic
_symmetry_space_group_name_H-M   'P 21/c'
_symmetry_Int_Tables_number      14
_space_group_name_Hall           '-P 2ybc'
loop_
_symmetry_equiv_pos_site_id
_symmetry_equiv_pos_as_xyz
1 x,y,z
2 -x,1/2+y,1/2-z
3 -x,-y,-z
4 x,1/2-y,1/2+z
_cell_length_a                   15.0052(9)
_cell_length_b                   21.1818(13)
_cell_length_c                   19.5874(12)
_cell_angle_alpha                90
_cell_angle_beta                 101.0680(10)
_cell_angle_gamma                90
_cell_volume                     6109.81
_exptl_crystal_colour            red
_exptl_crystal_description       block
_cell_formula_units_Z            8
loop_
_atom_site_label
_atom_site_type_symbol
_atom_site_fract_x
_atom_site_fract_y
_atom_site_fract_z
O1 O -0.3103(2) 0.93914(14) 0.64187(14)
H1 H -0.3016 0.9264 0.6042
O2 O 0.4775(3) 0.9276(2) 0.5886(2)
H2 H 0.4800 0.9089 0.6256
N1 N -0.00828(15) 0.67318(10) 0.67978(11)
H5 H -0.0395 0.6904 0.6431
N2 N -0.06304(17) 0.73763(12) 0.76630(12)
N3 N -0.10195(16) 0.77212(11) 0.71624(12)
N4 N 0.13295(15) 0.68077(10) 0.56031(11)
H6 H 0.1716 0.6903 0.5973
N5 N 0.17886(18) 0.75760(12) 0.47886(13)
N6 N 0.23264(17) 0.78145(12) 0.52938(13)
C1 C -0.2061(2) 0.85458(15) 0.68108(16)
H9 H -0.2049 0.8428 0.6355
C2 C -0.2584(2) 0.90534(15) 0.69381(18)
C3 C -0.2595(2) 0.92284(16) 0.76084(19)
H10 H -0.2939 0.9573 0.7697
C4 C -0.2094(3) 0.88945(16) 0.81488(18)
H11 H -0.2105 0.9017 0.8603
C5 C -0.1579(2) 0.83847(15) 0.80377(16)
H12 H -0.1250 0.8158 0.8409
C6 C -0.1559(2) 0.82146(13) 0.73565(15)
C7 C -0.0119(2) 0.68987(14) 0.74706(14)
C8 C 0.0478(2) 0.65180(16) 0.79063(16)
H13 H 0.0588 0.6523 0.8390
C9 C 0.0887(2) 0.61252(16) 0.74925(16)
H14 H 0.1331 0.5826 0.7652
C10 C 0.05237(19) 0.62524(13) 0.68030(14)
C11 C 0.06301(18) 0.59110(12) 0.61506(14)
C12 C 0.06749(18) 0.63575(12) 0.55579(14)
C13 C 0.0194(2) 0.63612(14) 0.48852(15)
H15 H -0.0302 0.6106 0.4710
C14 C 0.0574(2) 0.68099(15) 0.45117(15)
H16 H 0.0388 0.6905 0.4042
C15 C 0.1273(2) 0.70863(13) 0.49603(15)
C16 C 0.2829(2) 0.83420(14) 0.50871(17)
C17 C 0.2590(2) 0.86523(16) 0.44564(18)
H17 H 0.2113 0.8502 0.4121
C18 C 0.3062(3) 0.91850(17) 0.4323(2)
H18 H 0.2887 0.9404 0.3908
C19 C 0.3788(3) 0.93871(17) 0.4808(2)
H19 H 0.4112 0.9741 0.4717
C20 C 0.4040(2) 0.90733(18) 0.5422(2)
C21 C 0.3549(2) 0.85449(17) 0.5569(2)
H20 H 0.3713 0.8335 0.5992
C22 C -0.0208(2) 0.54711(14) 0.59280(16)
H21 H -0.0740 0.5734 0.5782
H22 H -0.0118 0.5228 0.5527
C23 C -0.0403(3) 0.50162(17) 0.6477(2)
H23 H 0.0117 0.4752 0.6628
H24 H -0.0917 0.4759 0.6285
H25 H -0.0534 0.5250 0.6866
C24 C 0.1518(2) 0.55244(14) 0.63028(15)
H26 H 0.2003 0.5798 0.6531
H27 H 0.1448 0.5191 0.6628
C25 C 0.1807(2) 0.52287(15) 0.56767(17)
H28 H 0.1351 0.4934 0.5462
H29 H 0.2373 0.5012 0.5822
H30 H 0.1879 0.5553 0.5349
O3 O -0.38353(19) 0.58690(14) 0.41126(15)
H3 H -0.4115 0.5540 0.4138
O4 O 0.44902(19) 0.54206(12) 0.59228(14)
H4 H 0.4356 0.5664 0.5594
N7 N -0.03826(16) 0.81172(11) 0.57859(11)
H7 H -0.0472 0.7974 0.6178
N8 N -0.14711(17) 0.74532(12) 0.50259(12)
N9 N -0.15837(16) 0.71588(12) 0.55659(13)
N10 N 0.17552(17) 0.80220(12) 0.67588(13)
H8 H 0.1916 0.7952 0.6367
N11 N 0.2653(2) 0.71963(14) 0.74729(15)
N12 N 0.28613(18) 0.70037(13) 0.69277(13)
C26 C -0.2759(2) 0.65225(15) 0.48022(18)
H31 H -0.2659 0.6726 0.4403
C27 C -0.3394(2) 0.60394(17) 0.4758(2)
C28 C -0.3563(3) 0.5751(2) 0.5345(3)
H32 H -0.3992 0.5430 0.5307
C29 C -0.3107(3) 0.5931(2) 0.5982(2)
H33 H -0.3234 0.5739 0.6380
C30 C -0.2452(3) 0.64005(19) 0.6040(2)
H34 H -0.2130 0.6516 0.6476
C31 C -0.2278(2) 0.66952(15) 0.54543(17)
C32 C -0.0826(2) 0.79134(14) 0.51425(15)
C33 C -0.0485(2) 0.82503(16) 0.46528(16)
H35 H -0.0660 0.8212 0.4173
C34 C 0.0169(2) 0.86577(15) 0.50022(16)
H36 H 0.0517 0.8937 0.4796
C35 C 0.0217(2) 0.85796(13) 0.57065(15)
C36 C 0.0739(2) 0.89323(14) 0.63279(16)
C37 C 0.1162(2) 0.84735(14) 0.68826(16)
C38 C 0.1085(3) 0.84234(17) 0.75712(17)
H37 H 0.0717 0.8673 0.7793
C39 C 0.1642(3) 0.79432(18) 0.78765(18)
H38 H 0.1722 0.7813 0.8338
C40 C 0.2058(2) 0.76928(16) 0.73736(18)
C41 C 0.3496(2) 0.64686(16) 0.70499(19)
C42 C 0.3820(3) 0.62035(19) 0.7685(2)
H39 H 0.3668 0.6378 0.8083
C43 C 0.4372(3) 0.5676(2) 0.7737(2)
H40 H 0.4584 0.5493 0.8169
C44 C 0.4611(3) 0.54188(19) 0.7146(2)
H41 H 0.4986 0.5066 0.7178
C45 C 0.4283(2) 0.56928(17) 0.6510(2)
C46 C 0.3732(2) 0.62176(16) 0.64699(19)
H42 H 0.3518 0.6403 0.6039
C47 C 0.0058(3) 0.93600(15) 0.66216(18)
H43 H -0.0368 0.9091 0.6800
H44 H 0.0392 0.9598 0.7011
C48 C -0.0475(3) 0.9819(2) 0.6108(2)
H45 H -0.0068 1.0124 0.5973
H46 H -0.0917 1.0031 0.6321
H47 H -0.0777 0.9593 0.5704
C49 C 0.1500(3) 0.93301(17) 0.60977(19)
H48 H 0.1869 0.9054 0.5870
H49 H 0.1222 0.9641 0.5759
C50 C 0.2111(3) 0.9668(2) 0.6693(3)
H50 H 0.1777 1.0000 0.6863
H51 H 0.2623 0.9844 0.6531
H52 H 0.2320 0.9373 0.7061
O5 O 0.3899(3) 0.6167(2) 0.4841(2)
C51 C 0.3348(6) 0.6008(4) 0.4206(4)
H53 H 0.2732 0.6155 0.4189
H54 H 0.3337 0.5554 0.4139
C52 C 0.3748(6) 0.6321(5) 0.3675(4)
H55 H 0.3303 0.6392 0.3252
H56 H 0.4256 0.6084 0.3566
C53 C 0.4048(6) 0.6920(5) 0.4037(5)
H57 H 0.4580 0.7084 0.3884
H58 H 0.3569 0.7233 0.3944
C54 C 0.4260(5) 0.6768(3) 0.4775(4)
H59 H 0.4911 0.6768 0.4943
H60 H 0.3987 0.7075 0.5041
O6 O 0.6930(4) 0.8849(2) 0.51785(17)
C55 C 0.6296(6) 0.8369(4) 0.4927(4)
H61 H 0.6560 0.7955 0.5042
H62 H 0.5757 0.8409 0.5129
C56 C 0.6087(8) 0.8450(5) 0.4225(4)
H63 H 0.5476 0.8616 0.4094
H64 H 0.6108 0.8046 0.3995
C57 C 0.6702(7) 0.8867(6) 0.4010(4)
H65 H 0.6378 0.9201 0.3727
H66 H 0.7078 0.8645 0.3738
C58 C 0.7247(4) 0.9124(3) 0.4618(3)
H67 H 0.7881 0.9022 0.4638
H68 H 0.7182 0.9580 0.4625
O7 O 0.5377(3) 0.8240(3) 0.6733(3)
C59 C 0.5242(6) 0.8229(5) 0.7388(4)
H69 H 0.4599 0.8177 0.7387
H70 H 0.5436 0.8627 0.7613
C60 C 0.5733(8) 0.7730(5) 0.7762(4)
H71 H 0.5356 0.7513 0.8038
H72 H 0.6264 0.7894 0.8073
C61 C 0.6008(5) 0.7295(4) 0.7270(5)
H73 H 0.5740 0.6881 0.7295
H74 H 0.6664 0.7254 0.7344
C62 C 0.5646(7) 0.7608(4) 0.6606(4)
H75 H 0.6105 0.7617 0.6319
H76 H 0.5127 0.7375 0.6358
loop_
_geom_bond_atom_site_label_1
_geom_bond_atom_site_label_2
_geom_bond_site_symmetry_1
_geom_bond_site_symmetry_2
O1 H1 1_555 1_555
O2 H2 1_555 1_555
O3 H3 1_555 1_555
O4 H4 1_555 1_555
O5 C51 1_555 1_555
O6 C55 1_555 1_555
O7 C59 1_555 1_555
N1 H5 1_555 1_555
N2 N3 1_555 1_555
N3 C6 1_555 1_555
N4 H6 1_555 1_555
N5 N6 1_555 1_555
N6 C16 1_555 1_555
N7 H7 1_555 1_555
N8 N9 1_555 1_555
N9 C31 1_555 1_555
N10 H8 1_555 1_555
N11 N12 1_555 1_555
N12 C41 1_555 1_555
C1 H9 1_555 1_555
C2 O1 1_555 1_555
C3 C2 1_555 1_555
H10 C3 1_555 1_555
C4 C3 1_555 1_555
H11 C4 1_555 1_555
C5 C4 1_555 1_555
H12 C5 1_555 1_555
C6 C1 1_555 1_555
C7 N1 1_555 1_555
C8 C7 1_555 1_555
H13 C8 1_555 1_555
C9 C8 1_555 1_555
H14 C9 1_555 1_555
C10 N1 1_555 1_555
C11 C10 1_555 1_555
C12 N4 1_555 1_555
C13 C12 1_555 1_555
H15 C13 1_555 1_555
C14 C13 1_555 1_555
H16 C14 1_555 1_555
C15 N4 1_555 1_555
C16 C17 1_555 1_555
C17 H17 1_555 1_555
C18 C17 1_555 1_555
H18 C18 1_555 1_555
C19 C18 1_555 1_555
H19 C19 1_555 1_555
C20 O2 1_555 1_555
C21 C16 1_555 1_555
H20 C21 1_555 1_555
C22 C11 1_555 1_555
H21 C22 1_555 1_555
H22 C22 1_555 1_555
C23 C22 1_555 1_555
H23 C23 1_555 1_555
H24 C23 1_555 1_555
H25 C23 1_555 1_555
C24 C11 1_555 1_555
H26 C24 1_555 1_555
H27 C24 1_555 1_555
C25 C24 1_555 1_555
H28 C25 1_555 1_555
H29 C25 1_555 1_555
H30 C25 1_555 1_555
C26 H31 1_555 1_555
C27 O3 1_555 1_555
C28 C27 1_555 1_555
H32 C28 1_555 1_555
C29 C28 1_555 1_555
H33 C29 1_555 1_555
C30 C29 1_555 1_555
H34 C30 1_555 1_555
C31 C26 1_555 1_555
C32 N7 1_555 1_555
C33 C32 1_555 1_555
H35 C33 1_555 1_555
C34 C33 1_555 1_555
H36 C34 1_555 1_555
C35 N7 1_555 1_555
C36 C35 1_555 1_555
C37 N10 1_555 1_555
C38 C37 1_555 1_555
H37 C38 1_555 1_555
C39 C38 1_555 1_555
H38 C39 1_555 1_555
C40 N10 1_555 1_555
C41 C42 1_555 1_555
C42 H39 1_555 1_555
C43 C42 1_555 1_555
H40 C43 1_555 1_555
C44 C43 1_555 1_555
H41 C44 1_555 1_555
C45 O4 1_555 1_555
C46 C41 1_555 1_555
H42 C46 1_555 1_555
C47 C36 1_555 1_555
H43 C47 1_555 1_555
H44 C47 1_555 1_555
C48 C47 1_555 1_555
H45 C48 1_555 1_555
H46 C48 1_555 1_555
H47 C48 1_555 1_555
C49 C36 1_555 1_555
H48 C49 1_555 1_555
H49 C49 1_555 1_555
C50 C49 1_555 1_555
H50 C50 1_555 1_555
H51 C50 1_555 1_555
H52 C50 1_555 1_555
C51 H53 1_555 1_555
H54 C51 1_555 1_555
C52 C51 1_555 1_555
H55 C52 1_555 1_555
H56 C52 1_555 1_555
C53 C52 1_555 1_555
H57 C53 1_555 1_555
H58 C53 1_555 1_555
C54 O5 1_555 1_555
H59 C54 1_555 1_555
H60 C54 1_555 1_555
C55 H61 1_555 1_555
H62 C55 1_555 1_555
C56 C55 1_555 1_555
H63 C56 1_555 1_555
H64 C56 1_555 1_555
C57 C56 1_555 1_555
H65 C57 1_555 1_555
H66 C57 1_555 1_555
C58 O6 1_555 1_555
H67 C58 1_555 1_555
H68 C58 1_555 1_555
C59 H69 1_555 1_555
H70 C59 1_555 1_555
C60 C59 1_555 1_555
H71 C60 1_555 1_555
H72 C60 1_555 1_555
C61 C60 1_555 1_555
H73 C61 1_555 1_555
H74 C61 1_555 1_555
C62 O7 1_555 1_555
H75 C62 1_555 1_555
H76 C62 1_555 1_555
N2 C7 1_555 1_555
N5 C15 1_555 1_555
N8 C32 1_555 1_555
N11 C40 1_555 1_555
C1 C2 1_555 1_555
C5 C6 1_555 1_555
C9 C10 1_555 1_555
C11 C12 1_555 1_555
C14 C15 1_555 1_555
C19 C20 1_555 1_555
C20 C21 1_555 1_555
C26 C27 1_555 1_555
C30 C31 1_555 1_555
C34 C35 1_555 1_555
C36 C37 1_555 1_555
C39 C40 1_555 1_555
C44 C45 1_555 1_555
C45 C46 1_555 1_555
C53 C54 1_555 1_555
C57 C58 1_555 1_555
C61 C62 1_555 1_555

#END
