
#######################################################################
#
#                 Cambridge Crystallographic Data Centre
#                                CCDC 
#
#######################################################################
#
# If this CIF has been generated from an entry in the Cambridge 
# Structural Database, then it will include bibliographic, chemical, 
# crystal, experimental, refinement or atomic coordinate data resulting 
# from the CCDC's data processing and validation procedures.
#
#######################################################################

data_PEFCAH
_chemical_formula_moiety         'C25 H21 Br1 N2 O3 S1'
_chemical_name_systematic        
9-bromo-4-((4-methylphenyl)sulfonyl)-1-phenyl-1,11b-dihydro-2H-pyridazino[6,1-a]isoquinolin-3(4H)-one
_symmetry_cell_setting           monoclinic
_symmetry_space_group_name_H-M   'P 21'
_symmetry_Int_Tables_number      4
_space_group_name_Hall           'P 2yb'
loop_
_symmetry_equiv_pos_site_id
_symmetry_equiv_pos_as_xyz
1 x,y,z
2 -x,1/2+y,-z
_cell_length_a                   11.7598(8)
_cell_length_b                   5.6768(4)
_cell_length_c                   17.2634(10)
_cell_angle_alpha                90
_cell_angle_beta                 103.238(4)
_cell_angle_gamma                90
_cell_volume                     1121.85
_exptl_crystal_colour            colorless
_exptl_crystal_description       needle
_cell_formula_units_Z            2
loop_
_atom_site_label
_atom_site_type_symbol
_atom_site_fract_x
_atom_site_fract_y
_atom_site_fract_z
Br1 Br 0.68727(6) 0.24659(14) 0.00624(4)
C1 C 0.6665(5) 0.5532(12) 0.3464(3)
H1 H 0.674 0.7281 0.3526
N1 N 0.7613(4) 0.4460(10) 0.4079(3)
O1 O 0.6216(4) 0.3835(8) 0.5666(2)
S1 S 0.82186(13) 0.6756(2) 0.54635(9)
C2 C 0.6839(5) 0.4923(12) 0.2646(4)
N2 N 0.7426(4) 0.4723(10) 0.4851(3)
O2 O 0.9140(3) 0.7369(10) 0.5090(2)
C3 C 0.6332(5) 0.6307(12) 0.1990(4)
H2 H 0.5966 0.7748 0.2073
O3 O 0.7442(4) 0.8555(8) 0.5610(2)
C4 C 0.6348(5) 0.5632(12) 0.1221(4)
H3 H 0.6003 0.6592 0.0779
C5 C 0.6876(5) 0.3541(13) 0.1116(4)
C6 C 0.7426(5) 0.2148(13) 0.1741(3)
H4 H 0.7808 0.0741 0.1644
C7 C 0.7418(5) 0.2814(12) 0.2521(3)
C8 C 0.7995(5) 0.1437(12) 0.3205(4)
H5 H 0.8323 -0.0056 0.3135
C9 C 0.8062(4) 0.2287(14) 0.3932(3)
H6 H 0.8436 0.1356 0.4374
C10 C 0.5432(5) 0.4817(12) 0.3617(4)
H7 H 0.5123 0.6247 0.3838
C11 C 0.5574(5) 0.2914(13) 0.4263(3)
H8 H 0.4805 0.2553 0.4376
H9 H 0.5882 0.1453 0.4073
C12 C 0.6399(5) 0.3758(11) 0.5007(4)
C13 C 0.4530(5) 0.4154(12) 0.2867(4)
C14 C 0.4611(5) 0.2019(13) 0.2488(4)
H10 H 0.5182 0.0896 0.273
C15 C 0.3860(6) 0.1517(13) 0.1757(4)
H11 H 0.3934 0.0069 0.1497
C16 C 0.3013(6) 0.3110(12) 0.1409(4)
H12 H 0.251 0.278 0.0907
C17 C 0.2901(5) 0.5213(13) 0.1803(4)
H13 H 0.2305 0.6301 0.1574
C18 C 0.3656(5) 0.5721(12) 0.2524(4)
H14 H 0.3574 0.7159 0.2787
C19 C 0.8767(5) 0.5177(11) 0.6342(3)
C20 C 0.9394(5) 0.3118(11) 0.6313(4)
H15 H 0.9496 0.2531 0.5818
C21 C 0.9871(5) 0.1929(12) 0.7013(4)
H16 H 1.029 0.0509 0.6993
C22 C 0.9744(5) 0.2784(14) 0.7745(3)
C23 C 0.9099(6) 0.4864(13) 0.7752(4)
H17 H 0.9002 0.5472 0.8245
C24 C 0.8599(5) 0.6051(12) 0.7054(4)
H18 H 0.8151 0.7437 0.7065
C25 C 1.0296(6) 0.1530(14) 0.8507(4)
H19 H 1.0092 -0.0146 0.8457
H20 H 1.0008 0.2214 0.8947
H21 H 1.1147 0.1705 0.8614
loop_
_geom_bond_atom_site_label_1
_geom_bond_atom_site_label_2
_geom_bond_site_symmetry_1
_geom_bond_site_symmetry_2
Br1 C5 1_555 1_555
C1 H1 1_555 1_555
N1 C1 1_555 1_555
O1 C12 1_555 1_555
S1 N2 1_555 1_555
C2 C1 1_555 1_555
N2 N1 1_555 1_555
O2 S1 1_555 1_555
C3 C2 1_555 1_555
H2 C3 1_555 1_555
O3 S1 1_555 1_555
C4 C3 1_555 1_555
H3 C4 1_555 1_555
C5 C4 1_555 1_555
C6 C5 1_555 1_555
H4 C6 1_555 1_555
C7 C2 1_555 1_555
C8 C7 1_555 1_555
H5 C8 1_555 1_555
C9 N1 1_555 1_555
H6 C9 1_555 1_555
C10 C1 1_555 1_555
H7 C10 1_555 1_555
C11 C10 1_555 1_555
H8 C11 1_555 1_555
H9 C11 1_555 1_555
C12 N2 1_555 1_555
C13 C10 1_555 1_555
C14 C13 1_555 1_555
H10 C14 1_555 1_555
C15 C14 1_555 1_555
H11 C15 1_555 1_555
C16 C15 1_555 1_555
H12 C16 1_555 1_555
C17 C16 1_555 1_555
H13 C17 1_555 1_555
C18 C13 1_555 1_555
H14 C18 1_555 1_555
C19 S1 1_555 1_555
C20 C19 1_555 1_555
H15 C20 1_555 1_555
C21 C20 1_555 1_555
H16 C21 1_555 1_555
C22 C21 1_555 1_555
C23 C22 1_555 1_555
H17 C23 1_555 1_555
C24 C19 1_555 1_555
H18 C24 1_555 1_555
C25 C22 1_555 1_555
H19 C25 1_555 1_555
H20 C25 1_555 1_555
H21 C25 1_555 1_555
C6 C7 1_555 1_555
C8 C9 1_555 1_555
C11 C12 1_555 1_555
C17 C18 1_555 1_555
C23 C24 1_555 1_555

#END
