
#######################################################################
#
#                 Cambridge Crystallographic Data Centre
#                                CCDC 
#
#######################################################################
#
# If this CIF has been generated from an entry in the Cambridge 
# Structural Database, then it will include bibliographic, chemical, 
# crystal, experimental, refinement or atomic coordinate data resulting 
# from the CCDC's data processing and validation procedures.
#
#######################################################################

data_PEFYUX
_chemical_formula_moiety         'C25 H42 O5'
_chemical_name_systematic        
'3\a,7\a,12\a-trihydroxy-7\b-methyl-5\b-cholanic acid'
_chemical_properties_biological  'tested for anticancer activity'
_symmetry_cell_setting           orthorhombic
_symmetry_space_group_name_H-M   'P 21 21 21'
_symmetry_Int_Tables_number      19
_space_group_name_Hall           'P 2ac 2ab'
loop_
_symmetry_equiv_pos_site_id
_symmetry_equiv_pos_as_xyz
1 x,y,z
2 1/2-x,-y,1/2+z
3 -x,1/2+y,1/2-z
4 1/2+x,1/2-y,-z
_cell_length_a                   9.0862(6)
_cell_length_b                   15.8629(12)
_cell_length_c                   16.8304(11)
_cell_angle_alpha                90
_cell_angle_beta                 90
_cell_angle_gamma                90
_cell_volume                     2425.82
_exptl_crystal_colour            colorless
_exptl_crystal_description       prism
_cell_formula_units_Z            4
loop_
_atom_site_label
_atom_site_type_symbol
_atom_site_fract_x
_atom_site_fract_y
_atom_site_fract_z
O1 O 0.5991(2) 0.46936(13) 0.57893(12)
O2 O 0.0924(2) 0.43253(15) 0.52154(12)
O3 O 0.3174(2) 0.14435(13) 0.44979(15)
O4 O 0.5324(3) 0.90647(17) 0.79611(15)
C1 C 0.4833(3) 0.59631(16) 0.52818(15)
C2 C 0.2158(3) 0.35442(18) 0.35885(16)
H1 H 0.1936 0.3330 0.3056
C3 C 0.2825(3) 0.51378(17) 0.44995(16)
H2 H 0.2896 0.5554 0.4071
C4 C 0.3694(3) 0.39658(17) 0.35303(15)
C5 C 0.4848(3) 0.63826(17) 0.61189(15)
H3 H 0.4824 0.5926 0.6511
C6 C 0.3253(3) 0.55876(17) 0.52793(15)
H4 H 0.3234 0.5156 0.5696
C7 C 0.5935(3) 0.52606(17) 0.51258(15)
H5 H 0.6910 0.5516 0.5062
C8 C 0.3986(3) 0.44393(17) 0.43256(15)
H6 H 0.3892 0.4021 0.4751
O5 O 0.6931(3) 0.8495(2) 0.87528(16)
C9 C 0.5569(3) 0.47832(18) 0.43687(17)
H7 H 0.6248 0.4314 0.4317
H8 H 0.5729 0.5155 0.3919
C10 C 0.6131(3) 0.69707(18) 0.63503(16)
H9 H 0.6187 0.7416 0.5948
C11 C 0.2117(3) 0.27774(18) 0.41421(18)
H10 H 0.2263 0.2964 0.4685
H11 H 0.1154 0.2516 0.4110
C12 C 0.1231(3) 0.47777(18) 0.44856(16)
C13 C 0.3330(3) 0.68187(18) 0.61433(17)
H12 H 0.2940 0.6814 0.6680
H13 H 0.3414 0.7400 0.5969
C14 C 0.4825(3) 0.32637(18) 0.33659(17)
H14 H 0.4656 0.3044 0.2836
H15 H 0.5804 0.3508 0.3374
C15 C 0.6434(3) 0.8558(2) 0.81049(19)
C16 C 0.3285(3) 0.21269(17) 0.39359(19)
H16 H 0.3096 0.1910 0.3400
C17 C 0.0972(3) 0.41947(18) 0.37741(16)
H17 H 0.0055 0.3896 0.3862
H18 H 0.0841 0.4544 0.3307
C18 C 0.4780(3) 0.25344(17) 0.39533(18)
H19 H 0.5526 0.2123 0.3815
H20 H 0.4986 0.2740 0.4484
C19 C 0.5034(3) 0.66437(17) 0.46373(16)
H21 H 0.6057 0.6788 0.4596
H22 H 0.4478 0.7136 0.4779
H23 H 0.4692 0.6431 0.4136
C20 C 0.2315(3) 0.63238(18) 0.55839(16)
H24 H 0.1458 0.6118 0.5867
H25 H 0.1990 0.6676 0.5147
C21 C 0.6935(3) 0.8065(2) 0.73981(17)
H26 H 0.7865 0.7794 0.7521
H27 H 0.7099 0.8448 0.6957
C22 C 0.3748(3) 0.45709(19) 0.28143(17)
H28 H 0.4723 0.4798 0.2763
H29 H 0.3061 0.5022 0.2895
H30 H 0.3495 0.4269 0.2339
C23 C 0.5819(3) 0.73955(19) 0.71498(17)
H31 H 0.4853 0.7655 0.7126
H32 H 0.5786 0.6964 0.7558
C24 C 0.0038(3) 0.5455(2) 0.4437(2)
H33 H -0.0897 0.5193 0.4336
H34 H 0.0265 0.5839 0.4013
H35 H -0.0005 0.5757 0.4930
C25 C 0.7607(3) 0.6526(2) 0.6365(2)
H36 H 0.8346 0.6905 0.6561
H37 H 0.7861 0.6350 0.5836
H38 H 0.7550 0.6042 0.6705
H39 H 0.398(4) 0.123(3) 0.455(2)
H40 H 0.165(5) 0.413(3) 0.544(2)
H41 H 0.664(4) 0.434(2) 0.571(2)
H42 H 0.498(4) 0.931(3) 0.849(2)
loop_
_geom_bond_atom_site_label_1
_geom_bond_atom_site_label_2
_geom_bond_site_symmetry_1
_geom_bond_site_symmetry_2
O1 C7 1_555 1_555
O2 C12 1_555 1_555
O3 C16 1_555 1_555
O4 C15 1_555 1_555
C1 C5 1_555 1_555
C2 H1 1_555 1_555
C3 H2 1_555 1_555
C4 C2 1_555 1_555
C5 H3 1_555 1_555
C6 C1 1_555 1_555
H4 C6 1_555 1_555
C7 C1 1_555 1_555
H5 C7 1_555 1_555
C8 C3 1_555 1_555
H6 C8 1_555 1_555
O5 C15 1_555 1_555
C9 C7 1_555 1_555
H7 C9 1_555 1_555
H8 C9 1_555 1_555
C10 C5 1_555 1_555
H9 C10 1_555 1_555
C11 C2 1_555 1_555
H10 C11 1_555 1_555
H11 C11 1_555 1_555
C12 C3 1_555 1_555
C13 C5 1_555 1_555
H12 C13 1_555 1_555
H13 C13 1_555 1_555
C14 C4 1_555 1_555
H14 C14 1_555 1_555
H15 C14 1_555 1_555
C15 C21 1_555 1_555
C16 C11 1_555 1_555
H16 C16 1_555 1_555
C17 C2 1_555 1_555
H17 C17 1_555 1_555
H18 C17 1_555 1_555
C18 C14 1_555 1_555
H19 C18 1_555 1_555
H20 C18 1_555 1_555
C19 C1 1_555 1_555
H21 C19 1_555 1_555
H22 C19 1_555 1_555
H23 C19 1_555 1_555
C20 C6 1_555 1_555
H24 C20 1_555 1_555
H25 C20 1_555 1_555
C21 H26 1_555 1_555
H27 C21 1_555 1_555
C22 C4 1_555 1_555
H28 C22 1_555 1_555
H29 C22 1_555 1_555
H30 C22 1_555 1_555
C23 C10 1_555 1_555
H31 C23 1_555 1_555
H32 C23 1_555 1_555
C24 C12 1_555 1_555
H33 C24 1_555 1_555
H34 C24 1_555 1_555
H35 C24 1_555 1_555
C25 C10 1_555 1_555
H36 C25 1_555 1_555
H37 C25 1_555 1_555
H38 C25 1_555 1_555
H39 O3 1_555 1_555
H40 O2 1_555 1_555
H41 O1 1_555 1_555
H42 O4 1_555 1_555
C3 C6 1_555 1_555
C4 C8 1_555 1_555
C8 C9 1_555 1_555
C12 C17 1_555 1_555
C13 C20 1_555 1_555
C16 C18 1_555 1_555
C21 C23 1_555 1_555

#END
