
#######################################################################
#
#                 Cambridge Crystallographic Data Centre
#                                CCDC 
#
#######################################################################
#
# If this CIF has been generated from an entry in the Cambridge 
# Structural Database, then it will include bibliographic, chemical, 
# crystal, experimental, refinement or atomic coordinate data resulting 
# from the CCDC's data processing and validation procedures.
#
#######################################################################

data_PEGJIV
_chemical_formula_moiety         'C7 H10 F1 N1 O7 P2'
_chemical_name_systematic        
(2-(3-Fluoropyridinium-1-yl)-1-hydroxy-1-phosphonoethyl)phosphonate
_symmetry_cell_setting           monoclinic
_symmetry_space_group_name_H-M   'P 21/c'
_symmetry_Int_Tables_number      14
_space_group_name_Hall           '-P 2ybc'
loop_
_symmetry_equiv_pos_site_id
_symmetry_equiv_pos_as_xyz
1 x,y,z
2 -x,1/2+y,1/2-z
3 -x,-y,-z
4 x,1/2-y,1/2+z
_cell_length_a                   6.1892(10)
_cell_length_b                   19.1693(4)
_cell_length_c                   9.3312(10)
_cell_angle_alpha                90
_cell_angle_beta                 93.667(10)
_cell_angle_gamma                90
_cell_volume                     1104.81
_exptl_crystal_colour            colorless
_exptl_crystal_description       block
_cell_formula_units_Z            4
_exptl_crystal_recrystallization_method ethanol/water
loop_
_atom_site_label
_atom_site_type_symbol
_atom_site_fract_x
_atom_site_fract_y
_atom_site_fract_z
P1 P 0.41226(6) 0.44840(2) 0.79354(4)
P2 P 0.76404(6) 0.553024(19) 0.72862(4)
F1 F 1.0442(3) 0.21499(7) 0.91950(17)
O1 O 0.39928(18) 0.38731(6) 0.90243(12)
H1 H 0.361(3) 0.3987(11) 0.9834(18)
O2 O 0.31637(16) 0.51504(6) 0.84706(11)
O3 O 0.31103(17) 0.42278(6) 0.65129(11)
O4 O 0.99640(17) 0.55301(6) 0.67293(12)
H2 H 1.095(3) 0.5425(11) 0.735(2)
O5 O 0.60909(18) 0.57201(6) 0.59910(12)
H3 H 0.653(3) 0.5672(11) 0.5133(18)
O6 O 0.74308(18) 0.59889(6) 0.85500(11)
O7 O 0.83747(17) 0.44439(6) 0.90109(11)
H4 H 0.792(3) 0.4585(11) 0.9773(18)
N1 N 0.7718(2) 0.33893(7) 0.69094(14)
C1 C 0.7074(2) 0.46110(7) 0.77452(14)
C2 C 0.7916(2) 0.41441(7) 0.65544(15)
H5 H 0.7080 0.4242 0.5636
H6 H 0.9453 0.4257 0.6428
C3 C 0.9182(3) 0.31083(9) 0.78694(19)
H7 H 1.0328 0.3382 0.8298
C4 C 0.8982(3) 0.24148(10) 0.8216(2)
C5 C 0.7353(4) 0.20018(10) 0.7608(3)
H8 H 0.7236 0.1524 0.7859
C6 C 0.5903(3) 0.23074(10) 0.6623(3)
H9 H 0.4758 0.2039 0.6178
C7 C 0.6104(3) 0.30032(9) 0.6277(2)
H10 H 0.5101 0.3211 0.5591
loop_
_geom_bond_atom_site_label_1
_geom_bond_atom_site_label_2
_geom_bond_site_symmetry_1
_geom_bond_site_symmetry_2
P1 O1 1_555 1_555
P2 O4 1_555 1_555
F1 C4 1_555 1_555
O1 H1 1_555 1_555
O2 P1 1_555 1_555
O3 P1 1_555 1_555
O4 H2 1_555 1_555
O5 P2 1_555 1_555
H3 O5 1_555 1_555
O6 P2 1_555 1_555
O7 H4 1_555 1_555
N1 C2 1_555 1_555
C1 P1 1_555 1_555
C2 C1 1_555 1_555
H5 C2 1_555 1_555
H6 C2 1_555 1_555
C3 N1 1_555 1_555
H7 C3 1_555 1_555
C4 C3 1_555 1_555
C5 C4 1_555 1_555
H8 C5 1_555 1_555
C6 C5 1_555 1_555
H9 C6 1_555 1_555
C7 N1 1_555 1_555
H10 C7 1_555 1_555
P2 C1 1_555 1_555
O7 C1 1_555 1_555
C6 C7 1_555 1_555

#END
