
#######################################################################
#
#                 Cambridge Crystallographic Data Centre
#                                CCDC 
#
#######################################################################
#
# If this CIF has been generated from an entry in the Cambridge 
# Structural Database, then it will include bibliographic, chemical, 
# crystal, experimental, refinement or atomic coordinate data resulting 
# from the CCDC's data processing and validation procedures.
#
#######################################################################

data_PEGKUJ
_chemical_formula_moiety         'C13 H16 N2 O1'
_chemical_name_systematic        
3-Ethyl-5-methyl-2-(pyridin-2-ylamino)cyclopent-2-en-1-one
_symmetry_cell_setting           monoclinic
_symmetry_space_group_name_H-M   'P 21'
_symmetry_Int_Tables_number      4
_space_group_name_Hall           'P 2yb'
loop_
_symmetry_equiv_pos_site_id
_symmetry_equiv_pos_as_xyz
1 x,y,z
2 -x,1/2+y,-z
_cell_length_a                   6.6812(8)
_cell_length_b                   9.6029(14)
_cell_length_c                   18.372(2)
_cell_angle_alpha                90
_cell_angle_beta                 96.333(3)
_cell_angle_gamma                90
_cell_volume                     1171.53
_exptl_crystal_colour            colorless
_exptl_crystal_description       prisms
_cell_formula_units_Z            4
loop_
_atom_site_label
_atom_site_type_symbol
_atom_site_fract_x
_atom_site_fract_y
_atom_site_fract_z
C1 C 0.4572(3) 0.8175(2) 0.53099(10)
H1 H 0.3831 0.8205 0.4838
C2 C 0.5858(3) 0.9274(2) 0.55102(10)
H2 H 0.6007 1.0029 0.5186
C3 C 0.6931(3) 0.9229(2) 0.62101(11)
H3 H 0.7826 0.9962 0.6372
C4 C 0.6674(3) 0.8106(2) 0.66618(10)
H4 H 0.7377 0.8059 0.7140
C5 C 0.5348(2) 0.7033(2) 0.63987(9)
C6 C 0.3949(3) 0.4712(2) 0.66175(9)
C7 C 0.4839(3) 0.3315(2) 0.66885(10)
C8 C 0.3257(3) 0.2256(2) 0.64001(10)
H5 H 0.3693 0.1807 0.5952
C9 C 0.1379(3) 0.3147(3) 0.61735(11)
H6 H 0.0949 0.3045 0.5643
H7 H 0.0253 0.2861 0.6448
C10 C 0.1986(2) 0.4623(2) 0.63532(9)
C11 C 0.2938(3) 0.1125(2) 0.69573(11)
H8 H 0.4231 0.0681 0.7122
H9 H 0.2000 0.0425 0.6731
H10 H 0.2379 0.1541 0.7378
C12 C 0.0464(2) 0.5768(2) 0.62535(10)
H11 H 0.1114 0.6656 0.6420
H12 H -0.0623 0.5578 0.6565
C13 C -0.0462(3) 0.5927(3) 0.54579(10)
H13 H 0.0600 0.6148 0.5148
H14 H -0.1457 0.6681 0.5424
H15 H -0.1122 0.5054 0.5291
N1 N 0.4299(2) 0.70689(19) 0.57372(8)
N2 N 0.5102(2) 0.58885(19) 0.68432(9)
O1 O 0.65820(18) 0.30526(17) 0.69396(7)
H31 H 0.613(3) 0.576(3) 0.7193(11)
C14 C 0.0415(3) 0.1108(3) 0.97170(11)
H16 H 0.1157 0.1088 1.0189
C15 C -0.0897(3) 0.0037(3) 0.95349(12)
H17 H -0.1088 -0.0689 0.9872
C16 C -0.1944(3) 0.0055(3) 0.88336(14)
H18 H -0.2859 -0.0674 0.8684
C17 C -0.1656(3) 0.1120(3) 0.83611(12)
H19 H -0.2345 0.1139 0.7880
C18 C -0.0303(2) 0.2190(2) 0.86103(10)
C19 C 0.1145(3) 0.4482(3) 0.83475(10)
C20 C 0.3118(3) 0.4561(3) 0.86176(10)
C21 C 0.4605(3) 0.3417(3) 0.87496(10)
H20 H 0.5703 0.3566 0.8438
H21 H 0.3939 0.2524 0.8601
C22 C 0.5516(3) 0.3307(3) 0.95499(10)
H22 H 0.6210 0.4178 0.9698
H23 H 0.6480 0.2534 0.9602
H24 H 0.4442 0.3139 0.9862
N3 N 0.0731(2) 0.2189(2) 0.92750(8)
N4 N -0.0028(2) 0.3303(2) 0.81470(9)
C23 C 0.1809(4) 0.7009(3) 0.85928(15)
H25 H 0.1364 0.7452 0.9041
C24 C 0.0232(5) 0.5941(4) 0.8298(2)
C25 C 0.3703(6) 0.6122(4) 0.8820(2)
H26 H 0.4115 0.6211 0.9352
H27 H 0.4833 0.6429 0.8553
C26 C 0.2115(4) 0.8148(4) 0.80356(16)
H28 H 0.2767 0.7750 0.7631
H29 H 0.2968 0.8884 0.8273
H30 H 0.0806 0.8539 0.7846
O2 O -0.1510(6) 0.6207(7) 0.8056(4)
H32 H -0.105(4) 0.342(3) 0.7767(14)
C27? C 0.0437(11) 0.5683(9) 0.8147(5)
C28? C 0.2210(7) 0.6714(5) 0.8204(3)
C29? C 0.3851(12) 0.5815(9) 0.8645(4)
C30? C 0.1785(9) 0.8128(6) 0.8523(3)
H33? H 0.2615 0.6861 0.7701
H34? H 0.5130 0.5850 0.8420
H35? H 0.4101 0.6143 0.9158
H36? H 0.1176 0.8002 0.8980
H37? H 0.0856 0.8648 0.8173
H38? H 0.3048 0.8648 0.8623
O3? O -0.1316(14) 0.6017(18) 0.7943(9)
loop_
_geom_bond_atom_site_label_1
_geom_bond_atom_site_label_2
_geom_bond_site_symmetry_1
_geom_bond_site_symmetry_2
C1 H1 1_555 1_555
C2 C1 1_555 1_555
H2 C2 1_555 1_555
C3 C2 1_555 1_555
H3 C3 1_555 1_555
C4 C3 1_555 1_555
H4 C4 1_555 1_555
C5 C4 1_555 1_555
C6 C7 1_555 1_555
C7 C8 1_555 1_555
C8 H5 1_555 1_555
C9 C8 1_555 1_555
H6 C9 1_555 1_555
H7 C9 1_555 1_555
C10 C6 1_555 1_555
C11 C8 1_555 1_555
H8 C11 1_555 1_555
H9 C11 1_555 1_555
H10 C11 1_555 1_555
C12 C10 1_555 1_555
H11 C12 1_555 1_555
H12 C12 1_555 1_555
C13 C12 1_555 1_555
H13 C13 1_555 1_555
H14 C13 1_555 1_555
H15 C13 1_555 1_555
C14 H16 1_555 1_555
C15 C14 1_555 1_555
H17 C15 1_555 1_555
C16 C15 1_555 1_555
H18 C16 1_555 1_555
C17 C16 1_555 1_555
H19 C17 1_555 1_555
C18 C17 1_555 1_555
C19 C20 1_555 1_555
C20 C21 1_555 1_555
C21 H20 1_555 1_555
H21 C21 1_555 1_555
C22 C21 1_555 1_555
H22 C22 1_555 1_555
H23 C22 1_555 1_555
H24 C22 1_555 1_555
N1 C1 1_555 1_555
N2 C5 1_555 1_555
N3 C14 1_555 1_555
N4 C18 1_555 1_555
O1 C7 1_555 1_555
C23 H25 1_555 1_555
C24 C19 1_555 1_555
C25 C20 1_555 1_555
H26 C25 1_555 1_555
H27 C25 1_555 1_555
C26 C23 1_555 1_555
H28 C26 1_555 1_555
H29 C26 1_555 1_555
H30 C26 1_555 1_555
O2 C24 1_555 1_555
H31 N2 1_555 1_555
H32 N4 1_555 1_555
C5 N1 1_555 1_555
C6 N2 1_555 1_555
C9 C10 1_555 1_555
C18 N3 1_555 1_555
C19 N4 1_555 1_555
C23 C24 1_555 1_555
C23 C25 1_555 1_555

#END
