
#######################################################################
#
#                 Cambridge Crystallographic Data Centre
#                                CCDC 
#
#######################################################################
#
# If this CIF has been generated from an entry in the Cambridge 
# Structural Database, then it will include bibliographic, chemical, 
# crystal, experimental, refinement or atomic coordinate data resulting 
# from the CCDC's data processing and validation procedures.
#
#######################################################################

data_PEGRUR
_chemical_formula_moiety         'C19 H14 Br1 N1 O2'
_chemical_name_systematic        
'4-methyl-2-(pyridin-2-yl)phenyl 4-bromobenzoate'
_symmetry_cell_setting           monoclinic
_symmetry_space_group_name_H-M   'P 21/c'
_symmetry_Int_Tables_number      14
_space_group_name_Hall           '-P 2ybc'
loop_
_symmetry_equiv_pos_site_id
_symmetry_equiv_pos_as_xyz
1 x,y,z
2 -x,1/2+y,1/2-z
3 -x,-y,-z
4 x,1/2-y,1/2+z
_cell_length_a                   17.1209(10)
_cell_length_b                   6.8257(5)
_cell_length_c                   14.2218(10)
_cell_angle_alpha                90
_cell_angle_beta                 100.200(3)
_cell_angle_gamma                90
_cell_volume                     1635.72
_exptl_crystal_colour            colorless
_exptl_crystal_description       Prism
_cell_formula_units_Z            4
loop_
_atom_site_label
_atom_site_type_symbol
_atom_site_fract_x
_atom_site_fract_y
_atom_site_fract_z
Br1 Br 1.128246(17) 0.35673(5) 0.44244(2)
O1 O 0.76596(9) -0.0456(2) 0.28969(11)
O2 O 0.83766(11) -0.3212(3) 0.28565(15)
C1 C 0.83487(13) -0.1493(3) 0.30074(15)
C2 C 0.65615(12) -0.0850(3) 0.16071(16)
C3 C 0.68482(12) 0.0800(3) 0.10736(15)
C4 C 0.69530(13) -0.1432(3) 0.25040(16)
N1 N 0.68764(12) 0.0496(3) 0.01523(13)
C5 C 0.90402(13) -0.0213(3) 0.33436(15)
C6 C 0.58629(14) -0.1841(4) 0.12280(19)
H1 H 0.5593 -0.1502 0.0607
C7 C 0.66523(15) -0.2864(4) 0.30284(18)
H2 H 0.6922 -0.3211 0.3648
C8 C 0.70485(15) 0.2589(3) 0.15161(17)
H3 H 0.7020 0.2765 0.2172
C9 C 1.04558(15) 0.0056(4) 0.3825(2)
H4 H 1.0968 -0.0529 0.3936
C10 C 0.97942(15) -0.1057(4) 0.3505(2)
H5 H 0.9850 -0.2417 0.3393
C11 C 0.89701(15) 0.1777(4) 0.3493(2)
H6 H 0.8461 0.2376 0.3373
C12 C 0.59546(16) -0.3776(4) 0.2634(2)
H7 H 0.5743 -0.4758 0.2991
C13 C 1.03696(14) 0.2027(4) 0.39810(17)
C14 C 0.55511(15) -0.3296(4) 0.1726(2)
C15 C 0.71224(17) 0.1987(4) -0.03278(18)
H8 H 0.7154 0.1783 -0.0981
C16 C 0.72890(16) 0.4105(4) 0.09970(19)
H9 H 0.7422 0.5343 0.1287
C17 C 0.73334(16) 0.3803(4) 0.00601(19)
H10 H 0.7505 0.4814 -0.0315
C18 C 0.96365(16) 0.2902(4) 0.3818(2)
H11 H 0.9587 0.4265 0.3927
C19 C 0.4793(2) -0.4333(6) 0.1301(3)
H12 H 0.4516 -0.3582 0.0755
H13 H 0.4452 -0.4447 0.1784
H14 H 0.4917 -0.5643 0.1088
loop_
_geom_bond_atom_site_label_1
_geom_bond_atom_site_label_2
_geom_bond_site_symmetry_1
_geom_bond_site_symmetry_2
Br1 C13 1_555 1_555
O1 C1 1_555 1_555
O2 C1 1_555 1_555
C1 C5 1_555 1_555
C2 C3 1_555 1_555
C3 N1 1_555 1_555
C4 O1 1_555 1_555
N1 C15 1_555 1_555
C5 C10 1_555 1_555
C6 C2 1_555 1_555
H1 C6 1_555 1_555
C7 C4 1_555 1_555
H2 C7 1_555 1_555
C8 C3 1_555 1_555
H3 C8 1_555 1_555
C9 H4 1_555 1_555
C10 C9 1_555 1_555
H5 C10 1_555 1_555
C11 C5 1_555 1_555
H6 C11 1_555 1_555
C12 C7 1_555 1_555
H7 C12 1_555 1_555
C13 C9 1_555 1_555
C14 C6 1_555 1_555
C15 H8 1_555 1_555
C16 C8 1_555 1_555
H9 C16 1_555 1_555
C17 C15 1_555 1_555
H10 C17 1_555 1_555
C18 C11 1_555 1_555
H11 C18 1_555 1_555
C19 C14 1_555 1_555
H12 C19 1_555 1_555
H13 C19 1_555 1_555
H14 C19 1_555 1_555
C2 C4 1_555 1_555
C12 C14 1_555 1_555
C13 C18 1_555 1_555
C16 C17 1_555 1_555

#END
