
#######################################################################
#
#                 Cambridge Crystallographic Data Centre
#                                CCDC 
#
#######################################################################
#
# If this CIF has been generated from an entry in the Cambridge 
# Structural Database, then it will include bibliographic, chemical, 
# crystal, experimental, refinement or atomic coordinate data resulting 
# from the CCDC's data processing and validation procedures.
#
#######################################################################

data_PEGRIF
_chemical_formula_moiety         'C13 H5 Br2 F2 N1 S1'
_chemical_name_systematic        
3-(4-bromo-2,5-difluorophenyl)-2-(5-bromothiophen-2-yl)prop-2-enenitrile
_symmetry_cell_setting           monoclinic
_symmetry_space_group_name_H-M   'P 21'
_symmetry_Int_Tables_number      4
_space_group_name_Hall           'P 2yb'
loop_
_symmetry_equiv_pos_site_id
_symmetry_equiv_pos_as_xyz
1 x,y,z
2 -x,1/2+y,-z
_cell_length_a                   3.963(3)
_cell_length_b                   5.849(5)
_cell_length_c                   27.67(3)
_cell_angle_alpha                90
_cell_angle_beta                 91.654(12)
_cell_angle_gamma                90
_cell_volume                     641.112
_exptl_crystal_colour            colorless
_exptl_crystal_description       plate
_cell_formula_units_Z            2
loop_
_atom_site_label
_atom_site_type_symbol
_atom_site_fract_x
_atom_site_fract_y
_atom_site_fract_z
Br1 Br 0.90574(19) 0.17726(14) 0.04039(3)
Br2 Br 0.20352(19) 0.36260(15) 0.46773(2)
S1 S 0.7544(5) 0.2767(3) 0.14757(6)
F1 F 0.0522(13) 0.7452(8) 0.39668(16)
F2 F 0.7396(11) 0.0597(7) 0.31250(15)
N1 N 0.1552(17) 0.9450(12) 0.2280(2)
C1 C 0.7414(17) 0.3702(14) 0.0885(2)
C2 C 0.6018(19) 0.5806(13) 0.0832(2)
H1 H 0.575455 0.657226 0.053087
C3 C 0.5004(18) 0.6725(15) 0.1274(2)
H2 H 0.398200 0.818554 0.130481
C4 C 0.5653(17) 0.5277(12) 0.1659(2)
C5 C 0.4813(17) 0.5644(13) 0.2168(3)
C6 C 0.3008(18) 0.7743(13) 0.2240(2)
C7 C 0.5553(16) 0.4148(11) 0.2525(2)
H3 H 0.683318 0.285862 0.243042
C8 C 0.4703(16) 0.4186(10) 0.3037(2)
C9 C 0.2941(18) 0.5939(13) 0.3274(3)
H4 H 0.222040 0.725480 0.309831
C10 C 0.2266(18) 0.5764(13) 0.3751(3)
C11 C 0.3212(16) 0.3856(14) 0.4027(2)
C12 C 0.4979(17) 0.2103(13) 0.3806(2)
H5 H 0.569608 0.079569 0.398479
C13 C 0.5662(18) 0.2304(11) 0.3326(3)
loop_
_geom_bond_atom_site_label_1
_geom_bond_atom_site_label_2
_geom_bond_site_symmetry_1
_geom_bond_site_symmetry_2
Br1 C1 1_555 1_555
Br2 C11 1_555 1_555
S1 C1 1_555 1_555
F1 C10 1_555 1_555
F2 C13 1_555 1_555
N1 C6 1_555 1_555
C1 C2 1_555 1_555
C2 H1 1_555 1_555
C3 C2 1_555 1_555
H2 C3 1_555 1_555
C4 S1 1_555 1_555
C5 C4 1_555 1_555
C6 C5 1_555 1_555
C7 C5 1_555 1_555
H3 C7 1_555 1_555
C8 C7 1_555 1_555
C9 C8 1_555 1_555
H4 C9 1_555 1_555
C10 C9 1_555 1_555
C11 C10 1_555 1_555
C12 C11 1_555 1_555
H5 C12 1_555 1_555
C13 C8 1_555 1_555
C3 C4 1_555 1_555
C12 C13 1_555 1_555

#END
