
#######################################################################
#
#                 Cambridge Crystallographic Data Centre
#                                CCDC 
#
#######################################################################
#
# If this CIF has been generated from an entry in the Cambridge 
# Structural Database, then it will include bibliographic, chemical, 
# crystal, experimental, refinement or atomic coordinate data resulting 
# from the CCDC's data processing and validation procedures.
#
#######################################################################

data_PEHSUS
_chemical_formula_moiety         'C6 H6 N12 O12,C6 H3 N6 O6'
_chemical_name_systematic        
"2,4,6,8,10,12-hexanitro-2,4,6,8,10,12-hexa-azatetracyclo[5.5.0.0^3,11^.0^5,9^]dodecane 1,3,4,6,7,9-hexahydrobis[1,2,5]oxadiazolo-[3,4-e:3',4'-g][2,1,3]benzoxadiazole 1,4,7-trioxide"
_symmetry_cell_setting           orthorhombic
_symmetry_space_group_name_H-M   'P 21 21 21'
_symmetry_Int_Tables_number      19
_space_group_name_Hall           'P 2ac 2ab'
loop_
_symmetry_equiv_pos_site_id
_symmetry_equiv_pos_as_xyz
1 x,y,z
2 1/2-x,-y,1/2+z
3 -x,1/2+y,1/2-z
4 1/2+x,1/2-y,-z
_cell_length_a                   9.275(5)
_cell_length_b                   11.946(7)
_cell_length_c                   21.577(12)
_cell_angle_alpha                90
_cell_angle_beta                 90
_cell_angle_gamma                90
_cell_volume                     2390.71
_exptl_crystal_colour            colorless
_exptl_crystal_description       prismatic
_cell_formula_units_Z            4
loop_
_atom_site_label
_atom_site_type_symbol
_atom_site_fract_x
_atom_site_fract_y
_atom_site_fract_z
N1 N 0.6586(4) 0.2463(3) -0.14816(16)
N2 N 0.5272(4) 0.3997(3) -0.09564(14)
N3 N 0.3154(4) 0.2860(3) -0.09959(15)
N4 N 0.4320(4) 0.1423(3) -0.14137(15)
N5 N 0.5029(4) 0.2697(3) -0.23508(14)
N6 N 0.3895(4) 0.4141(3) -0.19209(15)
O1 O 0.8221(4) 0.1204(3) -0.1187(2)
O2 O 0.8568(6) 0.2140(5) -0.2037(3)
O3 O 0.5744(5) 0.5766(3) -0.07191(17)
O4 O 0.4655(6) 0.4737(3) -0.00448(17)
O5 O 0.2455(5) 0.2516(4) -0.00134(17)
O6 O 0.0980(4) 0.2183(4) -0.07573(18)
O7 O 0.5761(5) 0.0098(3) -0.17622(17)
O8 O 0.3729(4) 0.0410(3) -0.22240(15)
O9 O 0.6445(4) 0.2988(3) -0.31716(16)
O10 O 0.4192(5) 0.2606(3) -0.33251(15)
O11 O 0.3067(4) 0.5654(3) -0.1445(2)
O12 O 0.1572(4) 0.4493(4) -0.1885(2)
C1 C 0.5509(4) 0.1995(3) -0.10848(17)
H1 H 0.5946 0.1498 -0.0776
C2 C 0.4654(4) 0.2953(3) -0.07642(17)
H2 H 0.4687 0.2876 -0.0312
C3 C 0.3178(4) 0.2218(3) -0.15718(17)
H3 H 0.2257 0.1839 -0.1647
C4 C 0.6111(4) 0.3234(3) -0.19452(19)
H4 H 0.6928 0.3514 -0.2188
C5 C 0.5307(4) 0.4218(3) -0.16168(17)
H5 H 0.5772 0.4937 -0.1705
C6 C 0.3607(4) 0.3011(3) -0.21295(17)
H6 H 0.2887 0.2994 -0.2462
N7 N 0.7881(4) 0.1870(4) -0.1569(2)
N8 N 0.5209(4) 0.4913(3) -0.05491(16)
N9 N 0.2103(4) 0.2474(3) -0.05564(18)
N10 N 0.4629(4) 0.0591(3) -0.18335(16)
N11 N 0.5240(4) 0.2791(3) -0.30015(16)
N12 N 0.2775(5) 0.4808(3) -0.17349(19)
C7 C 0.0700(11) 0.8022(8) -0.1188(5)
C8 C 0.1514(13) 0.7934(7) -0.0667(5)
N13 N 0.2249(11) 0.8908(9) -0.0593(5)
O13 O 0.1889(12) 0.9599(9) -0.1069(5)
N14 N 0.0932(11) 0.9051(9) -0.1436(4)
C9 C 0.1412(15) 0.6896(8) -0.0345(5)
C10 C 0.0552(15) 0.5990(10) -0.0525(5)
N15 N 0.0728(13) 0.5137(9) -0.0087(6)
O14 O 0.1697(15) 0.5516(10) 0.0364(6)
N16 N 0.2120(14) 0.6603(9) 0.0205(6)
C11 C -0.0209(15) 0.6223(12) -0.1065(5)
C12 C -0.0187(12) 0.7192(9) -0.1422(6)
N17 N -0.1031(13) 0.7008(8) -0.1944(5)
O15 O -0.1574(15) 0.5925(9) -0.1911(6)
N18 N -0.1067(16) 0.5441(11) -0.1367(6)
O16 O 0.0151(18) 0.9232(15) -0.1932(7)
O17 O -0.1318(7) 0.4412(6) -0.1097(3)
O18 O 0.2957(8) 0.7316(7) 0.0430(4)
C13? C 0.0709(14) 0.6237(10) -0.0499(5)
C14? C -0.0195(14) 0.6079(11) -0.1029(5)
C15? C -0.0280(13) 0.6925(9) -0.1447(6)
C16? C 0.0431(13) 0.7934(7) -0.1358(5)
C17? C 0.1289(12) 0.8049(7) -0.0834(5)
C18? C 0.1443(13) 0.7192(8) -0.0392(5)
N19? N 0.1830(10) 0.9134(8) -0.0826(4)
N20? N 0.0443(11) 0.8947(8) -0.1675(4)
N21? N 0.1042(13) 0.5505(9) -0.0046(6)
N22? N 0.2229(12) 0.7050(8) 0.0127(5)
N23? N -0.1014(13) 0.5218(10) -0.1240(4)
N24? N -0.1152(13) 0.6588(8) -0.1916(6)
O19? O 0.1308(11) 0.9689(8) -0.1346(4)
O20? O 0.2697(15) 0.9686(11) -0.0510(7)
O21? O 0.1981(13) 0.6007(9) 0.0341(6)
O22? O -0.1605(13) 0.5533(9) -0.1789(5)
loop_
_geom_bond_atom_site_label_1
_geom_bond_atom_site_label_2
_geom_bond_site_symmetry_1
_geom_bond_site_symmetry_2
N1 C1 1_555 1_555
N2 C2 1_555 1_555
N3 C2 1_555 1_555
N4 C1 1_555 1_555
N5 C4 1_555 1_555
N6 C5 1_555 1_555
O1 N7 1_555 1_555
O2 N7 1_555 1_555
O3 N8 1_555 1_555
O4 N8 1_555 1_555
O5 N9 1_555 1_555
O6 N9 1_555 1_555
O7 N10 1_555 1_555
O8 N10 1_555 1_555
O9 N11 1_555 1_555
O10 N11 1_555 1_555
O11 N12 1_555 1_555
O12 N12 1_555 1_555
C1 H1 1_555 1_555
C2 C1 1_555 1_555
H2 C2 1_555 1_555
C3 N3 1_555 1_555
H3 C3 1_555 1_555
C4 N1 1_555 1_555
H4 C4 1_555 1_555
C5 N2 1_555 1_555
H5 C5 1_555 1_555
C6 N5 1_555 1_555
H6 C6 1_555 1_555
N7 N1 1_555 1_555
N8 N2 1_555 1_555
N9 N3 1_555 1_555
N10 N4 1_555 1_555
N11 N5 1_555 1_555
N12 N6 1_555 1_555
C7 C8 1_555 1_555
C8 N13 1_555 1_555
N13 O13 1_555 1_555
O13 N14 1_555 1_555
N14 C7 1_555 1_555
C9 C8 1_555 1_555
C10 C9 1_555 1_555
N15 C10 1_555 1_555
O14 N15 1_555 1_555
N16 C9 1_555 1_555
C11 C10 1_555 1_555
C12 C7 1_555 1_555
N17 C12 1_555 1_555
O15 N17 1_555 1_555
N18 C11 1_555 1_555
O16 N14 1_555 1_555
O17 N18 1_555 1_555
O18 N16 1_555 1_555
N4 C3 1_555 1_555
N6 C6 1_555 1_555
C3 C6 1_555 1_555
C4 C5 1_555 1_555
O14 N16 1_555 1_555
C11 C12 1_555 1_555
O15 N18 1_555 1_555

#END
