
#######################################################################
#
#                 Cambridge Crystallographic Data Centre
#                                CCDC 
#
#######################################################################
#
# If this CIF has been generated from an entry in the Cambridge 
# Structural Database, then it will include bibliographic, chemical, 
# crystal, experimental, refinement or atomic coordinate data resulting 
# from the CCDC's data processing and validation procedures.
#
#######################################################################

data_PEHWAB
_chemical_name_common            5,5'-Dibromo-2,2'-thenil
_chemical_formula_moiety         'C10 H4 Br2 O2 S2'
_chemical_name_systematic        1,2-bis(5'-Bromothien-2'-yl)-1,2-ethandione
_chemical_properties_biological  
'potent selective inhibitor of carboxylesterases'
_symmetry_cell_setting           orthorhombic
_symmetry_space_group_name_H-M   'P 21 21 21'
_symmetry_Int_Tables_number      19
_space_group_name_Hall           'P 2ac 2ab'
loop_
_symmetry_equiv_pos_site_id
_symmetry_equiv_pos_as_xyz
1 x,y,z
2 1/2-x,-y,1/2+z
3 -x,1/2+y,1/2-z
4 1/2+x,1/2-y,-z
_cell_length_a                   5.7812(5)
_cell_length_b                   11.2595(10)
_cell_length_c                   17.3624(16)
_cell_angle_alpha                90
_cell_angle_beta                 90
_cell_angle_gamma                90
_cell_volume                     1130.18
_exptl_crystal_colour            yellow
_exptl_crystal_description       needle
_chemical_melting_point          '136-137 deg.C'
_cell_formula_units_Z            4
loop_
_atom_site_label
_atom_site_type_symbol
_atom_site_fract_x
_atom_site_fract_y
_atom_site_fract_z
Br1 Br -0.83025(5) 0.47722(3) -0.187530(17)
S1 S -0.73646(11) 0.28025(6) -0.30818(4)
O1 O -0.2673(3) 0.19920(18) -0.46600(11)
C1 C -0.4393(5) 0.1924(3) -0.42543(16)
Br2 Br -0.21776(5) -0.22289(3) -0.659935(17)
S2 S -0.30441(12) -0.01232(6) -0.54723(4)
O2 O -0.7868(3) 0.08651(18) -0.39872(11)
C2 C -0.4880(4) 0.2795(3) -0.36441(15)
C3 C -0.3448(5) 0.3708(3) -0.34596(16)
H1 H -0.2001 0.3837 -0.3705
C4 C -0.4314(5) 0.4450(3) -0.28685(16)
H2 H -0.3536 0.5128 -0.2671
C5 C -0.6414(5) 0.4059(2) -0.26227(15)
C6 C -0.6090(5) 0.0901(3) -0.43708(16)
C7 C -0.5566(5) -0.0027(2) -0.49342(16)
C8 C -0.7011(5) -0.0959(2) -0.50929(16)
H3 H -0.8471 -0.1058 -0.4850
C9 C -0.6157(5) -0.1751(3) -0.56408(17)
H4 H -0.6955 -0.2436 -0.5818
C10 C -0.4019(5) -0.1407(3) -0.58869(16)
loop_
_geom_bond_atom_site_label_1
_geom_bond_atom_site_label_2
_geom_bond_site_symmetry_1
_geom_bond_site_symmetry_2
Br1 C5 1_555 1_555
S1 C2 1_555 1_555
O1 C1 1_555 1_555
C1 C2 1_555 1_555
Br2 C10 1_555 1_555
S2 C7 1_555 1_555
O2 C6 1_555 1_555
C2 C3 1_555 1_555
C3 H1 1_555 1_555
C4 C3 1_555 1_555
H2 C4 1_555 1_555
C5 S1 1_555 1_555
C6 C1 1_555 1_555
C7 C6 1_555 1_555
C8 C7 1_555 1_555
H3 C8 1_555 1_555
C9 C8 1_555 1_555
H4 C9 1_555 1_555
C10 S2 1_555 1_555
C4 C5 1_555 1_555
C9 C10 1_555 1_555

#END
