
#######################################################################
#
#                 Cambridge Crystallographic Data Centre
#                                CCDC 
#
#######################################################################
#
# If this CIF has been generated from an entry in the Cambridge 
# Structural Database, then it will include bibliographic, chemical, 
# crystal, experimental, refinement or atomic coordinate data resulting 
# from the CCDC's data processing and validation procedures.
#
#######################################################################

data_PEJWEJ
_chemical_formula_moiety         'C8 H12 Br4 N1 1+,0.5(H2 O1),Br1 1-'
_chemical_name_systematic        
'3,4-bis(dibromomethyl)-1,1-dimethyl-2,5-dihydro-1H-pyrrolium bromide hemihydrate'
_symmetry_cell_setting           monoclinic
_symmetry_space_group_name_H-M   'P 21/c'
_symmetry_Int_Tables_number      14
_space_group_name_Hall           '-P 2ybc'
loop_
_symmetry_equiv_pos_site_id
_symmetry_equiv_pos_as_xyz
1 x,y,z
2 -x,1/2+y,1/2-z
3 -x,-y,-z
4 x,1/2-y,1/2+z
_cell_length_a                   13.745(3)
_cell_length_b                   13.297(3)
_cell_length_c                   17.029(3)
_cell_angle_alpha                90
_cell_angle_beta                 105.68(3)
_cell_angle_gamma                90
_cell_volume                     2996.52
_exptl_crystal_colour            colorless
_exptl_crystal_description       prism
_cell_formula_units_Z            8
loop_
_atom_site_label
_atom_site_type_symbol
_atom_site_fract_x
_atom_site_fract_y
_atom_site_fract_z
H1 H -0.217(9) 0.937(13) 0.145(9)
O1 O -0.2794(9) 0.9363(11) 0.1636(8)
H2 H -0.313(9) 0.996(8) 0.180(7)
Br1 Br 0.16157(10) 0.51535(11) 0.89377(8)
Br2 Br -0.43754(11) 1.06583(13) 0.23398(9)
Br3 Br 0.11669(16) 0.93672(14) 0.10352(14)
Br4 Br 0.33381(13) 0.89222(15) 0.22428(10)
Br5 Br -0.07877(13) 0.81304(16) 0.23634(12)
Br6 Br 0.04097(19) 0.66511(16) 0.37497(12)
N1 N 0.1226(8) 0.6105(8) 0.1303(6)
C1 C 0.2010(10) 0.6924(10) 0.1445(8)
H3 H 0.267692 0.666718 0.171462
H4 H 0.202596 0.724664 0.093820
C2 C 0.1637(9) 0.7631(10) 0.1989(7)
C3 C 0.1040(9) 0.7166(9) 0.2367(7)
C4 C 0.0867(10) 0.6110(10) 0.2064(7)
H5 H 0.015641 0.593476 0.194009
H6 H 0.125248 0.563969 0.246405
C5 C 0.1916(12) 0.8706(13) 0.2063(9)
H7 H 0.170153 0.899858 0.251768
C6 C 0.0509(11) 0.7613(11) 0.2925(9)
H8 H 0.091829 0.817854 0.320275
C7 C 0.1643(12) 0.5116(11) 0.1153(8)
H9 H 0.111623 0.462014 0.104905
H10 H 0.217156 0.492292 0.162425
H11 H 0.191167 0.516546 0.068959
C8 C 0.0363(9) 0.6417(11) 0.0597(7)
H12 H 0.060709 0.653323 0.012702
H13 H 0.006608 0.702300 0.073322
H14 H -0.013671 0.589323 0.047824
Br7 Br 0.67884(11) 0.28608(13) 1.05753(9)
Br8 Br 0.62728(13) 0.06725(13) 0.98152(10)
Br9 Br 0.39657(11) 0.35404(11) 1.14238(8)
Br10 Br 0.24952(12) 0.17075(13) 1.07327(9)
N2 N 0.3884(7) 0.3234(8) 0.8802(5)
C9 C 0.4728(9) 0.2499(9) 0.8954(7)
H15 H 0.533914 0.280759 0.888648
H16 H 0.455483 0.192557 0.859061
C10 C 0.4851(9) 0.2194(9) 0.9825(7)
C11 C 0.4020(9) 0.2412(9) 1.0042(6)
C12 C 0.3227(9) 0.2875(9) 0.9354(6)
H17 H 0.289037 0.343195 0.953893
H18 H 0.272777 0.238379 0.908001
C13 C 0.5773(9) 0.1769(10) 1.0344(7)
H19 H 0.565305 0.153217 1.085510
C14 C 0.3811(9) 0.2270(9) 1.0841(7)
H20 H 0.431374 0.179989 1.116051
C15 C 0.3284(10) 0.3294(11) 0.7934(7)
H21 H 0.371274 0.350951 0.760472
H22 H 0.274284 0.376662 0.788211
H23 H 0.300991 0.264311 0.775389
C16 C 0.4313(10) 0.4262(9) 0.9071(8)
H24 H 0.471549 0.423033 0.962729
H25 H 0.377072 0.473123 0.902689
H26 H 0.472690 0.447692 0.872959
loop_
_geom_bond_atom_site_label_1
_geom_bond_atom_site_label_2
_geom_bond_site_symmetry_1
_geom_bond_site_symmetry_2
H1 O1 1_555 1_555
O1 H2 1_555 1_555
Br3 C5 1_555 1_555
Br4 C5 1_555 1_555
Br5 C6 1_555 1_555
Br6 C6 1_555 1_555
N1 C1 1_555 1_555
C1 H3 1_555 1_555
H4 C1 1_555 1_555
C2 C1 1_555 1_555
C3 C2 1_555 1_555
C4 N1 1_555 1_555
H5 C4 1_555 1_555
H6 C4 1_555 1_555
C5 C2 1_555 1_555
H7 C5 1_555 1_555
C6 C3 1_555 1_555
H8 C6 1_555 1_555
C7 N1 1_555 1_555
H9 C7 1_555 1_555
H10 C7 1_555 1_555
H11 C7 1_555 1_555
C8 N1 1_555 1_555
H12 C8 1_555 1_555
H13 C8 1_555 1_555
H14 C8 1_555 1_555
Br7 C13 1_555 1_555
Br8 C13 1_555 1_555
Br9 C14 1_555 1_555
Br10 C14 1_555 1_555
N2 C9 1_555 1_555
C9 H15 1_555 1_555
H16 C9 1_555 1_555
C10 C9 1_555 1_555
C11 C10 1_555 1_555
C12 N2 1_555 1_555
H17 C12 1_555 1_555
H18 C12 1_555 1_555
C13 C10 1_555 1_555
H19 C13 1_555 1_555
C14 C11 1_555 1_555
H20 C14 1_555 1_555
C15 N2 1_555 1_555
H21 C15 1_555 1_555
H22 C15 1_555 1_555
H23 C15 1_555 1_555
C16 N2 1_555 1_555
H24 C16 1_555 1_555
H25 C16 1_555 1_555
H26 C16 1_555 1_555
C3 C4 1_555 1_555
C11 C12 1_555 1_555

#END
