
#######################################################################
#
#                 Cambridge Crystallographic Data Centre
#                                CCDC 
#
#######################################################################
#
# If this CIF has been generated from an entry in the Cambridge 
# Structural Database, then it will include bibliographic, chemical, 
# crystal, experimental, refinement or atomic coordinate data resulting 
# from the CCDC's data processing and validation procedures.
#
#######################################################################

data_PEKCOY
_chemical_name_common            '2-picolylammonium iodide'
_chemical_formula_moiety         'C6 H9 N2 1+,I1 1-'
_chemical_name_systematic        '(2-pyridylmethyl)ammonium iodide'
_symmetry_cell_setting           monoclinic
_symmetry_space_group_name_H-M   'P 21/c'
_symmetry_Int_Tables_number      14
_space_group_name_Hall           '-P 2ybc'
loop_
_symmetry_equiv_pos_site_id
_symmetry_equiv_pos_as_xyz
1 x,y,z
2 -x,1/2+y,1/2-z
3 -x,-y,-z
4 x,1/2-y,1/2+z
_cell_length_a                   8.5143(8)
_cell_length_b                   11.7313(10)
_cell_length_c                   7.9611(8)
_cell_angle_alpha                90
_cell_angle_beta                 97.494(2)
_cell_angle_gamma                90
_cell_volume                     788.393
_exptl_crystal_colour            colorless
_exptl_crystal_description       prism
_cell_formula_units_Z            4
loop_
_atom_site_label
_atom_site_type_symbol
_atom_site_fract_x
_atom_site_fract_y
_atom_site_fract_z
I1 I 0.303966(12) 0.104473(8) 0.097151(13)
N1 N 0.32823(17) 0.61685(11) 0.03027(19)
C1 C 0.2615(2) 0.42188(14) 0.0956(2)
N2 N 0.42222(19) 0.39090(12) 0.1802(2)
C2 C 0.22937(17) 0.54751(13) 0.10121(19)
C3 C 0.0987(2) 0.58769(14) 0.1725(2)
C4 C 0.0672(2) 0.70396(15) 0.1677(2)
C5 C 0.1685(2) 0.77649(15) 0.0958(2)
C6 C 0.2973(2) 0.72917(14) 0.0309(2)
H1 H 0.183(4) 0.379(2) 0.159(4)
H2 H 0.259(4) 0.3954(19) -0.012(4)
H3 H 0.425(3) 0.323(2) 0.211(4)
H4 H 0.440(3) 0.421(3) 0.268(4)
H5 H 0.501(3) 0.409(2) 0.120(3)
H6 H 0.027(5) 0.531(4) 0.234(5)
H7 H -0.009(4) 0.733(3) 0.221(4)
H8 H 0.149(3) 0.865(2) 0.088(3)
H9 H 0.369(4) 0.770(3) -0.027(4)
loop_
_geom_bond_atom_site_label_1
_geom_bond_atom_site_label_2
_geom_bond_site_symmetry_1
_geom_bond_site_symmetry_2
N1 C2 1_555 1_555
C1 N2 1_555 1_555
N2 H3 1_555 1_555
C2 C1 1_555 1_555
C3 C2 1_555 1_555
C4 C3 1_555 1_555
C5 C4 1_555 1_555
C6 N1 1_555 1_555
H1 C1 1_555 1_555
H2 C1 1_555 1_555
H4 N2 1_555 1_555
H5 N2 1_555 1_555
H6 C3 1_555 1_555
H7 C4 1_555 1_555
H8 C5 1_555 1_555
H9 C6 1_555 1_555
C5 C6 1_555 1_555

#END
