
#######################################################################
#
#                 Cambridge Crystallographic Data Centre
#                                CCDC 
#
#######################################################################
#
# If this CIF has been generated from an entry in the Cambridge 
# Structural Database, then it will include bibliographic, chemical, 
# crystal, experimental, refinement or atomic coordinate data resulting 
# from the CCDC's data processing and validation procedures.
#
#######################################################################

data_PELCOA
_chemical_formula_moiety         'C24 H23 N1 O3 S1,0.5(H2 O1)'
_chemical_name_systematic        
'N-Benzyl-N-(1-(4-methoxyphenyl)propadienyl)-4-methylbenzenesulfonamide hemihydrate'
_symmetry_cell_setting           triclinic
_symmetry_space_group_name_H-M   'P -1'
_symmetry_Int_Tables_number      2
_space_group_name_Hall           '-P 1'
loop_
_symmetry_equiv_pos_site_id
_symmetry_equiv_pos_as_xyz
1 x,y,z
2 -x,-y,-z
_cell_length_a                   10.1299(6)
_cell_length_b                   15.3763(9)
_cell_length_c                   15.9530(9)
_cell_angle_alpha                61.7910(10)
_cell_angle_beta                 76.5350(10)
_cell_angle_gamma                86.7540(10)
_cell_volume                     2125.38
_exptl_crystal_colour            colorless
_exptl_crystal_description       block
_cell_formula_units_Z            4
loop_
_atom_site_label
_atom_site_type_symbol
_atom_site_fract_x
_atom_site_fract_y
_atom_site_fract_z
S1 S 0.16496(6) -0.06631(4) 0.31836(4)
C24 C 0.4617(2) 0.08254(16) 0.22698(16)
C25 C 0.1423(2) 0.22393(16) 0.18485(16)
O2 O 0.78794(18) 0.09719(16) 0.33807(15)
C26 C 0.1172(2) -0.10116(16) 0.23875(17)
C27 C 0.5958(2) 0.07721(19) 0.18327(18)
H19 H 0.6142 0.0688 0.1277
C28 C 0.3608(3) 0.09285(18) 0.09619(18)
C29 C -0.0168(3) -0.09675(19) 0.23183(19)
H20 H -0.0822 -0.0794 0.2720
C30 C 0.1059(2) 0.11916(17) 0.21204(18)
H21 H 0.0202 0.0967 0.2606
H22 H 0.0945 0.1162 0.1547
C31 C 0.1699(2) 0.29666(17) 0.08780(17)
H23 H 0.1693 0.2795 0.0393
C32 C 0.1764(3) 0.3489(2) 0.22919(19)
H24 H 0.1800 0.3664 0.2771
C33 C 0.7016(2) 0.0842(2) 0.22090(19)
H25 H 0.7906 0.0813 0.1902
C34 C 0.6764(2) 0.09534(18) 0.30422(18)
C35 C 0.1984(3) 0.39464(19) 0.06173(19)
H26 H 0.2154 0.4428 -0.0036
C36 C 0.4390(2) 0.09590(19) 0.30917(19)
H27 H 0.3504 0.1005 0.3392
C37 C 0.1460(2) 0.25147(18) 0.25562(18)
H28 H 0.1280 0.2041 0.3212
C38 C 0.3479(2) 0.07563(16) 0.18656(17)
C39 C 0.2014(3) 0.41986(19) 0.13291(19)
H29 H 0.2205 0.4854 0.1159
C40 C 0.0427(3) -0.14262(19) 0.1032(2)
C41 C 0.5451(2) 0.1025(2) 0.3478(2)
H30 H 0.5275 0.1118 0.4028
C42 C 0.1754(3) -0.1475(2) 0.1123(2)
H31 H 0.2406 -0.1652 0.0724
C43 C 0.2148(3) -0.12717(19) 0.1784(2)
H32 H 0.3051 -0.1307 0.1828
C44 C -0.0533(3) -0.1181(2) 0.1653(2)
H33 H -0.1439 -0.1161 0.1619
C45 C 0.3717(4) 0.1141(3) 0.0063(2)
C46 C 0.0013(5) -0.1630(3) 0.0289(3)
H34 H -0.0277 -0.1035 -0.0190
H35 H -0.0721 -0.2130 0.0613
H36 H 0.0773 -0.1856 -0.0027
O3 O 0.04689(19) -0.07518(15) 0.39168(12)
O5 O 0.2822(2) -0.11672(13) 0.34669(15)
N1 N 0.21328(18) 0.05287(13) 0.25197(13)
C48 C 0.7672(3) 0.0992(3) 0.4281(3)
H40 H 0.7249 0.1586 0.4222
H41 H 0.8532 0.0976 0.4442
H42 H 0.7095 0.0428 0.4787
H45 H 0.393(3) 0.057(3) -0.005(2)
H46 H 0.371(4) 0.180(3) -0.039(3)
S2 S 0.32460(6) 0.40653(4) 0.75400(4)
O1 O 0.31486(18) 0.67617(14) 1.00809(13)
C1 C 0.2988(2) 0.61456(15) 0.78314(15)
C2 C 0.2884(2) 0.59272(16) 0.70373(15)
C3 C 0.3176(2) 0.65692(17) 0.93201(17)
C4 C 0.1735(2) 0.39568(17) 0.72227(17)
C5 C 0.2026(2) 0.63204(17) 0.64662(17)
C6 C 0.1859(2) 0.64256(18) 0.83135(17)
H1 H 0.1034 0.6472 0.8138
C7 C 0.1951(2) 0.66346(19) 0.90497(18)
H2 H 0.1188 0.6820 0.9367
C8 C 0.4303(2) 0.63006(19) 0.88437(18)
H3 H 0.5129 0.6259 0.9017
C9 C 0.1767(3) 0.37446(19) 0.64680(19)
H4 H 0.2588 0.3625 0.6144
C10 C 0.5336(2) 0.65111(18) 0.53851(16)
C11 C 0.0501(3) 0.41343(19) 0.77089(19)
H5 H 0.0468 0.4280 0.8217
C12 C 0.4501(2) 0.55587(19) 0.58216(17)
H6 H 0.3818 0.5645 0.5457
H7 H 0.5082 0.5051 0.5777
C13 C 0.4203(2) 0.60922(19) 0.81045(18)
H8 H 0.4970 0.5912 0.7785
C14 C 0.6486(3) 0.6552(2) 0.56975(18)
H9 H 0.6741 0.5983 0.6187
C15 C 0.7261(3) 0.7433(2) 0.5288(2)
H10 H 0.8035 0.7448 0.5502
C16 C -0.0658(3) 0.38821(18) 0.6665(2)
C17 C -0.0675(3) 0.4091(2) 0.7423(2)
H11 H -0.1498 0.4204 0.7749
C18 C 0.4993(3) 0.7369(2) 0.46525(19)
H12 H 0.4233 0.7356 0.4425
C19 C 0.0576(3) 0.3711(2) 0.6195(2)
H13 H 0.0609 0.3570 0.5684
C20 C 0.6896(3) 0.8283(2) 0.4571(2)
H14 H 0.7411 0.8875 0.4304
C21 C 0.1252(3) 0.6695(2) 0.5860(2)
C22 C -0.1944(3) 0.3837(2) 0.6360(3)
H15 H -0.1992 0.4440 0.5781
H16 H -0.2718 0.3755 0.6877
H17 H -0.1942 0.3289 0.6229
C23 C 0.5765(3) 0.8250(2) 0.4252(2)
H18 H 0.5513 0.8822 0.3763
O4 O 0.2895(2) 0.38739(14) 0.85347(12)
O6 O 0.4249(2) 0.35072(14) 0.72490(16)
N2 N 0.38257(19) 0.52406(14) 0.68659(13)
C47 C 0.4364(3) 0.6636(2) 1.0415(2)
H37 H 0.4601 0.5961 1.0644
H38 H 0.4227 0.6798 1.0940
H39 H 0.5087 0.7064 0.9887
H43 H 0.033(3) 0.643(2) 0.600(2)
H44 H 0.151(4) 0.731(3) 0.525(3)
O7 O 0.5554(11) 0.8561(8) 0.2083(6)
loop_
_geom_bond_atom_site_label_1
_geom_bond_atom_site_label_2
_geom_bond_site_symmetry_1
_geom_bond_site_symmetry_2
S1 C26 1_555 1_555
S2 C4 1_555 1_555
O1 C3 1_555 1_555
C1 C2 1_555 1_555
C2 C5 1_555 1_555
C3 C7 1_555 1_555
C4 C9 1_555 1_555
C5 C21 1_555 1_555
C6 C1 1_555 1_555
H1 C6 1_555 1_555
C7 C6 1_555 1_555
H2 C7 1_555 1_555
C8 C3 1_555 1_555
H3 C8 1_555 1_555
C9 H4 1_555 1_555
C10 C12 1_555 1_555
C11 C4 1_555 1_555
H5 C11 1_555 1_555
C12 H6 1_555 1_555
H7 C12 1_555 1_555
C13 C1 1_555 1_555
H8 C13 1_555 1_555
C14 C10 1_555 1_555
H9 C14 1_555 1_555
C15 C14 1_555 1_555
H10 C15 1_555 1_555
C16 C17 1_555 1_555
C17 C11 1_555 1_555
H11 C17 1_555 1_555
C18 C10 1_555 1_555
H12 C18 1_555 1_555
C19 C9 1_555 1_555
H13 C19 1_555 1_555
C20 C15 1_555 1_555
H14 C20 1_555 1_555
C21 H43 1_555 1_555
C22 C16 1_555 1_555
H15 C22 1_555 1_555
H16 C22 1_555 1_555
H17 C22 1_555 1_555
C23 C18 1_555 1_555
H18 C23 1_555 1_555
C24 C27 1_555 1_555
C25 C30 1_555 1_555
O2 C34 1_555 1_555
C26 C29 1_555 1_555
C27 H19 1_555 1_555
C28 C38 1_555 1_555
C29 H20 1_555 1_555
C30 H21 1_555 1_555
H22 C30 1_555 1_555
C31 C25 1_555 1_555
H23 C31 1_555 1_555
C32 H24 1_555 1_555
C33 C27 1_555 1_555
H25 C33 1_555 1_555
C34 C33 1_555 1_555
C35 C31 1_555 1_555
H26 C35 1_555 1_555
C36 C24 1_555 1_555
H27 C36 1_555 1_555
C37 C25 1_555 1_555
H28 C37 1_555 1_555
C38 C24 1_555 1_555
C39 C32 1_555 1_555
H29 C39 1_555 1_555
C40 C42 1_555 1_555
C41 C34 1_555 1_555
H30 C41 1_555 1_555
C42 H31 1_555 1_555
C43 C26 1_555 1_555
H32 C43 1_555 1_555
C44 C29 1_555 1_555
H33 C44 1_555 1_555
C45 C28 1_555 1_555
C46 C40 1_555 1_555
H34 C46 1_555 1_555
H35 C46 1_555 1_555
H36 C46 1_555 1_555
O3 S1 1_555 1_555
O4 S2 1_555 1_555
O5 S1 1_555 1_555
O6 S2 1_555 1_555
N1 S1 1_555 1_555
N2 S2 1_555 1_555
C47 O1 1_555 1_555
H37 C47 1_555 1_555
H38 C47 1_555 1_555
H39 C47 1_555 1_555
C48 O2 1_555 1_555
H40 C48 1_555 1_555
H41 C48 1_555 1_555
H42 C48 1_555 1_555
H44 C21 1_555 1_555
H45 C45 1_555 1_555
H46 C45 1_555 1_555
C2 N2 1_555 1_555
C8 C13 1_555 1_555
C12 N2 1_555 1_555
C16 C19 1_555 1_555
C20 C23 1_555 1_555
C30 N1 1_555 1_555
C32 C37 1_555 1_555
C35 C39 1_555 1_555
C36 C41 1_555 1_555
C38 N1 1_555 1_555
C40 C44 1_555 1_555
C42 C43 1_555 1_555

#END
