
#######################################################################
#
#                 Cambridge Crystallographic Data Centre
#                                CCDC 
#
#######################################################################
#
# If this CIF has been generated from an entry in the Cambridge 
# Structural Database, then it will include bibliographic, chemical, 
# crystal, experimental, refinement or atomic coordinate data resulting 
# from the CCDC's data processing and validation procedures.
#
#######################################################################

data_PELKOI
_chemical_formula_moiety         'C16 H16 N4 O4'
_chemical_name_systematic        
'Methyl 3-((3,7-dimethyl-2,6-dioxo-2,3,6,7-tetrahydro-1H-purin-1-yl)methyl)benzoate'
_symmetry_cell_setting           triclinic
_symmetry_space_group_name_H-M   'P -1'
_symmetry_Int_Tables_number      2
_space_group_name_Hall           '-P 1'
loop_
_symmetry_equiv_pos_site_id
_symmetry_equiv_pos_as_xyz
1 x,y,z
2 -x,-y,-z
_cell_length_a                   8.434(4)
_cell_length_b                   8.897(4)
_cell_length_c                   10.825(5)
_cell_angle_alpha                93.242(8)
_cell_angle_beta                 104.970(7)
_cell_angle_gamma                108.245(7)
_cell_volume                     736.853
_exptl_crystal_colour            colorless
_exptl_crystal_description       block
_cell_formula_units_Z            2
loop_
_atom_site_label
_atom_site_type_symbol
_atom_site_fract_x
_atom_site_fract_y
_atom_site_fract_z
O1 O 1.31919(14) 1.06988(13) 0.95497(10)
O2 O 0.47081(15) 0.48144(13) 0.77617(11)
N1 N 0.68245(16) 0.61292(14) 0.68510(12)
O3 O 0.89955(15) 0.74961(14) 0.59985(11)
O4 O 1.37358(15) 1.09829(13) 1.17033(11)
N2 N 0.39505(17) 0.62216(15) 0.61624(12)
N3 N 0.34619(18) 0.78223(15) 0.44494(12)
C1 C 1.28397(19) 1.02695(18) 1.06405(14)
C2 C 0.4475(2) 0.72006(18) 0.53024(15)
C3 C 1.12636(19) 0.88094(17) 1.04105(14)
C4 C 0.7472(2) 0.71436(17) 0.60100(15)
C5 C 0.6151(2) 0.76445(18) 0.52206(14)
N4 N 0.61726(18) 0.86001(16) 0.42571(13)
C6 C 1.04140(19) 0.78954(17) 0.91905(14)
H1 H 1.0818 0.8213 0.8472
C7 C 0.89666(19) 0.65107(17) 0.90217(15)
C8 C 0.5128(2) 0.56744(17) 0.69739(15)
C9 C 1.0658(2) 0.83602(19) 1.14650(15)
H2 H 1.1226 0.8991 1.2294
C10 C 0.9227(2) 0.6992(2) 1.12967(16)
H3 H 0.8811 0.6682 1.2012
C11 C 0.8395(2) 0.60707(19) 1.00846(16)
H4 H 0.7422 0.5126 0.9981
C12 C 0.8055(2) 0.54939(18) 0.77098(15)
H5 H 0.8944 0.5420 0.7287
H6 H 0.7409 0.4399 0.7827
C13 C 0.2202(2) 0.5874(2) 0.63424(16)
H7 H 0.1539 0.4729 0.6074
H8 H 0.1586 0.6493 0.5816
H9 H 0.2319 0.6167 0.7256
C14 C 0.4551(2) 0.86618(19) 0.38462(15)
H10 H 0.4215 0.9253 0.3184
C15 C 1.4702(2) 1.21265(19) 0.97262(16)
H11 H 1.4549 1.3023 1.0193
H12 H 1.4824 1.2383 0.8880
H13 H 1.5752 1.1938 1.0225
C16 C 0.7654(2) 0.9454(2) 0.38246(17)
H14 H 0.7260 0.9961 0.3080
H15 H 0.8190 0.8701 0.3574
H16 H 0.8512 1.0277 0.4528
loop_
_geom_bond_atom_site_label_1
_geom_bond_atom_site_label_2
_geom_bond_site_symmetry_1
_geom_bond_site_symmetry_2
O1 C1 1_555 1_555
O2 C8 1_555 1_555
N1 C4 1_555 1_555
O3 C4 1_555 1_555
O4 C1 1_555 1_555
N2 C2 1_555 1_555
N3 C2 1_555 1_555
C1 C3 1_555 1_555
C2 C5 1_555 1_555
C3 C6 1_555 1_555
C4 C5 1_555 1_555
C5 N4 1_555 1_555
N4 C14 1_555 1_555
C6 H1 1_555 1_555
C7 C6 1_555 1_555
C8 N1 1_555 1_555
C9 C3 1_555 1_555
H2 C9 1_555 1_555
C10 C9 1_555 1_555
H3 C10 1_555 1_555
C11 C7 1_555 1_555
H4 C11 1_555 1_555
C12 N1 1_555 1_555
H5 C12 1_555 1_555
H6 C12 1_555 1_555
C13 N2 1_555 1_555
H7 C13 1_555 1_555
H8 C13 1_555 1_555
H9 C13 1_555 1_555
C14 N3 1_555 1_555
H10 C14 1_555 1_555
C15 O1 1_555 1_555
H11 C15 1_555 1_555
H12 C15 1_555 1_555
H13 C15 1_555 1_555
C16 N4 1_555 1_555
H14 C16 1_555 1_555
H15 C16 1_555 1_555
H16 C16 1_555 1_555
N2 C8 1_555 1_555
C7 C12 1_555 1_555
C10 C11 1_555 1_555

#END
