
#######################################################################
#
#                 Cambridge Crystallographic Data Centre
#                                CCDC 
#
#######################################################################
#
# If this CIF has been generated from an entry in the Cambridge 
# Structural Database, then it will include bibliographic, chemical, 
# crystal, experimental, refinement or atomic coordinate data resulting 
# from the CCDC's data processing and validation procedures.
#
#######################################################################

data_PELLIC
_chemical_formula_moiety         'C12 H8 Cl2 N2 O1'
_chemical_name_systematic        N-(4-Chlorophenyl)-2-chloronicotinamide
_symmetry_cell_setting           monoclinic
_symmetry_space_group_name_H-M   'P 21'
_symmetry_Int_Tables_number      4
_space_group_name_Hall           'P 2yb'
loop_
_symmetry_equiv_pos_site_id
_symmetry_equiv_pos_as_xyz
1 x,y,z
2 -x,1/2+y,-z
_cell_length_a                   5.0855(8)
_cell_length_b                   28.982(8)
_cell_length_c                   15.607(4)
_cell_angle_alpha                90
_cell_angle_beta                 90.37(2)
_cell_angle_gamma                90
_cell_volume                     2300.24
_exptl_crystal_colour            colorless
_exptl_crystal_description       plate
_chemical_melting_point          '421-422 K'
_cell_formula_units_Z            8
_exptl_crystal_recrystallization_method ethanol
loop_
_atom_site_label
_atom_site_type_symbol
_atom_site_fract_x
_atom_site_fract_y
_atom_site_fract_z
N1 N 1.0930(11) -0.1416(2) -0.0684(4)
C1 C 1.1545(15) -0.0970(3) -0.0642(5)
Cl1 Cl 1.3934(4) -0.07776(6) -0.13183(11)
C2 C 1.0218(16) -0.0653(3) -0.0091(5)
C3 C 0.8354(15) -0.0820(3) 0.0465(4)
C4 C 0.7658(14) -0.1313(3) 0.0424(5)
C5 C 0.8947(12) -0.1561(3) -0.0104(4)
C6 C 1.0824(14) -0.0137(3) -0.0081(5)
O1 O 1.3151(10) -0.00037(17) -0.0012(3)
N2 N 0.8848(12) 0.0131(2) -0.0071(4)
Cl2 Cl 0.8822(4) 0.21692(6) 0.02990(14)
C7 C 0.8859(7) 0.06241(12) 0.0004(2)
C8 C 0.6884(6) 0.08819(14) -0.0387(2)
C9 C 0.6872(6) 0.13596(14) -0.0308(2)
C10 C 0.8835(7) 0.15795(12) 0.0162(2)
C11 C 1.0810(6) 0.13216(14) 0.0554(2)
C12 C 1.0822(6) 0.08439(14) 0.0474(2)
H1 H 0.7533 -0.0621 0.0866
H2 H 0.6315 -0.1440 0.0772
H3 H 0.8533 -0.1881 -0.0109
H4 H 0.7294 -0.0001 -0.0116
H5 H 0.5542 0.0732 -0.0709
H6 H 0.5522 0.1536 -0.0575
H7 H 1.2152 0.1472 0.0875
H8 H 1.2172 0.0668 0.0742
N3 N 0.3668(10) 0.8114(2) 0.1869(4)
C13 C 0.4029(15) 0.7668(3) 0.1884(5)
Cl3 Cl 0.6478(4) 0.74925(6) 0.11518(12)
C14 C 0.2773(16) 0.7352(3) 0.2393(5)
C15 C 0.0798(15) 0.7547(3) 0.2904(5)
C16 C 0.0404(13) 0.7987(2) 0.2935(5)
C17 C 0.1852(12) 0.8288(2) 0.2357(4)
C18 C 0.3454(14) 0.6860(3) 0.2416(5)
O2 O 0.5701(9) 0.67153(16) 0.2390(3)
N4 N 0.1203(12) 0.6564(2) 0.2434(4)
Cl4 Cl 0.1270(4) 0.45328(6) 0.27721(12)
C19 C 0.1364(7) 0.60846(12) 0.2500(2)
C20 C -0.0605(6) 0.58283(15) 0.2102(2)
C21 C -0.0640(6) 0.53508(14) 0.2184(2)
C22 C 0.1295(7) 0.51296(12) 0.2665(3)
C23 C 0.3263(6) 0.53858(14) 0.3063(2)
C24 C 0.3298(6) 0.58633(14) 0.2981(2)
H9 H -0.0280 0.7349 0.3236
H10 H -0.0815 0.8113 0.3330
H11 H 0.1473 0.8608 0.2337
H12 H -0.0366 0.6690 0.2401
H13 H -0.1927 0.5980 0.1773
H14 H -0.1985 0.5176 0.1912
H15 H 0.4585 0.5235 0.3392
H16 H 0.4644 0.6038 0.3253
N5 N 0.4263(11) 0.3580(2) 0.5740(4)
C25 C 0.3620(15) 0.4025(3) 0.5697(5)
Cl5 Cl 0.1300(4) 0.42136(6) 0.64060(11)
C26 C 0.4881(16) 0.4344(3) 0.5147(5)
C27 C 0.6738(15) 0.4183(3) 0.4579(5)
C28 C 0.7478(13) 0.3695(2) 0.4609(5)
C29 C 0.6201(12) 0.3440(3) 0.5145(4)
C30 C 0.4242(14) 0.4860(3) 0.5140(5)
O3 O 0.1900(10) 0.49896(17) 0.5091(3)
Cl6 Cl 0.5855(4) 0.71624(6) 0.46495(13)
N6 N 0.6203(12) 0.5126(2) 0.5135(4)
C31 C 0.6177(7) 0.56264(12) 0.5049(2)
C32 C 0.8107(6) 0.58460(14) 0.4572(2)
C33 C 0.8043(6) 0.63223(15) 0.4470(2)
C34 C 0.6049(7) 0.65791(12) 0.4845(2)
C35 C 0.4120(6) 0.63595(15) 0.5322(2)
C36 C 0.4184(6) 0.58832(15) 0.5424(2)
H17 H 0.7521 0.4385 0.4176
H18 H 0.8820 0.3573 0.4255
H19 H 0.6612 0.3121 0.5140
H20 H 0.7756 0.4995 0.5189
H21 H 0.9469 0.5670 0.4315
H22 H 0.9362 0.6472 0.4144
H23 H 0.2757 0.6535 0.5579
H24 H 0.2865 0.5733 0.5750
N7 N 1.1553(11) 0.3130(2) 0.3173(4)
C37 C 1.1159(15) 0.2685(3) 0.3159(5)
Cl7 Cl 0.8784(4) 0.25131(6) 0.39206(12)
C38 C 1.2365(16) 0.2368(3) 0.2649(5)
C39 C 1.4280(15) 0.2551(3) 0.2109(5)
C40 C 1.4668(13) 0.2994(2) 0.2065(5)
C41 C 1.3311(12) 0.3301(2) 0.2677(4)
C42 C 1.1627(14) 0.1876(3) 0.2631(5)
O4 O 0.9370(9) 0.17332(16) 0.2669(3)
N8 N 1.3862(12) 0.1571(2) 0.2606(4)
Cl8 Cl 1.3420(4) -0.04497(6) 0.21810(13)
C43 C 1.3679(7) 0.10957(12) 0.2546(2)
C44 C 1.5613(6) 0.08769(14) 0.2070(2)
C45 C 1.5558(6) 0.04005(14) 0.1969(2)
C46 C 1.3569(7) 0.01429(12) 0.2344(3)
C47 C 1.1634(6) 0.03616(15) 0.2820(2)
C48 C 1.1690(6) 0.08381(15) 0.2921(2)
H25 H 1.5312 0.2349 0.1769
H26 H 1.5809 0.3119 0.1646
H27 H 1.3733 0.3620 0.2703
H28 H 1.5441 0.1695 0.2629
H29 H 1.6973 0.1053 0.1813
H30 H 1.6880 0.0251 0.1643
H31 H 1.0275 0.0186 0.3077
H32 H 1.0368 0.0988 0.3247
loop_
_geom_bond_atom_site_label_1
_geom_bond_atom_site_label_2
_geom_bond_site_symmetry_1
_geom_bond_site_symmetry_2
N1 C1 1_555 1_555
C1 Cl1 1_555 1_555
C2 C1 1_555 1_555
C3 C2 1_555 1_555
C4 C3 1_555 1_555
C5 N1 1_555 1_555
C6 C2 1_555 1_555
O1 C6 1_555 1_555
N2 C6 1_555 1_555
Cl2 C10 1_555 1_555
C7 N2 1_555 1_555
C8 C7 1_555 1_555
C9 C8 1_555 1_555
C10 C9 1_555 1_555
C11 C10 1_555 1_555
C12 C7 1_555 1_555
N3 C13 1_555 1_555
C13 Cl3 1_555 1_555
C14 C13 1_555 1_555
C15 C14 1_555 1_555
C16 C15 1_555 1_555
C17 N3 1_555 1_555
C18 C14 1_555 1_555
O2 C18 1_555 1_555
N4 C18 1_555 1_555
Cl4 C22 1_555 1_555
C19 N4 1_555 1_555
C20 C19 1_555 1_555
C21 C20 1_555 1_555
C22 C21 1_555 1_555
C23 C22 1_555 1_555
C24 C19 1_555 1_555
N5 C25 1_555 1_555
C25 Cl5 1_555 1_555
C26 C25 1_555 1_555
C27 C26 1_555 1_555
C28 C27 1_555 1_555
C29 N5 1_555 1_555
C30 C26 1_555 1_555
O3 C30 1_555 1_555
Cl6 C34 1_555 1_555
N6 C30 1_555 1_555
C31 N6 1_555 1_555
C32 C31 1_555 1_555
C33 C32 1_555 1_555
C34 C33 1_555 1_555
C35 C34 1_555 1_555
C36 C31 1_555 1_555
N7 C37 1_555 1_555
C37 Cl7 1_555 1_555
C38 C37 1_555 1_555
C39 C38 1_555 1_555
C40 C39 1_555 1_555
C41 N7 1_555 1_555
C42 C38 1_555 1_555
O4 C42 1_555 1_555
N8 C42 1_555 1_555
Cl8 C46 1_555 1_555
C43 N8 1_555 1_555
C44 C43 1_555 1_555
C45 C44 1_555 1_555
C46 C45 1_555 1_555
C47 C46 1_555 1_555
C48 C43 1_555 1_555
H1 C3 1_555 1_555
H2 C4 1_555 1_555
H3 C5 1_555 1_555
H4 N2 1_555 1_555
H5 C8 1_555 1_555
H6 C9 1_555 1_555
H7 C11 1_555 1_555
H8 C12 1_555 1_555
H9 C15 1_555 1_555
H10 C16 1_555 1_555
H11 C17 1_555 1_555
H12 N4 1_555 1_555
H13 C20 1_555 1_555
H14 C21 1_555 1_555
H15 C23 1_555 1_555
H16 C24 1_555 1_555
H17 C27 1_555 1_555
H18 C28 1_555 1_555
H19 C29 1_555 1_555
H20 N6 1_555 1_555
H21 C32 1_555 1_555
H22 C33 1_555 1_555
H23 C35 1_555 1_555
H24 C36 1_555 1_555
H25 C39 1_555 1_555
H26 C40 1_555 1_555
H27 C41 1_555 1_555
H28 N8 1_555 1_555
H29 C44 1_555 1_555
H30 C45 1_555 1_555
H31 C47 1_555 1_555
H32 C48 1_555 1_555
C4 C5 1_555 1_555
C11 C12 1_555 1_555
C16 C17 1_555 1_555
C23 C24 1_555 1_555
C28 C29 1_555 1_555
C35 C36 1_555 1_555
C40 C41 1_555 1_555
C47 C48 1_555 1_555

#END
