
#######################################################################
#
#                 Cambridge Crystallographic Data Centre
#                                CCDC 
#
#######################################################################
#
# If this CIF has been generated from an entry in the Cambridge 
# Structural Database, then it will include bibliographic, chemical, 
# crystal, experimental, refinement or atomic coordinate data resulting 
# from the CCDC's data processing and validation procedures.
#
#######################################################################

data_PELMUQ
_chemical_formula_moiety         'C32 H36 N4 O8 S2'
_chemical_name_systematic        
'[1,3]Thiazolo[5,4-d][1,3]thiazole-2,5-diylbis(4,1-phenylenenitrilodiethane-2,1-diyl) tetraacetate'
_symmetry_cell_setting           monoclinic
_symmetry_space_group_name_H-M   'C 2/c'
_symmetry_Int_Tables_number      15
_space_group_name_Hall           '-C 2yn'
loop_
_symmetry_equiv_pos_site_id
_symmetry_equiv_pos_as_xyz
1 x,y,z
2 -x,y,1/2-z
3 1/2+x,1/2+y,z
4 1/2-x,1/2+y,1/2-z
5 -x,-y,-z
6 x,-y,1/2+z
7 1/2-x,1/2-y,-z
8 1/2+x,1/2-y,1/2+z
_cell_length_a                   42.455(9)
_cell_length_b                   9.0245(18)
_cell_length_c                   8.5542(17)
_cell_angle_alpha                90
_cell_angle_beta                 97.96(3)
_cell_angle_gamma                90
_cell_volume                     3245.84
_exptl_crystal_colour            brown
_exptl_crystal_description       block
_cell_formula_units_Z            4
loop_
_atom_site_label
_atom_site_type_symbol
_atom_site_fract_x
_atom_site_fract_y
_atom_site_fract_z
S1 S 1.00241(2) 1.27501(9) 0.48052(11)
N1 N 0.96638(6) 1.4650(3) 0.6018(3)
N2 N 0.89087(6) 0.8714(3) 0.7754(3)
O1 O 0.86293(6) 0.6833(3) 0.5069(3)
O2 O 0.85151(7) 0.4517(3) 0.5646(4)
O3 O 0.80860(6) 0.9792(3) 0.8222(3)
O4 O 0.78306(9) 0.7710(4) 0.7709(5)
C1 C 1.01080(7) 1.4597(3) 0.4650(3)
C2 C 0.97094(7) 1.3229(4) 0.5831(3)
C3 C 0.95074(7) 1.2067(3) 0.6375(3)
C4 C 0.95925(7) 1.0584(4) 0.6363(4)
H1 H 0.9784 1.0325 0.6023
C5 C 0.94017(7) 0.9483(4) 0.6839(4)
H2 H 0.9469 0.8502 0.6831
C6 C 0.91086(7) 0.9819(4) 0.7334(3)
C7 C 0.90289(7) 1.1319(4) 0.7364(4)
H3 H 0.8837 1.1588 0.7696
C8 C 0.92237(8) 1.2407(4) 0.6922(4)
H4 H 0.9164 1.3394 0.6990
C9 C 0.86327(8) 0.9084(4) 0.8518(4)
H5 H 0.8679 0.9970 0.9150
H6 H 0.8594 0.8284 0.9224
C10 C 0.83395(8) 0.9339(5) 0.7371(4)
H7 H 0.8379 1.0101 0.6622
H8 H 0.8281 0.8435 0.6790
C11 C 0.78469(10) 0.8871(6) 0.8327(5)
C12 C 0.76084(10) 0.9531(5) 0.9226(5)
H9 H 0.7406 0.9066 0.8919
H10 H 0.7591 1.0574 0.9008
H11 H 0.7673 0.9382 1.0335
C13 C 0.89835(8) 0.7157(3) 0.7552(4)
H12 H 0.8844 0.6560 0.8104
H13 H 0.9200 0.6976 0.8041
C14 C 0.89507(8) 0.6657(4) 0.5856(4)
H14 H 0.9094 0.7228 0.5303
H15 H 0.9011 0.5622 0.5820
C15 C 0.84345(10) 0.5662(5) 0.5006(5)
C16 C 0.81179(10) 0.6000(5) 0.4084(5)
H16 H 0.8011 0.5091 0.3762
H17 H 0.8147 0.6570 0.3167
H18 H 0.7993 0.6557 0.4729
S1D S 0.99759(2) 1.72499(9) 0.51948(11)
N1D N 1.03362(6) 1.5350(3) 0.3982(3)
N2D N 1.10913(6) 2.1286(3) 0.2246(3)
O1D O 1.13707(6) 2.3167(3) 0.4931(3)
O2D O 1.14849(7) 2.5483(3) 0.4354(4)
O3D O 1.19140(6) 2.0208(3) 0.1778(3)
O4D O 1.21694(9) 2.2290(4) 0.2291(5)
C1D C 0.98920(7) 1.5403(3) 0.5350(3)
C2D C 1.02906(7) 1.6771(4) 0.4169(3)
C3D C 1.04926(7) 1.7933(3) 0.3625(3)
C4D C 1.04075(7) 1.9416(4) 0.3637(4)
H1D H 1.0216 1.9675 0.3977
C5D C 1.05983(7) 2.0517(4) 0.3161(4)
H2D H 1.0531 2.1498 0.3169
C6D C 1.08914(7) 2.0181(4) 0.2666(3)
C7D C 1.09711(7) 1.8681(4) 0.2636(4)
H3D H 1.1163 1.8412 0.2304
C8D C 1.07763(8) 1.7593(4) 0.3078(4)
H4D H 1.0836 1.6606 0.3010
C9D C 1.13673(8) 2.0916(4) 0.1482(4)
H5D H 1.1321 2.0030 0.0850
H6D H 1.1406 2.1716 0.0776
C10D C 1.16605(8) 2.0661(5) 0.2629(4)
H7D H 1.1621 1.9899 0.3378
H8D H 1.1719 2.1565 0.3210
C11D C 1.21531(10) 2.1129(6) 0.1673(5)
C12D C 1.23916(10) 2.0469(5) 0.0774(5)
H9D H 1.2594 2.0934 0.1081
H10D H 1.2409 1.9426 0.0992
H11D H 1.2327 2.0618 -0.0335
C13D C 1.10165(8) 2.2843(3) 0.2448(4)
H12D H 1.1156 2.3440 0.1896
H13D H 1.0800 2.3024 0.1959
C14D C 1.10493(8) 2.3343(4) 0.4144(4)
H14D H 1.0906 2.2772 0.4697
H15D H 1.0989 2.4378 0.4180
C15D C 1.15655(10) 2.4338(5) 0.4994(5)
C16D C 1.18821(10) 2.4000(5) 0.5916(5)
H16D H 1.1989 2.4909 0.6238
H17D H 1.1853 2.3430 0.6833
H18D H 1.2007 2.3443 0.5271
loop_
_geom_bond_atom_site_label_1
_geom_bond_atom_site_label_2
_geom_bond_site_symmetry_1
_geom_bond_site_symmetry_2
S1 C1 1_555 1_555
N1 C2 1_555 1_555
N2 C6 1_555 1_555
O1 C14 1_555 1_555
O2 C15 1_555 1_555
O3 C10 1_555 1_555
O4 C11 1_555 1_555
C1 N1D 1_555 1_555
C2 S1 1_555 1_555
C3 C2 1_555 1_555
C4 C3 1_555 1_555
H1 C4 1_555 1_555
C5 C4 1_555 1_555
H2 C5 1_555 1_555
C6 C5 1_555 1_555
C7 C6 1_555 1_555
H3 C7 1_555 1_555
C8 C3 1_555 1_555
H4 C8 1_555 1_555
C9 N2 1_555 1_555
H5 C9 1_555 1_555
H6 C9 1_555 1_555
C10 C9 1_555 1_555
H7 C10 1_555 1_555
H8 C10 1_555 1_555
C11 O3 1_555 1_555
C12 C11 1_555 1_555
H9 C12 1_555 1_555
H10 C12 1_555 1_555
H11 C12 1_555 1_555
C13 N2 1_555 1_555
H12 C13 1_555 1_555
H13 C13 1_555 1_555
C14 C13 1_555 1_555
H14 C14 1_555 1_555
H15 C14 1_555 1_555
C15 O1 1_555 1_555
C16 C15 1_555 1_555
H16 C16 1_555 1_555
H17 C16 1_555 1_555
H18 C16 1_555 1_555
S1D C1D 1_555 1_555
N1D C2D 1_555 1_555
N2D C6D 1_555 1_555
O1D C14D 1_555 1_555
O2D C15D 1_555 1_555
O3D C10D 1_555 1_555
O4D C11D 1_555 1_555
C1D N1 1_555 1_555
C2D S1D 1_555 1_555
C3D C2D 1_555 1_555
C4D C3D 1_555 1_555
H1D C4D 1_555 1_555
C5D C4D 1_555 1_555
H2D C5D 1_555 1_555
C6D C5D 1_555 1_555
C7D C6D 1_555 1_555
H3D C7D 1_555 1_555
C8D C3D 1_555 1_555
H4D C8D 1_555 1_555
C9D N2D 1_555 1_555
H5D C9D 1_555 1_555
H6D C9D 1_555 1_555
C10D C9D 1_555 1_555
H7D C10D 1_555 1_555
H8D C10D 1_555 1_555
C11D O3D 1_555 1_555
C12D C11D 1_555 1_555
H9D C12D 1_555 1_555
H10D C12D 1_555 1_555
H11D C12D 1_555 1_555
C13D N2D 1_555 1_555
H12D C13D 1_555 1_555
H13D C13D 1_555 1_555
C14D C13D 1_555 1_555
H14D C14D 1_555 1_555
H15D C14D 1_555 1_555
C15D O1D 1_555 1_555
C16D C15D 1_555 1_555
H16D C16D 1_555 1_555
H17D C16D 1_555 1_555
H18D C16D 1_555 1_555
C1 C1D 1_555 1_555
C7 C8 1_555 1_555
C7D C8D 1_555 1_555

#END
