
#######################################################################
#
#                 Cambridge Crystallographic Data Centre
#                                CCDC 
#
#######################################################################
#
# If this CIF has been generated from an entry in the Cambridge 
# Structural Database, then it will include bibliographic, chemical, 
# crystal, experimental, refinement or atomic coordinate data resulting 
# from the CCDC's data processing and validation procedures.
#
#######################################################################

data_PEMPIH
_chemical_name_common            "4,4'-Bipyridinium disaccharinate dihydrate"
_chemical_formula_moiety         'C10 H10 N2 2+,2(C7 H4 N1 O3 S1 1-),2(H2 O1)'
_chemical_name_systematic        
"4,4'-Bipyridinium bis(2,3-dihydro-1,1,3-trioxo-1,2-benzothiazolate) dihydrate"
_symmetry_cell_setting           triclinic
_symmetry_space_group_name_H-M   'P -1'
_symmetry_Int_Tables_number      2
_space_group_name_Hall           '-P 1'
loop_
_symmetry_equiv_pos_site_id
_symmetry_equiv_pos_as_xyz
1 x,y,z
2 -x,-y,-z
_cell_length_a                   8.3215(19)
_cell_length_b                   8.538(2)
_cell_length_c                   9.629(2)
_cell_angle_alpha                94.368(4)
_cell_angle_beta                 102.874(4)
_cell_angle_gamma                110.281(4)
_cell_volume                     616.721
_exptl_crystal_colour            colorless
_exptl_crystal_description       block
_cell_formula_units_Z            1
loop_
_atom_site_label
_atom_site_type_symbol
_atom_site_fract_x
_atom_site_fract_y
_atom_site_fract_z
S1 S 1.10076(9) 0.37789(9) 0.71539(8)
N1 N 1.1423(3) 0.2945(3) 0.8583(2)
C1 C 0.8720(3) 0.3300(3) 0.8591(3)
C2 C 0.7252(3) 0.3256(3) 0.9045(3)
H1 H 0.7080 0.2874 0.9900
C3 C 0.6034(4) 0.3798(4) 0.8188(3)
H2 H 0.5029 0.3779 0.8471
C4 C 0.6301(4) 0.4364(4) 0.6925(3)
H3 H 0.5464 0.4713 0.6365
C5 C 0.7787(4) 0.4427(3) 0.6465(3)
H4 H 0.7968 0.4811 0.5613
C6 C 0.8982(3) 0.3891(3) 0.7340(3)
C7 C 1.0190(3) 0.2751(3) 0.9298(3)
O1 O 1.2317(3) 0.5436(3) 0.7286(2)
O2 O 1.0732(3) 0.2632(3) 0.5878(2)
O3 O 1.0186(2) 0.2134(2) 1.0429(2)
N2 N 0.2553(3) 0.1403(3) 0.2310(3)
C8 C 0.1999(4) 0.1048(4) 0.3469(3)
H5 H 0.0954 0.1169 0.3553
C9 C 0.2932(4) 0.0507(4) 0.4547(3)
H6 H 0.2526 0.0267 0.5361
C10 C 0.4488(3) 0.0312(3) 0.4430(3)
C11 C 0.5043(4) 0.0734(4) 0.3219(3)
H7 H 0.6100 0.0658 0.3115
C12 C 0.4047(4) 0.1266(4) 0.2163(3)
H8 H 0.4421 0.1531 0.1340
H11 H 0.199(4) 0.175(4) 0.162(2)
N2A N 0.7447(3) -0.1403(3) 0.7690(3)
C8A C 0.8001(4) -0.1048(4) 0.6531(3)
H5A H 0.9046 -0.1169 0.6447
C9A C 0.7068(4) -0.0507(4) 0.5453(3)
H6A H 0.7474 -0.0267 0.4639
C10A C 0.5512(3) -0.0312(3) 0.5570(3)
C11A C 0.4957(4) -0.0734(4) 0.6781(3)
H7A H 0.3900 -0.0658 0.6885
C12A C 0.5953(4) -0.1266(4) 0.7837(3)
H8A H 0.5579 -0.1531 0.8660
H11A H 0.801(4) -0.175(4) 0.838(2)
O4 O 0.2537(4) 0.0068(4) 0.8514(3)
H9 H 0.222(5) 0.091(3) 0.856(5)
H10 H 0.185(5) -0.071(4) 0.886(5)
loop_
_geom_bond_atom_site_label_1
_geom_bond_atom_site_label_2
_geom_bond_site_symmetry_1
_geom_bond_site_symmetry_2
S1 N1 1_555 1_555
N1 C7 1_555 1_555
N2 C8 1_555 1_555
C1 C2 1_555 1_555
C2 H1 1_555 1_555
C3 C2 1_555 1_555
H2 C3 1_555 1_555
C4 C3 1_555 1_555
H3 C4 1_555 1_555
C5 C4 1_555 1_555
H4 C5 1_555 1_555
C6 S1 1_555 1_555
C7 C1 1_555 1_555
C8 H5 1_555 1_555
C9 C8 1_555 1_555
H6 C9 1_555 1_555
C10 C9 1_555 1_555
C11 C10 1_555 1_555
H7 C11 1_555 1_555
C12 N2 1_555 1_555
H8 C12 1_555 1_555
O1 S1 1_555 1_555
O2 S1 1_555 1_555
O3 C7 1_555 1_555
O4 H9 1_555 1_555
H10 O4 1_555 1_555
H11 N2 1_555 1_555
N2A C8A 1_555 1_555
C8A H5A 1_555 1_555
C9A C8A 1_555 1_555
H6A C9A 1_555 1_555
C10A C10 1_555 1_555
C11A C10A 1_555 1_555
H7A C11A 1_555 1_555
C12A N2A 1_555 1_555
H8A C12A 1_555 1_555
H11A N2A 1_555 1_555
C1 C6 1_555 1_555
C5 C6 1_555 1_555
C11 C12 1_555 1_555
C9A C10A 1_555 1_555
C11A C12A 1_555 1_555

#END
