
#######################################################################
#
#                 Cambridge Crystallographic Data Centre
#                                CCDC 
#
#######################################################################
#
# If this CIF has been generated from an entry in the Cambridge 
# Structural Database, then it will include bibliographic, chemical, 
# crystal, experimental, refinement or atomic coordinate data resulting 
# from the CCDC's data processing and validation procedures.
#
#######################################################################

data_PEMWEJ01
_chemical_formula_moiety         'C18 H13 N1'
_chemical_name_systematic        9-phenyl-9H-carbazole
_symmetry_cell_setting           orthorhombic
_symmetry_space_group_name_H-M   'F d d 2'
_symmetry_Int_Tables_number      43
_space_group_name_Hall           'F 2 -2d'
loop_
_symmetry_equiv_pos_site_id
_symmetry_equiv_pos_as_xyz
1 x,y,z
2 -x,-y,z
3 1/4+x,1/4-y,1/4+z
4 1/4-x,1/4+y,1/4+z
5 x,1/2+y,1/2+z
6 -x,1/2-y,1/2+z
7 1/4+x,3/4-y,3/4+z
8 1/4-x,3/4+y,3/4+z
9 1/2+x,y,1/2+z
10 1/2-x,-y,1/2+z
11 3/4+x,1/4-y,3/4+z
12 3/4-x,1/4+y,3/4+z
13 1/2+x,1/2+y,z
14 1/2-x,1/2-y,z
15 3/4+x,3/4-y,1/4+z
16 3/4-x,3/4+y,1/4+z
_cell_length_a                   12.7887(15)
_cell_length_b                   38.1950(19)
_cell_length_c                   10.8230(15)
_cell_angle_alpha                90
_cell_angle_beta                 90
_cell_angle_gamma                90
_cell_volume                     5286.65
_exptl_crystal_colour            colorless
_exptl_crystal_description       block
_cell_formula_units_Z            16
loop_
_atom_site_label
_atom_site_type_symbol
_atom_site_fract_x
_atom_site_fract_y
_atom_site_fract_z
N1 N 0.42860(17) 0.05028(6) 0.8325(3)
C1 C 0.4930(3) 0.05944(8) 0.7335(4)
C2 C 0.4876(3) 0.04876(8) 0.6123(4)
H1 H 0.4357 0.0334 0.5861
C3 C 0.5609(4) 0.06142(11) 0.5313(4)
H2 H 0.5583 0.0549 0.4486
C4 C 0.6385(4) 0.08379(12) 0.5714(6)
H3 H 0.6871 0.0919 0.5143
C5 C 0.6470(3) 0.09461(10) 0.6930(5)
H4 H 0.6997 0.1097 0.7187
C6 C 0.5722(3) 0.08167(8) 0.7751(4)
C7 C 0.5546(2) 0.08629(8) 0.9044(4)
C8 C 0.6037(3) 0.10545(9) 0.9972(5)
H5 H 0.6634 0.1184 0.9792
C9 C 0.5650(3) 0.10529(8) 1.1137(5)
H6 H 0.5987 0.1181 1.1749
C10 C 0.4751(3) 0.08619(8) 1.1436(4)
H7 H 0.4493 0.0866 1.2239
C11 C 0.4249(2) 0.06684(7) 1.0546(3)
H8 H 0.3649 0.0541 1.0733
C12 C 0.4656(2) 0.06684(7) 0.9376(4)
C13 C 0.3371(2) 0.02992(8) 0.8240(3)
C14 C 0.2570(2) 0.04014(8) 0.7477(3)
H9 H 0.2630 0.0605 0.7011
C15 C 0.1684(3) 0.02032(10) 0.7406(3)
H10 H 0.1141 0.0272 0.6889
C16 C 0.1593(3) -0.00960(10) 0.8091(4)
H11 H 0.0986 -0.0230 0.8042
C17 C 0.2386(3) -0.01989(8) 0.8846(4)
H12 H 0.2319 -0.0401 0.9320
C18 C 0.3286(2) -0.00033(7) 0.8907(3)
H13 H 0.3838 -0.0077 0.9402
loop_
_geom_bond_atom_site_label_1
_geom_bond_atom_site_label_2
_geom_bond_site_symmetry_1
_geom_bond_site_symmetry_2
N1 C1 1_555 1_555
C1 C2 1_555 1_555
C2 H1 1_555 1_555
C3 C2 1_555 1_555
H2 C3 1_555 1_555
C4 C3 1_555 1_555
H3 C4 1_555 1_555
C5 C4 1_555 1_555
H4 C5 1_555 1_555
C6 C1 1_555 1_555
C7 C6 1_555 1_555
C8 C7 1_555 1_555
H5 C8 1_555 1_555
C9 C8 1_555 1_555
H6 C9 1_555 1_555
C10 C9 1_555 1_555
H7 C10 1_555 1_555
C11 C10 1_555 1_555
H8 C11 1_555 1_555
C12 N1 1_555 1_555
C13 N1 1_555 1_555
C14 C13 1_555 1_555
H9 C14 1_555 1_555
C15 C14 1_555 1_555
H10 C15 1_555 1_555
C16 C15 1_555 1_555
H11 C16 1_555 1_555
C17 C16 1_555 1_555
H12 C17 1_555 1_555
C18 C13 1_555 1_555
H13 C18 1_555 1_555
C5 C6 1_555 1_555
C7 C12 1_555 1_555
C11 C12 1_555 1_555
C17 C18 1_555 1_555

#END
