
#######################################################################
#
#                 Cambridge Crystallographic Data Centre
#                                CCDC 
#
#######################################################################
#
# If this CIF has been generated from an entry in the Cambridge 
# Structural Database, then it will include bibliographic, chemical, 
# crystal, experimental, refinement or atomic coordinate data resulting 
# from the CCDC's data processing and validation procedures.
#
#######################################################################

data_PEMZAK
_chemical_formula_moiety         'C12 H13 Br1 O2'
_chemical_name_systematic        3-(4-Bromophenyl)oxepan-2-one
_symmetry_cell_setting           monoclinic
_symmetry_space_group_name_H-M   'C 2'
_symmetry_Int_Tables_number      5
_space_group_name_Hall           'C 2y'
loop_
_symmetry_equiv_pos_site_id
_symmetry_equiv_pos_as_xyz
1 x,y,z
2 -x,y,-z
3 1/2+x,1/2+y,z
4 1/2-x,1/2+y,-z
_cell_length_a                   18.482(2)
_cell_length_b                   5.4608(5)
_cell_length_c                   11.5130(9)
_cell_angle_alpha                90
_cell_angle_beta                 101.623(9)
_cell_angle_gamma                90
_cell_volume                     1138.14
_exptl_crystal_colour            colorless
_exptl_crystal_description       block
_cell_formula_units_Z            4
loop_
_atom_site_label
_atom_site_type_symbol
_atom_site_fract_x
_atom_site_fract_y
_atom_site_fract_z
Br1 Br 0.14683(3) 0.25128(14) 0.69143(4)
O1 O 0.18292(17) 0.4723(6) 1.4057(3)
O2 O 0.1924(2) 0.2113(7) 1.2679(3)
C1 C 0.1718(3) 0.4114(8) 1.2911(4)
C2 C 0.1306(2) 0.5858(7) 1.1989(3)
H1 H 0.1549 0.7457 1.2117
C3 C 0.0508(2) 0.6180(8) 1.2139(4)
H2 H 0.0211 0.6699 1.1386
H3 H 0.0322 0.4602 1.2331
C4 C 0.0401(3) 0.8016(9) 1.3088(4)
H4 H 0.0563 0.9614 1.2875
H5 H -0.0122 0.8130 1.3092
C5 C 0.0810(2) 0.7394(15) 1.4326(3)
H6 H 0.0616 0.5869 1.4568
H7 H 0.0713 0.8662 1.4864
C6 C 0.1638(2) 0.7137(12) 1.4452(4)
H8 H 0.1818 0.8391 1.3985
H9 H 0.1877 0.7371 1.5276
C7 C 0.1412(3) 0.3580(8) 0.8469(4)
C8 C 0.1754(3) 0.5703(8) 0.8906(4)
H10 H 0.2003 0.6661 0.8447
C9 C 0.1717(2) 0.6389(7) 1.0053(4)
H11 H 0.1949 0.7829 1.0359
C10 C 0.1350(2) 0.5010(7) 1.0753(4)
C11 C 0.1009(2) 0.2869(9) 1.0272(3)
H12 H 0.0756 0.1904 1.0723
C12 C 0.1040(2) 0.2161(10) 0.9144(4)
H13 H 0.0811 0.0720 0.8834
loop_
_geom_bond_atom_site_label_1
_geom_bond_atom_site_label_2
_geom_bond_site_symmetry_1
_geom_bond_site_symmetry_2
Br1 C7 1_555 1_555
O1 C1 1_555 1_555
O2 C1 1_555 1_555
C1 C2 1_555 1_555
C2 H1 1_555 1_555
C3 C2 1_555 1_555
H2 C3 1_555 1_555
H3 C3 1_555 1_555
C4 C3 1_555 1_555
H4 C4 1_555 1_555
H5 C4 1_555 1_555
C5 C4 1_555 1_555
H6 C5 1_555 1_555
H7 C5 1_555 1_555
C6 O1 1_555 1_555
H8 C6 1_555 1_555
H9 C6 1_555 1_555
C7 C8 1_555 1_555
C8 H10 1_555 1_555
C9 C8 1_555 1_555
H11 C9 1_555 1_555
C10 C2 1_555 1_555
C11 C10 1_555 1_555
H12 C11 1_555 1_555
C12 C7 1_555 1_555
H13 C12 1_555 1_555
C5 C6 1_555 1_555
C9 C10 1_555 1_555
C11 C12 1_555 1_555

#END
