
#######################################################################
#
#                 Cambridge Crystallographic Data Centre
#                                CCDC 
#
#######################################################################
#
# If this CIF has been generated from an entry in the Cambridge 
# Structural Database, then it will include bibliographic, chemical, 
# crystal, experimental, refinement or atomic coordinate data resulting 
# from the CCDC's data processing and validation procedures.
#
#######################################################################

data_PENHIB
_chemical_formula_moiety         'C18 H21 N1 O3 S1'
_chemical_name_systematic        
4-Methyl-2-((4-methylphenyl)sulfonyl)-2,3,7,7a-tetrahydrospiro[cyclopenta[c]pyridine-5,1'-cyclopropan]-6(1H)-one
_symmetry_cell_setting           orthorhombic
_symmetry_space_group_name_H-M   'P b c a'
_symmetry_Int_Tables_number      61
_space_group_name_Hall           '-P 2ac 2ab'
loop_
_symmetry_equiv_pos_site_id
_symmetry_equiv_pos_as_xyz
1 x,y,z
2 1/2+x,1/2-y,-z
3 -x,1/2+y,1/2-z
4 1/2-x,-y,1/2+z
5 -x,-y,-z
6 1/2-x,1/2+y,z
7 x,1/2-y,1/2+z
8 1/2+x,y,1/2-z
_cell_length_a                   20.4027(19)
_cell_length_b                   7.1468(7)
_cell_length_c                   22.129(2)
_cell_angle_alpha                90
_cell_angle_beta                 90
_cell_angle_gamma                90
_cell_volume                     3226.72
_exptl_crystal_colour            colorless
_exptl_crystal_description       needle
_cell_formula_units_Z            8
loop_
_atom_site_label
_atom_site_type_symbol
_atom_site_fract_x
_atom_site_fract_y
_atom_site_fract_z
S1 S 0.367387(16) 0.39203(5) 0.949965(15)
O1 O 0.55312(6) 1.23322(18) 0.85061(6)
O2 O 0.32847(6) 0.27925(15) 0.91027(5)
O3 O 0.42519(5) 0.31543(15) 0.97736(5)
N1 N 0.39090(5) 0.57355(16) 0.91054(5)
C1 C 0.34121(6) 0.6535(2) 0.86995(6)
H1 H 0.3023 0.6890 0.8940
H2 H 0.3274 0.5565 0.8407
C2 C 0.36500(6) 0.8225(2) 0.83571(6)
C3 C 0.42407(6) 0.89629(18) 0.84520(5)
C4 C 0.47082(6) 0.81357(19) 0.89187(6)
H3 H 0.5003 0.7223 0.8711
C5 C 0.43345(7) 0.7112(2) 0.94073(6)
H4 H 0.4642 0.6472 0.9684
H5 H 0.4067 0.8004 0.9645
C6 C 0.51190(7) 0.9795(2) 0.91316(6)
H6 H 0.4915 1.0405 0.9486
H7 H 0.5568 0.9390 0.9241
C7 C 0.51325(7) 1.1107(2) 0.85962(6)
C8 C 0.45598(6) 1.06697(19) 0.81988(6)
C9 C 0.42295(7) 1.2353(2) 0.79106(6)
H8 H 0.3749 1.2303 0.7854
H9 H 0.4405 1.3608 0.8010
C10 C 0.46394(8) 1.1112(2) 0.75283(6)
H10 H 0.5069 1.1596 0.7391
H11 H 0.4413 1.0290 0.7235
C11 C 0.31417(8) 0.8952(3) 0.79267(8)
H12 H 0.2837 0.9771 0.8144
H13 H 0.2900 0.7899 0.7752
H14 H 0.3356 0.9661 0.7603
C12 C 0.31662(6) 0.47069(18) 1.00900(6)
C13 C 0.24885(7) 0.46857(18) 1.00167(6)
H15 H 0.2300 0.4343 0.9640
C14 C 0.20930(7) 0.5171(2) 1.05003(6)
H16 H 0.1630 0.5145 1.0453
C15 C 0.23594(7) 0.56977(19) 1.10535(6)
C16 C 0.30390(7) 0.5798(2) 1.11064(6)
H17 H 0.3227 0.6221 1.1474
C17 C 0.34448(7) 0.5292(2) 1.06328(6)
H18 H 0.3908 0.5342 1.0677
C18 C 0.19215(8) 0.6110(2) 1.15862(7)
H19 H 0.1523 0.6738 1.1446
H20 H 0.2153 0.6925 1.1871
H21 H 0.1804 0.4936 1.1788
loop_
_geom_bond_atom_site_label_1
_geom_bond_atom_site_label_2
_geom_bond_site_symmetry_1
_geom_bond_site_symmetry_2
S1 O2 1_555 1_555
O1 C7 1_555 1_555
O3 S1 1_555 1_555
N1 S1 1_555 1_555
C1 N1 1_555 1_555
H1 C1 1_555 1_555
H2 C1 1_555 1_555
C2 C1 1_555 1_555
C3 C2 1_555 1_555
C4 C3 1_555 1_555
H3 C4 1_555 1_555
C5 N1 1_555 1_555
H4 C5 1_555 1_555
H5 C5 1_555 1_555
C6 C4 1_555 1_555
H6 C6 1_555 1_555
H7 C6 1_555 1_555
C7 C6 1_555 1_555
C8 C3 1_555 1_555
C9 C8 1_555 1_555
H8 C9 1_555 1_555
H9 C9 1_555 1_555
C10 C8 1_555 1_555
H10 C10 1_555 1_555
H11 C10 1_555 1_555
C11 C2 1_555 1_555
H12 C11 1_555 1_555
H13 C11 1_555 1_555
H14 C11 1_555 1_555
C12 S1 1_555 1_555
C13 C12 1_555 1_555
H15 C13 1_555 1_555
C14 C13 1_555 1_555
H16 C14 1_555 1_555
C15 C14 1_555 1_555
C16 C15 1_555 1_555
H17 C16 1_555 1_555
C17 C12 1_555 1_555
H18 C17 1_555 1_555
C18 C15 1_555 1_555
H19 C18 1_555 1_555
H20 C18 1_555 1_555
H21 C18 1_555 1_555
C4 C5 1_555 1_555
C7 C8 1_555 1_555
C9 C10 1_555 1_555
C16 C17 1_555 1_555

#END
