
#######################################################################
#
#                 Cambridge Crystallographic Data Centre
#                                CCDC 
#
#######################################################################
#
# If this CIF has been generated from an entry in the Cambridge 
# Structural Database, then it will include bibliographic, chemical, 
# crystal, experimental, refinement or atomic coordinate data resulting 
# from the CCDC's data processing and validation procedures.
#
#######################################################################

data_PEPJEC
_chemical_compound_source        
'Isolated from the stems of Mappianthus iodoides Hand.-Mazz.'
_chemical_name_common            'mappianine A trihydrate'
_chemical_formula_moiety         'C22 H20 N2 O8,3(H2 O1)'
_chemical_name_systematic        
"14a-hydroxy-1-(methoxycarbonyl)-4-methyl-5,14-dioxo-4a,5,7,8,13,14,14a,14b-octahydro-4H-pyrano[4'',3'':3',4']pyrrolo[1',2':1,2]azepino[4,5-b]indole-7-carboxylic acid trihydrate"
_symmetry_cell_setting           hexagonal
_symmetry_space_group_name_H-M   'P 61'
_symmetry_Int_Tables_number      169
_space_group_name_Hall           'P 61'
loop_
_symmetry_equiv_pos_site_id
_symmetry_equiv_pos_as_xyz
1 x,y,z
2 -y,x-y,1/3+z
3 -x+y,-x,2/3+z
4 -x,-y,1/2+z
5 y,-x+y,5/6+z
6 x-y,x,1/6+z
_cell_length_a                   26.1066(5)
_cell_length_b                   26.1066(5)
_cell_length_c                   5.95722(9)
_cell_angle_alpha                90
_cell_angle_beta                 90
_cell_angle_gamma                120
_cell_volume                     3516.21
_exptl_crystal_colour            colorless
_exptl_crystal_description       block
_cell_formula_units_Z            6
loop_
_atom_site_label
_atom_site_type_symbol
_atom_site_fract_x
_atom_site_fract_y
_atom_site_fract_z
O1 O 0.22333(13) 0.92630(13) 1.0480(5)
H1 H 0.208703 0.944498 1.105963
O2 O 0.16861(13) 0.89013(13) 0.5828(5)
O3 O 0.21410(15) 0.68528(14) 0.8541(6)
O4 O 0.26272(13) 0.81293(13) 0.9398(5)
H2 H 0.265751 0.783414 0.957655
O5 O 0.12683(14) 0.72110(13) 0.2271(6)
O6 O 0.27417(15) 1.00938(13) 0.8483(6)
O7 O 0.20171(16) 0.63224(14) 0.5385(6)
O8 O 0.30345(15) 0.77715(14) 0.5632(8)
N1 N 0.23586(15) 0.86451(14) 0.6989(6)
N2 N 0.36652(15) 0.86332(15) 0.2668(6)
H3 H 0.370432 0.832613 0.255129
C1 C 0.33074(17) 0.87027(18) 0.4197(7)
C2 C 0.33788(17) 0.92646(17) 0.3994(7)
C3 C 0.37881(17) 0.95401(18) 0.2172(7)
C4 C 0.25908(17) 0.95819(18) 0.8843(7)
C5 C 0.17773(18) 0.70950(17) 0.5373(8)
C6 C 0.24547(17) 0.81463(17) 0.7162(7)
C7 C 0.39451(17) 0.91253(18) 0.1381(7)
C8 C 0.18301(18) 0.85218(18) 0.6100(7)
C9 C 0.18200(17) 0.76088(17) 0.6648(7)
H4 H 0.162782 0.745519 0.810088
C10 C 0.28238(18) 0.92458(17) 0.7485(7)
H5 H 0.312244 0.922038 0.839908
C11 C 0.31231(18) 0.95705(17) 0.5318(7)
H6 H 0.283599 0.960614 0.439820
H7 H 0.343633 0.996676 0.568677
C12 C 0.14813(17) 0.78773(17) 0.5494(7)
H8 H 0.107786 0.769953 0.608677
C13 C 0.1991(2) 0.67178(19) 0.6372(8)
C14 C 0.1495(2) 0.69278(19) 0.3414(8)
H9 H 0.145167 0.658271 0.277983
C15 C 0.40204(19) 1.00951(19) 0.1121(7)
H10 H 0.393456 1.037818 0.165953
C16 C 0.14707(19) 0.78202(18) 0.2918(7)
H11 H 0.186958 0.807655 0.232451
C17 C 0.4379(2) 1.0208(2) -0.0731(8)
H12 H 0.453124 1.057013 -0.146036
C18 C 0.29477(18) 0.81914(17) 0.5629(8)
C19 C 0.43101(18) 0.9243(2) -0.0505(7)
H13 H 0.440678 0.896740 -0.103512
C20 C 0.45197(19) 0.9784(2) -0.1540(8)
H14 H 0.475932 0.987217 -0.280113
C21 C 0.10436(19) 0.7980(2) 0.1819(8)
H15 H 0.102534 0.790334 0.023628
H16 H 0.117836 0.839140 0.206248
H17 H 0.065746 0.774534 0.246402
C22 C 0.2411(3) 0.6549(3) 0.9635(10)
H18 H 0.277033 0.664022 0.887058
H19 H 0.214298 0.613028 0.958925
H20 H 0.249782 0.667682 1.116876
O9 O 0.16035(19) 0.97597(18) 1.1583(8)
O10 O 0.0822(2) 0.8986(2) 0.8159(8)
O11 O 0.0763(2) 0.9649(2) 0.4684(9)
loop_
_geom_bond_atom_site_label_1
_geom_bond_atom_site_label_2
_geom_bond_site_symmetry_1
_geom_bond_site_symmetry_2
O1 H1 1_555 1_555
O2 C8 1_555 1_555
O3 C13 1_555 1_555
O4 H2 1_555 1_555
O5 C14 1_555 1_555
O6 C4 1_555 1_555
O7 C13 1_555 1_555
O8 C18 1_555 1_555
N1 C6 1_555 1_555
N2 H3 1_555 1_555
C1 N2 1_555 1_555
C2 C1 1_555 1_555
C3 C2 1_555 1_555
C4 O1 1_555 1_555
C5 C9 1_555 1_555
C6 O4 1_555 1_555
C7 N2 1_555 1_555
C8 N1 1_555 1_555
C9 C6 1_555 1_555
H4 C9 1_555 1_555
C10 N1 1_555 1_555
H5 C10 1_555 1_555
C11 C2 1_555 1_555
H6 C11 1_555 1_555
H7 C11 1_555 1_555
C12 C8 1_555 1_555
H8 C12 1_555 1_555
C13 C5 1_555 1_555
C14 C5 1_555 1_555
H9 C14 1_555 1_555
C15 C3 1_555 1_555
H10 C15 1_555 1_555
C16 O5 1_555 1_555
H11 C16 1_555 1_555
C17 C15 1_555 1_555
H12 C17 1_555 1_555
C18 C1 1_555 1_555
C19 C7 1_555 1_555
H13 C19 1_555 1_555
C20 C17 1_555 1_555
H14 C20 1_555 1_555
C21 C16 1_555 1_555
H15 C21 1_555 1_555
H16 C21 1_555 1_555
H17 C21 1_555 1_555
C22 O3 1_555 1_555
H18 C22 1_555 1_555
H19 C22 1_555 1_555
H20 C22 1_555 1_555
C3 C7 1_555 1_555
C4 C10 1_555 1_555
C6 C18 1_555 1_555
C9 C12 1_555 1_555
C10 C11 1_555 1_555
C12 C16 1_555 1_555
C19 C20 1_555 1_555

#END
