
#######################################################################
#
#                 Cambridge Crystallographic Data Centre
#                                CCDC 
#
#######################################################################
#
# If this CIF has been generated from an entry in the Cambridge 
# Structural Database, then it will include bibliographic, chemical, 
# crystal, experimental, refinement or atomic coordinate data resulting 
# from the CCDC's data processing and validation procedures.
#
#######################################################################

data_PEPSUZ
_chemical_formula_moiety         'C14 H11 N3 O1'
_chemical_name_systematic        2-azido-1,2-diphenylethanone
_symmetry_cell_setting           orthorhombic
_symmetry_space_group_name_H-M   'P b c a'
_symmetry_Int_Tables_number      61
_space_group_name_Hall           '-P 2ac 2ab'
loop_
_symmetry_equiv_pos_site_id
_symmetry_equiv_pos_as_xyz
1 x,y,z
2 1/2-x,-y,1/2+z
3 -x,1/2+y,1/2-z
4 1/2+x,1/2-y,-z
5 -x,-y,-z
6 1/2+x,y,1/2-z
7 x,1/2-y,1/2+z
8 1/2-x,1/2+y,z
_cell_length_a                   5.9414(5)
_cell_length_b                   14.8154(13)
_cell_length_c                   26.690(2)
_cell_angle_alpha                90
_cell_angle_beta                 90
_cell_angle_gamma                90
_cell_volume                     2349.37
_exptl_crystal_colour            colorless
_exptl_crystal_description       needle
_cell_formula_units_Z            8
loop_
_atom_site_label
_atom_site_type_symbol
_atom_site_fract_x
_atom_site_fract_y
_atom_site_fract_z
O1 O 0.1481(2) 0.96377(7) 0.09758(4)
N1 N 0.4722(2) 1.00623(8) 0.16575(5)
N2 N 0.3213(2) 0.98385(8) 0.19491(5)
N3 N 0.1899(3) 0.97127(10) 0.22499(5)
C1 C 0.4693(3) 0.84019(10) -0.06120(6)
H1 H 0.4976 0.81952 -0.09430
C2 C 0.2621(3) 0.87702(10) -0.04921(6)
H2 H 0.1479 0.88154 -0.07400
C3 C 0.2221(3) 0.90716(10) -0.00110(6)
H3 H 0.0789 0.93156 0.00714
C4 C 0.3889(3) 0.90230(9) 0.03562(5)
C5 C 0.5964(3) 0.86480(10) 0.02318(5)
H4 H 0.7117 0.86068 0.04775
C6 C 0.6353(3) 0.83342(11) -0.02506(6)
H5 H 0.7764 0.80720 -0.03329
C7 C 0.3360(3) 0.93752(9) 0.08658(6)
C8 C 0.5233(3) 0.93885(9) 0.12623(5)
H6 H 0.6651 0.95835 0.10920
C9 C 0.5642(3) 0.84509(10) 0.14788(5)
C10 C 0.7682(3) 0.82737(12) 0.17141(6)
H7 H 0.8810 0.87274 0.17286
C11 C 0.8070(3) 0.74341(13) 0.19277(6)
H8 H 0.9459 0.73198 0.20925
C12 C 0.6465(3) 0.67644(12) 0.19033(6)
H9 H 0.6752 0.61878 0.20454
C13 C 0.4442(3) 0.69382(11) 0.16714(6)
H10 H 0.3325 0.64804 0.16541
C14 C 0.4029(3) 0.77791(10) 0.14632(6)
H11 H 0.2620 0.78953 0.13078
loop_
_geom_bond_atom_site_label_1
_geom_bond_atom_site_label_2
_geom_bond_site_symmetry_1
_geom_bond_site_symmetry_2
O1 C7 1_555 1_555
N1 N2 1_555 1_555
N2 N3 1_555 1_555
C1 H1 1_555 1_555
C2 C1 1_555 1_555
H2 C2 1_555 1_555
C3 C2 1_555 1_555
H3 C3 1_555 1_555
C4 C3 1_555 1_555
C5 C4 1_555 1_555
H4 C5 1_555 1_555
C6 C1 1_555 1_555
H5 C6 1_555 1_555
C7 C4 1_555 1_555
C8 N1 1_555 1_555
H6 C8 1_555 1_555
C9 C8 1_555 1_555
C10 C9 1_555 1_555
H7 C10 1_555 1_555
C11 C10 1_555 1_555
H8 C11 1_555 1_555
C12 C11 1_555 1_555
H9 C12 1_555 1_555
C13 C12 1_555 1_555
H10 C13 1_555 1_555
C14 C9 1_555 1_555
H11 C14 1_555 1_555
C5 C6 1_555 1_555
C7 C8 1_555 1_555
C13 C14 1_555 1_555

#END
