
#######################################################################
#
#                 Cambridge Crystallographic Data Centre
#                                CCDC 
#
#######################################################################
#
# If this CIF has been generated from an entry in the Cambridge 
# Structural Database, then it will include bibliographic, chemical, 
# crystal, experimental, refinement or atomic coordinate data resulting 
# from the CCDC's data processing and validation procedures.
#
#######################################################################

data_PEPTAG
_chemical_formula_moiety         'C36 H26 O3 P2'
_chemical_name_systematic        
'2,8-bis(diphenylphosphine oxide)dibenzo[b,d]furan'
_symmetry_cell_setting           monoclinic
_symmetry_space_group_name_H-M   'P 21/c'
_symmetry_Int_Tables_number      14
_space_group_name_Hall           '-P 2ybc'
loop_
_symmetry_equiv_pos_site_id
_symmetry_equiv_pos_as_xyz
1 x,y,z
2 -x,1/2+y,1/2-z
3 -x,-y,-z
4 x,1/2-y,1/2+z
_cell_length_a                   16.754(3)
_cell_length_b                   6.7136(14)
_cell_length_c                   25.220(5)
_cell_angle_alpha                90
_cell_angle_beta                 96.207(3)
_cell_angle_gamma                90
_cell_volume                     2820.11
_exptl_crystal_colour            colorless
_exptl_crystal_description       prism
_chemical_melting_point          259.7deg.C
_cell_formula_units_Z            4
loop_
_atom_site_label
_atom_site_type_symbol
_atom_site_fract_x
_atom_site_fract_y
_atom_site_fract_z
P1 P 1.19908(3) 0.37514(8) 0.17499(2)
P2 P 0.70278(3) 0.15298(7) 0.03316(2)
C1 C 1.14528(11) 0.2825(3) 0.22846(8)
C2 C 1.13585(14) 0.4130(4) 0.27014(9)
H1 H 1.1551 0.5427 0.2689
C3 C 1.09791(18) 0.3507(5) 0.31355(11)
H2 H 1.0917 0.4388 0.3413
C4 C 1.06959(18) 0.1599(5) 0.31564(11)
H3 H 1.0441 0.1187 0.3447
C5 C 1.07867(16) 0.0297(4) 0.27498(11)
H4 H 1.0591 -0.0995 0.2765
C6 C 1.11696(14) 0.0894(4) 0.23157(9)
H5 H 1.1237 -0.0006 0.2044
C7 C 1.29342(11) 0.2421(3) 0.17867(7)
C8 C 1.36367(13) 0.3473(4) 0.19489(9)
H6 H 1.3611 0.4812 0.2040
C9 C 1.43730(14) 0.2515(5) 0.19743(11)
H7 H 1.4840 0.3213 0.2088
C10 C 1.44193(15) 0.0556(5) 0.18340(11)
H8 H 1.4917 -0.0066 0.1847
C11 C 1.37268(15) -0.0506(4) 0.16723(10)
H9 H 1.3758 -0.1839 0.1577
C12 C 1.29882(13) 0.0431(3) 0.16542(8)
H10 H 1.2522 -0.0287 0.1552
C13 C 1.14569(11) 0.2993(3) 0.11218(7)
C14 C 1.18968(11) 0.2892(3) 0.06805(8)
H11 H 1.2454 0.2961 0.0738
C15 C 1.15381(10) 0.2694(3) 0.01654(7)
H12 H 1.1836 0.2624 -0.0125
C16 C 1.07082(10) 0.2605(2) 0.01051(7)
C17 C 0.94594(10) 0.2381(2) -0.02592(7)
C18 C 0.87981(11) 0.2266(3) -0.06340(7)
H13 H 0.8846 0.2266 -0.0998
C19 C 0.80594(11) 0.2152(3) -0.04383(8)
H14 H 0.7598 0.2075 -0.0678
C20 C 0.79860(10) 0.2150(3) 0.01114(7)
C21 C 0.62718(10) 0.2722(3) -0.01263(8)
C22 C 0.56262(13) 0.1585(4) -0.03367(10)
H15 H 0.5599 0.0239 -0.0253
C23 C 0.50111(14) 0.2484(5) -0.06777(11)
H16 H 0.4570 0.1732 -0.0815
C24 C 0.50545(14) 0.4437(5) -0.08082(11)
H17 H 0.4647 0.5012 -0.1038
C25 C 0.56930(15) 0.5562(4) -0.06042(10)
H18 H 0.5723 0.6897 -0.0698
C26 C 0.62953(13) 0.4721(3) -0.02581(9)
H19 H 0.6721 0.5506 -0.0112
C27 C 0.69948(11) 0.2751(3) 0.09668(8)
C28 C 0.71645(14) 0.4749(4) 0.10502(9)
H20 H 0.7323 0.5518 0.0773
C29 C 0.71019(16) 0.5614(5) 0.15400(11)
H21 H 0.7217 0.6960 0.1590
C30 C 0.68741(19) 0.4520(7) 0.19464(12)
H22 H 0.6831 0.5117 0.2275
C31 C 0.6707(2) 0.2551(7) 0.18779(11)
H23 H 0.6555 0.1806 0.2161
C32 C 0.67625(16) 0.1629(5) 0.13826(10)
H24 H 0.6644 0.0283 0.1336
C33 C 0.86657(10) 0.2321(3) 0.04775(7)
H25 H 0.8620 0.2350 0.0842
C34 C 0.94158(10) 0.2448(2) 0.02900(7)
C35 C 1.02403(10) 0.2629(2) 0.05293(7)
C36 C 1.06200(10) 0.2838(3) 0.10494(7)
H26 H 1.0322 0.2872 0.1340
O1 O 1.21104(10) 0.5932(2) 0.17916(6)
O2 O 0.69034(9) -0.0645(2) 0.03689(7)
O3 O 1.02443(7) 0.24615(18) -0.03802(5)
loop_
_geom_bond_atom_site_label_1
_geom_bond_atom_site_label_2
_geom_bond_site_symmetry_1
_geom_bond_site_symmetry_2
P1 C1 1_555 1_555
P2 C20 1_555 1_555
C1 C2 1_555 1_555
C2 H1 1_555 1_555
C3 C2 1_555 1_555
H2 C3 1_555 1_555
C4 C3 1_555 1_555
H3 C4 1_555 1_555
C5 C4 1_555 1_555
H4 C5 1_555 1_555
C6 C1 1_555 1_555
H5 C6 1_555 1_555
C7 P1 1_555 1_555
C8 C7 1_555 1_555
H6 C8 1_555 1_555
C9 C8 1_555 1_555
H7 C9 1_555 1_555
C10 C9 1_555 1_555
H8 C10 1_555 1_555
C11 C10 1_555 1_555
H9 C11 1_555 1_555
C12 C7 1_555 1_555
H10 C12 1_555 1_555
C13 P1 1_555 1_555
C14 C13 1_555 1_555
H11 C14 1_555 1_555
C15 C14 1_555 1_555
H12 C15 1_555 1_555
C16 C15 1_555 1_555
C17 C18 1_555 1_555
C18 H13 1_555 1_555
C19 C18 1_555 1_555
H14 C19 1_555 1_555
C20 C19 1_555 1_555
C21 P2 1_555 1_555
C22 C21 1_555 1_555
H15 C22 1_555 1_555
C23 C22 1_555 1_555
H16 C23 1_555 1_555
C24 C23 1_555 1_555
H17 C24 1_555 1_555
C25 C24 1_555 1_555
H18 C25 1_555 1_555
C26 C21 1_555 1_555
H19 C26 1_555 1_555
C27 P2 1_555 1_555
C28 C27 1_555 1_555
H20 C28 1_555 1_555
C29 C28 1_555 1_555
H21 C29 1_555 1_555
C30 C29 1_555 1_555
H22 C30 1_555 1_555
C31 C30 1_555 1_555
H23 C31 1_555 1_555
C32 C27 1_555 1_555
H24 C32 1_555 1_555
C33 C20 1_555 1_555
H25 C33 1_555 1_555
C34 C17 1_555 1_555
C35 C16 1_555 1_555
C36 C13 1_555 1_555
H26 C36 1_555 1_555
O1 P1 1_555 1_555
O2 P2 1_555 1_555
O3 C16 1_555 1_555
C5 C6 1_555 1_555
C11 C12 1_555 1_555
C17 O3 1_555 1_555
C25 C26 1_555 1_555
C31 C32 1_555 1_555
C33 C34 1_555 1_555
C34 C35 1_555 1_555
C35 C36 1_555 1_555

#END
