
#######################################################################
#
#                 Cambridge Crystallographic Data Centre
#                                CCDC 
#
#######################################################################
#
# If this CIF has been generated from an entry in the Cambridge 
# Structural Database, then it will include bibliographic, chemical, 
# crystal, experimental, refinement or atomic coordinate data resulting 
# from the CCDC's data processing and validation procedures.
#
#######################################################################

data_PERNIK
_chemical_formula_moiety         'C18 H30 O4'
_chemical_name_systematic        
(2R*,2'S*,3S*,7S*)-2-(2'-(furan-2-yl)-2'-hydroxyethyl)-3-methyl-7-pentyloxepan-3-ol
_symmetry_cell_setting           orthorhombic
_symmetry_space_group_name_H-M   'P n a 21'
_symmetry_Int_Tables_number      33
_space_group_name_Hall           'P 2c -2n'
loop_
_symmetry_equiv_pos_site_id
_symmetry_equiv_pos_as_xyz
1 x,y,z
2 1/2-x,1/2+y,1/2+z
3 1/2+x,1/2-y,z
4 -x,-y,1/2+z
_cell_length_a                   15.6987(2)
_cell_length_b                   7.70540(10)
_cell_length_c                   29.3165(3)
_cell_angle_alpha                90
_cell_angle_beta                 90
_cell_angle_gamma                90
_cell_volume                     3546.26
_chemical_melting_point          '69-73 deg.C'
_cell_formula_units_Z            8
loop_
_atom_site_label
_atom_site_type_symbol
_atom_site_fract_x
_atom_site_fract_y
_atom_site_fract_z
O1 O 0.3668(2) 0.7542(5) 0.21949(13)
H1 H 0.3486 0.7565 0.2464
O2 O 0.0397(2) 0.7117(6) 0.21046(13)
H2 H 0.0161 0.8024 0.2201
O3 O 0.1843(2) 0.6324(5) 0.11639(13)
C1 C 0.2240(3) 0.7498(6) 0.18927(19)
H3 H 0.2032 0.7703 0.2207
H4 H 0.2328 0.8643 0.1747
C2 C 0.0671(4) 0.7377(7) 0.16341(19)
C3 C 0.3091(3) 0.6545(7) 0.19153(19)
H5 H 0.3332 0.6526 0.1599
C4 C 0.2298(4) 0.4603(8) 0.0546(2)
H6 H 0.2162 0.3536 0.0373
H7 H 0.2101 0.5601 0.0362
C5 C 0.1786(3) 0.4574(7) 0.09878(18)
H8 H 0.2057 0.3751 0.1208
O4 O 0.3494(3) 0.3527(5) 0.18324(15)
C6 C 0.0066(3) 0.6405(8) 0.13170(19)
H9 H -0.0522 0.6597 0.1429
H10 H 0.0106 0.6946 0.1011
C7 C 0.3025(3) 0.4692(7) 0.20726(19)
C8 C 0.3259(4) 0.4725(8) 0.0590(2)
H11 H 0.3471 0.3729 0.0771
H12 H 0.3410 0.5803 0.0756
C9 C 0.0869(4) 0.4015(9) 0.0897(2)
H13 H 0.0867 0.2741 0.0854
H14 H 0.0688 0.4543 0.0605
C10 C 0.0193(4) 0.4456(8) 0.1259(2)
H15 H -0.0356 0.3920 0.1171
H16 H 0.0367 0.3950 0.1555
C11 C 0.3694(4) 0.4727(8) 0.0123(2)
H17 H 0.3498 0.5752 -0.0052
H18 H 0.3518 0.3676 -0.0047
C12 C 0.3339(4) 0.1892(8) 0.2007(3)
H19 H 0.3573 0.0835 0.1897
C13 C 0.0691(4) 0.9282(8) 0.1523(2)
H20 H 0.1038 0.9470 0.1249
H21 H 0.0940 0.9923 0.1779
H22 H 0.0110 0.9696 0.1467
C14 C 0.1565(3) 0.6498(7) 0.16271(17)
H23 H 0.1511 0.5313 0.1763
C15 C 0.2788(5) 0.2064(9) 0.2369(3)
H24 H 0.2584 0.1157 0.2559
C16 C 0.5101(5) 0.4716(10) -0.0319(3)
H25 H 0.5712 0.4490 -0.0285
H26 H 0.5017 0.5834 -0.0472
H27 H 0.4841 0.3791 -0.0501
C17 C 0.2580(4) 0.3862(8) 0.2404(2)
H28 H 0.2204 0.4379 0.2619
C18 C 0.4680(4) 0.4768(8) 0.0157(2)
H29 H 0.4859 0.5838 0.0318
H30 H 0.4878 0.3762 0.0338
O5 O 0.4329(2) 0.8827(5) 0.39888(12)
O6 O 0.2885(2) 0.8117(5) 0.30446(13)
H31 H 0.2375 0.7801 0.3020
O7 O 0.6182(2) 0.7860(5) 0.29480(14)
H32 H 0.6132 0.6789 0.2995
C19 C 0.5592(3) 0.8798(7) 0.32394(19)
H33 H 0.5834 0.8791 0.3555
C20 C 0.4051(3) 0.8713(7) 0.35226(17)
H34 H 0.3983 0.9915 0.3400
O8 O 0.6036(3) 1.1855(6) 0.3291(2)
C21 C 0.4744(3) 0.7803(7) 0.3255(2)
H35 H 0.4542 0.7618 0.2939
H36 H 0.4846 0.6648 0.3392
C22 C 0.4248(4) 1.0515(7) 0.41858(18)
H37 H 0.4512 1.1388 0.3977
C23 C 0.5709(4) 1.0334(8) 0.4580(2)
H38 H 0.5919 1.1345 0.4405
H39 H 0.5849 0.9272 0.4405
C24 C 0.4749(4) 1.0469(8) 0.46320(19)
H40 H 0.4618 1.1535 0.4807
H41 H 0.4549 0.9468 0.4814
C25 C 0.5062(4) 1.1416(9) 0.2768(2)
H42 H 0.4665 1.0864 0.2571
C26 C 0.2556(4) 0.8643(8) 0.3847(2)
H43 H 0.1965 0.8419 0.3744
H44 H 0.2629 0.8060 0.4145
C27 C 0.2657(4) 1.0585(8) 0.3919(2)
H45 H 0.2100 1.1080 0.4009
H46 H 0.2827 1.1127 0.3626
C28 C 0.3177(3) 0.7782(8) 0.3499(2)
C29 C 0.5866(5) 1.3380(9) 0.3094(3)
H47 H 0.6135 1.4440 0.3176
C30 C 0.5523(3) 1.0640(7) 0.30937(19)
C31 C 0.7111(4) 1.0216(8) 0.5012(2)
H48 H 0.7309 1.1229 0.4834
H49 H 0.7281 0.9155 0.4845
C32 C 0.3225(4) 0.5862(8) 0.3586(2)
H50 H 0.3492 0.5655 0.3884
H51 H 0.3565 0.5309 0.3347
H52 H 0.2649 0.5371 0.3586
C33 C 0.6165(4) 1.0272(8) 0.5046(2)
H53 H 0.5998 1.1307 0.5225
H54 H 0.5967 0.9234 0.5214
C34 C 0.3319(4) 1.1043(9) 0.4283(2)
H55 H 0.3142 1.0492 0.4573
H56 H 0.3304 1.2315 0.4330
C35 C 0.7554(5) 1.0228(10) 0.5482(3)
H57 H 0.8143 0.9827 0.5448
H58 H 0.7248 0.9454 0.5691
H59 H 0.7552 1.1410 0.5605
C36 C 0.5274(5) 1.3241(9) 0.2770(3)
H60 H 0.5046 1.4135 0.2583
loop_
_geom_bond_atom_site_label_1
_geom_bond_atom_site_label_2
_geom_bond_site_symmetry_1
_geom_bond_site_symmetry_2
O1 H1 1_555 1_555
O2 H2 1_555 1_555
O3 C5 1_555 1_555
C1 H3 1_555 1_555
H4 C1 1_555 1_555
C2 O2 1_555 1_555
C3 O1 1_555 1_555
H5 C3 1_555 1_555
C4 H6 1_555 1_555
H7 C4 1_555 1_555
C5 C4 1_555 1_555
H8 C5 1_555 1_555
O4 C7 1_555 1_555
C6 C2 1_555 1_555
H9 C6 1_555 1_555
H10 C6 1_555 1_555
C7 C3 1_555 1_555
C8 C4 1_555 1_555
H11 C8 1_555 1_555
H12 C8 1_555 1_555
C9 C5 1_555 1_555
H13 C9 1_555 1_555
H14 C9 1_555 1_555
C10 C6 1_555 1_555
H15 C10 1_555 1_555
H16 C10 1_555 1_555
C11 C8 1_555 1_555
H17 C11 1_555 1_555
H18 C11 1_555 1_555
C12 O4 1_555 1_555
H19 C12 1_555 1_555
C13 C2 1_555 1_555
H20 C13 1_555 1_555
H21 C13 1_555 1_555
H22 C13 1_555 1_555
C14 O3 1_555 1_555
H23 C14 1_555 1_555
C15 C12 1_555 1_555
H24 C15 1_555 1_555
C16 H25 1_555 1_555
H26 C16 1_555 1_555
H27 C16 1_555 1_555
C17 C7 1_555 1_555
H28 C17 1_555 1_555
C18 C11 1_555 1_555
H29 C18 1_555 1_555
H30 C18 1_555 1_555
O5 C20 1_555 1_555
O6 H31 1_555 1_555
O7 H32 1_555 1_555
C19 O7 1_555 1_555
H33 C19 1_555 1_555
C20 H34 1_555 1_555
O8 C29 1_555 1_555
C21 C19 1_555 1_555
H35 C21 1_555 1_555
H36 C21 1_555 1_555
C22 O5 1_555 1_555
H37 C22 1_555 1_555
C23 H38 1_555 1_555
H39 C23 1_555 1_555
C24 C22 1_555 1_555
H40 C24 1_555 1_555
H41 C24 1_555 1_555
C25 H42 1_555 1_555
C26 H43 1_555 1_555
H44 C26 1_555 1_555
C27 C26 1_555 1_555
H45 C27 1_555 1_555
H46 C27 1_555 1_555
C28 O6 1_555 1_555
C29 H47 1_555 1_555
C30 C19 1_555 1_555
C31 H48 1_555 1_555
H49 C31 1_555 1_555
C32 C28 1_555 1_555
H50 C32 1_555 1_555
H51 C32 1_555 1_555
H52 C32 1_555 1_555
C33 C23 1_555 1_555
H53 C33 1_555 1_555
H54 C33 1_555 1_555
C34 C22 1_555 1_555
H55 C34 1_555 1_555
H56 C34 1_555 1_555
C35 C31 1_555 1_555
H57 C35 1_555 1_555
H58 C35 1_555 1_555
H59 C35 1_555 1_555
C36 C25 1_555 1_555
H60 C36 1_555 1_555
C1 C3 1_555 1_555
C1 C14 1_555 1_555
C2 C14 1_555 1_555
C9 C10 1_555 1_555
C15 C17 1_555 1_555
C16 C18 1_555 1_555
C20 C21 1_555 1_555
C20 C28 1_555 1_555
O8 C30 1_555 1_555
C23 C24 1_555 1_555
C25 C30 1_555 1_555
C26 C28 1_555 1_555
C27 C34 1_555 1_555
C29 C36 1_555 1_555
C31 C33 1_555 1_555

#END
