
#######################################################################
#
#                 Cambridge Crystallographic Data Centre
#                                CCDC 
#
#######################################################################
#
# If this CIF has been generated from an entry in the Cambridge 
# Structural Database, then it will include bibliographic, chemical, 
# crystal, experimental, refinement or atomic coordinate data resulting 
# from the CCDC's data processing and validation procedures.
#
#######################################################################

data_PERXUI
_chemical_formula_moiety         'C39 H25 N5'
_chemical_name_systematic        
11-(4,6-diphenyl-1,3,5-triazin-2-yl)-12-phenyl-11,12-dihydroindolo[2,3-a]carbazole
_symmetry_cell_setting           triclinic
_symmetry_space_group_name_H-M   'P -1'
_symmetry_Int_Tables_number      2
_space_group_name_Hall           '-P 1'
loop_
_symmetry_equiv_pos_site_id
_symmetry_equiv_pos_as_xyz
1 x,y,z
2 -x,-y,-z
_cell_length_a                   11.403(3)
_cell_length_b                   11.606(3)
_cell_length_c                   12.725(3)
_cell_angle_alpha                110.382(2)
_cell_angle_beta                 101.601(2)
_cell_angle_gamma                106.875(3)
_cell_volume                     1422.35
_exptl_crystal_colour            yellow
_cell_formula_units_Z            2
loop_
_atom_site_label
_atom_site_type_symbol
_atom_site_fract_x
_atom_site_fract_y
_atom_site_fract_z
N1 N 0.37299(12) 0.17267(12) 0.10267(11)
N2 N 0.49045(12) 0.22472(13) 0.30214(11)
N3 N 0.59593(12) 0.20452(13) 0.15673(11)
N4 N 0.27201(12) 0.19730(13) 0.24576(11)
N5 N 0.26808(12) 0.38177(12) 0.10510(11)
C1 C 0.38410(14) 0.19850(14) 0.21608(13)
C2 C 0.59447(14) 0.22639(14) 0.26716(13)
C3 C 0.48255(14) 0.17782(14) 0.07812(13)
C4 C 0.21679(15) 0.11489(15) 0.29906(13)
C5 C 0.27850(16) 0.08051(16) 0.38191(14)
H1 H 0.3688 0.1117 0.4116
C6 C 0.20004(18) -0.00241(17) 0.41884(15)
H2 H 0.2386 -0.0275 0.4741
C7 C 0.06514(18) -0.04864(18) 0.37492(16)
H3 H 0.0151 -0.1034 0.4017
C8 C 0.00415(17) -0.01439(17) 0.29190(16)
H4 H -0.0861 -0.0457 0.2629
C9 C 0.08021(15) 0.06782(15) 0.25231(14)
C10 C 0.04814(15) 0.12086(15) 0.16749(14)
C11 C -0.07075(15) 0.10109(16) 0.09087(14)
H5 H -0.1490 0.0457 0.0897
C12 C -0.06990(15) 0.16489(16) 0.01734(14)
H6 H -0.1474 0.1475 -0.0379
C13 C 0.04809(14) 0.25605(15) 0.02601(13)
C14 C 0.07829(15) 0.34574(15) -0.02912(13)
C15 C 0.00280(16) 0.37032(16) -0.11294(14)
H7 H -0.0857 0.3177 -0.1506
C16 C 0.06157(17) 0.47406(16) -0.13913(14)
H8 H 0.0122 0.4907 -0.1954
C17 C 0.19422(17) 0.55416(16) -0.08209(14)
H9 H 0.2312 0.6243 -0.1002
C18 C 0.27206(16) 0.53161(16) 0.00102(14)
H10 H 0.3602 0.5856 0.0394
C19 C 0.21266(15) 0.42473(15) 0.02452(13)
C20 C 0.16702(14) 0.27993(15) 0.10614(13)
C21 C 0.16690(14) 0.20260(15) 0.16915(13)
C22 C 0.39137(14) 0.46066(14) 0.19828(13)
C23 C 0.39728(16) 0.50851(16) 0.31660(14)
H11 H 0.3211 0.4908 0.3352
C24 C 0.51720(17) 0.58277(17) 0.40687(15)
H12 H 0.5213 0.6148 0.4860
C25 C 0.63054(17) 0.60923(17) 0.37956(16)
H13 H 0.7108 0.6581 0.4403
C26 C 0.62474(16) 0.56303(17) 0.26167(15)
H14 H 0.7010 0.5819 0.2434
C27 C 0.50519(15) 0.48865(15) 0.17087(14)
H15 H 0.5013 0.4576 0.0918
C28 C 0.71788(15) 0.25911(15) 0.35850(14)
C29 C 0.72058(17) 0.27332(18) 0.47212(15)
H16 H 0.6443 0.2604 0.4906
C30 C 0.83671(18) 0.30670(19) 0.55812(16)
H17 H 0.8380 0.3158 0.6340
C31 C 0.95045(18) 0.32644(19) 0.53139(17)
H18 H 1.0283 0.3498 0.5895
C32 C 0.94846(18) 0.3115(2) 0.41828(17)
H19 H 1.0250 0.3242 0.4002
C33 C 0.83245(16) 0.27743(18) 0.33161(16)
H20 H 0.8313 0.2669 0.2555
C34 C 0.47821(14) 0.15422(14) -0.04507(13)
C35 C 0.37801(15) 0.16401(16) -0.12076(14)
H21 H 0.3116 0.1816 -0.0951
C36 C 0.37787(17) 0.14738(18) -0.23437(15)
H22 H 0.3112 0.1539 -0.2848
C37 C 0.47678(17) 0.12119(18) -0.27266(15)
H23 H 0.4768 0.1109 -0.3485
C38 C 0.57546(17) 0.11025(17) -0.19846(15)
H24 H 0.6414 0.0920 -0.2247
C39 C 0.57639(15) 0.12641(15) -0.08497(14)
H25 H 0.6427 0.1187 -0.0354
loop_
_geom_bond_atom_site_label_1
_geom_bond_atom_site_label_2
_geom_bond_site_symmetry_1
_geom_bond_site_symmetry_2
N1 C1 1_555 1_555
N2 C1 1_555 1_555
N3 C2 1_555 1_555
N4 C1 1_555 1_555
N5 C19 1_555 1_555
C2 N2 1_555 1_555
C3 N1 1_555 1_555
C4 N4 1_555 1_555
C5 C4 1_555 1_555
H1 C5 1_555 1_555
C6 C5 1_555 1_555
H2 C6 1_555 1_555
C7 C6 1_555 1_555
H3 C7 1_555 1_555
C8 C7 1_555 1_555
H4 C8 1_555 1_555
C9 C4 1_555 1_555
C10 C9 1_555 1_555
C11 C10 1_555 1_555
H5 C11 1_555 1_555
C12 C11 1_555 1_555
H6 C12 1_555 1_555
C13 C12 1_555 1_555
C14 C13 1_555 1_555
C15 C14 1_555 1_555
H7 C15 1_555 1_555
C16 C15 1_555 1_555
H8 C16 1_555 1_555
C17 C16 1_555 1_555
H9 C17 1_555 1_555
C18 C17 1_555 1_555
H10 C18 1_555 1_555
C19 C14 1_555 1_555
C20 N5 1_555 1_555
C21 N4 1_555 1_555
C22 N5 1_555 1_555
C23 C22 1_555 1_555
H11 C23 1_555 1_555
C24 C23 1_555 1_555
H12 C24 1_555 1_555
C25 C24 1_555 1_555
H13 C25 1_555 1_555
C26 C25 1_555 1_555
H14 C26 1_555 1_555
C27 C22 1_555 1_555
H15 C27 1_555 1_555
C28 C2 1_555 1_555
C29 C28 1_555 1_555
H16 C29 1_555 1_555
C30 C29 1_555 1_555
H17 C30 1_555 1_555
C31 C30 1_555 1_555
H18 C31 1_555 1_555
C32 C31 1_555 1_555
H19 C32 1_555 1_555
C33 C28 1_555 1_555
H20 C33 1_555 1_555
C34 C3 1_555 1_555
C35 C34 1_555 1_555
H21 C35 1_555 1_555
C36 C35 1_555 1_555
H22 C36 1_555 1_555
C37 C36 1_555 1_555
H23 C37 1_555 1_555
C38 C37 1_555 1_555
H24 C38 1_555 1_555
C39 C34 1_555 1_555
H25 C39 1_555 1_555
N3 C3 1_555 1_555
C8 C9 1_555 1_555
C10 C21 1_555 1_555
C13 C20 1_555 1_555
C18 C19 1_555 1_555
C20 C21 1_555 1_555
C26 C27 1_555 1_555
C32 C33 1_555 1_555
C38 C39 1_555 1_555

#END
