
#######################################################################
#
#                 Cambridge Crystallographic Data Centre
#                                CCDC 
#
#######################################################################
#
# If this CIF has been generated from an entry in the Cambridge 
# Structural Database, then it will include bibliographic, chemical, 
# crystal, experimental, refinement or atomic coordinate data resulting 
# from the CCDC's data processing and validation procedures.
#
#######################################################################

data_PERZIW
_chemical_name_common            
1-(Dimesitylboryl)-8-(phenoxaborinin-10-yl)naphthalene
_chemical_formula_moiety         'C40 H36 B2 O1'
_chemical_name_systematic        
1-(Dimesitylboryl)-8-(10-bora-9-oxa-anthryl)naphthalene
_symmetry_cell_setting           monoclinic
_symmetry_space_group_name_H-M   'P 21/n'
_symmetry_Int_Tables_number      14
_space_group_name_Hall           '-P 2yn'
loop_
_symmetry_equiv_pos_site_id
_symmetry_equiv_pos_as_xyz
1 x,y,z
2 1/2-x,1/2+y,1/2-z
3 -x,-y,-z
4 1/2+x,1/2-y,1/2+z
_cell_length_a                   16.058(14)
_cell_length_b                   10.799(10)
_cell_length_c                   17.637(16)
_cell_angle_alpha                90
_cell_angle_beta                 100.280(16)
_cell_angle_gamma                90
_cell_volume                     3009.34
_exptl_crystal_colour            colorless
_exptl_crystal_description       plates
_chemical_melting_point          239deg.C
_cell_formula_units_Z            4
_exptl_crystal_recrystallization_method 'diethyl ether'
loop_
_atom_site_label
_atom_site_type_symbol
_atom_site_fract_x
_atom_site_fract_y
_atom_site_fract_z
B1 B 1.09464(16) 0.9645(2) 0.22244(14)
B2 B 0.93413(16) 0.8037(3) 0.26125(14)
O1 O 0.83031(10) 0.70656(16) 0.12260(9)
C1 C 1.12282(13) 0.9255(2) 0.30967(12)
C2 C 1.20581(14) 0.9576(2) 0.33909(12)
H1 H 1.2416 0.9760 0.3046
C3 C 1.23890(14) 0.9640(2) 0.41861(13)
H2 H 1.2947 0.9880 0.4356
C4 C 1.18862(14) 0.9347(2) 0.47017(12)
H3 H 1.2096 0.9420 0.5226
C5 C 1.05581(15) 0.8599(2) 0.50115(13)
H4 H 1.0795 0.8648 0.5532
C6 C 0.97455(15) 0.8208(3) 0.47985(13)
H5 H 0.9424 0.7992 0.5167
C7 C 0.94019(15) 0.8138(2) 0.40089(13)
H6 H 0.8843 0.7880 0.3868
C8 C 0.98470(14) 0.8431(2) 0.34267(12)
C9 C 1.07003(13) 0.8865(2) 0.36418(12)
C10 C 1.10488(14) 0.8933(2) 0.44523(12)
C11 C 1.16621(13) 0.9734(2) 0.17028(11)
C12 C 1.21760(14) 0.8713(2) 0.15962(12)
C13 C 1.28659(14) 0.8854(2) 0.12243(12)
H7 H 1.3193 0.8165 0.1159
C14 C 1.30808(14) 0.9991(2) 0.09489(12)
C15 C 1.25607(14) 1.0985(2) 0.10276(12)
H8 H 1.2687 1.1753 0.0839
C16 C 1.18510(13) 1.0876(2) 0.13817(12)
C17 C 1.19836(16) 0.7440(2) 0.18546(14)
H9 H 1.2401 0.6869 0.1737
H10 H 1.1434 0.7190 0.1592
H11 H 1.1993 0.7444 0.2400
C18 C 1.38513(14) 1.0135(3) 0.05757(13)
H12 H 1.4132 0.9350 0.0573
H13 H 1.4231 1.0724 0.0861
H14 H 1.3681 1.0421 0.0056
C19 C 1.13325(14) 1.2033(2) 0.14257(14)
H15 H 1.1568 1.2703 0.1175
H16 H 1.1340 1.2242 0.1956
H17 H 1.0760 1.1889 0.1174
C20 C 1.00462(13) 1.0195(2) 0.19014(12)
C21 C 0.97186(13) 1.1188(2) 0.22773(12)
C22 C 0.89997(14) 1.1806(2) 0.19117(12)
H18 H 0.8798 1.2475 0.2157
C23 C 0.85724(14) 1.1449(2) 0.11878(13)
C24 C 0.88752(13) 1.0457(2) 0.08294(12)
H19 H 0.8582 1.0195 0.0354
C25 C 0.96101(13) 0.9835(2) 0.11615(12)
C26 C 1.01385(15) 1.1686(2) 0.30555(12)
H20 H 0.9808 1.2357 0.3202
H21 H 1.0696 1.1979 0.3024
H22 H 1.0178 1.1039 0.3433
C27 C 0.77886(16) 1.2138(3) 0.08088(15)
H23 H 0.7574 1.1772 0.0317
H24 H 0.7928 1.2990 0.0739
H25 H 0.7366 1.2091 0.1130
C28 C 0.99247(14) 0.8810(2) 0.07111(12)
H26 H 0.9544 0.8705 0.0230
H27 H 0.9954 0.8055 0.1001
H28 H 1.0478 0.9016 0.0614
C29 C 0.95904(14) 0.6891(2) 0.21890(12)
C30 C 1.02964(14) 0.6142(2) 0.24527(13)
H29 H 1.0666 0.6372 0.2898
C31 C 1.04602(15) 0.5079(2) 0.20761(14)
H30 H 1.0932 0.4599 0.2267
C32 C 0.99130(16) 0.4728(3) 0.14068(15)
H31 H 1.0027 0.4017 0.1146
C33 C 0.92094(16) 0.5417(3) 0.11285(14)
H32 H 0.8846 0.5180 0.0681
C34 C 0.90464(14) 0.6475(2) 0.15263(13)
C35 C 0.84432(14) 0.8530(2) 0.22968(12)
C36 C 0.80316(15) 0.9483(2) 0.26246(13)
H33 H 0.8311 0.9863 0.3071
C37 C 0.72284(15) 0.9875(3) 0.23089(14)
H34 H 0.6970 1.0504 0.2544
C38 C 0.68061(15) 0.9324(3) 0.16353(15)
H35 H 0.6264 0.9586 0.1421
C39 C 0.71816(15) 0.8400(3) 0.12863(14)
H36 H 0.6902 0.8041 0.0832
C40 C 0.79902(14) 0.8004(2) 0.16208(13)
loop_
_geom_bond_atom_site_label_1
_geom_bond_atom_site_label_2
_geom_bond_site_symmetry_1
_geom_bond_site_symmetry_2
B1 C1 1_555 1_555
B2 C8 1_555 1_555
O1 C34 1_555 1_555
C1 C2 1_555 1_555
C2 H1 1_555 1_555
C3 C2 1_555 1_555
H2 C3 1_555 1_555
C4 C3 1_555 1_555
H3 C4 1_555 1_555
C5 H4 1_555 1_555
C6 C5 1_555 1_555
H5 C6 1_555 1_555
C7 C6 1_555 1_555
H6 C7 1_555 1_555
C8 C7 1_555 1_555
C9 C1 1_555 1_555
C10 C4 1_555 1_555
C11 B1 1_555 1_555
C12 C11 1_555 1_555
C13 C12 1_555 1_555
H7 C13 1_555 1_555
C14 C13 1_555 1_555
C15 C14 1_555 1_555
H8 C15 1_555 1_555
C16 C11 1_555 1_555
C17 C12 1_555 1_555
H9 C17 1_555 1_555
H10 C17 1_555 1_555
H11 C17 1_555 1_555
C18 C14 1_555 1_555
H12 C18 1_555 1_555
H13 C18 1_555 1_555
H14 C18 1_555 1_555
C19 C16 1_555 1_555
H15 C19 1_555 1_555
H16 C19 1_555 1_555
H17 C19 1_555 1_555
C20 B1 1_555 1_555
C21 C20 1_555 1_555
C22 C21 1_555 1_555
H18 C22 1_555 1_555
C23 C22 1_555 1_555
C24 C23 1_555 1_555
H19 C24 1_555 1_555
C25 C20 1_555 1_555
C26 C21 1_555 1_555
H20 C26 1_555 1_555
H21 C26 1_555 1_555
H22 C26 1_555 1_555
C27 C23 1_555 1_555
H23 C27 1_555 1_555
H24 C27 1_555 1_555
H25 C27 1_555 1_555
C28 C25 1_555 1_555
H26 C28 1_555 1_555
H27 C28 1_555 1_555
H28 C28 1_555 1_555
C29 B2 1_555 1_555
C30 C29 1_555 1_555
H29 C30 1_555 1_555
C31 C30 1_555 1_555
H30 C31 1_555 1_555
C32 C31 1_555 1_555
H31 C32 1_555 1_555
C33 C32 1_555 1_555
H32 C33 1_555 1_555
C34 C29 1_555 1_555
C35 B2 1_555 1_555
C36 C35 1_555 1_555
H33 C36 1_555 1_555
C37 C36 1_555 1_555
H34 C37 1_555 1_555
C38 C37 1_555 1_555
H35 C38 1_555 1_555
C39 C38 1_555 1_555
H36 C39 1_555 1_555
C40 O1 1_555 1_555
C5 C10 1_555 1_555
C8 C9 1_555 1_555
C9 C10 1_555 1_555
C15 C16 1_555 1_555
C24 C25 1_555 1_555
C33 C34 1_555 1_555
C35 C40 1_555 1_555
C39 C40 1_555 1_555

#END
