
#######################################################################
#
#                 Cambridge Crystallographic Data Centre
#                                CCDC 
#
#######################################################################
#
# If this CIF has been generated from an entry in the Cambridge 
# Structural Database, then it will include bibliographic, chemical, 
# crystal, experimental, refinement or atomic coordinate data resulting 
# from the CCDC's data processing and validation procedures.
#
#######################################################################

data_PESJUT01
_chemical_formula_moiety         'C10 H8 N2 O1'
_chemical_name_systematic        
(2,6-dimethyl-4H-pyran-4-ylidene)malononitrile
_symmetry_cell_setting           triclinic
_symmetry_space_group_name_H-M   'P -1'
_symmetry_Int_Tables_number      2
_space_group_name_Hall           '-P 1'
loop_
_symmetry_equiv_pos_site_id
_symmetry_equiv_pos_as_xyz
1 x,y,z
2 -x,-y,-z
_cell_length_a                   7.1417(9)
_cell_length_b                   7.8540(10)
_cell_length_c                   8.9569(11)
_cell_angle_alpha                72.724(2)
_cell_angle_beta                 74.137(2)
_cell_angle_gamma                68.176(2)
_cell_volume                     437.765
_exptl_crystal_colour            colorless
_exptl_crystal_description       prismatic
_cell_formula_units_Z            2
loop_
_atom_site_label
_atom_site_type_symbol
_atom_site_fract_x
_atom_site_fract_y
_atom_site_fract_z
N1 N 0.21128(17) 0.79026(15) 1.42609(13)
N2 N 0.13693(15) 1.39524(14) 1.19951(11)
O1 O 0.31811(11) 0.95156(10) 0.72083(9)
C1 C 0.31786(15) 0.80867(14) 0.85270(13)
C2 C 0.27761(15) 0.83857(15) 1.00062(13)
H1 H 0.2778 0.7363 1.0899
C3 C 0.23465(14) 1.02261(14) 1.02458(12)
C4 C 0.22788(15) 1.16905(14) 0.88364(13)
H2 H 0.1947 1.2950 0.8924
C5 C 0.26775(15) 1.13134(14) 0.73874(13)
C6 C 0.26370(18) 1.26850(16) 0.58348(13)
H3 H 0.2344 1.3943 0.6003
H4 H 0.1567 1.2689 0.5342
H5 H 0.3973 1.2328 0.5135
C7 C 0.36758(17) 0.62590(15) 0.80983(14)
H6 H 0.5127 0.5844 0.7603
H7 H 0.2821 0.6408 0.7349
H8 H 0.3408 0.5320 0.9060
C8 C 0.19974(16) 1.05835(15) 1.17488(13)
C9 C 0.20516(17) 0.91154(16) 1.31507(13)
C10 C 0.16358(16) 1.24356(16) 1.19187(12)
loop_
_geom_bond_atom_site_label_1
_geom_bond_atom_site_label_2
_geom_bond_site_symmetry_1
_geom_bond_site_symmetry_2
N1 C9 1_555 1_555
N2 C10 1_555 1_555
O1 C1 1_555 1_555
C1 C2 1_555 1_555
C2 H1 1_555 1_555
C3 C2 1_555 1_555
C4 C3 1_555 1_555
H2 C4 1_555 1_555
C5 O1 1_555 1_555
C6 C5 1_555 1_555
H3 C6 1_555 1_555
H4 C6 1_555 1_555
H5 C6 1_555 1_555
C7 C1 1_555 1_555
H6 C7 1_555 1_555
H7 C7 1_555 1_555
H8 C7 1_555 1_555
C8 C3 1_555 1_555
C9 C8 1_555 1_555
C10 C8 1_555 1_555
C4 C5 1_555 1_555

#END
