
#######################################################################
#
#                 Cambridge Crystallographic Data Centre
#                                CCDC 
#
#######################################################################
#
# If this CIF has been generated from an entry in the Cambridge 
# Structural Database, then it will include bibliographic, chemical, 
# crystal, experimental, refinement or atomic coordinate data resulting 
# from the CCDC's data processing and validation procedures.
#
#######################################################################

data_PESMIK
_chemical_formula_moiety         'C18 H28 O2'
_chemical_name_systematic        
3\a-Hydroxy-18-nor-5\a-androstane-13\b,17\b-epoxide
_chemical_properties_biological  'weak activity at type-A GABA receptors'
_symmetry_cell_setting           orthorhombic
_symmetry_space_group_name_H-M   'P 21 21 21'
_symmetry_Int_Tables_number      19
_space_group_name_Hall           'P 2ac 2ab'
loop_
_symmetry_equiv_pos_site_id
_symmetry_equiv_pos_as_xyz
1 x,y,z
2 1/2-x,-y,1/2+z
3 -x,1/2+y,1/2-z
4 1/2+x,1/2-y,-z
_cell_length_a                   7.9575(3)
_cell_length_b                   9.5282(3)
_cell_length_c                   40.1994(16)
_cell_angle_alpha                90
_cell_angle_beta                 90
_cell_angle_gamma                90
_cell_volume                     3047.94
_exptl_crystal_colour            colorless
_exptl_crystal_description       multifaceted
_chemical_melting_point          '170-172 deg.C'
_cell_formula_units_Z            8
loop_
_atom_site_label
_atom_site_type_symbol
_atom_site_fract_x
_atom_site_fract_y
_atom_site_fract_z
O1 O 0.6907(2) 0.41077(19) 0.17445(4)
H1 H 0.7650 0.3495 0.1775
O2 O 0.9868(2) 1.25636(19) 0.17939(5)
C1 C 0.6056(3) 0.7153(3) 0.18081(7)
H2 H 0.5211 0.7908 0.1784
H3 H 0.6380 0.6844 0.1582
C2 C 0.5252(4) 0.5925(3) 0.19895(7)
H4 H 0.4784 0.6261 0.2203
H5 H 0.4309 0.5560 0.1854
C3 C 0.6476(4) 0.4744(3) 0.20576(7)
H6 H 0.5924 0.4029 0.2203
C4 C 0.8040(4) 0.5304(3) 0.22311(7)
H7 H 0.7734 0.5623 0.2458
H8 H 0.8870 0.4536 0.2254
C5 C 0.8844(3) 0.6517(3) 0.20430(7)
H9 H 0.9150 0.6146 0.1818
C6 C 1.0489(3) 0.6998(3) 0.22057(7)
H10 H 1.0248 0.7408 0.2427
H11 H 1.1240 0.6180 0.2237
C7 C 1.1359(3) 0.8089(3) 0.19872(7)
H12 H 1.1757 0.7627 0.1781
H13 H 1.2356 0.8453 0.2106
C8 C 1.0223(3) 0.9321(3) 0.18933(7)
H14 H 0.9981 0.9872 0.2100
C9 C 0.8527(3) 0.8809(3) 0.17469(7)
H15 H 0.8802 0.8278 0.1539
C10 C 0.7620(3) 0.7760(3) 0.19835(7)
C11 C 0.7427(3) 1.0062(3) 0.16406(7)
H16 H 0.6377 0.9703 0.1540
H17 H 0.7119 1.0611 0.1841
C12 C 0.8302(3) 1.1029(3) 0.13918(7)
H18 H 0.8480 1.0532 0.1179
H19 H 0.7599 1.1867 0.1349
C13 C 0.9956(3) 1.1461(3) 0.15370(7)
C14 C 1.1098(3) 1.0293(3) 0.16445(7)
H20 H 1.1409 0.9730 0.1444
C15 C 1.2674(3) 1.1069(3) 0.17670(8)
H21 H 1.2596 1.1253 0.2009
H22 H 1.3693 1.0501 0.1724
C16 C 1.2748(3) 1.2449(3) 0.15733(7)
H23 H 1.3254 1.3204 0.1710
H24 H 1.3407 1.2340 0.1366
C17 C 1.0916(3) 1.2764(3) 0.14968(7)
H25 H 1.0602 1.3467 0.1323
C18 C 0.7079(4) 0.8473(3) 0.23091(7)
H26 H 0.8058 0.8914 0.2414
H27 H 0.6605 0.7769 0.2460
H28 H 0.6231 0.9190 0.2261
O3 O 0.8603(2) 0.5350(2) 0.11965(4)
H29 H 0.8048 0.4962 0.1349
O4 O 0.3467(2) 1.15179(19) 0.01068(4)
C19 C 0.8310(3) 0.7176(3) 0.06075(7)
H30 H 0.8887 0.7687 0.0426
H31 H 0.8605 0.7644 0.0820
C20 C 0.8963(3) 0.5667(3) 0.06163(7)
H32 H 0.8784 0.5225 0.0396
H33 H 1.0186 0.5676 0.0661
C21 C 0.8085(3) 0.4803(3) 0.08807(7)
H34 H 0.8450 0.3802 0.0862
C22 C 0.6177(3) 0.4888(3) 0.08402(7)
H35 H 0.5848 0.4412 0.0631
H36 H 0.5632 0.4387 0.1027
C23 C 0.5555(3) 0.6390(3) 0.08321(7)
H37 H 0.5909 0.6820 0.1048
C24 C 0.3638(3) 0.6490(3) 0.08226(7)
H38 H 0.3219 0.6107 0.0609
H39 H 0.3155 0.5922 0.1005
C25 C 0.3073(3) 0.8003(3) 0.08587(7)
H40 H 0.3355 0.8336 0.1085
H41 H 0.1836 0.8047 0.0834
C26 C 0.3881(3) 0.8980(3) 0.06043(7)
H42 H 0.3460 0.8708 0.0379
C27 C 0.5822(3) 0.8836(3) 0.06031(7)
H43 H 0.6214 0.9123 0.0829
C28 C 0.6391(3) 0.7289(3) 0.05544(6)
C29 C 0.6621(3) 0.9866(3) 0.03561(7)
H44 H 0.7859 0.9764 0.0364
H45 H 0.6247 0.9628 0.0128
C30 C 0.6153(3) 1.1393(3) 0.04319(7)
H46 H 0.6613 1.1675 0.0651
H47 H 0.6624 1.2023 0.0260
C31 C 0.4277(3) 1.1489(3) 0.04346(7)
C32 C 0.3386(3) 1.0508(3) 0.06661(7)
H48 H 0.3722 1.0755 0.0899
C33 C 0.1509(3) 1.0898(3) 0.06222(7)
H49 H 0.0983 1.0317 0.0447
H50 H 0.0885 1.0760 0.0833
C34 C 0.1516(4) 1.2453(3) 0.05219(7)
H51 H 0.0556 1.2671 0.0374
H52 H 0.1456 1.3066 0.0720
C35 C 0.3155(4) 1.2642(3) 0.03430(7)
H53 H 0.3614 1.3604 0.0302
C36 C 0.5942(3) 0.6749(3) 0.02056(7)
H54 H 0.6512 0.7324 0.0038
H55 H 0.4724 0.6809 0.0173
H56 H 0.6303 0.5770 0.0184
loop_
_geom_bond_atom_site_label_1
_geom_bond_atom_site_label_2
_geom_bond_site_symmetry_1
_geom_bond_site_symmetry_2
O1 H1 1_555 1_555
O2 C13 1_555 1_555
C1 H2 1_555 1_555
H3 C1 1_555 1_555
C2 C1 1_555 1_555
H4 C2 1_555 1_555
H5 C2 1_555 1_555
C3 O1 1_555 1_555
H6 C3 1_555 1_555
C4 C3 1_555 1_555
H7 C4 1_555 1_555
H8 C4 1_555 1_555
C5 C4 1_555 1_555
H9 C5 1_555 1_555
C6 C5 1_555 1_555
H10 C6 1_555 1_555
H11 C6 1_555 1_555
C7 C6 1_555 1_555
H12 C7 1_555 1_555
H13 C7 1_555 1_555
C8 C7 1_555 1_555
H14 C8 1_555 1_555
C9 C8 1_555 1_555
H15 C9 1_555 1_555
C10 C1 1_555 1_555
C11 C9 1_555 1_555
H16 C11 1_555 1_555
H17 C11 1_555 1_555
C12 C11 1_555 1_555
H18 C12 1_555 1_555
H19 C12 1_555 1_555
C13 C12 1_555 1_555
C14 C8 1_555 1_555
H20 C14 1_555 1_555
C15 C14 1_555 1_555
H21 C15 1_555 1_555
H22 C15 1_555 1_555
C16 C15 1_555 1_555
H23 C16 1_555 1_555
H24 C16 1_555 1_555
C17 O2 1_555 1_555
H25 C17 1_555 1_555
C18 C10 1_555 1_555
H26 C18 1_555 1_555
H27 C18 1_555 1_555
H28 C18 1_555 1_555
O3 H29 1_555 1_555
O4 C31 1_555 1_555
C19 H30 1_555 1_555
H31 C19 1_555 1_555
C20 C19 1_555 1_555
H32 C20 1_555 1_555
H33 C20 1_555 1_555
C21 O3 1_555 1_555
H34 C21 1_555 1_555
C22 C21 1_555 1_555
H35 C22 1_555 1_555
H36 C22 1_555 1_555
C23 C22 1_555 1_555
H37 C23 1_555 1_555
C24 C23 1_555 1_555
H38 C24 1_555 1_555
H39 C24 1_555 1_555
C25 C24 1_555 1_555
H40 C25 1_555 1_555
H41 C25 1_555 1_555
C26 C25 1_555 1_555
H42 C26 1_555 1_555
C27 C26 1_555 1_555
H43 C27 1_555 1_555
C28 C19 1_555 1_555
C29 C27 1_555 1_555
H44 C29 1_555 1_555
H45 C29 1_555 1_555
C30 C29 1_555 1_555
H46 C30 1_555 1_555
H47 C30 1_555 1_555
C31 C30 1_555 1_555
C32 C26 1_555 1_555
H48 C32 1_555 1_555
C33 C32 1_555 1_555
H49 C33 1_555 1_555
H50 C33 1_555 1_555
C34 C33 1_555 1_555
H51 C34 1_555 1_555
H52 C34 1_555 1_555
C35 O4 1_555 1_555
H53 C35 1_555 1_555
C36 C28 1_555 1_555
H54 C36 1_555 1_555
H55 C36 1_555 1_555
H56 C36 1_555 1_555
C2 C3 1_555 1_555
C5 C10 1_555 1_555
C9 C10 1_555 1_555
C13 C14 1_555 1_555
C13 C17 1_555 1_555
C16 C17 1_555 1_555
C20 C21 1_555 1_555
C23 C28 1_555 1_555
C27 C28 1_555 1_555
C31 C32 1_555 1_555
C31 C35 1_555 1_555
C34 C35 1_555 1_555

#END
