
#######################################################################
#
#                 Cambridge Crystallographic Data Centre
#                                CCDC 
#
#######################################################################
#
# If this CIF has been generated from an entry in the Cambridge 
# Structural Database, then it will include bibliographic, chemical, 
# crystal, experimental, refinement or atomic coordinate data resulting 
# from the CCDC's data processing and validation procedures.
#
#######################################################################

data_PESNUZ01
_chemical_formula_moiety         'C42 H36 N2 O2 S1'
_chemical_name_systematic        
10,10'-[sulfonylbis(3,1-phenylene)]bis(9,9-dimethyl-9,10-dihydroacridine)
_symmetry_cell_setting           monoclinic
_symmetry_space_group_name_H-M   'P 21/n'
_symmetry_Int_Tables_number      14
_space_group_name_Hall           '-P 2yn'
loop_
_symmetry_equiv_pos_site_id
_symmetry_equiv_pos_as_xyz
1 x,y,z
2 1/2-x,1/2+y,1/2-z
3 -x,-y,-z
4 1/2+x,1/2-y,1/2+z
_cell_length_a                   11.9209(13)
_cell_length_b                   13.8313(16)
_cell_length_c                   20.229(2)
_cell_angle_alpha                90
_cell_angle_beta                 94.709(4)
_cell_angle_gamma                90
_cell_volume                     3324.13
_exptl_crystal_colour            colorless
_exptl_crystal_description       Block
_cell_formula_units_Z            4
loop_
_atom_site_label
_atom_site_type_symbol
_atom_site_fract_x
_atom_site_fract_y
_atom_site_fract_z
C1 C 0.7550(3) 0.4507(2) 0.91076(15)
C2 C 0.7898(3) 0.4296(3) 0.97644(19)
H1 H 0.8647 0.4395 0.9915
C3 C 0.7173(4) 0.3949(3) 1.01962(19)
H2 H 0.7435 0.3813 1.0632
C4 C 0.6061(4) 0.3798(3) 0.9992(2)
H3 H 0.5570 0.3551 1.0285
C5 C 0.5685(3) 0.4014(3) 0.93541(17)
H4 H 0.4931 0.3918 0.9213
C6 C 0.6411(2) 0.4376(2) 0.89116(15)
C7 C 0.6633(3) 0.5234(2) 0.78767(14)
C8 C 0.6100(3) 0.5706(2) 0.73267(16)
H5 H 0.5337 0.5606 0.7213
C9 C 0.6700(4) 0.6315(3) 0.69537(17)
H6 H 0.6348 0.6616 0.6581
C10 C 0.7828(4) 0.6481(3) 0.7131(2)
H7 H 0.8233 0.6905 0.6885
C11 C 0.8342(3) 0.6017(3) 0.76691(19)
H8 H 0.9103 0.6131 0.7781
C12 C 0.7775(2) 0.5382(2) 0.80567(15)
C13 C 0.8370(2) 0.4799(2) 0.86070(16)
C14 C 0.8824(3) 0.3860(3) 0.83036(19)
H9 H 0.8212 0.3510 0.8078
H10 H 0.9179 0.3465 0.8651
H11 H 0.9364 0.4025 0.7995
C15 C 0.9376(3) 0.5352(3) 0.8949(2)
H12 H 0.9861 0.5565 0.8622
H13 H 0.9787 0.4935 0.9261
H14 H 0.9107 0.5903 0.9178
C16 C 0.4852(2) 0.4444(2) 0.80521(15)
C17 C 0.4033(3) 0.5072(3) 0.82425(17)
H15 H 0.4238 0.5603 0.8507
C18 C 0.2912(3) 0.4913(3) 0.80417(17)
H16 H 0.2365 0.5327 0.8182
C19 C 0.2603(2) 0.4150(2) 0.76379(16)
H17 H 0.1850 0.4044 0.7500
C20 C 0.3426(2) 0.3540(2) 0.74381(13)
C21 C 0.4548(2) 0.3674(2) 0.76502(14)
H18 H 0.5091 0.3246 0.7521
C22 C 0.3391(2) 0.3150(2) 0.61058(13)
C23 C 0.4342(2) 0.2848(2) 0.58189(16)
H19 H 0.4795 0.2362 0.6016
C24 C 0.4610(3) 0.3272(3) 0.52401(18)
H20 H 0.5241 0.3064 0.5038
C25 C 0.3952(3) 0.4006(3) 0.49554(15)
H21 H 0.4147 0.4294 0.4565
C26 C 0.3006(2) 0.4318(2) 0.52454(14)
C27 C 0.2706(2) 0.3882(2) 0.58196(14)
H22 H 0.2060 0.4073 0.6012
C28 C 0.2521(2) 0.6044(2) 0.51667(14)
C29 C 0.3062(2) 0.6237(3) 0.57977(15)
H23 H 0.3341 0.5732 0.6066
C30 C 0.3177(3) 0.7180(3) 0.60164(18)
H24 H 0.3539 0.7308 0.6432
C31 C 0.2756(3) 0.7934(3) 0.5623(2)
H25 H 0.2818 0.8568 0.5774
C32 C 0.2243(3) 0.7734(3) 0.50012(18)
H26 H 0.1965 0.8245 0.4738
C33 C 0.2124(2) 0.6803(2) 0.47541(15)
C34 C 0.1675(2) 0.6564(2) 0.40477(14)
C35 C 0.1030(2) 0.5617(2) 0.40527(13)
C36 C 0.1435(2) 0.4881(2) 0.44807(14)
C37 C 0.0935(2) 0.3978(2) 0.44568(15)
H27 H 0.1213 0.3492 0.4743
C38 C 0.0025(2) 0.3795(3) 0.40098(16)
H28 H -0.0307 0.3187 0.3993
C39 C -0.0392(2) 0.4514(3) 0.35884(16)
H29 H -0.1008 0.4394 0.3287
C40 C 0.0107(2) 0.5405(3) 0.36149(15)
H30 H -0.0184 0.5886 0.3329
C41 C 0.2697(2) 0.6411(2) 0.36328(15)
H31 H 0.3193 0.5937 0.3846
H32 H 0.3093 0.7011 0.3599
H33 H 0.2438 0.6189 0.3197
C42 C 0.0960(3) 0.7382(2) 0.37271(17)
H34 H 0.0740 0.7220 0.3273
H35 H 0.1391 0.7969 0.3744
H36 H 0.0301 0.7469 0.3963
N1 N 0.60174(19) 0.45998(19) 0.82567(12)
N2 N 0.23558(19) 0.50928(18) 0.49440(11)
O1 O 0.37916(15) 0.18123(14) 0.69901(10)
O2 O 0.18587(14) 0.24841(15) 0.68334(10)
S1 S 0.30528(6) 0.26243(5) 0.68579(4)
loop_
_geom_bond_atom_site_label_1
_geom_bond_atom_site_label_2
_geom_bond_site_symmetry_1
_geom_bond_site_symmetry_2
C1 C2 1_555 1_555
C2 H1 1_555 1_555
C3 C2 1_555 1_555
H2 C3 1_555 1_555
C4 C3 1_555 1_555
H3 C4 1_555 1_555
C5 C4 1_555 1_555
H4 C5 1_555 1_555
C6 C1 1_555 1_555
C7 C8 1_555 1_555
C8 H5 1_555 1_555
C9 C8 1_555 1_555
H6 C9 1_555 1_555
C10 C9 1_555 1_555
H7 C10 1_555 1_555
C11 C10 1_555 1_555
H8 C11 1_555 1_555
C12 C7 1_555 1_555
C13 C1 1_555 1_555
C14 C13 1_555 1_555
H9 C14 1_555 1_555
H10 C14 1_555 1_555
H11 C14 1_555 1_555
C15 C13 1_555 1_555
H12 C15 1_555 1_555
H13 C15 1_555 1_555
H14 C15 1_555 1_555
C16 C17 1_555 1_555
C17 H15 1_555 1_555
C18 C17 1_555 1_555
H16 C18 1_555 1_555
C19 C18 1_555 1_555
H17 C19 1_555 1_555
C20 C19 1_555 1_555
C21 C16 1_555 1_555
H18 C21 1_555 1_555
C22 C23 1_555 1_555
C23 H19 1_555 1_555
C24 C23 1_555 1_555
H20 C24 1_555 1_555
C25 C24 1_555 1_555
H21 C25 1_555 1_555
C26 C25 1_555 1_555
C27 C22 1_555 1_555
H22 C27 1_555 1_555
C28 C29 1_555 1_555
C29 H23 1_555 1_555
C30 C29 1_555 1_555
H24 C30 1_555 1_555
C31 C30 1_555 1_555
H25 C31 1_555 1_555
C32 C31 1_555 1_555
H26 C32 1_555 1_555
C33 C28 1_555 1_555
C34 C33 1_555 1_555
C35 C34 1_555 1_555
C36 C35 1_555 1_555
C37 C36 1_555 1_555
H27 C37 1_555 1_555
C38 C37 1_555 1_555
H28 C38 1_555 1_555
C39 C38 1_555 1_555
H29 C39 1_555 1_555
C40 C35 1_555 1_555
H30 C40 1_555 1_555
C41 C34 1_555 1_555
H31 C41 1_555 1_555
H32 C41 1_555 1_555
H33 C41 1_555 1_555
C42 C34 1_555 1_555
H34 C42 1_555 1_555
H35 C42 1_555 1_555
H36 C42 1_555 1_555
N1 C6 1_555 1_555
N2 C26 1_555 1_555
O1 S1 1_555 1_555
O2 S1 1_555 1_555
S1 C20 1_555 1_555
C5 C6 1_555 1_555
C7 N1 1_555 1_555
C11 C12 1_555 1_555
C12 C13 1_555 1_555
C16 N1 1_555 1_555
C20 C21 1_555 1_555
C22 S1 1_555 1_555
C26 C27 1_555 1_555
C28 N2 1_555 1_555
C32 C33 1_555 1_555
C36 N2 1_555 1_555
C39 C40 1_555 1_555

#END
