
#######################################################################
#
#                 Cambridge Crystallographic Data Centre
#                                CCDC 
#
#######################################################################
#
# If this CIF has been generated from an entry in the Cambridge 
# Structural Database, then it will include bibliographic, chemical, 
# crystal, experimental, refinement or atomic coordinate data resulting 
# from the CCDC's data processing and validation procedures.
#
#######################################################################

data_PESTEN
_chemical_formula_moiety         'C27 H28 N1 O9 1+,Cl1 1-'
_chemical_name_systematic        
'tris(2-(4-Hydroxybenzoyloxy)ethyl)ammonium chloride'
_symmetry_cell_setting           monoclinic
_symmetry_space_group_name_H-M   'P 21/c'
_symmetry_Int_Tables_number      14
_space_group_name_Hall           '-P 2ybc'
loop_
_symmetry_equiv_pos_site_id
_symmetry_equiv_pos_as_xyz
1 x,y,z
2 -x,1/2+y,1/2-z
3 -x,-y,-z
4 x,1/2-y,1/2+z
_cell_length_a                   11.963(2)
_cell_length_b                   15.857(3)
_cell_length_c                   14.939(2)
_cell_angle_alpha                90
_cell_angle_beta                 113.603(3)
_cell_angle_gamma                90
_cell_volume                     2596.81
_exptl_crystal_colour            'pale brown'
_exptl_crystal_description       block
_cell_formula_units_Z            4
_exptl_crystal_recrystallization_method methanol
loop_
_atom_site_label
_atom_site_type_symbol
_atom_site_fract_x
_atom_site_fract_y
_atom_site_fract_z
C1 C 0.3561(3) 0.8612(2) 0.5438(2)
H1 H 0.4432 0.8516 0.5773
H2 H 0.3451 0.9158 0.5122
C2 C 0.3018(3) 0.8647(2) 0.6188(2)
H3 H 0.3190 0.8132 0.6572
H4 H 0.3338 0.9123 0.6625
C3 C 0.1114(3) 0.8903(2) 0.6194(2)
C4 C -0.0187(3) 0.8991(2) 0.5629(2)
C5 C -0.0972(3) 0.9081(2) 0.6118(2)
H5 H -0.0639 0.9084 0.6798
C6 C -0.2167(3) 0.9162(2) 0.5643(2)
H6 H -0.2643 0.9245 0.5998
C7 C -0.2722(3) 0.9126(2) 0.4648(2)
C8 C -0.1981(3) 0.9011(2) 0.4153(2)
H7 H -0.2333 0.8980 0.3475
C9 C -0.0751(3) 0.8943(2) 0.4625(2)
H8 H -0.0281 0.8862 0.4265
C10 C 0.3222(3) 0.7069(2) 0.5065(2)
H9 H 0.3004 0.7080 0.5624
H10 H 0.4090 0.6954 0.5313
C11 C 0.2582(3) 0.6332(2) 0.4451(2)
H11 H 0.2591 0.6396 0.3808
H12 H 0.3035 0.5824 0.4739
C12 C 0.0534(3) 0.6771(2) 0.3817(2)
C13 C -0.0749(3) 0.6519(2) 0.3523(2)
C14 C -0.1109(3) 0.5752(2) 0.3758(2)
H13 H -0.0520 0.5357 0.4106
C15 C -0.2291(3) 0.5565(2) 0.3496(2)
H14 H -0.2507 0.5043 0.3661
C16 C -0.3194(3) 0.6136(2) 0.2983(2)
C17 C -0.2844(3) 0.6899(2) 0.2757(2)
H15 H -0.3440 0.7298 0.2434
C18 C -0.1656(3) 0.7097(2) 0.2987(2)
H16 H -0.1448 0.7609 0.2792
C19 C 0.3504(3) 0.8023(2) 0.3832(2)
H17 H 0.4387 0.7990 0.4123
H18 H 0.3205 0.7549 0.3390
C20 C 0.3147(3) 0.8800(2) 0.3267(2)
H19 H 0.3425 0.8789 0.2739
H20 H 0.3520 0.9280 0.3681
C21 C 0.1253(3) 0.84646(19) 0.1996(2)
C22 C -0.0088(3) 0.86123(19) 0.1643(2)
C23 C -0.0794(3) 0.81347(19) 0.0852(2)
H21 H -0.0420 0.7768 0.0570
C24 C -0.2044(3) 0.81910(19) 0.0469(2)
H22 H -0.2504 0.7864 -0.0069
C25 C -0.2627(3) 0.8723(2) 0.0870(2)
C26 C -0.1914(3) 0.9206(2) 0.1646(2)
H23 H -0.2283 0.9584 0.1918
C27 C -0.0676(3) 0.91469(19) 0.2029(2)
H24 H -0.0219 0.9477 0.2566
N1 N 0.3033(3) 0.79379(16) 0.4649(2)
H25 H 0.221(4) 0.805(2) 0.435(3)
O1 O 0.17336(19) 0.87396(14) 0.56264(15)
O2 O 0.1640(2) 0.89620(13) 0.70698(16)
O3 O -0.39394(18) 0.91901(13) 0.41889(15)
H26 H -0.417(3) 0.925(2) 0.346(3)
O4 O 0.13543(19) 0.62238(14) 0.43400(15)
O5 O 0.08046(19) 0.74396(14) 0.35480(15)
O6 O -0.4400(2) 0.59768(14) 0.27280(17)
H27 H -0.450(4) 0.562(3) 0.320(3)
O7 O 0.18233(18) 0.88773(13) 0.28695(14)
O8 O 0.17501(19) 0.80715(14) 0.16166(15)
O9 O -0.3862(2) 0.87900(14) 0.05109(16)
H28 H -0.414(3) 0.863(3) 0.102(3)
Cl1 Cl 0.48879(7) 0.42303(6) 0.30144(8)
loop_
_geom_bond_atom_site_label_1
_geom_bond_atom_site_label_2
_geom_bond_site_symmetry_1
_geom_bond_site_symmetry_2
C1 H1 1_555 1_555
H2 C1 1_555 1_555
C2 C1 1_555 1_555
H3 C2 1_555 1_555
H4 C2 1_555 1_555
C3 C4 1_555 1_555
C4 C5 1_555 1_555
C5 H5 1_555 1_555
C6 C5 1_555 1_555
H6 C6 1_555 1_555
C7 C6 1_555 1_555
C8 C7 1_555 1_555
H7 C8 1_555 1_555
C9 C4 1_555 1_555
H8 C9 1_555 1_555
C10 H9 1_555 1_555
H10 C10 1_555 1_555
C11 C10 1_555 1_555
H11 C11 1_555 1_555
H12 C11 1_555 1_555
C12 C13 1_555 1_555
C13 C14 1_555 1_555
C14 H13 1_555 1_555
C15 C14 1_555 1_555
H14 C15 1_555 1_555
C16 C15 1_555 1_555
C17 C16 1_555 1_555
H15 C17 1_555 1_555
C18 C13 1_555 1_555
H16 C18 1_555 1_555
C19 H17 1_555 1_555
H18 C19 1_555 1_555
C20 C19 1_555 1_555
H19 C20 1_555 1_555
H20 C20 1_555 1_555
C21 C22 1_555 1_555
C22 C23 1_555 1_555
C23 H21 1_555 1_555
C24 C23 1_555 1_555
H22 C24 1_555 1_555
C25 C24 1_555 1_555
C26 C25 1_555 1_555
H23 C26 1_555 1_555
C27 C22 1_555 1_555
H24 C27 1_555 1_555
N1 C1 1_555 1_555
H25 N1 1_555 1_555
O1 C2 1_555 1_555
O2 C3 1_555 1_555
O3 C7 1_555 1_555
H26 O3 1_555 1_555
O4 C11 1_555 1_555
O5 C12 1_555 1_555
O6 C16 1_555 1_555
H27 O6 1_555 1_555
O7 C20 1_555 1_555
O8 C21 1_555 1_555
O9 C25 1_555 1_555
H28 O9 1_555 1_555
C3 O1 1_555 1_555
C8 C9 1_555 1_555
C10 N1 1_555 1_555
C12 O4 1_555 1_555
C17 C18 1_555 1_555
C19 N1 1_555 1_555
C21 O7 1_555 1_555
C26 C27 1_555 1_555

#END
