
#######################################################################
#
#                 Cambridge Crystallographic Data Centre
#                                CCDC 
#
#######################################################################
#
# If this CIF has been generated from an entry in the Cambridge 
# Structural Database, then it will include bibliographic, chemical, 
# crystal, experimental, refinement or atomic coordinate data resulting 
# from the CCDC's data processing and validation procedures.
#
#######################################################################

data_PETJOP
_chemical_formula_moiety         'C9 H8 F3 N1 O1'
_chemical_name_systematic        N-Methyl-3-(trifluoromethyl)benzamide
_symmetry_cell_setting           monoclinic
_symmetry_space_group_name_H-M   'P 21/c'
_symmetry_Int_Tables_number      14
_space_group_name_Hall           '-P 2ybc'
loop_
_symmetry_equiv_pos_site_id
_symmetry_equiv_pos_as_xyz
1 x,y,z
2 -x,1/2+y,1/2-z
3 -x,-y,-z
4 x,1/2-y,1/2+z
_cell_length_a                   12.8863(6)
_cell_length_b                   10.0799(5)
_cell_length_c                   6.9999(4)
_cell_angle_alpha                90
_cell_angle_beta                 103.892(3)
_cell_angle_gamma                90
_cell_volume                     882.64
_exptl_crystal_colour            colorless
_exptl_crystal_description       Plate
_cell_formula_units_Z            4
loop_
_atom_site_label
_atom_site_type_symbol
_atom_site_fract_x
_atom_site_fract_y
_atom_site_fract_z
F1 F 0.39672(12) 1.08813(16) 0.0406(2)
F2 F 0.39270(11) 1.14874(14) 0.3330(3)
F3 F 0.50847(10) 1.00664(15) 0.2897(2)
O1 O 0.01841(11) 1.03369(14) 0.2447(2)
N1 N -0.03389(13) 0.82168(17) 0.2518(3)
H1 H -0.0175 0.7371 0.2478
C1 C 0.14882(15) 0.86878(19) 0.2335(3)
C2 C 0.22444(16) 0.9672(2) 0.2353(3)
H2 H 0.2046 1.0579 0.2380
C3 C 0.32878(15) 0.9345(2) 0.2331(3)
C4 C 0.35911(16) 0.8026(2) 0.2296(3)
H3 H 0.4306 0.7802 0.2288
C5 C 0.28380(16) 0.7040(2) 0.2273(3)
H4 H 0.3040 0.6135 0.2244
C6 C 0.17900(15) 0.7361(2) 0.2290(3)
H5 H 0.1280 0.6677 0.2270
C7 C 0.03906(15) 0.9144(2) 0.2428(3)
C8 C -0.14024(16) 0.8600(2) 0.2682(4)
H6 H -0.1355 0.9017 0.3964
H7 H -0.1858 0.7811 0.2559
H8 H -0.1711 0.9230 0.1632
C9 C 0.40585(16) 1.0441(2) 0.2245(3)
loop_
_geom_bond_atom_site_label_1
_geom_bond_atom_site_label_2
_geom_bond_site_symmetry_1
_geom_bond_site_symmetry_2
F1 C9 1_555 1_555
F2 C9 1_555 1_555
F3 C9 1_555 1_555
O1 C7 1_555 1_555
N1 H1 1_555 1_555
C1 C2 1_555 1_555
C2 H2 1_555 1_555
C3 C2 1_555 1_555
C4 C3 1_555 1_555
H3 C4 1_555 1_555
C5 C4 1_555 1_555
H4 C5 1_555 1_555
C6 C1 1_555 1_555
H5 C6 1_555 1_555
C7 N1 1_555 1_555
C8 N1 1_555 1_555
H6 C8 1_555 1_555
H7 C8 1_555 1_555
H8 C8 1_555 1_555
C9 C3 1_555 1_555
C1 C7 1_555 1_555
C5 C6 1_555 1_555

#END
