
#######################################################################
#
#                 Cambridge Crystallographic Data Centre
#                                CCDC 
#
#######################################################################
#
# If this CIF has been generated from an entry in the Cambridge 
# Structural Database, then it will include bibliographic, chemical, 
# crystal, experimental, refinement or atomic coordinate data resulting 
# from the CCDC's data processing and validation procedures.
#
#######################################################################

data_PETKUW
_chemical_formula_moiety         'C9 H8 F3 N1 O1'
_chemical_name_systematic        N-(4-(Trifluoromethyl)phenyl)acetamide
_symmetry_cell_setting           orthorhombic
_symmetry_space_group_name_H-M   'P b c a'
_symmetry_Int_Tables_number      61
_space_group_name_Hall           '-P 2ac 2ab'
loop_
_symmetry_equiv_pos_site_id
_symmetry_equiv_pos_as_xyz
1 x,y,z
2 1/2+x,1/2-y,-z
3 -x,1/2+y,1/2-z
4 1/2-x,-y,1/2+z
5 -x,-y,-z
6 1/2-x,1/2+y,z
7 x,1/2-y,1/2+z
8 1/2+x,y,1/2-z
_cell_length_a                   9.6701(5)
_cell_length_b                   9.2755(4)
_cell_length_c                   19.8362(11)
_cell_angle_alpha                90
_cell_angle_beta                 90
_cell_angle_gamma                90
_cell_volume                     1779.21
_exptl_crystal_colour            colorless
_exptl_crystal_description       plate
_cell_formula_units_Z            8
loop_
_atom_site_label
_atom_site_type_symbol
_atom_site_fract_x
_atom_site_fract_y
_atom_site_fract_z
F1 F 0.85751(12) 1.00256(13) 0.52117(6)
F2 F 0.76664(14) 0.82501(13) 0.57272(5)
F3 F 0.63755(12) 0.98481(13) 0.52786(6)
O1 O 0.96697(14) 0.50880(14) 0.26105(6)
N1 N 0.74131(13) 0.53969(16) 0.28979(7)
H1 H 0.6570 0.5126 0.2790
C1 C 0.75116(16) 0.63786(19) 0.34384(8)
C2 C 0.87589(17) 0.67739(19) 0.37388(8)
H2 H 0.9609 0.6411 0.3569
C3 C 0.87501(17) 0.77007(19) 0.42876(8)
H3 H 0.9600 0.7976 0.4490
C4 C 0.75171(16) 0.82312(18) 0.45443(8)
C5 C 0.62770(17) 0.78718(19) 0.42310(8)
H4 H 0.5431 0.8260 0.4394
C6 C 0.62742(17) 0.69514(19) 0.36833(8)
H5 H 0.5425 0.6707 0.3472
C7 C 0.84396(18) 0.48140(19) 0.25227(9)
C8 C 0.7965(2) 0.3795(2) 0.19774(9)
H6 H 0.8332 0.2829 0.2066
H7 H 0.8302 0.4135 0.1539
H8 H 0.6952 0.3760 0.1972
C9 C 0.75307(16) 0.9091(2) 0.51779(9)
loop_
_geom_bond_atom_site_label_1
_geom_bond_atom_site_label_2
_geom_bond_site_symmetry_1
_geom_bond_site_symmetry_2
F1 C9 1_555 1_555
F2 C9 1_555 1_555
F3 C9 1_555 1_555
O1 C7 1_555 1_555
N1 H1 1_555 1_555
C1 N1 1_555 1_555
C2 C1 1_555 1_555
H2 C2 1_555 1_555
C3 C2 1_555 1_555
H3 C3 1_555 1_555
C4 C3 1_555 1_555
C5 C4 1_555 1_555
H4 C5 1_555 1_555
C6 C1 1_555 1_555
H5 C6 1_555 1_555
C7 N1 1_555 1_555
C8 C7 1_555 1_555
H6 C8 1_555 1_555
H7 C8 1_555 1_555
H8 C8 1_555 1_555
C9 C4 1_555 1_555
C5 C6 1_555 1_555

#END
