
#######################################################################
#
#                 Cambridge Crystallographic Data Centre
#                                CCDC 
#
#######################################################################
#
# If this CIF has been generated from an entry in the Cambridge 
# Structural Database, then it will include bibliographic, chemical, 
# crystal, experimental, refinement or atomic coordinate data resulting 
# from the CCDC's data processing and validation procedures.
#
#######################################################################

data_PETNIM
_chemical_formula_moiety         'C21 H26 O8'
_chemical_name_systematic        
5-Acetoxy-2,2-dimethyl-3a,4a,5,6,7,12,13a,13b-octahydro(1,3)dioxolo(4,5)furo(3,2-c)(2)benzoxonine-6-carboxylate
_symmetry_cell_setting           orthorhombic
_symmetry_space_group_name_H-M   'P 21 21 21'
_symmetry_Int_Tables_number      19
_space_group_name_Hall           'P 2ac 2ab'
loop_
_symmetry_equiv_pos_site_id
_symmetry_equiv_pos_as_xyz
1 x,y,z
2 1/2-x,-y,1/2+z
3 1/2+x,1/2-y,-z
4 -x,1/2+y,1/2-z
_cell_length_a                   8.6590(12)
_cell_length_b                   11.4190(7)
_cell_length_c                   20.395(3)
_cell_angle_alpha                90
_cell_angle_beta                 90
_cell_angle_gamma                90
_cell_volume                     2016.6
_exptl_crystal_colour            colorless
_exptl_crystal_description       block
_chemical_melting_point          191deg.C
_cell_formula_units_Z            4
loop_
_atom_site_label
_atom_site_type_symbol
_atom_site_fract_x
_atom_site_fract_y
_atom_site_fract_z
O1 O 0.3947(3) 0.6822(2) 0.34146(14)
O2 O 0.2562(4) 0.6190(3) 0.43282(14)
O3 O 0.0324(4) 0.6659(3) 0.38333(13)
O4 O 0.2077(3) 0.6951(2) 0.22384(13)
O5 O 0.5474(3) 0.8842(2) 0.32487(12)
O6 O 0.7197(4) 0.8756(3) 0.24469(16)
O7 O 0.1903(5) 1.0367(3) 0.34117(18)
O8 O 0.4028(4) 1.1392(3) 0.32456(13)
C1 C 0.2834(5) 0.6020(3) 0.3652(2)
H1 H 0.3148 0.5211 0.3563
C2 C 0.1690(5) 0.7349(3) 0.28694(19)
H2 H 0.0838 0.7914 0.2857
C3 C 0.1317(5) 0.6305(4) 0.3315(2)
H3 H 0.0904 0.5636 0.3069
C4 C 0.2196(6) 0.8042(4) 0.1241(2)
C5 C 0.1189(6) 0.7364(4) 0.1693(2)
H4 H 0.0354 0.7857 0.1848
H5 H 0.0741 0.6704 0.1461
C6 C 0.2595(7) 0.7570(5) 0.0635(2)
H6 H 0.2222 0.6835 0.0519
C7 C 0.3537(7) 0.8169(5) 0.0199(2)
H7 H 0.3817 0.7827 -0.0197
C8 C 0.4058(6) 0.9282(5) 0.0357(2)
H8 H 0.4673 0.9696 0.0064
C9 C 0.2747(5) 0.9161(4) 0.14016(19)
C10 C 0.3662(6) 0.9766(4) 0.0950(2)
H9 H 0.4009 1.0515 0.1053
C11 C 0.2318(6) 0.9754(3) 0.2034(2)
H10 H 0.1425 0.9359 0.2218
H11 H 0.2018 1.0554 0.1939
C12 C 0.3622(5) 0.9774(3) 0.25602(18)
H12 H 0.4509 1.0173 0.2362
C13 C 0.3105(5) 0.7852(3) 0.3210(2)
H13 H 0.2785 0.8302 0.3595
C14 C 0.4208(4) 0.8566(3) 0.2804(2)
H14 H 0.4588 0.8101 0.2434
C15 C 0.0989(5) 0.6339(4) 0.4451(2)
C16 C 0.0274(6) 0.5222(4) 0.4692(2)
H15 H 0.0810 0.4960 0.5077
H16 H 0.0348 0.4635 0.4356
H17 H -0.0792 0.5356 0.4796
C17 C 0.0814(6) 0.7364(4) 0.4917(2)
H18 H -0.0198 0.7348 0.5109
H19 H 0.0950 0.8083 0.4680
H20 H 0.1578 0.7309 0.5256
C18 C 0.6890(5) 0.8886(4) 0.3018(2)
C19 C 0.8055(6) 0.9174(4) 0.3547(2)
H21 H 0.7757 0.8800 0.3949
H22 H 0.8090 1.0007 0.3611
H23 H 0.9057 0.8899 0.3417
C20 C 0.3092(5) 1.0520(4) 0.3121(2)
C21 C 0.3598(7) 1.2157(4) 0.3766(2)
H24 H 0.3773 1.1775 0.4179
H25 H 0.2525 1.2354 0.3726
H26 H 0.4208 1.2858 0.3744
loop_
_geom_bond_atom_site_label_1
_geom_bond_atom_site_label_2
_geom_bond_site_symmetry_1
_geom_bond_site_symmetry_2
O1 C1 1_555 1_555
O2 C1 1_555 1_555
O3 C3 1_555 1_555
O4 C2 1_555 1_555
O5 C14 1_555 1_555
O6 C18 1_555 1_555
O7 C20 1_555 1_555
O8 C20 1_555 1_555
C1 H1 1_555 1_555
C2 H2 1_555 1_555
C3 C1 1_555 1_555
H3 C3 1_555 1_555
C4 C5 1_555 1_555
C5 O4 1_555 1_555
H4 C5 1_555 1_555
H5 C5 1_555 1_555
C6 C4 1_555 1_555
H6 C6 1_555 1_555
C7 C6 1_555 1_555
H7 C7 1_555 1_555
C8 C7 1_555 1_555
H8 C8 1_555 1_555
C9 C4 1_555 1_555
C10 C8 1_555 1_555
H9 C10 1_555 1_555
C11 C9 1_555 1_555
H10 C11 1_555 1_555
H11 C11 1_555 1_555
C12 C11 1_555 1_555
H12 C12 1_555 1_555
C13 O1 1_555 1_555
H13 C13 1_555 1_555
C14 C12 1_555 1_555
H14 C14 1_555 1_555
C15 O2 1_555 1_555
C16 C15 1_555 1_555
H15 C16 1_555 1_555
H16 C16 1_555 1_555
H17 C16 1_555 1_555
C17 C15 1_555 1_555
H18 C17 1_555 1_555
H19 C17 1_555 1_555
H20 C17 1_555 1_555
C18 O5 1_555 1_555
C19 C18 1_555 1_555
H21 C19 1_555 1_555
H22 C19 1_555 1_555
H23 C19 1_555 1_555
C20 C12 1_555 1_555
C21 O8 1_555 1_555
H24 C21 1_555 1_555
H25 C21 1_555 1_555
H26 C21 1_555 1_555
O3 C15 1_555 1_555
C2 C3 1_555 1_555
C2 C13 1_555 1_555
C9 C10 1_555 1_555
C13 C14 1_555 1_555

#END
