
#######################################################################
#
#                 Cambridge Crystallographic Data Centre
#                                CCDC 
#
#######################################################################
#
# If this CIF has been generated from an entry in the Cambridge 
# Structural Database, then it will include bibliographic, chemical, 
# crystal, experimental, refinement or atomic coordinate data resulting 
# from the CCDC's data processing and validation procedures.
#
#######################################################################

data_PETRUD
_chemical_formula_moiety         'C25 H20 O6'
_chemical_name_systematic        
'Methyl (benzyloxy)(2-hydroxy-1,3-dioxo-2,3-dihydro-1H-inden-2-yl)phenylacetate'
_symmetry_cell_setting           monoclinic
_symmetry_space_group_name_H-M   'P 21/n'
_symmetry_Int_Tables_number      14
_space_group_name_Hall           '-P 2yn'
loop_
_symmetry_equiv_pos_site_id
_symmetry_equiv_pos_as_xyz
1 x,y,z
2 1/2-x,1/2+y,1/2-z
3 -x,-y,-z
4 1/2+x,1/2-y,1/2+z
_cell_length_a                   9.758(3)
_cell_length_b                   18.324(6)
_cell_length_c                   11.628(4)
_cell_angle_alpha                90
_cell_angle_beta                 97.169(14)
_cell_angle_gamma                90
_cell_volume                     2062.9
_cell_formula_units_Z            4
loop_
_atom_site_label
_atom_site_type_symbol
_atom_site_fract_x
_atom_site_fract_y
_atom_site_fract_z
O1 O 0.24497(10) 0.24296(5) 0.37073(9)
O2 O 0.59736(12) 0.16864(7) 0.36031(11)
O3 O 0.19856(13) 0.18458(7) 0.09475(11)
O4 O 0.38512(14) 0.08514(6) 0.23959(10)
O5 O 0.02074(11) 0.16833(7) 0.30933(11)
O6 O 0.12494(13) 0.06139(7) 0.29997(14)
C1 C 0.50064(16) 0.19549(9) 0.30026(13)
C2 C 0.49762(16) 0.26600(9) 0.23869(13)
C3 C 0.59304(19) 0.32227(11) 0.25302(17)
H1 H 0.6721 0.3189 0.3064
C4 C 0.5663(2) 0.38359(12) 0.1850(2)
H2 H 0.6276 0.4226 0.1939
C5 C 0.4503(2) 0.38821(11) 0.10400(19)
H3 H 0.4359 0.4302 0.0592
C6 C 0.3553(2) 0.33215(10) 0.08775(16)
H4 H 0.2778 0.3354 0.0327
C7 C 0.38066(16) 0.27047(9) 0.15736(13)
C8 C 0.29657(16) 0.20360(9) 0.16129(13)
C9 C 0.35966(15) 0.15791(8) 0.26753(13)
C10 C 0.26429(15) 0.16627(8) 0.36714(13)
C11 C 0.33586(15) 0.13498(8) 0.48160(13)
C12 C 0.33131(17) 0.06163(9) 0.51045(14)
H5 H 0.2786 0.0296 0.4612
C13 C 0.40482(18) 0.03562(10) 0.61234(16)
H6 H 0.4009 -0.0137 0.6308
C14 C 0.48310(19) 0.08233(11) 0.68588(16)
H7 H 0.5316 0.0649 0.7543
C15 C 0.48934(19) 0.15484(11) 0.65798(15)
H8 H 0.5425 0.1865 0.7077
C16 C 0.41735(17) 0.18145(9) 0.55669(14)
H9 H 0.4233 0.2307 0.5385
C17 C 0.16320(17) 0.27351(9) 0.45371(15)
H10 H 0.1810 0.2475 0.5267
H11 H 0.0658 0.2689 0.4255
C18 C 0.20056(15) 0.35250(8) 0.47129(12)
C19 C 0.30618(18) 0.38572(10) 0.42191(15)
H12 H 0.3576 0.3586 0.3749
C20 C 0.3364(2) 0.45861(11) 0.44146(17)
H13 H 0.4071 0.4803 0.4068
C21 C 0.2628(2) 0.49940(10) 0.51172(17)
H14 H 0.2843 0.5483 0.5257
C22 C 0.1572(2) 0.46726(11) 0.56106(17)
H15 H 0.1069 0.4944 0.6088
C23 C 0.12568(18) 0.39464(10) 0.53995(15)
H16 H 0.0527 0.3737 0.5725
C24 C 0.12900(16) 0.12528(9) 0.32357(14)
C25 C -0.10697(18) 0.13503(14) 0.2572(2)
H17 H -0.0959 0.1180 0.1808
H18 H -0.1800 0.1704 0.2523
H19 H -0.1295 0.0946 0.3039
H20 H 0.306(3) 0.0639(12) 0.232(2)
loop_
_geom_bond_atom_site_label_1
_geom_bond_atom_site_label_2
_geom_bond_site_symmetry_1
_geom_bond_site_symmetry_2
O1 C10 1_555 1_555
O2 C1 1_555 1_555
O3 C8 1_555 1_555
O4 C9 1_555 1_555
O5 C24 1_555 1_555
O6 C24 1_555 1_555
C1 C2 1_555 1_555
C2 C3 1_555 1_555
C3 H1 1_555 1_555
C4 C3 1_555 1_555
H2 C4 1_555 1_555
C5 C4 1_555 1_555
H3 C5 1_555 1_555
C6 C5 1_555 1_555
H4 C6 1_555 1_555
C7 C2 1_555 1_555
C8 C7 1_555 1_555
C9 C1 1_555 1_555
C10 C9 1_555 1_555
C11 C10 1_555 1_555
C12 C11 1_555 1_555
H5 C12 1_555 1_555
C13 C12 1_555 1_555
H6 C13 1_555 1_555
C14 C13 1_555 1_555
H7 C14 1_555 1_555
C15 C14 1_555 1_555
H8 C15 1_555 1_555
C16 C11 1_555 1_555
H9 C16 1_555 1_555
C17 O1 1_555 1_555
H10 C17 1_555 1_555
H11 C17 1_555 1_555
C18 C17 1_555 1_555
C19 C18 1_555 1_555
H12 C19 1_555 1_555
C20 C19 1_555 1_555
H13 C20 1_555 1_555
C21 C20 1_555 1_555
H14 C21 1_555 1_555
C22 C21 1_555 1_555
H15 C22 1_555 1_555
C23 C18 1_555 1_555
H16 C23 1_555 1_555
C24 C10 1_555 1_555
C25 O5 1_555 1_555
H17 C25 1_555 1_555
H18 C25 1_555 1_555
H19 C25 1_555 1_555
H20 O4 1_555 1_555
C6 C7 1_555 1_555
C8 C9 1_555 1_555
C15 C16 1_555 1_555
C22 C23 1_555 1_555

#END
