
#######################################################################
#
#                 Cambridge Crystallographic Data Centre
#                                CCDC 
#
#######################################################################
#
# If this CIF has been generated from an entry in the Cambridge 
# Structural Database, then it will include bibliographic, chemical, 
# crystal, experimental, refinement or atomic coordinate data resulting 
# from the CCDC's data processing and validation procedures.
#
#######################################################################

data_PEVLIL10
_chemical_formula_moiety         'C68 H66 Li2 N8 O2 P4 S4'
_chemical_name_systematic        
bis((\m~2~-1,3,3,7,7-Pentaphenyl-1,5,2,4,6,8,3,7-dithia-tetra-azadiphosphacyclo-octane)-tetrahydrofuran-lithium)
_symmetry_cell_setting           triclinic
_symmetry_space_group_name_H-M   'P -1'
_symmetry_Int_Tables_number      2
_space_group_name_Hall           '-P 1'
loop_
_symmetry_equiv_pos_site_id
_symmetry_equiv_pos_as_xyz
1 x,y,z
2 -x,-y,-z
_cell_length_a                   13.189(10)
_cell_length_b                   13.355(8)
_cell_length_c                   11.760(5)
_cell_angle_alpha                90.67(4)
_cell_angle_beta                 114.15(4)
_cell_angle_gamma                114.05(5)
_cell_volume                     1685.99
_exptl_crystal_colour            colorless
_cell_formula_units_Z            1
loop_
_atom_site_label
_atom_site_type_symbol
_atom_site_fract_x
_atom_site_fract_y
_atom_site_fract_z
S1 S -0.0092(3) 0.1680(3) -0.0155(3)
S2 S -0.1285(3) 0.2195(3) -0.3025(3)
P1 P 0.1212(3) 0.2921(3) -0.1375(3)
P2 P -0.2233(3) 0.0216(3) -0.2239(3)
O1 O 0.0766(10) -0.0358(9) -0.2175(9)
N1 N 0.1147(9) 0.2003(8) -0.0485(9)
N2 N -0.1048(8) 0.0265(7) -0.0951(9)
N3 N -0.2022(9) 0.0846(7) -0.3339(8)
N4 N 0.0116(9) 0.2621(8) -0.2813(9)
C1 C 0.2547(12) 0.3263(10) -0.1597(13)
C2 C 0.3651(13) 0.3367(11) -0.0588(13)
C3 C 0.4721(15) 0.3646(13) -0.0698(17)
C4 C 0.4776(17) 0.3828(14) -0.1795(22)
C5 C 0.3695(18) 0.3708(15) -0.2797(18)
C6 C 0.2604(14) 0.3429(12) -0.2696(15)
C7 C 0.1477(12) 0.4233(10) -0.0530(13)
C8 C 0.1419(15) 0.5103(12) -0.1146(14)
C9 C 0.1560(18) 0.6053(13) -0.0568(19)
C10 C 0.1738(16) 0.6176(14) 0.0665(20)
C11 C 0.1823(17) 0.5345(14) 0.1331(16)
C12 C 0.1695(13) 0.4414(11) 0.0758(14)
C13 C -0.3176(11) -0.1255(10) -0.3054(12)
C14 C -0.3189(14) -0.2103(12) -0.2437(13)
C15 C -0.4017(16) -0.3221(11) -0.3048(15)
C16 C -0.4813(16) -0.3460(12) -0.4296(15)
C17 C -0.4818(16) -0.2632(12) -0.4941(13)
C18 C -0.4003(15) -0.1516(11) -0.4317(13)
C19 C -0.3173(11) 0.0635(9) -0.1756(12)
C20 C -0.4024(13) 0.0923(11) -0.2599(13)
C21 C -0.4756(13) 0.1207(12) -0.2266(14)
C22 C -0.4648(14) 0.1241(12) -0.1038(16)
C23 C -0.3753(13) 0.0956(13) -0.0165(14)
C24 C -0.3068(12) 0.0648(11) -0.0540(13)
C25 C -0.1943(12) 0.2497(10) -0.4587(12)
C26 C -0.3030(12) 0.1725(11) -0.5565(13)
C27 C -0.3567(13) 0.2011(14) -0.6729(13)
C28 C -0.3009(15) 0.3092(14) -0.6835(15)
C29 C -0.1936(18) 0.3878(15) -0.5859(17)
C30 C -0.1401(16) 0.3599(13) -0.4737(16)
C31 C 0.146(2) 0.026(2) -0.277(2)
C32 C 0.142(3) -0.045(2) -0.366(2)
C33 C 0.033(3) -0.156(2) -0.389(3)
C34 C -0.012(3) -0.140(2) -0.304(2)
Li1 Li 0.056(2) 0.028(2) -0.078(2)
H1 H 0.3656 0.3238 0.0207
H2 H 0.5444 0.3713 0.0021
H3 H 0.5520 0.4028 -0.1873
H4 H 0.3693 0.3819 -0.3595
H5 H 0.1881 0.3355 -0.3422
H6 H 0.1273 0.5021 -0.2011
H7 H 0.1538 0.6641 -0.1011
H8 H 0.1803 0.6837 0.1066
H9 H 0.1975 0.5443 0.2197
H10 H 0.1749 0.3844 0.1223
H11 H -0.2617 -0.1932 -0.1560
H12 H -0.4019 -0.3805 -0.2593
H13 H -0.5379 -0.4220 -0.4725
H14 H -0.5376 -0.2812 -0.5824
H15 H -0.4023 -0.0933 -0.4769
H16 H -0.4108 0.0925 -0.3441
H17 H -0.5357 0.1387 -0.2885
H18 H -0.5156 0.1447 -0.0800
H19 H -0.3632 0.0982 0.0691
H20 H -0.2490 0.0430 0.0055
H21 H -0.3428 0.0985 -0.5455
H22 H -0.4301 0.1464 -0.7426
H23 H -0.3378 0.3304 -0.7610
H24 H -0.1561 0.4625 -0.5963
H25 H -0.0658 0.4151 -0.4054
H26 H 0.1129 0.0741 -0.3186
H27 H 0.2303 0.0699 -0.2153
H28 H 0.1295 -0.0179 -0.4425
H29 H 0.2175 -0.0516 -0.3339
H30 H -0.0292 -0.1768 -0.4745
H31 H 0.0601 -0.2133 -0.3713
H32 H -0.0220 -0.1994 -0.2587
H33 H -0.0897 -0.1395 -0.3501
Li1A Li -0.056(2) -0.028(2) 0.078(2)
N2A N 0.1048(8) -0.0265(7) 0.0951(9)
O1A O -0.0766(10) 0.0358(9) 0.2175(9)
N1A N -0.1147(9) -0.2003(8) 0.0485(9)
S1A S 0.0092(3) -0.1680(3) 0.0155(3)
P2A P 0.2233(3) -0.0216(3) 0.2239(3)
C31A C -0.146(2) -0.026(2) 0.277(2)
C34A C 0.012(3) 0.140(2) 0.304(2)
P1A P -0.1212(3) -0.2921(3) 0.1375(3)
N3A N 0.2022(9) -0.0846(7) 0.3339(8)
C13A C 0.3176(11) 0.1255(10) 0.3054(12)
C19A C 0.3173(11) -0.0635(9) 0.1756(12)
C32A C -0.142(3) 0.045(2) 0.366(2)
H26A H -0.1129 -0.0741 0.3186
H27A H -0.2303 -0.0699 0.2153
C33A C -0.033(3) 0.156(2) 0.389(3)
H32A H 0.0220 0.1994 0.2587
H33A H 0.0897 0.1395 0.3501
N4A N -0.0116(9) -0.2621(8) 0.2813(9)
C1A C -0.2547(12) -0.3263(10) 0.1597(13)
C7A C -0.1477(12) -0.4233(10) 0.0530(13)
S2A S 0.1285(3) -0.2195(3) 0.3025(3)
C14A C 0.3189(14) 0.2103(12) 0.2437(13)
C18A C 0.4003(15) 0.1516(11) 0.4317(13)
C20A C 0.4024(13) -0.0923(11) 0.2599(13)
C24A C 0.3068(12) -0.0648(11) 0.0540(13)
H28A H -0.1295 0.0179 0.4425
H29A H -0.2175 0.0516 0.3339
H30A H 0.0292 0.1768 0.4745
H31A H -0.0601 0.2133 0.3713
C2A C -0.3651(13) -0.3367(11) 0.0588(13)
C6A C -0.2604(14) -0.3429(12) 0.2696(15)
C8A C -0.1419(15) -0.5103(12) 0.1146(14)
C12A C -0.1695(13) -0.4414(11) -0.0758(14)
C25A C 0.1943(12) -0.2497(10) 0.4587(12)
C15A C 0.4017(16) 0.3221(11) 0.3048(15)
H11A H 0.2617 0.1932 0.1560
C17A C 0.4818(16) 0.2632(12) 0.4941(13)
H15A H 0.4023 0.0933 0.4769
C21A C 0.4756(13) -0.1207(12) 0.2266(14)
H16A H 0.4108 -0.0925 0.3441
C23A C 0.3753(13) -0.0956(13) 0.0165(14)
H20A H 0.2490 -0.0430 -0.0055
C3A C -0.4721(15) -0.3646(13) 0.0698(17)
H1A H -0.3656 -0.3238 -0.0207
C5A C -0.3695(18) -0.3708(15) 0.2797(18)
H5A H -0.1881 -0.3355 0.3422
C9A C -0.1560(18) -0.6053(13) 0.0568(19)
H6A H -0.1273 -0.5021 0.2011
C11A C -0.1823(17) -0.5345(14) -0.1331(16)
H10A H -0.1749 -0.3844 -0.1223
C26A C 0.3030(12) -0.1725(11) 0.5565(13)
C30A C 0.1401(16) -0.3599(13) 0.4737(16)
C16A C 0.4813(16) 0.3460(12) 0.4296(15)
H12A H 0.4019 0.3805 0.2593
H14A H 0.5376 0.2812 0.5824
C22A C 0.4648(14) -0.1241(12) 0.1038(16)
H17A H 0.5357 -0.1387 0.2885
H19A H 0.3632 -0.0982 -0.0691
C4A C -0.4776(17) -0.3828(14) 0.1795(22)
H2A H -0.5444 -0.3713 -0.0021
H4A H -0.3693 -0.3819 0.3595
C10A C -0.1738(16) -0.6176(14) -0.0665(20)
H7A H -0.1538 -0.6641 0.1011
H9A H -0.1975 -0.5443 -0.2197
C27A C 0.3567(13) -0.2011(14) 0.6729(13)
H21A H 0.3428 -0.0985 0.5455
C29A C 0.1936(18) -0.3878(15) 0.5859(17)
H25A H 0.0658 -0.4151 0.4054
H13A H 0.5379 0.4220 0.4725
H18A H 0.5156 -0.1447 0.0800
H3A H -0.5520 -0.4028 0.1873
H8A H -0.1803 -0.6837 -0.1066
C28A C 0.3009(15) -0.3092(14) 0.6835(15)
H22A H 0.4301 -0.1464 0.7426
H24A H 0.1561 -0.4625 0.5963
H23A H 0.3378 -0.3304 0.7610
loop_
_geom_bond_atom_site_label_1
_geom_bond_atom_site_label_2
_geom_bond_site_symmetry_1
_geom_bond_site_symmetry_2
S1 N1 1_555 1_555
S2 N3 1_555 1_555
P1 N1 1_555 1_555
P2 N2 1_555 1_555
O1 C31 1_555 1_555
N1 Li1 1_555 1_555
N2 S1 1_555 1_555
N3 P2 1_555 1_555
N4 S2 1_555 1_555
C1 P1 1_555 1_555
C2 C1 1_555 1_555
C3 C2 1_555 1_555
C4 C3 1_555 1_555
C5 C4 1_555 1_555
C6 C1 1_555 1_555
C7 P1 1_555 1_555
C8 C7 1_555 1_555
C9 C8 1_555 1_555
C10 C9 1_555 1_555
C11 C10 1_555 1_555
C12 C7 1_555 1_555
C13 P2 1_555 1_555
C14 C13 1_555 1_555
C15 C14 1_555 1_555
C16 C15 1_555 1_555
C17 C16 1_555 1_555
C18 C13 1_555 1_555
C19 P2 1_555 1_555
C20 C19 1_555 1_555
C21 C20 1_555 1_555
C22 C21 1_555 1_555
C23 C22 1_555 1_555
C24 C19 1_555 1_555
C25 S2 1_555 1_555
C26 C25 1_555 1_555
C27 C26 1_555 1_555
C28 C27 1_555 1_555
C29 C28 1_555 1_555
C30 C25 1_555 1_555
C31 C32 1_555 1_555
C32 C33 1_555 1_555
C33 C34 1_555 1_555
C34 O1 1_555 1_555
Li1 O1 1_555 1_555
H1 C2 1_555 1_555
H2 C3 1_555 1_555
H3 C4 1_555 1_555
H4 C5 1_555 1_555
H5 C6 1_555 1_555
H6 C8 1_555 1_555
H7 C9 1_555 1_555
H8 C10 1_555 1_555
H9 C11 1_555 1_555
H10 C12 1_555 1_555
H11 C14 1_555 1_555
H12 C15 1_555 1_555
H13 C16 1_555 1_555
H14 C17 1_555 1_555
H15 C18 1_555 1_555
H16 C20 1_555 1_555
H17 C21 1_555 1_555
H18 C22 1_555 1_555
H19 C23 1_555 1_555
H20 C24 1_555 1_555
H21 C26 1_555 1_555
H22 C27 1_555 1_555
H23 C28 1_555 1_555
H24 C29 1_555 1_555
H25 C30 1_555 1_555
H26 C31 1_555 1_555
H27 C31 1_555 1_555
H28 C32 1_555 1_555
H29 C32 1_555 1_555
H30 C33 1_555 1_555
H31 C33 1_555 1_555
H32 C34 1_555 1_555
H33 C34 1_555 1_555
Li1A N2 1_555 1_555
N2A Li1 1_555 1_555
O1A Li1A 1_555 1_555
N1A Li1A 1_555 1_555
S1A N2A 1_555 1_555
P2A N2A 1_555 1_555
C31A O1A 1_555 1_555
C34A O1A 1_555 1_555
P1A N1A 1_555 1_555
N3A P2A 1_555 1_555
C13A P2A 1_555 1_555
C19A P2A 1_555 1_555
C32A C31A 1_555 1_555
H26A C31A 1_555 1_555
H27A C31A 1_555 1_555
C33A C34A 1_555 1_555
H32A C34A 1_555 1_555
H33A C34A 1_555 1_555
N4A P1A 1_555 1_555
C1A P1A 1_555 1_555
C7A P1A 1_555 1_555
S2A N3A 1_555 1_555
C14A C13A 1_555 1_555
C18A C13A 1_555 1_555
C20A C19A 1_555 1_555
C24A C19A 1_555 1_555
H28A C32A 1_555 1_555
H29A C32A 1_555 1_555
H30A C33A 1_555 1_555
H31A C33A 1_555 1_555
C2A C1A 1_555 1_555
C6A C1A 1_555 1_555
C8A C7A 1_555 1_555
C12A C7A 1_555 1_555
C25A S2A 1_555 1_555
C15A C14A 1_555 1_555
H11A C14A 1_555 1_555
C17A C18A 1_555 1_555
H15A C18A 1_555 1_555
C21A C20A 1_555 1_555
H16A C20A 1_555 1_555
C23A C24A 1_555 1_555
H20A C24A 1_555 1_555
C3A C2A 1_555 1_555
H1A C2A 1_555 1_555
C5A C6A 1_555 1_555
H5A C6A 1_555 1_555
C9A C8A 1_555 1_555
H6A C8A 1_555 1_555
C11A C12A 1_555 1_555
H10A C12A 1_555 1_555
C26A C25A 1_555 1_555
C30A C25A 1_555 1_555
C16A C15A 1_555 1_555
H12A C15A 1_555 1_555
H14A C17A 1_555 1_555
C22A C21A 1_555 1_555
H17A C21A 1_555 1_555
H19A C23A 1_555 1_555
C4A C3A 1_555 1_555
H2A C3A 1_555 1_555
H4A C5A 1_555 1_555
C10A C9A 1_555 1_555
H7A C9A 1_555 1_555
H9A C11A 1_555 1_555
C27A C26A 1_555 1_555
H21A C26A 1_555 1_555
C29A C30A 1_555 1_555
H25A C30A 1_555 1_555
H13A C16A 1_555 1_555
H18A C22A 1_555 1_555
H3A C4A 1_555 1_555
H8A C10A 1_555 1_555
C28A C27A 1_555 1_555
H22A C27A 1_555 1_555
H24A C29A 1_555 1_555
H23A C28A 1_555 1_555
P1 N4 1_555 1_555
N2 Li1 1_555 1_555
C5 C6 1_555 1_555
C11 C12 1_555 1_555
C17 C18 1_555 1_555
C23 C24 1_555 1_555
C29 C30 1_555 1_555
Li1A N2A 1_555 1_555
N1A S1A 1_555 1_555
C32A C33A 1_555 1_555
N4A S2A 1_555 1_555
C17A C16A 1_555 1_555
C23A C22A 1_555 1_555
C5A C4A 1_555 1_555
C11A C10A 1_555 1_555
C29A C28A 1_555 1_555

#END
