
#######################################################################
#
#                 Cambridge Crystallographic Data Centre
#                                CCDC 
#
#######################################################################
#
# If this CIF has been generated from an entry in the Cambridge 
# Structural Database, then it will include bibliographic, chemical, 
# crystal, experimental, refinement or atomic coordinate data resulting 
# from the CCDC's data processing and validation procedures.
#
#######################################################################

data_PEVNEK
_chemical_formula_moiety         'C51 H45 N3 O2'
_chemical_name_systematic        
N,N'-bis(1-Phenylethyl)-13,21-dioxa-38-azaheptacyclo(31.3.1.1^15,19^.0^3,12^.0^4,9^.0^22,31^.0^25,30^)octatriaconta-1(37),3,5,7,9,11,15(38),16,18,22,24,27,30,33,35-pentadecaene-2,32-diamine
_symmetry_cell_setting           orthorhombic
_symmetry_space_group_name_H-M   'P 21 21 21'
_symmetry_Int_Tables_number      19
_space_group_name_Hall           'P 2ac 2ab'
loop_
_symmetry_equiv_pos_site_id
_symmetry_equiv_pos_as_xyz
1 x,y,z
2 1/2-x,-y,1/2+z
3 -x,1/2+y,1/2-z
4 1/2+x,1/2-y,-z
_cell_length_a                   8.3780(10)
_cell_length_b                   18.531(2)
_cell_length_c                   26.247(3)
_cell_angle_alpha                90
_cell_angle_beta                 90
_cell_angle_gamma                90
_cell_volume                     4074.92
_exptl_crystal_colour            colorless
_chemical_melting_point          237-238deg.C
_cell_formula_units_Z            4
_exptl_crystal_recrystallization_method thf/hexane
loop_
_atom_site_label
_atom_site_type_symbol
_atom_site_fract_x
_atom_site_fract_y
_atom_site_fract_z
O1 O 0.4651(4) 0.40779(16) 0.72154(12)
O2 O 0.3553(4) 0.50965(15) 0.91105(11)
N1 N 0.2939(4) 0.43664(17) 0.80095(15)
N2 N 0.5058(5) 0.40541(17) 0.97280(12)
N3 N 0.6390(5) 0.52653(16) 0.76097(12)
C1 C 0.3614(6) 0.3510(2) 0.73500(19)
H1 H 0.4224 0.3072 0.7406
H2 H 0.2865 0.3422 0.7075
C2 C 0.2720(5) 0.3704(2) 0.78267(19)
C3 C 0.1771(7) 0.3198(3) 0.8058(3)
H3 H 0.1648 0.2742 0.7916
C4 C 0.1012(8) 0.3376(4) 0.8500(3)
H4 H 0.0370 0.3040 0.8665
C5 C 0.1204(7) 0.4053(4) 0.8697(2)
H5 H 0.0678 0.4190 0.8994
C6 C 0.2191(6) 0.4526(3) 0.8448(2)
C7 C 0.2593(6) 0.5247(2) 0.86645(16)
H6 H 0.3188 0.5533 0.8420
H7 H 0.1631 0.5507 0.8758
C8 C 0.4762(6) 0.5557(2) 0.92408(14)
C9 C 0.4563(6) 0.6311(2) 0.91920(16)
H8 H 0.3606 0.6499 0.9071
C10 C 0.5766(8) 0.6755(2) 0.93212(18)
H9 H 0.5622 0.7252 0.9294
C11 C 0.7227(7) 0.6488(2) 0.94953(15)
C12 C 0.8533(10) 0.6952(3) 0.96101(19)
H10 H 0.8396 0.7449 0.9581
C13 C 0.9947(10) 0.6695(4) 0.9758(2)
H11 H 1.0782 0.7011 0.9827
C14 C 1.0176(7) 0.5950(3) 0.98093(16)
H12 H 1.1164 0.5772 0.9911
C15 C 0.8945(6) 0.5483(2) 0.97105(14)
H13 H 0.9110 0.4990 0.9752
C16 C 0.7431(6) 0.57283(19) 0.95480(12)
C17 C 0.6157(5) 0.52544(19) 0.94214(13)
C18 C 0.6322(5) 0.44353(17) 0.94530(12)
H14 H 0.7301 0.4348 0.9648
C19 C 0.6598(4) 0.40855(18) 0.89337(13)
C20 C 0.6662(5) 0.33356(18) 0.89029(15)
H15 H 0.6497 0.3056 0.9192
C21 C 0.6970(6) 0.30125(19) 0.84421(16)
H16 H 0.7003 0.2512 0.8422
C22 C 0.7230(5) 0.34131(18) 0.80116(15)
H17 H 0.7455 0.3182 0.7705
C23 C 0.7161(4) 0.41542(17) 0.80288(12)
C24 C 0.6867(4) 0.44779(18) 0.84965(13)
H18 H 0.6852 0.4979 0.8515
C25 C 0.7453(5) 0.46427(16) 0.75705(12)
H19 H 0.8545 0.4827 0.7603
C26 C 0.7365(5) 0.42506(18) 0.70572(13)
C27 C 0.8686(6) 0.4188(2) 0.67195(13)
C28 C 1.0199(6) 0.4495(2) 0.68170(15)
H20 H 1.0368 0.4736 0.7123
C29 C 1.1419(6) 0.4448(3) 0.64741(18)
H21 H 1.2398 0.4661 0.6546
C30 C 1.1198(9) 0.4074(3) 0.6009(2)
H22 H 1.2032 0.4039 0.5776
C31 C 0.9784(9) 0.3771(3) 0.59052(19)
H23 H 0.9654 0.3529 0.5597
C32 C 0.8490(7) 0.3805(2) 0.62456(16)
C33 C 0.7009(9) 0.3504(3) 0.61352(19)
H24 H 0.6888 0.3247 0.5833
C34 C 0.5740(7) 0.3568(3) 0.6450(2)
H25 H 0.4760 0.3365 0.6366
C35 C 0.5942(6) 0.3953(2) 0.69102(17)
C36 C 0.5031(5) 0.4206(2) 1.02782(15)
H26 H 0.4988 0.4729 1.0329
C37 C 0.3531(6) 0.3868(3) 1.05007(19)
H27 H 0.3538 0.3358 1.0437
H28 H 0.2608 0.4081 1.0345
H29 H 0.3501 0.3953 1.0861
C38 C 0.6547(6) 0.3919(2) 1.05102(15)
C39 C 0.7618(7) 0.4370(3) 1.07456(15)
H30 H 0.7369 0.4855 1.0786
C40 C 0.9077(7) 0.4110(4) 1.09251(17)
H31 H 0.9807 0.4421 1.1076
C41 C 0.9416(8) 0.3399(4) 1.0876(2)
H32 H 1.0384 0.3224 1.0998
C42 C 0.8360(9) 0.2932(3) 1.0651(2)
H33 H 0.8599 0.2443 1.0624
C43 C 0.6938(7) 0.3200(3) 1.04659(18)
H34 H 0.6226 0.2887 1.0307
C44 C 0.6814(5) 0.58823(18) 0.72927(13)
H35 H 0.7064 0.5712 0.6948
C45 C 0.5383(5) 0.6383(2) 0.72671(17)
H36 H 0.5105 0.6537 0.7605
H37 H 0.4497 0.6132 0.7118
H38 H 0.5643 0.6796 0.7063
C46 C 0.8263(5) 0.62475(18) 0.75122(14)
C47 C 0.9621(6) 0.6359(2) 0.72252(18)
H39 H 0.9648 0.6203 0.6889
C48 C 1.0955(6) 0.6703(3) 0.7432(3)
H40 H 1.1873 0.6765 0.7237
C49 C 1.0901(8) 0.6946(3) 0.7919(3)
H41 H 1.1780 0.7185 0.8055
C50 C 0.9588(8) 0.6847(3) 0.8209(2)
H42 H 0.9568 0.7015 0.8543
C51 C 0.8281(6) 0.6496(2) 0.80107(15)
H43 H 0.7388 0.6425 0.8215
H44 H 0.551(4) 0.5149(19) 0.7576(14)
H45 H 0.412(5) 0.4197(19) 0.9610(13)
loop_
_geom_bond_atom_site_label_1
_geom_bond_atom_site_label_2
_geom_bond_site_symmetry_1
_geom_bond_site_symmetry_2
O1 C1 1_555 1_555
O2 C7 1_555 1_555
N1 C2 1_555 1_555
N2 C18 1_555 1_555
N3 C25 1_555 1_555
C1 H1 1_555 1_555
H2 C1 1_555 1_555
C2 C1 1_555 1_555
C3 C2 1_555 1_555
H3 C3 1_555 1_555
C4 C3 1_555 1_555
H4 C4 1_555 1_555
C5 C4 1_555 1_555
H5 C5 1_555 1_555
C6 N1 1_555 1_555
C7 C6 1_555 1_555
H6 C7 1_555 1_555
H7 C7 1_555 1_555
C8 O2 1_555 1_555
C9 C8 1_555 1_555
H8 C9 1_555 1_555
C10 C9 1_555 1_555
H9 C10 1_555 1_555
C11 C10 1_555 1_555
C12 C11 1_555 1_555
H10 C12 1_555 1_555
C13 C12 1_555 1_555
H11 C13 1_555 1_555
C14 C13 1_555 1_555
H12 C14 1_555 1_555
C15 C14 1_555 1_555
H13 C15 1_555 1_555
C16 C11 1_555 1_555
C17 C8 1_555 1_555
C18 C17 1_555 1_555
H14 C18 1_555 1_555
C19 C18 1_555 1_555
C20 C19 1_555 1_555
H15 C20 1_555 1_555
C21 C20 1_555 1_555
H16 C21 1_555 1_555
C22 C21 1_555 1_555
H17 C22 1_555 1_555
C23 C22 1_555 1_555
C24 C19 1_555 1_555
H18 C24 1_555 1_555
C25 C23 1_555 1_555
H19 C25 1_555 1_555
C26 C25 1_555 1_555
C27 C26 1_555 1_555
C28 C27 1_555 1_555
H20 C28 1_555 1_555
C29 C28 1_555 1_555
H21 C29 1_555 1_555
C30 C29 1_555 1_555
H22 C30 1_555 1_555
C31 C30 1_555 1_555
H23 C31 1_555 1_555
C32 C27 1_555 1_555
C33 C32 1_555 1_555
H24 C33 1_555 1_555
C34 C33 1_555 1_555
H25 C34 1_555 1_555
C35 O1 1_555 1_555
C36 N2 1_555 1_555
H26 C36 1_555 1_555
C37 C36 1_555 1_555
H27 C37 1_555 1_555
H28 C37 1_555 1_555
H29 C37 1_555 1_555
C38 C36 1_555 1_555
C39 C38 1_555 1_555
H30 C39 1_555 1_555
C40 C39 1_555 1_555
H31 C40 1_555 1_555
C41 C40 1_555 1_555
H32 C41 1_555 1_555
C42 C41 1_555 1_555
H33 C42 1_555 1_555
C43 C38 1_555 1_555
H34 C43 1_555 1_555
C44 N3 1_555 1_555
H35 C44 1_555 1_555
C45 C44 1_555 1_555
H36 C45 1_555 1_555
H37 C45 1_555 1_555
H38 C45 1_555 1_555
C46 C44 1_555 1_555
C47 C46 1_555 1_555
H39 C47 1_555 1_555
C48 C47 1_555 1_555
H40 C48 1_555 1_555
C49 C48 1_555 1_555
H41 C49 1_555 1_555
C50 C49 1_555 1_555
H42 C50 1_555 1_555
C51 C46 1_555 1_555
H43 C51 1_555 1_555
H44 N3 1_555 1_555
H45 N2 1_555 1_555
C5 C6 1_555 1_555
C15 C16 1_555 1_555
C16 C17 1_555 1_555
C23 C24 1_555 1_555
C26 C35 1_555 1_555
C31 C32 1_555 1_555
C34 C35 1_555 1_555
C42 C43 1_555 1_555
C50 C51 1_555 1_555

#END
