
#######################################################################
#
#                 Cambridge Crystallographic Data Centre
#                                CCDC 
#
#######################################################################
#
# If this CIF has been generated from an entry in the Cambridge 
# Structural Database, then it will include bibliographic, chemical, 
# crystal, experimental, refinement or atomic coordinate data resulting 
# from the CCDC's data processing and validation procedures.
#
#######################################################################

data_PEVVET
_chemical_formula_moiety         'C39 H47 B1 N2 O2'
_chemical_name_systematic        
(1,3-bis(1-(4-methoxybiphenyl-3-yl)-2,2-dimethylpropyl)-1H-imidazol-2-ylidene)trihydridoborate
_symmetry_cell_setting           orthorhombic
_symmetry_space_group_name_H-M   'P 21 21 21'
_symmetry_Int_Tables_number      19
_space_group_name_Hall           'P 2ac 2ab'
loop_
_symmetry_equiv_pos_site_id
_symmetry_equiv_pos_as_xyz
1 x,y,z
2 1/2-x,-y,1/2+z
3 1/2+x,1/2-y,-z
4 -x,1/2+y,1/2-z
_cell_length_a                   7.4531(6)
_cell_length_b                   17.8577(5)
_cell_length_c                   26.0300(15)
_cell_angle_alpha                90
_cell_angle_beta                 90
_cell_angle_gamma                90
_cell_volume                     3464.47
_exptl_crystal_colour            colorless
_cell_formula_units_Z            4
loop_
_atom_site_label
_atom_site_type_symbol
_atom_site_fract_x
_atom_site_fract_y
_atom_site_fract_z
O1 O 1.3592(2) 0.52098(9) 0.39376(7)
O2 O 1.0413(2) 0.86015(9) 0.23364(7)
N1 N 0.8455(2) 0.71124(9) 0.33084(6)
C1 C 0.8399(4) 0.96019(12) 0.25908(9)
H1 H 0.9086 0.9965 0.2411
C2 C 0.8922(3) 0.40148(11) 0.42740(8)
N2 N 0.9429(2) 0.64519(9) 0.39466(6)
C3 C 0.9011(3) 0.47997(11) 0.43275(8)
H2 H 0.7978 0.5062 0.4443
C4 C 1.0566(3) 0.52052(11) 0.42162(7)
C5 C 1.1996(3) 0.40343(12) 0.39797(9)
H3 H 1.3011 0.3770 0.3854
C6 C 1.2076(3) 0.48122(11) 0.40373(8)
C7 C 0.7590(3) 0.70035(11) 0.23708(8)
C8 C 0.5548(4) 0.70036(17) 0.23751(11)
H4 H 0.5118 0.6790 0.2699
H5 H 0.5102 0.6702 0.2088
H6 H 0.5109 0.7518 0.2341
C9 C 0.7284(3) 0.35906(12) 0.44028(8)
C10 C 0.6968(3) 0.68872(11) 0.35871(8)
H7 H 0.5750 0.6999 0.3512
C11 C 1.0739(4) 0.63402(12) 0.48453(9)
C12 C 1.0462(3) 0.36505(11) 0.41028(9)
H8 H 1.0449 0.3121 0.4070
C13 C 0.8906(3) 0.88527(11) 0.25801(8)
C14 C 0.4246(4) 0.95412(13) 0.34262(8)
C15 C 0.6339(3) 0.85436(11) 0.30974(8)
H9 H 0.5616 0.8180 0.3265
C16 C 0.9118(4) 0.61324(14) 0.51733(9)
H10 H 0.8036 0.6361 0.5027
H11 H 0.9295 0.6317 0.5524
H12 H 0.8980 0.5587 0.5179
C17 C 0.6887(4) 0.98199(12) 0.28650(9)
H13 H 0.6560 1.0334 0.2873
C18 C 0.5845(4) 0.93010(12) 0.31265(8)
C19 C 0.9975(3) 0.68426(11) 0.35279(8)
C20 C 0.8477(3) 0.74916(10) 0.28005(7)
H14 H 0.9774 0.7519 0.2704
C21 C 0.8225(4) 0.73221(14) 0.18533(9)
H15 H 0.7730 0.7020 0.1573
H16 H 0.9538 0.7309 0.1838
H17 H 0.7811 0.7841 0.1819
C22 C 0.7861(3) 0.83061(11) 0.28294(8)
C23 C 0.5405(4) 0.24929(15) 0.42903(13)
H18 H 0.5143 0.2042 0.4111
C24 C 0.8309(5) 0.62049(13) 0.24218(10)
H19 H 0.7823 0.5975 0.2734
H20 H 0.9621 0.6217 0.2442
H21 H 0.7943 0.5911 0.2122
C25 C 1.1602(4) 0.91409(14) 0.21192(10)
H22 H 1.0974 0.9424 0.1852
H23 H 1.2639 0.8885 0.1969
H24 H 1.2011 0.9485 0.2388
C26 C 1.0716(3) 0.60508(10) 0.42794(8)
H25 H 1.1926 0.6181 0.4139
C27 C 0.1204(4) 0.9354(2) 0.37154(11)
H26 H 0.0151 0.9055 0.3723
C28 C 0.1244(5) 1.00302(18) 0.39747(10)
H27 H 0.0218 1.0197 0.4158
C29 C 0.4317(4) 0.27185(16) 0.46975(12)
H28 H 0.3336 0.2416 0.4804
C30 C 1.2432(5) 0.60045(19) 0.50931(12)
H29 H 1.2560 0.6197 0.5444
H30 H 1.3488 0.6145 0.4890
H31 H 1.2327 0.5458 0.5103
C31 C 0.2776(5) 1.04607(15) 0.39657(10)
H32 H 0.2810 1.0924 0.4145
C32 C 0.2698(4) 0.91117(15) 0.34436(9)
H33 H 0.2658 0.8646 0.3267
C33 C 0.6144(4) 0.38165(13) 0.47992(9)
H34 H 0.6373 0.4274 0.4973
C34 C 0.4262(5) 1.02195(14) 0.36963(10)
H35 H 0.5316 1.0519 0.3694
B1 B 1.2019(4) 0.69320(16) 0.33383(13)
C35 C 0.6863(4) 0.29225(13) 0.41465(10)
H36 H 0.7594 0.2762 0.3869
C36 C 0.4676(4) 0.33828(17) 0.49439(11)
H37 H 0.3917 0.3547 0.5215
C37 C 0.7579(3) 0.64805(11) 0.39833(8)
H38 H 0.6868 0.6253 0.4243
C38 C 1.0934(4) 0.71936(14) 0.48308(11)
H39 H 0.9835 0.7416 0.4692
H40 H 1.1954 0.7329 0.4612
H41 H 1.1139 0.7382 0.5180
C39 C 1.4783(3) 0.49112(14) 0.35608(9)
H42 H 1.4089 0.4731 0.3266
H43 H 1.5463 0.4495 0.3710
H44 H 1.5615 0.5303 0.3448
H45 H 1.215(5) 0.7365(19) 0.3035(13)
H46 H 1.243(5) 0.637(2) 0.3216(14)
H47 H 1.283(6) 0.712(2) 0.3675(18)
loop_
_geom_bond_atom_site_label_1
_geom_bond_atom_site_label_2
_geom_bond_site_symmetry_1
_geom_bond_site_symmetry_2
O1 C6 1_555 1_555
O2 C13 1_555 1_555
N1 C10 1_555 1_555
C1 H1 1_555 1_555
C2 C3 1_555 1_555
N2 C19 1_555 1_555
C3 H2 1_555 1_555
C4 C3 1_555 1_555
C5 H3 1_555 1_555
C6 C4 1_555 1_555
C7 C8 1_555 1_555
C8 H4 1_555 1_555
H5 C8 1_555 1_555
H6 C8 1_555 1_555
C9 C2 1_555 1_555
C10 H7 1_555 1_555
C11 C16 1_555 1_555
C12 C2 1_555 1_555
H8 C12 1_555 1_555
C13 C1 1_555 1_555
C14 C18 1_555 1_555
C15 H9 1_555 1_555
C16 H10 1_555 1_555
H11 C16 1_555 1_555
H12 C16 1_555 1_555
C17 C1 1_555 1_555
H13 C17 1_555 1_555
C18 C15 1_555 1_555
C19 N1 1_555 1_555
C20 N1 1_555 1_555
H14 C20 1_555 1_555
C21 C7 1_555 1_555
H15 C21 1_555 1_555
H16 C21 1_555 1_555
H17 C21 1_555 1_555
C22 C13 1_555 1_555
C23 H18 1_555 1_555
C24 C7 1_555 1_555
H19 C24 1_555 1_555
H20 C24 1_555 1_555
H21 C24 1_555 1_555
C25 O2 1_555 1_555
H22 C25 1_555 1_555
H23 C25 1_555 1_555
H24 C25 1_555 1_555
C26 N2 1_555 1_555
H25 C26 1_555 1_555
C27 H26 1_555 1_555
C28 C27 1_555 1_555
H27 C28 1_555 1_555
C29 C23 1_555 1_555
H28 C29 1_555 1_555
C30 C11 1_555 1_555
H29 C30 1_555 1_555
H30 C30 1_555 1_555
H31 C30 1_555 1_555
C31 C28 1_555 1_555
H32 C31 1_555 1_555
C32 C14 1_555 1_555
H33 C32 1_555 1_555
C33 C9 1_555 1_555
H34 C33 1_555 1_555
C34 C14 1_555 1_555
H35 C34 1_555 1_555
B1 C19 1_555 1_555
C35 C9 1_555 1_555
H36 C35 1_555 1_555
C36 C29 1_555 1_555
H37 C36 1_555 1_555
C37 N2 1_555 1_555
H38 C37 1_555 1_555
C38 C11 1_555 1_555
H39 C38 1_555 1_555
H40 C38 1_555 1_555
H41 C38 1_555 1_555
C39 O1 1_555 1_555
H42 C39 1_555 1_555
H43 C39 1_555 1_555
H44 C39 1_555 1_555
H45 B1 1_555 1_555
H46 B1 1_555 1_555
H47 B1 1_555 1_555
C4 C26 1_555 1_555
C5 C6 1_555 1_555
C5 C12 1_555 1_555
C7 C20 1_555 1_555
C10 C37 1_555 1_555
C11 C26 1_555 1_555
C15 C22 1_555 1_555
C17 C18 1_555 1_555
C20 C22 1_555 1_555
C23 C35 1_555 1_555
C27 C32 1_555 1_555
C31 C34 1_555 1_555
C33 C36 1_555 1_555

#END
