
#######################################################################
#
#                 Cambridge Crystallographic Data Centre
#                                CCDC 
#
#######################################################################
#
# If this CIF has been generated from an entry in the Cambridge 
# Structural Database, then it will include bibliographic, chemical, 
# crystal, experimental, refinement or atomic coordinate data resulting 
# from the CCDC's data processing and validation procedures.
#
#######################################################################

data_PEWWAS
_chemical_formula_moiety         'C15 H16 Cl2 N4 O2'
_chemical_name_systematic        
't-butyl 1,2-bis(3-chloropyridin-2-yl)hydrazine-1-carboxylate'
_symmetry_cell_setting           monoclinic
_symmetry_space_group_name_H-M   'P 21/n'
_symmetry_Int_Tables_number      14
_space_group_name_Hall           '-P 2yn'
loop_
_symmetry_equiv_pos_site_id
_symmetry_equiv_pos_as_xyz
1 x,y,z
2 1/2-x,1/2+y,1/2-z
3 -x,-y,-z
4 1/2+x,1/2-y,1/2+z
_cell_length_a                   8.759(3)
_cell_length_b                   19.027(6)
_cell_length_c                   10.454(3)
_cell_angle_alpha                90
_cell_angle_beta                 97.275(6)
_cell_angle_gamma                90
_cell_volume                     1728.21
_exptl_crystal_colour            colorless
_exptl_crystal_description       block
_cell_formula_units_Z            4
loop_
_atom_site_label
_atom_site_type_symbol
_atom_site_fract_x
_atom_site_fract_y
_atom_site_fract_z
Cl1 Cl 0.55731(10) 1.11640(4) 0.29381(8)
Cl2 Cl 0.13104(10) 0.81414(4) 0.12507(8)
N1 N 0.2815(3) 0.95609(11) 0.3422(2)
N2 N 0.2814(3) 0.98251(12) -0.0447(2)
N3 N 0.4020(3) 0.91741(11) 0.1268(2)
N4 N 0.4541(3) 0.97676(11) 0.19460(19)
H1 H 0.5296 1.0004 0.1713
O1 O 0.4544(2) 0.81710(9) 0.03544(15)
O2 O 0.6157(3) 0.85653(10) 0.20914(19)
C1 C 0.4258(3) 1.06289(13) 0.3579(2)
C2 C 0.3634(4) 1.08243(15) 0.4654(3)
H2 H 0.3917 1.1246 0.5069
C3 C 0.2574(4) 1.03866(18) 0.5118(3)
H3 H 0.2132 1.0504 0.5853
C4 C 0.2192(3) 0.97778(18) 0.4472(3)
H4 H 0.1452 0.9492 0.4773
C5 C 0.3854(3) 0.99818(13) 0.2995(2)
C6 C 0.2725(3) 0.92703(13) 0.0310(2)
C7 C 0.1444(4) 0.88357(14) 0.0212(3)
C8 C 0.0227(4) 0.89829(18) -0.0720(3)
H5 H -0.0639 0.8695 -0.0819
C9 C 0.0307(4) 0.9558(2) -0.1500(3)
H6 H -0.0500 0.9669 -0.2135
C10 C 0.1604(4) 0.99636(17) -0.1319(3)
H7 H 0.1646 1.0360 -0.1835
C11 C 0.5038(4) 0.86110(14) 0.1312(3)
C12 C 0.5310(3) 0.74826(13) 0.0236(3)
C13 C 0.5277(4) 0.70615(14) 0.1475(3)
H8 H 0.5906 0.7291 0.2171
H9 H 0.5668 0.6597 0.1362
H10 H 0.4238 0.7031 0.1672
C14 C 0.4283(4) 0.71517(13) -0.0881(3)
H11 H 0.3259 0.7103 -0.0657
H12 H 0.4679 0.6697 -0.1064
H13 H 0.4263 0.7446 -0.1629
C15 C 0.6934(4) 0.76008(16) -0.0082(3)
H14 H 0.6903 0.7905 -0.0817
H15 H 0.7380 0.7158 -0.0274
H16 H 0.7544 0.7814 0.0643
loop_
_geom_bond_atom_site_label_1
_geom_bond_atom_site_label_2
_geom_bond_site_symmetry_1
_geom_bond_site_symmetry_2
Cl1 C1 1_555 1_555
Cl2 C7 1_555 1_555
N1 C4 1_555 1_555
N2 C6 1_555 1_555
N3 N4 1_555 1_555
N4 H1 1_555 1_555
O1 C11 1_555 1_555
O2 C11 1_555 1_555
C1 C2 1_555 1_555
C2 H2 1_555 1_555
C3 C2 1_555 1_555
H3 C3 1_555 1_555
C4 C3 1_555 1_555
H4 C4 1_555 1_555
C5 N1 1_555 1_555
C6 N3 1_555 1_555
C7 C6 1_555 1_555
C8 C7 1_555 1_555
H5 C8 1_555 1_555
C9 C8 1_555 1_555
H6 C9 1_555 1_555
C10 N2 1_555 1_555
H7 C10 1_555 1_555
C11 N3 1_555 1_555
C12 O1 1_555 1_555
C13 C12 1_555 1_555
H8 C13 1_555 1_555
H9 C13 1_555 1_555
H10 C13 1_555 1_555
C14 C12 1_555 1_555
H11 C14 1_555 1_555
H12 C14 1_555 1_555
H13 C14 1_555 1_555
C15 C12 1_555 1_555
H14 C15 1_555 1_555
H15 C15 1_555 1_555
H16 C15 1_555 1_555
N4 C5 1_555 1_555
C1 C5 1_555 1_555
C9 C10 1_555 1_555

#END
