
#######################################################################
#
#                 Cambridge Crystallographic Data Centre
#                                CCDC 
#
#######################################################################
#
# If this CIF has been generated from an entry in the Cambridge 
# Structural Database, then it will include bibliographic, chemical, 
# crystal, experimental, refinement or atomic coordinate data resulting 
# from the CCDC's data processing and validation procedures.
#
#######################################################################

data_PEWZOH
_chemical_formula_moiety         'C22 H35 N1 O4 Si1'
_chemical_name_systematic        
'Benzyl (2-(1-(t-butyl(dimethyl)siloxy)prop-2-enyl)-tetrahydro-2H-pyran-2-yl)carbamate'
_symmetry_cell_setting           monoclinic
_symmetry_space_group_name_H-M   'P 21/c'
_symmetry_Int_Tables_number      14
_space_group_name_Hall           '-P 2ybc'
loop_
_symmetry_equiv_pos_site_id
_symmetry_equiv_pos_as_xyz
1 x,y,z
2 -x,1/2+y,1/2-z
3 -x,-y,-z
4 x,1/2-y,1/2+z
_cell_length_a                   18.967(3)
_cell_length_b                   12.7861(18)
_cell_length_c                   19.491(3)
_cell_angle_alpha                90
_cell_angle_beta                 96.878(2)
_cell_angle_gamma                90
_cell_volume                     4692.82
_exptl_crystal_colour            colorless
_exptl_crystal_description       plate
_cell_formula_units_Z            8
loop_
_atom_site_label
_atom_site_type_symbol
_atom_site_fract_x
_atom_site_fract_y
_atom_site_fract_z
O1 O 0.11974(14) 0.7018(2) 0.05859(13)
C1 C 0.1662(2) 0.6438(4) 0.0195(2)
H1 H 0.2137 0.6382 0.0466
H2 H 0.1716 0.6818 -0.0238
C2 C 0.1377(3) 0.5357(4) 0.0023(2)
H3 H 0.1705 0.4975 -0.0247
H4 H 0.0909 0.5405 -0.0260
C3 C 0.1305(3) 0.4770(3) 0.0700(2)
H5 H 0.1082 0.4080 0.0595
H6 H 0.1780 0.4655 0.0958
C4 C 0.0852(2) 0.5410(3) 0.1133(2)
H7 H 0.0861 0.5080 0.1593
H8 H 0.0354 0.5404 0.0910
C5 C 0.1100(2) 0.6542(3) 0.12257(19)
C6 C 0.0532(2) 0.7220(3) 0.15225(18)
H9 H 0.0732 0.7934 0.1627
C7 C -0.0138(2) 0.7317(3) 0.1025(2)
H10 H -0.0106 0.7668 0.0600
C8 C -0.0756(2) 0.6956(4) 0.1135(2)
H11 H -0.0809 0.6600 0.1554
H12 H -0.1155 0.7047 0.0796
O2 O 0.03983(14) 0.6737(2) 0.21486(12)
Si1 Si 0.03182(6) 0.72883(8) 0.29017(5)
C9 C -0.0567(2) 0.7910(4) 0.2899(3)
H13 H -0.0938 0.7382 0.2793
H14 H -0.0623 0.8462 0.2548
H15 H -0.0606 0.8213 0.3355
C10 C 0.1032(3) 0.8277(4) 0.3113(2)
H16 H 0.1494 0.7925 0.3185
H17 H 0.0950 0.8651 0.3536
H18 H 0.1027 0.8776 0.2731
C11 C 0.1136(3) 0.5665(4) 0.3540(3)
H19 H 0.1171 0.5059 0.3850
H20 H 0.1496 0.6183 0.3710
H21 H 0.1215 0.5441 0.3074
C12 C 0.0271(3) 0.6514(4) 0.4242(2)
H22 H 0.0323 0.5918 0.4561
H23 H -0.0210 0.6800 0.4226
H24 H 0.0618 0.7054 0.4403
C13 C -0.0164(3) 0.5323(4) 0.3269(2)
H25 H -0.0122 0.4728 0.3589
H26 H -0.0090 0.5083 0.2806
H27 H -0.0639 0.5631 0.3256
C14 C 0.0399(2) 0.6150(3) 0.3517(2)
N1 N 0.17615(16) 0.6540(2) 0.17062(16)
H28 H 0.1898 0.5926 0.1878
C15 C 0.2186(2) 0.7351(3) 0.1919(2)
O3 O 0.26712(14) 0.7294(2) 0.23881(14)
O4 O 0.20291(13) 0.8237(2) 0.15574(13)
C16 C 0.2512(2) 0.9084(3) 0.1738(2)
H29 H 0.2998 0.8880 0.1654
H30 H 0.2521 0.9252 0.2235
C17 C 0.2277(2) 1.0019(3) 0.13116(19)
C18 C 0.2629(2) 1.0958(3) 0.1464(2)
H31 H 0.3000 1.0987 0.1837
C19 C 0.2450(3) 1.1848(3) 0.1083(2)
H32 H 0.2696 1.2484 0.1197
C20 C 0.1916(2) 1.1818(3) 0.0538(2)
H33 H 0.1794 1.2428 0.0272
C21 C 0.1560(2) 1.0888(3) 0.0384(2)
H34 H 0.1188 1.0865 0.0011
C22 C 0.1734(2) 0.9990(3) 0.07632(19)
H35 H 0.1485 0.9357 0.0650
O5 O 0.35910(13) 0.4922(2) 0.42825(13)
C23 C 0.3002(2) 0.5288(3) 0.4619(2)
H36 H 0.2951 0.4845 0.5027
H37 H 0.2558 0.5233 0.4297
C24 C 0.3115(3) 0.6404(4) 0.4845(2)
H38 H 0.3536 0.6451 0.5197
H39 H 0.2697 0.6656 0.5056
C25 C 0.3227(3) 0.7089(4) 0.4226(2)
H40 H 0.2781 0.7124 0.3907
H41 H 0.3351 0.7808 0.4387
C26 C 0.3818(2) 0.6651(3) 0.3846(2)
H42 H 0.4280 0.6746 0.4136
H43 H 0.3835 0.7045 0.3412
C27 C 0.3707(2) 0.5493(3) 0.36804(18)
C28 C 0.4360(2) 0.4964(3) 0.34230(19)
H44 H 0.4240 0.4218 0.3308
C29 C 0.4989(2) 0.4990(4) 0.3968(2)
H45 H 0.4969 0.4572 0.4368
C30 C 0.5562(3) 0.5544(5) 0.3934(3)
H46 H 0.5602 0.5972 0.3542
H47 H 0.5940 0.5520 0.4301
O6 O 0.44986(14) 0.5484(2) 0.28149(13)
Si2 Si 0.46717(6) 0.49214(9) 0.20915(6)
C31 C 0.5563(3) 0.4300(4) 0.2210(3)
H48 H 0.5929 0.4843 0.2285
H49 H 0.5633 0.3897 0.1796
H50 H 0.5598 0.3833 0.2611
C32 C 0.3996(3) 0.3901(4) 0.1819(2)
H51 H 0.3536 0.4235 0.1678
H52 H 0.3953 0.3425 0.2205
H53 H 0.4142 0.3506 0.1429
C33 C 0.5201(4) 0.6845(4) 0.1717(3)
H54 H 0.5172 0.7437 0.1395
H55 H 0.5676 0.6533 0.1747
H56 H 0.5112 0.7091 0.2175
C34 C 0.3905(3) 0.6512(5) 0.1361(3)
H57 H 0.3889 0.7067 0.1013
H58 H 0.3800 0.6809 0.1802
H59 H 0.3552 0.5976 0.1209
C35 C 0.4819(3) 0.5613(4) 0.0757(2)
H60 H 0.4789 0.6188 0.0422
H61 H 0.4481 0.5064 0.0591
H62 H 0.5301 0.5325 0.0812
C36 C 0.4641(2) 0.6022(3) 0.1455(2)
N2 N 0.30930(16) 0.5435(2) 0.31416(16)
H63 H 0.2952 0.6035 0.2951
C37 C 0.2718(2) 0.4593(3) 0.29004(19)
O7 O 0.22367(14) 0.4618(2) 0.24234(14)
O8 O 0.29114(14) 0.3708(2) 0.32464(14)
C38 C 0.2454(2) 0.2817(3) 0.3081(2)
H64 H 0.2476 0.2600 0.2596
H65 H 0.1957 0.3003 0.3133
C39 C 0.2699(2) 0.1945(3) 0.3561(2)
C40 C 0.2528(2) 0.0923(3) 0.3366(2)
H66 H 0.2262 0.0791 0.2930
C41 C 0.2741(2) 0.0099(3) 0.3797(2)
H67 H 0.2625 -0.0597 0.3657
C42 C 0.3120(2) 0.0286(3) 0.4432(2)
H68 H 0.3263 -0.0284 0.4730
C43 C 0.3296(3) 0.1295(4) 0.4640(2)
H69 H 0.3557 0.1418 0.5080
C44 C 0.3089(2) 0.2132(3) 0.4205(2)
H70 H 0.3213 0.2827 0.4344
loop_
_geom_bond_atom_site_label_1
_geom_bond_atom_site_label_2
_geom_bond_site_symmetry_1
_geom_bond_site_symmetry_2
O1 C1 1_555 1_555
C1 H1 1_555 1_555
H2 C1 1_555 1_555
C2 C1 1_555 1_555
H3 C2 1_555 1_555
H4 C2 1_555 1_555
C3 C2 1_555 1_555
H5 C3 1_555 1_555
H6 C3 1_555 1_555
C4 C3 1_555 1_555
H7 C4 1_555 1_555
H8 C4 1_555 1_555
C5 O1 1_555 1_555
C6 C5 1_555 1_555
H9 C6 1_555 1_555
C7 C6 1_555 1_555
H10 C7 1_555 1_555
C8 C7 1_555 1_555
H11 C8 1_555 1_555
H12 C8 1_555 1_555
O2 C6 1_555 1_555
Si1 O2 1_555 1_555
C9 Si1 1_555 1_555
H13 C9 1_555 1_555
H14 C9 1_555 1_555
H15 C9 1_555 1_555
C10 Si1 1_555 1_555
H16 C10 1_555 1_555
H17 C10 1_555 1_555
H18 C10 1_555 1_555
C11 H19 1_555 1_555
H20 C11 1_555 1_555
H21 C11 1_555 1_555
C12 H22 1_555 1_555
H23 C12 1_555 1_555
H24 C12 1_555 1_555
C13 H25 1_555 1_555
H26 C13 1_555 1_555
H27 C13 1_555 1_555
C14 Si1 1_555 1_555
N1 C5 1_555 1_555
H28 N1 1_555 1_555
C15 N1 1_555 1_555
O3 C15 1_555 1_555
O4 C15 1_555 1_555
C16 O4 1_555 1_555
H29 C16 1_555 1_555
H30 C16 1_555 1_555
C17 C16 1_555 1_555
C18 C17 1_555 1_555
H31 C18 1_555 1_555
C19 C18 1_555 1_555
H32 C19 1_555 1_555
C20 C19 1_555 1_555
H33 C20 1_555 1_555
C21 C20 1_555 1_555
H34 C21 1_555 1_555
C22 C17 1_555 1_555
H35 C22 1_555 1_555
O5 C23 1_555 1_555
C23 H36 1_555 1_555
H37 C23 1_555 1_555
C24 C23 1_555 1_555
H38 C24 1_555 1_555
H39 C24 1_555 1_555
C25 C24 1_555 1_555
H40 C25 1_555 1_555
H41 C25 1_555 1_555
C26 C25 1_555 1_555
H42 C26 1_555 1_555
H43 C26 1_555 1_555
C27 O5 1_555 1_555
C28 C27 1_555 1_555
H44 C28 1_555 1_555
C29 C28 1_555 1_555
H45 C29 1_555 1_555
C30 C29 1_555 1_555
H46 C30 1_555 1_555
H47 C30 1_555 1_555
O6 C28 1_555 1_555
Si2 O6 1_555 1_555
C31 Si2 1_555 1_555
H48 C31 1_555 1_555
H49 C31 1_555 1_555
H50 C31 1_555 1_555
C32 Si2 1_555 1_555
H51 C32 1_555 1_555
H52 C32 1_555 1_555
H53 C32 1_555 1_555
C33 H54 1_555 1_555
H55 C33 1_555 1_555
H56 C33 1_555 1_555
C34 H57 1_555 1_555
H58 C34 1_555 1_555
H59 C34 1_555 1_555
C35 H60 1_555 1_555
H61 C35 1_555 1_555
H62 C35 1_555 1_555
C36 Si2 1_555 1_555
N2 C27 1_555 1_555
H63 N2 1_555 1_555
C37 N2 1_555 1_555
O7 C37 1_555 1_555
O8 C37 1_555 1_555
C38 O8 1_555 1_555
H64 C38 1_555 1_555
H65 C38 1_555 1_555
C39 C38 1_555 1_555
C40 C39 1_555 1_555
H66 C40 1_555 1_555
C41 C40 1_555 1_555
H67 C41 1_555 1_555
C42 C41 1_555 1_555
H68 C42 1_555 1_555
C43 C42 1_555 1_555
H69 C43 1_555 1_555
C44 C39 1_555 1_555
H70 C44 1_555 1_555
C4 C5 1_555 1_555
C11 C14 1_555 1_555
C12 C14 1_555 1_555
C13 C14 1_555 1_555
C21 C22 1_555 1_555
C26 C27 1_555 1_555
C33 C36 1_555 1_555
C34 C36 1_555 1_555
C35 C36 1_555 1_555
C43 C44 1_555 1_555

#END
