
#######################################################################
#
#                 Cambridge Crystallographic Data Centre
#                                CCDC 
#
#######################################################################
#
# If this CIF has been generated from an entry in the Cambridge 
# Structural Database, then it will include bibliographic, chemical, 
# crystal, experimental, refinement or atomic coordinate data resulting 
# from the CCDC's data processing and validation procedures.
#
#######################################################################

data_PEWZIB
_chemical_formula_moiety         'C36 H49 Br1 O3'
_chemical_name_systematic        
'4(S),14(S)-Dimethyl-3-oxocholesta-8,24-dien-22(R)-yl 4-bromobenzoate'
_symmetry_cell_setting           monoclinic
_symmetry_space_group_name_H-M   'P 21'
_symmetry_Int_Tables_number      4
_space_group_name_Hall           'P 2yb'
loop_
_symmetry_equiv_pos_site_id
_symmetry_equiv_pos_as_xyz
1 x,y,z
2 -x,1/2+y,-z
_cell_length_a                   16.5500(14)
_cell_length_b                   7.5510(6)
_cell_length_c                   27.126(4)
_cell_angle_alpha                90
_cell_angle_beta                 101.748(4)
_cell_angle_gamma                90
_cell_volume                     3318.9
_exptl_crystal_colour            colorless
_exptl_crystal_description       Needle
_chemical_melting_point          154-158deg.C
_cell_formula_units_Z            4
loop_
_atom_site_label
_atom_site_type_symbol
_atom_site_fract_x
_atom_site_fract_y
_atom_site_fract_z
Br1 Br -0.54281(15) -0.2202(2) -0.61494(6)
C1 C -1.0621(8) -0.2714(11) -1.1591(4)
C3 C -0.8589(7) -0.1618(10) -1.0574(3)
O2 O -0.6451(5) -0.3629(11) -0.8672(3)
C7 C -1.1670(7) -0.4158(13) -1.2323(4)
C8 C -0.8052(7) -0.4810(13) -1.1059(4)
C10 C -0.8580(7) -0.3431(13) -1.0323(4)
O3 O -0.6639(8) -0.6388(18) -0.8415(3)
C15 C -0.9811(7) -0.3022(11) -1.1220(4)
C21 C -1.1279(7) -0.2186(16) -1.1293(4)
C22 C -0.5801(9) -0.297(3) -0.6823(5)
C24 C -0.8711(7) -0.4869(11) -1.0731(3)
C27 C -0.9532(7) -0.4633(12) -1.1077(4)
C28 C -1.0878(7) -0.4350(11) -1.1922(4)
C29 C -1.0876(8) -0.5964(11) -1.1589(4)
C30 C -0.5822(9) -0.1816(19) -0.7205(6)
C31 C -0.7384(9) -0.1232(16) -0.9431(4)
C32 C -0.6503(9) -0.484(3) -0.8306(5)
C33 C -0.7746(7) -0.4055(12) -0.9980(4)
C36 C -0.9332(7) -0.1402(11) -1.0989(4)
C39 C -0.7818(8) -0.6114(12) -0.9982(4)
C40 C -0.5879(9) -0.3659(18) -0.9415(4)
O5 O -1.1703(7) -0.2707(12) -1.3088(4)
C41 C -1.0540(8) -0.1203(12) -1.1951(4)
C45 C -0.8532(8) -0.6572(12) -1.0413(4)
C47 C -0.9994(8) -0.6309(11) -1.1271(4)
C51 C -1.1909(8) -0.5799(15) -1.2641(5)
C52 C -1.1329(8) -0.0916(13) -1.2361(5)
C53 C -0.6056(8) -0.237(2) -0.7695(5)
C57 C -1.1581(8) -0.2569(16) -1.2631(5)
C59 C -0.7454(8) -0.3271(13) -0.9451(4)
C60 C -0.6635(9) -0.4144(16) -0.9205(4)
C62 C -0.9266(8) -0.3484(14) -1.0010(4)
C66 C -0.4443(12) -0.467(2) -0.9322(5)
C67 C -0.5159(10) -0.4881(19) -0.9236(4)
C68 C -0.6283(8) -0.409(2) -0.7805(5)
C69 C -0.6283(10) -0.524(3) -0.7398(6)
C70 C -0.6038(10) -0.465(3) -0.6917(5)
C71 C -0.3755(11) -0.588(3) -0.9138(6)
C72 C -0.4213(12) -0.323(3) -0.9635(8)
H2 H -0.8568 -0.0708 -1.0324
H3 H -0.8112 -0.1532 -1.0723
H6 H -1.2101 -0.3883 -1.2146
H7 H -0.8171 -0.5726 -1.1308
H8 H -0.7521 -0.5022 -1.0847
H9 H -0.8048 -0.3683 -1.1222
H19 H -1.1801 -0.1980 -1.1515
H20 H -1.1105 -0.1130 -1.1104
H21 H -1.1332 -0.3134 -1.1067
H25 H -1.0428 -0.4536 -1.2090
H26 H -1.1240 -0.5725 -1.1363
H27 H -1.1072 -0.6979 -1.1792
H28 H -0.5621 -0.0634 -0.7130
H29 H -0.7201 -0.0870 -0.9087
H30 H -0.7916 -0.0725 -0.9563
H31 H -0.6996 -0.0832 -0.9627
H32 H -0.7325 -0.3674 -1.0152
H36 H -0.9737 -0.0716 -1.0866
H37 H -0.9182 -0.0804 -1.1269
H40 H -0.7313 -0.6580 -1.0051
H41 H -0.7884 -0.6511 -0.9656
H42 H -0.6019 -0.3718 -0.9776
H43 H -0.5713 -0.2475 -0.9313
H44 H -1.0410 -0.0124 -1.1765
H45 H -1.0101 -0.1489 -1.2121
H54 H -0.9015 -0.6848 -1.0284
H55 H -0.8422 -0.7519 -1.0626
H58 H -0.9696 -0.6940 -1.1485
H59 H -1.0041 -0.7037 -1.0988
H65 H -1.2416 -0.5610 -1.2879
H66 H -1.1977 -0.6765 -1.2422
H67 H -1.1478 -0.6076 -1.2817
H68 H -1.1758 -0.0490 -1.2201
H69 H -1.1225 -0.0060 -1.2602
H70 H -0.6083 -0.1566 -0.7971
H77 H -0.7859 -0.3667 -0.9268
H78 H -0.6719 -0.5401 -0.9235
H81 H -0.9276 -0.4623 -0.9854
H82 H -0.9791 -0.3262 -1.0228
H83 H -0.9157 -0.2585 -0.9755
H90 H -0.5257 -0.5873 -0.9034
H91 H -0.6462 -0.6439 -0.7475
H92 H -0.6021 -0.5447 -0.6639
H93 H -0.3265 -0.5515 -0.9248
H94 H -0.3905 -0.7052 -0.9258
H95 H -0.3655 -0.5869 -0.8776
H96 H -0.3650 -0.3263 -0.9675
H97 H -0.4305 -0.2177 -0.9457
H98 H -0.4574 -0.3235 -0.9961
Br2 Br -0.60118(16) 0.4833(2) -0.17504(6)
O1 O -0.6486(4) -0.0392(8) -0.3815(2)
C2 C -0.7511(7) -0.1073(10) -0.4543(3)
C4 C -0.6273(7) 0.0423(13) -0.2980(4)
C5 C -1.1570(7) -0.3415(14) -0.7711(5)
C6 C -0.9499(6) -0.0639(10) -0.6155(4)
C9 C -1.0665(7) -0.2535(10) -0.6656(3)
C11 C -0.8622(6) -0.2005(10) -0.5372(3)
C12 C -0.8017(7) -0.3799(12) -0.6042(4)
C13 C -0.5975(8) -0.1437(14) -0.4501(4)
C14 C -0.9853(6) -0.2500(11) -0.6277(3)
O4 O -1.1676(6) -0.3845(10) -0.8142(3)
C16 C -0.7759(6) -0.2185(10) -0.5007(3)
C17 C -0.6666(7) -0.1576(12) -0.4233(3)
C18 C -1.0783(7) -0.4476(11) -0.6879(4)
C19 C -0.8666(7) -0.3740(10) -0.5692(3)
C20 C -0.6302(7) 0.3486(14) -0.2761(4)
C23 C -1.0668(7) -0.1341(11) -0.7114(4)
C25 C -0.4446(10) -0.2112(14) -0.4362(4)
C26 C -0.6368(7) 0.2198(12) -0.3123(4)
C34 C -0.6131(8) 0.3071(16) -0.2265(5)
C35 C -0.9298(7) -0.1972(12) -0.5070(3)
C37 C -0.6100(7) 0.0009(15) -0.2475(4)
C38 C -0.5160(8) -0.2188(14) -0.4223(4)
O6 O -0.6373(8) -0.2566(12) -0.3256(3)
C42 C -0.8407(7) -0.5161(12) -0.5279(3)
C43 C -1.1393(7) -0.1993(16) -0.6391(4)
C44 C -1.1753(8) -0.6571(13) -0.7486(4)
C46 C -0.7754(6) -0.4238(12) -0.4868(4)
C48 C -0.8742(7) -0.0452(11) -0.5744(4)
C49 C -0.9495(6) -0.3921(11) -0.6043(4)
C50 C -0.7545(7) 0.0926(12) -0.4677(3)
C54 C -1.1417(8) -0.1522(13) -0.7546(4)
C55 C -0.3663(8) -0.2893(16) -0.4043(5)
C56 C -1.1597(7) -0.4693(12) -0.7285(4)
C58 C -0.6389(8) -0.0997(16) -0.3365(5)
C61 C -0.9826(7) -0.5794(11) -0.6145(4)
C63 C -1.0710(8) -0.5822(13) -0.6452(4)
C64 C -0.6015(8) 0.1351(18) -0.2113(5)
C65 C -0.4321(8) -0.1135(18) -0.4824(5)
H1 H -0.7917 -0.1274 -0.4342
H4 H -0.9366 -0.0118 -0.6451
H5 H -0.9905 0.0074 -0.6041
H10 H -0.8078 -0.4878 -0.6233
H11 H -0.7471 -0.3741 -0.5838
H12 H -0.8104 -0.2806 -0.6267
H13 H -0.6112 -0.2067 -0.4814
H14 H -0.5883 -0.0211 -0.4566
H15 H -0.7338 -0.1874 -0.5188
H16 H -0.6674 -0.2786 -0.4125
H17 H -1.0331 -0.4686 -0.7045
H18 H -0.6363 0.4714 -0.2852
H22 H -1.0618 -0.0131 -0.7003
H23 H -1.0205 -0.1645 -0.7261
H24 H -0.6487 0.2504 -0.3474
H33 H -0.9824 -0.1877 -0.5296
H34 H -0.9223 -0.0982 -0.4844
H35 H -0.9278 -0.3051 -0.4881
H38 H -0.6024 -0.1216 -0.2382
H39 H -0.5153 -0.2778 -0.3909
H46 H -0.8881 -0.5505 -0.5149
H47 H -0.8187 -0.6178 -0.5419
H48 H -1.1898 -0.2034 -0.6639
H49 H -1.1300 -0.0807 -0.6264
H50 H -1.1432 -0.2780 -0.6119
H51 H -1.1780 -0.7345 -0.7209
H52 H -1.1302 -0.6920 -0.7638
H53 H -1.2260 -0.6644 -0.7731
H56 H -0.7221 -0.4749 -0.4863
H57 H -0.7891 -0.4369 -0.4543
H60 H -0.8268 -0.0425 -0.5898
H61 H -0.8763 0.0620 -0.5557
H62 H -0.7401 0.1640 -0.4380
H63 H -0.8090 0.1229 -0.4854
H64 H -0.7158 0.1138 -0.4891
H71 H -1.1364 -0.0801 -0.7830
H72 H -1.1886 -0.1137 -0.7417
H73 H -0.3202 -0.2716 -0.4202
H74 H -0.3742 -0.4138 -0.3998
H75 H -0.3559 -0.2318 -0.3720
H76 H -1.2046 -0.4380 -0.7127
H79 H -0.9482 -0.6384 -0.6339
H80 H -0.9802 -0.6416 -0.5833
H84 H -1.1084 -0.5483 -0.6240
H85 H -1.0851 -0.6984 -0.6586
H86 H -0.5883 0.1047 -0.1762
H87 H -0.3758 -0.1222 -0.4861
H88 H -0.4468 0.0089 -0.4804
H89 H -0.4675 -0.1673 -0.5110
loop_
_geom_bond_atom_site_label_1
_geom_bond_atom_site_label_2
_geom_bond_site_symmetry_1
_geom_bond_site_symmetry_2
Br1 C22 1_555 1_555
Br2 C34 1_555 1_555
C1 C15 1_555 1_555
O1 C17 1_555 1_555
C2 C16 1_555 1_555
C3 C10 1_555 1_555
C4 C26 1_555 1_555
O2 C32 1_555 1_555
C5 O4 1_555 1_555
C6 C14 1_555 1_555
C7 C28 1_555 1_555
C8 C24 1_555 1_555
C9 C14 1_555 1_555
C10 C24 1_555 1_555
C11 C16 1_555 1_555
C12 C19 1_555 1_555
C13 C17 1_555 1_555
O3 C32 1_555 1_555
C14 C49 1_555 1_555
C15 C27 1_555 1_555
C16 C46 1_555 1_555
C17 C2 1_555 1_555
C18 C9 1_555 1_555
C19 C11 1_555 1_555
C20 C26 1_555 1_555
C21 C1 1_555 1_555
C22 C30 1_555 1_555
C23 C9 1_555 1_555
C24 C27 1_555 1_555
C25 C38 1_555 1_555
C26 H24 1_555 1_555
C27 C47 1_555 1_555
C28 C1 1_555 1_555
C29 C28 1_555 1_555
C30 C53 1_555 1_555
C31 C59 1_555 1_555
C32 C68 1_555 1_555
C33 C10 1_555 1_555
C34 C20 1_555 1_555
C35 C11 1_555 1_555
C36 C3 1_555 1_555
C37 C4 1_555 1_555
C38 C13 1_555 1_555
C39 C33 1_555 1_555
C40 C60 1_555 1_555
O5 C57 1_555 1_555
C41 C1 1_555 1_555
O6 C58 1_555 1_555
C42 C19 1_555 1_555
C43 C9 1_555 1_555
C44 C56 1_555 1_555
C45 C24 1_555 1_555
C46 C42 1_555 1_555
C47 C29 1_555 1_555
C48 C6 1_555 1_555
C49 C19 1_555 1_555
C50 C2 1_555 1_555
C51 C7 1_555 1_555
C52 C41 1_555 1_555
C53 C68 1_555 1_555
C54 C5 1_555 1_555
C55 C25 1_555 1_555
C56 C5 1_555 1_555
C57 C7 1_555 1_555
C58 O1 1_555 1_555
C59 C33 1_555 1_555
C60 O2 1_555 1_555
C61 C49 1_555 1_555
C62 C10 1_555 1_555
C63 C18 1_555 1_555
C64 C34 1_555 1_555
C65 C25 1_555 1_555
C66 C67 1_555 1_555
C67 C40 1_555 1_555
C68 C69 1_555 1_555
C69 C70 1_555 1_555
C70 C22 1_555 1_555
C71 C66 1_555 1_555
C72 C66 1_555 1_555
H1 C2 1_555 1_555
H2 C3 1_555 1_555
H3 C3 1_555 1_555
H4 C6 1_555 1_555
H5 C6 1_555 1_555
H6 C7 1_555 1_555
H7 C8 1_555 1_555
H8 C8 1_555 1_555
H9 C8 1_555 1_555
H10 C12 1_555 1_555
H11 C12 1_555 1_555
H12 C12 1_555 1_555
H13 C13 1_555 1_555
H14 C13 1_555 1_555
H15 C16 1_555 1_555
H16 C17 1_555 1_555
H17 C18 1_555 1_555
H18 C20 1_555 1_555
H19 C21 1_555 1_555
H20 C21 1_555 1_555
H21 C21 1_555 1_555
H22 C23 1_555 1_555
H23 C23 1_555 1_555
H25 C28 1_555 1_555
H26 C29 1_555 1_555
H27 C29 1_555 1_555
H28 C30 1_555 1_555
H29 C31 1_555 1_555
H30 C31 1_555 1_555
H31 C31 1_555 1_555
H32 C33 1_555 1_555
H33 C35 1_555 1_555
H34 C35 1_555 1_555
H35 C35 1_555 1_555
H36 C36 1_555 1_555
H37 C36 1_555 1_555
H38 C37 1_555 1_555
H39 C38 1_555 1_555
H40 C39 1_555 1_555
H41 C39 1_555 1_555
H42 C40 1_555 1_555
H43 C40 1_555 1_555
H44 C41 1_555 1_555
H45 C41 1_555 1_555
H46 C42 1_555 1_555
H47 C42 1_555 1_555
H48 C43 1_555 1_555
H49 C43 1_555 1_555
H50 C43 1_555 1_555
H51 C44 1_555 1_555
H52 C44 1_555 1_555
H53 C44 1_555 1_555
H54 C45 1_555 1_555
H55 C45 1_555 1_555
H56 C46 1_555 1_555
H57 C46 1_555 1_555
H58 C47 1_555 1_555
H59 C47 1_555 1_555
H60 C48 1_555 1_555
H61 C48 1_555 1_555
H62 C50 1_555 1_555
H63 C50 1_555 1_555
H64 C50 1_555 1_555
H65 C51 1_555 1_555
H66 C51 1_555 1_555
H67 C51 1_555 1_555
H68 C52 1_555 1_555
H69 C52 1_555 1_555
H70 C53 1_555 1_555
H71 C54 1_555 1_555
H72 C54 1_555 1_555
H73 C55 1_555 1_555
H74 C55 1_555 1_555
H75 C55 1_555 1_555
H76 C56 1_555 1_555
H77 C59 1_555 1_555
H78 C60 1_555 1_555
H79 C61 1_555 1_555
H80 C61 1_555 1_555
H81 C62 1_555 1_555
H82 C62 1_555 1_555
H83 C62 1_555 1_555
H84 C63 1_555 1_555
H85 C63 1_555 1_555
H86 C64 1_555 1_555
H87 C65 1_555 1_555
H88 C65 1_555 1_555
H89 C65 1_555 1_555
H90 C67 1_555 1_555
H91 C69 1_555 1_555
H92 C70 1_555 1_555
H93 C71 1_555 1_555
H94 C71 1_555 1_555
H95 C71 1_555 1_555
H96 C72 1_555 1_555
H97 C72 1_555 1_555
H98 C72 1_555 1_555
C4 C58 1_555 1_555
C11 C48 1_555 1_555
C15 C36 1_555 1_555
C18 C56 1_555 1_555
C23 C54 1_555 1_555
C37 C64 1_555 1_555
C39 C45 1_555 1_555
C52 C57 1_555 1_555
C59 C60 1_555 1_555
C61 C63 1_555 1_555

#END
