
#######################################################################
#
#                 Cambridge Crystallographic Data Centre
#                                CCDC 
#
#######################################################################
#
# If this CIF has been generated from an entry in the Cambridge 
# Structural Database, then it will include bibliographic, chemical, 
# crystal, experimental, refinement or atomic coordinate data resulting 
# from the CCDC's data processing and validation procedures.
#
#######################################################################

data_PEXLAH
_chemical_formula_moiety         'C23 H20 N2 O1'
_chemical_name_systematic        
1-Benzyl-4-(4-methoxyphenyl)-2-phenyl-1H-imidazole
_symmetry_cell_setting           monoclinic
_symmetry_space_group_name_H-M   'P 21'
_symmetry_Int_Tables_number      4
_space_group_name_Hall           'P 2yb'
loop_
_symmetry_equiv_pos_site_id
_symmetry_equiv_pos_as_xyz
1 x,y,z
2 -x,1/2+y,-z
_cell_length_a                   6.4088(19)
_cell_length_b                   17.279(5)
_cell_length_c                   8.579(3)
_cell_angle_alpha                90
_cell_angle_beta                 101.670(6)
_cell_angle_gamma                90
_cell_volume                     930.38
_exptl_crystal_colour            colorless
_exptl_crystal_description       block
_cell_formula_units_Z            2
loop_
_atom_site_label
_atom_site_type_symbol
_atom_site_fract_x
_atom_site_fract_y
_atom_site_fract_z
O1 O 1.0186(3) 0.07107(10) 0.1078(2)
N1 N 0.4124(3) 0.41983(10) 0.37618(19)
N2 N 0.7078(3) 0.41195(9) 0.27941(19)
C1 C 0.5707(3) 0.45936(12) 0.3263(2)
C2 C 0.6347(3) 0.33784(12) 0.3000(2)
C3 C 0.4538(3) 0.34243(12) 0.3598(2)
H1 H 0.3735 0.3011 0.3848
C4 C 0.2385(3) 0.45044(14) 0.4443(3)
H2 H 0.1038 0.4343 0.3790
H3 H 0.2434 0.5065 0.4426
C5 C 0.2489(3) 0.42353(12) 0.6130(2)
C6 C 0.4377(4) 0.42760(13) 0.7248(3)
H4 H 0.5606 0.4456 0.6949
C7 C 0.4447(4) 0.40516(14) 0.8803(3)
H5 H 0.5720 0.4082 0.9546
C8 C 0.2643(4) 0.37848(17) 0.9252(3)
H6 H 0.2690 0.3636 1.0301
C9 C 0.0764(4) 0.37371(18) 0.8149(3)
H7 H -0.0462 0.3556 0.8452
C10 C 0.0696(4) 0.39572(14) 0.6593(3)
H8 H -0.0575 0.3917 0.5849
C11 C 0.5847(3) 0.54480(12) 0.3251(2)
C12 C 0.4371(4) 0.58826(15) 0.2228(3)
H9 H 0.3232 0.5638 0.1568
C13 C 0.4561(5) 0.66795(15) 0.2171(3)
H10 H 0.3567 0.6966 0.1462
C14 C 0.6203(4) 0.70440(16) 0.3153(3)
H11 H 0.6321 0.7580 0.3122
C15 C 0.7677(4) 0.66231(14) 0.4183(3)
H12 H 0.8800 0.6873 0.4850
C16 C 0.7503(4) 0.58257(15) 0.4238(3)
H13 H 0.8508 0.5542 0.4946
C17 C 0.7420(3) 0.26901(12) 0.2544(2)
C18 C 0.9102(3) 0.27577(13) 0.1765(3)
H14 H 0.9578 0.3249 0.1561
C19 C 1.0104(4) 0.21130(13) 0.1277(3)
H15 H 1.1247 0.2175 0.0771
C20 C 0.9393(4) 0.13853(13) 0.1548(2)
C21 C 0.7740(4) 0.13044(14) 0.2347(3)
H16 H 0.7277 0.0812 0.2556
C22 C 0.6763(4) 0.19480(13) 0.2840(3)
H17 H 0.5652 0.1883 0.3378
C23 C 1.1699(5) 0.0760(2) 0.0079(4)
H18 H 1.1133 0.1073 -0.0832
H19 H 1.1998 0.0250 -0.0264
H20 H 1.2989 0.0989 0.0659
loop_
_geom_bond_atom_site_label_1
_geom_bond_atom_site_label_2
_geom_bond_site_symmetry_1
_geom_bond_site_symmetry_2
O1 C20 1_555 1_555
N1 C1 1_555 1_555
N2 C1 1_555 1_555
C1 C11 1_555 1_555
C2 N2 1_555 1_555
C3 N1 1_555 1_555
H1 C3 1_555 1_555
C4 N1 1_555 1_555
H2 C4 1_555 1_555
H3 C4 1_555 1_555
C5 C4 1_555 1_555
C6 C5 1_555 1_555
H4 C6 1_555 1_555
C7 C6 1_555 1_555
H5 C7 1_555 1_555
C8 C7 1_555 1_555
H6 C8 1_555 1_555
C9 C8 1_555 1_555
H7 C9 1_555 1_555
C10 C5 1_555 1_555
H8 C10 1_555 1_555
C11 C12 1_555 1_555
C12 H9 1_555 1_555
C13 C12 1_555 1_555
H10 C13 1_555 1_555
C14 C13 1_555 1_555
H11 C14 1_555 1_555
C15 C14 1_555 1_555
H12 C15 1_555 1_555
C16 C11 1_555 1_555
H13 C16 1_555 1_555
C17 C2 1_555 1_555
C18 C17 1_555 1_555
H14 C18 1_555 1_555
C19 C18 1_555 1_555
H15 C19 1_555 1_555
C20 C19 1_555 1_555
C21 C20 1_555 1_555
H16 C21 1_555 1_555
C22 C17 1_555 1_555
H17 C22 1_555 1_555
C23 O1 1_555 1_555
H18 C23 1_555 1_555
H19 C23 1_555 1_555
H20 C23 1_555 1_555
C2 C3 1_555 1_555
C9 C10 1_555 1_555
C15 C16 1_555 1_555
C21 C22 1_555 1_555

#END
