
#######################################################################
#
#                 Cambridge Crystallographic Data Centre
#                                CCDC 
#
#######################################################################
#
# If this CIF has been generated from an entry in the Cambridge 
# Structural Database, then it will include bibliographic, chemical, 
# crystal, experimental, refinement or atomic coordinate data resulting 
# from the CCDC's data processing and validation procedures.
#
#######################################################################

data_PEZJUZ
_chemical_formula_moiety         'C32 H22 S3'
_chemical_name_systematic        
4,5-Diphenyl-2-(2',6'-diphenylthiopyran-4'-ylidene)-1,3-dithiole
_symmetry_cell_setting           tetragonal
_symmetry_space_group_name_H-M   'P 4/n'
_symmetry_Int_Tables_number      85
_space_group_name_Hall           '-P 4a'
loop_
_symmetry_equiv_pos_site_id
_symmetry_equiv_pos_as_xyz
1 x,y,z
2 1/2-y,x,z
3 1/2-x,1/2-y,z
4 y,1/2-x,z
5 -x,-y,-z
6 1/2+y,-x,-z
7 1/2+x,1/2+y,-z
8 -y,1/2+x,-z
_cell_length_a                   30.175(4)
_cell_length_b                   30.175(4)
_cell_length_c                   5.6681(7)
_cell_angle_alpha                90
_cell_angle_beta                 90
_cell_angle_gamma                90
_cell_volume                     5160.98
_exptl_crystal_colour            red
_chemical_melting_point          '215-216 deg.C'
_cell_formula_units_Z            8
loop_
_atom_site_label
_atom_site_type_symbol
_atom_site_fract_x
_atom_site_fract_y
_atom_site_fract_z
S1 S 0.41213(10) 0.32090(9) -0.3916(6)
C1 C 0.44286(28) 0.33998(29) -0.1474(17)
C2 C 0.46925(26) 0.31405(29) -0.0179(19)
C3 C 0.47518(26) 0.26687(28) -0.0571(18)
C4 C 0.45050(28) 0.24393(31) -0.2408(19)
C5 C 0.42243(29) 0.26351(28) -0.3945(19)
S2 S 0.51642(7) 0.18750(7) 0.0286(5)
C6 C 0.50596(29) 0.24469(28) 0.0681(18)
S3 S 0.53874(7) 0.26796(7) 0.2917(5)
C7 C 0.57154(26) 0.22067(26) 0.3486(16)
C8 C 0.56045(26) 0.18397(29) 0.2317(18)
C9 C 0.43869(29) 0.38894(32) -0.1075(20)
C10 C 0.41674(38) 0.41533(34) -0.2819(22)
C11 C 0.41558(49) 0.46251(44) -0.2390(27)
C12 C 0.43414(43) 0.48078(38) -0.0335(28)
C13 C 0.45380(40) 0.45390(38) 0.1375(25)
C14 C 0.45643(34) 0.40733(35) 0.0958(23)
C15 C 0.39847(32) 0.23900(34) -0.5818(18)
C16 C 0.36365(38) 0.25908(40) -0.7025(28)
C17 C 0.34272(41) 0.23492(49) -0.8887(27)
C18 C 0.35524(41) 0.19219(44) -0.9469(24)
C19 C 0.38865(44) 0.17264(38) -0.8168(25)
C20 C 0.41107(40) 0.19576(35) -0.6354(22)
C21 C 0.60724(28) 0.22571(29) 0.5208(18)
C22 C 0.60197(32) 0.25458(29) 0.7130(19)
C23 C 0.63522(35) 0.25912(34) 0.8834(21)
C24 C 0.67461(32) 0.23464(34) 0.8611(21)
C25 C 0.68024(29) 0.20634(31) 0.6647(19)
C26 C 0.64673(29) 0.20170(28) 0.4961(18)
C27 C 0.58016(28) 0.13879(26) 0.2554(19)
C28 C 0.60654(31) 0.12134(32) 0.0763(21)
C29 C 0.62478(35) 0.07847(37) 0.1099(24)
C30 C 0.61616(40) 0.05514(35) 0.3132(24)
C31 C 0.58874(37) 0.07194(32) 0.4898(22)
C32 C 0.57008(32) 0.11509(32) 0.4583(21)
loop_
_geom_bond_atom_site_label_1
_geom_bond_atom_site_label_2
_geom_bond_site_symmetry_1
_geom_bond_site_symmetry_2
S1 C1 1_555 1_555
C1 C2 1_555 1_555
C2 C3 1_555 1_555
C3 C4 1_555 1_555
C4 C5 1_555 1_555
C5 S1 1_555 1_555
S2 C6 1_555 1_555
C6 C3 1_555 1_555
S3 C6 1_555 1_555
C7 S3 1_555 1_555
C8 S2 1_555 1_555
C9 C1 1_555 1_555
C10 C9 1_555 1_555
C11 C10 1_555 1_555
C12 C11 1_555 1_555
C13 C12 1_555 1_555
C14 C9 1_555 1_555
C15 C5 1_555 1_555
C16 C15 1_555 1_555
C17 C16 1_555 1_555
C18 C17 1_555 1_555
C19 C18 1_555 1_555
C20 C15 1_555 1_555
C21 C7 1_555 1_555
C22 C21 1_555 1_555
C23 C22 1_555 1_555
C24 C23 1_555 1_555
C25 C24 1_555 1_555
C26 C21 1_555 1_555
C27 C8 1_555 1_555
C28 C27 1_555 1_555
C29 C28 1_555 1_555
C30 C29 1_555 1_555
C31 C30 1_555 1_555
C32 C27 1_555 1_555
C7 C8 1_555 1_555
C13 C14 1_555 1_555
C19 C20 1_555 1_555
C25 C26 1_555 1_555
C31 C32 1_555 1_555

#END
