
#######################################################################
#
#                 Cambridge Crystallographic Data Centre
#                                CCDC 
#
#######################################################################
#
# If this CIF has been generated from an entry in the Cambridge 
# Structural Database, then it will include bibliographic, chemical, 
# crystal, experimental, refinement or atomic coordinate data resulting 
# from the CCDC's data processing and validation procedures.
#
#######################################################################

data_PEZKIR
_chemical_formula_moiety         'C28 H21 N1 O2 S1'
_chemical_name_systematic        
6-{2-[(4-methylphenyl)sulfonyl]-1-phenylethenyl}phenanthridine
_symmetry_cell_setting           triclinic
_symmetry_space_group_name_H-M   'P -1'
_symmetry_Int_Tables_number      2
_space_group_name_Hall           '-P 1'
loop_
_symmetry_equiv_pos_site_id
_symmetry_equiv_pos_as_xyz
1 x,y,z
2 -x,-y,-z
_cell_length_a                   9.8733(13)
_cell_length_b                   10.2896(13)
_cell_length_c                   12.4859(16)
_cell_angle_alpha                98.764(4)
_cell_angle_beta                 107.425(4)
_cell_angle_gamma                111.036(4)
_cell_volume                     1080.44
_exptl_crystal_colour            colorless
_exptl_crystal_description       block
_cell_formula_units_Z            2
loop_
_atom_site_label
_atom_site_type_symbol
_atom_site_fract_x
_atom_site_fract_y
_atom_site_fract_z
C1 C 0.34082(17) 0.08753(15) 0.24086(12)
C2 C 0.50773(17) 0.15700(15) 0.26878(13)
C3 C 0.61977(19) 0.19449(18) 0.38272(14)
H1 H 0.5868 0.1742 0.4432
C4 C 0.7768(2) 0.2606(2) 0.40506(15)
H2 H 0.8503 0.2855 0.4806
C5 C 0.8270(2) 0.2906(2) 0.31482(16)
H3 H 0.9339 0.3354 0.3305
C6 C 0.72034(19) 0.25485(18) 0.20346(15)
H4 H 0.7557 0.2758 0.1442
C7 C 0.55811(18) 0.18691(15) 0.17701(13)
C8 C 0.44013(18) 0.14492(15) 0.06025(13)
C9 C 0.47405(19) 0.16098(17) -0.04007(14)
H5 H 0.5782 0.2013 -0.0328
C10 C 0.3566(2) 0.11832(19) -0.14797(14)
H6 H 0.3816 0.1292 -0.2132
C11 C 0.1998(2) 0.05874(19) -0.16077(14)
H7 H 0.1206 0.0309 -0.2342
C12 C 0.16212(19) 0.04106(18) -0.06530(14)
H8 H 0.0573 0.0020 -0.0741
C13 C 0.28083(17) 0.08162(16) 0.04560(13)
C14 C 0.27600(17) 0.05021(16) 0.33323(12)
C15 C 0.27259(18) 0.16910(16) 0.41488(13)
C16 C 0.2896(2) 0.29863(19) 0.38913(15)
H9 H 0.3079 0.3124 0.3220
C17 C 0.2799(3) 0.4080(2) 0.46142(17)
H10 H 0.2915 0.4943 0.4424
C18 C 0.2533(2) 0.3900(2) 0.56084(16)
H11 H 0.2455 0.4632 0.6090
C19 C 0.2383(3) 0.2634(2) 0.58876(17)
H12 H 0.2205 0.2509 0.6563
C20 C 0.2491(3) 0.1541(2) 0.51773(16)
H13 H 0.2407 0.0695 0.5388
C21 C 0.2122(2) -0.08656(17) 0.33630(13)
H14 H 0.1627 -0.1026 0.3889
C22 C 0.0332(2) -0.31542(16) 0.12983(14)
C23 C 0.0304(2) -0.29861(19) 0.02107(14)
H15 H 0.1233 -0.2464 0.0125
C24 C -0.1098(2) -0.35921(19) -0.07369(16)
H16 H -0.1105 -0.3489 -0.1465
C25 C -0.2510(2) -0.43564(18) -0.06325(16)
C26 C -0.2447(2) -0.4510(2) 0.04676(18)
H17 H -0.3377 -0.5022 0.0556
C27 C -0.1063(2) -0.39334(19) 0.14213(16)
H18 H -0.1053 -0.4060 0.2145
C28 C -0.4037(2) -0.4990(2) -0.16672(19)
H19 H -0.4403 -0.4252 -0.1767
H20 H -0.4799 -0.5776 -0.1539
H21 H -0.3889 -0.5347 -0.2360
N1 N 0.23402(15) 0.05451(14) 0.13768(11)
O1 O 0.33813(14) -0.19571(13) 0.21148(10)
O2 O 0.20380(17) -0.33859(13) 0.32185(11)
S1 S 0.21146(5) -0.24000(4) 0.25149(3)
loop_
_geom_bond_atom_site_label_1
_geom_bond_atom_site_label_2
_geom_bond_site_symmetry_1
_geom_bond_site_symmetry_2
C1 C2 1_555 1_555
C2 C3 1_555 1_555
C3 H1 1_555 1_555
C4 C3 1_555 1_555
H2 C4 1_555 1_555
C5 C4 1_555 1_555
H3 C5 1_555 1_555
C6 C5 1_555 1_555
H4 C6 1_555 1_555
C7 C2 1_555 1_555
C8 C7 1_555 1_555
C9 C8 1_555 1_555
H5 C9 1_555 1_555
C10 C9 1_555 1_555
H6 C10 1_555 1_555
C11 C10 1_555 1_555
H7 C11 1_555 1_555
C12 C11 1_555 1_555
H8 C12 1_555 1_555
C13 C8 1_555 1_555
C14 C1 1_555 1_555
C15 C14 1_555 1_555
C16 C15 1_555 1_555
H9 C16 1_555 1_555
C17 C16 1_555 1_555
H10 C17 1_555 1_555
C18 C17 1_555 1_555
H11 C18 1_555 1_555
C19 C18 1_555 1_555
H12 C19 1_555 1_555
C20 C15 1_555 1_555
H13 C20 1_555 1_555
C21 C14 1_555 1_555
H14 C21 1_555 1_555
C22 C23 1_555 1_555
C23 H15 1_555 1_555
C24 C23 1_555 1_555
H16 C24 1_555 1_555
C25 C24 1_555 1_555
C26 C25 1_555 1_555
H17 C26 1_555 1_555
C27 C22 1_555 1_555
H18 C27 1_555 1_555
C28 C25 1_555 1_555
H19 C28 1_555 1_555
H20 C28 1_555 1_555
H21 C28 1_555 1_555
N1 C1 1_555 1_555
O1 S1 1_555 1_555
O2 S1 1_555 1_555
S1 C21 1_555 1_555
C6 C7 1_555 1_555
C12 C13 1_555 1_555
C13 N1 1_555 1_555
C19 C20 1_555 1_555
C22 S1 1_555 1_555
C26 C27 1_555 1_555

#END
