
#######################################################################
#
#                 Cambridge Crystallographic Data Centre
#                                CCDC 
#
#######################################################################
#
# If this CIF has been generated from an entry in the Cambridge 
# Structural Database, then it will include bibliographic, chemical, 
# crystal, experimental, refinement or atomic coordinate data resulting 
# from the CCDC's data processing and validation procedures.
#
#######################################################################

data_PEZXUQ
_chemical_formula_moiety         'C10 H9 F3 N2 O4'
_chemical_name_systematic        
N-[2-nitro-4-(2,2,2-trifluoroethoxy)phenyl]acetamide
_symmetry_cell_setting           triclinic
_symmetry_space_group_name_H-M   'P -1'
_symmetry_Int_Tables_number      2
_space_group_name_Hall           '-P 1'
loop_
_symmetry_equiv_pos_site_id
_symmetry_equiv_pos_as_xyz
1 x,y,z
2 -x,-y,-z
_cell_length_a                   4.6612(6)
_cell_length_b                   8.2732(9)
_cell_length_c                   15.4139(18)
_cell_angle_alpha                81.641(9)
_cell_angle_beta                 82.204(10)
_cell_angle_gamma                80.603(10)
_cell_volume                     576.375
_exptl_crystal_colour            yellow
_exptl_crystal_description       needle
_cell_formula_units_Z            2
loop_
_atom_site_label
_atom_site_type_symbol
_atom_site_fract_x
_atom_site_fract_y
_atom_site_fract_z
C1 C -0.1237(5) 0.8728(3) 0.70529(16)
C2 C -0.0492(5) 1.0309(3) 0.67469(15)
C3 C 0.0944(5) 1.1147(3) 0.72392(17)
H1 H 0.1418 1.2187 0.7014
C4 C 0.1653(6) 1.0431(3) 0.80558(17)
C5 C 0.0969(7) 0.8854(3) 0.83747(18)
H2 H 0.1481 0.8350 0.8923
C6 C -0.0457(7) 0.8035(3) 0.78849(19)
H3 H -0.0912 0.6992 0.8115
C7 C -0.2882(5) 0.6257(3) 0.66485(16)
C8 C -0.4677(7) 0.5787(3) 0.6016(2)
H4 H -0.3422 0.5158 0.5599
H5 H -0.5667 0.6767 0.5708
H6 H -0.6094 0.5133 0.6335
C9 C 0.3329(6) 1.2803(3) 0.83849(18)
H7 H 0.1502 1.3445 0.8223
H8 H 0.4828 1.2938 0.7889
C10 C 0.4183(6) 1.3371(4) 0.9179(2)
F1 F 0.2297(10) 1.3159(8) 0.9902(3)
F2 F 0.6769(12) 1.2571(6) 0.9388(4)
F3 F 0.4403(16) 1.4997(7) 0.9013(2)
N1 N -0.2735(5) 0.7915(2) 0.65651(14)
H9 H -0.3676 0.8526 0.6165
N2 N -0.1142(5) 1.1179(2) 0.58871(14)
O1 O -0.1643(5) 0.5244(2) 0.71735(15)
O2 O -0.2962(5) 1.0729(2) 0.54991(14)
O3 O 0.0133(5) 1.2345(2) 0.55753(13)
O4 O 0.3009(5) 1.1128(2) 0.86052(13)
F4? F 0.191(6) 1.359(5) 0.968(2)
F5? F 0.592(6) 1.235(4) 0.961(2)
F6? F 0.564(7) 1.446(4) 0.9025(16)
loop_
_geom_bond_atom_site_label_1
_geom_bond_atom_site_label_2
_geom_bond_site_symmetry_1
_geom_bond_site_symmetry_2
C1 C2 1_555 1_555
C2 C3 1_555 1_555
C3 H1 1_555 1_555
C4 C3 1_555 1_555
C5 C4 1_555 1_555
H2 C5 1_555 1_555
C6 C1 1_555 1_555
H3 C6 1_555 1_555
C7 C8 1_555 1_555
C8 H4 1_555 1_555
H5 C8 1_555 1_555
H6 C8 1_555 1_555
C9 H7 1_555 1_555
H8 C9 1_555 1_555
C10 C9 1_555 1_555
F1 C10 1_555 1_555
F2 C10 1_555 1_555
F3 C10 1_555 1_555
N1 C1 1_555 1_555
H9 N1 1_555 1_555
N2 C2 1_555 1_555
O1 C7 1_555 1_555
O2 N2 1_555 1_555
O3 N2 1_555 1_555
O4 C4 1_555 1_555
C5 C6 1_555 1_555
C7 N1 1_555 1_555
C9 O4 1_555 1_555

#END
