
#######################################################################
#
#                 Cambridge Crystallographic Data Centre
#                                CCDC 
#
#######################################################################
#
# If this CIF has been generated from an entry in the Cambridge 
# Structural Database, then it will include bibliographic, chemical, 
# crystal, experimental, refinement or atomic coordinate data resulting 
# from the CCDC's data processing and validation procedures.
#
#######################################################################

data_PFBBFL11
_chemical_formula_moiety         'C42 H28'
_chemical_name_systematic        
2'-Benzylidene-3'-(fluoren-9-ylidene)-4'-phenyl-fluorene-9-spiro-1'-cyclobutane
_symmetry_cell_setting           monoclinic
_symmetry_space_group_name_H-M   'C c'
_symmetry_Int_Tables_number      9
_space_group_name_Hall           'C -2yc'
loop_
_symmetry_equiv_pos_site_id
_symmetry_equiv_pos_as_xyz
1 x,y,z
2 x,-y,1/2+z
3 1/2+x,1/2+y,z
4 1/2+x,1/2-y,1/2+z
_cell_length_a                   18.2159(16)
_cell_length_b                   19.8116(17)
_cell_length_c                   8.5724(7)
_cell_angle_alpha                90
_cell_angle_beta                 110.5690(10)
_cell_angle_gamma                90
_cell_volume                     2896.44
_exptl_crystal_colour            yellow
_exptl_crystal_description       rod
_chemical_melting_point          175-178deg.C
_cell_formula_units_Z            4
_exptl_crystal_recrystallization_method dichloromethane/pentane
loop_
_atom_site_label
_atom_site_type_symbol
_atom_site_fract_x
_atom_site_fract_y
_atom_site_fract_z
C1 C 0.30297(10) 0.32323(9) 0.2702(2)
C2 C 0.33068(11) 0.36531(9) 0.4020(2)
C3 C 0.28504(11) 0.39148(9) 0.5016(2)
C4 C 0.20644(12) 0.38438(9) 0.4840(2)
H1 H 0.1699(14) 0.3598(11) 0.395(3)
C5 C 0.17992(13) 0.41392(10) 0.6010(3)
H2 H 0.1266(13) 0.4087(11) 0.589(3)
C6 C 0.22966(13) 0.45115(10) 0.7330(3)
H3 H 0.2090(13) 0.4714(11) 0.814(3)
C7 C 0.30792(13) 0.45949(10) 0.7507(3)
H4 H 0.3436(14) 0.4865(12) 0.847(3)
C8 C 0.33513(12) 0.42975(9) 0.6349(2)
C9 C 0.41351(12) 0.42913(9) 0.6253(2)
C10 C 0.48248(13) 0.45717(10) 0.7312(2)
H5 H 0.4816(14) 0.4843(12) 0.826(3)
C11 C 0.55123(12) 0.44560(11) 0.6996(3)
H6 H 0.6003(13) 0.4644(11) 0.772(3)
C12 C 0.55046(12) 0.40679(10) 0.5647(3)
H7 H 0.5974(16) 0.3992(12) 0.543(3)
C13 C 0.48111(11) 0.37913(9) 0.4565(2)
H8 H 0.4816(14) 0.3517(12) 0.362(3)
C14 C 0.41169(11) 0.39037(9) 0.4859(2)
C15 C 0.33467(11) 0.28620(9) 0.1603(2)
C16 C 0.38849(11) 0.30042(10) 0.0911(2)
H9 H 0.4114(12) 0.3460(11) 0.117(3)
C17 C 0.41473(11) 0.25811(9) -0.0187(2)
C18 C 0.40843(11) 0.18769(10) -0.0220(2)
H10 H 0.3856(12) 0.1659(10) 0.052(2)
C19 C 0.43847(12) 0.14932(11) -0.1202(3)
H11 H 0.4338(13) 0.0992(12) -0.122(3)
C20 C 0.47543(13) 0.18026(11) -0.2182(3)
H12 H 0.4954(14) 0.1514(12) -0.288(3)
C21 C 0.48175(13) 0.24964(12) -0.2165(3)
H13 H 0.5066(17) 0.2720(14) -0.286(4)
C22 C 0.45259(12) 0.28803(10) -0.1165(3)
H14 H 0.4590(14) 0.3379(12) -0.111(3)
C23 C 0.26869(10) 0.23364(9) 0.1184(2)
C24 C 0.22830(10) 0.21270(9) -0.0609(2)
C25 C 0.20296(11) 0.25227(10) -0.2016(2)
H15 H 0.2087(12) 0.3011(11) -0.193(3)
C26 C 0.16511(13) 0.22176(11) -0.3542(3)
H16 H 0.1457(15) 0.2479(13) -0.452(3)
C27 C 0.15353(13) 0.15228(11) -0.3650(3)
H17 H 0.1278(13) 0.1335(12) -0.469(3)
C28 C 0.18063(12) 0.11210(10) -0.2247(2)
H18 H 0.1739(12) 0.0635(11) -0.232(3)
C29 C 0.21852(11) 0.14257(9) -0.0717(2)
C30 C 0.25519(10) 0.11376(9) 0.0959(2)
C31 C 0.26326(11) 0.04715(10) 0.1507(2)
H19 H 0.2411(13) 0.0108(11) 0.071(3)
C32 C 0.30284(12) 0.03445(10) 0.3190(3)
H20 H 0.3095(13) -0.0111(11) 0.356(3)
C33 C 0.33183(12) 0.08698(10) 0.4308(2)
H21 H 0.3595(14) 0.0778(11) 0.546(3)
C34 C 0.32333(11) 0.15349(10) 0.3765(2)
H22 H 0.3421(15) 0.1910(13) 0.455(3)
C35 C 0.28581(10) 0.16637(9) 0.2084(2)
C36 C 0.22557(10) 0.28474(9) 0.2035(2)
H23 H 0.2107(12) 0.2618(10) 0.287(3)
C37 C 0.15556(11) 0.32136(9) 0.0858(2)
C38 C 0.15701(11) 0.38978(10) 0.0532(2)
H24 H 0.2037(14) 0.4159(11) 0.110(3)
C39 C 0.09034(12) 0.42194(11) -0.0532(3)
H25 H 0.0921(13) 0.4695(13) -0.073(3)
C40 C 0.02230(12) 0.38583(11) -0.1284(3)
H26 H -0.0236(15) 0.4087(12) -0.198(3)
C41 C 0.02088(12) 0.31719(11) -0.0978(3)
H27 H -0.0276(14) 0.2904(12) -0.147(3)
C42 C 0.08660(11) 0.28548(10) 0.0081(2)
H28 H 0.0872(12) 0.2378(11) 0.029(3)
loop_
_geom_bond_atom_site_label_1
_geom_bond_atom_site_label_2
_geom_bond_site_symmetry_1
_geom_bond_site_symmetry_2
C1 C2 1_555 1_555
C2 C3 1_555 1_555
C3 C4 1_555 1_555
C4 H1 1_555 1_555
C5 C4 1_555 1_555
H2 C5 1_555 1_555
C6 C5 1_555 1_555
H3 C6 1_555 1_555
C7 C6 1_555 1_555
H4 C7 1_555 1_555
C8 C3 1_555 1_555
C9 C8 1_555 1_555
C10 C9 1_555 1_555
H5 C10 1_555 1_555
C11 C10 1_555 1_555
H6 C11 1_555 1_555
C12 C11 1_555 1_555
H7 C12 1_555 1_555
C13 C12 1_555 1_555
H8 C13 1_555 1_555
C14 C2 1_555 1_555
C15 C1 1_555 1_555
C16 C15 1_555 1_555
H9 C16 1_555 1_555
C17 C16 1_555 1_555
C18 C17 1_555 1_555
H10 C18 1_555 1_555
C19 C18 1_555 1_555
H11 C19 1_555 1_555
C20 C19 1_555 1_555
H12 C20 1_555 1_555
C21 C20 1_555 1_555
H13 C21 1_555 1_555
C22 C17 1_555 1_555
H14 C22 1_555 1_555
C23 C15 1_555 1_555
C24 C23 1_555 1_555
C25 C24 1_555 1_555
H15 C25 1_555 1_555
C26 C25 1_555 1_555
H16 C26 1_555 1_555
C27 C26 1_555 1_555
H17 C27 1_555 1_555
C28 C27 1_555 1_555
H18 C28 1_555 1_555
C29 C24 1_555 1_555
C30 C29 1_555 1_555
C31 C30 1_555 1_555
H19 C31 1_555 1_555
C32 C31 1_555 1_555
H20 C32 1_555 1_555
C33 C32 1_555 1_555
H21 C33 1_555 1_555
C34 C33 1_555 1_555
H22 C34 1_555 1_555
C35 C23 1_555 1_555
C36 C1 1_555 1_555
H23 C36 1_555 1_555
C37 C36 1_555 1_555
C38 C37 1_555 1_555
H24 C38 1_555 1_555
C39 C38 1_555 1_555
H25 C39 1_555 1_555
C40 C39 1_555 1_555
H26 C40 1_555 1_555
C41 C40 1_555 1_555
H27 C41 1_555 1_555
C42 C37 1_555 1_555
H28 C42 1_555 1_555
C7 C8 1_555 1_555
C9 C14 1_555 1_555
C13 C14 1_555 1_555
C21 C22 1_555 1_555
C23 C36 1_555 1_555
C28 C29 1_555 1_555
C30 C35 1_555 1_555
C34 C35 1_555 1_555
C41 C42 1_555 1_555

#END
