
#######################################################################
#
#                 Cambridge Crystallographic Data Centre
#                                CCDC 
#
#######################################################################
#
# If this CIF has been generated from an entry in the Cambridge 
# Structural Database, then it will include bibliographic, chemical, 
# crystal, experimental, refinement or atomic coordinate data resulting 
# from the CCDC's data processing and validation procedures.
#
#######################################################################

data_PHBORA01
_chemical_name_common            'PDB Chemical Component code: PBC'
_chemical_formula_moiety         'C6 H7 B1 O2'
_chemical_name_systematic        'phenylboronic acid'
_symmetry_cell_setting           orthorhombic
_symmetry_space_group_name_H-M   'I b a 2'
_symmetry_Int_Tables_number      45
_space_group_name_Hall           'I 2 -2c'
loop_
_symmetry_equiv_pos_site_id
_symmetry_equiv_pos_as_xyz
1 x,y,z
2 -x,-y,z
3 1/2+x,1/2-y,z
4 1/2-x,1/2+y,z
5 1/2+x,1/2+y,1/2+z
6 1/2-x,1/2-y,1/2+z
7 x,-y,1/2+z
8 -x,y,1/2+z
_cell_length_a                   15.095(3)
_cell_length_b                   17.867(4)
_cell_length_c                   9.7290(19)
_cell_angle_alpha                90
_cell_angle_beta                 90
_cell_angle_gamma                90
_cell_volume                     2623.93
_cell_formula_units_Z            16
loop_
_atom_site_label
_atom_site_type_symbol
_atom_site_fract_x
_atom_site_fract_y
_atom_site_fract_z
C1 C 0.29815(11) 0.55098(9) 0.08803(19)
B1 B 0.21096(12) 0.50458(10) 0.0841(2)
O1 O 0.18002(8) 0.47081(7) 0.20094(12)
H1 H 0.1317(16) 0.4472(13) 0.191(3)
O2 O 0.16140(7) 0.49389(7) -0.03167(13)
H2 H 0.1810(15) 0.5074(13) -0.109(3)
C2 C 0.36023(11) 0.53965(10) 0.1931(2)
H3 H 0.3464(13) 0.5027(12) 0.267(3)
C3 C 0.43928(12) 0.57980(11) 0.1960(2)
H4 H 0.4838(15) 0.5707(11) 0.272(3)
C4 C 0.45772(13) 0.63179(11) 0.0950(2)
H5 H 0.5146(13) 0.6568(10) 0.099(2)
C5 C 0.39709(13) 0.64457(11) -0.0089(2)
H6 H 0.4092(13) 0.6834(12) -0.080(2)
C6 C 0.31817(11) 0.60434(10) -0.0128(2)
H7 H 0.2738(13) 0.6132(10) -0.089(2)
C7 C 0.91829(10) 0.30634(9) 0.03578(18)
B2 B 0.99254(12) 0.36717(11) 0.0420(2)
O3 O 1.03458(8) 0.38842(7) -0.07646(12)
H8 H 1.0757(14) 0.4249(12) -0.057(2)
O4 O 1.02118(8) 0.40074(7) 0.15989(12)
H9 H 0.9978(16) 0.3892(12) 0.240(3)
C8 C 0.90075(12) 0.26835(10) -0.0867(2)
H10 H 0.9354(12) 0.2827(10) -0.168(2)
C9 C 0.83773(12) 0.21189(11) -0.0946(2)
H11 H 0.8282(14) 0.1869(11) -0.180(3)
C10 C 0.79036(12) 0.19208(11) 0.0218(2)
H12 H 0.7448(13) 0.1530(11) 0.015(2)
C11 C 0.80655(12) 0.22814(11) 0.1452(2)
H13 H 0.7752(14) 0.2148(11) 0.229(2)
C12 C 0.86943(11) 0.28493(10) 0.1518(2)
H14 H 0.8816(12) 0.3097(9) 0.244(2)
loop_
_geom_bond_atom_site_label_1
_geom_bond_atom_site_label_2
_geom_bond_site_symmetry_1
_geom_bond_site_symmetry_2
C1 B1 1_555 1_555
B1 O1 1_555 1_555
O1 H1 1_555 1_555
O2 B1 1_555 1_555
H2 O2 1_555 1_555
C2 C1 1_555 1_555
H3 C2 1_555 1_555
C3 C2 1_555 1_555
H4 C3 1_555 1_555
C4 C3 1_555 1_555
H5 C4 1_555 1_555
C5 C4 1_555 1_555
H6 C5 1_555 1_555
C6 C1 1_555 1_555
H7 C6 1_555 1_555
C7 B2 1_555 1_555
B2 O3 1_555 1_555
O3 H8 1_555 1_555
O4 B2 1_555 1_555
H9 O4 1_555 1_555
C8 C7 1_555 1_555
H10 C8 1_555 1_555
C9 C8 1_555 1_555
H11 C9 1_555 1_555
C10 C9 1_555 1_555
H12 C10 1_555 1_555
C11 C10 1_555 1_555
H13 C11 1_555 1_555
C12 C7 1_555 1_555
H14 C12 1_555 1_555
C5 C6 1_555 1_555
C11 C12 1_555 1_555

#END
