
#######################################################################
#
#                 Cambridge Crystallographic Data Centre
#                                CCDC 
#
#######################################################################
#
# If this CIF has been generated from an entry in the Cambridge 
# Structural Database, then it will include bibliographic, chemical, 
# crystal, experimental, refinement or atomic coordinate data resulting 
# from the CCDC's data processing and validation procedures.
#
#######################################################################

data_PHBORA02
_chemical_formula_moiety         'C6 H7 B1 O2'
_chemical_name_systematic        'phenylboronic acid'
_symmetry_cell_setting           orthorhombic
_symmetry_space_group_name_H-M   'I b a 2'
_symmetry_Int_Tables_number      45
_space_group_name_Hall           'I 2 -2c'
loop_
_symmetry_equiv_pos_site_id
_symmetry_equiv_pos_as_xyz
1 x,y,z
2 -x,-y,z
3 1/2+x,1/2-y,z
4 1/2-x,1/2+y,z
5 1/2+x,1/2+y,1/2+z
6 1/2-x,1/2-y,1/2+z
7 x,-y,1/2+z
8 -x,y,1/2+z
_cell_length_a                   15.322(3)
_cell_length_b                   17.902(3)
_cell_length_c                   9.8089(17)
_cell_angle_alpha                90
_cell_angle_beta                 90
_cell_angle_gamma                90
_cell_volume                     2690.53
_exptl_crystal_colour            colorless
_exptl_crystal_description       block
_cell_formula_units_Z            16
loop_
_atom_site_label
_atom_site_type_symbol
_atom_site_fract_x
_atom_site_fract_y
_atom_site_fract_z
B1 B 0.20895(12) 0.99500(10) 0.0785(2)
C1 C 0.29561(11) 0.94989(9) 0.08144(19)
C2 C 0.35581(13) 0.96074(11) 0.1861(2)
H1 H 0.3436 0.9947 0.2553
C3 C 0.43388(15) 0.92139(14) 0.1881(3)
H2 H 0.4736 0.9294 0.2583
C4 C 0.45273(15) 0.87118(13) 0.0882(3)
H3 H 0.5055 0.8456 0.0895
C5 C 0.39409(16) 0.85853(13) -0.0136(3)
H4 H 0.4063 0.8234 -0.0808
C6 C 0.31676(14) 0.89775(11) -0.0172(2)
H5 H 0.2777 0.8889 -0.0879
O1 O 0.16091(7) 1.00686(7) -0.03574(12)
H6 H 0.1883 0.9924 -0.1026
O2 O 0.17829(8) 1.02693(7) 0.19490(11)
H7 H 0.1313 1.0472 0.1794
B2 B 0.99208(12) 0.13239(10) 0.03953(19)
C7 C 0.91943(10) 0.19264(9) 0.03393(18)
C8 C 0.90142(12) 0.23067(10) -0.0864(2)
H8 H 0.9323 0.2182 -0.1647
C9 C 0.83930(15) 0.28621(12) -0.0935(3)
H9 H 0.8286 0.3105 -0.1756
C10 C 0.79355(15) 0.30534(12) 0.0210(3)
H10 H 0.7515 0.3427 0.0169
C11 C 0.80965(14) 0.26965(13) 0.1412(3)
H11 H 0.7787 0.2830 0.2191
C12 C 0.87164(12) 0.21387(11) 0.1478(2)
H12 H 0.8817 0.1899 0.2305
O3 O 1.03242(8) 0.11116(7) -0.07883(11)
H13 H 1.0687 0.0787 -0.0622
O4 O 1.02138(8) 0.09897(7) 0.15506(11)
H14 H 0.9956 0.1163 0.2211
loop_
_geom_bond_atom_site_label_1
_geom_bond_atom_site_label_2
_geom_bond_site_symmetry_1
_geom_bond_site_symmetry_2
B1 C1 1_555 1_555
C1 C2 1_555 1_555
C2 H1 1_555 1_555
C3 C2 1_555 1_555
H2 C3 1_555 1_555
C4 C3 1_555 1_555
H3 C4 1_555 1_555
C5 C4 1_555 1_555
H4 C5 1_555 1_555
C6 C1 1_555 1_555
H5 C6 1_555 1_555
O1 B1 1_555 1_555
H6 O1 1_555 1_555
O2 B1 1_555 1_555
H7 O2 1_555 1_555
B2 C7 1_555 1_555
C7 C8 1_555 1_555
C8 H8 1_555 1_555
C9 C8 1_555 1_555
H9 C9 1_555 1_555
C10 C9 1_555 1_555
H10 C10 1_555 1_555
C11 C10 1_555 1_555
H11 C11 1_555 1_555
C12 C7 1_555 1_555
H12 C12 1_555 1_555
O3 B2 1_555 1_555
H13 O3 1_555 1_555
O4 B2 1_555 1_555
H14 O4 1_555 1_555
C5 C6 1_555 1_555
C11 C12 1_555 1_555

#END
