
#######################################################################
#
#                 Cambridge Crystallographic Data Centre
#                                CCDC 
#
#######################################################################
#
# If this CIF has been generated from an entry in the Cambridge 
# Structural Database, then it will include bibliographic, chemical, 
# crystal, experimental, refinement or atomic coordinate data resulting 
# from the CCDC's data processing and validation procedures.
#
#######################################################################

data_PHCPDD
_chemical_formula_moiety         'C18 H21 P1 S2'
_chemical_name_systematic        
6-Phenyl-6-phospha-2,10-dithiabicyclo(9.4.0)pentadeca-11(1),12,14-triene
_symmetry_cell_setting           monoclinic
_symmetry_space_group_name_H-M   'P 21/c'
_symmetry_Int_Tables_number      14
_space_group_name_Hall           '-P 2ybc'
loop_
_symmetry_equiv_pos_site_id
_symmetry_equiv_pos_as_xyz
1 x,y,z
2 -x,1/2+y,1/2-z
3 -x,-y,-z
4 x,1/2-y,1/2+z
_cell_length_a                   15.805(1)
_cell_length_b                   8.862(1)
_cell_length_c                   13.083(1)
_cell_angle_alpha                90
_cell_angle_beta                 113.79(1)
_cell_angle_gamma                90
_cell_volume                     1676.75
_exptl_crystal_colour            white
_chemical_melting_point          109-110deg.C
_cell_formula_units_Z            4
loop_
_atom_site_label
_atom_site_type_symbol
_atom_site_fract_x
_atom_site_fract_y
_atom_site_fract_z
S1 S 0.06624 0.32142 -0.00269
S2 S 0.13789 0.02928 0.16106
P1 P 0.37192 0.42083 0.23612
C1 C 0.12860 0.45690 -0.05120
C2 C 0.23220 0.44700 0.01390
C3 C 0.26420 0.50680 0.13330
C4 C 0.32320 0.25600 0.27980
C5 C 0.32170 0.11310 0.21260
C6 C 0.26090 -0.01120 0.22600
C7 C 0.11950 0.02160 0.01800
C8 C 0.09170 0.14820 -0.05200
C9 C 0.07860 0.13270 -0.16400
C10 C 0.09330 -0.00290 -0.20510
C11 C 0.12000 -0.12760 -0.13600
C12 C 0.13130 -0.11520 -0.02670
C13 C 0.39400 0.55710 0.35120
C14 C 0.44680 0.68240 0.35030
C15 C 0.46600 0.79290 0.43220
C16 C 0.43230 0.77820 0.51490
C17 C 0.37940 0.65300 0.51580
C18 C 0.36020 0.54240 0.43390
loop_
_geom_bond_atom_site_label_1
_geom_bond_atom_site_label_2
_geom_bond_site_symmetry_1
_geom_bond_site_symmetry_2
S1 C1 1_555 1_555
S2 C6 1_555 1_555
P1 C3 1_555 1_555
C1 C2 1_555 1_555
C2 C3 1_555 1_555
C4 P1 1_555 1_555
C5 C4 1_555 1_555
C6 C5 1_555 1_555
C7 S2 1_555 1_555
C8 S1 1_555 1_555
C9 C8 1_555 1_555
C10 C9 1_555 1_555
C11 C10 1_555 1_555
C12 C7 1_555 1_555
C13 P1 1_555 1_555
C14 C13 1_555 1_555
C15 C14 1_555 1_555
C16 C15 1_555 1_555
C17 C16 1_555 1_555
C18 C13 1_555 1_555
C7 C8 1_555 1_555
C11 C12 1_555 1_555
C17 C18 1_555 1_555

#END
