
#######################################################################
#
#                 Cambridge Crystallographic Data Centre
#                                CCDC 
#
#######################################################################
#
# If this CIF has been generated from an entry in the Cambridge 
# Structural Database, then it will include bibliographic, chemical, 
# crystal, experimental, refinement or atomic coordinate data resulting 
# from the CCDC's data processing and validation procedures.
#
#######################################################################

data_PIBKAP
_chemical_formula_moiety         'C29 H38 O1'
_chemical_name_systematic        
(8S,9S,13R,14S)-3-methoxy-13-methyl-17-(4-phenylbutyl)-7,8,9,11,12,13,14,15,16,17-decahydro-6H-cyclopenta[a]phenanthrene
_symmetry_cell_setting           orthorhombic
_symmetry_space_group_name_H-M   'P 21 21 21'
_symmetry_Int_Tables_number      19
_space_group_name_Hall           'P 2ac 2ab'
loop_
_symmetry_equiv_pos_site_id
_symmetry_equiv_pos_as_xyz
1 x,y,z
2 1/2-x,-y,1/2+z
3 -x,1/2+y,1/2-z
4 1/2+x,1/2-y,-z
_cell_length_a                   6.2460(4)
_cell_length_b                   18.9080(9)
_cell_length_c                   19.6256(9)
_cell_angle_alpha                90
_cell_angle_beta                 90
_cell_angle_gamma                90
_cell_volume                     2317.77
_exptl_crystal_colour            colorless
_exptl_crystal_description       block
_chemical_melting_point          '359-360 K'
_cell_formula_units_Z            4
_exptl_crystal_recrystallization_method 
'Re-crystallisation from solvent: ether/hexanes'
loop_
_atom_site_label
_atom_site_type_symbol
_atom_site_fract_x
_atom_site_fract_y
_atom_site_fract_z
C1 C 0.4591(3) 0.82121(9) 0.23712(9)
H1 H 0.5533 0.7882 0.2130
C2 C 0.2818(3) 0.77875(9) 0.27344(8)
H2 H 0.1850 0.8138 0.2935
O1 O 0.5650(3) 0.61760(8) 0.50219(7)
C3 C 0.5900(3) 0.86139(10) 0.28956(9)
H3 H 0.4966 0.8927 0.3150
H4 H 0.6958 0.8902 0.2664
C4 C 0.5621(3) 0.75166(9) 0.36436(8)
C5 C 0.0487(3) 0.78440(10) 0.16748(9)
H5 H -0.0252 0.7554 0.1342
H6 H -0.0560 0.8154 0.1884
C6 C 0.1471(3) 0.73650(9) 0.22239(9)
H7 H 0.2366 0.7011 0.2007
H8 H 0.0334 0.7121 0.2465
C7 C 0.3500(3) 0.86913(9) 0.18509(9)
H9 H 0.2473 0.8977 0.2109
C8 C 0.4805(3) 0.92164(10) 0.14226(9)
H10 H 0.6108 0.8999 0.1254
H11 H 0.5174 0.9633 0.1686
C9 C -0.4868(4) 0.96059(10) -0.16260(9)
C10 C 0.3685(3) 0.73503(9) 0.33293(9)
C11 C 0.5112(4) 0.65815(10) 0.44686(9)
C12 C 0.1290(3) 0.89249(9) 0.09055(9)
H12 H 0.0281 0.9173 0.1204
C13 C 0.0089(3) 0.87512(9) 0.02504(9)
H13 H -0.0977 0.8392 0.0348
H14 H 0.1091 0.8553 -0.0076
C14 C 0.6326(3) 0.71326(10) 0.42108(9)
H15 H 0.7621 0.7249 0.4416
C15 C -0.1021(3) 0.93864(9) -0.00738(9)
H16 H -0.1896 0.9620 0.0267
H17 H 0.0056 0.9721 -0.0225
C16 C -0.3471(4) 0.98114(10) -0.10289(10)
H18 H -0.4336 1.0066 -0.0699
H19 H -0.2361 1.0130 -0.1187
C17 C -0.2425(3) 0.91822(10) -0.06768(8)
H20 H -0.3536 0.8863 -0.0520
H21 H -0.1559 0.8929 -0.1007
C18 C 0.2486(4) 0.68004(11) 0.36100(10)
H22 H 0.1175 0.6687 0.3414
C19 C 0.2176(3) 0.82902(9) 0.13131(9)
C20 C 0.3169(4) 0.64191(11) 0.41670(10)
H23 H 0.2330 0.6054 0.4340
C21 C 0.3569(4) 0.78131(10) 0.08533(10)
H24 H 0.4101 0.7422 0.1115
H25 H 0.4750 0.8082 0.0678
H26 H 0.2720 0.7639 0.0482
C22 C 0.3272(3) 0.94083(10) 0.08264(9)
H27 H 0.2858 0.9902 0.0852
H28 H 0.3965 0.9325 0.0391
C23 C 0.7034(3) 0.81132(11) 0.33893(10)
H29 H 0.8274 0.7912 0.3164
H30 H 0.7541 0.8383 0.3777
C24 C -0.7442(4) 0.92077(12) -0.27340(11)
H31 H -0.8299 0.9078 -0.3101
C25 C -0.4199(4) 0.96995(9) -0.22969(10)
H32 H -0.2858 0.9894 -0.2381
C26 C -0.6864(4) 0.93002(15) -0.15295(11)
H33 H -0.7364 0.9229 -0.1088
C27 C 0.7556(4) 0.63472(13) 0.53735(11)
H34 H 0.7733 0.6032 0.5753
H35 H 0.7476 0.6826 0.5535
H36 H 0.8755 0.6300 0.5071
C28 C -0.5480(4) 0.95099(10) -0.28380(9)
H37 H -0.5003 0.9589 -0.3281
C29 C -0.8125(4) 0.90985(15) -0.20744(11)
H38 H -0.9447 0.8887 -0.1995
loop_
_geom_bond_atom_site_label_1
_geom_bond_atom_site_label_2
_geom_bond_site_symmetry_1
_geom_bond_site_symmetry_2
C1 H1 1_555 1_555
C2 C1 1_555 1_555
H2 C2 1_555 1_555
O1 C11 1_555 1_555
C3 C1 1_555 1_555
H3 C3 1_555 1_555
H4 C3 1_555 1_555
C4 C10 1_555 1_555
C5 H5 1_555 1_555
H6 C5 1_555 1_555
C6 C2 1_555 1_555
H7 C6 1_555 1_555
H8 C6 1_555 1_555
C7 C1 1_555 1_555
H9 C7 1_555 1_555
C8 C7 1_555 1_555
H10 C8 1_555 1_555
H11 C8 1_555 1_555
C9 C16 1_555 1_555
C10 C2 1_555 1_555
C11 C14 1_555 1_555
C12 H12 1_555 1_555
C13 C12 1_555 1_555
H13 C13 1_555 1_555
H14 C13 1_555 1_555
C14 C4 1_555 1_555
H15 C14 1_555 1_555
C15 C13 1_555 1_555
H16 C15 1_555 1_555
H17 C15 1_555 1_555
C16 H18 1_555 1_555
H19 C16 1_555 1_555
C17 C15 1_555 1_555
H20 C17 1_555 1_555
H21 C17 1_555 1_555
C18 C10 1_555 1_555
H22 C18 1_555 1_555
C19 C5 1_555 1_555
C20 C11 1_555 1_555
H23 C20 1_555 1_555
C21 C19 1_555 1_555
H24 C21 1_555 1_555
H25 C21 1_555 1_555
H26 C21 1_555 1_555
C22 C8 1_555 1_555
H27 C22 1_555 1_555
H28 C22 1_555 1_555
C23 C3 1_555 1_555
H29 C23 1_555 1_555
H30 C23 1_555 1_555
C24 H31 1_555 1_555
C25 C9 1_555 1_555
H32 C25 1_555 1_555
C26 C9 1_555 1_555
H33 C26 1_555 1_555
C27 O1 1_555 1_555
H34 C27 1_555 1_555
H35 C27 1_555 1_555
H36 C27 1_555 1_555
C28 C24 1_555 1_555
H37 C28 1_555 1_555
C29 C24 1_555 1_555
H38 C29 1_555 1_555
C4 C23 1_555 1_555
C5 C6 1_555 1_555
C7 C19 1_555 1_555
C12 C19 1_555 1_555
C12 C22 1_555 1_555
C16 C17 1_555 1_555
C18 C20 1_555 1_555
C25 C28 1_555 1_555
C26 C29 1_555 1_555

#END
