
#######################################################################
#
#                 Cambridge Crystallographic Data Centre
#                                CCDC 
#
#######################################################################
#
# If this CIF has been generated from an entry in the Cambridge 
# Structural Database, then it will include bibliographic, chemical, 
# crystal, experimental, refinement or atomic coordinate data resulting 
# from the CCDC's data processing and validation procedures.
#
#######################################################################

data_PIBNOG
_chemical_formula_moiety         'C13 H21 N3 O2'
_chemical_name_systematic        
N-{3-[5-(2-methylpropyl)-6-oxo-1,6-dihydropyrazin-2-yl]propyl}acetamide
_symmetry_cell_setting           triclinic
_symmetry_space_group_name_H-M   'P -1'
_symmetry_Int_Tables_number      2
_space_group_name_Hall           '-P 1'
loop_
_symmetry_equiv_pos_site_id
_symmetry_equiv_pos_as_xyz
1 x,y,z
2 -x,-y,-z
_cell_length_a                   4.9087(5)
_cell_length_b                   10.0855(10)
_cell_length_c                   15.2522(17)
_cell_angle_alpha                104.727(9)
_cell_angle_beta                 90.723(9)
_cell_angle_gamma                97.349(8)
_cell_volume                     723.479
_exptl_crystal_colour            colorless
_exptl_crystal_description       needle
_cell_formula_units_Z            2
loop_
_atom_site_label
_atom_site_type_symbol
_atom_site_fract_x
_atom_site_fract_y
_atom_site_fract_z
O1 O 0.7345(5) 0.46813(18) -0.08528(14)
O2 O 1.5422(5) 0.8495(3) 0.4176(2)
N1 N 0.5437(5) 0.8049(2) -0.05742(18)
N2 N 0.8926(5) 0.6710(2) 0.01724(16)
H1 H 1.005117 0.629596 0.040846
N3 N 1.1106(6) 0.8680(3) 0.38281(17)
H2 H 0.942570 0.859102 0.398165
C1 C 0.7147(7) 0.8721(3) 0.0159(2)
H3 H 0.709731 0.966045 0.040434
C2 C 0.5454(6) 0.6724(3) -0.0924(2)
C3 C 0.7274(6) 0.5950(3) -0.05500(19)
C4 C 0.8910(6) 0.8086(3) 0.0545(2)
C5 C 0.3683(6) 0.5987(3) -0.1738(2)
H4 H 0.216762 0.650347 -0.177581
H5 H 0.291219 0.508845 -0.166646
C6 C 0.5157(7) 0.5781(3) -0.2626(2)
H6 H 0.665206 0.523889 -0.258453
C7 C 0.6401(9) 0.7126(4) -0.2794(3)
H7 H 0.498620 0.769538 -0.280882
H8 H 0.727074 0.694971 -0.336473
H9 H 0.774384 0.759283 -0.231604
C8 C 0.3191(11) 0.4951(4) -0.3418(3)
H10 H 0.240220 0.409972 -0.329412
H11 H 0.418413 0.475138 -0.396394
H12 H 0.175367 0.548035 -0.349283
C9 C 1.0766(7) 0.8775(3) 0.1347(2)
H13 H 1.073011 0.976501 0.147665
H14 H 1.262816 0.860669 0.119824
C10 C 1.0066(7) 0.8309(3) 0.2197(2)
H15 H 0.813359 0.836267 0.230240
H16 H 1.034168 0.734713 0.209532
C11 C 1.1700(9) 0.9125(4) 0.3017(2)
H17 H 1.363284 0.908873 0.290383
H18 H 1.139250 1.008333 0.312319
C12 C 1.3005(7) 0.8404(3) 0.4346(2)
C13 C 1.1976(9) 0.7944(4) 0.5156(3)
H19 H 1.005448 0.802769 0.520614
H20 H 1.297634 0.851241 0.569352
H21 H 1.223707 0.699590 0.508657
loop_
_geom_bond_atom_site_label_1
_geom_bond_atom_site_label_2
_geom_bond_site_symmetry_1
_geom_bond_site_symmetry_2
O1 C3 1_555 1_555
O2 C12 1_555 1_555
N1 C1 1_555 1_555
N2 H1 1_555 1_555
N3 H2 1_555 1_555
C1 H3 1_555 1_555
C2 N1 1_555 1_555
C3 N2 1_555 1_555
C4 N2 1_555 1_555
C5 C2 1_555 1_555
H4 C5 1_555 1_555
H5 C5 1_555 1_555
C6 C5 1_555 1_555
H6 C6 1_555 1_555
C7 C6 1_555 1_555
H7 C7 1_555 1_555
H8 C7 1_555 1_555
H9 C7 1_555 1_555
C8 C6 1_555 1_555
H10 C8 1_555 1_555
H11 C8 1_555 1_555
H12 C8 1_555 1_555
C9 C4 1_555 1_555
H13 C9 1_555 1_555
H14 C9 1_555 1_555
C10 C9 1_555 1_555
H15 C10 1_555 1_555
H16 C10 1_555 1_555
C11 N3 1_555 1_555
H17 C11 1_555 1_555
H18 C11 1_555 1_555
C12 N3 1_555 1_555
C13 C12 1_555 1_555
H19 C13 1_555 1_555
H20 C13 1_555 1_555
H21 C13 1_555 1_555
C1 C4 1_555 1_555
C2 C3 1_555 1_555
C10 C11 1_555 1_555

#END
