
#######################################################################
#
#                 Cambridge Crystallographic Data Centre
#                                CCDC 
#
#######################################################################
#
# If this CIF has been generated from an entry in the Cambridge 
# Structural Database, then it will include bibliographic, chemical, 
# crystal, experimental, refinement or atomic coordinate data resulting 
# from the CCDC's data processing and validation procedures.
#
#######################################################################

data_PIBVAY
_chemical_formula_moiety         'C18 H17 N1 O3 S1'
_chemical_name_systematic        
2-Methyl-1-(p-toluenesulfonyl)-1,2-dihydro-quinoline-3-carbaldehyde
_symmetry_cell_setting           monoclinic
_symmetry_space_group_name_H-M   'P 21'
_symmetry_Int_Tables_number      4
_space_group_name_Hall           'P 2yb'
loop_
_symmetry_equiv_pos_site_id
_symmetry_equiv_pos_as_xyz
1 x,y,z
2 -x,1/2+y,-z
_cell_length_a                   7.6885(2)
_cell_length_b                   13.6801(3)
_cell_length_c                   8.0672(2)
_cell_angle_alpha                90
_cell_angle_beta                 106.7250(10)
_cell_angle_gamma                90
_cell_volume                     812.609
_exptl_crystal_colour            'pale yellow'
_exptl_crystal_description       'rectangular block'
_cell_formula_units_Z            2
loop_
_atom_site_label
_atom_site_type_symbol
_atom_site_fract_x
_atom_site_fract_y
_atom_site_fract_z
S1 S 0.50349(5) 0.52153(4) 0.49807(4)
O1 O 0.38140(18) 0.58775(10) 0.38370(14)
O2 O 0.64552(18) 0.47685(13) 0.44317(15)
O3 O 0.1529(2) 0.70935(13) 0.7961(3)
N1 N 0.60256(17) 0.58370(10) 0.67695(15)
C1 C 0.72837(17) 0.52867(12) 0.81118(16)
C2 C 0.8916(2) 0.49656(14) 0.7917(2)
H1 H 0.9262 0.5145 0.6932
C3 C 1.0042(2) 0.43795(16) 0.9175(2)
H2 H 1.1148 0.4157 0.9036
C4 C 0.9550(3) 0.41188(14) 1.0634(2)
H3 H 1.0308 0.3709 1.1471
C5 C 0.7947(2) 0.44615(11) 1.08594(19)
H4 H 0.7630 0.4292 1.1864
C6 C 0.67920(19) 0.50562(9) 0.96166(16)
C7 C 0.5110(2) 0.54354(10) 0.98130(17)
H5 H 0.4656 0.5189 1.0693
C8 C 0.4186(2) 0.61370(11) 0.8753(2)
C9 C 0.4932(2) 0.65619(11) 0.7375(2)
H6 H 0.3903 0.6766 0.6382
C10 C 0.2488(3) 0.65192(14) 0.8956(3)
H7 H 0.2118 0.6308 0.9911
C11 C 0.6113(3) 0.74606(13) 0.8070(3)
H8 H 0.7079 0.7279 0.9092
H9 H 0.5371 0.7966 0.8369
H10 H 0.6635 0.7704 0.7190
C12 C 0.37554(18) 0.42698(10) 0.55326(15)
C13 C 0.18848(19) 0.43420(10) 0.50384(18)
H11 H 0.1305 0.4904 0.4467
C14 C 0.0873(2) 0.35729(12) 0.5398(2)
H12 H -0.0402 0.3609 0.5034
C15 C 0.1716(2) 0.27508(13) 0.62863(19)
C16 C 0.3594(2) 0.27068(12) 0.67931(18)
H13 H 0.4178 0.2159 0.7413
C17 C 0.4623(2) 0.34491(12) 0.6407(2)
H14 H 0.5896 0.3401 0.6731
C18 C 0.0600(3) 0.19202(17) 0.6667(3)
H15 H 0.0877 0.1834 0.7909
H16 H 0.0885 0.1324 0.6149
H17 H -0.0681 0.2068 0.6187
loop_
_geom_bond_atom_site_label_1
_geom_bond_atom_site_label_2
_geom_bond_site_symmetry_1
_geom_bond_site_symmetry_2
S1 O1 1_555 1_555
O2 S1 1_555 1_555
O3 C10 1_555 1_555
N1 S1 1_555 1_555
C1 N1 1_555 1_555
C2 C1 1_555 1_555
H1 C2 1_555 1_555
C3 C2 1_555 1_555
H2 C3 1_555 1_555
C4 C3 1_555 1_555
H3 C4 1_555 1_555
C5 C4 1_555 1_555
H4 C5 1_555 1_555
C6 C1 1_555 1_555
C7 C6 1_555 1_555
H5 C7 1_555 1_555
C8 C7 1_555 1_555
C9 N1 1_555 1_555
H6 C9 1_555 1_555
C10 C8 1_555 1_555
H7 C10 1_555 1_555
C11 C9 1_555 1_555
H8 C11 1_555 1_555
H9 C11 1_555 1_555
H10 C11 1_555 1_555
C12 S1 1_555 1_555
C13 C12 1_555 1_555
H11 C13 1_555 1_555
C14 C13 1_555 1_555
H12 C14 1_555 1_555
C15 C14 1_555 1_555
C16 C15 1_555 1_555
H13 C16 1_555 1_555
C17 C12 1_555 1_555
H14 C17 1_555 1_555
C18 C15 1_555 1_555
H15 C18 1_555 1_555
H16 C18 1_555 1_555
H17 C18 1_555 1_555
C5 C6 1_555 1_555
C8 C9 1_555 1_555
C16 C17 1_555 1_555

#END
