
#######################################################################
#
#                 Cambridge Crystallographic Data Centre
#                                CCDC 
#
#######################################################################
#
# If this CIF has been generated from an entry in the Cambridge 
# Structural Database, then it will include bibliographic, chemical, 
# crystal, experimental, refinement or atomic coordinate data resulting 
# from the CCDC's data processing and validation procedures.
#
#######################################################################

data_PICJAP
_chemical_formula_moiety         'C42 H30 F10 N4 O1 Si2'
_chemical_name_systematic        
(5,15-bis(pentafluorophenyl)-10-(tri-isopropylsilylethynyl)corrolato)-hydroxy-silicon(iv)
_symmetry_cell_setting           triclinic
_symmetry_space_group_name_H-M   'P -1'
_symmetry_Int_Tables_number      2
_space_group_name_Hall           '-P 1'
loop_
_symmetry_equiv_pos_site_id
_symmetry_equiv_pos_as_xyz
1 x,y,z
2 -x,-y,-z
_cell_length_a                   7.1741(12)
_cell_length_b                   18.610(4)
_cell_length_c                   28.573(6)
_cell_angle_alpha                102.745(8)
_cell_angle_beta                 90.156(8)
_cell_angle_gamma                98.407(4)
_cell_volume                     3678.39
_exptl_crystal_colour            red
_exptl_crystal_description       Prism
_cell_formula_units_Z            4
_exptl_crystal_recrystallization_method 'Vapour deposition'
loop_
_atom_site_label
_atom_site_type_symbol
_atom_site_fract_x
_atom_site_fract_y
_atom_site_fract_z
Si1 Si 0.41971(18) 0.64341(7) 0.27156(4)
Si2 Si 1.36038(19) 0.90470(7) 0.36277(4)
F1 F 0.1481(4) 0.81078(16) 0.14946(10)
F2 F 0.6500(4) 0.67480(16) 0.09959(9)
F3 F 0.1979(5) 0.68650(16) 0.46017(10)
F4 F 0.1992(5) 0.50762(17) 0.55277(10)
F5 F 0.3806(5) 0.45313(16) 0.39243(10)
F6 F 0.4055(5) 0.80805(19) -0.00141(10)
F7 F 0.6575(5) 0.72041(19) 0.01727(10)
O1 O 0.5049(5) 0.56856(17) 0.24367(11)
H1 H 0.4276 0.5304 0.2446
F8 F 0.1363(5) 0.64469(18) 0.54375(10)
F9 F 0.1517(5) 0.85236(18) 0.06540(11)
F10 F 0.3162(5) 0.41166(16) 0.47728(10)
N1 N 0.2115(6) 0.6064(2) 0.30156(12)
N2 N 0.2316(6) 0.6523(2) 0.22978(12)
N3 N 0.5482(6) 0.6683(2) 0.33127(12)
N4 N 0.5750(6) 0.7164(2) 0.24914(12)
C1 C 0.0406(7) 0.5904(2) 0.27659(16)
C2 C 0.5544(7) 0.7363(2) 0.20450(15)
C3 C 0.1830(7) 0.5809(3) 0.34332(15)
C4 C 0.7502(7) 0.7536(2) 0.26822(16)
C5 C -0.0071(7) 0.5473(3) 0.34315(16)
H2 H -0.0637 0.5244 0.3673
C6 C 0.2326(7) 0.6752(3) 0.18681(15)
C7 C 0.5002(7) 0.6378(3) 0.37169(15)
C8 C 0.7176(7) 0.7856(3) 0.19806(16)
H3 H 0.7400 0.8074 0.1711
C9 C 0.3297(7) 0.5959(3) 0.37760(15)
C10 C 0.0504(7) 0.6526(3) 0.16482(16)
H4 H 0.0124 0.6605 0.1347
C11 C 0.7276(7) 0.7092(3) 0.34243(16)
C12 C 0.0523(7) 0.6172(3) 0.23426(15)
C13 C 0.8363(7) 0.7964(3) 0.23674(16)
H5 H 0.9558 0.8271 0.2418
C14 C -0.0624(7) 0.6172(3) 0.19431(16)
H6 H -0.1920 0.5969 0.1888
C15 C 0.6539(7) 0.6609(3) 0.40613(16)
H7 H 0.6588 0.6479 0.4364
C16 C 0.3956(7) 0.7154(2) 0.17398(15)
C17 C 0.7914(7) 0.7045(3) 0.38850(16)
H8 H 0.9090 0.7275 0.4041
C18 C 0.8257(7) 0.7501(3) 0.31269(16)
C19 C 0.2745(7) 0.7864(3) 0.11726(16)
C20 C 0.2002(8) 0.5975(3) 0.50664(16)
C21 C 0.3976(7) 0.7404(3) 0.12787(15)
C22 C 0.2964(7) 0.5717(3) 0.42377(16)
C23 C 0.5259(7) 0.7192(3) 0.09281(16)
C24 C -0.0947(7) 0.5538(3) 0.30208(16)
H9 H -0.2233 0.5366 0.2926
C25 C 0.3211(8) 0.5016(3) 0.42965(17)
C26 C 0.2886(8) 0.4800(3) 0.47234(17)
C27 C 0.5305(8) 0.7420(3) 0.04974(16)
C28 C 0.2289(8) 0.5283(3) 0.51116(16)
C29 C 0.2740(8) 0.8084(3) 0.07407(17)
C30 C 0.4029(8) 0.7864(3) 0.04034(17)
C31 C 1.4995(8) 0.9187(3) 0.30822(18)
H10 H 1.5938 0.8833 0.3040
C32 C 1.1540(8) 0.8324(3) 0.34170(17)
C33 C 1.0066(7) 0.7935(3) 0.32882(16)
C34 C 0.2318(8) 0.6186(3) 0.46342(16)
C35 C 1.3792(9) 0.8997(3) 0.26167(18)
H11 H 1.2789 0.9308 0.2651
H12 H 1.3231 0.8471 0.2550
H13 H 1.4586 0.9091 0.2351
C36 C 1.6123(9) 0.9977(4) 0.3151(2)
H14 H 1.6957 0.9997 0.2881
H15 H 1.6881 1.0098 0.3451
H16 H 1.5249 1.0339 0.3163
C37 C 1.5060(8) 0.8679(3) 0.40480(18)
H17 H 1.5328 0.8186 0.3860
C38 C 1.6962(9) 0.9138(4) 0.4199(3)
H18 H 1.6793 0.9631 0.4387
H19 H 1.7671 0.9194 0.3913
H20 H 1.7658 0.8888 0.4395
C39 C 1.3968(11) 0.8510(5) 0.4475(3)
H21 H 1.4676 0.8227 0.4644
H22 H 1.2738 0.8217 0.4363
H23 H 1.3786 0.8979 0.4694
C40 C 1.237(2) 0.9830(11) 0.3954(7)
H24 H 1.1430 0.9625 0.4167
C41 C 1.3663(16) 1.0489(5) 0.4261(4)
H25 H 1.4426 1.0758 0.4053
H26 H 1.4494 1.0308 0.4467
H27 H 1.2900 1.0824 0.4461
C42 C 1.135(5) 1.017(2) 0.3620(13)
H28 H 1.0873 1.0610 0.3803
H29 H 1.0289 0.9803 0.3458
H30 H 1.2214 1.0310 0.3380
Si3 Si 0.21401(19) 0.34023(7) 0.22885(4)
Si4 Si 0.9587(2) 0.08088(8) 0.13320(5)
F11 F 0.4266(4) 0.30279(16) 0.39862(10)
F12 F -0.1954(4) 0.18071(16) 0.35406(10)
F13 F 0.1937(5) 0.48287(18) -0.05139(10)
F14 F -0.0418(5) 0.35911(18) -0.04208(10)
F15 F 0.3987(5) 0.52425(17) 0.10973(10)
F16 F 0.4041(5) 0.56735(17) 0.02503(11)
F17 F 0.3979(5) 0.26211(18) 0.48232(10)
F18 F -0.0589(5) 0.31767(17) 0.04214(10)
F19 F -0.2259(5) 0.14504(19) 0.43964(11)
O2 O 0.3481(5) 0.41908(18) 0.25691(11)
H31 H 0.3073 0.4337 0.2844
F20 F 0.0687(6) 0.18487(19) 0.50478(10)
N5 N 0.0192(6) 0.3324(2) 0.27067(13)
N6 N 0.0334(6) 0.3743(2) 0.19718(13)
N7 N 0.3114(6) 0.2672(2) 0.25179(13)
N8 N 0.3353(6) 0.3192(2) 0.17165(13)
C43 C 0.0017(7) 0.3106(3) 0.31364(15)
C44 C -0.1266(7) 0.3912(3) 0.22140(16)
C45 C 0.0324(7) 0.4022(3) 0.15594(16)
C46 C 0.4574(7) 0.2290(3) 0.23315(16)
C47 C 0.1293(7) 0.2688(2) 0.32663(15)
C48 C 0.1765(7) 0.3918(3) 0.12421(16)
C49 C 0.2731(7) 0.2464(3) 0.29590(16)
C50 C 0.1829(8) 0.4620(3) -0.00922(17)
C51 C 0.2638(7) 0.2635(3) 0.40716(16)
C52 C 0.0854(9) 0.2049(3) 0.46238(16)
C53 C 0.5080(7) 0.1845(3) 0.26458(16)
H32 H 0.6030 0.1532 0.2598
C54 C 0.1717(7) 0.4187(3) 0.07858(16)
C55 C -0.2498(7) 0.3679(3) 0.30442(16)
H33 H -0.3643 0.3881 0.3092
C56 C -0.1338(7) 0.3667(3) 0.26455(16)
C57 C 0.3147(7) 0.3511(3) 0.13139(15)
C58 C -0.1653(7) 0.3342(3) 0.33483(16)
H34 H -0.2102 0.3276 0.3651
C59 C 0.1139(7) 0.2449(3) 0.37312(16)
C60 C -0.0491(8) 0.2040(3) 0.38541(16)
C61 C 0.5504(8) 0.2820(3) 0.11478(17)
H35 H 0.6489 0.2580 0.0992
C62 C 0.3935(7) 0.1954(3) 0.30272(16)
H36 H 0.3945 0.1727 0.3294
C63 C 0.5395(7) 0.2323(3) 0.18933(16)
C64 C -0.2302(7) 0.4288(3) 0.19564(16)
H37 H -0.3462 0.4460 0.2044
C65 C -0.1324(8) 0.4360(3) 0.15526(17)
H38 H -0.1687 0.4595 0.1311
C66 C 0.2934(7) 0.5055(3) 0.03012(18)
C67 C 0.4797(7) 0.2763(3) 0.16020(16)
C68 C 0.2862(7) 0.4829(3) 0.07313(17)
C69 C 0.0587(7) 0.3786(3) 0.03912(17)
C70 C 0.4511(7) 0.3280(3) 0.09758(17)
H39 H 0.4697 0.3424 0.0678
C71 C -0.0649(8) 0.1845(3) 0.42955(18)
C72 C 0.2506(8) 0.2434(3) 0.45102(17)
C73 C 0.0664(8) 0.3994(3) -0.00457(16)
C74 C 0.7958(8) 0.1469(3) 0.15822(18)
C75 C 0.6828(7) 0.1870(3) 0.17314(17)
C76 C 1.1089(8) 0.0726(3) 0.1858(2)
H40 H 1.1903 0.1222 0.1958
C77 C 1.0043(11) 0.0619(5) 0.2301(2)
H41 H 0.9195 0.0142 0.2228
H42 H 0.9306 0.1026 0.2405
H43 H 1.0950 0.0619 0.2558
C78 C 0.8175(10) -0.0084(3) 0.1002(2)
H44 H 0.9061 -0.0383 0.0804
C79 C 1.2464(11) 0.0169(4) 0.1721(3)
H45 H 1.3334 0.0210 0.1994
H46 H 1.3181 0.0276 0.1447
H47 H 1.1761 -0.0337 0.1635
C80 C 0.6704(11) 0.0058(4) 0.0659(3)
H48 H 0.6081 -0.0419 0.0465
H49 H 0.7324 0.0361 0.0448
H50 H 0.5764 0.0322 0.0844
C81 C 0.7231(12) -0.0549(4) 0.1337(3)
H51 H 0.6379 -0.0265 0.1543
H52 H 0.8197 -0.0673 0.1537
H53 H 0.6512 -0.1010 0.1146
C82 C 1.122(3) 0.1233(14) 0.0911(9)
H54 H 1.2357 0.1501 0.1112
C83 C 1.1925(17) 0.0679(6) 0.0515(4)
H55 H 1.0889 0.0439 0.0283
H56 H 1.2418 0.0301 0.0650
H57 H 1.2932 0.0935 0.0353
C84 C 1.0394(14) 0.1829(6) 0.0719(4)
H58 H 1.1287 0.2031 0.0504
H59 H 1.0165 0.2231 0.0988
H60 H 0.9203 0.1607 0.0541
C85? C 1.287(4) 0.9984(14) 0.3916(11)
H61? H 1.3977 1.0390 0.3955
C86? C 1.126(8) 1.013(3) 0.355(2)
H62? H 1.0484 0.9651 0.3406
H63? H 1.1866 1.0351 0.3303
H64? H 1.0453 1.0464 0.3737
C87? C 1.198(2) 0.9958(8) 0.4415(5)
H65? H 1.1245 1.0368 0.4508
H66? H 1.2988 1.0008 0.4657
H67? H 1.1154 0.9482 0.4390
C88? C 1.117(6) 0.134(3) 0.0922(19)
H68? H 1.1662 0.1855 0.1115
C89? C 1.289(4) 0.0930(15) 0.0753(10)
H69? H 1.2455 0.0394 0.0646
H70? H 1.3816 0.1017 0.1021
H71? H 1.3485 0.1120 0.0487
C90? C 1.005(4) 0.1429(17) 0.0464(10)
H72? H 0.8967 0.1686 0.0565
H73? H 1.0881 0.1718 0.0279
H74? H 0.9594 0.0934 0.0263
loop_
_geom_bond_atom_site_label_1
_geom_bond_atom_site_label_2
_geom_bond_site_symmetry_1
_geom_bond_site_symmetry_2
Si1 O1 1_555 1_555
Si2 C31 1_555 1_555
F1 C19 1_555 1_555
F2 C23 1_555 1_555
F3 C34 1_555 1_555
F4 C28 1_555 1_555
F5 C25 1_555 1_555
F6 C30 1_555 1_555
F7 C27 1_555 1_555
O1 H1 1_555 1_555
F8 C20 1_555 1_555
F9 C29 1_555 1_555
F10 C26 1_555 1_555
N1 Si1 1_555 1_555
N2 Si1 1_555 1_555
N3 Si1 1_555 1_555
N4 Si1 1_555 1_555
C1 N1 1_555 1_555
C2 N4 1_555 1_555
C3 N1 1_555 1_555
C4 N4 1_555 1_555
C5 C3 1_555 1_555
H2 C5 1_555 1_555
C6 N2 1_555 1_555
C7 N3 1_555 1_555
C8 C2 1_555 1_555
H3 C8 1_555 1_555
C9 C3 1_555 1_555
C10 C6 1_555 1_555
H4 C10 1_555 1_555
C11 N3 1_555 1_555
C12 N2 1_555 1_555
C13 C4 1_555 1_555
H5 C13 1_555 1_555
C14 C10 1_555 1_555
H6 C14 1_555 1_555
C15 C7 1_555 1_555
H7 C15 1_555 1_555
C16 C2 1_555 1_555
C17 C11 1_555 1_555
H8 C17 1_555 1_555
C18 C4 1_555 1_555
C19 C21 1_555 1_555
C20 C28 1_555 1_555
C21 C16 1_555 1_555
C22 C9 1_555 1_555
C23 C21 1_555 1_555
C24 C1 1_555 1_555
H9 C24 1_555 1_555
C25 C22 1_555 1_555
C26 C25 1_555 1_555
C27 C23 1_555 1_555
C28 C26 1_555 1_555
C29 C19 1_555 1_555
C30 C27 1_555 1_555
C31 H10 1_555 1_555
C32 Si2 1_555 1_555
C33 C18 1_555 1_555
C34 C20 1_555 1_555
C35 C31 1_555 1_555
H11 C35 1_555 1_555
H12 C35 1_555 1_555
H13 C35 1_555 1_555
C36 C31 1_555 1_555
H14 C36 1_555 1_555
H15 C36 1_555 1_555
H16 C36 1_555 1_555
C37 Si2 1_555 1_555
H17 C37 1_555 1_555
C38 C37 1_555 1_555
H18 C38 1_555 1_555
H19 C38 1_555 1_555
H20 C38 1_555 1_555
C39 C37 1_555 1_555
H21 C39 1_555 1_555
H22 C39 1_555 1_555
H23 C39 1_555 1_555
C40 Si2 1_555 1_555
H24 C40 1_555 1_555
C41 C40 1_555 1_555
H25 C41 1_555 1_555
H26 C41 1_555 1_555
H27 C41 1_555 1_555
C42 C40 1_555 1_555
H28 C42 1_555 1_555
H29 C42 1_555 1_555
H30 C42 1_555 1_555
Si3 O2 1_555 1_555
Si4 C74 1_555 1_555
F11 C51 1_555 1_555
F12 C60 1_555 1_555
F13 C50 1_555 1_555
F14 C73 1_555 1_555
F15 C68 1_555 1_555
F16 C66 1_555 1_555
F17 C72 1_555 1_555
F18 C69 1_555 1_555
F19 C71 1_555 1_555
O2 H31 1_555 1_555
F20 C52 1_555 1_555
N5 Si3 1_555 1_555
N6 Si3 1_555 1_555
N7 Si3 1_555 1_555
N8 Si3 1_555 1_555
C43 N5 1_555 1_555
C44 N6 1_555 1_555
C45 N6 1_555 1_555
C46 N7 1_555 1_555
C47 C43 1_555 1_555
C48 C45 1_555 1_555
C49 N7 1_555 1_555
C50 C66 1_555 1_555
C51 C59 1_555 1_555
C52 C71 1_555 1_555
C53 C46 1_555 1_555
H32 C53 1_555 1_555
C54 C48 1_555 1_555
C55 H33 1_555 1_555
C56 N5 1_555 1_555
C57 N8 1_555 1_555
C58 C43 1_555 1_555
H34 C58 1_555 1_555
C59 C47 1_555 1_555
C60 C59 1_555 1_555
C61 H35 1_555 1_555
C62 C49 1_555 1_555
H36 C62 1_555 1_555
C63 C46 1_555 1_555
C64 C44 1_555 1_555
H37 C64 1_555 1_555
C65 C45 1_555 1_555
H38 C65 1_555 1_555
C66 C68 1_555 1_555
C67 N8 1_555 1_555
C68 C54 1_555 1_555
C69 C54 1_555 1_555
C70 C57 1_555 1_555
H39 C70 1_555 1_555
C71 C60 1_555 1_555
C72 C51 1_555 1_555
C73 C50 1_555 1_555
C74 C75 1_555 1_555
C75 C63 1_555 1_555
C76 Si4 1_555 1_555
H40 C76 1_555 1_555
C77 C76 1_555 1_555
H41 C77 1_555 1_555
H42 C77 1_555 1_555
H43 C77 1_555 1_555
C78 Si4 1_555 1_555
H44 C78 1_555 1_555
C79 C76 1_555 1_555
H45 C79 1_555 1_555
H46 C79 1_555 1_555
H47 C79 1_555 1_555
C80 C78 1_555 1_555
H48 C80 1_555 1_555
H49 C80 1_555 1_555
H50 C80 1_555 1_555
C81 C78 1_555 1_555
H51 C81 1_555 1_555
H52 C81 1_555 1_555
H53 C81 1_555 1_555
C82 Si4 1_555 1_555
H54 C82 1_555 1_555
C83 C82 1_555 1_555
H55 C83 1_555 1_555
H56 C83 1_555 1_555
H57 C83 1_555 1_555
C84 C82 1_555 1_555
H58 C84 1_555 1_555
H59 C84 1_555 1_555
H60 C84 1_555 1_555
C1 C12 1_555 1_555
C5 C24 1_555 1_555
C6 C16 1_555 1_555
C7 C9 1_555 1_555
C8 C13 1_555 1_555
C11 C18 1_555 1_555
C12 C14 1_555 1_555
C15 C17 1_555 1_555
C22 C34 1_555 1_555
C29 C30 1_555 1_555
C32 C33 1_555 1_555
C44 C56 1_555 1_555
C47 C49 1_555 1_555
C48 C57 1_555 1_555
C52 C72 1_555 1_555
C53 C62 1_555 1_555
C55 C56 1_555 1_555
C55 C58 1_555 1_555
C61 C67 1_555 1_555
C61 C70 1_555 1_555
C63 C67 1_555 1_555
C64 C65 1_555 1_555
C69 C73 1_555 1_555

#END
