
#######################################################################
#
#                 Cambridge Crystallographic Data Centre
#                                CCDC 
#
#######################################################################
#
# If this CIF has been generated from an entry in the Cambridge 
# Structural Database, then it will include bibliographic, chemical, 
# crystal, experimental, refinement or atomic coordinate data resulting 
# from the CCDC's data processing and validation procedures.
#
#######################################################################

data_PICKEU
_chemical_formula_moiety         'C31 H26 F3 N2 O2 P1'
_chemical_name_systematic        
'benzyl 3-((2,2,2-trifluoroethylidene)hydrazono)-2-(triphenylphosphoranylidene)butanoate'
_symmetry_cell_setting           monoclinic
_symmetry_space_group_name_H-M   'P 21/n'
_symmetry_Int_Tables_number      14
_space_group_name_Hall           '-P 2yn'
loop_
_symmetry_equiv_pos_site_id
_symmetry_equiv_pos_as_xyz
1 x,y,z
2 1/2-x,1/2+y,1/2-z
3 -x,-y,-z
4 1/2+x,1/2-y,1/2+z
_cell_length_a                   9.300(4)
_cell_length_b                   28.233(13)
_cell_length_c                   10.585(5)
_cell_angle_alpha                90
_cell_angle_beta                 95.648(4)
_cell_angle_gamma                90
_cell_volume                     2765.78
_exptl_crystal_colour            yellow
_exptl_crystal_description       block
_cell_formula_units_Z            4
loop_
_atom_site_label
_atom_site_type_symbol
_atom_site_fract_x
_atom_site_fract_y
_atom_site_fract_z
C1 C -0.1393(3) 0.26225(12) 0.6917(4)
H1 H -0.0972 0.2800 0.7595
C2 C -0.1948(4) 0.28481(14) 0.5781(5)
H2 H -0.1895 0.3176 0.5712
C3 C -0.2548(4) 0.25933(17) 0.4805(4)
H3 H -0.2897 0.2745 0.4058
C4 C -0.2655(4) 0.21148(17) 0.4892(4)
H4 H -0.3089 0.1941 0.4210
C5 C -0.2120(4) 0.18858(12) 0.5991(3)
H5 H -0.2194 0.1558 0.6042
C6 C -0.1480(3) 0.21339(10) 0.7011(3)
C7 C -0.0864(3) 0.18767(12) 0.8175(3)
H6 H -0.0514 0.2100 0.8832
H7 H -0.1594 0.1678 0.8501
C8 C 0.0838(3) 0.12505(9) 0.8631(2)
C9 C 0.1934(3) 0.09655(9) 0.8109(2)
C10 C 0.2177(3) 0.04864(9) 0.8537(2)
C11 C 0.3906(4) -0.04857(10) 0.7681(3)
H8 H 0.4381 -0.0344 0.7047
C12 C 0.4235(4) -0.09799(11) 0.8039(3)
C13 C 0.1836(5) 0.03289(12) 0.9829(3)
H9 H 0.1310 0.0036 0.9756
H10 H 0.1261 0.0566 1.0192
H11 H 0.2719 0.0284 1.0366
C14 C 0.4590(3) 0.08912(9) 0.6888(2)
C15 C 0.5437(3) 0.08982(10) 0.8054(3)
H12 H 0.5084 0.1042 0.8752
C16 C 0.6793(3) 0.06936(12) 0.8182(3)
H13 H 0.7352 0.0702 0.8961
C17 C 0.7314(4) 0.04779(13) 0.7162(4)
H14 H 0.8222 0.0337 0.7251
C18 C 0.6499(4) 0.04695(13) 0.6006(3)
H15 H 0.6861 0.0323 0.5318
C19 C 0.5132(3) 0.06793(11) 0.5855(3)
H16 H 0.4592 0.0677 0.5068
C20 C 0.1837(3) 0.10081(9) 0.5261(2)
C21 C 0.2211(3) 0.12111(11) 0.4132(2)
H17 H 0.2992 0.1417 0.4150
C22 C 0.1419(3) 0.11050(13) 0.2988(3)
H18 H 0.1666 0.1243 0.2241
C23 C 0.0271(3) 0.07975(13) 0.2952(3)
H19 H -0.0257 0.0728 0.2182
C24 C -0.0096(3) 0.05934(12) 0.4051(3)
H20 H -0.0870 0.0384 0.4023
C25 C 0.0682(3) 0.06986(10) 0.5208(2)
H21 H 0.0423 0.0560 0.5949
C26 C 0.3093(3) 0.17916(9) 0.6709(2)
C27 C 0.2071(3) 0.20888(10) 0.6055(3)
H22 H 0.1210 0.1963 0.5677
C28 C 0.2335(4) 0.25706(11) 0.5968(3)
H23 H 0.1651 0.2765 0.5527
C29 C 0.3602(4) 0.27652(11) 0.6528(3)
H24 H 0.3772 0.3088 0.6464
C30 C 0.4612(3) 0.24774(11) 0.7181(4)
H25 H 0.5466 0.2607 0.7565
C31 C 0.4363(3) 0.19963(10) 0.7271(3)
H26 H 0.5055 0.1806 0.7714
F1 F 0.3372(3) -0.11718(7) 0.8791(3)
F2 F 0.4347(5) -0.12495(9) 0.7072(3)
F3 F 0.5528(3) -0.10234(10) 0.8724(3)
N1 N 0.2724(2) 0.01960(7) 0.77418(19)
N2 N 0.3001(2) -0.02549(8) 0.8216(2)
O1 O 0.0344(3) 0.12066(9) 0.9642(2)
O2 O 0.03167(19) 0.15899(7) 0.78003(17)
P1 P 0.27942(6) 0.11546(2) 0.67852(5)
loop_
_geom_bond_atom_site_label_1
_geom_bond_atom_site_label_2
_geom_bond_site_symmetry_1
_geom_bond_site_symmetry_2
C1 H1 1_555 1_555
C2 C1 1_555 1_555
H2 C2 1_555 1_555
C3 C2 1_555 1_555
H3 C3 1_555 1_555
C4 C3 1_555 1_555
H4 C4 1_555 1_555
C5 C4 1_555 1_555
H5 C5 1_555 1_555
C6 C1 1_555 1_555
C7 C6 1_555 1_555
H6 C7 1_555 1_555
H7 C7 1_555 1_555
C8 C9 1_555 1_555
C9 C10 1_555 1_555
C10 C13 1_555 1_555
C11 H8 1_555 1_555
C12 C11 1_555 1_555
C13 H9 1_555 1_555
H10 C13 1_555 1_555
H11 C13 1_555 1_555
C14 C15 1_555 1_555
C15 H12 1_555 1_555
C16 C15 1_555 1_555
H13 C16 1_555 1_555
C17 C16 1_555 1_555
H14 C17 1_555 1_555
C18 C17 1_555 1_555
H15 C18 1_555 1_555
C19 C14 1_555 1_555
H16 C19 1_555 1_555
C20 C21 1_555 1_555
C21 H17 1_555 1_555
C22 C21 1_555 1_555
H18 C22 1_555 1_555
C23 C22 1_555 1_555
H19 C23 1_555 1_555
C24 C23 1_555 1_555
H20 C24 1_555 1_555
C25 C20 1_555 1_555
H21 C25 1_555 1_555
C26 C27 1_555 1_555
C27 H22 1_555 1_555
C28 C27 1_555 1_555
H23 C28 1_555 1_555
C29 C28 1_555 1_555
H24 C29 1_555 1_555
C30 C29 1_555 1_555
H25 C30 1_555 1_555
C31 C26 1_555 1_555
H26 C31 1_555 1_555
F1 C12 1_555 1_555
F2 C12 1_555 1_555
F3 C12 1_555 1_555
N1 C10 1_555 1_555
N2 C11 1_555 1_555
O1 C8 1_555 1_555
O2 C7 1_555 1_555
P1 C9 1_555 1_555
C5 C6 1_555 1_555
C8 O2 1_555 1_555
C14 P1 1_555 1_555
C18 C19 1_555 1_555
C20 P1 1_555 1_555
C24 C25 1_555 1_555
C26 P1 1_555 1_555
C30 C31 1_555 1_555
N1 N2 1_555 1_555

#END
