
#######################################################################
#
#                 Cambridge Crystallographic Data Centre
#                                CCDC 
#
#######################################################################
#
# If this CIF has been generated from an entry in the Cambridge 
# Structural Database, then it will include bibliographic, chemical, 
# crystal, experimental, refinement or atomic coordinate data resulting 
# from the CCDC's data processing and validation procedures.
#
#######################################################################

data_PIDBIO
_chemical_formula_moiety         'C19 H22 N2 O4 S1'
_chemical_name_systematic        
"Dimethyl 2-(N-benzyl-N'-isopropylimidazolin-2-ylidene)-3-thioxobutanedioate"
_symmetry_cell_setting           orthorhombic
_symmetry_space_group_name_H-M   'P 21 21 21'
_symmetry_Int_Tables_number      19
_space_group_name_Hall           'P 2ac 2ab'
loop_
_symmetry_equiv_pos_site_id
_symmetry_equiv_pos_as_xyz
1 x,y,z
2 1/2-x,-y,1/2+z
3 -x,1/2+y,1/2-z
4 1/2+x,1/2-y,-z
_cell_length_a                   9.416(2)
_cell_length_b                   13.560(3)
_cell_length_c                   15.727(3)
_cell_angle_alpha                90
_cell_angle_beta                 90
_cell_angle_gamma                90
_cell_volume                     2008.04
_chemical_melting_point          '162-163 deg.C'
_cell_formula_units_Z            4
loop_
_atom_site_label
_atom_site_type_symbol
_atom_site_fract_x
_atom_site_fract_y
_atom_site_fract_z
S1 S -0.18656(8) 0.05871(6) 0.35343(4)
O1 O -0.0253(2) -0.12901(12) 0.44980(10)
O2 O 0.13239(19) -0.00502(12) 0.44105(10)
O3 O 0.19614(19) -0.14323(12) 0.30623(10)
O4 O 0.18976(18) -0.09829(11) 0.16892(10)
N1 N -0.0060(2) 0.11806(12) 0.16376(11)
N2 N -0.1073(2) -0.01531(14) 0.11917(11)
C1 C 0.2139(4) -0.0497(2) 0.50922(18)
H1 H 0.2477 -0.1131 0.4913
H2 H 0.1546 -0.0572 0.5585
H3 H 0.2932 -0.0081 0.5230
C2 C 0.0222(3) -0.05793(18) 0.41421(13)
C3 C -0.0419(2) -0.01133(16) 0.33584(13)
C4 C 0.0219(2) -0.02886(15) 0.25855(12)
C5 C 0.1429(2) -0.09499(15) 0.24981(14)
C6 C 0.3095(3) -0.1629(2) 0.1536(2)
H4 H 0.2838 -0.2294 0.1676
H5 H 0.3882 -0.1426 0.1883
H6 H 0.3361 -0.1594 0.0947
C7 C -0.0301(2) 0.02291(16) 0.18271(12)
C8 C -0.0711(3) 0.14011(18) 0.08766(15)
H7 H -0.0716 0.2011 0.0607
C9 C -0.1334(3) 0.05764(18) 0.05972(14)
H8 H -0.1848 0.0506 0.0096
C10 C -0.1605(3) -0.11824(18) 0.11654(16)
H9 H -0.1329 -0.1504 0.1698
C11 C -0.3219(4) -0.1171(2) 0.1125(2)
H10 H -0.3517 -0.0887 0.0595
H11 H -0.3586 -0.0786 0.1587
H12 H -0.3571 -0.1834 0.1166
C12 C -0.0931(4) -0.1745(2) 0.0447(2)
H13 H 0.0081 -0.1664 0.0469
H14 H -0.1281 -0.1498 -0.0086
H15 H -0.1162 -0.2432 0.0498
C13 C 0.0700(3) 0.18925(17) 0.21860(16)
H16 H 0.0436 0.1770 0.2773
H17 H 0.0385 0.2553 0.2042
C14 C 0.2293(3) 0.18557(17) 0.21168(15)
C15 C 0.3096(3) 0.12278(18) 0.26270(17)
H18 H 0.2645 0.0828 0.3024
C16 C 0.4546(3) 0.1195(2) 0.2549(2)
H19 H 0.5067 0.0762 0.2885
C17 C 0.5232(4) 0.1793(3) 0.1981(2)
H20 H 0.6215 0.1763 0.1927
C18 C 0.4462(4) 0.2434(3) 0.1493(2)
H21 H 0.4927 0.2850 0.1114
C19 C 0.2995(3) 0.2470(2) 0.15588(17)
H22 H 0.2482 0.2911 0.1225
loop_
_geom_bond_atom_site_label_1
_geom_bond_atom_site_label_2
_geom_bond_site_symmetry_1
_geom_bond_site_symmetry_2
S1 C3 1_555 1_555
O1 C2 1_555 1_555
O2 C1 1_555 1_555
O3 C5 1_555 1_555
O4 C5 1_555 1_555
N1 C7 1_555 1_555
N2 C7 1_555 1_555
C1 H1 1_555 1_555
H2 C1 1_555 1_555
H3 C1 1_555 1_555
C2 O2 1_555 1_555
C3 C2 1_555 1_555
C4 C3 1_555 1_555
C5 C4 1_555 1_555
C6 O4 1_555 1_555
H4 C6 1_555 1_555
H5 C6 1_555 1_555
H6 C6 1_555 1_555
C7 C4 1_555 1_555
C8 N1 1_555 1_555
H7 C8 1_555 1_555
C9 N2 1_555 1_555
H8 C9 1_555 1_555
C10 N2 1_555 1_555
H9 C10 1_555 1_555
C11 C10 1_555 1_555
H10 C11 1_555 1_555
H11 C11 1_555 1_555
H12 C11 1_555 1_555
C12 C10 1_555 1_555
H13 C12 1_555 1_555
H14 C12 1_555 1_555
H15 C12 1_555 1_555
C13 N1 1_555 1_555
H16 C13 1_555 1_555
H17 C13 1_555 1_555
C14 C13 1_555 1_555
C15 C14 1_555 1_555
H18 C15 1_555 1_555
C16 C15 1_555 1_555
H19 C16 1_555 1_555
C17 C16 1_555 1_555
H20 C17 1_555 1_555
C18 C17 1_555 1_555
H21 C18 1_555 1_555
C19 C14 1_555 1_555
H22 C19 1_555 1_555
C8 C9 1_555 1_555
C18 C19 1_555 1_555

#END
