
#######################################################################
#
#                 Cambridge Crystallographic Data Centre
#                                CCDC 
#
#######################################################################
#
# If this CIF has been generated from an entry in the Cambridge 
# Structural Database, then it will include bibliographic, chemical, 
# crystal, experimental, refinement or atomic coordinate data resulting 
# from the CCDC's data processing and validation procedures.
#
#######################################################################

data_PIDBEM
_chemical_formula_moiety         'C18 H15 N1 O3'
_chemical_name_systematic        
'methyl 6-methoxy-4-phenylquinoline-2-carboxylate'
_symmetry_cell_setting           triclinic
_symmetry_space_group_name_H-M   'P -1'
_symmetry_Int_Tables_number      2
_space_group_name_Hall           '-P 1'
loop_
_symmetry_equiv_pos_site_id
_symmetry_equiv_pos_as_xyz
1 x,y,z
2 -x,-y,-z
_cell_length_a                   7.1712(2)
_cell_length_b                   10.2686(3)
_cell_length_c                   11.4093(4)
_cell_angle_alpha                66.4750(11)
_cell_angle_beta                 79.2790(12)
_cell_angle_gamma                75.5010(10)
_cell_volume                     742.282
_cell_formula_units_Z            2
loop_
_atom_site_label
_atom_site_type_symbol
_atom_site_fract_x
_atom_site_fract_y
_atom_site_fract_z
C1 C 0.4534(2) 0.81006(15) 0.62969(14)
H1 H 0.359436 0.789640 0.596923
C2 C 0.4065(3) 0.92112(17) 0.67686(16)
H2 H 0.280978 0.975004 0.675233
C3 C 0.5445(3) 0.95190(16) 0.72597(15)
H3 H 0.512104 1.025605 0.758241
C4 C 0.7294(3) 0.87348(15) 0.72701(15)
H4 H 0.822787 0.894969 0.759437
C5 C 0.7797(2) 0.76224(14) 0.68028(13)
H5 H 0.905786 0.709512 0.681475
C6 C 0.63982(17) 0.73007(12) 0.63158(11)
C7 C 0.6181(3) 0.7682(2) 0.06417(15)
H6 H 0.558865 0.869114 0.033402
H7 H 0.745595 0.755379 0.020742
H8 H 0.541321 0.714245 0.047637
C8 C 0.71086(17) 0.57797(15) 0.25758(13)
C9 C 0.72538(15) 0.54095(13) 0.39723(11)
C10 C 0.66825(17) 0.64849(14) 0.45103(12)
H9 H 0.614133 0.742627 0.401013
C11 C 0.69238(15) 0.61449(12) 0.57720(11)
C12 C 0.76883(15) 0.46811(13) 0.65107(11)
C13 C 0.81929(15) 0.36689(13) 0.58841(11)
C14 C 0.89492(18) 0.22027(14) 0.66037(13)
H10 H 0.928976 0.153530 0.620192
C15 C 0.91874(19) 0.17514(14) 0.78671(14)
H11 H 0.969783 0.078564 0.832222
C16 C 0.86521(17) 0.27633(14) 0.84931(12)
C17 C 0.79296(16) 0.41847(13) 0.78340(12)
H12 H 0.759239 0.483367 0.825495
C18 C 0.8428(3) 0.31522(18) 1.04439(14)
H13 H 0.913558 0.392310 1.002590
H14 H 0.875220 0.263755 1.131248
H15 H 0.706472 0.354804 1.044546
N1 N 0.79908(14) 0.40425(11) 0.46217(10)
O1 O 0.89215(15) 0.21781(11) 0.97687(9)
O2 O 0.76602(19) 0.49511(13) 0.20328(11)
O3 O 0.63110(16) 0.71729(12) 0.20009(10)
loop_
_geom_bond_atom_site_label_1
_geom_bond_atom_site_label_2
_geom_bond_site_symmetry_1
_geom_bond_site_symmetry_2
C1 H1 1_555 1_555
C2 C1 1_555 1_555
H2 C2 1_555 1_555
C3 C2 1_555 1_555
H3 C3 1_555 1_555
C4 C3 1_555 1_555
H4 C4 1_555 1_555
C5 C4 1_555 1_555
H5 C5 1_555 1_555
C6 C1 1_555 1_555
C7 H6 1_555 1_555
H7 C7 1_555 1_555
H8 C7 1_555 1_555
C8 C9 1_555 1_555
C9 C10 1_555 1_555
C10 H9 1_555 1_555
C11 C6 1_555 1_555
C12 C11 1_555 1_555
C13 C12 1_555 1_555
C14 C13 1_555 1_555
H10 C14 1_555 1_555
C15 C14 1_555 1_555
H11 C15 1_555 1_555
C16 C15 1_555 1_555
C17 C12 1_555 1_555
H12 C17 1_555 1_555
C18 H13 1_555 1_555
H14 C18 1_555 1_555
H15 C18 1_555 1_555
N1 C9 1_555 1_555
O1 C16 1_555 1_555
O2 C8 1_555 1_555
O3 C7 1_555 1_555
C5 C6 1_555 1_555
C8 O3 1_555 1_555
C10 C11 1_555 1_555
C13 N1 1_555 1_555
C16 C17 1_555 1_555
C18 O1 1_555 1_555

#END
