
#######################################################################
#
#                 Cambridge Crystallographic Data Centre
#                                CCDC 
#
#######################################################################
#
# If this CIF has been generated from an entry in the Cambridge 
# Structural Database, then it will include bibliographic, chemical, 
# crystal, experimental, refinement or atomic coordinate data resulting 
# from the CCDC's data processing and validation procedures.
#
#######################################################################

data_PIDGER
_chemical_formula_moiety         'C14 H11 Br1 N2 O1'
_chemical_name_systematic        
1-(4-bromophenyl)-3-methyl-1,3-dihydro-2H-benzimidazol-2-one
_symmetry_cell_setting           monoclinic
_symmetry_space_group_name_H-M   'P 21/c'
_symmetry_Int_Tables_number      14
_space_group_name_Hall           '-P 2ybc'
loop_
_symmetry_equiv_pos_site_id
_symmetry_equiv_pos_as_xyz
1 x,y,z
2 -x,1/2+y,1/2-z
3 -x,-y,-z
4 x,1/2-y,1/2+z
_cell_length_a                   7.7776(8)
_cell_length_b                   25.3003(11)
_cell_length_c                   16.5229(19)
_cell_angle_alpha                90
_cell_angle_beta                 130.314(18)
_cell_angle_gamma                90
_cell_volume                     2479.15
_exptl_crystal_colour            colorless
_exptl_crystal_description       needle
_cell_formula_units_Z            8
loop_
_atom_site_label
_atom_site_type_symbol
_atom_site_fract_x
_atom_site_fract_y
_atom_site_fract_z
Br2 Br 0.9051(5) 0.92162(3) 0.2708(3)
C1 C 0.9133(8) 0.7628(2) 0.3282(4)
H1 H 0.9397 0.7422 0.3819
C2 C 0.9312(8) 0.8168(2) 0.3383(4)
H2 H 0.9740 0.8329 0.3996
C3 C 0.8854(7) 0.8469(2) 0.2575(4)
C4 C 0.8297(8) 0.8233(2) 0.1672(4)
H3 H 0.8022 0.8441 0.1135
C5 C 0.8157(8) 0.7698(2) 0.1578(4)
H4 H 0.7792 0.7540 0.0976
C6 C 0.8553(8) 0.7387(2) 0.2372(4)
C7 C 0.6345(9) 0.6582(2) 0.1288(4)
C8 C 0.9738(9) 0.6447(2) 0.2957(4)
C9 C 0.8767(8) 0.5954(2) 0.2490(4)
C10 C 0.9787(14) 0.5488(3) 0.2975(6)
H5 H 0.9133 0.5163 0.2655
C11 C 1.1972(12) 0.5532(3) 0.4030(6)
H6 H 1.2751 0.5226 0.4405
C12 C 1.2882(12) 0.5996(3) 0.4470(5)
H7 H 1.4284 0.6004 0.5149
C13 C 1.1813(9) 0.6491(2) 0.3952(4)
H8 H 1.2476 0.6816 0.4267
C14 C 0.5181(13) 0.5659(3) 0.0725(6)
H9 H 0.5856 0.5478 0.0481
H10 H 0.3795 0.5821 0.0133
H11 H 0.4879 0.5410 0.1059
N1 N 0.8273(7) 0.6828(2) 0.2222(3)
N2 N 0.6694(9) 0.6058(2) 0.1476(4)
O1 O 0.4762(7) 0.68066(19) 0.0495(3)
Br3 Br 0.3317(2) 0.92459(3) 0.22066(13)
C15 C 0.4208(8) 0.7727(2) 0.3363(4)
H12 H 0.4528 0.7568 0.3954
C16 C 0.4078(9) 0.8262(2) 0.3269(4)
H13 H 0.4360 0.8470 0.3808
C17 C 0.3523(8) 0.8497(2) 0.2367(4)
C18 C 0.3124(9) 0.8198(2) 0.1568(4)
H14 H 0.2745 0.8360 0.0965
C19 C 0.3292(8) 0.7657(2) 0.1668(4)
H15 H 0.3026 0.7451 0.1131
C20 C 0.3860(7) 0.7417(2) 0.2571(3)
C21 C 0.6038(10) 0.6615(2) 0.3644(4)
C22 C 0.2649(9) 0.6477(2) 0.1972(4)
C23 C 0.3657(9) 0.5987(3) 0.2457(4)
C24 C 0.2656(13) 0.5520(3) 0.1961(6)
H16 H 0.3330 0.5195 0.2273
C25 C 0.0475(12) 0.5563(3) 0.0916(6)
H17 H -0.0300 0.5256 0.0545
C26 C -0.0456(11) 0.6025(3) 0.0470(5)
H18 H -0.1860 0.6031 -0.0208
C27 C 0.0605(10) 0.6518(3) 0.0987(4)
H19 H -0.0059 0.6843 0.0670
C28 C 0.7271(13) 0.5690(3) 0.4233(6)
H20 H 0.6608 0.5513 0.4486
H21 H 0.8659 0.5854 0.4818
H22 H 0.7567 0.5438 0.3901
N3 N 0.4103(7) 0.6858(2) 0.2700(3)
N4 N 0.5732(8) 0.6090(2) 0.3467(4)
O2 O 0.7636(7) 0.6842(2) 0.4441(3)
Br1? Br 0.836(5) 0.9219(5) 0.226(3)
Br4? Br 0.4221(18) 0.9243(3) 0.2829(11)
loop_
_geom_bond_atom_site_label_1
_geom_bond_atom_site_label_2
_geom_bond_site_symmetry_1
_geom_bond_site_symmetry_2
Br2 C3 1_555 1_555
C1 H1 1_555 1_555
C2 C1 1_555 1_555
H2 C2 1_555 1_555
C3 C2 1_555 1_555
C4 C3 1_555 1_555
H3 C4 1_555 1_555
C5 C4 1_555 1_555
H4 C5 1_555 1_555
C6 C1 1_555 1_555
C7 N1 1_555 1_555
C8 C9 1_555 1_555
C9 C10 1_555 1_555
C10 H5 1_555 1_555
C11 C10 1_555 1_555
H6 C11 1_555 1_555
C12 C11 1_555 1_555
H7 C12 1_555 1_555
C13 C8 1_555 1_555
H8 C13 1_555 1_555
C14 H9 1_555 1_555
H10 C14 1_555 1_555
H11 C14 1_555 1_555
N1 C6 1_555 1_555
N2 C7 1_555 1_555
O1 C7 1_555 1_555
Br3 C17 1_555 1_555
C15 H12 1_555 1_555
C16 C15 1_555 1_555
H13 C16 1_555 1_555
C17 C16 1_555 1_555
C18 C17 1_555 1_555
H14 C18 1_555 1_555
C19 C18 1_555 1_555
H15 C19 1_555 1_555
C20 C15 1_555 1_555
C21 N3 1_555 1_555
C22 C23 1_555 1_555
C23 C24 1_555 1_555
C24 H16 1_555 1_555
C25 C24 1_555 1_555
H17 C25 1_555 1_555
C26 C25 1_555 1_555
H18 C26 1_555 1_555
C27 C22 1_555 1_555
H19 C27 1_555 1_555
C28 H20 1_555 1_555
H21 C28 1_555 1_555
H22 C28 1_555 1_555
N3 C20 1_555 1_555
N4 C21 1_555 1_555
O2 C21 1_555 1_555
C5 C6 1_555 1_555
C8 N1 1_555 1_555
C9 N2 1_555 1_555
C12 C13 1_555 1_555
C14 N2 1_555 1_555
C19 C20 1_555 1_555
C22 N3 1_555 1_555
C23 N4 1_555 1_555
C26 C27 1_555 1_555
C28 N4 1_555 1_555

#END
