
#######################################################################
#
#                 Cambridge Crystallographic Data Centre
#                                CCDC 
#
#######################################################################
#
# If this CIF has been generated from an entry in the Cambridge 
# Structural Database, then it will include bibliographic, chemical, 
# crystal, experimental, refinement or atomic coordinate data resulting 
# from the CCDC's data processing and validation procedures.
#
#######################################################################

data_PIDPID
_chemical_formula_moiety         'C20 H17 Cl1 O4'
_chemical_name_systematic        
3'-(4-Chlorophenyl)-4,6,7-trimethyl-3'H-spiro[1-benzofuran-3,2'-furan]-2,5'(4'H)-dione
_symmetry_cell_setting           monoclinic
_symmetry_space_group_name_H-M   'P 21/c'
_symmetry_Int_Tables_number      14
_space_group_name_Hall           '-P 2ybc'
loop_
_symmetry_equiv_pos_site_id
_symmetry_equiv_pos_as_xyz
1 x,y,z
2 -x,1/2+y,1/2-z
3 -x,-y,-z
4 x,1/2-y,1/2+z
_cell_length_a                   9.355(4)
_cell_length_b                   6.959(3)
_cell_length_c                   25.667(10)
_cell_angle_alpha                90
_cell_angle_beta                 94.226(6)
_cell_angle_gamma                90
_cell_volume                     1666.42
_exptl_crystal_colour            colorless
_exptl_crystal_description       Prism
_cell_formula_units_Z            4
loop_
_atom_site_label
_atom_site_type_symbol
_atom_site_fract_x
_atom_site_fract_y
_atom_site_fract_z
Cl1 Cl 0.16513(5) 0.43909(7) 0.034798(19)
O1 O 0.68492(13) 0.07721(16) 0.20353(4)
O2 O 0.71876(13) -0.12103(16) 0.13668(4)
O3 O 0.98013(12) 0.11223(16) 0.13632(4)
O4 O 1.09658(13) -0.03991(16) 0.07538(5)
C1 C 0.73629(17) 0.2619(2) 0.21844(6)
C2 C 0.69244(18) 0.3526(3) 0.26217(6)
C3 C 0.74916(18) 0.5381(3) 0.27058(7)
C4 C 0.84827(18) 0.6114(2) 0.23762(6)
H1 H 0.8881 0.7347 0.2453
C5 C 0.89211(17) 0.5139(2) 0.19411(6)
C6 C 0.83097(17) 0.3345(2) 0.18438(6)
C7 C 0.83869(17) 0.1945(2) 0.14059(6)
C8 C 0.74259(17) 0.0297(2) 0.15804(6)
C9 C 0.59423(19) 0.2568(3) 0.29821(7)
H2 H 0.5776 0.1233 0.2872
H3 H 0.5027 0.3257 0.2969
H4 H 0.6386 0.2591 0.3340
C10 C 0.70139(19) 0.6580(3) 0.31494(7)
H5 H 0.7494 0.7832 0.3150
H6 H 0.7263 0.5922 0.3481
H7 H 0.5974 0.6766 0.3105
C11 C 0.99983(19) 0.6003(2) 0.15998(7)
H8 H 1.0701 0.5023 0.1519
H9 H 1.0491 0.7075 0.1784
H10 H 0.9503 0.6472 0.1275
C12 C 0.99314(18) 0.0504(2) 0.08617(7)
C13 C 0.86435(18) 0.1114(2) 0.05149(6)
H11 H 0.7991 0.0016 0.0434
H12 H 0.8933 0.1671 0.0184
C14 C 0.79326(18) 0.2628(2) 0.08423(6)
H13 H 0.8437 0.3872 0.0789
C15 C 0.63400(18) 0.3004(2) 0.07326(6)
C16 C 0.58299(18) 0.4876(3) 0.07765(7)
H14 H 0.6479 0.5875 0.0883
C17 C 0.43906(19) 0.5306(3) 0.06667(7)
H15 H 0.4055 0.6586 0.0699
C18 C 0.34549(18) 0.3853(3) 0.05110(6)
C19 C 0.39154(18) 0.1971(3) 0.04742(6)
H16 H 0.3255 0.0975 0.0377
C20 C 0.53593(18) 0.1566(2) 0.05817(6)
H17 H 0.5686 0.0281 0.0552
loop_
_geom_bond_atom_site_label_1
_geom_bond_atom_site_label_2
_geom_bond_site_symmetry_1
_geom_bond_site_symmetry_2
Cl1 C18 1_555 1_555
O1 C1 1_555 1_555
O2 C8 1_555 1_555
O3 C7 1_555 1_555
O4 C12 1_555 1_555
C1 C2 1_555 1_555
C2 C3 1_555 1_555
C3 C4 1_555 1_555
C4 H1 1_555 1_555
C5 C4 1_555 1_555
C6 C1 1_555 1_555
C7 C6 1_555 1_555
C8 O1 1_555 1_555
C9 C2 1_555 1_555
H2 C9 1_555 1_555
H3 C9 1_555 1_555
H4 C9 1_555 1_555
C10 C3 1_555 1_555
H5 C10 1_555 1_555
H6 C10 1_555 1_555
H7 C10 1_555 1_555
C11 C5 1_555 1_555
H8 C11 1_555 1_555
H9 C11 1_555 1_555
H10 C11 1_555 1_555
C12 O3 1_555 1_555
C13 C12 1_555 1_555
H11 C13 1_555 1_555
H12 C13 1_555 1_555
C14 C7 1_555 1_555
H13 C14 1_555 1_555
C15 C14 1_555 1_555
C16 C15 1_555 1_555
H14 C16 1_555 1_555
C17 C16 1_555 1_555
H15 C17 1_555 1_555
C18 C17 1_555 1_555
C19 C18 1_555 1_555
H16 C19 1_555 1_555
C20 C15 1_555 1_555
H17 C20 1_555 1_555
C5 C6 1_555 1_555
C7 C8 1_555 1_555
C13 C14 1_555 1_555
C19 C20 1_555 1_555

#END
