
#######################################################################
#
#                 Cambridge Crystallographic Data Centre
#                                CCDC 
#
#######################################################################
#
# If this CIF has been generated from an entry in the Cambridge 
# Structural Database, then it will include bibliographic, chemical, 
# crystal, experimental, refinement or atomic coordinate data resulting 
# from the CCDC's data processing and validation procedures.
#
#######################################################################

data_PIDROL
_chemical_formula_moiety         'C14 H8 N2 O1'
_chemical_name_systematic        2,2'-Oxydibenzonitrile
_symmetry_cell_setting           monoclinic
_symmetry_space_group_name_H-M   'P 21/c'
_symmetry_Int_Tables_number      14
_space_group_name_Hall           '-P 2ybc'
loop_
_symmetry_equiv_pos_site_id
_symmetry_equiv_pos_as_xyz
1 x,y,z
2 -x,1/2+y,1/2-z
3 -x,-y,-z
4 x,1/2-y,1/2+z
_cell_length_a                   7.9698(17)
_cell_length_b                   9.389(2)
_cell_length_c                   15.464(3)
_cell_angle_alpha                90
_cell_angle_beta                 92.310(5)
_cell_angle_gamma                90
_cell_volume                     1156.21
_cell_formula_units_Z            4
loop_
_atom_site_label
_atom_site_type_symbol
_atom_site_fract_x
_atom_site_fract_y
_atom_site_fract_z
O1 O 0.7715(2) 0.17756(14) 0.52735(8)
N1 N 1.1665(3) 0.1133(2) 0.61754(19)
N2 N 0.8073(3) 0.2783(2) 0.31909(11)
C1 C 0.7362(3) 0.08565(19) 0.59403(11)
C2 C 0.5738(3) 0.0501(2) 0.60943(13)
H1 H 0.4839 0.0942 0.5773
C3 C 0.5414(3) -0.0487(3) 0.67103(16)
H2 H 0.4285 -0.0729 0.6819
C4 C 0.6700(4) -0.1137(2) 0.71754(14)
H3 H 0.6456 -0.1836 0.7596
C5 C 0.8334(3) -0.0783(2) 0.70361(12)
H4 H 0.9224 -0.1227 0.7362
C6 C 0.8680(2) 0.02374(17) 0.64088(11)
C7 C 1.0345(3) 0.0705(2) 0.62777(15)
C8 C 0.7581(2) 0.32170(19) 0.53933(10)
C9 C 0.7391(3) 0.3860(2) 0.61828(12)
H5 H 0.7319 0.3302 0.6693
C10 C 0.7306(4) 0.5310(2) 0.62231(14)
H6 H 0.7170 0.5758 0.6766
C11 C 0.7413(4) 0.6136(2) 0.54905(14)
H7 H 0.7347 0.7144 0.5529
C12 C 0.7614(3) 0.5496(2) 0.47094(13)
H8 H 0.7697 0.6060 0.4203
C13 C 0.7697(2) 0.4031(2) 0.46540(10)
C14 C 0.7912(3) 0.3333(2) 0.38393(12)
loop_
_geom_bond_atom_site_label_1
_geom_bond_atom_site_label_2
_geom_bond_site_symmetry_1
_geom_bond_site_symmetry_2
O1 C1 1_555 1_555
N1 C7 1_555 1_555
N2 C14 1_555 1_555
C1 C2 1_555 1_555
C2 H1 1_555 1_555
C3 C2 1_555 1_555
H2 C3 1_555 1_555
C4 C3 1_555 1_555
H3 C4 1_555 1_555
C5 C4 1_555 1_555
H4 C5 1_555 1_555
C6 C1 1_555 1_555
C7 C6 1_555 1_555
C8 O1 1_555 1_555
C9 C8 1_555 1_555
H5 C9 1_555 1_555
C10 C9 1_555 1_555
H6 C10 1_555 1_555
C11 C10 1_555 1_555
H7 C11 1_555 1_555
C12 C11 1_555 1_555
H8 C12 1_555 1_555
C13 C8 1_555 1_555
C14 C13 1_555 1_555
C5 C6 1_555 1_555
C12 C13 1_555 1_555

#END
