
#######################################################################
#
#                 Cambridge Crystallographic Data Centre
#                                CCDC 
#
#######################################################################
#
# If this CIF has been generated from an entry in the Cambridge 
# Structural Database, then it will include bibliographic, chemical, 
# crystal, experimental, refinement or atomic coordinate data resulting 
# from the CCDC's data processing and validation procedures.
#
#######################################################################

data_PIDZAG
_chemical_formula_moiety         'C24 H28 B10'
_chemical_name_systematic        
1-(4-(anthracen-9-yl)phenyl)-2-ethyl-1,2-dicarba-closo-dodecaborane(10)
_symmetry_cell_setting           triclinic
_symmetry_space_group_name_H-M   'P -1'
_symmetry_Int_Tables_number      2
_space_group_name_Hall           '-P 1'
loop_
_symmetry_equiv_pos_site_id
_symmetry_equiv_pos_as_xyz
1 x,y,z
2 -x,-y,-z
_cell_length_a                   8.2573(17)
_cell_length_b                   24.732(5)
_cell_length_c                   25.914(5)
_cell_angle_alpha                65.840(3)
_cell_angle_beta                 85.881(4)
_cell_angle_gamma                87.488(4)
_cell_volume                     4815.51
_exptl_crystal_colour            colorless
_exptl_crystal_description       block
_cell_formula_units_Z            8
loop_
_atom_site_label
_atom_site_type_symbol
_atom_site_fract_x
_atom_site_fract_y
_atom_site_fract_z
B1 B -0.0961(8) 0.3119(3) 0.8520(3)
H1 H -0.121710 0.359233 0.827278
B2 B -0.0404(7) 0.2628(2) 0.8194(3)
H2 H -0.028520 0.278431 0.773043
B3 B -0.0166(8) 0.1665(3) 0.9277(3)
H3 H 0.012231 0.119347 0.952194
B4 B -0.2302(8) 0.2545(3) 0.8581(3)
H4 H -0.345719 0.265040 0.837080
B5 B -0.2153(9) 0.1952(4) 0.9241(3)
H5 H -0.318399 0.166420 0.946411
B6 B 0.0015(9) 0.2860(3) 0.9168(3)
H6 H 0.040697 0.316647 0.934255
B7 B -0.2042(8) 0.2687(3) 0.9173(3)
H7 H -0.302955 0.288329 0.935202
B8 B -0.0705(9) 0.2163(4) 0.9604(3)
H8 H -0.078028 0.201619 1.006715
B9 B 0.0999(7) 0.2811(3) 0.8567(2)
H9 H 0.206256 0.308221 0.834886
B10 B -0.1143(7) 0.1924(3) 0.8629(3)
H10 H -0.151143 0.162139 0.844617
C1 C 0.4870(6) 0.1757(2) 0.80674(19)
H11 H 0.583204 0.195356 0.790228
C2 C 0.6438(6) 0.08516(19) 0.7501(2)
C3 C 0.8609(6) 0.0214(2) 0.8330(3)
C4 C 0.6961(8) 0.0840(2) 0.6425(3)
H12 H 0.710987 0.083624 0.606755
C5 C 0.8047(8) 0.0575(2) 0.6815(3)
H13 H 0.896594 0.039639 0.671981
C6 C 0.3607(6) 0.2061(2) 0.8195(2)
H14 H 0.371041 0.246278 0.810339
C7 C 0.2039(6) 0.1190(2) 0.8550(2)
H15 H 0.106602 0.099663 0.870551
C8 C 0.2172(6) 0.1785(2) 0.8457(2)
C9 C 0.6166(6) 0.08298(19) 0.8048(2)
C10 C 0.4762(6) 0.11604(19) 0.8178(2)
C11 C 0.0816(6) 0.2095(2) 0.86414(19)
C12 C 0.9348(9) -0.0178(3) 0.9293(3)
H16 H 1.004328 -0.040626 0.957044
C13 C 0.9665(8) -0.0135(2) 0.8776(3)
H17 H 1.057160 -0.032906 0.869408
C14 C 0.5617(7) 0.1119(2) 0.6560(2)
H18 H 0.486625 0.130367 0.628770
C15 C 0.3289(6) 0.0891(2) 0.8420(2)
H19 H 0.316464 0.049315 0.849477
C16 C 0.8007(10) 0.0105(3) 0.9450(3)
H20 H 0.782285 0.006367 0.982284
C17 C 0.7218(6) 0.05035(19) 0.8471(2)
C18 C 0.8880(7) 0.0248(2) 0.7788(3)
H21 H 0.978648 0.005604 0.770248
C19 C 0.5358(6) 0.11331(19) 0.7074(2)
H22 H 0.444911 0.133265 0.714622
C20 C 0.7839(6) 0.0559(2) 0.7369(2)
C21 C 0.6953(8) 0.0451(2) 0.9032(2)
H23 H 0.607191 0.064647 0.912728
C22 C 0.2804(14) 0.1682(5) 1.0013(5)
H24 H 0.179198 0.165712 1.022833
H25 H 0.365426 0.177486 1.019650
H26 H 0.304574 0.130930 0.999014
C23 C 0.1040(7) 0.2245(3) 0.9212(2)
C24 C 0.2687(8) 0.2126(3) 0.9469(3)
H27 H 0.345053 0.202712 0.921699
H28 H 0.304385 0.249232 0.947310
B11 B 0.4735(7) 0.9111(2) 0.5560(3)
H29 H 0.424047 0.955791 0.531837
B12 B 0.6821(7) 0.8963(2) 0.5594(3)
H30 H 0.770697 0.931555 0.537282
B13 B 0.7171(8) 0.8387(2) 0.6263(3)
H31 H 0.829061 0.835608 0.648027
B14 B 0.5265(8) 0.8187(2) 0.6637(3)
H32 H 0.511875 0.802458 0.710094
B15 B 0.3782(7) 0.8620(2) 0.6204(2)
H33 H 0.264361 0.873687 0.638472
B16 B 0.5282(7) 0.7936(2) 0.5645(2)
H34 H 0.513203 0.761111 0.546283
B17 B 0.7168(7) 0.8237(2) 0.5648(3)
H35 H 0.828871 0.810837 0.546742
B18 B 0.5654(7) 0.8927(2) 0.6216(3)
H36 H 0.577371 0.924967 0.640203
B19 B 0.6201(7) 0.7750(2) 0.6294(3)
H37 H 0.666750 0.729982 0.653786
B20 B 0.5678(7) 0.8679(3) 0.5219(3)
H38 H 0.580372 0.883996 0.475479
C25 C 0.2939(6) 0.74535(19) 0.6507(2)
C26 C 0.3171(6) 0.69111(18) 0.6487(2)
H39 H 0.409323 0.684176 0.629379
C27 C 0.1547(6) 0.7544(2) 0.6799(2)
H40 H 0.137518 0.790491 0.682704
C28 C -0.1797(7) 0.6326(2) 0.6379(3)
H41 H -0.105488 0.662686 0.619536
C29 C 0.0430(7) 0.7105(2) 0.7045(2)
H42 H -0.050294 0.717594 0.723333
C30 C -0.0557(6) 0.60734(19) 0.7293(2)
C31 C -0.2905(7) 0.5535(2) 0.7236(3)
C32 C 0.0751(8) 0.5389(2) 0.8784(2)
H43 H 0.157156 0.542628 0.899443
C33 C -0.4101(7) 0.5769(2) 0.6338(3)
H44 H -0.485557 0.569289 0.612738
C34 C -0.4085(8) 0.5455(2) 0.6909(3)
H45 H -0.488587 0.517510 0.708952
C35 C -0.2835(8) 0.5184(2) 0.7828(3)
H46 H -0.360627 0.489228 0.800454
C36 C 0.3888(6) 0.84808(19) 0.5611(2)
C37 C -0.0409(10) 0.4951(3) 0.9039(3)
H47 H -0.037066 0.470183 0.942113
C38 C -0.0502(7) 0.57212(19) 0.7886(2)
C39 C 0.4198(6) 0.79281(18) 0.6235(2)
C40 C 0.0683(8) 0.5774(2) 0.8209(2)
H48 H 0.145040 0.606998 0.804430
C41 C 0.1432(7) 0.9048(3) 0.5092(3)
H49 H 0.105105 0.916272 0.539228
H50 H 0.052306 0.900409 0.490243
H51 H 0.213565 0.934735 0.482680
C42 C 0.0662(6) 0.6555(2) 0.7020(2)
C43 C -0.1693(8) 0.5256(2) 0.8149(3)
C44 C 0.2062(6) 0.6465(2) 0.6749(2)
H52 H 0.227121 0.609613 0.674074
C45 C -0.2922(7) 0.6219(2) 0.6074(3)
H53 H -0.292027 0.644384 0.568563
C46 C -0.1730(7) 0.5988(2) 0.6972(3)
C47 C -0.1591(9) 0.4888(2) 0.8734(3)
H54 H -0.235832 0.459450 0.891194
C48 C 0.2366(7) 0.8461(2) 0.5339(3)
H55 H 0.165552 0.816718 0.561799
H56 H 0.264523 0.832987 0.503756
B21 B 1.0170(8) 0.2058(3) 0.5775(3)
H57 H 0.975965 0.174017 0.561709
B22 B 1.0383(8) 0.3260(3) 0.5627(3)
H58 H 1.009457 0.372897 0.537097
B23 B 1.1160(8) 0.1830(3) 0.6408(3)
H59 H 1.140891 0.135914 0.666884
B24 B 1.0901(8) 0.2755(3) 0.5318(3)
H60 H 1.096820 0.289523 0.485604
B25 B 1.0659(7) 0.2326(2) 0.6723(3)
H61 H 1.057477 0.218070 0.718552
B26 B 1.2245(8) 0.2219(3) 0.5745(3)
H62 H 1.320012 0.200619 0.557131
B27 B 1.2359(8) 0.2975(3) 0.5653(3)
H63 H 1.338631 0.325616 0.541563
B28 B 0.9211(8) 0.2126(2) 0.6370(2)
H64 H 0.815395 0.185783 0.660093
B29 B 1.1379(7) 0.3037(3) 0.6264(3)
H65 H 1.175583 0.335441 0.642867
B30 B 1.2544(8) 0.2397(3) 0.6330(3)
H66 H 1.370832 0.229887 0.653398
C49 C 0.5383(6) 0.3206(2) 0.6855(2)
H67 H 0.442543 0.301270 0.703075
C50 C 0.3815(6) 0.41085(19) 0.7407(2)
C51 C 0.8084(6) 0.3167(2) 0.6453(2)
C52 C 0.6640(6) 0.2890(2) 0.67249(19)
H68 H 0.652488 0.248767 0.681911
C53 C 0.4097(6) 0.41344(19) 0.6861(2)
C54 C 0.2413(6) 0.4404(2) 0.7546(3)
C55 C 0.9407(6) 0.2856(2) 0.6272(2)
C56 C 0.3064(7) 0.4465(2) 0.6434(2)
C57 C 0.2194(8) 0.4382(2) 0.8094(3)
H69 H 0.127940 0.456407 0.818716
C58 C 0.3347(7) 0.4524(2) 0.5869(3)
H70 H 0.425427 0.433994 0.577454
C59 C 0.1664(7) 0.4755(2) 0.6574(3)
C60 C 0.3264(8) 0.4106(3) 0.8488(3)
H71 H 0.310550 0.410521 0.884752
C61 C 0.8231(6) 0.3761(2) 0.6352(2)
H72 H 0.920198 0.395313 0.619196
C62 C 0.5505(6) 0.38035(19) 0.6732(2)
C63 C 0.9136(6) 0.2682(2) 0.5709(2)
C64 C 0.6966(6) 0.4068(2) 0.6486(2)
H73 H 0.709545 0.446577 0.640915
C65 C 0.7337(10) 0.3248(4) 0.4894(3)
H74 H 0.768024 0.362618 0.486258
H75 H 0.622395 0.327612 0.479952
H76 H 0.800387 0.312913 0.463768
C66 C 0.0622(9) 0.5087(3) 0.6136(4)
H77 H -0.029981 0.527365 0.621971
C67 C 0.4605(7) 0.3822(2) 0.8356(3)
H78 H 0.533689 0.362870 0.863269
C68 C 0.1388(7) 0.4711(2) 0.7119(3)
H79 H 0.046696 0.489559 0.720415
C69 C 0.0944(9) 0.5135(3) 0.5611(4)
H80 H 0.025443 0.536504 0.533147
C70 C 0.2312(10) 0.4847(3) 0.5460(3)
H81 H 0.249655 0.487690 0.509054
C71 C 0.7488(7) 0.2824(3) 0.5453(2)
H82 H 0.706258 0.245507 0.547568
H83 H 0.677516 0.295107 0.569809
C72 C 0.4885(6) 0.3817(2) 0.7846(2)
H84 H 0.579950 0.361890 0.777635
B31 B 0.5246(8) 0.5890(3) 0.9205(3)
H85 H 0.526770 0.549919 0.910303
B32 B 0.6806(10) 0.6534(2) 0.9716(3)
H86 H 0.783082 0.657262 0.994694
B33 B 0.3667(8) 0.6444(3) 0.8976(3)
H87 H 0.267816 0.642039 0.872335
B34 B 0.5178(8) 0.7074(3) 0.9503(3)
H88 H 0.516769 0.745954 0.961221
B35 B 0.4515(7) 0.7138(3) 0.8858(3)
H89 H 0.410067 0.756085 0.853316
B36 B 0.3350(8) 0.6742(3) 0.9476(3)
H90 H 0.214769 0.691005 0.955910
B37 B 0.4727(9) 0.6355(3) 1.0019(3)
H91 H 0.440091 0.626893 1.046454
B38 B 0.7054(9) 0.6242(2) 0.9213(3)
H92 H 0.826151 0.609255 0.911101
B39 B 0.3805(8) 0.5965(3) 0.9698(3)
H93 H 0.288830 0.562648 0.992551
B40 B 0.5905(9) 0.5839(3) 0.9846(3)
H94 H 0.634862 0.542091 1.017046
C73 C 1.2324(6) 0.89033(19) 0.8149(2)
C74 C 0.9934(6) 0.8350(2) 0.80915(19)
C75 C 0.5671(7) 0.6578(2) 0.8730(2)
C76 C 0.9239(6) 0.7321(2) 0.8525(2)
H95 H 0.954744 0.692650 0.862180
C77 C 0.6223(7) 0.6727(3) 0.8124(2)
H96 H 0.726519 0.653482 0.811245
H97 H 0.637369 0.715198 0.793115
C78 C 0.9964(6) 0.9141(2) 0.6904(2)
H98 H 0.915662 0.885962 0.706300
C79 C 1.1158(6) 0.91795(19) 0.7242(2)
C80 C 1.2386(6) 0.9618(2) 0.6989(2)
C81 C 1.3547(7) 0.9681(2) 0.7320(2)
H99 H 1.434356 0.996566 0.715296
C82 C 0.7696(6) 0.7447(2) 0.8673(2)
C83 C 0.9968(6) 0.9516(2) 0.6338(2)
H100 H 0.915559 0.949128 0.611803
C84 C 1.3396(7) 0.8688(2) 0.9059(2)
H101 H 1.335046 0.847416 0.944983
C85 C 0.5029(8) 0.6538(3) 0.7811(2)
H102 H 0.475687 0.612992 0.802788
H103 H 0.551473 0.658432 0.744787
H104 H 0.406172 0.677978 0.776007
C86 C 1.4601(7) 0.9124(2) 0.8800(2)
H105 H 1.532614 0.920224 0.901857
C87 C 1.2364(7) 0.9986(2) 0.6408(2)
H106 H 1.316522 1.026806 0.623939
C88 C 1.3542(6) 0.9332(2) 0.7889(2)
C89 C 0.7275(6) 0.80359(19) 0.8525(2)
H107 H 0.623089 0.813535 0.861998
C90 C 1.0364(7) 0.7759(2) 0.8235(2)
H108 H 1.140224 0.765785 0.813689
C91 C 1.2317(7) 0.8575(2) 0.8752(2)
H109 H 1.155497 0.828058 0.893284
C92 C 0.8377(6) 0.8480(2) 0.8238(2)
H110 H 0.806180 0.887334 0.814330
C93 C 1.1179(6) 0.88202(19) 0.7818(2)
C94 C 1.1212(7) 0.9938(2) 0.6092(2)
H111 H 1.122735 1.018371 0.570742
C95 C 1.4678(6) 0.9424(2) 0.8232(2)
H112 H 1.549509 0.969923 0.806019
C96 C 0.6515(6) 0.6971(2) 0.9025(2)
loop_
_geom_bond_atom_site_label_1
_geom_bond_atom_site_label_2
_geom_bond_site_symmetry_1
_geom_bond_site_symmetry_2
B1 H1 1_555 1_555
B2 B1 1_555 1_555
H2 B2 1_555 1_555
B3 H3 1_555 1_555
B4 B1 1_555 1_555
H4 B4 1_555 1_555
B5 B3 1_555 1_555
H5 B5 1_555 1_555
B6 B1 1_555 1_555
H6 B6 1_555 1_555
B7 B1 1_555 1_555
H7 B7 1_555 1_555
B8 B3 1_555 1_555
H8 B8 1_555 1_555
B9 B1 1_555 1_555
H9 B9 1_555 1_555
B10 B2 1_555 1_555
H10 B10 1_555 1_555
C1 H11 1_555 1_555
C2 C9 1_555 1_555
C3 C13 1_555 1_555
C4 H12 1_555 1_555
C5 C4 1_555 1_555
H13 C5 1_555 1_555
C6 C1 1_555 1_555
H14 C6 1_555 1_555
C7 H15 1_555 1_555
C8 C6 1_555 1_555
C9 C10 1_555 1_555
C10 C1 1_555 1_555
C11 B2 1_555 1_555
C12 H16 1_555 1_555
C13 C12 1_555 1_555
H17 C13 1_555 1_555
C14 C4 1_555 1_555
H18 C14 1_555 1_555
C15 C7 1_555 1_555
H19 C15 1_555 1_555
C16 C12 1_555 1_555
H20 C16 1_555 1_555
C17 C3 1_555 1_555
C18 C3 1_555 1_555
H21 C18 1_555 1_555
C19 C2 1_555 1_555
H22 C19 1_555 1_555
C20 C2 1_555 1_555
C21 C16 1_555 1_555
H23 C21 1_555 1_555
C22 H24 1_555 1_555
H25 C22 1_555 1_555
H26 C22 1_555 1_555
C23 B3 1_555 1_555
C24 C22 1_555 1_555
H27 C24 1_555 1_555
H28 C24 1_555 1_555
B11 H29 1_555 1_555
B12 B11 1_555 1_555
H30 B12 1_555 1_555
B13 B12 1_555 1_555
H31 B13 1_555 1_555
B14 B13 1_555 1_555
H32 B14 1_555 1_555
B15 B11 1_555 1_555
H33 B15 1_555 1_555
B16 H34 1_555 1_555
B17 B12 1_555 1_555
H35 B17 1_555 1_555
B18 B11 1_555 1_555
H36 B18 1_555 1_555
B19 B13 1_555 1_555
H37 B19 1_555 1_555
B20 B11 1_555 1_555
H38 B20 1_555 1_555
C25 C26 1_555 1_555
C26 H39 1_555 1_555
C27 C25 1_555 1_555
H40 C27 1_555 1_555
C28 H41 1_555 1_555
C29 C27 1_555 1_555
H42 C29 1_555 1_555
C30 C38 1_555 1_555
C31 C34 1_555 1_555
C32 H43 1_555 1_555
C33 H44 1_555 1_555
C34 C33 1_555 1_555
H45 C34 1_555 1_555
C35 C31 1_555 1_555
H46 C35 1_555 1_555
C36 B11 1_555 1_555
C37 C32 1_555 1_555
H47 C37 1_555 1_555
C38 C40 1_555 1_555
C39 B14 1_555 1_555
C40 C32 1_555 1_555
H48 C40 1_555 1_555
C41 H49 1_555 1_555
H50 C41 1_555 1_555
H51 C41 1_555 1_555
C42 C29 1_555 1_555
C43 C35 1_555 1_555
C44 C26 1_555 1_555
H52 C44 1_555 1_555
C45 C28 1_555 1_555
H53 C45 1_555 1_555
C46 C28 1_555 1_555
C47 C37 1_555 1_555
H54 C47 1_555 1_555
C48 C36 1_555 1_555
H55 C48 1_555 1_555
H56 C48 1_555 1_555
B21 H57 1_555 1_555
B22 H58 1_555 1_555
B23 B21 1_555 1_555
H59 B23 1_555 1_555
B24 B21 1_555 1_555
H60 B24 1_555 1_555
B25 B23 1_555 1_555
H61 B25 1_555 1_555
B26 B21 1_555 1_555
H62 B26 1_555 1_555
B27 B22 1_555 1_555
H63 B27 1_555 1_555
B28 B21 1_555 1_555
H64 B28 1_555 1_555
B29 B22 1_555 1_555
H65 B29 1_555 1_555
B30 B23 1_555 1_555
H66 B30 1_555 1_555
C49 H67 1_555 1_555
C50 C53 1_555 1_555
C51 C52 1_555 1_555
C52 C49 1_555 1_555
H68 C52 1_555 1_555
C53 C56 1_555 1_555
C54 C50 1_555 1_555
C55 B22 1_555 1_555
C56 C58 1_555 1_555
C57 C54 1_555 1_555
H69 C57 1_555 1_555
C58 H70 1_555 1_555
C59 C56 1_555 1_555
C60 C57 1_555 1_555
H71 C60 1_555 1_555
C61 C51 1_555 1_555
H72 C61 1_555 1_555
C62 C49 1_555 1_555
C63 B21 1_555 1_555
C64 C61 1_555 1_555
H73 C64 1_555 1_555
C65 H74 1_555 1_555
H75 C65 1_555 1_555
H76 C65 1_555 1_555
C66 C59 1_555 1_555
H77 C66 1_555 1_555
C67 C60 1_555 1_555
H78 C67 1_555 1_555
C68 C54 1_555 1_555
H79 C68 1_555 1_555
C69 C66 1_555 1_555
H80 C69 1_555 1_555
C70 C58 1_555 1_555
H81 C70 1_555 1_555
C71 C63 1_555 1_555
H82 C71 1_555 1_555
H83 C71 1_555 1_555
C72 C50 1_555 1_555
H84 C72 1_555 1_555
B31 H85 1_555 1_555
B32 H86 1_555 1_555
B33 B31 1_555 1_555
H87 B33 1_555 1_555
B34 B32 1_555 1_555
H88 B34 1_555 1_555
B35 B33 1_555 1_555
H89 B35 1_555 1_555
B36 B33 1_555 1_555
H90 B36 1_555 1_555
B37 B32 1_555 1_555
H91 B37 1_555 1_555
B38 B31 1_555 1_555
H92 B38 1_555 1_555
B39 B31 1_555 1_555
H93 B39 1_555 1_555
B40 B31 1_555 1_555
H94 B40 1_555 1_555
C73 C88 1_555 1_555
C74 C90 1_555 1_555
C75 B31 1_555 1_555
C76 H95 1_555 1_555
C77 C75 1_555 1_555
H96 C77 1_555 1_555
H97 C77 1_555 1_555
C78 H98 1_555 1_555
C79 C78 1_555 1_555
C80 C79 1_555 1_555
C81 C80 1_555 1_555
H99 C81 1_555 1_555
C82 C76 1_555 1_555
C83 C78 1_555 1_555
H100 C83 1_555 1_555
C84 H101 1_555 1_555
C85 C77 1_555 1_555
H102 C85 1_555 1_555
H103 C85 1_555 1_555
H104 C85 1_555 1_555
C86 C84 1_555 1_555
H105 C86 1_555 1_555
C87 C80 1_555 1_555
H106 C87 1_555 1_555
C88 C81 1_555 1_555
C89 C82 1_555 1_555
H107 C89 1_555 1_555
C90 C76 1_555 1_555
H108 C90 1_555 1_555
C91 C73 1_555 1_555
H109 C91 1_555 1_555
C92 C74 1_555 1_555
H110 C92 1_555 1_555
C93 C73 1_555 1_555
C94 C83 1_555 1_555
H111 C94 1_555 1_555
C95 C86 1_555 1_555
H112 C95 1_555 1_555
C96 B32 1_555 1_555
B2 B4 1_555 1_555
B2 B9 1_555 1_555
B3 B10 1_555 1_555
B3 C11 1_555 1_555
B4 B5 1_555 1_555
B4 B7 1_555 1_555
B4 B10 1_555 1_555
B5 B7 1_555 1_555
B5 B8 1_555 1_555
B5 B10 1_555 1_555
B6 B7 1_555 1_555
B6 B8 1_555 1_555
B6 B9 1_555 1_555
B6 C23 1_555 1_555
B7 B8 1_555 1_555
B8 C23 1_555 1_555
B9 C11 1_555 1_555
B9 C23 1_555 1_555
B10 C11 1_555 1_555
C5 C20 1_555 1_555
C7 C8 1_555 1_555
C8 C11 1_555 1_555
C9 C17 1_555 1_555
C10 C15 1_555 1_555
C11 C23 1_555 1_555
C14 C19 1_555 1_555
C17 C21 1_555 1_555
C18 C20 1_555 1_555
C23 C24 1_555 1_555
B12 B18 1_555 1_555
B12 B20 1_555 1_555
B13 B17 1_555 1_555
B13 B18 1_555 1_555
B14 B15 1_555 1_555
B14 B18 1_555 1_555
B14 B19 1_555 1_555
B15 B18 1_555 1_555
B15 C36 1_555 1_555
B15 C39 1_555 1_555
B16 B17 1_555 1_555
B16 B19 1_555 1_555
B16 B20 1_555 1_555
B16 C36 1_555 1_555
B16 C39 1_555 1_555
B17 B19 1_555 1_555
B17 B20 1_555 1_555
B19 C39 1_555 1_555
B20 C36 1_555 1_555
C25 C39 1_555 1_555
C30 C42 1_555 1_555
C30 C46 1_555 1_555
C31 C46 1_555 1_555
C33 C45 1_555 1_555
C36 C39 1_555 1_555
C38 C43 1_555 1_555
C41 C48 1_555 1_555
C42 C44 1_555 1_555
C43 C47 1_555 1_555
B22 B24 1_555 1_555
B22 C63 1_555 1_555
B23 B26 1_555 1_555
B23 B28 1_555 1_555
B24 B26 1_555 1_555
B24 B27 1_555 1_555
B24 C63 1_555 1_555
B25 B28 1_555 1_555
B25 B29 1_555 1_555
B25 B30 1_555 1_555
B25 C55 1_555 1_555
B26 B27 1_555 1_555
B26 B30 1_555 1_555
B27 B29 1_555 1_555
B27 B30 1_555 1_555
B28 C55 1_555 1_555
B28 C63 1_555 1_555
B29 B30 1_555 1_555
B29 C55 1_555 1_555
C51 C55 1_555 1_555
C53 C62 1_555 1_555
C55 C63 1_555 1_555
C59 C68 1_555 1_555
C62 C64 1_555 1_555
C65 C71 1_555 1_555
C67 C72 1_555 1_555
C69 C70 1_555 1_555
B32 B38 1_555 1_555
B32 B40 1_555 1_555
B33 B39 1_555 1_555
B33 C75 1_555 1_555
B34 B35 1_555 1_555
B34 B36 1_555 1_555
B34 B37 1_555 1_555
B34 C96 1_555 1_555
B35 B36 1_555 1_555
B35 C75 1_555 1_555
B35 C96 1_555 1_555
B36 B37 1_555 1_555
B36 B39 1_555 1_555
B37 B39 1_555 1_555
B37 B40 1_555 1_555
B38 B40 1_555 1_555
B38 C75 1_555 1_555
B38 C96 1_555 1_555
B39 B40 1_555 1_555
C74 C93 1_555 1_555
C75 C96 1_555 1_555
C79 C93 1_555 1_555
C82 C96 1_555 1_555
C84 C91 1_555 1_555
C87 C94 1_555 1_555
C88 C95 1_555 1_555
C89 C92 1_555 1_555

#END
