
#######################################################################
#
#                 Cambridge Crystallographic Data Centre
#                                CCDC 
#
#######################################################################
#
# If this CIF has been generated from an entry in the Cambridge 
# Structural Database, then it will include bibliographic, chemical, 
# crystal, experimental, refinement or atomic coordinate data resulting 
# from the CCDC's data processing and validation procedures.
#
#######################################################################

data_PIDZIM
_chemical_formula_moiety         'C16 H18 O2'
_chemical_name_systematic        2,2'-Ethylidene-bis(4-methylphenol)
_symmetry_cell_setting           orthorhombic
_symmetry_space_group_name_H-M   'P 21 21 21'
_symmetry_Int_Tables_number      19
_space_group_name_Hall           'P 2ac 2ab'
loop_
_symmetry_equiv_pos_site_id
_symmetry_equiv_pos_as_xyz
1 x,y,z
2 1/2-x,-y,1/2+z
3 -x,1/2+y,1/2-z
4 1/2+x,1/2-y,-z
_cell_length_a                   8.6680(17)
_cell_length_b                   9.6400(19)
_cell_length_c                   16.424(3)
_cell_angle_alpha                90
_cell_angle_beta                 90
_cell_angle_gamma                90
_cell_volume                     1372.38
_exptl_crystal_colour            colorless
_exptl_crystal_description       block
_chemical_melting_point          '663.8 K'
_cell_formula_units_Z            4
_exptl_crystal_recrystallization_method 'ethyl alcohol'
loop_
_atom_site_label
_atom_site_type_symbol
_atom_site_fract_x
_atom_site_fract_y
_atom_site_fract_z
O1 O 0.1259(2) 0.2981(2) 0.92738(14)
H1 H 0.1893 0.2453 0.9477
O2 O -0.1681(2) 0.3498(3) 0.97766(18)
H2 H -0.0775 0.3297 0.9696
C1 C 0.4340(3) 0.7094(4) 0.7422(3)
H3 H 0.5419 0.7104 0.7553
H4 H 0.3906 0.7993 0.7524
H5 H 0.4210 0.6862 0.6857
C2 C 0.3526(3) 0.6023(3) 0.7944(2)
C3 C 0.4309(3) 0.5215(4) 0.8482(2)
H6 H 0.5364 0.5346 0.8550
C4 C 0.3579(3) 0.4220(4) 0.8924(2)
H7 H 0.4138 0.3684 0.9291
C5 C 0.2016(3) 0.3996(3) 0.88323(18)
C6 C 0.1158(2) 0.4802(3) 0.83022(16)
C7 C 0.1932(3) 0.5806(3) 0.78679(19)
H8 H 0.1377 0.6362 0.7510
C8 C -0.0590(2) 0.4614(3) 0.82236(17)
H9 H -0.0810 0.3637 0.8340
C9 C -0.1186(2) 0.4905(4) 0.73640(17)
H10 H -0.0633 0.4342 0.6980
H11 H -0.1033 0.5867 0.7235
H12 H -0.2266 0.4690 0.7336
C10 C -0.1427(3) 0.5469(3) 0.88715(17)
C11 C -0.1914(3) 0.4885(3) 0.95978(19)
C12 C -0.2710(4) 0.5663(4) 1.0163(2)
H13 H -0.3039 0.5252 1.0645
C13 C -0.3021(4) 0.7037(4) 1.0022(3)
H14 H -0.3555 0.7549 1.0410
C14 C -0.2548(4) 0.7670(4) 0.9306(2)
C15 C -0.1741(3) 0.6864(3) 0.87525(18)
H15 H -0.1392 0.7280 0.8276
C16 C -0.2894(3) 0.9181(4) 0.9147(3)
H16 H -0.2472 0.9445 0.8629
H17 H -0.2438 0.9738 0.9567
H18 H -0.3990 0.9321 0.9143
loop_
_geom_bond_atom_site_label_1
_geom_bond_atom_site_label_2
_geom_bond_site_symmetry_1
_geom_bond_site_symmetry_2
O1 H1 1_555 1_555
O2 H2 1_555 1_555
C1 H3 1_555 1_555
H4 C1 1_555 1_555
H5 C1 1_555 1_555
C2 C1 1_555 1_555
C3 C2 1_555 1_555
H6 C3 1_555 1_555
C4 C3 1_555 1_555
H7 C4 1_555 1_555
C5 O1 1_555 1_555
C6 C5 1_555 1_555
C7 C2 1_555 1_555
H8 C7 1_555 1_555
C8 C6 1_555 1_555
H9 C8 1_555 1_555
C9 C8 1_555 1_555
H10 C9 1_555 1_555
H11 C9 1_555 1_555
H12 C9 1_555 1_555
C10 C8 1_555 1_555
C11 O2 1_555 1_555
C12 C11 1_555 1_555
H13 C12 1_555 1_555
C13 C12 1_555 1_555
H14 C13 1_555 1_555
C14 C13 1_555 1_555
C15 C10 1_555 1_555
H15 C15 1_555 1_555
C16 C14 1_555 1_555
H16 C16 1_555 1_555
H17 C16 1_555 1_555
H18 C16 1_555 1_555
C4 C5 1_555 1_555
C6 C7 1_555 1_555
C10 C11 1_555 1_555
C14 C15 1_555 1_555

#END
