
#######################################################################
#
#                 Cambridge Crystallographic Data Centre
#                                CCDC 
#
#######################################################################
#
# If this CIF has been generated from an entry in the Cambridge 
# Structural Database, then it will include bibliographic, chemical, 
# crystal, experimental, refinement or atomic coordinate data resulting 
# from the CCDC's data processing and validation procedures.
#
#######################################################################

data_PIFPAY
_chemical_formula_moiety         'C33 H51 N15'
_chemical_name_systematic        
N'^2^,N'^6^,N'^10^-tripropyl-3,7,11-tris(propylamino)dipyrazino[2,3-f:2',3'-h]quinoxaline-2,6,10-tricarboximidamide
_symmetry_cell_setting           hexagonal
_symmetry_space_group_name_H-M   'P 65'
_symmetry_Int_Tables_number      170
_space_group_name_Hall           'P 65'
loop_
_symmetry_equiv_pos_site_id
_symmetry_equiv_pos_as_xyz
1 x,y,z
2 -x,-y,1/2+z
3 -y,x-y,2/3+z
4 -x+y,-x,1/3+z
5 x-y,x,5/6+z
6 y,-x+y,1/6+z
_cell_length_a                   17.180(16)
_cell_length_b                   17.180(16)
_cell_length_c                   20.593(19)
_cell_angle_alpha                90
_cell_angle_beta                 90
_cell_angle_gamma                120
_cell_volume                     5263.77
_exptl_crystal_description       block
_cell_formula_units_Z            6
loop_
_atom_site_label
_atom_site_type_symbol
_atom_site_fract_x
_atom_site_fract_y
_atom_site_fract_z
N1 N 0.25227(18) 0.94843(18) 0.53004(15)
N2 N -0.11879(18) 0.72870(18) 0.54131(14)
N3 N 0.14403(18) 1.02328(18) 0.53239(14)
N4 N 0.17619(18) 0.76086(18) 0.53189(15)
N5 N -0.00927(19) 0.65091(19) 0.53422(15)
N6 N 0.2313(2) 1.1986(2) 0.52415(17)
H1 H 0.264890 1.257382 0.520548
H2 H 0.256562 1.164918 0.524481
N7 N -0.04309(19) 0.91355(19) 0.54411(16)
N8 N -0.1359(2) 0.50949(19) 0.53348(18)
H3 H -0.194793 0.476946 0.530463
N9 N -0.29731(19) 0.5012(2) 0.54064(16)
N10 N 0.0952(2) 1.20131(19) 0.52935(16)
N11 N 0.40427(19) 0.8127(2) 0.52701(16)
N12 N -0.2944(2) 0.6408(2) 0.54317(17)
H4 H -0.353354 0.615756 0.542113
H5 H -0.260647 0.699746 0.544579
N13 N -0.0563(2) 1.0408(2) 0.54784(19)
H6 H -0.029869 1.099778 0.545621
N14 N 0.39403(19) 0.9652(2) 0.52473(17)
H7 H 0.428681 0.940979 0.525246
C1 C 0.0263(2) 0.7411(2) 0.53556(17)
N15 N 0.2671(2) 0.6757(2) 0.53474(18)
H8 H 0.293626 0.643175 0.536692
H9 H 0.208134 0.649309 0.536164
C2 C -0.0285(2) 0.7809(2) 0.53880(17)
C3 C 0.1236(2) 0.7987(2) 0.53335(18)
C4 C 0.1395(2) 1.1595(2) 0.52926(18)
C5 C 0.1047(2) 0.9323(2) 0.53476(17)
C6 C 0.0923(2) 1.0596(2) 0.53496(17)
C7 C -0.0982(2) 0.6001(2) 0.53643(18)
C8 C 0.2646(2) 0.8138(2) 0.52879(17)
C9 C 0.1626(2) 0.8929(2) 0.53229(17)
C10 C -0.1549(2) 0.6405(2) 0.53986(18)
C11 C -0.2552(2) 0.5880(2) 0.54263(17)
C12 C 0.0112(2) 0.8782(2) 0.53958(18)
C13 C 0.3177(2) 0.7672(2) 0.52950(17)
C14 C -0.0043(2) 1.0034(2) 0.54268(17)
C15 C 0.3043(2) 0.9107(2) 0.52721(17)
C16 C 0.4525(2) 0.7633(2) 0.5311(2)
H10 H 0.436298 0.722204 0.493435
H11 H 0.434208 0.726323 0.571084
C17 C 0.1472(3) 1.2993(2) 0.5236(2)
H12 H 0.179186 1.315766 0.481391
H13 H 0.192809 1.324117 0.558547
C18 C -0.4359(2) 0.3553(2) 0.5338(2)
H14 H -0.420954 0.330866 0.572336
H15 H -0.409888 0.342556 0.495141
C19 C 0.5540(2) 0.8268(3) 0.5319(2)
H16 H 0.569849 0.869383 0.568574
H17 H 0.572529 0.862022 0.491165
C20 C -0.0846(3) 0.4626(3) 0.5350(2)
H18 H -0.081141 0.445216 0.580310
H19 H -0.022604 0.503675 0.519763
C21 C 0.4359(3) 1.0627(2) 0.5212(3)
H20 H 0.420774 1.084906 0.560904
H21 H 0.411245 1.078956 0.483481
C22 C 0.6050(3) 0.7750(3) 0.5389(2)
H22 H 0.580424 0.733300 0.575574
H23 H 0.668857 0.817591 0.546604
H24 H 0.598376 0.741246 0.498957
C23 C -0.3949(2) 0.4560(2) 0.5413(2)
H25 H -0.415822 0.479419 0.505496
H26 H -0.415289 0.469065 0.582773
C24 C 0.0867(3) 1.3403(2) 0.5281(2)
H27 H 0.046355 1.314317 0.566071
H28 H 0.048788 1.324248 0.488721
C25 C -0.5386(3) 0.3085(3) 0.5264(2)
H29 H -0.564704 0.319168 0.565321
H30 H -0.562993 0.243732 0.520748
H31 H -0.553558 0.332704 0.488312
C26 C 0.1399(3) 1.4423(3) 0.5349(3)
H32 H 0.175466 1.458449 0.574948
H33 H 0.098215 1.465596 0.536662
H34 H 0.180047 1.468324 0.497565
C27 C -0.1661(3) 1.1281(3) 0.5375(3)
H35 H -0.101483 1.159734 0.528120
H36 H -0.181188 1.168112 0.561347
H37 H -0.199816 1.109813 0.496632
C28 C -0.1275(4) 0.3790(3) 0.4925(3)
H38 H -0.100897 0.341035 0.503349
H39 H -0.192615 0.343827 0.502051
C29 C -0.1528(3) 0.9912(3) 0.5568(3)
H40 H -0.181270 0.963554 0.514811
H41 H -0.167745 0.941860 0.587970
C30 C 0.5345(3) 1.1069(3) 0.5149(3)
H42 H 0.548403 1.086736 0.473723
H43 H 0.558529 1.172481 0.511296
C31 C -0.1144(5) 0.4012(5) 0.4216(4)
H44 H -0.143357 0.436116 0.410218
H45 H -0.141369 0.345487 0.396276
H46 H -0.050013 0.436556 0.412046
C32 C -0.1912(5) 1.0427(5) 0.5796(4)
H47 H -0.170909 1.061877 0.624788
H48 H -0.257388 1.004056 0.580355
C33 C 0.5832(5) 1.0915(5) 0.5676(5)
H49 H 0.562806 1.101463 0.609563
H50 H 0.647823 1.133122 0.562826
H51 H 0.571301 1.029467 0.565340
H52? H -0.148453 1.144082 0.582944
H53? H -0.213358 1.141829 0.526328
H54? H -0.113819 1.162732 0.509379
H55? H -0.175915 0.929768 0.539527
H56? H -0.165379 0.985693 0.603997
C34? C -0.2013(6) 1.0276(7) 0.5278(6)
H57? H -0.263629 0.994409 0.544468
H58? H -0.204027 1.015970 0.480519
loop_
_geom_bond_atom_site_label_1
_geom_bond_atom_site_label_2
_geom_bond_site_symmetry_1
_geom_bond_site_symmetry_2
N1 C9 1_555 1_555
N2 C2 1_555 1_555
N3 C5 1_555 1_555
N4 C3 1_555 1_555
N5 C1 1_555 1_555
N6 H1 1_555 1_555
H2 N6 1_555 1_555
N7 C12 1_555 1_555
N8 H3 1_555 1_555
N9 C11 1_555 1_555
N10 C4 1_555 1_555
N11 C13 1_555 1_555
N12 H4 1_555 1_555
H5 N12 1_555 1_555
N13 H6 1_555 1_555
N14 H7 1_555 1_555
C1 C2 1_555 1_555
N15 H8 1_555 1_555
H9 N15 1_555 1_555
C2 C12 1_555 1_555
C3 C1 1_555 1_555
C4 N6 1_555 1_555
C5 C9 1_555 1_555
C6 N3 1_555 1_555
C7 N5 1_555 1_555
C8 N4 1_555 1_555
C9 C3 1_555 1_555
C10 N2 1_555 1_555
C11 N12 1_555 1_555
C12 C5 1_555 1_555
C13 N15 1_555 1_555
C14 N7 1_555 1_555
C15 N1 1_555 1_555
C16 N11 1_555 1_555
H10 C16 1_555 1_555
H11 C16 1_555 1_555
C17 N10 1_555 1_555
H12 C17 1_555 1_555
H13 C17 1_555 1_555
C18 H14 1_555 1_555
H15 C18 1_555 1_555
C19 C16 1_555 1_555
H16 C19 1_555 1_555
H17 C19 1_555 1_555
C20 N8 1_555 1_555
H18 C20 1_555 1_555
H19 C20 1_555 1_555
C21 N14 1_555 1_555
H20 C21 1_555 1_555
H21 C21 1_555 1_555
C22 C19 1_555 1_555
H22 C22 1_555 1_555
H23 C22 1_555 1_555
H24 C22 1_555 1_555
C23 N9 1_555 1_555
H25 C23 1_555 1_555
H26 C23 1_555 1_555
C24 C17 1_555 1_555
H27 C24 1_555 1_555
H28 C24 1_555 1_555
C25 C18 1_555 1_555
H29 C25 1_555 1_555
H30 C25 1_555 1_555
H31 C25 1_555 1_555
C26 C24 1_555 1_555
H32 C26 1_555 1_555
H33 C26 1_555 1_555
H34 C26 1_555 1_555
C27 H35 1_555 1_555
H36 C27 1_555 1_555
H37 C27 1_555 1_555
C28 C20 1_555 1_555
H38 C28 1_555 1_555
H39 C28 1_555 1_555
C29 N13 1_555 1_555
H40 C29 1_555 1_555
H41 C29 1_555 1_555
C30 C21 1_555 1_555
H42 C30 1_555 1_555
H43 C30 1_555 1_555
C31 C28 1_555 1_555
H44 C31 1_555 1_555
H45 C31 1_555 1_555
H46 C31 1_555 1_555
C32 C27 1_555 1_555
H47 C32 1_555 1_555
H48 C32 1_555 1_555
C33 C30 1_555 1_555
H49 C33 1_555 1_555
H50 C33 1_555 1_555
H51 C33 1_555 1_555
N8 C7 1_555 1_555
N13 C14 1_555 1_555
N14 C15 1_555 1_555
C4 C6 1_555 1_555
C6 C14 1_555 1_555
C7 C10 1_555 1_555
C8 C13 1_555 1_555
C8 C15 1_555 1_555
C10 C11 1_555 1_555
C18 C23 1_555 1_555
C29 C32 1_555 1_555

#END
