
#######################################################################
#
#                 Cambridge Crystallographic Data Centre
#                                CCDC 
#
#######################################################################
#
# If this CIF has been generated from an entry in the Cambridge 
# Structural Database, then it will include bibliographic, chemical, 
# crystal, experimental, refinement or atomic coordinate data resulting 
# from the CCDC's data processing and validation procedures.
#
#######################################################################

data_PIGBOX
_chemical_formula_moiety         'C14 H12 O2 S2'
_chemical_name_systematic        
3-(1,3-dithiolan-2-ylidene)-6-phenyl-3H-pyran-2(6H)-one
_symmetry_cell_setting           orthorhombic
_symmetry_space_group_name_H-M   'P 21 21 21'
_symmetry_Int_Tables_number      19
_space_group_name_Hall           'P 2ac 2ab'
loop_
_symmetry_equiv_pos_site_id
_symmetry_equiv_pos_as_xyz
1 x,y,z
2 1/2-x,-y,1/2+z
3 1/2+x,1/2-y,-z
4 -x,1/2+y,1/2-z
_cell_length_a                   8.379(5)
_cell_length_b                   17.493(5)
_cell_length_c                   17.621(5)
_cell_angle_alpha                90
_cell_angle_beta                 90
_cell_angle_gamma                90
_cell_volume                     2582.78
_exptl_crystal_colour            colorless
_exptl_crystal_description       block
_chemical_melting_point          '126-128 deg.C'
_cell_formula_units_Z            8
loop_
_atom_site_label
_atom_site_type_symbol
_atom_site_fract_x
_atom_site_fract_y
_atom_site_fract_z
S1 S 0.36086(17) 0.82068(7) 0.47478(8)
S4 S 0.16758(17) 0.95817(7) 0.45376(8)
O2 O 0.7554(4) 0.98286(19) 0.5279(2)
O3 O 0.6680(4) 0.86875(19) 0.5107(2)
C2 C 0.4758(6) 0.9672(3) 0.4980(3)
C6 C 0.5727(7) 1.0923(3) 0.5302(4)
H2 H 0.5545 1.1447 0.5330
C7 C 0.8693(7) 1.1079(3) 0.5171(3)
C9 C 0.4567(6) 1.0480(3) 0.5073(3)
H3 H 0.3580 1.0698 0.4967
C11 C 0.6348(6) 0.9356(3) 0.5126(3)
C12 C 0.0617(6) 0.8690(3) 0.4529(3)
H5 H 0.0201 0.8582 0.5031
H6 H -0.0275 0.8721 0.4179
C13 C 0.7340(7) 1.0623(3) 0.5522(3)
H7 H 0.7441 1.0646 0.6076
C15 C 0.3533(6) 0.9200(3) 0.4778(3)
C18 C 0.9857(8) 1.1385(3) 0.5616(4)
H11 H 0.9826 1.1305 0.6137
C20 C 0.1710(6) 0.8077(3) 0.4292(3)
H14 H 0.1844 0.8088 0.3746
H15 H 0.1267 0.7584 0.4432
C24 C 0.8761(8) 1.1197(3) 0.4402(4)
H20 H 0.7970 1.0987 0.4096
C25 C 1.1111(8) 1.1821(3) 0.5300(5)
H21 H 1.1905 1.2036 0.5600
C27 C 0.9928(9) 1.1604(4) 0.4078(4)
H23 H 0.9939 1.1677 0.3555
C28 C 1.1095(9) 1.1911(4) 0.4516(5)
H24 H 1.1906 1.2190 0.4286
S2 S 0.62273(18) 1.20996(7) 0.77340(9)
S3 S 0.81170(17) 1.06995(8) 0.78425(9)
O1 O 0.2267(4) 1.0546(2) 0.7045(2)
C1 C 0.5066(6) 1.0670(3) 0.7353(3)
O4 O 0.3215(4) 1.16880(19) 0.7255(2)
C3 C 0.6293(6) 1.1110(3) 0.7606(3)
C4 C -0.0146(7) 0.9085(3) 0.6678(3)
H1 H -0.0231 0.9271 0.6185
C5 C 0.3511(7) 1.1011(3) 0.7207(3)
C8 C 0.1128(6) 0.9292(3) 0.7115(3)
C10 C 0.2459(7) 0.9768(3) 0.6771(3)
H4 H 0.2319 0.9772 0.6219
C14 C 0.5239(6) 0.9865(3) 0.7203(3)
H8 H 0.6220 0.9634 0.7294
C16 C 0.4066(7) 0.9449(3) 0.6943(3)
H9 H 0.4242 0.8930 0.6863
C17 C -0.1313(6) 0.8602(3) 0.6957(4)
H10 H -0.2158 0.8444 0.6652
C19 C 0.9210(7) 1.1577(3) 0.7929(4)
H12 H 1.0110 1.1510 0.8269
H13 H 0.9610 1.1737 0.7437
C21 C 0.1203(7) 0.9051(3) 0.7839(3)
H16 H 0.2058 0.9205 0.8140
C22 C 0.8097(7) 1.2162(3) 0.8237(3)
H17 H 0.8551 1.2668 0.8175
H18 H 0.7924 1.2073 0.8775
C23 C -0.1188(8) 0.8355(3) 0.7718(4)
H19 H -0.1960 0.8034 0.7923
C26 C 0.0064(8) 0.8588(4) 0.8147(4)
H22 H 0.0147 0.8432 0.8650
loop_
_geom_bond_atom_site_label_1
_geom_bond_atom_site_label_2
_geom_bond_site_symmetry_1
_geom_bond_site_symmetry_2
S1 C15 1_555 1_555
S2 C3 1_555 1_555
S3 C3 1_555 1_555
S4 C12 1_555 1_555
O1 C5 1_555 1_555
O2 C11 1_555 1_555
O3 C11 1_555 1_555
C1 C3 1_555 1_555
C2 C9 1_555 1_555
O4 C5 1_555 1_555
C4 H1 1_555 1_555
C5 C1 1_555 1_555
C6 H2 1_555 1_555
C7 C13 1_555 1_555
C8 C4 1_555 1_555
C9 C6 1_555 1_555
H3 C9 1_555 1_555
C10 O1 1_555 1_555
H4 C10 1_555 1_555
C11 C2 1_555 1_555
C12 H5 1_555 1_555
H6 C12 1_555 1_555
C13 O2 1_555 1_555
H7 C13 1_555 1_555
C14 C1 1_555 1_555
H8 C14 1_555 1_555
C15 S4 1_555 1_555
C16 C10 1_555 1_555
H9 C16 1_555 1_555
C17 C4 1_555 1_555
H10 C17 1_555 1_555
C18 C7 1_555 1_555
H11 C18 1_555 1_555
C19 S3 1_555 1_555
H12 C19 1_555 1_555
H13 C19 1_555 1_555
C20 S1 1_555 1_555
H14 C20 1_555 1_555
H15 C20 1_555 1_555
C21 C8 1_555 1_555
H16 C21 1_555 1_555
C22 S2 1_555 1_555
H17 C22 1_555 1_555
H18 C22 1_555 1_555
C23 C17 1_555 1_555
H19 C23 1_555 1_555
C24 C7 1_555 1_555
H20 C24 1_555 1_555
C25 C18 1_555 1_555
H21 C25 1_555 1_555
C26 C21 1_555 1_555
H22 C26 1_555 1_555
C27 C24 1_555 1_555
H23 C27 1_555 1_555
C28 C25 1_555 1_555
H24 C28 1_555 1_555
C2 C15 1_555 1_555
C6 C13 1_555 1_555
C8 C10 1_555 1_555
C12 C20 1_555 1_555
C14 C16 1_555 1_555
C19 C22 1_555 1_555
C23 C26 1_555 1_555
C27 C28 1_555 1_555

#END
