
#######################################################################
#
#                 Cambridge Crystallographic Data Centre
#                                CCDC 
#
#######################################################################
#
# If this CIF has been generated from an entry in the Cambridge 
# Structural Database, then it will include bibliographic, chemical, 
# crystal, experimental, refinement or atomic coordinate data resulting 
# from the CCDC's data processing and validation procedures.
#
#######################################################################

data_PIGVIN
_chemical_formula_moiety         'C12 H12 Br1 N1'
_chemical_name_systematic        6-bromo-2,3,4,9-tetrahydro-1H-carbazole
_symmetry_cell_setting           monoclinic
_symmetry_space_group_name_H-M   'C 2/c'
_symmetry_Int_Tables_number      15
_space_group_name_Hall           '-C 2yn'
loop_
_symmetry_equiv_pos_site_id
_symmetry_equiv_pos_as_xyz
1 x,y,z
2 -x,y,1/2-z
3 1/2+x,1/2+y,z
4 1/2-x,1/2+y,1/2-z
5 -x,-y,-z
6 x,-y,1/2+z
7 1/2-x,1/2-y,-z
8 1/2+x,1/2-y,1/2+z
_cell_length_a                   24.4539(18)
_cell_length_b                   6.1680(4)
_cell_length_c                   16.2352(12)
_cell_angle_alpha                90
_cell_angle_beta                 124.277(2)
_cell_angle_gamma                90
_cell_volume                     2023.49
_exptl_crystal_colour            'pale yellow'
_exptl_crystal_description       plate
_cell_formula_units_Z            8
loop_
_atom_site_label
_atom_site_type_symbol
_atom_site_fract_x
_atom_site_fract_y
_atom_site_fract_z
Br1 Br 0.458794(7) 0.33392(3) 0.851043(12)
N1 N 0.22329(6) 0.9268(2) 0.64286(9)
H1 H 0.2140 1.0542 0.6565
C1 C 0.28211(8) 0.8162(2) 0.70214(11)
C2 C 0.33916(8) 0.8707(2) 0.79429(12)
H2 H 0.3421 1.0031 0.8265
C3 C 0.39171(8) 0.7249(3) 0.83755(11)
H3 H 0.4314 0.7571 0.9001
C4 C 0.38598(7) 0.5301(2) 0.78858(11)
C5 C 0.33000(7) 0.4744(2) 0.69737(11)
H4 H 0.3276 0.3413 0.6661
C6 C 0.27680(8) 0.6199(2) 0.65220(11)
C7 C 0.21225(8) 0.6181(2) 0.56098(11)
C8 C 0.18114(8) 0.8045(2) 0.55842(11)
C9 C 0.11144(8) 0.8648(2) 0.47915(12)
H5 H 0.1109 0.9698 0.4326
H6 H 0.0903 0.9337 0.5096
C10 C 0.07346(14) 0.6614(5) 0.4229(2)
H7 H 0.0297 0.7024 0.3632
H8 H 0.0661 0.5705 0.4661
C11 C 0.11230(14) 0.5319(6) 0.3912(2)
H9 H 0.1196 0.6245 0.3485
H10 H 0.0855 0.4057 0.3510
C12 C 0.17991(8) 0.4504(2) 0.48060(11)
H11 H 0.1734 0.3158 0.5074
H12 H 0.2090 0.4162 0.4580
C13? C 0.0845(2) 0.7063(7) 0.3894(3)
H13? H 0.0356 0.7156 0.3470
H14? H 0.1010 0.7532 0.3488
C14? C 0.10460(19) 0.4714(7) 0.4206(4)
H15? H 0.0842 0.3781 0.3607
H16? H 0.0886 0.4226 0.4616
loop_
_geom_bond_atom_site_label_1
_geom_bond_atom_site_label_2
_geom_bond_site_symmetry_1
_geom_bond_site_symmetry_2
Br1 C4 1_555 1_555
N1 H1 1_555 1_555
C1 N1 1_555 1_555
C2 C1 1_555 1_555
H2 C2 1_555 1_555
C3 C2 1_555 1_555
H3 C3 1_555 1_555
C4 C3 1_555 1_555
C5 C4 1_555 1_555
H4 C5 1_555 1_555
C6 C1 1_555 1_555
C7 C6 1_555 1_555
C8 N1 1_555 1_555
C9 C8 1_555 1_555
H5 C9 1_555 1_555
H6 C9 1_555 1_555
C10 C9 1_555 1_555
H7 C10 1_555 1_555
H8 C10 1_555 1_555
C11 C10 1_555 1_555
H9 C11 1_555 1_555
H10 C11 1_555 1_555
C12 C7 1_555 1_555
H11 C12 1_555 1_555
H12 C12 1_555 1_555
C5 C6 1_555 1_555
C7 C8 1_555 1_555
C11 C12 1_555 1_555

#END
