
#######################################################################
#
#                 Cambridge Crystallographic Data Centre
#                                CCDC 
#
#######################################################################
#
# If this CIF has been generated from an entry in the Cambridge 
# Structural Database, then it will include bibliographic, chemical, 
# crystal, experimental, refinement or atomic coordinate data resulting 
# from the CCDC's data processing and validation procedures.
#
#######################################################################

data_PIGVUZ
_chemical_formula_moiety         'C12 H12 Cl1 N1'
_chemical_name_systematic        7-chloro-2,3,4,9-tetrahydro-1H-carbazole
_symmetry_cell_setting           monoclinic
_symmetry_space_group_name_H-M   'P 21'
_symmetry_Int_Tables_number      4
_space_group_name_Hall           'P 2yb'
loop_
_symmetry_equiv_pos_site_id
_symmetry_equiv_pos_as_xyz
1 x,y,z
2 -x,1/2+y,-z
_cell_length_a                   5.7132(12)
_cell_length_b                   8.1116(18)
_cell_length_c                   10.878(2)
_cell_angle_alpha                90
_cell_angle_beta                 96.698(8)
_cell_angle_gamma                90
_cell_volume                     500.68
_exptl_crystal_colour            colorless
_exptl_crystal_description       PLATE
_cell_formula_units_Z            2
loop_
_atom_site_label
_atom_site_type_symbol
_atom_site_fract_x
_atom_site_fract_y
_atom_site_fract_z
Cl1 Cl -0.03758(11) 0.33390(8) 0.12641(5)
N1 N 0.0569(3) 0.2574(2) 0.60331(17)
H1 H -0.0623 0.1923 0.6142
C1 C 0.1107(4) 0.3157(3) 0.49158(19)
C2 C -0.0046(4) 0.2901(3) 0.3726(2)
H2 H -0.1440 0.2257 0.3581
C3 C 0.0959(4) 0.3638(3) 0.2780(2)
C4 C 0.3005(4) 0.4595(3) 0.2961(2)
H3 H 0.3629 0.5074 0.2271
C5 C 0.4113(4) 0.4842(3) 0.4136(2)
H4 H 0.5508 0.5487 0.4264
C6 C 0.3165(4) 0.4133(3) 0.5145(2)
C7 C 0.3818(4) 0.4126(3) 0.6458(2)
C8 C 0.2211(4) 0.3178(3) 0.69625(19)
C9 C 0.2188(4) 0.2833(3) 0.8303(2)
H5 H 0.1953 0.1640 0.8437
H6 H 0.0887 0.3444 0.8624
C10 C 0.4620(14) 0.3401(11) 0.8992(5)
H7 H 0.4503 0.3460 0.9892
H8 H 0.5835 0.2570 0.8859
C11 C 0.5386(11) 0.5076(12) 0.8544(5)
H9 H 0.4157 0.5905 0.8655
H10 H 0.6859 0.5422 0.9049
C12 C 0.5781(4) 0.5011(3) 0.7222(2)
H11 H 0.7289 0.4441 0.7145
H12 H 0.5903 0.6148 0.6904
C13? C 0.370(3) 0.3962(18) 0.9091(9)
H13? H 0.3990 0.3500 0.9937
H14? H 0.2881 0.5032 0.9142
C14? C 0.599(2) 0.423(2) 0.8597(8)
H15? H 0.6828 0.3164 0.8589
H16? H 0.6971 0.4976 0.9168
loop_
_geom_bond_atom_site_label_1
_geom_bond_atom_site_label_2
_geom_bond_site_symmetry_1
_geom_bond_site_symmetry_2
Cl1 C3 1_555 1_555
N1 H1 1_555 1_555
C1 N1 1_555 1_555
C2 C1 1_555 1_555
H2 C2 1_555 1_555
C3 C2 1_555 1_555
C4 C3 1_555 1_555
H3 C4 1_555 1_555
C5 C4 1_555 1_555
H4 C5 1_555 1_555
C6 C1 1_555 1_555
C7 C6 1_555 1_555
C8 N1 1_555 1_555
C9 C8 1_555 1_555
H5 C9 1_555 1_555
H6 C9 1_555 1_555
C10 C9 1_555 1_555
H7 C10 1_555 1_555
H8 C10 1_555 1_555
C11 C10 1_555 1_555
H9 C11 1_555 1_555
H10 C11 1_555 1_555
C12 C7 1_555 1_555
H11 C12 1_555 1_555
H12 C12 1_555 1_555
C5 C6 1_555 1_555
C7 C8 1_555 1_555
C11 C12 1_555 1_555

#END
