
#######################################################################
#
#                 Cambridge Crystallographic Data Centre
#                                CCDC 
#
#######################################################################
#
# If this CIF has been generated from an entry in the Cambridge 
# Structural Database, then it will include bibliographic, chemical, 
# crystal, experimental, refinement or atomic coordinate data resulting 
# from the CCDC's data processing and validation procedures.
#
#######################################################################

data_PIGVAF
_chemical_formula_moiety         'C13 H14 F1 N1'
_chemical_name_systematic        
2-fluoro-5,6,7,8,9,10-hexahydrocyclohepta[b]indole
_symmetry_cell_setting           monoclinic
_symmetry_space_group_name_H-M   'P 21/n'
_symmetry_Int_Tables_number      14
_space_group_name_Hall           '-P 2yn'
loop_
_symmetry_equiv_pos_site_id
_symmetry_equiv_pos_as_xyz
1 x,y,z
2 1/2-x,1/2+y,1/2-z
3 -x,-y,-z
4 1/2+x,1/2-y,1/2+z
_cell_length_a                   9.8202(6)
_cell_length_b                   22.0098(16)
_cell_length_c                   9.8725(7)
_cell_angle_alpha                90
_cell_angle_beta                 101.926(3)
_cell_angle_gamma                90
_cell_volume                     2087.79
_exptl_crystal_colour            colorless
_exptl_crystal_description       Plate
_cell_formula_units_Z            8
loop_
_atom_site_label
_atom_site_type_symbol
_atom_site_fract_x
_atom_site_fract_y
_atom_site_fract_z
F1 F 0.57950(9) -0.19745(3) 0.13961(8)
N1 N 0.94130(9) -0.01375(4) 0.32141(9)
H1 H 1.0320 -0.0117 0.3515
C1 C 0.86793(10) -0.06571(5) 0.27752(10)
C2 C 0.91322(12) -0.12547(5) 0.26972(11)
H2 H 1.0090 -0.1357 0.2959
C3 C 0.81346(13) -0.16937(5) 0.22244(11)
H3 H 0.8399 -0.2106 0.2157
C4 C 0.67383(13) -0.15243(5) 0.18490(11)
C5 C 0.62600(11) -0.09432(5) 0.19094(11)
H4 H 0.5298 -0.0849 0.1642
C6 C 0.72560(10) -0.04908(4) 0.23843(10)
C7 C 0.71688(10) 0.01496(5) 0.25987(10)
C8 C 0.85031(10) 0.03480(5) 0.31092(10)
C9 C 0.90088(11) 0.09712(5) 0.35317(12)
H5 H 1.0039 0.0968 0.3759
H6 H 0.8683 0.1085 0.4382
C10 C 0.85192(13) 0.14538(5) 0.24235(13)
H7 H 0.8759 0.1317 0.1546
H8 H 0.9040 0.1834 0.2706
C11 C 0.69607(13) 0.15948(5) 0.21512(13)
H9 H 0.6712 0.1694 0.3048
H10 H 0.6792 0.1964 0.1567
C12 C 0.59730(12) 0.10983(5) 0.14549(12)
H11 H 0.6270 0.0972 0.0598
H12 H 0.5029 0.1275 0.1178
C13 C 0.58811(10) 0.05328(5) 0.23277(11)
H13 H 0.5678 0.0661 0.3226
H14 H 0.5091 0.0281 0.1851
F2 F 0.67913(8) 0.10483(3) 0.60587(8)
N2 N 0.82442(9) -0.09860(4) 0.91375(9)
H15 H 0.8586 -0.1055 1.0020
C14 C 0.79655(10) -0.04228(5) 0.85450(10)
C15 C 0.80980(11) 0.01527(5) 0.91390(11)
H16 H 0.8452 0.0206 1.0102
C16 C 0.76955(12) 0.06450(5) 0.82762(12)
H17 H 0.7764 0.1046 0.8642
C17 C 0.71879(11) 0.05488(5) 0.68653(12)
C18 C 0.70590(10) -0.00113(5) 0.62426(11)
H18 H 0.6719 -0.0056 0.5274
C19 C 0.74542(10) -0.05168(5) 0.71079(10)
C20 C 0.74262(10) -0.11576(5) 0.68689(10)
C21 C 0.79030(10) -0.14284(5) 0.81279(10)
C22 C 0.81055(12) -0.20850(5) 0.84872(12)
H19 H 0.8275 -0.2128 0.9507
H20 H 0.8948 -0.2230 0.8183
C23 C 0.68803(12) -0.24920(5) 0.78432(13)
H21 H 0.6023 -0.2325 0.8080
H22 H 0.7034 -0.2900 0.8267
C24 C 0.66430(13) -0.25601(5) 0.62703(13)
H23 H 0.7543 -0.2665 0.6027
H24 H 0.6005 -0.2907 0.5991
C25 C 0.60448(12) -0.20062(5) 0.54205(12)
H25 H 0.5752 -0.2132 0.4440
H26 H 0.5201 -0.1872 0.5739
C26 C 0.70253(13) -0.14648(5) 0.54905(11)
H27 H 0.7886 -0.1604 0.5211
H28 H 0.6580 -0.1160 0.4802
loop_
_geom_bond_atom_site_label_1
_geom_bond_atom_site_label_2
_geom_bond_site_symmetry_1
_geom_bond_site_symmetry_2
F1 C4 1_555 1_555
N1 H1 1_555 1_555
C1 N1 1_555 1_555
C2 C1 1_555 1_555
H2 C2 1_555 1_555
C3 C2 1_555 1_555
H3 C3 1_555 1_555
C4 C3 1_555 1_555
C5 C4 1_555 1_555
H4 C5 1_555 1_555
C6 C1 1_555 1_555
C7 C6 1_555 1_555
C8 N1 1_555 1_555
C9 C8 1_555 1_555
H5 C9 1_555 1_555
H6 C9 1_555 1_555
C10 C9 1_555 1_555
H7 C10 1_555 1_555
H8 C10 1_555 1_555
C11 C10 1_555 1_555
H9 C11 1_555 1_555
H10 C11 1_555 1_555
C12 C11 1_555 1_555
H11 C12 1_555 1_555
H12 C12 1_555 1_555
C13 C7 1_555 1_555
H13 C13 1_555 1_555
H14 C13 1_555 1_555
F2 C17 1_555 1_555
N2 H15 1_555 1_555
C14 N2 1_555 1_555
C15 C14 1_555 1_555
H16 C15 1_555 1_555
C16 C15 1_555 1_555
H17 C16 1_555 1_555
C17 C16 1_555 1_555
C18 C17 1_555 1_555
H18 C18 1_555 1_555
C19 C14 1_555 1_555
C20 C19 1_555 1_555
C21 N2 1_555 1_555
C22 C21 1_555 1_555
H19 C22 1_555 1_555
H20 C22 1_555 1_555
C23 C22 1_555 1_555
H21 C23 1_555 1_555
H22 C23 1_555 1_555
C24 C23 1_555 1_555
H23 C24 1_555 1_555
H24 C24 1_555 1_555
C25 C24 1_555 1_555
H25 C25 1_555 1_555
H26 C25 1_555 1_555
C26 C20 1_555 1_555
H27 C26 1_555 1_555
H28 C26 1_555 1_555
C5 C6 1_555 1_555
C7 C8 1_555 1_555
C12 C13 1_555 1_555
C18 C19 1_555 1_555
C20 C21 1_555 1_555
C25 C26 1_555 1_555

#END
