
#######################################################################
#
#                 Cambridge Crystallographic Data Centre
#                                CCDC 
#
#######################################################################
#
# If this CIF has been generated from an entry in the Cambridge 
# Structural Database, then it will include bibliographic, chemical, 
# crystal, experimental, refinement or atomic coordinate data resulting 
# from the CCDC's data processing and validation procedures.
#
#######################################################################

data_PIHCUH
_chemical_formula_moiety         'C14 H15 N1 O2'
_chemical_name_systematic        7-oxo-N-phenylcyclohept-3-ene-1-carboxamide
_symmetry_cell_setting           monoclinic
_symmetry_space_group_name_H-M   'P c'
_symmetry_Int_Tables_number      7
_space_group_name_Hall           'P -2yc'
loop_
_symmetry_equiv_pos_site_id
_symmetry_equiv_pos_as_xyz
1 x,y,z
2 x,-y,1/2+z
_cell_length_a                   12.7406(14)
_cell_length_b                   15.8808(17)
_cell_length_c                   11.9348(14)
_cell_angle_alpha                90
_cell_angle_beta                 99.478(2)
_cell_angle_gamma                90
_cell_volume                     2381.81
_exptl_crystal_colour            colorless
_exptl_crystal_description       Prism
_cell_formula_units_Z            8
loop_
_atom_site_label
_atom_site_type_symbol
_atom_site_fract_x
_atom_site_fract_y
_atom_site_fract_z
O1 O 0.79709(17) 0.12918(13) 0.3947(2)
O2 O 0.95336(11) 0.27501(9) 0.42432(11)
N1 N 0.92983(13) 0.26242(10) 0.23234(13)
H1 H 0.8776(14) 0.2630(16) 0.1707(14)
C1 C 0.73633(18) 0.18150(16) 0.3480(2)
C2 C 0.6208(2) 0.1588(2) 0.3084(3)
H2 H 0.6171 0.1206 0.2422
H3 H 0.5954 0.1267 0.3698
C3 C 0.5455(2) 0.2302(2) 0.2755(3)
H4 H 0.5012 0.2333 0.2033
C4 C 0.5448(3) 0.2958(4) 0.3638(4)
H5 H 0.4770 0.3098 0.3818
C5 C 0.6247(3) 0.3364(4) 0.4195(3)
H6 H 0.6074 0.3745 0.4750
C6 C 0.74081(19) 0.33250(18) 0.4100(2)
H7 H 0.7813 0.3186 0.4859
H8 H 0.7635 0.3894 0.3899
C7 C 0.77307(16) 0.26924(13) 0.32339(16)
H9 H 0.7397 0.2862 0.2449
C8 C 0.89391(15) 0.26900(11) 0.33200(15)
C9 C 1.03697(15) 0.26225(11) 0.21293(15)
C10 C 1.12526(16) 0.26957(13) 0.29786(16)
H10 H 1.1169 0.2726 0.3754
C11 C 1.22621(17) 0.27239(15) 0.26750(18)
H11 H 1.2867 0.2784 0.3252
C12 C 1.24033(17) 0.26657(14) 0.15518(19)
H12 H 1.3097 0.2688 0.1358
C13 C 1.15245(18) 0.25744(14) 0.07200(17)
H13 H 1.1612 0.2521 -0.0052
C14 C 1.05115(16) 0.25597(13) 0.10023(16)
H14 H 0.9909 0.2506 0.0420
O3 O 0.6991(2) 0.85340(14) 0.5634(2)
O4 O 0.79614(13) 0.68295(12) 0.51963(14)
N2 N 0.61802(13) 0.65675(11) 0.50517(14)
H15 H 0.5565(12) 0.6783(15) 0.474(2)
C15 C 0.6764(2) 0.85184(15) 0.4622(2)
C16 C 0.6475(3) 0.93058(18) 0.3993(3)
H16 H 0.6674 0.9842 0.4312
C17 C 0.5916(3) 0.9223(2) 0.2945(4)
H17 H 0.5567 0.9765 0.2706
H18 H 0.5351 0.8797 0.2959
C18 C 0.6699(4) 0.8924(2) 0.1969(3)
H19 H 0.6736 0.9279 0.1336
C19 C 0.7230(2) 0.8241(2) 0.2071(2)
H20 H 0.7447 0.8036 0.1396
C20 C 0.75583(18) 0.77179(14) 0.31166(19)
H21 H 0.8245 0.7936 0.3523
H22 H 0.7680 0.7133 0.2880
C21 C 0.67544(16) 0.76991(12) 0.39505(17)
H23 H 0.6024 0.7603 0.3516
C22 C 0.70346(16) 0.69880(13) 0.47948(16)
C23 C 0.61975(16) 0.58833(13) 0.58107(16)
C24 C 0.70967(19) 0.54025(16) 0.6177(2)
H24 H 0.7743 0.5523 0.5911
C25 C 0.7050(2) 0.47471(17) 0.6930(3)
H25 H 0.7668 0.4419 0.7180
C26 C 0.6122(2) 0.4566(2) 0.7321(3)
H26 H 0.6093 0.4116 0.7840
C27 C 0.5235(2) 0.5045(3) 0.6950(4)
H27 H 0.4591 0.4924 0.7222
C28 C 0.52584(19) 0.5694(2) 0.6196(3)
H28 H 0.4633 0.6012 0.5940
O5 O 0.16931(12) 0.16027(10) 0.60771(13)
O6 O 0.03949(13) 0.19378(9) 0.81272(11)
N3 N -0.02492(13) 0.27935(9) 0.66328(12)
H29 H -0.0456(19) 0.2753(14) 0.5892(9)
C29 C 0.08689(15) 0.12415(12) 0.56984(16)
C30 C 0.07963(17) 0.06833(14) 0.46745(17)
H30 H 0.1412 0.0791 0.4285
H31 H 0.0139 0.0816 0.4137
C31 C 0.07846(18) -0.02619(14) 0.50200(19)
H32 H 0.0953 -0.0610 0.4385
H33 H 0.1350 -0.0359 0.5683
C32 C -0.02570(19) -0.05437(13) 0.53122(19)
H34 H -0.0620 -0.0986 0.4872
C33 C -0.0712(2) -0.02241(13) 0.6136(2)
H35 H -0.1383 -0.0444 0.6241
C34 C -0.02287(17) 0.04673(11) 0.69175(17)
H36 H 0.0478 0.0281 0.7313
H37 H -0.0685 0.0568 0.7500
C35 C -0.00977(14) 0.13042(11) 0.62872(14)
H38 H -0.0746 0.1403 0.5705
C36 C 0.00439(14) 0.20390(11) 0.71191(15)
C37 C -0.01757(14) 0.35966(11) 0.71524(14)
C38 C 0.00123(17) 0.37035(12) 0.83271(16)
H39 H 0.0087 0.3228 0.8817
C39 C 0.00887(19) 0.45120(13) 0.87752(17)
H40 H 0.0231 0.4585 0.9576
C40 C -0.00372(17) 0.52126(12) 0.80813(18)
H41 H 0.0011 0.5762 0.8400
C41 C -0.02340(17) 0.51027(12) 0.69169(18)
H42 H -0.0321 0.5580 0.6431
C42 C -0.03056(15) 0.42975(11) 0.64519(16)
H43 H -0.0444 0.4228 0.5651
O7 O 0.45183(15) 0.72250(15) 0.19944(17)
O8 O 0.41118(13) 0.74023(11) 0.44996(13)
N4 N 0.30174(15) 0.83232(12) 0.34068(17)
H44 H 0.2529(18) 0.8417(18) 0.2795(16)
C43 C 0.36376(18) 0.69149(15) 0.18543(19)
C44 C 0.3173(2) 0.6549(2) 0.0722(2)
H45 H 0.3726 0.6200 0.0454
H46 H 0.3004 0.7018 0.0176
C45 C 0.2178(2) 0.6013(2) 0.0684(2)
H47 H 0.1594 0.6376 0.0858
H48 H 0.1965 0.5798 -0.0100
C46 C 0.2297(2) 0.52731(18) 0.1493(3)
H49 H 0.2092 0.4739 0.1172
C47 C 0.26572(19) 0.52873(16) 0.2606(2)
H50 H 0.2654 0.4758 0.2977
C48 C 0.30621(19) 0.60008(15) 0.33541(19)
H51 H 0.3818 0.5889 0.3665
H52 H 0.2668 0.6008 0.4003
C49 C 0.29867(16) 0.68808(14) 0.28189(18)
H53 H 0.2226 0.7012 0.2513
C50 C 0.34313(16) 0.75484(13) 0.36702(17)
C51 C 0.33429(17) 0.90967(15) 0.3901(2)
C52 C 0.3842(3) 0.9179(2) 0.5025(3)
H54 H 0.3981 0.8697 0.5497
C53 C 0.4133(3) 0.9967(2) 0.5443(4)
H55 H 0.4479 1.0025 0.6208
C54 C 0.3930(3) 1.0681(2) 0.4767(5)
H56 H 0.4124 1.1223 0.5069
C55 C 0.3444(3) 1.05914(19) 0.3660(5)
H57 H 0.3317 1.1074 0.3186
C56 C 0.3144(2) 0.98150(17) 0.3233(3)
H58 H 0.2794 0.9765 0.2469
loop_
_geom_bond_atom_site_label_1
_geom_bond_atom_site_label_2
_geom_bond_site_symmetry_1
_geom_bond_site_symmetry_2
O1 C1 1_555 1_555
O2 C8 1_555 1_555
N1 H1 1_555 1_555
C1 C2 1_555 1_555
C2 H2 1_555 1_555
H3 C2 1_555 1_555
C3 C2 1_555 1_555
H4 C3 1_555 1_555
C4 C3 1_555 1_555
H5 C4 1_555 1_555
C5 C4 1_555 1_555
H6 C5 1_555 1_555
C6 C5 1_555 1_555
H7 C6 1_555 1_555
H8 C6 1_555 1_555
C7 C1 1_555 1_555
H9 C7 1_555 1_555
C8 N1 1_555 1_555
C9 N1 1_555 1_555
C10 C9 1_555 1_555
H10 C10 1_555 1_555
C11 C10 1_555 1_555
H11 C11 1_555 1_555
C12 C11 1_555 1_555
H12 C12 1_555 1_555
C13 C12 1_555 1_555
H13 C13 1_555 1_555
C14 C9 1_555 1_555
H14 C14 1_555 1_555
O3 C15 1_555 1_555
O4 C22 1_555 1_555
N2 H15 1_555 1_555
C15 C16 1_555 1_555
C16 H16 1_555 1_555
C17 C16 1_555 1_555
H17 C17 1_555 1_555
H18 C17 1_555 1_555
C18 C17 1_555 1_555
H19 C18 1_555 1_555
C19 C18 1_555 1_555
H20 C19 1_555 1_555
C20 C19 1_555 1_555
H21 C20 1_555 1_555
H22 C20 1_555 1_555
C21 C15 1_555 1_555
H23 C21 1_555 1_555
C22 N2 1_555 1_555
C23 N2 1_555 1_555
C24 C23 1_555 1_555
H24 C24 1_555 1_555
C25 C24 1_555 1_555
H25 C25 1_555 1_555
C26 C25 1_555 1_555
H26 C26 1_555 1_555
C27 C26 1_555 1_555
H27 C27 1_555 1_555
C28 C23 1_555 1_555
H28 C28 1_555 1_555
O5 C29 1_555 1_555
O6 C36 1_555 1_555
N3 H29 1_555 1_555
C29 C30 1_555 1_555
C30 H30 1_555 1_555
H31 C30 1_555 1_555
C31 C30 1_555 1_555
H32 C31 1_555 1_555
H33 C31 1_555 1_555
C32 C31 1_555 1_555
H34 C32 1_555 1_555
C33 C32 1_555 1_555
H35 C33 1_555 1_555
C34 C33 1_555 1_555
H36 C34 1_555 1_555
H37 C34 1_555 1_555
C35 C29 1_555 1_555
H38 C35 1_555 1_555
C36 N3 1_555 1_555
C37 N3 1_555 1_555
C38 C37 1_555 1_555
H39 C38 1_555 1_555
C39 C38 1_555 1_555
H40 C39 1_555 1_555
C40 C39 1_555 1_555
H41 C40 1_555 1_555
C41 C40 1_555 1_555
H42 C41 1_555 1_555
C42 C37 1_555 1_555
H43 C42 1_555 1_555
O7 C43 1_555 1_555
O8 C50 1_555 1_555
N4 H44 1_555 1_555
C43 C44 1_555 1_555
C44 H45 1_555 1_555
H46 C44 1_555 1_555
C45 C44 1_555 1_555
H47 C45 1_555 1_555
H48 C45 1_555 1_555
C46 C45 1_555 1_555
H49 C46 1_555 1_555
C47 C46 1_555 1_555
H50 C47 1_555 1_555
C48 C47 1_555 1_555
H51 C48 1_555 1_555
H52 C48 1_555 1_555
C49 C43 1_555 1_555
H53 C49 1_555 1_555
C50 N4 1_555 1_555
C51 N4 1_555 1_555
C52 C51 1_555 1_555
H54 C52 1_555 1_555
C53 C52 1_555 1_555
H55 C53 1_555 1_555
C54 C53 1_555 1_555
H56 C54 1_555 1_555
C55 C54 1_555 1_555
H57 C55 1_555 1_555
C56 C51 1_555 1_555
H58 C56 1_555 1_555
C6 C7 1_555 1_555
C7 C8 1_555 1_555
C13 C14 1_555 1_555
C20 C21 1_555 1_555
C21 C22 1_555 1_555
C27 C28 1_555 1_555
C34 C35 1_555 1_555
C35 C36 1_555 1_555
C41 C42 1_555 1_555
C48 C49 1_555 1_555
C49 C50 1_555 1_555
C55 C56 1_555 1_555

#END
