
#######################################################################
#
#                 Cambridge Crystallographic Data Centre
#                                CCDC 
#
#######################################################################
#
# If this CIF has been generated from an entry in the Cambridge 
# Structural Database, then it will include bibliographic, chemical, 
# crystal, experimental, refinement or atomic coordinate data resulting 
# from the CCDC's data processing and validation procedures.
#
#######################################################################

data_PIHNOM
_chemical_formula_moiety         'C32 H27 N1 O5 S1'
_chemical_name_systematic        
'2-methyl-5-{[(4-methylphenyl)sulfonyl](phenyl)amino}-5-oxo-1-phenylpenta-1,3-dien-3-yl benzoate'
_symmetry_cell_setting           triclinic
_symmetry_space_group_name_H-M   'P -1'
_symmetry_Int_Tables_number      2
_space_group_name_Hall           '-P 1'
loop_
_symmetry_equiv_pos_site_id
_symmetry_equiv_pos_as_xyz
1 x,y,z
2 -x,-y,-z
_cell_length_a                   10.2760(12)
_cell_length_b                   12.5669(14)
_cell_length_c                   13.0463(13)
_cell_angle_alpha                66.455(10)
_cell_angle_beta                 73.203(9)
_cell_angle_gamma                66.317(11)
_cell_volume                     1397.76
_exptl_crystal_colour            colorless
_exptl_crystal_description       block
_cell_formula_units_Z            2
loop_
_atom_site_label
_atom_site_type_symbol
_atom_site_fract_x
_atom_site_fract_y
_atom_site_fract_z
S1 S 0.41491(7) 0.43773(5) 0.27318(5)
O1 O 0.31071(16) 0.16052(13) 0.71154(13)
O2 O 0.4095(2) 0.31397(16) 0.51582(15)
O3 O 0.3881(2) 0.46081(15) 0.16394(14)
O4 O 0.55924(18) 0.38948(15) 0.29516(17)
N1 N 0.3332(2) 0.33342(16) 0.36033(16)
O5 O 0.5376(2) 0.03481(18) 0.71964(18)
C1 C 0.1422(3) -0.1287(2) 0.88035(19)
C2 C 0.2994(2) 0.10647(19) 0.64134(19)
C3 C 0.2595(2) -0.00469(19) 0.69907(19)
C4 C 0.1949(2) -0.0258(2) 0.8069(2)
H1 H 0.181755 0.032181 0.839494
C5 C 0.3234(2) 0.5699(2) 0.3125(2)
C6 C 0.3562(2) 0.2752(2) 0.4736(2)
C7 C 0.4417(3) 0.1169(2) 0.7454(2)
C8 C 0.4438(3) 0.1818(2) 0.8172(2)
C9 C 0.3152(2) 0.1637(2) 0.52974(19)
H2 H 0.298988 0.130454 0.484263
C10 C 0.3792(2) 0.5950(2) 0.3806(2)
H3 H 0.465384 0.541376 0.406623
C11 C 0.3070(3) 0.7002(2) 0.4104(2)
H4 H 0.344721 0.716893 0.456943
C12 C 0.2841(3) -0.0844(2) 0.6313(2)
H5 H 0.235966 -0.036741 0.566231
H6 H 0.246861 -0.150623 0.676835
H7 H 0.385360 -0.117145 0.607040
C13 C 0.1946(3) 0.6496(2) 0.2721(2)
H8 H 0.156833 0.632894 0.225659
C14 C 0.0004(3) -0.1043(3) 0.9356(2)
H9 H -0.059250 -0.023216 0.923525
C15 C 0.2284(3) -0.2498(2) 0.9020(2)
H10 H 0.323749 -0.268972 0.867189
C16 C 0.2100(3) 0.3332(2) 0.3284(2)
C17 C 0.1792(3) 0.7811(2) 0.3717(2)
C18 C 0.1740(4) -0.3440(2) 0.9758(2)
H11 H 0.232702 -0.425583 0.990260
C19 C 0.3445(3) 0.2945(3) 0.8178(2)
H12 H 0.272542 0.331536 0.772761
C20 C 0.1252(3) 0.7544(2) 0.3033(2)
H13 H 0.039183 0.808432 0.277287
C21 C 0.0332(4) -0.3151(3) 1.0267(3)
H14 H -0.003699 -0.377531 1.075421
C22 C 0.3514(4) 0.3525(3) 0.8852(3)
H15 H 0.284132 0.428750 0.885425
C23 C 0.0745(3) 0.3929(3) 0.3735(3)
H16 H 0.062820 0.433342 0.423383
C24 C -0.0529(4) -0.1962(3) 1.0066(3)
H17 H -0.148251 -0.177548 1.041332
C25 C 0.5509(4) 0.1287(3) 0.8828(3)
H18 H 0.619939 0.053429 0.881557
C26 C 0.4568(5) 0.2984(4) 0.9517(3)
H19 H 0.460922 0.337450 0.997496
C27 C 0.2310(5) 0.2718(3) 0.2559(3)
H20 H 0.323081 0.230783 0.226485
C28 C 0.1031(4) 0.8975(3) 0.4023(3)
H21 H 0.040425 0.881205 0.473163
H22 H 0.047576 0.958944 0.344380
H23 H 0.172780 0.926439 0.408823
C29 C 0.5559(5) 0.1872(4) 0.9506(3)
H24 H 0.627463 0.150386 0.995997
C30 C 0.1097(11) 0.2728(7) 0.2276(6)
H25 H 0.120804 0.232330 0.177938
C31 C -0.0453(5) 0.3926(5) 0.3442(5)
H26 H -0.138023 0.432699 0.373501
C32 C -0.0222(11) 0.3311(8) 0.2705(7)
H27 H -0.101066 0.330057 0.250048
loop_
_geom_bond_atom_site_label_1
_geom_bond_atom_site_label_2
_geom_bond_site_symmetry_1
_geom_bond_site_symmetry_2
S1 O3 1_555 1_555
O1 C2 1_555 1_555
O2 C6 1_555 1_555
O4 S1 1_555 1_555
N1 S1 1_555 1_555
O5 C7 1_555 1_555
C1 C4 1_555 1_555
C2 C3 1_555 1_555
C3 C4 1_555 1_555
C4 H1 1_555 1_555
C5 S1 1_555 1_555
C6 N1 1_555 1_555
C7 O1 1_555 1_555
C8 C7 1_555 1_555
C9 C2 1_555 1_555
H2 C9 1_555 1_555
C10 C5 1_555 1_555
H3 C10 1_555 1_555
C11 C10 1_555 1_555
H4 C11 1_555 1_555
C12 C3 1_555 1_555
H5 C12 1_555 1_555
H6 C12 1_555 1_555
H7 C12 1_555 1_555
C13 C5 1_555 1_555
H8 C13 1_555 1_555
C14 C1 1_555 1_555
H9 C14 1_555 1_555
C15 C1 1_555 1_555
H10 C15 1_555 1_555
C16 N1 1_555 1_555
C17 C11 1_555 1_555
C18 C15 1_555 1_555
H11 C18 1_555 1_555
C19 C8 1_555 1_555
H12 C19 1_555 1_555
C20 C13 1_555 1_555
H13 C20 1_555 1_555
C21 C18 1_555 1_555
H14 C21 1_555 1_555
C22 C19 1_555 1_555
H15 C22 1_555 1_555
C23 C16 1_555 1_555
H16 C23 1_555 1_555
C24 C14 1_555 1_555
H17 C24 1_555 1_555
C25 C8 1_555 1_555
H18 C25 1_555 1_555
C26 C22 1_555 1_555
H19 C26 1_555 1_555
C27 C16 1_555 1_555
H20 C27 1_555 1_555
C28 C17 1_555 1_555
H21 C28 1_555 1_555
H22 C28 1_555 1_555
H23 C28 1_555 1_555
C29 C25 1_555 1_555
H24 C29 1_555 1_555
C30 C27 1_555 1_555
H25 C30 1_555 1_555
C31 C23 1_555 1_555
H26 C31 1_555 1_555
C32 C30 1_555 1_555
H27 C32 1_555 1_555
C6 C9 1_555 1_555
C17 C20 1_555 1_555
C21 C24 1_555 1_555
C26 C29 1_555 1_555
C31 C32 1_555 1_555

#END
