
#######################################################################
#
#                 Cambridge Crystallographic Data Centre
#                                CCDC 
#
#######################################################################
#
# If this CIF has been generated from an entry in the Cambridge 
# Structural Database, then it will include bibliographic, chemical, 
# crystal, experimental, refinement or atomic coordinate data resulting 
# from the CCDC's data processing and validation procedures.
#
#######################################################################

data_PIHVOT
_chemical_formula_moiety         'C22 H19 N4 O3 1+,Br1 1-'
_chemical_name_systematic        
'2-(1-(3-((2,3-Dihydroxybenzoyl)amino)benzyl)-1H-pyrazol-3-yl)pyridinium bromide'
_symmetry_cell_setting           monoclinic
_symmetry_space_group_name_H-M   'P 21/c'
_symmetry_Int_Tables_number      14
_space_group_name_Hall           '-P 2ybc'
loop_
_symmetry_equiv_pos_site_id
_symmetry_equiv_pos_as_xyz
1 x,y,z
2 -x,1/2+y,1/2-z
3 -x,-y,-z
4 x,1/2-y,1/2+z
_cell_length_a                   4.807(3)
_cell_length_b                   18.377(13)
_cell_length_c                   22.149(15)
_cell_angle_alpha                90
_cell_angle_beta                 91.68(3)
_cell_angle_gamma                90
_cell_volume                     1955.76
_exptl_crystal_colour            colorless
_exptl_crystal_description       Needle
_cell_formula_units_Z            4
loop_
_atom_site_label
_atom_site_type_symbol
_atom_site_fract_x
_atom_site_fract_y
_atom_site_fract_z
Br1 Br 0.17541(17) 0.93401(4) 0.15361(4)
N1 N 0.1687(14) 0.1647(4) -0.0578(3)
H1 H 0.0808 0.1268 -0.0735
C1 C 0.1065(16) 0.1864(4) -0.0011(4)
C2 C 0.2410(16) 0.2475(4) 0.0217(4)
H2 H 0.2020 0.2640 0.0612
C3 C 0.4313(17) 0.2849(5) -0.0122(4)
H3 H 0.5180 0.3278 0.0033
C4 C 0.4934(16) 0.2593(5) -0.0686(4)
H4 H 0.6282 0.2835 -0.0918
C5 C 0.3611(17) 0.1991(5) -0.0911(4)
H5 H 0.4036 0.1812 -0.1300
N2 N -0.3689(13) 0.1228(4) 0.1033(3)
N3 N -0.1908(13) 0.1735(4) 0.0842(3)
C6 C -0.0973(15) 0.1453(4) 0.0324(4)
C7 C -0.2214(19) 0.0785(5) 0.0193(4)
H6 H -0.1925 0.0483 -0.0148
C8 C -0.3953(18) 0.0656(4) 0.0665(4)
H7 H -0.5108 0.0242 0.0718
C9 C -0.5229(16) 0.1357(5) 0.1594(3)
H8 H -0.6482 0.0940 0.1665
H9 H -0.6390 0.1799 0.1544
C10 C -0.3244(15) 0.1452(4) 0.2138(3)
C11 C -0.1565(15) 0.0882(4) 0.2332(4)
H10 H -0.1693 0.0425 0.2133
C12 C 0.0274(16) 0.0971(4) 0.2807(4)
C13 C 0.0385(16) 0.1633(4) 0.3123(4)
H11 H 0.1594 0.1688 0.3467
C14 C -0.1300(16) 0.2208(4) 0.2925(4)
H12 H -0.1186 0.2664 0.3127
C15 C -0.3147(16) 0.2120(4) 0.2435(4)
H13 H -0.4321 0.2509 0.2304
N4 N 0.2113(12) 0.0392(4) 0.2957(3)
H14 H 0.2218 0.0044 0.2685
C16 C 0.3731(16) 0.0300(5) 0.3462(4)
O1 O 0.3488(12) 0.0710(3) 0.3911(3)
C17 C 0.5770(16) -0.0304(4) 0.3479(3)
C18 C 0.7464(16) -0.0391(4) 0.4011(4)
C19 C 0.9498(16) -0.0930(4) 0.4048(4)
C20 C 0.9900(16) -0.1393(4) 0.3569(4)
H15 H 1.1255 -0.1768 0.3600
C21 C 0.8297(16) -0.1305(4) 0.3037(4)
H16 H 0.8611 -0.1615 0.2702
C22 C 0.6238(16) -0.0769(4) 0.2992(4)
H17 H 0.5152 -0.0720 0.2629
O2 O 0.7198(11) 0.0035(3) 0.4508(2)
H18 H 0.5935 0.0344 0.4442
O3 O 1.1088(12) -0.1009(3) 0.4569(2)
H19 H 1.2686 -0.0840 0.4516
loop_
_geom_bond_atom_site_label_1
_geom_bond_atom_site_label_2
_geom_bond_site_symmetry_1
_geom_bond_site_symmetry_2
N1 H1 1_555 1_555
C1 N1 1_555 1_555
C2 C1 1_555 1_555
H2 C2 1_555 1_555
C3 C2 1_555 1_555
H3 C3 1_555 1_555
C4 C3 1_555 1_555
H4 C4 1_555 1_555
C5 N1 1_555 1_555
H5 C5 1_555 1_555
N2 N3 1_555 1_555
N3 C6 1_555 1_555
C6 C1 1_555 1_555
C7 C6 1_555 1_555
H6 C7 1_555 1_555
C8 N2 1_555 1_555
H7 C8 1_555 1_555
C9 N2 1_555 1_555
H8 C9 1_555 1_555
H9 C9 1_555 1_555
C10 C9 1_555 1_555
C11 C10 1_555 1_555
H10 C11 1_555 1_555
C12 C11 1_555 1_555
C13 C12 1_555 1_555
H11 C13 1_555 1_555
C14 C13 1_555 1_555
H12 C14 1_555 1_555
C15 C10 1_555 1_555
H13 C15 1_555 1_555
N4 C12 1_555 1_555
H14 N4 1_555 1_555
C16 N4 1_555 1_555
O1 C16 1_555 1_555
C17 C16 1_555 1_555
C18 C17 1_555 1_555
C19 C18 1_555 1_555
C20 C19 1_555 1_555
H15 C20 1_555 1_555
C21 C20 1_555 1_555
H16 C21 1_555 1_555
C22 C17 1_555 1_555
H17 C22 1_555 1_555
O2 C18 1_555 1_555
H18 O2 1_555 1_555
O3 C19 1_555 1_555
H19 O3 1_555 1_555
C4 C5 1_555 1_555
C7 C8 1_555 1_555
C14 C15 1_555 1_555
C21 C22 1_555 1_555

#END
