
#######################################################################
#
#                 Cambridge Crystallographic Data Centre
#                                CCDC 
#
#######################################################################
#
# If this CIF has been generated from an entry in the Cambridge 
# Structural Database, then it will include bibliographic, chemical, 
# crystal, experimental, refinement or atomic coordinate data resulting 
# from the CCDC's data processing and validation procedures.
#
#######################################################################

data_PIJDUI
_chemical_formula_moiety         'C18 H17 Br1 N2 O1'
_chemical_name_systematic        
(S)-N-(1-(4-Bromophenyl)-1-(3-indolyl)ethyl)acetamide
_symmetry_cell_setting           orthorhombic
_symmetry_space_group_name_H-M   'P 21 21 21'
_symmetry_Int_Tables_number      19
_space_group_name_Hall           'P 2ac 2ab'
loop_
_symmetry_equiv_pos_site_id
_symmetry_equiv_pos_as_xyz
1 x,y,z
2 1/2+x,1/2-y,-z
3 -x,1/2+y,1/2-z
4 1/2-x,-y,1/2+z
_cell_length_a                   7.2241(14)
_cell_length_b                   14.4741(19)
_cell_length_c                   15.7488(12)
_cell_angle_alpha                90
_cell_angle_beta                 90
_cell_angle_gamma                90
_cell_volume                     1646.73
_exptl_crystal_colour            colorless
_exptl_crystal_description       prism
_chemical_melting_point          '220-222 deg.C'
_cell_formula_units_Z            4
loop_
_atom_site_label
_atom_site_type_symbol
_atom_site_fract_x
_atom_site_fract_y
_atom_site_fract_z
Br1 Br -0.07180(2) 0.387271(13) 0.023337(12)
C1 C 0.1096(2) 0.38128(12) 0.11089(10)
C2 C 0.2605(2) 0.32456(12) 0.10292(11)
H1 H 0.2731 0.2858 0.0546
C3 C 0.3949(2) 0.32408(11) 0.16601(10)
H2 H 0.4998 0.2850 0.1604
C4 C 0.37748(19) 0.38021(11) 0.23729(10)
C5 C 0.2203(2) 0.43430(12) 0.24507(11)
H3 H 0.2041 0.4711 0.2945
C6 C 0.0858(2) 0.43575(11) 0.18206(10)
H4 H -0.0209 0.4736 0.1878
C7 C 0.5349(2) 0.39054(12) 0.30225(10)
C8 C 0.6755(2) 0.31176(12) 0.29720(12)
H5 H 0.7677 0.3191 0.3424
H6 H 0.7374 0.3132 0.2418
H7 H 0.6115 0.2525 0.3042
C9 C 0.6330(2) 0.48190(11) 0.28526(11)
C10 C 0.6022(2) 0.54098(11) 0.21888(11)
H8 H 0.5090 0.5328 0.1770
C11 C 0.7847(2) 0.52038(11) 0.33256(11)
C12 C 0.8838(2) 0.49577(12) 0.40640(11)
H9 H 0.8520 0.4416 0.4372
C13 C 1.0276(2) 0.55153(13) 0.43329(12)
H10 H 1.0929 0.5356 0.4836
C14 C 1.0797(3) 0.63076(12) 0.38842(12)
H11 H 1.1815 0.6666 0.4076
C15 C 0.9846(3) 0.65726(12) 0.31663(13)
H12 H 1.0189 0.7112 0.2860
C16 C 0.8372(2) 0.60280(13) 0.29044(11)
C17 C 0.3674(2) 0.33063(13) 0.43162(12)
O1 O 0.32390(19) 0.25634(8) 0.39862(8)
C18 C 0.3208(3) 0.35085(13) 0.52312(12)
H13 H 0.1902 0.3364 0.5335
H14 H 0.3432 0.4164 0.5350
H15 H 0.3987 0.3129 0.5603
N1 N 0.4607(2) 0.39728(10) 0.38984(8)
H16 H 0.481(2) 0.4496(8) 0.4171(10)
N2 N 0.7232(2) 0.61314(11) 0.22097(9)
H17 H 0.724(2) 0.6613(9) 0.1864(10)
loop_
_geom_bond_atom_site_label_1
_geom_bond_atom_site_label_2
_geom_bond_site_symmetry_1
_geom_bond_site_symmetry_2
Br1 C1 1_555 1_555
C1 C2 1_555 1_555
C2 H1 1_555 1_555
C3 C2 1_555 1_555
H2 C3 1_555 1_555
C4 C3 1_555 1_555
C5 C4 1_555 1_555
H3 C5 1_555 1_555
C6 C1 1_555 1_555
H4 C6 1_555 1_555
C7 C4 1_555 1_555
C8 C7 1_555 1_555
H5 C8 1_555 1_555
H6 C8 1_555 1_555
H7 C8 1_555 1_555
C9 C7 1_555 1_555
C10 C9 1_555 1_555
H8 C10 1_555 1_555
C11 C9 1_555 1_555
C12 C11 1_555 1_555
H9 C12 1_555 1_555
C13 C12 1_555 1_555
H10 C13 1_555 1_555
C14 C13 1_555 1_555
H11 C14 1_555 1_555
C15 C14 1_555 1_555
H12 C15 1_555 1_555
C16 C11 1_555 1_555
C17 O1 1_555 1_555
C18 C17 1_555 1_555
H13 C18 1_555 1_555
H14 C18 1_555 1_555
H15 C18 1_555 1_555
N1 C7 1_555 1_555
H16 N1 1_555 1_555
N2 C10 1_555 1_555
H17 N2 1_555 1_555
C5 C6 1_555 1_555
C15 C16 1_555 1_555
C16 N2 1_555 1_555
C17 N1 1_555 1_555

#END
