
#######################################################################
#
#                 Cambridge Crystallographic Data Centre
#                                CCDC 
#
#######################################################################
#
# If this CIF has been generated from an entry in the Cambridge 
# Structural Database, then it will include bibliographic, chemical, 
# crystal, experimental, refinement or atomic coordinate data resulting 
# from the CCDC's data processing and validation procedures.
#
#######################################################################

data_PIJMAZ
_chemical_formula_moiety         'C15 H15 N1 O2'
_chemical_name_systematic        
'methyl (7,8-dihydropyrido[1,2-a]indol-9(6H)-ylidene)acetate'
_symmetry_cell_setting           monoclinic
_symmetry_space_group_name_H-M   'P 21/c'
_symmetry_Int_Tables_number      14
_space_group_name_Hall           '-P 2ybc'
loop_
_symmetry_equiv_pos_site_id
_symmetry_equiv_pos_as_xyz
1 x,y,z
2 -x,1/2+y,1/2-z
3 -x,-y,-z
4 x,1/2-y,1/2+z
_cell_length_a                   5.797(3)
_cell_length_b                   8.787(4)
_cell_length_c                   24.255(11)
_cell_angle_alpha                90
_cell_angle_beta                 90.072(6)
_cell_angle_gamma                90
_cell_volume                     1235.51
_exptl_crystal_colour            colorless
_exptl_crystal_description       prism
_cell_formula_units_Z            4
loop_
_atom_site_label
_atom_site_type_symbol
_atom_site_fract_x
_atom_site_fract_y
_atom_site_fract_z
C1 C 0.6393(5) 0.3465(3) 0.24360(12)
C2 C 0.5829(6) 0.3278(4) 0.18741(12)
H1 H 0.452415 0.268989 0.176990
C3 C 0.7177(6) 0.3950(4) 0.14796(13)
H2 H 0.680914 0.381119 0.110119
C4 C 0.9091(6) 0.4841(4) 0.16250(13)
H3 H 0.998647 0.529764 0.134198
C5 C 0.9705(6) 0.5069(4) 0.21652(13)
H4 H 1.099891 0.567718 0.226213
C6 C 0.8340(5) 0.4367(3) 0.25669(12)
C7 C 1.038(4) 0.509(2) 0.3432(11)
H5 H 1.091223 0.601590 0.323605
H6 H 1.169317 0.437862 0.346185
C8 C 0.9525(18) 0.5518(14) 0.4006(3)
H7 H 0.827434 0.628173 0.397773
H8 H 1.080163 0.596517 0.422369
C9 C 0.8623(19) 0.4070(15) 0.4291(5)
H9 H 0.988599 0.331699 0.432307
H10 H 0.808903 0.432389 0.466800
C10 C 0.6622(5) 0.3381(4) 0.39601(12)
C11 C 0.6805(5) 0.3530(3) 0.33614(11)
C12 C 0.5462(5) 0.2940(4) 0.29410(12)
H11 H 0.415371 0.229943 0.298323
C13 C 0.5035(5) 0.2448(4) 0.41771(12)
H12 H 0.412300 0.187663 0.392562
C14 C 0.4578(6) 0.2227(4) 0.47611(13)
C15 C 0.1975(6) 0.1018(5) 0.53801(14)
H13 H 0.171783 -0.007906 0.541995
H14 H 0.053550 0.156369 0.545549
H15 H 0.316438 0.134672 0.564174
N1 N 0.8547(4) 0.4397(3) 0.31306(10)
O1 O 0.5654(6) 0.2669(4) 0.51471(10)
O2 O 0.2723(4) 0.1344(3) 0.48250(9)
C16? C 1.015(4) 0.541(2) 0.3452(11)
H16? H 1.170931 0.540354 0.328413
H17? H 0.957103 0.646917 0.345337
C17? C 1.0259(19) 0.4802(17) 0.4028(4)
H18? H 1.116595 0.551587 0.425826
H19? H 1.108794 0.381725 0.402372
C18? C 0.794(2) 0.4570(14) 0.4293(5)
H20? H 0.706940 0.554015 0.429715
H21? H 0.813271 0.421879 0.467767
loop_
_geom_bond_atom_site_label_1
_geom_bond_atom_site_label_2
_geom_bond_site_symmetry_1
_geom_bond_site_symmetry_2
C1 C2 1_555 1_555
C2 H1 1_555 1_555
C3 C2 1_555 1_555
H2 C3 1_555 1_555
C4 C3 1_555 1_555
H3 C4 1_555 1_555
C5 C4 1_555 1_555
H4 C5 1_555 1_555
C6 C1 1_555 1_555
C7 H5 1_555 1_555
H6 C7 1_555 1_555
C8 C7 1_555 1_555
H7 C8 1_555 1_555
H8 C8 1_555 1_555
C9 C8 1_555 1_555
H9 C9 1_555 1_555
H10 C9 1_555 1_555
C10 C9 1_555 1_555
C11 C10 1_555 1_555
C12 C1 1_555 1_555
H11 C12 1_555 1_555
C13 C10 1_555 1_555
H12 C13 1_555 1_555
C14 C13 1_555 1_555
C15 H13 1_555 1_555
H14 C15 1_555 1_555
H15 C15 1_555 1_555
N1 C6 1_555 1_555
O1 C14 1_555 1_555
O2 C14 1_555 1_555
C5 C6 1_555 1_555
C7 N1 1_555 1_555
C11 C12 1_555 1_555
C11 N1 1_555 1_555
C15 O2 1_555 1_555

#END
