
#######################################################################
#
#                 Cambridge Crystallographic Data Centre
#                                CCDC 
#
#######################################################################
#
# If this CIF has been generated from an entry in the Cambridge 
# Structural Database, then it will include bibliographic, chemical, 
# crystal, experimental, refinement or atomic coordinate data resulting 
# from the CCDC's data processing and validation procedures.
#
#######################################################################

data_PIKKAV
_chemical_formula_moiety         'C21 H28 O5 S1,H2 O1'
_chemical_name_systematic        
'9,9-Dimethoxy-1-methyl-4-isopropenyl-7-endo-phenylsulfonylbicyclo(4.3.0)nonan-2-one monohydrate'
_symmetry_cell_setting           orthorhombic
_symmetry_space_group_name_H-M   'P 21 21 21'
_symmetry_Int_Tables_number      19
_space_group_name_Hall           'P 2ac 2ab'
loop_
_symmetry_equiv_pos_site_id
_symmetry_equiv_pos_as_xyz
1 x,y,z
2 1/2+x,1/2-y,-z
3 -x,1/2+y,1/2-z
4 1/2-x,-y,1/2+z
_cell_length_a                   9.475(1)
_cell_length_b                   11.807(1)
_cell_length_c                   18.933(2)
_cell_angle_alpha                90
_cell_angle_beta                 90
_cell_angle_gamma                90
_cell_volume                     2118.06
_cell_formula_units_Z            4
loop_
_atom_site_label
_atom_site_type_symbol
_atom_site_fract_x
_atom_site_fract_y
_atom_site_fract_z
C1 C 0.3904(3) 1.0016(2) 0.2526(1)
C2 C 0.4041(3) 1.0927(2) 0.3106(1)
C3 C 0.2820(4) 1.1169(3) 0.3590(2)
C4 C 0.1933(3) 1.0139(2) 0.3782(1)
C5 C 0.1471(3) 0.9569(2) 0.3089(1)
C6 C 0.2761(3) 0.9105(2) 0.2702(1)
C7 C 0.2450(3) 0.8632(2) 0.1956(1)
C8 C 0.2329(4) 0.9666(3) 0.1485(2)
C9 C 0.3336(3) 1.0549(2) 0.1811(1)
C10 C 0.5332(3) 0.9434(2) 0.2430(2)
O1 O 0.5137(2) 1.1459(2) 0.3158(1)
C11 C 0.2623(4) 0.9328(3) 0.4291(1)
C12 C 0.3914(5) 0.9461(4) 0.4545(2)
C13 C 0.1744(5) 0.8331(4) 0.4515(2)
S1 S 0.0952(1) 0.7712(1) 0.1926
O2 O -0.0333(2) 0.8351(2) 0.1953(1)
O3 O 0.1171(3) 0.6848(2) 0.2449(1)
C14 C 0.1053(3) 0.7078(3) 0.1081(1)
C15 C 0.0229(5) 0.7498(3) 0.0538(2)
C16 C 0.0258(6) 0.6989(4) -0.0114(2)
C17 C 0.1116(6) 0.6060(5) -0.0215(2)
C18 C 0.1956(5) 0.5670(5) 0.0316(3)
C19 C 0.1918(4) 0.6157(4) 0.0983(2)
O4 O 0.2672(2) 1.1570(2) 0.2006(1)
C20 C 0.1933(5) 1.2159(3) 0.1472(2)
O5 O 0.4368(2) 1.0736(2) 0.1292(1)
C21 C 0.5319(4) 1.1661(3) 0.1414(2)
O6 O 0.8625(7) 0.0410(5) 0.1316(3)
loop_
_geom_bond_atom_site_label_1
_geom_bond_atom_site_label_2
_geom_bond_site_symmetry_1
_geom_bond_site_symmetry_2
C1 C2 1_555 1_555
C2 C3 1_555 1_555
C3 C4 1_555 1_555
C4 C5 1_555 1_555
C5 C6 1_555 1_555
C6 C1 1_555 1_555
C7 C6 1_555 1_555
C8 C7 1_555 1_555
C9 C1 1_555 1_555
C10 C1 1_555 1_555
O1 C2 1_555 1_555
C11 C4 1_555 1_555
C12 C11 1_555 1_555
C13 C11 1_555 1_555
S1 C7 1_555 1_555
O2 S1 1_555 1_555
O3 S1 1_555 1_555
C14 S1 1_555 1_555
C15 C14 1_555 1_555
C16 C15 1_555 1_555
C17 C16 1_555 1_555
C18 C17 1_555 1_555
C19 C14 1_555 1_555
O4 C9 1_555 1_555
C20 O4 1_555 1_555
O5 C9 1_555 1_555
C21 O5 1_555 1_555
C8 C9 1_555 1_555
C18 C19 1_555 1_555

#END
