
#######################################################################
#
#                 Cambridge Crystallographic Data Centre
#                                CCDC 
#
#######################################################################
#
# If this CIF has been generated from an entry in the Cambridge 
# Structural Database, then it will include bibliographic, chemical, 
# crystal, experimental, refinement or atomic coordinate data resulting 
# from the CCDC's data processing and validation procedures.
#
#######################################################################

data_PIKQIM
_chemical_formula_moiety         'C34 H29 N1 S1,C6 H12'
_chemical_name_systematic        
'14-hexyl-11-(thiophen-2-yl)-14H-phenanthro[4,3-b]carbazole cyclohexane solvate'
_symmetry_cell_setting           monoclinic
_symmetry_space_group_name_H-M   'P 21/c'
_symmetry_Int_Tables_number      14
_space_group_name_Hall           '-P 2ybc'
loop_
_symmetry_equiv_pos_site_id
_symmetry_equiv_pos_as_xyz
1 x,y,z
2 -x,1/2+y,1/2-z
3 -x,-y,-z
4 x,1/2-y,1/2+z
_cell_length_a                   17.536(9)
_cell_length_b                   20.006(10)
_cell_length_c                   8.615(4)
_cell_angle_alpha                90
_cell_angle_beta                 93.698(6)
_cell_angle_gamma                90
_cell_volume                     3016.07
_cell_formula_units_Z            4
_exptl_crystal_preparation       Luminescent
loop_
_atom_site_label
_atom_site_type_symbol
_atom_site_fract_x
_atom_site_fract_y
_atom_site_fract_z
S1 S 0.11965(13) 0.28528(13) -0.0083(3)
N1 N 0.4420(2) 0.3320(2) 0.4363(5)
C1 C 0.2519(3) 0.3401(3) 0.1242(6)
C2 C 0.5531(3) 0.4099(3) 0.4534(6)
H1 H 0.5783 0.3882 0.5405
C3 C 0.4621(3) 0.2868(2) 0.5655(6)
H2 H 0.4148 0.2733 0.6139
H3 H 0.4946 0.3112 0.6449
C4 C 0.4722(3) 0.4757(2) 0.2039(6)
H4 H 0.4446 0.4986 0.1215
C5 C 0.2569(3) 0.2879(3) 0.2327(6)
H5 H 0.2164 0.2563 0.2319
C6 C 0.6824(3) 0.5554(3) 0.3904(6)
C7 C 0.6624(3) 0.4905(3) 0.4351(6)
C8 C 0.5867(3) 0.4658(3) 0.3845(6)
C9 C 0.7487(3) 0.5869(3) 0.4612(7)
H6 H 0.7608 0.6312 0.4317
C10 C 0.3115(3) 0.3866(3) 0.1256(6)
H7 H 0.3096 0.4225 0.0531
C11 C 0.5041(3) 0.2243(3) 0.5187(6)
H8 H 0.5081 0.1931 0.6082
H9 H 0.4736 0.2019 0.4330
C12 C 0.3175(3) 0.2803(3) 0.3401(6)
H10 H 0.3196 0.2441 0.4117
C13 C 0.7187(3) 0.4529(3) 0.5269(6)
C14 C 0.5722(3) 0.5629(3) 0.2073(6)
H11 H 0.5458 0.5850 0.1224
C15 C 0.7184(3) 0.3819(3) 0.5354(6)
H12 H 0.6794 0.3575 0.4785
C16 C 0.7827(3) 0.4862(3) 0.6006(7)
C17 C 0.7939(3) 0.5556(3) 0.5681(7)
H13 H 0.8340 0.5794 0.6230
C18 C 0.1864(3) 0.3463(3) 0.0110(6)
C19 C 0.6297(3) 0.1757(3) 0.4315(7)
H14 H 0.5996 0.1480 0.3545
H15 H 0.6768 0.1899 0.3833
C20 C 0.5831(3) 0.2380(3) 0.4670(6)
H16 H 0.6118 0.2640 0.5493
H17 H 0.5784 0.2663 0.3725
C21 C 0.7737(3) 0.3476(3) 0.6245(7)
H18 H 0.7723 0.3002 0.6275
C22 C 0.8307(3) 0.3813(3) 0.7090(7)
H19 H 0.8663 0.3576 0.7763
C23 C 0.8358(3) 0.4505(3) 0.6952(7)
H20 H 0.8761 0.4737 0.7511
C24 C 0.7019(4) 0.0749(3) 0.5367(8)
H21 H 0.6743 0.0445 0.4636
H22 H 0.7156 0.0511 0.6340
H23 H 0.7484 0.0908 0.4913
C25 C 0.6514(4) 0.1339(3) 0.5695(8)
H24 H 0.6042 0.1171 0.6133
H25 H 0.6783 0.1623 0.6495
C26 C 0.0985(4) 0.3833(4) -0.1941(8)
H26 H 0.0757 0.4069 -0.2810
C27 C 0.3734(3) 0.3803(3) 0.2329(6)
C28 C 0.5432(3) 0.5003(2) 0.2633(6)
C29 C 0.4834(3) 0.3874(3) 0.3925(6)
C30 C 0.3764(3) 0.3280(2) 0.3405(6)
C31 C 0.4427(3) 0.4190(3) 0.2642(6)
C32 C 0.6360(3) 0.5898(3) 0.2737(6)
H27 H 0.6508 0.6332 0.2424
C33 C 0.0724(4) 0.3228(4) -0.1529(8)
H28 H 0.0287 0.3030 -0.2053
C34 C 0.1675(3) 0.4132(4) -0.0934(7)
H29 H 0.1909 0.4560 -0.0929
C35 C 0.9014(5) 0.3198(4) 0.3013(9)
H30 H 0.8527 0.3396 0.3309
H31 H 0.8987 0.2709 0.3185
C36 C 0.9786(4) 0.4220(4) 0.3699(9)
H32 H 0.9340 0.4482 0.4004
H33 H 1.0241 0.4377 0.4337
C37 C 0.9100(5) 0.3327(4) 0.1331(9)
H34 H 0.8626 0.3189 0.0729
H35 H 0.9524 0.3050 0.0979
C38 C 0.9902(4) 0.4341(4) 0.2044(9)
H36 H 1.0392 0.4139 0.1781
H37 H 0.9933 0.4828 0.1859
C39 C 0.9654(5) 0.3479(4) 0.4033(9)
H38 H 1.0127 0.3226 0.3870
H39 H 0.9537 0.3425 0.5135
C40 C 0.9259(5) 0.4050(4) 0.0996(9)
H40 H 0.8789 0.4313 0.1120
H41 H 0.9391 0.4093 -0.0100
loop_
_geom_bond_atom_site_label_1
_geom_bond_atom_site_label_2
_geom_bond_site_symmetry_1
_geom_bond_site_symmetry_2
S1 C18 1_555 1_555
N1 C3 1_555 1_555
C1 C5 1_555 1_555
C2 H1 1_555 1_555
C3 H2 1_555 1_555
H3 C3 1_555 1_555
C4 H4 1_555 1_555
C5 H5 1_555 1_555
C6 C7 1_555 1_555
C7 C8 1_555 1_555
C8 C2 1_555 1_555
C9 C6 1_555 1_555
H6 C9 1_555 1_555
C10 C1 1_555 1_555
H7 C10 1_555 1_555
C11 C3 1_555 1_555
H8 C11 1_555 1_555
H9 C11 1_555 1_555
C12 C5 1_555 1_555
H10 C12 1_555 1_555
C13 C7 1_555 1_555
C14 H11 1_555 1_555
C15 C13 1_555 1_555
H12 C15 1_555 1_555
C16 C13 1_555 1_555
C17 C9 1_555 1_555
H13 C17 1_555 1_555
C18 C1 1_555 1_555
C19 H14 1_555 1_555
H15 C19 1_555 1_555
C20 C11 1_555 1_555
H16 C20 1_555 1_555
H17 C20 1_555 1_555
C21 C15 1_555 1_555
H18 C21 1_555 1_555
C22 C21 1_555 1_555
H19 C22 1_555 1_555
C23 C16 1_555 1_555
H20 C23 1_555 1_555
C24 H21 1_555 1_555
H22 C24 1_555 1_555
H23 C24 1_555 1_555
C25 C19 1_555 1_555
H24 C25 1_555 1_555
H25 C25 1_555 1_555
C26 H26 1_555 1_555
C27 C10 1_555 1_555
C28 C4 1_555 1_555
C29 N1 1_555 1_555
C30 N1 1_555 1_555
C31 C4 1_555 1_555
C32 C6 1_555 1_555
H27 C32 1_555 1_555
C33 S1 1_555 1_555
H28 C33 1_555 1_555
C34 C18 1_555 1_555
H29 C34 1_555 1_555
C35 H30 1_555 1_555
H31 C35 1_555 1_555
C36 H32 1_555 1_555
H33 C36 1_555 1_555
C37 C35 1_555 1_555
H34 C37 1_555 1_555
H35 C37 1_555 1_555
C38 C36 1_555 1_555
H36 C38 1_555 1_555
H37 C38 1_555 1_555
C39 C35 1_555 1_555
H38 C39 1_555 1_555
H39 C39 1_555 1_555
C40 C37 1_555 1_555
H40 C40 1_555 1_555
H41 C40 1_555 1_555
C2 C29 1_555 1_555
C8 C28 1_555 1_555
C12 C30 1_555 1_555
C14 C28 1_555 1_555
C14 C32 1_555 1_555
C16 C17 1_555 1_555
C19 C20 1_555 1_555
C22 C23 1_555 1_555
C24 C25 1_555 1_555
C26 C33 1_555 1_555
C26 C34 1_555 1_555
C27 C30 1_555 1_555
C27 C31 1_555 1_555
C29 C31 1_555 1_555
C36 C39 1_555 1_555
C38 C40 1_555 1_555

#END
