
#######################################################################
#
#                 Cambridge Crystallographic Data Centre
#                                CCDC 
#
#######################################################################
#
# If this CIF has been generated from an entry in the Cambridge 
# Structural Database, then it will include bibliographic, chemical, 
# crystal, experimental, refinement or atomic coordinate data resulting 
# from the CCDC's data processing and validation procedures.
#
#######################################################################

data_PIKWEN
_chemical_formula_moiety         'C2 H12 B10 S3'
_chemical_name_systematic        
9,10,12-trisulfanyl-1,2-dicarba-closo-dodecaborane(9)
_symmetry_cell_setting           orthorhombic
_symmetry_space_group_name_H-M   'P n m a'
_symmetry_Int_Tables_number      62
_space_group_name_Hall           '-P 2ac 2n'
loop_
_symmetry_equiv_pos_site_id
_symmetry_equiv_pos_as_xyz
1 x,y,z
2 1/2-x,-y,1/2+z
3 -x,1/2+y,-z
4 1/2+x,1/2-y,1/2-z
5 -x,-y,-z
6 1/2+x,y,1/2-z
7 x,1/2-y,z
8 1/2-x,1/2+y,1/2+z
_cell_length_a                   14.146(9)
_cell_length_b                   11.768(7)
_cell_length_c                   7.447(5)
_cell_angle_alpha                90
_cell_angle_beta                 90
_cell_angle_gamma                90
_cell_volume                     1239.7
_cell_formula_units_Z            4
loop_
_atom_site_label
_atom_site_type_symbol
_atom_site_fract_x
_atom_site_fract_y
_atom_site_fract_z
B1 B 0.8127(4) 0.7500 0.3654(9)
H1 H 0.8840 0.7500 0.3063
B2 B 0.7456(3) 0.6223(3) 0.3687(6)
H2 H 0.7656 0.5350 0.3320
B3 B 0.6715(3) 0.6426(3) 0.5341(6)
H3 H 0.6420 0.5709 0.6105
B4 B 0.6965(4) 0.7500 0.6451(9)
H4 H 0.6880 0.7500 0.7919
B5 B 0.6011(3) 0.7500 0.4896(7)
B6 B 0.6369(3) 0.6771(3) 0.3010(5)
B7 B 0.7357(4) 0.7500 0.2232(8)
H5 H 0.7576 0.7500 0.0814
C1 C 0.7842(2) 0.6821(3) 0.5459(5)
H6 H 0.8272 0.6418 0.6227
S1 S 0.47401(8) 0.7500 0.55393(19)
H7 H 0.4652 0.7500 0.6817
S2 S 0.55404(6) 0.60123(7) 0.15691(13)
H8 H 0.5505 0.6384 0.0423
B2F B 0.7456(3) 0.8777(3) 0.3687(6)
H2F H 0.7656 0.9650 0.3320
B3F B 0.6715(3) 0.8574(3) 0.5341(6)
H3F H 0.6420 0.9291 0.6105
B6F B 0.6369(3) 0.8229(3) 0.3010(5)
C1F C 0.7842(2) 0.8179(3) 0.5459(5)
H6F H 0.8272 0.8582 0.6227
S2F S 0.55404(6) 0.89877(7) 0.15691(13)
H8F H 0.5505 0.8616 0.0423
loop_
_geom_bond_atom_site_label_1
_geom_bond_atom_site_label_2
_geom_bond_site_symmetry_1
_geom_bond_site_symmetry_2
B1 H1 1_555 1_555
B2 B1 1_555 1_555
H2 B2 1_555 1_555
B3 B2 1_555 1_555
H3 B3 1_555 1_555
B4 B3 1_555 1_555
H4 B4 1_555 1_555
B5 B3 1_555 1_555
B6 B2 1_555 1_555
B7 B1 1_555 1_555
H5 B7 1_555 1_555
C1 B1 1_555 1_555
H6 C1 1_555 1_555
S1 B5 1_555 1_555
H7 S1 1_555 1_555
S2 B6 1_555 1_555
H8 S2 1_555 1_555
B2F B1 1_555 1_555
H2F B2F 1_555 1_555
B3F B4 1_555 1_555
H3F B3F 1_555 1_555
B6F B5 1_555 1_555
C1F B1 1_555 1_555
H6F C1F 1_555 1_555
S2F B6F 1_555 1_555
H8F S2F 1_555 1_555
B2 B7 1_555 1_555
B2 C1 1_555 1_555
B3 B6 1_555 1_555
B3 C1 1_555 1_555
B4 B5 1_555 1_555
B4 C1 1_555 1_555
B4 C1F 1_555 1_555
B5 B6 1_555 1_555
B5 B3F 1_555 1_555
B6 B7 1_555 1_555
B6 B6F 1_555 1_555
B7 B2F 1_555 1_555
B7 B6F 1_555 1_555
C1 C1F 1_555 1_555
B2F B3F 1_555 1_555
B2F B6F 1_555 1_555
B2F C1F 1_555 1_555
B3F B6F 1_555 1_555
B3F C1F 1_555 1_555

#END
