
#######################################################################
#
#                 Cambridge Crystallographic Data Centre
#                                CCDC 
#
#######################################################################
#
# If this CIF has been generated from an entry in the Cambridge 
# Structural Database, then it will include bibliographic, chemical, 
# crystal, experimental, refinement or atomic coordinate data resulting 
# from the CCDC's data processing and validation procedures.
#
#######################################################################

data_PILPOP
_chemical_formula_moiety         
'C36 H48 N18 6+,Ba1 N6 O18 4-,2(N1 O3 1-),6(H2 O1)'
_chemical_name_systematic        
"5,12,19,26,33,40-Hexa-amino-3,10,17,24,31,38-hexamethyl-(1.~6~)(1,5)pyrimidiniophane hexakis(nitrato-O,O')-barium dinitrate hexahydrate"
_symmetry_cell_setting           rhombohedral
_symmetry_space_group_name_H-M   'R -3'
_symmetry_Int_Tables_number      148
_space_group_name_Hall           '-R 3'
loop_
_symmetry_equiv_pos_site_id
_symmetry_equiv_pos_as_xyz
1 x,y,z
2 1/3+x,2/3+y,2/3+z
3 2/3+x,1/3+y,1/3+z
4 -y,x-y,z
5 -x+y,-x,z
6 1/3-y,2/3+x-y,2/3+z
7 1/3-x+y,2/3-x,2/3+z
8 2/3-y,1/3+x-y,1/3+z
9 2/3-x+y,1/3-x,1/3+z
10 -x,-y,-z
11 2/3-x,1/3-y,1/3-z
12 1/3-x,2/3-y,2/3-z
13 y,-x+y,-z
14 x-y,x,-z
15 2/3+y,1/3-x+y,1/3-z
16 2/3+x-y,1/3+x,1/3-z
17 1/3+y,2/3-x+y,2/3-z
18 1/3+x-y,2/3+x,2/3-z
_cell_length_a                   14.265(3)
_cell_length_b                   14.265(3)
_cell_length_c                   25.206(9)
_cell_angle_alpha                90
_cell_angle_beta                 90
_cell_angle_gamma                120
_cell_volume                     4442
_cell_formula_units_Z            3
loop_
_atom_site_label
_atom_site_type_symbol
_atom_site_fract_x
_atom_site_fract_y
_atom_site_fract_z
Ba1 Ba 0.0000 0.0000 0.0000
O1 O -0.0006(3) -0.1426(3) 0.0809(1)
N1 N -0.0162(3) -0.2222(3) 0.0524(2)
O2 O -0.0439(3) -0.2246(3) 0.0048(1)
O3 O -0.0017(4) -0.2936(3) 0.0702(2)
O1I O 0.0006(3) 0.1426(3) -0.0809(1)
O1C O 0.1426(3) 0.1420(4) 0.0809(1)
O1L O -0.1426(3) -0.1420(4) -0.0809(1)
O1D O -0.1420(4) 0.0006(3) 0.0809(1)
O1M O 0.1420(4) -0.0006(3) -0.0809(1)
O2I O 0.0439(3) 0.2246(3) -0.0048(1)
O2C O 0.2246(3) 0.1807(4) 0.0048(1)
O2L O -0.2246(3) -0.1807(4) -0.0048(1)
O2D O -0.1807(4) 0.0439(3) 0.0048(1)
O2M O 0.1807(4) -0.0439(3) -0.0048(1)
N1I N 0.0162(3) 0.2222(3) -0.0524(2)
N1C N 0.2222(3) 0.2060(4) 0.0524(2)
N1L N -0.2222(3) -0.2060(4) -0.0524(2)
N1D N -0.2060(4) 0.0162(3) 0.0524(2)
N1M N 0.2060(4) -0.0162(3) -0.0524(2)
O3I O 0.0017(4) 0.2936(3) -0.0702(2)
O3C O 0.2936(3) 0.2919(5) 0.0702(2)
O3L O -0.2936(3) -0.2919(5) -0.0702(2)
O3D O -0.2919(5) 0.0017(4) 0.0702(2)
O3M O 0.2919(5) -0.0017(4) -0.0702(2)
O4 O 0.5050(6) 0.2962(4) 0.0083(3)
N2 N 0.3333 0.6666 0.0954(4)
O5 O 0.3969(7) 0.7667(6) 0.0886(5)
O5C O 0.2333(6) 0.6302(9) 0.0886(5)
O5D O 0.3698(9) 0.6031(7) 0.0886(5)
N3 N 0.1556(3) 0.3288(3) 0.1579(1)
C1 C 0.0948(4) 0.2435(4) 0.1894(2)
C2 C -0.0212(4) 0.1697(4) 0.1766(2)
N4 N 0.1345(3) 0.2219(3) 0.2317(2)
C3 C 0.2401(3) 0.2860(3) 0.2442(2)
N5 N 0.2732(4) 0.2578(4) 0.2867(2)
C4 C 0.3086(3) 0.3741(3) 0.2115(2)
C5 C 0.2624(3) 0.3933(3) 0.1690(2)
C6 C 0.1111(4) 0.3500(4) 0.1095(2)
C6O C 0.4278(6) 0.4444(4) 0.2238(2)
C4N C 0.0408(3) 0.3988(4) 0.1218(2)
N3O N 0.4935(4) 0.4889(3) 0.1754(1)
C3N C -0.0473(3) 0.3792(4) 0.0891(2)
C5N C 0.0600(3) 0.4642(4) 0.1643(2)
C1O C 0.5180(6) 0.4281(4) 0.1439(2)
C5O C 0.5358(4) 0.5957(3) 0.1643(2)
N4N N -0.1114(3) 0.4207(4) 0.1016(2)
N5N N -0.0755(4) 0.3179(6) 0.0466(2)
N3N N -0.0045(3) 0.5065(4) 0.1754(1)
C2O C 0.4758(6) 0.3121(4) 0.1567(2)
N4O N 0.5793(4) 0.4678(3) 0.1016(2)
C4O C 0.6012(4) 0.6419(3) 0.1218(2)
C1N C -0.0898(4) 0.4820(6) 0.1439(2)
C6N C 0.0167(4) 0.5722(6) 0.2238(2)
C3O C 0.6208(4) 0.5734(3) 0.0891(2)
C6C C 0.6500(4) 0.7611(6) 0.1095(2)
C2N C -0.1636(4) 0.5242(6) 0.1567(2)
C4D C 0.0655(4) 0.6914(3) 0.2115(2)
N5O N 0.6821(6) 0.6065(4) 0.0466(2)
N3C N 0.6712(3) 0.8268(4) 0.1579(1)
C3D C 0.0459(4) 0.7599(3) 0.2442(2)
C5D C 0.1309(4) 0.7376(3) 0.1690(2)
C1C C 0.7565(4) 0.8513(6) 0.1894(2)
C5C C 0.6067(3) 0.8691(4) 0.1690(2)
N4D N 0.0874(4) 0.8655(3) 0.2317(2)
N5D N -0.0154(6) 0.7268(4) 0.2867(2)
N3D N 0.1732(4) 0.8444(3) 0.1579(1)
C2C C 0.8303(4) 0.8091(6) 0.1766(2)
N4C N 0.7781(3) 0.9126(4) 0.2317(2)
C4C C 0.6259(3) 0.9345(4) 0.2115(2)
C1D C 0.1487(6) 0.9052(4) 0.1894(2)
C6D C 0.2389(6) 0.8889(4) 0.1095(2)
C3C C 0.7140(3) 0.9541(4) 0.2442(2)
C6J C 0.5556(4) 0.9833(4) 0.2238(2)
C2D C 0.1909(6) 1.0212(4) 0.1766(2)
C4J C 0.3581(3) 0.9592(3) 0.1218(2)
N5C N 0.7422(4) 1.0154(6) 0.2867(2)
N3J N 0.5111(3) 1.0045(3) 0.1754(1)
C3J C 0.4266(3) 1.0473(3) 0.0891(2)
C5J C 0.4043(3) 0.9400(3) 0.1643(2)
C1J C 0.5719(4) 1.0898(4) 0.1439(2)
N4J N 0.5322(3) 1.1114(3) 0.1016(2)
N5J N 0.3935(4) 1.0755(4) 0.0466(2)
C2J C 0.6879(4) 1.1636(4) 0.1567(2)
O6? O 0.3787(25) 0.6366(29) 0.1275(19)
loop_
_geom_bond_atom_site_label_1
_geom_bond_atom_site_label_2
_geom_bond_site_symmetry_1
_geom_bond_site_symmetry_2
Ba1 O1 1_555 1_555
O1 N1 1_555 1_555
N1 O2 1_555 1_555
O2 Ba1 1_555 1_555
O3 N1 1_555 1_555
N2 O5 1_555 1_555
N3 C1 1_555 1_555
C1 C2 1_555 1_555
N4 C1 1_555 1_555
C3 N4 1_555 1_555
N5 C3 1_555 1_555
C4 C3 1_555 1_555
C5 N3 1_555 1_555
C6 N3 1_555 1_555
O1I Ba1 1_555 1_555
O1C Ba1 1_555 1_555
O1L Ba1 1_555 1_555
O1D Ba1 1_555 1_555
O1M Ba1 1_555 1_555
O2I Ba1 1_555 1_555
O2C Ba1 1_555 1_555
O2L Ba1 1_555 1_555
O2D Ba1 1_555 1_555
O2M Ba1 1_555 1_555
N1I O1I 1_555 1_555
N1C O1C 1_555 1_555
N1L O1L 1_555 1_555
N1D O1D 1_555 1_555
N1M O1M 1_555 1_555
O3I N1I 1_555 1_555
O3C N1C 1_555 1_555
O3L N1L 1_555 1_555
O3D N1D 1_555 1_555
O3M N1M 1_555 1_555
O5C N2 1_555 1_555
O5D N2 1_555 1_555
C6O C4 1_555 1_555
C4N C6 1_555 1_555
N3O C6O 1_555 1_555
C3N C4N 1_555 1_555
C5N C4N 1_555 1_555
C1O N3O 1_555 1_555
C5O N3O 1_555 1_555
N4N C3N 1_555 1_555
N5N C3N 1_555 1_555
N3N C5N 1_555 1_555
C2O C1O 1_555 1_555
N4O C1O 1_555 1_555
C4O C5O 1_555 1_555
C1N N4N 1_555 1_555
C6N N3N 1_555 1_555
C3O N4O 1_555 1_555
C6C C4O 1_555 1_555
C2N C1N 1_555 1_555
C4D C6N 1_555 1_555
N5O C3O 1_555 1_555
N3C C6C 1_555 1_555
C3D C4D 1_555 1_555
C5D C4D 1_555 1_555
C1C N3C 1_555 1_555
C5C N3C 1_555 1_555
N4D C3D 1_555 1_555
N5D C3D 1_555 1_555
N3D C5D 1_555 1_555
C2C C1C 1_555 1_555
N4C C1C 1_555 1_555
C4C C5C 1_555 1_555
C1D N4D 1_555 1_555
C6D N3D 1_555 1_555
C3C N4C 1_555 1_555
C6J C4C 1_555 1_555
C2D C1D 1_555 1_555
C4J C6D 1_555 1_555
N5C C3C 1_555 1_555
N3J C6J 1_555 1_555
C3J C4J 1_555 1_555
C5J C4J 1_555 1_555
C1J N3J 1_555 1_555
N4J C3J 1_555 1_555
N5J C3J 1_555 1_555
C2J C1J 1_555 1_555
C4 C5 1_555 1_555
O2I N1I 1_555 1_555
O2C N1C 1_555 1_555
O2L N1L 1_555 1_555
O2D N1D 1_555 1_555
O2M N1M 1_555 1_555
N3N C1N 1_555 1_555
C4O C3O 1_555 1_555
N3D C1D 1_555 1_555
C4C C3C 1_555 1_555
N3J C5J 1_555 1_555
C1J N4J 1_555 1_555

#END
