
#######################################################################
#
#                 Cambridge Crystallographic Data Centre
#                                CCDC 
#
#######################################################################
#
# If this CIF has been generated from an entry in the Cambridge 
# Structural Database, then it will include bibliographic, chemical, 
# crystal, experimental, refinement or atomic coordinate data resulting 
# from the CCDC's data processing and validation procedures.
#
#######################################################################

data_PIMBEU
_chemical_compound_source        'Clerodendrum trichotomum roots'
_chemical_formula_moiety         'C21 H26 O6'
_chemical_name_systematic        
7,11-Dihydroxy-9-(hydroxymethyl)-5-methoxy-4,4,11b-trimethyl-1,3,4,8,9,11b-hexahydrophenanthro[3,2-b]furan-6(2H)-one
_chemical_properties_biological  'cytotoxic to cancer cells'
_symmetry_cell_setting           orthorhombic
_symmetry_space_group_name_H-M   'P 21 21 21'
_symmetry_Int_Tables_number      19
_space_group_name_Hall           'P 2ac 2ab'
loop_
_symmetry_equiv_pos_site_id
_symmetry_equiv_pos_as_xyz
1 x,y,z
2 1/2-x,-y,1/2+z
3 -x,1/2+y,1/2-z
4 1/2+x,1/2-y,-z
_cell_length_a                   9.8299(4)
_cell_length_b                   13.4161(6)
_cell_length_c                   14.3329(7)
_cell_angle_alpha                90
_cell_angle_beta                 90
_cell_angle_gamma                90
_cell_volume                     1890.21
_exptl_crystal_colour            brown
_exptl_crystal_description       block
_cell_formula_units_Z            4
_exptl_crystal_recrystallization_method 'petroleum ether, ethyl acetate'
loop_
_atom_site_label
_atom_site_type_symbol
_atom_site_fract_x
_atom_site_fract_y
_atom_site_fract_z
O1 O 0.4312(2) 0.86574(10) 0.33772(10)
C1 C 0.3827(6) 0.8176(3) 0.4940(2)
H1 H 0.4070 0.7727 0.5444
H2 H 0.4004 0.8852 0.5146
O2 O 0.44024(19) 0.55249(11) 0.20267(12)
H3 H 0.4315 0.5245 0.1522
O3 O 0.3962(2) 0.96160(11) 0.16560(11)
H4 H 0.4238 0.9865 0.2143
O4 O 0.4131(2) 0.53853(12) 0.02941(12)
O5 O 0.40694(18) 0.60806(14) -0.14490(11)
C2 C 0.4172(3) 0.8172(2) -0.18629(16)
C3 C 0.4207(3) 0.9308(2) -0.18673(19)
H5 H 0.4521 0.9531 -0.2474
H6 H 0.3287 0.9554 -0.1784
C4 C 0.5101(5) 0.9763(3) -0.1127(2)
H7 H 0.6027 0.9785 -0.1360
H8 H 0.4810 1.0445 -0.1024
C5 C 0.5097(3) 0.9227(2) -0.02115(18)
H9 H 0.5058 0.9719 0.0283
H10 H 0.5954 0.8874 -0.0149
C6 C 0.3929(2) 0.84746(17) -0.00618(14)
C7 C 0.4013(2) 0.77397(19) -0.08692(14)
C8 C 0.3984(2) 0.67492(18) -0.07191(15)
C9 C 0.4069(2) 0.63112(17) 0.02069(16)
C10 C 0.4139(2) 0.69567(15) 0.10188(14)
C11 C 0.4075(2) 0.80039(15) 0.09093(14)
C12 C 0.4098(2) 0.86030(14) 0.17008(14)
C13 C 0.4248(2) 0.81383(15) 0.25596(14)
C14 C 0.4352(2) 0.71248(15) 0.26826(14)
C15 C 0.4292(2) 0.65255(15) 0.19080(14)
C16 C 0.4666(3) 0.79519(19) 0.41147(16)
H11 H 0.5624 0.8050 0.4280
C17 C 0.4505(3) 0.69100(17) 0.37055(15)
H12 H 0.5301 0.6503 0.3827
H13 H 0.3706 0.6578 0.3953
C18 C 0.2493(3) 0.8950(2) -0.00719(19)
H14 H 0.1820 0.8439 0.0014
H15 H 0.2345 0.9275 -0.0660
H16 H 0.2423 0.9429 0.0423
C19 C 0.2990(3) 0.7837(3) -0.2495(2)
H17 H 0.2952 0.7123 -0.2510
H18 H 0.3132 0.8087 -0.3115
H19 H 0.2149 0.8094 -0.2253
C20 C 0.5522(3) 0.7791(3) -0.2276(2)
H20 H 0.5521 0.7075 -0.2279
H21 H 0.6266 0.8028 -0.1904
H22 H 0.5618 0.8032 -0.2903
C21 C 0.2905(3) 0.5453(3) -0.1563(2)
H23 H 0.3041 0.5020 -0.2088
H24 H 0.2113 0.5857 -0.1667
H25 H 0.2778 0.5060 -0.1010
O6 O 0.2415(5) 0.8068(3) 0.4731(3)
H26 H 0.1964 0.8195 0.5197
loop_
_geom_bond_atom_site_label_1
_geom_bond_atom_site_label_2
_geom_bond_site_symmetry_1
_geom_bond_site_symmetry_2
O1 C13 1_555 1_555
C1 H1 1_555 1_555
H2 C1 1_555 1_555
O2 H3 1_555 1_555
O3 H4 1_555 1_555
O4 C9 1_555 1_555
O5 C8 1_555 1_555
C2 C3 1_555 1_555
C3 H5 1_555 1_555
H6 C3 1_555 1_555
C4 C3 1_555 1_555
H7 C4 1_555 1_555
H8 C4 1_555 1_555
C5 C4 1_555 1_555
H9 C5 1_555 1_555
H10 C5 1_555 1_555
C6 C5 1_555 1_555
C7 C2 1_555 1_555
C8 C7 1_555 1_555
C9 C8 1_555 1_555
C10 C9 1_555 1_555
C11 C6 1_555 1_555
C12 O3 1_555 1_555
C13 C12 1_555 1_555
C14 C13 1_555 1_555
C15 O2 1_555 1_555
C16 O1 1_555 1_555
H11 C16 1_555 1_555
C17 C14 1_555 1_555
H12 C17 1_555 1_555
H13 C17 1_555 1_555
C18 C6 1_555 1_555
H14 C18 1_555 1_555
H15 C18 1_555 1_555
H16 C18 1_555 1_555
C19 C2 1_555 1_555
H17 C19 1_555 1_555
H18 C19 1_555 1_555
H19 C19 1_555 1_555
C20 C2 1_555 1_555
H20 C20 1_555 1_555
H21 C20 1_555 1_555
H22 C20 1_555 1_555
C21 O5 1_555 1_555
H23 C21 1_555 1_555
H24 C21 1_555 1_555
H25 C21 1_555 1_555
O6 C1 1_555 1_555
H26 O6 1_555 1_555
C1 C16 1_555 1_555
C6 C7 1_555 1_555
C10 C11 1_555 1_555
C10 C15 1_555 1_555
C11 C12 1_555 1_555
C14 C15 1_555 1_555
C16 C17 1_555 1_555

#END
