
#######################################################################
#
#                 Cambridge Crystallographic Data Centre
#                                CCDC 
#
#######################################################################
#
# If this CIF has been generated from an entry in the Cambridge 
# Structural Database, then it will include bibliographic, chemical, 
# crystal, experimental, refinement or atomic coordinate data resulting 
# from the CCDC's data processing and validation procedures.
#
#######################################################################

data_PIMMAC
_chemical_formula_moiety         'C17 H20 Cl1 N1 O3 S1'
_chemical_name_systematic        
'methyl (R)-4-(o-chlorobenzoyl)-1-thia-4-azaspiro[4.5]decane-3-carboxylate'
_symmetry_cell_setting           orthorhombic
_symmetry_space_group_name_H-M   'P 21 21 21'
_symmetry_Int_Tables_number      19
_space_group_name_Hall           'P 2ac 2ab'
loop_
_symmetry_equiv_pos_site_id
_symmetry_equiv_pos_as_xyz
1 x,y,z
2 1/2+x,1/2-y,-z
3 -x,1/2+y,1/2-z
4 1/2-x,-y,1/2+z
_cell_length_a                   6.1984(2)
_cell_length_b                   14.3940(5)
_cell_length_c                   18.9651(6)
_cell_angle_alpha                90
_cell_angle_beta                 90
_cell_angle_gamma                90
_cell_volume                     1692.06
_exptl_crystal_colour            colorless
_exptl_crystal_description       block
_cell_formula_units_Z            4
loop_
_atom_site_label
_atom_site_type_symbol
_atom_site_fract_x
_atom_site_fract_y
_atom_site_fract_z
C1 C 0.6229(4) 0.37442(17) 0.41523(11)
N1 N 0.6930(3) 0.57346(11) 0.33722(8)
O1 O 0.9396(3) 0.55611(11) 0.42518(8)
S1 S 0.48528(9) 0.70955(4) 0.27335(3)
C2 C 0.6169(6) 0.27880(19) 0.42294(14)
H1 H 0.5021 0.2505 0.4461
Cl1 Cl 0.41335(12) 0.44100(5) 0.44965(4)
O2 O 0.5836(3) 0.52343(12) 0.15470(8)
C3 C 0.7821(8) 0.22632(19) 0.39603(16)
H2 H 0.7798 0.1621 0.4015
O3 O 0.8978(3) 0.54158(13) 0.21032(9)
C4 C 0.9509(7) 0.2675(2) 0.36108(15)
H3 H 1.0610 0.2312 0.3425
C5 C 0.9573(5) 0.36366(17) 0.35344(12)
H4 H 1.0723 0.3914 0.3300
C6 C 0.7927(4) 0.41821(14) 0.38075(10)
C7 C 0.8155(3) 0.52242(14) 0.38206(10)
C8 C 0.5693(3) 0.53352(13) 0.27917(10)
H5 H 0.5267 0.4698 0.2908
C9 C 0.3708(3) 0.59423(16) 0.27211(13)
H6 H 0.2723 0.5850 0.3112
H7 H 0.2955 0.5822 0.2282
C10 C 0.7059(3) 0.53394(13) 0.21172(10)
C11 C 0.6937(5) 0.5281(2) 0.08768(12)
H8 H 0.7656 0.5869 0.0835
H9 H 0.5907 0.5217 0.0502
H10 H 0.7978 0.4789 0.0848
C12 C 0.6773(3) 0.67701(13) 0.34371(10)
C13 C 0.8920(3) 0.72515(14) 0.33014(11)
H11 H 0.9421 0.7098 0.2831
H12 H 0.9982 0.7028 0.3636
C14 C 0.8705(5) 0.83019(16) 0.33698(13)
H13 H 1.0101 0.8590 0.3296
H14 H 0.7727 0.8532 0.3011
C15 C 0.7856(5) 0.85626(17) 0.40944(14)
H15 H 0.7670 0.9231 0.4120
H16 H 0.8901 0.8383 0.4450
C16 C 0.5715(5) 0.80891(17) 0.42468(14)
H17 H 0.4625 0.8332 0.3929
H18 H 0.5273 0.8233 0.4725
C17 C 0.5851(4) 0.70318(16) 0.41594(11)
H19 H 0.6761 0.6775 0.4527
H20 H 0.4422 0.6765 0.4210
loop_
_geom_bond_atom_site_label_1
_geom_bond_atom_site_label_2
_geom_bond_site_symmetry_1
_geom_bond_site_symmetry_2
C1 C2 1_555 1_555
N1 C7 1_555 1_555
O1 C7 1_555 1_555
S1 C9 1_555 1_555
C2 H1 1_555 1_555
Cl1 C1 1_555 1_555
O2 C10 1_555 1_555
C3 C2 1_555 1_555
H2 C3 1_555 1_555
O3 C10 1_555 1_555
C4 C3 1_555 1_555
H3 C4 1_555 1_555
C5 C4 1_555 1_555
H4 C5 1_555 1_555
C6 C1 1_555 1_555
C7 C6 1_555 1_555
C8 N1 1_555 1_555
H5 C8 1_555 1_555
C9 C8 1_555 1_555
H6 C9 1_555 1_555
H7 C9 1_555 1_555
C10 C8 1_555 1_555
C11 O2 1_555 1_555
H8 C11 1_555 1_555
H9 C11 1_555 1_555
H10 C11 1_555 1_555
C12 N1 1_555 1_555
C13 C12 1_555 1_555
H11 C13 1_555 1_555
H12 C13 1_555 1_555
C14 C13 1_555 1_555
H13 C14 1_555 1_555
H14 C14 1_555 1_555
C15 C14 1_555 1_555
H15 C15 1_555 1_555
H16 C15 1_555 1_555
C16 C15 1_555 1_555
H17 C16 1_555 1_555
H18 C16 1_555 1_555
C17 C12 1_555 1_555
H19 C17 1_555 1_555
H20 C17 1_555 1_555
S1 C12 1_555 1_555
C5 C6 1_555 1_555
C16 C17 1_555 1_555

#END
