
#######################################################################
#
#                 Cambridge Crystallographic Data Centre
#                                CCDC 
#
#######################################################################
#
# If this CIF has been generated from an entry in the Cambridge 
# Structural Database, then it will include bibliographic, chemical, 
# crystal, experimental, refinement or atomic coordinate data resulting 
# from the CCDC's data processing and validation procedures.
#
#######################################################################

data_PIMSEL
_chemical_name_common            11-perfluorobutyl-dibenz[a,c]phenazine
_chemical_formula_moiety         'C24 H11 F9 N2'
_chemical_name_systematic        11-(Nonafluorobutyl)dibenzo[a,c]phenazine
_symmetry_cell_setting           orthorhombic
_symmetry_space_group_name_H-M   'P 21 21 21'
_symmetry_Int_Tables_number      19
_space_group_name_Hall           'P 2ac 2ab'
loop_
_symmetry_equiv_pos_site_id
_symmetry_equiv_pos_as_xyz
1 x,y,z
2 1/2-x,-y,1/2+z
3 1/2+x,1/2-y,-z
4 -x,1/2+y,1/2-z
_cell_length_a                   5.1175(7)
_cell_length_b                   13.0267(17)
_cell_length_c                   29.290(4)
_cell_angle_alpha                90
_cell_angle_beta                 90
_cell_angle_gamma                90
_cell_volume                     1952.59
_exptl_crystal_colour            yellow
_exptl_crystal_description       Needle
_cell_formula_units_Z            4
loop_
_atom_site_label
_atom_site_type_symbol
_atom_site_fract_x
_atom_site_fract_y
_atom_site_fract_z
F1 F 1.0607(4) 0.08139(12) 0.64570(6)
F2 F 0.9579(4) 0.18164(13) 0.70283(6)
F3 F 1.3813(3) 0.29725(13) 0.68875(6)
F4 F 1.5235(4) 0.19362(12) 0.63593(5)
F5 F 1.5042(4) 0.02432(14) 0.68723(6)
F6 F 1.4372(4) 0.13205(15) 0.74277(6)
F7 F 0.9960(5) 0.03117(14) 0.76549(7)
F8 F 1.3255(5) -0.06789(17) 0.75987(7)
F9 F 1.0323(5) -0.06773(15) 0.70818(7)
N1 N 0.6279(6) 0.4101(2) 0.52525(9)
N2 N 0.6359(7) 0.4831(2) 0.61615(9)
C1 C 0.7968(7) 0.3715(3) 0.55669(13)
C2 C 1.1328(6) 0.2496(2) 0.57523(12)
H1 H 1.2438 0.1966 0.5665
C3 C 0.0999(7) 0.6004(3) 0.52082(12)
C4 C 0.2852(7) 0.5996(3) 0.59944(13)
C5 C 0.4696(8) 0.5205(3) 0.58532(13)
C6 C 0.1017(7) 0.6382(3) 0.56841(13)
C7 C -0.0827(7) 0.5998(3) 0.44459(13)
H2 H -0.2043 0.6246 0.4238
C8 C 1.1364(7) 0.2850(3) 0.62098(11)
C9 C 0.9704(7) 0.2918(3) 0.54414(11)
H3 H 0.9725 0.2682 0.5142
C10 C 0.2790(7) 0.5252(3) 0.50696(13)
C11 C 0.0959(8) 0.5260(3) 0.43125(13)
H4 H 0.0947 0.5011 0.4015
C12 C 0.2740(7) 0.4900(2) 0.46205(14)
H5 H 0.3948 0.4408 0.4528
C13 C 0.9760(8) 0.3632(3) 0.63372(12)
H6 H 0.9815 0.3875 0.6636
C14 C -0.0746(7) 0.7131(3) 0.58392(14)
H7 H -0.1968 0.7404 0.5638
C15 C 1.3016(7) 0.2322(3) 0.65543(12)
C16 C 0.8010(7) 0.4079(3) 0.60216(13)
C17 C 0.4659(7) 0.4835(3) 0.53927(12)
C18 C 0.2876(7) 0.6352(3) 0.64463(13)
H8 H 0.4102 0.6096 0.6651
C19 C 1.3185(8) 0.0743(3) 0.71095(12)
C20 C -0.0696(7) 0.7469(2) 0.62846(14)
H9 H -0.1882 0.7964 0.6381
C21 C -0.0808(7) 0.6365(2) 0.48869(14)
H10 H -0.2017 0.6862 0.4973
C22 C 1.1614(7) 0.1423(3) 0.67900(12)
C23 C 1.1653(8) -0.0068(3) 0.73605(13)
C24 C 0.1108(8) 0.7075(3) 0.65887(13)
H11 H 0.1124 0.7301 0.6890
loop_
_geom_bond_atom_site_label_1
_geom_bond_atom_site_label_2
_geom_bond_site_symmetry_1
_geom_bond_site_symmetry_2
F1 C22 1_555 1_555
F2 C22 1_555 1_555
F3 C15 1_555 1_555
F4 C15 1_555 1_555
F5 C19 1_555 1_555
F6 C19 1_555 1_555
F7 C23 1_555 1_555
F8 C23 1_555 1_555
F9 C23 1_555 1_555
N1 C1 1_555 1_555
N2 C5 1_555 1_555
C1 C9 1_555 1_555
C2 H1 1_555 1_555
C3 C6 1_555 1_555
C4 C5 1_555 1_555
C5 C17 1_555 1_555
C6 C4 1_555 1_555
C7 H2 1_555 1_555
C8 C2 1_555 1_555
C9 C2 1_555 1_555
H3 C9 1_555 1_555
C10 C3 1_555 1_555
C11 C7 1_555 1_555
H4 C11 1_555 1_555
C12 C10 1_555 1_555
H5 C12 1_555 1_555
C13 C8 1_555 1_555
H6 C13 1_555 1_555
C14 C6 1_555 1_555
H7 C14 1_555 1_555
C15 C8 1_555 1_555
C16 N2 1_555 1_555
C17 N1 1_555 1_555
C18 C4 1_555 1_555
H8 C18 1_555 1_555
C19 C22 1_555 1_555
C20 C14 1_555 1_555
H9 C20 1_555 1_555
C21 C3 1_555 1_555
H10 C21 1_555 1_555
C22 C15 1_555 1_555
C23 C19 1_555 1_555
C24 C18 1_555 1_555
H11 C24 1_555 1_555
C1 C16 1_555 1_555
C7 C21 1_555 1_555
C10 C17 1_555 1_555
C11 C12 1_555 1_555
C13 C16 1_555 1_555
C20 C24 1_555 1_555

#END
