
#######################################################################
#
#                 Cambridge Crystallographic Data Centre
#                                CCDC 
#
#######################################################################
#
# If this CIF has been generated from an entry in the Cambridge 
# Structural Database, then it will include bibliographic, chemical, 
# crystal, experimental, refinement or atomic coordinate data resulting 
# from the CCDC's data processing and validation procedures.
#
#######################################################################

data_PIMXER
_chemical_formula_moiety         'C17 H13 Cl1 N2 O5'
_chemical_name_systematic        
'ethyl 1-(4-chlorophenyl)-6-methyl-2,5,7-trioxo-2,5,6,7-tetrahydro-1H-pyrrolo[3,4-b]pyridine-4-carboxylate'
_symmetry_cell_setting           triclinic
_symmetry_space_group_name_H-M   'P -1'
_symmetry_Int_Tables_number      2
_space_group_name_Hall           '-P 1'
loop_
_symmetry_equiv_pos_site_id
_symmetry_equiv_pos_as_xyz
1 x,y,z
2 -x,-y,-z
_cell_length_a                   10.1006(18)
_cell_length_b                   12.951(3)
_cell_length_c                   13.321(3)
_cell_angle_alpha                74.487(4)
_cell_angle_beta                 80.489(6)
_cell_angle_gamma                89.446(6)
_cell_volume                     1654.9
_exptl_crystal_colour            yellow
_exptl_crystal_description       block
_cell_formula_units_Z            4
loop_
_atom_site_label
_atom_site_type_symbol
_atom_site_fract_x
_atom_site_fract_y
_atom_site_fract_z
C1 C 0.4772(4) 0.1655(3) 0.2773(3)
H1 H 0.4751 0.2138 0.3181
C2 C 0.5631(4) 0.1841(4) 0.1817(3)
H2 H 0.6182 0.2458 0.1568
C3 C 0.5664(4) 0.1108(4) 0.1238(3)
C4 C 0.4868(5) 0.0185(4) 0.1600(3)
H3 H 0.4912 -0.0312 0.1206
C5 C 0.4004(4) 0.0000(3) 0.2551(3)
H4 H 0.3466 -0.0625 0.2808
C6 C 0.3949(4) 0.0747(3) 0.3113(3)
C7 C 0.1940(4) 0.1186(3) 0.4196(3)
C8 C 0.1449(4) 0.2032(3) 0.3325(3)
C9 C -0.0632(5) 0.3075(4) 0.3246(4)
H5 H -0.0350 0.3790 0.3216
H6 H -0.1541 0.2934 0.3612
H7 H -0.0580 0.3005 0.2541
C10 C -0.0059(4) 0.1791(3) 0.4882(4)
C11 C 0.1083(4) 0.1092(3) 0.5117(3)
C12 C 0.3232(4) -0.0287(3) 0.4984(3)
C13 C 0.2353(4) -0.0326(3) 0.5969(3)
H8 H 0.2504 -0.0832 0.6577
C14 C 0.1314(4) 0.0343(3) 0.6050(3)
C15 C 0.0544(5) 0.0386(4) 0.7101(4)
C16 C -0.1080(8) -0.0533(6) 0.8649(5)
H9 H -0.1315 0.0178 0.8712
H10 H -0.1891 -0.0970 0.8749
C17 C -0.0226(12) -0.1004(8) 0.9319(7)
H11 H 0.0018 -0.1687 0.9205
H12 H -0.0662 -0.1103 1.0037
H13 H 0.0568 -0.0553 0.9185
Cl1 Cl 0.67056(16) 0.13670(15) 0.00162(11)
N1 N 0.3024(3) 0.0570(2) 0.4103(2)
N2 N 0.0232(3) 0.2319(3) 0.3800(3)
O1 O 0.1948(3) 0.2378(2) 0.2410(2)
O2 O -0.1073(3) 0.1880(3) 0.5463(3)
O3 O 0.4124(3) -0.0910(2) 0.4876(2)
O4 O 0.0549(4) 0.1145(3) 0.7426(3)
O5 O -0.0139(5) -0.0498(3) 0.7590(3)
C18 C 0.7594(5) 0.5044(3) 0.7450(3)
H14 H 0.7088 0.5623 0.7176
C19 C 0.7918(6) 0.4882(4) 0.8442(4)
H15 H 0.7643 0.5358 0.8842
C20 C 0.8654(5) 0.4007(4) 0.8844(3)
C21 C 0.9104(4) 0.3314(4) 0.8253(3)
H16 H 0.9613 0.2735 0.8524
C22 C 0.8793(4) 0.3484(3) 0.7250(3)
H17 H 0.9097 0.3026 0.6837
C23 C 0.8029(4) 0.4337(3) 0.6872(3)
C24 C 0.5772(4) 0.3036(3) 0.6517(3)
C25 C 0.6637(3) 0.3903(3) 0.5693(3)
C26 C 0.6205(4) 0.4048(3) 0.4753(3)
C27 C 0.4972(4) 0.3363(3) 0.4951(3)
C28 C 0.3684(4) 0.2033(4) 0.6518(4)
H18 H 0.3926 0.1338 0.6435
H19 H 0.2902 0.2254 0.6203
H20 H 0.3493 0.1999 0.7256
C29 C 0.8270(4) 0.5357(3) 0.4992(3)
C30 C 0.7856(4) 0.5439(3) 0.3990(3)
H21 H 0.8298 0.5951 0.3403
C31 C 0.6874(4) 0.4827(3) 0.3846(3)
C32 C 0.6586(5) 0.4870(4) 0.2767(3)
C33 C 0.6309(10) 0.5994(6) 0.1099(4)
H22 H 0.6815 0.5480 0.0792
H23 H 0.5362 0.5861 0.1108
C34 C 0.6685(12) 0.7008(7) 0.0500(6)
H24 H 0.6286 0.7515 0.0858
H25 H 0.6389 0.7128 -0.0170
H26 H 0.7646 0.7096 0.0388
Cl2 Cl 0.9003(2) 0.37910(13) 1.01144(10)
N3 N 0.7651(3) 0.4501(2) 0.5840(2)
N4 N 0.4783(3) 0.2796(3) 0.6004(3)
O6 O 0.5878(3) 0.2636(2) 0.7422(2)
O7 O 0.4203(3) 0.3324(2) 0.4355(2)
O8 O 0.9105(3) 0.5947(2) 0.5145(2)
O9 O 0.6443(5) 0.4085(3) 0.2488(3)
O10 O 0.6552(5) 0.5853(3) 0.2189(3)
loop_
_geom_bond_atom_site_label_1
_geom_bond_atom_site_label_2
_geom_bond_site_symmetry_1
_geom_bond_site_symmetry_2
C1 H1 1_555 1_555
C2 C1 1_555 1_555
H2 C2 1_555 1_555
C3 C2 1_555 1_555
C4 C3 1_555 1_555
H3 C4 1_555 1_555
C5 C4 1_555 1_555
H4 C5 1_555 1_555
C6 C1 1_555 1_555
C7 C8 1_555 1_555
C8 N2 1_555 1_555
C9 H5 1_555 1_555
H6 C9 1_555 1_555
H7 C9 1_555 1_555
C10 C11 1_555 1_555
C11 C7 1_555 1_555
C12 C13 1_555 1_555
C13 H8 1_555 1_555
C14 C11 1_555 1_555
C15 C14 1_555 1_555
C16 H9 1_555 1_555
H10 C16 1_555 1_555
C17 C16 1_555 1_555
H11 C17 1_555 1_555
H12 C17 1_555 1_555
H13 C17 1_555 1_555
Cl1 C3 1_555 1_555
N1 C6 1_555 1_555
N2 C9 1_555 1_555
O1 C8 1_555 1_555
O2 C10 1_555 1_555
O3 C12 1_555 1_555
O4 C15 1_555 1_555
O5 C15 1_555 1_555
C18 H14 1_555 1_555
C19 C18 1_555 1_555
H15 C19 1_555 1_555
C20 C19 1_555 1_555
C21 C20 1_555 1_555
H16 C21 1_555 1_555
C22 C21 1_555 1_555
H17 C22 1_555 1_555
C23 C18 1_555 1_555
C24 C25 1_555 1_555
C25 C26 1_555 1_555
C26 C27 1_555 1_555
C27 N4 1_555 1_555
C28 H18 1_555 1_555
H19 C28 1_555 1_555
H20 C28 1_555 1_555
C29 C30 1_555 1_555
C30 H21 1_555 1_555
C31 C26 1_555 1_555
C32 C31 1_555 1_555
C33 H22 1_555 1_555
H23 C33 1_555 1_555
C34 C33 1_555 1_555
H24 C34 1_555 1_555
H25 C34 1_555 1_555
H26 C34 1_555 1_555
Cl2 C20 1_555 1_555
N3 C23 1_555 1_555
N4 C24 1_555 1_555
O6 C24 1_555 1_555
O7 C27 1_555 1_555
O8 C29 1_555 1_555
O9 C32 1_555 1_555
O10 C32 1_555 1_555
C5 C6 1_555 1_555
C7 N1 1_555 1_555
C10 N2 1_555 1_555
C12 N1 1_555 1_555
C13 C14 1_555 1_555
C16 O5 1_555 1_555
C22 C23 1_555 1_555
C25 N3 1_555 1_555
C28 N4 1_555 1_555
C29 N3 1_555 1_555
C30 C31 1_555 1_555
C33 O10 1_555 1_555

#END
