
#######################################################################
#
#                 Cambridge Crystallographic Data Centre
#                                CCDC 
#
#######################################################################
#
# If this CIF has been generated from an entry in the Cambridge 
# Structural Database, then it will include bibliographic, chemical, 
# crystal, experimental, refinement or atomic coordinate data resulting 
# from the CCDC's data processing and validation procedures.
#
#######################################################################

data_PINJAZ
_chemical_name_common            
2,8,14,20-Tetraethyl-4,10,16,22-tetrahydroxy-6,12,18,24-tetramethoxyresorcinarene
_chemical_formula_moiety         'C40 H48 O8'
_chemical_name_systematic        
2,8,14,20-Tetraethyl-6,12,18,24-tetramethoxypentacyclo[19.3.1.1^3,7^.1^9,13^.1^15,19^]octacosa-1(25),3(28),4,6,9(27),10,12,15(26),16,18,21,23-dodecaene-4,10,16,22-tetrol
_symmetry_cell_setting           monoclinic
_symmetry_space_group_name_H-M   'C 2/c'
_symmetry_Int_Tables_number      15
_space_group_name_Hall           '-C 2yn'
loop_
_symmetry_equiv_pos_site_id
_symmetry_equiv_pos_as_xyz
1 x,y,z
2 -x,y,1/2-z
3 1/2+x,1/2+y,z
4 1/2-x,1/2+y,1/2-z
5 -x,-y,-z
6 x,-y,1/2+z
7 1/2-x,1/2-y,-z
8 1/2+x,1/2-y,1/2+z
_cell_length_a                   19.756(18)
_cell_length_b                   14.932(14)
_cell_length_c                   12.188(15)
_cell_angle_alpha                90
_cell_angle_beta                 106.232(11)
_cell_angle_gamma                90
_cell_volume                     3452.1
_chemical_melting_point          'above 250 deg.C'
_cell_formula_units_Z            4
loop_
_atom_site_label
_atom_site_type_symbol
_atom_site_fract_x
_atom_site_fract_y
_atom_site_fract_z
O1 O 0.0539(4) 0.4094(4) 0.6046(5)
O2 O 0.2121(4) 0.4301(5) 0.3748(6)
H1 H 0.2383 0.3974 0.3514
O3 O 0.2603(4) 0.3487(5) 0.1752(7)
O4 O 0.0711(5) 0.3218(6) -0.1717(7)
H2 H 0.1042 0.3306 -0.1987
C1 C 0.1042(6) 0.2448(7) 0.4274(9)
H3 H 0.0947 0.1848 0.4084
C2 C 0.0708(5) 0.2837(6) 0.5011(8)
C3 C 0.0877(5) 0.3738(6) 0.5322(7)
C4 C 0.1339(5) 0.4197(6) 0.4858(8)
H4 H 0.1436 0.4796 0.5047
C5 C 0.1656(5) 0.3788(7) 0.4126(8)
C6 C 0.1510(5) 0.2894(6) 0.3799(8)
C7 C 0.1889(6) 0.2449(6) 0.3015(9)
H5 H 0.2377 0.2662 0.3244
C8 C 0.1565(6) 0.2737(7) 0.1778(9)
C9 C 0.1939(6) 0.3188(6) 0.1138(9)
C10 C 0.1650(6) 0.3355(7) -0.0025(9)
H6 H 0.1913 0.3657 -0.0432
C11 C 0.0960(6) 0.3067(7) -0.0586(9)
C12 C 0.0549(6) 0.2640(7) 0.0019(10)
C13 C 0.0865(6) 0.2486(7) 0.1193(9)
H7 H 0.0597 0.2202 0.1608
C14 C 0.0184(6) 0.2340(6) 0.5513(10)
H8 H 0.0295 0.2531 0.6313
C15 C 0.0691(6) 0.5006(6) 0.6398(9)
H9 H 0.1185 0.5066 0.6775
H10 H 0.0424 0.5172 0.6914
H11 H 0.0567 0.5389 0.5740
C16 C 0.3026(7) 0.3912(8) 0.1120(10)
H12 H 0.3125 0.3493 0.0588
H13 H 0.3461 0.4112 0.1638
H14 H 0.2776 0.4416 0.0711
C17 C 0.0295(7) 0.1303(8) 0.5550(11)
H15 H 0.0096 0.1063 0.4788
H16 H 0.0797 0.1179 0.5770
C18 C 0.1910(6) 0.1424(7) 0.3116(9)
H17 H 0.2101 0.1256 0.3912
H18 H 0.1434 0.1189 0.2852
C19 C 0.2360(7) 0.1013(9) 0.2416(10)
H19 H 0.2762 0.1388 0.2464
H20 H 0.2086 0.0963 0.1632
H21 H 0.2516 0.0429 0.2710
C20 C -0.0038(13) 0.0816(15) 0.6377(19)
H22 H 0.0168 0.1032 0.7140
H23 H 0.0047 0.0184 0.6351
H24 H -0.0536 0.0925 0.6160
O1A O -0.0539(4) 0.4094(4) -0.1046(5)
O2A O -0.2121(4) 0.4301(5) 0.1252(6)
H1A H -0.2383 0.3974 0.1486
O3A O -0.2603(4) 0.3487(5) 0.3248(7)
O4A O -0.0711(5) 0.3218(6) 0.6717(7)
H2A H -0.1042 0.3306 0.6987
C1A C -0.1042(6) 0.2448(7) 0.0726(9)
H3A H -0.0947 0.1848 0.0916
C2A C -0.0708(5) 0.2837(6) -0.0011(8)
C3A C -0.0877(5) 0.3738(6) -0.0322(7)
C4A C -0.1339(5) 0.4197(6) 0.0142(8)
H4A H -0.1436 0.4796 -0.0047
C5A C -0.1656(5) 0.3788(7) 0.0874(8)
C6A C -0.1510(5) 0.2894(6) 0.1201(8)
C7A C -0.1889(6) 0.2449(6) 0.1985(9)
H5A H -0.2377 0.2662 0.1756
C8A C -0.1565(6) 0.2737(7) 0.3222(9)
C9A C -0.1939(6) 0.3188(6) 0.3862(9)
C10A C -0.1650(6) 0.3355(7) 0.5025(9)
H6A H -0.1913 0.3657 0.5432
C11A C -0.0960(6) 0.3067(7) 0.5586(9)
C12A C -0.0549(6) 0.2640(7) 0.4981(10)
C13A C -0.0865(6) 0.2486(7) 0.3807(9)
H7A H -0.0597 0.2202 0.3392
C14A C -0.0184(6) 0.2340(6) -0.0513(10)
H8A H -0.0295 0.2531 -0.1313
C15A C -0.0691(6) 0.5006(6) -0.1398(9)
H9A H -0.1185 0.5066 -0.1775
H10A H -0.0424 0.5172 -0.1914
H11A H -0.0567 0.5389 -0.0740
C16A C -0.3026(7) 0.3912(8) 0.3880(10)
H12A H -0.3125 0.3493 0.4412
H13A H -0.3461 0.4112 0.3362
H14A H -0.2776 0.4416 0.4289
C17A C -0.0295(7) 0.1303(8) -0.0550(11)
H15A H -0.0096 0.1063 0.0212
H16A H -0.0797 0.1179 -0.0770
C18A C -0.1910(6) 0.1424(7) 0.1884(9)
H17A H -0.2101 0.1256 0.1088
H18A H -0.1434 0.1189 0.2148
C19A C -0.2360(7) 0.1013(9) 0.2584(10)
H19A H -0.2762 0.1388 0.2536
H20A H -0.2086 0.0963 0.3368
H21A H -0.2516 0.0429 0.2290
C20A C 0.0038(13) 0.0816(15) -0.1377(19)
H22A H -0.0168 0.1032 -0.2140
H23A H -0.0047 0.0184 -0.1351
H24A H 0.0536 0.0925 -0.1160
loop_
_geom_bond_atom_site_label_1
_geom_bond_atom_site_label_2
_geom_bond_site_symmetry_1
_geom_bond_site_symmetry_2
O1 C3 1_555 1_555
O2 H1 1_555 1_555
O3 C9 1_555 1_555
O4 H2 1_555 1_555
C1 H3 1_555 1_555
C2 C1 1_555 1_555
C3 C2 1_555 1_555
C4 C3 1_555 1_555
H4 C4 1_555 1_555
C5 O2 1_555 1_555
C6 C1 1_555 1_555
C7 C6 1_555 1_555
H5 C7 1_555 1_555
C8 C7 1_555 1_555
C9 C8 1_555 1_555
C10 C9 1_555 1_555
H6 C10 1_555 1_555
C11 O4 1_555 1_555
C12 C11 1_555 1_555
C13 C8 1_555 1_555
H7 C13 1_555 1_555
C14 C2 1_555 1_555
H8 C14 1_555 1_555
C15 O1 1_555 1_555
H9 C15 1_555 1_555
H10 C15 1_555 1_555
H11 C15 1_555 1_555
C16 O3 1_555 1_555
H12 C16 1_555 1_555
H13 C16 1_555 1_555
H14 C16 1_555 1_555
C17 C14 1_555 1_555
H15 C17 1_555 1_555
H16 C17 1_555 1_555
C18 C7 1_555 1_555
H17 C18 1_555 1_555
H18 C18 1_555 1_555
C19 C18 1_555 1_555
H19 C19 1_555 1_555
H20 C19 1_555 1_555
H21 C19 1_555 1_555
C20 C17 1_555 1_555
H22 C20 1_555 1_555
H23 C20 1_555 1_555
H24 C20 1_555 1_555
O1A C3A 1_555 1_555
O2A H1A 1_555 1_555
O3A C9A 1_555 1_555
O4A H2A 1_555 1_555
C1A H3A 1_555 1_555
C2A C1A 1_555 1_555
C3A C2A 1_555 1_555
C4A C3A 1_555 1_555
H4A C4A 1_555 1_555
C5A O2A 1_555 1_555
C6A C1A 1_555 1_555
C7A C6A 1_555 1_555
H5A C7A 1_555 1_555
C8A C7A 1_555 1_555
C9A C8A 1_555 1_555
C10A C9A 1_555 1_555
H6A C10A 1_555 1_555
C11A O4A 1_555 1_555
C12A C14 1_555 1_555
C13A C8A 1_555 1_555
H7A C13A 1_555 1_555
C14A C12 1_555 1_555
H8A C14A 1_555 1_555
C15A O1A 1_555 1_555
H9A C15A 1_555 1_555
H10A C15A 1_555 1_555
H11A C15A 1_555 1_555
C16A O3A 1_555 1_555
H12A C16A 1_555 1_555
H13A C16A 1_555 1_555
H14A C16A 1_555 1_555
C17A C14A 1_555 1_555
H15A C17A 1_555 1_555
H16A C17A 1_555 1_555
C18A C7A 1_555 1_555
H17A C18A 1_555 1_555
H18A C18A 1_555 1_555
C19A C18A 1_555 1_555
H19A C19A 1_555 1_555
H20A C19A 1_555 1_555
H21A C19A 1_555 1_555
C20A C17A 1_555 1_555
H22A C20A 1_555 1_555
H23A C20A 1_555 1_555
H24A C20A 1_555 1_555
C4 C5 1_555 1_555
C5 C6 1_555 1_555
C10 C11 1_555 1_555
C12 C13 1_555 1_555
C2A C14A 1_555 1_555
C4A C5A 1_555 1_555
C5A C6A 1_555 1_555
C10A C11A 1_555 1_555
C11A C12A 1_555 1_555
C12A C13A 1_555 1_555

#END
