
#######################################################################
#
#                 Cambridge Crystallographic Data Centre
#                                CCDC 
#
#######################################################################
#
# If this CIF has been generated from an entry in the Cambridge 
# Structural Database, then it will include bibliographic, chemical, 
# crystal, experimental, refinement or atomic coordinate data resulting 
# from the CCDC's data processing and validation procedures.
#
#######################################################################

data_PINYAO
_chemical_formula_moiety         'C38 H28'
_chemical_name_systematic        2,2'-(1,2-Diphenylethene-1,2-diyl)dibiphenyl
_symmetry_cell_setting           monoclinic
_symmetry_space_group_name_H-M   'P 21/n'
_symmetry_Int_Tables_number      14
_space_group_name_Hall           '-P 2yn'
loop_
_symmetry_equiv_pos_site_id
_symmetry_equiv_pos_as_xyz
1 x,y,z
2 1/2-x,1/2+y,1/2-z
3 -x,-y,-z
4 1/2+x,1/2-y,1/2+z
_cell_length_a                   12.3653(9)
_cell_length_b                   22.7961(12)
_cell_length_c                   19.7772(14)
_cell_angle_alpha                90
_cell_angle_beta                 98.854(7)
_cell_angle_gamma                90
_cell_volume                     5508.38
_exptl_crystal_colour            colorless
_exptl_crystal_description       block
_cell_formula_units_Z            8
loop_
_atom_site_label
_atom_site_type_symbol
_atom_site_fract_x
_atom_site_fract_y
_atom_site_fract_z
C1 C 0.0391(3) 0.18328(16) 0.1941(2)
H1 H 0.0691 0.1563 0.2270
C2 C -0.0539(4) 0.2137(2) 0.2029(3)
H2 H -0.0863 0.2071 0.2416
C3 C -0.0995(4) 0.2540(3) 0.1548(4)
H3 H -0.1620 0.2746 0.1611
C4 C -0.0523(4) 0.2633(2) 0.0977(3)
H4 H -0.0830 0.2902 0.0648
C5 C 0.0414(3) 0.23282(17) 0.0887(2)
H5 H 0.0731 0.2397 0.0497
C6 C 0.0886(3) 0.19251(15) 0.1362(2)
C7 C 0.1863(3) 0.15847(13) 0.12429(18)
C8 C 0.1808(3) 0.13034(14) 0.06143(18)
H6 H 0.1190 0.1357 0.0287
C9 C 0.2639(3) 0.09464(14) 0.0459(2)
H7 H 0.2585 0.0769 0.0032
C10 C 0.3540(3) 0.08578(14) 0.09398(19)
H8 H 0.4096 0.0610 0.0846
C11 C 0.3627(3) 0.11359(13) 0.15643(17)
H9 H 0.4248 0.1075 0.1887
C12 C 0.2804(3) 0.15087(12) 0.17260(17)
C13 C 0.2977(3) 0.17899(13) 0.24148(17)
C14 C 0.3391(3) 0.13795(14) 0.29896(18)
C15 C 0.2825(4) 0.08708(15) 0.3097(2)
H10 H 0.2157 0.0791 0.2827
C16 C 0.3254(6) 0.04810(19) 0.3606(3)
H11 H 0.2856 0.0148 0.3682
C17 C 0.4239(6) 0.0575(3) 0.3993(3)
H12 H 0.4525 0.0304 0.4325
C18 C 0.4810(4) 0.1074(3) 0.3889(3)
H13 H 0.5488 0.1144 0.4153
C19 C 0.4379(4) 0.14728(19) 0.3395(2)
H14 H 0.4769 0.1813 0.3335
C20 C 0.2852(2) 0.23713(13) 0.25362(16)
C21 C 0.2815(3) 0.25739(13) 0.32493(16)
C22 C 0.2055(3) 0.23425(13) 0.36222(19)
H15 H 0.1566 0.2060 0.3422
C23 C 0.2007(3) 0.25200(15) 0.4279(2)
H16 H 0.1490 0.2357 0.4519
C24 C 0.2718(3) 0.29382(16) 0.45839(19)
H17 H 0.2698 0.3054 0.5033
C25 C 0.3459(3) 0.31831(15) 0.4218(2)
H18 H 0.3944 0.3467 0.4421
C26 C 0.3493(3) 0.30135(14) 0.35535(18)
H19 H 0.3978 0.3197 0.3306
C27 C 0.2672(3) 0.28305(13) 0.19980(16)
C28 C 0.1787(3) 0.32126(14) 0.20100(18)
H20 H 0.1357 0.3174 0.2354
C29 C 0.1540(3) 0.36437(15) 0.1525(2)
H21 H 0.0942 0.3888 0.1538
C30 C 0.2174(4) 0.37131(17) 0.1024(2)
H22 H 0.2006 0.4002 0.0693
C31 C 0.3061(4) 0.33538(16) 0.1012(2)
H23 H 0.3494 0.3410 0.0672
C32 C 0.3336(3) 0.29101(13) 0.14874(17)
C33 C 0.4335(3) 0.25632(14) 0.1447(2)
C34 C 0.5167(3) 0.25135(15) 0.2001(2)
H24 H 0.5091 0.2692 0.2414
C35 C 0.6115(3) 0.22001(17) 0.1944(2)
H25 H 0.6671 0.2171 0.2317
C36 C 0.6224(4) 0.19355(19) 0.1338(3)
H26 H 0.6856 0.1724 0.1303
C37 C 0.5418(4) 0.19770(19) 0.0782(3)
H27 H 0.5497 0.1793 0.0372
C38 C 0.4484(3) 0.22960(15) 0.0837(2)
H28 H 0.3943 0.2332 0.0457
C39 C 0.5382(3) -0.01045(13) 0.20016(17)
H29 H 0.5686 0.0179 0.2312
C40 C 0.4447(3) -0.03982(17) 0.2114(2)
H30 H 0.4123 -0.0311 0.2496
C41 C 0.3995(3) -0.08203(17) 0.1657(2)
H31 H 0.3370 -0.1021 0.1734
C42 C 0.4463(3) -0.09456(15) 0.1089(2)
H32 H 0.4155 -0.1229 0.0779
C43 C 0.5395(3) -0.06485(14) 0.09781(18)
H33 H 0.5707 -0.0734 0.0591
C44 C 0.5873(2) -0.02267(13) 0.14304(16)
C45 C 0.6844(3) 0.01051(12) 0.12868(16)
C46 C 0.6822(3) 0.03190(12) 0.06207(17)
H34 H 0.6221 0.0234 0.0291
C47 C 0.7663(3) 0.06522(14) 0.04378(19)
H35 H 0.7639 0.0780 -0.0011
C48 C 0.8529(3) 0.07919(13) 0.0924(2)
H36 H 0.9088 0.1028 0.0811
C49 C 0.8581(3) 0.05866(13) 0.15816(18)
H37 H 0.9176 0.0689 0.1907
C50 C 0.7761(3) 0.02260(12) 0.17742(17)
C51 C 0.7915(3) 0.00075(13) 0.24910(16)
C52 C 0.8218(3) 0.04698(14) 0.30230(18)
C53 C 0.7591(3) 0.09741(15) 0.3033(2)
H38 H 0.6968 0.1025 0.2709
C54 C 0.7887(5) 0.13987(18) 0.3519(3)
H39 H 0.7449 0.1730 0.3525
C55 C 0.8793(6) 0.1347(2) 0.3985(3)
H40 H 0.8980 0.1642 0.4306
C56 C 0.9452(5) 0.0853(2) 0.3988(3)
H41 H 1.0083 0.0812 0.4307
C57 C 0.9142(4) 0.04186(18) 0.3499(2)
H42 H 0.9575 0.0085 0.3496
C58 C 0.7856(2) -0.05667(13) 0.26650(16)
C59 C 0.7807(3) -0.07538(13) 0.33817(16)
C60 C 0.7079(3) -0.05003(15) 0.37567(19)
H43 H 0.6625 -0.0200 0.3563
C61 C 0.7012(4) -0.06831(19) 0.4411(2)
H44 H 0.6521 -0.0502 0.4656
C62 C 0.7663(4) -0.11315(19) 0.4709(2)
H45 H 0.7619 -0.1254 0.5152
C63 C 0.8375(4) -0.13937(17) 0.4339(2)
H46 H 0.8821 -0.1697 0.4534
C64 C 0.8441(3) -0.12141(14) 0.36822(19)
H47 H 0.8920 -0.1404 0.3436
C65 C 0.7755(3) -0.10575(12) 0.21563(16)
C66 C 0.6874(3) -0.14409(13) 0.21427(17)
H48 H 0.6391 -0.1393 0.2456
C67 C 0.6706(3) -0.18907(14) 0.1671(2)
H49 H 0.6104 -0.2137 0.1662
C68 C 0.7426(3) -0.19773(14) 0.12138(19)
H50 H 0.7312 -0.2278 0.0893
C69 C 0.8313(3) -0.16134(14) 0.12399(17)
H51 H 0.8806 -0.1678 0.0937
C70 C 0.8507(3) -0.11519(12) 0.17008(16)
C71 C 0.9511(3) -0.07937(13) 0.17019(19)
C72 C 1.0257(3) -0.07135(14) 0.2288(2)
H52 H 1.0121 -0.0873 0.2699
C73 C 1.1207(3) -0.03967(17) 0.2268(3)
H53 H 1.1707 -0.0347 0.2666
C74 C 1.1417(4) -0.01558(18) 0.1668(3)
H54 H 1.2048 0.0065 0.1662
C75 C 1.0699(4) -0.02387(16) 0.1076(3)
H55 H 1.0844 -0.0082 0.0665
C76 C 0.9750(3) -0.05612(14) 0.1097(2)
H56 H 0.9265 -0.0622 0.0695
loop_
_geom_bond_atom_site_label_1
_geom_bond_atom_site_label_2
_geom_bond_site_symmetry_1
_geom_bond_site_symmetry_2
C1 H1 1_555 1_555
C2 C1 1_555 1_555
H2 C2 1_555 1_555
C3 C2 1_555 1_555
H3 C3 1_555 1_555
C4 C3 1_555 1_555
H4 C4 1_555 1_555
C5 C4 1_555 1_555
H5 C5 1_555 1_555
C6 C1 1_555 1_555
C7 C6 1_555 1_555
C8 C7 1_555 1_555
H6 C8 1_555 1_555
C9 C8 1_555 1_555
H7 C9 1_555 1_555
C10 C9 1_555 1_555
H8 C10 1_555 1_555
C11 C10 1_555 1_555
H9 C11 1_555 1_555
C12 C7 1_555 1_555
C13 C12 1_555 1_555
C14 C13 1_555 1_555
C15 C14 1_555 1_555
H10 C15 1_555 1_555
C16 C15 1_555 1_555
H11 C16 1_555 1_555
C17 C16 1_555 1_555
H12 C17 1_555 1_555
C18 C17 1_555 1_555
H13 C18 1_555 1_555
C19 C14 1_555 1_555
H14 C19 1_555 1_555
C20 C13 1_555 1_555
C21 C20 1_555 1_555
C22 C21 1_555 1_555
H15 C22 1_555 1_555
C23 C22 1_555 1_555
H16 C23 1_555 1_555
C24 C23 1_555 1_555
H17 C24 1_555 1_555
C25 C24 1_555 1_555
H18 C25 1_555 1_555
C26 C21 1_555 1_555
H19 C26 1_555 1_555
C27 C20 1_555 1_555
C28 C27 1_555 1_555
H20 C28 1_555 1_555
C29 C28 1_555 1_555
H21 C29 1_555 1_555
C30 C29 1_555 1_555
H22 C30 1_555 1_555
C31 C30 1_555 1_555
H23 C31 1_555 1_555
C32 C27 1_555 1_555
C33 C32 1_555 1_555
C34 C33 1_555 1_555
H24 C34 1_555 1_555
C35 C34 1_555 1_555
H25 C35 1_555 1_555
C36 C35 1_555 1_555
H26 C36 1_555 1_555
C37 C36 1_555 1_555
H27 C37 1_555 1_555
C38 C33 1_555 1_555
H28 C38 1_555 1_555
C39 H29 1_555 1_555
C40 C39 1_555 1_555
H30 C40 1_555 1_555
C41 C40 1_555 1_555
H31 C41 1_555 1_555
C42 C41 1_555 1_555
H32 C42 1_555 1_555
C43 C42 1_555 1_555
H33 C43 1_555 1_555
C44 C39 1_555 1_555
C45 C44 1_555 1_555
C46 C45 1_555 1_555
H34 C46 1_555 1_555
C47 C46 1_555 1_555
H35 C47 1_555 1_555
C48 C47 1_555 1_555
H36 C48 1_555 1_555
C49 C48 1_555 1_555
H37 C49 1_555 1_555
C50 C45 1_555 1_555
C51 C50 1_555 1_555
C52 C51 1_555 1_555
C53 C52 1_555 1_555
H38 C53 1_555 1_555
C54 C53 1_555 1_555
H39 C54 1_555 1_555
C55 C54 1_555 1_555
H40 C55 1_555 1_555
C56 C55 1_555 1_555
H41 C56 1_555 1_555
C57 C52 1_555 1_555
H42 C57 1_555 1_555
C58 C51 1_555 1_555
C59 C58 1_555 1_555
C60 C59 1_555 1_555
H43 C60 1_555 1_555
C61 C60 1_555 1_555
H44 C61 1_555 1_555
C62 C61 1_555 1_555
H45 C62 1_555 1_555
C63 C62 1_555 1_555
H46 C63 1_555 1_555
C64 C59 1_555 1_555
H47 C64 1_555 1_555
C65 C58 1_555 1_555
C66 C65 1_555 1_555
H48 C66 1_555 1_555
C67 C66 1_555 1_555
H49 C67 1_555 1_555
C68 C67 1_555 1_555
H50 C68 1_555 1_555
C69 C68 1_555 1_555
H51 C69 1_555 1_555
C70 C65 1_555 1_555
C71 C70 1_555 1_555
C72 C71 1_555 1_555
H52 C72 1_555 1_555
C73 C72 1_555 1_555
H53 C73 1_555 1_555
C74 C73 1_555 1_555
H54 C74 1_555 1_555
C75 C74 1_555 1_555
H55 C75 1_555 1_555
C76 C71 1_555 1_555
H56 C76 1_555 1_555
C5 C6 1_555 1_555
C11 C12 1_555 1_555
C18 C19 1_555 1_555
C25 C26 1_555 1_555
C31 C32 1_555 1_555
C37 C38 1_555 1_555
C43 C44 1_555 1_555
C49 C50 1_555 1_555
C56 C57 1_555 1_555
C63 C64 1_555 1_555
C69 C70 1_555 1_555
C75 C76 1_555 1_555

#END
