
#######################################################################
#
#                 Cambridge Crystallographic Data Centre
#                                CCDC 
#
#######################################################################
#
# If this CIF has been generated from an entry in the Cambridge 
# Structural Database, then it will include bibliographic, chemical, 
# crystal, experimental, refinement or atomic coordinate data resulting 
# from the CCDC's data processing and validation procedures.
#
#######################################################################

data_PIPMAF
_chemical_formula_moiety         'C4 H12 N1 O3 1+,C7 H3 Cl2 O2 1-'
_chemical_name_systematic        
'1,3-dihydroxy-2-(hydroxymethyl)propan-2-aminium 2,4-dichlorobenzoate'
_symmetry_cell_setting           monoclinic
_symmetry_space_group_name_H-M   'P 21/n'
_symmetry_Int_Tables_number      14
_space_group_name_Hall           '-P 2yn'
loop_
_symmetry_equiv_pos_site_id
_symmetry_equiv_pos_as_xyz
1 x,y,z
2 1/2-x,1/2+y,1/2-z
3 -x,-y,-z
4 1/2+x,1/2-y,1/2+z
_cell_length_a                   8.341(4)
_cell_length_b                   6.421(3)
_cell_length_c                   25.173(11)
_cell_angle_alpha                90
_cell_angle_beta                 91.129(7)
_cell_angle_gamma                90
_cell_volume                     1347.94
_exptl_crystal_colour            colorless
_exptl_crystal_description       BLOCK
_cell_formula_units_Z            4
loop_
_atom_site_label
_atom_site_type_symbol
_atom_site_fract_x
_atom_site_fract_y
_atom_site_fract_z
Cl1 Cl 1.00862(17) 0.51362(18) 0.10299(5)
Cl2 Cl 0.58597(15) 0.3357(2) -0.05446(5)
O1 O 1.1505(4) -0.0038(5) 0.11730(11)
O2 O 0.9476(4) 0.0370(4) 0.17149(12)
C1 C 1.0129(6) 0.0477(6) 0.12710(19)
C2 C 0.9083(5) 0.1248(6) 0.08181(15)
C3 C 0.8970(5) 0.3293(7) 0.06698(15)
C4 C 0.7991(5) 0.3972(7) 0.02508(17)
H1 H 0.7927 0.5378 0.0164
C5 C 0.7132(5) 0.2535(7) -0.00292(16)
C6 C 0.7217(6) 0.0461(7) 0.00944(18)
H2 H 0.6642 -0.0520 -0.0103
C7 C 0.8172(7) -0.0134(7) 0.05179(18)
H3 H 0.8209 -0.1538 0.0608
N1 N 0.4946(3) 0.2049(5) 0.25761(11)
H4 H 0.4944 0.3199 0.2773
H5 H 0.5797 0.1277 0.2664
H6 H 0.4056 0.1325 0.2633
O3 O 0.3128(3) 0.5434(4) 0.21842(10)
H7 H 0.3637 0.6450 0.2086
O4 O 0.7861(3) 0.3408(4) 0.21902(10)
H8 H 0.8517 0.4360 0.2197
O5 O 0.4001(3) -0.0867(4) 0.17947(10)
H9 H 0.3225 -0.0701 0.1594
C8 C 0.3457(5) 0.3710(6) 0.18493(14)
H10 H 0.3511 0.4189 0.1485
H11 H 0.2585 0.2716 0.1869
C9 C 0.6437(5) 0.4081(6) 0.19206(16)
H12 H 0.6644 0.4183 0.1544
H13 H 0.6159 0.5460 0.2046
C10 C 0.5205(5) 0.0622(6) 0.16749(16)
H14 H 0.5142 0.0956 0.1299
H15 H 0.6254 0.0023 0.1750
C11 C 0.5017(4) 0.2630(6) 0.20005(14)
loop_
_geom_bond_atom_site_label_1
_geom_bond_atom_site_label_2
_geom_bond_site_symmetry_1
_geom_bond_site_symmetry_2
Cl1 C3 1_555 1_555
Cl2 C5 1_555 1_555
O1 C1 1_555 1_555
O2 C1 1_555 1_555
C1 C2 1_555 1_555
C2 C3 1_555 1_555
C3 C4 1_555 1_555
C4 H1 1_555 1_555
C5 C4 1_555 1_555
C6 C5 1_555 1_555
H2 C6 1_555 1_555
C7 C2 1_555 1_555
H3 C7 1_555 1_555
N1 H4 1_555 1_555
H5 N1 1_555 1_555
H6 N1 1_555 1_555
O3 H7 1_555 1_555
O4 H8 1_555 1_555
O5 H9 1_555 1_555
C8 O3 1_555 1_555
H10 C8 1_555 1_555
H11 C8 1_555 1_555
C9 O4 1_555 1_555
H12 C9 1_555 1_555
H13 C9 1_555 1_555
C10 O5 1_555 1_555
H14 C10 1_555 1_555
H15 C10 1_555 1_555
C11 N1 1_555 1_555
C6 C7 1_555 1_555
C8 C11 1_555 1_555
C9 C11 1_555 1_555
C10 C11 1_555 1_555

#END
