
#######################################################################
#
#                 Cambridge Crystallographic Data Centre
#                                CCDC 
#
#######################################################################
#
# If this CIF has been generated from an entry in the Cambridge 
# Structural Database, then it will include bibliographic, chemical, 
# crystal, experimental, refinement or atomic coordinate data resulting 
# from the CCDC's data processing and validation procedures.
#
#######################################################################

data_PIQNUB
_chemical_name_common            
'(E)-2-(((4-methyl-N-phenylphenyl)sulfonamido)methylene)-4-(triisopropylsilyl)but-3-yn-1-yl 2-iodo-5-methylbenzoate'
_chemical_formula_moiety         'C35 H42 I1 N1 O4 S1 Si1'
_chemical_name_systematic        
'2-({[(4-methylphenyl)sulfonyl](phenyl)amino}methylidene)-4-[tris(propan-2-yl)silyl]but-3-yn-1-yl 2-iodo-5-methylbenzoate'
_symmetry_cell_setting           monoclinic
_symmetry_space_group_name_H-M   'P 21/c'
_symmetry_Int_Tables_number      14
_space_group_name_Hall           '-P 2ybc'
loop_
_symmetry_equiv_pos_site_id
_symmetry_equiv_pos_as_xyz
1 x,y,z
2 -x,1/2+y,1/2-z
3 -x,-y,-z
4 x,1/2-y,1/2+z
_cell_length_a                   20.4468(13)
_cell_length_b                   14.5247(8)
_cell_length_c                   12.0968(8)
_cell_angle_alpha                90
_cell_angle_beta                 101.334(6)
_cell_angle_gamma                90
_cell_volume                     3522.49
_exptl_crystal_colour            colorless
_exptl_crystal_description       block
_cell_formula_units_Z            4
loop_
_atom_site_label
_atom_site_type_symbol
_atom_site_fract_x
_atom_site_fract_y
_atom_site_fract_z
I1 I 0.69173(2) 0.91510(3) 0.84574(4)
S1 S 0.54602(7) 0.38401(10) 0.35257(11)
Si1 Si 0.88870(7) 0.38740(13) 0.64944(13)
O1 O 0.51359(18) 0.4691(3) 0.3653(3)
C1 C 0.7989(3) 0.4088(4) 0.6360(5)
N1 N 0.6167(2) 0.3859(3) 0.4507(4)
O2 O 0.5642(2) 0.3620(3) 0.2471(3)
C2 C 0.7417(2) 0.4316(4) 0.6220(4)
O3 O 0.7036(2) 0.6233(3) 0.6662(4)
C3 C 0.4685(3) 0.3033(4) 0.4834(5)
H1 H 0.4686 0.3602 0.5187
C4 C 0.6759(2) 0.4685(3) 0.6168(4)
C5 C 0.6225(3) 0.4486(3) 0.5410(4)
H2 H 0.5837 0.4797 0.5478
C6 C 0.8118(3) 0.9100(4) 0.5926(6)
H3 H 0.8369 0.9547 0.5650
C7 C 0.5004(2) 0.2920(4) 0.3929(5)
C8 C 0.7782(3) 0.9315(4) 0.6770(6)
H4 H 0.7811 0.9911 0.7058
C9 C 0.7357(3) 0.7771(4) 0.6778(4)
C10 C 0.6521(3) 0.2400(4) 0.5433(5)
H5 H 0.6267 0.2530 0.5972
C11 C 0.6560(2) 0.3026(3) 0.4584(4)
C12 C 0.6995(3) 0.7017(4) 0.7199(5)
C13 C 0.6701(3) 0.5425(4) 0.6996(5)
H6 H 0.6236 0.5561 0.6988
H7 H 0.6911 0.5234 0.7750
C14 C 0.7711(3) 0.7578(4) 0.5915(5)
H8 H 0.7690 0.6984 0.5623
O4 O 0.6686(3) 0.7066(3) 0.7930(5)
C15 C 0.7400(3) 0.8669(4) 0.7206(5)
C16 C 0.4680(3) 0.1344(5) 0.3797(7)
H9 H 0.4670 0.0775 0.3441
C17 C 0.6868(3) 0.1574(4) 0.5468(7)
H10 H 0.6849 0.1147 0.6033
C18 C 0.8082(3) 0.8216(4) 0.5484(5)
C19 C 0.5015(3) 0.2076(4) 0.3413(5)
H11 H 0.5239 0.1997 0.2822
C20 C 0.4366(3) 0.2289(4) 0.5199(5)
H12 H 0.4148 0.2361 0.5800
C21 C 0.4365(3) 0.1445(5) 0.4694(6)
C22 C 0.8446(4) 0.7984(5) 0.4543(6)
H13 H 0.8326 0.8420 0.3941
H14 H 0.8324 0.7376 0.4266
H15 H 0.8919 0.8008 0.4824
C23 C 0.6939(3) 0.2829(5) 0.3784(5)
H16 H 0.6962 0.3248 0.3212
C24 C 0.9291(4) 0.4005(7) 0.8021(7)
H17 H 0.9230 0.3403 0.8352
C25 C 0.9206(4) 0.4716(8) 0.5572(8)
H18 H 0.9686 0.4612 0.5640
C26 C 0.8989(4) 0.4645(10) 0.8683(8)
H19 H 0.9082 0.5263 0.8481
H20 H 0.9168 0.4548 0.9469
H21 H 0.8515 0.4549 0.8539
C27 C 0.8750(6) 0.1943(7) 0.6724(13)
H22 H 0.8989 0.1987 0.7489
H23 H 0.8813 0.1341 0.6435
H24 H 0.8283 0.2045 0.6701
C28 C 0.9736(4) 0.2476(9) 0.5926(13)
H25 H 0.9858 0.2880 0.5371
H26 H 0.9784 0.1848 0.5708
H27 H 1.0022 0.2589 0.6643
C29 C 0.9102(8) 0.5706(10) 0.585(2)
H28 H 0.8732 0.5952 0.5320
H29 H 0.9497 0.6052 0.5813
H30 H 0.9011 0.5747 0.6598
C30 C 0.8869(6) 0.4554(18) 0.4346(11)
H31 H 0.8944 0.3930 0.4140
H32 H 0.9053 0.4968 0.3868
H33 H 0.8399 0.4661 0.4258
C31 C 0.7278(4) 0.2014(6) 0.3838(7)
H34 H 0.7538 0.1882 0.3308
C32 C 0.9007(4) 0.2657(7) 0.6017(9)
H35 H 0.8740 0.2600 0.5253
C33 C 0.4026(4) 0.0632(6) 0.5102(8)
H36 H 0.4020 0.0129 0.4586
H37 H 0.3577 0.0794 0.5148
H38 H 0.4265 0.0452 0.5835
C34 C 1.0047(4) 0.4115(10) 0.8193(9)
H39 H 1.0224 0.3659 0.7758
H40 H 1.0241 0.4037 0.8977
H41 H 1.0151 0.4718 0.7953
C35 C 0.7236(4) 0.1394(5) 0.4671(7)
H42 H 0.7463 0.0837 0.4693
loop_
_geom_bond_atom_site_label_1
_geom_bond_atom_site_label_2
_geom_bond_site_symmetry_1
_geom_bond_site_symmetry_2
I1 C15 1_555 1_555
S1 O1 1_555 1_555
Si1 C1 1_555 1_555
C1 C2 1_555 1_555
N1 S1 1_555 1_555
O2 S1 1_555 1_555
C2 C4 1_555 1_555
O3 C12 1_555 1_555
C3 H1 1_555 1_555
C4 C5 1_555 1_555
C5 N1 1_555 1_555
H2 C5 1_555 1_555
C6 H3 1_555 1_555
C7 S1 1_555 1_555
C8 C6 1_555 1_555
H4 C8 1_555 1_555
C9 C12 1_555 1_555
C10 H5 1_555 1_555
C11 N1 1_555 1_555
C12 O4 1_555 1_555
C13 O3 1_555 1_555
H6 C13 1_555 1_555
H7 C13 1_555 1_555
C14 C9 1_555 1_555
H8 C14 1_555 1_555
C15 C8 1_555 1_555
C16 H9 1_555 1_555
C17 C10 1_555 1_555
H10 C17 1_555 1_555
C18 C6 1_555 1_555
C19 C7 1_555 1_555
H11 C19 1_555 1_555
C20 C3 1_555 1_555
H12 C20 1_555 1_555
C21 C16 1_555 1_555
C22 C18 1_555 1_555
H13 C22 1_555 1_555
H14 C22 1_555 1_555
H15 C22 1_555 1_555
C23 C11 1_555 1_555
H16 C23 1_555 1_555
C24 Si1 1_555 1_555
H17 C24 1_555 1_555
C25 Si1 1_555 1_555
H18 C25 1_555 1_555
C26 C24 1_555 1_555
H19 C26 1_555 1_555
H20 C26 1_555 1_555
H21 C26 1_555 1_555
C27 H22 1_555 1_555
H23 C27 1_555 1_555
H24 C27 1_555 1_555
C28 H25 1_555 1_555
H26 C28 1_555 1_555
H27 C28 1_555 1_555
C29 C25 1_555 1_555
H28 C29 1_555 1_555
H29 C29 1_555 1_555
H30 C29 1_555 1_555
C30 C25 1_555 1_555
H31 C30 1_555 1_555
H32 C30 1_555 1_555
H33 C30 1_555 1_555
C31 C23 1_555 1_555
H34 C31 1_555 1_555
C32 Si1 1_555 1_555
H35 C32 1_555 1_555
C33 C21 1_555 1_555
H36 C33 1_555 1_555
H37 C33 1_555 1_555
H38 C33 1_555 1_555
C34 C24 1_555 1_555
H39 C34 1_555 1_555
H40 C34 1_555 1_555
H41 C34 1_555 1_555
C35 C17 1_555 1_555
H42 C35 1_555 1_555
C3 C7 1_555 1_555
C4 C13 1_555 1_555
C9 C15 1_555 1_555
C10 C11 1_555 1_555
C14 C18 1_555 1_555
C16 C19 1_555 1_555
C20 C21 1_555 1_555
C27 C32 1_555 1_555
C28 C32 1_555 1_555
C31 C35 1_555 1_555

#END
