
#######################################################################
#
#                 Cambridge Crystallographic Data Centre
#                                CCDC 
#
#######################################################################
#
# If this CIF has been generated from an entry in the Cambridge 
# Structural Database, then it will include bibliographic, chemical, 
# crystal, experimental, refinement or atomic coordinate data resulting 
# from the CCDC's data processing and validation procedures.
#
#######################################################################

data_PIRCIC
_chemical_formula_moiety         'C42 H44 N4 O8'
_chemical_name_systematic        
cis-(13,17-bis(Methoxycarbonylethyl)-2,7,12,18-tetra-methyl-8-vinyl-2,3-(4',5'-bis(methoxycarbonyl)benzo))-porphyrin
_chemical_properties_biological  
'Photosensitizer drug used in photodynamic theraphy of tumours'
_symmetry_cell_setting           triclinic
_symmetry_space_group_name_H-M   'P -1'
_symmetry_Int_Tables_number      2
_space_group_name_Hall           '-P 1'
loop_
_symmetry_equiv_pos_site_id
_symmetry_equiv_pos_as_xyz
1 x,y,z
2 -x,-y,-z
_cell_length_a                   8.467(4)
_cell_length_b                   13.863(6)
_cell_length_c                   15.718(10)
_cell_angle_alpha                89.33(4)
_cell_angle_beta                 85.04(4)
_cell_angle_gamma                81.31(4)
_cell_volume                     1816.94
_exptl_crystal_colour            brown
_chemical_melting_point          '134-136 deg.C'
_cell_formula_units_Z            2
loop_
_atom_site_label
_atom_site_type_symbol
_atom_site_fract_x
_atom_site_fract_y
_atom_site_fract_z
N1 N -0.0268(7) 0.8385(4) 0.9463(3)
N2 N -0.2636(7) 1.0091(4) 1.0082(3)
N3 N -0.3000(7) 0.9153(4) 1.1718(3)
N4 N -0.0625(6) 0.7492(4) 1.1152(3)
C1 C 0.0634(8) 0.7522(5) 0.9291(4)
C2 C 0.1329(8) 0.7435(4) 0.8337(4)
C3 C 0.3133(8) 0.7050(5) 0.8152(4)
C4 C 0.3772(8) 0.7419(5) 0.7288(4)
C5 C 0.3016(8) 0.8239(5) 0.6949(4)
C6 C 0.1704(8) 0.8854(5) 0.7391(4)
C7 C 0.3523(9) 0.5934(5) 0.8218(5)
C8 C 0.3825(12) 0.4432(6) 0.7584(6)
C9 C 0.5321(8) 0.6934(5) 0.6937(4)
C10 C 0.7302(10) 0.6795(6) 0.5785(5)
C11 C 0.0256(9) 0.6868(5) 0.7865(4)
O1 O 0.3923(6) 0.5523(3) 0.8868(3)
O2 O 0.3363(6) 0.5477(3) 0.7517(3)
O3 O 0.6263(6) 0.6402(4) 0.7348(3)
O4 O 0.5701(6) 0.7164(3) 0.6120(3)
C12 C 0.0968(8) 0.8499(5) 0.8089(4)
C13 C -0.0150(8) 0.8988(5) 0.8765(4)
C14 C -0.1013(9) 0.9917(5) 0.8692(4)
C15 C -0.2166(8) 1.0427(5) 0.9281(4)
C16 C -0.3219(8) 1.1307(5) 0.9138(4)
C17 C -0.3171(9) 1.1872(5) 0.8305(4)
C18 C -0.4293(8) 1.1498(5) 0.9840(4)
C19 C -0.5642(8) 1.2278(5) 0.9953(5)
C20 C -0.5658(13) 1.3221(7) 0.9694(6)
C21 C -0.3903(8) 1.0734(5) 1.0441(4)
C22 C -0.4651(9) 1.0624(5) 1.1266(4)
C23 C -0.4206(8) 0.9900(5) 1.1859(4)
C24 C -0.4979(9) 0.9890(5) 1.2736(4)
C25 C -0.6410(9) 1.0582(5) 1.3088(4)
C26 C -0.4103(9) 0.9145(5) 1.3123(4)
C27 C -0.4310(8) 0.8808(5) 1.4036(4)
C28 C -0.5566(9) 0.8140(6) 1.4212(5)
C29 C -0.7190(9) 0.8682(5) 1.4483(4)
C30 C -0.9901(17) 0.8890(13) 1.4282(13)
O5 O -0.8291(9) 0.8385(7) 1.4058(7)
O6 O -0.7457(6) 0.9343(4) 1.4987(3)
C31 C -0.2911(8) 0.8658(5) 1.2475(4)
C32 C -0.1885(9) 0.7809(5) 1.2608(4)
C33 C -0.0864(8) 0.7239(5) 1.1999(4)
C34 C 0.0073(9) 0.6308(5) 1.2108(4)
C35 C 0.0283(9) 0.5801(5) 1.2955(4)
C36 C 0.1749(9) 0.6055(6) 1.3366(4)
C37 C 0.1596(10) 0.5989(6) 1.4316(5)
C38 C 0.2960(11) 0.5695(7) 1.5571(4)
O7 O 0.0355(8) 0.6141(6) 1.4757(3)
O8 O 0.2988(6) 0.5746(4) 1.4636(3)
C39 C 0.0842(9) 0.6000(5) 1.1324(4)
C40 C 0.1922(8) 0.5080(5) 1.1095(4)
C41 C 0.0367(8) 0.6756(5) 1.0723(4)
C42 C 0.0920(8) 0.6761(5) 0.9858(4)
H3 H 0.3693 0.7316 0.8578
H4 H 0.3424 0.8429 0.6393
H5 H 0.1328 0.9496 0.7187
H6 H 0.3671 0.4145 0.7050
H7 H 0.4932 0.4282 0.7695
H8 H 0.3171 0.4174 0.8034
H9 H 0.7448 0.6995 0.5201
H10 H 0.8065 0.7041 0.6109
H11 H 0.7458 0.6095 0.5814
H12 H -0.0851 0.7133 0.7999
H13 H 0.0529 0.6927 0.7263
H14 H 0.0429 0.6192 0.8025
H15 H -0.0756 1.0257 0.8176
H16 H -0.3976 1.2440 0.8354
H17 H -0.2131 1.2069 0.8203
H18 H -0.3360 1.1476 0.7838
H19 H -0.6610 1.2122 1.0250
H20 H -0.4712 1.3406 0.9395
H21 H -0.6602 1.3696 0.9802
H22 H -0.5577 1.1091 1.1438
H23 H -0.6691 1.0420 1.3671
H24 H -0.6139 1.1231 1.3061
H25 H -0.7304 1.0552 1.2758
H26 H -0.4612 0.9372 1.4395
H27 H -0.3295 0.8481 1.4193
H28 H -0.5234 0.7674 1.4642
H29 H -0.5644 0.7790 1.3698
H30 H -1.0616 0.8626 1.3937
H31 H -1.0316 0.8893 1.4870
H32 H -0.9808 0.9545 1.4102
H33 H -0.1882 0.7581 1.3187
H34 H 0.0424 0.5108 1.2871
H35 H -0.0666 0.5984 1.3332
H36 H 0.1874 0.6710 1.3202
H37 H 0.2696 0.5631 1.3147
H38 H 0.4024 0.5499 1.5740
H39 H 0.2538 0.6328 1.5803
H40 H 0.2284 0.5232 1.5783
H41 H 0.2053 0.4696 1.1603
H42 H 0.1479 0.4721 1.0680
H43 H 0.2945 0.5230 1.0866
H44 H 0.1569 0.6175 0.9637
H1? H -0.2184 0.9540 1.0328
H2? H -0.1042 0.8059 1.0918
loop_
_geom_bond_atom_site_label_1
_geom_bond_atom_site_label_2
_geom_bond_site_symmetry_1
_geom_bond_site_symmetry_2
N1 C1 1_555 1_555
N2 C15 1_555 1_555
N3 C23 1_555 1_555
N4 C33 1_555 1_555
C1 C2 1_555 1_555
C2 C3 1_555 1_555
C3 C4 1_555 1_555
C4 C5 1_555 1_555
C5 C6 1_555 1_555
C6 C12 1_555 1_555
C7 C3 1_555 1_555
C8 O2 1_555 1_555
C9 C4 1_555 1_555
C10 O4 1_555 1_555
C11 C2 1_555 1_555
O1 C7 1_555 1_555
O2 C7 1_555 1_555
O3 C9 1_555 1_555
O4 C9 1_555 1_555
C12 C2 1_555 1_555
C13 N1 1_555 1_555
C14 C13 1_555 1_555
C15 C14 1_555 1_555
C16 C15 1_555 1_555
C17 C16 1_555 1_555
C18 C16 1_555 1_555
C19 C18 1_555 1_555
C20 C19 1_555 1_555
C21 N2 1_555 1_555
C22 C21 1_555 1_555
C23 C22 1_555 1_555
C24 C23 1_555 1_555
C25 C24 1_555 1_555
C26 C24 1_555 1_555
C27 C26 1_555 1_555
C28 C27 1_555 1_555
C29 C28 1_555 1_555
C30 O5 1_555 1_555
O5 C29 1_555 1_555
O6 C29 1_555 1_555
C31 N3 1_555 1_555
C32 C31 1_555 1_555
C33 C32 1_555 1_555
C34 C33 1_555 1_555
C35 C34 1_555 1_555
C36 C35 1_555 1_555
C37 C36 1_555 1_555
C38 O8 1_555 1_555
O7 C37 1_555 1_555
O8 C37 1_555 1_555
C39 C34 1_555 1_555
C40 C39 1_555 1_555
C41 N4 1_555 1_555
C42 C1 1_555 1_555
H3 C3 1_555 1_555
H4 C5 1_555 1_555
H5 C6 1_555 1_555
H6 C8 1_555 1_555
H7 C8 1_555 1_555
H8 C8 1_555 1_555
H9 C10 1_555 1_555
H10 C10 1_555 1_555
H11 C10 1_555 1_555
H12 C11 1_555 1_555
H13 C11 1_555 1_555
H14 C11 1_555 1_555
H15 C14 1_555 1_555
H16 C17 1_555 1_555
H17 C17 1_555 1_555
H18 C17 1_555 1_555
H19 C19 1_555 1_555
H20 C20 1_555 1_555
H21 C20 1_555 1_555
H22 C22 1_555 1_555
H23 C25 1_555 1_555
H24 C25 1_555 1_555
H25 C25 1_555 1_555
H26 C27 1_555 1_555
H27 C27 1_555 1_555
H28 C28 1_555 1_555
H29 C28 1_555 1_555
H30 C30 1_555 1_555
H31 C30 1_555 1_555
H32 C30 1_555 1_555
H33 C32 1_555 1_555
H34 C35 1_555 1_555
H35 C35 1_555 1_555
H36 C36 1_555 1_555
H37 C36 1_555 1_555
H38 C38 1_555 1_555
H39 C38 1_555 1_555
H40 C38 1_555 1_555
H41 C40 1_555 1_555
H42 C40 1_555 1_555
H43 C40 1_555 1_555
H44 C42 1_555 1_555
C12 C13 1_555 1_555
C18 C21 1_555 1_555
C26 C31 1_555 1_555
C39 C41 1_555 1_555
C41 C42 1_555 1_555

#END
