
#######################################################################
#
#                 Cambridge Crystallographic Data Centre
#                                CCDC 
#
#######################################################################
#
# If this CIF has been generated from an entry in the Cambridge 
# Structural Database, then it will include bibliographic, chemical, 
# crystal, experimental, refinement or atomic coordinate data resulting 
# from the CCDC's data processing and validation procedures.
#
#######################################################################

data_PIRJEH
_chemical_formula_moiety         'C15 H8 Br1 F3'
_chemical_name_systematic        
1-Bromo-4-(phenylethynyl)-2-(trifluoromethyl)benzene
_symmetry_cell_setting           monoclinic
_symmetry_space_group_name_H-M   'P 21/n'
_symmetry_Int_Tables_number      14
_space_group_name_Hall           '-P 2yn'
loop_
_symmetry_equiv_pos_site_id
_symmetry_equiv_pos_as_xyz
1 x,y,z
2 1/2-x,1/2+y,1/2-z
3 -x,-y,-z
4 1/2+x,1/2-y,1/2+z
_cell_length_a                   15.7291(3)
_cell_length_b                   4.7582(1)
_cell_length_c                   16.7839(3)
_cell_angle_alpha                90
_cell_angle_beta                 98.317(1)
_cell_angle_gamma                90
_cell_volume                     1242.93
_exptl_crystal_colour            colorless
_exptl_crystal_description       plate
_cell_formula_units_Z            4
loop_
_atom_site_label
_atom_site_type_symbol
_atom_site_fract_x
_atom_site_fract_y
_atom_site_fract_z
Br1 Br 0.282640(12) 0.17827(4) 1.174417(10)
C1 C 0.36072(11) 0.9746(4) 0.90881(10)
C2 C 0.37898(11) 1.1180(4) 0.85537(10)
C3 C 0.40210(11) 1.2819(4) 0.78990(10)
C4 C 0.34602(11) 1.4803(4) 0.75078(10)
H1 H 0.2916 1.5100 0.7676
C5 C 0.36925(12) 1.6344(4) 0.68749(11)
H2 H 0.3305 1.7686 0.6606
C6 C 0.44868(12) 1.5940(4) 0.66318(11)
H3 H 0.4646 1.7012 0.6200
C7 C 0.50463(12) 1.3981(4) 0.70167(11)
H4 H 0.5593 1.3711 0.6850
C8 C 0.48173(11) 1.2408(4) 0.76427(11)
H5 H 0.5203 1.1040 0.7900
C9 C 0.34091(11) 0.7898(3) 0.97105(10)
C10 C 0.40616(11) 0.6674(4) 1.02471(11)
H6 H 0.4644 0.7116 1.0211
C11 C 0.38737(11) 0.4826(4) 1.08304(10)
H7 H 0.4325 0.3962 1.1183
C12 C 0.30288(11) 0.4233(3) 1.09015(9)
C13 C 0.23611(10) 0.5454(3) 1.03778(9)
C14 C 0.25574(11) 0.7264(4) 0.97835(10)
H8 H 0.2106 0.8084 0.9421
C15 C 0.14363(11) 0.4939(4) 1.04520(10)
F1 F 0.12269(7) 0.2207(2) 1.03962(7)
F2 F 0.12383(7) 0.5847(2) 1.11580(7)
F3 F 0.09065(6) 0.6250(2) 0.98772(7)
loop_
_geom_bond_atom_site_label_1
_geom_bond_atom_site_label_2
_geom_bond_site_symmetry_1
_geom_bond_site_symmetry_2
Br1 C12 1_555 1_555
C1 C2 1_555 1_555
C2 C3 1_555 1_555
C3 C4 1_555 1_555
C4 H1 1_555 1_555
C5 C4 1_555 1_555
H2 C5 1_555 1_555
C6 C5 1_555 1_555
H3 C6 1_555 1_555
C7 C6 1_555 1_555
H4 C7 1_555 1_555
C8 C3 1_555 1_555
H5 C8 1_555 1_555
C9 C1 1_555 1_555
C10 C9 1_555 1_555
H6 C10 1_555 1_555
C11 C10 1_555 1_555
H7 C11 1_555 1_555
C12 C11 1_555 1_555
C13 C12 1_555 1_555
C14 C9 1_555 1_555
H8 C14 1_555 1_555
C15 C13 1_555 1_555
F1 C15 1_555 1_555
F2 C15 1_555 1_555
F3 C15 1_555 1_555
C7 C8 1_555 1_555
C13 C14 1_555 1_555

#END
