
#######################################################################
#
#                 Cambridge Crystallographic Data Centre
#                                CCDC 
#
#######################################################################
#
# If this CIF has been generated from an entry in the Cambridge 
# Structural Database, then it will include bibliographic, chemical, 
# crystal, experimental, refinement or atomic coordinate data resulting 
# from the CCDC's data processing and validation procedures.
#
#######################################################################

data_PITHOS
_chemical_formula_moiety         'C18 H15 Cl1 N2 O5'
_chemical_name_systematic        
'methyl 3-(3-chlorophenyl)-3a-nitro-2,3,3a,8b-tetrahydro-1H-[1]benzofuro[2,3-c]pyrrole-1-carboxylate'
_symmetry_cell_setting           trigonal
_symmetry_space_group_name_H-M   'P 32'
_symmetry_Int_Tables_number      145
_space_group_name_Hall           'P 32'
loop_
_symmetry_equiv_pos_site_id
_symmetry_equiv_pos_as_xyz
1 x,y,z
2 -y,x-y,2/3+z
3 -x+y,-x,1/3+z
_cell_length_a                   11.0671(2)
_cell_length_b                   11.0671(2)
_cell_length_c                   11.8214(2)
_cell_angle_alpha                90
_cell_angle_beta                 90
_cell_angle_gamma                120
_cell_volume                     1253.91
_exptl_crystal_colour            colorless
_exptl_crystal_description       block
_cell_formula_units_Z            3
loop_
_atom_site_label
_atom_site_type_symbol
_atom_site_fract_x
_atom_site_fract_y
_atom_site_fract_z
Cl1 Cl 0.48205(6) 0.79278(6) 0.74310(5)
O1 O 0.54994(16) 0.43678(16) 0.52390(13)
O2 O 0.1261(2) 0.2038(2) 0.46076(17)
O3 O 0.13319(18) 0.08026(19) 0.31238(15)
O4 O 0.70545(19) 0.5147(2) 0.25708(14)
O5 O 0.79099(19) 0.5562(2) 0.42549(16)
N1 N 0.6941(2) 0.5105(2) 0.35987(16)
N2 N 0.3340(2) 0.4457(2) 0.3696(2)
C1 C 0.3663(2) 0.0669(2) 0.4688(2)
H1 H 0.326097 0.008335 0.406861
C2 C 0.4886(2) 0.6707(2) 0.5467(2)
H2 H 0.429022 0.586510 0.582194
C3 C 0.4298(2) 0.2108(2) 0.45706(19)
C4 C 0.4909(2) 0.2954(2) 0.55032(19)
C5 C 0.3643(3) 0.0123(3) 0.5754(2)
H3 H 0.321463 -0.083778 0.585070
C6 C 0.5447(2) 0.4475(2) 0.40582(18)
C7 C 0.1793(2) 0.1944(2) 0.3748(2)
C8 C 0.5323(2) 0.6728(2) 0.4360(2)
C9 C 0.4915(2) 0.2455(2) 0.65674(19)
H4 H 0.533340 0.304883 0.717914
C10 C 0.5348(2) 0.7957(3) 0.6033(2)
C11 C 0.4454(2) 0.3014(2) 0.35731(18)
H5 H 0.485097 0.280062 0.291383
C12 C 0.4839(2) 0.5410(2) 0.36849(19)
H6 H 0.511700 0.568175 0.289691
C13 C 0.4258(2) 0.1003(2) 0.6678(2)
H7 H 0.423050 0.061741 0.738287
C14 C 0.6231(3) 0.8002(3) 0.3853(2)
H8 H 0.654046 0.802287 0.311839
C15 C 0.3123(2) 0.3129(2) 0.3257(2)
H9 H 0.303612 0.312331 0.243201
C16 C 0.6676(3) 0.9244(3) 0.4441(3)
H10 H 0.727953 1.008969 0.409399
C17 C 0.6233(3) 0.9234(3) 0.5530(3)
H11 H 0.651977 1.006354 0.592053
C18 C 0.0095(3) -0.0427(3) 0.3544(3)
H12 H -0.030451 -0.110736 0.295068
H13 H -0.057331 -0.017321 0.379352
H14 H 0.034640 -0.081474 0.416690
H15 H 0.301(3) 0.435(3) 0.432(3)
loop_
_geom_bond_atom_site_label_1
_geom_bond_atom_site_label_2
_geom_bond_site_symmetry_1
_geom_bond_site_symmetry_2
Cl1 C10 1_555 1_555
O1 C4 1_555 1_555
O2 C7 1_555 1_555
O3 C7 1_555 1_555
O4 N1 1_555 1_555
O5 N1 1_555 1_555
N1 C6 1_555 1_555
N2 C12 1_555 1_555
C1 H1 1_555 1_555
C2 H2 1_555 1_555
C3 C1 1_555 1_555
C4 C3 1_555 1_555
C5 C1 1_555 1_555
H3 C5 1_555 1_555
C6 O1 1_555 1_555
C7 C15 1_555 1_555
C8 C2 1_555 1_555
C9 C4 1_555 1_555
H4 C9 1_555 1_555
C10 C2 1_555 1_555
C11 C3 1_555 1_555
H5 C11 1_555 1_555
C12 C6 1_555 1_555
H6 C12 1_555 1_555
C13 C5 1_555 1_555
H7 C13 1_555 1_555
C14 C8 1_555 1_555
H8 C14 1_555 1_555
C15 N2 1_555 1_555
H9 C15 1_555 1_555
C16 C14 1_555 1_555
H10 C16 1_555 1_555
C17 C10 1_555 1_555
H11 C17 1_555 1_555
C18 O3 1_555 1_555
H12 C18 1_555 1_555
H13 C18 1_555 1_555
H14 C18 1_555 1_555
H15 N2 1_555 1_555
C6 C11 1_555 1_555
C8 C12 1_555 1_555
C9 C13 1_555 1_555
C11 C15 1_555 1_555
C16 C17 1_555 1_555

#END
