
#######################################################################
#
#                 Cambridge Crystallographic Data Centre
#                                CCDC 
#
#######################################################################
#
# If this CIF has been generated from an entry in the Cambridge 
# Structural Database, then it will include bibliographic, chemical, 
# crystal, experimental, refinement or atomic coordinate data resulting 
# from the CCDC's data processing and validation procedures.
#
#######################################################################

data_PITSER
_chemical_name_common            
'(24-hexakis(4-amino-2-methyl-1,5-pyridinium)-crown-6) bis(acetylenedicarboxylate) dinitrate heptahydrate'
_chemical_formula_moiety         
'C36 H48 N18 6+,2(C4 O4 2-),2(N1 O3 1-),7(H2 O1)'
_chemical_name_systematic        
'1^4^,3^4^,5^4^,7^4^,9^4^,11^4^-hexa-amino-1^2^,3^2^,5^2^,7^2^,9^2^,11^2^-hexamethyl-1,3,5,7,9,11(1,5)hexapyrimidiniocyclododecaphane bis(acetylenedicarboxylate) dinitrate heptahydrate'
_symmetry_cell_setting           triclinic
_symmetry_space_group_name_H-M   'P -1'
_symmetry_Int_Tables_number      2
_space_group_name_Hall           '-P 1'
loop_
_symmetry_equiv_pos_site_id
_symmetry_equiv_pos_as_xyz
1 x,y,z
2 -x,-y,-z
_cell_length_a                   9.731(8)
_cell_length_b                   10.953(9)
_cell_length_c                   14.270(14)
_cell_angle_alpha                108.060(10)
_cell_angle_beta                 94.86
_cell_angle_gamma                99.010(10)
_cell_volume                     1413.72
_exptl_crystal_colour            colorless
_exptl_crystal_description       block
_cell_formula_units_Z            1
loop_
_atom_site_label
_atom_site_type_symbol
_atom_site_fract_x
_atom_site_fract_y
_atom_site_fract_z
N1 N -0.1098(3) 0.9192(3) 0.1963(2)
C1 C -0.2443(4) 0.8981(4) 0.1496(3)
N2 N -0.3336(3) 0.7871(3) 0.1348(2)
C2 C -0.2927(4) 0.6905(4) 0.1629(3)
C3 C -0.1540(4) 0.7081(4) 0.2125(3)
C4 C -0.0687(4) 0.8255(4) 0.2280(3)
H1 H 0.0217 0.8415 0.2619
C5 C -0.2924(5) 1.0030(5) 0.1172(4)
H2 H -0.3921 0.9798 0.0963
H3 H -0.2455 1.0129 0.0627
H4 H -0.2705 1.0839 0.1717
N3 N -0.3876(4) 0.5803(4) 0.1453(3)
H5 H -0.4714 0.5731 0.1170
H6 H -0.3646 0.5166 0.1624
C6 C -0.1034(4) 0.6056(4) 0.2499(3)
H7 H -0.1284 0.5214 0.1974
H8 H -0.0017 0.6272 0.2653
N4 N 0.3279(3) 1.1438(3) 0.3814(2)
C7 C 0.4088(4) 1.0667(4) 0.3242(3)
N5 N 0.3611(3) 0.9881(4) 0.2331(2)
C8 C 0.2272(4) 0.9811(4) 0.1923(3)
C9 C 0.1357(4) 1.0520(4) 0.2513(3)
C10 C 0.1916(4) 1.1300(4) 0.3454(3)
H9 H 0.1340 1.1754 0.3863
C11 C 0.5551(5) 1.0701(6) 0.3667(4)
H10 H 0.5924 1.0017 0.3226
H11 H 0.5547 1.0576 0.4304
H12 H 0.6126 1.1533 0.3746
N6 N 0.1888(4) 0.9028(4) 0.0998(2)
H13 H 0.2472 0.8596 0.0687
H14 H 0.1054 0.8948 0.0705
C12 C -0.0121(4) 1.0484(4) 0.2123(3)
H15 H -0.0136 1.0655 0.1495
H16 H -0.0472 1.1178 0.2587
N7 N -0.1642(3) 0.5944(3) 0.3406(2)
C13 C -0.1385(4) 0.4981(4) 0.3786(3)
N8 N -0.1902(4) 0.4843(3) 0.4576(2)
C14 C -0.2751(4) 0.5638(4) 0.5027(3)
C15 C -0.2993(4) 0.6712(4) 0.4701(3)
C16 C -0.2394(4) 0.6821(4) 0.3894(3)
H17 H -0.2504 0.7518 0.3671
C17 C -0.0504(5) 0.4058(5) 0.3278(3)
H18 H -0.0387 0.3462 0.3637
H19 H -0.0955 0.3575 0.2612
H20 H 0.0400 0.4540 0.3257
N9 N -0.3298(4) 0.5409(4) 0.5791(3)
H21 H -0.3107 0.4774 0.5980
H22 H -0.3844 0.5895 0.6097
C18 C 0.3896(4) 1.2351(4) 0.4839(3)
H23 H 0.4061 1.1837 0.5267
H24 H 0.4798 1.2844 0.4803
N1A N 0.1098(3) 1.0808(3) 0.8037(2)
C1A C 0.2443(4) 1.1019(4) 0.8504(3)
N2A N 0.3336(3) 1.2129(3) 0.8652(2)
C2A C 0.2927(4) 1.3095(4) 0.8371(3)
C3A C 0.1540(4) 1.2919(4) 0.7875(3)
C4A C 0.0687(4) 1.1745(4) 0.7720(3)
H1A H -0.0217 1.1585 0.7381
C5A C 0.2924(5) 0.9970(5) 0.8828(4)
H2A H 0.3921 1.0202 0.9037
H3A H 0.2455 0.9871 0.9373
H4A H 0.2705 0.9161 0.8283
N3A N 0.3876(4) 1.4197(4) 0.8547(3)
H5A H 0.4714 1.4269 0.8830
H6A H 0.3646 1.4834 0.8376
C6A C 0.1034(4) 1.3944(4) 0.7501(3)
H7A H 0.1284 1.4786 0.8026
H8A H 0.0017 1.3728 0.7347
N4A N -0.3279(3) 0.8562(3) 0.6186(2)
C7A C -0.4088(4) 0.9333(4) 0.6758(3)
N5A N -0.3611(3) 1.0119(4) 0.7669(2)
C8A C -0.2272(4) 1.0189(4) 0.8077(3)
C9A C -0.1357(4) 0.9480(4) 0.7487(3)
C10A C -0.1916(4) 0.8700(4) 0.6546(3)
H9A H -0.1340 0.8246 0.6137
C11A C -0.5551(5) 0.9299(6) 0.6333(4)
H10A H -0.5924 0.9983 0.6774
H11A H -0.5547 0.9424 0.5696
H12A H -0.6126 0.8467 0.6254
N6A N -0.1888(4) 1.0972(4) 0.9002(2)
H13A H -0.2472 1.1404 0.9313
H14A H -0.1054 1.1052 0.9295
C12A C 0.0121(4) 0.9516(4) 0.7877(3)
H15A H 0.0136 0.9345 0.8505
H16A H 0.0472 0.8822 0.7413
N7A N 0.1642(3) 1.4056(3) 0.6594(2)
C13A C 0.1385(4) 1.5019(4) 0.6214(3)
N8A N 0.1902(4) 1.5157(3) 0.5424(2)
C14A C 0.2751(4) 1.4362(4) 0.4973(3)
C15A C 0.2993(4) 1.3288(4) 0.5299(3)
C16A C 0.2394(4) 1.3179(4) 0.6106(3)
H17A H 0.2504 1.2482 0.6329
C17A C 0.0504(5) 1.5942(5) 0.6722(3)
H18A H 0.0387 1.6538 0.6363
H19A H 0.0955 1.6425 0.7388
H20A H -0.0400 1.5460 0.6743
N9A N 0.3298(4) 1.4591(4) 0.4209(3)
H21A H 0.3107 1.5226 0.4020
H22A H 0.3844 1.4105 0.3903
C18A C -0.3896(4) 0.7649(4) 0.5161(3)
H23A H -0.4061 0.8163 0.4733
H24A H -0.4798 0.7156 0.5197
N10 N -0.1320(4) 1.0944(4) 0.4913(3)
O1 O -0.1453(5) 0.9975(5) 0.4165(4)
O2 O -0.1944(5) 1.0933(5) 0.5634(3)
O3 O -0.0580(5) 1.1996(5) 0.4938(5)
C19 C -0.5300(5) 0.6726(4) -0.2311(3)
O7 O -0.6353(3) 0.6599(3) -0.1865(2)
O8 O -0.5329(3) 0.6606(4) -0.3199(2)
C20 C -0.3912(5) 0.7027(5) -0.1719(3)
C21 C -0.2759(5) 0.7202(5) -0.1254(3)
C22 C -0.1359(5) 0.7368(6) -0.0690(4)
O9 O -0.1009(7) 0.6360(5) -0.0704(6)
O10 O -0.0716(3) 0.8490(3) -0.0256(2)
O11 O 0.3896(4) 0.7572(4) 0.0140(3)
O12 O 0.3050(7) 1.6751(5) 0.3509(3)
H25 H 0.256(9) 1.741(8) 0.388(6)
H26 H 0.332(10) 1.655(9) 0.294(5)
O13 O -0.6845(5) 0.5961(5) 0.1366(4)
H27 H -0.647(8) 0.695(5) 0.167(7)
H28 H -0.781(5) 0.565(7) 0.125(7)
O14 O 0.0961(16) 0.5314(18) -0.0182(14)
O4? O -0.183(5) 0.974(6) 0.473(5)
O5? O -0.104(6) 1.200(6) 0.571(4)
O6? O -0.094(5) 1.143(6) 0.429(5)
O15? O 0.062(5) 0.585(4) 0.068(4)
loop_
_geom_bond_atom_site_label_1
_geom_bond_atom_site_label_2
_geom_bond_site_symmetry_1
_geom_bond_site_symmetry_2
N1 C1 1_555 1_555
C1 N2 1_555 1_555
N2 C2 1_555 1_555
C2 C3 1_555 1_555
C3 C4 1_555 1_555
C4 N1 1_555 1_555
H1 C4 1_555 1_555
C5 C1 1_555 1_555
H2 C5 1_555 1_555
H3 C5 1_555 1_555
H4 C5 1_555 1_555
N3 C2 1_555 1_555
H5 N3 1_555 1_555
H6 N3 1_555 1_555
C6 C3 1_555 1_555
H7 C6 1_555 1_555
H8 C6 1_555 1_555
N4 C7 1_555 1_555
C7 N5 1_555 1_555
N5 C8 1_555 1_555
C8 C9 1_555 1_555
C9 C10 1_555 1_555
C10 N4 1_555 1_555
H9 C10 1_555 1_555
C11 C7 1_555 1_555
H10 C11 1_555 1_555
H11 C11 1_555 1_555
H12 C11 1_555 1_555
N6 C8 1_555 1_555
H13 N6 1_555 1_555
H14 N6 1_555 1_555
C12 N1 1_555 1_555
H15 C12 1_555 1_555
H16 C12 1_555 1_555
N7 C6 1_555 1_555
C13 N7 1_555 1_555
N8 C13 1_555 1_555
C14 N8 1_555 1_555
C15 C14 1_555 1_555
C16 N7 1_555 1_555
H17 C16 1_555 1_555
C17 C13 1_555 1_555
H18 C17 1_555 1_555
H19 C17 1_555 1_555
H20 C17 1_555 1_555
N9 C14 1_555 1_555
H21 N9 1_555 1_555
H22 N9 1_555 1_555
C18 N4 1_555 1_555
H23 C18 1_555 1_555
H24 C18 1_555 1_555
N10 O1 1_555 1_555
O2 N10 1_555 1_555
O3 N10 1_555 1_555
C19 O7 1_555 1_555
O8 C19 1_555 1_555
C20 C19 1_555 1_555
C21 C20 1_555 1_555
C22 C21 1_555 1_555
O9 C22 1_555 1_555
O10 C22 1_555 1_555
O12 H25 1_555 1_555
H26 O12 1_555 1_555
O13 H27 1_555 1_555
H28 O13 1_555 1_555
N1A C1A 1_555 1_555
C1A N2A 1_555 1_555
N2A C2A 1_555 1_555
C2A C3A 1_555 1_555
C3A C4A 1_555 1_555
C4A N1A 1_555 1_555
H1A C4A 1_555 1_555
C5A C1A 1_555 1_555
H2A C5A 1_555 1_555
H3A C5A 1_555 1_555
H4A C5A 1_555 1_555
N3A C2A 1_555 1_555
H5A N3A 1_555 1_555
H6A N3A 1_555 1_555
C6A C3A 1_555 1_555
H7A C6A 1_555 1_555
H8A C6A 1_555 1_555
N4A C7A 1_555 1_555
C7A N5A 1_555 1_555
N5A C8A 1_555 1_555
C8A C9A 1_555 1_555
C9A C10A 1_555 1_555
C10A N4A 1_555 1_555
H9A C10A 1_555 1_555
C11A C7A 1_555 1_555
H10A C11A 1_555 1_555
H11A C11A 1_555 1_555
H12A C11A 1_555 1_555
N6A C8A 1_555 1_555
H13A N6A 1_555 1_555
H14A N6A 1_555 1_555
C12A N1A 1_555 1_555
H15A C12A 1_555 1_555
H16A C12A 1_555 1_555
N7A C6A 1_555 1_555
C13A N7A 1_555 1_555
N8A C13A 1_555 1_555
C14A N8A 1_555 1_555
C15A C18 1_555 1_555
C16A N7A 1_555 1_555
H17A C16A 1_555 1_555
C17A C13A 1_555 1_555
H18A C17A 1_555 1_555
H19A C17A 1_555 1_555
H20A C17A 1_555 1_555
N9A C14A 1_555 1_555
H21A N9A 1_555 1_555
H22A N9A 1_555 1_555
C18A C15 1_555 1_555
H23A C18A 1_555 1_555
H24A C18A 1_555 1_555
C9 C12 1_555 1_555
C15 C16 1_555 1_555
N4A C18A 1_555 1_555
C9A C12A 1_555 1_555
C14A C15A 1_555 1_555
C15A C16A 1_555 1_555

#END
