
#######################################################################
#
#                 Cambridge Crystallographic Data Centre
#                                CCDC 
#
#######################################################################
#
# If this CIF has been generated from an entry in the Cambridge 
# Structural Database, then it will include bibliographic, chemical, 
# crystal, experimental, refinement or atomic coordinate data resulting 
# from the CCDC's data processing and validation procedures.
#
#######################################################################

data_PIVHUA
_chemical_formula_moiety         'C12 H20 N2 O3'
_chemical_name_systematic        
't-butyl (5-ethenyl-5-methyl-2-oxopyrrolidin-3-yl)carbamate'
_symmetry_cell_setting           triclinic
_symmetry_space_group_name_H-M   'P -1'
_symmetry_Int_Tables_number      2
_space_group_name_Hall           '-P 1'
loop_
_symmetry_equiv_pos_site_id
_symmetry_equiv_pos_as_xyz
1 x,y,z
2 -x,-y,-z
_cell_length_a                   11.5760(5)
_cell_length_b                   11.9471(5)
_cell_length_c                   21.6725(9)
_cell_angle_alpha                102.6430(10)
_cell_angle_beta                 95.407(2)
_cell_angle_gamma                90.8000(10)
_cell_volume                     2909.76
_exptl_crystal_colour            colorless
_exptl_crystal_description       prismatic
_cell_formula_units_Z            8
loop_
_atom_site_label
_atom_site_type_symbol
_atom_site_fract_x
_atom_site_fract_y
_atom_site_fract_z
N1 N 0.7210(2) 0.49723(17) 0.68150(9)
N2 N 0.91674(19) 0.70974(17) 0.66624(10)
O1 O 0.77478(15) 0.65604(13) 0.75931(7)
O2 O 1.05034(17) 0.65803(14) 0.59685(9)
O3 O 1.01181(16) 0.84482(13) 0.63523(8)
C1 C 0.7891(2) 0.58793(19) 0.70917(11)
C2 C 0.8888(2) 0.59262(18) 0.66907(11)
H1 H 0.9572 0.5597 0.6876
C3 C 0.8447(3) 0.5144(2) 0.60619(12)
H2 H 0.9083 0.4761 0.5852
H3 H 0.8038 0.5574 0.5783
C4 C 0.7618(3) 0.4271(2) 0.62383(12)
C5 C 0.8254(3) 0.3249(3) 0.63805(18)
H4 H 0.8591 0.2795 0.6044
C6 C 0.8386(4) 0.2931(3) 0.6908(2)
H5 H 0.8069 0.3351 0.7262
H6 H 0.8799 0.2280 0.6938
C7 C 0.6606(3) 0.3882(3) 0.57332(14)
H7 H 0.6093 0.3374 0.5875
H8 H 0.6894 0.3488 0.5346
H9 H 0.6192 0.4539 0.5660
C8 C 0.9989(2) 0.7317(2) 0.63020(11)
C9 C 1.0930(2) 0.8919(2) 0.59922(13)
C10 C 1.0759(3) 1.0196(2) 0.61970(16)
H10 H 0.9959 1.0354 0.6101
H11 H 1.1238 1.0600 0.5974
H12 H 1.0971 1.0443 0.6646
C11 C 1.2149(3) 0.8634(3) 0.6179(2)
H13 H 1.2272 0.8746 0.6633
H14 H 1.2681 0.9126 0.6039
H15 H 1.2276 0.7848 0.5986
C12 C 1.0560(3) 0.8506(3) 0.52869(14)
H16 H 1.0706 0.7703 0.5158
H17 H 1.0994 0.8929 0.5052
H18 H 0.9747 0.8623 0.5204
H19 H 0.893(2) 0.765(2) 0.6943(11)
H20 H 0.660(3) 0.475(2) 0.7029(13)
N3 N 0.66298(19) 0.54786(16) 0.84648(8)
N4 N 0.50585(18) 0.29929(15) 0.85270(10)
O4 O 0.56321(16) 0.42701(13) 0.76129(7)
O5 O 0.33551(16) 0.30766(14) 0.89606(9)
O6 O 0.40232(16) 0.14076(13) 0.84101(8)
C13 C 0.5865(2) 0.46417(18) 0.81869(10)
C14 C 0.5326(2) 0.42041(17) 0.87026(10)
H21 H 0.4603 0.4603 0.8783
C15 C 0.6211(2) 0.4627(2) 0.92766(11)
H22 H 0.6810 0.4074 0.9299
H23 H 0.5840 0.4769 0.9668
C16 C 0.6718(2) 0.5747(2) 0.91570(10)
C17 C 0.5988(3) 0.6745(2) 0.94108(14)
H24 H 0.5966 0.6943 0.9849
C18 C 0.5390(4) 0.7355(3) 0.9081(2)
H25 H 0.5384 0.7191 0.8640
H26 H 0.4965 0.7958 0.9283
C19 C 0.7976(3) 0.5999(3) 0.94398(14)
H27 H 0.8437 0.5361 0.9276
H28 H 0.8015 0.6118 0.9894
H29 H 0.8267 0.6676 0.9328
C20 C 0.4071(2) 0.25388(18) 0.86569(10)
C21 C 0.3019(3) 0.0680(2) 0.84637(13)
C22 C 0.1964(3) 0.1038(3) 0.81087(18)
H30 H 0.1692 0.1736 0.8353
H31 H 0.1366 0.0446 0.8039
H32 H 0.2160 0.1160 0.7707
C23 C 0.3384(4) -0.0493(2) 0.81305(18)
H33 H 0.3512 -0.0483 0.7700
H34 H 0.2784 -0.1055 0.8131
H35 H 0.4089 -0.0683 0.8350
C24 C 0.2870(4) 0.0714(3) 0.91474(14)
H36 H 0.3601 0.0582 0.9364
H37 H 0.2311 0.0128 0.9172
H38 H 0.2604 0.1452 0.9343
H39 H 0.543(2) 0.2574(19) 0.8256(11)
H40 H 0.699(2) 0.590(2) 0.8227(12)
N5 N 0.6773(2) 0.00574(16) 0.67955(9)
N6 N 0.47910(19) 0.21573(17) 0.66611(10)
O7 O 0.63874(15) 0.15227(13) 0.76099(7)
O8 O 0.32383(17) 0.17135(15) 0.59309(9)
O9 O 0.37922(16) 0.35535(14) 0.63975(9)
C25 C 0.6145(2) 0.09014(18) 0.70768(11)
C26 C 0.5077(2) 0.09814(18) 0.66330(11)
H41 H 0.4423 0.0576 0.6754
C27 C 0.5408(3) 0.0328(2) 0.59989(12)
H42 H 0.5747 0.0844 0.5771
H43 H 0.4734 -0.0070 0.5740
C28 C 0.6300(3) -0.0531(2) 0.61596(13)
C29 C 0.5726(4) -0.1648(3) 0.6162(2)
H44 H 0.5355 -0.2059 0.5778
C30 C 0.5697(5) -0.2098(4) 0.6649(3)
H45 H 0.6057 -0.1716 0.7042
H46 H 0.5316 -0.2805 0.6607
C31 C 0.7263(3) -0.0691(3) 0.57161(14)
H47 H 0.7636 0.0039 0.5732
H48 H 0.6936 -0.1014 0.5289
H49 H 0.7823 -0.1199 0.5848
C32 C 0.3872(2) 0.24151(19) 0.62984(11)
C33 C 0.2811(3) 0.4094(2) 0.61361(13)
C34 C 0.1737(4) 0.3753(3) 0.6385(2)
H50 H 0.1498 0.2982 0.6170
H51 H 0.1132 0.4265 0.6314
H52 H 0.1887 0.3791 0.6833
C35 C 0.3110(4) 0.5354(3) 0.6393(2)
H53 H 0.3298 0.5495 0.6845
H54 H 0.2458 0.5797 0.6299
H55 H 0.3765 0.5571 0.6200
C36 C 0.2721(5) 0.3816(4) 0.54283(16)
H56 H 0.3462 0.3956 0.5289
H57 H 0.2157 0.4290 0.5268
H58 H 0.2487 0.3023 0.5271
H59 H 0.508(2) 0.269(2) 0.6981(12)
H60 H 0.744(2) -0.018(2) 0.6998(13)
N7 N 0.7841(2) 1.04264(17) 0.84355(9)
N8 N 0.94331(19) 0.79963(15) 0.85043(10)
O10 O 0.85732(16) 0.92760(13) 0.75889(7)
O11 O 1.12381(17) 0.81007(14) 0.90105(9)
O12 O 1.03839(15) 0.64170(12) 0.84451(8)
C37 C 0.8521(2) 0.96230(17) 0.81617(10)
C38 C 0.9232(2) 0.92020(17) 0.86816(10)
H61 H 0.9986 0.9619 0.8767
C39 C 0.8548(2) 0.9598(2) 0.92509(11)
H62 H 0.9057 0.9756 0.9644
H63 H 0.7961 0.9023 0.9271
C40 C 0.7989(2) 1.0697(2) 0.91307(10)
C41 C 0.8810(3) 1.1726(2) 0.93853(14)
H64 H 0.8993 1.1925 0.9823
C42 C 0.9284(4) 1.2356(3) 0.9058(2)
H65 H 0.9130 1.2194 0.8618
H66 H 0.9779 1.2972 0.9262
C43 C 0.6830(3) 1.0904(3) 0.94039(14)
H67 H 0.6479 1.1550 0.9273
H68 H 0.6950 1.1059 0.9859
H69 H 0.6327 1.0235 0.9252
C44 C 1.0434(2) 0.75572(18) 0.86813(11)
C45 C 1.1397(3) 0.5710(2) 0.85246(12)
C46 C 1.2358(3) 0.6088(3) 0.81972(18)
H70 H 1.2057 0.6186 0.7785
H71 H 1.2938 0.5518 0.8151
H72 H 1.2697 0.6803 0.8444
C47 C 1.0914(3) 0.4523(2) 0.81847(16)
H73 H 1.0224 0.4351 0.8365
H74 H 1.1483 0.3964 0.8233
H75 H 1.0730 0.4505 0.7741
C48 C 1.1721(4) 0.5741(3) 0.92155(14)
H76 H 1.2068 0.6479 0.9421
H77 H 1.2265 0.5156 0.9256
H78 H 1.1037 0.5608 0.9412
H79 H 0.894(2) 0.755(2) 0.8208(11)
H80 H 0.746(2) 1.083(2) 0.8214(11)
loop_
_geom_bond_atom_site_label_1
_geom_bond_atom_site_label_2
_geom_bond_site_symmetry_1
_geom_bond_site_symmetry_2
N1 C1 1_555 1_555
N2 C2 1_555 1_555
O1 C1 1_555 1_555
O2 C8 1_555 1_555
O3 C8 1_555 1_555
C1 C2 1_555 1_555
C2 H1 1_555 1_555
C3 C2 1_555 1_555
H2 C3 1_555 1_555
H3 C3 1_555 1_555
C4 N1 1_555 1_555
C5 C4 1_555 1_555
H4 C5 1_555 1_555
C6 C5 1_555 1_555
H5 C6 1_555 1_555
H6 C6 1_555 1_555
C7 C4 1_555 1_555
H7 C7 1_555 1_555
H8 C7 1_555 1_555
H9 C7 1_555 1_555
C8 N2 1_555 1_555
C9 O3 1_555 1_555
C10 C9 1_555 1_555
H10 C10 1_555 1_555
H11 C10 1_555 1_555
H12 C10 1_555 1_555
C11 C9 1_555 1_555
H13 C11 1_555 1_555
H14 C11 1_555 1_555
H15 C11 1_555 1_555
C12 C9 1_555 1_555
H16 C12 1_555 1_555
H17 C12 1_555 1_555
H18 C12 1_555 1_555
H19 N2 1_555 1_555
H20 N1 1_555 1_555
N3 C13 1_555 1_555
N4 C14 1_555 1_555
O4 C13 1_555 1_555
O5 C20 1_555 1_555
O6 C20 1_555 1_555
C13 C14 1_555 1_555
C14 H21 1_555 1_555
C15 C14 1_555 1_555
H22 C15 1_555 1_555
H23 C15 1_555 1_555
C16 N3 1_555 1_555
C17 C16 1_555 1_555
H24 C17 1_555 1_555
C18 C17 1_555 1_555
H25 C18 1_555 1_555
H26 C18 1_555 1_555
C19 C16 1_555 1_555
H27 C19 1_555 1_555
H28 C19 1_555 1_555
H29 C19 1_555 1_555
C20 N4 1_555 1_555
C21 O6 1_555 1_555
C22 C21 1_555 1_555
H30 C22 1_555 1_555
H31 C22 1_555 1_555
H32 C22 1_555 1_555
C23 C21 1_555 1_555
H33 C23 1_555 1_555
H34 C23 1_555 1_555
H35 C23 1_555 1_555
C24 C21 1_555 1_555
H36 C24 1_555 1_555
H37 C24 1_555 1_555
H38 C24 1_555 1_555
H39 N4 1_555 1_555
H40 N3 1_555 1_555
N5 C25 1_555 1_555
N6 C26 1_555 1_555
O7 C25 1_555 1_555
O8 C32 1_555 1_555
O9 C32 1_555 1_555
C25 C26 1_555 1_555
C26 H41 1_555 1_555
C27 C26 1_555 1_555
H42 C27 1_555 1_555
H43 C27 1_555 1_555
C28 N5 1_555 1_555
C29 C28 1_555 1_555
H44 C29 1_555 1_555
C30 C29 1_555 1_555
H45 C30 1_555 1_555
H46 C30 1_555 1_555
C31 C28 1_555 1_555
H47 C31 1_555 1_555
H48 C31 1_555 1_555
H49 C31 1_555 1_555
C32 N6 1_555 1_555
C33 O9 1_555 1_555
C34 C33 1_555 1_555
H50 C34 1_555 1_555
H51 C34 1_555 1_555
H52 C34 1_555 1_555
C35 C33 1_555 1_555
H53 C35 1_555 1_555
H54 C35 1_555 1_555
H55 C35 1_555 1_555
C36 C33 1_555 1_555
H56 C36 1_555 1_555
H57 C36 1_555 1_555
H58 C36 1_555 1_555
H59 N6 1_555 1_555
H60 N5 1_555 1_555
N7 C37 1_555 1_555
N8 C38 1_555 1_555
O10 C37 1_555 1_555
O11 C44 1_555 1_555
O12 C44 1_555 1_555
C37 C38 1_555 1_555
C38 H61 1_555 1_555
C39 C38 1_555 1_555
H62 C39 1_555 1_555
H63 C39 1_555 1_555
C40 N7 1_555 1_555
C41 C40 1_555 1_555
H64 C41 1_555 1_555
C42 C41 1_555 1_555
H65 C42 1_555 1_555
H66 C42 1_555 1_555
C43 C40 1_555 1_555
H67 C43 1_555 1_555
H68 C43 1_555 1_555
H69 C43 1_555 1_555
C44 N8 1_555 1_555
C45 O12 1_555 1_555
C46 C45 1_555 1_555
H70 C46 1_555 1_555
H71 C46 1_555 1_555
H72 C46 1_555 1_555
C47 C45 1_555 1_555
H73 C47 1_555 1_555
H74 C47 1_555 1_555
H75 C47 1_555 1_555
C48 C45 1_555 1_555
H76 C48 1_555 1_555
H77 C48 1_555 1_555
H78 C48 1_555 1_555
H79 N8 1_555 1_555
H80 N7 1_555 1_555
C3 C4 1_555 1_555
C15 C16 1_555 1_555
C27 C28 1_555 1_555
C39 C40 1_555 1_555

#END
