
#######################################################################
#
#                 Cambridge Crystallographic Data Centre
#                                CCDC 
#
#######################################################################
#
# If this CIF has been generated from an entry in the Cambridge 
# Structural Database, then it will include bibliographic, chemical, 
# crystal, experimental, refinement or atomic coordinate data resulting 
# from the CCDC's data processing and validation procedures.
#
#######################################################################

data_PIVPES
_chemical_formula_moiety         'C31 H26 Cl1 N5 O2'
_chemical_name_systematic        
'bis(naphthalen-1-yl)methyl 2-[2-chloro-6-(dimethylamino)-9H-purin-9-yl]propanoate'
_symmetry_cell_setting           triclinic
_symmetry_space_group_name_H-M   'P 1'
_symmetry_Int_Tables_number      1
_space_group_name_Hall           'P 1'
loop_
_symmetry_equiv_pos_site_id
_symmetry_equiv_pos_as_xyz
1 x,y,z
_cell_length_a                   9.4343(2)
_cell_length_b                   12.1436(2)
_cell_length_c                   13.6455(3)
_cell_angle_alpha                107.956(2)
_cell_angle_beta                 107.526(2)
_cell_angle_gamma                98.770(2)
_cell_volume                     1365.3
_exptl_crystal_colour            'light colorless'
_exptl_crystal_description       block
_cell_formula_units_Z            2
loop_
_atom_site_label
_atom_site_type_symbol
_atom_site_fract_x
_atom_site_fract_y
_atom_site_fract_z
Cl1 Cl 0.81815(19) 0.59723(13) 0.77899(12)
O1 O 0.6320(3) 0.5969(2) 0.3489(2)
N1 N 0.8757(5) 0.9514(3) 0.5856(3)
C1 C 0.7526(4) 0.5744(3) 0.3545(3)
N2 N 0.8947(4) 0.7678(3) 0.5032(2)
O2 O 0.7697(3) 0.4687(2) 0.3021(2)
N3 N 0.8025(5) 1.0051(4) 0.8054(3)
C2 C 0.8556(5) 0.8823(3) 0.6473(3)
N4 N 0.8203(5) 0.8130(4) 0.7852(3)
C3 C 0.6115(6) 0.1333(4) 0.3452(4)
C4 C 0.6390(5) 0.2611(4) 0.2384(4)
C5 C 0.8974(5) 0.8796(3) 0.5020(3)
H1 H 0.913413 0.902569 0.446338
N5 N 0.8562(4) 0.6755(3) 0.6305(3)
C6 C 0.5528(6) 0.3253(4) 0.3985(4)
H2 H 0.546583 0.397253 0.389052
C7 C 0.3447(5) 0.2584(4) 0.0252(4)
H3 H 0.349725 0.257936 0.094187
C8 C 0.9090(4) 0.6670(3) 0.4192(3)
H4 H 0.933228 0.698663 0.366408
C9 C 0.4774(5) 0.3145(3) 0.0141(3)
C10 C 0.8342(5) 0.7097(4) 0.7246(4)
C11 C 0.8255(5) 0.9036(4) 0.7463(3)
C12 C 0.8681(4) 0.7685(3) 0.5964(3)
C13 C 0.7741(7) 1.0994(5) 0.7636(5)
H5 H 0.792713 1.083174 0.695817
H6 H 0.842030 1.175445 0.817499
H7 H 0.668895 1.101740 0.749923
C14 C 0.6212(5) 0.3737(4) 0.1055(4)
C15 C 0.5248(6) 0.1977(6) 0.4975(5)
H8 H 0.498728 0.183601 0.553887
C16 C 0.5146(6) 0.3042(6) 0.4810(5)
H9 H 0.481874 0.360802 0.526110
C17 C 0.2085(6) 0.2046(4) -0.0633(4)
H10 H 0.121619 0.169208 -0.053775
C18 C 0.6011(5) 0.2422(4) 0.3271(3)
C19 C 1.0411(5) 0.6190(4) 0.4640(4)
H11 H 1.026857 0.592204 0.520493
H12 H 1.136047 0.681324 0.495141
H13 H 1.044869 0.552770 0.405125
C20 C 0.6308(5) 0.3772(4) 0.2187(3)
H14 H 0.540734 0.399840 0.231672
C21 C 0.7728(8) 1.0169(6) 0.9072(5)
H15 H 0.676346 0.961298 0.889250
H16 H 0.768246 1.097467 0.941761
H17 H 0.854522 0.999810 0.957111
C22 C 0.6892(6) 0.1767(4) 0.1749(4)
H18 H 0.715532 0.189303 0.118021
C23 C 0.5725(6) 0.1137(5) 0.4319(5)
H19 H 0.579345 0.043252 0.444294
C24 C 0.6653(7) 0.0501(5) 0.2771(5)
H20 H 0.675709 -0.019931 0.289473
C25 C 0.7015(8) 0.0701(5) 0.1952(5)
H21 H 0.735104 0.013325 0.151009
C26 C 0.1986(7) 0.2021(5) -0.1685(4)
H22 H 0.105720 0.163875 -0.228677
C27 C 0.4662(6) 0.3132(4) -0.0930(4)
C28 C 0.7449(7) 0.4275(5) 0.0874(5)
H23 H 0.838877 0.466844 0.146296
C29 C 0.3232(7) 0.2550(4) -0.1827(4)
H24 H 0.314926 0.253225 -0.252855
C30 C 0.7305(8) 0.4237(6) -0.0198(6)
H25 H 0.816240 0.458762 -0.030710
C31 C 0.5960(8) 0.3705(5) -0.1061(5)
H26 H 0.588662 0.371663 -0.175312
Cl2 Cl 0.1520(2) 0.38809(17) 0.19360(16)
O3 O 0.2097(3) 0.5310(2) 0.6950(2)
C32 C 0.5173(5) 0.6781(3) 1.0909(3)
N6 N 0.1109(5) 0.3204(3) 0.3467(3)
N7 N 0.0693(4) 0.2388(3) 0.4784(2)
O4 O 0.3320(4) 0.3915(3) 0.6462(2)
C33 C 0.1009(4) 0.2317(3) 0.3856(3)
C34 C 0.3846(6) 0.6246(5) 1.1049(4)
H27 H 0.390193 0.627453 1.174906
C35 C 0.6605(6) 0.7359(4) 1.1809(3)
H28 H 0.667191 0.739650 1.251312
C36 C 0.5078(5) 0.6741(3) 0.9841(3)
C37 C 0.3549(5) 0.6169(4) 0.7808(3)
H29 H 0.442117 0.590758 0.765818
C38 C 0.2500(7) 0.5695(5) 1.0176(5)
H30 H 0.164493 0.532026 1.027281
N8 N 0.1604(5) 0.1787(4) 0.2027(3)
C39 C 0.3923(5) 0.7527(4) 0.6773(3)
C40 C 0.3629(5) 0.6180(4) 0.8934(3)
C41 C 0.2379(6) 0.5684(5) 0.9112(4)
H31 H 0.143099 0.533286 0.852488
N9 N 0.1850(5) -0.0101(4) 0.1939(3)
C42 C 0.7866(6) 0.7853(4) 1.1672(4)
H32 H 0.879338 0.822737 1.227593
C43 C 0.3077(8) 0.8206(5) 0.8302(4)
H33 H 0.285509 0.808741 0.888687
C44 C 0.7783(6) 0.7804(4) 1.0616(4)
H34 H 0.866346 0.813978 1.052270
C45 C 0.6429(5) 0.7270(3) 0.9725(3)
H35 H 0.639277 0.725313 0.903156
C46 C 0.1561(5) 0.0931(4) 0.2464(3)
C47 C 0.0552(5) 0.3483(3) 0.5546(3)
H36 H 0.010760 0.394170 0.511224
C48 C 0.1209(5) 0.1187(4) 0.3439(3)
C49 C 0.3305(9) 0.9448(5) 0.7275(5)
H37 H 0.324523 1.016169 0.716682
C50 C 0.1381(6) 0.2822(5) 0.2551(4)
C51 C 0.2160(5) 0.4236(3) 0.6356(3)
N10 N 0.0996(5) 0.0547(3) 0.4095(3)
C52 C 0.4079(7) 0.8749(6) 0.5658(5)
H38 H 0.399370 0.944913 0.552919
C53 C 0.2940(10) 0.9255(6) 0.8114(5)
H39 H 0.260170 0.981983 0.855642
C54 C 0.4373(5) 0.6673(4) 0.6038(3)
H40 H 0.448888 0.596732 0.614606
C55 C 0.0706(6) 0.1311(4) 0.4876(3)
H41 H 0.052450 0.112819 0.544808
C56 C 0.2097(7) -0.1002(4) 0.2408(5)
H42 H 0.222167 -0.068432 0.317513
H43 H 0.301079 -0.122349 0.234746
H44 H 0.122497 -0.169742 0.201345
C57 C 0.3533(5) 0.7345(4) 0.7643(3)
C58 C 0.4492(7) 0.7917(6) 0.4982(5)
H45 H 0.467917 0.803643 0.438589
C59 C 0.2185(8) -0.0261(7) 0.0943(5)
H46 H 0.199067 0.038254 0.069905
H47 H 0.153739 -0.101465 0.037171
H48 H 0.324875 -0.025581 0.109796
C60 C 0.4638(6) 0.6883(6) 0.5171(4)
H49 H 0.492475 0.630918 0.469533
C61 C 0.3768(6) 0.8590(4) 0.6570(4)
C62 C -0.0486(5) 0.3221(4) 0.6154(4)
H50 H -0.147128 0.269727 0.562513
H51 H -0.062338 0.395984 0.658169
H52 H -0.001931 0.283912 0.663810
loop_
_geom_bond_atom_site_label_1
_geom_bond_atom_site_label_2
_geom_bond_site_symmetry_1
_geom_bond_site_symmetry_2
Cl1 C10 1_555 1_555
O1 C1 1_555 1_555
N1 C2 1_555 1_555
C1 O2 1_555 1_555
N2 C5 1_555 1_555
O2 C20 1_555 1_555
N3 C11 1_555 1_555
C2 C11 1_555 1_555
N4 C10 1_555 1_555
C3 C18 1_555 1_555
C4 C18 1_555 1_555
C5 N1 1_555 1_555
H1 C5 1_555 1_555
N5 C10 1_555 1_555
C6 H2 1_555 1_555
C7 H3 1_555 1_555
C8 C1 1_555 1_555
H4 C8 1_555 1_555
C9 C7 1_555 1_555
C11 N4 1_555 1_555
C12 N2 1_555 1_555
C13 N3 1_555 1_555
H5 C13 1_555 1_555
H6 C13 1_555 1_555
H7 C13 1_555 1_555
C14 C9 1_555 1_555
C15 H8 1_555 1_555
C16 C6 1_555 1_555
H9 C16 1_555 1_555
C17 C7 1_555 1_555
H10 C17 1_555 1_555
C18 C6 1_555 1_555
C19 C8 1_555 1_555
H11 C19 1_555 1_555
H12 C19 1_555 1_555
H13 C19 1_555 1_555
C20 C4 1_555 1_555
H14 C20 1_555 1_555
C21 N3 1_555 1_555
H15 C21 1_555 1_555
H16 C21 1_555 1_555
H17 C21 1_555 1_555
C22 C4 1_555 1_555
H18 C22 1_555 1_555
C23 C3 1_555 1_555
H19 C23 1_555 1_555
C24 C3 1_555 1_555
H20 C24 1_555 1_555
C25 C22 1_555 1_555
H21 C25 1_555 1_555
C26 C17 1_555 1_555
H22 C26 1_555 1_555
C27 C9 1_555 1_555
C28 C14 1_555 1_555
H23 C28 1_555 1_555
C29 C26 1_555 1_555
H24 C29 1_555 1_555
C30 C28 1_555 1_555
H25 C30 1_555 1_555
C31 C27 1_555 1_555
H26 C31 1_555 1_555
Cl2 C50 1_555 1_555
O3 C37 1_555 1_555
C32 C34 1_555 1_555
N6 C33 1_555 1_555
N7 C33 1_555 1_555
O4 C51 1_555 1_555
C33 C48 1_555 1_555
C34 H27 1_555 1_555
C35 C32 1_555 1_555
H28 C35 1_555 1_555
C36 C32 1_555 1_555
C37 H29 1_555 1_555
C38 C34 1_555 1_555
H30 C38 1_555 1_555
N8 C46 1_555 1_555
C39 C54 1_555 1_555
C40 C36 1_555 1_555
C41 C38 1_555 1_555
H31 C41 1_555 1_555
N9 C46 1_555 1_555
C42 C35 1_555 1_555
H32 C42 1_555 1_555
C43 H33 1_555 1_555
C44 C42 1_555 1_555
H34 C44 1_555 1_555
C45 C36 1_555 1_555
H35 C45 1_555 1_555
C46 C48 1_555 1_555
C47 N7 1_555 1_555
H36 C47 1_555 1_555
C48 N10 1_555 1_555
C49 H37 1_555 1_555
C50 N6 1_555 1_555
C51 O3 1_555 1_555
N10 C55 1_555 1_555
C52 H38 1_555 1_555
C53 C43 1_555 1_555
H39 C53 1_555 1_555
C54 H40 1_555 1_555
C55 N7 1_555 1_555
H41 C55 1_555 1_555
C56 N9 1_555 1_555
H42 C56 1_555 1_555
H43 C56 1_555 1_555
H44 C56 1_555 1_555
C57 C37 1_555 1_555
C58 C52 1_555 1_555
H45 C58 1_555 1_555
C59 N9 1_555 1_555
H46 C59 1_555 1_555
H47 C59 1_555 1_555
H48 C59 1_555 1_555
C60 C54 1_555 1_555
H49 C60 1_555 1_555
C61 C39 1_555 1_555
C62 C47 1_555 1_555
H50 C62 1_555 1_555
H51 C62 1_555 1_555
H52 C62 1_555 1_555
N2 C8 1_555 1_555
C2 C12 1_555 1_555
N5 C12 1_555 1_555
C14 C20 1_555 1_555
C15 C16 1_555 1_555
C15 C23 1_555 1_555
C24 C25 1_555 1_555
C27 C29 1_555 1_555
C30 C31 1_555 1_555
C37 C40 1_555 1_555
N8 C50 1_555 1_555
C39 C57 1_555 1_555
C40 C41 1_555 1_555
C43 C57 1_555 1_555
C44 C45 1_555 1_555
C47 C51 1_555 1_555
C49 C53 1_555 1_555
C49 C61 1_555 1_555
C52 C61 1_555 1_555
C58 C60 1_555 1_555

#END
