
#######################################################################
#
#                 Cambridge Crystallographic Data Centre
#                                CCDC 
#
#######################################################################
#
# If this CIF has been generated from an entry in the Cambridge 
# Structural Database, then it will include bibliographic, chemical, 
# crystal, experimental, refinement or atomic coordinate data resulting 
# from the CCDC's data processing and validation procedures.
#
#######################################################################

data_PIWTAT
_chemical_formula_moiety         'C28 H18 B2 S4'
_chemical_name_systematic        
7,14-diphenyl-7,14-dihydro[1,6]diborecino[3,2-b:4,5-b':8,7-b'':9,10-b''']tetrakis(thiophene)
_symmetry_cell_setting           triclinic
_symmetry_space_group_name_H-M   'P -1'
_symmetry_Int_Tables_number      2
_space_group_name_Hall           '-P 1'
loop_
_symmetry_equiv_pos_site_id
_symmetry_equiv_pos_as_xyz
1 x,y,z
2 -x,-y,-z
_cell_length_a                   9.5393(7)
_cell_length_b                   9.9856(8)
_cell_length_c                   13.5239(11)
_cell_angle_alpha                96.8670(10)
_cell_angle_beta                 97.0860(10)
_cell_angle_gamma                99.0240(10)
_cell_volume                     1249.82
_exptl_crystal_colour            colorless
_exptl_crystal_description       block
_cell_formula_units_Z            2
loop_
_atom_site_label
_atom_site_type_symbol
_atom_site_fract_x
_atom_site_fract_y
_atom_site_fract_z
S1 S 0.28388(6) 0.94428(6) 0.59998(4)
S2 S 0.77953(6) 0.51757(6) 0.94607(4)
S3 S 0.19730(6) 0.83390(7) 0.81650(5)
S4 S 0.43476(6) 0.39346(6) 0.84951(5)
B1 B 0.6343(2) 0.8513(2) 0.84811(15)
B2 B 0.5472(2) 0.6641(2) 0.65251(16)
C1 C 0.71867(19) 0.97665(18) 0.80944(13)
C2 C 0.8599(2) 0.9803(2) 0.79084(16)
H1 H 0.9030 0.9041 0.7986
C3 C 0.9376(2) 1.0935(2) 0.76125(19)
H2 H 1.0313 1.0928 0.7491
C4 C 0.8761(3) 1.2073(2) 0.74979(18)
H3 H 0.9286 1.2842 0.7308
C5 C 0.7365(3) 1.2072(2) 0.76651(16)
H4 H 0.6946 1.2840 0.7583
C6 C 0.6588(2) 1.09371(18) 0.79530(13)
H5 H 0.5643 1.0948 0.8056
C7 C 0.2701(2) 0.8252(3) 0.93671(17)
H6 H 0.2182 0.8212 0.9904
C8 C 0.4126(2) 0.8250(2) 0.94436(15)
H7 H 0.4684 0.8174 1.0042
C9 C 0.46988(19) 0.83737(18) 0.85264(14)
C10 C 0.36276(19) 0.84261(19) 0.77560(14)
C11 C 0.37356(19) 0.84029(19) 0.66902(14)
C12 C 0.4514(2) 0.76434(19) 0.61150(14)
C13 C 0.4311(2) 0.7917(2) 0.50898(15)
H8 H 0.4750 0.7506 0.4586
C14 C 0.3426(2) 0.8823(2) 0.49254(16)
H9 H 0.3167 0.9080 0.4299
C15 C 0.6987(2) 0.66276(18) 0.62100(14)
C16 C 0.7647(2) 0.7653(2) 0.57185(16)
H10 H 0.7155 0.8351 0.5560
C17 C 0.9001(2) 0.7667(2) 0.54605(18)
H11 H 0.9405 0.8362 0.5129
C18 C 0.9751(3) 0.6660(3) 0.56917(19)
H12 H 1.0672 0.6674 0.5527
C19 C 0.9138(3) 0.5629(3) 0.6168(2)
H13 H 0.9642 0.4937 0.6321
C20 C 0.7781(2) 0.5610(2) 0.64203(17)
H14 H 0.7383 0.4899 0.6740
C21 C 0.8889(2) 0.6659(2) 0.99968(17)
H15 H 0.9694 0.6706 1.0472
C22 C 0.8451(2) 0.7766(2) 0.96513(17)
H16 H 0.8947 0.8655 0.9852
C23 C 0.7151(2) 0.74403(19) 0.89465(14)
C24 C 0.6672(2) 0.60463(18) 0.87764(14)
C25 C 0.5408(2) 0.52874(18) 0.81054(14)
C26 C 0.4827(2) 0.55715(18) 0.71840(14)
C27 C 0.3501(2) 0.4661(2) 0.68144(17)
H17 H 0.2938 0.4712 0.6212
C28 C 0.3144(3) 0.3722(2) 0.7422(2)
H18 H 0.2335 0.3039 0.7272
loop_
_geom_bond_atom_site_label_1
_geom_bond_atom_site_label_2
_geom_bond_site_symmetry_1
_geom_bond_site_symmetry_2
S1 C11 1_555 1_555
S2 C21 1_555 1_555
S3 C7 1_555 1_555
S4 C25 1_555 1_555
B1 C1 1_555 1_555
B2 C12 1_555 1_555
C1 C2 1_555 1_555
C2 H1 1_555 1_555
C3 C2 1_555 1_555
H2 C3 1_555 1_555
C4 C3 1_555 1_555
H3 C4 1_555 1_555
C5 C4 1_555 1_555
H4 C5 1_555 1_555
C6 C1 1_555 1_555
H5 C6 1_555 1_555
C7 H6 1_555 1_555
C8 C7 1_555 1_555
H7 C8 1_555 1_555
C9 B1 1_555 1_555
C10 S3 1_555 1_555
C11 C10 1_555 1_555
C12 C11 1_555 1_555
C13 C12 1_555 1_555
H8 C13 1_555 1_555
C14 S1 1_555 1_555
H9 C14 1_555 1_555
C15 B2 1_555 1_555
C16 C15 1_555 1_555
H10 C16 1_555 1_555
C17 C16 1_555 1_555
H11 C17 1_555 1_555
C18 C17 1_555 1_555
H12 C18 1_555 1_555
C19 C18 1_555 1_555
H13 C19 1_555 1_555
C20 C15 1_555 1_555
H14 C20 1_555 1_555
C21 H15 1_555 1_555
C22 C21 1_555 1_555
H16 C22 1_555 1_555
C23 B1 1_555 1_555
C24 S2 1_555 1_555
C25 C24 1_555 1_555
C26 B2 1_555 1_555
C27 C26 1_555 1_555
H17 C27 1_555 1_555
C28 S4 1_555 1_555
H18 C28 1_555 1_555
C5 C6 1_555 1_555
C8 C9 1_555 1_555
C9 C10 1_555 1_555
C13 C14 1_555 1_555
C19 C20 1_555 1_555
C22 C23 1_555 1_555
C23 C24 1_555 1_555
C25 C26 1_555 1_555
C27 C28 1_555 1_555

#END
