
#######################################################################
#
#                 Cambridge Crystallographic Data Centre
#                                CCDC 
#
#######################################################################
#
# If this CIF has been generated from an entry in the Cambridge 
# Structural Database, then it will include bibliographic, chemical, 
# crystal, experimental, refinement or atomic coordinate data resulting 
# from the CCDC's data processing and validation procedures.
#
#######################################################################

data_PIWVOH
_chemical_formula_moiety         'C19 H27 N3 O3,0.5(C1 H2 Cl2)'
_chemical_name_systematic        
'(3R,4R) t-Butyl 4-(2,5-dimethylbenzimidazol-1-yl)-3-hydroxypiperidine-1-carboxylate dichloromethane solvate'
_symmetry_cell_setting           monoclinic
_symmetry_space_group_name_H-M   'P 21'
_symmetry_Int_Tables_number      4
_space_group_name_Hall           'P 2yb'
loop_
_symmetry_equiv_pos_site_id
_symmetry_equiv_pos_as_xyz
1 x,y,z
2 -x,1/2+y,-z
_cell_length_a                   12.147(2)
_cell_length_b                   6.6057(19)
_cell_length_c                   25.126(4)
_cell_angle_alpha                90
_cell_angle_beta                 96.966(13)
_cell_angle_gamma                90
_cell_volume                     2001.21
_exptl_crystal_colour            colorless
_exptl_crystal_description       needle
_cell_formula_units_Z            4
_exptl_crystal_recrystallization_method dichloromethane/water
loop_
_atom_site_label
_atom_site_type_symbol
_atom_site_fract_x
_atom_site_fract_y
_atom_site_fract_z
O1 O 0.6651(3) 0.2389(7) 0.05050(14)
O2 O 0.6571(4) -0.1009(6) 0.06288(16)
O3 O 0.4757(4) -0.1623(6) 0.22515(16)
H1 H 0.401(6) -0.183(10) 0.230(3)
N4 N 0.6119(4) 0.1204(7) 0.12682(19)
N5 N 0.3597(4) 0.2269(7) 0.22539(18)
N6 N 0.2377(4) 0.2336(7) 0.28586(17)
C20 C 0.6455(5) 0.0727(9) 0.0784(2)
C21 C 0.6927(5) 0.2253(10) -0.0050(2)
C22 C 0.5955(6) 0.1312(11) -0.0411(3)
H29 H 0.5862 -0.0102 -0.0306
H30 H 0.6105 0.1367 -0.0785
H31 H 0.5275 0.2067 -0.0372
C23 C 0.7063(7) 0.4458(10) -0.0189(3)
H32 H 0.7680 0.5040 0.0049
H33 H 0.6378 0.5192 -0.0145
H34 H 0.7217 0.4570 -0.0562
C24 C 0.8000(6) 0.1156(12) -0.0069(3)
H35 H 0.8576 0.1767 0.0188
H36 H 0.8219 0.1255 -0.0431
H37 H 0.7909 -0.0271 0.0022
C25 C 0.5932(6) -0.0431(9) 0.1640(2)
H38 H 0.6527 -0.0420 0.1947
H39 H 0.5955 -0.1752 0.1456
C26 C 0.4795(5) -0.0160(8) 0.1846(2)
H40 H 0.4189 -0.0426 0.1548
C27 C 0.4681(5) 0.1997(8) 0.2059(2)
H41 H 0.5260 0.2162 0.2375
C28 C 0.4903(5) 0.3599(9) 0.1652(2)
H42 H 0.4879 0.4959 0.1816
H43 H 0.4321 0.3538 0.1341
C29 C 0.6037(5) 0.3252(9) 0.1467(2)
H44 H 0.6149 0.4228 0.1179
H45 H 0.6624 0.3482 0.1770
C30 C 0.3430(5) 0.2234(8) 0.2788(2)
C31 C 0.1803(4) 0.2428(9) 0.2351(2)
C32 C 0.0660(5) 0.2548(9) 0.2197(2)
H46 H 0.0159 0.2622 0.2459
C33 C 0.0269(5) 0.2559(9) 0.1652(2)
C34 C 0.1032(5) 0.2555(9) 0.1274(2)
H47 H 0.0758 0.2627 0.0904
C35 C 0.2170(5) 0.2451(9) 0.1419(2)
H48 H 0.2670 0.2409 0.1156
C36 C 0.2547(4) 0.2410(8) 0.1961(2)
C37 C 0.4351(5) 0.2108(9) 0.3232(2)
H49 H 0.4045 0.2013 0.3575
H50 H 0.4815 0.3322 0.3231
H51 H 0.4801 0.0906 0.3184
C38 C -0.0967(5) 0.2613(11) 0.1470(2)
H52 H -0.1349 0.3265 0.1746
H53 H -0.1244 0.1228 0.1411
H54 H -0.1106 0.3381 0.1135
O4 O 0.7837(3) -0.2458(7) 0.45329(16)
O5 O 0.8247(4) 0.0909(7) 0.44957(15)
O6 O 1.1737(4) 0.1109(7) 0.37960(18)
H2 H 1.167(13) 0.19(2) 0.361(6)
N1 N 0.9557(4) -0.1529(7) 0.43929(19)
N2 N 1.1470(4) -0.2572(7) 0.31273(17)
N3 N 1.2662(4) -0.2632(7) 0.25057(17)
C1 C 0.8505(5) -0.0889(10) 0.4472(2)
C2 C 0.6722(5) -0.2108(10) 0.4699(3)
C3 C 0.5992(6) -0.0954(13) 0.4257(3)
H3 H 0.5989 -0.1672 0.3915
H4 H 0.6288 0.0413 0.4223
H5 H 0.5233 -0.0868 0.4350
C4 C 0.6302(7) -0.4217(14) 0.4751(4)
H6 H 0.6768 -0.4920 0.5039
H7 H 0.6326 -0.4943 0.4413
H8 H 0.5536 -0.4171 0.4836
C5 C 0.6836(6) -0.1036(12) 0.5234(3)
H9 H 0.7342 -0.1800 0.5494
H10 H 0.6107 -0.0940 0.5363
H11 H 0.7133 0.0327 0.5194
C6 C 1.0412(5) -0.0024(10) 0.4332(2)
H12 H 1.1050 -0.0237 0.4611
H13 H 1.0113 0.1349 0.4381
C7 C 1.0800(5) -0.0185(8) 0.3776(2)
H14 H 1.0203 0.0291 0.3495
C8 C 1.1114(5) -0.2379(10) 0.3667(2)
H15 H 1.1775 -0.2710 0.3929
C9 C 1.0216(5) -0.3898(9) 0.3762(2)
H16 H 0.9562 -0.3703 0.3491
H17 H 1.0497 -0.5292 0.3725
C10 C 0.9883(5) -0.3613(9) 0.4320(2)
H18 H 0.9257 -0.4525 0.4370
H19 H 1.0514 -0.3965 0.4592
C11 C 1.2558(5) -0.2658(9) 0.3021(2)
C12 C 1.1578(4) -0.2526(9) 0.2244(2)
C13 C 1.1211(5) -0.2490(9) 0.1704(2)
H20 H 1.1723 -0.2529 0.1447
C14 C 1.0056(5) -0.2392(9) 0.1540(2)
C15 C 0.9323(5) -0.2340(9) 0.1930(2)
H21 H 0.8549 -0.2284 0.1815
C16 C 0.9670(5) -0.2365(9) 0.2472(2)
H22 H 0.9152 -0.2312 0.2726
C17 C 1.0814(5) -0.2472(9) 0.2637(2)
C18 C 1.3506(5) -0.2842(10) 0.3449(2)
H23 H 1.4203 -0.2738 0.3291
H24 H 1.3474 -0.4155 0.3628
H25 H 1.3470 -0.1754 0.3712
C19 C 0.9624(5) -0.2393(10) 0.0950(2)
H26 H 0.8812 -0.2322 0.0907
H27 H 0.9858 -0.3639 0.0784
H28 H 0.9922 -0.1219 0.0777
C39 C 0.7720(11) 0.3164(16) 0.3361(5)
H55 H 0.8520 0.3500 0.3400
H56 H 0.7502 0.3028 0.3727
Cl1 Cl 0.6963(2) 0.5268(3) 0.30354(8)
Cl2 Cl 0.7548(3) 0.0937(5) 0.30590(10)
loop_
_geom_bond_atom_site_label_1
_geom_bond_atom_site_label_2
_geom_bond_site_symmetry_1
_geom_bond_site_symmetry_2
O1 C20 1_555 1_555
O2 C20 1_555 1_555
O3 H1 1_555 1_555
O4 C1 1_555 1_555
O5 C1 1_555 1_555
O6 H2 1_555 1_555
N1 C1 1_555 1_555
N2 C8 1_555 1_555
N3 C11 1_555 1_555
N4 C20 1_555 1_555
N5 C27 1_555 1_555
N6 C30 1_555 1_555
C2 O4 1_555 1_555
C3 C2 1_555 1_555
H3 C3 1_555 1_555
H4 C3 1_555 1_555
H5 C3 1_555 1_555
C4 C2 1_555 1_555
H6 C4 1_555 1_555
H7 C4 1_555 1_555
H8 C4 1_555 1_555
C5 C2 1_555 1_555
H9 C5 1_555 1_555
H10 C5 1_555 1_555
H11 C5 1_555 1_555
C6 N1 1_555 1_555
H12 C6 1_555 1_555
H13 C6 1_555 1_555
C7 O6 1_555 1_555
H14 C7 1_555 1_555
C8 C7 1_555 1_555
H15 C8 1_555 1_555
C9 C8 1_555 1_555
H16 C9 1_555 1_555
H17 C9 1_555 1_555
C10 N1 1_555 1_555
H18 C10 1_555 1_555
H19 C10 1_555 1_555
C11 N2 1_555 1_555
C12 N3 1_555 1_555
C13 C12 1_555 1_555
H20 C13 1_555 1_555
C14 C13 1_555 1_555
C15 C14 1_555 1_555
H21 C15 1_555 1_555
C16 C15 1_555 1_555
H22 C16 1_555 1_555
C17 N2 1_555 1_555
C18 C11 1_555 1_555
H23 C18 1_555 1_555
H24 C18 1_555 1_555
H25 C18 1_555 1_555
C19 C14 1_555 1_555
H26 C19 1_555 1_555
H27 C19 1_555 1_555
H28 C19 1_555 1_555
C21 O1 1_555 1_555
C22 C21 1_555 1_555
H29 C22 1_555 1_555
H30 C22 1_555 1_555
H31 C22 1_555 1_555
C23 C21 1_555 1_555
H32 C23 1_555 1_555
H33 C23 1_555 1_555
H34 C23 1_555 1_555
C24 C21 1_555 1_555
H35 C24 1_555 1_555
H36 C24 1_555 1_555
H37 C24 1_555 1_555
C25 N4 1_555 1_555
H38 C25 1_555 1_555
H39 C25 1_555 1_555
C26 O3 1_555 1_555
H40 C26 1_555 1_555
C27 C26 1_555 1_555
H41 C27 1_555 1_555
C28 C27 1_555 1_555
H42 C28 1_555 1_555
H43 C28 1_555 1_555
C29 N4 1_555 1_555
H44 C29 1_555 1_555
H45 C29 1_555 1_555
C30 N5 1_555 1_555
C31 N6 1_555 1_555
C32 C31 1_555 1_555
H46 C32 1_555 1_555
C33 C32 1_555 1_555
C34 C33 1_555 1_555
H47 C34 1_555 1_555
C35 C34 1_555 1_555
H48 C35 1_555 1_555
C36 N5 1_555 1_555
C37 C30 1_555 1_555
H49 C37 1_555 1_555
H50 C37 1_555 1_555
H51 C37 1_555 1_555
C38 C33 1_555 1_555
H52 C38 1_555 1_555
H53 C38 1_555 1_555
H54 C38 1_555 1_555
C39 H55 1_555 1_555
H56 C39 1_555 1_555
Cl1 C39 1_555 1_555
Cl2 C39 1_555 1_555
C6 C7 1_555 1_555
C9 C10 1_555 1_555
C12 C17 1_555 1_555
C16 C17 1_555 1_555
C25 C26 1_555 1_555
C28 C29 1_555 1_555
C31 C36 1_555 1_555
C35 C36 1_555 1_555

#END
