
#######################################################################
#
#                 Cambridge Crystallographic Data Centre
#                                CCDC 
#
#######################################################################
#
# If this CIF has been generated from an entry in the Cambridge 
# Structural Database, then it will include bibliographic, chemical, 
# crystal, experimental, refinement or atomic coordinate data resulting 
# from the CCDC's data processing and validation procedures.
#
#######################################################################

data_PIWVIC
_chemical_formula_moiety         'C15 H19 F2 N1 O3'
_chemical_name_systematic        
'Ethyl 2-t-butyl-4-fluoro-3-(4-fluorophenyl)-1,2-oxazetidine-4-carboxylate'
_symmetry_cell_setting           orthorhombic
_symmetry_space_group_name_H-M   'P 21 21 21'
_symmetry_Int_Tables_number      19
_space_group_name_Hall           'P 2ac 2ab'
loop_
_symmetry_equiv_pos_site_id
_symmetry_equiv_pos_as_xyz
1 x,y,z
2 1/2+x,1/2-y,-z
3 -x,1/2+y,1/2-z
4 1/2-x,-y,1/2+z
_cell_length_a                   10.3310(7)
_cell_length_b                   10.6463(9)
_cell_length_c                   14.0876(10)
_cell_angle_alpha                90
_cell_angle_beta                 90
_cell_angle_gamma                90
_cell_volume                     1549.45
_exptl_crystal_colour            colorless
_exptl_crystal_description       needle
_cell_formula_units_Z            4
loop_
_atom_site_label
_atom_site_type_symbol
_atom_site_fract_x
_atom_site_fract_y
_atom_site_fract_z
C1 C 0.8098(3) 0.1922(3) 0.7149(2)
H1 H 0.8641 0.2588 0.6941
C2 C 0.6787(3) 0.2154(4) 0.7315(3)
H2 H 0.6427 0.2967 0.7227
C3 C 0.6045(3) 0.1171(4) 0.7608(3)
C4 C 0.6502(3) 0.0000(4) 0.7732(2)
H3 H 0.5943 -0.0658 0.793
C5 C 0.7806(3) -0.0232(3) 0.7565(2)
H4 H 0.8142 -0.1056 0.7644
C6 C 0.8619(3) 0.0738(3) 0.7283(2)
C7 C 1.0058(3) 0.0489(3) 0.7184(2)
H5 H 1.0238 -0.0383 0.6956
C8 C 1.0933(3) 0.0860(3) 0.8011(2)
C9 C 1.1525(3) 0.1001(3) 0.5781(2)
C10 C 1.0544(3) 0.0657(4) 0.5029(3)
H6 H 1.0037 -0.0067 0.5243
H7 H 1.0994 0.0445 0.4438
H8 H 0.9965 0.1371 0.4918
C11 C 1.2348(4) 0.2134(4) 0.5473(3)
H9 H 1.1779 0.2841 0.5316
H10 H 1.2863 0.1908 0.4915
H11 H 1.2927 0.2377 0.5993
C12 C 1.2407(4) -0.0102(4) 0.6002(3)
H12 H 1.2979 0.0117 0.6532
H13 H 1.2929 -0.0303 0.5441
H14 H 1.1881 -0.0834 0.6176
C13 C 1.0321(3) 0.1481(4) 0.8854(2)
C14 C 0.9256(4) 0.1098(5) 1.0317(3)
H15 H 0.9615 0.1922 1.0509
H16 H 0.9375 0.0502 1.0849
C15 C 0.7859(4) 0.1225(4) 1.0091(3)
H17 H 0.7752 0.1796 0.9551
H18 H 0.74 0.1563 1.0644
H19 H 0.7503 0.0399 0.9929
F1 F 0.47497(18) 0.1397(3) 0.77647(18)
F2 F 1.17237(17) -0.01044(17) 0.83258(13)
N1 N 1.0755(3) 0.1458(2) 0.6604(2)
O1 O 1.1658(2) 0.1686(2) 0.74523(15)
O2 O 0.9925(2) 0.0639(2) 0.94780(16)
O3 O 1.0145(2) 0.2604(2) 0.89068(17)
loop_
_geom_bond_atom_site_label_1
_geom_bond_atom_site_label_2
_geom_bond_site_symmetry_1
_geom_bond_site_symmetry_2
C1 H1 1_555 1_555
C2 C1 1_555 1_555
H2 C2 1_555 1_555
C3 C2 1_555 1_555
C4 C3 1_555 1_555
H3 C4 1_555 1_555
C5 C4 1_555 1_555
H4 C5 1_555 1_555
C6 C1 1_555 1_555
C7 C6 1_555 1_555
H5 C7 1_555 1_555
C8 C7 1_555 1_555
C9 C10 1_555 1_555
C10 H6 1_555 1_555
H7 C10 1_555 1_555
H8 C10 1_555 1_555
C11 C9 1_555 1_555
H9 C11 1_555 1_555
H10 C11 1_555 1_555
H11 C11 1_555 1_555
C12 C9 1_555 1_555
H12 C12 1_555 1_555
H13 C12 1_555 1_555
H14 C12 1_555 1_555
C13 C8 1_555 1_555
C14 H15 1_555 1_555
H16 C14 1_555 1_555
C15 C14 1_555 1_555
H17 C15 1_555 1_555
H18 C15 1_555 1_555
H19 C15 1_555 1_555
F1 C3 1_555 1_555
F2 C8 1_555 1_555
N1 C7 1_555 1_555
O1 C8 1_555 1_555
O2 C13 1_555 1_555
O3 C13 1_555 1_555
C5 C6 1_555 1_555
C9 N1 1_555 1_555
C14 O2 1_555 1_555
N1 O1 1_555 1_555

#END
