
#######################################################################
#
#                 Cambridge Crystallographic Data Centre
#                                CCDC 
#
#######################################################################
#
# If this CIF has been generated from an entry in the Cambridge 
# Structural Database, then it will include bibliographic, chemical, 
# crystal, experimental, refinement or atomic coordinate data resulting 
# from the CCDC's data processing and validation procedures.
#
#######################################################################

data_PIWWOH10
_chemical_formula_moiety         'C14 H17 N7 O4'
_chemical_name_systematic        
2,5-Diazido-N-(3',4',5'-trimethoxybenzoyl)pyrrolidine
_symmetry_cell_setting           monoclinic
_symmetry_space_group_name_H-M   'P 21/c'
_symmetry_Int_Tables_number      14
_space_group_name_Hall           '-P 2ybc'
loop_
_symmetry_equiv_pos_site_id
_symmetry_equiv_pos_as_xyz
1 x,y,z
2 -x,1/2+y,1/2-z
3 -x,-y,-z
4 x,1/2-y,1/2+z
_cell_length_a                   10.198(2)
_cell_length_b                   18.087(3)
_cell_length_c                   10.232(2)
_cell_angle_alpha                90
_cell_angle_beta                 119.77(1)
_cell_angle_gamma                90
_cell_volume                     1638.23
_exptl_crystal_colour            colorless
_cell_formula_units_Z            4
loop_
_atom_site_label
_atom_site_type_symbol
_atom_site_fract_x
_atom_site_fract_y
_atom_site_fract_z
N1 N 0.3893(2) 0.71746(10) 0.3038(2)
C1 C 0.4041(3) 0.64083(13) 0.2673(3)
C2 C 0.5411(3) 0.6431(2) 0.2474(3)
C3 C 0.6375(3) 0.7036(2) 0.3548(3)
C4 C 0.5221(3) 0.76169(13) 0.3378(3)
N2 N 0.4335(2) 0.59211(11) 0.3964(3)
N3 N 0.3308(3) 0.54766(12) 0.3696(3)
N4 N 0.2449(3) 0.50520(14) 0.3581(4)
N5 N 0.4863(2) 0.80972(11) 0.2061(2)
N6 N 0.4728(2) 0.87591(13) 0.2250(2)
N7 N 0.4587(3) 0.93755(13) 0.2284(3)
C5 C 0.2740(3) 0.74558(13) 0.3192(3)
O1 O 0.2785(2) 0.80767(9) 0.3685(2)
C6 C 0.1358(3) 0.69782(12) 0.2620(3)
C7 C 0.0934(3) 0.66871(13) 0.3608(3)
C8 C -0.0381(3) 0.62663(12) 0.3041(3)
C9 C -0.1281(3) 0.61689(12) 0.1495(3)
C10 C -0.0834(3) 0.64571(12) 0.0513(3)
C11 C 0.0494(3) 0.68584(13) 0.1086(3)
O2 O -0.0882(2) 0.59303(9) 0.3901(2)
C12 C 0.0088(4) 0.5947(2) 0.5487(3)
O3 O -0.2641(2) 0.57972(9) 0.0921(2)
C13 C -0.2556(4) 0.5029(2) 0.0659(4)
O4 O -0.1776(2) 0.63160(9) -0.0969(2)
C14 C -0.1268(4) 0.6531(2) -0.1991(3)
H1 H 0.312(3) 0.6240(12) 0.179(3)
H2 H 0.511(3) 0.6577(14) 0.141(3)
H3 H 0.592(2) 0.5964(13) 0.268(2)
H4 H 0.707(3) 0.7231(14) 0.328(3)
H5 H 0.690(3) 0.687(2) 0.465(3)
H6 H 0.551(2) 0.7927(12) 0.429(2)
H7 H 0.152(2) 0.6754(11) 0.463(3)
H8 H 0.084(2) 0.7043(11) 0.043(2)
H9 H -0.041(3) 0.5664(13) 0.591(3)
H10 H 0.023(3) 0.6464(15) 0.588(3)
H11 H 0.110(3) 0.575(2) 0.578(3)
H12 H -0.186(4) 0.478(2) 0.159(4)
H13 H -0.218(4) 0.495(2) -0.005(4)
H14 H -0.357(4) 0.481(2) 0.029(3)
H15 H -0.206(3) 0.6395(14) -0.293(3)
H16 H -0.034(3) 0.6284(15) -0.174(3)
H17 H -0.118(3) 0.7090(15) -0.204(3)
loop_
_geom_bond_atom_site_label_1
_geom_bond_atom_site_label_2
_geom_bond_site_symmetry_1
_geom_bond_site_symmetry_2
N1 C1 1_555 1_555
C1 C2 1_555 1_555
C2 C3 1_555 1_555
C3 C4 1_555 1_555
C4 N1 1_555 1_555
N2 C1 1_555 1_555
N3 N2 1_555 1_555
N4 N3 1_555 1_555
N5 C4 1_555 1_555
N6 N5 1_555 1_555
N7 N6 1_555 1_555
C5 N1 1_555 1_555
O1 C5 1_555 1_555
C6 C5 1_555 1_555
C7 C6 1_555 1_555
C8 C7 1_555 1_555
C9 C8 1_555 1_555
C10 C9 1_555 1_555
C11 C6 1_555 1_555
O2 C8 1_555 1_555
C12 O2 1_555 1_555
O3 C9 1_555 1_555
C13 O3 1_555 1_555
O4 C10 1_555 1_555
C14 O4 1_555 1_555
H1 C1 1_555 1_555
H2 C2 1_555 1_555
H3 C2 1_555 1_555
H4 C3 1_555 1_555
H5 C3 1_555 1_555
H6 C4 1_555 1_555
H7 C7 1_555 1_555
H8 C11 1_555 1_555
H9 C12 1_555 1_555
H10 C12 1_555 1_555
H11 C12 1_555 1_555
H12 C13 1_555 1_555
H13 C13 1_555 1_555
H14 C13 1_555 1_555
H15 C14 1_555 1_555
H16 C14 1_555 1_555
H17 C14 1_555 1_555
C10 C11 1_555 1_555

#END
