
#######################################################################
#
#                 Cambridge Crystallographic Data Centre
#                                CCDC 
#
#######################################################################
#
# If this CIF has been generated from an entry in the Cambridge 
# Structural Database, then it will include bibliographic, chemical, 
# crystal, experimental, refinement or atomic coordinate data resulting 
# from the CCDC's data processing and validation procedures.
#
#######################################################################

data_PIWXAU10
_chemical_formula_moiety         'C17 H17 N5 O1'
_chemical_name_systematic        
2-Azido-N,N-diphenyl-pyrrolidine-1-carboxamide
_symmetry_cell_setting           monoclinic
_symmetry_space_group_name_H-M   'P 21/c'
_symmetry_Int_Tables_number      14
_space_group_name_Hall           '-P 2ybc'
loop_
_symmetry_equiv_pos_site_id
_symmetry_equiv_pos_as_xyz
1 x,y,z
2 -x,1/2+y,1/2-z
3 -x,-y,-z
4 x,1/2-y,1/2+z
_cell_length_a                   10.026(4)
_cell_length_b                   9.230(3)
_cell_length_c                   16.943(7)
_cell_angle_alpha                90
_cell_angle_beta                 97.30(3)
_cell_angle_gamma                90
_cell_volume                     1555.2
_exptl_crystal_colour            colorless
_cell_formula_units_Z            4
loop_
_atom_site_label
_atom_site_type_symbol
_atom_site_fract_x
_atom_site_fract_y
_atom_site_fract_z
N1 N 0.2937(2) -0.4524(2) 1.24896(10)
C1 C 0.2271(2) -0.5630(3) 1.29072(12)
C2 C 0.2040(3) -0.4937(3) 1.3695(2)
C3 C 0.2867(3) -0.3562(3) 1.3761(2)
C4 C 0.2915(3) -0.3112(2) 1.28994(13)
N2 N 0.0925(2) -0.6027(2) 1.24834(12)
N3 N 0.0905(2) -0.6468(2) 1.17968(13)
N4 N 0.0728(2) -0.6826(3) 1.1150(2)
C5 C 0.3769(2) -0.4919(2) 1.19457(11)
O1 O 0.40832(14) -0.6177(2) 1.18424(8)
N5 N 0.4238(2) -0.3771(2) 1.15135(10)
C6 C 0.5518(2) -0.3915(2) 1.12278(12)
C7 C 0.6622(2) -0.4360(2) 1.17462(13)
C8 C 0.7873(2) -0.4479(3) 1.1483(2)
C9 C 0.8022(2) -0.4142(2) 1.0700(2)
C10 C 0.6925(2) -0.3689(2) 1.01869(14)
C11 C 0.5667(2) -0.3568(2) 1.04472(12)
C12 C 0.3379(2) -0.2585(2) 1.12381(11)
C13 C 0.2044(2) -0.2822(3) 1.09426(13)
C14 C 0.1214(3) -0.1657(3) 1.07083(14)
C15 C 0.1717(3) -0.0266(3) 1.07454(13)
C16 C 0.3058(3) -0.0028(3) 1.10202(13)
C17 C 0.3889(2) -0.1186(2) 1.12716(13)
H1 H 0.282(2) -0.653(2) 1.2950(12)
H2 H 0.220(3) -0.559(4) 1.411(2)
H3 H 0.104(3) -0.462(3) 1.363(2)
H4 H 0.251(2) -0.280(3) 1.4083(14)
H5 H 0.397(3) -0.379(3) 1.404(2)
H6 H 0.377(2) -0.257(3) 1.2849(14)
H7 H 0.209(3) -0.250(3) 1.2663(14)
H8 H 0.651(2) -0.456(2) 1.2296(13)
H9 H 0.867(2) -0.475(2) 1.1839(13)
H10 H 0.892(2) -0.422(3) 1.0506(13)
H11 H 0.703(2) -0.342(2) 0.9630(14)
H12 H 0.487(2) -0.326(2) 1.0076(13)
H13 H 0.169(2) -0.377(2) 1.0940(12)
H14 H 0.029(3) -0.184(3) 1.0496(14)
H15 H 0.113(3) 0.053(3) 1.0574(15)
H16 H 0.347(2) 0.095(3) 1.1032(13)
H17 H 0.478(2) -0.100(2) 1.1460(12)
loop_
_geom_bond_atom_site_label_1
_geom_bond_atom_site_label_2
_geom_bond_site_symmetry_1
_geom_bond_site_symmetry_2
N1 C1 1_555 1_555
C1 C2 1_555 1_555
C2 C3 1_555 1_555
C3 C4 1_555 1_555
C4 N1 1_555 1_555
N2 C1 1_555 1_555
N3 N2 1_555 1_555
N4 N3 1_555 1_555
C5 N1 1_555 1_555
O1 C5 1_555 1_555
N5 C5 1_555 1_555
C6 N5 1_555 1_555
C7 C6 1_555 1_555
C8 C7 1_555 1_555
C9 C8 1_555 1_555
C10 C9 1_555 1_555
C11 C6 1_555 1_555
C12 N5 1_555 1_555
C13 C12 1_555 1_555
C14 C13 1_555 1_555
C15 C14 1_555 1_555
C16 C15 1_555 1_555
C17 C12 1_555 1_555
H1 C1 1_555 1_555
H2 C2 1_555 1_555
H3 C2 1_555 1_555
H4 C3 1_555 1_555
H5 C3 1_555 1_555
H6 C4 1_555 1_555
H7 C4 1_555 1_555
H8 C7 1_555 1_555
H9 C8 1_555 1_555
H10 C9 1_555 1_555
H11 C10 1_555 1_555
H12 C11 1_555 1_555
H13 C13 1_555 1_555
H14 C14 1_555 1_555
H15 C15 1_555 1_555
H16 C16 1_555 1_555
H17 C17 1_555 1_555
C10 C11 1_555 1_555
C16 C17 1_555 1_555

#END
