
#######################################################################
#
#                 Cambridge Crystallographic Data Centre
#                                CCDC 
#
#######################################################################
#
# If this CIF has been generated from an entry in the Cambridge 
# Structural Database, then it will include bibliographic, chemical, 
# crystal, experimental, refinement or atomic coordinate data resulting 
# from the CCDC's data processing and validation procedures.
#
#######################################################################

data_PIXYEC
_chemical_formula_moiety         'C24 H25 N1 O1 Si1'
_chemical_name_systematic        
N-(9H-Fluoren-9-ylidene(2-methoxyphenyl)methyl)-1,1,1-trimethylsilanamine
_symmetry_cell_setting           monoclinic
_symmetry_space_group_name_H-M   'P 21/c'
_symmetry_Int_Tables_number      14
_space_group_name_Hall           '-P 2ybc'
loop_
_symmetry_equiv_pos_site_id
_symmetry_equiv_pos_as_xyz
1 x,y,z
2 -x,1/2+y,1/2-z
3 -x,-y,-z
4 x,1/2-y,1/2+z
_cell_length_a                   12.611(3)
_cell_length_b                   9.5694(19)
_cell_length_c                   20.325(6)
_cell_angle_alpha                90
_cell_angle_beta                 124.10(2)
_cell_angle_gamma                90
_cell_volume                     2031.08
_exptl_crystal_colour            yellow
_exptl_crystal_description       Prism
_cell_formula_units_Z            4
loop_
_atom_site_label
_atom_site_type_symbol
_atom_site_fract_x
_atom_site_fract_y
_atom_site_fract_z
Si1 Si 0.66989(6) 0.64695(7) 0.46564(4)
O1 O 0.94557(19) 0.4521(2) 0.70940(11)
N1 N 0.81941(18) 0.5781(2) 0.49531(11)
H1 H 0.8454 0.6009 0.4646
C1 C 1.0326(2) 0.5139(2) 0.60208(13)
C2 C 1.0993(2) 0.6446(2) 0.60736(14)
C3 C 1.0568(2) 0.7744(2) 0.56909(15)
H2 H 0.9696 0.7869 0.5268
C4 C 1.1426(2) 0.8843(3) 0.59324(16)
H3 H 1.1131 0.9719 0.5670
C5 C 1.2708(3) 0.8693(3) 0.65494(16)
H4 H 1.3276 0.9464 0.6708
C6 C 1.3158(2) 0.7417(3) 0.69335(15)
H5 H 1.4034 0.7305 0.7354
C7 C 1.2307(2) 0.6306(2) 0.66934(14)
C8 C 1.2521(2) 0.4893(2) 0.70131(14)
C9 C 1.3646(2) 0.4240(3) 0.76098(15)
H6 H 1.4436 0.4732 0.7886
C10 C 1.3589(3) 0.2860(3) 0.77916(16)
H7 H 1.4346 0.2403 0.8199
C11 C 1.2439(3) 0.2140(3) 0.73847(16)
H8 H 1.2421 0.1191 0.7515
C12 C 1.1311(2) 0.2778(3) 0.67909(16)
H9 H 1.0532 0.2265 0.6511
C13 C 1.1335(2) 0.4186(2) 0.66094(14)
C14 C 0.9032(2) 0.4938(2) 0.55932(14)
C15 C 0.8397(2) 0.3807(2) 0.57581(15)
C16 C 0.7537(2) 0.2919(3) 0.51407(16)
H10 H 0.7369 0.3050 0.4627
C17 C 0.6921(3) 0.1846(3) 0.5262(2)
H11 H 0.6342 0.1243 0.4838
C18 C 0.7167(3) 0.1672(3) 0.6009(2)
H12 H 0.6748 0.0943 0.6096
C19 C 0.8008(3) 0.2535(3) 0.66320(19)
H13 H 0.8163 0.2395 0.7142
C20 C 0.8628(2) 0.3610(3) 0.65138(16)
C21 C 0.9910(3) 0.4175(4) 0.78948(17)
H14 H 1.0579 0.4837 0.8258
H15 H 1.0262 0.3226 0.8014
H16 H 0.9199 0.4225 0.7962
C22 C 0.6655(3) 0.6740(4) 0.55400(18)
H17 H 0.6696 0.5834 0.5778
H18 H 0.5857 0.7216 0.5383
H19 H 0.7387 0.7314 0.5928
C23 C 0.5336(3) 0.5378(3) 0.39032(18)
H20 H 0.5327 0.4500 0.4148
H21 H 0.5430 0.5176 0.3466
H22 H 0.4532 0.5882 0.3698
C24 C 0.6621(3) 0.8163(3) 0.41832(18)
H23 H 0.6755 0.8001 0.3758
H24 H 0.7289 0.8789 0.4582
H25 H 0.5779 0.8590 0.3959
loop_
_geom_bond_atom_site_label_1
_geom_bond_atom_site_label_2
_geom_bond_site_symmetry_1
_geom_bond_site_symmetry_2
Si1 N1 1_555 1_555
O1 C20 1_555 1_555
N1 H1 1_555 1_555
C1 C2 1_555 1_555
C2 C3 1_555 1_555
C3 H2 1_555 1_555
C4 C3 1_555 1_555
H3 C4 1_555 1_555
C5 C4 1_555 1_555
H4 C5 1_555 1_555
C6 C5 1_555 1_555
H5 C6 1_555 1_555
C7 C2 1_555 1_555
C8 C7 1_555 1_555
C9 C8 1_555 1_555
H6 C9 1_555 1_555
C10 C9 1_555 1_555
H7 C10 1_555 1_555
C11 C10 1_555 1_555
H8 C11 1_555 1_555
C12 C11 1_555 1_555
H9 C12 1_555 1_555
C13 C1 1_555 1_555
C14 N1 1_555 1_555
C15 C14 1_555 1_555
C16 C15 1_555 1_555
H10 C16 1_555 1_555
C17 C16 1_555 1_555
H11 C17 1_555 1_555
C18 C17 1_555 1_555
H12 C18 1_555 1_555
C19 C18 1_555 1_555
H13 C19 1_555 1_555
C20 C15 1_555 1_555
C21 O1 1_555 1_555
H14 C21 1_555 1_555
H15 C21 1_555 1_555
H16 C21 1_555 1_555
C22 Si1 1_555 1_555
H17 C22 1_555 1_555
H18 C22 1_555 1_555
H19 C22 1_555 1_555
C23 Si1 1_555 1_555
H20 C23 1_555 1_555
H21 C23 1_555 1_555
H22 C23 1_555 1_555
C24 Si1 1_555 1_555
H23 C24 1_555 1_555
H24 C24 1_555 1_555
H25 C24 1_555 1_555
C1 C14 1_555 1_555
C6 C7 1_555 1_555
C8 C13 1_555 1_555
C12 C13 1_555 1_555
C19 C20 1_555 1_555

#END
