
#######################################################################
#
#                 Cambridge Crystallographic Data Centre
#                                CCDC 
#
#######################################################################
#
# If this CIF has been generated from an entry in the Cambridge 
# Structural Database, then it will include bibliographic, chemical, 
# crystal, experimental, refinement or atomic coordinate data resulting 
# from the CCDC's data processing and validation procedures.
#
#######################################################################

data_PIXZAZ
_chemical_formula_moiety         'C10 H8 I1 N1 O2'
_chemical_name_systematic        1-Ethyl-5-iodo-1H-indole-2,3-dione
_symmetry_cell_setting           triclinic
_symmetry_space_group_name_H-M   'P -1'
_symmetry_Int_Tables_number      2
_space_group_name_Hall           '-P 1'
loop_
_symmetry_equiv_pos_site_id
_symmetry_equiv_pos_as_xyz
1 x,y,z
2 -x,-y,-z
_cell_length_a                   9.9658(2)
_cell_length_b                   10.1453(2)
_cell_length_c                   11.3007(2)
_cell_angle_alpha                71.1880(10)
_cell_angle_beta                 72.5990(10)
_cell_angle_gamma                84.4340(10)
_cell_volume                     1032.04
_exptl_crystal_colour            orange
_exptl_crystal_description       plank
_cell_formula_units_Z            4
loop_
_atom_site_label
_atom_site_type_symbol
_atom_site_fract_x
_atom_site_fract_y
_atom_site_fract_z
I1 I -0.188160(18) 0.385210(17) 0.659889(17)
O1 O 0.1685(2) -0.30982(18) 0.98576(18)
O2 O -0.12166(19) -0.20187(18) 1.00153(18)
N1 N 0.22397(19) -0.09288(18) 0.83363(18)
C1 C -0.0444(2) 0.2289(2) 0.7122(2)
C2 C 0.0995(3) 0.2509(2) 0.6564(2)
C3 C 0.1973(2) 0.1495(2) 0.6900(2)
C4 C 0.1470(2) 0.0250(2) 0.7828(2)
C5 C 0.3765(2) -0.1004(3) 0.8019(3)
H1 H 0.4165 -0.0557 0.7092
H2 H 0.4054 -0.1973 0.8216
C6 C 0.4329(3) -0.0314(4) 0.8766(3)
H3 H 0.3986 0.0625 0.8625
H4 H 0.5338 -0.0306 0.8470
H5 H 0.4023 -0.0820 0.9679
C7 C 0.1354(3) -0.1967(2) 0.9239(2)
C8 C -0.0166(2) -0.1390(2) 0.9316(2)
C9 C 0.0021(2) 0.0023(2) 0.8392(2)
C10 C -0.0948(2) 0.1026(2) 0.8047(2)
H6 H -0.189(3) 0.089(3) 0.843(2)
H7 H 0.132(3) 0.339(3) 0.596(3)
H8 H 0.299(3) 0.166(3) 0.650(3)
I2 I 1.215992(18) 0.17083(2) 0.320573(19)
O3 O 0.5791(2) 0.1463(2) 0.5519(2)
O4 O 0.41994(19) 0.3947(2) 0.4463(2)
C11 C 0.6039(3) 0.5967(3) 0.2206(3)
H9 H 0.6799 0.6622 0.1950
H10 H 0.5200 0.6337 0.2693
C12 C 1.0250(2) 0.2682(2) 0.3052(2)
C13 C 0.9007(3) 0.2058(2) 0.3914(2)
C14 C 0.7765(2) 0.2774(2) 0.3829(2)
C15 C 0.7764(2) 0.4083(2) 0.2908(2)
N2 N 0.63970(19) 0.4636(2) 0.30430(19)
C16 C 0.5792(4) 0.5831(4) 0.1017(3)
H11 H 0.6629 0.5489 0.0519
H12 H 0.5553 0.6724 0.0498
H13 H 0.5034 0.5191 0.1265
C17 C 0.6307(3) 0.2473(3) 0.4615(2)
C18 C 0.5455(2) 0.3764(3) 0.4059(2)
C19 C 0.9001(2) 0.4696(2) 0.2032(2)
C20 C 1.0245(2) 0.3975(2) 0.2122(2)
H14 H 1.110(3) 0.439(3) 0.149(3)
H15 H 0.897(3) 0.557(3) 0.142(3)
H16 H 0.903(3) 0.124(3) 0.449(3)
loop_
_geom_bond_atom_site_label_1
_geom_bond_atom_site_label_2
_geom_bond_site_symmetry_1
_geom_bond_site_symmetry_2
I1 C1 1_555 1_555
O1 C7 1_555 1_555
O2 C8 1_555 1_555
N1 C4 1_555 1_555
C1 C2 1_555 1_555
C2 C3 1_555 1_555
C3 C4 1_555 1_555
C4 C9 1_555 1_555
C5 N1 1_555 1_555
H1 C5 1_555 1_555
H2 C5 1_555 1_555
C6 C5 1_555 1_555
H3 C6 1_555 1_555
H4 C6 1_555 1_555
H5 C6 1_555 1_555
C7 N1 1_555 1_555
C8 C7 1_555 1_555
C9 C8 1_555 1_555
C10 C1 1_555 1_555
H6 C10 1_555 1_555
H7 C2 1_555 1_555
H8 C3 1_555 1_555
I2 C12 1_555 1_555
O3 C17 1_555 1_555
O4 C18 1_555 1_555
C11 H9 1_555 1_555
H10 C11 1_555 1_555
C12 C13 1_555 1_555
C13 C14 1_555 1_555
C14 C15 1_555 1_555
C15 N2 1_555 1_555
N2 C11 1_555 1_555
C16 C11 1_555 1_555
H11 C16 1_555 1_555
H12 C16 1_555 1_555
H13 C16 1_555 1_555
C17 C14 1_555 1_555
C18 N2 1_555 1_555
C19 C15 1_555 1_555
C20 C12 1_555 1_555
H14 C20 1_555 1_555
H15 C19 1_555 1_555
H16 C13 1_555 1_555
C9 C10 1_555 1_555
C17 C18 1_555 1_555
C19 C20 1_555 1_555

#END
