
#######################################################################
#
#                 Cambridge Crystallographic Data Centre
#                                CCDC 
#
#######################################################################
#
# If this CIF has been generated from an entry in the Cambridge 
# Structural Database, then it will include bibliographic, chemical, 
# crystal, experimental, refinement or atomic coordinate data resulting 
# from the CCDC's data processing and validation procedures.
#
#######################################################################

data_PIZCUW
_chemical_formula_moiety         'C16 H8 S5'
_chemical_name_systematic        
2-(5H-Dithieno(3,2-b;2',3'-e)thiopyran-5-ylidene)-1,3-benzodithiole
_symmetry_cell_setting           monoclinic
_symmetry_space_group_name_H-M   'P 21/a'
_symmetry_Int_Tables_number      14
_space_group_name_Hall           '-P 2yab'
loop_
_symmetry_equiv_pos_site_id
_symmetry_equiv_pos_as_xyz
1 x,y,z
2 1/2-x,1/2+y,-z
3 -x,-y,-z
4 1/2+x,1/2-y,z
_cell_length_a                   12.539(1)
_cell_length_b                   30.824(2)
_cell_length_c                   7.717(1)
_cell_angle_alpha                90
_cell_angle_beta                 90.67(1)
_cell_angle_gamma                90
_cell_volume                     2982.43
_exptl_crystal_colour            orange
_chemical_melting_point          '166-167 deg.C (dec)'
_cell_formula_units_Z            8
loop_
_atom_site_label
_atom_site_type_symbol
_atom_site_fract_x
_atom_site_fract_y
_atom_site_fract_z
S1 S 0.1850(2) 0.1735(1) 0.5934(4)
S2 S 0.3071(2) 0.0480(1) 0.7080(4)
S3 S 0.4150(2) 0.2069(1) 0.9798(4)
S4 S 0.5449(2) 0.0682(1) 0.7043(3)
S5 S 0.6049(2) 0.1541(1) 0.8407(3)
C1 C 0.1853(7) 0.0456(3) 0.6043(14)
C2 C 0.1470(7) 0.0854(4) 0.5662(13)
C3 C 0.2168(7) 0.1193(3) 0.6225(12)
C4 C 0.3100(7) 0.1038(3) 0.6988(11)
C5 C 0.3220(9) 0.2468(3) 0.9558(15)
C6 C 0.2478(8) 0.2372(3) 0.8316(13)
C7 C 0.2680(7) 0.1950(3) 0.7544(12)
C8 C 0.3584(7) 0.1754(3) 0.8180(11)
C9 C 0.3961(7) 0.1322(3) 0.7654(12)
C10 C 0.5009(7) 0.1196(3) 0.7699(11)
C11 C 0.6806(7) 0.0793(3) 0.7224(11)
C12 C 0.7097(7) 0.1197(3) 0.7879(11)
C13 C 0.8177(7) 0.1311(3) 0.8055(12)
C14 C 0.8948(8) 0.1010(3) 0.7581(14)
C15 C 0.8654(8) 0.0612(3) 0.6964(14)
C16 C 0.7595(7) 0.0496(3) 0.6792(13)
H1 H 0.139(7) 0.018(3) 0.568(12)
H2 H 0.073(7) 0.090(3) 0.499(12)
H3 H 0.327(7) 0.280(3) 1.030(11)
H4 H 0.182(8) 0.258(3) 0.800(14)
H5 H 0.838(6) 0.170(3) 0.827(10)
H6 H 0.980(7) 0.111(3) 0.765(13)
H7 H 0.935(7) 0.048(3) 0.652(11)
H8 H 0.742(6) 0.019(3) 0.648(11)
S6 S 1.0883(2) 0.1753(1) 0.0971(4)
S7 S 0.8583(2) 0.2070(1) 0.4777(4)
S8 S 0.9672(2) 0.0490(1) 0.1958(3)
S9 S 0.6699(2) 0.1533(1) 0.3404(3)
S10 S 0.7299(2) 0.0677(1) 0.2022(3)
C17 C 0.9508(9) 0.2475(3) 0.4574(15)
C18 C 1.0232(8) 0.2376(3) 0.3345(14)
C19 C 1.0040(7) 0.1965(3) 0.2526(13)
C20 C 0.9148(7) 0.1757(3) 0.3165(12)
C21 C 1.0861(8) 0.0472(3) 0.0938(14)
C22 C 1.1235(7) 0.0876(3) 0.0607(13)
C23 C 1.0557(7) 0.1209(3) 0.1218(11)
C24 C 0.9634(6) 0.1055(3) 0.1941(12)
C25 C 0.8780(7) 0.1321(3) 0.2623(11)
C26 C 0.7747(7) 0.1194(3) 0.2708(11)
C27 C 0.5654(7) 0.1178(3) 0.2879(11)
C28 C 0.5931(7) 0.0779(3) 0.2227(11)
C29 C 0.5144(7) 0.0474(3) 0.1774(13)
C30 C 0.4078(8) 0.0588(4) 0.1983(14)
C31 C 0.3801(8) 0.0993(4) 0.2647(14)
C32 C 0.4579(7) 0.1288(3) 0.3072(13)
H9 H 0.961(7) 0.280(3) 0.545(12)
H10 H 1.088(7) 0.258(3) 0.306(12)
H11 H 1.128(7) 0.021(3) 0.081(12)
H12 H 1.198(6) 0.092(3) 0.029(11)
H13 H 0.539(7) 0.017(3) 0.129(11)
H14 H 0.343(7) 0.034(3) 0.200(11)
H15 H 0.293(7) 0.106(3) 0.285(12)
H16 H 0.446(7) 0.160(3) 0.355(11)
loop_
_geom_bond_atom_site_label_1
_geom_bond_atom_site_label_2
_geom_bond_site_symmetry_1
_geom_bond_site_symmetry_2
S1 C3 1_555 1_555
S2 C1 1_555 1_555
S3 C5 1_555 1_555
S4 C10 1_555 1_555
S5 C10 1_555 1_555
C1 C2 1_555 1_555
C2 C3 1_555 1_555
C3 C4 1_555 1_555
C4 S2 1_555 1_555
C5 C6 1_555 1_555
C6 C7 1_555 1_555
C7 S1 1_555 1_555
C8 S3 1_555 1_555
C9 C4 1_555 1_555
C10 C9 1_555 1_555
C11 S4 1_555 1_555
C12 S5 1_555 1_555
C13 C12 1_555 1_555
C14 C13 1_555 1_555
C15 C14 1_555 1_555
C16 C11 1_555 1_555
H1 C1 1_555 1_555
H2 C2 1_555 1_555
H3 C5 1_555 1_555
H4 C6 1_555 1_555
H5 C13 1_555 1_555
H6 C14 1_555 1_555
H7 C15 1_555 1_555
H8 C16 1_555 1_555
S6 C19 1_555 1_555
S7 C17 1_555 1_555
S8 C21 1_555 1_555
S9 C26 1_555 1_555
S10 C26 1_555 1_555
C17 C18 1_555 1_555
C18 C19 1_555 1_555
C19 C20 1_555 1_555
C20 S7 1_555 1_555
C21 C22 1_555 1_555
C22 C23 1_555 1_555
C23 S6 1_555 1_555
C24 S8 1_555 1_555
C25 C20 1_555 1_555
C26 C25 1_555 1_555
C27 S9 1_555 1_555
C28 S10 1_555 1_555
C29 C28 1_555 1_555
C30 C29 1_555 1_555
C31 C30 1_555 1_555
C32 C27 1_555 1_555
H9 C17 1_555 1_555
H10 C18 1_555 1_555
H11 C21 1_555 1_555
H12 C22 1_555 1_555
H13 C29 1_555 1_555
H14 C30 1_555 1_555
H15 C31 1_555 1_555
H16 C32 1_555 1_555
C7 C8 1_555 1_555
C8 C9 1_555 1_555
C11 C12 1_555 1_555
C15 C16 1_555 1_555
C23 C24 1_555 1_555
C24 C25 1_555 1_555
C27 C28 1_555 1_555
C31 C32 1_555 1_555

#END
