
#######################################################################
#
#                 Cambridge Crystallographic Data Centre
#                                CCDC 
#
#######################################################################
#
# If this CIF has been generated from an entry in the Cambridge 
# Structural Database, then it will include bibliographic, chemical, 
# crystal, experimental, refinement or atomic coordinate data resulting 
# from the CCDC's data processing and validation procedures.
#
#######################################################################

data_PIZDOS
_chemical_formula_moiety         'C10 H9 N2 1+,C10 H8 N1 O8 1-,H2 O1'
_chemical_name_systematic        
"4,4'-Bipyridinium hydrogen 2-nitrobenzene-1,4-dioxyacetate monohydrate"
_symmetry_cell_setting           triclinic
_symmetry_space_group_name_H-M   'P -1'
_symmetry_Int_Tables_number      2
_space_group_name_Hall           '-P 1'
loop_
_symmetry_equiv_pos_site_id
_symmetry_equiv_pos_as_xyz
1 x,y,z
2 -x,-y,-z
_cell_length_a                   8.7231(3)
_cell_length_b                   9.6718(3)
_cell_length_c                   12.8745(4)
_cell_angle_alpha                77.501(1)
_cell_angle_beta                 74.023(1)
_cell_angle_gamma                67.092(1)
_cell_volume                     954.529
_exptl_crystal_colour            yellow
_exptl_crystal_description       block
_cell_formula_units_Z            2
loop_
_atom_site_label
_atom_site_type_symbol
_atom_site_fract_x
_atom_site_fract_y
_atom_site_fract_z
O1 O 0.62670(9) 0.76162(9) 0.30591(6)
O2 O 0.30889(10) 0.61148(10) 0.45634(6)
O3 O 0.43719(9) 0.62582(9) 0.28087(6)
O4 O 0.80393(11) 0.72283(10) 0.10330(7)
O5 O 0.85667(12) 0.92892(10) 0.03584(6)
O6 O 1.12682(9) 0.97027(9) 0.32304(6)
O7 O 1.46172(9) 1.09072(9) 0.15733(6)
H1 H 1.531(3) 1.148(3) 0.167(2)
O8 O 1.34504(10) 1.09674(9) 0.33589(6)
N1 N 0.83576(11) 0.83228(10) 0.11201(7)
C1 C 0.74715(13) 0.81219(11) 0.31382(8)
C2 C 0.85488(12) 0.84736(11) 0.21799(8)
C3 C 0.98291(12) 0.90057(11) 0.21609(8)
H2 H 1.0477(19) 0.9195(17) 0.1478(13)
C4 C 1.00623(13) 0.91842(11) 0.31398(8)
C5 C 0.89826(13) 0.88700(12) 0.41127(9)
H3 H 0.9140(18) 0.9027(16) 0.4803(12)
C6 C 0.77017(13) 0.83616(12) 0.41118(8)
H4 H 0.6959(19) 0.8185(17) 0.4787(13)
C7 C 0.51756(13) 0.72520(12) 0.40430(8)
H5 H 0.4383(17) 0.8163(15) 0.4385(11)
H6 H 0.5862(18) 0.6549(16) 0.4560(12)
C8 C 0.41136(12) 0.64828(11) 0.38004(8)
C9 C 1.23691(12) 1.00147(12) 0.22387(8)
H7 H 1.1730(18) 1.0753(16) 0.1723(12)
H8 H 1.3039(17) 0.9102(15) 0.1898(11)
C10 C 1.35341(12) 1.06758(11) 0.24706(8)
H9 H 0.325(3) 0.559(2) 0.2752(19)
N2 N 0.23472(11) 0.50904(10) 0.26034(7)
N3 N -0.35628(11) 0.22662(10) 0.18746(8)
C11 C 0.24980(13) 0.46631(12) 0.16467(8)
H10 H 0.3449(18) 0.4748(16) 0.1085(12)
C12 C 0.13559(13) 0.41073(12) 0.14869(8)
H11 H 0.1556(18) 0.3772(15) 0.0795(12)
C13 C -0.00117(12) 0.39983(11) 0.23329(8)
C14 C -0.01350(13) 0.44313(12) 0.33288(8)
H12 H -0.1006(19) 0.4370(17) 0.3942(13)
C15 C 0.10652(13) 0.49649(13) 0.34303(9)
H13 H 0.1022(19) 0.5278(17) 0.4083(13)
C16 C -0.34308(14) 0.23096(13) 0.28762(9)
H14 H -0.4174(19) 0.1881(17) 0.3459(12)
C17 C -0.23064(13) 0.28702(13) 0.30650(9)
H15 H -0.223(2) 0.2834(18) 0.3800(14)
C18 C -0.12724(12) 0.34240(11) 0.21820(8)
C19 C -0.14433(14) 0.33982(13) 0.11419(9)
H16 H -0.083(2) 0.3827(17) 0.0503(13)
C20 C -0.25844(14) 0.28082(13) 0.10233(9)
H17 H -0.270(2) 0.2747(18) 0.0361(14)
O9 O 0.49815(12) 0.69898(13) 0.05198(8)
H18 H 0.528(3) 0.681(2) 0.1164(19)
H19 H 0.545(3) 0.778(3) 0.012(2)
loop_
_geom_bond_atom_site_label_1
_geom_bond_atom_site_label_2
_geom_bond_site_symmetry_1
_geom_bond_site_symmetry_2
O1 C1 1_555 1_555
O2 C8 1_555 1_555
O3 C8 1_555 1_555
O4 N1 1_555 1_555
O5 N1 1_555 1_555
O6 C4 1_555 1_555
O7 H1 1_555 1_555
O8 C10 1_555 1_555
N1 C2 1_555 1_555
C1 C2 1_555 1_555
C2 C3 1_555 1_555
C3 H2 1_555 1_555
C4 C3 1_555 1_555
C5 C4 1_555 1_555
H3 C5 1_555 1_555
C6 C1 1_555 1_555
H4 C6 1_555 1_555
C7 O1 1_555 1_555
H5 C7 1_555 1_555
H6 C7 1_555 1_555
C8 C7 1_555 1_555
C9 O6 1_555 1_555
H7 C9 1_555 1_555
H8 C9 1_555 1_555
C10 O7 1_555 1_555
H9 N2 1_555 1_555
N2 C11 1_555 1_555
N3 C16 1_555 1_555
C11 H10 1_555 1_555
C12 C11 1_555 1_555
H11 C12 1_555 1_555
C13 C12 1_555 1_555
C14 C13 1_555 1_555
H12 C14 1_555 1_555
C15 N2 1_555 1_555
H13 C15 1_555 1_555
C16 H14 1_555 1_555
C17 C16 1_555 1_555
H15 C17 1_555 1_555
C18 C13 1_555 1_555
C19 C18 1_555 1_555
H16 C19 1_555 1_555
C20 N3 1_555 1_555
H17 C20 1_555 1_555
O9 H18 1_555 1_555
H19 O9 1_555 1_555
C5 C6 1_555 1_555
C9 C10 1_555 1_555
C14 C15 1_555 1_555
C17 C18 1_555 1_555
C19 C20 1_555 1_555

#END
