
#######################################################################
#
#                 Cambridge Crystallographic Data Centre
#                                CCDC 
#
#######################################################################
#
# If this CIF has been generated from an entry in the Cambridge 
# Structural Database, then it will include bibliographic, chemical, 
# crystal, experimental, refinement or atomic coordinate data resulting 
# from the CCDC's data processing and validation procedures.
#
#######################################################################

data_PIZFAG
_chemical_formula_moiety         'C13 H10 N2 O4,0.5(C1 H4 O1)'
_chemical_name_systematic        
'2-Carboxybenzaldehyde furan-2-carbohydrazide methanol solvate'
_symmetry_cell_setting           triclinic
_symmetry_space_group_name_H-M   'P -1'
_symmetry_Int_Tables_number      2
_space_group_name_Hall           '-P 1'
loop_
_symmetry_equiv_pos_site_id
_symmetry_equiv_pos_as_xyz
1 x,y,z
2 -x,-y,-z
_cell_length_a                   9.1625(13)
_cell_length_b                   10.8104(19)
_cell_length_c                   14.190(2)
_cell_angle_alpha                107.309(3)
_cell_angle_beta                 101.878(3)
_cell_angle_gamma                92.192(2)
_cell_volume                     1305.67
_exptl_crystal_colour            colorless
_exptl_crystal_description       block
_cell_formula_units_Z            4
loop_
_atom_site_label
_atom_site_type_symbol
_atom_site_fract_x
_atom_site_fract_y
_atom_site_fract_z
N1 N 0.6958(2) 0.58330(18) 0.04135(14)
H1 H 0.6935 0.5166 0.0624
N2 N 0.6410(2) 0.69592(17) 0.09016(15)
O1 O 0.8263(2) 0.36916(17) -0.03089(14)
O2 O 0.75351(18) 0.66866(17) -0.07663(13)
O3 O 0.6757(2) 0.67078(18) 0.35819(13)
O4 O 0.5295(2) 0.74978(19) 0.46281(14)
H2 H 0.5723 0.7027 0.4931
C1 C 0.7527(3) 0.5790(2) -0.03958(18)
C2 C 0.8164(3) 0.4594(2) -0.08206(19)
C3 C 0.8745(3) 0.4175(3) -0.1634(2)
H3 H 0.8814 0.4602 -0.2106
C4 C 0.9237(4) 0.2942(3) -0.1633(3)
H4 H 0.9692 0.2407 -0.2108
C5 C 0.8925(3) 0.2700(3) -0.0829(3)
H5 H 0.9133 0.1955 -0.0649
C6 C 0.5879(3) 0.6897(2) 0.16502(17)
H6 H 0.5911 0.6146 0.1842
C7 C 0.5215(2) 0.8020(2) 0.22073(16)
C8 C 0.5033(2) 0.8182(2) 0.31917(16)
C9 C 0.4256(3) 0.9200(2) 0.36400(18)
H7 H 0.4081 0.9285 0.4278
C10 C 0.3746(3) 1.0079(2) 0.3150(2)
H8 H 0.3238 1.0757 0.3459
C11 C 0.3987(3) 0.9953(2) 0.22088(19)
H9 H 0.3678 1.0565 0.1889
C12 C 0.4687(3) 0.8919(2) 0.17317(19)
H10 H 0.4808 0.8823 0.1080
C13 C 0.5779(3) 0.7376(2) 0.38018(18)
N3 N 0.9838(2) 0.58477(18) 0.40900(14)
H11 H 0.9012 0.6203 0.4054
N4 N 0.9913(2) 0.46301(18) 0.34453(15)
O5 O 0.9625(2) 0.82837(16) 0.53170(14)
O6 O 1.2279(2) 0.59937(18) 0.48982(15)
O7 O 0.60083(18) 0.38892(15) 0.13086(13)
O8 O 0.47405(17) 0.19463(14) 0.09121(12)
H12 H 0.4027 0.2354 0.0788
C14 C 1.1097(3) 0.6473(2) 0.47824(18)
C15 C 1.0987(3) 0.7802(2) 0.53931(18)
C16 C 1.2047(3) 0.8719(3) 0.6052(2)
H13 H 1.3064 0.8636 0.6237
C17 C 1.1318(4) 0.9835(3) 0.6409(2)
H14 H 1.1763 1.0629 0.6874
C18 C 0.9883(4) 0.9533(3) 0.5955(2)
H15 H 0.9148 1.0096 0.6057
C19 C 0.8695(3) 0.4050(2) 0.28373(18)
H16 H 0.7817 0.4454 0.2842
C20 C 0.8671(3) 0.2742(2) 0.21265(17)
C21 C 0.7367(3) 0.2076(2) 0.14120(16)
C22 C 0.7376(3) 0.0794(2) 0.08256(18)
H17 H 0.6497 0.0346 0.0376
C23 C 0.8652(3) 0.0181(2) 0.0896(2)
H18 H 0.8647 -0.0673 0.0491
C24 C 0.9943(3) 0.0841(3) 0.1573(2)
H19 H 1.0819 0.0433 0.1616
C25 C 0.9957(3) 0.2096(2) 0.2186(2)
H20 H 1.0837 0.2520 0.2648
C26 C 0.5993(3) 0.2738(2) 0.12213(16)
O9 O 0.3321(2) 0.36309(18) 0.41334(14)
H21 H 0.3020 0.4312 0.4427
C27 C 0.4153(4) 0.3863(3) 0.3458(2)
H22 H 0.4851 0.4627 0.3798
H23 H 0.3482 0.3990 0.2886
H24 H 0.4690 0.3127 0.3228
loop_
_geom_bond_atom_site_label_1
_geom_bond_atom_site_label_2
_geom_bond_site_symmetry_1
_geom_bond_site_symmetry_2
N1 H1 1_555 1_555
N2 N1 1_555 1_555
O1 C2 1_555 1_555
O2 C1 1_555 1_555
O3 C13 1_555 1_555
O4 H2 1_555 1_555
C1 N1 1_555 1_555
C2 C1 1_555 1_555
C3 C2 1_555 1_555
H3 C3 1_555 1_555
C4 C3 1_555 1_555
H4 C4 1_555 1_555
C5 O1 1_555 1_555
H5 C5 1_555 1_555
C6 N2 1_555 1_555
H6 C6 1_555 1_555
C7 C6 1_555 1_555
C8 C7 1_555 1_555
C9 C8 1_555 1_555
H7 C9 1_555 1_555
C10 C9 1_555 1_555
H8 C10 1_555 1_555
C11 C10 1_555 1_555
H9 C11 1_555 1_555
C12 C7 1_555 1_555
H10 C12 1_555 1_555
C13 O4 1_555 1_555
N3 H11 1_555 1_555
N4 N3 1_555 1_555
O5 C15 1_555 1_555
O6 C14 1_555 1_555
O7 C26 1_555 1_555
O8 H12 1_555 1_555
C14 N3 1_555 1_555
C15 C14 1_555 1_555
C16 C15 1_555 1_555
H13 C16 1_555 1_555
C17 C16 1_555 1_555
H14 C17 1_555 1_555
C18 O5 1_555 1_555
H15 C18 1_555 1_555
C19 N4 1_555 1_555
H16 C19 1_555 1_555
C20 C19 1_555 1_555
C21 C20 1_555 1_555
C22 C21 1_555 1_555
H17 C22 1_555 1_555
C23 C22 1_555 1_555
H18 C23 1_555 1_555
C24 C23 1_555 1_555
H19 C24 1_555 1_555
C25 C20 1_555 1_555
H20 C25 1_555 1_555
C26 O8 1_555 1_555
O9 H21 1_555 1_555
C27 O9 1_555 1_555
H22 C27 1_555 1_555
H23 C27 1_555 1_555
H24 C27 1_555 1_555
C4 C5 1_555 1_555
C8 C13 1_555 1_555
C11 C12 1_555 1_555
C17 C18 1_555 1_555
C21 C26 1_555 1_555
C24 C25 1_555 1_555

#END
