
#######################################################################
#
#                 Cambridge Crystallographic Data Centre
#                                CCDC 
#
#######################################################################
#
# If this CIF has been generated from an entry in the Cambridge 
# Structural Database, then it will include bibliographic, chemical, 
# crystal, experimental, refinement or atomic coordinate data resulting 
# from the CCDC's data processing and validation procedures.
#
#######################################################################

data_PIZHAK
_chemical_formula_moiety         'C21 H16 N2 O2'
_chemical_name_systematic        
N-(4-methoxynaphthalen-1-yl)quinoline-2-carboxamide
_symmetry_cell_setting           monoclinic
_symmetry_space_group_name_H-M   'P 21/c'
_symmetry_Int_Tables_number      14
_space_group_name_Hall           '-P 2ybc'
loop_
_symmetry_equiv_pos_site_id
_symmetry_equiv_pos_as_xyz
1 x,y,z
2 -x,1/2+y,1/2-z
3 -x,-y,-z
4 x,1/2-y,1/2+z
_cell_length_a                   6.1601(7)
_cell_length_b                   16.0224(18)
_cell_length_c                   16.6437(19)
_cell_angle_alpha                90
_cell_angle_beta                 99.193(2)
_cell_angle_gamma                90
_cell_volume                     1621.63
_exptl_crystal_colour            colorless
_exptl_crystal_description       block
_cell_formula_units_Z            4
loop_
_atom_site_label
_atom_site_type_symbol
_atom_site_fract_x
_atom_site_fract_y
_atom_site_fract_z
O1 O 0.3792(2) 0.49081(7) 0.64599(7)
O2 O -0.54594(18) 0.69352(8) 0.53213(6)
N1 N 0.2735(2) 0.60787(8) 0.70892(7)
H1 H 0.317053 0.640777 0.749087
N2 N 0.62092(19) 0.59512(7) 0.82535(7)
C1 C 0.4097(2) 0.54362(9) 0.70009(9)
C2 C 0.0698(2) 0.62860(9) 0.66151(8)
C3 C -0.0594(2) 0.69311(8) 0.69110(8)
C4 C -0.2698(2) 0.71215(8) 0.64560(8)
C5 C -0.3435(2) 0.66927(10) 0.57131(9)
C6 C -0.6305(3) 0.65274(14) 0.45778(11)
H2 H -0.534406 0.662680 0.418705
H3 H -0.774202 0.674187 0.437286
H4 H -0.639945 0.593828 0.467161
C7 C -0.2149(3) 0.60947(10) 0.54386(9)
H5 H -0.263195 0.582304 0.494889
C8 C -0.0095(3) 0.58896(10) 0.58965(9)
H6 H 0.074874 0.547411 0.570709
C9 C -0.4034(2) 0.77292(9) 0.67590(9)
H7 H -0.541906 0.784711 0.646918
C10 C -0.3322(3) 0.81434(10) 0.74678(9)
H8 H -0.422041 0.853848 0.765931
C11 C -0.1230(3) 0.79724(10) 0.79079(9)
H9 H -0.074092 0.826214 0.838675
C12 C 0.0094(2) 0.73848(9) 0.76402(9)
H10 H 0.147339 0.727997 0.794136
C13 C 0.6120(2) 0.54171(9) 0.76441(9)
C14 C 0.8076(2) 0.59655(9) 0.88230(8)
C15 C 0.9890(2) 0.54328(9) 0.87736(9)
C16 C 0.9677(3) 0.48589(10) 0.81250(10)
H11 H 1.081355 0.448798 0.808086
C17 C 0.7814(2) 0.48457(10) 0.75626(9)
H12 H 0.765927 0.446767 0.713327
C18 C 1.1815(3) 0.55122(11) 0.93607(10)
H13 H 1.301782 0.516983 0.933016
C19 C 1.1918(3) 0.60833(12) 0.99672(11)
H14 H 1.319653 0.613417 1.034528
C20 C 1.0104(3) 0.65991(12) 1.00285(10)
H15 H 1.018997 0.698338 1.045119
C21 C 0.8221(3) 0.65424(10) 0.94754(10)
H16 H 0.702893 0.688329 0.952626
loop_
_geom_bond_atom_site_label_1
_geom_bond_atom_site_label_2
_geom_bond_site_symmetry_1
_geom_bond_site_symmetry_2
O1 C1 1_555 1_555
O2 C5 1_555 1_555
N1 H1 1_555 1_555
N2 C13 1_555 1_555
C1 N1 1_555 1_555
C2 N1 1_555 1_555
C3 C2 1_555 1_555
C4 C3 1_555 1_555
C5 C4 1_555 1_555
C6 O2 1_555 1_555
H2 C6 1_555 1_555
H3 C6 1_555 1_555
H4 C6 1_555 1_555
C7 C5 1_555 1_555
H5 C7 1_555 1_555
C8 C2 1_555 1_555
H6 C8 1_555 1_555
C9 C4 1_555 1_555
H7 C9 1_555 1_555
C10 C9 1_555 1_555
H8 C10 1_555 1_555
C11 C10 1_555 1_555
H9 C11 1_555 1_555
C12 C3 1_555 1_555
H10 C12 1_555 1_555
C13 C1 1_555 1_555
C14 N2 1_555 1_555
C15 C14 1_555 1_555
C16 C15 1_555 1_555
H11 C16 1_555 1_555
C17 C13 1_555 1_555
H12 C17 1_555 1_555
C18 C15 1_555 1_555
H13 C18 1_555 1_555
C19 C18 1_555 1_555
H14 C19 1_555 1_555
C20 C19 1_555 1_555
H15 C20 1_555 1_555
C21 C14 1_555 1_555
H16 C21 1_555 1_555
C7 C8 1_555 1_555
C11 C12 1_555 1_555
C16 C17 1_555 1_555
C20 C21 1_555 1_555

#END
