
#######################################################################
#
#                 Cambridge Crystallographic Data Centre
#                                CCDC 
#
#######################################################################
#
# If this CIF has been generated from an entry in the Cambridge 
# Structural Database, then it will include bibliographic, chemical, 
# crystal, experimental, refinement or atomic coordinate data resulting 
# from the CCDC's data processing and validation procedures.
#
#######################################################################

data_POCFUI
_chemical_formula_moiety         'C7 H14 N1 O1 1+,C4 H5 O6 1-,C4 H6 O6'
_chemical_name_systematic        
'3-Hydroxyquinuclidinium tartrate tartaric acid solvate'
_symmetry_cell_setting           monoclinic
_symmetry_space_group_name_H-M   'P 21'
_symmetry_Int_Tables_number      4
_space_group_name_Hall           'P 2yb'
loop_
_symmetry_equiv_pos_site_id
_symmetry_equiv_pos_as_xyz
1 x,y,z
2 -x,1/2+y,-z
_cell_length_a                   7.462(1)
_cell_length_b                   16.042(2)
_cell_length_c                   7.757(1)
_cell_angle_alpha                90
_cell_angle_beta                 101.23(10)
_cell_angle_gamma                90
_cell_volume                     910.776
_cell_formula_units_Z            2
loop_
_atom_site_label
_atom_site_type_symbol
_atom_site_fract_x
_atom_site_fract_y
_atom_site_fract_z
N1 N 0.6420(3) -0.0429(2) 0.0824(3)
O1 O 0.7321(5) 0.1071(2) 0.3936(3)
C1 C 0.5431(4) 0.0254(2) 0.1567(4)
C2 C 0.6840(4) -0.0168(2) -0.0916(4)
C3 C 0.8166(4) -0.0628(2) 0.2084(4)
C4 C 0.6717(4) 0.0986(2) 0.2076(4)
C5 C 0.7714(5) 0.0697(2) -0.0702(4)
C6 C 0.9497(3) 0.0102(2) 0.2067(4)
C7 C 0.8417(3) 0.0861(2) 0.1266(3)
H1 H 0.643(6) 0.115(3) 0.429(5)
H2 H 0.573(4) -0.091(2) 0.073(4)
H3 H 0.496(4) 0.003(2) 0.255(4)
H4 H 0.451(4) 0.040(2) 0.071(4)
H5 H 0.575(4) -0.017(2) -0.182(4)
H6 H 0.764(4) -0.058(2) -0.121(4)
H7 H 0.864(4) -0.112(2) 0.175(4)
H8 H 0.779(5) -0.068(3) 0.324(6)
H9 H 0.609(4) 0.153(2) 0.153(4)
H10 H 0.866(4) 0.070(2) -0.137(4)
H11 H 0.677(5) 0.117(2) -0.124(4)
H12 H 1.019(4) 0.025(2) 0.325(4)
H13 H 1.035(4) -0.007(2) 0.138(4)
H14 H 0.917(5) 0.138(2) 0.140(5)
O2 O 0.3377(3) 0.2569(1) 0.8985(2)
O3 O 0.1814(3) 0.1413(2) 0.9336(3)
O4 O 0.0763(3) 0.1148(1) 0.5998(3)
O5 O 0.4472(3) 0.1324(1) 0.5884(3)
O6 O 0.2967(3) 0.1546(2) 0.2542(3)
O7 O 0.1449(3) 0.2698(2) 0.3067(3)
C8 C 0.2364(4) 0.1994(2) 0.8394(4)
C9 C 0.1654(3) 0.1927(2) 0.6438(3)
C10 C 0.3255(4) 0.2009(2) 0.5477(4)
C11 C 0.2503(4) 0.2092(2) 0.3516(4)
H15 H 0.226(5) 0.151(3) 1.049(5)
H16 H 0.091(4) 0.256(2) 0.603(4)
H17 H -0.030(5) 0.122(3) 0.547(5)
H18 H 0.391(4) 0.248(2) 0.587(4)
H19 H 0.405(5) 0.090(3) 0.540(5)
O8 O 0.3538(3) -0.0371(2) -0.5055(3)
O9 O 0.2111(3) -0.1587(1) -0.5788(2)
O10 O 0.2182(3) -0.0286(1) -0.2026(3)
O11 O 0.4544(3) -0.1709(1) -0.1858(1)
O12 O 0.0388(3) -0.1927(1) -0.0156(2)
O13 O 0.3154(3) -0.1503(2) 0.1100(3)
C12 C 0.2609(4) -0.0942(2) -0.4748(4)
C13 C 0.1801(4) -0.0997(2) -0.3085(4)
C14 C 0.2621(3) -0.1752(2) -0.2014(3)
C15 C 0.2055(3) -0.1722(2) -0.0215(3)
H20 H 0.244(5) -0.152(3) -0.665(5)
H21 H 0.049(4) -0.110(2) -0.351(3)
H22 H 0.167(4) 0.014(2) -0.253(4)
H23 H 0.214(4) -0.223(2) -0.256(3)
H24 H 0.505(1) -0.207(2) -0.114(4)
H25 H -0.021(5) -0.209(3) -0.122(5)
loop_
_geom_bond_atom_site_label_1
_geom_bond_atom_site_label_2
_geom_bond_site_symmetry_1
_geom_bond_site_symmetry_2
N1 C1 1_555 1_555
O1 C4 1_555 1_555
C1 C4 1_555 1_555
C2 N1 1_555 1_555
C3 N1 1_555 1_555
C4 C7 1_555 1_555
C5 C2 1_555 1_555
C6 C3 1_555 1_555
C7 C5 1_555 1_555
H1 O1 1_555 1_555
H2 N1 1_555 1_555
H3 C1 1_555 1_555
H4 C1 1_555 1_555
H5 C2 1_555 1_555
H6 C2 1_555 1_555
H7 C3 1_555 1_555
H8 C3 1_555 1_555
H9 C4 1_555 1_555
H10 C5 1_555 1_555
H11 C5 1_555 1_555
H12 C6 1_555 1_555
H13 C6 1_555 1_555
H14 C7 1_555 1_555
O2 C8 1_555 1_555
O3 C8 1_555 1_555
O4 C9 1_555 1_555
O5 C10 1_555 1_555
O6 C11 1_555 1_555
O7 C11 1_555 1_555
C8 C9 1_555 1_555
C9 C10 1_555 1_555
C10 C11 1_555 1_555
H15 O3 1_555 1_555
H16 C9 1_555 1_555
H17 O4 1_555 1_555
H18 C10 1_555 1_555
H19 O5 1_555 1_555
O8 C12 1_555 1_555
O9 C12 1_555 1_555
O10 C13 1_555 1_555
O11 C14 1_555 1_555
O12 C15 1_555 1_555
O13 C15 1_555 1_555
C12 C13 1_555 1_555
C13 C14 1_555 1_555
C14 C15 1_555 1_555
H20 O9 1_555 1_555
H21 C13 1_555 1_555
H22 O10 1_555 1_555
H23 C14 1_555 1_555
H24 O11 1_555 1_555
H25 O12 1_555 1_555
C6 C7 1_555 1_555

#END
