
#######################################################################
#
#                 Cambridge Crystallographic Data Centre
#                                CCDC 
#
#######################################################################
#
# If this CIF has been generated from an entry in the Cambridge 
# Structural Database, then it will include bibliographic, chemical, 
# crystal, experimental, refinement or atomic coordinate data resulting 
# from the CCDC's data processing and validation procedures.
#
#######################################################################

data_POCHUM
_chemical_formula_moiety         'C18 H12 Br2 S3'
_chemical_name_systematic        
2,3-bis(5-Bromo-3-methyl-2-thienyl)-1-benzothiophene
_symmetry_cell_setting           monoclinic
_symmetry_space_group_name_H-M   'P 21/c'
_symmetry_Int_Tables_number      14
_space_group_name_Hall           '-P 2ybc'
loop_
_symmetry_equiv_pos_site_id
_symmetry_equiv_pos_as_xyz
1 x,y,z
2 -x,1/2+y,1/2-z
3 -x,-y,-z
4 x,1/2-y,1/2+z
_cell_length_a                   11.9480(16)
_cell_length_b                   7.9846(10)
_cell_length_c                   19.863(3)
_cell_angle_alpha                90
_cell_angle_beta                 105.998(2)
_cell_angle_gamma                90
_cell_volume                     1821.54
_exptl_crystal_colour            colorless
_exptl_crystal_description       block
_cell_formula_units_Z            4
loop_
_atom_site_label
_atom_site_type_symbol
_atom_site_fract_x
_atom_site_fract_y
_atom_site_fract_z
Br1 Br 1.02388(5) -0.01222(8) 0.80860(3)
Br2 Br 0.98723(4) 0.55944(7) 1.11091(3)
C1 C 0.2990(4) 0.2169(6) 0.7914(3)
H1 H 0.2363 0.2688 0.8019
C2 C 0.4095(3) 0.2166(5) 0.8394(2)
C3 C 0.5048(3) 0.1375(5) 0.8246(2)
C4 C 0.4876(4) 0.0565(5) 0.7607(2)
H2 H 0.5490 0.0005 0.7502
C5 C 0.3794(4) 0.0591(6) 0.7129(3)
H3 H 0.3684 0.0072 0.6696
C6 C 0.2863(4) 0.1395(6) 0.7290(3)
H4 H 0.2137 0.1398 0.6962
C7 C 0.5916(3) 0.2397(5) 0.9372(2)
C8 C 0.6094(3) 0.1515(5) 0.88206(19)
C9 C 0.7228(3) 0.0786(5) 0.8814(2)
C10 C 0.7921(4) -0.0293(5) 0.9285(2)
C11 C 0.8966(4) -0.0687(5) 0.9111(2)
H5 H 0.9533 -0.1407 0.9372
C12 C 0.9047(4) 0.0086(6) 0.8530(2)
C13 C 0.7621(4) -0.1012(6) 0.9914(3)
H6 H 0.8067 -0.0453 1.0329
H7 H 0.7799 -0.2186 0.9948
H8 H 0.6806 -0.0854 0.9865
C14 C 0.6785(3) 0.2991(5) 1.0002(2)
C15 C 0.6793(4) 0.2949(5) 1.0692(2)
C16 C 0.7786(4) 0.3781(5) 1.1126(2)
H9 H 0.7934 0.3875 1.1609
C17 C 0.8482(4) 0.4414(5) 1.0764(2)
C18 C 0.5862(5) 0.2113(6) 1.0962(2)
H10 H 0.5276 0.2920 1.0982
H11 H 0.6207 0.1672 1.1423
H12 H 0.5513 0.1217 1.0653
S1 S 0.44831(9) 0.30727(14) 0.92213(6)
S2 S 0.78717(9) 0.13339(14) 0.81636(5)
S3 S 0.79913(9) 0.40282(15) 0.98858(6)
loop_
_geom_bond_atom_site_label_1
_geom_bond_atom_site_label_2
_geom_bond_site_symmetry_1
_geom_bond_site_symmetry_2
Br1 C12 1_555 1_555
Br2 C17 1_555 1_555
C1 H1 1_555 1_555
C2 C1 1_555 1_555
C3 C2 1_555 1_555
C4 C3 1_555 1_555
H2 C4 1_555 1_555
C5 C4 1_555 1_555
H3 C5 1_555 1_555
C6 C1 1_555 1_555
H4 C6 1_555 1_555
C7 C8 1_555 1_555
C8 C3 1_555 1_555
C9 C8 1_555 1_555
C10 C9 1_555 1_555
C11 C10 1_555 1_555
H5 C11 1_555 1_555
C12 C11 1_555 1_555
C13 C10 1_555 1_555
H6 C13 1_555 1_555
H7 C13 1_555 1_555
H8 C13 1_555 1_555
C14 C7 1_555 1_555
C15 C14 1_555 1_555
C16 C15 1_555 1_555
H9 C16 1_555 1_555
C17 C16 1_555 1_555
C18 C15 1_555 1_555
H10 C18 1_555 1_555
H11 C18 1_555 1_555
H12 C18 1_555 1_555
S1 C2 1_555 1_555
S2 C9 1_555 1_555
S3 C14 1_555 1_555
C5 C6 1_555 1_555
C7 S1 1_555 1_555
C12 S2 1_555 1_555
C17 S3 1_555 1_555

#END
