
#######################################################################
#
#                 Cambridge Crystallographic Data Centre
#                                CCDC 
#
#######################################################################
#
# If this CIF has been generated from an entry in the Cambridge 
# Structural Database, then it will include bibliographic, chemical, 
# crystal, experimental, refinement or atomic coordinate data resulting 
# from the CCDC's data processing and validation procedures.
#
#######################################################################

data_POCJEY
_chemical_name_common            
(E)-N3-(4-chlorobenzylidene)-5-bromopyridine-3,4-diamine
_chemical_formula_moiety         'C12 H9 Br1 Cl1 N3'
_chemical_name_systematic        
(E)-3-bromo-5-((4-chlorobenzylidene)amino)pyridin-4-amine
_symmetry_cell_setting           monoclinic
_symmetry_space_group_name_H-M   'P 21/c'
_symmetry_Int_Tables_number      14
_space_group_name_Hall           '-P 2ybc'
loop_
_symmetry_equiv_pos_site_id
_symmetry_equiv_pos_as_xyz
1 x,y,z
2 -x,1/2+y,1/2-z
3 -x,-y,-z
4 x,1/2-y,1/2+z
_cell_length_a                   13.530(3)
_cell_length_b                   7.5469(15)
_cell_length_c                   13.437(3)
_cell_angle_alpha                90
_cell_angle_beta                 115.89(3)
_cell_angle_gamma                90
_cell_volume                     1234.34
_exptl_crystal_colour            yellowish
_exptl_crystal_description       block-like
_chemical_melting_point          '435 K'
_cell_formula_units_Z            4
_exptl_crystal_recrystallization_method acetone
_exptl_crystal_preparation       acetone
loop_
_atom_site_label
_atom_site_type_symbol
_atom_site_fract_x
_atom_site_fract_y
_atom_site_fract_z
Br1 Br 0.12905(4) 0.93625(6) 0.11070(4)
Cl1 Cl 0.95955(10) 0.60565(16) 0.87374(9)
N1 N 0.3868(3) 0.7066(4) 0.0782(3)
N2 N 0.5189(2) 0.7108(4) 0.3842(2)
N3 N 0.3252(3) 0.8796(4) 0.3411(3)
C1 C 0.4440(3) 0.7423(4) 0.2740(3)
C2 C 0.3429(3) 0.8214(4) 0.2548(3)
C3 C 0.2681(3) 0.8374(4) 0.1457(3)
C4 C 0.2918(3) 0.7806(4) 0.0609(3)
H1 H 0.2388 0.7948 -0.0116
C5 C 0.4602(3) 0.6897(4) 0.1830(3)
H2 H 0.5275 0.6390 0.1965
C6 C 0.6189(3) 0.7449(4) 0.4167(3)
H3 H 0.6414 0.7945 0.3666
C7 C 0.7012(3) 0.7106(4) 0.5286(3)
C8 C 0.8074(3) 0.7678(5) 0.5617(4)
H4 H 0.8255 0.8297 0.5121
C9 C 0.8879(3) 0.7353(5) 0.6673(4)
H5 H 0.9596 0.7737 0.6886
C10 C 0.8600(3) 0.6455(5) 0.7401(3)
C11 C 0.7538(4) 0.5873(5) 0.7094(3)
H6 H 0.7359 0.5261 0.7593
C12 C 0.6754(3) 0.6209(5) 0.6046(3)
H7 H 0.6036 0.5832 0.5837
H8 H 0.3744(17) 0.870(5) 0.4101(12)
H9 H 0.2622(13) 0.931(4) 0.327(2)
loop_
_geom_bond_atom_site_label_1
_geom_bond_atom_site_label_2
_geom_bond_site_symmetry_1
_geom_bond_site_symmetry_2
Br1 C3 1_555 1_555
Cl1 C10 1_555 1_555
N1 C4 1_555 1_555
N2 C1 1_555 1_555
N3 C2 1_555 1_555
C1 C2 1_555 1_555
C2 C3 1_555 1_555
C3 C4 1_555 1_555
C4 H1 1_555 1_555
C5 N1 1_555 1_555
H2 C5 1_555 1_555
C6 N2 1_555 1_555
H3 C6 1_555 1_555
C7 C6 1_555 1_555
C8 C7 1_555 1_555
H4 C8 1_555 1_555
C9 C8 1_555 1_555
H5 C9 1_555 1_555
C10 C9 1_555 1_555
C11 C10 1_555 1_555
H6 C11 1_555 1_555
C12 C7 1_555 1_555
H7 C12 1_555 1_555
H8 N3 1_555 1_555
H9 N3 1_555 1_555
C1 C5 1_555 1_555
C11 C12 1_555 1_555

#END
