
#######################################################################
#
#                 Cambridge Crystallographic Data Centre
#                                CCDC 
#
#######################################################################
#
# If this CIF has been generated from an entry in the Cambridge 
# Structural Database, then it will include bibliographic, chemical, 
# crystal, experimental, refinement or atomic coordinate data resulting 
# from the CCDC's data processing and validation procedures.
#
#######################################################################

data_POCJUM
_chemical_formula_moiety         'C6 H16 N1 1+,H4 B5 O10 1-,H3 B1 O3'
_chemical_name_systematic        
'Triethylammonium tetrahydroxy-pentaborate boric acid solvate'
_symmetry_cell_setting           monoclinic
_symmetry_space_group_name_H-M   'P 21/c'
_symmetry_Int_Tables_number      14
_space_group_name_Hall           '-P 2ybc'
loop_
_symmetry_equiv_pos_site_id
_symmetry_equiv_pos_as_xyz
1 x,y,z
2 -x,1/2+y,1/2-z
3 -x,-y,-z
4 x,1/2-y,1/2+z
_cell_length_a                   8.424(2)
_cell_length_b                   11.605(2)
_cell_length_c                   18.832(4)
_cell_angle_alpha                90
_cell_angle_beta                 94.04(3)
_cell_angle_gamma                90
_cell_volume                     1836.45
_exptl_crystal_colour            colorless
_cell_formula_units_Z            4
loop_
_atom_site_label
_atom_site_type_symbol
_atom_site_fract_x
_atom_site_fract_y
_atom_site_fract_z
O1 O -0.9894(4) 0.4966(3) 1.2630(2)
O2 O -1.1452(4) 0.3911(3) 1.1751(2)
O3 O -0.9768(4) 0.2882(3) 1.2594(2)
O4 O -1.1600(5) 0.5924(3) 1.1769(2)
O5 O -1.1336(5) 0.1903(3) 1.1696(2)
O6 O -0.7384(4) 0.3996(3) 1.2744(2)
O7 O -0.6371(4) 0.3836(4) 1.3945(2)
O8 O -0.9176(4) 0.3892(3) 1.3690(2)
O9 O -0.4652(4) 0.3990(4) 1.3000(2)
O10 O -0.8048(4) 0.3714(4) 1.4875(2)
B1 B -0.9081(7) 0.3935(6) 1.2914(3)
B2 B -1.0985(7) 0.4947(6) 1.2061(3)
B3 B -1.0852(7) 0.2897(5) 1.2024(3)
B4 B -0.6134(7) 0.3943(6) 1.3231(3)
B5 B -0.7909(7) 0.3816(6) 1.4163(3)
O11 O -1.3905(4) 0.1394(5) 1.0029(2)
O12 O -1.1137(4) 0.1561(4) 1.0223(2)
O13 O -1.2248(4) 0.1127(3) 0.9075(2)
B6 B -1.2449(8) 0.1352(7) 0.9777(4)
N1 N -0.6447(5) 0.3979(5) 1.1344(2)
C1 C -0.7929(7) 0.3949(7) 1.0854(3)
C2 C -0.7627(12) 0.4184(9) 1.0075(4)
C3 C -0.5373(10) 0.2953(7) 1.1269(4)
C4 C -0.6072(12) 0.1865(7) 1.1527(4)
C5 C -0.5491(10) 0.5058(7) 1.1319(4)
C6 C -0.6450(13) 0.6110(7) 1.1477(5)
loop_
_geom_bond_atom_site_label_1
_geom_bond_atom_site_label_2
_geom_bond_site_symmetry_1
_geom_bond_site_symmetry_2
O1 B1 1_555 1_555
O2 B2 1_555 1_555
O3 B1 1_555 1_555
O4 B2 1_555 1_555
O5 B3 1_555 1_555
O6 B1 1_555 1_555
O7 B4 1_555 1_555
O8 B1 1_555 1_555
O9 B4 1_555 1_555
O10 B5 1_555 1_555
O11 B6 1_555 1_555
O12 B6 1_555 1_555
O13 B6 1_555 1_555
N1 C1 1_555 1_555
B2 O1 1_555 1_555
B3 O2 1_555 1_555
B4 O6 1_555 1_555
B5 O7 1_555 1_555
C1 C2 1_555 1_555
C3 N1 1_555 1_555
C4 C3 1_555 1_555
C5 N1 1_555 1_555
C6 C5 1_555 1_555
O3 B3 1_555 1_555
O8 B5 1_555 1_555

#END
