
#######################################################################
#
#                 Cambridge Crystallographic Data Centre
#                                CCDC 
#
#######################################################################
#
# If this CIF has been generated from an entry in the Cambridge 
# Structural Database, then it will include bibliographic, chemical, 
# crystal, experimental, refinement or atomic coordinate data resulting 
# from the CCDC's data processing and validation procedures.
#
#######################################################################

data_POCRUV
_chemical_formula_moiety         'C26 H30 N8 O6,H2 O1'
_chemical_name_systematic        
'diethyl 4,8-dioxo-2,6-bis(pyridin-4-ylmethyl)tetrahydro-1H,5H-2,3a,4a,6,7a,8a-hexaazacyclopenta[def]fluorene-8b,8c-dicarboxylate monohydrate'
_symmetry_cell_setting           monoclinic
_symmetry_space_group_name_H-M   'P 21/c'
_symmetry_Int_Tables_number      14
_space_group_name_Hall           '-P 2ybc'
loop_
_symmetry_equiv_pos_site_id
_symmetry_equiv_pos_as_xyz
1 x,y,z
2 -x,1/2+y,1/2-z
3 -x,-y,-z
4 x,1/2-y,1/2+z
_cell_length_a                   14.1298(9)
_cell_length_b                   13.6795(9)
_cell_length_c                   14.4505(9)
_cell_angle_alpha                90
_cell_angle_beta                 104.1320(10)
_cell_angle_gamma                90
_cell_volume                     2708.59
_exptl_crystal_colour            colorless
_exptl_crystal_description       block
_cell_formula_units_Z            4
_exptl_crystal_recrystallization_method dichloromethane/methanol
loop_
_atom_site_label
_atom_site_type_symbol
_atom_site_fract_x
_atom_site_fract_y
_atom_site_fract_z
C1 C 0.3065(3) 0.7259(3) 0.4624(3)
H1 H 0.2412 0.7332 0.4632
C2 C 0.3673(3) 0.8052(3) 0.4765(3)
H2 H 0.3408 0.8654 0.4863
N1 N 0.4602(3) 0.8026(3) 0.4772(3)
C3 C 0.4950(3) 0.7151(4) 0.4621(3)
H3 H 0.5608 0.7104 0.4627
C4 C 0.4397(3) 0.6311(3) 0.4457(2)
H4 H 0.4674 0.5722 0.4338
C5 C 0.3421(2) 0.6359(2) 0.44713(19)
C6 C 0.2824(2) 0.5446(2) 0.4383(2)
H5 H 0.3023 0.5010 0.3937
H6 H 0.2962 0.5121 0.4999
C7 C 0.1205(2) 0.4792(2) 0.4282(2)
H7 H 0.0530 0.4995 0.4187
H8 H 0.1447 0.4618 0.4948
C8 C 0.1448(2) 0.58427(18) 0.30459(18)
H9 H 0.0790 0.6101 0.2914
H10 H 0.1868 0.6347 0.2892
C9 C 0.1994(2) 0.32493(19) 0.39433(19)
C10 C 0.22702(18) 0.47881(19) 0.20845(17)
C11 C 0.10089(18) 0.41022(18) 0.26666(18)
C12 C -0.0104(2) 0.4058(2) 0.22782(19)
C13 C -0.1525(2) 0.4853(3) 0.1413(2)
H11 H -0.1763 0.4204 0.1208
H12 H -0.1835 0.5067 0.1907
C14 C -0.1757(3) 0.5525(3) 0.0609(3)
H13 H -0.1522 0.6166 0.0818
H14 H -0.2452 0.5548 0.0357
H15 H -0.1452 0.5305 0.0121
C15 C 0.15652(17) 0.32737(17) 0.22744(17)
C16 C 0.09326(19) 0.2567(2) 0.15521(19)
C17 C -0.0190(2) 0.2491(2) 0.0046(2)
H16 H -0.0630 0.2101 0.0315
H17 H 0.0185 0.2055 -0.0256
C18 C -0.0754(3) 0.3180(3) -0.0666(2)
H18 H -0.1134 0.3600 -0.0365
H19 H -0.1181 0.2820 -0.1169
H20 H -0.0314 0.3567 -0.0925
C19 C 0.2975(2) 0.22654(19) 0.3095(2)
H21 H 0.2832 0.1710 0.2666
H22 H 0.3298 0.2027 0.3726
C20 C 0.31235(19) 0.3292(2) 0.18005(18)
H23 H 0.3553 0.3726 0.1562
H24 H 0.2970 0.2738 0.1371
C21 C 0.4560(2) 0.2503(2) 0.2785(2)
H25 H 0.4497 0.2108 0.2216
H26 H 0.4729 0.2069 0.3331
C22 C 0.53799(19) 0.3221(2) 0.28424(18)
C23 C 0.5282(2) 0.4218(2) 0.2948(2)
H27 H 0.4682 0.4486 0.2969
C24 C 0.6085(2) 0.4802(2) 0.3022(3)
H28 H 0.6002 0.5469 0.3099
N2 N 0.6964(2) 0.4501(2) 0.2994(2)
C25 C 0.7045(2) 0.3554(3) 0.2874(2)
H29 H 0.7648 0.3315 0.2829
C26 C 0.6299(2) 0.2892(2) 0.2810(2)
H30 H 0.6411 0.2229 0.2745
N3 N 0.17724(17) 0.56082(16) 0.40635(16)
N4 N 0.12458(16) 0.39240(15) 0.36888(15)
N5 N 0.14649(15) 0.49923(14) 0.24343(14)
N6 N 0.20757(15) 0.27623(14) 0.31285(14)
N7 N 0.22314(14) 0.38062(15) 0.18336(13)
N8 N 0.36121(15) 0.29534(16) 0.27600(15)
O1 O 0.24574(16) 0.30783(14) 0.47502(14)
O2 O 0.28769(13) 0.53708(13) 0.19740(13)
O3 O -0.05604(15) 0.33654(16) 0.24376(18)
O4 O -0.04600(12) 0.48326(13) 0.17856(13)
O5 O 0.08948(15) 0.16998(15) 0.16662(16)
O6 O 0.04629(13) 0.30496(13) 0.07959(12)
O7 O 0.5690(6) 0.9643(6) 0.5319(11)
H31 H 0.5381 0.9252 0.5595
H32 H 0.6005 0.9303 0.5003
loop_
_geom_bond_atom_site_label_1
_geom_bond_atom_site_label_2
_geom_bond_site_symmetry_1
_geom_bond_site_symmetry_2
C1 H1 1_555 1_555
C2 C1 1_555 1_555
H2 C2 1_555 1_555
N1 C2 1_555 1_555
C3 N1 1_555 1_555
H3 C3 1_555 1_555
C4 C3 1_555 1_555
H4 C4 1_555 1_555
C5 C1 1_555 1_555
C6 C5 1_555 1_555
H5 C6 1_555 1_555
H6 C6 1_555 1_555
C7 H7 1_555 1_555
H8 C7 1_555 1_555
C8 H9 1_555 1_555
H10 C8 1_555 1_555
C9 N4 1_555 1_555
C10 N5 1_555 1_555
C11 C12 1_555 1_555
C12 O3 1_555 1_555
C13 H11 1_555 1_555
H12 C13 1_555 1_555
C14 C13 1_555 1_555
H13 C14 1_555 1_555
H14 C14 1_555 1_555
H15 C14 1_555 1_555
C15 C11 1_555 1_555
C16 C15 1_555 1_555
C17 H16 1_555 1_555
H17 C17 1_555 1_555
C18 C17 1_555 1_555
H18 C18 1_555 1_555
H19 C18 1_555 1_555
H20 C18 1_555 1_555
C19 H21 1_555 1_555
H22 C19 1_555 1_555
C20 H23 1_555 1_555
H24 C20 1_555 1_555
C21 H25 1_555 1_555
H26 C21 1_555 1_555
C22 C21 1_555 1_555
C23 C22 1_555 1_555
H27 C23 1_555 1_555
C24 C23 1_555 1_555
H28 C24 1_555 1_555
N2 C24 1_555 1_555
C25 N2 1_555 1_555
H29 C25 1_555 1_555
C26 C22 1_555 1_555
H30 C26 1_555 1_555
N3 C6 1_555 1_555
N4 C7 1_555 1_555
N5 C8 1_555 1_555
N6 C9 1_555 1_555
N7 C10 1_555 1_555
N8 C19 1_555 1_555
O1 C9 1_555 1_555
O2 C10 1_555 1_555
O4 C12 1_555 1_555
O5 C16 1_555 1_555
O6 C16 1_555 1_555
O7 H31 1_555 1_555
H32 O7 1_555 1_555
C4 C5 1_555 1_555
C7 N3 1_555 1_555
C8 N3 1_555 1_555
C11 N4 1_555 1_555
C11 N5 1_555 1_555
C13 O4 1_555 1_555
C15 N6 1_555 1_555
C15 N7 1_555 1_555
C17 O6 1_555 1_555
C19 N6 1_555 1_555
C20 N7 1_555 1_555
C20 N8 1_555 1_555
C21 N8 1_555 1_555
C25 C26 1_555 1_555

#END
