
#######################################################################
#
#                 Cambridge Crystallographic Data Centre
#                                CCDC 
#
#######################################################################
#
# If this CIF has been generated from an entry in the Cambridge 
# Structural Database, then it will include bibliographic, chemical, 
# crystal, experimental, refinement or atomic coordinate data resulting 
# from the CCDC's data processing and validation procedures.
#
#######################################################################

data_PODHOF
_chemical_formula_moiety         'C24 H20'
_chemical_name_systematic        (6.6)-(1,3)-Cyclophane-1,3,5,13,15,17-hexaene
_symmetry_cell_setting           monoclinic
_symmetry_space_group_name_H-M   'P 21/c'
_symmetry_Int_Tables_number      14
_space_group_name_Hall           '-P 2ybc'
loop_
_symmetry_equiv_pos_site_id
_symmetry_equiv_pos_as_xyz
1 x,y,z
2 -x,1/2+y,1/2-z
3 -x,-y,-z
4 x,1/2-y,1/2+z
_cell_length_a                   10.724(1)
_cell_length_b                   4.767(1)
_cell_length_c                   16.919(1)
_cell_angle_alpha                90
_cell_angle_beta                 90.05(1)
_cell_angle_gamma                90
_cell_volume                     864.921
_exptl_crystal_colour            yellow
_chemical_melting_point          'above 350 deg.C'
_cell_formula_units_Z            2
loop_
_atom_site_label
_atom_site_type_symbol
_atom_site_fract_x
_atom_site_fract_y
_atom_site_fract_z
C1 C 0.7073(2) 0.1647(5) 0.4006(1)
C2 C 0.8222(2) 0.0429(5) 0.4148(1)
C3 C 0.9222(2) 0.1374(6) 0.3690(1)
C4 C 0.9050(3) 0.3431(6) 0.3133(1)
C5 C 0.7904(3) 0.4638(5) 0.3011(1)
C6 C 0.6876(2) 0.3745(5) 0.3453(1)
C7 C 0.5651(3) 0.5033(5) 0.3348(1)
C8 C 0.4633(2) 0.4358(5) 0.3759(1)
C9 C 0.3404(3) 0.5514(5) 0.3701(1)
C10 C 0.2435(2) 0.4684(5) 0.4149(1)
C11 C 0.2486(2) 0.2539(5) 0.4737(1)
C12 C 0.8384(2) -0.1734(5) 0.4749(1)
H1 H 0.6376 0.0982 0.4315
H2 H 1.0036 0.0552 0.3784
H3 H 0.9742 0.4047 0.2812
H4 H 0.7798 0.6161 0.2616
H5 H 0.5546 0.6507 0.2940
H6 H 0.4763 0.2887 0.4165
H7 H 0.3263 0.7009 0.3303
H8 H 0.1641 0.5623 0.4064
H9 H 0.3264 0.1491 0.4780
H10 H 0.9184 -0.2684 0.4796
C12B C 0.1616(2) 0.1734(5) 0.5251(1)
C11B C 0.7514(2) -0.2539(5) 0.5263(1)
C2B C 0.1778(2) -0.0429(5) 0.5852(1)
H10B H 0.0816 0.2684 0.5204
C10B C 0.7565(2) -0.4684(5) 0.5851(1)
H9B H 0.6736 -0.1491 0.5220
C1B C 0.2927(2) -0.1647(5) 0.5994(1)
C3B C 0.0778(2) -0.1374(6) 0.6310(1)
C9B C 0.6596(3) -0.5514(5) 0.6299(1)
H8B H 0.8359 -0.5623 0.5936
C6B C 0.3124(2) -0.3745(5) 0.6547(1)
H1B H 0.3624 -0.0982 0.5685
C4B C 0.0950(3) -0.3431(6) 0.6867(1)
H2B H -0.0036 -0.0552 0.6216
C8B C 0.5367(2) -0.4358(5) 0.6241(1)
H7B H 0.6737 -0.7009 0.6697
C5B C 0.2096(3) -0.4638(5) 0.6989(1)
C7B C 0.4349(3) -0.5033(5) 0.6652(1)
H3B H 0.0258 -0.4047 0.7188
H6B H 0.5237 -0.2887 0.5835
H4B H 0.2202 -0.6161 0.7384
H5B H 0.4454 -0.6507 0.7060
loop_
_geom_bond_atom_site_label_1
_geom_bond_atom_site_label_2
_geom_bond_site_symmetry_1
_geom_bond_site_symmetry_2
C1 C2 1_555 1_555
C2 C3 1_555 1_555
C3 C4 1_555 1_555
C4 C5 1_555 1_555
C5 C6 1_555 1_555
C6 C1 1_555 1_555
C7 C6 1_555 1_555
C8 C7 1_555 1_555
C9 C8 1_555 1_555
C10 C9 1_555 1_555
C11 C10 1_555 1_555
C12 C2 1_555 1_555
H1 C1 1_555 1_555
H2 C3 1_555 1_555
H3 C4 1_555 1_555
H4 C5 1_555 1_555
H5 C7 1_555 1_555
H6 C8 1_555 1_555
H7 C9 1_555 1_555
H8 C10 1_555 1_555
H9 C11 1_555 1_555
H10 C12 1_555 1_555
C12B C11 1_555 1_555
C11B C12 1_555 1_555
C2B C12B 1_555 1_555
H10B C12B 1_555 1_555
C10B C11B 1_555 1_555
H9B C11B 1_555 1_555
C1B C2B 1_555 1_555
C3B C2B 1_555 1_555
C9B C10B 1_555 1_555
H8B C10B 1_555 1_555
C6B C1B 1_555 1_555
H1B C1B 1_555 1_555
C4B C3B 1_555 1_555
H2B C3B 1_555 1_555
C8B C9B 1_555 1_555
H7B C9B 1_555 1_555
C5B C6B 1_555 1_555
C7B C6B 1_555 1_555
H3B C4B 1_555 1_555
H6B C8B 1_555 1_555
H4B C5B 1_555 1_555
H5B C7B 1_555 1_555
C4B C5B 1_555 1_555
C8B C7B 1_555 1_555

#END
