
#######################################################################
#
#                 Cambridge Crystallographic Data Centre
#                                CCDC 
#
#######################################################################
#
# If this CIF has been generated from an entry in the Cambridge 
# Structural Database, then it will include bibliographic, chemical, 
# crystal, experimental, refinement or atomic coordinate data resulting 
# from the CCDC's data processing and validation procedures.
#
#######################################################################

data_POFNOO
_chemical_formula_moiety         'C10 H9 N3 O2'
_chemical_name_systematic        
'5-Methyl-1-phenyl-1H-1,2,3-triazole-4-carboxylic acid'
_symmetry_cell_setting           monoclinic
_symmetry_space_group_name_H-M   'C 2/c'
_symmetry_Int_Tables_number      15
_space_group_name_Hall           '-C 2yn'
loop_
_symmetry_equiv_pos_site_id
_symmetry_equiv_pos_as_xyz
1 x,y,z
2 1/2+x,1/2+y,z
3 -x,y,1/2-z
4 1/2-x,1/2+y,1/2-z
5 -x,-y,-z
6 1/2-x,1/2-y,-z
7 x,-y,1/2+z
8 1/2+x,1/2-y,1/2+z
_cell_length_a                   23.616(3)
_cell_length_b                   7.7189(15)
_cell_length_c                   12.606(2)
_cell_angle_alpha                90
_cell_angle_beta                 113.18(3)
_cell_angle_gamma                90
_cell_volume                     2112.44
_exptl_crystal_colour            colorless
_exptl_crystal_description       Prism
_cell_formula_units_Z            8
_exptl_crystal_recrystallization_method ethanol/water
loop_
_atom_site_label
_atom_site_type_symbol
_atom_site_fract_x
_atom_site_fract_y
_atom_site_fract_z
C1 C 0.41473(10) 0.1278(3) 0.72134(18)
C2 C 0.34886(9) 0.1172(3) 0.69727(16)
C3 C 0.31868(9) 0.1493(2) 0.76949(15)
C4 C 0.20319(9) 0.1379(2) 0.72119(16)
C5 C 0.20037(10) 0.0713(3) 0.82132(17)
H1 H 0.2350 0.0218 0.8780
C6 C 0.14517(11) 0.0799(3) 0.8352(2)
H2 H 0.1426 0.0364 0.9020
C7 C 0.09414(11) 0.1525(3) 0.7506(2)
H3 H 0.0571 0.1574 0.7603
C8 C 0.09745(10) 0.2184(3) 0.6509(2)
H4 H 0.0626 0.2666 0.5940
C9 C 0.15210(9) 0.2129(3) 0.63569(18)
H5 H 0.1547 0.2585 0.5695
C10 C 0.34155(10) 0.2068(3) 0.89199(16)
H6 H 0.3099 0.2716 0.9041
H7 H 0.3773 0.2786 0.9091
H8 H 0.3522 0.1073 0.9417
N1 N 0.30730(8) 0.0743(2) 0.58988(14)
N2 N 0.25230(8) 0.0763(2) 0.59058(13)
N3 N 0.25867(7) 0.1228(2) 0.70044(13)
O1 O 0.45271(7) 0.1465(2) 0.82345(13)
O2 O 0.43008(7) 0.1161(3) 0.63484(13)
H9 H 0.4867(19) 0.125(5) 0.661(3)
loop_
_geom_bond_atom_site_label_1
_geom_bond_atom_site_label_2
_geom_bond_site_symmetry_1
_geom_bond_site_symmetry_2
C1 C2 1_555 1_555
C2 C3 1_555 1_555
C3 C10 1_555 1_555
C4 C5 1_555 1_555
C5 H1 1_555 1_555
C6 C5 1_555 1_555
H2 C6 1_555 1_555
C7 C6 1_555 1_555
H3 C7 1_555 1_555
C8 C7 1_555 1_555
H4 C8 1_555 1_555
C9 C4 1_555 1_555
H5 C9 1_555 1_555
C10 H6 1_555 1_555
H7 C10 1_555 1_555
H8 C10 1_555 1_555
N1 C2 1_555 1_555
N2 N1 1_555 1_555
N3 C3 1_555 1_555
O1 C1 1_555 1_555
O2 C1 1_555 1_555
H9 O2 1_555 1_555
C4 N3 1_555 1_555
C8 C9 1_555 1_555
N2 N3 1_555 1_555

#END
