
#######################################################################
#
#                 Cambridge Crystallographic Data Centre
#                                CCDC 
#
#######################################################################
#
# If this CIF has been generated from an entry in the Cambridge 
# Structural Database, then it will include bibliographic, chemical, 
# crystal, experimental, refinement or atomic coordinate data resulting 
# from the CCDC's data processing and validation procedures.
#
#######################################################################

data_POFYOA
_chemical_name_common            
'(14S)-15-diacetoxy-(13R)-hydroxy-labd-8(17)-en-19-oic acid'
_chemical_formula_moiety         'C24 H38 O7'
_chemical_name_systematic        
'5-(4,5-diacetoxy-3-hydroxy-3-methylpentyl)-1,4a-dimethyl-6-methylenedecahydronaphthalene-1-carboxylic acid'
_symmetry_cell_setting           monoclinic
_symmetry_space_group_name_H-M   'P 21'
_symmetry_Int_Tables_number      4
_space_group_name_Hall           'P 2yb'
loop_
_symmetry_equiv_pos_site_id
_symmetry_equiv_pos_as_xyz
1 x,y,z
2 -x,1/2+y,-z
_cell_length_a                   7.0889(2)
_cell_length_b                   23.3669(5)
_cell_length_c                   7.3183(2)
_cell_angle_alpha                90
_cell_angle_beta                 91.7930(10)
_cell_angle_gamma                90
_cell_volume                     1211.65
_exptl_crystal_colour            colorless
_exptl_crystal_description       block
_cell_formula_units_Z            2
_exptl_crystal_recrystallization_method acetonitrile/water
loop_
_atom_site_label
_atom_site_type_symbol
_atom_site_fract_x
_atom_site_fract_y
_atom_site_fract_z
O1 O 0.3355(2) 0.53224(6) 0.9437(2)
O2 O 0.1354(2) 0.55387(6) 1.16190(19)
H1 H 0.0759 0.5259 1.1164
O3 O 0.08172(19) 0.96584(5) 0.96405(17)
H2 H 0.0834 0.9590 1.0768
O4 O 0.48102(17) 0.93383(6) 0.55970(17)
O5 O 0.4577(2) 0.84063(6) 0.4839(2)
O6 O 0.12233(17) 0.97600(5) 0.61711(16)
O7 O 0.1010(2) 0.94156(6) 0.33183(18)
C1 C 0.4245(3) 0.70693(8) 0.8856(3)
H3 H 0.3819 0.7236 0.7670
H4 H 0.5148 0.7341 0.9444
C2 C 0.5266(3) 0.65043(8) 0.8498(3)
H5 H 0.4424 0.6250 0.7762
H6 H 0.6403 0.6581 0.7785
C3 C 0.5845(3) 0.62051(8) 1.0268(3)
H7 H 0.6801 0.6442 1.0931
H8 H 0.6441 0.5835 0.9975
C4 C 0.4189(3) 0.60953(8) 1.1527(3)
C5 C 0.3169(3) 0.66804(7) 1.1861(2)
H9 H 0.4175 0.6930 1.2422
C6 C 0.1639(3) 0.66610(8) 1.3301(2)
H10 H 0.0557 0.6431 1.2828
H11 H 0.2153 0.6473 1.4422
C7 C 0.0956(3) 0.72648(8) 1.3773(3)
H12 H -0.0091 0.7241 1.4633
H13 H 0.1999 0.7485 1.4367
C8 C 0.0295(3) 0.75605(7) 1.2047(2)
C9 C 0.1851(3) 0.76156(8) 1.0676(2)
H14 H 0.2948 0.7790 1.1364
C10 C 0.2529(2) 0.70040(7) 1.0077(2)
C11 C 0.1364(3) 0.80326(7) 0.9105(2)
H15 H 0.2322 0.8005 0.8153
H16 H 0.0117 0.7935 0.8543
C12 C 0.1326(3) 0.86439(7) 0.9879(2)
H17 H 0.0543 0.8638 1.0976
H18 H 0.2628 0.8743 1.0298
C13 C 0.0601(2) 0.91287(8) 0.8640(2)
C14 C 0.1758(2) 0.92024(7) 0.6918(2)
H19 H 0.1427 0.8895 0.6014
C15 C 0.3876(3) 0.92167(8) 0.7279(2)
H20 H 0.4196 0.9515 0.8197
H21 H 0.4310 0.8843 0.7771
C16 C -0.1476(3) 0.90514(8) 0.8092(3)
H22 H -0.2222 0.9023 0.9193
H23 H -0.1632 0.8701 0.7367
H24 H -0.1908 0.9381 0.7362
C17 C -0.1490(3) 0.77183(9) 1.1776(3)
H25 H -0.2386 0.7645 1.2685
H26 H -0.1872 0.7905 1.0672
C18 C 0.2931(3) 0.56194(8) 1.0717(3)
C19 C 0.5004(3) 0.58589(8) 1.3358(3)
H27 H 0.3970 0.5725 1.4107
H28 H 0.5702 0.6162 1.4011
H29 H 0.5856 0.5539 1.3119
C20 C 0.0926(3) 0.66993(8) 0.9005(2)
H30 H 0.0491 0.6941 0.7981
H31 H -0.0124 0.6629 0.9816
H32 H 0.1387 0.6334 0.8536
C21 C 0.5055(2) 0.88835(9) 0.4480(3)
C22 C 0.6032(3) 0.90619(10) 0.2787(3)
H33 H 0.7377 0.9122 0.3075
H34 H 0.5473 0.9419 0.2319
H35 H 0.5886 0.8762 0.1857
C23 C 0.0927(2) 0.98110(8) 0.4377(2)
C24 C 0.0468(3) 1.04128(8) 0.3829(3)
H36 H 0.1500 1.0570 0.3124
H37 H 0.0304 1.0646 0.4927
H38 H -0.0701 1.0417 0.3079
loop_
_geom_bond_atom_site_label_1
_geom_bond_atom_site_label_2
_geom_bond_site_symmetry_1
_geom_bond_site_symmetry_2
O1 C18 1_555 1_555
O2 H1 1_555 1_555
O3 H2 1_555 1_555
O4 C15 1_555 1_555
O5 C21 1_555 1_555
O6 C14 1_555 1_555
O7 C23 1_555 1_555
C1 H3 1_555 1_555
H4 C1 1_555 1_555
C2 C1 1_555 1_555
H5 C2 1_555 1_555
H6 C2 1_555 1_555
C3 C2 1_555 1_555
H7 C3 1_555 1_555
H8 C3 1_555 1_555
C4 C3 1_555 1_555
C5 C4 1_555 1_555
H9 C5 1_555 1_555
C6 C5 1_555 1_555
H10 C6 1_555 1_555
H11 C6 1_555 1_555
C7 C6 1_555 1_555
H12 C7 1_555 1_555
H13 C7 1_555 1_555
C8 C7 1_555 1_555
C9 C8 1_555 1_555
H14 C9 1_555 1_555
C10 C1 1_555 1_555
C11 C9 1_555 1_555
H15 C11 1_555 1_555
H16 C11 1_555 1_555
C12 C11 1_555 1_555
H17 C12 1_555 1_555
H18 C12 1_555 1_555
C13 O3 1_555 1_555
C14 C13 1_555 1_555
H19 C14 1_555 1_555
C15 C14 1_555 1_555
H20 C15 1_555 1_555
H21 C15 1_555 1_555
C16 C13 1_555 1_555
H22 C16 1_555 1_555
H23 C16 1_555 1_555
H24 C16 1_555 1_555
C17 C8 1_555 1_555
H25 C17 1_555 1_555
H26 C17 1_555 1_555
C18 O2 1_555 1_555
C19 C4 1_555 1_555
H27 C19 1_555 1_555
H28 C19 1_555 1_555
H29 C19 1_555 1_555
C20 C10 1_555 1_555
H30 C20 1_555 1_555
H31 C20 1_555 1_555
H32 C20 1_555 1_555
C21 O4 1_555 1_555
C22 C21 1_555 1_555
H33 C22 1_555 1_555
H34 C22 1_555 1_555
H35 C22 1_555 1_555
C23 O6 1_555 1_555
C24 C23 1_555 1_555
H36 C24 1_555 1_555
H37 C24 1_555 1_555
H38 C24 1_555 1_555
C4 C18 1_555 1_555
C5 C10 1_555 1_555
C9 C10 1_555 1_555
C12 C13 1_555 1_555

#END
