
#######################################################################
#
#                 Cambridge Crystallographic Data Centre
#                                CCDC 
#
#######################################################################
#
# If this CIF has been generated from an entry in the Cambridge 
# Structural Database, then it will include bibliographic, chemical, 
# crystal, experimental, refinement or atomic coordinate data resulting 
# from the CCDC's data processing and validation procedures.
#
#######################################################################

data_POGHAU
_chemical_formula_moiety         'C16 H22 O7 S1'
_chemical_name_systematic        
'Methyl 2,3-O-isopropylidene-5-O-p-tosyl-\b-D-ribofuranoside'
_symmetry_cell_setting           orthorhombic
_symmetry_space_group_name_H-M   'P 21 21 2'
_symmetry_Int_Tables_number      18
_space_group_name_Hall           'P 2 2ab'
loop_
_symmetry_equiv_pos_site_id
_symmetry_equiv_pos_as_xyz
1 x,y,z
2 1/2+x,1/2-y,-z
3 1/2-x,1/2+y,-z
4 -x,-y,z
_cell_length_a                   12.507(2)
_cell_length_b                   24.371(5)
_cell_length_c                   5.970(4)
_cell_angle_alpha                90
_cell_angle_beta                 90
_cell_angle_gamma                90
_cell_volume                     1819.7
_cell_formula_units_Z            4
loop_
_atom_site_label
_atom_site_type_symbol
_atom_site_fract_x
_atom_site_fract_y
_atom_site_fract_z
S1 S 0.1520(2) 0.6579(1) 0.5507(4)
O1 O -0.1549(4) 0.6159(2) 0.3057(7)
O2 O -0.1453(4) 0.6885(2) 0.0467(8)
O3 O -0.2842(3) 0.5651(2) -0.0561(9)
O4 O -0.1428(4) 0.5092(2) -0.0023(9)
O5 O 0.0556(4) 0.6197(2) 0.4792(9)
O6 O 0.2375(4) 0.6505(2) 0.3997(11)
O7 O 0.1655(5) 0.6478(2) 0.7836(9)
C1 C -0.2006(6) 0.6411(3) 0.1193(12)
C2 C -0.1934(5) 0.5998(3) -0.0717(13)
C3 C -0.0987(5) 0.5631(3) -0.0080(13)
C4 C -0.0695(5) 0.5813(3) 0.2283(13)
C5 C -0.1570(6) 0.7336(2) 0.1998(14)
C6 C -0.2477(5) 0.5105(3) -0.0981(14)
C7 C -0.3160(7) 0.4714(3) 0.0273(15)
C8 C -0.2446(8) 0.4992(4) -0.3441(13)
C9 C 0.0376(5) 0.6101(3) 0.2416(13)
C10 C 0.1027(5) 0.7252(3) 0.5147(13)
C11 C 0.0323(6) 0.7456(3) 0.6761(14)
C12 C -0.0006(6) 0.7995(3) 0.6566(14)
C13 C 0.0335(6) 0.8320(3) 0.4858(16)
C14 C 0.1013(7) 0.8106(3) 0.3274(19)
C15 C 0.1369(6) 0.7576(3) 0.3443(14)
C16 C -0.0025(7) 0.8915(3) 0.4732(22)
H1 H -0.2756(6) 0.6501(3) 0.1498(12)
H2 H -0.1855(5) 0.6170(3) -0.2191(13)
H3 H -0.0388(5) 0.5663(3) -0.1130(13)
H4 H -0.0667(5) 0.5487(3) 0.3243(13)
H5 H -0.1112(32) 0.7632(8) 0.1544(52)
H6 H -0.1377(40) 0.7219(6) 0.3479(21)
H7 H -0.2300(12) 0.7458(14) 0.1995(66)
H8 H -0.3882(11) 0.4739(15) -0.0262(61)
H9 H -0.3141(34) 0.4802(14) 0.1840(17)
H10 H -0.2900(26) 0.4347(4) 0.0054(74)
H11 H -0.3154(11) 0.4909(20) -0.3961(20)
H12 H -0.1984(34) 0.4686(14) -0.3727(16)
H13 H -0.2182(39) 0.5310(9) -0.4215(16)
H14 H 0.0937(5) 0.5872(3) 0.1795(13)
H15 H 0.0357(5) 0.6445(3) 0.1600(13)
H16 H 0.0083(6) 0.7236(3) 0.7930(14)
H17 H -0.0471(6) 0.8139(3) 0.7629(14)
H18 H 0.1233(7) 0.8322(3) 0.2078(19)
H19 H 0.1846(6) 0.7437(3) 0.2389(14)
H20 H -0.016(34) 0.9012(53) 0.3199(77)
H21 H 0.053(15) 0.9148(15) 0.533(68)
H22 H -0.067(20) 0.8961(39) 0.559(61)
H23? H -0.004(34) 0.9069(53) 0.6212(78)
H24? H -0.073(15) 0.8933(15) 0.408(68)
H25? H 0.047(20) 0.9120(39) 0.382(61)
loop_
_geom_bond_atom_site_label_1
_geom_bond_atom_site_label_2
_geom_bond_site_symmetry_1
_geom_bond_site_symmetry_2
S1 O5 1_555 1_555
O1 C1 1_555 1_555
O2 C1 1_555 1_555
O3 C2 1_555 1_555
O4 C3 1_555 1_555
O5 C9 1_555 1_555
O6 S1 1_555 1_555
O7 S1 1_555 1_555
C1 C2 1_555 1_555
C2 C3 1_555 1_555
C3 C4 1_555 1_555
C4 O1 1_555 1_555
C5 O2 1_555 1_555
C6 O3 1_555 1_555
C7 C6 1_555 1_555
C8 C6 1_555 1_555
C9 C4 1_555 1_555
C10 S1 1_555 1_555
C11 C10 1_555 1_555
C12 C11 1_555 1_555
C13 C12 1_555 1_555
C14 C13 1_555 1_555
C15 C10 1_555 1_555
C16 C13 1_555 1_555
H1 C1 1_555 1_555
H2 C2 1_555 1_555
H3 C3 1_555 1_555
H4 C4 1_555 1_555
H5 C5 1_555 1_555
H6 C5 1_555 1_555
H7 C5 1_555 1_555
H8 C7 1_555 1_555
H9 C7 1_555 1_555
H10 C7 1_555 1_555
H11 C8 1_555 1_555
H12 C8 1_555 1_555
H13 C8 1_555 1_555
H14 C9 1_555 1_555
H15 C9 1_555 1_555
H16 C11 1_555 1_555
H17 C12 1_555 1_555
H18 C14 1_555 1_555
H19 C15 1_555 1_555
H20 C16 1_555 1_555
H21 C16 1_555 1_555
H22 C16 1_555 1_555
O4 C6 1_555 1_555
C14 C15 1_555 1_555

#END
