
#######################################################################
#
#                 Cambridge Crystallographic Data Centre
#                                CCDC 
#
#######################################################################
#
# If this CIF has been generated from an entry in the Cambridge 
# Structural Database, then it will include bibliographic, chemical, 
# crystal, experimental, refinement or atomic coordinate data resulting 
# from the CCDC's data processing and validation procedures.
#
#######################################################################

data_POGTEM
_chemical_formula_moiety         'C22 H24 N2 S1'
_chemical_name_systematic        
4,6-diphenyloctahydro-1H-dicyclopenta[d,e]pyrimidine-5(6H)-thione
_symmetry_cell_setting           orthorhombic
_symmetry_space_group_name_H-M   'P b c a'
_symmetry_Int_Tables_number      61
_space_group_name_Hall           '-P 2ac 2ab'
loop_
_symmetry_equiv_pos_site_id
_symmetry_equiv_pos_as_xyz
1 x,y,z
2 1/2-x,-y,1/2+z
3 1/2+x,1/2-y,-z
4 -x,1/2+y,1/2-z
5 -x,-y,-z
6 1/2+x,y,1/2-z
7 1/2-x,1/2+y,z
8 x,1/2-y,1/2+z
_cell_length_a                   14.5278(6)
_cell_length_b                   14.5993(6)
_cell_length_c                   17.0361(3)
_cell_angle_alpha                90
_cell_angle_beta                 90
_cell_angle_gamma                90
_cell_volume                     3613.28
_exptl_crystal_colour            'light colorless'
_exptl_crystal_description       plate
_cell_formula_units_Z            8
loop_
_atom_site_label
_atom_site_type_symbol
_atom_site_fract_x
_atom_site_fract_y
_atom_site_fract_z
S1 S 0.39264(3) 0.47168(4) 0.19823(3)
N1 N 0.23081(10) 0.50443(11) 0.27014(9)
N2 N 0.33538(11) 0.42407(11) 0.34195(9)
C1 C 0.31715(13) 0.46695(13) 0.27241(11)
C2 C 0.15752(13) 0.46051(14) 0.31724(11)
H1 H 0.1011 0.4965 0.3111
C3 C 0.18209(15) 0.45759(18) 0.40529(12)
C4 C 0.28791(14) 0.45420(14) 0.41428(11)
H2 H 0.3024 0.4101 0.4558
C5 C 0.20256(13) 0.56491(13) 0.20891(10)
C6 C 0.12116(14) 0.54876(15) 0.16848(11)
H3 H 0.0875 0.4958 0.1783
C7 C 0.09004(15) 0.61164(16) 0.11347(12)
H4 H 0.0348 0.6012 0.0874
C8 C 0.14031(15) 0.68955(16) 0.09701(12)
H5 H 0.1194 0.7313 0.0598
C9 C 0.22201(15) 0.70492(14) 0.13642(12)
H6 H 0.2567 0.7567 0.1249
C10 C 0.25278(14) 0.64404(14) 0.19294(11)
H7 H 0.3069 0.6560 0.2202
C11 C 0.13647(16) 0.36072(15) 0.29296(14)
H8 H 0.0752 0.3560 0.2707
H9 H 0.1808 0.3392 0.2546
C12 C 0.1435(3) 0.3057(2) 0.3681(2)
H10 H 0.0951 0.2600 0.3704
H11 H 0.2025 0.2750 0.3712
C13 C 0.1336(2) 0.3712(3) 0.43248(18)
H12 H 0.1619 0.3477 0.4799
H13 H 0.0691 0.3834 0.4429
C14 C 0.1551(2) 0.5455(3) 0.44928(17)
H14 H 0.1052 0.5328 0.4855
H15 H 0.1344 0.5915 0.4122
C15 C 0.2419(3) 0.5820(3) 0.4959(3)
H16 H 0.2415 0.6483 0.5005
H17 H 0.2463 0.5549 0.5477
C16 C 0.31693(18) 0.54950(16) 0.44312(15)
H18 H 0.3747 0.5460 0.4714
H19 H 0.3244 0.5910 0.3991
C17 C 0.40738(12) 0.35801(13) 0.35030(11)
C18 C 0.47109(14) 0.36588(14) 0.41046(11)
H20 H 0.4718 0.4182 0.4416
C19 C 0.53395(14) 0.29597(15) 0.42441(12)
H21 H 0.5756 0.3011 0.4657
C20 C 0.53504(14) 0.21914(14) 0.37758(12)
H22 H 0.5765 0.1720 0.3875
C21 C 0.47366(14) 0.21281(14) 0.31557(12)
H23 H 0.4755 0.1620 0.2827
C22 C 0.40970(14) 0.28129(14) 0.30207(12)
H24 H 0.3683 0.2759 0.2607
H25? H 0.0987 0.5703 0.4274
H26? H 0.1445 0.5318 0.5043
C23? C 0.2167(4) 0.6012(4) 0.4430(4)
H27? H 0.2139 0.6442 0.4864
H28? H 0.2093 0.6352 0.3946
H29? H 0.3600 0.5785 0.4073
H30? H 0.3436 0.5472 0.4953
loop_
_geom_bond_atom_site_label_1
_geom_bond_atom_site_label_2
_geom_bond_site_symmetry_1
_geom_bond_site_symmetry_2
S1 C1 1_555 1_555
N1 C1 1_555 1_555
N2 C1 1_555 1_555
C2 N1 1_555 1_555
H1 C2 1_555 1_555
C3 C2 1_555 1_555
C4 N2 1_555 1_555
H2 C4 1_555 1_555
C5 N1 1_555 1_555
C6 C5 1_555 1_555
H3 C6 1_555 1_555
C7 C6 1_555 1_555
H4 C7 1_555 1_555
C8 C7 1_555 1_555
H5 C8 1_555 1_555
C9 C8 1_555 1_555
H6 C9 1_555 1_555
C10 C5 1_555 1_555
H7 C10 1_555 1_555
C11 C2 1_555 1_555
H8 C11 1_555 1_555
H9 C11 1_555 1_555
C12 C11 1_555 1_555
H10 C12 1_555 1_555
H11 C12 1_555 1_555
C13 C3 1_555 1_555
H12 C13 1_555 1_555
H13 C13 1_555 1_555
C14 C3 1_555 1_555
H14 C14 1_555 1_555
H15 C14 1_555 1_555
C15 C14 1_555 1_555
H16 C15 1_555 1_555
H17 C15 1_555 1_555
C16 C4 1_555 1_555
H18 C16 1_555 1_555
H19 C16 1_555 1_555
C17 N2 1_555 1_555
C18 C17 1_555 1_555
H20 C18 1_555 1_555
C19 C18 1_555 1_555
H21 C19 1_555 1_555
C20 C19 1_555 1_555
H22 C20 1_555 1_555
C21 C20 1_555 1_555
H23 C21 1_555 1_555
C22 C17 1_555 1_555
H24 C22 1_555 1_555
C3 C4 1_555 1_555
C9 C10 1_555 1_555
C12 C13 1_555 1_555
C15 C16 1_555 1_555
C21 C22 1_555 1_555

#END
