
#######################################################################
#
#                 Cambridge Crystallographic Data Centre
#                                CCDC 
#
#######################################################################
#
# If this CIF has been generated from an entry in the Cambridge 
# Structural Database, then it will include bibliographic, chemical, 
# crystal, experimental, refinement or atomic coordinate data resulting 
# from the CCDC's data processing and validation procedures.
#
#######################################################################

data_POGVOY
_chemical_compound_source        'aerial parts of Isodon wikstroemioides'
_chemical_name_common            'Wikstroemioidin E monohydrate'
_chemical_formula_moiety         'C22 H32 O6,H2 O1'
_chemical_name_systematic        
'12,14,18-trihydroxy-15-oxokaur-16-en-7-yl acetate monohydrate'
_symmetry_cell_setting           orthorhombic
_symmetry_space_group_name_H-M   'P 21 21 21'
_symmetry_Int_Tables_number      19
_space_group_name_Hall           'P 2ac 2ab'
loop_
_symmetry_equiv_pos_site_id
_symmetry_equiv_pos_as_xyz
1 x,y,z
2 1/2+x,1/2-y,-z
3 -x,1/2+y,1/2-z
4 1/2-x,-y,1/2+z
_cell_length_a                   6.25210(10)
_cell_length_b                   16.7938(4)
_cell_length_c                   20.7157(5)
_cell_angle_alpha                90
_cell_angle_beta                 90
_cell_angle_gamma                90
_cell_volume                     2175.08
_exptl_crystal_colour            colorless
_exptl_crystal_description       prism
_cell_formula_units_Z            4
loop_
_atom_site_label
_atom_site_type_symbol
_atom_site_fract_x
_atom_site_fract_y
_atom_site_fract_z
O1 O 0.3851(3) -0.12717(12) 0.62448(9)
H1 H 0.3689 -0.1580 0.6560
O2 O 0.0138(3) 0.17159(11) 0.74889(9)
O3 O 0.6022(3) 0.34369(11) 0.60429(9)
H2 H 0.6629 0.3797 0.6257
O4 O 0.5790(3) 0.24707(11) 0.78810(8)
H3 H 0.6582 0.2091 0.7992
O5 O 0.4575(3) 0.09641(11) 0.79684(8)
O6 O 0.2928(3) -0.01964(11) 0.81768(9)
C1 C 0.6087(5) -0.11042(17) 0.61598(13)
H4 H 0.6733 -0.1521 0.5884
H5 H 0.6809 -0.1121 0.6585
C2 C 0.6456(4) -0.02880(16) 0.58498(12)
C3 C 0.5239(4) 0.03738(15) 0.62226(11)
H6 H 0.3716 0.0192 0.6225
C4 C 0.5170(4) 0.12147(15) 0.58960(12)
C5 C 0.3456(4) 0.17109(15) 0.62719(11)
H7 H 0.2096 0.1407 0.6211
C6 C 0.3761(4) 0.17512(15) 0.70294(11)
C7 C 0.1676(4) 0.21006(16) 0.73056(12)
C8 C 0.1863(4) 0.29866(15) 0.73000(12)
C9 C 0.0334(4) 0.34889(17) 0.74556(13)
H8 H -0.1027 0.3295 0.7585
H9 H 0.0590 0.4046 0.7439
C10 C 0.5567(4) -0.03234(16) 0.51573(12)
H10 H 0.6432 -0.0704 0.4903
H11 H 0.4082 -0.0528 0.5172
C11 C 0.5575(4) 0.04823(16) 0.48158(11)
H12 H 0.7070 0.0665 0.4759
H13 H 0.4925 0.0425 0.4383
C12 C 0.4336(4) 0.11000(16) 0.52010(11)
H14 H 0.2814 0.0938 0.5220
H15 H 0.4408 0.1617 0.4972
C13 C 0.4094(4) 0.31703(15) 0.70452(12)
H16 H 0.4718 0.3650 0.7261
C14 C 0.3965(4) 0.32819(15) 0.63107(12)
H17 H 0.3029 0.3752 0.6221
C15 C 0.2967(4) 0.25531(16) 0.59867(12)
H18 H 0.3425 0.2552 0.5529
H19 H 0.1395 0.2626 0.5990
C16 C 0.5353(4) 0.24183(14) 0.72085(11)
H20 H 0.6699 0.2381 0.6950
C17 C 0.4093(4) 0.09029(15) 0.72791(11)
H21 H 0.2718 0.0605 0.7229
C18 C 0.5837(4) 0.04422(15) 0.69351(11)
H22 H 0.5981 -0.0095 0.7127
H23 H 0.7222 0.0722 0.6981
C19 C 0.3877(4) 0.03895(15) 0.83613(11)
C20 C 0.4430(6) 0.05685(18) 0.90460(13)
H24 H 0.3494 0.0992 0.9208
H25 H 0.5923 0.0743 0.9072
H26 H 0.4235 0.0088 0.9308
C21 C 0.7361(4) 0.16350(17) 0.58696(12)
H27 H 0.8232 0.1398 0.5527
H28 H 0.8092 0.1571 0.6285
H29 H 0.7151 0.2203 0.5781
C22 C 0.8915(4) -0.01887(18) 0.58443(14)
H30 H 0.9413 -0.0056 0.6280
H31 H 0.9308 0.0240 0.5546
H32 H 0.9582 -0.0687 0.5703
O7 O 0.2616(13) 0.2267(3) 0.0215(3)
loop_
_geom_bond_atom_site_label_1
_geom_bond_atom_site_label_2
_geom_bond_site_symmetry_1
_geom_bond_site_symmetry_2
O1 H1 1_555 1_555
O2 C7 1_555 1_555
O3 H2 1_555 1_555
O4 H3 1_555 1_555
O5 C17 1_555 1_555
O6 C19 1_555 1_555
C1 O1 1_555 1_555
H4 C1 1_555 1_555
H5 C1 1_555 1_555
C2 C1 1_555 1_555
C3 C2 1_555 1_555
H6 C3 1_555 1_555
C4 C3 1_555 1_555
C5 C4 1_555 1_555
H7 C5 1_555 1_555
C6 C5 1_555 1_555
C7 C6 1_555 1_555
C8 C7 1_555 1_555
C9 C8 1_555 1_555
H8 C9 1_555 1_555
H9 C9 1_555 1_555
C10 C2 1_555 1_555
H10 C10 1_555 1_555
H11 C10 1_555 1_555
C11 C10 1_555 1_555
H12 C11 1_555 1_555
H13 C11 1_555 1_555
C12 C4 1_555 1_555
H14 C12 1_555 1_555
H15 C12 1_555 1_555
C13 C8 1_555 1_555
H16 C13 1_555 1_555
C14 O3 1_555 1_555
H17 C14 1_555 1_555
C15 C5 1_555 1_555
H18 C15 1_555 1_555
H19 C15 1_555 1_555
C16 O4 1_555 1_555
H20 C16 1_555 1_555
C17 C6 1_555 1_555
H21 C17 1_555 1_555
C18 C3 1_555 1_555
H22 C18 1_555 1_555
H23 C18 1_555 1_555
C19 O5 1_555 1_555
C20 C19 1_555 1_555
H24 C20 1_555 1_555
H25 C20 1_555 1_555
H26 C20 1_555 1_555
C21 C4 1_555 1_555
H27 C21 1_555 1_555
H28 C21 1_555 1_555
H29 C21 1_555 1_555
C22 C2 1_555 1_555
H30 C22 1_555 1_555
H31 C22 1_555 1_555
H32 C22 1_555 1_555
C6 C16 1_555 1_555
C11 C12 1_555 1_555
C13 C14 1_555 1_555
C13 C16 1_555 1_555
C14 C15 1_555 1_555
C17 C18 1_555 1_555

#END
