
#######################################################################
#
#                 Cambridge Crystallographic Data Centre
#                                CCDC 
#
#######################################################################
#
# If this CIF has been generated from an entry in the Cambridge 
# Structural Database, then it will include bibliographic, chemical, 
# crystal, experimental, refinement or atomic coordinate data resulting 
# from the CCDC's data processing and validation procedures.
#
#######################################################################

data_POHBEV
_chemical_formula_moiety         'C17 H14 N2 O4,C1 H4 O1'
_chemical_name_systematic        
"3'-(3-hydroxyphenyl)-4-methylspiro[1,4-benzodiazepine-3,2'-oxirane]-2,5(1H,4H)-dione methanol unknown solvate"
_symmetry_cell_setting           hexagonal
_symmetry_space_group_name_H-M   'P 65'
_symmetry_Int_Tables_number      170
_space_group_name_Hall           'P 65'
loop_
_symmetry_equiv_pos_site_id
_symmetry_equiv_pos_as_xyz
1 x,y,z
2 x-y,x,5/6+z
3 y,-x+y,1/6+z
4 -y,x-y,2/3+z
5 -x+y,-x,1/3+z
6 -x,-y,1/2+z
_cell_length_a                   19.5289(2)
_cell_length_b                   19.5289(2)
_cell_length_c                   8.02190(10)
_cell_angle_alpha                90
_cell_angle_beta                 90
_cell_angle_gamma                120
_cell_volume                     2649.5
_exptl_crystal_colour            colorless
_exptl_crystal_description       prism
_cell_formula_units_Z            6
loop_
_atom_site_label
_atom_site_type_symbol
_atom_site_fract_x
_atom_site_fract_y
_atom_site_fract_z
N1 N 0.16882(13) 0.56569(13) 0.7141(3)
H1 H 0.1920 0.5381 0.6908
N2 N 0.11936(13) 0.63998(14) 0.9734(3)
O1 O 0.07149(11) 0.46036(11) 0.8517(3)
O2 O 0.23384(12) 0.75351(13) 1.0227(3)
O3 O -0.01180(11) 0.54509(13) 0.8823(4)
O4 O -0.0171(2) 0.7944(2) 1.0366(6)
H2 H 0.0083 0.8441 1.0386
C1 C 0.20513(14) 0.64367(14) 0.6521(4)
C2 C 0.23970(17) 0.65777(18) 0.4951(4)
H3 H 0.2376 0.6152 0.4337
C3 C 0.27713(19) 0.7330(2) 0.4268(4)
H4 H 0.3011 0.7420 0.3200
C4 C 0.27941(18) 0.79555(18) 0.5154(4)
H5 H 0.3030 0.8467 0.4667
C5 C 0.24771(16) 0.78346(16) 0.6725(4)
H6 H 0.2506 0.8266 0.7331
C6 C 0.21102(14) 0.70774(14) 0.7448(3)
C7 C 0.18952(15) 0.70291(16) 0.9231(4)
C8 C 0.06963(14) 0.58205(15) 0.8532(4)
C9 C 0.10204(15) 0.52935(15) 0.8057(4)
C10 C 0.01958(16) 0.59817(17) 0.7382(5)
H7 H 0.0089 0.5718 0.6268
C11 C 0.01955(16) 0.67436(18) 0.7431(5)
C12 C -0.00070(19) 0.6980(2) 0.8899(6)
H8 H -0.0164 0.6642 0.9845
C13 C 0.0017(2) 0.7691(3) 0.9001(8)
C14 C 0.0275(2) 0.8180(3) 0.7602(10)
H9 H 0.0324 0.8688 0.7667
C15 C 0.0466(3) 0.7946(3) 0.6097(9)
H10 H 0.0629 0.8285 0.5153
C16 C 0.0412(2) 0.7195(2) 0.6012(7)
H11 H 0.0522 0.7011 0.5007
C17 C 0.0999(2) 0.6251(2) 1.1514(5)
H12 H 0.1005 0.5772 1.1853
H13 H 0.0471 0.6179 1.1709
H14 H 0.1389 0.6702 1.2167
O5 O 0.9121(3) 0.6790(2) 0.2692(6)
H15 H 0.9501 0.7227 0.2382
C18 C 0.8672(3) 0.6914(4) 0.3753(10)
H16 H 0.8792 0.6830 0.4896
H17 H 0.8113 0.6545 0.3512
H18 H 0.8778 0.7458 0.3635
loop_
_geom_bond_atom_site_label_1
_geom_bond_atom_site_label_2
_geom_bond_site_symmetry_1
_geom_bond_site_symmetry_2
N1 H1 1_555 1_555
N2 C7 1_555 1_555
O1 C9 1_555 1_555
O2 C7 1_555 1_555
O3 C8 1_555 1_555
O4 H2 1_555 1_555
C1 N1 1_555 1_555
C2 C1 1_555 1_555
H3 C2 1_555 1_555
C3 C2 1_555 1_555
H4 C3 1_555 1_555
C4 C3 1_555 1_555
H5 C4 1_555 1_555
C5 C4 1_555 1_555
H6 C5 1_555 1_555
C6 C1 1_555 1_555
C7 C6 1_555 1_555
C8 N2 1_555 1_555
C9 N1 1_555 1_555
C10 O3 1_555 1_555
H7 C10 1_555 1_555
C11 C10 1_555 1_555
C12 C11 1_555 1_555
H8 C12 1_555 1_555
C13 O4 1_555 1_555
C14 C13 1_555 1_555
H9 C14 1_555 1_555
C15 C14 1_555 1_555
H10 C15 1_555 1_555
C16 C11 1_555 1_555
H11 C16 1_555 1_555
C17 N2 1_555 1_555
H12 C17 1_555 1_555
H13 C17 1_555 1_555
H14 C17 1_555 1_555
O5 H15 1_555 1_555
C18 O5 1_555 1_555
H16 C18 1_555 1_555
H17 C18 1_555 1_555
H18 C18 1_555 1_555
C5 C6 1_555 1_555
C8 C9 1_555 1_555
C8 C10 1_555 1_555
C12 C13 1_555 1_555
C15 C16 1_555 1_555

#END
