
#######################################################################
#
#                 Cambridge Crystallographic Data Centre
#                                CCDC 
#
#######################################################################
#
# If this CIF has been generated from an entry in the Cambridge 
# Structural Database, then it will include bibliographic, chemical, 
# crystal, experimental, refinement or atomic coordinate data resulting 
# from the CCDC's data processing and validation procedures.
#
#######################################################################

data_POHGIC
_chemical_formula_moiety         '2(C10 H8 N1 O3 S1 1-),H12 Mg1 O6 2+,6(H2 O1)'
_chemical_name_systematic        
'bis(1-Aminonaphthyl-6-sulfonate) hexa-aqua-magnesium(ii) hexahydrate'
_symmetry_cell_setting           monoclinic
_symmetry_space_group_name_H-M   'P 21/a'
_symmetry_Int_Tables_number      14
_space_group_name_Hall           '-P 2yab'
loop_
_symmetry_equiv_pos_site_id
_symmetry_equiv_pos_as_xyz
1 x,y,z
2 1/2-x,1/2+y,-z
3 -x,-y,-z
4 1/2+x,1/2-y,z
_cell_length_a                   12.696(6)
_cell_length_b                   8.681(3)
_cell_length_c                   14.085(2)
_cell_angle_alpha                90
_cell_angle_beta                 93.32(2)
_cell_angle_gamma                90
_cell_volume                     1549.76
_exptl_crystal_colour            colorless
_cell_formula_units_Z            2
loop_
_atom_site_label
_atom_site_type_symbol
_atom_site_fract_x
_atom_site_fract_y
_atom_site_fract_z
Mg1 Mg 0.5000 0.5000 0.5000
O4 O 0.3607(3) 0.6058(5) 0.4570(2)
O5 O 0.5143(3) 0.6471(5) 0.6129(3)
O6 O 0.5846(3) 0.6542(5) 0.4226(3)
O4B O 0.6393(3) 0.3942(5) 0.5430(2)
O5B O 0.4857(3) 0.3529(5) 0.3871(3)
O6B O 0.4154(3) 0.3458(5) 0.5774(3)
S1 S 0.2553(1) 0.5976(2) 0.7273(1)
N1 N 0.1297(4) 0.4930(6) 1.1859(3)
O1 O 0.3628(3) 0.6448(6) 0.7414(3)
O2 O 0.1950(4) 0.7065(7) 0.6712(3)
O3 O 0.2483(4) 0.4458(6) 0.6904(3)
C1 C 0.0872(4) 0.5924(7) 1.1153(4)
C2 C 0.0102(4) 0.6954(7) 1.1349(4)
C3 C -0.0314(4) 0.7952(7) 1.0665(4)
C4 C 0.0032(4) 0.7943(6) 0.9763(4)
C5 C 0.1243(4) 0.6928(7) 0.8622(4)
C6 C 0.2025(4) 0.5947(7) 0.8416(3)
C7 C 0.2472(4) 0.4935(7) 0.9101(4)
C8 C 0.2100(4) 0.4918(7) 0.9979(4)
C9 C 0.1281(4) 0.5897(6) 1.0231(3)
C10 C 0.0840(4) 0.6926(6) 0.9532(4)
O7 O 0.3158(3) 0.6399(5) 0.2700(3)
O8 O 0.3189(3) 0.8830(5) 0.5440(3)
O9 O 0.5105(3) 0.9432(5) 0.3763(3)
loop_
_geom_bond_atom_site_label_1
_geom_bond_atom_site_label_2
_geom_bond_site_symmetry_1
_geom_bond_site_symmetry_2
Mg1 O4 1_555 1_555
S1 O1 1_555 1_555
N1 C1 1_555 1_555
O2 S1 1_555 1_555
O3 S1 1_555 1_555
O5 Mg1 1_555 1_555
O6 Mg1 1_555 1_555
C1 C2 1_555 1_555
C2 C3 1_555 1_555
C3 C4 1_555 1_555
C4 C10 1_555 1_555
C5 C6 1_555 1_555
C6 S1 1_555 1_555
C7 C6 1_555 1_555
C8 C7 1_555 1_555
C9 C1 1_555 1_555
C10 C5 1_555 1_555
O4B Mg1 1_555 1_555
O5B Mg1 1_555 1_555
O6B Mg1 1_555 1_555
C8 C9 1_555 1_555
C9 C10 1_555 1_555

#END
