
#######################################################################
#
#                 Cambridge Crystallographic Data Centre
#                                CCDC 
#
#######################################################################
#
# If this CIF has been generated from an entry in the Cambridge 
# Structural Database, then it will include bibliographic, chemical, 
# crystal, experimental, refinement or atomic coordinate data resulting 
# from the CCDC's data processing and validation procedures.
#
#######################################################################

data_POJWUI
_chemical_formula_moiety         'C19 H20 Br1 N1 O6'
_chemical_name_systematic        
'Trimethyl 1-(4-bromophenyl)-2,6-dimethyl-1,4-dihydropyridine-3,4,5-tricarboxylate'
_symmetry_cell_setting           monoclinic
_symmetry_space_group_name_H-M   'P 21/n'
_symmetry_Int_Tables_number      14
_space_group_name_Hall           '-P 2yn'
loop_
_symmetry_equiv_pos_site_id
_symmetry_equiv_pos_as_xyz
1 x,y,z
2 1/2-x,1/2+y,1/2-z
3 -x,-y,-z
4 1/2+x,1/2-y,1/2+z
_cell_length_a                   12.8279(6)
_cell_length_b                   13.1698(5)
_cell_length_c                   13.0975(6)
_cell_angle_alpha                90
_cell_angle_beta                 111.834(5)
_cell_angle_gamma                90
_cell_volume                     2053.98
_exptl_crystal_colour            colorless
_exptl_crystal_description       block
_cell_formula_units_Z            4
loop_
_atom_site_label
_atom_site_type_symbol
_atom_site_fract_x
_atom_site_fract_y
_atom_site_fract_z
Br1 Br 1.07883(5) 0.26534(6) 0.14501(6)
O1 O 0.4293(4) -0.0167(3) 0.1651(3)
O2 O 0.3255(4) 0.1033(3) 0.1986(4)
O3 O 0.3073(4) 0.4347(4) -0.1300(3)
O4 O 0.2341(3) 0.3919(3) -0.0064(3)
O5 O 0.3737(5) 0.3336(4) 0.2687(4)
O6 O 0.5221(8) 0.3786(8) 0.2269(7)
C1 C 0.4493(4) 0.1580(4) 0.1202(4)
C2 C 0.5442(4) 0.1503(4) 0.0982(4)
N1 N 0.5783(4) 0.2348(3) 0.0525(3)
C3 C 0.5014(4) 0.3115(4) -0.0018(4)
C4 C 0.4053(4) 0.3191(4) 0.0162(4)
C5 C 0.3895(4) 0.2596(4) 0.1079(4)
H1 H 0.3090 0.2463 0.0868
C6 C 0.4027(4) 0.0707(5) 0.1610(4)
C7 C 0.2718(8) 0.0263(6) 0.2407(9)
H2 H 0.2437 -0.0267 0.1871
H3 H 0.2107 0.0560 0.2558
H4 H 0.3254 -0.0016 0.3073
C8 C 0.6170(4) 0.0590(4) 0.1164(5)
H5 H 0.6866 0.0713 0.1766
H6 H 0.6317 0.0450 0.0511
H7 H 0.5798 0.0019 0.1333
C9 C 0.5388(5) 0.3787(4) -0.0728(5)
H8 H 0.6112 0.4064 -0.0305
H9 H 0.4858 0.4330 -0.1006
H10 H 0.5434 0.3402 -0.1332
C10 C 0.3139(5) 0.3869(4) -0.0497(5)
C11 C 0.1344(6) 0.4528(7) -0.0660(6)
H11 H 0.1165 0.4463 -0.1437
H12 H 0.1491 0.5228 -0.0450
H13 H 0.0723 0.4293 -0.0483
C12 C 0.4287(5) 0.3160(5) 0.2137(5)
C13 C 0.5721(12) 0.4516(10) 0.3249(8)
H14 H 0.6087 0.5069 0.3040
H15 H 0.6257 0.4158 0.3857
H16 H 0.5131 0.4775 0.3460
C14 C 0.6958(4) 0.2441(4) 0.0702(4)
C15 C 0.7672(4) 0.2845(4) 0.1680(4)
H17 H 0.7386 0.3070 0.2197
C16 C 0.8813(5) 0.2920(4) 0.1905(4)
H18 H 0.9296 0.3192 0.2567
C17 C 0.9217(4) 0.2585(4) 0.1127(5)
C18 C 0.8515(5) 0.2202(4) 0.0140(5)
H19 H 0.8800 0.1996 -0.0384
C19 C 0.7381(5) 0.2124(5) -0.0074(5)
H20 H 0.6900 0.1857 -0.0741
O7? O 0.5396(9) 0.3210(8) 0.2606(8)
C20? C 0.6046(13) 0.3726(10) 0.3752(9)
H21? H 0.5805 0.4419 0.3732
H22? H 0.6838 0.3708 0.3906
H23? H 0.5890 0.3366 0.4316
loop_
_geom_bond_atom_site_label_1
_geom_bond_atom_site_label_2
_geom_bond_site_symmetry_1
_geom_bond_site_symmetry_2
Br1 C17 1_555 1_555
O1 C6 1_555 1_555
O2 C6 1_555 1_555
O3 C10 1_555 1_555
O4 C10 1_555 1_555
O5 C12 1_555 1_555
O6 C12 1_555 1_555
C1 C2 1_555 1_555
C2 N1 1_555 1_555
N1 C3 1_555 1_555
C3 C4 1_555 1_555
C4 C5 1_555 1_555
C5 C1 1_555 1_555
H1 C5 1_555 1_555
C6 C1 1_555 1_555
C7 O2 1_555 1_555
H2 C7 1_555 1_555
H3 C7 1_555 1_555
H4 C7 1_555 1_555
C8 C2 1_555 1_555
H5 C8 1_555 1_555
H6 C8 1_555 1_555
H7 C8 1_555 1_555
C9 C3 1_555 1_555
H8 C9 1_555 1_555
H9 C9 1_555 1_555
H10 C9 1_555 1_555
C10 C4 1_555 1_555
C11 O4 1_555 1_555
H11 C11 1_555 1_555
H12 C11 1_555 1_555
H13 C11 1_555 1_555
C12 C5 1_555 1_555
C13 O6 1_555 1_555
H14 C13 1_555 1_555
H15 C13 1_555 1_555
H16 C13 1_555 1_555
C14 N1 1_555 1_555
C15 C14 1_555 1_555
H17 C15 1_555 1_555
C16 C15 1_555 1_555
H18 C16 1_555 1_555
C17 C16 1_555 1_555
C18 C17 1_555 1_555
H19 C18 1_555 1_555
C19 C14 1_555 1_555
H20 C19 1_555 1_555
C18 C19 1_555 1_555

#END
