
#######################################################################
#
#                 Cambridge Crystallographic Data Centre
#                                CCDC 
#
#######################################################################
#
# If this CIF has been generated from an entry in the Cambridge 
# Structural Database, then it will include bibliographic, chemical, 
# crystal, experimental, refinement or atomic coordinate data resulting 
# from the CCDC's data processing and validation procedures.
#
#######################################################################

data_POKKAD09
_chemical_formula_moiety         'C7 H11 N1 O4,H2 O1'
_chemical_name_systematic        '1-acetyl-4-hydroxyproline hydrate'
_symmetry_cell_setting           orthorhombic
_symmetry_space_group_name_H-M   'P 21 21 21'
_symmetry_Int_Tables_number      19
_space_group_name_Hall           'P 2ac 2ab'
loop_
_symmetry_equiv_pos_site_id
_symmetry_equiv_pos_as_xyz
1 x,y,z
2 1/2-x,-y,1/2+z
3 1/2+x,1/2-y,-z
4 -x,1/2+y,1/2-z
_cell_length_a                   9.9026(2)
_cell_length_b                   9.2485(2)
_cell_length_c                   10.1662(2)
_cell_angle_alpha                90
_cell_angle_beta                 90
_cell_angle_gamma                90
_cell_volume                     931.063
_cell_formula_units_Z            4
loop_
_atom_site_label
_atom_site_type_symbol
_atom_site_fract_x
_atom_site_fract_y
_atom_site_fract_z
O1 O 0.57902(3) 1.11424(4) 0.77061(4)
O2 O 0.79339(3) 1.11890(4) 0.83896(3)
O3 O 0.84048(4) 1.20534(4) 0.54958(4)
O4 O 0.78382(4) 0.69428(4) 0.51396(3)
N1 N 0.87773(4) 0.97799(4) 0.61382(4)
C1 C 0.69647(4) 1.07606(4) 0.76009(4)
C2 C 0.73829(4) 0.96472(4) 0.65881(4)
C3 C 0.73381(5) 0.81136(5) 0.71798(4)
C4 C 0.84028(5) 0.73037(5) 0.63867(4)
C5 C 0.95318(5) 0.84210(5) 0.62474(5)
C6 C 0.91953(4) 1.10123(4) 0.55739(4)
C7 C 1.06118(5) 1.10711(6) 0.50536(5)
H1 H 0.75761 1.18504 0.90295
H2 H 0.83028 0.61205 0.47809
H3 H 0.66980 0.97043 0.57365
H4 H 0.75935 0.81285 0.82264
H5 H 0.63404 0.76252 0.70547
H6 H 0.87539 0.63344 0.69088
H7 H 1.01959 0.84216 0.71139
H8 H 1.01401 0.82196 0.53615
H9 H 1.13059 1.06501 0.57944
H10 H 1.08768 1.21886 0.48251
H11 H 1.06836 1.04162 0.41632
O5 O 0.89990(5) 0.45972(4) 0.43023(5)
H12 H 0.88063 0.36964 0.47360
H13 H 0.95927 0.44440 0.35667
loop_
_geom_bond_atom_site_label_1
_geom_bond_atom_site_label_2
_geom_bond_site_symmetry_1
_geom_bond_site_symmetry_2
O1 C1 1_555 1_555
O2 C1 1_555 1_555
O3 C6 1_555 1_555
O4 C4 1_555 1_555
N1 C2 1_555 1_555
C1 C2 1_555 1_555
C2 C3 1_555 1_555
C3 C4 1_555 1_555
C4 C5 1_555 1_555
C5 N1 1_555 1_555
C6 N1 1_555 1_555
C7 C6 1_555 1_555
H1 O2 1_555 1_555
H2 O4 1_555 1_555
H3 C2 1_555 1_555
H4 C3 1_555 1_555
H5 C3 1_555 1_555
H6 C4 1_555 1_555
H7 C5 1_555 1_555
H8 C5 1_555 1_555
H9 C7 1_555 1_555
H10 C7 1_555 1_555
H11 C7 1_555 1_555
O5 H12 1_555 1_555
H13 O5 1_555 1_555

#END
