
#######################################################################
#
#                 Cambridge Crystallographic Data Centre
#                                CCDC 
#
#######################################################################
#
# If this CIF has been generated from an entry in the Cambridge 
# Structural Database, then it will include bibliographic, chemical, 
# crystal, experimental, refinement or atomic coordinate data resulting 
# from the CCDC's data processing and validation procedures.
#
#######################################################################

data_POKKAD07
_chemical_formula_moiety         'C7 H11 N1 O4,H2 O1'
_chemical_name_systematic        '1-acetyl-4-hydroxyproline hydrate'
_symmetry_cell_setting           orthorhombic
_symmetry_space_group_name_H-M   'P 21 21 21'
_symmetry_Int_Tables_number      19
_space_group_name_Hall           'P 2ac 2ab'
loop_
_symmetry_equiv_pos_site_id
_symmetry_equiv_pos_as_xyz
1 x,y,z
2 1/2-x,-y,1/2+z
3 1/2+x,1/2-y,-z
4 -x,1/2+y,1/2-z
_cell_length_a                   9.866(7)
_cell_length_b                   9.250(7)
_cell_length_c                   10.149(6)
_cell_angle_alpha                90
_cell_angle_beta                 90
_cell_angle_gamma                90
_cell_volume                     926.203
_cell_formula_units_Z            4
loop_
_atom_site_label
_atom_site_type_symbol
_atom_site_fract_x
_atom_site_fract_y
_atom_site_fract_z
O1 O 0.57876(3) 1.11441(3) 0.77141(3)
O2 O 0.79391(3) 1.11875(3) 0.84002(3)
O3 O 0.84068(3) 1.20552(3) 0.55051(3)
O4 O 0.78373(3) 0.69411(3) 0.51482(3)
N1 N 0.87811(3) 0.97798(3) 0.61441(3)
C1 C 0.69668(3) 1.07604(3) 0.76102(3)
C2 C 0.73846(3) 0.96437(3) 0.65982(3)
C3 C 0.73457(4) 0.81112(4) 0.71934(3)
C4 C 0.84112(4) 0.73027(4) 0.63929(3)
C5 C 0.95405(4) 0.84207(4) 0.62484(4)
C6 C 0.91983(3) 1.10149(3) 0.55802(3)
C7 C 1.06189(4) 1.10714(4) 0.50532(4)
H1 H 0.75766 1.18374 0.90490
H2 H 0.83126 0.61295 0.47803
H3 H 0.66946 0.96973 0.57469
H4 H 0.76077 0.81279 0.82405
H5 H 0.63444 0.76210 0.70740
H6 H 0.87671 0.63345 0.69150
H7 H 1.02107 0.84220 0.71138
H8 H 1.01476 0.82205 0.53587
H9 H 1.13216 1.06864 0.58060
H10 H 1.08723 1.21829 0.47898
H11 H 1.06959 1.03852 0.41816
O5 O 0.90001(4) 0.45963(3) 0.43046(4)
H12 H 0.88488 0.36933 0.47506
H13 H 0.95602 0.43768 0.35553
loop_
_geom_bond_atom_site_label_1
_geom_bond_atom_site_label_2
_geom_bond_site_symmetry_1
_geom_bond_site_symmetry_2
O1 C1 1_555 1_555
O2 C1 1_555 1_555
O3 C6 1_555 1_555
O4 C4 1_555 1_555
N1 C2 1_555 1_555
C1 C2 1_555 1_555
C2 C3 1_555 1_555
C3 C4 1_555 1_555
C4 C5 1_555 1_555
C5 N1 1_555 1_555
C6 N1 1_555 1_555
C7 C6 1_555 1_555
H1 O2 1_555 1_555
H2 O4 1_555 1_555
H3 C2 1_555 1_555
H4 C3 1_555 1_555
H5 C3 1_555 1_555
H6 C4 1_555 1_555
H7 C5 1_555 1_555
H8 C5 1_555 1_555
H9 C7 1_555 1_555
H10 C7 1_555 1_555
H11 C7 1_555 1_555
O5 H12 1_555 1_555
H13 O5 1_555 1_555

#END
