
#######################################################################
#
#                 Cambridge Crystallographic Data Centre
#                                CCDC 
#
#######################################################################
#
# If this CIF has been generated from an entry in the Cambridge 
# Structural Database, then it will include bibliographic, chemical, 
# crystal, experimental, refinement or atomic coordinate data resulting 
# from the CCDC's data processing and validation procedures.
#
#######################################################################

data_POKKAD05
_chemical_formula_moiety         'C7 H11 N1 O4,H2 O1'
_chemical_name_systematic        '1-acetyl-4-hydroxyproline hydrate'
_symmetry_cell_setting           orthorhombic
_symmetry_space_group_name_H-M   'P 21 21 21'
_symmetry_Int_Tables_number      19
_space_group_name_Hall           'P 2ac 2ab'
loop_
_symmetry_equiv_pos_site_id
_symmetry_equiv_pos_as_xyz
1 x,y,z
2 1/2-x,-y,1/2+z
3 1/2+x,1/2-y,-z
4 -x,1/2+y,1/2-z
_cell_length_a                   9.854(3)
_cell_length_b                   9.249(3)
_cell_length_c                   10.144(2)
_cell_angle_alpha                90
_cell_angle_beta                 90
_cell_angle_gamma                90
_cell_volume                     924.521
_cell_formula_units_Z            4
loop_
_atom_site_label
_atom_site_type_symbol
_atom_site_fract_x
_atom_site_fract_y
_atom_site_fract_z
O1 O 0.57864(3) 1.11469(3) 0.77183(3)
O2 O 0.79421(3) 1.11863(3) 0.84048(2)
O3 O 0.84067(3) 1.20556(3) 0.55093(3)
O4 O 0.78344(3) 0.69402(3) 0.51516(3)
N1 N 0.87822(3) 0.97789(3) 0.61460(3)
C1 C 0.69679(3) 1.07603(3) 0.76141(3)
C2 C 0.73844(3) 0.96432(3) 0.66018(3)
C3 C 0.73469(3) 0.81108(3) 0.71988(3)
C4 C 0.84126(3) 0.73017(3) 0.63963(3)
C5 C 0.95442(3) 0.84208(3) 0.62487(3)
C6 C 0.91997(3) 1.10147(3) 0.55827(3)
C7 C 1.06213(3) 1.10715(4) 0.50529(4)
H1 H 0.75801 1.18383 0.90527
H2 H 0.83076 0.61270 0.47830
H3 H 0.66921 0.96958 0.57511
H4 H 0.76114 0.81290 0.82458
H5 H 0.63444 0.76200 0.70817
H6 H 0.87703 0.63334 0.69178
H7 H 1.02170 0.84233 0.71132
H8 H 1.01502 0.82209 0.53573
H9 H 1.13257 1.06799 0.58024
H10 H 1.08766 1.21843 0.47949
H11 H 1.06952 1.03909 0.41769
O5 O 0.90008(3) 0.45965(3) 0.43048(3)
H12 H 0.88155 0.36949 0.47416
H13 H 0.95639 0.43869 0.35544
loop_
_geom_bond_atom_site_label_1
_geom_bond_atom_site_label_2
_geom_bond_site_symmetry_1
_geom_bond_site_symmetry_2
O1 C1 1_555 1_555
O2 C1 1_555 1_555
O3 C6 1_555 1_555
O4 C4 1_555 1_555
N1 C2 1_555 1_555
C1 C2 1_555 1_555
C2 C3 1_555 1_555
C3 C4 1_555 1_555
C4 C5 1_555 1_555
C5 N1 1_555 1_555
C6 N1 1_555 1_555
C7 C6 1_555 1_555
H1 O2 1_555 1_555
H2 O4 1_555 1_555
H3 C2 1_555 1_555
H4 C3 1_555 1_555
H5 C3 1_555 1_555
H6 C4 1_555 1_555
H7 C5 1_555 1_555
H8 C5 1_555 1_555
H9 C7 1_555 1_555
H10 C7 1_555 1_555
H11 C7 1_555 1_555
O5 H12 1_555 1_555
H13 O5 1_555 1_555

#END
