
#######################################################################
#
#                 Cambridge Crystallographic Data Centre
#                                CCDC 
#
#######################################################################
#
# If this CIF has been generated from an entry in the Cambridge 
# Structural Database, then it will include bibliographic, chemical, 
# crystal, experimental, refinement or atomic coordinate data resulting 
# from the CCDC's data processing and validation procedures.
#
#######################################################################

data_POLJEF
_chemical_formula_moiety         'C21 H17 N1 O4'
_chemical_name_systematic        
'3-(2-Hydroxynaphthyl)-2-methyl-3,4-dihydro-1(2H)-isoquinolinone-4-carboxylic acid'
_symmetry_cell_setting           orthorhombic
_symmetry_space_group_name_H-M   'P 21 21 21'
_symmetry_Int_Tables_number      19
_space_group_name_Hall           'P 2ac 2ab'
loop_
_symmetry_equiv_pos_site_id
_symmetry_equiv_pos_as_xyz
1 x,y,z
2 1/2+x,1/2-y,-z
3 -x,1/2+y,1/2-z
4 1/2-x,-y,1/2+z
_cell_length_a                   10.174(2)
_cell_length_b                   11.981(4)
_cell_length_c                   14.184(4)
_cell_angle_alpha                90
_cell_angle_beta                 90
_cell_angle_gamma                90
_cell_volume                     1728.95
_exptl_crystal_colour            colorless
_chemical_melting_point          '224-225 deg.C'
_cell_formula_units_Z            4
loop_
_atom_site_label
_atom_site_type_symbol
_atom_site_fract_x
_atom_site_fract_y
_atom_site_fract_z
O1 O 0.2421(2) 0.3826(2) 0.1747(2)
O2 O 0.3649(3) 0.6239(2) 0.4366(2)
O3 O 0.3724(3) 0.4989(2) 0.5502(2)
O4 O 0.5597(2) 0.3024(2) 0.1829(2)
N1 N 0.4082(3) 0.4793(2) 0.2402(2)
C1 C 0.3205(3) 0.3967(3) 0.2402(2)
C2 C 0.5137(3) 0.4906(3) 0.3115(2)
C3 C 0.4712(3) 0.4469(3) 0.4083(2)
C4 C 0.3942(3) 0.3397(3) 0.4020(2)
C5 C 0.3909(4) 0.2641(3) 0.4770(2)
C6 C 0.3115(4) 0.1699(3) 0.4701(3)
C7 C 0.2341(4) 0.1515(3) 0.3923(3)
C8 C 0.2370(4) 0.2260(3) 0.3175(3)
C9 C 0.3178(3) 0.3202(3) 0.3230(2)
C10 C 0.4193(4) 0.5522(3) 0.1586(3)
C11 C 0.3957(4) 0.5336(3) 0.4651(2)
C12 C 0.6474(3) 0.4445(3) 0.2817(2)
C13 C 0.6659(4) 0.3556(3) 0.2213(3)
C14 C 0.7937(4) 0.3197(3) 0.1968(3)
C15 C 0.9010(4) 0.3690(4) 0.2345(3)
C16 C 0.8886(4) 0.4569(3) 0.2997(3)
C17 C 0.9991(4) 0.5058(4) 0.3426(3)
C18 C 0.9886(4) 0.5882(4) 0.4062(3)
C19 C 0.8634(4) 0.6282(3) 0.4305(3)
C20 C 0.7534(4) 0.5840(3) 0.3900(3)
C21 C 0.7604(4) 0.4959(3) 0.3236(2)
H1 H 0.5238 0.5690 0.3175
H2 H 0.5509 0.4312 0.4405
H3 H 0.4422 0.2769 0.5318
H4 H 0.3115 0.1165 0.5196
H5 H 0.1773 0.0886 0.3895
H6 H 0.1835 0.2141 0.2635
H7 H 0.4853 0.6065 0.1700
H8 H 0.4423 0.5092 0.1047
H9 H 0.3376 0.5884 0.1477
H10 H 0.8039 0.2598 0.1535
H11 H 0.9862 0.3460 0.2152
H12 H 1.0845 0.4813 0.3254
H13 H 1.0644 0.6178 0.4361
H14 H 0.8559 0.6878 0.4743
H15 H 0.6700 0.6134 0.4070
H16 H 0.5822 0.2479 0.1485
H17 H 0.3287 0.5568 0.5913
loop_
_geom_bond_atom_site_label_1
_geom_bond_atom_site_label_2
_geom_bond_site_symmetry_1
_geom_bond_site_symmetry_2
O1 C1 1_555 1_555
O2 C11 1_555 1_555
O3 C11 1_555 1_555
O4 C13 1_555 1_555
N1 C1 1_555 1_555
C1 C9 1_555 1_555
C2 N1 1_555 1_555
C3 C2 1_555 1_555
C4 C3 1_555 1_555
C5 C4 1_555 1_555
C6 C5 1_555 1_555
C7 C6 1_555 1_555
C8 C7 1_555 1_555
C9 C4 1_555 1_555
C10 N1 1_555 1_555
C11 C3 1_555 1_555
C12 C2 1_555 1_555
C13 C12 1_555 1_555
C14 C13 1_555 1_555
C15 C14 1_555 1_555
C16 C15 1_555 1_555
C17 C16 1_555 1_555
C18 C17 1_555 1_555
C19 C18 1_555 1_555
C20 C19 1_555 1_555
C21 C12 1_555 1_555
H1 C2 1_555 1_555
H2 C3 1_555 1_555
H3 C5 1_555 1_555
H4 C6 1_555 1_555
H5 C7 1_555 1_555
H6 C8 1_555 1_555
H7 C10 1_555 1_555
H8 C10 1_555 1_555
H9 C10 1_555 1_555
H10 C14 1_555 1_555
H11 C15 1_555 1_555
H12 C17 1_555 1_555
H13 C18 1_555 1_555
H14 C19 1_555 1_555
H15 C20 1_555 1_555
H16 O4 1_555 1_555
H17 O3 1_555 1_555
C8 C9 1_555 1_555
C16 C21 1_555 1_555
C20 C21 1_555 1_555

#END
