
#######################################################################
#
#                 Cambridge Crystallographic Data Centre
#                                CCDC 
#
#######################################################################
#
# If this CIF has been generated from an entry in the Cambridge 
# Structural Database, then it will include bibliographic, chemical, 
# crystal, experimental, refinement or atomic coordinate data resulting 
# from the CCDC's data processing and validation procedures.
#
#######################################################################

data_POMNEL
_chemical_formula_moiety         'C28 H30 N6 Na1 O4 1+,I1 1-'
_chemical_name_systematic        
"bis((Methanol)-(N'-(3-pyridylmethylene)benzohydrazide))-sodium(i) iodide"
_symmetry_cell_setting           monoclinic
_symmetry_space_group_name_H-M   'P 21/n'
_symmetry_Int_Tables_number      14
_space_group_name_Hall           '-P 2yn'
loop_
_symmetry_equiv_pos_site_id
_symmetry_equiv_pos_as_xyz
1 x,y,z
2 1/2-x,1/2+y,1/2-z
3 -x,-y,-z
4 1/2+x,1/2-y,1/2+z
_cell_length_a                   8.6078(15)
_cell_length_b                   13.1842(16)
_cell_length_c                   13.2508(17)
_cell_angle_alpha                90
_cell_angle_beta                 101.6540(10)
_cell_angle_gamma                90
_cell_volume                     1472.79
_exptl_crystal_colour            colorless
_exptl_crystal_description       block
_cell_formula_units_Z            2
_exptl_crystal_recrystallization_method 'diethyl ether'
loop_
_atom_site_label
_atom_site_type_symbol
_atom_site_fract_x
_atom_site_fract_y
_atom_site_fract_z
Na1 Na 0.5000 0.5000 0.0000
N1 N 0.6395(4) 0.2735(2) 0.0500(2)
H1 H 0.6445 0.2085 0.0462
N2 N 0.5180(3) 0.3195(2) 0.0883(2)
N3 N 0.0867(4) 0.2404(3) 0.2536(3)
O1 O 0.7451(3) 0.42504(19) 0.0231(2)
O2 O 0.4427(3) 0.4186(2) -0.16052(19)
H2 H 0.4879 0.3694 -0.1793
C1 C 0.7503(4) 0.3326(3) 0.0187(3)
C2 C 0.8797(4) 0.2795(3) -0.0193(3)
C3 C 0.8939(5) 0.1758(3) -0.0264(3)
H3 H 0.8179 0.1337 -0.0075
C4 C 1.0197(6) 0.1342(3) -0.0613(3)
H4 H 1.0281 0.0641 -0.0654
C5 C 1.1334(5) 0.1946(4) -0.0902(3)
H5 H 1.2187 0.1658 -0.1131
C6 C 1.1193(5) 0.2980(3) -0.0848(3)
H6 H 1.1948 0.3398 -0.1048
C7 C 0.9930(4) 0.3401(3) -0.0497(3)
H7 H 0.9842 0.4103 -0.0465
C8 C 0.4330(5) 0.2585(3) 0.1286(3)
H8 H 0.4564 0.1895 0.1299
C9 C 0.2103(5) 0.2198(3) 0.2102(3)
H9 H 0.2379 0.1522 0.2045
C10 C 0.3003(4) 0.2933(3) 0.1730(3)
C11 C 0.2568(5) 0.3933(3) 0.1804(3)
H10 H 0.3129 0.4450 0.1561
C12 C 0.1293(5) 0.4150(3) 0.2242(3)
H11 H 0.0978 0.4819 0.2299
C13 C 0.0492(5) 0.3378(3) 0.2592(3)
H12 H -0.0368 0.3542 0.2887
C14 C 0.3307(7) 0.4569(4) -0.2446(3)
H13 H 0.2857 0.5185 -0.2245
H14 H 0.2481 0.4078 -0.2655
H15 H 0.3821 0.4705 -0.3011
N1B N 0.3605(4) 0.7265(2) -0.0500(2)
H1B H 0.3555 0.7915 -0.0462
N2B N 0.4820(3) 0.6805(2) -0.0883(2)
N3B N 0.9133(4) 0.7596(3) -0.2536(3)
O1B O 0.2549(3) 0.57496(19) -0.0231(2)
O2B O 0.5573(3) 0.5814(2) 0.16052(19)
H2B H 0.5121 0.6306 0.1793
C1B C 0.2497(4) 0.6674(3) -0.0187(3)
C2B C 0.1203(4) 0.7205(3) 0.0193(3)
C3B C 0.1061(5) 0.8242(3) 0.0264(3)
H3B H 0.1821 0.8663 0.0075
C4B C -0.0197(6) 0.8658(3) 0.0613(3)
H4B H -0.0281 0.9359 0.0654
C5B C -0.1334(5) 0.8054(4) 0.0902(3)
H5B H -0.2187 0.8342 0.1131
C6B C -0.1193(5) 0.7020(3) 0.0848(3)
H6B H -0.1948 0.6602 0.1048
C7B C 0.0070(4) 0.6599(3) 0.0497(3)
H7B H 0.0158 0.5897 0.0465
C8B C 0.5670(5) 0.7415(3) -0.1286(3)
H8B H 0.5436 0.8105 -0.1299
C9B C 0.7897(5) 0.7802(3) -0.2102(3)
H9B H 0.7621 0.8478 -0.2045
C10B C 0.6997(4) 0.7067(3) -0.1730(3)
C11B C 0.7432(5) 0.6067(3) -0.1804(3)
H10B H 0.6871 0.5550 -0.1561
C12B C 0.8707(5) 0.5850(3) -0.2242(3)
H11B H 0.9022 0.5181 -0.2299
C13B C 0.9508(5) 0.6622(3) -0.2592(3)
H12B H 1.0368 0.6458 -0.2887
C14B C 0.6693(7) 0.5431(4) 0.2446(3)
H13B H 0.7143 0.4815 0.2245
H14B H 0.7519 0.5922 0.2655
H15B H 0.6179 0.5295 0.3011
I1 I 0.0000 0.5000 0.5000
loop_
_geom_bond_atom_site_label_1
_geom_bond_atom_site_label_2
_geom_bond_site_symmetry_1
_geom_bond_site_symmetry_2
Na1 N2 1_555 1_555
N1 H1 1_555 1_555
N2 N1 1_555 1_555
N3 C9 1_555 1_555
O1 Na1 1_555 1_555
O2 Na1 1_555 1_555
H2 O2 1_555 1_555
C1 N1 1_555 1_555
C2 C1 1_555 1_555
C3 C2 1_555 1_555
H3 C3 1_555 1_555
C4 C3 1_555 1_555
H4 C4 1_555 1_555
C5 C4 1_555 1_555
H5 C5 1_555 1_555
C6 C5 1_555 1_555
H6 C6 1_555 1_555
C7 C2 1_555 1_555
H7 C7 1_555 1_555
C8 N2 1_555 1_555
H8 C8 1_555 1_555
C9 H9 1_555 1_555
C10 C8 1_555 1_555
C11 C10 1_555 1_555
H10 C11 1_555 1_555
C12 C11 1_555 1_555
H11 C12 1_555 1_555
C13 N3 1_555 1_555
H12 C13 1_555 1_555
C14 O2 1_555 1_555
H13 C14 1_555 1_555
H14 C14 1_555 1_555
H15 C14 1_555 1_555
N1B H1B 1_555 1_555
N2B Na1 1_555 1_555
N3B C9B 1_555 1_555
O1B Na1 1_555 1_555
O2B Na1 1_555 1_555
H2B O2B 1_555 1_555
C1B N1B 1_555 1_555
C2B C1B 1_555 1_555
C3B C2B 1_555 1_555
H3B C3B 1_555 1_555
C4B C3B 1_555 1_555
H4B C4B 1_555 1_555
C5B C4B 1_555 1_555
H5B C5B 1_555 1_555
C6B C5B 1_555 1_555
H6B C6B 1_555 1_555
C7B C2B 1_555 1_555
H7B C7B 1_555 1_555
C8B N2B 1_555 1_555
H8B C8B 1_555 1_555
C9B H9B 1_555 1_555
C10B C8B 1_555 1_555
C11B C10B 1_555 1_555
H10B C11B 1_555 1_555
C12B C11B 1_555 1_555
H11B C12B 1_555 1_555
C13B N3B 1_555 1_555
H12B C13B 1_555 1_555
C14B O2B 1_555 1_555
H13B C14B 1_555 1_555
H14B C14B 1_555 1_555
H15B C14B 1_555 1_555
O1 C1 1_555 1_555
C6 C7 1_555 1_555
C9 C10 1_555 1_555
C12 C13 1_555 1_555
N1B N2B 1_555 1_555
O1B C1B 1_555 1_555
C6B C7B 1_555 1_555
C9B C10B 1_555 1_555
C12B C13B 1_555 1_555

#END
