
#######################################################################
#
#                 Cambridge Crystallographic Data Centre
#                                CCDC 
#
#######################################################################
#
# If this CIF has been generated from an entry in the Cambridge 
# Structural Database, then it will include bibliographic, chemical, 
# crystal, experimental, refinement or atomic coordinate data resulting 
# from the CCDC's data processing and validation procedures.
#
#######################################################################

data_PONRAM
_chemical_formula_moiety         'C12 H11 N2 1+,I1 1-'
_chemical_name_systematic        '1-(Benzylideneamino)pyridinium iodide'
_symmetry_cell_setting           monoclinic
_symmetry_space_group_name_H-M   'P 21/c'
_symmetry_Int_Tables_number      14
_space_group_name_Hall           '-P 2ybc'
loop_
_symmetry_equiv_pos_site_id
_symmetry_equiv_pos_as_xyz
1 x,y,z
2 -x,1/2+y,1/2-z
3 -x,-y,-z
4 x,1/2-y,1/2+z
_cell_length_a                   10.5722(17)
_cell_length_b                   7.8219(13)
_cell_length_c                   15.386(3)
_cell_angle_alpha                90
_cell_angle_beta                 108.354(2)
_cell_angle_gamma                90
_cell_volume                     1207.62
_exptl_crystal_colour            yellow
_exptl_crystal_description       block
_cell_formula_units_Z            4
_exptl_crystal_recrystallization_method ethanol
loop_
_atom_site_label
_atom_site_type_symbol
_atom_site_fract_x
_atom_site_fract_y
_atom_site_fract_z
I1 I 0.36542(2) 0.37261(3) 0.175113(16)
N1 N 0.2501(3) 0.8944(3) 0.03899(19)
N2 N 0.1744(3) 0.8956(3) 0.10105(19)
C1 C 0.3602(4) 0.7989(5) 0.0544(3)
H1 H 0.3942 0.7393 0.1091
C2 C 0.4222(4) 0.7904(5) -0.0117(3)
H2 H 0.4975 0.7225 -0.0024
C3 C 0.3734(4) 0.8812(5) -0.0909(3)
H3 H 0.4162 0.8775 -0.1353
C4 C 0.2612(4) 0.9776(6) -0.1045(2)
H4 H 0.2274 1.0402 -0.1582
C5 C 0.1982(4) 0.9821(5) -0.0388(2)
H5 H 0.1205 1.0454 -0.0484
C6 C 0.2447(3) 0.9324(4) 0.1829(2)
H6 H 0.3347 0.9579 0.1961
C7 C 0.1831(3) 0.9341(5) 0.2553(2)
C8 C 0.2456(4) 1.0226(5) 0.3354(2)
H7 H 0.3250 1.0802 0.3419
C9 C 0.0654(4) 0.8452(5) 0.2465(3)
H8 H 0.0240 0.7838 0.1934
C10 C 0.0110(4) 0.8488(5) 0.3166(3)
H9 H -0.0678 0.7902 0.3109
C11 C 0.0729(5) 0.9391(6) 0.3955(3)
H10 H 0.0352 0.9419 0.4425
C12 C 0.1899(5) 1.0252(6) 0.4051(3)
H11 H 0.2315 1.0851 0.4588
loop_
_geom_bond_atom_site_label_1
_geom_bond_atom_site_label_2
_geom_bond_site_symmetry_1
_geom_bond_site_symmetry_2
N1 N2 1_555 1_555
N2 C6 1_555 1_555
C1 N1 1_555 1_555
H1 C1 1_555 1_555
C2 C1 1_555 1_555
H2 C2 1_555 1_555
C3 C2 1_555 1_555
H3 C3 1_555 1_555
C4 C3 1_555 1_555
H4 C4 1_555 1_555
C5 N1 1_555 1_555
H5 C5 1_555 1_555
C6 H6 1_555 1_555
C7 C6 1_555 1_555
C8 C7 1_555 1_555
H7 C8 1_555 1_555
C9 C7 1_555 1_555
H8 C9 1_555 1_555
C10 C9 1_555 1_555
H9 C10 1_555 1_555
C11 C10 1_555 1_555
H10 C11 1_555 1_555
C12 C8 1_555 1_555
H11 C12 1_555 1_555
C4 C5 1_555 1_555
C11 C12 1_555 1_555

#END
