
#######################################################################
#
#                 Cambridge Crystallographic Data Centre
#                                CCDC 
#
#######################################################################
#
# If this CIF has been generated from an entry in the Cambridge 
# Structural Database, then it will include bibliographic, chemical, 
# crystal, experimental, refinement or atomic coordinate data resulting 
# from the CCDC's data processing and validation procedures.
#
#######################################################################

data_PONWAR
_chemical_formula_moiety         'C22 H16 Br1 N3 O3'
_chemical_name_systematic        
'2-(1H-Benzotriazol-1-yl)-1-(4-bromobenzoyl)ethyl benzoate'
_symmetry_cell_setting           triclinic
_symmetry_space_group_name_H-M   'P -1'
_symmetry_Int_Tables_number      2
_space_group_name_Hall           '-P 1'
loop_
_symmetry_equiv_pos_site_id
_symmetry_equiv_pos_as_xyz
1 x,y,z
2 -x,-y,-z
_cell_length_a                   6.4390(12)
_cell_length_b                   8.8267(17)
_cell_length_c                   17.430(3)
_cell_angle_alpha                88.589(3)
_cell_angle_beta                 85.024(3)
_cell_angle_gamma                83.087(3)
_cell_volume                     979.627
_exptl_crystal_colour            colorless
_exptl_crystal_description       column
_cell_formula_units_Z            2
_exptl_crystal_recrystallization_method 'ethyl acetate'
loop_
_atom_site_label
_atom_site_type_symbol
_atom_site_fract_x
_atom_site_fract_y
_atom_site_fract_z
Br1 Br 0.15134(5) 0.67410(4) 0.013609(18)
O1 O 0.8295(3) 1.1006(2) -0.19239(12)
O2 O 0.6637(3) 1.31723(18) -0.28399(10)
N1 N 0.0957(4) 1.4833(3) -0.16528(13)
N2 N 0.2970(3) 1.4981(2) -0.19112(12)
C1 C 0.2999(4) 0.8086(3) -0.04996(15)
O3 O 0.6428(4) 1.1121(2) -0.35433(12)
C2 C 0.3044(4) 1.6208(3) -0.23960(14)
C3 C 0.6396(4) 1.1190(3) -0.18590(15)
C4 C 0.5140(4) 0.7794(3) -0.06486(15)
H1 H 0.5862 0.6915 -0.0451
C5 C 0.5140(4) 1.0130(3) -0.13989(14)
C6 C 0.5243(4) 1.2583(3) -0.22507(15)
H2 H 0.3993 1.2305 -0.2470
C7 C 0.1912(4) 0.9376(3) -0.08071(16)
H3 H 0.0461 0.9562 -0.0710
C8 C 0.7238(4) 1.2242(3) -0.34460(15)
C9 C 0.6206(4) 0.8806(3) -0.10897(15)
H4 H 0.7656 0.8612 -0.1185
C10 C 0.0959(4) 1.6813(3) -0.24132(15)
N3 N -0.0275(4) 1.5931(3) -0.19522(14)
C11 C 0.2975(4) 1.0380(3) -0.12556(16)
H5 H 0.2235 1.1238 -0.1466
C12 C 0.4638(4) 1.3866(3) -0.16730(15)
H6 H 0.4194 1.3430 -0.1178
H7 H 0.5863 1.4376 -0.1608
C13 C 0.4686(5) 1.6847(3) -0.28088(18)
H8 H 0.6080 1.6432 -0.2793
C14 C 0.9024(4) 1.2743(3) -0.39390(15)
C15 C 0.4115(5) 1.8121(3) -0.3239(2)
H9 H 0.5153 1.8587 -0.3526
C16 C 0.0423(5) 1.8118(3) -0.28590(18)
H10 H -0.0968 1.8536 -0.2879
C17 C 0.9535(6) 1.2079(4) -0.46490(18)
H11 H 0.8719 1.1376 -0.4820
C18 C 1.0265(5) 1.3774(4) -0.36929(18)
H12 H 0.9933 1.4227 -0.3215
C19 C 0.2004(6) 1.8749(3) -0.32606(19)
H13 H 0.1688 1.9621 -0.3559
C20 C 1.2476(6) 1.3470(5) -0.4857(2)
H14 H 1.3641 1.3710 -0.5169
C21 C 1.1998(6) 1.4135(5) -0.4154(2)
H15 H 1.2835 1.4827 -0.3986
C22 C 1.1247(6) 1.2457(5) -0.5102(2)
H16 H 1.1575 1.2017 -0.5583
loop_
_geom_bond_atom_site_label_1
_geom_bond_atom_site_label_2
_geom_bond_site_symmetry_1
_geom_bond_site_symmetry_2
Br1 C1 1_555 1_555
O1 C3 1_555 1_555
O2 C6 1_555 1_555
N1 N2 1_555 1_555
N2 C2 1_555 1_555
C1 C4 1_555 1_555
O3 C8 1_555 1_555
C2 C10 1_555 1_555
C3 C5 1_555 1_555
C4 H1 1_555 1_555
C5 C9 1_555 1_555
C6 C3 1_555 1_555
H2 C6 1_555 1_555
C7 C1 1_555 1_555
H3 C7 1_555 1_555
C8 O2 1_555 1_555
C9 C4 1_555 1_555
H4 C9 1_555 1_555
C10 N3 1_555 1_555
N3 N1 1_555 1_555
C11 C5 1_555 1_555
H5 C11 1_555 1_555
C12 N2 1_555 1_555
H6 C12 1_555 1_555
H7 C12 1_555 1_555
C13 C2 1_555 1_555
H8 C13 1_555 1_555
C14 C8 1_555 1_555
C15 C13 1_555 1_555
H9 C15 1_555 1_555
C16 C10 1_555 1_555
H10 C16 1_555 1_555
C17 C14 1_555 1_555
H11 C17 1_555 1_555
C18 C14 1_555 1_555
H12 C18 1_555 1_555
C19 C15 1_555 1_555
H13 C19 1_555 1_555
C20 H14 1_555 1_555
C21 C18 1_555 1_555
H15 C21 1_555 1_555
C22 C17 1_555 1_555
H16 C22 1_555 1_555
C6 C12 1_555 1_555
C7 C11 1_555 1_555
C16 C19 1_555 1_555
C20 C21 1_555 1_555
C20 C22 1_555 1_555

#END
