
#######################################################################
#
#                 Cambridge Crystallographic Data Centre
#                                CCDC 
#
#######################################################################
#
# If this CIF has been generated from an entry in the Cambridge 
# Structural Database, then it will include bibliographic, chemical, 
# crystal, experimental, refinement or atomic coordinate data resulting 
# from the CCDC's data processing and validation procedures.
#
#######################################################################

data_PONXIB
_chemical_formula_moiety         'C14 H11 N3 O1 S1'
_chemical_name_systematic        
N-methyl-2-(2-oxoacenaphthylen-1(2H)-ylidene)hydrazinecarbothioamide
_symmetry_cell_setting           orthorhombic
_symmetry_space_group_name_H-M   'P 21 21 21'
_symmetry_Int_Tables_number      19
_space_group_name_Hall           'P 2ac 2ab'
loop_
_symmetry_equiv_pos_site_id
_symmetry_equiv_pos_as_xyz
1 x,y,z
2 1/2-x,-y,1/2+z
3 1/2+x,1/2-y,-z
4 -x,1/2+y,1/2-z
_cell_length_a                   6.1110(6)
_cell_length_b                   10.0547(11)
_cell_length_c                   21.497(2)
_cell_angle_alpha                90
_cell_angle_beta                 90
_cell_angle_gamma                90
_cell_volume                     1320.87
_exptl_crystal_colour            yellow
_exptl_crystal_description       Block
_cell_formula_units_Z            4
loop_
_atom_site_label
_atom_site_type_symbol
_atom_site_fract_x
_atom_site_fract_y
_atom_site_fract_z
S1 S 0.25692(8) 0.16757(4) 0.21243(2)
N1 N 0.7542(2) -0.05741(12) 0.17414(6)
C1 C 1.2232(3) -0.09719(15) 0.07905(7)
O1 O 0.8428(2) 0.16301(14) 0.08374(6)
N2 N 0.6084(2) 0.04380(14) 0.17558(7)
H1 H 0.6259 0.1109 0.1513
C2 C 1.0847(3) -0.14650(15) 0.12619(7)
C3 C 0.4342(3) 0.04074(16) 0.21510(8)
N3 N 0.4208(2) -0.06205(15) 0.25248(7)
H2 H 0.5225 -0.1210 0.2506
C4 C 0.9103(3) -0.04864(16) 0.13442(7)
C5 C 1.1533(3) 0.02565(17) 0.05510(8)
C6 C 0.9539(3) 0.06370(17) 0.08912(8)
C7 C 1.1346(3) -0.26514(17) 0.15336(8)
H3 H 1.0445 -0.3015 0.1838
C8 C 1.3268(3) -0.3313(2) 0.13404(9)
H4 H 1.3632 -0.4114 0.1530
C9 C 0.2450(4) -0.0824(2) 0.29673(10)
H5 H 0.2421 -0.0099 0.3258
H6 H 0.2686 -0.1642 0.3187
H7 H 0.1080 -0.0866 0.2750
C10 C 1.4122(3) -0.16161(19) 0.05877(8)
C11 C 1.5292(4) -0.0968(2) 0.01114(10)
H8 H 1.6559 -0.1356 -0.0045
C12 C 1.2699(4) 0.0860(2) 0.00894(9)
H9 H 1.2252 0.1668 -0.0078
C13 C 1.4596(4) 0.0221(2) -0.01250(11)
H10 H 1.5408 0.0621 -0.0439
C14 C 1.4618(3) -0.2829(2) 0.08867(9)
H11 H 1.5867 -0.3300 0.0775
loop_
_geom_bond_atom_site_label_1
_geom_bond_atom_site_label_2
_geom_bond_site_symmetry_1
_geom_bond_site_symmetry_2
S1 C3 1_555 1_555
N1 N2 1_555 1_555
C1 C2 1_555 1_555
O1 C6 1_555 1_555
N2 H1 1_555 1_555
C2 C4 1_555 1_555
C3 N2 1_555 1_555
N3 C3 1_555 1_555
H2 N3 1_555 1_555
C4 N1 1_555 1_555
C5 C1 1_555 1_555
C6 C4 1_555 1_555
C7 C2 1_555 1_555
H3 C7 1_555 1_555
C8 C7 1_555 1_555
H4 C8 1_555 1_555
C9 N3 1_555 1_555
H5 C9 1_555 1_555
H6 C9 1_555 1_555
H7 C9 1_555 1_555
C10 C1 1_555 1_555
C11 C10 1_555 1_555
H8 C11 1_555 1_555
C12 C5 1_555 1_555
H9 C12 1_555 1_555
C13 C11 1_555 1_555
H10 C13 1_555 1_555
C14 C8 1_555 1_555
H11 C14 1_555 1_555
C5 C6 1_555 1_555
C10 C14 1_555 1_555
C12 C13 1_555 1_555

#END
