
#######################################################################
#
#                 Cambridge Crystallographic Data Centre
#                                CCDC 
#
#######################################################################
#
# If this CIF has been generated from an entry in the Cambridge 
# Structural Database, then it will include bibliographic, chemical, 
# crystal, experimental, refinement or atomic coordinate data resulting 
# from the CCDC's data processing and validation procedures.
#
#######################################################################

data_POQPER
_chemical_compound_source        'Aerial parts of Ainsliaea fulvioides'
_chemical_name_common            
"5a'-Hydroxy-1'-(hydroxymethyl)-3,6,8'-tris(methylene)-3a,4,5,5',5a',6,6',6a,7,7',7a',8',9a,9b,10a',10b'-hexadecahydro-2H-spiro[azuleno[4,5-b]furan-9,3'-benzo[1,8]azuleno[4,5-b]furan]-2,2',8,9'(1'H,3H,4'H)-tetrone methanol solvate monohydrate"
_chemical_formula_moiety         'C30 H32 O8,C1 H4 O1,H2 O1'
_chemical_name_systematic        'Ainsliadimer B methanol solvate monohydrate'
_chemical_properties_biological  
'Tested in-vitro for antitumour activities against four human cancer cell lines; A549, LOVO, CEM and MDA-MB-435. Modest cytotoxicity was observed against LOVO and CEM cell lines'
_symmetry_cell_setting           orthorhombic
_symmetry_space_group_name_H-M   'P 21 21 21'
_symmetry_Int_Tables_number      19
_space_group_name_Hall           'P 2ac 2ab'
loop_
_symmetry_equiv_pos_site_id
_symmetry_equiv_pos_as_xyz
1 x,y,z
2 1/2-x,-y,1/2+z
3 -x,1/2+y,1/2-z
4 1/2+x,1/2-y,-z
_cell_length_a                   9.1886(12)
_cell_length_b                   12.8824(17)
_cell_length_c                   25.023(3)
_cell_angle_alpha                90
_cell_angle_beta                 90
_cell_angle_gamma                90
_cell_volume                     2962
_exptl_crystal_colour            colorless
_exptl_crystal_description       needle
_chemical_melting_point          '159-161 deg.C'
_cell_formula_units_Z            4
_exptl_crystal_recrystallization_method methanol
loop_
_atom_site_label
_atom_site_type_symbol
_atom_site_fract_x
_atom_site_fract_y
_atom_site_fract_z
O1 O 0.44245(19) 0.60192(16) 0.21941(7)
O2 O -0.0238(3) 0.5570(2) 0.46391(8)
O3 O 0.0644(2) 0.57277(14) 0.38064(6)
O4 O -0.06112(18) 0.78786(12) 0.24042(6)
H1 H -0.1394 0.8180 0.2378
O5 O 0.3128(2) 0.39114(15) 0.27206(9)
H2 H 0.3806 0.3896 0.2508
O6 O 0.3288(2) 0.85237(17) 0.18301(9)
O7 O -0.0151(3) 0.3266(2) 0.09810(8)
O8 O 0.0855(2) 0.48141(15) 0.10831(6)
C1 C 0.0696(2) 0.63543(17) 0.23239(8)
C2 C 0.1924(3) 0.64646(19) 0.20401(9)
C3 C 0.3170(3) 0.60603(19) 0.23443(9)
C4 C 0.2619(3) 0.57270(19) 0.28924(9)
H4 H 0.2870 0.6276 0.3148
C5 C 0.0951(2) 0.57160(19) 0.28313(9)
H5 H 0.0644 0.5000 0.2761
C6 C 0.0067(3) 0.6128(2) 0.32964(9)
H6 H 0.0123 0.6888 0.3298
C7 C -0.1532(3) 0.5801(2) 0.33001(10)
H7 H -0.1578 0.5070 0.3192
C8 C -0.2515(3) 0.6416(2) 0.29272(10)
H8 H -0.3510 0.6182 0.2976
H9 H -0.2475 0.7143 0.3028
C9 C -0.2122(3) 0.6321(2) 0.23413(10)
H10 H -0.2924 0.6594 0.2132
H11 H -0.2035 0.5589 0.2256
C10 C -0.0719(3) 0.68668(19) 0.21593(9)
C11 C -0.1855(3) 0.5851(2) 0.38844(10)
C12 C -0.0464(3) 0.5708(2) 0.41667(10)
C13 C -0.3083(4) 0.6024(3) 0.41409(14)
H12 H -0.3089 0.6059 0.4512
H13 H -0.3944 0.6111 0.3951
C14 C -0.0709(3) 0.6978(2) 0.15522(9)
H14 H -0.1564 0.7363 0.1441
H15 H -0.0758 0.6294 0.1391
C15 C 0.3333(3) 0.4733(2) 0.30813(10)
H16 H 0.4368 0.4852 0.3128
H17 H 0.2931 0.4541 0.3426
C17 C 0.3793(3) 0.6789(2) 0.07217(11)
H21 H 0.4560 0.6306 0.0612
C18 C 0.4452(3) 0.7557(3) 0.11120(12)
H22 H 0.5303 0.7260 0.1282
H23 H 0.4742 0.8186 0.0927
C19 C 0.3293(3) 0.7800(2) 0.15261(11)
C20 C 0.2089(3) 0.6965(2) 0.14985(9)
C21 C 0.2675(3) 0.6173(2) 0.10791(9)
H24 H 0.3237 0.5654 0.1277
C22 C 0.1587(3) 0.5591(2) 0.07515(9)
H25 H 0.0857 0.6083 0.0619
C23 C 0.2206(3) 0.4986(2) 0.02737(10)
H26 H 0.3233 0.4831 0.0341
C24 C 0.2083(4) 0.5614(3) -0.02416(10)
H27 H 0.2299 0.5163 -0.0542
H28 H 0.1085 0.5849 -0.0281
C25 C 0.3082(4) 0.6549(3) -0.02663(11)
H29 H 0.2801 0.6963 -0.0573
H30 H 0.4063 0.6301 -0.0331
C26 C 0.3126(3) 0.7260(3) 0.02175(11)
C27 C 0.1359(3) 0.4001(2) 0.02899(11)
C28 C 0.0593(4) 0.3953(2) 0.08014(10)
C29 C 0.1280(5) 0.3240(3) -0.00676(13)
H31 H 0.0725 0.2653 0.0004
H32 H 0.1781 0.3295 -0.0389
C30 C 0.2669(4) 0.8239(3) 0.01856(14)
H33 H 0.2317 0.8497 -0.0137
H34 H 0.2703 0.8665 0.0485
C31 C 0.0652(3) 0.7536(2) 0.13518(9)
H35 H 0.0676 0.8229 0.1503
H36 H 0.0594 0.7604 0.0966
O9 O 0.5299(4) 0.3517(4) 0.19991(15)
H3 H 0.5885 0.3931 0.2125
C16 C 0.5097(9) 0.3726(6) 0.1469(4)
H18 H 0.5450 0.4411 0.1391
H19 H 0.4079 0.3687 0.1385
H20 H 0.5620 0.3228 0.1258
O10 O 0.1757(3) 0.8647(2) 0.30257(12)
H37 H 0.108(3) 0.851(3) 0.2811(12)
H38 H 0.117(8) 0.903(6) 0.323(3)
loop_
_geom_bond_atom_site_label_1
_geom_bond_atom_site_label_2
_geom_bond_site_symmetry_1
_geom_bond_site_symmetry_2
O1 C3 1_555 1_555
O2 C12 1_555 1_555
O3 C6 1_555 1_555
O4 H1 1_555 1_555
O5 H2 1_555 1_555
O6 C19 1_555 1_555
O7 C28 1_555 1_555
O8 C22 1_555 1_555
O9 H3 1_555 1_555
O10 H37 1_555 1_555
C1 C2 1_555 1_555
C2 C3 1_555 1_555
C3 C4 1_555 1_555
C4 H4 1_555 1_555
C5 C1 1_555 1_555
H5 C5 1_555 1_555
C6 C5 1_555 1_555
H6 C6 1_555 1_555
C7 C6 1_555 1_555
H7 C7 1_555 1_555
C8 C7 1_555 1_555
H8 C8 1_555 1_555
H9 C8 1_555 1_555
C9 C8 1_555 1_555
H10 C9 1_555 1_555
H11 C9 1_555 1_555
C10 O4 1_555 1_555
C11 C7 1_555 1_555
C12 O3 1_555 1_555
C13 C11 1_555 1_555
H12 C13 1_555 1_555
H13 C13 1_555 1_555
C14 C10 1_555 1_555
H14 C14 1_555 1_555
H15 C14 1_555 1_555
C15 O5 1_555 1_555
H16 C15 1_555 1_555
H17 C15 1_555 1_555
C16 O9 1_555 1_555
H18 C16 1_555 1_555
H19 C16 1_555 1_555
H20 C16 1_555 1_555
C17 H21 1_555 1_555
C18 C17 1_555 1_555
H22 C18 1_555 1_555
H23 C18 1_555 1_555
C19 C18 1_555 1_555
C20 C2 1_555 1_555
C21 C17 1_555 1_555
H24 C21 1_555 1_555
C22 C21 1_555 1_555
H25 C22 1_555 1_555
C23 C22 1_555 1_555
H26 C23 1_555 1_555
C24 C23 1_555 1_555
H27 C24 1_555 1_555
H28 C24 1_555 1_555
C25 C24 1_555 1_555
H29 C25 1_555 1_555
H30 C25 1_555 1_555
C26 C17 1_555 1_555
C27 C23 1_555 1_555
C28 O8 1_555 1_555
C29 C27 1_555 1_555
H31 C29 1_555 1_555
H32 C29 1_555 1_555
C30 C26 1_555 1_555
H33 C30 1_555 1_555
H34 C30 1_555 1_555
C31 C14 1_555 1_555
H35 C31 1_555 1_555
H36 C31 1_555 1_555
H38 O10 1_555 1_555
C1 C10 1_555 1_555
C4 C5 1_555 1_555
C4 C15 1_555 1_555
C9 C10 1_555 1_555
C11 C12 1_555 1_555
C19 C20 1_555 1_555
C20 C21 1_555 1_555
C20 C31 1_555 1_555
C25 C26 1_555 1_555
C27 C28 1_555 1_555

#END
