
#######################################################################
#
#                 Cambridge Crystallographic Data Centre
#                                CCDC 
#
#######################################################################
#
# If this CIF has been generated from an entry in the Cambridge 
# Structural Database, then it will include bibliographic, chemical, 
# crystal, experimental, refinement or atomic coordinate data resulting 
# from the CCDC's data processing and validation procedures.
#
#######################################################################

data_POQPIW
_chemical_formula_moiety         'C34 H32 N2'
_chemical_name_systematic        
4,4'-(anthracene-9,10-diyldiethene-2,1-diyl)bis(N,N-dimethylaniline)
_symmetry_cell_setting           triclinic
_symmetry_space_group_name_H-M   'P -1'
_symmetry_Int_Tables_number      2
_space_group_name_Hall           '-P 1'
loop_
_symmetry_equiv_pos_site_id
_symmetry_equiv_pos_as_xyz
1 x,y,z
2 -x,-y,-z
_cell_length_a                   9.1088(18)
_cell_length_b                   9.2858(19)
_cell_length_c                   9.5060(19)
_cell_angle_alpha                70.31(3)
_cell_angle_beta                 62.37(3)
_cell_angle_gamma                65.76(3)
_cell_volume                     638.77
_exptl_crystal_colour            yellow
_exptl_crystal_description       block
_cell_formula_units_Z            1
loop_
_atom_site_label
_atom_site_type_symbol
_atom_site_fract_x
_atom_site_fract_y
_atom_site_fract_z
C1 C 0.3587(4) 0.8270(4) 1.2078(3)
H1 H 0.2496 0.9099 1.2180
H2 H 0.4279 0.8596 1.2354
H3 H 0.3378 0.7297 1.2794
C2 C 0.6358(3) 0.7593(3) 0.9822(3)
H4 H 0.6855 0.6449 1.0051
H5 H 0.6676 0.8096 1.0326
H6 H 0.6787 0.7965 0.8676
C3 C 0.1947(3) 0.7735(3) 1.0454(3)
H7 H 0.1270 0.8142 1.1406
C4 C 0.1169(3) 0.7351(3) 0.9748(3)
H8 H -0.0025 0.7514 1.0234
C5 C 0.0832(3) 0.1726(2) 0.4880(2)
H9 H 0.0305 0.1434 0.4428
C6 C 0.2463(3) 0.2516(2) 0.6228(2)
H10 H 0.3023 0.2761 0.6682
C7 C 0.1987(3) 0.0569(2) 0.5504(2)
H11 H 0.2235 -0.0501 0.5480
C8 C 0.2814(3) 0.0970(2) 0.6186(2)
H12 H 0.3607 0.0166 0.6610
C9 C 0.3875(3) 0.6512(2) 0.7666(2)
H13 H 0.4542 0.6098 0.6717
C10 C 0.1191(3) 0.6348(3) 0.7645(2)
H14 H 0.0000 0.6536 0.8219
C11 C 0.2098(3) 0.6732(3) 0.8342(2)
C12 C 0.4690(3) 0.6889(2) 0.8354(2)
H15 H 0.5886 0.6715 0.7867
N1 N 0.4496(2) 0.7998(2) 1.0440(2)
C13 C 0.1825(3) 0.5784(2) 0.6341(2)
H16 H 0.3013 0.5597 0.5749
C14 C 0.3732(2) 0.7526(2) 0.9773(2)
C15 C 0.0400(2) 0.33846(19) 0.48975(18)
C16 C 0.1246(2) 0.3800(2) 0.55907(19)
C17 C 0.0853(2) 0.5400(2) 0.56858(19)
C1A C -0.3587(4) 0.1730(4) -0.2078(3)
H1A H -0.2496 0.0901 -0.2180
H2A H -0.4279 0.1404 -0.2354
H3A H -0.3378 0.2703 -0.2794
C2A C -0.6358(3) 0.2407(3) 0.0178(3)
H4A H -0.6855 0.3551 -0.0051
H5A H -0.6676 0.1904 -0.0326
H6A H -0.6787 0.2035 0.1324
C3A C -0.1947(3) 0.2265(3) -0.0454(3)
H7A H -0.1270 0.1858 -0.1406
C4A C -0.1169(3) 0.2649(3) 0.0252(3)
H8A H 0.0025 0.2486 -0.0234
C5A C -0.0832(3) 0.8274(2) 0.5120(2)
H9A H -0.0305 0.8566 0.5572
C6A C -0.2463(3) 0.7484(2) 0.3772(2)
H10A H -0.3023 0.7239 0.3318
C7A C -0.1987(3) 0.9431(2) 0.4496(2)
H11A H -0.2235 1.0501 0.4520
C8A C -0.2814(3) 0.9030(2) 0.3814(2)
H12A H -0.3607 0.9834 0.3390
C9A C -0.3875(3) 0.3488(2) 0.2334(2)
H13A H -0.4542 0.3902 0.3283
C10A C -0.1191(3) 0.3652(3) 0.2355(2)
H14A H 0.0000 0.3464 0.1781
C11A C -0.2098(3) 0.3268(3) 0.1658(2)
C12A C -0.4690(3) 0.3111(2) 0.1646(2)
H15A H -0.5886 0.3285 0.2133
N1A N -0.4496(2) 0.2002(2) -0.0440(2)
C13A C -0.1825(3) 0.4216(2) 0.3659(2)
H16A H -0.3013 0.4403 0.4251
C14A C -0.3732(2) 0.2474(2) 0.0227(2)
C15A C -0.0400(2) 0.66154(19) 0.51025(18)
C16A C -0.1246(2) 0.6200(2) 0.44093(19)
C17A C -0.0853(2) 0.4600(2) 0.43142(19)
loop_
_geom_bond_atom_site_label_1
_geom_bond_atom_site_label_2
_geom_bond_site_symmetry_1
_geom_bond_site_symmetry_2
C1 H1 1_555 1_555
H2 C1 1_555 1_555
H3 C1 1_555 1_555
C2 H4 1_555 1_555
H5 C2 1_555 1_555
H6 C2 1_555 1_555
C3 H7 1_555 1_555
C4 C3 1_555 1_555
H8 C4 1_555 1_555
C5 H9 1_555 1_555
C6 H10 1_555 1_555
C7 C5 1_555 1_555
H11 C7 1_555 1_555
C8 C6 1_555 1_555
H12 C8 1_555 1_555
C9 H13 1_555 1_555
C10 H14 1_555 1_555
C11 C4 1_555 1_555
C12 C9 1_555 1_555
H15 C12 1_555 1_555
N1 C1 1_555 1_555
C13 C10 1_555 1_555
H16 C13 1_555 1_555
C14 C3 1_555 1_555
C15 C5 1_555 1_555
C16 C6 1_555 1_555
C17 C13 1_555 1_555
C1A H1A 1_555 1_555
H2A C1A 1_555 1_555
H3A C1A 1_555 1_555
C2A H4A 1_555 1_555
H5A C2A 1_555 1_555
H6A C2A 1_555 1_555
C3A H7A 1_555 1_555
C4A C3A 1_555 1_555
H8A C4A 1_555 1_555
C5A H9A 1_555 1_555
C6A H10A 1_555 1_555
C7A C5A 1_555 1_555
H11A C7A 1_555 1_555
C8A C6A 1_555 1_555
H12A C8A 1_555 1_555
C9A H13A 1_555 1_555
C10A H14A 1_555 1_555
C11A C4A 1_555 1_555
C12A C9A 1_555 1_555
H15A C12A 1_555 1_555
N1A C1A 1_555 1_555
C13A C10A 1_555 1_555
H16A C13A 1_555 1_555
C14A C3A 1_555 1_555
C15A C17 1_555 1_555
C16A C6A 1_555 1_555
C17A C15 1_555 1_555
C2 N1 1_555 1_555
C7 C8 1_555 1_555
C9 C11 1_555 1_555
C10 C11 1_555 1_555
C12 C14 1_555 1_555
N1 C14 1_555 1_555
C15 C16 1_555 1_555
C16 C17 1_555 1_555
C2A N1A 1_555 1_555
C5A C15A 1_555 1_555
C7A C8A 1_555 1_555
C9A C11A 1_555 1_555
C10A C11A 1_555 1_555
C12A C14A 1_555 1_555
N1A C14A 1_555 1_555
C13A C17A 1_555 1_555
C15A C16A 1_555 1_555
C16A C17A 1_555 1_555

#END
