
#######################################################################
#
#                 Cambridge Crystallographic Data Centre
#                                CCDC 
#
#######################################################################
#
# If this CIF has been generated from an entry in the Cambridge 
# Structural Database, then it will include bibliographic, chemical, 
# crystal, experimental, refinement or atomic coordinate data resulting 
# from the CCDC's data processing and validation procedures.
#
#######################################################################

data_PORPOC
_chemical_formula_moiety         'C36 H35 N3 O2 S1'
_chemical_name_systematic        
"(2'Z,5'E)-Methyl 1,3-dibenzyl-5'-(2-phenylethylidene)-2'-(phenylimino)-4',5'-dihydro-2'H-spiro(imidazolidine-2,3'-thiophene)-4'-carboxylate"
_symmetry_cell_setting           triclinic
_symmetry_space_group_name_H-M   'P -1'
_symmetry_Int_Tables_number      2
_space_group_name_Hall           '-P 1'
loop_
_symmetry_equiv_pos_site_id
_symmetry_equiv_pos_as_xyz
1 x,y,z
2 -x,-y,-z
_cell_length_a                   12.553(7)
_cell_length_b                   15.700(8)
_cell_length_c                   15.905(9)
_cell_angle_alpha                79.87(2)
_cell_angle_beta                 82.14(2)
_cell_angle_gamma                83.29(2)
_cell_volume                     3042.87
_exptl_crystal_colour            colorless
_exptl_crystal_description       prism
_chemical_melting_point          '136-137 deg.C'
_cell_formula_units_Z            4
_exptl_crystal_recrystallization_method 'ethyl acetate/hexane'
loop_
_atom_site_label
_atom_site_type_symbol
_atom_site_fract_x
_atom_site_fract_y
_atom_site_fract_z
S1 S 0.66138(16) 0.49505(11) 0.12204(13)
N1 N 0.5243(4) 0.7253(3) 0.1314(4)
N2 N 0.5350(5) 0.6605(3) 0.2709(4)
N3 N 0.7439(5) 0.6365(4) 0.1532(4)
O1 O 0.3459(5) 0.6260(3) 0.0678(4)
O2 O 0.2920(5) 0.6512(3) 0.2021(4)
C1 C 0.6600(6) 0.5946(4) 0.1553(4)
C2 C 0.5476(6) 0.6373(4) 0.1833(4)
C3 C 0.4618(6) 0.5725(4) 0.1800(5)
H1 H 0.4390 0.5487 0.2416
C4 C 0.5178(5) 0.4947(4) 0.1414(4)
C5 C 0.8520(6) 0.6031(4) 0.1245(4)
C6 C 0.9025(5) 0.5265(4) 0.1660(4)
H2 H 0.8632 0.4928 0.2130
C7 C 1.0111(6) 0.4981(5) 0.1396(4)
H3 H 1.0443 0.4460 0.1691
C8 C 1.0688(6) 0.5460(5) 0.0711(5)
H4 H 1.1416 0.5273 0.0523
C9 C 1.0159(8) 0.6247(6) 0.0290(5)
H5 H 1.0541 0.6581 -0.0189
C10 C 0.9113(7) 0.6530(5) 0.0561(5)
H6 H 0.8789 0.7065 0.0285
C11 C 0.5653(6) 0.7887(4) 0.1714(4)
H7 H 0.5141 0.8418 0.1708
H8 H 0.6358 0.8050 0.1406
C12 C 0.5778(6) 0.7446(4) 0.2646(4)
H9 H 0.6545 0.7368 0.2751
H10 H 0.5357 0.7792 0.3065
C13 C 0.5580(6) 0.7303(5) 0.0365(4)
H11 H 0.5362 0.6794 0.0166
H12 H 0.6376 0.7297 0.0244
C14 C 0.5040(7) 0.8148(5) -0.0120(5)
C15 C 0.3980(7) 0.8344(6) -0.0042(6)
H13 H 0.3548 0.7947 0.0336
C16 C 0.3433(9) 0.9111(7) -0.0484(8)
H14 H 0.2670 0.9229 -0.0418
C17 C 0.4120(9) 0.9673(5) -0.1021(5)
H15 H 0.3814 1.0209 -0.1309
C18 C 0.5226(9) 0.9475(6) -0.1146(6)
H16 H 0.5678 0.9853 -0.1529
C19 C 0.5646(7) 0.8713(5) -0.0697(6)
H17 H 0.6404 0.8566 -0.0790
C20 C 0.5749(6) 0.5933(4) 0.3412(4)
H18 H 0.6541 0.5933 0.3391
H19 H 0.5596 0.5352 0.3328
C21 C 0.5193(7) 0.6121(4) 0.4298(5)
C22 C 0.4047(7) 0.6333(5) 0.4434(5)
H20 H 0.3614 0.6389 0.3978
C23 C 0.3594(7) 0.6453(5) 0.5250(6)
H21 H 0.2835 0.6591 0.5350
C24 C 0.4218(12) 0.6380(5) 0.5957(6)
H22 H 0.3878 0.6479 0.6508
C25 C 0.5295(11) 0.6168(6) 0.5826(6)
H23 H 0.5716 0.6108 0.6289
C26 C 0.5799(7) 0.6034(5) 0.5001(6)
H24 H 0.6557 0.5884 0.4919
C27 C 0.3623(7) 0.6182(5) 0.1474(5)
C28 C 0.1943(6) 0.7001(5) 0.1744(5)
H25 H 0.2133 0.7469 0.1271
H26 H 0.1531 0.7252 0.2226
H27 H 0.1505 0.6614 0.1549
C29 C 0.4686(6) 0.4304(5) 0.1233(5)
H28 H 0.5136 0.3849 0.1005
C30 C 0.3500(6) 0.4229(5) 0.1355(5)
H29 H 0.3232 0.4379 0.0785
H30 H 0.3144 0.4665 0.1708
C31 C 0.3150(6) 0.3332(4) 0.1781(4)
C32 C 0.3704(7) 0.2818(5) 0.2409(5)
H31 H 0.4337 0.3009 0.2551
C33 C 0.3363(8) 0.2026(5) 0.2839(5)
H32 H 0.3749 0.1695 0.3280
C34 C 0.2460(8) 0.1725(5) 0.2623(5)
H33 H 0.2220 0.1184 0.2906
C35 C 0.1901(6) 0.2245(5) 0.1968(5)
H34 H 0.1269 0.2061 0.1816
C36 C 0.2274(7) 0.3010(5) 0.1556(5)
H35 H 0.1915 0.3334 0.1096
S2 S 0.83946(16) 0.87733(13) 0.50409(12)
N4 N 0.9687(5) 0.7280(3) 0.3387(3)
N5 N 0.9807(5) 0.8674(3) 0.2746(3)
N6 N 0.7600(5) 0.8458(4) 0.3622(4)
O3 O 1.1549(4) 0.9333(4) 0.3741(3)
O4 O 1.2102(5) 0.7968(4) 0.3470(3)
C37 C 0.8418(6) 0.8441(4) 0.4033(4)
C38 C 0.9558(6) 0.8148(4) 0.3611(4)
C39 C 1.0379(6) 0.8205(5) 0.4269(4)
H36 H 1.0593 0.7585 0.4505
C40 C 0.9837(6) 0.8590(4) 0.5047(4)
C41 C 0.6509(5) 0.8744(4) 0.3961(4)
C42 C 0.5954(7) 0.9432(4) 0.3446(5)
H37 H 0.6297 0.9702 0.2911
C43 C 0.4877(7) 0.9712(5) 0.3741(6)
H38 H 0.4504 1.0189 0.3412
C44 C 0.4349(7) 0.9293(5) 0.4515(6)
H39 H 0.3620 0.9477 0.4700
C45 C 0.4920(6) 0.8592(4) 0.5019(5)
H40 H 0.4575 0.8304 0.5543
C46 C 0.5991(6) 0.8334(4) 0.4736(4)
H41 H 0.6375 0.7871 0.5075
C47 C 0.9241(6) 0.7334(4) 0.2546(4)
H42 H 0.8472 0.7215 0.2641
H43 H 0.9658 0.6918 0.2196
C48 C 0.9370(7) 0.8292(4) 0.2106(4)
H44 H 0.9875 0.8312 0.1568
H45 H 0.8665 0.8601 0.1971
C49 C 0.9277(6) 0.6584(4) 0.4053(4)
H46 H 0.8486 0.6597 0.4060
H47 H 0.9420 0.6684 0.4623
C50 C 0.9814(7) 0.5689(5) 0.3891(4)
C51 C 1.0912(6) 0.5557(5) 0.3674(5)
H48 H 1.1330 0.6035 0.3613
C52 C 1.1449(8) 0.4736(6) 0.3537(5)
H49 H 1.2211 0.4655 0.3402
C53 C 1.0799(10) 0.4050(6) 0.3610(5)
H50 H 1.1116 0.3495 0.3499
C54 C 0.9716(10) 0.4183(6) 0.3841(5)
H51 H 0.9295 0.3704 0.3918
C55 C 0.9198(7) 0.4997(5) 0.3970(5)
H52 H 0.8436 0.5073 0.4110
C56 C 0.9466(6) 0.9625(4) 0.2686(5)
H53 H 0.9676 0.9841 0.3182
H54 H 0.8670 0.9727 0.2702
C57 C 1.0008(7) 1.0114(4) 0.1843(5)
C58 C 0.9407(7) 1.0710(6) 0.1296(5)
H55 H 0.8651 1.0813 0.1450
C59 C 0.9884(9) 1.1164(6) 0.0527(6)
H56 H 0.9460 1.1586 0.0175
C60 C 1.0948(9) 1.0996(5) 0.0290(5)
H57 H 1.1271 1.1284 -0.0244
C61 C 1.1579(8) 1.0407(7) 0.0819(7)
H58 H 1.2335 1.0314 0.0660
C62 C 1.1097(8) 0.9948(7) 0.1589(7)
H59 H 1.1522 0.9523 0.1936
C63 C 1.1408(6) 0.8536(5) 0.3803(5)
C64 C 1.3097(7) 0.8257(5) 0.2988(5)
H60 H 1.2928 0.8691 0.2489
H61 H 1.3545 0.7759 0.2792
H62 H 1.3488 0.8515 0.3357
C65 C 1.0304(6) 0.8769(4) 0.5689(4)
H63 H 0.9843 0.8999 0.6136
C66 C 1.1484(6) 0.8641(5) 0.5774(4)
H64 H 1.1772 0.9216 0.5608
H65 H 1.1837 0.8274 0.5350
C67 C 1.1834(6) 0.8234(4) 0.6653(4)
C68 C 1.2739(6) 0.8430(5) 0.6958(5)
H66 H 1.3140 0.8869 0.6613
C69 C 1.3110(6) 0.8032(5) 0.7734(5)
H67 H 1.3732 0.8204 0.7914
C70 C 1.2544(8) 0.7379(5) 0.8232(6)
H68 H 1.2788 0.7085 0.8755
C71 C 1.1626(9) 0.7154(5) 0.7969(6)
H69 H 1.1240 0.6706 0.8315
C72 C 1.1242(6) 0.7599(5) 0.7165(5)
H70 H 1.0597 0.7457 0.6995
loop_
_geom_bond_atom_site_label_1
_geom_bond_atom_site_label_2
_geom_bond_site_symmetry_1
_geom_bond_site_symmetry_2
S1 C1 1_555 1_555
S2 C37 1_555 1_555
N1 C2 1_555 1_555
N2 C2 1_555 1_555
N3 C1 1_555 1_555
N4 C38 1_555 1_555
N5 C38 1_555 1_555
N6 C37 1_555 1_555
O1 C27 1_555 1_555
O2 C27 1_555 1_555
O3 C63 1_555 1_555
O4 C63 1_555 1_555
C1 C2 1_555 1_555
C2 C3 1_555 1_555
C3 H1 1_555 1_555
C4 S1 1_555 1_555
C5 N3 1_555 1_555
C6 C5 1_555 1_555
H2 C6 1_555 1_555
C7 C6 1_555 1_555
H3 C7 1_555 1_555
C8 C7 1_555 1_555
H4 C8 1_555 1_555
C9 C8 1_555 1_555
H5 C9 1_555 1_555
C10 C5 1_555 1_555
H6 C10 1_555 1_555
C11 N1 1_555 1_555
H7 C11 1_555 1_555
H8 C11 1_555 1_555
C12 N2 1_555 1_555
H9 C12 1_555 1_555
H10 C12 1_555 1_555
C13 N1 1_555 1_555
H11 C13 1_555 1_555
H12 C13 1_555 1_555
C14 C13 1_555 1_555
C15 C14 1_555 1_555
H13 C15 1_555 1_555
C16 C15 1_555 1_555
H14 C16 1_555 1_555
C17 C16 1_555 1_555
H15 C17 1_555 1_555
C18 C17 1_555 1_555
H16 C18 1_555 1_555
C19 C14 1_555 1_555
H17 C19 1_555 1_555
C20 N2 1_555 1_555
H18 C20 1_555 1_555
H19 C20 1_555 1_555
C21 C20 1_555 1_555
C22 C21 1_555 1_555
H20 C22 1_555 1_555
C23 C22 1_555 1_555
H21 C23 1_555 1_555
C24 C23 1_555 1_555
H22 C24 1_555 1_555
C25 C24 1_555 1_555
H23 C25 1_555 1_555
C26 C21 1_555 1_555
H24 C26 1_555 1_555
C27 C3 1_555 1_555
C28 O2 1_555 1_555
H25 C28 1_555 1_555
H26 C28 1_555 1_555
H27 C28 1_555 1_555
C29 C4 1_555 1_555
H28 C29 1_555 1_555
C30 C29 1_555 1_555
H29 C30 1_555 1_555
H30 C30 1_555 1_555
C31 C30 1_555 1_555
C32 C31 1_555 1_555
H31 C32 1_555 1_555
C33 C32 1_555 1_555
H32 C33 1_555 1_555
C34 C33 1_555 1_555
H33 C34 1_555 1_555
C35 C34 1_555 1_555
H34 C35 1_555 1_555
C36 C31 1_555 1_555
H35 C36 1_555 1_555
C37 C38 1_555 1_555
C38 C39 1_555 1_555
C39 H36 1_555 1_555
C40 S2 1_555 1_555
C41 N6 1_555 1_555
C42 C41 1_555 1_555
H37 C42 1_555 1_555
C43 C42 1_555 1_555
H38 C43 1_555 1_555
C44 C43 1_555 1_555
H39 C44 1_555 1_555
C45 C44 1_555 1_555
H40 C45 1_555 1_555
C46 C41 1_555 1_555
H41 C46 1_555 1_555
C47 N4 1_555 1_555
H42 C47 1_555 1_555
H43 C47 1_555 1_555
C48 N5 1_555 1_555
H44 C48 1_555 1_555
H45 C48 1_555 1_555
C49 N4 1_555 1_555
H46 C49 1_555 1_555
H47 C49 1_555 1_555
C50 C49 1_555 1_555
C51 C50 1_555 1_555
H48 C51 1_555 1_555
C52 C51 1_555 1_555
H49 C52 1_555 1_555
C53 C52 1_555 1_555
H50 C53 1_555 1_555
C54 C53 1_555 1_555
H51 C54 1_555 1_555
C55 C50 1_555 1_555
H52 C55 1_555 1_555
C56 N5 1_555 1_555
H53 C56 1_555 1_555
H54 C56 1_555 1_555
C57 C56 1_555 1_555
C58 C57 1_555 1_555
H55 C58 1_555 1_555
C59 C58 1_555 1_555
H56 C59 1_555 1_555
C60 C59 1_555 1_555
H57 C60 1_555 1_555
C61 C60 1_555 1_555
H58 C61 1_555 1_555
C62 C57 1_555 1_555
H59 C62 1_555 1_555
C63 C39 1_555 1_555
C64 O4 1_555 1_555
H60 C64 1_555 1_555
H61 C64 1_555 1_555
H62 C64 1_555 1_555
C65 C40 1_555 1_555
H63 C65 1_555 1_555
C66 C65 1_555 1_555
H64 C66 1_555 1_555
H65 C66 1_555 1_555
C67 C66 1_555 1_555
C68 C67 1_555 1_555
H66 C68 1_555 1_555
C69 C68 1_555 1_555
H67 C69 1_555 1_555
C70 C69 1_555 1_555
H68 C70 1_555 1_555
C71 C70 1_555 1_555
H69 C71 1_555 1_555
C72 C67 1_555 1_555
H70 C72 1_555 1_555
C3 C4 1_555 1_555
C9 C10 1_555 1_555
C11 C12 1_555 1_555
C18 C19 1_555 1_555
C25 C26 1_555 1_555
C35 C36 1_555 1_555
C39 C40 1_555 1_555
C45 C46 1_555 1_555
C47 C48 1_555 1_555
C54 C55 1_555 1_555
C61 C62 1_555 1_555
C71 C72 1_555 1_555

#END
