
#######################################################################
#
#                 Cambridge Crystallographic Data Centre
#                                CCDC 
#
#######################################################################
#
# If this CIF has been generated from an entry in the Cambridge 
# Structural Database, then it will include bibliographic, chemical, 
# crystal, experimental, refinement or atomic coordinate data resulting 
# from the CCDC's data processing and validation procedures.
#
#######################################################################

data_POSBUW
_chemical_formula_moiety         'C12 H13 N1 O3'
_chemical_name_systematic        
3-methyl-6,7,9a,10-tetrahydro-1H,5aH-pyrano[4,3-b][1,4]benzoxazin-1-one
_symmetry_cell_setting           monoclinic
_symmetry_space_group_name_H-M   'P 21/c'
_symmetry_Int_Tables_number      14
_space_group_name_Hall           '-P 2ybc'
loop_
_symmetry_equiv_pos_site_id
_symmetry_equiv_pos_as_xyz
1 x,y,z
2 -x,1/2+y,1/2-z
3 -x,-y,-z
4 x,1/2-y,1/2+z
_cell_length_a                   9.4891(10)
_cell_length_b                   9.9719(11)
_cell_length_c                   11.2718(13)
_cell_angle_alpha                90
_cell_angle_beta                 102.860(5)
_cell_angle_gamma                90
_cell_volume                     1039.83
_exptl_crystal_colour            colorless
_exptl_crystal_description       plate
_cell_formula_units_Z            4
loop_
_atom_site_label
_atom_site_type_symbol
_atom_site_fract_x
_atom_site_fract_y
_atom_site_fract_z
C1 C 0.47107(12) 0.73319(12) 0.53747(12)
O1 O 0.41843(9) 0.83064(9) 0.60230(9)
C2 C 0.49890(13) 0.93881(12) 0.65233(11)
C3 C 0.63516(13) 0.95422(12) 0.63866(12)
H1 H 0.6903 1.0303 0.6720
C4 C 0.69609(12) 0.85549(12) 0.57379(11)
C5 C 1.05590(13) 0.78318(15) 0.53964(14)
H2 H 1.0932 0.8750 0.5335
H3 H 1.1034 0.7229 0.4907
C6 C 1.09359(14) 0.73794(15) 0.67284(14)
H4 H 1.1974 0.7140 0.6957
H5 H 1.0774 0.8134 0.7253
C7 C 1.00514(14) 0.61978(14) 0.69564(13)
H6 H 1.0337 0.5734 0.7708
C8 C 0.88871(13) 0.57675(13) 0.61577(13)
H7 H 0.8387 0.5011 0.6370
C9 C 0.83167(13) 0.64132(13) 0.49357(13)
H8 H 0.8640 0.5855 0.4309
N1 N 0.67358(11) 0.64931(11) 0.45963(11)
H9 H 0.6356(17) 0.5721(18) 0.4613(16)
C10 C 0.61735(12) 0.74587(12) 0.52590(11)
O2 O 0.83381(9) 0.87657(9) 0.56315(9)
C11 C 0.89413(13) 0.78162(14) 0.48886(13)
H10 H 0.8730 0.8136 0.4026
C12 C 0.41768(15) 1.02687(15) 0.71994(13)
H11 H 0.4786 1.1030 0.7544
H12 H 0.3908 0.9757 0.7858
H13 H 0.3302 1.0600 0.6643
O3 O 0.38866(10) 0.64205(10) 0.49539(10)
loop_
_geom_bond_atom_site_label_1
_geom_bond_atom_site_label_2
_geom_bond_site_symmetry_1
_geom_bond_site_symmetry_2
C1 O1 1_555 1_555
O1 C2 1_555 1_555
C2 C3 1_555 1_555
C3 H1 1_555 1_555
C4 C3 1_555 1_555
C5 H2 1_555 1_555
H3 C5 1_555 1_555
C6 C5 1_555 1_555
H4 C6 1_555 1_555
H5 C6 1_555 1_555
C7 C6 1_555 1_555
H6 C7 1_555 1_555
C8 C7 1_555 1_555
H7 C8 1_555 1_555
C9 C8 1_555 1_555
H8 C9 1_555 1_555
N1 C9 1_555 1_555
H9 N1 1_555 1_555
C10 C1 1_555 1_555
O2 C4 1_555 1_555
C11 C5 1_555 1_555
H10 C11 1_555 1_555
C12 C2 1_555 1_555
H11 C12 1_555 1_555
H12 C12 1_555 1_555
H13 C12 1_555 1_555
O3 C1 1_555 1_555
C4 C10 1_555 1_555
C9 C11 1_555 1_555
N1 C10 1_555 1_555
O2 C11 1_555 1_555

#END
