
#######################################################################
#
#                 Cambridge Crystallographic Data Centre
#                                CCDC 
#
#######################################################################
#
# If this CIF has been generated from an entry in the Cambridge 
# Structural Database, then it will include bibliographic, chemical, 
# crystal, experimental, refinement or atomic coordinate data resulting 
# from the CCDC's data processing and validation procedures.
#
#######################################################################

data_POSCIL
_chemical_formula_moiety         'C17 H16 N2'
_chemical_name_systematic        4-benzyl-1-methyl-2-phenyl-1H-imidazole
_symmetry_cell_setting           monoclinic
_symmetry_space_group_name_H-M   'P 21/c'
_symmetry_Int_Tables_number      14
_space_group_name_Hall           '-P 2ybc'
loop_
_symmetry_equiv_pos_site_id
_symmetry_equiv_pos_as_xyz
1 x,y,z
2 -x,1/2+y,1/2-z
3 -x,-y,-z
4 x,1/2-y,1/2+z
_cell_length_a                   9.177(8)
_cell_length_b                   17.700(15)
_cell_length_c                   9.311(8)
_cell_angle_alpha                90
_cell_angle_beta                 114.664(9)
_cell_angle_gamma                90
_cell_volume                     1374.44
_exptl_crystal_colour            colorless
_exptl_crystal_description       block
_cell_formula_units_Z            4
loop_
_atom_site_label
_atom_site_type_symbol
_atom_site_fract_x
_atom_site_fract_y
_atom_site_fract_z
C1 C 0.0785(3) -0.03381(15) 0.2493(3)
C2 C 0.1721(3) 0.06803(15) 0.1848(3)
H1 H 0.1813 0.1163 0.1499
C3 C 0.2866(3) 0.01431(15) 0.2340(3)
C4 C -0.0247(3) -0.08874(15) 0.2812(3)
C5 C -0.0177(3) -0.16326(16) 0.2401(4)
H2 H 0.0465 -0.1761 0.1885
C6 C -0.1034(4) -0.21878(18) 0.2739(4)
H3 H -0.0978 -0.2685 0.2444
C7 C -0.1978(4) -0.2005(2) 0.3517(4)
H4 H -0.2544 -0.2379 0.3769
C8 C -0.2075(4) -0.1268(2) 0.3915(4)
H5 H -0.2720 -0.1143 0.4429
C9 C -0.1229(3) -0.07064(18) 0.3564(3)
H6 H -0.1316 -0.0208 0.3832
C10 C -0.1146(3) 0.07621(17) 0.1467(4)
H7 H -0.1891 0.0439 0.1649
H8 H -0.1553 0.0882 0.0362
H9 H -0.1005 0.1219 0.2065
C11 C 0.4565(4) 0.01594(18) 0.2492(4)
H10 H 0.5272 -0.0016 0.3541
H11 H 0.4657 -0.0192 0.1735
C12 C 0.5124(3) 0.09206(17) 0.2232(4)
C13 C 0.4616(3) 0.12346(19) 0.0745(4)
H12 H 0.3912 0.0966 -0.0128
C14 C 0.5132(4) 0.1934(2) 0.0533(4)
H13 H 0.4755 0.2137 -0.0480
C15 C 0.6185(4) 0.2337(2) 0.1775(4)
H14 H 0.6537 0.2810 0.1618
C16 C 0.6717(4) 0.20359(19) 0.3262(4)
H15 H 0.7432 0.2307 0.4123
C17 C 0.6203(3) 0.13359(18) 0.3492(3)
H16 H 0.6584 0.1137 0.4508
N1 N 0.0391(2) 0.03773(12) 0.1959(3)
N2 N 0.2278(3) -0.04991(12) 0.2740(3)
loop_
_geom_bond_atom_site_label_1
_geom_bond_atom_site_label_2
_geom_bond_site_symmetry_1
_geom_bond_site_symmetry_2
C1 C4 1_555 1_555
C2 H1 1_555 1_555
C3 C2 1_555 1_555
C4 C5 1_555 1_555
C5 H2 1_555 1_555
C6 C5 1_555 1_555
H3 C6 1_555 1_555
C7 C6 1_555 1_555
H4 C7 1_555 1_555
C8 C7 1_555 1_555
H5 C8 1_555 1_555
C9 C4 1_555 1_555
H6 C9 1_555 1_555
C10 H7 1_555 1_555
H8 C10 1_555 1_555
H9 C10 1_555 1_555
C11 C3 1_555 1_555
H10 C11 1_555 1_555
H11 C11 1_555 1_555
C12 C11 1_555 1_555
C13 C12 1_555 1_555
H12 C13 1_555 1_555
C14 C13 1_555 1_555
H13 C14 1_555 1_555
C15 C14 1_555 1_555
H14 C15 1_555 1_555
C16 C15 1_555 1_555
H15 C16 1_555 1_555
C17 C12 1_555 1_555
H16 C17 1_555 1_555
N1 C1 1_555 1_555
N2 C1 1_555 1_555
C2 N1 1_555 1_555
C3 N2 1_555 1_555
C8 C9 1_555 1_555
C10 N1 1_555 1_555
C16 C17 1_555 1_555

#END
