
#######################################################################
#
#                 Cambridge Crystallographic Data Centre
#                                CCDC 
#
#######################################################################
#
# If this CIF has been generated from an entry in the Cambridge 
# Structural Database, then it will include bibliographic, chemical, 
# crystal, experimental, refinement or atomic coordinate data resulting 
# from the CCDC's data processing and validation procedures.
#
#######################################################################

data_POSQEV
_chemical_formula_moiety         'C26 H32 S4'
_chemical_name_systematic        
2,5-bis(3-hexyl-2-thienyl)thieno[3,2-b]thiophene
_symmetry_cell_setting           monoclinic
_symmetry_space_group_name_H-M   'P 21/n'
_symmetry_Int_Tables_number      14
_space_group_name_Hall           '-P 2yn'
loop_
_symmetry_equiv_pos_site_id
_symmetry_equiv_pos_as_xyz
1 x,y,z
2 1/2-x,1/2+y,1/2-z
3 -x,-y,-z
4 1/2+x,1/2-y,1/2+z
_cell_length_a                   11.7143(10)
_cell_length_b                   7.8255(7)
_cell_length_c                   13.5651(12)
_cell_angle_alpha                90
_cell_angle_beta                 98.445(2)
_cell_angle_gamma                90
_cell_volume                     1230.03
_exptl_crystal_colour            colorless
_exptl_crystal_description       needle
_cell_formula_units_Z            2
loop_
_atom_site_label
_atom_site_type_symbol
_atom_site_fract_x
_atom_site_fract_y
_atom_site_fract_z
S1 S -0.17846(5) 1.03696(7) 0.15559(4)
S2 S -0.11013(5) 1.43160(7) 0.09983(4)
C1 C 0.06009(19) 1.2846(3) 0.02509(15)
H1 H 0.1168 1.2052 0.0108
C2 C 0.0416(2) 0.9877(3) 0.19257(16)
C3 C 0.16957(19) 1.0038(3) 0.20053(17)
H2 H 0.2041 0.9814 0.2704
H3 H 0.1886 1.1230 0.1846
C4 C -0.02099(17) 1.2557(3) 0.08975(15)
C5 C 0.22513(18) 0.8831(3) 0.13213(17)
H4 H 0.2071 0.7635 0.1479
H5 H 0.1915 0.9053 0.0620
C6 C 0.54595(19) 0.8093(3) 0.09513(18)
H6 H 0.5782 0.8046 0.1667
H7 H 0.5601 0.9255 0.0707
C7 C -0.03831(18) 1.1002(3) 0.14493(16)
C8 C -0.04363(18) 1.5466(3) 0.01612(16)
C9 C 0.3551(2) 0.9050(3) 0.14338(18)
H8 H 0.3871 0.8933 0.2148
H9 H 0.3722 1.0223 0.1226
C10 C 0.41648(19) 0.7792(3) 0.08397(17)
H10 H 0.3836 0.7882 0.0126
H11 H 0.4021 0.6616 0.1062
C11 C -0.0135(2) 0.8499(3) 0.23628(17)
H12 H 0.0281 0.7592 0.2716
C12 C 0.6092(2) 0.6803(4) 0.0389(2)
H13 H 0.5999 0.5656 0.0657
H14 H 0.6914 0.7094 0.0469
H15 H 0.5771 0.6827 -0.0320
C13 C -0.1296(2) 0.8598(3) 0.22310(18)
H16 H -0.1783 0.7785 0.2481
S1B S 0.17846(5) 1.96304(7) -0.15559(4)
S2B S 0.11013(5) 1.56840(7) -0.09983(4)
C1B C -0.06009(19) 1.7154(3) -0.02509(15)
H1B H -0.1168 1.7948 -0.0108
C2B C -0.0416(2) 2.0123(3) -0.19257(16)
C3B C -0.16957(19) 1.9962(3) -0.20053(17)
H2B H -0.2041 2.0186 -0.2704
H3B H -0.1886 1.8770 -0.1846
C4B C 0.02099(17) 1.7443(3) -0.08975(15)
C5B C -0.22513(18) 2.1169(3) -0.13213(17)
H4B H -0.2071 2.2365 -0.1479
H5B H -0.1915 2.0947 -0.0620
C6B C -0.54595(19) 2.1907(3) -0.09513(18)
H6B H -0.5782 2.1954 -0.1667
H7B H -0.5601 2.0745 -0.0707
C7B C 0.03831(18) 1.8998(3) -0.14493(16)
C8B C 0.04363(18) 1.4534(3) -0.01612(16)
C9B C -0.3551(2) 2.0950(3) -0.14338(18)
H8B H -0.3871 2.1067 -0.2148
H9B H -0.3722 1.9777 -0.1226
C10B C -0.41648(19) 2.2208(3) -0.08397(17)
H10B H -0.3836 2.2118 -0.0126
H11B H -0.4021 2.3384 -0.1062
C11B C 0.0135(2) 2.1501(3) -0.23628(17)
H12B H -0.0281 2.2408 -0.2716
C12B C -0.6092(2) 2.3197(4) -0.0389(2)
H13B H -0.5999 2.4344 -0.0657
H14B H -0.6914 2.2906 -0.0469
H15B H -0.5771 2.3173 0.0320
C13B C 0.1296(2) 2.1402(3) -0.22310(18)
H16B H 0.1783 2.2215 -0.2481
loop_
_geom_bond_atom_site_label_1
_geom_bond_atom_site_label_2
_geom_bond_site_symmetry_1
_geom_bond_site_symmetry_2
S1 C7 1_555 1_555
S2 C4 1_555 1_555
C1 H1 1_555 1_555
C2 C3 1_555 1_555
C3 H2 1_555 1_555
H3 C3 1_555 1_555
C4 C1 1_555 1_555
C5 C3 1_555 1_555
H4 C5 1_555 1_555
H5 C5 1_555 1_555
C6 H6 1_555 1_555
H7 C6 1_555 1_555
C7 C2 1_555 1_555
C8 S2 1_555 1_555
C9 C5 1_555 1_555
H8 C9 1_555 1_555
H9 C9 1_555 1_555
C10 C6 1_555 1_555
H10 C10 1_555 1_555
H11 C10 1_555 1_555
C11 C2 1_555 1_555
H12 C11 1_555 1_555
C12 C6 1_555 1_555
H13 C12 1_555 1_555
H14 C12 1_555 1_555
H15 C12 1_555 1_555
C13 S1 1_555 1_555
H16 C13 1_555 1_555
S1B C7B 1_555 1_555
S2B C4B 1_555 1_555
C1B C8 1_555 1_555
H1B C1B 1_555 1_555
C2B C3B 1_555 1_555
C3B H2B 1_555 1_555
H3B C3B 1_555 1_555
C4B C1B 1_555 1_555
C5B C3B 1_555 1_555
H4B C5B 1_555 1_555
H5B C5B 1_555 1_555
C6B H6B 1_555 1_555
H7B C6B 1_555 1_555
C7B C2B 1_555 1_555
C8B C1 1_555 1_555
C9B C5B 1_555 1_555
H8B C9B 1_555 1_555
H9B C9B 1_555 1_555
C10B C6B 1_555 1_555
H10B C10B 1_555 1_555
H11B C10B 1_555 1_555
C11B C2B 1_555 1_555
H12B C11B 1_555 1_555
C12B C6B 1_555 1_555
H13B C12B 1_555 1_555
H14B C12B 1_555 1_555
H15B C12B 1_555 1_555
C13B S1B 1_555 1_555
H16B C13B 1_555 1_555
C4 C7 1_555 1_555
C8 C8B 1_555 1_555
C9 C10 1_555 1_555
C11 C13 1_555 1_555
S2B C8B 1_555 1_555
C4B C7B 1_555 1_555
C9B C10B 1_555 1_555
C11B C13B 1_555 1_555

#END
