
#######################################################################
#
#                 Cambridge Crystallographic Data Centre
#                                CCDC 
#
#######################################################################
#
# If this CIF has been generated from an entry in the Cambridge 
# Structural Database, then it will include bibliographic, chemical, 
# crystal, experimental, refinement or atomic coordinate data resulting 
# from the CCDC's data processing and validation procedures.
#
#######################################################################

data_POSTUM02
_chemical_formula_moiety         'C2 H8 N1 1+,Br1 1-'
_chemical_name_systematic        'Dimethylammonium bromide'
_symmetry_cell_setting           monoclinic
_symmetry_space_group_name_H-M   'C 2/c'
_symmetry_Int_Tables_number      15
_space_group_name_Hall           '-C 2yn'
loop_
_symmetry_equiv_pos_site_id
_symmetry_equiv_pos_as_xyz
1 x,y,z
2 -x,y,1/2-z
3 1/2+x,1/2+y,z
4 1/2-x,1/2+y,1/2-z
5 -x,-y,-z
6 x,-y,1/2+z
7 1/2-x,1/2-y,-z
8 1/2+x,1/2-y,1/2+z
_cell_length_a                   13.8628(10)
_cell_length_b                   5.4587(4)
_cell_length_c                   13.3497(10)
_cell_angle_alpha                90
_cell_angle_beta                 93.0350(10)
_cell_angle_gamma                90
_cell_volume                     1008.79
_exptl_crystal_colour            colorless
_exptl_crystal_description       plate
_cell_formula_units_Z            8
loop_
_atom_site_label
_atom_site_type_symbol
_atom_site_fract_x
_atom_site_fract_y
_atom_site_fract_z
Br1 Br 0.366356(8) 0.66813(2) 0.639114(8)
N1 N 0.35518(8) 0.0307(2) 0.35110(8)
C1 C 0.36472(10) 0.2141(3) 0.43315(11)
H1 H 0.3144 0.3390 0.4231
H2 H 0.4284 0.2918 0.4328
H3 H 0.3577 0.1324 0.4977
C2 C 0.42825(10) -0.1677(2) 0.36124(10)
H4 H 0.4175 -0.2853 0.3063
H5 H 0.4224 -0.2516 0.4256
H6 H 0.4931 -0.0974 0.3585
H7 H 0.2976(14) -0.030(3) 0.3496(13)
H8 H 0.3594(13) 0.106(3) 0.2939(14)
loop_
_geom_bond_atom_site_label_1
_geom_bond_atom_site_label_2
_geom_bond_site_symmetry_1
_geom_bond_site_symmetry_2
N1 C1 1_555 1_555
C1 H1 1_555 1_555
H2 C1 1_555 1_555
H3 C1 1_555 1_555
C2 N1 1_555 1_555
H4 C2 1_555 1_555
H5 C2 1_555 1_555
H6 C2 1_555 1_555
H7 N1 1_555 1_555
H8 N1 1_555 1_555

#END
