
#######################################################################
#
#                 Cambridge Crystallographic Data Centre
#                                CCDC 
#
#######################################################################
#
# If this CIF has been generated from an entry in the Cambridge 
# Structural Database, then it will include bibliographic, chemical, 
# crystal, experimental, refinement or atomic coordinate data resulting 
# from the CCDC's data processing and validation procedures.
#
#######################################################################

data_POSVAW
_chemical_formula_moiety         'C27 H18 O6,3.5(C3 H7 N1 O1)'
_chemical_name_systematic        
'1,3,5-tris(4-carboxyphenyl)benzene N,N-dimethylformamide solvate'
_symmetry_cell_setting           rhombohedral
_symmetry_space_group_name_H-M   'R -3'
_symmetry_Int_Tables_number      148
_space_group_name_Hall           '-R 3'
loop_
_symmetry_equiv_pos_site_id
_symmetry_equiv_pos_as_xyz
1 x,y,z
2 -y,x-y,z
3 -x+y,-x,z
4 2/3+x,1/3+y,1/3+z
5 2/3-y,1/3+x-y,1/3+z
6 2/3-x+y,1/3-x,1/3+z
7 1/3+x,2/3+y,2/3+z
8 1/3-y,2/3+x-y,2/3+z
9 1/3-x+y,2/3-x,2/3+z
10 -x,-y,-z
11 y,-x+y,-z
12 x-y,x,-z
13 1/3-x,2/3-y,2/3-z
14 1/3+y,2/3-x+y,2/3-z
15 1/3+x-y,2/3+x,2/3-z
16 2/3-x,1/3-y,1/3-z
17 2/3+y,1/3-x+y,1/3-z
18 2/3+x-y,1/3+x,1/3-z
_cell_length_a                   23.212(3)
_cell_length_b                   23.212(3)
_cell_length_c                   11.824(2)
_cell_angle_alpha                90
_cell_angle_beta                 90
_cell_angle_gamma                120
_cell_volume                     5517.22
_exptl_crystal_colour            colorless
_exptl_crystal_description       block
_cell_formula_units_Z            6
loop_
_atom_site_label
_atom_site_type_symbol
_atom_site_fract_x
_atom_site_fract_y
_atom_site_fract_z
O1 O 0.37356(4) 0.09433(5) 0.60992(10)
H1 H 0.4045(12) 0.0890(11) 0.5784(18)
O2 O 0.32878(5) -0.00900(7) 0.54189(16)
C1 C 0.32280(5) 0.03550(6) 0.58294(11)
C2 C 0.25661(5) 0.02887(5) 0.60627(9)
C3 C 0.20053(5) -0.02450(5) 0.55847(10)
H2 H 0.2050 -0.0549 0.5135
C4 C 0.13796(5) -0.03247(5) 0.57761(10)
H3 H 0.1007 -0.0686 0.5461
C5 C 0.13021(4) 0.01313(4) 0.64360(9)
C6 C 0.18692(5) 0.06675(5) 0.69097(9)
H4 H 0.1826 0.0975 0.7354
C7 C 0.24961(5) 0.07462(5) 0.67243(10)
H5 H 0.2869 0.1105 0.7043
C8 C 0.06345(4) 0.00635(4) 0.65575(9)
C9 C 0.00631(5) -0.05660(5) 0.65679(9)
H6 H 0.0105 -0.0944 0.6582
O1A O -0.09433(5) 0.27923(6) 0.60992(10)
H1A H -0.0890(11) 0.3155(16) 0.5784(18)
O2A O 0.00900(7) 0.33778(9) 0.54189(16)
C1A C -0.03550(6) 0.28730(8) 0.58294(11)
C2A C -0.02887(5) 0.22774(7) 0.60627(9)
C3A C 0.02450(5) 0.22503(7) 0.55847(10)
H2A H 0.0549 0.2599 0.5135
C4A C 0.03247(5) 0.17043(7) 0.57761(10)
H3A H 0.0686 0.1693 0.5461
C5A C -0.01313(4) 0.11708(6) 0.64360(9)
C6A C -0.06675(5) 0.12017(7) 0.69097(9)
H4A H -0.0975 0.0851 0.7354
C7A C -0.07462(5) 0.17499(7) 0.67243(10)
H5A H -0.1105 0.1764 0.7043
C8A C -0.00635(4) 0.05710(6) 0.65575(9)
C9A C 0.05660(5) 0.06291(7) 0.65679(9)
H6A H 0.0944 0.1049 0.6582
O1B O -0.27923(6) -0.37356(4) 0.60992(10)
H1B H -0.3155(16) -0.4045(12) 0.5784(18)
O2B O -0.33778(9) -0.32878(5) 0.54189(16)
C1B C -0.28730(8) -0.32280(5) 0.58294(11)
C2B C -0.22774(7) -0.25661(5) 0.60627(9)
C3B C -0.22503(7) -0.20053(5) 0.55847(10)
H2B H -0.2599 -0.2050 0.5135
C4B C -0.17043(7) -0.13796(5) 0.57761(10)
H3B H -0.1693 -0.1007 0.5461
C5B C -0.11708(6) -0.13021(4) 0.64360(9)
C6B C -0.12017(7) -0.18692(5) 0.69097(9)
H4B H -0.0851 -0.1826 0.7354
C7B C -0.17499(7) -0.24961(5) 0.67243(10)
H5B H -0.1764 -0.2869 0.7043
C8B C -0.05710(6) -0.06345(4) 0.65575(9)
C9B C -0.06291(7) -0.00631(5) 0.65679(9)
H6B H -0.1049 -0.0105 0.6582
O3 O 0.22408(8) 0.04467(7) 0.20887(15)
N1 N 0.25796(7) 0.12370(7) 0.07364(10)
C10 C 0.25477(9) 0.07103(9) 0.12086(17)
H7 H 0.2772 0.0522 0.0856
C11 C 0.22694(16) 0.15744(12) 0.1249(2)
H8 H 0.2094 0.1381 0.1975
H9 H 0.1915 0.1531 0.0773
H10 H 0.2592 0.2037 0.1341
C12 C 0.29485(17) 0.1530(2) -0.0300(2)
H11 H 0.3331 0.1954 -0.0134
H12 H 0.2668 0.1588 -0.0829
H13 H 0.3090 0.1241 -0.0621
O4? O 0.1043(12) 0.039(2) 0.960(3)
N2? N 0.0000 0.0000 1.0000
C13? C 0.0577(12) -0.0091(16) 1.009(2)
loop_
_geom_bond_atom_site_label_1
_geom_bond_atom_site_label_2
_geom_bond_site_symmetry_1
_geom_bond_site_symmetry_2
O1 H1 1_555 1_555
O2 C1 1_555 1_555
C1 O1 1_555 1_555
C2 C1 1_555 1_555
C3 C2 1_555 1_555
H2 C3 1_555 1_555
C4 C3 1_555 1_555
H3 C4 1_555 1_555
C5 C4 1_555 1_555
C6 C5 1_555 1_555
H4 C6 1_555 1_555
C7 C2 1_555 1_555
H5 C7 1_555 1_555
C8 C5 1_555 1_555
C9 C8 1_555 1_555
H6 C9 1_555 1_555
O3 C10 1_555 1_555
N1 C10 1_555 1_555
C10 H7 1_555 1_555
C11 N1 1_555 1_555
H8 C11 1_555 1_555
H9 C11 1_555 1_555
H10 C11 1_555 1_555
C12 N1 1_555 1_555
H11 C12 1_555 1_555
H12 C12 1_555 1_555
H13 C12 1_555 1_555
O1A H1A 1_555 1_555
O2A C1A 1_555 1_555
C1A O1A 1_555 1_555
C2A C1A 1_555 1_555
C3A C2A 1_555 1_555
H2A C3A 1_555 1_555
C4A C3A 1_555 1_555
H3A C4A 1_555 1_555
C5A C4A 1_555 1_555
C6A C5A 1_555 1_555
H4A C6A 1_555 1_555
C7A C2A 1_555 1_555
H5A C7A 1_555 1_555
C8A C5A 1_555 1_555
C9A C8 1_555 1_555
H6A C9A 1_555 1_555
O1B H1B 1_555 1_555
O2B C1B 1_555 1_555
C1B O1B 1_555 1_555
C2B C1B 1_555 1_555
C3B C2B 1_555 1_555
H2B C3B 1_555 1_555
C4B C3B 1_555 1_555
H3B C4B 1_555 1_555
C5B C4B 1_555 1_555
C6B C5B 1_555 1_555
H4B C6B 1_555 1_555
C7B C2B 1_555 1_555
H5B C7B 1_555 1_555
C8B C9 1_555 1_555
C9B C8A 1_555 1_555
H6B C9B 1_555 1_555
C6 C7 1_555 1_555
C6A C7A 1_555 1_555
C8A C9A 1_555 1_555
C5B C8B 1_555 1_555
C6B C7B 1_555 1_555
C8B C9B 1_555 1_555

#END
