
#######################################################################
#
#                 Cambridge Crystallographic Data Centre
#                                CCDC 
#
#######################################################################
#
# If this CIF has been generated from an entry in the Cambridge 
# Structural Database, then it will include bibliographic, chemical, 
# crystal, experimental, refinement or atomic coordinate data resulting 
# from the CCDC's data processing and validation procedures.
#
#######################################################################

data_POVNAR
_chemical_name_common            'Carpedilactone D'
_chemical_formula_moiety         'C30 H38 O6'
_chemical_name_systematic        
6,8-dihydroxy-2',8a,11'-trimethyl-5,7'-bis(methylene)-3a,4,4a,5,6,7,8,8a,9,9a-decahydro-6'H-spiro[naphtho[2,3-b]furan-3,14'-[5]oxatetracyclo[10.2.1.0^1,10^.0^4,8^]pentadec[10]ene]-2,6'-dione
_chemical_properties_biological  
'potent cytotoxicities against human leukemia (CCRF-CEM) cells'
_symmetry_cell_setting           tetragonal
_symmetry_space_group_name_H-M   'P 43 21 2'
_symmetry_Int_Tables_number      96
_space_group_name_Hall           'P 4nw 2abw'
loop_
_symmetry_equiv_pos_site_id
_symmetry_equiv_pos_as_xyz
1 x,y,z
2 1/2-y,1/2+x,3/4+z
3 1/2+y,1/2-x,1/4+z
4 1/2+x,1/2-y,1/4-z
5 1/2-x,1/2+y,3/4-z
6 -x,-y,1/2+z
7 y,x,-z
8 -y,-x,1/2-z
_cell_length_a                   14.34420(10)
_cell_length_b                   14.34420(10)
_cell_length_c                   26.2596(3)
_cell_angle_alpha                90
_cell_angle_beta                 90
_cell_angle_gamma                90
_cell_volume                     5403.07
_exptl_crystal_colour            colorless
_exptl_crystal_description       prism
_cell_formula_units_Z            8
loop_
_atom_site_label
_atom_site_type_symbol
_atom_site_fract_x
_atom_site_fract_y
_atom_site_fract_z
O1 O 0.41730(16) 0.7636(2) 0.09601(9)
H1 H 0.4233 0.7976 0.0702
O2 O 0.54348(19) 0.85592(19) 0.03676(9)
H2 H 0.5282 0.8672 0.0065
O3 O 0.7084(2) 0.57878(19) 0.30446(11)
O4 O 0.58767(17) 0.61717(17) 0.25557(9)
O5 O 0.4754(2) 1.1598(2) 0.43295(11)
O6 O 0.53846(17) 1.01728(18) 0.43105(8)
C1 C 0.4782(2) 0.6855(3) 0.09201(13)
H3 H 0.4389 0.6280 0.0925
C2 C 0.5309(2) 0.6870(3) 0.04164(12)
H4 H 0.5672 0.6286 0.0381
H5 H 0.4857 0.6900 0.0132
C3 C 0.5963(2) 0.7698(2) 0.03868(11)
H6 H 0.6353 0.7645 0.0073
C4 C 0.6589(2) 0.7738(2) 0.08453(11)
C5 C 0.6111(2) 0.7662(2) 0.13575(10)
H7 H 0.5704 0.8223 0.1393
C6 C 0.6778(2) 0.7666(2) 0.18089(10)
H8 H 0.7202 0.8208 0.1779
H9 H 0.7164 0.7094 0.1799
C7 C 0.6273(2) 0.7714(2) 0.23204(10)
H10 H 0.6039 0.8362 0.2376
C8 C 0.5459(2) 0.7033(2) 0.23561(11)
H11 H 0.5016 0.7276 0.2619
C9 C 0.4907(2) 0.6854(3) 0.18734(12)
H12 H 0.4438 0.7356 0.1837
H13 H 0.4564 0.6261 0.1916
C10 C 0.5464(2) 0.6800(2) 0.13786(11)
C11 C 0.6893(2) 0.7422(2) 0.27791(11)
C12 C 0.6650(2) 0.6385(2) 0.28223(12)
C13 C 0.7972(2) 0.7501(3) 0.27209(11)
H14 H 0.8268 0.6879 0.2733
H15 H 0.8139 0.7809 0.2396
C14 C 0.6009(3) 0.5881(3) 0.13476(15)
H16 H 0.6283 0.5741 0.1681
H17 H 0.6506 0.5939 0.1094
H18 H 0.5586 0.5376 0.1249
C15 C 0.7496(3) 0.7837(4) 0.07839(13)
H19 H 0.7751 0.7883 0.0451
H20 H 0.7894 0.7862 0.1073
C16 C 0.6710(2) 0.8023(2) 0.32901(10)
C17 C 0.7596(2) 0.7771(3) 0.35937(11)
H21 H 0.7653 0.8127 0.3915
H22 H 0.7650 0.7094 0.3662
C18 C 0.8274(2) 0.8105(3) 0.31839(11)
H23 H 0.8951 0.8074 0.3275
C19 C 0.7897(2) 0.9068(3) 0.30695(11)
C20 C 0.6966(2) 0.9028(2) 0.31205(10)
C21 C 0.6301(2) 0.9809(2) 0.30074(11)
H24 H 0.5993 0.9688 0.2677
H25 H 0.6658 1.0397 0.2975
C22 C 0.5554(2) 0.9931(2) 0.34175(11)
H26 H 0.4994 0.9557 0.3319
C23 C 0.5892(2) 0.9600(2) 0.39359(11)
H27 H 0.6577 0.9717 0.3968
C24 C 0.5689(3) 0.8576(3) 0.40351(11)
H28 H 0.5048 0.8525 0.4172
H29 H 0.6121 0.8353 0.4303
C25 C 0.5773(2) 0.7918(2) 0.35697(12)
H30 H 0.5268 0.8091 0.3324
C26 C 0.5252(3) 1.0914(3) 0.35271(13)
C27 C 0.5093(3) 1.0964(3) 0.40830(13)
C28 C 0.5123(4) 1.1626(3) 0.32181(17)
H31 H 0.4919 1.2208 0.3350
H32 H 0.5235 1.1557 0.2863
C29 C 0.5568(3) 0.6939(3) 0.37590(15)
H33 H 0.5497 0.6519 0.3467
H34 H 0.4991 0.6943 0.3958
H35 H 0.6084 0.6724 0.3973
C30 C 0.8503(3) 0.9829(3) 0.28699(16)
H36 H 0.8124 1.0386 0.2806
H37 H 0.8796 0.9627 0.2551
H38 H 0.8987 0.9975 0.3121
loop_
_geom_bond_atom_site_label_1
_geom_bond_atom_site_label_2
_geom_bond_site_symmetry_1
_geom_bond_site_symmetry_2
O1 H1 1_555 1_555
O2 H2 1_555 1_555
O3 C12 1_555 1_555
O4 C8 1_555 1_555
O5 C27 1_555 1_555
O6 C23 1_555 1_555
C1 O1 1_555 1_555
H3 C1 1_555 1_555
C2 C1 1_555 1_555
H4 C2 1_555 1_555
H5 C2 1_555 1_555
C3 O2 1_555 1_555
H6 C3 1_555 1_555
C4 C3 1_555 1_555
C5 C4 1_555 1_555
H7 C5 1_555 1_555
C6 C5 1_555 1_555
H8 C6 1_555 1_555
H9 C6 1_555 1_555
C7 C6 1_555 1_555
H10 C7 1_555 1_555
C8 C7 1_555 1_555
H11 C8 1_555 1_555
C9 C8 1_555 1_555
H12 C9 1_555 1_555
H13 C9 1_555 1_555
C10 C1 1_555 1_555
C11 C7 1_555 1_555
C12 O4 1_555 1_555
C13 C11 1_555 1_555
H14 C13 1_555 1_555
H15 C13 1_555 1_555
C14 C10 1_555 1_555
H16 C14 1_555 1_555
H17 C14 1_555 1_555
H18 C14 1_555 1_555
C15 C4 1_555 1_555
H19 C15 1_555 1_555
H20 C15 1_555 1_555
C16 C11 1_555 1_555
C17 C16 1_555 1_555
H21 C17 1_555 1_555
H22 C17 1_555 1_555
C18 C13 1_555 1_555
H23 C18 1_555 1_555
C19 C18 1_555 1_555
C20 C16 1_555 1_555
C21 C20 1_555 1_555
H24 C21 1_555 1_555
H25 C21 1_555 1_555
C22 C21 1_555 1_555
H26 C22 1_555 1_555
C23 C22 1_555 1_555
H27 C23 1_555 1_555
C24 C23 1_555 1_555
H28 C24 1_555 1_555
H29 C24 1_555 1_555
C25 C16 1_555 1_555
H30 C25 1_555 1_555
C26 C22 1_555 1_555
C27 O6 1_555 1_555
C28 C26 1_555 1_555
H31 C28 1_555 1_555
H32 C28 1_555 1_555
C29 C25 1_555 1_555
H33 C29 1_555 1_555
H34 C29 1_555 1_555
H35 C29 1_555 1_555
C30 C19 1_555 1_555
H36 C30 1_555 1_555
H37 C30 1_555 1_555
H38 C30 1_555 1_555
C2 C3 1_555 1_555
C5 C10 1_555 1_555
C9 C10 1_555 1_555
C11 C12 1_555 1_555
C17 C18 1_555 1_555
C19 C20 1_555 1_555
C24 C25 1_555 1_555
C26 C27 1_555 1_555

#END
