
#######################################################################
#
#                 Cambridge Crystallographic Data Centre
#                                CCDC 
#
#######################################################################
#
# If this CIF has been generated from an entry in the Cambridge 
# Structural Database, then it will include bibliographic, chemical, 
# crystal, experimental, refinement or atomic coordinate data resulting 
# from the CCDC's data processing and validation procedures.
#
#######################################################################

data_POWNIA
_chemical_formula_moiety         'C102 H114 N24 Na6'
_chemical_name_systematic        
hexakis(\m-2-{2,2-dimethyl-1-[phenyldiazenyl]propylidene}-1-phenyldiazanide)-hexa-sodium
_symmetry_cell_setting           rhombohedral
_symmetry_space_group_name_H-M   'R -3'
_symmetry_Int_Tables_number      148
_space_group_name_Hall           '-R 3'
loop_
_symmetry_equiv_pos_site_id
_symmetry_equiv_pos_as_xyz
1 x,y,z
2 -y,x-y,z
3 -x+y,-x,z
4 2/3+x,1/3+y,1/3+z
5 2/3-y,1/3+x-y,1/3+z
6 2/3-x+y,1/3-x,1/3+z
7 1/3+x,2/3+y,2/3+z
8 1/3-y,2/3+x-y,2/3+z
9 1/3-x+y,2/3-x,2/3+z
10 -x,-y,-z
11 y,-x+y,-z
12 x-y,x,-z
13 1/3-x,2/3-y,2/3-z
14 1/3+y,2/3-x+y,2/3-z
15 1/3+x-y,2/3+x,2/3-z
16 2/3-x,1/3-y,1/3-z
17 2/3+y,1/3-x+y,1/3-z
18 2/3+x-y,1/3+x,1/3-z
_cell_length_a                   16.7609(8)
_cell_length_b                   16.7609(8)
_cell_length_c                   30.0579(15)
_cell_angle_alpha                90
_cell_angle_beta                 90
_cell_angle_gamma                120
_cell_volume                     7312.8
_exptl_crystal_colour            'dark purple'
_exptl_crystal_description       block
_cell_formula_units_Z            3
loop_
_atom_site_label
_atom_site_type_symbol
_atom_site_fract_x
_atom_site_fract_y
_atom_site_fract_z
Na1 Na 0.35557(4) 0.34002(3) 1.01519(2)
C1 C 0.49948(8) 0.46124(8) 0.92682(4)
N1 N 0.35723(7) 0.44399(7) 0.92475(3)
C2 C 0.51745(9) 0.48993(9) 0.88223(4)
H1 H 0.4702 0.4886 0.8643
N2 N 0.24281(7) 0.36650(7) 0.97807(3)
C3 C 0.60421(9) 0.52020(10) 0.86453(4)
H2 H 0.6162 0.5404 0.8345
N3 N 0.41402(7) 0.42996(7) 0.94859(3)
C4 C 0.27162(8) 0.41674(8) 0.94047(4)
C5 C 0.57015(9) 0.46284(9) 0.95230(4)
H3 H 0.5589 0.4434 0.9825
C6 C 0.65648(9) 0.49252(11) 0.93393(5)
H4 H 0.7039 0.4930 0.9515
C7 C 0.21447(8) 0.44666(8) 0.91284(4)
C8 C 0.12379(9) 0.36130(9) 0.89817(4)
H5 H 0.0833 0.3810 0.8846
H6 H 0.0932 0.3226 0.9241
H7 H 0.1372 0.3260 0.8765
C9 C 0.26561(9) 0.49708(9) 0.87030(4)
H8 H 0.2267 0.5138 0.8529
H9 H 0.2797 0.4566 0.8526
H10 H 0.3231 0.5530 0.8783
C10 C 0.19667(9) 0.51364(9) 0.94026(4)
H11 H 0.1525 0.5256 0.9245
H12 H 0.2547 0.5717 0.9443
H13 H 0.1715 0.4864 0.9694
N4 N 0.16426(7) 0.34873(7) 0.99642(3)
C11 C 0.67367(9) 0.52143(11) 0.88998(5)
H14 H 0.7328 0.5420 0.8774
C12 C 0.14092(8) 0.28607(8) 1.03224(4)
C13 C 0.15348(8) 0.20968(8) 1.03013(4)
H15 H 0.1818 0.2007 1.0047
C14 C 0.09722(8) 0.29702(9) 1.06946(4)
H16 H 0.0871 0.3479 1.0711
C15 C 0.08312(9) 0.15894(9) 1.10212(4)
H17 H 0.0645 0.1164 1.1261
C16 C 0.06864(9) 0.23370(9) 1.10407(4)
H18 H 0.0390 0.2415 1.1293
C17 C 0.12489(9) 0.14695(9) 1.06489(4)
H19 H 0.1340 0.0954 1.0632
Na1J Na 0.34002(3) -0.01555(5) 0.98481(2)
C1J C 0.46124(8) -0.03824(11) 1.07318(4)
N1J N 0.44399(7) 0.08676(10) 1.07525(3)
C2J C 0.48993(9) -0.02752(13) 1.11777(4)
H1J H 0.4886 0.0184 1.1357
N2J N 0.36650(7) 0.12369(10) 1.02193(3)
C3J C 0.52020(10) -0.08401(13) 1.13547(4)
H2J H 0.5404 -0.0758 1.1655
N3J N 0.42996(7) 0.01594(10) 1.05141(3)
C4J C 0.41674(8) 0.14512(11) 1.05953(4)
C5J C 0.46284(9) -0.10731(13) 1.04770(4)
H3J H 0.4434 -0.1155 1.0175
C6J C 0.49252(11) -0.16396(14) 1.06607(5)
H4J H 0.4930 -0.2109 1.0485
C7J C 0.44666(8) 0.23219(11) 1.08716(4)
C8J C 0.36130(9) 0.23751(13) 1.10183(4)
H5J H 0.3810 0.2977 1.1154
H6J H 0.3226 0.2294 1.0759
H7J H 0.3260 0.1888 1.1235
C9J C 0.49708(9) 0.23147(13) 1.12970(4)
H8J H 0.5138 0.2871 1.1471
H9J H 0.4566 0.1769 1.1474
H10J H 0.5530 0.2299 1.1217
C10J C 0.51364(9) 0.31697(13) 1.05974(4)
H11J H 0.5256 0.3731 1.0755
H12J H 0.5717 0.3170 1.0557
H13J H 0.4864 0.3149 1.0306
N4J N 0.34873(7) 0.18447(10) 1.00358(3)
C11J C 0.52143(11) -0.15224(14) 1.11002(5)
H14J H 0.5420 -0.1908 1.1226
C12J C 0.28607(8) 0.14515(11) 0.96776(4)
C13J C 0.20968(8) 0.05620(11) 0.96987(4)
H15J H 0.2007 0.0189 0.9953
C14J C 0.29702(9) 0.19980(12) 0.93054(4)
H16J H 0.3479 0.2608 0.9289
C15J C 0.15894(9) 0.07582(13) 0.89788(4)
H17J H 0.1164 0.0519 0.8739
C16J C 0.23370(9) 0.16506(13) 0.89593(4)
H18J H 0.2415 0.2025 0.8707
C17J C 0.14695(9) 0.02206(13) 0.93511(4)
H19J H 0.0954 -0.0386 0.9368
Na1K Na 0.01555(5) 0.35557(4) 0.98481(2)
C1K C 0.03824(11) 0.49948(8) 1.07318(4)
N1K N -0.08676(10) 0.35723(7) 1.07525(3)
C2K C 0.02752(13) 0.51745(9) 1.11777(4)
H1K H -0.0184 0.4702 1.1357
N2K N -0.12369(10) 0.24281(7) 1.02193(3)
C3K C 0.08401(13) 0.60421(9) 1.13547(4)
H2K H 0.0758 0.6162 1.1655
N3K N -0.01594(10) 0.41402(7) 1.05141(3)
C4K C -0.14512(11) 0.27162(8) 1.05953(4)
C5K C 0.10731(13) 0.57015(9) 1.04770(4)
H3K H 0.1155 0.5589 1.0175
C6K C 0.16396(14) 0.65648(9) 1.06607(5)
H4K H 0.2109 0.7039 1.0485
C7K C -0.23219(11) 0.21447(8) 1.08716(4)
C8K C -0.23751(13) 0.12379(9) 1.10183(4)
H5K H -0.2977 0.0833 1.1154
H6K H -0.2294 0.0932 1.0759
H7K H -0.1888 0.1372 1.1235
C9K C -0.23147(13) 0.26561(9) 1.12970(4)
H8K H -0.2871 0.2267 1.1471
H9K H -0.1769 0.2797 1.1474
H10K H -0.2299 0.3231 1.1217
C10K C -0.31697(13) 0.19667(9) 1.05974(4)
H11K H -0.3731 0.1525 1.0755
H12K H -0.3170 0.2547 1.0557
H13K H -0.3149 0.1715 1.0306
N4K N -0.18447(10) 0.16426(7) 1.00358(3)
C11K C 0.15224(14) 0.67367(9) 1.11002(5)
H14K H 0.1908 0.7328 1.1226
C12K C -0.14515(11) 0.14092(8) 0.96776(4)
C13K C -0.05620(11) 0.15348(8) 0.96987(4)
H15K H -0.0189 0.1818 0.9953
C14K C -0.19980(12) 0.09722(8) 0.93054(4)
H16K H -0.2608 0.0871 0.9289
C15K C -0.07582(13) 0.08312(9) 0.89788(4)
H17K H -0.0519 0.0645 0.8739
C16K C -0.16506(13) 0.06864(9) 0.89593(4)
H18K H -0.2025 0.0390 0.8707
C17K C -0.02206(13) 0.12489(9) 0.93511(4)
H19K H 0.0386 0.1340 0.9368
Na1A Na -0.34002(3) 0.01555(5) 1.01519(2)
C1A C -0.46124(8) 0.03824(11) 0.92682(4)
N1A N -0.44399(7) -0.08676(10) 0.92475(3)
C2A C -0.48993(9) 0.02752(13) 0.88223(4)
H1A H -0.4886 -0.0184 0.8643
N2A N -0.36650(7) -0.12369(10) 0.97807(3)
C3A C -0.52020(10) 0.08401(13) 0.86453(4)
H2A H -0.5404 0.0758 0.8345
N3A N -0.42996(7) -0.01594(10) 0.94859(3)
C4A C -0.41674(8) -0.14512(11) 0.94047(4)
C5A C -0.46284(9) 0.10731(13) 0.95230(4)
H3A H -0.4434 0.1155 0.9825
C6A C -0.49252(11) 0.16396(14) 0.93393(5)
H4A H -0.4930 0.2109 0.9515
C7A C -0.44666(8) -0.23219(11) 0.91284(4)
C8A C -0.36130(9) -0.23751(13) 0.89817(4)
H5A H -0.3810 -0.2977 0.8846
H6A H -0.3226 -0.2294 0.9241
H7A H -0.3260 -0.1888 0.8765
C9A C -0.49708(9) -0.23147(13) 0.87030(4)
H8A H -0.5138 -0.2871 0.8529
H9A H -0.4566 -0.1769 0.8526
H10A H -0.5530 -0.2299 0.8783
C10A C -0.51364(9) -0.31697(13) 0.94026(4)
H11A H -0.5256 -0.3731 0.9245
H12A H -0.5717 -0.3170 0.9443
H13A H -0.4864 -0.3149 0.9694
N4A N -0.34873(7) -0.18447(10) 0.99642(3)
C11A C -0.52143(11) 0.15224(14) 0.88998(5)
H14A H -0.5420 0.1908 0.8774
C12A C -0.28607(8) -0.14515(11) 1.03224(4)
C13A C -0.20968(8) -0.05620(11) 1.03013(4)
H15A H -0.2007 -0.0189 1.0047
C14A C -0.29702(9) -0.19980(12) 1.06946(4)
H16A H -0.3479 -0.2608 1.0711
C15A C -0.15894(9) -0.07582(13) 1.10212(4)
H17A H -0.1164 -0.0519 1.1261
C16A C -0.23370(9) -0.16506(13) 1.10407(4)
H18A H -0.2415 -0.2025 1.1293
C17A C -0.14695(9) -0.02206(13) 1.06489(4)
H19A H -0.0954 0.0386 1.0632
Na1B Na -0.01555(5) -0.35557(4) 1.01519(2)
C1B C -0.03824(11) -0.49948(8) 0.92682(4)
N1B N 0.08676(10) -0.35723(7) 0.92475(3)
C2B C -0.02752(13) -0.51745(9) 0.88223(4)
H1B H 0.0184 -0.4702 0.8643
N2B N 0.12369(10) -0.24281(7) 0.97807(3)
C3B C -0.08401(13) -0.60421(9) 0.86453(4)
H2B H -0.0758 -0.6162 0.8345
N3B N 0.01594(10) -0.41402(7) 0.94859(3)
C4B C 0.14512(11) -0.27162(8) 0.94047(4)
C5B C -0.10731(13) -0.57015(9) 0.95230(4)
H3B H -0.1155 -0.5589 0.9825
C6B C -0.16396(14) -0.65648(9) 0.93393(5)
H4B H -0.2109 -0.7039 0.9515
C7B C 0.23219(11) -0.21447(8) 0.91284(4)
C8B C 0.23751(13) -0.12379(9) 0.89817(4)
H5B H 0.2977 -0.0833 0.8846
H6B H 0.2294 -0.0932 0.9241
H7B H 0.1888 -0.1372 0.8765
C9B C 0.23147(13) -0.26561(9) 0.87030(4)
H8B H 0.2871 -0.2267 0.8529
H9B H 0.1769 -0.2797 0.8526
H10B H 0.2299 -0.3231 0.8783
C10B C 0.31697(13) -0.19667(9) 0.94026(4)
H11B H 0.3731 -0.1525 0.9245
H12B H 0.3170 -0.2547 0.9443
H13B H 0.3149 -0.1715 0.9694
N4B N 0.18447(10) -0.16426(7) 0.99642(3)
C11B C -0.15224(14) -0.67367(9) 0.88998(5)
H14B H -0.1908 -0.7328 0.8774
C12B C 0.14515(11) -0.14092(8) 1.03224(4)
C13B C 0.05620(11) -0.15348(8) 1.03013(4)
H15B H 0.0189 -0.1818 1.0047
C14B C 0.19980(12) -0.09722(8) 1.06946(4)
H16B H 0.2608 -0.0871 1.0711
C15B C 0.07582(13) -0.08312(9) 1.10212(4)
H17B H 0.0519 -0.0645 1.1261
C16B C 0.16506(13) -0.06864(9) 1.10407(4)
H18B H 0.2025 -0.0390 1.1293
C17B C 0.02206(13) -0.12489(9) 1.06489(4)
H19B H -0.0386 -0.1340 1.0632
Na1I Na -0.35557(4) -0.34002(3) 0.98481(2)
C1I C -0.49948(8) -0.46124(8) 1.07318(4)
N1I N -0.35723(7) -0.44399(7) 1.07525(3)
C2I C -0.51745(9) -0.48993(9) 1.11777(4)
H1I H -0.4702 -0.4886 1.1357
N2I N -0.24281(7) -0.36650(7) 1.02193(3)
C3I C -0.60421(9) -0.52020(10) 1.13547(4)
H2I H -0.6162 -0.5404 1.1655
N3I N -0.41402(7) -0.42996(7) 1.05141(3)
C4I C -0.27162(8) -0.41674(8) 1.05953(4)
C5I C -0.57015(9) -0.46284(9) 1.04770(4)
H3I H -0.5589 -0.4434 1.0175
C6I C -0.65648(9) -0.49252(11) 1.06607(5)
H4I H -0.7039 -0.4930 1.0485
C7I C -0.21447(8) -0.44666(8) 1.08716(4)
C8I C -0.12379(9) -0.36130(9) 1.10183(4)
H5I H -0.0833 -0.3810 1.1154
H6I H -0.0932 -0.3226 1.0759
H7I H -0.1372 -0.3260 1.1235
C9I C -0.26561(9) -0.49708(9) 1.12970(4)
H8I H -0.2267 -0.5138 1.1471
H9I H -0.2797 -0.4566 1.1474
H10I H -0.3231 -0.5530 1.1217
C10I C -0.19667(9) -0.51364(9) 1.05974(4)
H11I H -0.1525 -0.5256 1.0755
H12I H -0.2547 -0.5717 1.0557
H13I H -0.1715 -0.4864 1.0306
N4I N -0.16426(7) -0.34873(7) 1.00358(3)
C11I C -0.67367(9) -0.52143(11) 1.11002(5)
H14I H -0.7328 -0.5420 1.1226
C12I C -0.14092(8) -0.28607(8) 0.96776(4)
C13I C -0.15348(8) -0.20968(8) 0.96987(4)
H15I H -0.1818 -0.2007 0.9953
C14I C -0.09722(8) -0.29702(9) 0.93054(4)
H16I H -0.0871 -0.3479 0.9289
C15I C -0.08312(9) -0.15894(9) 0.89788(4)
H17I H -0.0645 -0.1164 0.8739
C16I C -0.06864(9) -0.23370(9) 0.89593(4)
H18I H -0.0390 -0.2415 0.8707
C17I C -0.12489(9) -0.14695(9) 0.93511(4)
H19I H -0.1340 -0.0954 0.9368
loop_
_geom_bond_atom_site_label_1
_geom_bond_atom_site_label_2
_geom_bond_site_symmetry_1
_geom_bond_site_symmetry_2
Na1 N2 1_555 1_555
C1 C2 1_555 1_555
N1 N3 1_555 1_555
C2 H1 1_555 1_555
N2 C4 1_555 1_555
C3 C2 1_555 1_555
H2 C3 1_555 1_555
N3 Na1 1_555 1_555
C4 N1 1_555 1_555
C5 C1 1_555 1_555
H3 C5 1_555 1_555
C6 C5 1_555 1_555
H4 C6 1_555 1_555
C7 C4 1_555 1_555
C8 C7 1_555 1_555
H5 C8 1_555 1_555
H6 C8 1_555 1_555
H7 C8 1_555 1_555
C9 C7 1_555 1_555
H8 C9 1_555 1_555
H9 C9 1_555 1_555
H10 C9 1_555 1_555
C10 C7 1_555 1_555
H11 C10 1_555 1_555
H12 C10 1_555 1_555
H13 C10 1_555 1_555
N4 N2 1_555 1_555
C11 C3 1_555 1_555
H14 C11 1_555 1_555
C12 N4 1_555 1_555
C13 Na1 1_555 1_555
H15 C13 1_555 1_555
C14 C12 1_555 1_555
H16 C14 1_555 1_555
C15 H17 1_555 1_555
C16 C14 1_555 1_555
H18 C16 1_555 1_555
C17 C13 1_555 1_555
H19 C17 1_555 1_555
Na1J N2J 1_555 1_555
C1J C2J 1_555 1_555
N1J N3J 1_555 1_555
C2J H1J 1_555 1_555
N2J C4J 1_555 1_555
C3J C2J 1_555 1_555
H2J C3J 1_555 1_555
N3J Na1J 1_555 1_555
C4J N1J 1_555 1_555
C5J C1J 1_555 1_555
H3J C5J 1_555 1_555
C6J C5J 1_555 1_555
H4J C6J 1_555 1_555
C7J C4J 1_555 1_555
C8J C7J 1_555 1_555
H5J C8J 1_555 1_555
H6J C8J 1_555 1_555
H7J C8J 1_555 1_555
C9J C7J 1_555 1_555
H8J C9J 1_555 1_555
H9J C9J 1_555 1_555
H10J C9J 1_555 1_555
C10J C7J 1_555 1_555
H11J C10J 1_555 1_555
H12J C10J 1_555 1_555
H13J C10J 1_555 1_555
N4J Na1 1_555 1_555
C11J C3J 1_555 1_555
H14J C11J 1_555 1_555
C12J N4J 1_555 1_555
C13J Na1J 1_555 1_555
H15J C13J 1_555 1_555
C14J C12J 1_555 1_555
H16J C14J 1_555 1_555
C15J H17J 1_555 1_555
C16J C14J 1_555 1_555
H18J C16J 1_555 1_555
C17J C13J 1_555 1_555
H19J C17J 1_555 1_555
Na1K N4 1_555 1_555
C1K C2K 1_555 1_555
N1K N3K 1_555 1_555
C2K H1K 1_555 1_555
N2K Na1K 1_555 1_555
C3K C2K 1_555 1_555
H2K C3K 1_555 1_555
N3K Na1K 1_555 1_555
C4K N1K 1_555 1_555
C5K C1K 1_555 1_555
H3K C5K 1_555 1_555
C6K C5K 1_555 1_555
H4K C6K 1_555 1_555
C7K C4K 1_555 1_555
C8K C7K 1_555 1_555
H5K C8K 1_555 1_555
H6K C8K 1_555 1_555
H7K C8K 1_555 1_555
C9K C7K 1_555 1_555
H8K C9K 1_555 1_555
H9K C9K 1_555 1_555
H10K C9K 1_555 1_555
C10K C7K 1_555 1_555
H11K C10K 1_555 1_555
H12K C10K 1_555 1_555
H13K C10K 1_555 1_555
N4K N2K 1_555 1_555
C11K C3K 1_555 1_555
H14K C11K 1_555 1_555
C12K N4K 1_555 1_555
C13K Na1K 1_555 1_555
H15K C13K 1_555 1_555
C14K C12K 1_555 1_555
H16K C14K 1_555 1_555
C15K H17K 1_555 1_555
C16K C14K 1_555 1_555
H18K C16K 1_555 1_555
C17K C13K 1_555 1_555
H19K C17K 1_555 1_555
Na1A N4K 1_555 1_555
C1A C2A 1_555 1_555
N1A N3A 1_555 1_555
C2A H1A 1_555 1_555
N2A Na1A 1_555 1_555
C3A C2A 1_555 1_555
H2A C3A 1_555 1_555
N3A Na1A 1_555 1_555
C4A N1A 1_555 1_555
C5A C1A 1_555 1_555
H3A C5A 1_555 1_555
C6A C5A 1_555 1_555
H4A C6A 1_555 1_555
C7A C4A 1_555 1_555
C8A C7A 1_555 1_555
H5A C8A 1_555 1_555
H6A C8A 1_555 1_555
H7A C8A 1_555 1_555
C9A C7A 1_555 1_555
H8A C9A 1_555 1_555
H9A C9A 1_555 1_555
H10A C9A 1_555 1_555
C10A C7A 1_555 1_555
H11A C10A 1_555 1_555
H12A C10A 1_555 1_555
H13A C10A 1_555 1_555
N4A N2A 1_555 1_555
C11A C3A 1_555 1_555
H14A C11A 1_555 1_555
C12A N4A 1_555 1_555
C13A Na1A 1_555 1_555
H15A C13A 1_555 1_555
C14A C12A 1_555 1_555
H16A C14A 1_555 1_555
C15A H17A 1_555 1_555
C16A C14A 1_555 1_555
H18A C16A 1_555 1_555
C17A C13A 1_555 1_555
H19A C17A 1_555 1_555
Na1B N2B 1_555 1_555
C1B C2B 1_555 1_555
N1B N3B 1_555 1_555
C2B H1B 1_555 1_555
N2B C4B 1_555 1_555
C3B C2B 1_555 1_555
H2B C3B 1_555 1_555
N3B Na1B 1_555 1_555
C4B N1B 1_555 1_555
C5B C1B 1_555 1_555
H3B C5B 1_555 1_555
C6B C5B 1_555 1_555
H4B C6B 1_555 1_555
C7B C4B 1_555 1_555
C8B C7B 1_555 1_555
H5B C8B 1_555 1_555
H6B C8B 1_555 1_555
H7B C8B 1_555 1_555
C9B C7B 1_555 1_555
H8B C9B 1_555 1_555
H9B C9B 1_555 1_555
H10B C9B 1_555 1_555
C10B C7B 1_555 1_555
H11B C10B 1_555 1_555
H12B C10B 1_555 1_555
H13B C10B 1_555 1_555
N4B Na1J 1_555 1_555
C11B C3B 1_555 1_555
H14B C11B 1_555 1_555
C12B N4B 1_555 1_555
C13B Na1B 1_555 1_555
H15B C13B 1_555 1_555
C14B C12B 1_555 1_555
H16B C14B 1_555 1_555
C15B H17B 1_555 1_555
C16B C14B 1_555 1_555
H18B C16B 1_555 1_555
C17B C13B 1_555 1_555
H19B C17B 1_555 1_555
Na1I N4A 1_555 1_555
C1I C2I 1_555 1_555
N1I N3I 1_555 1_555
C2I H1I 1_555 1_555
N2I Na1I 1_555 1_555
C3I C2I 1_555 1_555
H2I C3I 1_555 1_555
N3I Na1I 1_555 1_555
C4I N1I 1_555 1_555
C5I C1I 1_555 1_555
H3I C5I 1_555 1_555
C6I C5I 1_555 1_555
H4I C6I 1_555 1_555
C7I C4I 1_555 1_555
C8I C7I 1_555 1_555
H5I C8I 1_555 1_555
H6I C8I 1_555 1_555
H7I C8I 1_555 1_555
C9I C7I 1_555 1_555
H8I C9I 1_555 1_555
H9I C9I 1_555 1_555
H10I C9I 1_555 1_555
C10I C7I 1_555 1_555
H11I C10I 1_555 1_555
H12I C10I 1_555 1_555
H13I C10I 1_555 1_555
N4I Na1B 1_555 1_555
C11I C3I 1_555 1_555
H14I C11I 1_555 1_555
C12I N4I 1_555 1_555
C13I Na1I 1_555 1_555
H15I C13I 1_555 1_555
C14I C12I 1_555 1_555
H16I C14I 1_555 1_555
C15I H17I 1_555 1_555
C16I C14I 1_555 1_555
H18I C16I 1_555 1_555
C17I C13I 1_555 1_555
H19I C17I 1_555 1_555
C1 N3 1_555 1_555
C6 C11 1_555 1_555
C12 C13 1_555 1_555
C15 C16 1_555 1_555
C15 C17 1_555 1_555
C1J N3J 1_555 1_555
N2J N4J 1_555 1_555
C6J C11J 1_555 1_555
C12J C13J 1_555 1_555
C15J C16J 1_555 1_555
C15J C17J 1_555 1_555
C1K N3K 1_555 1_555
N2K C4K 1_555 1_555
C6K C11K 1_555 1_555
C12K C13K 1_555 1_555
C15K C16K 1_555 1_555
C15K C17K 1_555 1_555
C1A N3A 1_555 1_555
N2A C4A 1_555 1_555
C6A C11A 1_555 1_555
C12A C13A 1_555 1_555
C15A C16A 1_555 1_555
C15A C17A 1_555 1_555
C1B N3B 1_555 1_555
N2B N4B 1_555 1_555
C6B C11B 1_555 1_555
C12B C13B 1_555 1_555
C15B C16B 1_555 1_555
C15B C17B 1_555 1_555
C1I N3I 1_555 1_555
N2I C4I 1_555 1_555
N2I N4I 1_555 1_555
C6I C11I 1_555 1_555
C12I C13I 1_555 1_555
C15I C16I 1_555 1_555
C15I C17I 1_555 1_555

#END
