
#######################################################################
#
#                 Cambridge Crystallographic Data Centre
#                                CCDC 
#
#######################################################################
#
# If this CIF has been generated from an entry in the Cambridge 
# Structural Database, then it will include bibliographic, chemical, 
# crystal, experimental, refinement or atomic coordinate data resulting 
# from the CCDC's data processing and validation procedures.
#
#######################################################################

data_POWYAC
_chemical_formula_moiety         'C7 H7 N4 O2 1+,Cl1 1-'
_chemical_name_systematic        
'2-Amino-6-nitro-1H-benzimidazol-3-ium chloride'
_symmetry_cell_setting           monoclinic
_symmetry_space_group_name_H-M   'C 2/c'
_symmetry_Int_Tables_number      15
_space_group_name_Hall           '-C 2yn'
loop_
_symmetry_equiv_pos_site_id
_symmetry_equiv_pos_as_xyz
1 x,y,z
2 -x,y,1/2-z
3 1/2+x,1/2+y,z
4 1/2-x,1/2+y,1/2-z
5 -x,-y,-z
6 x,-y,1/2+z
7 1/2-x,1/2-y,-z
8 1/2+x,1/2-y,1/2+z
_cell_length_a                   13.969(3)
_cell_length_b                   7.8064(19)
_cell_length_c                   16.490(4)
_cell_angle_alpha                90
_cell_angle_beta                 91.303(3)
_cell_angle_gamma                90
_cell_volume                     1797.73
_exptl_crystal_colour            yellow
_exptl_crystal_description       block
_cell_formula_units_Z            8
loop_
_atom_site_label
_atom_site_type_symbol
_atom_site_fract_x
_atom_site_fract_y
_atom_site_fract_z
Cl1 Cl 0.40318(4) 0.59647(8) 0.67245(4)
O1 O 0.38248(13) 0.6546(3) 0.39469(12)
O2 O 0.42766(13) 0.8483(3) 0.31128(11)
N1 N 0.61668(12) 0.7489(2) 0.63485(10)
H1 H 0.5835 0.6840 0.6656
N2 N 0.72946(12) 0.9189(2) 0.59344(10)
H2 H 0.7805 0.9804 0.5934
N3 N 0.73958(14) 0.8248(3) 0.72889(12)
H3 H 0.7916 0.8812 0.7380
H4 H 0.7150 0.7649 0.7669
N4 N 0.43847(13) 0.7660(3) 0.37360(12)
C1 C 0.69763(15) 0.8301(3) 0.65691(13)
C2 C 0.59515(14) 0.7865(3) 0.55416(12)
C3 C 0.66716(14) 0.8960(3) 0.52782(13)
C4 C 0.66616(16) 0.9615(3) 0.44987(13)
H5 H 0.7147 1.0332 0.4323
C5 C 0.59021(16) 0.9163(3) 0.39925(13)
H6 H 0.5859 0.9590 0.3466
C6 C 0.52047(15) 0.8067(3) 0.42752(13)
C7 C 0.52051(15) 0.7385(3) 0.50434(13)
H7 H 0.4728 0.6644 0.5213
loop_
_geom_bond_atom_site_label_1
_geom_bond_atom_site_label_2
_geom_bond_site_symmetry_1
_geom_bond_site_symmetry_2
O1 N4 1_555 1_555
O2 N4 1_555 1_555
N1 H1 1_555 1_555
N2 H2 1_555 1_555
N3 H3 1_555 1_555
H4 N3 1_555 1_555
N4 C6 1_555 1_555
C1 N1 1_555 1_555
C2 N1 1_555 1_555
C3 N2 1_555 1_555
C4 C3 1_555 1_555
H5 C4 1_555 1_555
C5 C4 1_555 1_555
H6 C5 1_555 1_555
C6 C5 1_555 1_555
C7 C2 1_555 1_555
H7 C7 1_555 1_555
N2 C1 1_555 1_555
N3 C1 1_555 1_555
C2 C3 1_555 1_555
C6 C7 1_555 1_555

#END
