
#######################################################################
#
#                 Cambridge Crystallographic Data Centre
#                                CCDC 
#
#######################################################################
#
# If this CIF has been generated from an entry in the Cambridge 
# Structural Database, then it will include bibliographic, chemical, 
# crystal, experimental, refinement or atomic coordinate data resulting 
# from the CCDC's data processing and validation procedures.
#
#######################################################################

data_POXBOU
_chemical_formula_moiety         'C10 H10 N8'
_chemical_name_systematic        
(Z,Z)-N''-(Amino(pyrazin-2-yl)methylene)pyrazine-2-carbohydrazonamide
_symmetry_cell_setting           monoclinic
_symmetry_space_group_name_H-M   'P 21/c'
_symmetry_Int_Tables_number      14
_space_group_name_Hall           '-P 2ybc'
loop_
_symmetry_equiv_pos_site_id
_symmetry_equiv_pos_as_xyz
1 x,y,z
2 -x,1/2+y,1/2-z
3 -x,-y,-z
4 x,1/2-y,1/2+z
_cell_length_a                   8.6576(16)
_cell_length_b                   6.6685(12)
_cell_length_c                   9.6162(18)
_cell_angle_alpha                90
_cell_angle_beta                 97.682(4)
_cell_angle_gamma                90
_cell_volume                     550.191
_exptl_crystal_colour            yellow
_exptl_crystal_description       block
_cell_formula_units_Z            2
loop_
_atom_site_label
_atom_site_type_symbol
_atom_site_fract_x
_atom_site_fract_y
_atom_site_fract_z
C1 C 0.71263(17) -0.1470(2) -0.12888(15)
H1 H 0.7177 -0.2641 -0.1806
C2 C 0.61260(19) 0.1595(2) -0.10119(17)
H2 H 0.5502 0.2669 -0.1353
C3 C 0.69636(18) 0.1731(2) 0.03029(16)
H3 H 0.6851 0.2866 0.0842
C4 C 0.80524(15) -0.1312(2) 0.00078(14)
C5 C 0.92285(16) -0.2845(2) 0.05271(14)
N1 N 0.61789(15) -0.0024(2) -0.18134(13)
N2 N 0.79325(14) 0.02862(18) 0.08288(12)
N3 N 1.00358(16) -0.2540(2) 0.17988(13)
H4 H 1.071(2) -0.351(3) 0.2148(18)
H5 H 0.974(2) -0.154(3) 0.2320(19)
N4 N 0.94266(14) -0.43331(17) -0.03069(11)
C1B C 1.28737(17) -0.8530(2) 0.12888(15)
H1B H 1.2823 -0.7359 0.1806
C2B C 1.38740(19) -1.1595(2) 0.10119(17)
H2B H 1.4498 -1.2669 0.1353
C3B C 1.30364(18) -1.1731(2) -0.03029(16)
H3B H 1.3149 -1.2866 -0.0842
C4B C 1.19476(15) -0.8688(2) -0.00078(14)
C5B C 1.07715(16) -0.7155(2) -0.05271(14)
N1B N 1.38211(15) -0.9976(2) 0.18134(13)
N2B N 1.20675(14) -1.02862(18) -0.08288(12)
N3B N 0.99642(16) -0.7460(2) -0.17988(13)
H4B H 0.929(2) -0.649(3) -0.2148(18)
H5B H 1.026(2) -0.846(3) -0.2320(19)
N4B N 1.05734(14) -0.56669(17) 0.03069(11)
loop_
_geom_bond_atom_site_label_1
_geom_bond_atom_site_label_2
_geom_bond_site_symmetry_1
_geom_bond_site_symmetry_2
C1 H1 1_555 1_555
C2 H2 1_555 1_555
C3 C2 1_555 1_555
H3 C3 1_555 1_555
C4 C1 1_555 1_555
C5 C4 1_555 1_555
N1 C1 1_555 1_555
N2 C3 1_555 1_555
N3 C5 1_555 1_555
H4 N3 1_555 1_555
H5 N3 1_555 1_555
N4 C5 1_555 1_555
C1B H1B 1_555 1_555
C2B H2B 1_555 1_555
C3B C2B 1_555 1_555
H3B C3B 1_555 1_555
C4B C1B 1_555 1_555
C5B C4B 1_555 1_555
N1B C1B 1_555 1_555
N2B C3B 1_555 1_555
N3B C5B 1_555 1_555
H4B N3B 1_555 1_555
H5B N3B 1_555 1_555
N4B N4 1_555 1_555
C2 N1 1_555 1_555
C4 N2 1_555 1_555
C2B N1B 1_555 1_555
C4B N2B 1_555 1_555
C5B N4B 1_555 1_555

#END
