
#######################################################################
#
#                 Cambridge Crystallographic Data Centre
#                                CCDC 
#
#######################################################################
#
# If this CIF has been generated from an entry in the Cambridge 
# Structural Database, then it will include bibliographic, chemical, 
# crystal, experimental, refinement or atomic coordinate data resulting 
# from the CCDC's data processing and validation procedures.
#
#######################################################################

data_POXKAQ
_chemical_formula_moiety         'C20 H40 Na1 O8 1+,C12 H23 B11 1-'
_chemical_name_systematic        
'(18-Crown-6)-sodium 3-phenyl-1,2-(tetramethylene)-1,2-dicarba-closo-tridecaborate radical anion'
_symmetry_cell_setting           orthorhombic
_symmetry_space_group_name_H-M   'P 21 21 21'
_symmetry_Int_Tables_number      19
_space_group_name_Hall           'P 2ac 2ab'
loop_
_symmetry_equiv_pos_site_id
_symmetry_equiv_pos_as_xyz
1 x,y,z
2 1/2-x,-y,1/2+z
3 -x,1/2+y,1/2-z
4 1/2+x,1/2-y,-z
_cell_length_a                   9.8055(10)
_cell_length_b                   12.1666(13)
_cell_length_c                   34.318(4)
_cell_angle_alpha                90
_cell_angle_beta                 90
_cell_angle_gamma                90
_cell_volume                     4094.12
_exptl_crystal_colour            red
_exptl_crystal_description       block
_cell_formula_units_Z            4
loop_
_atom_site_label
_atom_site_type_symbol
_atom_site_fract_x
_atom_site_fract_y
_atom_site_fract_z
Na1 Na 0.04240(16) 0.97531(16) 0.34434(5)
O1 O -0.1847(4) 0.9788(3) 0.32171(11)
O2 O 0.2590(4) 0.9779(3) 0.37267(13)
C1 C -0.2396(9) 0.8875(6) 0.3024(3)
H1 H -0.2698 0.8332 0.3212
H2 H -0.1709 0.8540 0.2859
C2 C -0.3526(11) 0.9241(10) 0.2793(4)
H3 H -0.4351 0.8862 0.2873
H4 H -0.3361 0.9077 0.2520
C3 C -0.3692(8) 1.0415(6) 0.2845(2)
H5 H -0.4541 1.0579 0.2978
H6 H -0.3683 1.0792 0.2596
C4 C -0.2506(7) 1.0743(5) 0.3085(2)
H7 H -0.1881 1.1184 0.2932
H8 H -0.2809 1.1178 0.3306
C5 C 0.3007(11) 0.8951(8) 0.3988(5)
H9 H 0.2816 0.8230 0.3881
H10 H 0.2531 0.9024 0.4234
C6 C 0.4528(10) 0.9103(8) 0.4045(4)
H11 H 0.4837 0.8776 0.4287
H12 H 0.5045 0.8797 0.3830
C7 C 0.4621(11) 1.0257(7) 0.4055(4)
H13 H 0.5494 1.0511 0.3957
H14 H 0.4483 1.0539 0.4317
C8 C 0.3462(10) 1.0583(7) 0.3786(5)
H15 H 0.2983 1.1205 0.3897
H16 H 0.3838 1.0813 0.3537
O3 O 0.1086(13) 0.7637(7) 0.3255(3)
O4 O -0.0390(9) 0.8076(7) 0.3894(2)
O5 O -0.0544(8) 1.0215(7) 0.4140(2)
O6 O 0.0252(9) 1.1741(6) 0.3599(2)
O7 O 0.1068(11) 1.1312(8) 0.2878(3)
O8 O 0.122(2) 0.9105(9) 0.2682(5)
C9 C 0.0515(14) 0.6792(10) 0.3467(4)
H17 H 0.1198 0.6227 0.3508
H18 H -0.0222 0.6470 0.3317
C10 C -0.0778(19) 0.8385(11) 0.4255(5)
H19 H 0.0016 0.8372 0.4423
H20 H -0.1417 0.7844 0.4354
C11 C -0.0971(19) 1.1223(12) 0.4131(7)
H21 H -0.1183 1.1425 0.4397
H22 H -0.1829 1.1218 0.3990
C12 C 0.0709(16) 1.2586(13) 0.3376(4)
H23 H 0.1334 1.3020 0.3532
H24 H -0.0063 1.3052 0.3313
C13 C 0.1882(19) 1.0996(11) 0.2554(4)
H25 H 0.2830 1.0925 0.2631
H26 H 0.1819 1.1540 0.2348
C14 C 0.204(2) 0.8395(11) 0.2657(4)
H27 H 0.2937 0.8700 0.2701
H28 H 0.2015 0.8099 0.2395
C15 C -0.0048(11) 0.7161(6) 0.3869(2)
H29 H -0.0822 0.6699 0.3933
H30 H 0.0650 0.7028 0.4063
C16 C -0.1460(9) 0.9555(9) 0.4285(2)
H31 H -0.2298 0.9586 0.4135
H32 H -0.1659 0.9741 0.4554
C17 C -0.0110(12) 1.2180(7) 0.3958(2)
H33 H -0.0648 1.2844 0.3929
H34 H 0.0685 1.2335 0.4117
C18 C 0.1430(11) 1.2284(7) 0.2996(3)
H35 H 0.1204 1.2821 0.2797
H36 H 0.2409 1.2301 0.3035
C19 C 0.1328(15) 0.9897(8) 0.2415(3)
H37 H 0.0431 1.0020 0.2304
H38 H 0.1912 0.9632 0.2207
C20 C 0.1792(12) 0.7448(8) 0.2950(3)
H39 H 0.1356 0.6852 0.2810
H40 H 0.2677 0.7183 0.3034
C27 C 0.5123(5) 0.3817(3) 0.42759(12)
C28 C 0.6087(4) 0.4723(3) 0.43380(12)
C29 C 0.4779(6) 0.3167(4) 0.46333(15)
H53 H 0.4179 0.3599 0.4798
H54 H 0.4291 0.2507 0.4557
C30 C 0.6017(7) 0.2850(5) 0.48613(17)
H55 H 0.6484 0.2261 0.4725
H56 H 0.5732 0.2569 0.5113
C31 C 0.6999(8) 0.3779(6) 0.4924(2)
H57 H 0.7104 0.3893 0.5202
H58 H 0.7881 0.3564 0.4822
C32 C 0.6598(6) 0.4837(4) 0.47422(15)
H59 H 0.5894 0.5176 0.4900
H60 H 0.7381 0.5324 0.4742
C33 C 0.3107(4) 0.5529(3) 0.43816(12)
C34 C 0.3265(5) 0.6530(3) 0.45675(13)
H61 H 0.4054 0.6932 0.4520
C35 C 0.2322(7) 0.6955(5) 0.48171(15)
H62 H 0.2475 0.7627 0.4938
C36 C 0.1134(7) 0.6374(5) 0.48882(15)
H63 H 0.0468 0.6668 0.5051
C37 C 0.0942(6) 0.5371(6) 0.47196(18)
H64 H 0.0159 0.4970 0.4776
C38 C 0.1905(5) 0.4942(4) 0.44653(16)
H65 H 0.1755 0.4262 0.4349
B1 B 0.4186(5) 0.5089(3) 0.40859(14)
B2 B 0.4124(5) 0.3629(4) 0.39070(16)
H66 H 0.3272 0.3067 0.3968
B3 B 0.5926(5) 0.3264(4) 0.38768(15)
H67 H 0.6373 0.2458 0.3947
B4 B 0.7149(5) 0.4664(4) 0.39578(16)
H68 H 0.8214 0.4587 0.4055
B5 B 0.5980(5) 0.5808(4) 0.40597(16)
H69 H 0.6206 0.6572 0.4218
B6 B 0.3830(6) 0.4698(5) 0.35787(15)
H70 H 0.2802 0.4792 0.3455
B7 B 0.4951(6) 0.3588(5) 0.34549(16)
H71 H 0.4698 0.2945 0.3242
B8 B 0.6635(6) 0.4101(5) 0.35022(17)
H72 H 0.7466 0.3724 0.3334
B9 B 0.6589(6) 0.5557(5) 0.35805(18)
H73 H 0.7311 0.6126 0.3441
B10 B 0.4841(6) 0.5874(4) 0.36715(16)
H74 H 0.4414 0.6692 0.3611
B11 B 0.5296(7) 0.4931(6) 0.33013(17)
H75 H 0.5217 0.5134 0.2990
O9? O 0.0285(10) 0.7749(6) 0.3554(3)
O10? O -0.0656(9) 0.9130(7) 0.4117(2)
O11? O -0.0549(9) 1.1342(8) 0.3931(2)
O12? O 0.1039(10) 1.1949(8) 0.3322(3)
O13? O 0.0983(13) 1.0632(10) 0.2667(3)
O14? O 0.145(2) 0.8408(12) 0.2873(4)
C21? C 0.115(2) 0.704(2) 0.3345(7)
H41? H 0.0636 0.6374 0.3289
H42? H 0.1891 0.6831 0.3516
C22? C -0.1330(18) 0.8131(16) 0.4079(5)
H43? H -0.2109 0.8204 0.3907
H44? H -0.1644 0.7872 0.4331
C23? C -0.098(2) 1.0994(16) 0.4300(5)
H45? H -0.1761 1.1431 0.4382
H46? H -0.0257 1.1100 0.4487
C24? C 0.031(2) 1.2743(16) 0.3552(7)
H47? H -0.0503 1.2983 0.3415
H48? H 0.0879 1.3380 0.3600
C25? C 0.190(3) 1.1488(15) 0.2741(5)
H49? H 0.2731 1.1178 0.2845
H50? H 0.2120 1.1839 0.2495
C26? C 0.229(2) 0.922(3) 0.2627(8)
H51? H 0.2857 0.9668 0.2794
H52? H 0.2870 0.8821 0.2447
loop_
_geom_bond_atom_site_label_1
_geom_bond_atom_site_label_2
_geom_bond_site_symmetry_1
_geom_bond_site_symmetry_2
Na1 O1 1_555 1_555
O1 C1 1_555 1_555
O2 Na1 1_555 1_555
C1 H1 1_555 1_555
H2 C1 1_555 1_555
C2 C1 1_555 1_555
H3 C2 1_555 1_555
H4 C2 1_555 1_555
C3 C2 1_555 1_555
H5 C3 1_555 1_555
H6 C3 1_555 1_555
C4 O1 1_555 1_555
H7 C4 1_555 1_555
H8 C4 1_555 1_555
C5 O2 1_555 1_555
H9 C5 1_555 1_555
H10 C5 1_555 1_555
C6 C5 1_555 1_555
H11 C6 1_555 1_555
H12 C6 1_555 1_555
C7 C6 1_555 1_555
H13 C7 1_555 1_555
H14 C7 1_555 1_555
C8 O2 1_555 1_555
H15 C8 1_555 1_555
H16 C8 1_555 1_555
O3 Na1 1_555 1_555
O4 Na1 1_555 1_555
O5 Na1 1_555 1_555
O6 Na1 1_555 1_555
O7 Na1 1_555 1_555
O8 Na1 1_555 1_555
C9 O3 1_555 1_555
H17 C9 1_555 1_555
H18 C9 1_555 1_555
C10 O4 1_555 1_555
H19 C10 1_555 1_555
H20 C10 1_555 1_555
C11 O5 1_555 1_555
H21 C11 1_555 1_555
H22 C11 1_555 1_555
C12 O6 1_555 1_555
H23 C12 1_555 1_555
H24 C12 1_555 1_555
C13 O7 1_555 1_555
H25 C13 1_555 1_555
H26 C13 1_555 1_555
C14 O8 1_555 1_555
H27 C14 1_555 1_555
H28 C14 1_555 1_555
C15 O4 1_555 1_555
H29 C15 1_555 1_555
H30 C15 1_555 1_555
C16 O5 1_555 1_555
H31 C16 1_555 1_555
H32 C16 1_555 1_555
C17 O6 1_555 1_555
H33 C17 1_555 1_555
H34 C17 1_555 1_555
C18 O7 1_555 1_555
H35 C18 1_555 1_555
H36 C18 1_555 1_555
C19 O8 1_555 1_555
H37 C19 1_555 1_555
H38 C19 1_555 1_555
C20 O3 1_555 1_555
H39 C20 1_555 1_555
H40 C20 1_555 1_555
C27 C28 1_555 1_555
C28 C32 1_555 1_555
C29 C27 1_555 1_555
H53 C29 1_555 1_555
H54 C29 1_555 1_555
C30 C29 1_555 1_555
H55 C30 1_555 1_555
H56 C30 1_555 1_555
C31 C30 1_555 1_555
H57 C31 1_555 1_555
H58 C31 1_555 1_555
C32 C31 1_555 1_555
H59 C32 1_555 1_555
H60 C32 1_555 1_555
C33 C34 1_555 1_555
C34 H61 1_555 1_555
C35 C34 1_555 1_555
H62 C35 1_555 1_555
C36 C35 1_555 1_555
H63 C36 1_555 1_555
C37 C36 1_555 1_555
H64 C37 1_555 1_555
C38 C33 1_555 1_555
H65 C38 1_555 1_555
B1 C27 1_555 1_555
B2 C27 1_555 1_555
H66 B2 1_555 1_555
B3 C27 1_555 1_555
H67 B3 1_555 1_555
B4 C28 1_555 1_555
H68 B4 1_555 1_555
B5 C28 1_555 1_555
H69 B5 1_555 1_555
B6 B1 1_555 1_555
H70 B6 1_555 1_555
B7 B2 1_555 1_555
H71 B7 1_555 1_555
B8 B3 1_555 1_555
H72 B8 1_555 1_555
B9 B4 1_555 1_555
H73 B9 1_555 1_555
B10 B1 1_555 1_555
H74 B10 1_555 1_555
B11 B6 1_555 1_555
H75 B11 1_555 1_555
C3 C4 1_555 1_555
C7 C8 1_555 1_555
C9 C15 1_555 1_555
C10 C16 1_555 1_555
C11 C17 1_555 1_555
C12 C18 1_555 1_555
C13 C19 1_555 1_555
C14 C20 1_555 1_555
C33 B1 1_555 1_555
C37 C38 1_555 1_555
B1 B2 1_555 1_555
B1 B5 1_555 1_555
B2 B3 1_555 1_555
B2 B6 1_555 1_555
B3 B4 1_555 1_555
B3 B7 1_555 1_555
B4 B5 1_555 1_555
B4 B8 1_555 1_555
B5 B9 1_555 1_555
B5 B10 1_555 1_555
B6 B7 1_555 1_555
B6 B10 1_555 1_555
B7 B8 1_555 1_555
B7 B11 1_555 1_555
B8 B9 1_555 1_555
B8 B11 1_555 1_555
B9 B10 1_555 1_555
B9 B11 1_555 1_555
B10 B11 1_555 1_555

#END
