
#######################################################################
#
#                 Cambridge Crystallographic Data Centre
#                                CCDC 
#
#######################################################################
#
# If this CIF has been generated from an entry in the Cambridge 
# Structural Database, then it will include bibliographic, chemical, 
# crystal, experimental, refinement or atomic coordinate data resulting 
# from the CCDC's data processing and validation procedures.
#
#######################################################################

data_POXSIE
_chemical_formula_moiety         'C20 H12 Cl2 N2 O2'
_chemical_name_systematic        
trans-1,2-bis(2-(5-Phenyloxazolyl))dichloroethene
_symmetry_cell_setting           monoclinic
_symmetry_space_group_name_H-M   'P 21'
_symmetry_Int_Tables_number      4
_space_group_name_Hall           'P 2yb'
loop_
_symmetry_equiv_pos_site_id
_symmetry_equiv_pos_as_xyz
1 x,y,z
2 -x,1/2+y,-z
_cell_length_a                   8.450(2)
_cell_length_b                   6.994(1)
_cell_length_c                   15.432(5)
_cell_angle_alpha                90
_cell_angle_beta                 102.38(2)
_cell_angle_gamma                90
_cell_volume                     890.813
_chemical_melting_point          180.5-181.5deg.C
_cell_formula_units_Z            2
loop_
_atom_site_label
_atom_site_type_symbol
_atom_site_fract_x
_atom_site_fract_y
_atom_site_fract_z
Cl1 Cl 0.4742(3) 0.216(1) 0.8268(2)
Cl2 Cl 0.0261(8) -0.025(1) 0.6732(5)
O1 O 0.1895(9) -0.227(1) 0.8265(6)
O2 O 0.3020(9) 0.421(1) 0.6815(5)
N1 N 0.426(1) -0.152(2) 0.9099(7)
N2 N 0.071(1) 0.334(2) 0.5995(7)
C1 C 0.127(1) -0.541(2) 0.8863(8)
C2 C -0.021(2) -0.536(2) 0.8230(8)
C3 C -0.107(1) -0.700(2) 0.823(1)
C4 C -0.067(2) -0.830(2) 0.8938(9)
C5 C 0.061(2) -0.822(2) 0.9656(8)
C6 C 0.161(2) -0.686(2) 0.9468(9)
C7 C 0.233(1) -0.367(2) 0.8884(7)
C8 C 0.385(1) -0.321(2) 0.936(1)
C9 C 0.320(2) -0.102(2) 0.8385(7)
C10 C 0.308(1) 0.076(2) 0.7887(9)
C11 C 0.368(1) 0.700(2) 0.6186(7)
C12 C 0.520(1) 0.731(3) 0.684(1)
C13 C 0.639(2) 0.871(3) 0.682(1)
C14 C 0.595(2) 1.044(3) 0.623(1)
C15 C 0.435(2) 1.021(2) 0.552(1)
C16 C 0.330(2) 0.851(2) 0.5559(8)
C17 C 0.256(2) 0.557(2) 0.6189(8)
C18 C 0.108(2) 0.506(2) 0.5668(8)
C19 C 0.194(1) 0.291(2) 0.6609(9)
C20 C 0.192(1) 0.122(2) 0.7159(7)
loop_
_geom_bond_atom_site_label_1
_geom_bond_atom_site_label_2
_geom_bond_site_symmetry_1
_geom_bond_site_symmetry_2
Cl1 C10 1_555 1_555
Cl2 C20 1_555 1_555
O1 C7 1_555 1_555
O2 C17 1_555 1_555
N1 C8 1_555 1_555
N2 C18 1_555 1_555
C1 C2 1_555 1_555
C2 C3 1_555 1_555
C3 C4 1_555 1_555
C4 C5 1_555 1_555
C5 C6 1_555 1_555
C6 C1 1_555 1_555
C7 C1 1_555 1_555
C8 C7 1_555 1_555
C9 O1 1_555 1_555
C10 C9 1_555 1_555
C11 C12 1_555 1_555
C12 C13 1_555 1_555
C13 C14 1_555 1_555
C14 C15 1_555 1_555
C15 C16 1_555 1_555
C16 C11 1_555 1_555
C17 C11 1_555 1_555
C18 C17 1_555 1_555
C19 O2 1_555 1_555
C20 C10 1_555 1_555
N1 C9 1_555 1_555
N2 C19 1_555 1_555
C19 C20 1_555 1_555

#END
