
#######################################################################
#
#                 Cambridge Crystallographic Data Centre
#                                CCDC 
#
#######################################################################
#
# If this CIF has been generated from an entry in the Cambridge 
# Structural Database, then it will include bibliographic, chemical, 
# crystal, experimental, refinement or atomic coordinate data resulting 
# from the CCDC's data processing and validation procedures.
#
#######################################################################

data_POYCEN
_chemical_formula_moiety         'C13 H10 N2 O2 S1'
_chemical_name_systematic        
5-(methylsulfonyl)-2-(pyridin-2-yl)benzonitrile
_symmetry_cell_setting           monoclinic
_symmetry_space_group_name_H-M   'P 21/c'
_symmetry_Int_Tables_number      14
_space_group_name_Hall           '-P 2ybc'
loop_
_symmetry_equiv_pos_site_id
_symmetry_equiv_pos_as_xyz
1 x,y,z
2 -x,1/2+y,1/2-z
3 -x,-y,-z
4 x,1/2-y,1/2+z
_cell_length_a                   11.9124(16)
_cell_length_b                   7.5041(10)
_cell_length_c                   14.670(2)
_cell_angle_alpha                90
_cell_angle_beta                 111.533(5)
_cell_angle_gamma                90
_cell_volume                     1219.85
_exptl_crystal_colour            white
_exptl_crystal_description       platy
_cell_formula_units_Z            4
loop_
_atom_site_label
_atom_site_type_symbol
_atom_site_fract_x
_atom_site_fract_y
_atom_site_fract_z
S1 S 0.11444(4) 0.11051(7) 0.39354(3)
O1 O 0.15582(13) 0.1889(3) 0.32259(11)
O2 O 0.02424(12) 0.20058(19) 0.41928(11)
N1 N 0.52039(14) 0.1043(2) 0.85506(11)
N2 N 0.26831(16) -0.1226(3) 0.81651(12)
C1 C 0.61378(19) 0.1007(3) 0.94035(14)
H1 H 0.6001 0.1355 0.9977
C2 C 0.72844(18) 0.0497(3) 0.95035(14)
H2 H 0.7920 0.0508 1.0128
C3 C 0.74947(16) -0.0029(3) 0.86827(15)
H3 H 0.8279 -0.0382 0.8728
C4 C 0.65414(15) -0.0033(3) 0.77898(13)
H4 H 0.6655 -0.0411 0.7212
C5 C 0.54169(14) 0.0526(2) 0.77551(12)
C6 C 0.43684(14) 0.0593(2) 0.68085(12)
C7 C 0.45189(15) 0.1176(2) 0.59604(12)
H5 H 0.5304 0.1493 0.5990
C8 C 0.35556(15) 0.1309(2) 0.50733(13)
H6 H 0.3674 0.1731 0.4505
C9 C 0.24152(14) 0.0813(2) 0.50320(12)
C10 C 0.22353(14) 0.0186(2) 0.58556(12)
H7 H 0.1454 -0.0175 0.5814
C11 C 0.32057(14) 0.0088(2) 0.67443(12)
C12 C 0.06172(19) -0.1050(3) 0.35574(17)
H8 H -0.0094 -0.0987 0.2950
H9 H 0.0399 -0.1630 0.4068
H10 H 0.1251 -0.1740 0.3443
C13 C 0.29603(15) -0.0607(3) 0.75719(13)
loop_
_geom_bond_atom_site_label_1
_geom_bond_atom_site_label_2
_geom_bond_site_symmetry_1
_geom_bond_site_symmetry_2
S1 O1 1_555 1_555
O2 S1 1_555 1_555
N1 C1 1_555 1_555
N2 C13 1_555 1_555
C1 H1 1_555 1_555
C2 C1 1_555 1_555
H2 C2 1_555 1_555
C3 C2 1_555 1_555
H3 C3 1_555 1_555
C4 C3 1_555 1_555
H4 C4 1_555 1_555
C5 N1 1_555 1_555
C6 C5 1_555 1_555
C7 C6 1_555 1_555
H5 C7 1_555 1_555
C8 C7 1_555 1_555
H6 C8 1_555 1_555
C9 S1 1_555 1_555
C10 C9 1_555 1_555
H7 C10 1_555 1_555
C11 C6 1_555 1_555
C12 S1 1_555 1_555
H8 C12 1_555 1_555
H9 C12 1_555 1_555
H10 C12 1_555 1_555
C13 C11 1_555 1_555
C4 C5 1_555 1_555
C8 C9 1_555 1_555
C10 C11 1_555 1_555

#END
