
#######################################################################
#
#                 Cambridge Crystallographic Data Centre
#                                CCDC 
#
#######################################################################
#
# If this CIF has been generated from an entry in the Cambridge 
# Structural Database, then it will include bibliographic, chemical, 
# crystal, experimental, refinement or atomic coordinate data resulting 
# from the CCDC's data processing and validation procedures.
#
#######################################################################

data_POYKEV
_chemical_formula_moiety         'C19 H16 N2 O2 S1'
_chemical_name_systematic        
1-(2-((4-Methylphenyl)sulfonyl)phenyl)-2-phenyldiazene
_symmetry_cell_setting           orthorhombic
_symmetry_space_group_name_H-M   'P 21 21 21'
_symmetry_Int_Tables_number      19
_space_group_name_Hall           'P 2ac 2ab'
loop_
_symmetry_equiv_pos_site_id
_symmetry_equiv_pos_as_xyz
1 x,y,z
2 1/2-x,-y,1/2+z
3 1/2+x,1/2-y,-z
4 -x,1/2+y,1/2-z
_cell_length_a                   9.6295(4)
_cell_length_b                   11.0331(4)
_cell_length_c                   15.6854(5)
_cell_angle_alpha                90
_cell_angle_beta                 90
_cell_angle_gamma                90
_cell_volume                     1666.47
_cell_formula_units_Z            4
loop_
_atom_site_label
_atom_site_type_symbol
_atom_site_fract_x
_atom_site_fract_y
_atom_site_fract_z
S1 S 0.91952(6) 0.46438(5) 0.27372(3)
O1 O 0.9668(2) 0.52479(18) 0.19779(11)
O2 O 1.0189(2) 0.39420(18) 0.32098(12)
N1 N 0.5812(2) 0.54946(18) 0.11581(12)
N2 N 0.6640(2) 0.52715(18) 0.17470(12)
C1 C 0.6606(3) 0.7635(2) 0.12506(17)
H1 H 0.7194 0.7455 0.1704
C2 C 0.6547(4) 0.8798(3) 0.0931(2)
H2 H 0.7085 0.9408 0.1173
C3 C 0.5687(4) 0.9057(3) 0.0250(2)
H3 H 0.5661 0.9838 0.0029
C4 C 0.4872(4) 0.8170(3) -0.0102(2)
H4 H 0.4287 0.8354 -0.0555
C5 C 0.4920(3) 0.6999(3) 0.02190(18)
H5 H 0.4372 0.6395 -0.0020
C6 C 0.5787(3) 0.6737(2) 0.08941(14)
C7 C 0.6669(3) 0.4029(2) 0.19933(14)
C8 C 0.5647(3) 0.3198(2) 0.17881(17)
H6 H 0.4890 0.3442 0.1463
C9 C 0.5739(4) 0.2007(3) 0.20623(18)
H7 H 0.5044 0.1457 0.1921
C10 C 0.6852(3) 0.1637(2) 0.25417(18)
H8 H 0.6910 0.0836 0.2722
C11 C 0.7891(3) 0.2452(2) 0.27585(17)
H9 H 0.8641 0.2204 0.3089
C12 C 0.7799(2) 0.3638(2) 0.24780(14)
C13 C 0.8449(2) 0.57172(19) 0.34400(14)
C14 C 0.8575(3) 0.6946(2) 0.32667(15)
H10 H 0.9021 0.7214 0.2776
C15 C 0.8015(3) 0.7771(2) 0.38481(17)
H11 H 0.8103 0.8597 0.3744
C16 C 0.7331(3) 0.7387(2) 0.45743(16)
C17 C 0.7232(3) 0.6144(2) 0.47255(16)
H12 H 0.6778 0.5872 0.5213
C18 C 0.7791(3) 0.5311(2) 0.41680(15)
H13 H 0.7725 0.4485 0.4281
C19 C 0.6677(4) 0.8281(3) 0.5184(2)
H14 H 0.5689 0.8165 0.5191
H15 H 0.6884 0.9092 0.5002
H16 H 0.7042 0.8153 0.5747
loop_
_geom_bond_atom_site_label_1
_geom_bond_atom_site_label_2
_geom_bond_site_symmetry_1
_geom_bond_site_symmetry_2
S1 O1 1_555 1_555
O2 S1 1_555 1_555
N1 N2 1_555 1_555
N2 C7 1_555 1_555
C1 H1 1_555 1_555
C2 C1 1_555 1_555
H2 C2 1_555 1_555
C3 C2 1_555 1_555
H3 C3 1_555 1_555
C4 C3 1_555 1_555
H4 C4 1_555 1_555
C5 C4 1_555 1_555
H5 C5 1_555 1_555
C6 N1 1_555 1_555
C7 C8 1_555 1_555
C8 H6 1_555 1_555
C9 C8 1_555 1_555
H7 C9 1_555 1_555
C10 C9 1_555 1_555
H8 C10 1_555 1_555
C11 C10 1_555 1_555
H9 C11 1_555 1_555
C12 S1 1_555 1_555
C13 S1 1_555 1_555
C14 C13 1_555 1_555
H10 C14 1_555 1_555
C15 C14 1_555 1_555
H11 C15 1_555 1_555
C16 C15 1_555 1_555
C17 C16 1_555 1_555
H12 C17 1_555 1_555
C18 C13 1_555 1_555
H13 C18 1_555 1_555
C19 C16 1_555 1_555
H14 C19 1_555 1_555
H15 C19 1_555 1_555
H16 C19 1_555 1_555
C1 C6 1_555 1_555
C5 C6 1_555 1_555
C7 C12 1_555 1_555
C11 C12 1_555 1_555
C17 C18 1_555 1_555

#END
