
#######################################################################
#
#                 Cambridge Crystallographic Data Centre
#                                CCDC 
#
#######################################################################
#
# If this CIF has been generated from an entry in the Cambridge 
# Structural Database, then it will include bibliographic, chemical, 
# crystal, experimental, refinement or atomic coordinate data resulting 
# from the CCDC's data processing and validation procedures.
#
#######################################################################

data_POYYEI
_chemical_formula_moiety         'C41 H37 N5 O13'
_chemical_name_systematic        
'Methyl 2-methoxy-3-((2-methoxy-3-((2-methoxy-3-((2-methoxy-3-((2-methoxy-3-nitrobenzoyl)amino)benzoyl)amino)benzoyl)amino)-benzoyl)amino)benzoate'
_symmetry_cell_setting           triclinic
_symmetry_space_group_name_H-M   'P -1'
_symmetry_Int_Tables_number      2
_space_group_name_Hall           '-P 1'
loop_
_symmetry_equiv_pos_site_id
_symmetry_equiv_pos_as_xyz
1 x,y,z
2 -x,-y,-z
_cell_length_a                   12.1198(6)
_cell_length_b                   13.1343(6)
_cell_length_c                   13.7022(6)
_cell_angle_alpha                107.8780(10)
_cell_angle_beta                 108.1580(10)
_cell_angle_gamma                95.1260(10)
_cell_volume                     1930.76
_exptl_crystal_colour            colorless
_exptl_crystal_description       block
_chemical_melting_point          188-189deg.C
_cell_formula_units_Z            2
_exptl_crystal_recrystallization_method hexane/chloroform
loop_
_atom_site_label
_atom_site_type_symbol
_atom_site_fract_x
_atom_site_fract_y
_atom_site_fract_z
O1 O 0.24075(17) 0.82419(16) 0.27720(18)
O2 O 0.10701(17) 0.70197(15) 0.13566(16)
O3 O 0.07009(12) 0.55619(11) 0.24120(12)
O4 O -0.16712(14) 0.52810(13) 0.40124(14)
O5 O 0.10205(12) 0.31390(11) 0.27500(12)
O6 O 0.00922(16) -0.02319(13) 0.20912(15)
O7 O 0.24073(12) 0.21277(10) 0.09947(12)
O8 O 0.40699(17) 0.05220(13) -0.11031(14)
O9 O 0.49231(11) 0.41051(11) 0.17584(11)
O10 O 0.73408(15) 0.64969(13) 0.15415(14)
O11 O 0.51310(15) 0.63498(12) 0.39170(13)
O12 O 0.5891(3) 0.9258(2) 0.6547(2)
O13 O 0.4420(3) 0.7815(3) 0.5567(2)
N1 N 0.14728(19) 0.75838(16) 0.23293(19)
N2 N -0.02433(15) 0.45100(14) 0.35061(15)
H1 H 0.0428 0.4678 0.3430
N3 N 0.09925(15) 0.10365(14) 0.16258(15)
H2 H 0.1095 0.1727 0.1714
N4 N 0.42744(15) 0.20904(14) 0.02888(14)
H3 H 0.4038 0.2352 0.0836
N5 N 0.60696(15) 0.62073(14) 0.23875(14)
H4 H 0.5553 0.5702 0.2386
C1 C 0.03647(18) 0.64543(17) 0.29975(16)
C2 C 0.07705(19) 0.74858(18) 0.30109(18)
C3 C 0.0549(2) 0.84244(19) 0.36383(19)
H5 H 0.0868 0.9111 0.3655
C4 C -0.0148(2) 0.8338(2) 0.42416(19)
H6 H -0.0330 0.8969 0.4660
C5 C -0.0581(2) 0.73316(19) 0.42341(18)
H7 H -0.1068 0.7284 0.4641
C6 C -0.03159(18) 0.63790(17) 0.36377(16)
C7 C -0.0199(2) 0.4900(2) 0.13615(19)
H8 H -0.0905 0.4635 0.1475
H9 H 0.0099 0.4284 0.1006
H10 H -0.0392 0.5339 0.0900
C8 C -0.08151(18) 0.53381(18) 0.37338(17)
C9 C 0.00652(17) 0.26878(17) 0.29540(16)
C10 C -0.05890(18) 0.34124(18) 0.33753(17)
C11 C -0.15469(18) 0.3004(2) 0.36016(19)
H11 H -0.1987 0.3480 0.3904
C12 C -0.18416(19) 0.1903(2) 0.33794(19)
H12 H -0.2485 0.1632 0.3538
C13 C -0.12236(19) 0.11872(19) 0.29332(18)
H13 H -0.1454 0.0436 0.2781
C14 C -0.02487(18) 0.15651(17) 0.27004(16)
C15 C 0.2144(2) 0.3365(2) 0.3629(2)
H14 H 0.2125 0.3899 0.4291
H15 H 0.2771 0.3653 0.3427
H16 H 0.2292 0.2696 0.3759
C16 C 0.03025(19) 0.07134(17) 0.21296(18)
C17 C 0.22984(18) 0.09983(15) 0.06311(16)
C18 C 0.15648(18) 0.04164(16) 0.09822(17)
C19 C 0.14519(19) -0.07067(17) 0.06763(19)
H17 H 0.0969 -0.1108 0.0907
C20 C 0.2049(2) -0.12326(17) 0.00339(19)
H18 H 0.1957 -0.1996 -0.0182
C21 C 0.2780(2) -0.06650(17) -0.03008(18)
H19 H 0.3183 -0.1042 -0.0736
C22 C 0.29231(18) 0.04720(16) 0.00052(16)
C23 C 0.37955(19) 0.10232(17) -0.03444(17)
C24 C 0.54414(16) 0.38894(16) 0.09617(16)
C25 C 0.51026(17) 0.28296(17) 0.01773(17)
C26 C 0.55778(19) 0.25651(19) -0.06450(18)
H20 H 0.5372 0.1851 -0.1162
C27 C 0.6355(2) 0.3362(2) -0.06953(19)
H21 H 0.6687 0.3184 -0.1246
C28 C 0.66526(18) 0.44128(19) 0.00441(18)
H22 H 0.7165 0.4946 -0.0024
C29 C 0.62083(16) 0.47045(17) 0.08949(17)
C30 C 0.65947(18) 0.58842(18) 0.16369(17)
C31 C 0.5725(2) 0.73173(17) 0.39602(18)
C32 C 0.62479(19) 0.72486(17) 0.31673(17)
C33 C 0.6882(2) 0.81924(18) 0.3186(2)
H23 H 0.7222 0.8161 0.2650
C34 C 0.7009(2) 0.91738(19) 0.3993(2)
H24 H 0.7431 0.9812 0.3996
C35 C 0.6537(2) 0.92451(19) 0.4789(2)
H25 H 0.6655 0.9923 0.5343
C36 C 0.5874(2) 0.83065(18) 0.47836(19)
C37 C 0.5291(7) 0.8404(3) 0.5656(4)
C38 C 0.5355(8) 0.9505(9) 0.7374(6)
H26 H 0.4594 0.9691 0.7082
H27 H 0.5870 1.0117 0.8013
H28 H 0.5241 0.8872 0.7582
C39 C 0.3863(2) 0.6146(2) 0.3481(3)
H29 H 0.3597 0.6826 0.3708
H30 H 0.3544 0.5633 0.3753
H31 H 0.3586 0.5841 0.2685
C40 C 0.5512(2) 0.37914(19) 0.26849(18)
H32 H 0.5653 0.3059 0.2420
H33 H 0.5014 0.3808 0.3121
H34 H 0.6263 0.4298 0.3133
C41 C 0.1706(2) 0.25367(19) 0.0195(2)
H35 H 0.1850 0.2244 -0.0485
H36 H 0.1923 0.3328 0.0470
H37 H 0.0871 0.2313 0.0062
C42? C 0.5604(13) 0.8407(8) 0.5681(12)
C43? C 0.533(2) 0.969(2) 0.7234(13)
H38? H 0.4754 0.9105 0.7197
H39? H 0.5051 1.0365 0.7385
H40? H 0.6080 0.9771 0.7814
O14? O 0.5513(5) 0.9420(5) 0.6199(5)
O15? O 0.5446(6) 0.7711(5) 0.6052(5)
loop_
_geom_bond_atom_site_label_1
_geom_bond_atom_site_label_2
_geom_bond_site_symmetry_1
_geom_bond_site_symmetry_2
O1 N1 1_555 1_555
O2 N1 1_555 1_555
O3 C1 1_555 1_555
O4 C8 1_555 1_555
O5 C9 1_555 1_555
O6 C16 1_555 1_555
O7 C17 1_555 1_555
O8 C23 1_555 1_555
O9 C24 1_555 1_555
O10 C30 1_555 1_555
O11 C31 1_555 1_555
O12 C37 1_555 1_555
O13 C37 1_555 1_555
N1 C2 1_555 1_555
N2 H1 1_555 1_555
N3 H2 1_555 1_555
N4 H3 1_555 1_555
N5 H4 1_555 1_555
C1 C2 1_555 1_555
C2 C3 1_555 1_555
C3 H5 1_555 1_555
C4 C3 1_555 1_555
H6 C4 1_555 1_555
C5 C4 1_555 1_555
H7 C5 1_555 1_555
C6 C1 1_555 1_555
C7 O3 1_555 1_555
H8 C7 1_555 1_555
H9 C7 1_555 1_555
H10 C7 1_555 1_555
C8 N2 1_555 1_555
C9 C10 1_555 1_555
C10 N2 1_555 1_555
C11 C10 1_555 1_555
H11 C11 1_555 1_555
C12 C11 1_555 1_555
H12 C12 1_555 1_555
C13 C12 1_555 1_555
H13 C13 1_555 1_555
C14 C9 1_555 1_555
C15 O5 1_555 1_555
H14 C15 1_555 1_555
H15 C15 1_555 1_555
H16 C15 1_555 1_555
C16 N3 1_555 1_555
C17 C18 1_555 1_555
C18 N3 1_555 1_555
C19 C18 1_555 1_555
H17 C19 1_555 1_555
C20 C19 1_555 1_555
H18 C20 1_555 1_555
C21 C20 1_555 1_555
H19 C21 1_555 1_555
C22 C17 1_555 1_555
C23 N4 1_555 1_555
C24 C25 1_555 1_555
C25 N4 1_555 1_555
C26 C25 1_555 1_555
H20 C26 1_555 1_555
C27 C26 1_555 1_555
H21 C27 1_555 1_555
C28 C27 1_555 1_555
H22 C28 1_555 1_555
C29 C24 1_555 1_555
C30 N5 1_555 1_555
C31 C32 1_555 1_555
C32 N5 1_555 1_555
C33 C32 1_555 1_555
H23 C33 1_555 1_555
C34 C33 1_555 1_555
H24 C34 1_555 1_555
C35 C34 1_555 1_555
H25 C35 1_555 1_555
C36 C31 1_555 1_555
C37 C36 1_555 1_555
C38 O12 1_555 1_555
H26 C38 1_555 1_555
H27 C38 1_555 1_555
H28 C38 1_555 1_555
C39 O11 1_555 1_555
H29 C39 1_555 1_555
H30 C39 1_555 1_555
H31 C39 1_555 1_555
C40 O9 1_555 1_555
H32 C40 1_555 1_555
H33 C40 1_555 1_555
H34 C40 1_555 1_555
C41 O7 1_555 1_555
H35 C41 1_555 1_555
H36 C41 1_555 1_555
H37 C41 1_555 1_555
C5 C6 1_555 1_555
C6 C8 1_555 1_555
C13 C14 1_555 1_555
C14 C16 1_555 1_555
C21 C22 1_555 1_555
C22 C23 1_555 1_555
C28 C29 1_555 1_555
C29 C30 1_555 1_555
C35 C36 1_555 1_555

#END
