
#######################################################################
#
#                 Cambridge Crystallographic Data Centre
#                                CCDC 
#
#######################################################################
#
# If this CIF has been generated from an entry in the Cambridge 
# Structural Database, then it will include bibliographic, chemical, 
# crystal, experimental, refinement or atomic coordinate data resulting 
# from the CCDC's data processing and validation procedures.
#
#######################################################################

data_POZFEQ
_chemical_compound_source        'Malaysian liverwort Chandonanthus hirtellus'
_chemical_name_common            beta-1,15-Dihydro-8,10-diepi-chandonanthone
_chemical_formula_moiety         'C20 H32 O4'
_chemical_name_systematic        
10-Isopropyl-2,6,13-trimethyl-7,16,17-trioxatetracyclo[11.2.1.1^1,4^.0^6,8^]heptadecan-9-one
_symmetry_cell_setting           hexagonal
_symmetry_space_group_name_H-M   'P 62'
_symmetry_Int_Tables_number      171
_space_group_name_Hall           'P 62'
loop_
_symmetry_equiv_pos_site_id
_symmetry_equiv_pos_as_xyz
1 x,y,z
2 -y,x-y,2/3+z
3 -x+y,-x,1/3+z
4 -x,-y,z
5 y,-x+y,2/3+z
6 x-y,x,1/3+z
_cell_length_a                   18.6172(9)
_cell_length_b                   18.6172(9)
_cell_length_c                   9.2951(9)
_cell_angle_alpha                90
_cell_angle_beta                 90
_cell_angle_gamma                120
_cell_volume                     2790.06
_exptl_crystal_colour            colorless
_exptl_crystal_description       'long rod'
_chemical_melting_point          132.3-135.9deg.C
_cell_formula_units_Z            6
_exptl_crystal_recrystallization_method 'ethyl acetate/hexane'
loop_
_atom_site_label
_atom_site_type_symbol
_atom_site_fract_x
_atom_site_fract_y
_atom_site_fract_z
O1 O 0.46047(10) 0.20609(10) 1.09782(18)
O2 O 0.39532(10) 0.28321(10) 1.05995(19)
O3 O 0.42597(13) 0.30572(12) 0.6233(2)
O4 O 0.40369(14) 0.14259(13) 0.6085(2)
C1 C 0.28587(16) 0.08523(16) 0.7648(3)
H1 H 0.2812 0.0327 0.7337
C2 C 0.30059(17) 0.09304(16) 0.9282(3)
H2 H 0.3142 0.1484 0.9578
H3 H 0.2494 0.0541 0.9760
C3 C 0.36906(18) 0.07725(17) 0.9788(3)
H4 H 0.4116 0.0969 0.9051
H5 H 0.3462 0.0178 0.9874
C4 C 0.41021(16) 0.11756(15) 1.1217(3)
C5 C 0.35018(18) 0.10902(17) 1.2417(3)
H6 H 0.2935 0.0706 1.2132
H7 H 0.3623 0.0883 1.3288
C6 C 0.36147(17) 0.19371(18) 1.2672(3)
H8 H 0.3775 0.2105 1.3662
H9 H 0.3102 0.1936 1.2480
C7 C 0.42923(15) 0.25275(15) 1.1655(3)
C8 C 0.50114(16) 0.33131(16) 1.2307(3)
H10 H 0.4776 0.3556 1.2957
C9 C 0.53399(16) 0.38648(16) 1.0990(3)
H11 H 0.5687 0.3725 1.0413
H12 H 0.5655 0.4446 1.1258
C10 C 0.45490(16) 0.36721(16) 1.0192(3)
H13 H 0.4356 0.4033 1.0594
C11 C 0.45748(18) 0.37713(18) 0.8560(3)
H14 H 0.4096 0.3813 0.8273
H15 H 0.5064 0.4294 0.8318
C12 C 0.45852(16) 0.31000(17) 0.7666(3)
C13 C 0.37694(17) 0.24086(16) 0.7231(3)
H16 H 0.3294 0.2433 0.7629
C14 C 0.36029(17) 0.15526(17) 0.6896(3)
C15 C 0.20481(17) 0.08362(17) 0.7238(3)
H17 H 0.2032 0.1283 0.7770
C16 C 0.12901(18) 0.00217(19) 0.7680(4)
H18 H 0.1291 -0.0043 0.8705
H19 H 0.1306 -0.0431 0.7216
H20 H 0.0796 0.0025 0.7398
C17 C 0.2017(2) 0.1001(2) 0.5632(4)
H21 H 0.1477 0.0911 0.5392
H22 H 0.2128 0.0630 0.5082
H23 H 0.2427 0.1564 0.5416
C18 C 0.4685(2) 0.08663(19) 1.1667(4)
H24 H 0.4972 0.1147 1.2529
H25 H 0.5080 0.0977 1.0914
H26 H 0.4371 0.0280 1.1843
C19 C 0.56291(18) 0.3182(2) 1.3149(3)
H27 H 0.6051 0.3702 1.3532
H28 H 0.5879 0.2957 1.2527
H29 H 0.5350 0.2802 1.3925
C20 C 0.53280(18) 0.2998(2) 0.7718(4)
H30 H 0.5820 0.3530 0.7619
H31 H 0.5302 0.2643 0.6946
H32 H 0.5341 0.2755 0.8621
loop_
_geom_bond_atom_site_label_1
_geom_bond_atom_site_label_2
_geom_bond_site_symmetry_1
_geom_bond_site_symmetry_2
O1 C4 1_555 1_555
O2 C7 1_555 1_555
O3 C12 1_555 1_555
O4 C14 1_555 1_555
C1 H1 1_555 1_555
C2 C1 1_555 1_555
H2 C2 1_555 1_555
H3 C2 1_555 1_555
C3 C2 1_555 1_555
H4 C3 1_555 1_555
H5 C3 1_555 1_555
C4 C3 1_555 1_555
C5 C4 1_555 1_555
H6 C5 1_555 1_555
H7 C5 1_555 1_555
C6 C5 1_555 1_555
H8 C6 1_555 1_555
H9 C6 1_555 1_555
C7 O1 1_555 1_555
C8 C7 1_555 1_555
H10 C8 1_555 1_555
C9 C8 1_555 1_555
H11 C9 1_555 1_555
H12 C9 1_555 1_555
C10 O2 1_555 1_555
H13 C10 1_555 1_555
C11 C10 1_555 1_555
H14 C11 1_555 1_555
H15 C11 1_555 1_555
C12 C11 1_555 1_555
C13 O3 1_555 1_555
H16 C13 1_555 1_555
C14 C1 1_555 1_555
C15 C1 1_555 1_555
H17 C15 1_555 1_555
C16 C15 1_555 1_555
H18 C16 1_555 1_555
H19 C16 1_555 1_555
H20 C16 1_555 1_555
C17 C15 1_555 1_555
H21 C17 1_555 1_555
H22 C17 1_555 1_555
H23 C17 1_555 1_555
C18 C4 1_555 1_555
H24 C18 1_555 1_555
H25 C18 1_555 1_555
H26 C18 1_555 1_555
C19 C8 1_555 1_555
H27 C19 1_555 1_555
H28 C19 1_555 1_555
H29 C19 1_555 1_555
C20 C12 1_555 1_555
H30 C20 1_555 1_555
H31 C20 1_555 1_555
H32 C20 1_555 1_555
C6 C7 1_555 1_555
C9 C10 1_555 1_555
C12 C13 1_555 1_555
C13 C14 1_555 1_555

#END
