
#######################################################################
#
#                 Cambridge Crystallographic Data Centre
#                                CCDC 
#
#######################################################################
#
# If this CIF has been generated from an entry in the Cambridge 
# Structural Database, then it will include bibliographic, chemical, 
# crystal, experimental, refinement or atomic coordinate data resulting 
# from the CCDC's data processing and validation procedures.
#
#######################################################################

data_PSMCPR
_chemical_formula_moiety         'C18 H18 O2 S2'
_chemical_name_systematic        
(+-)-3-(bis(Phenylsulfinyl)methyl)-1,2-dimethyl-cyclopropene
_symmetry_cell_setting           orthorhombic
_symmetry_space_group_name_H-M   'P b c a'
_symmetry_Int_Tables_number      61
_space_group_name_Hall           '-P 2ac 2ab'
loop_
_symmetry_equiv_pos_site_id
_symmetry_equiv_pos_as_xyz
1 x,y,z
2 1/2-x,1/2+y,z
3 x,1/2-y,1/2+z
4 1/2-x,-y,1/2+z
5 -x,-y,-z
6 1/2+x,1/2-y,-z
7 -x,1/2+y,1/2-z
8 1/2+x,y,1/2-z
_cell_length_a                   20.711(9)
_cell_length_b                   15.761(7)
_cell_length_c                   10.740(3)
_cell_angle_alpha                90
_cell_angle_beta                 90
_cell_angle_gamma                90
_cell_volume                     3505.82
_cell_formula_units_Z            8
loop_
_atom_site_label
_atom_site_type_symbol
_atom_site_fract_x
_atom_site_fract_y
_atom_site_fract_z
C1 C 0.04620 0.06780 -0.12500
C2 C -0.01250 0.09780 -0.09500
C3 C 0.04340 0.11450 -0.00190
C4 C 0.07480 0.20170 0.00760
C5 C 0.09060 0.01940 -0.20690
C6 C -0.08480 0.10500 -0.11410
S1 S 0.05150 0.25680 0.15170
O1 O 0.04660 0.19110 0.25320
C7 C -0.02970 0.28090 0.10650
C8 C -0.04210 0.34620 0.02370
C9 C -0.10430 0.36620 -0.00470
C10 C -0.15330 0.32280 0.04340
C11 C -0.14250 0.25730 0.12280
C12 C -0.07930 0.23550 0.15610
S2 S 0.16190 0.18840 -0.00270
O2 O 0.18390 0.14010 0.10830
C13 C 0.18760 0.29670 0.01870
C14 C 0.17950 0.35390 -0.07710
C15 C 0.20590 0.43420 -0.06000
C16 C 0.23850 0.45290 0.05200
C17 C 0.24530 0.39510 0.14400
C18 C 0.22020 0.31620 0.12790
H1 H 0.06600 0.07500 0.06600
H2 H 0.05900 0.23800 -0.07100
H3 H 0.11600 0.05200 -0.27900
H4 H 0.06200 -0.02900 -0.25100
H5 H 0.12600 -0.00900 -0.14800
H6 H -0.10200 0.04600 -0.15200
H7 H -0.09900 0.15500 -0.17600
H8 H -0.11200 0.10900 -0.02900
H9 H 0.00100 0.37700 -0.00500
H10 H -0.11200 0.40100 -0.09100
H11 H -0.20200 0.34000 0.01900
H12 H -0.17300 0.22400 0.16400
H13 H -0.06700 0.19000 0.22000
H14 H 0.14800 0.34300 -0.16400
H15 H 0.20200 0.46700 -0.14300
H16 H 0.25900 0.51500 0.06500
H17 H 0.27100 0.39600 0.23800
H18 H 0.23000 0.27800 0.19900
loop_
_geom_bond_atom_site_label_1
_geom_bond_atom_site_label_2
_geom_bond_site_symmetry_1
_geom_bond_site_symmetry_2
C1 C2 1_555 1_555
C2 C3 1_555 1_555
C3 C1 1_555 1_555
C4 C3 1_555 1_555
C5 C1 1_555 1_555
C6 C2 1_555 1_555
S1 C4 1_555 1_555
O1 S1 1_555 1_555
C7 S1 1_555 1_555
C8 C7 1_555 1_555
C9 C8 1_555 1_555
C10 C9 1_555 1_555
C11 C10 1_555 1_555
C12 C7 1_555 1_555
S2 C4 1_555 1_555
O2 S2 1_555 1_555
C13 S2 1_555 1_555
C14 C13 1_555 1_555
C15 C14 1_555 1_555
C16 C15 1_555 1_555
C17 C16 1_555 1_555
C18 C13 1_555 1_555
H1 C3 1_555 1_555
H2 C4 1_555 1_555
H3 C5 1_555 1_555
H4 C5 1_555 1_555
H5 C5 1_555 1_555
H6 C6 1_555 1_555
H7 C6 1_555 1_555
H8 C6 1_555 1_555
H9 C8 1_555 1_555
H10 C9 1_555 1_555
H11 C10 1_555 1_555
H12 C11 1_555 1_555
H13 C12 1_555 1_555
H14 C14 1_555 1_555
H15 C15 1_555 1_555
H16 C16 1_555 1_555
H17 C17 1_555 1_555
H18 C18 1_555 1_555
C11 C12 1_555 1_555
C17 C18 1_555 1_555

#END
