
#######################################################################
#
#                 Cambridge Crystallographic Data Centre
#                                CCDC 
#
#######################################################################
#
# If this CIF has been generated from an entry in the Cambridge 
# Structural Database, then it will include bibliographic, chemical, 
# crystal, experimental, refinement or atomic coordinate data resulting 
# from the CCDC's data processing and validation procedures.
#
#######################################################################

data_PTZCNC
_chemical_formula_moiety         'C16 H14 N4 O2 S2'
_chemical_name_systematic        
3,7-bis(p-Methoxyphenyl)-1,5-dithia-2,4,6,8-tetrazocine
_symmetry_cell_setting           orthorhombic
_symmetry_space_group_name_H-M   'P b c a'
_symmetry_Int_Tables_number      61
_space_group_name_Hall           '-P 2ac 2ab'
loop_
_symmetry_equiv_pos_site_id
_symmetry_equiv_pos_as_xyz
1 x,y,z
2 1/2-x,-y,1/2+z
3 1/2+x,1/2-y,-z
4 -x,1/2+y,1/2-z
5 -x,-y,-z
6 1/2+x,y,1/2-z
7 1/2-x,1/2+y,z
8 x,1/2-y,1/2+z
_cell_length_a                   6.3967(4)
_cell_length_b                   34.486(5)
_cell_length_c                   7.3826(4)
_cell_angle_alpha                90
_cell_angle_beta                 90
_cell_angle_gamma                90
_cell_volume                     1628.58
_exptl_crystal_colour            yellow
_chemical_melting_point          265deg.C
_cell_formula_units_Z            4
loop_
_atom_site_label
_atom_site_type_symbol
_atom_site_fract_x
_atom_site_fract_y
_atom_site_fract_z
S1 S 0.75050 0.48020 0.59960
N1 N 0.74070 0.52510 0.57010
N2 N 0.57610 0.45000 0.55690
C1 C 0.89960 0.60030 0.58610
C2 C 0.98990 0.63730 0.58460
C3 C 0.88320 0.66720 0.49810
C4 C 0.69320 0.66000 0.41410
C5 C 0.60630 0.62330 0.41760
C6 C 0.70940 0.59290 0.50510
C7 C 0.61740 0.55300 0.50700
C8 C 1.14720 0.71370 0.57550
O1 O 0.95440 0.70450 0.48640
H1 H 0.97600 0.58100 0.64500
H2 H 1.12000 0.64000 0.63300
H3 H 0.62300 0.68200 0.35500
H4 H 0.47700 0.61800 0.35600
H5 H 1.16300 0.74000 0.55200
H6 H 1.12200 0.70700 0.69800
H7 H 1.26400 0.69900 0.52700
C7D C 0.38260 0.44700 0.49300
N2D N 0.42390 0.55000 0.44310
N1D N 0.25930 0.47490 0.42990
C6D C 0.29060 0.40710 0.49490
S1D S 0.24950 0.51980 0.40040
C1D C 0.10040 0.39970 0.41390
C5D C 0.39370 0.37670 0.58240
C2D C 0.01010 0.36270 0.41540
H1D H 0.02400 0.41900 0.35500
C4D C 0.30680 0.34000 0.58590
H4D H 0.52300 0.38200 0.64400
C3D C 0.11680 0.33280 0.50190
H2D H -0.12000 0.36000 0.36700
H3D H 0.37700 0.31800 0.64500
O1D O 0.04560 0.29550 0.51360
C8D C -0.14720 0.28630 0.42450
H5D H -0.16300 0.26000 0.44800
H6D H -0.12200 0.29300 0.30200
H7D H -0.26400 0.30100 0.47300
loop_
_geom_bond_atom_site_label_1
_geom_bond_atom_site_label_2
_geom_bond_site_symmetry_1
_geom_bond_site_symmetry_2
S1 N1 1_555 1_555
N1 C7 1_555 1_555
N2 S1 1_555 1_555
C1 C2 1_555 1_555
C2 C3 1_555 1_555
C3 C4 1_555 1_555
C4 C5 1_555 1_555
C5 C6 1_555 1_555
C6 C1 1_555 1_555
C7 C6 1_555 1_555
C8 O1 1_555 1_555
O1 C3 1_555 1_555
H1 C1 1_555 1_555
H2 C2 1_555 1_555
H3 C4 1_555 1_555
H4 C5 1_555 1_555
H5 C8 1_555 1_555
H6 C8 1_555 1_555
H7 C8 1_555 1_555
C7D N2 1_555 1_555
N2D C7 1_555 1_555
N1D C7D 1_555 1_555
C6D C7D 1_555 1_555
S1D N2D 1_555 1_555
C1D C6D 1_555 1_555
C5D C6D 1_555 1_555
C2D C1D 1_555 1_555
H1D C1D 1_555 1_555
C4D C5D 1_555 1_555
H4D C5D 1_555 1_555
C3D C2D 1_555 1_555
H2D C2D 1_555 1_555
H3D C4D 1_555 1_555
O1D C3D 1_555 1_555
C8D O1D 1_555 1_555
H5D C8D 1_555 1_555
H6D C8D 1_555 1_555
H7D C8D 1_555 1_555
N1D S1D 1_555 1_555
C4D C3D 1_555 1_555

#END
