
#######################################################################
#
#                 Cambridge Crystallographic Data Centre
#                                CCDC 
#
#######################################################################
#
# If this CIF has been generated from an entry in the Cambridge 
# Structural Database, then it will include bibliographic, chemical, 
# crystal, experimental, refinement or atomic coordinate data resulting 
# from the CCDC's data processing and validation procedures.
#
#######################################################################

data_PUBJEC
_chemical_formula_moiety         'C43 H35 N3 O2'
_chemical_name_systematic        
2,3-bis(N-Benzyl-2'-methyl-3'-indolyl)-N-benzylmaleimide
_symmetry_cell_setting           monoclinic
_symmetry_space_group_name_H-M   'P 21/n'
_symmetry_Int_Tables_number      14
_space_group_name_Hall           '-P 2yn'
loop_
_symmetry_equiv_pos_site_id
_symmetry_equiv_pos_as_xyz
1 x,y,z
2 1/2-x,1/2+y,1/2-z
3 -x,-y,-z
4 1/2+x,1/2-y,1/2+z
_cell_length_a                   9.2656(9)
_cell_length_b                   15.9306(16)
_cell_length_c                   22.717(2)
_cell_angle_alpha                90
_cell_angle_beta                 90.283(2)
_cell_angle_gamma                90
_cell_volume                     3353.14
_exptl_crystal_colour            red
_exptl_crystal_description       prismatic
_cell_formula_units_Z            4
_exptl_crystal_preparation       fluorescent
loop_
_atom_site_label
_atom_site_type_symbol
_atom_site_fract_x
_atom_site_fract_y
_atom_site_fract_z
O1 O 0.1152(2) 0.54367(12) 0.10362(7)
O2 O 0.4189(2) 0.76525(12) 0.08597(8)
N1 N 0.2598(2) 0.65483(13) 0.07914(8)
N2 N 0.1132(2) 0.48728(13) 0.29596(9)
N3 N 0.4874(3) 0.79930(13) 0.29898(9)
C1 C 0.1989(3) 0.59837(17) 0.11779(11)
C2 C 0.2603(3) 0.61724(15) 0.17783(10)
C3 C 0.3524(3) 0.68249(15) 0.17190(10)
C4 C 0.3538(3) 0.70826(17) 0.10854(11)
C5 C 0.2297(3) 0.56515(15) 0.22869(10)
C6 C 0.0970(3) 0.53513(16) 0.24601(11)
C7 C 0.2571(3) 0.48829(16) 0.31276(11)
C8 C 0.3335(3) 0.53635(15) 0.27180(10)
C9 C 0.4813(3) 0.54608(16) 0.27923(11)
H1 H 0.5350 0.5767 0.2522
C10 C 0.5471(3) 0.50951(18) 0.32731(13)
H2 H 0.6458 0.5163 0.3331
C11 C 0.4676(4) 0.46274(19) 0.36714(13)
H3 H 0.5148 0.4390 0.3993
C12 C 0.3228(3) 0.45028(17) 0.36090(12)
H4 H 0.2707 0.4180 0.3875
C13 C -0.0011(3) 0.44954(16) 0.33076(11)
H5 H 0.0333 0.3965 0.3465
H6 H -0.0825 0.4376 0.3051
C14 C -0.0521(3) 0.50342(17) 0.38101(11)
C15 C -0.0326(4) 0.5880(2) 0.38316(15)
H7 H 0.0176 0.6146 0.3532
C16 C -0.0868(5) 0.6351(2) 0.42969(18)
H8 H -0.0728 0.6929 0.4309
C17 C -0.1606(4) 0.5957(3) 0.47339(15)
H9 H -0.1980 0.6269 0.5044
C18 C -0.1797(3) 0.5121(2) 0.47196(14)
H10 H -0.2297 0.4853 0.5020
C19 C -0.1251(3) 0.46643(18) 0.42588(13)
H11 H -0.1384 0.4086 0.4253
C20 C -0.0506(3) 0.55298(17) 0.22206(12)
H12 H -0.0437 0.5930 0.1906
H13 H -0.1100 0.5755 0.2527
H14 H -0.0927 0.5019 0.2075
C21 C 0.4347(3) 0.72885(14) 0.21621(10)
C22 C 0.3787(3) 0.76009(16) 0.26762(11)
C23 C 0.6133(3) 0.79394(16) 0.26750(12)
C24 C 0.5838(3) 0.75142(15) 0.21502(11)
C25 C 0.6942(3) 0.74045(17) 0.17444(13)
H15 H 0.6778 0.7109 0.1397
C26 C 0.8278(4) 0.7739(2) 0.18647(18)
H16 H 0.9013 0.7687 0.1590
C27 C 0.8545(4) 0.8153(2) 0.23889(19)
H17 H 0.9464 0.8364 0.2463
C28 C 0.7484(4) 0.82596(19) 0.28025(15)
H18 H 0.7669 0.8537 0.3155
C29 C 0.4674(3) 0.84649(17) 0.35338(11)
H19 H 0.3908 0.8871 0.3474
H20 H 0.5553 0.8774 0.3619
C30 C 0.4307(3) 0.79278(18) 0.40600(11)
C31 C 0.3491(3) 0.82738(19) 0.45005(14)
H21 H 0.3173 0.8825 0.4468
C32 C 0.3144(4) 0.7810(3) 0.49895(15)
H22 H 0.2570 0.8045 0.5281
C33 C 0.3634(4) 0.7011(3) 0.50485(15)
H23 H 0.3409 0.6704 0.5384
C34 C 0.4457(4) 0.6658(2) 0.46171(16)
H24 H 0.4790 0.6110 0.4657
C35 C 0.4788(3) 0.71191(19) 0.41229(13)
H25 H 0.5346 0.6879 0.3828
C36 C 0.2281(3) 0.75836(19) 0.29002(12)
H26 H 0.1638 0.7415 0.2589
H27 H 0.2017 0.8133 0.3036
H28 H 0.2216 0.7192 0.3220
C37 C 0.2164(3) 0.66431(17) 0.01741(10)
H29 H 0.2388 0.7210 0.0048
H30 H 0.1127 0.6571 0.0145
C38 C 0.2881(3) 0.60339(17) -0.02379(11)
C39 C 0.2113(3) 0.53639(18) -0.04691(12)
H31 H 0.1162 0.5278 -0.0354
C40 C 0.2735(4) 0.4825(2) -0.08659(14)
H32 H 0.2207 0.4377 -0.1016
C41 C 0.4104(5) 0.4945(3) -0.10377(15)
H33 H 0.4518 0.4580 -0.1308
C42 C 0.4893(4) 0.5599(3) -0.08178(19)
H34 H 0.5842 0.5678 -0.0937
C43 C 0.4271(4) 0.6146(2) -0.04145(15)
H35 H 0.4807 0.6591 -0.0265
loop_
_geom_bond_atom_site_label_1
_geom_bond_atom_site_label_2
_geom_bond_site_symmetry_1
_geom_bond_site_symmetry_2
O1 C1 1_555 1_555
O2 C4 1_555 1_555
N1 C1 1_555 1_555
N2 C6 1_555 1_555
N3 C22 1_555 1_555
C1 C2 1_555 1_555
C2 C3 1_555 1_555
C3 C4 1_555 1_555
C4 N1 1_555 1_555
C5 C2 1_555 1_555
C6 C5 1_555 1_555
C7 N2 1_555 1_555
C8 C5 1_555 1_555
C9 C8 1_555 1_555
H1 C9 1_555 1_555
C10 C9 1_555 1_555
H2 C10 1_555 1_555
C11 C10 1_555 1_555
H3 C11 1_555 1_555
C12 C7 1_555 1_555
H4 C12 1_555 1_555
C13 N2 1_555 1_555
H5 C13 1_555 1_555
H6 C13 1_555 1_555
C14 C13 1_555 1_555
C15 C14 1_555 1_555
H7 C15 1_555 1_555
C16 C15 1_555 1_555
H8 C16 1_555 1_555
C17 C16 1_555 1_555
H9 C17 1_555 1_555
C18 C17 1_555 1_555
H10 C18 1_555 1_555
C19 C14 1_555 1_555
H11 C19 1_555 1_555
C20 C6 1_555 1_555
H12 C20 1_555 1_555
H13 C20 1_555 1_555
H14 C20 1_555 1_555
C21 C3 1_555 1_555
C22 C21 1_555 1_555
C23 N3 1_555 1_555
C24 C21 1_555 1_555
C25 C24 1_555 1_555
H15 C25 1_555 1_555
C26 C25 1_555 1_555
H16 C26 1_555 1_555
C27 C26 1_555 1_555
H17 C27 1_555 1_555
C28 C23 1_555 1_555
H18 C28 1_555 1_555
C29 N3 1_555 1_555
H19 C29 1_555 1_555
H20 C29 1_555 1_555
C30 C29 1_555 1_555
C31 C30 1_555 1_555
H21 C31 1_555 1_555
C32 C31 1_555 1_555
H22 C32 1_555 1_555
C33 C32 1_555 1_555
H23 C33 1_555 1_555
C34 C33 1_555 1_555
H24 C34 1_555 1_555
C35 C30 1_555 1_555
H25 C35 1_555 1_555
C36 C22 1_555 1_555
H26 C36 1_555 1_555
H27 C36 1_555 1_555
H28 C36 1_555 1_555
C37 N1 1_555 1_555
H29 C37 1_555 1_555
H30 C37 1_555 1_555
C38 C37 1_555 1_555
C39 C38 1_555 1_555
H31 C39 1_555 1_555
C40 C39 1_555 1_555
H32 C40 1_555 1_555
C41 C40 1_555 1_555
H33 C41 1_555 1_555
C42 C41 1_555 1_555
H34 C42 1_555 1_555
C43 C38 1_555 1_555
H35 C43 1_555 1_555
C7 C8 1_555 1_555
C11 C12 1_555 1_555
C18 C19 1_555 1_555
C23 C24 1_555 1_555
C27 C28 1_555 1_555
C34 C35 1_555 1_555
C42 C43 1_555 1_555

#END
