
#######################################################################
#
#                 Cambridge Crystallographic Data Centre
#                                CCDC 
#
#######################################################################
#
# If this CIF has been generated from an entry in the Cambridge 
# Structural Database, then it will include bibliographic, chemical, 
# crystal, experimental, refinement or atomic coordinate data resulting 
# from the CCDC's data processing and validation procedures.
#
#######################################################################

data_PUBJIG
_chemical_formula_moiety         'C7 H13 N1 O3'
_chemical_name_systematic        
5-(Hydroxymethyl)-5-methoxy-1-methylpyrrolidin-2-one
_symmetry_cell_setting           triclinic
_symmetry_space_group_name_H-M   'P -1'
_symmetry_Int_Tables_number      2
_space_group_name_Hall           '-P 1'
loop_
_symmetry_equiv_pos_site_id
_symmetry_equiv_pos_as_xyz
1 x,y,z
2 -x,-y,-z
_cell_length_a                   6.916(2)
_cell_length_b                   7.569(2)
_cell_length_c                   7.916(3)
_cell_angle_alpha                95.263(4)
_cell_angle_beta                 100.003(4)
_cell_angle_gamma                92.039(4)
_cell_volume                     405.8
_exptl_crystal_colour            colorless
_exptl_crystal_description       block
_chemical_melting_point          '79-81 deg.C'
_cell_formula_units_Z            2
loop_
_atom_site_label
_atom_site_type_symbol
_atom_site_fract_x
_atom_site_fract_y
_atom_site_fract_z
O1 O 0.17801(19) 0.01004(16) 0.39984(15)
O2 O 0.33211(18) 0.25628(17) 0.95278(15)
O3 O 0.6859(2) 0.31818(17) 0.68016(19)
H1 H 0.7218 0.2216 0.6451
N1 N 0.3241(2) 0.10521(17) 0.67567(17)
C1 C 0.3727(3) -0.0683(2) 0.7289(2)
H2 H 0.2585 -0.1483 0.6984
H3 H 0.4165 -0.0587 0.8515
H4 H 0.4755 -0.1129 0.6721
C2 C 0.2261(2) 0.1282(2) 0.5185(2)
C3 C 0.1859(3) 0.3206(2) 0.5118(3)
H5 H 0.0454 0.3364 0.4907
H6 H 0.2423 0.3687 0.4207
C4 C 0.2798(3) 0.4115(2) 0.6843(3)
H7 H 0.1810 0.4647 0.7430
H8 H 0.3747 0.5042 0.6707
C5 C 0.3824(3) 0.2684(2) 0.7882(2)
C6 C 0.6048(3) 0.3004(3) 0.8287(2)
H9 H 0.6378 0.4075 0.9072
H10 H 0.6625 0.2020 0.8860
C7 C 0.1296(3) 0.2264(3) 0.9603(3)
H11 H 0.0627 0.3340 0.9424
H12 H 0.1170 0.1907 1.0713
H13 H 0.0724 0.1346 0.8723
loop_
_geom_bond_atom_site_label_1
_geom_bond_atom_site_label_2
_geom_bond_site_symmetry_1
_geom_bond_site_symmetry_2
O1 C2 1_555 1_555
O2 C5 1_555 1_555
O3 H1 1_555 1_555
N1 C1 1_555 1_555
C1 H2 1_555 1_555
H3 C1 1_555 1_555
H4 C1 1_555 1_555
C2 N1 1_555 1_555
C3 C2 1_555 1_555
H5 C3 1_555 1_555
H6 C3 1_555 1_555
C4 C3 1_555 1_555
H7 C4 1_555 1_555
H8 C4 1_555 1_555
C5 N1 1_555 1_555
C6 O3 1_555 1_555
H9 C6 1_555 1_555
H10 C6 1_555 1_555
C7 O2 1_555 1_555
H11 C7 1_555 1_555
H12 C7 1_555 1_555
H13 C7 1_555 1_555
C4 C5 1_555 1_555
C5 C6 1_555 1_555

#END
