
#######################################################################
#
#                 Cambridge Crystallographic Data Centre
#                                CCDC 
#
#######################################################################
#
# If this CIF has been generated from an entry in the Cambridge 
# Structural Database, then it will include bibliographic, chemical, 
# crystal, experimental, refinement or atomic coordinate data resulting 
# from the CCDC's data processing and validation procedures.
#
#######################################################################

data_PUBLIJ
_chemical_formula_moiety         'C25 H23 N5 O2'
_chemical_name_systematic        
2'-(6-(Benzylamino)pyridin-2-yl)-5',6',7',7a'-tetrahydrospiro[indole-3,3'-pyrrolo[1,2-c]imidazole]-1',2(1H,2'H)-dione
_symmetry_cell_setting           orthorhombic
_symmetry_space_group_name_H-M   'P 21 21 21'
_symmetry_Int_Tables_number      19
_space_group_name_Hall           'P 2ac 2ab'
loop_
_symmetry_equiv_pos_site_id
_symmetry_equiv_pos_as_xyz
1 x,y,z
2 1/2-x,-y,1/2+z
3 -x,1/2+y,1/2-z
4 1/2+x,1/2-y,-z
_cell_length_a                   7.744(2)
_cell_length_b                   14.571(4)
_cell_length_c                   18.433(6)
_cell_angle_alpha                90
_cell_angle_beta                 90
_cell_angle_gamma                90
_cell_volume                     2079.94
_exptl_crystal_colour            colorless
_exptl_crystal_description       bar
_cell_formula_units_Z            4
loop_
_atom_site_label
_atom_site_type_symbol
_atom_site_fract_x
_atom_site_fract_y
_atom_site_fract_z
N1 N 0.41077(16) 0.12201(9) 0.17595(6)
O1 O 0.20332(17) 0.34591(9) 0.28505(6)
N2 N 0.25398(18) 0.20087(9) 0.01200(7)
H1 H 0.3032 0.2118 -0.0289
O2 O 0.31668(18) 0.33543(8) 0.07238(7)
N3 N -0.03284(16) 0.27724(8) 0.12935(6)
C1 C 0.17127(19) 0.11819(10) 0.02964(7)
N4 N 0.19961(16) 0.23013(8) 0.19961(6)
C2 C 0.1495(2) 0.31207(10) 0.22904(8)
C3 C -0.1843(2) 0.23248(11) 0.16516(8)
H2 H -0.1481 0.1941 0.2054
H3 H -0.2493 0.1956 0.1309
C4 C 0.1690(2) 0.03790(12) -0.00999(8)
H4 H 0.2174 0.0349 -0.0561
C5 C 0.09666(18) 0.12386(9) 0.09853(7)
C6 C 0.3559(2) 0.16028(13) 0.30041(8)
H5 H 0.2991 0.1969 0.3342
C7 C 0.2464(2) 0.26160(10) 0.06797(8)
N5 N 0.5998(2) 0.00438(10) 0.14603(8)
H6 H 0.6573 -0.0428 0.1603
C8 C 0.0196(2) -0.03410(11) 0.08984(9)
H7 H -0.0309 -0.0862 0.1097
C9 C 0.5684(2) -0.06186(11) 0.02320(9)
C10 C 0.0921(2) -0.03811(12) 0.02144(9)
H8 H 0.0891 -0.0931 -0.0041
C11 C 0.0129(2) 0.35340(10) 0.17966(8)
H9 H 0.0608 0.4053 0.1525
C12 C 0.0217(2) 0.04718(10) 0.12912(8)
H10 H -0.0266 0.0499 0.1753
C13 C 0.32799(19) 0.16949(10) 0.22691(7)
C14 C 0.5936(2) 0.02284(12) 0.06919(9)
H11 H 0.7003 0.0526 0.0548
H12 H 0.4998 0.0653 0.0596
C15 C 0.5209(2) 0.05662(11) 0.19750(8)
C16 C 0.12399(18) 0.21961(9) 0.12646(7)
C17 C 0.5552(2) 0.04009(13) 0.27127(9)
H13 H 0.6313 -0.0059 0.2854
C18 C 0.6286(3) -0.06046(13) -0.04781(10)
H14 H 0.6919 -0.0102 -0.0641
C19 C -0.2896(2) 0.31392(13) 0.19140(11)
H15 H -0.3669 0.2961 0.2303
H16 H -0.3570 0.3401 0.1521
C20 C 0.4736(3) 0.09333(15) 0.32128(9)
H17 H 0.4971 0.0848 0.3703
C21 C -0.1539(2) 0.38171(14) 0.21823(11)
H18 H -0.1407 0.3776 0.2705
H19 H -0.1857 0.4441 0.2056
C22 C 0.4808(3) -0.13803(14) 0.04757(13)
H20 H 0.4432 -0.1411 0.0954
C23 C 0.5962(4) -0.13219(15) -0.09454(13)
H21 H 0.6359 -0.1298 -0.1421
C24 C 0.5051(3) -0.20725(16) -0.07061(15)
H22 H 0.4820 -0.2555 -0.1022
C25 C 0.4485(3) -0.21117(14) -0.00038(17)
H23 H 0.3883 -0.2625 0.0158
loop_
_geom_bond_atom_site_label_1
_geom_bond_atom_site_label_2
_geom_bond_site_symmetry_1
_geom_bond_site_symmetry_2
N1 C13 1_555 1_555
O1 C2 1_555 1_555
N2 H1 1_555 1_555
O2 C7 1_555 1_555
N3 C3 1_555 1_555
C1 N2 1_555 1_555
N4 C2 1_555 1_555
C2 C11 1_555 1_555
C3 H2 1_555 1_555
H3 C3 1_555 1_555
C4 C1 1_555 1_555
H4 C4 1_555 1_555
C5 C1 1_555 1_555
C6 H5 1_555 1_555
C7 N2 1_555 1_555
N5 H6 1_555 1_555
C8 H7 1_555 1_555
C9 C14 1_555 1_555
C10 C4 1_555 1_555
H8 C10 1_555 1_555
C11 N3 1_555 1_555
H9 C11 1_555 1_555
C12 C5 1_555 1_555
H10 C12 1_555 1_555
C13 N4 1_555 1_555
C14 N5 1_555 1_555
H11 C14 1_555 1_555
H12 C14 1_555 1_555
C15 N1 1_555 1_555
C16 N3 1_555 1_555
C17 C15 1_555 1_555
H13 C17 1_555 1_555
C18 C9 1_555 1_555
H14 C18 1_555 1_555
C19 C3 1_555 1_555
H15 C19 1_555 1_555
H16 C19 1_555 1_555
C20 C6 1_555 1_555
H17 C20 1_555 1_555
C21 C11 1_555 1_555
H18 C21 1_555 1_555
H19 C21 1_555 1_555
C22 C9 1_555 1_555
H20 C22 1_555 1_555
C23 C18 1_555 1_555
H21 C23 1_555 1_555
C24 C23 1_555 1_555
H22 C24 1_555 1_555
C25 C22 1_555 1_555
H23 C25 1_555 1_555
N4 C16 1_555 1_555
C5 C16 1_555 1_555
C6 C13 1_555 1_555
C7 C16 1_555 1_555
N5 C15 1_555 1_555
C8 C10 1_555 1_555
C8 C12 1_555 1_555
C17 C20 1_555 1_555
C19 C21 1_555 1_555
C24 C25 1_555 1_555

#END
