
#######################################################################
#
#                 Cambridge Crystallographic Data Centre
#                                CCDC 
#
#######################################################################
#
# If this CIF has been generated from an entry in the Cambridge 
# Structural Database, then it will include bibliographic, chemical, 
# crystal, experimental, refinement or atomic coordinate data resulting 
# from the CCDC's data processing and validation procedures.
#
#######################################################################

data_PUCHUS
_chemical_formula_moiety         'C21 H22 N2 O1'
_chemical_name_systematic        
8'-Methoxy-2-methyl-1',2',3',3a'-tetrahydro-5'H-spiro[indole-3,4'-pyrrolo[1,2-a]quinoline]
_symmetry_cell_setting           monoclinic
_symmetry_space_group_name_H-M   'P 21/c'
_symmetry_Int_Tables_number      14
_space_group_name_Hall           '-P 2ybc'
loop_
_symmetry_equiv_pos_site_id
_symmetry_equiv_pos_as_xyz
1 x,y,z
2 -x,1/2+y,1/2-z
3 -x,-y,-z
4 x,1/2-y,1/2+z
_cell_length_a                   9.4570(19)
_cell_length_b                   12.543(3)
_cell_length_c                   14.467(3)
_cell_angle_alpha                90
_cell_angle_beta                 94.72(3)
_cell_angle_gamma                90
_cell_volume                     1710.24
_cell_formula_units_Z            4
loop_
_atom_site_label
_atom_site_type_symbol
_atom_site_fract_x
_atom_site_fract_y
_atom_site_fract_z
O1 O 0.2439(2) -0.32134(18) 0.04514(17)
N1 N 0.2386(3) 0.3591(2) 0.1268(2)
C1 C 0.3060(3) 0.1827(3) 0.0920(2)
N2 N 0.4345(3) 0.0170(2) 0.13408(19)
C2 C 0.2040(3) 0.1815(3) 0.1666(2)
C3 C 0.1460(4) 0.1009(3) 0.2165(2)
H1 H 0.1694 0.0300 0.2068
C4 C 0.0523(4) 0.1280(4) 0.2815(3)
H2 H 0.0124 0.0745 0.3155
C5 C 0.0174(4) 0.2322(4) 0.2963(3)
H3 H -0.0472 0.2482 0.3395
C6 C 0.0763(4) 0.3141(3) 0.2484(3)
H4 H 0.0544 0.3850 0.2596
C7 C 0.1683(4) 0.2869(3) 0.1838(2)
C8 C 0.3170(4) 0.3024(3) 0.0766(3)
C9 C 0.4052(5) 0.3524(3) 0.0078(3)
H5 H 0.3957 0.4285 0.0105
H6 H 0.3740 0.3278 -0.0533
H7 H 0.5028 0.3331 0.0220
C10 C 0.2489(4) 0.1273(3) 0.0010(2)
H8 H 0.1532 0.1520 -0.0164
H9 H 0.3077 0.1468 -0.0482
C11 C 0.2477(3) 0.0079(3) 0.0109(2)
C12 C 0.3405(3) -0.0434(3) 0.0779(2)
C13 C 0.3324(3) -0.1536(3) 0.0878(2)
H10 H 0.3897 -0.1875 0.1342
C14 C 0.2403(3) -0.2131(3) 0.0294(2)
C15 C 0.1508(4) -0.1651(3) -0.0387(2)
H11 H 0.0897 -0.2050 -0.0788
C16 C 0.1563(3) -0.0547(3) -0.0446(2)
H12 H 0.0945 -0.0211 -0.0886
C17 C 0.1498(5) -0.3876(3) -0.0117(3)
H13 H 0.1630 -0.4606 0.0070
H14 H 0.1696 -0.3800 -0.0754
H15 H 0.0536 -0.3668 -0.0048
C18 C 0.4516(3) 0.1309(3) 0.1206(2)
H16 H 0.5145 0.1423 0.0710
C19 C 0.5269(4) 0.1683(3) 0.2120(2)
H17 H 0.5883 0.2286 0.2024
H18 H 0.4591 0.1883 0.2557
C20 C 0.6129(4) 0.0716(3) 0.2463(3)
H19 H 0.6284 0.0720 0.3134
H20 H 0.7042 0.0704 0.2203
C21 C 0.5236(4) -0.0241(3) 0.2131(2)
H21 H 0.5831 -0.0820 0.1945
H22 H 0.4664 -0.0494 0.2613
loop_
_geom_bond_atom_site_label_1
_geom_bond_atom_site_label_2
_geom_bond_site_symmetry_1
_geom_bond_site_symmetry_2
O1 C14 1_555 1_555
N1 C7 1_555 1_555
C1 C2 1_555 1_555
N2 C12 1_555 1_555
C2 C3 1_555 1_555
C3 H1 1_555 1_555
C4 C3 1_555 1_555
H2 C4 1_555 1_555
C5 C4 1_555 1_555
H3 C5 1_555 1_555
C6 C5 1_555 1_555
H4 C6 1_555 1_555
C7 C2 1_555 1_555
C8 N1 1_555 1_555
C9 C8 1_555 1_555
H5 C9 1_555 1_555
H6 C9 1_555 1_555
H7 C9 1_555 1_555
C10 C1 1_555 1_555
H8 C10 1_555 1_555
H9 C10 1_555 1_555
C11 C10 1_555 1_555
C12 C11 1_555 1_555
C13 C12 1_555 1_555
H10 C13 1_555 1_555
C14 C13 1_555 1_555
C15 C14 1_555 1_555
H11 C15 1_555 1_555
C16 C11 1_555 1_555
H12 C16 1_555 1_555
C17 O1 1_555 1_555
H13 C17 1_555 1_555
H14 C17 1_555 1_555
H15 C17 1_555 1_555
C18 C1 1_555 1_555
H16 C18 1_555 1_555
C19 C18 1_555 1_555
H17 C19 1_555 1_555
H18 C19 1_555 1_555
C20 C19 1_555 1_555
H19 C20 1_555 1_555
H20 C20 1_555 1_555
C21 N2 1_555 1_555
H21 C21 1_555 1_555
H22 C21 1_555 1_555
C1 C8 1_555 1_555
N2 C18 1_555 1_555
C6 C7 1_555 1_555
C15 C16 1_555 1_555
C20 C21 1_555 1_555

#END
