
#######################################################################
#
#                 Cambridge Crystallographic Data Centre
#                                CCDC 
#
#######################################################################
#
# If this CIF has been generated from an entry in the Cambridge 
# Structural Database, then it will include bibliographic, chemical, 
# crystal, experimental, refinement or atomic coordinate data resulting 
# from the CCDC's data processing and validation procedures.
#
#######################################################################

data_PUCNAE
_chemical_formula_moiety         'C44 H22 Br2 O2,0.8(C1 H2 Cl2)'
_chemical_name_systematic        
'9,18-bis(4-Bromophenyl)tetrabenzo[a,de,j,mn]tetracene-4,13-dione dichloromethane solvate'
_symmetry_cell_setting           triclinic
_symmetry_space_group_name_H-M   'P -1'
_symmetry_Int_Tables_number      2
_space_group_name_Hall           '-P 1'
loop_
_symmetry_equiv_pos_site_id
_symmetry_equiv_pos_as_xyz
1 x,y,z
2 -x,-y,-z
_cell_length_a                   9.5559(5)
_cell_length_b                   13.1086(7)
_cell_length_c                   15.3621(8)
_cell_angle_alpha                105.124(2)
_cell_angle_beta                 102.639(2)
_cell_angle_gamma                103.148(2)
_cell_volume                     1727.97
_exptl_crystal_colour            red
_exptl_crystal_description       prism
_chemical_melting_point          '633 K'
_cell_formula_units_Z            2
_exptl_crystal_recrystallization_method 'dichloromethane/ethyl acetate'
loop_
_atom_site_label
_atom_site_type_symbol
_atom_site_fract_x
_atom_site_fract_y
_atom_site_fract_z
Br1 Br 0.29123(6) 0.46123(3) 0.52076(3)
O1 O -0.0969(3) 0.3649(2) 1.05994(17)
C1 C 0.2285(4) 0.2924(2) 0.8517(2)
H1 H 0.3038 0.2957 0.8222
C2 C -0.1670(3) -0.1223(2) 0.8218(2)
C3 C 0.2111(3) 0.1811(2) 0.65499(19)
O2 O 0.4039(3) -0.2556(2) 0.5674(2)
Br2 Br -0.51533(5) -0.43709(3) 0.81900(3)
C4 C 0.2291(4) 0.3864(3) 0.9178(2)
H2 H 0.3053 0.4523 0.9328
C5 C 0.0941(3) 0.2225(2) 0.6240(2)
H3 H -0.0002 0.1942 0.6303
C6 C -0.1826(3) -0.1369(2) 0.9062(2)
H4 H -0.1258 -0.0824 0.9634
C7 C 0.0049(3) 0.1876(2) 0.8763(2)
C8 C 0.0068(4) 0.2869(2) 0.9427(2)
C9 C 0.1182(4) 0.3842(3) 0.9619(2)
H5 H 0.1185 0.4490 1.0050
C10 C -0.2827(3) -0.2328(2) 0.9052(2)
H6 H -0.2919 -0.2434 0.9614
C11 C 0.1177(4) 0.3051(3) 0.5840(2)
H7 H 0.0393 0.3317 0.5624
C12 C 0.2596(4) 0.3482(2) 0.5763(2)
C13 C -0.3682(4) -0.3116(2) 0.8201(2)
C14 C -0.1081(4) 0.2856(3) 0.9934(2)
C15 C -0.2416(4) 0.1861(3) 0.9548(2)
C16 C -0.3516(4) -0.3010(3) 0.7365(2)
H8 H -0.4083 -0.3563 0.6797
C17 C 0.3767(4) 0.3129(3) 0.6103(2)
H9 H 0.4722 0.3447 0.6074
C18 C -0.3695(4) 0.1931(3) 0.9819(3)
H10 H -0.3660 0.2571 1.0275
C19 C 0.3519(3) 0.2290(2) 0.6495(2)
H11 H 0.4317 0.2044 0.6725
C20 C -0.2490(3) -0.2066(2) 0.7375(2)
H12 H -0.2351 -0.1996 0.6811
C21 C -0.5003(4) 0.1073(3) 0.9426(3)
H13 H -0.5847 0.1120 0.9623
C22 C -0.5059(4) 0.0136(3) 0.8734(2)
H14 H -0.5955 -0.0441 0.8450
C23 C -0.1039(3) 0.0832(2) 0.86127(18)
C24 C -0.2425(3) 0.0889(2) 0.8882(2)
C25 C -0.3799(3) 0.0049(3) 0.8463(2)
H15 H -0.3863 -0.0584 0.7989
C26 C 0.1012(3) -0.1051(2) 0.74574(19)
C27 C 0.0482(3) -0.0109(2) 0.77941(18)
C28 C -0.0705(3) -0.0133(2) 0.82391(18)
C29 C 0.0958(3) -0.1895(2) 0.7874(2)
H16 H 0.0470 -0.1897 0.8335
C30 C 0.1609(4) -0.2714(3) 0.7615(2)
H17 H 0.1559 -0.3260 0.7901
C31 C 0.1786(3) -0.1056(2) 0.67691(19)
C32 C 0.2430(3) -0.1918(2) 0.6506(2)
C33 C 0.2339(4) -0.2729(3) 0.6930(2)
H18 H 0.2771 -0.3288 0.6754
C34 C 0.3080(3) -0.1197(2) 0.5235(2)
C35 C 0.3273(4) -0.1932(3) 0.5805(2)
C36 C 0.3523(4) -0.1393(3) 0.4421(2)
H19 H 0.4005 -0.1930 0.4282
C37 C 0.3258(4) -0.0801(3) 0.3815(2)
H20 H 0.3573 -0.0923 0.3275
C38 C 0.2521(4) -0.0028(3) 0.4022(2)
H21 H 0.2309 0.0359 0.3606
C39 C 0.1969(3) -0.0167(2) 0.63751(19)
C40 C 0.2086(3) 0.0190(2) 0.4832(2)
H22 H 0.1583 0.0716 0.4950
C41 C 0.2389(3) -0.0368(2) 0.54811(19)
C42 C 0.1799(3) 0.0824(2) 0.68734(19)
C43 C 0.1173(3) 0.0875(2) 0.76448(19)
C44 C 0.1151(3) 0.1906(2) 0.82803(19)
Cl1 Cl -0.2691(2) 0.35833(15) 0.80336(12)
Cl2 Cl -0.1641(3) 0.4523(2) 0.67177(18)
C45 C -0.1301(10) 0.4180(7) 0.7632(5)
H23 H -0.0656 0.4843 0.8144
H24 H -0.0704 0.3676 0.7535
loop_
_geom_bond_atom_site_label_1
_geom_bond_atom_site_label_2
_geom_bond_site_symmetry_1
_geom_bond_site_symmetry_2
Br1 C12 1_555 1_555
O1 C14 1_555 1_555
C1 H1 1_555 1_555
C2 C6 1_555 1_555
C3 C5 1_555 1_555
O2 C35 1_555 1_555
Br2 C13 1_555 1_555
C4 C1 1_555 1_555
H2 C4 1_555 1_555
C5 H3 1_555 1_555
C6 H4 1_555 1_555
C7 C8 1_555 1_555
C8 C9 1_555 1_555
C9 C4 1_555 1_555
H5 C9 1_555 1_555
C10 C6 1_555 1_555
H6 C10 1_555 1_555
C11 C5 1_555 1_555
H7 C11 1_555 1_555
C12 C11 1_555 1_555
C13 C10 1_555 1_555
C14 C8 1_555 1_555
C15 C14 1_555 1_555
C16 C13 1_555 1_555
H8 C16 1_555 1_555
C17 C12 1_555 1_555
H9 C17 1_555 1_555
C18 C15 1_555 1_555
H10 C18 1_555 1_555
C19 C3 1_555 1_555
H11 C19 1_555 1_555
C20 C2 1_555 1_555
H12 C20 1_555 1_555
C21 C18 1_555 1_555
H13 C21 1_555 1_555
C22 C21 1_555 1_555
H14 C22 1_555 1_555
C23 C7 1_555 1_555
C24 C15 1_555 1_555
C25 C22 1_555 1_555
H15 C25 1_555 1_555
C26 C27 1_555 1_555
C27 C28 1_555 1_555
C28 C2 1_555 1_555
C29 C26 1_555 1_555
H16 C29 1_555 1_555
C30 C29 1_555 1_555
H17 C30 1_555 1_555
C31 C26 1_555 1_555
C32 C31 1_555 1_555
C33 C30 1_555 1_555
H18 C33 1_555 1_555
C34 C35 1_555 1_555
C35 C32 1_555 1_555
C36 C34 1_555 1_555
H19 C36 1_555 1_555
C37 C36 1_555 1_555
H20 C37 1_555 1_555
C38 C37 1_555 1_555
H21 C38 1_555 1_555
C39 C31 1_555 1_555
C40 C38 1_555 1_555
H22 C40 1_555 1_555
C41 C34 1_555 1_555
C42 C3 1_555 1_555
C43 C27 1_555 1_555
C44 C1 1_555 1_555
Cl1 C45 1_555 1_555
Cl2 C45 1_555 1_555
C45 H23 1_555 1_555
H24 C45 1_555 1_555
C7 C44 1_555 1_555
C16 C20 1_555 1_555
C17 C19 1_555 1_555
C23 C24 1_555 1_555
C23 C28 1_555 1_555
C24 C25 1_555 1_555
C32 C33 1_555 1_555
C39 C41 1_555 1_555
C39 C42 1_555 1_555
C40 C41 1_555 1_555
C42 C43 1_555 1_555
C43 C44 1_555 1_555

#END
