
#######################################################################
#
#                 Cambridge Crystallographic Data Centre
#                                CCDC 
#
#######################################################################
#
# If this CIF has been generated from an entry in the Cambridge 
# Structural Database, then it will include bibliographic, chemical, 
# crystal, experimental, refinement or atomic coordinate data resulting 
# from the CCDC's data processing and validation procedures.
#
#######################################################################

data_PUCNIL
_chemical_formula_moiety         'C20 H21 N3 O3'
_chemical_name_systematic        
4,6-bis(3,5-Dimethylphenoxy)-2-methoxy-1,3,5-triazine
_symmetry_cell_setting           triclinic
_symmetry_space_group_name_H-M   'P -1'
_symmetry_Int_Tables_number      2
_space_group_name_Hall           '-P 1'
loop_
_symmetry_equiv_pos_site_id
_symmetry_equiv_pos_as_xyz
1 x,y,z
2 -x,-y,-z
_cell_length_a                   8.4082(6)
_cell_length_b                   15.0816(11)
_cell_length_c                   16.0829(12)
_cell_angle_alpha                100.4910(10)
_cell_angle_beta                 100.3680(10)
_cell_angle_gamma                106.0730(10)
_cell_volume                     1868.82
_exptl_crystal_colour            colorless
_exptl_crystal_description       plate
_cell_formula_units_Z            4
_exptl_crystal_recrystallization_method sublimation
loop_
_atom_site_label
_atom_site_type_symbol
_atom_site_fract_x
_atom_site_fract_y
_atom_site_fract_z
O1 O 0.21128(14) 0.87905(8) 0.82170(8)
O2 O 0.61329(15) 0.80757(9) 0.99795(8)
O3 O 0.75455(15) 1.08046(8) 0.91073(8)
N1 N 0.40280(17) 0.84124(9) 0.90959(9)
N2 N 0.69031(17) 0.94368(10) 0.95784(9)
N3 N 0.48457(17) 0.98561(9) 0.86434(9)
C1 C 0.3743(2) 0.90548(11) 0.86665(10)
C2 C 0.5634(2) 0.86568(12) 0.95281(10)
C3 C 0.6411(2) 1.00016(11) 0.91191(10)
C4 C 0.1532(2) 0.93383(12) 0.76781(11)
C5 C 0.1628(2) 1.02624(13) 0.80165(12)
H1 H 0.2172 1.0563 0.8597
C6 C 0.0901(2) 1.07379(13) 0.74764(12)
C7 C 0.0089(2) 1.02553(14) 0.66204(13)
H2 H -0.0401 1.0571 0.6255
C8 C -0.0024(2) 0.93169(13) 0.62832(11)
C9 C 0.0735(2) 0.88588(13) 0.68326(11)
H3 H 0.0702 0.8235 0.6628
C10 C 0.0969(3) 1.17509(15) 0.78102(15)
H4 H -0.0107 1.1759 0.7928
H5 H 0.1200 1.2100 0.7379
H6 H 0.1857 1.2040 0.8336
C11 C -0.0989(3) 0.88013(16) 0.53645(13)
H7 H -0.1964 0.8290 0.5370
H8 H -0.0260 0.8548 0.5065
H9 H -0.1360 0.9235 0.5071
C12 C 0.4883(2) 0.72416(12) 1.00097(12)
C13 C 0.4650(2) 0.64088(13) 0.94212(12)
H10 H 0.5269 0.6402 0.8997
C14 C 0.3477(2) 0.55736(13) 0.94648(13)
C15 C 0.2602(3) 0.56201(14) 1.01111(13)
H11 H 0.1813 0.5065 1.0144
C16 C 0.2855(2) 0.64619(15) 1.07137(13)
C17 C 0.4020(2) 0.72847(13) 1.06542(13)
H12 H 0.4216 0.7861 1.1047
C18 C 0.3173(3) 0.46470(15) 0.88167(16)
H13 H 0.2789 0.4126 0.9075
H14 H 0.4216 0.4639 0.8657
H15 H 0.2319 0.4587 0.8306
C19 C 0.1869(3) 0.6492(2) 1.14084(17)
H16 H 0.2182 0.7135 1.1748
H17 H 0.2128 0.6095 1.1781
H18 H 0.0668 0.6266 1.1139
C20 C 0.9243(2) 1.10441(16) 0.96483(15)
H19 H 0.9185 1.1054 1.0240
H20 H 0.9919 1.1660 0.9620
H21 H 0.9756 1.0578 0.9445
O4 O -0.28818(15) 0.54384(8) 0.56022(8)
O5 O 0.17902(16) 0.73072(8) 0.50105(8)
O6 O -0.15078(15) 0.45705(9) 0.30603(8)
N4 N -0.04817(18) 0.64151(9) 0.53430(9)
N5 N -0.22221(17) 0.49453(9) 0.43569(9)
N6 N 0.01226(17) 0.59430(10) 0.39742(9)
C21 C 0.0433(2) 0.65121(11) 0.47487(11)
C22 C -0.1796(2) 0.56243(11) 0.50896(11)
C23 C -0.1221(2) 0.51619(12) 0.38288(11)
C24 C 0.2927(2) 0.75124(12) 0.44671(11)
C25 C 0.3205(2) 0.83767(12) 0.42695(12)
H22 H 0.2619 0.8781 0.4465
C26 C 0.4366(2) 0.86511(13) 0.37761(13)
C27 C 0.5214(2) 0.80307(14) 0.35059(12)
H23 H 0.5990 0.8202 0.3172
C28 C 0.4943(2) 0.71589(13) 0.37184(12)
C29 C 0.3787(2) 0.69038(12) 0.42149(12)
H24 H 0.3598 0.6328 0.4374
C30 C 0.4689(4) 0.96009(17) 0.35352(19)
H25 H 0.5842 0.9823 0.3481
H26 H 0.4512 1.0055 0.3982
H27 H 0.3916 0.9526 0.2990
C31 C 0.5889(3) 0.64995(17) 0.34110(18)
H28 H 0.7095 0.6818 0.3621
H29 H 0.5597 0.6319 0.2785
H30 H 0.5577 0.5941 0.3630
C32 C -0.2609(2) 0.61239(11) 0.63848(11)
C33 C -0.1818(2) 0.59903(13) 0.71487(13)
H31 H -0.1443 0.5465 0.7149
C34 C -0.1578(2) 0.66433(14) 0.79232(12)
C35 C -0.2184(2) 0.74013(13) 0.78962(12)
H32 H -0.2030 0.7842 0.8415
C36 C -0.3014(2) 0.75292(12) 0.71234(12)
C37 C -0.3230(2) 0.68719(12) 0.63554(12)
H33 H -0.3788 0.6936 0.5826
C38 C -0.0609(4) 0.65416(19) 0.87728(15)
H34 H 0.0525 0.6988 0.8935
H35 H -0.0551 0.5906 0.8700
H36 H -0.1188 0.6667 0.9222
C39 C -0.3673(3) 0.83586(14) 0.71137(15)
H37 H -0.4075 0.8378 0.6522
H38 H -0.2771 0.8939 0.7415
H39 H -0.4594 0.8289 0.7399
C40 C -0.2810(3) 0.36581(15) 0.28732(14)
H40 H -0.2568 0.3339 0.3322
H41 H -0.2829 0.3279 0.2321
H42 H -0.3901 0.3749 0.2853
loop_
_geom_bond_atom_site_label_1
_geom_bond_atom_site_label_2
_geom_bond_site_symmetry_1
_geom_bond_site_symmetry_2
O1 C1 1_555 1_555
O2 C2 1_555 1_555
O3 C3 1_555 1_555
O4 C22 1_555 1_555
O5 C21 1_555 1_555
O6 C23 1_555 1_555
N1 C1 1_555 1_555
N2 C2 1_555 1_555
N3 C1 1_555 1_555
N4 C21 1_555 1_555
N5 C22 1_555 1_555
N6 C21 1_555 1_555
C2 N1 1_555 1_555
C3 N2 1_555 1_555
C4 O1 1_555 1_555
C5 C4 1_555 1_555
H1 C5 1_555 1_555
C6 C5 1_555 1_555
C7 C6 1_555 1_555
H2 C7 1_555 1_555
C8 C7 1_555 1_555
C9 C4 1_555 1_555
H3 C9 1_555 1_555
C10 C6 1_555 1_555
H4 C10 1_555 1_555
H5 C10 1_555 1_555
H6 C10 1_555 1_555
C11 C8 1_555 1_555
H7 C11 1_555 1_555
H8 C11 1_555 1_555
H9 C11 1_555 1_555
C12 O2 1_555 1_555
C13 C12 1_555 1_555
H10 C13 1_555 1_555
C14 C13 1_555 1_555
C15 C14 1_555 1_555
H11 C15 1_555 1_555
C16 C15 1_555 1_555
C17 C12 1_555 1_555
H12 C17 1_555 1_555
C18 C14 1_555 1_555
H13 C18 1_555 1_555
H14 C18 1_555 1_555
H15 C18 1_555 1_555
C19 C16 1_555 1_555
H16 C19 1_555 1_555
H17 C19 1_555 1_555
H18 C19 1_555 1_555
C20 O3 1_555 1_555
H19 C20 1_555 1_555
H20 C20 1_555 1_555
H21 C20 1_555 1_555
C22 N4 1_555 1_555
C23 N5 1_555 1_555
C24 O5 1_555 1_555
C25 C24 1_555 1_555
H22 C25 1_555 1_555
C26 C25 1_555 1_555
C27 C26 1_555 1_555
H23 C27 1_555 1_555
C28 C27 1_555 1_555
C29 C24 1_555 1_555
H24 C29 1_555 1_555
C30 C26 1_555 1_555
H25 C30 1_555 1_555
H26 C30 1_555 1_555
H27 C30 1_555 1_555
C31 C28 1_555 1_555
H28 C31 1_555 1_555
H29 C31 1_555 1_555
H30 C31 1_555 1_555
C32 O4 1_555 1_555
C33 C32 1_555 1_555
H31 C33 1_555 1_555
C34 C33 1_555 1_555
C35 C34 1_555 1_555
H32 C35 1_555 1_555
C36 C35 1_555 1_555
C37 C32 1_555 1_555
H33 C37 1_555 1_555
C38 C34 1_555 1_555
H34 C38 1_555 1_555
H35 C38 1_555 1_555
H36 C38 1_555 1_555
C39 C36 1_555 1_555
H37 C39 1_555 1_555
H38 C39 1_555 1_555
H39 C39 1_555 1_555
C40 O6 1_555 1_555
H40 C40 1_555 1_555
H41 C40 1_555 1_555
H42 C40 1_555 1_555
N3 C3 1_555 1_555
N6 C23 1_555 1_555
C8 C9 1_555 1_555
C16 C17 1_555 1_555
C28 C29 1_555 1_555
C36 C37 1_555 1_555

#END
