
#######################################################################
#
#                 Cambridge Crystallographic Data Centre
#                                CCDC 
#
#######################################################################
#
# If this CIF has been generated from an entry in the Cambridge 
# Structural Database, then it will include bibliographic, chemical, 
# crystal, experimental, refinement or atomic coordinate data resulting 
# from the CCDC's data processing and validation procedures.
#
#######################################################################

data_PUFCEA
_chemical_formula_moiety         'C24 H24 O3 S1'
_chemical_name_systematic        
2-((4-butylphenyl)sulfonyl)-1,2-diphenylethanone
_symmetry_cell_setting           triclinic
_symmetry_space_group_name_H-M   'P -1'
_symmetry_Int_Tables_number      2
_space_group_name_Hall           '-P 1'
loop_
_symmetry_equiv_pos_site_id
_symmetry_equiv_pos_as_xyz
1 x,y,z
2 -x,-y,-z
_cell_length_a                   9.7399(4)
_cell_length_b                   10.8090(5)
_cell_length_c                   11.2276(5)
_cell_angle_alpha                71.788(3)
_cell_angle_beta                 67.626(3)
_cell_angle_gamma                70.483(3)
_cell_volume                     1006.67
_exptl_crystal_colour            colorless
_cell_formula_units_Z            2
loop_
_atom_site_label
_atom_site_type_symbol
_atom_site_fract_x
_atom_site_fract_y
_atom_site_fract_z
S1 S 0.38184(4) 0.16778(4) 0.10136(4)
O1 O 0.38412(13) 0.37916(11) -0.14829(11)
O2 O 0.33308(13) 0.05944(11) 0.20650(11)
O3 O 0.54404(12) 0.15865(11) 0.04308(11)
C1 C 0.37805(19) 0.22327(19) -0.52036(17)
H1 H 0.3826 0.2121 -0.6026
C2 C 0.3938(2) 0.34235(18) -0.51144(17)
H2 H 0.4100 0.4125 -0.5876
C3 C 0.38592(18) 0.35932(17) -0.39174(16)
H3 H 0.3954 0.4416 -0.3857
C4 C 0.36404(16) 0.25593(15) -0.27955(15)
C5 C 0.35826(16) 0.27878(15) -0.15340(15)
C6 C 0.31079(16) 0.17367(15) -0.02863(14)
H4 H 0.3595 0.0845 -0.0541
C7 C 0.29270(16) 0.31785(15) 0.15908(14)
C8 C 0.14091(17) 0.34029(16) 0.23945(15)
H5 H 0.0835 0.2758 0.2625
C9 C 0.07532(17) 0.45864(17) 0.28512(15)
H6 H -0.0287 0.4755 0.3387
C10 C 0.15792(17) 0.55317(16) 0.25455(15)
C11 C 0.08710(18) 0.68181(17) 0.30410(17)
H7 H -0.0174 0.6798 0.3651
H8 H 0.0777 0.7581 0.2285
C12 C 0.17910(19) 0.70539(17) 0.37527(17)
H9 H 0.1939 0.6264 0.4474
H10 H 0.2815 0.7126 0.3126
C13 C 0.10436(19) 0.83070(17) 0.43274(17)
H11 H -0.0007 0.8269 0.4913
H12 H 0.0966 0.9109 0.3603
C14 C 0.1950(2) 0.84435(19) 0.51061(19)
H13 H 0.2028 0.7652 0.5824
H14 H 0.1425 0.9251 0.5474
H15 H 0.2978 0.8515 0.4521
C15 C 0.31131(17) 0.52634(16) 0.17623(15)
H16 H 0.3701 0.5891 0.1558
C16 C 0.37854(17) 0.40984(15) 0.12817(14)
H17 H 0.4825 0.3929 0.0745
C17 C 0.13965(16) 0.18642(15) 0.02143(14)
C18 C 0.08576(18) 0.07159(16) 0.08706(15)
H18 H 0.1559 -0.0139 0.0957
C19 C -0.07021(19) 0.08167(18) 0.13993(17)
H19 H -0.1068 0.0029 0.1847
C20 C -0.17341(18) 0.20595(19) 0.12794(17)
H20 H -0.2803 0.2123 0.1652
C21 C -0.12079(18) 0.32067(18) 0.06182(16)
H21 H -0.1915 0.4058 0.0531
C22 C 0.03586(17) 0.31121(16) 0.00801(15)
H22 H 0.0721 0.3899 -0.0379
C23 C 0.34941(17) 0.13555(16) -0.28972(15)
H23 H 0.3352 0.0644 -0.2143
C24 C 0.35565(18) 0.12016(18) -0.40992(17)
H24 H 0.3445 0.0387 -0.4165
loop_
_geom_bond_atom_site_label_1
_geom_bond_atom_site_label_2
_geom_bond_site_symmetry_1
_geom_bond_site_symmetry_2
S1 O2 1_555 1_555
O1 C5 1_555 1_555
O3 S1 1_555 1_555
C1 H1 1_555 1_555
C2 C1 1_555 1_555
H2 C2 1_555 1_555
C3 C2 1_555 1_555
H3 C3 1_555 1_555
C4 C3 1_555 1_555
C5 C4 1_555 1_555
C6 S1 1_555 1_555
H4 C6 1_555 1_555
C7 S1 1_555 1_555
C8 C7 1_555 1_555
H5 C8 1_555 1_555
C9 C8 1_555 1_555
H6 C9 1_555 1_555
C10 C9 1_555 1_555
C11 C10 1_555 1_555
H7 C11 1_555 1_555
H8 C11 1_555 1_555
C12 C11 1_555 1_555
H9 C12 1_555 1_555
H10 C12 1_555 1_555
C13 C12 1_555 1_555
H11 C13 1_555 1_555
H12 C13 1_555 1_555
C14 C13 1_555 1_555
H13 C14 1_555 1_555
H14 C14 1_555 1_555
H15 C14 1_555 1_555
C15 C10 1_555 1_555
H16 C15 1_555 1_555
C16 C7 1_555 1_555
H17 C16 1_555 1_555
C17 C6 1_555 1_555
C18 C17 1_555 1_555
H18 C18 1_555 1_555
C19 C18 1_555 1_555
H19 C19 1_555 1_555
C20 C19 1_555 1_555
H20 C20 1_555 1_555
C21 C20 1_555 1_555
H21 C21 1_555 1_555
C22 C17 1_555 1_555
H22 C22 1_555 1_555
C23 C4 1_555 1_555
H23 C23 1_555 1_555
C24 C1 1_555 1_555
H24 C24 1_555 1_555
C5 C6 1_555 1_555
C15 C16 1_555 1_555
C21 C22 1_555 1_555
C23 C24 1_555 1_555

#END
