
#######################################################################
#
#                 Cambridge Crystallographic Data Centre
#                                CCDC 
#
#######################################################################
#
# If this CIF has been generated from an entry in the Cambridge 
# Structural Database, then it will include bibliographic, chemical, 
# crystal, experimental, refinement or atomic coordinate data resulting 
# from the CCDC's data processing and validation procedures.
#
#######################################################################

data_PUFFED
_chemical_formula_moiety         'C27 H37 N5 O8 S1'
_chemical_name_systematic        
'methyl 5-amino-4-(2-(3-(benzyloxy)-4,5-dimethoxytetrahydrofuran-2-yl)ethyl)-1-(dimethylsulfamoyl)-2-(methylamino)-1H-benzimidazole-6-carboxylate'
_symmetry_cell_setting           monoclinic
_symmetry_space_group_name_H-M   'P 21'
_symmetry_Int_Tables_number      4
_space_group_name_Hall           'P 2yb'
loop_
_symmetry_equiv_pos_site_id
_symmetry_equiv_pos_as_xyz
1 x,y,z
2 -x,1/2+y,-z
_cell_length_a                   10.2794(5)
_cell_length_b                   13.9042(7)
_cell_length_c                   10.5472(5)
_cell_angle_alpha                90
_cell_angle_beta                 100.687(2)
_cell_angle_gamma                90
_cell_volume                     1481.33
_exptl_crystal_colour            'light yellow'
_exptl_crystal_description       plate
_cell_formula_units_Z            2
loop_
_atom_site_label
_atom_site_type_symbol
_atom_site_fract_x
_atom_site_fract_y
_atom_site_fract_z
S1 S 0.27200(7) 0.44539(5) 0.05784(6)
O1 O -0.15991(19) 0.44495(17) 0.87569(17)
O2 O -0.3175(2) 0.59956(16) 0.81921(18)
O3 O -0.14027(19) 0.60992(15) 0.63490(18)
O4 O -0.3111(2) 0.53864(18) 0.48963(18)
O5 O 0.3620(2) 0.36831(16) 0.08889(19)
O6 O 0.1686(2) 0.44134(18) -0.05306(17)
O7 O 0.5568(2) 0.26199(16) 0.47807(19)
O8 O 0.5213(2) 0.28184(17) 0.67859(19)
N1 N 0.1974(2) 0.45590(19) 0.1852(2)
N2 N 0.0770(2) 0.53435(19) 0.3136(2)
N3 N 0.3364(3) 0.4100(2) 0.7146(2)
H1 H 0.276(3) 0.432(2) 0.756(3)
H2 H 0.396(3) 0.364(2) 0.748(3)
N4 N 0.3563(2) 0.54189(19) 0.0457(2)
N5 N 0.0121(2) 0.5535(2) 0.0889(2)
H3 H 0.005(4) 0.520(2) 0.018(3)
C1 C -0.0816(3) 0.5287(2) 0.7081(3)
H4 H -0.0245 0.5528 0.7891
C2 C -0.1961(3) 0.4713(2) 0.7444(3)
H5 H -0.2119 0.4121 0.6898
C3 C -0.3157(3) 0.5388(2) 0.7119(3)
H6 H -0.4007 0.5029 0.6857
C4 C -0.2784(3) 0.5953(2) 0.6010(3)
H7 H -0.3264 0.6582 0.5897
C5 C -0.2632(3) 0.5787(3) 0.3825(3)
H8 H -0.2850 0.5356 0.3081
H9 H -0.1670 0.5867 0.4050
H10 H -0.3048 0.6415 0.3608
C6 C 0.0040(3) 0.4708(2) 0.6333(3)
H11 H -0.0513 0.4469 0.5525
H12 H 0.0405 0.4143 0.6852
C7 C 0.1178(3) 0.5307(2) 0.6005(3)
H13 H 0.0808 0.5879 0.5506
H14 H 0.1734 0.5536 0.6817
C8 C 0.2034(3) 0.4762(2) 0.5239(3)
C9 C 0.3087(3) 0.4166(2) 0.5823(3)
C10 C 0.3867(3) 0.3675(2) 0.5052(3)
C11 C 0.3595(3) 0.3766(2) 0.3694(3)
H15 H 0.4113 0.3436 0.3174
C12 C 0.2570(3) 0.4339(2) 0.3153(2)
C13 C 0.0894(3) 0.5170(2) 0.1949(3)
C14 C 0.1783(3) 0.4828(2) 0.3904(3)
C15 C -0.2562(3) 0.3856(3) 0.9200(3)
H16 H -0.2783 0.3296 0.8619
H17 H -0.3383 0.4227 0.9207
C16 C -0.1983(3) 0.3522(2) 1.0537(3)
C17 C -0.2713(4) 0.3570(3) 1.1510(3)
H18 H -0.3589 0.3818 1.1335
C18 C -0.2162(5) 0.3253(3) 1.2750(4)
H19 H -0.2660 0.3295 1.3423
C19 C -0.0902(5) 0.2881(3) 1.2998(3)
H20 H -0.0531 0.2665 1.3842
C20 C -0.0179(4) 0.2821(3) 1.2030(3)
H21 H 0.0691 0.2563 1.2207
C21 C -0.0709(3) 0.3134(2) 1.0805(3)
H22 H -0.0205 0.3085 1.0139
C22 C -0.4442(3) 0.6403(2) 0.8191(3)
H23 H -0.4712 0.6786 0.7406
H24 H -0.4402 0.6816 0.8950
H25 H -0.5087 0.5887 0.8216
C23 C 0.4924(3) 0.3021(2) 0.5642(3)
C24 C 0.6511(4) 0.1884(3) 0.5272(3)
H26 H 0.6963 0.1666 0.4583
H27 H 0.6051 0.1341 0.5582
H28 H 0.7164 0.2145 0.5986
C25 C 0.2831(3) 0.6290(2) -0.0031(3)
H29 H 0.2133 0.6123 -0.0764
H30 H 0.3440 0.6752 -0.0312
H31 H 0.2433 0.6577 0.0655
C26 C 0.4668(3) 0.5609(3) 0.1523(3)
H32 H 0.4366 0.6027 0.2159
H33 H 0.5385 0.5927 0.1190
H34 H 0.4990 0.5001 0.1934
C27 C -0.1025(3) 0.6109(3) 0.1045(3)
H35 H -0.1490 0.6325 0.0198
H36 H -0.0732 0.6669 0.1588
H37 H -0.1624 0.5718 0.1456
loop_
_geom_bond_atom_site_label_1
_geom_bond_atom_site_label_2
_geom_bond_site_symmetry_1
_geom_bond_site_symmetry_2
S1 O5 1_555 1_555
O1 C2 1_555 1_555
O2 C3 1_555 1_555
O3 C1 1_555 1_555
O4 C4 1_555 1_555
O6 S1 1_555 1_555
O7 C23 1_555 1_555
O8 C23 1_555 1_555
N1 S1 1_555 1_555
N2 C13 1_555 1_555
N3 H1 1_555 1_555
H2 N3 1_555 1_555
N4 S1 1_555 1_555
N5 H3 1_555 1_555
C1 H4 1_555 1_555
C2 C1 1_555 1_555
H5 C2 1_555 1_555
C3 C2 1_555 1_555
H6 C3 1_555 1_555
C4 O3 1_555 1_555
H7 C4 1_555 1_555
C5 O4 1_555 1_555
H8 C5 1_555 1_555
H9 C5 1_555 1_555
H10 C5 1_555 1_555
C6 C1 1_555 1_555
H11 C6 1_555 1_555
H12 C6 1_555 1_555
C7 C6 1_555 1_555
H13 C7 1_555 1_555
H14 C7 1_555 1_555
C8 C7 1_555 1_555
C9 N3 1_555 1_555
C10 C9 1_555 1_555
C11 C10 1_555 1_555
H15 C11 1_555 1_555
C12 N1 1_555 1_555
C13 N1 1_555 1_555
C14 N2 1_555 1_555
C15 O1 1_555 1_555
H16 C15 1_555 1_555
H17 C15 1_555 1_555
C16 C15 1_555 1_555
C17 C16 1_555 1_555
H18 C17 1_555 1_555
C18 C17 1_555 1_555
H19 C18 1_555 1_555
C19 C18 1_555 1_555
H20 C19 1_555 1_555
C20 C19 1_555 1_555
H21 C20 1_555 1_555
C21 C16 1_555 1_555
H22 C21 1_555 1_555
C22 O2 1_555 1_555
H23 C22 1_555 1_555
H24 C22 1_555 1_555
H25 C22 1_555 1_555
C23 C10 1_555 1_555
C24 O7 1_555 1_555
H26 C24 1_555 1_555
H27 C24 1_555 1_555
H28 C24 1_555 1_555
C25 N4 1_555 1_555
H29 C25 1_555 1_555
H30 C25 1_555 1_555
H31 C25 1_555 1_555
C26 N4 1_555 1_555
H32 C26 1_555 1_555
H33 C26 1_555 1_555
H34 C26 1_555 1_555
C27 N5 1_555 1_555
H35 C27 1_555 1_555
H36 C27 1_555 1_555
H37 C27 1_555 1_555
N5 C13 1_555 1_555
C3 C4 1_555 1_555
C8 C9 1_555 1_555
C8 C14 1_555 1_555
C11 C12 1_555 1_555
C12 C14 1_555 1_555
C20 C21 1_555 1_555

#END
