
#######################################################################
#
#                 Cambridge Crystallographic Data Centre
#                                CCDC 
#
#######################################################################
#
# If this CIF has been generated from an entry in the Cambridge 
# Structural Database, then it will include bibliographic, chemical, 
# crystal, experimental, refinement or atomic coordinate data resulting 
# from the CCDC's data processing and validation procedures.
#
#######################################################################

data_PUFGUU01
_chemical_name_common            'Diatrizoic acid dihydrate'
_chemical_formula_moiety         'C11 H9 I3 N2 O4,2(H2 O1)'
_chemical_name_systematic        
'3,5-diacetamido-2,4,6-triiodobenzoic acid dihydrate'
_symmetry_cell_setting           triclinic
_symmetry_space_group_name_H-M   'P -1'
_symmetry_Int_Tables_number      2
_space_group_name_Hall           '-P 1'
loop_
_symmetry_equiv_pos_site_id
_symmetry_equiv_pos_as_xyz
1 x,y,z
2 -x,-y,-z
_cell_length_a                   7.8264(6)
_cell_length_b                   9.4397(8)
_cell_length_c                   13.3021(11)
_cell_angle_alpha                89.673(2)
_cell_angle_beta                 75.570(2)
_cell_angle_gamma                71.091(2)
_cell_volume                     897.354
_exptl_crystal_colour            colorless
_exptl_crystal_description       block
_cell_formula_units_Z            2
loop_
_atom_site_label
_atom_site_type_symbol
_atom_site_fract_x
_atom_site_fract_y
_atom_site_fract_z
I1 I 0.5197(13) 0.4147(9) 0.8334(9)
O1 O 1.0173(14) 0.2020(10) 0.7527(10)
N1 N 1.0574(8) 0.7553(7) 0.6033(8)
C1 C 0.9449(11) 0.2747(9) 0.6813(8)
I2 I 1.2703(12) 0.4039(12) 0.5657(9)
O2 O 0.9266(12) 0.2129(9) 0.6079(9)
N2 N 0.4577(8) 0.7650(5) 0.8297(5)
C2 C 0.8768(9) 0.4444(7) 0.6966(6)
I3 I 0.6612(12) 0.9932(10) 0.7273(9)
O3 O 1.1545(11) 0.7813(11) 0.7468(11)
C3 C 0.6972(9) 0.5256(7) 0.7551(6)
O4 O 0.5728(11) 0.7981(10) 0.9632(8)
C4 C 0.6360(8) 0.6834(7) 0.7659(6)
C5 C 0.7550(9) 0.7572(7) 0.7154(6)
C6 C 0.9377(9) 0.6797(7) 0.6556(7)
C7 C 0.9969(8) 0.5227(7) 0.6482(6)
C8 C 1.1612(9) 0.8023(8) 0.6550(10)
C9 C 1.2861(12) 0.8797(10) 0.5910(11)
C10 C 0.4366(9) 0.8216(8) 0.9277(7)
C11 C 0.2434(12) 0.9093(11) 0.9863(11)
H1 H 0.346(2) 0.7806(16) 0.8008(14)
H2 H 1.067(2) 0.7709(18) 0.5286(19)
H3 H 1.026(2) 0.274(2) 0.8093(17)
H4 H 0.145(3) 0.907(4) 0.945(2)
H5 H 1.235(4) 0.992(3) 0.618(3)
H6 H 1.420(4) 0.841(3) 0.601(2)
H7 H 0.237(3) 1.018(3) 0.996(3)
H8 H 1.305(4) 0.865(4) 0.509(3)
H9 H 0.209(4) 0.878(5) 1.058(3)
O5 O 1.045(2) 0.3659(18) 0.8898(17)
H10 H 1.035(3) 0.342(2) 0.963(2)
H11 H 1.010(3) 0.473(3) 0.8929(17)
O6 O 0.9445(18) 0.6701(11) 0.9117(12)
H12 H 0.814(2) 0.7200(18) 0.9167(14)
H13 H 1.014(2) 0.715(2) 0.8481(18)
loop_
_geom_bond_atom_site_label_1
_geom_bond_atom_site_label_2
_geom_bond_site_symmetry_1
_geom_bond_site_symmetry_2
I1 C3 1_555 1_555
O1 C1 1_555 1_555
N1 C6 1_555 1_555
C1 O2 1_555 1_555
I2 C7 1_555 1_555
N2 C4 1_555 1_555
C2 C1 1_555 1_555
I3 C5 1_555 1_555
O3 C8 1_555 1_555
C3 C2 1_555 1_555
O4 C10 1_555 1_555
C4 C3 1_555 1_555
C5 C4 1_555 1_555
C6 C5 1_555 1_555
C7 C2 1_555 1_555
C8 N1 1_555 1_555
C9 C8 1_555 1_555
C10 N2 1_555 1_555
C11 C10 1_555 1_555
H1 N2 1_555 1_555
H2 N1 1_555 1_555
H3 O1 1_555 1_555
H4 C11 1_555 1_555
H5 C9 1_555 1_555
H6 C9 1_555 1_555
H7 C11 1_555 1_555
H8 C9 1_555 1_555
H9 C11 1_555 1_555
O5 H10 1_555 1_555
H11 O5 1_555 1_555
O6 H12 1_555 1_555
H13 O6 1_555 1_555
C6 C7 1_555 1_555

#END
