
#######################################################################
#
#                 Cambridge Crystallographic Data Centre
#                                CCDC 
#
#######################################################################
#
# If this CIF has been generated from an entry in the Cambridge 
# Structural Database, then it will include bibliographic, chemical, 
# crystal, experimental, refinement or atomic coordinate data resulting 
# from the CCDC's data processing and validation procedures.
#
#######################################################################

data_PUFSOA
_chemical_name_common            
11-benzyl-7,7,8,8,9,9,10,10-octafluoro-11-azatetracyclo[4.2.2.1$2,5!.0$1,6!]undec-3-ene
_chemical_formula_moiety         'C17 H11 F8 N1'
_chemical_name_systematic        
11-aza-11-benzyl-7,7,8,8,9,9,10,10-octafluoroquadricyclo[4.2.2.12,5.01,6]undec-3-ene
_symmetry_cell_setting           monoclinic
_symmetry_space_group_name_H-M   'P 21/c'
_symmetry_Int_Tables_number      14
_space_group_name_Hall           '-P 2ybc'
loop_
_symmetry_equiv_pos_site_id
_symmetry_equiv_pos_as_xyz
1 x,y,z
2 -x,1/2+y,1/2-z
3 -x,-y,-z
4 x,1/2-y,1/2+z
_cell_length_a                   12.154(3)
_cell_length_b                   9.965(3)
_cell_length_c                   12.740(3)
_cell_angle_alpha                90
_cell_angle_beta                 101.872(19)
_cell_angle_gamma                90
_cell_volume                     1509.99
_exptl_crystal_colour            colorless
_exptl_crystal_description       prism
_cell_formula_units_Z            4
_exptl_crystal_recrystallization_method 'diethyl ether'
loop_
_atom_site_label
_atom_site_type_symbol
_atom_site_fract_x
_atom_site_fract_y
_atom_site_fract_z
F1 F 0.07886(18) 0.71653(19) 0.80449(18)
F2 F 0.19246(19) 0.6388(2) 0.94435(17)
F3 F -0.05128(15) 0.5076(2) 0.79961(17)
F4 F 0.06023(18) 0.4196(2) 0.93569(16)
F5 F -0.02233(16) 0.4657(2) 0.60858(15)
F6 F 0.10644(17) 0.3284(2) 0.58223(16)
F7 F 0.11122(17) 0.66858(19) 0.61603(16)
F8 F 0.24844(17) 0.5423(2) 0.59325(16)
N1 N 0.3009(2) 0.3442(2) 0.7511(2)
C1 C 0.2050(2) 0.5349(3) 0.7724(2)
C2 C 0.3216(3) 0.4710(3) 0.8142(3)
H1 H 0.3861 0.5242 0.8031
C3 C 0.3270(3) 0.4229(4) 0.9283(3)
H2 H 0.3695 0.4598 0.9906
C4 C 0.2590(3) 0.3177(4) 0.9215(3)
H3 H 0.2444 0.2674 0.9786
C5 C 0.2097(3) 0.2947(3) 0.8044(3)
H4 H 0.1824 0.2036 0.7850
C6 C 0.1250(2) 0.4094(3) 0.7660(2)
C7 C 0.1358(3) 0.6063(3) 0.8466(3)
C8 C 0.0576(3) 0.4810(3) 0.8415(3)
C9 C 0.0863(3) 0.4316(3) 0.6437(3)
C10 C 0.1669(3) 0.5538(3) 0.6492(3)
C11 C 0.3967(3) 0.2495(3) 0.7643(3)
H5 H 0.3733 0.1697 0.7221
H6 H 0.4174 0.2227 0.8390
C12 C 0.4979(3) 0.3083(3) 0.7306(3)
C13 C 0.5962(3) 0.3288(4) 0.8038(3)
H7 H 0.5990 0.3100 0.8758
C14 C 0.6915(3) 0.3771(4) 0.7727(3)
H8 H 0.7573 0.3904 0.8235
C15 C 0.6887(3) 0.4051(4) 0.6672(3)
H9 H 0.7527 0.4368 0.6459
C16 C 0.5912(3) 0.3863(5) 0.5933(3)
H10 H 0.5888 0.4058 0.5215
C17 C 0.4959(3) 0.3383(4) 0.6246(3)
H11 H 0.4299 0.3262 0.5736
loop_
_geom_bond_atom_site_label_1
_geom_bond_atom_site_label_2
_geom_bond_site_symmetry_1
_geom_bond_site_symmetry_2
F1 C7 1_555 1_555
F2 C7 1_555 1_555
F3 C8 1_555 1_555
F4 C8 1_555 1_555
F5 C9 1_555 1_555
F6 C9 1_555 1_555
F7 C10 1_555 1_555
F8 C10 1_555 1_555
N1 C2 1_555 1_555
C1 C2 1_555 1_555
C2 H1 1_555 1_555
C3 C2 1_555 1_555
H2 C3 1_555 1_555
C4 C3 1_555 1_555
H3 C4 1_555 1_555
C5 N1 1_555 1_555
H4 C5 1_555 1_555
C6 C1 1_555 1_555
C7 C1 1_555 1_555
C8 C6 1_555 1_555
C9 C6 1_555 1_555
C10 C1 1_555 1_555
C11 N1 1_555 1_555
H5 C11 1_555 1_555
H6 C11 1_555 1_555
C12 C11 1_555 1_555
C13 C12 1_555 1_555
H7 C13 1_555 1_555
C14 C13 1_555 1_555
H8 C14 1_555 1_555
C15 C14 1_555 1_555
H9 C15 1_555 1_555
C16 C15 1_555 1_555
H10 C16 1_555 1_555
C17 C12 1_555 1_555
H11 C17 1_555 1_555
C4 C5 1_555 1_555
C5 C6 1_555 1_555
C7 C8 1_555 1_555
C9 C10 1_555 1_555
C16 C17 1_555 1_555

#END
