
#######################################################################
#
#                 Cambridge Crystallographic Data Centre
#                                CCDC 
#
#######################################################################
#
# If this CIF has been generated from an entry in the Cambridge 
# Structural Database, then it will include bibliographic, chemical, 
# crystal, experimental, refinement or atomic coordinate data resulting 
# from the CCDC's data processing and validation procedures.
#
#######################################################################

data_PUGKAD
_chemical_formula_moiety         'C18 H19 O5 P1'
_chemical_name_systematic        
'1,6-Anhydro-4-deoxy-4-(diphenylphosphine oxide)-D-glucose'
_symmetry_cell_setting           monoclinic
_symmetry_space_group_name_H-M   'P 21'
_symmetry_Int_Tables_number      4
_space_group_name_Hall           'P 2yb'
loop_
_symmetry_equiv_pos_site_id
_symmetry_equiv_pos_as_xyz
1 x,y,z
2 -x,1/2+y,-z
_cell_length_a                   11.575(5)
_cell_length_b                   12.521(5)
_cell_length_c                   11.573(6)
_cell_angle_alpha                90
_cell_angle_beta                 89.89(4)
_cell_angle_gamma                90
_cell_volume                     1677.28
_chemical_melting_point          243deg.C
_cell_formula_units_Z            4
loop_
_atom_site_label
_atom_site_type_symbol
_atom_site_fract_x
_atom_site_fract_y
_atom_site_fract_z
P1 P 0.8212(1) 0.0386 0.7502(1)
O1 O 0.6722(4) -0.2844(4) 0.9010(1)
O2 O 0.9376(4) -0.2216(5) 0.7457(5)
O3 O 0.6399(4) -0.2086(5) 0.6486(3)
O4 O 0.7942(4) -0.1471(4) 0.9350(3)
O5 O 0.9408(3) -0.0050(4) 0.7607(4)
C1 C 0.7878(6) -0.2503(6) 0.8841(5)
C2 C 0.8192(6) -0.2416(5) 0.7556(6)
C3 C 0.7460(5) -0.1608(6) 0.6913(5)
C4 C 0.7108(4) -0.0648(3) 0.7658(4)
C5 C 0.6915(5) -0.0979(6) 0.8930(5)
C6 C 0.6043(6) -0.1882(6) 0.9056(5)
C7 C 0.7941(5) 0.1381(6) 0.8588(5)
C8 C 0.7121(6) 0.2182(7) 0.8472(6)
C9 C 0.6936(7) 0.2914(7) 0.9357(7)
C10 C 0.7587(7) 0.2845(8) 1.0338(7)
C11 C 0.8394(7) 0.2079(9) 1.0460(7)
C12 C 0.8577(6) 0.1324(7) 0.9594(6)
C13 C 0.7977(6) 0.0943(6) 0.6093(5)
C14 C 0.6890(6) 0.1242(7) 0.5692(5)
C15 C 0.6740 0.1692(7) 0.4591(7)
C16 C 0.770(1) 0.1842(8) 0.3888(7)
C17 C 0.877(1) 0.154(1) 0.4281(7)
C18 C 0.8918(1) 0.1097(7) 0.5370(6)
loop_
_geom_bond_atom_site_label_1
_geom_bond_atom_site_label_2
_geom_bond_site_symmetry_1
_geom_bond_site_symmetry_2
P1 O5 1_555 1_555
O1 C1 1_555 1_555
O2 C2 1_555 1_555
O3 C3 1_555 1_555
O4 C1 1_555 1_555
C1 C2 1_555 1_555
C2 C3 1_555 1_555
C3 C4 1_555 1_555
C4 P1 1_555 1_555
C5 O4 1_555 1_555
C6 O1 1_555 1_555
C7 P1 1_555 1_555
C8 C7 1_555 1_555
C9 C8 1_555 1_555
C10 C9 1_555 1_555
C11 C10 1_555 1_555
C12 C7 1_555 1_555
C13 P1 1_555 1_555
C14 C13 1_555 1_555
C15 C14 1_555 1_555
C16 C15 1_555 1_555
C17 C16 1_555 1_555
C18 C13 1_555 1_555
C4 C5 1_555 1_555
C5 C6 1_555 1_555
C11 C12 1_555 1_555
C17 C18 1_555 1_555

#END
