
#######################################################################
#
#                 Cambridge Crystallographic Data Centre
#                                CCDC 
#
#######################################################################
#
# If this CIF has been generated from an entry in the Cambridge 
# Structural Database, then it will include bibliographic, chemical, 
# crystal, experimental, refinement or atomic coordinate data resulting 
# from the CCDC's data processing and validation procedures.
#
#######################################################################

data_PUGTOB
_chemical_formula_moiety         'C22 H16 N2 O1 S2'
_chemical_name_systematic        
'Benzyl 3-(10-oxo-9,10-dihydrophenanthren-9-ylidene)dithiocarbazate'
_symmetry_cell_setting           monoclinic
_symmetry_space_group_name_H-M   'P 21/c'
_symmetry_Int_Tables_number      14
_space_group_name_Hall           '-P 2ybc'
loop_
_symmetry_equiv_pos_site_id
_symmetry_equiv_pos_as_xyz
1 x,y,z
2 -x,1/2+y,1/2-z
3 -x,-y,-z
4 x,1/2-y,1/2+z
_cell_length_a                   14.4945(19)
_cell_length_b                   5.6978(7)
_cell_length_c                   22.816(3)
_cell_angle_alpha                90
_cell_angle_beta                 93.610(2)
_cell_angle_gamma                90
_cell_volume                     1880.56
_exptl_crystal_colour            brown
_exptl_crystal_description       block
_cell_formula_units_Z            4
loop_
_atom_site_label
_atom_site_type_symbol
_atom_site_fract_x
_atom_site_fract_y
_atom_site_fract_z
C1 C 0.12004(12) 0.9543(3) 0.10487(7)
C2 C 0.07744(12) 0.7660(3) 0.13826(7)
C3 C 0.13280(14) 0.6058(3) 0.17087(8)
H1 H 0.1968 0.6203 0.1718
C4 C 0.09428(15) 0.4277(3) 0.20145(8)
H2 H 0.1320 0.3226 0.2230
C5 C -0.00057(15) 0.4045(3) 0.20025(8)
H3 H -0.0269 0.2837 0.2209
C6 C -0.05593(14) 0.5600(3) 0.16850(7)
H4 H -0.1198 0.5422 0.1679
C7 C -0.01904(12) 0.7447(3) 0.13706(7)
C8 C -0.07862(12) 0.9126(3) 0.10288(7)
C9 C -0.17451(14) 0.8986(4) 0.10096(9)
H5 H -0.2023 0.7801 0.1217
C10 C -0.22943(14) 1.0568(4) 0.06899(10)
H6 H -0.2934 1.0431 0.0684
C11 C -0.19058(14) 1.2346(4) 0.03787(9)
H7 H -0.2279 1.3411 0.0165
C12 C -0.09620(13) 1.2524(3) 0.03891(8)
H8 H -0.0693 1.3716 0.0179
C13 C -0.04017(12) 1.0942(3) 0.07096(7)
C14 C 0.06035(12) 1.1237(3) 0.07105(7)
C15 C 0.34732(13) 1.1176(4) 0.07602(8)
C16 C 0.51902(14) 0.9484(5) 0.11012(11)
H9 H 0.5363 0.9037 0.0713
H10 H 0.5310 1.1148 0.1154
C17 C 0.57478(13) 0.8104(4) 0.15607(10)
C18 C 0.61629(15) 0.6028(5) 0.14199(11)
H11 H 0.6081 0.5433 0.1041
C19 C 0.67014(17) 0.4821(5) 0.18405(14)
H12 H 0.6984 0.3422 0.1743
C20 C 0.68202(17) 0.5671(6) 0.23965(13)
H13 H 0.7184 0.4851 0.2677
C21 C 0.64071(19) 0.7725(6) 0.25452(12)
H14 H 0.6489 0.8302 0.2926
C22 C 0.58678(16) 0.8938(5) 0.21272(12)
H15 H 0.5583 1.0329 0.2229
N1 N 0.20996(10) 0.9575(3) 0.10711(6)
N2 N 0.25374(10) 1.1215(3) 0.07714(7)
H16 H 0.2225 1.2296 0.0586
O1 O 0.09460(9) 1.2850(2) 0.04354(6)
S1 S 0.39768(3) 0.88888(10) 0.11712(2)
S2 S 0.39996(4) 1.31825(12) 0.03859(3)
loop_
_geom_bond_atom_site_label_1
_geom_bond_atom_site_label_2
_geom_bond_site_symmetry_1
_geom_bond_site_symmetry_2
C1 C2 1_555 1_555
C2 C3 1_555 1_555
C3 H1 1_555 1_555
C4 C3 1_555 1_555
H2 C4 1_555 1_555
C5 C4 1_555 1_555
H3 C5 1_555 1_555
C6 C5 1_555 1_555
H4 C6 1_555 1_555
C7 C2 1_555 1_555
C8 C7 1_555 1_555
C9 C8 1_555 1_555
H5 C9 1_555 1_555
C10 C9 1_555 1_555
H6 C10 1_555 1_555
C11 C10 1_555 1_555
H7 C11 1_555 1_555
C12 C11 1_555 1_555
H8 C12 1_555 1_555
C13 C8 1_555 1_555
C14 C1 1_555 1_555
C15 N2 1_555 1_555
C16 H9 1_555 1_555
H10 C16 1_555 1_555
C17 C16 1_555 1_555
C18 C17 1_555 1_555
H11 C18 1_555 1_555
C19 C18 1_555 1_555
H12 C19 1_555 1_555
C20 C19 1_555 1_555
H13 C20 1_555 1_555
C21 C20 1_555 1_555
H14 C21 1_555 1_555
C22 C17 1_555 1_555
H15 C22 1_555 1_555
N1 C1 1_555 1_555
N2 N1 1_555 1_555
H16 N2 1_555 1_555
O1 C14 1_555 1_555
S1 C15 1_555 1_555
S2 C15 1_555 1_555
C6 C7 1_555 1_555
C12 C13 1_555 1_555
C13 C14 1_555 1_555
C16 S1 1_555 1_555
C21 C22 1_555 1_555

#END
