
#######################################################################
#
#                 Cambridge Crystallographic Data Centre
#                                CCDC 
#
#######################################################################
#
# If this CIF has been generated from an entry in the Cambridge 
# Structural Database, then it will include bibliographic, chemical, 
# crystal, experimental, refinement or atomic coordinate data resulting 
# from the CCDC's data processing and validation procedures.
#
#######################################################################

data_PUHGUV
_chemical_formula_moiety         'C16 H16 N2 O3 S1,C5 H5 N1'
_chemical_name_systematic        
'2-[3-Cyano-4-(2-methylpropoxy)phenyl]-4-methylthiazole-5-carboxylic acid pyridine solvate'
_symmetry_cell_setting           triclinic
_symmetry_space_group_name_H-M   'P -1'
_symmetry_Int_Tables_number      2
_space_group_name_Hall           '-P 1'
loop_
_symmetry_equiv_pos_site_id
_symmetry_equiv_pos_as_xyz
1 x,y,z
2 -x,-y,-z
_cell_length_a                   8.6040(17)
_cell_length_b                   10.339(2)
_cell_length_c                   12.611(3)
_cell_angle_alpha                82.51(3)
_cell_angle_beta                 80.69(3)
_cell_angle_gamma                69.61(3)
_cell_volume                     1034.37
_exptl_crystal_colour            brown
_exptl_crystal_description       block
_cell_formula_units_Z            2
_exptl_crystal_recrystallization_method pyridine
loop_
_atom_site_label
_atom_site_type_symbol
_atom_site_fract_x
_atom_site_fract_y
_atom_site_fract_z
S1 S 0.83182(8) 0.26459(7) 0.30078(4)
O1 O 0.5471(2) 0.2112(2) 0.10983(14)
O2 O 0.7344(2) 0.3198(2) 0.08925(14)
H1 H 0.7091 0.3381 0.0277
O3 O 1.1361(2) 0.20514(18) 0.76698(12)
N1 N 0.6870(3) 0.1219(2) 0.43509(15)
N2 N 1.2786(4) 0.4042(4) 0.5613(2)
C1 C 0.6483(3) 0.2464(3) 0.14487(19)
C2 C 0.6882(3) 0.2095(3) 0.25744(18)
C3 C 0.7976(3) 0.1847(2) 0.42631(17)
C4 C 0.6240(3) 0.1354(3) 0.33987(18)
C5 C 0.4943(4) 0.0713(3) 0.3353(2)
H2 H 0.4167 0.1282 0.2874
H3 H 0.4357 0.0636 0.4062
H4 H 0.5472 -0.0191 0.3096
C6 C 0.8868(3) 0.1864(2) 0.51606(17)
C7 C 0.9984(3) 0.2585(3) 0.50346(18)
H5 H 1.0183 0.3054 0.4374
C8 C 1.0807(3) 0.2614(2) 0.58894(17)
C9 C 1.0521(3) 0.1928(2) 0.68921(17)
C10 C 0.9425(3) 0.1192(2) 0.70122(17)
H6 H 0.9230 0.0714 0.7669
C11 C 0.8622(3) 0.1166(3) 0.61544(18)
H7 H 0.7892 0.0664 0.6247
C12 C 1.1917(4) 0.3398(3) 0.57499(19)
C13 C 1.1139(3) 0.1363(3) 0.87244(17)
H8 H 1.1489 0.0371 0.8677
H9 H 0.9971 0.1684 0.9025
C14 C 1.2185(3) 0.1690(3) 0.94322(18)
H10 H 1.3341 0.1432 0.9081
C15 C 1.1568(4) 0.3222(3) 0.9600(2)
H11 H 1.1603 0.3744 0.8914
H12 H 1.2270 0.3404 1.0039
H13 H 1.0440 0.3487 0.9952
C16 C 1.2148(4) 0.0832(4) 1.0511(2)
H14 H 1.2555 -0.0134 1.0389
H15 H 1.1021 0.1077 1.0865
H16 H 1.2844 0.1012 1.0956
N3 N 0.6706(3) 0.3879(3) 0.89010(17)
C17 C 0.5872(4) 0.4524(3) 0.6832(2)
H17 H 0.5589 0.4742 0.6134
C18 C 0.6965(4) 0.5024(3) 0.7160(2)
H18 H 0.7444 0.5589 0.6687
C19 C 0.7359(4) 0.4686(3) 0.8200(2)
H19 H 0.8106 0.5035 0.8418
C20 C 0.5646(3) 0.3398(3) 0.8567(2)
H20 H 0.5182 0.2830 0.9048
C21 C 0.5200(4) 0.3700(4) 0.7544(2)
H21 H 0.4447 0.3345 0.7341
loop_
_geom_bond_atom_site_label_1
_geom_bond_atom_site_label_2
_geom_bond_site_symmetry_1
_geom_bond_site_symmetry_2
S1 C2 1_555 1_555
O1 C1 1_555 1_555
O2 H1 1_555 1_555
O3 C9 1_555 1_555
N1 C3 1_555 1_555
N2 C12 1_555 1_555
C1 O2 1_555 1_555
C2 C1 1_555 1_555
C3 S1 1_555 1_555
C4 N1 1_555 1_555
C5 C4 1_555 1_555
H2 C5 1_555 1_555
H3 C5 1_555 1_555
H4 C5 1_555 1_555
C6 C3 1_555 1_555
C7 C6 1_555 1_555
H5 C7 1_555 1_555
C8 C7 1_555 1_555
C9 C8 1_555 1_555
C10 C9 1_555 1_555
H6 C10 1_555 1_555
C11 C6 1_555 1_555
H7 C11 1_555 1_555
C12 C8 1_555 1_555
C13 O3 1_555 1_555
H8 C13 1_555 1_555
H9 C13 1_555 1_555
C14 C13 1_555 1_555
H10 C14 1_555 1_555
C15 C14 1_555 1_555
H11 C15 1_555 1_555
H12 C15 1_555 1_555
H13 C15 1_555 1_555
C16 C14 1_555 1_555
H14 C16 1_555 1_555
H15 C16 1_555 1_555
H16 C16 1_555 1_555
N3 C19 1_555 1_555
C17 H17 1_555 1_555
C18 C17 1_555 1_555
H18 C18 1_555 1_555
C19 C18 1_555 1_555
H19 C19 1_555 1_555
C20 N3 1_555 1_555
H20 C20 1_555 1_555
C21 C17 1_555 1_555
H21 C21 1_555 1_555
C2 C4 1_555 1_555
C10 C11 1_555 1_555
C20 C21 1_555 1_555

#END
