
#######################################################################
#
#                 Cambridge Crystallographic Data Centre
#                                CCDC 
#
#######################################################################
#
# If this CIF has been generated from an entry in the Cambridge 
# Structural Database, then it will include bibliographic, chemical, 
# crystal, experimental, refinement or atomic coordinate data resulting 
# from the CCDC's data processing and validation procedures.
#
#######################################################################

data_PUHHAD
_chemical_formula_moiety         'C20 H10 N2 O2 S2'
_chemical_name_systematic        
2,9-bis(2-Thienyl)-1,10-phenanthroline-5,6-dione
_symmetry_cell_setting           monoclinic
_symmetry_space_group_name_H-M   'P 21/c'
_symmetry_Int_Tables_number      14
_space_group_name_Hall           '-P 2ybc'
loop_
_symmetry_equiv_pos_site_id
_symmetry_equiv_pos_as_xyz
1 x,y,z
2 -x,1/2+y,1/2-z
3 -x,-y,-z
4 x,1/2-y,1/2+z
_cell_length_a                   7.4477(9)
_cell_length_b                   17.862(2)
_cell_length_c                   13.1438(15)
_cell_angle_alpha                90
_cell_angle_beta                 105.056(2)
_cell_angle_gamma                90
_cell_volume                     1688.51
_exptl_crystal_colour            red
_exptl_crystal_description       block
_cell_formula_units_Z            4
loop_
_atom_site_label
_atom_site_type_symbol
_atom_site_fract_x
_atom_site_fract_y
_atom_site_fract_z
C1 C 0.3357(3) 0.40843(14) 0.83616(19)
C2 C 0.3988(4) 0.33509(15) 0.8619(2)
H1 H 0.4229 0.3033 0.8110
C3 C 0.4237(4) 0.31153(14) 0.9635(2)
H2 H 0.4668 0.2634 0.9827
C4 C 0.3850(4) 0.35935(14) 1.0376(2)
C5 C 0.4136(4) 0.33511(15) 1.1478(2)
C6 C 0.3357(4) 0.38536(17) 1.2212(2)
C7 C 0.2716(4) 0.46051(15) 1.18386(19)
C8 C 0.2184(4) 0.51170(19) 1.2503(2)
H3 H 0.2196 0.4980 1.3187
C9 C 0.1646(4) 0.58187(19) 1.2150(2)
H4 H 0.1315 0.6168 1.2593
C10 C 0.1599(3) 0.60079(15) 1.1105(2)
C11 C 0.2638(3) 0.48374(14) 1.08009(18)
C12 C 0.3159(3) 0.43124(13) 1.00478(18)
C13 C 0.3134(4) 0.43882(15) 0.73075(19)
C14 C 0.3594(4) 0.40692(17) 0.6456(2)
H5 H 0.4058 0.3586 0.6458
C15 C 0.3289(5) 0.4549(2) 0.5587(2)
H6 H 0.3523 0.4420 0.4948
C16 C 0.2615(5) 0.5223(2) 0.5780(3)
H7 H 0.2333 0.5608 0.5288
C17 C 0.1006(4) 0.67397(16) 1.0665(2)
C18 C 0.0489(4) 0.73968(16) 1.1228(3)
H8 H 0.0529 0.7435 1.1940
C19 C -0.0092(6) 0.7963(2) 1.0419(3)
H9 H -0.0493 0.8433 1.0570
C20 C -0.0023(5) 0.7774(2) 0.9437(4)
H10 H -0.0378 0.8095 0.8863
N1 N 0.2935(3) 0.45538(11) 0.90637(15)
N2 N 0.2073(3) 0.55185(12) 1.04456(16)
O1 O 0.4934(4) 0.27768(12) 1.18175(18)
O2 O 0.3300(4) 0.36171(14) 1.30717(17)
S1 S 0.23379(11) 0.52893(4) 0.70269(6)
S2 S 0.07675(13) 0.68999(5) 0.93503(7)
loop_
_geom_bond_atom_site_label_1
_geom_bond_atom_site_label_2
_geom_bond_site_symmetry_1
_geom_bond_site_symmetry_2
C1 C2 1_555 1_555
C2 H1 1_555 1_555
C3 C2 1_555 1_555
H2 C3 1_555 1_555
C4 C3 1_555 1_555
C5 C4 1_555 1_555
C6 C5 1_555 1_555
C7 C6 1_555 1_555
C8 C7 1_555 1_555
H3 C8 1_555 1_555
C9 C8 1_555 1_555
H4 C9 1_555 1_555
C10 C9 1_555 1_555
C11 C7 1_555 1_555
C12 C4 1_555 1_555
C13 C1 1_555 1_555
C14 C13 1_555 1_555
H5 C14 1_555 1_555
C15 C14 1_555 1_555
H6 C15 1_555 1_555
C16 C15 1_555 1_555
H7 C16 1_555 1_555
C17 C10 1_555 1_555
C18 C17 1_555 1_555
H8 C18 1_555 1_555
C19 C18 1_555 1_555
H9 C19 1_555 1_555
C20 C19 1_555 1_555
H10 C20 1_555 1_555
N1 C1 1_555 1_555
N2 C10 1_555 1_555
O1 C5 1_555 1_555
O2 C6 1_555 1_555
S1 C13 1_555 1_555
S2 C17 1_555 1_555
C11 C12 1_555 1_555
C11 N2 1_555 1_555
C12 N1 1_555 1_555
C16 S1 1_555 1_555
C20 S2 1_555 1_555

#END
