
#######################################################################
#
#                 Cambridge Crystallographic Data Centre
#                                CCDC 
#
#######################################################################
#
# If this CIF has been generated from an entry in the Cambridge 
# Structural Database, then it will include bibliographic, chemical, 
# crystal, experimental, refinement or atomic coordinate data resulting 
# from the CCDC's data processing and validation procedures.
#
#######################################################################

data_PUHJOS
_chemical_formula_moiety         'C14 H8 Cl1 N1 O1'
_chemical_name_systematic        2-Chlorobenzo[h]quinoline-3-carbaldehyde
_symmetry_cell_setting           monoclinic
_symmetry_space_group_name_H-M   'P 21/c'
_symmetry_Int_Tables_number      14
_space_group_name_Hall           '-P 2ybc'
loop_
_symmetry_equiv_pos_site_id
_symmetry_equiv_pos_as_xyz
1 x,y,z
2 -x,1/2+y,1/2-z
3 -x,-y,-z
4 x,1/2-y,1/2+z
_cell_length_a                   3.9833(2)
_cell_length_b                   12.4722(6)
_cell_length_c                   21.4561(13)
_cell_angle_alpha                90
_cell_angle_beta                 90.687(6)
_cell_angle_gamma                90
_cell_volume                     1065.87
_exptl_crystal_colour            colorless
_exptl_crystal_description       block
_cell_formula_units_Z            4
_exptl_crystal_recrystallization_method 'petroleum ether/ethyl acetate'
loop_
_atom_site_label
_atom_site_type_symbol
_atom_site_fract_x
_atom_site_fract_y
_atom_site_fract_z
Cl1 Cl 0.74845(19) 0.87817(5) 0.54210(3)
O1 O 0.1454(5) 0.63739(16) 0.45218(9)
N1 N 0.7413(5) 0.74695(15) 0.63554(10)
C1 C 0.6418(6) 0.75706(19) 0.57774(13)
C2 C 0.4576(6) 0.6809(2) 0.54353(12)
C3 C 0.3790(6) 0.58737(19) 0.57384(12)
H1 H 0.2557 0.5348 0.5531
C4 C 0.4818(6) 0.57031(19) 0.63539(12)
C5 C 0.4052(6) 0.4751(2) 0.66944(13)
H2 H 0.2857 0.4201 0.6501
C6 C 0.5043(6) 0.4643(2) 0.72937(13)
H3 H 0.4504 0.4018 0.7506
C7 C 0.6893(6) 0.5458(2) 0.76127(12)
C8 C 0.7886(6) 0.5348(2) 0.82389(13)
H4 H 0.7339 0.4725 0.8453
C9 C 0.9636(7) 0.6135(2) 0.85384(13)
H5 H 1.0257 0.6051 0.8955
C10 C 1.0497(6) 0.7069(2) 0.82201(13)
H6 H 1.1693 0.7606 0.8426
C11 C 0.9598(6) 0.7202(2) 0.76084(12)
H7 H 1.0219 0.7822 0.7399
C12 C 0.7750(6) 0.64093(19) 0.72954(12)
C13 C 0.6639(6) 0.65335(19) 0.66560(12)
C14 C 0.3425(7) 0.6954(2) 0.47811(14)
H8 H 0.4283 0.7530 0.4558
loop_
_geom_bond_atom_site_label_1
_geom_bond_atom_site_label_2
_geom_bond_site_symmetry_1
_geom_bond_site_symmetry_2
Cl1 C1 1_555 1_555
O1 C14 1_555 1_555
N1 C1 1_555 1_555
C1 C2 1_555 1_555
C2 C3 1_555 1_555
C3 H1 1_555 1_555
C4 C3 1_555 1_555
C5 C4 1_555 1_555
H2 C5 1_555 1_555
C6 C5 1_555 1_555
H3 C6 1_555 1_555
C7 C6 1_555 1_555
C8 C7 1_555 1_555
H4 C8 1_555 1_555
C9 C8 1_555 1_555
H5 C9 1_555 1_555
C10 C9 1_555 1_555
H6 C10 1_555 1_555
C11 C10 1_555 1_555
H7 C11 1_555 1_555
C12 C7 1_555 1_555
C13 N1 1_555 1_555
C14 C2 1_555 1_555
H8 C14 1_555 1_555
C4 C13 1_555 1_555
C11 C12 1_555 1_555
C12 C13 1_555 1_555

#END
