
#######################################################################
#
#                 Cambridge Crystallographic Data Centre
#                                CCDC 
#
#######################################################################
#
# If this CIF has been generated from an entry in the Cambridge 
# Structural Database, then it will include bibliographic, chemical, 
# crystal, experimental, refinement or atomic coordinate data resulting 
# from the CCDC's data processing and validation procedures.
#
#######################################################################

data_PUJGIM
_chemical_formula_moiety         'C25 H20 N2 O1'
_chemical_name_systematic        1,3-dibenzyl-1H-perimidin-2(3H)-one
_symmetry_cell_setting           monoclinic
_symmetry_space_group_name_H-M   'C 2/c'
_symmetry_Int_Tables_number      15
_space_group_name_Hall           '-C 2yn'
loop_
_symmetry_equiv_pos_site_id
_symmetry_equiv_pos_as_xyz
1 x,y,z
2 -x,y,1/2-z
3 1/2+x,1/2+y,z
4 1/2-x,1/2+y,1/2-z
5 -x,-y,-z
6 x,-y,1/2+z
7 1/2-x,1/2-y,-z
8 1/2+x,1/2-y,1/2+z
_cell_length_a                   30.3297(13)
_cell_length_b                   8.7540(4)
_cell_length_c                   14.8727(6)
_cell_angle_alpha                90
_cell_angle_beta                 105.795(2)
_cell_angle_gamma                90
_cell_volume                     3799.69
_exptl_crystal_colour            colorless
_exptl_crystal_description       block
_cell_formula_units_Z            8
loop_
_atom_site_label
_atom_site_type_symbol
_atom_site_fract_x
_atom_site_fract_y
_atom_site_fract_z
O1 O 0.13194(5) 0.81920(18) 0.58756(10)
N1 N 0.10080(5) 0.70601(18) 0.44804(11)
N2 N 0.15722(5) 0.58284(19) 0.56542(11)
C1 C 0.01206(7) 0.7194(2) 0.48380(15)
H1 H 0.0342 0.6531 0.5183
C2 C -0.03219(7) 0.7110(3) 0.49187(17)
H2 H -0.0395 0.6393 0.5317
C3 C -0.06526(7) 0.8068(3) 0.44185(17)
H3 H -0.0951 0.8004 0.4469
C4 C -0.05405(7) 0.9123(3) 0.38422(16)
H4 H -0.0764 0.9785 0.3501
C5 C -0.00990(7) 0.9220(2) 0.37594(14)
H5 H -0.0027 0.9949 0.3367
C6 C 0.02373(6) 0.8243(2) 0.42556(13)
C7 C 0.07218(6) 0.8409(2) 0.41812(14)
H6 H 0.0711 0.8633 0.3537
H7 H 0.0864 0.9274 0.4558
C8 C 0.13003(6) 0.7089(2) 0.53676(14)
C9 C 0.15764(6) 0.4561(2) 0.50729(15)
C10 C 0.18773(7) 0.3378(3) 0.53456(19)
H8 H 0.2096 0.3401 0.5922
C11 C 0.18518(10) 0.2122(3) 0.4741(3)
H9 H 0.2058 0.1319 0.4923
C12 C 0.15354(10) 0.2056(3) 0.3903(2)
H10 H 0.1522 0.1198 0.3528
C13 C 0.12252(8) 0.3269(3) 0.35887(18)
C14 C 0.12525(6) 0.4544(2) 0.41848(14)
C15 C 0.09556(6) 0.5793(2) 0.38840(13)
C16 C 0.06351(7) 0.5749(3) 0.30330(15)
H11 H 0.0436 0.6567 0.2840
C17 C 0.06083(9) 0.4485(4) 0.24606(18)
H12 H 0.0388 0.4465 0.1886
C18 C 0.08921(10) 0.3284(4) 0.2713(2)
H13 H 0.0869 0.2459 0.2309
C19 C 0.18521(6) 0.5812(3) 0.66258(13)
H14 H 0.1832 0.4806 0.6885
H15 H 0.1724 0.6538 0.6979
C20 C 0.23515(6) 0.6192(2) 0.67595(13)
C21 C 0.24938(7) 0.7219(3) 0.61960(14)
H16 H 0.2280 0.7656 0.5691
C22 C 0.29507(7) 0.7608(3) 0.63727(15)
H17 H 0.3042 0.8303 0.5986
C23 C 0.32705(7) 0.6978(3) 0.71117(15)
H18 H 0.3578 0.7245 0.7230
C24 C 0.31349(7) 0.5964(3) 0.76691(16)
H19 H 0.3350 0.5531 0.8173
C25 C 0.26788(7) 0.5570(3) 0.74925(16)
H20 H 0.2591 0.4866 0.7880
loop_
_geom_bond_atom_site_label_1
_geom_bond_atom_site_label_2
_geom_bond_site_symmetry_1
_geom_bond_site_symmetry_2
O1 C8 1_555 1_555
N1 C7 1_555 1_555
N2 C8 1_555 1_555
C1 H1 1_555 1_555
C2 C1 1_555 1_555
H2 C2 1_555 1_555
C3 C2 1_555 1_555
H3 C3 1_555 1_555
C4 C3 1_555 1_555
H4 C4 1_555 1_555
C5 C4 1_555 1_555
H5 C5 1_555 1_555
C6 C1 1_555 1_555
C7 C6 1_555 1_555
H6 C7 1_555 1_555
H7 C7 1_555 1_555
C8 N1 1_555 1_555
C9 N2 1_555 1_555
C10 C9 1_555 1_555
H8 C10 1_555 1_555
C11 C10 1_555 1_555
H9 C11 1_555 1_555
C12 C11 1_555 1_555
H10 C12 1_555 1_555
C13 C12 1_555 1_555
C14 C9 1_555 1_555
C15 N1 1_555 1_555
C16 C15 1_555 1_555
H11 C16 1_555 1_555
C17 C16 1_555 1_555
H12 C17 1_555 1_555
C18 C13 1_555 1_555
H13 C18 1_555 1_555
C19 N2 1_555 1_555
H14 C19 1_555 1_555
H15 C19 1_555 1_555
C20 C19 1_555 1_555
C21 C20 1_555 1_555
H16 C21 1_555 1_555
C22 C21 1_555 1_555
H17 C22 1_555 1_555
C23 C22 1_555 1_555
H18 C23 1_555 1_555
C24 C23 1_555 1_555
H19 C24 1_555 1_555
C25 C20 1_555 1_555
H20 C25 1_555 1_555
C5 C6 1_555 1_555
C13 C14 1_555 1_555
C14 C15 1_555 1_555
C17 C18 1_555 1_555
C24 C25 1_555 1_555

#END
