
#######################################################################
#
#                 Cambridge Crystallographic Data Centre
#                                CCDC 
#
#######################################################################
#
# If this CIF has been generated from an entry in the Cambridge 
# Structural Database, then it will include bibliographic, chemical, 
# crystal, experimental, refinement or atomic coordinate data resulting 
# from the CCDC's data processing and validation procedures.
#
#######################################################################

data_PUJGEH
_chemical_formula_moiety         'C18 H17 Cl2 N1 O4'
_chemical_name_systematic        
'3-Ethyl 5-methyl 4-(2,3-dichlorophenyl)-2,6-dimethylpyridine-3,5-dicarboxylate'
_symmetry_cell_setting           orthorhombic
_symmetry_space_group_name_H-M   'P b c a'
_symmetry_Int_Tables_number      61
_space_group_name_Hall           '-P 2ac 2ab'
loop_
_symmetry_equiv_pos_site_id
_symmetry_equiv_pos_as_xyz
1 x,y,z
2 1/2-x,-y,1/2+z
3 -x,1/2+y,1/2-z
4 1/2+x,1/2-y,-z
5 -x,-y,-z
6 1/2+x,y,1/2-z
7 x,1/2-y,1/2+z
8 1/2-x,1/2+y,z
_cell_length_a                   14.3179(6)
_cell_length_b                   15.5045(7)
_cell_length_c                   16.9664(8)
_cell_angle_alpha                90
_cell_angle_beta                 90
_cell_angle_gamma                90
_cell_volume                     3766.4
_exptl_crystal_colour            colorless
_exptl_crystal_description       block
_cell_formula_units_Z            8
loop_
_atom_site_label
_atom_site_type_symbol
_atom_site_fract_x
_atom_site_fract_y
_atom_site_fract_z
C1 C 0.6713(2) 0.16190(18) 0.34902(17)
C2 C 0.6979(2) 0.08675(19) 0.30988(19)
C3 C 0.7775(3) 0.0859(2) 0.2636(2)
H1 H 0.7955 0.0357 0.2378
C4 C 0.8295(2) 0.1596(2) 0.2559(2)
H2 H 0.8832 0.1591 0.2251
C5 C 0.8034(2) 0.2339(2) 0.29326(18)
H3 H 0.8393 0.2834 0.2872
C6 C 0.72405(18) 0.23629(18) 0.33994(16)
C7 C 0.69755(18) 0.31818(17) 0.38064(16)
C8 C 0.74662(19) 0.34553(19) 0.44663(16)
C9 C 0.7225(2) 0.4235(2) 0.48194(18)
C10 C 0.6020(2) 0.44520(19) 0.39427(18)
C11 C 0.62486(18) 0.37031(18) 0.35304(16)
C12 C 0.5729(2) 0.34657(18) 0.28006(18)
C13 C 0.8256(2) 0.2937(2) 0.47870(17)
C14 C 0.5231(2) 0.5037(2) 0.3710(2)
H4 H 0.4807 0.5098 0.4145
H5 H 0.4907 0.4796 0.3267
H6 H 0.5476 0.5593 0.3570
C15 C 0.7767(3) 0.4590(3) 0.5511(2)
H7 H 0.8121 0.5084 0.5344
H8 H 0.8183 0.4155 0.5707
H9 H 0.7340 0.4757 0.5920
C16 C 0.8683(3) 0.1748(3) 0.5567(3)
H10 H 0.9022 0.1437 0.5170
H11 H 0.8388 0.1347 0.5919
H12 H 0.9106 0.2107 0.5858
C17 C 0.5886(3) 0.3220(3) 0.1420(2)
H13 H 0.6231 0.3485 0.0992
H14 H 0.5241 0.3409 0.1383
C18 C 0.5928(3) 0.2273(3) 0.1341(2)
H15 H 0.6557 0.2081 0.1429
H16 H 0.5734 0.2110 0.0821
H17 H 0.5522 0.2012 0.1723
Cl1 Cl 0.57453(6) 0.16217(6) 0.40985(6)
Cl2 Cl 0.63272(8) -0.00639(6) 0.31910(7)
N1 N 0.65082(19) 0.47100(17) 0.45730(15)
O1 O 0.49233(15) 0.32839(17) 0.27743(14)
O2 O 0.62809(14) 0.35000(15) 0.21758(12)
O3 O 0.79723(16) 0.22840(16) 0.51927(17)
O4 O 0.90563(18) 0.3137(2) 0.47082(18)
loop_
_geom_bond_atom_site_label_1
_geom_bond_atom_site_label_2
_geom_bond_site_symmetry_1
_geom_bond_site_symmetry_2
C1 C2 1_555 1_555
C2 C3 1_555 1_555
C3 H1 1_555 1_555
C4 C3 1_555 1_555
H2 C4 1_555 1_555
C5 C4 1_555 1_555
H3 C5 1_555 1_555
C6 C1 1_555 1_555
C7 C6 1_555 1_555
C8 C7 1_555 1_555
C9 C8 1_555 1_555
C10 C11 1_555 1_555
C11 C7 1_555 1_555
C12 C11 1_555 1_555
C13 C8 1_555 1_555
C14 C10 1_555 1_555
H4 C14 1_555 1_555
H5 C14 1_555 1_555
H6 C14 1_555 1_555
C15 C9 1_555 1_555
H7 C15 1_555 1_555
H8 C15 1_555 1_555
H9 C15 1_555 1_555
C16 H10 1_555 1_555
H11 C16 1_555 1_555
H12 C16 1_555 1_555
C17 H13 1_555 1_555
H14 C17 1_555 1_555
C18 C17 1_555 1_555
H15 C18 1_555 1_555
H16 C18 1_555 1_555
H17 C18 1_555 1_555
Cl1 C1 1_555 1_555
Cl2 C2 1_555 1_555
N1 C9 1_555 1_555
O1 C12 1_555 1_555
O2 C12 1_555 1_555
O3 C13 1_555 1_555
O4 C13 1_555 1_555
C5 C6 1_555 1_555
C10 N1 1_555 1_555
C16 O3 1_555 1_555
C17 O2 1_555 1_555

#END
