
#######################################################################
#
#                 Cambridge Crystallographic Data Centre
#                                CCDC 
#
#######################################################################
#
# If this CIF has been generated from an entry in the Cambridge 
# Structural Database, then it will include bibliographic, chemical, 
# crystal, experimental, refinement or atomic coordinate data resulting 
# from the CCDC's data processing and validation procedures.
#
#######################################################################

data_PUJGAE
_chemical_formula_moiety         'C19 H25 N2 1+,H2 O1,Br1 1-'
_chemical_name_systematic        
'1,3-dibutyl-1H-perimidin-3-ium bromide monohydrate'
_symmetry_cell_setting           triclinic
_symmetry_space_group_name_H-M   'P -1'
_symmetry_Int_Tables_number      2
_space_group_name_Hall           '-P 1'
loop_
_symmetry_equiv_pos_site_id
_symmetry_equiv_pos_as_xyz
1 x,y,z
2 -x,-y,-z
_cell_length_a                   10.4898(12)
_cell_length_b                   11.5739(13)
_cell_length_c                   16.4456(19)
_cell_angle_alpha                93.603(4)
_cell_angle_beta                 98.485(3)
_cell_angle_gamma                106.291(4)
_cell_volume                     1884.02
_exptl_crystal_colour            colorless
_exptl_crystal_description       block
_cell_formula_units_Z            4
loop_
_atom_site_label
_atom_site_type_symbol
_atom_site_fract_x
_atom_site_fract_y
_atom_site_fract_z
Br1 Br 0.79141(6) 0.28437(5) 0.28907(3)
N1 N 0.4862(4) 0.1869(3) 0.4413(2)
N2 N 0.6857(3) 0.1784(3) 0.5196(2)
C1 C 0.4814(4) 0.1196(3) 0.5767(2)
C2 C 0.4095(4) 0.1452(3) 0.5042(3)
C3 C 0.2742(5) 0.1296(4) 0.4956(3)
H1 H 0.2273 0.1463 0.4474
C4 C 0.2068(5) 0.0880(4) 0.5605(4)
H2 H 0.1147 0.0782 0.5549
C5 C 0.2718(5) 0.0616(4) 0.6309(3)
H3 H 0.2240 0.0333 0.6725
C6 C 0.4107(4) 0.0768(3) 0.6417(3)
C7 C 0.4857(5) 0.0489(4) 0.7137(3)
H4 H 0.4414 0.0183 0.7562
C8 C 0.6193(5) 0.0660(4) 0.7208(3)
H5 H 0.6660 0.0485 0.7688
C9 C 0.6892(5) 0.1094(4) 0.6580(3)
H6 H 0.7816 0.1206 0.6641
C10 C 0.6211(4) 0.1354(3) 0.5872(2)
C11 C 0.6159(5) 0.2008(3) 0.4528(3)
H7 H 0.6620 0.2287 0.4104
C12 C 0.8345(4) 0.2075(4) 0.5272(3)
H8 H 0.8588 0.2105 0.4725
H9 H 0.8642 0.1440 0.5527
C13 C 0.9056(5) 0.3285(5) 0.5789(4)
H10 H 0.8683 0.3296 0.6295
H11 H 0.8858 0.3924 0.5486
C14 C 1.0581(6) 0.3568(6) 0.6019(5)
H12 H 1.0937 0.4306 0.6398
H13 H 1.0797 0.2915 0.6298
C15 C 1.1212(9) 0.3717(7) 0.5275(6)
H14 H 1.2169 0.3878 0.5430
H15 H 1.1024 0.4382 0.5011
H16 H 1.0854 0.2989 0.4900
C16 C 0.4236(6) 0.2256(5) 0.3654(3)
H17 H 0.3311 0.1752 0.3484
H18 H 0.4729 0.2183 0.3208
C17 C 0.4278(11) 0.3604(7) 0.3856(5)
H19 H 0.3768 0.3618 0.4301
H20 H 0.5208 0.4043 0.4084
C18 C 0.3850(12) 0.4275(6) 0.3288(5)
H21 H 0.2878 0.3964 0.3125
H22 H 0.4253 0.4209 0.2799
C19 C 0.4226(10) 0.5583(5) 0.3634(5)
H23 H 0.3966 0.6050 0.3212
H24 H 0.5183 0.5879 0.3820
H25 H 0.3770 0.5655 0.4091
Br2 Br -0.00594(5) 0.90428(5) 0.21805(4)
N3 N 0.8071(3) 0.5708(3) 0.07945(19)
N4 N 0.8652(3) 0.7008(3) -0.0202(2)
C20 C 0.8376(3) 0.4888(3) -0.0518(2)
C21 C 0.8066(3) 0.4681(3) 0.0277(2)
C22 C 0.7812(4) 0.3546(4) 0.0532(3)
H26 H 0.7612 0.3421 0.1057
C23 C 0.7857(4) 0.2577(4) -0.0007(3)
H27 H 0.7677 0.1806 0.0164
C24 C 0.8155(4) 0.2739(4) -0.0767(3)
H28 H 0.8191 0.2082 -0.1108
C25 C 0.8417(4) 0.3899(4) -0.1056(3)
C26 C 0.8751(5) 0.4128(5) -0.1846(3)
H29 H 0.8786 0.3491 -0.2208
C27 C 0.9016(5) 0.5243(5) -0.2080(3)
H30 H 0.9234 0.5364 -0.2603
C28 C 0.8975(4) 0.6237(5) -0.1560(3)
H31 H 0.9154 0.7006 -0.1737
C29 C 0.8663(3) 0.6054(4) -0.0784(2)
C30 C 0.8374(4) 0.6785(4) 0.0536(2)
H32 H 0.8394 0.7439 0.0901
C31 C 0.7714(4) 0.5596(4) 0.1632(2)
H33 H 0.8029 0.6389 0.1949
H34 H 0.8172 0.5074 0.1912
C32 C 0.6214(5) 0.5086(4) 0.1606(3)
H35 H 0.5920 0.4276 0.1314
H36 H 0.6052 0.5012 0.2168
C33 C 0.5355(5) 0.5809(5) 0.1201(4)
H37 H 0.4414 0.5356 0.1167
H38 H 0.5523 0.5891 0.0640
C34 C 0.5585(7) 0.7058(6) 0.1637(4)
H39 H 0.5005 0.7454 0.1336
H40 H 0.6509 0.7524 0.1664
H41 H 0.5390 0.6990 0.2187
C35 C 0.8967(5) 0.8286(4) -0.0402(3)
H42 H 0.9701 0.8447 -0.0715
H43 H 0.9263 0.8828 0.0108
C36 C 0.7754(5) 0.8543(5) -0.0899(4)
H44 H 0.8038 0.9353 -0.1064
H45 H 0.7449 0.7980 -0.1399
C37 C 0.6587(6) 0.8447(6) -0.0452(4)
H46 H 0.6217 0.7610 -0.0356
H47 H 0.6912 0.8926 0.0083
C38 C 0.5488(6) 0.8867(6) -0.0913(4)
H48 H 0.4775 0.8788 -0.0595
H49 H 0.5141 0.8383 -0.1437
H50 H 0.5841 0.9701 -0.1001
O1 O 0.0619(5) 0.1735(4) 0.3299(3)
O2 O 0.7940(6) 0.0665(4) 0.1419(3)
loop_
_geom_bond_atom_site_label_1
_geom_bond_atom_site_label_2
_geom_bond_site_symmetry_1
_geom_bond_site_symmetry_2
N1 C2 1_555 1_555
N2 C10 1_555 1_555
C1 C2 1_555 1_555
C2 C3 1_555 1_555
C3 H1 1_555 1_555
C4 C3 1_555 1_555
H2 C4 1_555 1_555
C5 C4 1_555 1_555
H3 C5 1_555 1_555
C6 C1 1_555 1_555
C7 C6 1_555 1_555
H4 C7 1_555 1_555
C8 C7 1_555 1_555
H5 C8 1_555 1_555
C9 C8 1_555 1_555
H6 C9 1_555 1_555
C10 C1 1_555 1_555
C11 N1 1_555 1_555
H7 C11 1_555 1_555
C12 N2 1_555 1_555
H8 C12 1_555 1_555
H9 C12 1_555 1_555
C13 C12 1_555 1_555
H10 C13 1_555 1_555
H11 C13 1_555 1_555
C14 C13 1_555 1_555
H12 C14 1_555 1_555
H13 C14 1_555 1_555
C15 C14 1_555 1_555
H14 C15 1_555 1_555
H15 C15 1_555 1_555
H16 C15 1_555 1_555
C16 N1 1_555 1_555
H17 C16 1_555 1_555
H18 C16 1_555 1_555
C17 C16 1_555 1_555
H19 C17 1_555 1_555
H20 C17 1_555 1_555
C18 C17 1_555 1_555
H21 C18 1_555 1_555
H22 C18 1_555 1_555
C19 C18 1_555 1_555
H23 C19 1_555 1_555
H24 C19 1_555 1_555
H25 C19 1_555 1_555
N3 C21 1_555 1_555
N4 C29 1_555 1_555
C20 C21 1_555 1_555
C21 C22 1_555 1_555
C22 H26 1_555 1_555
C23 C22 1_555 1_555
H27 C23 1_555 1_555
C24 C23 1_555 1_555
H28 C24 1_555 1_555
C25 C20 1_555 1_555
C26 C25 1_555 1_555
H29 C26 1_555 1_555
C27 C26 1_555 1_555
H30 C27 1_555 1_555
C28 C27 1_555 1_555
H31 C28 1_555 1_555
C29 C20 1_555 1_555
C30 N3 1_555 1_555
H32 C30 1_555 1_555
C31 N3 1_555 1_555
H33 C31 1_555 1_555
H34 C31 1_555 1_555
C32 C31 1_555 1_555
H35 C32 1_555 1_555
H36 C32 1_555 1_555
C33 C32 1_555 1_555
H37 C33 1_555 1_555
H38 C33 1_555 1_555
C34 C33 1_555 1_555
H39 C34 1_555 1_555
H40 C34 1_555 1_555
H41 C34 1_555 1_555
C35 N4 1_555 1_555
H42 C35 1_555 1_555
H43 C35 1_555 1_555
C36 C35 1_555 1_555
H44 C36 1_555 1_555
H45 C36 1_555 1_555
C37 C36 1_555 1_555
H46 C37 1_555 1_555
H47 C37 1_555 1_555
C38 C37 1_555 1_555
H48 C38 1_555 1_555
H49 C38 1_555 1_555
H50 C38 1_555 1_555
N2 C11 1_555 1_555
C5 C6 1_555 1_555
C9 C10 1_555 1_555
N4 C30 1_555 1_555
C24 C25 1_555 1_555
C28 C29 1_555 1_555

#END
