
#######################################################################
#
#                 Cambridge Crystallographic Data Centre
#                                CCDC 
#
#######################################################################
#
# If this CIF has been generated from an entry in the Cambridge 
# Structural Database, then it will include bibliographic, chemical, 
# crystal, experimental, refinement or atomic coordinate data resulting 
# from the CCDC's data processing and validation procedures.
#
#######################################################################

data_PUJHAE
_chemical_formula_moiety         'C14 H13 N3 O2'
_chemical_name_systematic        N'-(2-Methoxybenzylidene)nicotinohydrazide
_symmetry_cell_setting           tetragonal
_symmetry_space_group_name_H-M   'P 43'
_symmetry_Int_Tables_number      78
_space_group_name_Hall           'P 4cw'
loop_
_symmetry_equiv_pos_site_id
_symmetry_equiv_pos_as_xyz
1 x,y,z
2 -x,-y,1/2+z
3 -y,x,3/4+z
4 y,-x,1/4+z
_cell_length_a                   9.3264(13)
_cell_length_b                   9.3264(13)
_cell_length_c                   15.594(3)
_cell_angle_alpha                90
_cell_angle_beta                 90
_cell_angle_gamma                90
_cell_volume                     1356.39
_exptl_crystal_colour            colorless
_exptl_crystal_description       block
_cell_formula_units_Z            4
loop_
_atom_site_label
_atom_site_type_symbol
_atom_site_fract_x
_atom_site_fract_y
_atom_site_fract_z
N1 N 0.54565(17) 0.50653(18) 0.21981(11)
N2 N 0.41517(19) 0.53627(19) 0.18161(11)
N3 N 0.0801(2) 0.6980(3) 0.03464(14)
O1 O 0.84079(19) 0.3686(2) 0.05708(12)
O2 O 0.33671(17) 0.66164(18) 0.29682(10)
C1 C 0.7782(2) 0.4068(2) 0.20059(15)
C2 C 0.8837(2) 0.3667(2) 0.14119(15)
C3 C 1.0208(3) 0.3312(3) 0.1677(2)
H1 H 1.0901 0.3046 0.1279
C4 C 1.0535(3) 0.3360(3) 0.2543(2)
H2 H 1.1455 0.3123 0.2724
C5 C 0.9519(3) 0.3753(3) 0.31421(19)
H3 H 0.9751 0.3784 0.3722
C6 C 0.8156(3) 0.4098(2) 0.28694(15)
H4 H 0.7469 0.4358 0.3273
C7 C 0.6357(2) 0.4433(2) 0.17089(15)
H5 H 0.6091 0.4202 0.1151
C8 C 0.3205(2) 0.6206(2) 0.22245(13)
C9 C 0.1932(2) 0.6646(2) 0.17108(14)
C10 C 0.0723(3) 0.7159(3) 0.21159(16)
H6 H 0.0690 0.7228 0.2710
C11 C -0.0433(3) 0.7567(4) 0.1626(2)
H7 H -0.1265 0.7907 0.1884
C12 C -0.0339(3) 0.7463(4) 0.07564(19)
H8 H -0.1125 0.7749 0.0432
C13 C 0.1914(3) 0.6590(3) 0.08281(14)
H9 H 0.2732 0.6259 0.0550
C14 C 0.9423(4) 0.3294(4) -0.0070(2)
H10 H 1.0234 0.3926 -0.0041
H11 H 0.8987 0.3366 -0.0626
H12 H 0.9734 0.2325 0.0026
H13 H 0.394(3) 0.496(3) 0.1309(11)
loop_
_geom_bond_atom_site_label_1
_geom_bond_atom_site_label_2
_geom_bond_site_symmetry_1
_geom_bond_site_symmetry_2
N1 N2 1_555 1_555
N2 C8 1_555 1_555
N3 C12 1_555 1_555
O1 C2 1_555 1_555
O2 C8 1_555 1_555
C1 C2 1_555 1_555
C2 C3 1_555 1_555
C3 H1 1_555 1_555
C4 C3 1_555 1_555
H2 C4 1_555 1_555
C5 C4 1_555 1_555
H3 C5 1_555 1_555
C6 C1 1_555 1_555
H4 C6 1_555 1_555
C7 N1 1_555 1_555
H5 C7 1_555 1_555
C8 C9 1_555 1_555
C9 C10 1_555 1_555
C10 H6 1_555 1_555
C11 C10 1_555 1_555
H7 C11 1_555 1_555
C12 C11 1_555 1_555
H8 C12 1_555 1_555
C13 N3 1_555 1_555
H9 C13 1_555 1_555
C14 O1 1_555 1_555
H10 C14 1_555 1_555
H11 C14 1_555 1_555
H12 C14 1_555 1_555
H13 N2 1_555 1_555
C1 C7 1_555 1_555
C5 C6 1_555 1_555
C9 C13 1_555 1_555

#END
