
#######################################################################
#
#                 Cambridge Crystallographic Data Centre
#                                CCDC 
#
#######################################################################
#
# If this CIF has been generated from an entry in the Cambridge 
# Structural Database, then it will include bibliographic, chemical, 
# crystal, experimental, refinement or atomic coordinate data resulting 
# from the CCDC's data processing and validation procedures.
#
#######################################################################

data_PUJSAP
_chemical_formula_moiety         'C8 H9 Cl1 N4 S1'
_chemical_name_systematic        
(E)-1-[(2-Chloro-5-methylpyridin-3-yl)methylene]thiosemicarbazide
_chemical_properties_biological  
'inhibitory activity against tyrosinase from cotton bollworm'
_symmetry_cell_setting           monoclinic
_symmetry_space_group_name_H-M   'P 21/c'
_symmetry_Int_Tables_number      14
_space_group_name_Hall           '-P 2ybc'
loop_
_symmetry_equiv_pos_site_id
_symmetry_equiv_pos_as_xyz
1 x,y,z
2 -x,1/2+y,1/2-z
3 -x,-y,-z
4 x,1/2-y,1/2+z
_cell_length_a                   8.776(3)
_cell_length_b                   15.523(4)
_cell_length_c                   7.540(2)
_cell_angle_alpha                90
_cell_angle_beta                 96.193(16)
_cell_angle_gamma                90
_cell_volume                     1021.18
_exptl_crystal_colour            colorless
_exptl_crystal_description       block
_cell_formula_units_Z            4
_exptl_crystal_recrystallization_method 'anhydrous methanol'
loop_
_atom_site_label
_atom_site_type_symbol
_atom_site_fract_x
_atom_site_fract_y
_atom_site_fract_z
Cl1 Cl 0.50443(6) 0.31852(4) 0.16529(8)
S1 S 1.21803(7) 0.48033(4) -0.12061(9)
N1 N 0.5116(2) 0.15225(14) 0.1900(3)
N2 N 0.9510(2) 0.28984(13) -0.0128(2)
N3 N 1.0139(2) 0.36918(13) -0.0313(3)
H1 H 0.9687 0.4145 0.0097
N4 N 1.2069(2) 0.31191(13) -0.1757(3)
H2 H 1.1645 0.2609 -0.1669
H3 H 1.2914 0.3171 -0.2281
C1 C 0.5935(3) 0.21864(16) 0.1461(3)
C2 C 0.7391(2) 0.21399(15) 0.0899(3)
C3 C 0.7996(3) 0.13151(16) 0.0783(3)
H4 H 0.8979 0.1246 0.0385
C4 C 0.7192(3) 0.05922(17) 0.1237(3)
C5 C 0.5753(3) 0.07344(16) 0.1798(3)
H5 H 0.5186 0.0249 0.2129
C6 C 0.7836(3) -0.03035(16) 0.1176(3)
H6 H 0.8908 -0.0302 0.1699
H7 H 0.7779 -0.0498 -0.0067
H8 H 0.7241 -0.0694 0.1854
C7 C 0.8228(3) 0.29122(16) 0.0529(3)
H9 H 0.7804 0.3455 0.0787
C8 C 1.1438(3) 0.38067(15) -0.1105(3)
loop_
_geom_bond_atom_site_label_1
_geom_bond_atom_site_label_2
_geom_bond_site_symmetry_1
_geom_bond_site_symmetry_2
Cl1 C1 1_555 1_555
S1 C8 1_555 1_555
N1 C1 1_555 1_555
N2 N3 1_555 1_555
N3 H1 1_555 1_555
N4 H2 1_555 1_555
H3 N4 1_555 1_555
C1 C2 1_555 1_555
C2 C3 1_555 1_555
C3 H4 1_555 1_555
C4 C3 1_555 1_555
C5 N1 1_555 1_555
H5 C5 1_555 1_555
C6 C4 1_555 1_555
H6 C6 1_555 1_555
H7 C6 1_555 1_555
H8 C6 1_555 1_555
C7 N2 1_555 1_555
H9 C7 1_555 1_555
C8 N3 1_555 1_555
N4 C8 1_555 1_555
C2 C7 1_555 1_555
C4 C5 1_555 1_555

#END
