
#######################################################################
#
#                 Cambridge Crystallographic Data Centre
#                                CCDC 
#
#######################################################################
#
# If this CIF has been generated from an entry in the Cambridge 
# Structural Database, then it will include bibliographic, chemical, 
# crystal, experimental, refinement or atomic coordinate data resulting 
# from the CCDC's data processing and validation procedures.
#
#######################################################################

data_PUJSEU
_chemical_formula_moiety         'C25 H23 N3 S1'
_chemical_name_systematic        
4'-(4-(t-butylsulfanyl)phenyl)-2,2':6',2''-terpyridine
_symmetry_cell_setting           triclinic
_symmetry_space_group_name_H-M   'P -1'
_symmetry_Int_Tables_number      2
_space_group_name_Hall           '-P 1'
loop_
_symmetry_equiv_pos_site_id
_symmetry_equiv_pos_as_xyz
1 x,y,z
2 -x,-y,-z
_cell_length_a                   8.2244(16)
_cell_length_b                   10.228(2)
_cell_length_c                   14.193(3)
_cell_angle_alpha                70.91(3)
_cell_angle_beta                 81.49(3)
_cell_angle_gamma                72.81(3)
_cell_volume                     1076.1
_cell_formula_units_Z            2
loop_
_atom_site_label
_atom_site_type_symbol
_atom_site_fract_x
_atom_site_fract_y
_atom_site_fract_z
C1 C -0.3324(2) 0.58826(19) 0.98995(14)
C2 C -0.4317(3) 0.5940(2) 1.07676(17)
H1 H -0.4144 0.5151 1.1337
C3 C -0.5562(3) 0.7175(3) 1.0781(2)
H2 H -0.6237 0.7238 1.1360
C4 C -0.5786(4) 0.8303(3) 0.9933(3)
H3 H -0.6614 0.9154 0.9922
C5 C -0.4767(3) 0.8167(2) 0.9089(2)
H4 H -0.4939 0.8943 0.8511
C6 C -0.1910(2) 0.45918(18) 0.98584(13)
C7 C -0.1000(2) 0.44990(18) 0.89676(13)
H5 H -0.1260 0.5252 0.8383
C8 C 0.0304(2) 0.32757(18) 0.89531(13)
C9 C 0.0644(2) 0.21989(18) 0.98565(13)
H6 H 0.1500 0.1359 0.9881
C10 C -0.0300(2) 0.23847(17) 1.07212(13)
C11 C 0.0113(2) 0.13040(18) 1.17144(13)
C12 C -0.0837(3) 0.1487(2) 1.25764(15)
H7 H -0.1776 0.2274 1.2542
C13 C -0.0380(3) 0.0494(2) 1.34816(16)
H8 H -0.1005 0.0604 1.4066
C14 C 0.0999(3) -0.0653(2) 1.35155(16)
H9 H 0.1335 -0.1341 1.4118
C15 C 0.1873(3) -0.0758(2) 1.26326(17)
H10 H 0.2821 -0.1536 1.2658
C16 C 0.1350(2) 0.31379(18) 0.80256(12)
C17 C 0.1814(2) 0.4314(2) 0.73396(14)
H11 H 0.1436 0.5203 0.7454
C18 C 0.2831(2) 0.4180(2) 0.64885(14)
H12 H 0.3136 0.4977 0.6043
C19 C 0.3399(2) 0.2871(2) 0.62931(13)
C20 C 0.2931(3) 0.1699(2) 0.69726(14)
H13 H 0.3302 0.0812 0.6854
C21 C 0.1916(3) 0.18298(19) 0.78262(14)
H14 H 0.1612 0.1031 0.8271
C22 C 0.3329(3) 0.3264(2) 0.42001(14)
C23 C 0.2492(3) 0.4866(3) 0.3965(2)
H15 H 0.1813 0.5179 0.3397
H16 H 0.3356 0.5373 0.3819
H17 H 0.1777 0.5055 0.4530
C24 C 0.4539(4) 0.2969(4) 0.33308(19)
H18 H 0.3914 0.3291 0.2740
H19 H 0.5066 0.1957 0.3481
H20 H 0.5402 0.3471 0.3221
C25 C 0.1998(4) 0.2445(3) 0.4452(2)
H21 H 0.1301 0.2627 0.5025
H22 H 0.2545 0.1437 0.4598
H23 H 0.1299 0.2747 0.3895
N1 N -0.3543(2) 0.69781(17) 0.90561(14)
N2 N 0.1462(2) 0.01742(18) 1.17403(12)
N3 N -0.15700(18) 0.35577(15) 1.07282(11)
S1 S 0.47737(6) 0.26557(6) 0.52310(4)
loop_
_geom_bond_atom_site_label_1
_geom_bond_atom_site_label_2
_geom_bond_site_symmetry_1
_geom_bond_site_symmetry_2
C1 C2 1_555 1_555
C2 H1 1_555 1_555
C3 C2 1_555 1_555
H2 C3 1_555 1_555
C4 C3 1_555 1_555
H3 C4 1_555 1_555
C5 C4 1_555 1_555
H4 C5 1_555 1_555
C6 C1 1_555 1_555
C7 C6 1_555 1_555
H5 C7 1_555 1_555
C8 C7 1_555 1_555
C9 C8 1_555 1_555
H6 C9 1_555 1_555
C10 C9 1_555 1_555
C11 C10 1_555 1_555
C12 C11 1_555 1_555
H7 C12 1_555 1_555
C13 C12 1_555 1_555
H8 C13 1_555 1_555
C14 C13 1_555 1_555
H9 C14 1_555 1_555
C15 C14 1_555 1_555
H10 C15 1_555 1_555
C16 C8 1_555 1_555
C17 C16 1_555 1_555
H11 C17 1_555 1_555
C18 C17 1_555 1_555
H12 C18 1_555 1_555
C19 C18 1_555 1_555
C20 C19 1_555 1_555
H13 C20 1_555 1_555
C21 C16 1_555 1_555
H14 C21 1_555 1_555
C22 C23 1_555 1_555
C23 H15 1_555 1_555
H16 C23 1_555 1_555
H17 C23 1_555 1_555
C24 C22 1_555 1_555
H18 C24 1_555 1_555
H19 C24 1_555 1_555
H20 C24 1_555 1_555
C25 C22 1_555 1_555
H21 C25 1_555 1_555
H22 C25 1_555 1_555
H23 C25 1_555 1_555
N1 C1 1_555 1_555
N2 C11 1_555 1_555
N3 C6 1_555 1_555
S1 C19 1_555 1_555
C5 N1 1_555 1_555
C10 N3 1_555 1_555
C15 N2 1_555 1_555
C20 C21 1_555 1_555
C22 S1 1_555 1_555

#END
