
#######################################################################
#
#                 Cambridge Crystallographic Data Centre
#                                CCDC 
#
#######################################################################
#
# If this CIF has been generated from an entry in the Cambridge 
# Structural Database, then it will include bibliographic, chemical, 
# crystal, experimental, refinement or atomic coordinate data resulting 
# from the CCDC's data processing and validation procedures.
#
#######################################################################

data_PUKFUX
_chemical_name_common            
'2-((2-(8-Hydroxyquinolin-2-yl)-1H-benzimidazol-1-yl)methyl)quinolin-8-ol toluene solvate'
_chemical_formula_moiety         'C26 H18 N4 O2,0.5(C7 H8)'
_chemical_name_systematic        
'2-[1-(8-hydroxy-2-quinolylmethyl)-1H-benzimidazol-2-yl]quinolin-8-ol toluene solvate'
_symmetry_cell_setting           triclinic
_symmetry_space_group_name_H-M   'P -1'
_symmetry_Int_Tables_number      2
_space_group_name_Hall           '-P 1'
loop_
_symmetry_equiv_pos_site_id
_symmetry_equiv_pos_as_xyz
1 x,y,z
2 -x,-y,-z
_cell_length_a                   8.014(7)
_cell_length_b                   12.669(11)
_cell_length_c                   12.727(11)
_cell_angle_alpha                112.979(10)
_cell_angle_beta                 90.881(11)
_cell_angle_gamma                100.966(11)
_cell_volume                     1162.15
_exptl_crystal_colour            yellow
_exptl_crystal_description       block
_cell_formula_units_Z            2
_exptl_crystal_recrystallization_method toluene
loop_
_atom_site_label
_atom_site_type_symbol
_atom_site_fract_x
_atom_site_fract_y
_atom_site_fract_z
C27 C 0.6666(8) 0.9326(7) 0.5448(6)
H17 H 0.6352 0.8484 0.5116
H18 H 0.5904 0.9635 0.5112
H19 H 0.6590 0.9610 0.6260
C28 C 0.8398(8) 0.9701(3) 0.5231(4)
C29 C 0.8662(8) 0.9652(4) 0.4163(4)
H20 H 0.7753 0.9409 0.3601
C30 C 1.0280(8) 0.9965(4) 0.3939(4)
H21 H 1.0493 0.9953 0.3219
C27A C 1.3334(8) 1.0674(7) 0.4552(6)
H17A H 1.3648 1.1516 0.4884
H18A H 1.4096 1.0365 0.4888
H19A H 1.3410 1.0390 0.3740
C28A C 1.1602(8) 1.0299(3) 0.4769(4)
C29A C 1.1338(8) 1.0348(4) 0.5837(4)
H20A H 1.2247 1.0591 0.6399
C30A C 0.9720(8) 1.0035(4) 0.6061(4)
H21A H 0.9507 1.0047 0.6781
C1 C 0.5707(3) 0.12196(18) -0.05782(17)
C2 C 0.7346(3) 0.0952(2) -0.0469(2)
C3 C 0.7601(3) -0.0148(2) -0.1092(2)
H1 H 0.8668 -0.0316 -0.1027
C4 C 0.6260(4) -0.1028(2) -0.1830(2)
H2 H 0.6453 -0.1773 -0.2248
C5 C 0.4679(3) -0.0808(2) -0.1944(2)
H3 H 0.3807 -0.1402 -0.2435
C6 C 0.4366(3) 0.03220(19) -0.13169(18)
C7 C 0.2767(3) 0.0626(2) -0.13557(19)
H4 H 0.1833 0.0059 -0.1805
C8 C 0.2582(3) 0.17396(19) -0.07426(19)
H5 H 0.1532 0.1942 -0.0774
C9 C 0.4018(2) 0.25868(18) -0.00545(17)
C10 C 0.3807(2) 0.37994(17) 0.05742(16)
C11 C 0.2623(3) 0.52959(18) 0.12008(18)
C12 C 0.1518(3) 0.6075(2) 0.1430(2)
H6 H 0.0394 0.5825 0.1100
C13 C 0.2159(3) 0.7227(2) 0.2162(2)
H7 H 0.1452 0.7763 0.2325
C14 C 0.3845(3) 0.7607(2) 0.2665(2)
H8 H 0.4228 0.8390 0.3160
C15 C 0.4960(3) 0.6855(2) 0.2448(2)
H9 H 0.6081 0.7112 0.2783
C16 C 0.4318(2) 0.56921(18) 0.16998(17)
C17 C 0.6860(2) 0.47670(18) 0.15656(18)
H10 H 0.7497 0.5569 0.1811
H11 H 0.7314 0.4293 0.0878
C18 C 0.7154(2) 0.43377(16) 0.24939(16)
C19 C 0.5972(3) 0.43317(19) 0.33017(18)
H12 H 0.4935 0.4545 0.3249
C20 C 0.6374(3) 0.4007(2) 0.41619(19)
H13 H 0.5605 0.4004 0.4701
C21 C 0.7938(3) 0.36783(18) 0.42466(17)
C22 C 0.8471(3) 0.3341(2) 0.5118(2)
H14 H 0.7776 0.3338 0.5695
C23 C 1.0006(4) 0.3022(2) 0.5104(2)
H15 H 1.0346 0.2799 0.5675
C24 C 1.1081(3) 0.3024(2) 0.4245(2)
H16 H 1.2123 0.2804 0.4252
C25 C 1.0602(3) 0.3348(2) 0.3397(2)
C26 C 0.9023(2) 0.36878(17) 0.33817(17)
N1 N 0.5530(2) 0.23373(15) 0.00443(14)
N2 N 0.2332(2) 0.41096(15) 0.05066(15)
N3 N 0.5069(2) 0.47278(14) 0.12805(14)
N4 N 0.8615(2) 0.40046(14) 0.25095(14)
O1 O 0.8628(2) 0.17832(16) 0.02683(16)
H22 H 0.8293 0.2394 0.0589
O2 O 1.1662(2) 0.3371(2) 0.25782(18)
H23 H 1.1174 0.3512 0.2093
loop_
_geom_bond_atom_site_label_1
_geom_bond_atom_site_label_2
_geom_bond_site_symmetry_1
_geom_bond_site_symmetry_2
C1 C2 1_555 1_555
C2 C3 1_555 1_555
C3 H1 1_555 1_555
C4 C3 1_555 1_555
H2 C4 1_555 1_555
C5 C4 1_555 1_555
H3 C5 1_555 1_555
C6 C1 1_555 1_555
C7 C6 1_555 1_555
H4 C7 1_555 1_555
C8 C7 1_555 1_555
H5 C8 1_555 1_555
C9 C8 1_555 1_555
C10 C9 1_555 1_555
C11 C12 1_555 1_555
C12 H6 1_555 1_555
C13 C12 1_555 1_555
H7 C13 1_555 1_555
C14 C13 1_555 1_555
H8 C14 1_555 1_555
C15 C14 1_555 1_555
H9 C15 1_555 1_555
C16 C11 1_555 1_555
C17 H10 1_555 1_555
H11 C17 1_555 1_555
C18 C17 1_555 1_555
C19 C18 1_555 1_555
H12 C19 1_555 1_555
C20 C19 1_555 1_555
H13 C20 1_555 1_555
C21 C20 1_555 1_555
C22 C21 1_555 1_555
H14 C22 1_555 1_555
C23 C22 1_555 1_555
H15 C23 1_555 1_555
C24 C23 1_555 1_555
H16 C24 1_555 1_555
C25 C24 1_555 1_555
C26 C21 1_555 1_555
C27 H17 1_555 1_555
H18 C27 1_555 1_555
H19 C27 1_555 1_555
C28 C27 1_555 1_555
C29 C28 1_555 1_555
H20 C29 1_555 1_555
C30 C29 1_555 1_555
H21 C30 1_555 1_555
N1 C1 1_555 1_555
N2 C10 1_555 1_555
N3 C10 1_555 1_555
N4 C18 1_555 1_555
O1 C2 1_555 1_555
H22 O1 1_555 1_555
O2 C25 1_555 1_555
H23 O2 1_555 1_555
C27A H17A 1_555 1_555
H18A C27A 1_555 1_555
H19A C27A 1_555 1_555
C28A C30 1_555 1_555
C29A C28A 1_555 1_555
H20A C29A 1_555 1_555
C30A C28 1_555 1_555
H21A C30A 1_555 1_555
C5 C6 1_555 1_555
C9 N1 1_555 1_555
C11 N2 1_555 1_555
C15 C16 1_555 1_555
C16 N3 1_555 1_555
C17 N3 1_555 1_555
C25 C26 1_555 1_555
C26 N4 1_555 1_555
C27A C28A 1_555 1_555
C29A C30A 1_555 1_555

#END
