
#######################################################################
#
#                 Cambridge Crystallographic Data Centre
#                                CCDC 
#
#######################################################################
#
# If this CIF has been generated from an entry in the Cambridge 
# Structural Database, then it will include bibliographic, chemical, 
# crystal, experimental, refinement or atomic coordinate data resulting 
# from the CCDC's data processing and validation procedures.
#
#######################################################################

data_PUMQAP01
_chemical_formula_moiety         'C7 H11 N2 1+,C6 H4 N1 O3 1-,C6 H5 N1 O3'
_chemical_name_systematic        
'4-Dimethylaminopyridinium 4-nitrophenolate 4-nitrophenol'
_symmetry_cell_setting           orthorhombic
_symmetry_space_group_name_H-M   'P 21 21 21'
_symmetry_Int_Tables_number      19
_space_group_name_Hall           'P 2ac 2ab'
loop_
_symmetry_equiv_pos_site_id
_symmetry_equiv_pos_as_xyz
1 x,y,z
2 1/2-x,-y,1/2+z
3 -x,1/2+y,1/2-z
4 1/2+x,1/2-y,-z
_cell_length_a                   6.4168(16)
_cell_length_b                   11.505(3)
_cell_length_c                   24.943(6)
_cell_angle_alpha                90
_cell_angle_beta                 90
_cell_angle_gamma                90
_cell_volume                     1841.42
_exptl_crystal_colour            yellow
_exptl_crystal_description       block
_chemical_melting_point          '397-399 K'
_cell_formula_units_Z            4
loop_
_atom_site_label
_atom_site_type_symbol
_atom_site_fract_x
_atom_site_fract_y
_atom_site_fract_z
C1 C 1.0102(4) 0.40032(19) 0.10916(11)
C2 C 0.9035(4) 0.3887(2) 0.15773(11)
H1 H 0.964(4) 0.420(2) 0.1908(10)
C3 C 0.7124(4) 0.3332(2) 0.15938(11)
H2 H 0.633(4) 0.325(2) 0.1913(10)
C4 C 0.6291(4) 0.28918(19) 0.11242(11)
C5 C 0.7332(4) 0.2983(2) 0.06407(10)
H3 H 0.673(4) 0.2655(19) 0.0315(10)
C6 C 0.9221(4) 0.3539(2) 0.06265(11)
H4 H 0.991(4) 0.360(2) 0.0295(10)
N1 N 0.4296(3) 0.22926(16) 0.11386(9)
O1 O 0.3371(3) 0.22048(15) 0.15696(7)
O2 O 0.3602(3) 0.18813(15) 0.07160(7)
O3 O 1.1924(3) 0.45552(14) 0.10424(7)
H5 H 1.233(4) 0.489(2) 0.1348(10)
C7 C 0.5138(4) 0.6133(2) 0.17538(10)
C8 C 0.6243(4) 0.6686(2) 0.21712(11)
H6 H 0.564(4) 0.666(2) 0.2531(11)
C9 C 0.8140(4) 0.7203(2) 0.20867(11)
H7 H 0.884(4) 0.7571(19) 0.2360(10)
C10 C 0.8989(4) 0.7203(2) 0.15761(11)
C11 C 0.7922(4) 0.6704(2) 0.11505(11)
H8 H 0.851(4) 0.674(2) 0.0800(10)
C12 C 0.6013(4) 0.6190(2) 0.12368(11)
H9 H 0.527(4) 0.586(2) 0.0954(9)
N2 N 1.0953(4) 0.77729(18) 0.14847(10)
O4 O 1.1652(3) 0.78165(16) 0.10213(8)
O5 O 1.1863(3) 0.82166(15) 0.18709(9)
O6 O 0.3358(2) 0.56023(14) 0.18473(6)
C13 C 0.2362(4) 0.48782(19) 0.39764(10)
C14 C 0.4094(4) 0.4535(2) 0.36665(10)
H10 H 0.525(4) 0.4144(19) 0.3818(10)
C15 C 0.4117(4) 0.4743(2) 0.31302(10)
H11 H 0.531(4) 0.454(2) 0.2914(9)
C16 C 0.0836(4) 0.5595(2) 0.31613(11)
H12 H -0.029(4) 0.598(2) 0.2977(9)
C17 C 0.0701(4) 0.5419(2) 0.36979(10)
H13 H -0.049(4) 0.5652(19) 0.3878(10)
C18 C 0.0504(5) 0.5046(3) 0.48304(12)
H14 H -0.011(5) 0.576(2) 0.4674(11)
H15 H 0.096(4) 0.521(2) 0.5196(11)
H16 H -0.053(5) 0.446(2) 0.4809(11)
C19 C 0.3943(5) 0.4040(3) 0.47754(12)
H17 H 0.531(5) 0.448(2) 0.4735(11)
H18 H 0.413(4) 0.326(2) 0.4603(11)
H19 H 0.354(4) 0.395(2) 0.5140(11)
N3 N 0.2522(3) 0.52632(18) 0.28787(9)
H20 H 0.265(4) 0.542(2) 0.2528(10)
N4 N 0.2305(3) 0.46993(19) 0.45077(8)
loop_
_geom_bond_atom_site_label_1
_geom_bond_atom_site_label_2
_geom_bond_site_symmetry_1
_geom_bond_site_symmetry_2
C1 C2 1_555 1_555
C2 H1 1_555 1_555
C3 C2 1_555 1_555
H2 C3 1_555 1_555
C4 C3 1_555 1_555
C5 C4 1_555 1_555
H3 C5 1_555 1_555
C6 C1 1_555 1_555
H4 C6 1_555 1_555
N1 C4 1_555 1_555
O1 N1 1_555 1_555
O2 N1 1_555 1_555
O3 C1 1_555 1_555
H5 O3 1_555 1_555
C7 C8 1_555 1_555
C8 H6 1_555 1_555
C9 C8 1_555 1_555
H7 C9 1_555 1_555
C10 C9 1_555 1_555
C11 C10 1_555 1_555
H8 C11 1_555 1_555
C12 C7 1_555 1_555
H9 C12 1_555 1_555
N2 C10 1_555 1_555
O4 N2 1_555 1_555
O5 N2 1_555 1_555
O6 C7 1_555 1_555
C13 C14 1_555 1_555
C14 H10 1_555 1_555
C15 C14 1_555 1_555
H11 C15 1_555 1_555
C16 H12 1_555 1_555
C17 C13 1_555 1_555
H13 C17 1_555 1_555
C18 H14 1_555 1_555
H15 C18 1_555 1_555
H16 C18 1_555 1_555
C19 H17 1_555 1_555
H18 C19 1_555 1_555
H19 C19 1_555 1_555
N3 C15 1_555 1_555
H20 N3 1_555 1_555
N4 C13 1_555 1_555
C5 C6 1_555 1_555
C11 C12 1_555 1_555
C16 N3 1_555 1_555
C16 C17 1_555 1_555
C18 N4 1_555 1_555
C19 N4 1_555 1_555

#END
