
#######################################################################
#
#                 Cambridge Crystallographic Data Centre
#                                CCDC 
#
#######################################################################
#
# If this CIF has been generated from an entry in the Cambridge 
# Structural Database, then it will include bibliographic, chemical, 
# crystal, experimental, refinement or atomic coordinate data resulting 
# from the CCDC's data processing and validation procedures.
#
#######################################################################

data_PUMXEA
_chemical_formula_moiety         'C16 H18 S8'
_chemical_name_systematic        
(E,E)-1,6-bis(4,5-bis(Methylsulfanyl)-1,3-dithiol-2-ylidene)hexa-2,4-diene
_symmetry_cell_setting           monoclinic
_symmetry_space_group_name_H-M   'P 21/c'
_symmetry_Int_Tables_number      14
_space_group_name_Hall           '-P 2ybc'
loop_
_symmetry_equiv_pos_site_id
_symmetry_equiv_pos_as_xyz
1 x,y,z
2 -x,1/2+y,1/2-z
3 -x,-y,-z
4 x,1/2-y,1/2+z
_cell_length_a                   9.808(2)
_cell_length_b                   7.575(2)
_cell_length_c                   14.090(3)
_cell_angle_alpha                90
_cell_angle_beta                 93.92(2)
_cell_angle_gamma                90
_cell_volume                     1044.38
_exptl_crystal_colour            'dark orange'
_chemical_melting_point          165-67deg.C
_cell_formula_units_Z            2
_exptl_crystal_recrystallization_method acetonitrile
loop_
_atom_site_label
_atom_site_type_symbol
_atom_site_fract_x
_atom_site_fract_y
_atom_site_fract_z
S1 S 0.3317(2) 0.5762(2) 0.3885(1)
S2 S 0.2111(2) 0.3167(2) 0.2533(1)
S3 S 0.1647(2) 0.4470(2) 0.5481(1)
S4 S 0.0313(2) 0.1558(2) 0.3955(1)
C1 C 0.3350(6) 0.4844(8) 0.2748(5)
C2 C 0.2121(5) 0.4273(7) 0.4324(4)
C3 C 0.1579(5) 0.3090(8) 0.3709(5)
C4 C 0.2964(7) 0.5805(11) 0.6059(5)
C5 C 0.1167(7) -0.0501(8) 0.3745(6)
C6 C 0.4212(6) 0.5375(8) 0.2099(5)
C7 C 0.4211(6) 0.4703(9) 0.1150(5)
C8 C 0.5017(6) 0.5332(8) 0.0471(5)
H1 H 0.2826(32) 0.5879(57) 0.6740(8)
H2 H 0.2929(34) 0.6992(22) 0.5782(26)
H3 H 0.3857(8) 0.5273(38) 0.5970(32)
H4 H 0.1250(45) -0.0653(32) 0.3061(6)
H5 H 0.0635(27) -0.1480(10) 0.3985(32)
H6 H 0.2079(21) -0.0489(27) 0.4075(29)
H7 H 0.4866(6) 0.6257(8) 0.2285(5)
H8 H 0.3609(6) 0.3754(9) 0.0980(5)
H9 H 0.5633(6) 0.6266(8) 0.0640(5)
C8B C 0.4983(6) 0.4668(8) -0.0471(5)
C7B C 0.5789(6) 0.5297(9) -0.1150(5)
C6B C 0.5788(6) 0.4625(8) -0.2099(5)
C1B C 0.6650(6) 0.5156(8) -0.2748(5)
S1B S 0.6683(2) 0.4238(2) -0.3885(1)
C2B C 0.7879(5) 0.5727(7) -0.4324(4)
S3B S 0.8353(2) 0.5530(2) -0.5481(1)
C4B C 0.7036(7) 0.4195(11) -0.6059(5)
H1B H 0.7174(32) 0.4121(57) -0.6740(8)
H2B H 0.7071(34) 0.3008(22) -0.5782(26)
H3B H 0.6143(8) 0.4727(38) -0.5970(32)
C3B C 0.8421(5) 0.6910(8) -0.3709(5)
S2B S 0.7889(2) 0.6833(2) -0.2533(1)
S4B S 0.9687(2) 0.8442(2) -0.3955(1)
C5B C 0.8833(7) 1.0501(8) -0.3745(6)
H4B H 0.8750(45) 1.0653(32) -0.3061(6)
H5B H 0.9365(27) 1.1480(10) -0.3985(32)
H6B H 0.7921(21) 1.0489(27) -0.4075(29)
H7B H 0.5134(6) 0.3743(8) -0.2285(5)
H8B H 0.6391(6) 0.6246(9) -0.0980(5)
H9B H 0.4367(6) 0.3734(8) -0.0640(5)
loop_
_geom_bond_atom_site_label_1
_geom_bond_atom_site_label_2
_geom_bond_site_symmetry_1
_geom_bond_site_symmetry_2
S1 C1 1_555 1_555
S2 C1 1_555 1_555
S3 C2 1_555 1_555
S4 C3 1_555 1_555
C1 C6 1_555 1_555
C2 S1 1_555 1_555
C3 S2 1_555 1_555
C4 S3 1_555 1_555
C5 S4 1_555 1_555
C6 C7 1_555 1_555
C7 C8 1_555 1_555
C8 H9 1_555 1_555
H1 C4 1_555 1_555
H2 C4 1_555 1_555
H3 C4 1_555 1_555
H4 C5 1_555 1_555
H5 C5 1_555 1_555
H6 C5 1_555 1_555
H7 C6 1_555 1_555
H8 C7 1_555 1_555
C8B C8 1_555 1_555
C7B C8B 1_555 1_555
C6B C7B 1_555 1_555
C1B C6B 1_555 1_555
S1B C1B 1_555 1_555
C2B S1B 1_555 1_555
S3B C2B 1_555 1_555
C4B S3B 1_555 1_555
H1B C4B 1_555 1_555
H2B C4B 1_555 1_555
H3B C4B 1_555 1_555
C3B C2B 1_555 1_555
S2B C1B 1_555 1_555
S4B C3B 1_555 1_555
C5B S4B 1_555 1_555
H4B C5B 1_555 1_555
H5B C5B 1_555 1_555
H6B C5B 1_555 1_555
H7B C6B 1_555 1_555
H8B C7B 1_555 1_555
H9B C8B 1_555 1_555
C2 C3 1_555 1_555
C3B S2B 1_555 1_555

#END
