
#######################################################################
#
#                 Cambridge Crystallographic Data Centre
#                                CCDC 
#
#######################################################################
#
# If this CIF has been generated from an entry in the Cambridge 
# Structural Database, then it will include bibliographic, chemical, 
# crystal, experimental, refinement or atomic coordinate data resulting 
# from the CCDC's data processing and validation procedures.
#
#######################################################################

data_PUNYEE
_chemical_formula_moiety         'C25 H23 Br2 O1 P1 S1'
_chemical_name_systematic        
'3,4-bis(4-bromophenyl)-5,5-diethyl-2-phenyl-2,5-dihydro-1,2-oxaphosphole 2-sulfide'
_symmetry_cell_setting           monoclinic
_symmetry_space_group_name_H-M   'P 21/c'
_symmetry_Int_Tables_number      14
_space_group_name_Hall           '-P 2ybc'
loop_
_symmetry_equiv_pos_site_id
_symmetry_equiv_pos_as_xyz
1 x,y,z
2 -x,1/2+y,1/2-z
3 -x,-y,-z
4 x,1/2-y,1/2+z
_cell_length_a                   21.402(4)
_cell_length_b                   15.012(3)
_cell_length_c                   15.999(3)
_cell_angle_alpha                90
_cell_angle_beta                 110.00(3)
_cell_angle_gamma                90
_cell_volume                     4830.27
_exptl_crystal_colour            colorless
_exptl_crystal_description       block
_cell_formula_units_Z            8
loop_
_atom_site_label
_atom_site_type_symbol
_atom_site_fract_x
_atom_site_fract_y
_atom_site_fract_z
Br1 Br 0.23924(3) -0.00505(5) 0.10580(5)
Br2 Br 0.22175(4) -0.06289(6) 0.58599(5)
P1 P -0.03988(8) -0.32273(10) 0.25653(10)
S1 S -0.01289(9) -0.42843(11) 0.32954(12)
O1 O -0.0662(2) -0.3396(3) 0.1503(3)
C1 C 0.0235(3) -0.2444(3) 0.2551(4)
C2 C 0.1417(3) -0.2018(4) 0.1940(4)
H1 H 0.1542 -0.2486 0.2364
C3 C 0.1486(3) -0.2083(4) 0.4848(4)
H2 H 0.1723 -0.2425 0.5358
C4 C 0.1065(3) -0.0667(4) 0.0687(4)
H3 H 0.0945 -0.0211 0.0249
C5 C 0.0743(3) -0.1868(4) 0.1471(4)
C6 C 0.0233(3) -0.2376(4) 0.1714(4)
C7 C -0.1067(3) -0.2647(5) 0.2791(4)
C8 C -0.0291(3) -0.2911(4) 0.1016(4)
C9 C 0.0582(3) -0.1189(4) 0.0834(4)
H4 H 0.0128 -0.1085 0.0494
C10 C 0.1728(3) -0.0818(4) 0.1185(4)
C11 C 0.1046(3) -0.2493(4) 0.4111(4)
H5 H 0.0984 -0.3119 0.4116
C12 C -0.1580(3) -0.1296(5) 0.3046(5)
H6 H -0.1569 -0.0670 0.3133
C13 C 0.0693(3) -0.2004(4) 0.3361(4)
C14 C 0.0777(3) -0.1081(4) 0.3374(4)
H7 H 0.0531 -0.0736 0.2871
C15 C 0.1582(3) -0.1174(5) 0.4845(4)
C16 C -0.2112(3) -0.1781(5) 0.3083(5)
H8 H -0.2478 -0.1485 0.3167
C17 C -0.1060(3) -0.1720(4) 0.2882(5)
H9 H -0.0699 -0.1382 0.2832
C18 C 0.1902(3) -0.1505(4) 0.1800(4)
H10 H 0.2357 -0.1621 0.2124
C19 C -0.1133(3) -0.1614(5) 0.0647(5)
H11 H -0.1459 -0.1309 0.0144
H12 H -0.0793 -0.1189 0.0984
H13 H -0.1358 -0.1863 0.1035
C20 C -0.0808(3) -0.2361(5) 0.0304(4)
H14 H -0.0590 -0.2099 -0.0095
H15 H -0.1160 -0.2768 -0.0059
C21 C 0.0489(4) -0.4265(5) 0.1199(5)
H16 H 0.0653 -0.4689 0.0856
H17 H 0.0262 -0.4590 0.1543
H18 H 0.0864 -0.3932 0.1604
C22 C 0.1222(3) -0.0659(4) 0.4125(5)
H19 H 0.1275 -0.0030 0.4138
C23 C -0.1600(3) -0.3142(5) 0.2855(5)
H20 H -0.1605 -0.3772 0.2801
C24 C 0.0010(4) -0.3628(5) 0.0574(5)
H21 H -0.0358 -0.3978 0.0158
H22 H 0.0243 -0.3324 0.0216
C25 C -0.2122(4) -0.2695(6) 0.2999(6)
H23 H -0.2490 -0.3023 0.3040
Br3 Br 0.71415(4) 0.46757(6) 0.12021(5)
Br4 Br 0.75102(5) 0.45802(7) 0.64256(6)
P2 P 0.46621(8) 0.17436(10) 0.20580(11)
S2 S 0.49822(9) 0.07119(11) 0.15946(13)
O2 O 0.4402(2) 0.1564(3) 0.2872(3)
C26 C 0.5275(3) 0.2560(4) 0.2646(4)
C27 C 0.5701(3) 0.3054(4) 0.2248(4)
C28 C 0.6530(3) 0.4026(4) 0.1598(4)
C29 C 0.6096(3) 0.2627(4) 0.1846(4)
H24 H 0.6082 0.1996 0.1797
C30 C 0.3879(3) 0.3180(5) 0.1181(4)
H25 H 0.4194 0.3556 0.1592
C31 C 0.4789(3) 0.2013(4) 0.3719(4)
C32 C 0.5108(3) 0.1295(5) 0.4409(4)
H26 H 0.5351 0.1591 0.4981
H27 H 0.4749 0.0935 0.4500
C33 C 0.4282(3) 0.2545(5) 0.4013(4)
H28 H 0.3941 0.2127 0.4067
H29 H 0.4517 0.2794 0.4612
C34 C 0.3973(3) 0.2256(5) 0.1220(4)
C35 C 0.6488(3) 0.2877(4) 0.4374(4)
H30 H 0.6600 0.2429 0.4030
C36 C 0.5297(3) 0.2589(4) 0.3497(4)
C37 C 0.6171(4) 0.4195(4) 0.5380(5)
H31 H 0.6064 0.4653 0.5719
C38 C 0.6137(3) 0.4475(4) 0.1978(5)
H32 H 0.6146 0.5107 0.2013
C39 C 0.6819(3) 0.3979(5) 0.5525(4)
C40 C 0.5727(3) 0.3982(4) 0.2312(4)
H33 H 0.5458 0.4281 0.2589
C41 C 0.5667(3) 0.3738(4) 0.4732(4)
H34 H 0.5215 0.3877 0.4639
C42 C 0.3935(3) 0.3297(5) 0.3409(5)
H35 H 0.3631 0.3596 0.3657
H36 H 0.3683 0.3058 0.2819
H37 H 0.4266 0.3724 0.3356
C43 C 0.5818(3) 0.3082(4) 0.4221(4)
C44 C 0.3319(4) 0.3551(6) 0.0534(5)
H38 H 0.3257 0.4178 0.0502
C45 C 0.2856(4) 0.3000(7) -0.0058(5)
H39 H 0.2471 0.3251 -0.0484
C46 C 0.6983(3) 0.3325(5) 0.5019(5)
H40 H 0.7437 0.3189 0.5119
C47 C 0.3512(3) 0.1712(6) 0.0593(5)
H41 H 0.3582 0.1087 0.0594
C48 C 0.5586(4) 0.0666(5) 0.4184(5)
H42 H 0.5763 0.0235 0.4667
H43 H 0.5952 0.1010 0.4109
H44 H 0.5349 0.0349 0.3630
C49 C 0.6511(3) 0.3105(5) 0.1515(4)
H45 H 0.6780 0.2809 0.1236
C50 C 0.2950(4) 0.2093(6) -0.0034(5)
H46 H 0.2631 0.1723 -0.0445
loop_
_geom_bond_atom_site_label_1
_geom_bond_atom_site_label_2
_geom_bond_site_symmetry_1
_geom_bond_site_symmetry_2
Br1 C10 1_555 1_555
Br2 C15 1_555 1_555
P1 S1 1_555 1_555
O1 P1 1_555 1_555
C1 P1 1_555 1_555
C2 H1 1_555 1_555
C3 H2 1_555 1_555
C4 H3 1_555 1_555
C5 C2 1_555 1_555
C6 C1 1_555 1_555
C7 P1 1_555 1_555
C8 O1 1_555 1_555
C9 C4 1_555 1_555
H4 C9 1_555 1_555
C10 C4 1_555 1_555
C11 C3 1_555 1_555
H5 C11 1_555 1_555
C12 H6 1_555 1_555
C13 C1 1_555 1_555
C14 C13 1_555 1_555
H7 C14 1_555 1_555
C15 C3 1_555 1_555
C16 C12 1_555 1_555
H8 C16 1_555 1_555
C17 C7 1_555 1_555
H9 C17 1_555 1_555
C18 C2 1_555 1_555
H10 C18 1_555 1_555
C19 H11 1_555 1_555
H12 C19 1_555 1_555
H13 C19 1_555 1_555
C20 C8 1_555 1_555
H14 C20 1_555 1_555
H15 C20 1_555 1_555
C21 H16 1_555 1_555
H17 C21 1_555 1_555
H18 C21 1_555 1_555
C22 C14 1_555 1_555
H19 C22 1_555 1_555
C23 C7 1_555 1_555
H20 C23 1_555 1_555
C24 C8 1_555 1_555
H21 C24 1_555 1_555
H22 C24 1_555 1_555
C25 C16 1_555 1_555
H23 C25 1_555 1_555
Br3 C28 1_555 1_555
Br4 C39 1_555 1_555
P2 S2 1_555 1_555
O2 P2 1_555 1_555
C26 P2 1_555 1_555
C27 C26 1_555 1_555
C28 C38 1_555 1_555
C29 C27 1_555 1_555
H24 C29 1_555 1_555
C30 H25 1_555 1_555
C31 O2 1_555 1_555
C32 C31 1_555 1_555
H26 C32 1_555 1_555
H27 C32 1_555 1_555
C33 C31 1_555 1_555
H28 C33 1_555 1_555
H29 C33 1_555 1_555
C34 P2 1_555 1_555
C35 H30 1_555 1_555
C36 C26 1_555 1_555
C37 H31 1_555 1_555
C38 H32 1_555 1_555
C39 C37 1_555 1_555
C40 C27 1_555 1_555
H33 C40 1_555 1_555
C41 C37 1_555 1_555
H34 C41 1_555 1_555
C42 C33 1_555 1_555
H35 C42 1_555 1_555
H36 C42 1_555 1_555
H37 C42 1_555 1_555
C43 C35 1_555 1_555
C44 C30 1_555 1_555
H38 C44 1_555 1_555
C45 C44 1_555 1_555
H39 C45 1_555 1_555
C46 C35 1_555 1_555
H40 C46 1_555 1_555
C47 C34 1_555 1_555
H41 C47 1_555 1_555
C48 C32 1_555 1_555
H42 C48 1_555 1_555
H43 C48 1_555 1_555
H44 C48 1_555 1_555
C49 C28 1_555 1_555
H45 C49 1_555 1_555
C50 C45 1_555 1_555
H46 C50 1_555 1_555
C5 C6 1_555 1_555
C5 C9 1_555 1_555
C6 C8 1_555 1_555
C10 C18 1_555 1_555
C11 C13 1_555 1_555
C12 C17 1_555 1_555
C15 C22 1_555 1_555
C19 C20 1_555 1_555
C21 C24 1_555 1_555
C23 C25 1_555 1_555
C29 C49 1_555 1_555
C30 C34 1_555 1_555
C31 C36 1_555 1_555
C36 C43 1_555 1_555
C38 C40 1_555 1_555
C39 C46 1_555 1_555
C41 C43 1_555 1_555
C47 C50 1_555 1_555

#END
