
#######################################################################
#
#                 Cambridge Crystallographic Data Centre
#                                CCDC 
#
#######################################################################
#
# If this CIF has been generated from an entry in the Cambridge 
# Structural Database, then it will include bibliographic, chemical, 
# crystal, experimental, refinement or atomic coordinate data resulting 
# from the CCDC's data processing and validation procedures.
#
#######################################################################

data_PUNZED
_chemical_formula_moiety         'C20 H30 N1 1+,C7 H7 O3 S1 1-'
_chemical_name_systematic        
1-Azonia-3-n-butyl-4-p-tolyltricyclo(4.4.0.0^2,8^)decane-p-toluenesulfonate
_symmetry_cell_setting           triclinic
_symmetry_space_group_name_H-M   'P -1'
_symmetry_Int_Tables_number      2
_space_group_name_Hall           '-P 1'
loop_
_symmetry_equiv_pos_site_id
_symmetry_equiv_pos_as_xyz
1 x,y,z
2 -x,-y,-z
_cell_length_a                   9.7908(6)
_cell_length_b                   10.8460(8)
_cell_length_c                   12.9779(7)
_cell_angle_alpha                71.856(4)
_cell_angle_beta                 72.592(4)
_cell_angle_gamma                85.010(5)
_cell_volume                     1249.6
_cell_formula_units_Z            2
loop_
_atom_site_label
_atom_site_type_symbol
_atom_site_fract_x
_atom_site_fract_y
_atom_site_fract_z
C1 C 0.2175(4) 0.0253(3) 0.1120(3)
H1 H 0.217(4) 0.000(3) 0.046(3)
C2 C 0.0971(3) -0.1015(3) 0.3173(3)
H2 H 0.019(4) -0.142(4) 0.294(3)
C8 C 0.2053(14) -0.1032(15) 0.2130(12)
H13 H 0.2970 -0.1108 0.2305
C9 C 0.1891(9) -0.2270(8) 0.1887(7)
H14 H 0.1800 -0.2983 0.2577
H15 H 0.1006 -0.2229 0.1687
C10 C 0.3072(14) -0.2565(11) 0.0974(9)
H16 H 0.3928 -0.2784 0.1222
H17 H 0.3282 -0.1810 0.0310
C11 C 0.2631(18) -0.3713(16) 0.0678(17)
H18 H 0.2563 -0.4505 0.1300
H19 H 0.1710 -0.3550 0.0526
C12 C 0.3802(16) -0.3832(11) -0.0382(10)
H20 H 0.3587 -0.4555 -0.0586
H21 H 0.4711 -0.3965 -0.0225
H22 H 0.3838 -0.3051 -0.0995
C13 C 0.0508(4) 0.0279(3) 0.3366(3)
H23 H 0.0951 0.0409 0.3901
H24 H -0.0521 0.0263 0.3703
C14 C 0.0893(5) 0.1410(4) 0.2296(3)
H25 H 0.0257 0.2146 0.2373
N1 N 0.0808(3) 0.0981(3) 0.1335(2)
H26 H 0.001(4) 0.058(4) 0.145(3)
C15 C 0.1009(4) 0.2098(3) 0.0278(3)
H27 H 0.0481 0.2850 0.0435
H28 H 0.0694 0.1872 -0.0283
C16 C 0.2616(4) 0.2359(4) -0.0128(3)
H29 H 0.3060 0.2168 -0.0837
H30 H 0.2829 0.3249 -0.0217
C17 C 0.3084(4) 0.1415(4) 0.0839(3)
H31 H 0.4114 0.1245 0.0663
C18 C 0.2466(6) 0.1833(5) 0.1894(4)
H32 H 0.2550 0.2765 0.1722
H33 H 0.2948 0.1405 0.2464
C19 C 0.1130(3) -0.2000(3) 0.4239(2)
C20 C 0.2229(3) -0.1950(3) 0.4689(3)
H34 H 0.2945 -0.1325 0.4292
C21 C 0.2290(4) -0.2804(4) 0.5715(3)
H35 H 0.3039 -0.2732 0.5997
C22 C 0.1279(4) -0.3752(3) 0.6328(3)
C23 C 0.0201(4) -0.3824(4) 0.5886(3)
H36 H -0.0496 -0.4467 0.6280
C24 C 0.0118(4) -0.2965(4) 0.4865(3)
H37 H -0.0639 -0.3039 0.4593
C25 C 0.1341(5) -0.4669(4) 0.7473(3)
H38 H 0.0556 -0.5273 0.7773
H39 H 0.1280 -0.4177 0.7985
H40 H 0.2228 -0.5135 0.7381
S1 S -0.29056(8) 0.00013(9) 0.21971(7)
O1 O -0.1569(2) -0.0380(2) 0.15097(18)
O2 O -0.4060(3) -0.0008(3) 0.1735(3)
O3 O -0.2706(4) 0.1164(3) 0.2431(2)
C26 C -0.3291(3) -0.1241(3) 0.3509(3)
C27 C -0.3307(4) -0.2518(4) 0.3532(3)
H41 H -0.3126 -0.2720 0.2857
C28 C -0.3587(4) -0.3493(4) 0.4537(4)
H42 H -0.3583 -0.4350 0.4536
C29 C -0.3874(4) -0.3223(5) 0.5550(3)
C30 C -0.3877(4) -0.1961(5) 0.5524(3)
H43 H -0.4089 -0.1763 0.6202
C31 C -0.3572(4) -0.0957(4) 0.4510(3)
H44 H -0.3560 -0.0101 0.4511
C32 C -0.4182(5) -0.4323(6) 0.6660(4)
H45 H -0.4362 -0.3969 0.7280
H46 H -0.3372 -0.4889 0.6655
H47 H -0.5007 -0.4803 0.6743
C3? C 0.2488(13) -0.0775(16) 0.2167(13)
H3? H 0.3198 -0.0426 0.2400
C4? C 0.3106(8) -0.1936(7) 0.1776(6)
H4? H 0.4010 -0.1674 0.1197
H5? H 0.3314 -0.2597 0.2411
C5? C 0.2201(16) -0.2544(12) 0.1310(12)
H6? H 0.1800 -0.1881 0.0785
H7? H 0.1421 -0.3041 0.1918
C6? C 0.3251(18) -0.3482(19) 0.0668(12)
H8? H 0.4070 -0.2992 0.0106
H9? H 0.3595 -0.4177 0.1208
C7? C 0.2454(15) -0.4017(12) 0.0128(14)
H10? H 0.3064 -0.4576 -0.0258
H11? H 0.2122 -0.3324 -0.0408
H12? H 0.1650 -0.4505 0.0690
loop_
_geom_bond_atom_site_label_1
_geom_bond_atom_site_label_2
_geom_bond_site_symmetry_1
_geom_bond_site_symmetry_2
C1 H1 1_555 1_555
C2 H2 1_555 1_555
C8 C1 1_555 1_555
H13 C8 1_555 1_555
C9 C8 1_555 1_555
H14 C9 1_555 1_555
H15 C9 1_555 1_555
C10 C9 1_555 1_555
H16 C10 1_555 1_555
H17 C10 1_555 1_555
C11 C10 1_555 1_555
H18 C11 1_555 1_555
H19 C11 1_555 1_555
C12 C11 1_555 1_555
H20 C12 1_555 1_555
H21 C12 1_555 1_555
H22 C12 1_555 1_555
C13 C2 1_555 1_555
H23 C13 1_555 1_555
H24 C13 1_555 1_555
C14 C13 1_555 1_555
H25 C14 1_555 1_555
N1 C1 1_555 1_555
H26 N1 1_555 1_555
C15 N1 1_555 1_555
H27 C15 1_555 1_555
H28 C15 1_555 1_555
C16 C15 1_555 1_555
H29 C16 1_555 1_555
H30 C16 1_555 1_555
C17 C1 1_555 1_555
H31 C17 1_555 1_555
C18 C14 1_555 1_555
H32 C18 1_555 1_555
H33 C18 1_555 1_555
C19 C2 1_555 1_555
C20 C19 1_555 1_555
H34 C20 1_555 1_555
C21 C20 1_555 1_555
H35 C21 1_555 1_555
C22 C21 1_555 1_555
C23 C22 1_555 1_555
H36 C23 1_555 1_555
C24 C19 1_555 1_555
H37 C24 1_555 1_555
C25 C22 1_555 1_555
H38 C25 1_555 1_555
H39 C25 1_555 1_555
H40 C25 1_555 1_555
S1 O1 1_555 1_555
O2 S1 1_555 1_555
O3 S1 1_555 1_555
C26 S1 1_555 1_555
C27 C26 1_555 1_555
H41 C27 1_555 1_555
C28 C27 1_555 1_555
H42 C28 1_555 1_555
C29 C28 1_555 1_555
C30 C29 1_555 1_555
H43 C30 1_555 1_555
C31 C26 1_555 1_555
H44 C31 1_555 1_555
C32 C29 1_555 1_555
H45 C32 1_555 1_555
H46 C32 1_555 1_555
H47 C32 1_555 1_555
C2 C8 1_555 1_555
C14 N1 1_555 1_555
C16 C17 1_555 1_555
C17 C18 1_555 1_555
C23 C24 1_555 1_555
C30 C31 1_555 1_555

#END
