
#######################################################################
#
#                 Cambridge Crystallographic Data Centre
#                                CCDC 
#
#######################################################################
#
# If this CIF has been generated from an entry in the Cambridge 
# Structural Database, then it will include bibliographic, chemical, 
# crystal, experimental, refinement or atomic coordinate data resulting 
# from the CCDC's data processing and validation procedures.
#
#######################################################################

data_PUPHEP
_chemical_formula_moiety         'C22 H24 O2'
_chemical_name_systematic        
4,9-bis(4-methylphenyl)-2,7-dioxatricyclo[7.1.0.0^4,6^]decane
_symmetry_cell_setting           monoclinic
_symmetry_space_group_name_H-M   'C 2/c'
_symmetry_Int_Tables_number      15
_space_group_name_Hall           '-C 2yn'
loop_
_symmetry_equiv_pos_site_id
_symmetry_equiv_pos_as_xyz
1 x,y,z
2 -x,y,1/2-z
3 1/2+x,1/2+y,z
4 1/2-x,1/2+y,1/2-z
5 -x,-y,-z
6 x,-y,1/2+z
7 1/2-x,1/2-y,-z
8 1/2+x,1/2-y,1/2+z
_cell_length_a                   19.9651(7)
_cell_length_b                   6.1398(2)
_cell_length_c                   15.2881(6)
_cell_angle_alpha                90
_cell_angle_beta                 116.9270(10)
_cell_angle_gamma                90
_cell_volume                     1670.87
_exptl_crystal_colour            colorless
_exptl_crystal_description       'Rectangular parallelepiped'
_cell_formula_units_Z            4
loop_
_atom_site_label
_atom_site_type_symbol
_atom_site_fract_x
_atom_site_fract_y
_atom_site_fract_z
O1 O 0.46005(4) -0.21721(13) 0.51105(5)
C1 C 0.44137(6) -0.15417(18) 0.41139(8)
H1 H 0.4058(7) -0.263(2) 0.3662(10)
H2 H 0.4864(7) -0.161(2) 0.4016(9)
C2 C 0.40787(6) 0.07128(18) 0.38944(8)
C3 C 0.46301(6) 0.25990(18) 0.43211(8)
H3 H 0.4444(7) 0.384(2) 0.4531(10)
C4 C 0.43164(6) 0.21214(19) 0.32551(8)
H4 H 0.3951(8) 0.313(2) 0.2791(10)
H5 H 0.4656(8) 0.144(2) 0.3067(10)
C5 C 0.33068(6) 0.10014(18) 0.38176(7)
C6 C 0.29101(6) 0.29565(19) 0.34873(8)
H6 H 0.3122(8) 0.414(2) 0.3278(10)
C7 C 0.22037(6) 0.3230(2) 0.34426(8)
H7 H 0.1951(8) 0.457(3) 0.3220(10)
C8 C 0.18610(6) 0.1569(2) 0.37146(8)
C9 C 0.22526(6) -0.0382(2) 0.40376(8)
H8 H 0.2028(8) -0.157(2) 0.4227(10)
C10 C 0.29632(6) -0.06623(19) 0.40934(8)
H9 H 0.3228(8) -0.204(2) 0.4327(10)
C11 C 0.10949(7) 0.1880(2) 0.36648(9)
H10 H 0.0956(11) 0.069(4) 0.3960(15)
H11 H 0.0714(12) 0.197(3) 0.2994(15)
H12 H 0.1086(12) 0.315(4) 0.4037(16)
O1D O 0.53995(4) 0.21721(13) 0.48895(5)
C1D C 0.55863(6) 0.15417(18) 0.58861(8)
H1D H 0.5942(7) 0.263(2) 0.6338(10)
H2D H 0.5136(7) 0.161(2) 0.5984(9)
C2D C 0.59213(6) -0.07128(18) 0.61056(8)
C3D C 0.53699(6) -0.25990(18) 0.56789(8)
H3D H 0.5556(7) -0.384(2) 0.5469(10)
C4D C 0.56836(6) -0.21214(19) 0.67449(8)
H4D H 0.6049(8) -0.313(2) 0.7209(10)
H5D H 0.5344(8) -0.144(2) 0.6933(10)
C5D C 0.66932(6) -0.10014(18) 0.61824(7)
C6D C 0.70899(6) -0.29565(19) 0.65127(8)
H6D H 0.6878(8) -0.414(2) 0.6722(10)
C7D C 0.77963(6) -0.3230(2) 0.65574(8)
H7D H 0.8049(8) -0.457(3) 0.6780(10)
C8D C 0.81390(6) -0.1569(2) 0.62854(8)
C9D C 0.77474(6) 0.0382(2) 0.59624(8)
H8D H 0.7972(8) 0.157(2) 0.5773(10)
C10D C 0.70368(6) 0.06623(19) 0.59066(8)
H9D H 0.6772(8) 0.204(2) 0.5673(10)
C11D C 0.89051(7) -0.1880(2) 0.63352(9)
H10D H 0.9044(11) -0.069(4) 0.6040(15)
H11D H 0.9286(12) -0.197(3) 0.7006(15)
H12D H 0.8914(12) -0.315(4) 0.5963(16)
loop_
_geom_bond_atom_site_label_1
_geom_bond_atom_site_label_2
_geom_bond_site_symmetry_1
_geom_bond_site_symmetry_2
O1 C1 1_555 1_555
C1 H1 1_555 1_555
H2 C1 1_555 1_555
C2 C1 1_555 1_555
C3 C2 1_555 1_555
H3 C3 1_555 1_555
C4 C2 1_555 1_555
H4 C4 1_555 1_555
H5 C4 1_555 1_555
C5 C2 1_555 1_555
C6 C5 1_555 1_555
H6 C6 1_555 1_555
C7 C6 1_555 1_555
H7 C7 1_555 1_555
C8 C7 1_555 1_555
C9 C8 1_555 1_555
H8 C9 1_555 1_555
C10 C5 1_555 1_555
H9 C10 1_555 1_555
C11 C8 1_555 1_555
H10 C11 1_555 1_555
H11 C11 1_555 1_555
H12 C11 1_555 1_555
O1D C3 1_555 1_555
C1D O1D 1_555 1_555
H1D C1D 1_555 1_555
H2D C1D 1_555 1_555
C2D C1D 1_555 1_555
C3D O1 1_555 1_555
H3D C3D 1_555 1_555
C4D C2D 1_555 1_555
H4D C4D 1_555 1_555
H5D C4D 1_555 1_555
C5D C2D 1_555 1_555
C6D C5D 1_555 1_555
H6D C6D 1_555 1_555
C7D C6D 1_555 1_555
H7D C7D 1_555 1_555
C8D C7D 1_555 1_555
C9D C8D 1_555 1_555
H8D C9D 1_555 1_555
C10D C5D 1_555 1_555
H9D C10D 1_555 1_555
C11D C8D 1_555 1_555
H10D C11D 1_555 1_555
H11D C11D 1_555 1_555
H12D C11D 1_555 1_555
C3 C4 1_555 1_555
C9 C10 1_555 1_555
C2D C3D 1_555 1_555
C3D C4D 1_555 1_555
C9D C10D 1_555 1_555

#END
