
#######################################################################
#
#                 Cambridge Crystallographic Data Centre
#                                CCDC 
#
#######################################################################
#
# If this CIF has been generated from an entry in the Cambridge 
# Structural Database, then it will include bibliographic, chemical, 
# crystal, experimental, refinement or atomic coordinate data resulting 
# from the CCDC's data processing and validation procedures.
#
#######################################################################

data_PUPMUK
_chemical_formula_moiety         'C22 H19 N3'
_chemical_name_systematic        1,5-Dibenzyl-4-phenyl-1H-1,2,3-triazole
_symmetry_cell_setting           monoclinic
_symmetry_space_group_name_H-M   'P 21/c'
_symmetry_Int_Tables_number      14
_space_group_name_Hall           '-P 2ybc'
loop_
_symmetry_equiv_pos_site_id
_symmetry_equiv_pos_as_xyz
1 x,y,z
2 -x,1/2+y,1/2-z
3 -x,-y,-z
4 x,1/2-y,1/2+z
_cell_length_a                   9.1130(7)
_cell_length_b                   10.4268(9)
_cell_length_c                   17.8233(15)
_cell_angle_alpha                90
_cell_angle_beta                 102.674(8)
_cell_angle_gamma                90
_cell_volume                     1652.29
_cell_formula_units_Z            4
loop_
_atom_site_label
_atom_site_type_symbol
_atom_site_fract_x
_atom_site_fract_y
_atom_site_fract_z
C1 C 0.80018(19) 0.28222(17) 0.11800(10)
C2 C 0.75289(19) 0.17626(17) 0.07262(9)
C3 C 0.6819(2) 0.50239(17) 0.11952(10)
H1 H 0.5996 0.5467 0.0833
H2 H 0.7768 0.5474 0.1180
C4 C 0.65359(19) 0.51351(18) 0.20005(10)
C5 C 0.6895(2) 0.62811(18) 0.23966(11)
H3 H 0.7351 0.6955 0.2170
C6 C 0.6592(2) 0.6447(2) 0.31196(11)
H4 H 0.6835 0.7234 0.3386
C7 C 0.5937(2) 0.5462(2) 0.34529(11)
H5 H 0.5730 0.5574 0.3949
C8 C 0.5582(2) 0.4318(2) 0.30639(11)
H6 H 0.5135 0.3642 0.3293
C9 C 0.58803(19) 0.41584(18) 0.23393(10)
H7 H 0.5632 0.3372 0.2073
C10 C 0.93343(19) 0.30794(17) 0.18230(10)
H8 H 0.9849 0.2256 0.1985
H9 H 0.8971 0.3424 0.2267
C11 C 1.04734(19) 0.40143(17) 0.16232(9)
C12 C 1.0802(2) 0.40263(18) 0.09007(10)
H10 H 1.0292 0.3455 0.0515
C13 C 1.1871(2) 0.48678(19) 0.07346(11)
H11 H 1.2096 0.4858 0.0239
C14 C 1.2608(2) 0.57158(19) 0.12836(11)
H12 H 1.3325 0.6300 0.1166
C15 C 1.2292(2) 0.57060(19) 0.20074(11)
H13 H 1.2800 0.6281 0.2391
C16 C 1.1237(2) 0.48595(18) 0.21752(10)
H14 H 1.1033 0.4857 0.2675
C17 C 0.81818(19) 0.04692(17) 0.07396(9)
C18 C 0.7218(2) -0.05848(17) 0.05679(10)
H15 H 0.6162 -0.0452 0.0430
C19 C 0.7783(2) -0.18152(18) 0.05958(10)
H16 H 0.7117 -0.2521 0.0464
C20 C 0.9327(2) -0.20251(18) 0.08168(10)
H17 H 0.9714 -0.2874 0.0860
C21 C 1.0294(2) -0.09877(18) 0.09728(9)
H18 H 1.1350 -0.1125 0.1113
C22 C 0.9729(2) 0.02496(18) 0.09260(10)
H19 H 1.0403 0.0956 0.1022
N1 N 0.69183(16) 0.37116(14) 0.09324(8)
N2 N 0.58214(16) 0.32448(14) 0.03561(8)
N3 N 0.61915(16) 0.20592(14) 0.02328(8)
loop_
_geom_bond_atom_site_label_1
_geom_bond_atom_site_label_2
_geom_bond_site_symmetry_1
_geom_bond_site_symmetry_2
C1 C2 1_555 1_555
C2 C17 1_555 1_555
C3 H1 1_555 1_555
H2 C3 1_555 1_555
C4 C3 1_555 1_555
C5 C4 1_555 1_555
H3 C5 1_555 1_555
C6 C5 1_555 1_555
H4 C6 1_555 1_555
C7 C6 1_555 1_555
H5 C7 1_555 1_555
C8 C7 1_555 1_555
H6 C8 1_555 1_555
C9 C4 1_555 1_555
H7 C9 1_555 1_555
C10 C1 1_555 1_555
H8 C10 1_555 1_555
H9 C10 1_555 1_555
C11 C10 1_555 1_555
C12 C11 1_555 1_555
H10 C12 1_555 1_555
C13 C12 1_555 1_555
H11 C13 1_555 1_555
C14 C13 1_555 1_555
H12 C14 1_555 1_555
C15 C14 1_555 1_555
H13 C15 1_555 1_555
C16 C11 1_555 1_555
H14 C16 1_555 1_555
C17 C18 1_555 1_555
C18 H15 1_555 1_555
C19 C18 1_555 1_555
H16 C19 1_555 1_555
C20 C19 1_555 1_555
H17 C20 1_555 1_555
C21 C20 1_555 1_555
H18 C21 1_555 1_555
C22 C17 1_555 1_555
H19 C22 1_555 1_555
N1 C1 1_555 1_555
N2 N1 1_555 1_555
N3 C2 1_555 1_555
C3 N1 1_555 1_555
C8 C9 1_555 1_555
C15 C16 1_555 1_555
C21 C22 1_555 1_555
N2 N3 1_555 1_555

#END
