
#######################################################################
#
#                 Cambridge Crystallographic Data Centre
#                                CCDC 
#
#######################################################################
#
# If this CIF has been generated from an entry in the Cambridge 
# Structural Database, then it will include bibliographic, chemical, 
# crystal, experimental, refinement or atomic coordinate data resulting 
# from the CCDC's data processing and validation procedures.
#
#######################################################################

data_PUPREZ
_chemical_formula_moiety         'C38 H26 N2 O5'
_chemical_name_systematic        
4,4'-(5'-(hydroxymethyl)-6'-methyl-1,1'',3,3''-tetraoxo-1,1'',3,3''-tetrahydrodispiro[indene-2,1'-cyclohexane-3',2''-indene]-2',4'-diyl)dibenzonitrile
_symmetry_cell_setting           triclinic
_symmetry_space_group_name_H-M   'P -1'
_symmetry_Int_Tables_number      2
_space_group_name_Hall           '-P 1'
loop_
_symmetry_equiv_pos_site_id
_symmetry_equiv_pos_as_xyz
1 x,y,z
2 -x,-y,-z
_cell_length_a                   12.5936(10)
_cell_length_b                   15.226(2)
_cell_length_c                   16.096(3)
_cell_angle_alpha                87.223(9)
_cell_angle_beta                 81.063(8)
_cell_angle_gamma                81.123(8)
_cell_volume                     3011.47
_exptl_crystal_colour            colorless
_exptl_crystal_description       prism
_cell_formula_units_Z            4
loop_
_atom_site_label
_atom_site_type_symbol
_atom_site_fract_x
_atom_site_fract_y
_atom_site_fract_z
C1 C 0.4210(5) 0.3409(5) 0.6954(4)
C2 C 0.3086(5) 0.3276(4) 0.7097(4)
C3 C 0.2572(6) 0.2694(4) 0.6718(4)
H1 H 0.2971 0.2318 0.6288
C4 C 0.1480(6) 0.2663(5) 0.6969(4)
H2 H 0.1125 0.2257 0.6723
C5 C 0.0896(6) 0.3247(5) 0.7601(5)
H3 H 0.0141 0.3231 0.7765
C6 C 0.1390(6) 0.3845(5) 0.7991(4)
H4 H 0.0998 0.4234 0.8414
C7 C 0.2502(5) 0.3830(4) 0.7712(4)
C8 C 0.3229(5) 0.4381(5) 0.7985(4)
C9 C 0.4383(5) 0.4194(4) 0.7474(4)
C10 C 0.5186(5) 0.4005(4) 0.8140(4)
H5 H 0.5007 0.4539 0.8502
C11 C 0.4967(5) 0.3230(5) 0.8745(4)
C12 C 0.5150(5) 0.2359(5) 0.8480(4)
H6 H 0.5387 0.2230 0.7903
C13 C 0.4980(5) 0.1673(5) 0.9074(4)
H7 H 0.5102 0.1073 0.8903
C14 C 0.4629(5) 0.1874(6) 0.9920(4)
C15 C 0.4459(6) 0.1132(6) 1.0492(5)
C16 C 0.4434(5) 0.2752(6) 1.0178(4)
H8 H 0.4182 0.2895 1.0750
C17 C 0.4617(5) 0.3400(5) 0.9581(4)
H9 H 0.4497 0.4000 0.9752
C18 C 0.6418(5) 0.3977(4) 0.7785(4)
C19 C 0.6953(5) 0.4043(5) 0.8570(4)
C20 C 0.7769(5) 0.3246(5) 0.8673(4)
C21 C 0.8433(6) 0.2996(6) 0.9305(4)
H10 H 0.8407 0.3364 0.9770
C22 C 0.9116(6) 0.2199(6) 0.9215(5)
H11 H 0.9592 0.2030 0.9617
C23 C 0.9141(6) 0.1640(5) 0.8572(6)
H12 H 0.9602 0.1082 0.8553
C24 C 0.8494(6) 0.1880(5) 0.7942(5)
H13 H 0.8523 0.1505 0.7482
C25 C 0.7809(5) 0.2688(5) 0.8016(4)
C26 C 0.7067(5) 0.3091(4) 0.7455(4)
C27 C 0.6587(5) 0.4787(4) 0.7175(3)
H14 H 0.6329 0.5328 0.7520
C28 C 0.7783(5) 0.4800(4) 0.6877(4)
C29 C 0.8346(5) 0.5307(4) 0.7307(4)
H15 H 0.7971 0.5629 0.7783
C30 C 0.9421(6) 0.5347(4) 0.7058(4)
H16 H 0.9789 0.5683 0.7373
C31 C 0.9981(5) 0.4913(4) 0.6361(4)
C32 C 1.1131(6) 0.4968(5) 0.6096(4)
C33 C 0.9445(5) 0.4380(4) 0.5922(4)
H17 H 0.9824 0.4061 0.5446
C34 C 0.8358(5) 0.4329(4) 0.6194(4)
H18 H 0.7998 0.3962 0.5905
C35 C 0.5872(5) 0.4854(4) 0.6494(4)
H19 H 0.6044 0.4282 0.6186
C36 C 0.6165(5) 0.5604(4) 0.5858(4)
H20 H 0.6116 0.6164 0.6160
H21 H 0.6922 0.5448 0.5573
C37 C 0.4642(5) 0.4979(4) 0.6864(4)
H22 H 0.4236 0.4950 0.6381
C38 C 0.4254(5) 0.5886(4) 0.7244(4)
H23 H 0.3475 0.5942 0.7456
H24 H 0.4385 0.6350 0.6813
H25 H 0.4653 0.5952 0.7709
N1 N 0.4335(5) 0.0552(4) 1.0967(4)
N2 N 1.2017(5) 0.5067(4) 0.5873(4)
O1 O 0.4916(4) 0.2988(3) 0.6455(3)
O2 O 0.2996(3) 0.4892(3) 0.8591(3)
O3 O 0.6728(4) 0.4685(3) 0.9043(3)
O4 O 0.7018(3) 0.2792(3) 0.6763(3)
O5 O 0.5449(4) 0.5729(3) 0.5255(3)
H26 H 0.5495 0.5255 0.4997
C39 C 0.2055(4) 0.0415(4) 0.3260(3)
C40 C 0.3244(4) 0.0230(4) 0.3145(3)
C41 C 0.3917(5) -0.0584(4) 0.3176(3)
H27 H 0.3625 -0.1125 0.3279
C42 C 0.5017(5) -0.0576(4) 0.3051(3)
H28 H 0.5494 -0.1122 0.3073
C43 C 0.5451(5) 0.0215(5) 0.2891(3)
H29 H 0.6218 0.0196 0.2804
C44 C 0.4788(5) 0.1028(4) 0.2858(3)
H30 H 0.5083 0.1568 0.2757
C45 C 0.3676(4) 0.1018(4) 0.2980(3)
C46 C 0.2782(4) 0.1772(4) 0.2978(3)
C47 C 0.1687(4) 0.1425(3) 0.3271(3)
C48 C 0.0864(4) 0.1876(3) 0.2701(3)
H31 H 0.0885 0.2525 0.2753
C49 C 0.1234(4) 0.1717(4) 0.1765(3)
C50 C 0.1431(4) 0.0882(4) 0.1426(3)
H32 H 0.1340 0.0378 0.1787
C51 C 0.1756(4) 0.0764(4) 0.0580(4)
H33 H 0.1900 0.0182 0.0362
C52 C 0.1875(4) 0.1492(4) 0.0046(3)
C53 C 0.2261(5) 0.1389(4) -0.0842(4)
C54 C 0.1684(4) 0.2329(4) 0.0375(4)
H34 H 0.1776 0.2832 0.0012
C55 C 0.1361(4) 0.2443(4) 0.1225(3)
H35 H 0.1225 0.3025 0.1444
C56 C -0.0364(4) 0.1795(3) 0.2962(3)
C57 C -0.1012(4) 0.2570(4) 0.2505(3)
C58 C -0.1672(4) 0.2207(4) 0.1978(3)
C59 C -0.2397(5) 0.2650(4) 0.1465(4)
H36 H -0.2509 0.3280 0.1403
C60 C -0.2947(5) 0.2119(6) 0.1048(4)
H37 H -0.3443 0.2391 0.0690
C61 C -0.2781(6) 0.1204(5) 0.1148(4)
H38 H -0.3179 0.0862 0.0866
C62 C -0.2063(5) 0.0778(4) 0.1641(4)
H39 H -0.1940 0.0148 0.1702
C63 C -0.1533(4) 0.1305(4) 0.2044(3)
C64 C -0.0754(4) 0.0991(4) 0.2640(3)
C65 C -0.0705(4) 0.1939(3) 0.3932(3)
H40 H -0.0679 0.2580 0.4022
C66 C -0.1876(4) 0.1803(4) 0.4211(3)
C67 C -0.2693(4) 0.2521(4) 0.4325(3)
H41 H -0.2510 0.3105 0.4237
C68 C -0.3778(4) 0.2416(4) 0.4564(3)
H42 H -0.4326 0.2921 0.4644
C69 C -0.4051(4) 0.1566(4) 0.4685(3)
C70 C -0.5181(5) 0.1462(4) 0.4900(3)
C71 C -0.3226(5) 0.0837(4) 0.4587(3)
H43 H -0.3405 0.0253 0.4679
C72 C -0.2167(4) 0.0952(4) 0.4360(3)
H44 H -0.1618 0.0446 0.4302
C73 C 0.0101(4) 0.1406(3) 0.4458(3)
H45 H 0.0126 0.0759 0.4356
C74 C -0.0313(4) 0.1570(4) 0.5392(3)
H46 H -0.0435 0.2218 0.5487
H47 H -0.1019 0.1350 0.5546
C75 C 0.1260(4) 0.1640(3) 0.4218(3)
H48 H 0.1734 0.1228 0.4557
C76 C 0.1375(4) 0.2595(3) 0.4439(3)
H49 H 0.2130 0.2693 0.4271
H50 H 0.1169 0.2673 0.5047
H51 H 0.0898 0.3025 0.4139
N3 N 0.2568(4) 0.1286(3) -0.1546(3)
N4 N -0.6067(4) 0.1358(3) 0.5044(3)
O6 O 0.1481(3) -0.0172(2) 0.3389(2)
O7 O 0.2878(3) 0.2524(3) 0.2740(2)
O8 O -0.0977(3) 0.3345(3) 0.2593(2)
O9 O -0.0481(3) 0.0207(3) 0.2814(2)
O10 O 0.0433(3) 0.1139(2) 0.5925(2)
H52 H 0.0872 0.0741 0.5657
loop_
_geom_bond_atom_site_label_1
_geom_bond_atom_site_label_2
_geom_bond_site_symmetry_1
_geom_bond_site_symmetry_2
C1 C2 1_555 1_555
C2 C3 1_555 1_555
C3 H1 1_555 1_555
C4 C3 1_555 1_555
H2 C4 1_555 1_555
C5 C4 1_555 1_555
H3 C5 1_555 1_555
C6 C5 1_555 1_555
H4 C6 1_555 1_555
C7 C2 1_555 1_555
C8 C7 1_555 1_555
C9 C1 1_555 1_555
C10 C9 1_555 1_555
H5 C10 1_555 1_555
C11 C10 1_555 1_555
C12 C11 1_555 1_555
H6 C12 1_555 1_555
C13 C12 1_555 1_555
H7 C13 1_555 1_555
C14 C13 1_555 1_555
C15 C14 1_555 1_555
C16 C14 1_555 1_555
H8 C16 1_555 1_555
C17 C11 1_555 1_555
H9 C17 1_555 1_555
C18 C10 1_555 1_555
C19 C18 1_555 1_555
C20 C19 1_555 1_555
C21 C20 1_555 1_555
H10 C21 1_555 1_555
C22 C21 1_555 1_555
H11 C22 1_555 1_555
C23 C22 1_555 1_555
H12 C23 1_555 1_555
C24 C23 1_555 1_555
H13 C24 1_555 1_555
C25 C20 1_555 1_555
C26 C18 1_555 1_555
C27 C18 1_555 1_555
H14 C27 1_555 1_555
C28 C27 1_555 1_555
C29 C28 1_555 1_555
H15 C29 1_555 1_555
C30 C29 1_555 1_555
H16 C30 1_555 1_555
C31 C30 1_555 1_555
C32 C31 1_555 1_555
C33 C31 1_555 1_555
H17 C33 1_555 1_555
C34 C28 1_555 1_555
H18 C34 1_555 1_555
C35 C27 1_555 1_555
H19 C35 1_555 1_555
C36 C35 1_555 1_555
H20 C36 1_555 1_555
H21 C36 1_555 1_555
C37 C9 1_555 1_555
H22 C37 1_555 1_555
C38 C37 1_555 1_555
H23 C38 1_555 1_555
H24 C38 1_555 1_555
H25 C38 1_555 1_555
N1 C15 1_555 1_555
N2 C32 1_555 1_555
O1 C1 1_555 1_555
O2 C8 1_555 1_555
O3 C19 1_555 1_555
O4 C26 1_555 1_555
O5 C36 1_555 1_555
H26 O5 1_555 1_555
C39 C40 1_555 1_555
C40 C41 1_555 1_555
C41 H27 1_555 1_555
C42 C41 1_555 1_555
H28 C42 1_555 1_555
C43 C42 1_555 1_555
H29 C43 1_555 1_555
C44 C43 1_555 1_555
H30 C44 1_555 1_555
C45 C40 1_555 1_555
C46 C45 1_555 1_555
C47 C39 1_555 1_555
C48 C47 1_555 1_555
H31 C48 1_555 1_555
C49 C48 1_555 1_555
C50 C49 1_555 1_555
H32 C50 1_555 1_555
C51 C50 1_555 1_555
H33 C51 1_555 1_555
C52 C51 1_555 1_555
C53 C52 1_555 1_555
C54 C52 1_555 1_555
H34 C54 1_555 1_555
C55 C49 1_555 1_555
H35 C55 1_555 1_555
C56 C48 1_555 1_555
C57 C56 1_555 1_555
C58 C57 1_555 1_555
C59 C58 1_555 1_555
H36 C59 1_555 1_555
C60 C59 1_555 1_555
H37 C60 1_555 1_555
C61 C60 1_555 1_555
H38 C61 1_555 1_555
C62 C61 1_555 1_555
H39 C62 1_555 1_555
C63 C58 1_555 1_555
C64 C56 1_555 1_555
C65 C56 1_555 1_555
H40 C65 1_555 1_555
C66 C65 1_555 1_555
C67 C66 1_555 1_555
H41 C67 1_555 1_555
C68 C67 1_555 1_555
H42 C68 1_555 1_555
C69 C68 1_555 1_555
C70 C69 1_555 1_555
C71 C69 1_555 1_555
H43 C71 1_555 1_555
C72 C66 1_555 1_555
H44 C72 1_555 1_555
C73 C65 1_555 1_555
H45 C73 1_555 1_555
C74 C73 1_555 1_555
H46 C74 1_555 1_555
H47 C74 1_555 1_555
C75 C47 1_555 1_555
H48 C75 1_555 1_555
C76 C75 1_555 1_555
H49 C76 1_555 1_555
H50 C76 1_555 1_555
H51 C76 1_555 1_555
N3 C53 1_555 1_555
N4 C70 1_555 1_555
O6 C39 1_555 1_555
O7 C46 1_555 1_555
O8 C57 1_555 1_555
O9 C64 1_555 1_555
O10 C74 1_555 1_555
H52 O10 1_555 1_555
C6 C7 1_555 1_555
C8 C9 1_555 1_555
C16 C17 1_555 1_555
C24 C25 1_555 1_555
C25 C26 1_555 1_555
C33 C34 1_555 1_555
C35 C37 1_555 1_555
C44 C45 1_555 1_555
C46 C47 1_555 1_555
C54 C55 1_555 1_555
C62 C63 1_555 1_555
C63 C64 1_555 1_555
C71 C72 1_555 1_555
C73 C75 1_555 1_555

#END
