
#######################################################################
#
#                 Cambridge Crystallographic Data Centre
#                                CCDC 
#
#######################################################################
#
# If this CIF has been generated from an entry in the Cambridge 
# Structural Database, then it will include bibliographic, chemical, 
# crystal, experimental, refinement or atomic coordinate data resulting 
# from the CCDC's data processing and validation procedures.
#
#######################################################################

data_PUPTEB
_chemical_name_common            
1-bromo-2-((3-(2-trifluoromethylphenyl)-1-propen-1-yl)oxy)naphthalene
_chemical_formula_moiety         'C20 H14 Br1 F3 O1'
_chemical_name_systematic        
'1-bromo-2-naphthyl 3-(2-(trifluoromethyl)phenyl)prop-1-en-1-yl ether'
_symmetry_cell_setting           triclinic
_symmetry_space_group_name_H-M   'P -1'
_symmetry_Int_Tables_number      2
_space_group_name_Hall           '-P 1'
loop_
_symmetry_equiv_pos_site_id
_symmetry_equiv_pos_as_xyz
1 x,y,z
2 -x,-y,-z
_cell_length_a                   7.8306(4)
_cell_length_b                   10.3387(4)
_cell_length_c                   10.8378(6)
_cell_angle_alpha                87.484(4)
_cell_angle_beta                 76.898(4)
_cell_angle_gamma                83.370(3)
_cell_volume                     848.711
_cell_formula_units_Z            2
_chemical_properties_physical    Air-sensitive
_exptl_crystal_recrystallization_method 'ethyl acetate'
loop_
_atom_site_label
_atom_site_type_symbol
_atom_site_fract_x
_atom_site_fract_y
_atom_site_fract_z
Br1 Br 0.85222(5) 0.69172(4) 0.57131(5)
O1 O 0.4783(3) 0.6461(2) 0.6106(2)
F1 F 0.1533(4) 0.3500(4) 1.0850(3)
F2 F 0.2242(5) 0.1500(3) 1.0418(4)
F3 F 0.1295(4) 0.2786(4) 0.9090(3)
C1 C 0.5144(4) 0.7402(3) 0.5178(3)
C2 C 0.3398(4) 0.5733(3) 0.6127(3)
H1 H 0.2980 0.5672 0.5396
C3 C 0.6804(4) 0.7774(3) 0.4877(3)
C4 C 0.4162(4) 0.2961(3) 0.9318(3)
C5 C 0.5960(4) 0.9400(3) 0.3391(3)
C6 C 0.7271(4) 0.8794(3) 0.3991(3)
C7 C 0.3854(4) 0.8011(3) 0.4577(3)
H2 H 0.2724 0.7752 0.4772
C8 C 0.4511(4) 0.4117(3) 0.8645(3)
C9 C 0.2674(4) 0.5132(3) 0.7170(4)
H3 H 0.1795 0.4614 0.7124
C10 C 0.4251(4) 0.8986(3) 0.3705(3)
H4 H 0.3384 0.9385 0.3310
C11 C 0.5545(5) 0.2023(4) 0.9444(3)
H5 H 0.5300 0.1255 0.9894
C12 C 0.6364(6) 1.0439(4) 0.2519(3)
H6 H 0.5497 1.0845 0.2128
C13 C 0.3138(5) 0.5204(3) 0.8435(3)
H7 H 0.2081 0.5164 0.9100
H8 H 0.3578 0.6034 0.8492
C14 C 0.7993(6) 1.0856(4) 0.2242(4)
H9 H 0.8241 1.1532 0.1657
C15 C 0.6264(5) 0.4262(4) 0.8101(4)
H10 H 0.6537 0.5018 0.7637
C16 C 0.8960(5) 0.9250(4) 0.3687(4)
H11 H 0.9848 0.8859 0.4066
C17 C 0.7254(5) 0.2217(4) 0.8916(4)
H12 H 0.8168 0.1596 0.9027
C18 C 0.7613(5) 0.3321(5) 0.8227(4)
H13 H 0.8772 0.3442 0.7839
C19 C 0.9292(5) 1.0266(4) 0.2838(4)
H14 H 1.0399 1.0565 0.2659
C20 C 0.2317(5) 0.2694(4) 0.9909(4)
loop_
_geom_bond_atom_site_label_1
_geom_bond_atom_site_label_2
_geom_bond_site_symmetry_1
_geom_bond_site_symmetry_2
Br1 C3 1_555 1_555
O1 C1 1_555 1_555
F1 C20 1_555 1_555
F2 C20 1_555 1_555
F3 C20 1_555 1_555
C1 C3 1_555 1_555
C2 O1 1_555 1_555
H1 C2 1_555 1_555
C3 C6 1_555 1_555
C4 C8 1_555 1_555
C5 C6 1_555 1_555
C6 C16 1_555 1_555
C7 C1 1_555 1_555
H2 C7 1_555 1_555
C8 C13 1_555 1_555
C9 C2 1_555 1_555
H3 C9 1_555 1_555
C10 C5 1_555 1_555
H4 C10 1_555 1_555
C11 C4 1_555 1_555
H5 C11 1_555 1_555
C12 C5 1_555 1_555
H6 C12 1_555 1_555
C13 C9 1_555 1_555
H7 C13 1_555 1_555
H8 C13 1_555 1_555
C14 C12 1_555 1_555
H9 C14 1_555 1_555
C15 C8 1_555 1_555
H10 C15 1_555 1_555
C16 H11 1_555 1_555
C17 C11 1_555 1_555
H12 C17 1_555 1_555
C18 C15 1_555 1_555
H13 C18 1_555 1_555
C19 C14 1_555 1_555
H14 C19 1_555 1_555
C20 C4 1_555 1_555
C7 C10 1_555 1_555
C16 C19 1_555 1_555
C17 C18 1_555 1_555

#END
