
#######################################################################
#
#                 Cambridge Crystallographic Data Centre
#                                CCDC 
#
#######################################################################
#
# If this CIF has been generated from an entry in the Cambridge 
# Structural Database, then it will include bibliographic, chemical, 
# crystal, experimental, refinement or atomic coordinate data resulting 
# from the CCDC's data processing and validation procedures.
#
#######################################################################

data_PUPTUR
_chemical_formula_moiety         'C16 H16 Cl1 N3 O4'
_chemical_name_systematic        
't-butyl 2-(3-chlorophenyl)-3,3-dicyano-2-(nitromethyl)propanoate'
_symmetry_cell_setting           orthorhombic
_symmetry_space_group_name_H-M   'P 21 21 21'
_symmetry_Int_Tables_number      19
_space_group_name_Hall           'P 2ac 2ab'
loop_
_symmetry_equiv_pos_site_id
_symmetry_equiv_pos_as_xyz
1 x,y,z
2 1/2-x,-y,1/2+z
3 -x,1/2+y,1/2-z
4 1/2+x,1/2-y,-z
_cell_length_a                   6.59700(10)
_cell_length_b                   15.1008(2)
_cell_length_c                   16.7401(2)
_cell_angle_alpha                90
_cell_angle_beta                 90
_cell_angle_gamma                90
_cell_volume                     1667.65
_exptl_crystal_colour            colorless
_exptl_crystal_description       block
_cell_formula_units_Z            4
loop_
_atom_site_label
_atom_site_type_symbol
_atom_site_fract_x
_atom_site_fract_y
_atom_site_fract_z
Cl1 Cl 0.16388(11) 0.74922(4) 0.38738(4)
O1 O -0.0427(2) 1.02046(11) 0.18495(10)
O2 O 0.1835(2) 0.93072(10) 0.12212(9)
O3 O 0.2543(3) 1.13575(12) 0.08239(11)
N1 N 0.4124(3) 1.09362(13) 0.07979(12)
C1 C 0.3277(4) 0.83457(15) 0.35885(14)
C2 C 0.2594(4) 0.89528(16) 0.30338(14)
H1 H 0.1278 0.8919 0.2838
C3 C 0.2468(4) 1.11788(15) 0.25829(14)
H2 H 0.1734 1.1544 0.2195
O4 O 0.5196(3) 1.08760(17) 0.02151(12)
C4 C 0.1265(3) 0.99440(14) 0.17220(13)
C5 C 0.6494(4) 0.90528(17) 0.36489(15)
H3 H 0.7793 0.9095 0.3862
C6 C 0.3900(3) 0.96174(15) 0.27708(13)
C7 C 0.5862(4) 0.96633(16) 0.30772(14)
H4 H 0.6747 1.0101 0.2900
C8 C 0.4849(3) 1.04730(16) 0.15395(14)
H5 H 0.5897 1.0829 0.1788
H6 H 0.5451 0.9911 0.1389
C9 C 0.3153(3) 1.03019(15) 0.21543(13)
C10 C 0.5211(4) 0.83846(16) 0.39045(15)
H7 H 0.5641 0.7971 0.4280
N2 N 0.0050(3) 1.08652(16) 0.37933(15)
C11 C 0.1098(3) 1.09962(15) 0.32617(15)
C12 C 0.1622(4) 0.81219(16) 0.03185(15)
H8 H 0.2215 0.7731 0.0706
H9 H 0.2678 0.8421 0.0030
H10 H 0.0808 0.7785 -0.0047
N3 N 0.5626(4) 1.20814(16) 0.30707(15)
C13 C -0.0665(4) 0.94306(18) 0.01473(15)
H11 H -0.1498 0.9848 0.0428
H12 H -0.1484 0.9102 -0.0222
H13 H 0.0375 0.9741 -0.0139
C14 C 0.0304(4) 0.87991(15) 0.07402(14)
C15 C 0.4231(4) 1.16891(16) 0.28710(14)
C16 C -0.1182(4) 0.83528(16) 0.13022(16)
H14 H -0.1993 0.8795 0.1563
H15 H -0.0449 0.8020 0.1696
H16 H -0.2044 0.7962 0.1004
loop_
_geom_bond_atom_site_label_1
_geom_bond_atom_site_label_2
_geom_bond_site_symmetry_1
_geom_bond_site_symmetry_2
Cl1 C1 1_555 1_555
O1 C4 1_555 1_555
O2 C4 1_555 1_555
O3 N1 1_555 1_555
N1 O4 1_555 1_555
C1 C2 1_555 1_555
C2 H1 1_555 1_555
C3 H2 1_555 1_555
C4 C9 1_555 1_555
C5 H3 1_555 1_555
C6 C2 1_555 1_555
C7 C5 1_555 1_555
H4 C7 1_555 1_555
C8 N1 1_555 1_555
H5 C8 1_555 1_555
H6 C8 1_555 1_555
C9 C3 1_555 1_555
C10 C1 1_555 1_555
H7 C10 1_555 1_555
N2 C11 1_555 1_555
C11 C3 1_555 1_555
C12 H8 1_555 1_555
H9 C12 1_555 1_555
H10 C12 1_555 1_555
N3 C15 1_555 1_555
C13 H11 1_555 1_555
H12 C13 1_555 1_555
H13 C13 1_555 1_555
C14 O2 1_555 1_555
C15 C3 1_555 1_555
C16 C14 1_555 1_555
H14 C16 1_555 1_555
H15 C16 1_555 1_555
H16 C16 1_555 1_555
C5 C10 1_555 1_555
C6 C7 1_555 1_555
C6 C9 1_555 1_555
C8 C9 1_555 1_555
C12 C14 1_555 1_555
C13 C14 1_555 1_555

#END
