
#######################################################################
#
#                 Cambridge Crystallographic Data Centre
#                                CCDC 
#
#######################################################################
#
# If this CIF has been generated from an entry in the Cambridge 
# Structural Database, then it will include bibliographic, chemical, 
# crystal, experimental, refinement or atomic coordinate data resulting 
# from the CCDC's data processing and validation procedures.
#
#######################################################################

data_PUPXAB
_chemical_formula_moiety         'C21 H22 F3 N1 O3'
_chemical_name_systematic        
1-isopropyl-6,7-dimethoxy-4-phenyl-3-(trifluoromethyl)-3,4-dihydroquinolin-2(1H)-one
_symmetry_cell_setting           triclinic
_symmetry_space_group_name_H-M   'P -1'
_symmetry_Int_Tables_number      2
_space_group_name_Hall           '-P 1'
loop_
_symmetry_equiv_pos_site_id
_symmetry_equiv_pos_as_xyz
1 x,y,z
2 -x,-y,-z
_cell_length_a                   8.4239(17)
_cell_length_b                   9.6077(19)
_cell_length_c                   13.401(3)
_cell_angle_alpha                70.85(3)
_cell_angle_beta                 82.30(3)
_cell_angle_gamma                67.14(3)
_cell_volume                     944.081
_exptl_crystal_colour            colorless
_exptl_crystal_description       solid
_cell_formula_units_Z            2
loop_
_atom_site_label
_atom_site_type_symbol
_atom_site_fract_x
_atom_site_fract_y
_atom_site_fract_z
F1 F 0.5149(4) 0.3749(3) 0.2144(2)
F2 F 0.3490(4) 0.3363(4) 0.3475(3)
F3 F 0.5564(4) 0.4104(3) 0.3573(2)
O1 O 0.4808(4) -0.0237(4) 0.3591(2)
O2 O 0.9497(4) 0.2553(3) -0.0950(2)
O3 O 1.1262(4) 0.3170(3) 0.0168(2)
N1 N 0.6687(5) 0.0168(4) 0.2229(3)
C1 C 0.5849(6) 0.0387(5) 0.3137(3)
C2 C 0.6331(6) 0.1413(5) 0.3617(3)
H1 H 0.6110 0.1060 0.4394
C3 C 0.8269(6) 0.1115(5) 0.3472(3)
H2 H 0.8520 0.1872 0.3732
C4 C 0.8635(6) 0.1470(5) 0.2287(3)
C5 C 0.9792(6) 0.2199(5) 0.1790(3)
H3 H 1.0379 0.2488 0.2199
C6 C 1.0106(6) 0.2512(5) 0.0718(3)
C7 C 0.9192(6) 0.2112(5) 0.0119(3)
C8 C 0.8052(6) 0.1373(5) 0.0606(3)
H4 H 0.7422 0.1128 0.0195
C9 C 0.7821(6) 0.0983(5) 0.1707(3)
C10 C 0.5158(7) 0.3129(6) 0.3205(3)
C11 C 0.6566(6) -0.1060(5) 0.1817(3)
H5 H 0.7356 -0.1101 0.1191
C12 C 0.4775(7) -0.0648(6) 0.1431(4)
H6 H 0.3956 -0.0600 0.2023
H7 H 0.4790 -0.1461 0.1136
H8 H 0.4424 0.0383 0.0884
C13 C 0.7232(7) -0.2711(5) 0.2634(4)
H9 H 0.8281 -0.2854 0.2959
H10 H 0.7489 -0.3524 0.2283
H11 H 0.6350 -0.2809 0.3181
C14 C 0.8432(6) 0.2374(5) -0.1610(3)
H12 H 0.8592 0.1254 -0.1429
H13 H 0.8753 0.2753 -0.2352
H14 H 0.7221 0.2994 -0.1502
C15 C 1.2129(7) 0.3669(6) 0.0766(4)
H15 H 1.1272 0.4410 0.1105
H16 H 1.2856 0.4194 0.0290
H17 H 1.2847 0.2743 0.1307
C16 C 0.9423(6) -0.0581(5) 0.4057(3)
C17 C 0.8815(7) -0.1702(5) 0.4759(3)
H18 H 0.7625 -0.1406 0.4938
C18 C 0.9936(7) -0.3251(6) 0.5200(4)
H19 H 0.9498 -0.4005 0.5669
C19 C 1.1668(7) -0.3705(6) 0.4965(4)
H20 H 1.2419 -0.4771 0.5260
C20 C 1.2320(7) -0.2587(6) 0.4289(3)
H21 H 1.3518 -0.2876 0.4134
C21 C 1.1201(7) -0.1069(5) 0.3854(3)
H22 H 1.1648 -0.0315 0.3395
loop_
_geom_bond_atom_site_label_1
_geom_bond_atom_site_label_2
_geom_bond_site_symmetry_1
_geom_bond_site_symmetry_2
F1 C10 1_555 1_555
F2 C10 1_555 1_555
F3 C10 1_555 1_555
O1 C1 1_555 1_555
O2 C7 1_555 1_555
O3 C6 1_555 1_555
N1 C1 1_555 1_555
C1 C2 1_555 1_555
C2 H1 1_555 1_555
C3 C2 1_555 1_555
H2 C3 1_555 1_555
C4 C3 1_555 1_555
C5 C4 1_555 1_555
H3 C5 1_555 1_555
C6 C5 1_555 1_555
C7 C6 1_555 1_555
C8 C7 1_555 1_555
H4 C8 1_555 1_555
C9 N1 1_555 1_555
C10 C2 1_555 1_555
C11 N1 1_555 1_555
H5 C11 1_555 1_555
C12 C11 1_555 1_555
H6 C12 1_555 1_555
H7 C12 1_555 1_555
H8 C12 1_555 1_555
C13 C11 1_555 1_555
H9 C13 1_555 1_555
H10 C13 1_555 1_555
H11 C13 1_555 1_555
C14 O2 1_555 1_555
H12 C14 1_555 1_555
H13 C14 1_555 1_555
H14 C14 1_555 1_555
C15 O3 1_555 1_555
H15 C15 1_555 1_555
H16 C15 1_555 1_555
H17 C15 1_555 1_555
C16 C3 1_555 1_555
C17 C16 1_555 1_555
H18 C17 1_555 1_555
C18 C17 1_555 1_555
H19 C18 1_555 1_555
C19 C18 1_555 1_555
H20 C19 1_555 1_555
C20 C19 1_555 1_555
H21 C20 1_555 1_555
C21 C16 1_555 1_555
H22 C21 1_555 1_555
C4 C9 1_555 1_555
C8 C9 1_555 1_555
C20 C21 1_555 1_555

#END
