
#######################################################################
#
#                 Cambridge Crystallographic Data Centre
#                                CCDC 
#
#######################################################################
#
# If this CIF has been generated from an entry in the Cambridge 
# Structural Database, then it will include bibliographic, chemical, 
# crystal, experimental, refinement or atomic coordinate data resulting 
# from the CCDC's data processing and validation procedures.
#
#######################################################################

data_PUQBIM
_chemical_formula_moiety         'C24 H26 N2 O3'
_chemical_name_systematic        
1-Benzyl-4(R)-cyclopropyl-3(R)-((4'-(S)-phenyl-2'-oxazolidinon-3'-yl)carbonyl)pyrrolidine
_symmetry_cell_setting           orthorhombic
_symmetry_space_group_name_H-M   'P 21 21 21'
_symmetry_Int_Tables_number      19
_space_group_name_Hall           'P 2ac 2ab'
loop_
_symmetry_equiv_pos_site_id
_symmetry_equiv_pos_as_xyz
1 x,y,z
2 1/2-x,-y,1/2+z
3 1/2+x,1/2-y,-z
4 -x,1/2+y,1/2-z
_cell_length_a                   11.004(10)
_cell_length_b                   33.714(3)
_cell_length_c                   5.602(2)
_cell_angle_alpha                90
_cell_angle_beta                 90
_cell_angle_gamma                90
_cell_volume                     2078.28
_exptl_crystal_description       rod
_chemical_melting_point          144-145deg.C
_cell_formula_units_Z            4
loop_
_atom_site_label
_atom_site_type_symbol
_atom_site_fract_x
_atom_site_fract_y
_atom_site_fract_z
O1 O 0.2025(5) 0.0103(2) 0.566(1)
O2 O 0.0986(5) 0.0848(2) 1.186(1)
O3 O 0.3382(5) 0.0580(2) 0.640(1)
N1 N 0.1484(6) 0.0570(2) 0.827(1)
N2 N 0.2093(7) 0.1904(2) 0.869(1)
C1 C -0.0750(7) 0.0441(2) 0.834(2)
C2 C -0.1611(8) 0.0343(2) 1.002(2)
C3 C 0.4204(8) 0.1492(3) 1.165(2)
C4 C 0.0828(7) 0.0(2) 0.646(2)
C5 C 0.1588(8) 0.0869(3) 1.010(2)
C6 C 0.2353(8) 0.1228(3) 0.940(2)
C7 C -0.2275(9) 0.0809(3) 0.616(2)
C8 C 0.2841(7) 0.1462(2) 1.156(2)
C9 C -0.1074(8) 0.0681(2) 0.640(2)
C10 C 0.2397(9) 0.0444(3) 0.675(2)
C11 C -0.3129(8) 0.0703(3) 0.785(2)
C12 C 0.2261(9) 0.1871(3) 1.125(2)
C13 C 0.1995(9) 0.2633(3) 0.834(2)
C14 C 0.1548(8) 0.1524(3) 0.802(2)
C15 C -0.2809(8) 0.0470(3) 0.978(2)
C16 C 0.1355(8) 0.2243(3) 0.794(2)
C17 C 0.4813(9) 0.1586(3) 1.396(2)
C18 C 0.1728(10) 0.2865(3) 1.029(2)
C19 C 0.4944(8) 0.1189(3) 1.286(2)
C20 C 0.316(1) 0.3349(3) 0.914(3)
C21 C 0.2889(10) 0.2757(3) 0.674(2)
C22 C 0.230(1) 0.3223(4) 1.071(2)
C23 C 0.346(1) 0.3119(4) 0.715(3)
C24 C 0.0513(6) 0.0273(2) 0.856(2)
H1 H -0.1333 0.0180 1.1456
H2 H 0.4600 0.1612 1.0270
H3 H 0.0230 0.0029 0.5177
H4 H 0.0785 -0.0287 0.6873
H5 H 0.3022 0.1156 0.8403
H6 H -0.2509 0.0975 0.4776
H7 H 0.2573 0.1340 1.3076
H8 H -0.0429 0.0757 0.5241
H9 H -0.3950 0.0803 0.7582
H10 H 0.2721 0.2087 1.1831
H11 H 0.1455 0.1887 1.2029
H12 H 0.0703 0.1508 0.8488
H13 H 0.1568 0.1483 0.6306
H14 H -0.3471 0.0412 1.0982
H15 H 0.1088 0.2218 0.6289
H16 H 0.0572 0.2246 0.8860
H17 H 0.5475 0.1765 1.4108
H18 H 0.4303 0.1622 1.5384
H19 H 0.1081 0.2774 1.1443
H20 H 0.4544 0.0964 1.3573
H21 H 0.5716 0.1107 1.2296
H22 H 0.3594 0.3594 0.9475
H23 H 0.3140 0.2585 0.5385
H24 H 0.2071 0.3386 1.2210
H25 H 0.4102 0.3230 0.6027
H26 H 0.0588 0.0126 1.0134
loop_
_geom_bond_atom_site_label_1
_geom_bond_atom_site_label_2
_geom_bond_site_symmetry_1
_geom_bond_site_symmetry_2
O1 C4 1_555 1_555
O2 C5 1_555 1_555
O3 C10 1_555 1_555
N1 C5 1_555 1_555
N2 C12 1_555 1_555
C1 C2 1_555 1_555
C2 C15 1_555 1_555
C3 C8 1_555 1_555
C4 C24 1_555 1_555
C5 C6 1_555 1_555
C6 C8 1_555 1_555
C7 C9 1_555 1_555
C8 C12 1_555 1_555
C9 C1 1_555 1_555
C10 O1 1_555 1_555
C11 C7 1_555 1_555
C12 H10 1_555 1_555
C13 C16 1_555 1_555
C14 N2 1_555 1_555
C15 C11 1_555 1_555
C16 N2 1_555 1_555
C17 C3 1_555 1_555
C18 C13 1_555 1_555
C19 C3 1_555 1_555
C20 C22 1_555 1_555
C21 C13 1_555 1_555
C22 C18 1_555 1_555
C23 C20 1_555 1_555
C24 N1 1_555 1_555
H1 C2 1_555 1_555
H2 C3 1_555 1_555
H3 C4 1_555 1_555
H4 C4 1_555 1_555
H5 C6 1_555 1_555
H6 C7 1_555 1_555
H7 C8 1_555 1_555
H8 C9 1_555 1_555
H9 C11 1_555 1_555
H11 C12 1_555 1_555
H12 C14 1_555 1_555
H13 C14 1_555 1_555
H14 C15 1_555 1_555
H15 C16 1_555 1_555
H16 C16 1_555 1_555
H17 C17 1_555 1_555
H18 C17 1_555 1_555
H19 C18 1_555 1_555
H20 C19 1_555 1_555
H21 C19 1_555 1_555
H22 C20 1_555 1_555
H23 C21 1_555 1_555
H24 C22 1_555 1_555
H25 C23 1_555 1_555
H26 C24 1_555 1_555
N1 C10 1_555 1_555
C1 C24 1_555 1_555
C6 C14 1_555 1_555
C17 C19 1_555 1_555
C21 C23 1_555 1_555

#END
