
#######################################################################
#
#                 Cambridge Crystallographic Data Centre
#                                CCDC 
#
#######################################################################
#
# If this CIF has been generated from an entry in the Cambridge 
# Structural Database, then it will include bibliographic, chemical, 
# crystal, experimental, refinement or atomic coordinate data resulting 
# from the CCDC's data processing and validation procedures.
#
#######################################################################

data_PUQGIT
_chemical_formula_moiety         'C4 H12 N1 O7 P2 1-,2(H2 O1),Cs1 1+'
_chemical_name_systematic        
'Cesium (4-ammonio-1-hydroxybutane-1,1-diyl)bis(hydrogen phosphonate) dihydrate'
_symmetry_cell_setting           monoclinic
_symmetry_space_group_name_H-M   'P 21/c'
_symmetry_Int_Tables_number      14
_space_group_name_Hall           '-P 2ybc'
loop_
_symmetry_equiv_pos_site_id
_symmetry_equiv_pos_as_xyz
1 x,y,z
2 -x,1/2+y,1/2-z
3 -x,-y,-z
4 x,1/2-y,1/2+z
_cell_length_a                   7.0876(4)
_cell_length_b                   9.2773(5)
_cell_length_c                   19.4339(11)
_cell_angle_alpha                90
_cell_angle_beta                 100.664(5)
_cell_angle_gamma                90
_cell_volume                     1255.78
_exptl_crystal_colour            colorless
_exptl_crystal_description       prism
_cell_formula_units_Z            4
loop_
_atom_site_label
_atom_site_type_symbol
_atom_site_fract_x
_atom_site_fract_y
_atom_site_fract_z
Cs1 Cs 0.89932(4) 1.00694(3) 0.277199(15)
P1 P 0.70781(15) 0.60994(12) 0.32554(5)
P2 P 0.34860(16) 0.76951(12) 0.35261(6)
O1 O 0.7667(4) 0.7010(3) 0.26944(16)
O2 O 0.8941(5) 0.5411(4) 0.37241(16)
H1 H 0.994(5) 0.591(6) 0.377(3)
O3 O 0.5705(6) 0.4870(3) 0.3025(2)
O4 O 0.3274(5) 0.7825(4) 0.27085(16)
H2 H 0.363(8) 0.854(4) 0.250(3)
O5 O 0.2286(4) 0.6455(3) 0.36890(16)
O6 O 0.3087(5) 0.9135(4) 0.38358(17)
O7 O 0.7044(5) 0.8640(3) 0.38916(16)
H3 H 0.635(5) 0.924(3) 0.405(2)
N1 N 0.5562(6) 0.8081(5) 0.6376(2)
H4 H 0.602(8) 0.781(7) 0.6824(12)
H5 H 0.4257(17) 0.803(7) 0.627(3)
H6 H 0.574(6) 0.901(2) 0.625(3)
C1 C 0.6036(7) 0.7267(5) 0.3866(2)
C2 C 0.6359(6) 0.6623(5) 0.4607(2)
H7 H 0.5780 0.5649 0.4581
H8 H 0.7757 0.6514 0.4777
C3 C 0.5517(7) 0.7521(6) 0.5140(2)
H9 H 0.5707 0.8557 0.5051
H10 H 0.4118 0.7341 0.5074
C4 C 0.6426(7) 0.7173(6) 0.5887(2)
H11 H 0.6224 0.6142 0.5982
H12 H 0.7826 0.7352 0.5958
O8 O 0.8516(5) 1.2398(4) 0.39472(17)
H13 H 0.845(9) 1.3291(13) 0.3877(18)
H14 H 0.871(9) 1.221(4) 0.4377(7)
O9 O 0.0595(5) 0.8781(4) 0.47304(18)
H15 H -0.043(3) 0.905(7) 0.4469(12)
H16 H 0.153(5) 0.899(7) 0.454(3)
loop_
_geom_bond_atom_site_label_1
_geom_bond_atom_site_label_2
_geom_bond_site_symmetry_1
_geom_bond_site_symmetry_2
P1 O1 1_555 1_555
P2 O4 1_555 1_555
O2 P1 1_555 1_555
H1 O2 1_555 1_555
O3 P1 1_555 1_555
O4 H2 1_555 1_555
O5 P2 1_555 1_555
O6 P2 1_555 1_555
O7 H3 1_555 1_555
N1 H4 1_555 1_555
H5 N1 1_555 1_555
H6 N1 1_555 1_555
C1 P1 1_555 1_555
C2 C1 1_555 1_555
H7 C2 1_555 1_555
H8 C2 1_555 1_555
C3 C2 1_555 1_555
H9 C3 1_555 1_555
H10 C3 1_555 1_555
C4 N1 1_555 1_555
H11 C4 1_555 1_555
H12 C4 1_555 1_555
O8 H13 1_555 1_555
H14 O8 1_555 1_555
O9 H15 1_555 1_555
H16 O9 1_555 1_555
P2 C1 1_555 1_555
O7 C1 1_555 1_555
C3 C4 1_555 1_555

#END
