
#######################################################################
#
#                 Cambridge Crystallographic Data Centre
#                                CCDC 
#
#######################################################################
#
# If this CIF has been generated from an entry in the Cambridge 
# Structural Database, then it will include bibliographic, chemical, 
# crystal, experimental, refinement or atomic coordinate data resulting 
# from the CCDC's data processing and validation procedures.
#
#######################################################################

data_PUQGAL01
_chemical_formula_moiety         'C4 H12 N1 O7 P2 1-,2(H2 O1),Rb1 1+'
_chemical_name_systematic        
'Rubidium (4-ammonio-1-hydroxybutane-1,1-diyl)bis(hydrogen phosphonate) dihydrate'
_symmetry_cell_setting           monoclinic
_symmetry_space_group_name_H-M   'P 21/c'
_symmetry_Int_Tables_number      14
_space_group_name_Hall           '-P 2ybc'
loop_
_symmetry_equiv_pos_site_id
_symmetry_equiv_pos_as_xyz
1 x,y,z
2 -x,1/2+y,1/2-z
3 -x,-y,-z
4 x,1/2-y,1/2+z
_cell_length_a                   7.0023(3)
_cell_length_b                   9.0931(5)
_cell_length_c                   19.3509(8)
_cell_angle_alpha                90
_cell_angle_beta                 99.932(4)
_cell_angle_gamma                90
_cell_volume                     1213.66
_exptl_crystal_colour            colorless
_exptl_crystal_description       prism
_cell_formula_units_Z            4
loop_
_atom_site_label
_atom_site_type_symbol
_atom_site_fract_x
_atom_site_fract_y
_atom_site_fract_z
P1 P 0.71236(9) 0.60819(9) 0.32270(3)
P2 P 0.34378(9) 0.76231(9) 0.34966(3)
O1 O 0.7801(3) 0.7012(2) 0.26762(9)
O2 O 0.8944(3) 0.5342(2) 0.36970(9)
H1 H 0.999(3) 0.570(4) 0.3658(16)
O3 O 0.5704(3) 0.4871(2) 0.29820(9)
O4 O 0.3220(3) 0.7730(3) 0.26788(9)
H2 H 0.373(4) 0.845(3) 0.2518(16)
O5 O 0.2313(3) 0.6320(3) 0.36673(9)
O6 O 0.2946(3) 0.9075(3) 0.37974(9)
O7 O 0.6997(3) 0.8681(2) 0.38467(9)
H3 H 0.648(4) 0.927(3) 0.4042(16)
N1 N 0.5613(4) 0.8119(3) 0.63674(12)
H4 H 0.619(4) 0.797(4) 0.6824(10)
H5 H 0.429(3) 0.799(4) 0.6303(16)
H6 H 0.577(5) 0.909(2) 0.6272(17)
C1 C 0.6038(4) 0.7276(3) 0.38343(12)
C2 C 0.6365(4) 0.6618(4) 0.45798(12)
H7 H 0.5774 0.5626 0.4559
H8 H 0.7776 0.6502 0.4744
C3 C 0.5517(4) 0.7550(4) 0.51172(12)
H9 H 0.5723 0.8605 0.5027
H10 H 0.4102 0.7376 0.5058
C4 C 0.6441(4) 0.7184(4) 0.58635(13)
H11 H 0.6214 0.6135 0.5960
H12 H 0.7858 0.7345 0.5924
Rb1 Rb 1.11092(4) 0.50553(4) 0.223774(13)
O8 O 0.8502(3) 1.2268(3) 0.39182(11)
H13 H 0.880(5) 1.208(4) 0.4342(10)
H14 H 0.861(5) 1.317(2) 0.3875(17)
O9 O 0.0523(3) 0.8748(3) 0.47216(10)
H15 H 0.136(4) 0.890(5) 0.4473(15)
H16 H -0.049(3) 0.847(5) 0.4508(15)
loop_
_geom_bond_atom_site_label_1
_geom_bond_atom_site_label_2
_geom_bond_site_symmetry_1
_geom_bond_site_symmetry_2
P1 O1 1_555 1_555
P2 O4 1_555 1_555
O2 P1 1_555 1_555
H1 O2 1_555 1_555
O3 P1 1_555 1_555
O4 H2 1_555 1_555
O5 P2 1_555 1_555
O6 P2 1_555 1_555
O7 H3 1_555 1_555
N1 H4 1_555 1_555
H5 N1 1_555 1_555
H6 N1 1_555 1_555
C1 P1 1_555 1_555
C2 C1 1_555 1_555
H7 C2 1_555 1_555
H8 C2 1_555 1_555
C3 C2 1_555 1_555
H9 C3 1_555 1_555
H10 C3 1_555 1_555
C4 N1 1_555 1_555
H11 C4 1_555 1_555
H12 C4 1_555 1_555
O8 H13 1_555 1_555
H14 O8 1_555 1_555
O9 H15 1_555 1_555
H16 O9 1_555 1_555
P2 C1 1_555 1_555
O7 C1 1_555 1_555
C3 C4 1_555 1_555

#END
