
#######################################################################
#
#                 Cambridge Crystallographic Data Centre
#                                CCDC 
#
#######################################################################
#
# If this CIF has been generated from an entry in the Cambridge 
# Structural Database, then it will include bibliographic, chemical, 
# crystal, experimental, refinement or atomic coordinate data resulting 
# from the CCDC's data processing and validation procedures.
#
#######################################################################

data_PUQHEQ
_chemical_formula_moiety         'C4 H11 N1 O7 P2 2-,6(H2 O1),2(K1 1+)'
_chemical_name_systematic        
'Di-potassium (4-ammonio-1-hydroxy-1-(hydroxyphosphinato)butyl)phosphonate hexahydrate'
_symmetry_cell_setting           triclinic
_symmetry_space_group_name_H-M   'P -1'
_symmetry_Int_Tables_number      2
_space_group_name_Hall           '-P 1'
loop_
_symmetry_equiv_pos_site_id
_symmetry_equiv_pos_as_xyz
1 x,y,z
2 -x,-y,-z
_cell_length_a                   6.9859(5)
_cell_length_b                   9.1723(10)
_cell_length_c                   26.4883(18)
_cell_angle_alpha                95.782(8)
_cell_angle_beta                 91.213(6)
_cell_angle_gamma                92.422(7)
_cell_volume                     1686.59
_exptl_crystal_colour            colorless
_exptl_crystal_description       prism
_cell_formula_units_Z            4
loop_
_atom_site_label
_atom_site_type_symbol
_atom_site_fract_x
_atom_site_fract_y
_atom_site_fract_z
K1 K 0.75889(5) 1.11733(4) 0.357947(14)
K2 K 0.85410(6) 0.67647(5) 0.331485(15)
K3 K 0.79926(5) 0.70525(4) 0.142198(14)
K4 K 0.85217(6) 0.25471(5) 0.162590(15)
P1 P 0.30204(6) 1.20016(5) 0.342969(16)
P2 P 0.17292(6) 1.21550(5) 0.453735(16)
O1 O 0.35605(18) 1.03795(14) 0.35364(5)
H1 H 0.299(3) 1.018(3) 0.3796(7)
O2 O 0.45656(17) 1.25988(14) 0.31098(5)
O3 O 0.09926(17) 1.19782(14) 0.32228(4)
O4 O 0.18742(17) 1.04860(14) 0.43932(5)
O5 O 0.26383(17) 1.26030(14) 0.50595(4)
O6 O -0.03039(17) 1.26422(14) 0.44652(5)
O7 O 0.52017(16) 1.28758(14) 0.42277(5)
H2 H 0.586(3) 1.360(2) 0.4199(8)
N1 N 0.3137(2) 1.82048(17) 0.48841(6)
H3 H 0.297(3) 1.9161(18) 0.4833(8)
H4 H 0.430(2) 1.808(2) 0.5015(8)
H5 H 0.229(3) 1.797(3) 0.5121(7)
C1 C 0.3230(2) 1.30180(19) 0.40663(6)
C2 C 0.2802(2) 1.46191(19) 0.40198(6)
H6 H 0.3699 1.5009 0.3777
H7 H 0.1488 1.4656 0.3875
C3 C 0.2957(2) 1.56210(19) 0.45162(6)
H8 H 0.1890 1.5378 0.4737
H9 H 0.4178 1.5469 0.4696
C4 C 0.2884(3) 1.72109(19) 0.44079(6)
H10 H 0.3908 1.7436 0.4171
H11 H 0.1635 1.7372 0.4243
P3 P 0.33915(6) 0.79212(5) 0.159525(16)
P4 P 0.18526(6) 0.74386(5) 0.047989(16)
O8 O 0.38395(18) 0.62300(14) 0.14725(5)
H12 H 0.325(3) 0.591(2) 0.1202(7)
O9 O 0.50538(17) 0.86589(14) 0.19039(5)
O10 O 0.14466(17) 0.80725(15) 0.18246(5)
O11 O 0.20064(17) 0.58490(14) 0.06184(5)
O12 O 0.26868(17) 0.75896(14) -0.00405(4)
O13 O -0.01686(17) 0.79691(14) 0.05438(5)
O14 O 0.53688(17) 0.83293(14) 0.07869(5)
H13 H 0.599(3) 0.910(2) 0.0805(8)
N2 N 0.3141(2) 1.32519(17) 0.01145(6)
H14 H 0.426(2) 1.307(2) -0.0041(8)
H15 H 0.221(3) 1.286(2) -0.0102(7)
H16 H 0.299(3) 1.4242(17) 0.0177(8)
C5 C 0.3433(2) 0.85724(19) 0.09548(6)
C6 C 0.3019(2) 1.02014(19) 0.09996(6)
H17 H 0.3972 1.0737 0.1239
H18 H 0.1739 1.0328 0.1147
C7 C 0.3062(2) 1.09025(19) 0.04980(6)
H19 H 0.4240 1.0636 0.0316
H20 H 0.1944 1.0525 0.0281
C8 C 0.3017(3) 1.2554(2) 0.05985(6)
H21 H 0.1814 1.2821 0.0768
H22 H 0.4105 1.2926 0.0828
O15 O 0.7356(2) 0.89676(16) 0.27769(5)
H23 H 0.646(3) 0.874(3) 0.2581(8)
H24 H 0.809(3) 0.946(3) 0.2621(8)
O16 O 0.8436(2) 0.89204(16) 0.41401(5)
H25 H 0.810(3) 0.847(3) 0.4381(8)
H26 H 0.945(3) 0.937(3) 0.4245(9)
O17 O 0.50072(19) 0.56111(17) 0.29218(5)
H27 H 0.401(3) 0.605(2) 0.2874(9)
H28 H 0.466(3) 0.4770(19) 0.2967(9)
O18 O 0.79516(19) 0.51480(16) 0.41910(5)
H29 H 0.865(3) 0.454(2) 0.4300(9)
H30 H 0.788(3) 0.578(2) 0.4443(7)
O19 O 1.2059(2) 0.77288(16) 0.29094(5)
H31 H 1.246(3) 0.854(2) 0.3029(8)
H32 H 1.180(3) 0.785(3) 0.2611(6)
O20 O 1.0320(2) 0.44405(17) 0.27717(6)
H33 H 1.106(2) 0.430(3) 0.2526(7)
H34 H 1.037(4) 0.371(2) 0.2922(9)
O21 O 0.7486(2) 0.51596(17) 0.21193(5)
H35 H 0.829(2) 0.505(3) 0.2344(8)
H36 H 0.649(3) 0.530(3) 0.2289(8)
O22 O 0.8528(2) 0.44290(16) 0.08348(5)
H37 H 0.959(3) 0.477(3) 0.0734(9)
H38 H 0.818(3) 0.387(2) 0.0572(7)
O23 O 0.52036(19) 0.17330(16) 0.21097(5)
H39 H 0.508(3) 0.0824(18) 0.2067(9)
H40 H 0.507(3) 0.194(3) 0.2427(6)
O24 O 0.80831(18) 0.05935(15) 0.07718(5)
H41 H 0.882(3) -0.009(2) 0.0693(8)
H42 H 0.801(3) 0.106(2) 0.0520(7)
O25 O 0.9993(2) 0.06186(16) 0.22382(5)
H43 H 1.065(3) -0.004(2) 0.2115(8)
H44 H 1.050(3) 0.102(3) 0.2498(7)
O26 O 1.2314(2) 0.36674(17) 0.18882(5)
H45 H 1.315(3) 0.306(2) 0.1934(10)
H46 H 1.288(3) 0.437(2) 0.1795(9)
loop_
_geom_bond_atom_site_label_1
_geom_bond_atom_site_label_2
_geom_bond_site_symmetry_1
_geom_bond_site_symmetry_2
P1 O1 1_555 1_555
P2 O4 1_555 1_555
O1 H1 1_555 1_555
O2 P1 1_555 1_555
O3 P1 1_555 1_555
O5 P2 1_555 1_555
O6 P2 1_555 1_555
O7 H2 1_555 1_555
N1 H3 1_555 1_555
H4 N1 1_555 1_555
H5 N1 1_555 1_555
C1 P1 1_555 1_555
C2 C1 1_555 1_555
H6 C2 1_555 1_555
H7 C2 1_555 1_555
C3 C2 1_555 1_555
H8 C3 1_555 1_555
H9 C3 1_555 1_555
C4 N1 1_555 1_555
H10 C4 1_555 1_555
H11 C4 1_555 1_555
P3 O8 1_555 1_555
P4 O11 1_555 1_555
O8 H12 1_555 1_555
O9 P3 1_555 1_555
O10 P3 1_555 1_555
O12 P4 1_555 1_555
O13 P4 1_555 1_555
O14 H13 1_555 1_555
N2 H14 1_555 1_555
H15 N2 1_555 1_555
H16 N2 1_555 1_555
C5 P3 1_555 1_555
C6 C5 1_555 1_555
H17 C6 1_555 1_555
H18 C6 1_555 1_555
C7 C6 1_555 1_555
H19 C7 1_555 1_555
H20 C7 1_555 1_555
C8 N2 1_555 1_555
H21 C8 1_555 1_555
H22 C8 1_555 1_555
O15 H23 1_555 1_555
H24 O15 1_555 1_555
O16 H25 1_555 1_555
H26 O16 1_555 1_555
O17 H27 1_555 1_555
H28 O17 1_555 1_555
O18 H29 1_555 1_555
H30 O18 1_555 1_555
O19 H31 1_555 1_555
H32 O19 1_555 1_555
O20 H33 1_555 1_555
H34 O20 1_555 1_555
O21 H35 1_555 1_555
H36 O21 1_555 1_555
O22 H37 1_555 1_555
H38 O22 1_555 1_555
O23 H39 1_555 1_555
H40 O23 1_555 1_555
O24 H41 1_555 1_555
H42 O24 1_555 1_555
O25 H43 1_555 1_555
H44 O25 1_555 1_555
O26 H45 1_555 1_555
H46 O26 1_555 1_555
P2 C1 1_555 1_555
O7 C1 1_555 1_555
C3 C4 1_555 1_555
P4 C5 1_555 1_555
O14 C5 1_555 1_555
C7 C8 1_555 1_555

#END
