
#######################################################################
#
#                 Cambridge Crystallographic Data Centre
#                                CCDC 
#
#######################################################################
#
# If this CIF has been generated from an entry in the Cambridge 
# Structural Database, then it will include bibliographic, chemical, 
# crystal, experimental, refinement or atomic coordinate data resulting 
# from the CCDC's data processing and validation procedures.
#
#######################################################################

data_PUQHOA
_chemical_formula_moiety         'C4 H11 N1 O7 P2 2-,4.5(H2 O1),2(Rb1 1+)'
_chemical_name_systematic        
'Di-rubidium (4-ammonio-1-hydroxy-1-(hydroxyphosphinato)butyl)phosphonate hydrate'
_symmetry_cell_setting           triclinic
_symmetry_space_group_name_H-M   'P -1'
_symmetry_Int_Tables_number      2
_space_group_name_Hall           '-P 1'
loop_
_symmetry_equiv_pos_site_id
_symmetry_equiv_pos_as_xyz
1 x,y,z
2 -x,-y,-z
_cell_length_a                   6.816(4)
_cell_length_b                   13.5090(5)
_cell_length_c                   17.812(5)
_cell_angle_alpha                104.03(2)
_cell_angle_beta                 98.21(2)
_cell_angle_gamma                94.69(3)
_cell_volume                     1563.24
_exptl_crystal_colour            colorless
_exptl_crystal_description       needle
_cell_formula_units_Z            4
loop_
_atom_site_label
_atom_site_type_symbol
_atom_site_fract_x
_atom_site_fract_y
_atom_site_fract_z
Rb1 Rb 1.17212(11) 0.62312(7) 0.54905(5)
Rb2 Rb 0.85513(17) 0.55020(8) 0.26715(6)
Rb3 Rb 0.81047(11) 0.37809(7) 0.02802(5)
Rb4 Rb 0.32051(12) 0.77078(7) 0.21045(5)
P1 P 0.7217(3) 0.78071(16) 0.60914(11)
P2 P 0.6661(3) 0.66744(17) 0.43291(12)
O1 O 0.9485(7) 0.7897(4) 0.6197(3)
O2 O 0.6297(8) 0.6765(4) 0.6160(3)
O3 O 0.6466(7) 0.8718(4) 0.6620(3)
O4 O 0.8839(9) 0.6696(5) 0.4311(4)
O5 O 0.5882(14) 0.5757(6) 0.4661(4)
H1 H 0.636(17) 0.593(9) 0.5142(18)
O6 O 0.5370(10) 0.6579(6) 0.3565(4)
O7 O 0.4125(7) 0.7845(5) 0.5043(3)
H2 H 0.363(9) 0.799(6) 0.463(3)
N1 N 0.7242(9) 1.0562(5) 0.3546(4)
H3 H 0.747(14) 1.018(6) 0.308(3)
H4 H 0.809(11) 1.110(5) 0.352(5)
H5 H 0.603(7) 1.076(7) 0.360(5)
C1 C 0.6255(10) 0.7829(6) 0.5066(4)
C2 C 0.7230(11) 0.8804(6) 0.4920(4)
H6 H 0.8670 0.8739 0.4933
H7 H 0.7121 0.9382 0.5369
C3 C 0.6472(11) 0.9114(6) 0.4168(4)
H8 H 0.6567 0.8563 0.3699
H9 H 0.5063 0.9251 0.4150
C4 C 0.7801(11) 1.0075(6) 0.4199(4)
H10 H 0.7787 1.0583 0.4702
H11 H 0.9186 0.9906 0.4195
P3 P 0.7579(3) 0.69063(16) 0.09901(12)
P4 P 0.7168(3) 0.92230(15) 0.13657(11)
O8 O 0.8637(8) 0.7168(5) 0.1886(3)
H12 H 0.815(14) 0.767(4) 0.214(4)
O9 O 0.5364(8) 0.6691(4) 0.0943(3)
O10 O 0.8537(9) 0.6069(5) 0.0511(4)
O11 O 0.7594(7) 0.9052(4) 0.2199(3)
O12 O 0.4935(7) 0.9152(4) 0.1084(3)
O13 O 0.8353(7) 1.0205(4) 0.1321(3)
O14 O 1.0297(7) 0.8329(4) 0.0887(3)
H13 H 1.052(14) 0.839(8) 0.045(3)
N2 N 0.7404(9) 0.9397(5) -0.1726(4)
H14 H 0.865(6) 0.974(6) -0.154(5)
H15 H 0.674(12) 0.995(5) -0.155(5)
H16 H 0.736(14) 0.917(7) -0.2251(15)
C5 C 0.8151(10) 0.8124(6) 0.0720(4)
C6 C 0.7328(11) 0.7941(6) -0.0153(4)
H17 H 0.8018 0.7398 -0.0452
H18 H 0.5895 0.7673 -0.0243
C7 C 0.7525(10) 0.8865(6) -0.0489(4)
H19 H 0.8915 0.9208 -0.0337
H20 H 0.6633 0.9363 -0.0272
C8 C 0.6976(11) 0.8531(6) -0.1380(4)
H21 H 0.7746 0.7967 -0.1590
H22 H 0.5538 0.8269 -0.1530
O15 O 1.3767(11) 0.6322(6) 0.7153(4)
H23 H 1.470(13) 0.656(8) 0.695(7)
H24 H 1.326(13) 0.682(5) 0.742(5)
O16 O 0.8497(11) 0.5160(6) 0.6211(5)
H25 H 0.807(13) 0.574(4) 0.638(4)
H26 H 0.741(7) 0.476(5) 0.597(8)
O17 O 1.1448(9) 0.7755(6) 0.3717(4)
H27 H 1.136(18) 0.838(3) 0.373(7)
H28 H 1.066(14) 0.756(8) 0.399(6)
O18 O 1.2736(13) 0.5525(8) 0.2279(6)
H29 H 1.357(14) 0.561(4) 0.270(4)
H30 H 1.335(18) 0.525(12) 0.190(4)
O19 O 1.0037(11) 0.3655(5) 0.1749(4)
H31 H 0.950(14) 0.320(7) 0.194(6)
H32 H 1.120(8) 0.386(9) 0.202(6)
O20 O 0.4490(11) 0.4691(5) 0.0925(5)
H33 H 0.485(17) 0.531(3) 0.095(7)
H34 H 0.351(10) 0.448(8) 0.055(4)
O21 O 0.7555(8) 0.1534(4) 0.0299(3)
H35 H 0.761(13) 0.116(6) 0.061(4)
H36 H 0.654(8) 0.131(6) -0.007(3)
O22 O 0.1410(8) 0.9376(4) 0.3025(3)
H37 H 0.028(7) 0.932(6) 0.275(5)
H38 H 0.189(12) 1.000(2) 0.320(5)
O23 O 0.8558(9) 0.2086(5) 0.2353(3)
H39 H 0.917(14) 0.213(7) 0.280(2)
H40 H 0.845(16) 0.151(4) 0.204(4)
loop_
_geom_bond_atom_site_label_1
_geom_bond_atom_site_label_2
_geom_bond_site_symmetry_1
_geom_bond_site_symmetry_2
P1 O1 1_555 1_555
P2 O4 1_555 1_555
O2 P1 1_555 1_555
O3 P1 1_555 1_555
O5 P2 1_555 1_555
H1 O5 1_555 1_555
O6 P2 1_555 1_555
O7 H2 1_555 1_555
N1 H3 1_555 1_555
H4 N1 1_555 1_555
H5 N1 1_555 1_555
C1 P1 1_555 1_555
C2 C1 1_555 1_555
H6 C2 1_555 1_555
H7 C2 1_555 1_555
C3 C2 1_555 1_555
H8 C3 1_555 1_555
H9 C3 1_555 1_555
C4 N1 1_555 1_555
H10 C4 1_555 1_555
H11 C4 1_555 1_555
P3 O8 1_555 1_555
P4 O11 1_555 1_555
O8 H12 1_555 1_555
O9 P3 1_555 1_555
O10 P3 1_555 1_555
O12 P4 1_555 1_555
O13 P4 1_555 1_555
O14 H13 1_555 1_555
N2 H14 1_555 1_555
H15 N2 1_555 1_555
H16 N2 1_555 1_555
C5 P3 1_555 1_555
C6 C5 1_555 1_555
H17 C6 1_555 1_555
H18 C6 1_555 1_555
C7 C6 1_555 1_555
H19 C7 1_555 1_555
H20 C7 1_555 1_555
C8 N2 1_555 1_555
H21 C8 1_555 1_555
H22 C8 1_555 1_555
O15 H23 1_555 1_555
H24 O15 1_555 1_555
O16 H25 1_555 1_555
H26 O16 1_555 1_555
O17 H27 1_555 1_555
H28 O17 1_555 1_555
O18 H29 1_555 1_555
H30 O18 1_555 1_555
O19 H31 1_555 1_555
H32 O19 1_555 1_555
O20 H33 1_555 1_555
H34 O20 1_555 1_555
O21 H35 1_555 1_555
H36 O21 1_555 1_555
O22 H37 1_555 1_555
H38 O22 1_555 1_555
O23 H39 1_555 1_555
H40 O23 1_555 1_555
P2 C1 1_555 1_555
O7 C1 1_555 1_555
C3 C4 1_555 1_555
P4 C5 1_555 1_555
O14 C5 1_555 1_555
C7 C8 1_555 1_555

#END
