
#######################################################################
#
#                 Cambridge Crystallographic Data Centre
#                                CCDC 
#
#######################################################################
#
# If this CIF has been generated from an entry in the Cambridge 
# Structural Database, then it will include bibliographic, chemical, 
# crystal, experimental, refinement or atomic coordinate data resulting 
# from the CCDC's data processing and validation procedures.
#
#######################################################################

data_PURDOV
_chemical_formula_moiety         '2(Cs1 1+),C16 H44 B8 Si4 2-,C6 H16 N2'
_chemical_name_systematic        
'Dicesium tetrakis(trimethylsilyl)-tetracarbadodecaborate(8) 1,2-bis(dimethylamino)ethane'
_symmetry_cell_setting           orthorhombic
_symmetry_space_group_name_H-M   'P 21 21 21'
_symmetry_Int_Tables_number      19
_space_group_name_Hall           'P 2ac 2ab'
loop_
_symmetry_equiv_pos_site_id
_symmetry_equiv_pos_as_xyz
1 x,y,z
2 1/2-x,-y,1/2+z
3 1/2+x,1/2-y,-z
4 -x,1/2+y,1/2-z
_cell_length_a                   13.517(3)
_cell_length_b                   15.902(4)
_cell_length_c                   18.927(4)
_cell_angle_alpha                90
_cell_angle_beta                 90
_cell_angle_gamma                90
_cell_volume                     4068.31
_exptl_crystal_colour            colorless
_chemical_melting_point          260deg.C(dec)
_cell_formula_units_Z            4
_chemical_properties_physical    Air-sensitive
_exptl_crystal_recrystallization_method 
n-hexane/N,N,N',N'-tetramethylethylenediamine
loop_
_atom_site_label
_atom_site_type_symbol
_atom_site_fract_x
_atom_site_fract_y
_atom_site_fract_z
Cs1 Cs 1.2177(3) 0.2510(2) 0.4767(2)
Cs2 Cs 0.8290(3) 0.1707(2) 0.2350(2)
Si1 Si 1.1770(12) 0.3354(7) 0.2718(7)
Si2 Si 0.9874(9) 0.1114(8) 0.4568(8)
Si3 Si 1.0407(13) 0.4376(9) 0.5659(8)
Si4 Si 0.7998(11) 0.4863(8) 0.3242(7)
C1 C 1.0750(29) 0.3481(22) 0.3394(18)
C2 C 1.0110(32) 0.2193(24) 0.4334(24)
C3 C 1.0242(38) 0.3978(30) 0.4800(29)
C4 C 0.9144(34) 0.4264(26) 0.3607(22)
B1 B 1.0208(36) 0.2566(33) 0.3545(25)
B2 B 0.9594(39) 0.2947(30) 0.4812(29)
B3 B 1.0856(46) 0.4086(36) 0.4112(30)
B4 B 1.0116(48) 0.4409(39) 0.3302(34)
B5 B 0.9450(37) 0.3396(30) 0.3230(24)
B6 B 0.9308(35) 0.2703(26) 0.3995(23)
B7 B 0.9093(40) 0.3850(31) 0.4368(27)
B8 B 0.9693(33) 0.4704(24) 0.4195(22)
C5 C 1.1457(38) 0.3126(29) 0.1828(23)
C6 C 1.2608(33) 0.4374(25) 0.2613(24)
C7 C 1.2696(33) 0.2567(31) 0.2970(23)
C8 C 0.8990(29) 0.0527(23) 0.3918(21)
C9 C 0.9169(45) 0.1025(38) 0.5394(29)
C10 C 1.1052(33) 0.0569(29) 0.4604(26)
C11 C 1.1148(45) 0.5382(31) 0.5614(31)
C12 C 0.9189(37) 0.4551(29) 0.6106(27)
C13 C 1.1132(46) 0.3711(34) 0.6226(31)
C14 C 0.7142(38) 0.4110(30) 0.3179(26)
C15 C 0.7584(40) 0.5650(30) 0.3830(27)
C16 C 0.8190(50) 0.5271(39) 0.2301(31)
H1 H 1.0917 0.2229 0.3467
H2 H 0.9145 0.2845 0.5281
H3 H 1.1581 0.4336 0.4254
H4 H 1.0324 0.4882 0.2905
H5 H 0.8977 0.3253 0.2763
H6 H 0.8604 0.2367 0.3893
H7 H 0.8317 0.3937 0.4539
H8 H 0.9582 0.5328 0.4373
H9 H 1.0969 0.3525 0.1676
H10 H 1.1189 0.2568 0.1795
H11 H 1.2032 0.3169 0.1533
H12 H 1.2836 0.4549 0.3070
H13 H 1.2229 0.4817 0.2402
H14 H 1.3167 0.4246 0.2318
H15 H 1.3326 0.2721 0.2774
H16 H 1.2504 0.2026 0.2790
H17 H 1.2745 0.2542 0.3475
H18 H 0.9123 -0.0066 0.3927
H19 H 0.9100 0.0740 0.3450
H20 H 0.8315 0.0626 0.4052
H21 H 0.9141 0.0452 0.5554
H22 H 0.8510 0.1248 0.5363
H23 H 0.9548 0.1354 0.5722
H24 H 1.1371 0.0583 0.4151
H25 H 1.0935 -0.0004 0.4739
H26 H 1.1468 0.0835 0.4949
H27 H 1.0816 0.5776 0.5312
H28 H 1.1793 0.5262 0.5426
H29 H 1.1214 0.5619 0.6079
H30 H 0.8797 0.4909 0.5809
H31 H 0.9284 0.4816 0.6557
H32 H 0.8854 0.4024 0.6170
H33 H 1.0796 0.3183 0.6277
H34 H 1.1198 0.3973 0.6680
H35 H 1.1776 0.3617 0.6027
H36 H 0.7359 0.3684 0.2855
H37 H 0.6539 0.4357 0.3009
H38 H 0.7028 0.3862 0.3635
H39 H 0.8079 0.6079 0.3872
H40 H 0.7469 0.5400 0.4285
H41 H 0.6980 0.5895 0.3659
H42 H 0.8686 0.5702 0.2311
H43 H 0.7586 0.5498 0.2113
H44 H 0.8410 0.4816 0.2007
N1 N 0.8102(34) 0.2562(29) 0.0840(30)
N2 N 0.5839(53) 0.2139(35) 0.1642(39)
C17 C 0.7120(44) 0.2416(45) 0.0488(28)
C18 C 0.6298(62) 0.2265(63) 0.0799(43)
C19 C 0.8146(52) 0.3499(35) 0.0996(34)
C20 C 0.8874(64) 0.2174(53) 0.0601(44)
C21 C 0.4947(79) 0.2143(79) 0.1662(64)
C22 C 0.6028(63) 0.1271(40) 0.1479(40)
H45 H 0.7229 0.1946 0.0180
H46 H 0.7006 0.2912 0.0212
H47 H 0.5916 0.2756 0.0688
H48 H 0.6054 0.1795 0.0533
H49 H 0.8752 0.3663 0.1221
H50 H 0.7599 0.3625 0.1303
H51 H 0.8072 0.3803 0.0561
H52 H 0.9462 0.2318 0.0858
H53 H 0.8969 0.2293 0.0108
H54 H 0.8737 0.1585 0.0661
H55 H 0.4947 0.2741 0.1731
H56 H 0.4822 0.1868 0.2105
H57 H 0.4439 0.1994 0.1331
H58 H 0.5844 0.0990 0.1908
H59 H 0.6685 0.1104 0.1346
H60 H 0.5573 0.1122 0.1110
loop_
_geom_bond_atom_site_label_1
_geom_bond_atom_site_label_2
_geom_bond_site_symmetry_1
_geom_bond_site_symmetry_2
Si1 C1 1_555 1_555
Si2 C2 1_555 1_555
Si3 C3 1_555 1_555
Si4 C4 1_555 1_555
C1 B1 1_555 1_555
C2 B1 1_555 1_555
C3 B2 1_555 1_555
C4 B4 1_555 1_555
B1 B5 1_555 1_555
B2 C2 1_555 1_555
B3 C1 1_555 1_555
B4 C1 1_555 1_555
B5 C1 1_555 1_555
B6 C2 1_555 1_555
B7 C3 1_555 1_555
B8 C3 1_555 1_555
C5 Si1 1_555 1_555
C6 Si1 1_555 1_555
C7 Si1 1_555 1_555
C8 Si2 1_555 1_555
C9 Si2 1_555 1_555
C10 Si2 1_555 1_555
C11 Si3 1_555 1_555
C12 Si3 1_555 1_555
C13 Si3 1_555 1_555
C14 Si4 1_555 1_555
C15 Si4 1_555 1_555
C16 Si4 1_555 1_555
H1 B1 1_555 1_555
H2 B2 1_555 1_555
H3 B3 1_555 1_555
H4 B4 1_555 1_555
H5 B5 1_555 1_555
H6 B6 1_555 1_555
H7 B7 1_555 1_555
H8 B8 1_555 1_555
H9 C5 1_555 1_555
H10 C5 1_555 1_555
H11 C5 1_555 1_555
H12 C6 1_555 1_555
H13 C6 1_555 1_555
H14 C6 1_555 1_555
H15 C7 1_555 1_555
H16 C7 1_555 1_555
H17 C7 1_555 1_555
H18 C8 1_555 1_555
H19 C8 1_555 1_555
H20 C8 1_555 1_555
H21 C9 1_555 1_555
H22 C9 1_555 1_555
H23 C9 1_555 1_555
H24 C10 1_555 1_555
H25 C10 1_555 1_555
H26 C10 1_555 1_555
H27 C11 1_555 1_555
H28 C11 1_555 1_555
H29 C11 1_555 1_555
H30 C12 1_555 1_555
H31 C12 1_555 1_555
H32 C12 1_555 1_555
H33 C13 1_555 1_555
H34 C13 1_555 1_555
H35 C13 1_555 1_555
H36 C14 1_555 1_555
H37 C14 1_555 1_555
H38 C14 1_555 1_555
H39 C15 1_555 1_555
H40 C15 1_555 1_555
H41 C15 1_555 1_555
H42 C16 1_555 1_555
H43 C16 1_555 1_555
H44 C16 1_555 1_555
N1 C17 1_555 1_555
N2 C18 1_555 1_555
C17 C18 1_555 1_555
C18 H47 1_555 1_555
C19 N1 1_555 1_555
C20 N1 1_555 1_555
C21 N2 1_555 1_555
C22 N2 1_555 1_555
H45 C17 1_555 1_555
H46 C17 1_555 1_555
H48 C18 1_555 1_555
H49 C19 1_555 1_555
H50 C19 1_555 1_555
H51 C19 1_555 1_555
H52 C20 1_555 1_555
H53 C20 1_555 1_555
H54 C20 1_555 1_555
H55 C21 1_555 1_555
H56 C21 1_555 1_555
H57 C21 1_555 1_555
H58 C22 1_555 1_555
H59 C22 1_555 1_555
H60 C22 1_555 1_555
C3 B3 1_555 1_555
C4 B5 1_555 1_555
C4 B7 1_555 1_555
C4 B8 1_555 1_555
B1 B6 1_555 1_555
B2 B6 1_555 1_555
B2 B7 1_555 1_555
B3 B4 1_555 1_555
B3 B8 1_555 1_555
B4 B5 1_555 1_555
B4 B8 1_555 1_555
B5 B6 1_555 1_555
B6 B7 1_555 1_555
B7 B8 1_555 1_555

#END
