
#######################################################################
#
#                 Cambridge Crystallographic Data Centre
#                                CCDC 
#
#######################################################################
#
# If this CIF has been generated from an entry in the Cambridge 
# Structural Database, then it will include bibliographic, chemical, 
# crystal, experimental, refinement or atomic coordinate data resulting 
# from the CCDC's data processing and validation procedures.
#
#######################################################################

data_PURYOS
_chemical_formula_moiety         'C64 H66 N8 O4'
_chemical_name_systematic        
2,2'-(1,3-phenylenebis(methylylideneazanylylidene))bis(3',6'-bis(diethylamino)spiro[isoindole-1,9'-xanthen]-3(2H)-one)
_symmetry_cell_setting           orthorhombic
_symmetry_space_group_name_H-M   'F d d 2'
_symmetry_Int_Tables_number      43
_space_group_name_Hall           'F 2 -2d'
loop_
_symmetry_equiv_pos_site_id
_symmetry_equiv_pos_as_xyz
1 x,y,z
2 -x,-y,z
3 1/4-x,1/4+y,1/4+z
4 3/4+x,3/4-y,1/4+z
5 x,1/2+y,1/2+z
6 -x,1/2-y,1/2+z
7 1/4-x,3/4+y,3/4+z
8 3/4+x,1/4-y,3/4+z
9 1/2+x,y,1/2+z
10 1/2-x,-y,1/2+z
11 3/4-x,1/4+y,3/4+z
12 1/4+x,3/4-y,3/4+z
13 1/2+x,1/2+y,z
14 1/2-x,1/2-y,z
15 3/4-x,3/4+y,1/4+z
16 1/4+x,1/4-y,1/4+z
_cell_length_a                   20.2211(17)
_cell_length_b                   95.380(9)
_cell_length_c                   12.5142(10)
_cell_angle_alpha                90
_cell_angle_beta                 90
_cell_angle_gamma                90
_cell_volume                     24136
_exptl_crystal_description       needle
_cell_formula_units_Z            16
loop_
_atom_site_label
_atom_site_type_symbol
_atom_site_fract_x
_atom_site_fract_y
_atom_site_fract_z
N1 N 0.2082(2) 0.11521(6) 0.2992(5)
N2 N -0.2116(2) 0.07956(6) 0.1516(5)
N3 N -0.03257(18) 0.09356(4) 0.5614(3)
N4 N 0.0069(2) 0.08256(5) 0.5280(4)
N5 N 0.5378(3) 0.05553(6) 0.5227(5)
N6 N 0.2450(5) -0.01566(7) 0.2770(6)
N7 N 0.2390(2) 0.04814(5) 0.3217(4)
N8 N 0.2770(2) 0.05016(5) 0.2307(4)
O1 O 0.00231(15) 0.09043(4) 0.2859(3)
O2 O -0.0165(2) 0.09380(5) 0.7445(3)
O3 O 0.3884(3) 0.02132(4) 0.3828(4)
O4 O 0.2197(2) 0.06660(5) 0.1305(4)
C1 C 0.2320(4) 0.14050(8) 0.2918(8)
H1 H 0.2396 0.1402 0.2161
H2 H 0.2594 0.1476 0.3230
H3 H 0.1864 0.1426 0.3052
C2 C 0.2487(3) 0.12654(7) 0.3403(7)
H4 H 0.2948 0.1244 0.3263
H5 H 0.2429 0.1271 0.4171
C3 C 0.2390(3) 0.10603(8) 0.2192(6)
H6 H 0.2047 0.1019 0.1753
H7 H 0.2672 0.1116 0.1731
C4 C 0.2784(5) 0.09487(10) 0.2683(10)
H8 H 0.2500 0.0888 0.3092
H9 H 0.3111 0.0989 0.3144
H10 H 0.2999 0.0895 0.2134
C5 C 0.1448(3) 0.11301(6) 0.3359(5)
C6 C 0.1188(3) 0.12133(7) 0.4190(5)
H11 H 0.1441 0.1286 0.4464
C7 C 0.0576(3) 0.11892(6) 0.4601(5)
H12 H 0.0427 0.1246 0.5157
C8 C 0.0165(2) 0.10835(5) 0.4226(4)
C9 C 0.0407(2) 0.10056(5) 0.3375(4)
C10 C 0.1034(3) 0.10218(6) 0.2961(5)
H13 H 0.1185 0.0962 0.2425
C11 C -0.0482(2) 0.10415(5) 0.4748(4)
C12 C -0.0925(2) 0.09793(5) 0.3902(4)
C13 C -0.1614(2) 0.09865(5) 0.3947(5)
H14 H -0.1813 0.1033 0.4516
C14 C -0.2011(2) 0.09261(6) 0.3165(5)
H15 H -0.2468 0.0933 0.3221
C15 C -0.1730(3) 0.08553(6) 0.2293(5)
C16 C -0.1039(3) 0.08496(6) 0.2246(5)
H16 H -0.0836 0.0803 0.1682
C17 C -0.0654(2) 0.09122(5) 0.3025(4)
C18 C -0.3092(4) 0.09258(11) 0.0934(9)
H17 H -0.2899 0.1010 0.1216
H18 H -0.3564 0.0930 0.1011
H19 H -0.2981 0.0917 0.0192
C19 C -0.2833(3) 0.08033(9) 0.1528(7)
H20 H -0.2984 0.0808 0.2262
H21 H -0.3012 0.0718 0.1215
C20 C -0.1838(3) 0.07188(7) 0.0599(5)
H22 H -0.1421 0.0761 0.0392
H23 H -0.2139 0.0725 -0.0003
C21 C -0.1728(4) 0.05682(9) 0.0869(8)
H24 H -0.1392 0.0561 0.1407
H25 H -0.1590 0.0519 0.0240
H26 H -0.2132 0.0528 0.1133
C22 C -0.0766(2) 0.11573(5) 0.5412(4)
C23 C -0.1061(3) 0.12789(6) 0.5098(5)
H27 H -0.1153 0.1295 0.4380
C24 C -0.1225(3) 0.13795(6) 0.5874(6)
H28 H -0.1432 0.1462 0.5670
C25 C -0.1081(3) 0.13564(7) 0.6927(6)
H29 H -0.1177 0.1425 0.7430
C26 C -0.0795(3) 0.12314(6) 0.7253(5)
H30 H -0.0705 0.1215 0.7971
C27 C -0.0649(2) 0.11322(6) 0.6488(4)
C28 C -0.0360(3) 0.09933(6) 0.6634(5)
C29 C 0.0190(2) 0.07247(6) 0.5921(5)
H31 H -0.0013 0.0721 0.6588
C30 C 0.0655(3) 0.06148(6) 0.5585(5)
C31 C 0.1021(3) 0.06296(6) 0.4633(5)
H32 H 0.0943 0.0707 0.4196
C32 C 0.1488(3) 0.05333(6) 0.4336(5)
C33 C 0.1567(3) 0.04139(7) 0.4976(7)
H33 H 0.1868 0.0345 0.4776
C34 C 0.1203(4) 0.03974(7) 0.5897(7)
H34 H 0.1262 0.0318 0.6312
C35 C 0.0756(3) 0.04974(7) 0.6210(6)
H35 H 0.0521 0.0486 0.6843
C36 C 0.1889(3) 0.05581(6) 0.3371(5)
H36 H 0.1777 0.0628 0.2888
C37 C 0.2658(3) 0.05821(7) 0.1407(5)
C38 C 0.3185(3) 0.05478(6) 0.0659(5)
C39 C 0.3323(4) 0.06015(8) -0.0351(6)
H37 H 0.3060 0.0671 -0.0654
C40 C 0.3868(5) 0.05481(9) -0.0894(6)
H38 H 0.3972 0.0582 -0.1570
C41 C 0.4251(4) 0.04470(9) -0.0448(6)
H39 H 0.4613 0.0413 -0.0828
C42 C 0.4121(3) 0.03931(7) 0.0542(5)
H40 H 0.4388 0.0324 0.0832
C43 C 0.3584(3) 0.04440(6) 0.1101(5)
C44 C 0.3355(3) 0.04060(6) 0.2226(4)
C45 C 0.3865(3) 0.04450(6) 0.3050(4)
C46 C 0.4130(3) 0.05820(6) 0.3091(5)
H41 H 0.3974 0.0649 0.2618
C47 C 0.4609(3) 0.06179(6) 0.3808(5)
H42 H 0.4761 0.0710 0.3828
C48 C 0.4879(3) 0.05186(7) 0.4516(5)
C49 C 0.4608(3) 0.03829(7) 0.4484(5)
H43 H 0.4766 0.0314 0.4946
C50 C 0.4104(3) 0.03503(6) 0.3764(5)
C51 C 0.5295(6) 0.04501(15) 0.6961(8)
H44 H 0.5364 0.0536 0.7346
H45 H 0.5451 0.0373 0.7381
H46 H 0.4832 0.0438 0.6820
C52 C 0.5656(4) 0.04550(11) 0.5954(7)
H47 H 0.6114 0.0479 0.6094
H48 H 0.5648 0.0363 0.5626
C53 C 0.5637(4) 0.06982(8) 0.5239(7)
H49 H 0.5847 0.0716 0.5923
H50 H 0.5273 0.0764 0.5165
C54 C 0.6136(4) 0.07241(10) 0.4346(8)
H51 H 0.6516 0.0665 0.4453
H52 H 0.6270 0.0821 0.4354
H53 H 0.5937 0.0703 0.3670
C55 C 0.3150(3) 0.02560(5) 0.2350(4)
C56 C 0.2679(4) 0.01972(7) 0.1680(6)
H54 H 0.2508 0.0252 0.1127
C57 C 0.2450(4) 0.00602(8) 0.1799(6)
H55 H 0.2136 0.0024 0.1331
C58 C 0.2697(4) -0.00217(7) 0.2626(6)
C59 C 0.3164(4) 0.00341(7) 0.3286(6)
H56 H 0.3334 -0.0020 0.3841
C60 C 0.3391(3) 0.01714(6) 0.3140(5)
C61 C 0.3118(8) -0.03352(15) 0.3689(12)
H57 H 0.2955 -0.0422 0.3404
H58 H 0.3300 -0.0351 0.4387
H59 H 0.3454 -0.0298 0.3227
C62 C 0.2564(7) -0.02328(12) 0.3768(7)
H60 H 0.2163 -0.0282 0.3964
H61 H 0.2661 -0.0166 0.4331
C63 C 0.2011(9) -0.02176(11) 0.2005(12)
H62 H 0.2047 -0.0319 0.2038
H63 H 0.2138 -0.0188 0.1293
C64 C 0.1336(9) -0.0177(2) 0.2202(18)
H64 H 0.1054 -0.0220 0.1677
H65 H 0.1206 -0.0208 0.2902
H66 H 0.1297 -0.0077 0.2158
loop_
_geom_bond_atom_site_label_1
_geom_bond_atom_site_label_2
_geom_bond_site_symmetry_1
_geom_bond_site_symmetry_2
N1 C2 1_555 1_555
N2 C15 1_555 1_555
N3 N4 1_555 1_555
N4 C29 1_555 1_555
N5 C48 1_555 1_555
N6 C58 1_555 1_555
N7 N8 1_555 1_555
N8 C37 1_555 1_555
O1 C9 1_555 1_555
O2 C28 1_555 1_555
O3 C50 1_555 1_555
O4 C37 1_555 1_555
C1 H1 1_555 1_555
H2 C1 1_555 1_555
H3 C1 1_555 1_555
C2 C1 1_555 1_555
H4 C2 1_555 1_555
H5 C2 1_555 1_555
C3 N1 1_555 1_555
H6 C3 1_555 1_555
H7 C3 1_555 1_555
C4 C3 1_555 1_555
H8 C4 1_555 1_555
H9 C4 1_555 1_555
H10 C4 1_555 1_555
C5 N1 1_555 1_555
C6 C5 1_555 1_555
H11 C6 1_555 1_555
C7 C6 1_555 1_555
H12 C7 1_555 1_555
C8 C7 1_555 1_555
C9 C8 1_555 1_555
C10 C5 1_555 1_555
H13 C10 1_555 1_555
C11 N3 1_555 1_555
C12 C11 1_555 1_555
C13 C12 1_555 1_555
H14 C13 1_555 1_555
C14 C13 1_555 1_555
H15 C14 1_555 1_555
C15 C14 1_555 1_555
C16 C15 1_555 1_555
H16 C16 1_555 1_555
C17 O1 1_555 1_555
C18 H17 1_555 1_555
H18 C18 1_555 1_555
H19 C18 1_555 1_555
C19 N2 1_555 1_555
H20 C19 1_555 1_555
H21 C19 1_555 1_555
C20 N2 1_555 1_555
H22 C20 1_555 1_555
H23 C20 1_555 1_555
C21 C20 1_555 1_555
H24 C21 1_555 1_555
H25 C21 1_555 1_555
H26 C21 1_555 1_555
C22 C11 1_555 1_555
C23 C22 1_555 1_555
H27 C23 1_555 1_555
C24 C23 1_555 1_555
H28 C24 1_555 1_555
C25 C24 1_555 1_555
H29 C25 1_555 1_555
C26 C25 1_555 1_555
H30 C26 1_555 1_555
C27 C22 1_555 1_555
C28 N3 1_555 1_555
C29 H31 1_555 1_555
C30 C29 1_555 1_555
C31 C30 1_555 1_555
H32 C31 1_555 1_555
C32 C31 1_555 1_555
C33 C32 1_555 1_555
H33 C33 1_555 1_555
C34 C33 1_555 1_555
H34 C34 1_555 1_555
C35 C30 1_555 1_555
H35 C35 1_555 1_555
C36 N7 1_555 1_555
H36 C36 1_555 1_555
C37 C38 1_555 1_555
C38 C39 1_555 1_555
C39 H37 1_555 1_555
C40 C39 1_555 1_555
H38 C40 1_555 1_555
C41 C40 1_555 1_555
H39 C41 1_555 1_555
C42 C41 1_555 1_555
H40 C42 1_555 1_555
C43 C38 1_555 1_555
C44 N8 1_555 1_555
C45 C44 1_555 1_555
C46 C45 1_555 1_555
H41 C46 1_555 1_555
C47 C46 1_555 1_555
H42 C47 1_555 1_555
C48 C47 1_555 1_555
C49 C48 1_555 1_555
H43 C49 1_555 1_555
C50 C45 1_555 1_555
C51 H44 1_555 1_555
H45 C51 1_555 1_555
H46 C51 1_555 1_555
C52 N5 1_555 1_555
H47 C52 1_555 1_555
H48 C52 1_555 1_555
C53 N5 1_555 1_555
H49 C53 1_555 1_555
H50 C53 1_555 1_555
C54 C53 1_555 1_555
H51 C54 1_555 1_555
H52 C54 1_555 1_555
H53 C54 1_555 1_555
C55 C44 1_555 1_555
C56 C55 1_555 1_555
H54 C56 1_555 1_555
C57 C56 1_555 1_555
H55 C57 1_555 1_555
C58 C57 1_555 1_555
C59 C58 1_555 1_555
H56 C59 1_555 1_555
C60 O3 1_555 1_555
C61 H57 1_555 1_555
H58 C61 1_555 1_555
H59 C61 1_555 1_555
C62 N6 1_555 1_555
H60 C62 1_555 1_555
H61 C62 1_555 1_555
C63 N6 1_555 1_555
H62 C63 1_555 1_555
H63 C63 1_555 1_555
C64 C63 1_555 1_555
H64 C64 1_555 1_555
H65 C64 1_555 1_555
H66 C64 1_555 1_555
C8 C11 1_555 1_555
C9 C10 1_555 1_555
C12 C17 1_555 1_555
C16 C17 1_555 1_555
C18 C19 1_555 1_555
C26 C27 1_555 1_555
C27 C28 1_555 1_555
C32 C36 1_555 1_555
C34 C35 1_555 1_555
C42 C43 1_555 1_555
C43 C44 1_555 1_555
C49 C50 1_555 1_555
C51 C52 1_555 1_555
C55 C60 1_555 1_555
C59 C60 1_555 1_555
C61 C62 1_555 1_555

#END
