
#######################################################################
#
#                 Cambridge Crystallographic Data Centre
#                                CCDC 
#
#######################################################################
#
# If this CIF has been generated from an entry in the Cambridge 
# Structural Database, then it will include bibliographic, chemical, 
# crystal, experimental, refinement or atomic coordinate data resulting 
# from the CCDC's data processing and validation procedures.
#
#######################################################################

data_PUSDOY
_chemical_formula_moiety         'C15 H17 I2 N1 O4'
_chemical_name_systematic        
5-hydroxy-4-iodo-1-(2-(2-iodo-4,5-dimethoxyphenyl)ethyl)-5-methyl-1,5-dihydro-2H-pyrrol-2-one
_symmetry_cell_setting           monoclinic
_symmetry_space_group_name_H-M   'P 21/c'
_symmetry_Int_Tables_number      14
_space_group_name_Hall           '-P 2ybc'
loop_
_symmetry_equiv_pos_site_id
_symmetry_equiv_pos_as_xyz
1 x,y,z
2 -x,1/2+y,1/2-z
3 -x,-y,-z
4 x,1/2-y,1/2+z
_cell_length_a                   14.144(3)
_cell_length_b                   7.1649(14)
_cell_length_c                   16.846(3)
_cell_angle_alpha                90
_cell_angle_beta                 94.92(3)
_cell_angle_gamma                90
_cell_volume                     1700.89
_exptl_crystal_colour            white
_chemical_melting_point          '382-384 K'
_cell_formula_units_Z            4
_exptl_crystal_recrystallization_method methanol
loop_
_atom_site_label
_atom_site_type_symbol
_atom_site_fract_x
_atom_site_fract_y
_atom_site_fract_z
I1 I 0.25986(3) 0.28102(11) 0.56855(3)
I2 I -0.24948(3) 0.22367(10) 0.30831(3)
O1 O 0.5989(3) 0.2235(9) 0.4452(3)
O2 O 0.5303(3) 0.2222(9) 0.2991(3)
C1 C 0.3468(5) 0.2651(12) 0.4747(4)
C2 C 0.4441(5) 0.2522(11) 0.4936(4)
H1 H 0.4691 0.2546 0.5477
C3 C 0.5041(4) 0.2359(11) 0.4342(4)
C4 C 0.4655(5) 0.2359(11) 0.3539(4)
C5 C 0.3699(5) 0.2520(14) 0.3371(4)
H2 H 0.3446 0.2499 0.2831
C6 C 0.3086(5) 0.2713(16) 0.3961(4)
C7 C 0.6436(5) 0.2299(12) 0.5251(4)
H3 H 0.7125 0.2189 0.5236
H4 H 0.6203 0.1265 0.5561
H5 H 0.6286 0.3487 0.5499
C8 C 0.4930(5) 0.2226(16) 0.2172(4)
H6 H 0.5454 0.2122 0.1829
H7 H 0.4584 0.3391 0.2053
H8 H 0.4499 0.1165 0.2074
O3 O -0.0317(7) 0.3191(11) 0.4249(5)
O4 O 0.1009(5) 0.1995(11) 0.1999(4)
C9 C 0.2052(6) 0.3162(10) 0.3716(6)
H9 H 0.1994 0.3809 0.3194
H10 H 0.1793 0.3987 0.4116
C10 C 0.1504(4) 0.1308(11) 0.3658(5)
H11 H 0.1850 0.0397 0.3349
H12 H 0.1461 0.0793 0.4198
N1 N 0.0535(4) 0.1592(13) 0.3264(3)
C11 C -0.0344(4) 0.1811(9) 0.3682(3)
C12 C -0.0486(6) -0.0085(9) 0.4073(4)
H13 H -0.0034 -0.0218 0.4544
H14 H -0.0381 -0.1083 0.3693
H15 H -0.1135 -0.0169 0.4233
C13 C -0.1069(5) 0.1980(16) 0.2952(3)
C14 C -0.0660(4) 0.2129(15) 0.2269(4)
H16 H -0.090(3) 0.263(5) 0.1770(11)
C15 C 0.0412(5) 0.1977(16) 0.2410(4)
O5? O -0.0411(13) 0.0989(13) 0.4090(8)
O6? O 0.0977(11) 0.278(3) 0.1964(10)
C16? C 0.2065(10) 0.1627(15) 0.3732(14)
H17? H 0.2062 0.0877 0.3238
H18? H 0.1860 0.0858 0.4174
C17? C 0.1509(6) 0.3466(16) 0.3616(12)
H19? H 0.1501 0.4119 0.4133
H20? H 0.1822 0.4288 0.3246
N2? N 0.0512(5) 0.307(2) 0.3285(4)
C18? C -0.0378(6) 0.2619(10) 0.3672(4)
C19? C -0.0476(15) 0.4590(14) 0.4026(11)
H21? H -0.0041 0.4716 0.4507
H22? H -0.1130 0.4778 0.4161
H23? H -0.0320 0.5527 0.3634
C20? C -0.1075(7) 0.268(4) 0.2918(4)
C21? C -0.0667(5) 0.255(3) 0.2228(5)
H24? H -0.089(3) 0.215(7) 0.1709(13)
C22? C 0.0409(6) 0.253(3) 0.2430(6)
loop_
_geom_bond_atom_site_label_1
_geom_bond_atom_site_label_2
_geom_bond_site_symmetry_1
_geom_bond_site_symmetry_2
I1 C1 1_555 1_555
I2 C13 1_555 1_555
O1 C3 1_555 1_555
O2 C4 1_555 1_555
C1 C2 1_555 1_555
C2 H1 1_555 1_555
C3 C2 1_555 1_555
C4 C3 1_555 1_555
C5 C4 1_555 1_555
H2 C5 1_555 1_555
C6 C1 1_555 1_555
C7 O1 1_555 1_555
H3 C7 1_555 1_555
H4 C7 1_555 1_555
H5 C7 1_555 1_555
C8 O2 1_555 1_555
H6 C8 1_555 1_555
H7 C8 1_555 1_555
H8 C8 1_555 1_555
O3 C11 1_555 1_555
O4 C15 1_555 1_555
C9 C6 1_555 1_555
H9 C9 1_555 1_555
H10 C9 1_555 1_555
C10 C9 1_555 1_555
H11 C10 1_555 1_555
H12 C10 1_555 1_555
N1 C10 1_555 1_555
C11 N1 1_555 1_555
C12 C11 1_555 1_555
H13 C12 1_555 1_555
H14 C12 1_555 1_555
H15 C12 1_555 1_555
C13 C11 1_555 1_555
C14 C13 1_555 1_555
H16 C14 1_555 1_555
C15 N1 1_555 1_555
C5 C6 1_555 1_555
C14 C15 1_555 1_555

#END
