
#######################################################################
#
#                 Cambridge Crystallographic Data Centre
#                                CCDC 
#
#######################################################################
#
# If this CIF has been generated from an entry in the Cambridge 
# Structural Database, then it will include bibliographic, chemical, 
# crystal, experimental, refinement or atomic coordinate data resulting 
# from the CCDC's data processing and validation procedures.
#
#######################################################################

data_PUSPIE
_chemical_formula_moiety         'C34 H30 N6 O2'
_chemical_name_systematic        
2,3-bis((4-(dimethylamino)-2-phenoxybenzylidene)amino)but-2-enedinitrile
_symmetry_cell_setting           monoclinic
_symmetry_space_group_name_H-M   'C 2/c'
_symmetry_Int_Tables_number      15
_space_group_name_Hall           '-C 2yn'
loop_
_symmetry_equiv_pos_site_id
_symmetry_equiv_pos_as_xyz
1 x,y,z
2 -x,y,1/2-z
3 1/2+x,1/2+y,z
4 1/2-x,1/2+y,1/2-z
5 -x,-y,-z
6 x,-y,1/2+z
7 1/2-x,1/2-y,-z
8 1/2+x,1/2-y,1/2+z
_cell_length_a                   17.6278(7)
_cell_length_b                   8.6461(4)
_cell_length_c                   21.0723(8)
_cell_angle_alpha                90
_cell_angle_beta                 105.8290(19)
_cell_angle_gamma                90
_cell_volume                     3089.88
_exptl_crystal_colour            purple
_exptl_crystal_description       needle
_cell_formula_units_Z            4
loop_
_atom_site_label
_atom_site_type_symbol
_atom_site_fract_x
_atom_site_fract_y
_atom_site_fract_z
O1 O 0.2911(3) 0.3105(6) 0.3857(2)
N1 N 0.4020(4) -0.1887(8) 0.4688(3)
N2 N 0.2153(3) -0.0608(8) 0.4687(3)
N3 N 0.0472(4) 0.5810(8) 0.3634(3)
C1 C 0.3414(5) -0.1924(9) 0.4771(4)
C2 C 0.2641(5) -0.1867(8) 0.4869(3)
C3 C 0.2407(4) 0.0617(10) 0.4444(3)
H1 H 0.2921 0.0629 0.4407
C4 C 0.1914(4) 0.1937(9) 0.4234(3)
C5 C 0.1173(4) 0.2063(9) 0.4357(3)
H2 H 0.1003 0.1265 0.4580
C6 C 0.0694(4) 0.3308(10) 0.4162(3)
H3 H 0.0202 0.3336 0.4244
C7 C 0.0940(5) 0.4545(10) 0.3838(3)
C8 C 0.1689(5) 0.4481(9) 0.3727(3)
H4 H 0.1862 0.5291 0.3512
C9 C 0.2159(5) 0.3238(10) 0.3932(3)
C10 C 0.3135(5) 0.3978(9) 0.3392(5)
C11 C 0.2789(4) 0.3851(8) 0.2734(5)
H5 H 0.2353 0.3212 0.2579
C12 C 0.3084(6) 0.4665(12) 0.2301(4)
H6 H 0.2836 0.4588 0.1852
C13 C 0.3724(7) 0.5576(13) 0.2503(6)
H7 H 0.3926 0.6115 0.2203
C14 C 0.4058(5) 0.5674(11) 0.3159(6)
H8 H 0.4506 0.6283 0.3309
C15 C 0.3768(6) 0.4913(11) 0.3617(4)
H9 H 0.3998 0.5038 0.4067
C16 C -0.0310(4) 0.5914(9) 0.3736(4)
H10 H -0.0263 0.5967 0.4200
H11 H -0.0612 0.5018 0.3552
H12 H -0.0570 0.6827 0.3524
C17 C 0.0743(4) 0.7146(8) 0.3353(3)
H13 H 0.0832 0.6873 0.2937
H14 H 0.1226 0.7511 0.3647
H15 H 0.0351 0.7946 0.3286
O1F O 0.2089(3) -0.8105(6) 0.6143(2)
N1F N 0.0980(4) -0.3113(8) 0.5312(3)
N2F N 0.2847(3) -0.4392(8) 0.5313(3)
N3F N 0.4528(4) -1.0810(8) 0.6366(3)
C1F C 0.1586(5) -0.3076(9) 0.5229(4)
C2F C 0.2359(5) -0.3133(8) 0.5131(3)
C3F C 0.2593(4) -0.5617(10) 0.5556(3)
H1F H 0.2079 -0.5629 0.5593
C4F C 0.3086(4) -0.6937(9) 0.5766(3)
C5F C 0.3827(4) -0.7063(9) 0.5643(3)
H2F H 0.3997 -0.6265 0.5420
C6F C 0.4306(4) -0.8308(10) 0.5838(3)
H3F H 0.4798 -0.8336 0.5756
C7F C 0.4060(5) -0.9545(10) 0.6162(3)
C8F C 0.3311(5) -0.9481(9) 0.6273(3)
H4F H 0.3138 -1.0291 0.6488
C9F C 0.2841(5) -0.8238(10) 0.6068(3)
C10F C 0.1865(5) -0.8978(9) 0.6608(5)
C11F C 0.2211(4) -0.8851(8) 0.7266(5)
H5F H 0.2647 -0.8212 0.7421
C12F C 0.1916(6) -0.9665(12) 0.7699(4)
H6F H 0.2164 -0.9588 0.8148
C13F C 0.1276(7) -1.0576(13) 0.7497(6)
H7F H 0.1074 -1.1115 0.7797
C14F C 0.0942(5) -1.0674(11) 0.6841(6)
H8F H 0.0494 -1.1283 0.6691
C15F C 0.1232(6) -0.9913(11) 0.6383(4)
H9F H 0.1002 -1.0038 0.5933
C16F C 0.5310(4) -1.0914(9) 0.6264(4)
H10F H 0.5263 -1.0967 0.5800
H11F H 0.5612 -1.0018 0.6448
H12F H 0.5570 -1.1827 0.6476
C17F C 0.4257(4) -1.2146(8) 0.6647(3)
H13F H 0.4168 -1.1873 0.7063
H14F H 0.3774 -1.2511 0.6353
H15F H 0.4649 -1.2946 0.6714
loop_
_geom_bond_atom_site_label_1
_geom_bond_atom_site_label_2
_geom_bond_site_symmetry_1
_geom_bond_site_symmetry_2
O1 C9 1_555 1_555
N1 C1 1_555 1_555
N2 C2 1_555 1_555
N3 C7 1_555 1_555
C1 C2 1_555 1_555
C2 C2F 1_555 1_555
C3 N2 1_555 1_555
H1 C3 1_555 1_555
C4 C3 1_555 1_555
C5 C4 1_555 1_555
H2 C5 1_555 1_555
C6 C5 1_555 1_555
H3 C6 1_555 1_555
C7 C6 1_555 1_555
C8 C7 1_555 1_555
H4 C8 1_555 1_555
C9 C4 1_555 1_555
C10 O1 1_555 1_555
C11 C10 1_555 1_555
H5 C11 1_555 1_555
C12 C11 1_555 1_555
H6 C12 1_555 1_555
C13 C12 1_555 1_555
H7 C13 1_555 1_555
C14 C13 1_555 1_555
H8 C14 1_555 1_555
C15 C10 1_555 1_555
H9 C15 1_555 1_555
C16 N3 1_555 1_555
H10 C16 1_555 1_555
H11 C16 1_555 1_555
H12 C16 1_555 1_555
C17 N3 1_555 1_555
H13 C17 1_555 1_555
H14 C17 1_555 1_555
H15 C17 1_555 1_555
O1F C9F 1_555 1_555
N1F C1F 1_555 1_555
N2F C2F 1_555 1_555
N3F C7F 1_555 1_555
C1F C2F 1_555 1_555
C3F N2F 1_555 1_555
H1F C3F 1_555 1_555
C4F C3F 1_555 1_555
C5F C4F 1_555 1_555
H2F C5F 1_555 1_555
C6F C5F 1_555 1_555
H3F C6F 1_555 1_555
C7F C6F 1_555 1_555
C8F C7F 1_555 1_555
H4F C8F 1_555 1_555
C9F C4F 1_555 1_555
C10F O1F 1_555 1_555
C11F C10F 1_555 1_555
H5F C11F 1_555 1_555
C12F C11F 1_555 1_555
H6F C12F 1_555 1_555
C13F C12F 1_555 1_555
H7F C13F 1_555 1_555
C14F C13F 1_555 1_555
H8F C14F 1_555 1_555
C15F C10F 1_555 1_555
H9F C15F 1_555 1_555
C16F N3F 1_555 1_555
H10F C16F 1_555 1_555
H11F C16F 1_555 1_555
H12F C16F 1_555 1_555
C17F N3F 1_555 1_555
H13F C17F 1_555 1_555
H14F C17F 1_555 1_555
H15F C17F 1_555 1_555
C8 C9 1_555 1_555
C14 C15 1_555 1_555
C8F C9F 1_555 1_555
C14F C15F 1_555 1_555

#END
