
#######################################################################
#
#                 Cambridge Crystallographic Data Centre
#                                CCDC 
#
#######################################################################
#
# If this CIF has been generated from an entry in the Cambridge 
# Structural Database, then it will include bibliographic, chemical, 
# crystal, experimental, refinement or atomic coordinate data resulting 
# from the CCDC's data processing and validation procedures.
#
#######################################################################

data_PUTLOH
_chemical_formula_moiety         'C26 H17 B1 F2 N6,C1 H2 Cl2'
_chemical_name_systematic        
"5-(2-cyanophenyl)-9-(dimethylamino)-7,7-difluoro-7H-isoindolo[2',1':3,4][1,3,5,2]triazaborinino[6,1-a]isoindole-1-carbonitrile dichloromethane solvate"
_symmetry_cell_setting           monoclinic
_symmetry_space_group_name_H-M   'P 21/c'
_symmetry_Int_Tables_number      14
_space_group_name_Hall           '-P 2ybc'
loop_
_symmetry_equiv_pos_site_id
_symmetry_equiv_pos_as_xyz
1 x,y,z
2 -x,1/2+y,1/2-z
3 -x,-y,-z
4 x,1/2-y,1/2+z
_cell_length_a                   14.753(10)
_cell_length_b                   22.364(16)
_cell_length_c                   7.600(5)
_cell_angle_alpha                90
_cell_angle_beta                 98.437(10)
_cell_angle_gamma                90
_cell_volume                     2480.38
_exptl_crystal_colour            colorless
_exptl_crystal_description       needle
_cell_formula_units_Z            4
loop_
_atom_site_label
_atom_site_type_symbol
_atom_site_fract_x
_atom_site_fract_y
_atom_site_fract_z
B1 B 0.2655(2) 0.49800(14) 0.2803(6)
C1 C 0.5511(3) 0.3923(2) 0.0975(6)
H1 H 0.5330 0.3557 0.0456
C2 C 0.6399(4) 0.4087(2) 0.1158(7)
H2 H 0.6828 0.3831 0.0780
C3 C 0.6681(4) 0.4641(2) 0.1915(7)
H3 H 0.7293 0.4752 0.2002
C4 C 0.6075(3) 0.5015(2) 0.2521(6)
H4 H 0.6264 0.5378 0.3047
C5 C 0.5166(3) 0.4841(2) 0.2334(6)
C6 C 0.4865(3) 0.4299(2) 0.1561(6)
C7 C 0.3905(3) 0.4255(2) 0.1682(6)
C8 C 0.4385(3) 0.51356(18) 0.2883(5)
C9 C 0.3605(4) 0.3400(2) -0.0282(10)
H5 H 0.3858 0.3630 -0.1161
H6 H 0.3071 0.3190 -0.0837
H7 H 0.4052 0.3117 0.0252
C10 C 0.2489(4) 0.3653(3) 0.1744(10)
H8 H 0.2359 0.3951 0.2584
H9 H 0.2545 0.3269 0.2312
H10 H 0.2000 0.3643 0.0761
C11 C 0.3579(3) 0.59063(18) 0.3776(5)
C12 C 0.3435(3) 0.64749(19) 0.4517(5)
C13 C 0.2482(3) 0.65244(19) 0.4546(6)
C14 C 0.2130(4) 0.7068(2) 0.5218(7)
H11 H 0.1508 0.7111 0.5270
C15 C 0.2720(4) 0.7509(2) 0.5764(7)
H12 H 0.2494 0.7868 0.6136
C16 C 0.3659(4) 0.7445(2) 0.5794(6)
H13 H 0.4044 0.7754 0.6258
C17 C 0.4042(3) 0.6937(2) 0.5155(6)
C18 C 0.4975(4) 0.6903(2) 0.5172(7)
C19 C 0.2061(3) 0.60054(18) 0.3826(6)
C20 C 0.1098(3) 0.58557(19) 0.3578(6)
C21 C 0.0605(3) 0.5746(2) 0.1909(7)
H14 H 0.0914 0.5758 0.0927
C22 C -0.0312(4) 0.5620(3) 0.1634(9)
H15 H -0.0608 0.5533 0.0497
C23 C -0.0789(4) 0.5623(3) 0.3042(10)
H16 H -0.1410 0.5529 0.2876
C24 C -0.0347(4) 0.5765(3) 0.4699(9)
H17 H -0.0673 0.5787 0.5656
C25 C 0.0581(4) 0.5874(3) 0.4944(9)
C26 C 0.1058(3) 0.6007(2) 0.6877(11)
F1 F 0.20682(16) 0.49038(11) 0.1205(4)
F2 F 0.23207(18) 0.46614(11) 0.4144(4)
N1 N 0.36214(19) 0.47544(14) 0.2532(5)
N2 N 0.2736(2) 0.56289(13) 0.3352(5)
N3 N 0.4371(2) 0.56659(15) 0.3498(4)
N4 N 0.3352(3) 0.38026(17) 0.1096(6)
N5 N 0.5756(3) 0.6891(2) 0.5157(8)
N6 N 0.1334(4) 0.6177(3) 0.8420(10)
C27 C 0.9422(3) 0.7604(2) 0.5583(11)
H18 H 0.9396 0.7983 0.6193
H19 H 0.9852 0.7343 0.6306
Cl1 Cl 0.8396(3) 0.7293(2) 0.5193(11)
Cl2 Cl 0.9720(3) 0.7700(2) 0.3646(11)
loop_
_geom_bond_atom_site_label_1
_geom_bond_atom_site_label_2
_geom_bond_site_symmetry_1
_geom_bond_site_symmetry_2
B1 F1 1_555 1_555
C1 H1 1_555 1_555
C2 C1 1_555 1_555
H2 C2 1_555 1_555
C3 C2 1_555 1_555
H3 C3 1_555 1_555
C4 C3 1_555 1_555
H4 C4 1_555 1_555
C5 C4 1_555 1_555
C6 C1 1_555 1_555
C7 C6 1_555 1_555
C8 C5 1_555 1_555
C9 H5 1_555 1_555
H6 C9 1_555 1_555
H7 C9 1_555 1_555
C10 H8 1_555 1_555
H9 C10 1_555 1_555
H10 C10 1_555 1_555
C11 C12 1_555 1_555
C12 C13 1_555 1_555
C13 C14 1_555 1_555
C14 H11 1_555 1_555
C15 C14 1_555 1_555
H12 C15 1_555 1_555
C16 C15 1_555 1_555
H13 C16 1_555 1_555
C17 C12 1_555 1_555
C18 C17 1_555 1_555
C19 C13 1_555 1_555
C20 C19 1_555 1_555
C21 C20 1_555 1_555
H14 C21 1_555 1_555
C22 C21 1_555 1_555
H15 C22 1_555 1_555
C23 C22 1_555 1_555
H16 C23 1_555 1_555
C24 C23 1_555 1_555
H17 C24 1_555 1_555
C25 C20 1_555 1_555
C26 C25 1_555 1_555
F2 B1 1_555 1_555
N1 B1 1_555 1_555
N2 B1 1_555 1_555
N3 C8 1_555 1_555
N4 C7 1_555 1_555
N5 C18 1_555 1_555
N6 C26 1_555 1_555
C27 H18 1_555 1_555
H19 C27 1_555 1_555
Cl1 C27 1_555 1_555
Cl2 C27 1_555 1_555
C5 C6 1_555 1_555
C7 N1 1_555 1_555
C8 N1 1_555 1_555
C9 N4 1_555 1_555
C10 N4 1_555 1_555
C11 N2 1_555 1_555
C11 N3 1_555 1_555
C16 C17 1_555 1_555
C19 N2 1_555 1_555
C24 C25 1_555 1_555

#END
