
#######################################################################
#
#                 Cambridge Crystallographic Data Centre
#                                CCDC 
#
#######################################################################
#
# If this CIF has been generated from an entry in the Cambridge 
# Structural Database, then it will include bibliographic, chemical, 
# crystal, experimental, refinement or atomic coordinate data resulting 
# from the CCDC's data processing and validation procedures.
#
#######################################################################

data_PUTWEG01
_chemical_formula_moiety         'C15 H13 N1 O3'
_chemical_name_systematic        'methyl 1-methoxy-9H-carbazole-3-carboxylate'
_symmetry_cell_setting           monoclinic
_symmetry_space_group_name_H-M   'C 2/c'
_symmetry_Int_Tables_number      15
_space_group_name_Hall           '-C 2yn'
loop_
_symmetry_equiv_pos_site_id
_symmetry_equiv_pos_as_xyz
1 x,y,z
2 1/2+x,1/2+y,z
3 -x,y,1/2-z
4 1/2-x,1/2+y,1/2-z
5 -x,-y,-z
6 1/2-x,1/2-y,-z
7 x,-y,1/2+z
8 1/2+x,1/2-y,1/2+z
_cell_length_a                   15.7767(2)
_cell_length_b                   9.46290(10)
_cell_length_c                   16.1402(2)
_cell_angle_alpha                90
_cell_angle_beta                 91.7342(13)
_cell_angle_gamma                90
_cell_volume                     2408.52
_exptl_crystal_colour            yellow
_exptl_crystal_description       block
_cell_formula_units_Z            8
loop_
_atom_site_label
_atom_site_type_symbol
_atom_site_fract_x
_atom_site_fract_y
_atom_site_fract_z
O1 O 0.40860(5) 0.50080(10) 0.40638(6)
O2 O 0.12656(6) 0.27028(11) 0.38816(6)
O3 O 0.05565(6) 0.32775(11) 0.50205(6)
N1 N 0.39465(6) 0.68504(11) 0.54550(6)
C1 C 0.28244(7) 0.70537(12) 0.63040(7)
C2 C 0.23968(8) 0.76026(13) 0.69796(7)
C3 C 0.27931(9) 0.86235(14) 0.74684(8)
C4 C 0.36084(9) 0.91027(14) 0.72924(8)
C5 C 0.40500(8) 0.85741(13) 0.66325(8)
C6 C 0.36474(7) 0.75480(13) 0.61414(7)
C7 C 0.33298(7) 0.59295(12) 0.51688(7)
C8 C 0.33550(7) 0.50000(13) 0.44957(7)
C9 C 0.41340(8) 0.40151(14) 0.33999(8)
C10 C 0.26549(7) 0.41722(12) 0.43197(7)
C11 C 0.19327(7) 0.42638(13) 0.48152(7)
C12 C 0.11824(7) 0.33844(13) 0.46046(7)
C13 C 0.05762(9) 0.17875(18) 0.36400(10)
C14 C 0.19077(7) 0.51662(13) 0.54887(7)
C15 C 0.26162(7) 0.60097(12) 0.56724(7)
H1 H 0.1832 0.7279 0.7093
H2 H 0.2507 0.9006 0.7938
H3 H 0.3868 0.9816 0.7636
H4 H 0.4606 0.8905 0.6510
H5 H 0.4706 0.4092 0.3185
H6 H 0.4049 0.3037 0.3607
H7 H 0.3704 0.4227 0.2960
H8 H 0.2653 0.3533 0.3863
H9 H 0.0720 0.1361 0.3106
H10 H 0.0493 0.1045 0.4064
H11 H 0.0052 0.2352 0.3571
H12 H 0.1410 0.5221 0.5805
H13 H 0.4430 0.7031 0.5209
loop_
_geom_bond_atom_site_label_1
_geom_bond_atom_site_label_2
_geom_bond_site_symmetry_1
_geom_bond_site_symmetry_2
O1 C8 1_555 1_555
O2 C12 1_555 1_555
O3 C12 1_555 1_555
N1 C6 1_555 1_555
C1 C2 1_555 1_555
C2 C3 1_555 1_555
C3 C4 1_555 1_555
C4 C5 1_555 1_555
C5 C6 1_555 1_555
C6 C1 1_555 1_555
C7 N1 1_555 1_555
C8 C7 1_555 1_555
C9 O1 1_555 1_555
C10 C8 1_555 1_555
C11 C10 1_555 1_555
C12 C11 1_555 1_555
C13 O2 1_555 1_555
C14 C11 1_555 1_555
C15 C1 1_555 1_555
H1 C2 1_555 1_555
H2 C3 1_555 1_555
H3 C4 1_555 1_555
H4 C5 1_555 1_555
H5 C9 1_555 1_555
H6 C9 1_555 1_555
H7 C9 1_555 1_555
H8 C10 1_555 1_555
H9 C13 1_555 1_555
H10 C13 1_555 1_555
H11 C13 1_555 1_555
H12 C14 1_555 1_555
H13 N1 1_555 1_555
C7 C15 1_555 1_555
C14 C15 1_555 1_555

#END
