
#######################################################################
#
#                 Cambridge Crystallographic Data Centre
#                                CCDC 
#
#######################################################################
#
# If this CIF has been generated from an entry in the Cambridge 
# Structural Database, then it will include bibliographic, chemical, 
# crystal, experimental, refinement or atomic coordinate data resulting 
# from the CCDC's data processing and validation procedures.
#
#######################################################################

data_PUWPUT
_chemical_formula_moiety         'C56 H38 O4'
_chemical_name_systematic        
6,6'-Buta-1,3-diyne-1,4-diylbis(13-ethynyl-6,13-dimethoxy-6,13-dihydropentacene)
_symmetry_cell_setting           monoclinic
_symmetry_space_group_name_H-M   'C 2/c'
_symmetry_Int_Tables_number      15
_space_group_name_Hall           '-C 2yn'
loop_
_symmetry_equiv_pos_site_id
_symmetry_equiv_pos_as_xyz
1 x,y,z
2 -x,y,1/2-z
3 1/2+x,1/2+y,z
4 1/2-x,1/2+y,1/2-z
5 -x,-y,-z
6 x,-y,1/2+z
7 1/2-x,1/2-y,-z
8 1/2+x,1/2-y,1/2+z
_cell_length_a                   28.697(3)
_cell_length_b                   8.8042(8)
_cell_length_c                   17.0698(15)
_cell_angle_alpha                90
_cell_angle_beta                 109.9404(10)
_cell_angle_gamma                90
_cell_volume                     4054.2
_exptl_crystal_colour            yellow
_exptl_crystal_description       prism
_cell_formula_units_Z            4
_exptl_crystal_recrystallization_method dichloromethane/methanol
loop_
_atom_site_label
_atom_site_type_symbol
_atom_site_fract_x
_atom_site_fract_y
_atom_site_fract_z
O1 O 0.08416(3) -0.12596(11) 0.16467(6)
O2 O 0.12011(3) 0.36391(10) 0.25020(6)
C1 C 0.12613(5) -0.06969(15) 0.14430(8)
C2 C 0.16187(5) -0.02706(15) 0.22993(8)
C3 C 0.20164(5) -0.11594(15) 0.27317(9)
H1 H 0.2108 -0.1987 0.2458
C4 C 0.22926(5) -0.08654(16) 0.35776(9)
C5 C 0.27080(5) -0.17600(17) 0.40366(10)
H2 H 0.2819 -0.2553 0.3766
C6 C 0.29489(5) -0.14872(19) 0.48648(10)
H3 H 0.3228 -0.2088 0.5164
C7 C 0.27889(6) -0.03316(19) 0.52758(10)
H4 H 0.2958 -0.0162 0.5853
C8 C 0.23915(5) 0.05555(17) 0.48561(9)
H5 H 0.2284 0.1327 0.5145
C9 C 0.21381(5) 0.03310(16) 0.39913(9)
C10 C 0.17390(5) 0.12707(15) 0.35220(8)
H6 H 0.1641 0.2097 0.3788
C11 C 0.14927(4) 0.10108(15) 0.26930(8)
C12 C 0.10854(5) 0.21117(14) 0.21944(8)
C13 C 0.09955(4) 0.20434(14) 0.12550(8)
C14 C 0.08075(5) 0.32833(15) 0.07687(8)
H7 H 0.0718 0.4156 0.1013
C15 C 0.07432(5) 0.32955(15) -0.00931(8)
C16 C 0.05705(6) 0.45986(17) -0.06001(9)
H8 H 0.0477 0.5481 -0.0369
C17 C 0.05382(6) 0.45904(18) -0.14186(9)
H9 H 0.0427 0.5472 -0.1751
C18 C 0.06697(6) 0.32775(19) -0.17717(9)
H10 H 0.0649 0.3289 -0.2339
C19 C 0.08254(5) 0.20026(17) -0.13116(9)
H11 H 0.0905 0.1123 -0.1562
C20 C 0.08700(5) 0.19728(15) -0.04549(8)
C21 C 0.10455(5) 0.06815(15) 0.00564(8)
H12 H 0.1121 -0.0218 -0.0184
C22 C 0.11092(4) 0.07015(14) 0.08895(8)
C23 C 0.14515(5) -0.19317(16) 0.10478(9)
C24 C 0.15821(7) -0.29721(18) 0.07422(11)
H13 H 0.1688 -0.3812 0.0495
C25 C 0.06148(5) 0.17900(15) 0.23346(8)
C26 C 0.02252(5) 0.16548(15) 0.24384(8)
C27 C 0.04111(6) -0.1618(2) 0.09590(10)
H14 H 0.0150 -0.1980 0.1163
H15 H 0.0490 -0.2412 0.0622
H16 H 0.0296 -0.0708 0.0617
C28 C 0.16401(6) 0.42720(17) 0.24231(9)
H17 H 0.1690 0.5300 0.2657
H18 H 0.1607 0.4314 0.1833
H19 H 0.1925 0.3637 0.2725
O1A O -0.08416(3) -0.12596(11) 0.33533(6)
O2A O -0.12011(3) 0.36391(10) 0.24980(6)
C1A C -0.12613(5) -0.06969(15) 0.35570(8)
C2A C -0.16187(5) -0.02706(15) 0.27007(8)
C3A C -0.20164(5) -0.11594(15) 0.22683(9)
H1A H -0.2108 -0.1987 0.2542
C4A C -0.22926(5) -0.08654(16) 0.14224(9)
C5A C -0.27080(5) -0.17600(17) 0.09634(10)
H2A H -0.2819 -0.2553 0.1234
C6A C -0.29489(5) -0.14872(19) 0.01352(10)
H3A H -0.3228 -0.2088 -0.0164
C7A C -0.27889(6) -0.03316(19) -0.02758(10)
H4A H -0.2958 -0.0162 -0.0853
C8A C -0.23915(5) 0.05555(17) 0.01439(9)
H5A H -0.2284 0.1327 -0.0145
C9A C -0.21381(5) 0.03310(16) 0.10087(9)
C10A C -0.17390(5) 0.12707(15) 0.14780(8)
H6A H -0.1641 0.2097 0.1212
C11A C -0.14927(4) 0.10108(15) 0.23070(8)
C12A C -0.10854(5) 0.21117(14) 0.28056(8)
C13A C -0.09955(4) 0.20434(14) 0.37450(8)
C14A C -0.08075(5) 0.32833(15) 0.42313(8)
H7A H -0.0718 0.4156 0.3987
C15A C -0.07432(5) 0.32955(15) 0.50931(8)
C16A C -0.05705(6) 0.45986(17) 0.56001(9)
H8A H -0.0477 0.5481 0.5369
C17A C -0.05382(6) 0.45904(18) 0.64186(9)
H9A H -0.0427 0.5472 0.6751
C18A C -0.06697(6) 0.32775(19) 0.67717(9)
H10A H -0.0649 0.3289 0.7339
C19A C -0.08254(5) 0.20026(17) 0.63116(9)
H11A H -0.0905 0.1123 0.6562
C20A C -0.08700(5) 0.19728(15) 0.54549(8)
C21A C -0.10455(5) 0.06815(15) 0.49436(8)
H12A H -0.1121 -0.0218 0.5184
C22A C -0.11092(4) 0.07015(14) 0.41105(8)
C23A C -0.14515(5) -0.19317(16) 0.39522(9)
C24A C -0.15821(7) -0.29721(18) 0.42578(11)
H13A H -0.1688 -0.3812 0.4505
C25A C -0.06148(5) 0.17900(15) 0.26654(8)
C26A C -0.02252(5) 0.16548(15) 0.25616(8)
C27A C -0.04111(6) -0.1618(2) 0.40410(10)
H14A H -0.0150 -0.1980 0.3837
H15A H -0.0490 -0.2412 0.4378
H16A H -0.0296 -0.0708 0.4383
C28A C -0.16401(6) 0.42720(17) 0.25769(9)
H17A H -0.1690 0.5300 0.2343
H18A H -0.1607 0.4314 0.3167
H19A H -0.1925 0.3637 0.2275
loop_
_geom_bond_atom_site_label_1
_geom_bond_atom_site_label_2
_geom_bond_site_symmetry_1
_geom_bond_site_symmetry_2
O1 C1 1_555 1_555
O2 C12 1_555 1_555
C1 C2 1_555 1_555
C2 C3 1_555 1_555
C3 H1 1_555 1_555
C4 C3 1_555 1_555
C5 C4 1_555 1_555
H2 C5 1_555 1_555
C6 C5 1_555 1_555
H3 C6 1_555 1_555
C7 C6 1_555 1_555
H4 C7 1_555 1_555
C8 C7 1_555 1_555
H5 C8 1_555 1_555
C9 C4 1_555 1_555
C10 C9 1_555 1_555
H6 C10 1_555 1_555
C11 C2 1_555 1_555
C12 C11 1_555 1_555
C13 C12 1_555 1_555
C14 C13 1_555 1_555
H7 C14 1_555 1_555
C15 C14 1_555 1_555
C16 C15 1_555 1_555
H8 C16 1_555 1_555
C17 C16 1_555 1_555
H9 C17 1_555 1_555
C18 C17 1_555 1_555
H10 C18 1_555 1_555
C19 C18 1_555 1_555
H11 C19 1_555 1_555
C20 C15 1_555 1_555
C21 C20 1_555 1_555
H12 C21 1_555 1_555
C22 C1 1_555 1_555
C23 C1 1_555 1_555
C24 C23 1_555 1_555
H13 C24 1_555 1_555
C25 C12 1_555 1_555
C26 C25 1_555 1_555
C27 O1 1_555 1_555
H14 C27 1_555 1_555
H15 C27 1_555 1_555
H16 C27 1_555 1_555
C28 O2 1_555 1_555
H17 C28 1_555 1_555
H18 C28 1_555 1_555
H19 C28 1_555 1_555
O1A C1A 1_555 1_555
O2A C12A 1_555 1_555
C1A C2A 1_555 1_555
C2A C3A 1_555 1_555
C3A H1A 1_555 1_555
C4A C3A 1_555 1_555
C5A C4A 1_555 1_555
H2A C5A 1_555 1_555
C6A C5A 1_555 1_555
H3A C6A 1_555 1_555
C7A C6A 1_555 1_555
H4A C7A 1_555 1_555
C8A C7A 1_555 1_555
H5A C8A 1_555 1_555
C9A C4A 1_555 1_555
C10A C9A 1_555 1_555
H6A C10A 1_555 1_555
C11A C2A 1_555 1_555
C12A C11A 1_555 1_555
C13A C12A 1_555 1_555
C14A C13A 1_555 1_555
H7A C14A 1_555 1_555
C15A C14A 1_555 1_555
C16A C15A 1_555 1_555
H8A C16A 1_555 1_555
C17A C16A 1_555 1_555
H9A C17A 1_555 1_555
C18A C17A 1_555 1_555
H10A C18A 1_555 1_555
C19A C18A 1_555 1_555
H11A C19A 1_555 1_555
C20A C15A 1_555 1_555
C21A C20A 1_555 1_555
H12A C21A 1_555 1_555
C22A C1A 1_555 1_555
C23A C1A 1_555 1_555
C24A C23A 1_555 1_555
H13A C24A 1_555 1_555
C25A C12A 1_555 1_555
C26A C26 1_555 1_555
C27A O1A 1_555 1_555
H14A C27A 1_555 1_555
H15A C27A 1_555 1_555
H16A C27A 1_555 1_555
C28A O2A 1_555 1_555
H17A C28A 1_555 1_555
H18A C28A 1_555 1_555
H19A C28A 1_555 1_555
C8 C9 1_555 1_555
C10 C11 1_555 1_555
C13 C22 1_555 1_555
C19 C20 1_555 1_555
C21 C22 1_555 1_555
C8A C9A 1_555 1_555
C10A C11A 1_555 1_555
C13A C22A 1_555 1_555
C19A C20A 1_555 1_555
C21A C22A 1_555 1_555
C25A C26A 1_555 1_555

#END
