
#######################################################################
#
#                 Cambridge Crystallographic Data Centre
#                                CCDC 
#
#######################################################################
#
# If this CIF has been generated from an entry in the Cambridge 
# Structural Database, then it will include bibliographic, chemical, 
# crystal, experimental, refinement or atomic coordinate data resulting 
# from the CCDC's data processing and validation procedures.
#
#######################################################################

data_PUWPUU
_chemical_formula_moiety         'C46 H68 N2 S2'
_chemical_name_systematic        
4,10-bis(Pentadecan-7-yl)thieno[3,2-c]thieno[2',3':4,5]pyrido[2,3-g]quinoline
_symmetry_cell_setting           triclinic
_symmetry_space_group_name_H-M   'P -1'
_symmetry_Int_Tables_number      2
_space_group_name_Hall           '-P 1'
loop_
_symmetry_equiv_pos_site_id
_symmetry_equiv_pos_as_xyz
1 x,y,z
2 -x,-y,-z
_cell_length_a                   5.51930(13)
_cell_length_b                   8.7116(2)
_cell_length_c                   23.1468(6)
_cell_angle_alpha                84.894(2)
_cell_angle_beta                 88.701(2)
_cell_angle_gamma                72.509(2)
_cell_volume                     1057.26
_cell_formula_units_Z            1
loop_
_atom_site_label
_atom_site_type_symbol
_atom_site_fract_x
_atom_site_fract_y
_atom_site_fract_z
S1 S 0.78841(12) 0.87107(7) 0.03308(3)
N1 N 0.8595(4) 0.3484(2) 0.08695(8)
C1 C 0.4593(4) 0.6612(3) -0.02103(9)
H1 H 0.4330 0.7685 -0.0348
C2 C 0.6400(4) 0.5915(3) 0.02232(9)
C3 C 0.6822(4) 0.4269(3) 0.04403(9)
C4 C 0.9990(4) 0.4274(3) 0.10880(9)
C5 C 0.9721(4) 0.5938(3) 0.09055(9)
C6 C 1.1086(5) 0.6979(3) 0.10930(10)
H2 H 1.2384 0.6652 0.1368
C7 C 1.0268(5) 0.8482(3) 0.08251(11)
H3 H 1.0927 0.9310 0.0900
C8 C 0.7924(4) 0.6734(3) 0.04845(9)
C9 C 1.1951(4) 0.3402(3) 0.15501(10)
H4 H 1.3502 0.3690 0.1448
C10 C 1.2643(5) 0.1562(3) 0.15526(11)
H5 H 1.1205 0.1223 0.1697
H6 H 1.2950 0.1272 0.1157
C11 C 1.4980(5) 0.0639(3) 0.19212(13)
H7 H 1.6480 0.0804 0.1732
H8 H 1.4829 0.1085 0.2295
C12 C 1.5339(6) -0.1166(3) 0.20197(13)
H9 H 1.5336 -0.1587 0.1646
H10 H 1.6996 -0.1687 0.2195
C13 C 1.3343(6) -0.1628(4) 0.24011(13)
H11 H 1.1683 -0.1082 0.2232
H12 H 1.3620 -0.2781 0.2398
C14 C 1.3318(8) -0.1231(6) 0.30218(17)
H13 H 1.3080 -0.0083 0.3028
H14 H 1.4954 -0.1806 0.3198
C15 C 1.1250(11) -0.1670(8) 0.3378(2)
H15 H 0.9619 -0.1122 0.3195
H16 H 1.1519 -0.2823 0.3382
C16 C 1.118(2) -0.1233(16) 0.3981(5)
H17 H 1.0931 -0.0081 0.3979
H18 H 1.2796 -0.1797 0.4169
C17 C 0.871(3) -0.174(2) 0.4376(6)
H19 H 0.7798 -0.2200 0.4127
H20 H 0.7567 -0.0782 0.4517
H21 H 0.9416 -0.2506 0.4697
C18 C 0.4326(15) 0.3219(13) 0.4342(3)
H22 H 0.2674 0.3892 0.4214
H23 H 0.4512 0.3286 0.4749
H24 H 0.4511 0.2120 0.4271
C19 C 0.6347(12) 0.3784(9) 0.4011(2)
H25 H 0.6013 0.4930 0.4048
H26 H 0.7984 0.3228 0.4190
C20 C 0.6506(9) 0.3515(7) 0.33830(17)
H27 H 0.6801 0.2372 0.3348
H28 H 0.4874 0.4087 0.3205
C21 C 0.8498(8) 0.4030(6) 0.30517(15)
H29 H 1.0100 0.3552 0.3256
H30 H 0.8094 0.5193 0.3052
C22 C 0.8869(6) 0.3602(5) 0.24259(13)
H31 H 0.9119 0.2454 0.2415
H32 H 0.7347 0.4179 0.2204
C23 C 1.1117(5) 0.4022(3) 0.21493(11)
H33 H 1.2552 0.3600 0.2413
H34 H 1.0724 0.5189 0.2111
S1A S 0.21159(12) 0.12893(7) -0.03308(3)
N1A N 0.1405(4) 0.6516(2) -0.08695(8)
C1A C 0.5407(4) 0.3388(3) 0.02103(9)
H1A H 0.5670 0.2315 0.0348
C2A C 0.3600(4) 0.4085(3) -0.02232(9)
C3A C 0.3178(4) 0.5731(3) -0.04403(9)
C4A C 0.0010(4) 0.5726(3) -0.10880(9)
C5A C 0.0279(4) 0.4062(3) -0.09055(9)
C6A C -0.1086(5) 0.3021(3) -0.10930(10)
H2A H -0.2384 0.3348 -0.1368
C7A C -0.0268(5) 0.1518(3) -0.08251(11)
H3A H -0.0927 0.0690 -0.0900
C8A C 0.2076(4) 0.3266(3) -0.04845(9)
C9A C -0.1951(4) 0.6598(3) -0.15501(10)
H4A H -0.3502 0.6310 -0.1448
C10A C -0.2643(5) 0.8438(3) -0.15526(11)
H5A H -0.1205 0.8777 -0.1697
H6A H -0.2950 0.8728 -0.1157
C11A C -0.4980(5) 0.9361(3) -0.19212(13)
H7A H -0.6480 0.9196 -0.1732
H8A H -0.4829 0.8915 -0.2295
C12A C -0.5339(6) 1.1166(3) -0.20197(13)
H9A H -0.5336 1.1587 -0.1646
H10A H -0.6996 1.1687 -0.2195
C13A C -0.3343(6) 1.1628(4) -0.24011(13)
H11A H -0.1683 1.1082 -0.2232
H12A H -0.3620 1.2781 -0.2398
C14A C -0.3318(8) 1.1231(6) -0.30218(17)
H13A H -0.3080 1.0083 -0.3028
H14A H -0.4954 1.1806 -0.3198
C15A C -0.1250(11) 1.1670(8) -0.3378(2)
H15A H 0.0381 1.1122 -0.3195
H16A H -0.1519 1.2823 -0.3382
C16A C -0.118(2) 1.1233(16) -0.3981(5)
H17A H -0.0931 1.0081 -0.3979
H18A H -0.2796 1.1797 -0.4169
C17A C 0.129(3) 1.174(2) -0.4376(6)
H19A H 0.2202 1.2200 -0.4127
H20A H 0.2433 1.0782 -0.4517
H21A H 0.0584 1.2506 -0.4697
C18A C 0.5674(15) 0.6781(13) -0.4342(3)
H22A H 0.7326 0.6108 -0.4214
H23A H 0.5488 0.6714 -0.4749
H24A H 0.5489 0.7880 -0.4271
C19A C 0.3653(12) 0.6216(9) -0.4011(2)
H25A H 0.3987 0.5070 -0.4048
H26A H 0.2016 0.6772 -0.4190
C20A C 0.3494(9) 0.6485(7) -0.33830(17)
H27A H 0.3199 0.7628 -0.3348
H28A H 0.5126 0.5913 -0.3205
C21A C 0.1502(8) 0.5970(6) -0.30517(15)
H29A H -0.0100 0.6448 -0.3256
H30A H 0.1906 0.4807 -0.3052
C22A C 0.1131(6) 0.6398(5) -0.24259(13)
H31A H 0.0881 0.7546 -0.2415
H32A H 0.2653 0.5821 -0.2204
C23A C -0.1117(5) 0.5978(3) -0.21493(11)
H33A H -0.2552 0.6400 -0.2413
H34A H -0.0724 0.4811 -0.2111
loop_
_geom_bond_atom_site_label_1
_geom_bond_atom_site_label_2
_geom_bond_site_symmetry_1
_geom_bond_site_symmetry_2
S1 C7 1_555 1_555
N1 C3 1_555 1_555
C1 H1 1_555 1_555
C2 C1 1_555 1_555
C3 C2 1_555 1_555
C4 N1 1_555 1_555
C5 C4 1_555 1_555
C6 C5 1_555 1_555
H2 C6 1_555 1_555
C7 C6 1_555 1_555
H3 C7 1_555 1_555
C8 S1 1_555 1_555
C9 C4 1_555 1_555
H4 C9 1_555 1_555
C10 C9 1_555 1_555
H5 C10 1_555 1_555
H6 C10 1_555 1_555
C11 C10 1_555 1_555
H7 C11 1_555 1_555
H8 C11 1_555 1_555
C12 C11 1_555 1_555
H9 C12 1_555 1_555
H10 C12 1_555 1_555
C13 C12 1_555 1_555
H11 C13 1_555 1_555
H12 C13 1_555 1_555
C14 C13 1_555 1_555
H13 C14 1_555 1_555
H14 C14 1_555 1_555
C15 C14 1_555 1_555
H15 C15 1_555 1_555
H16 C15 1_555 1_555
C16 C15 1_555 1_555
H17 C16 1_555 1_555
H18 C16 1_555 1_555
C17 C16 1_555 1_555
H19 C17 1_555 1_555
H20 C17 1_555 1_555
H21 C17 1_555 1_555
C18 H22 1_555 1_555
H23 C18 1_555 1_555
H24 C18 1_555 1_555
C19 C18 1_555 1_555
H25 C19 1_555 1_555
H26 C19 1_555 1_555
C20 C19 1_555 1_555
H27 C20 1_555 1_555
H28 C20 1_555 1_555
C21 C20 1_555 1_555
H29 C21 1_555 1_555
H30 C21 1_555 1_555
C22 C21 1_555 1_555
H31 C22 1_555 1_555
H32 C22 1_555 1_555
C23 C9 1_555 1_555
H33 C23 1_555 1_555
H34 C23 1_555 1_555
S1A C7A 1_555 1_555
N1A C3A 1_555 1_555
C1A C3 1_555 1_555
H1A C1A 1_555 1_555
C2A C1A 1_555 1_555
C3A C1 1_555 1_555
C4A N1A 1_555 1_555
C5A C4A 1_555 1_555
C6A C5A 1_555 1_555
H2A C6A 1_555 1_555
C7A C6A 1_555 1_555
H3A C7A 1_555 1_555
C8A S1A 1_555 1_555
C9A C4A 1_555 1_555
H4A C9A 1_555 1_555
C10A C9A 1_555 1_555
H5A C10A 1_555 1_555
H6A C10A 1_555 1_555
C11A C10A 1_555 1_555
H7A C11A 1_555 1_555
H8A C11A 1_555 1_555
C12A C11A 1_555 1_555
H9A C12A 1_555 1_555
H10A C12A 1_555 1_555
C13A C12A 1_555 1_555
H11A C13A 1_555 1_555
H12A C13A 1_555 1_555
C14A C13A 1_555 1_555
H13A C14A 1_555 1_555
H14A C14A 1_555 1_555
C15A C14A 1_555 1_555
H15A C15A 1_555 1_555
H16A C15A 1_555 1_555
C16A C15A 1_555 1_555
H17A C16A 1_555 1_555
H18A C16A 1_555 1_555
C17A C16A 1_555 1_555
H19A C17A 1_555 1_555
H20A C17A 1_555 1_555
H21A C17A 1_555 1_555
C18A H22A 1_555 1_555
H23A C18A 1_555 1_555
H24A C18A 1_555 1_555
C19A C18A 1_555 1_555
H25A C19A 1_555 1_555
H26A C19A 1_555 1_555
C20A C19A 1_555 1_555
H27A C20A 1_555 1_555
H28A C20A 1_555 1_555
C21A C20A 1_555 1_555
H29A C21A 1_555 1_555
H30A C21A 1_555 1_555
C22A C21A 1_555 1_555
H31A C22A 1_555 1_555
H32A C22A 1_555 1_555
C23A C9A 1_555 1_555
H33A C23A 1_555 1_555
H34A C23A 1_555 1_555
C2 C8 1_555 1_555
C5 C8 1_555 1_555
C22 C23 1_555 1_555
C2A C3A 1_555 1_555
C2A C8A 1_555 1_555
C5A C8A 1_555 1_555
C22A C23A 1_555 1_555

#END
