
#######################################################################
#
#                 Cambridge Crystallographic Data Centre
#                                CCDC 
#
#######################################################################
#
# If this CIF has been generated from an entry in the Cambridge 
# Structural Database, then it will include bibliographic, chemical, 
# crystal, experimental, refinement or atomic coordinate data resulting 
# from the CCDC's data processing and validation procedures.
#
#######################################################################

data_PUXGUM
_chemical_formula_moiety         'C15 H16 O2'
_chemical_name_systematic        
4',5'-dimethylspiro[cyclopropane-1,11'-tricyclo[6.2.1.0^2,7^]undecane]-4',9'-diene-3',6'-dione
_symmetry_cell_setting           triclinic
_symmetry_space_group_name_H-M   'P -1'
_symmetry_Int_Tables_number      2
_space_group_name_Hall           '-P 1'
loop_
_symmetry_equiv_pos_site_id
_symmetry_equiv_pos_as_xyz
1 x,y,z
2 -x,-y,-z
_cell_length_a                   7.1512(9)
_cell_length_b                   9.114(2)
_cell_length_c                   10.183(3)
_cell_angle_alpha                64.04(3)
_cell_angle_beta                 88.829(16)
_cell_angle_gamma                80.669(16)
_cell_volume                     587.87
_exptl_crystal_colour            'pale yellow'
_exptl_crystal_description       block
_cell_formula_units_Z            2
_chemical_properties_physical    Light-sensitive
loop_
_atom_site_label
_atom_site_type_symbol
_atom_site_fract_x
_atom_site_fract_y
_atom_site_fract_z
O1 O 0.33929(17) 0.27449(15) 0.34638(15)
O2 O -0.18562(16) 0.10593(16) 0.10510(15)
C1 C 0.2333(2) 0.24771(19) 0.27002(17)
C2 C 0.0413(2) 0.35119(19) 0.22091(17)
C3 C 0.0035(3) 0.4978(2) 0.2543(2)
H1 H -0.0296 0.5971 0.1649
H2 H 0.1154 0.5039 0.3009
H3 H -0.0993 0.4861 0.3182
C4 C -0.0904(2) 0.31089(19) 0.15550(17)
C5 C -0.2876(2) 0.4085(2) 0.1090(2)
H4 H -0.3694 0.3661 0.1880
H5 H -0.3341 0.3991 0.0258
H6 H -0.2852 0.5228 0.0835
C6 C -0.0528(2) 0.1570(2) 0.13535(17)
C7 C 0.1467(2) 0.06699(19) 0.14872(17)
H7 H 0.1850 0.0864 0.0503
C8 C 0.2995(2) 0.11455(19) 0.22184(17)
H8 H 0.3985 0.1510 0.1525
C9 C 0.3858(2) -0.0558(2) 0.35176(17)
H9 H 0.5095 -0.0617 0.3952
C10 C 0.2292(2) -0.1063(2) 0.45589(18)
H10 H 0.2245 -0.1083 0.5480
C11 C 0.0994(2) -0.1473(2) 0.39285(19)
H11 H -0.0122 -0.1835 0.4328
C12 C 0.1657(2) -0.12460(19) 0.24411(18)
H12 H 0.1114 -0.1860 0.2002
C13 C 0.3795(2) -0.16719(19) 0.27701(18)
C14 C 0.4993(2) -0.3339(2) 0.3232(2)
H13 H 0.4397 -0.4216 0.3219
H14 H 0.5972 -0.3697 0.4005
C15 C 0.5239(2) -0.1900(2) 0.17693(19)
H15 H 0.6366 -0.1402 0.1673
H16 H 0.4791 -0.1922 0.0887
loop_
_geom_bond_atom_site_label_1
_geom_bond_atom_site_label_2
_geom_bond_site_symmetry_1
_geom_bond_site_symmetry_2
O1 C1 1_555 1_555
O2 C6 1_555 1_555
C1 C2 1_555 1_555
C2 C3 1_555 1_555
C3 H1 1_555 1_555
H2 C3 1_555 1_555
H3 C3 1_555 1_555
C4 C2 1_555 1_555
C5 C4 1_555 1_555
H4 C5 1_555 1_555
H5 C5 1_555 1_555
H6 C5 1_555 1_555
C6 C4 1_555 1_555
C7 C6 1_555 1_555
H7 C7 1_555 1_555
C8 C1 1_555 1_555
H8 C8 1_555 1_555
C9 C8 1_555 1_555
H9 C9 1_555 1_555
C10 C9 1_555 1_555
H10 C10 1_555 1_555
C11 C10 1_555 1_555
H11 C11 1_555 1_555
C12 C7 1_555 1_555
H12 C12 1_555 1_555
C13 C9 1_555 1_555
C14 C13 1_555 1_555
H13 C14 1_555 1_555
H14 C14 1_555 1_555
C15 C13 1_555 1_555
H15 C15 1_555 1_555
H16 C15 1_555 1_555
C7 C8 1_555 1_555
C11 C12 1_555 1_555
C12 C13 1_555 1_555
C14 C15 1_555 1_555

#END
