
#######################################################################
#
#                 Cambridge Crystallographic Data Centre
#                                CCDC 
#
#######################################################################
#
# If this CIF has been generated from an entry in the Cambridge 
# Structural Database, then it will include bibliographic, chemical, 
# crystal, experimental, refinement or atomic coordinate data resulting 
# from the CCDC's data processing and validation procedures.
#
#######################################################################

data_PUXGUK
_chemical_formula_moiety         'C30 H33 N6 3+,3(Br1 1-),3(H2 O1)'
_chemical_name_systematic        
'2,22,29-Trimethyl-5,19,24-triaza-8,16,27-triazoniaheptacyclo[10.10.6.1^3,21^.1^5,8^.1^10,14^.1^16,18^.1^24,27^]tritriaconta-1,3(29),6,8(30)10,12,14(31)17,16(32),21,25,27(33)-dodecaene tribromide trihydrate'
_symmetry_cell_setting           monoclinic
_symmetry_space_group_name_H-M   'P 21'
_symmetry_Int_Tables_number      4
_space_group_name_Hall           'P 2yb'
loop_
_symmetry_equiv_pos_site_id
_symmetry_equiv_pos_as_xyz
1 x,y,z
2 -x,1/2+y,-z
_cell_length_a                   8.634(2)
_cell_length_b                   18.170(4)
_cell_length_c                   10.884(2)
_cell_angle_alpha                90
_cell_angle_beta                 112.03(1)
_cell_angle_gamma                90
_cell_volume                     1582.81
_chemical_melting_point          'above 300deg.C'
_cell_formula_units_Z            2
loop_
_atom_site_label
_atom_site_type_symbol
_atom_site_fract_x
_atom_site_fract_y
_atom_site_fract_z
Br1 Br 0.4496(1) 0.3850(1) 0.4235(1)
Br2 Br 0.9301(1) 0.5258(1) 1.1239(1)
Br3 Br 0.9862(1) 0.1374(1) 1.3602(1)
N1 N 0.4302(5) 0.1430(3) 0.7040(4)
N2 N 0.6642(5) 0.1495(2) 0.6760(4)
N3 N 0.6580(5) 0.4762(2) 0.7240(4)
N4 N 0.4225(5) 0.4704(2) 0.7490(4)
N5 N 0.7363(5) 0.2989(2) 1.2020(4)
N6 N 0.9696(5) 0.3043(2) 1.1719(4)
C1 C 0.3191(6) 0.3661(3) 0.8423(5)
C2 C 0.2760(6) 0.3033(3) 0.7595(5)
C3 C 0.3177(6) 0.2342(3) 0.8166(5)
C4 C 0.2806(6) 0.1658(3) 0.7313(5)
C5 C 0.4699(8) 0.0738(3) 0.6785(6)
C6 C 0.6146(8) 0.0771(3) 0.6607(6)
C7 C 0.8143(6) 0.1798(3) 0.6615(5)
C8 C 0.8729(6) 0.2484(3) 0.7453(5)
C9 C 0.9649(6) 0.2406(3) 0.8819(5)
C10 C 1.0083(6) 0.3020(3) 0.9617(5)
C11 C 0.9631(6) 0.3715(3) 0.9072(5)
C12 C 0.8732(6) 0.3793(3) 0.7725(5)
C13 C 0.8198(8) 0.4551(3) 0.7151(7)
C14 C 0.5785(8) 0.5411(3) 0.6806(5)
C15 C 0.4292(8) 0.5370(3) 0.6946(5)
C16 C 0.2813(6) 0.4417(3) 0.7820(6)
C17 C 0.4096(6) 0.3592(3) 0.9794(5)
C18 C 0.4523(5) 0.2887(3) 1.0332(5)
C19 C 0.5612(6) 0.2820(3) 1.1800(4)
C20 C 0.8415(7) 0.3432(3) 1.2992(5)
C21 C 0.9872(7) 0.3461(3) 1.2794(5)
C22 C 1.0913(6) 0.2924(4) 1.1103(5)
C23 C 0.4061(6) 0.2251(3) 0.9539(5)
C24 C 0.8287(6) 0.3179(3) 0.6925(5)
C25 C 0.5503(7) 0.1879(3) 0.7013(5)
C26 C 0.5639(7) 0.4355(3) 0.7648(5)
C27 C 0.8179(6) 0.2767(3) 1.1277(5)
C28 C 0.1860(7) 0.3139(3) 0.6106(5)
C29 C 0.4631(8) 0.4264(3) 1.0650(6)
C30 C 0.4542(7) 0.1500(3) 1.0114(5)
O1 O 0.3652(7) 0.2048(2) 0.3907(5)
O2 O 0.9592(10) 0.4904(3) 1.4468(6)
O3 O 1.1663(7) 0.5921(4) 0.9648(6)
loop_
_geom_bond_atom_site_label_1
_geom_bond_atom_site_label_2
_geom_bond_site_symmetry_1
_geom_bond_site_symmetry_2
N1 C4 1_555 1_555
N2 C6 1_555 1_555
N3 C13 1_555 1_555
N4 C15 1_555 1_555
N5 C19 1_555 1_555
N6 C21 1_555 1_555
C1 C2 1_555 1_555
C2 C3 1_555 1_555
C3 C4 1_555 1_555
C5 N1 1_555 1_555
C6 C5 1_555 1_555
C7 N2 1_555 1_555
C8 C7 1_555 1_555
C9 C8 1_555 1_555
C10 C9 1_555 1_555
C11 C10 1_555 1_555
C12 C11 1_555 1_555
C13 C12 1_555 1_555
C14 N3 1_555 1_555
C15 C14 1_555 1_555
C16 N4 1_555 1_555
C17 C1 1_555 1_555
C18 C17 1_555 1_555
C19 C18 1_555 1_555
C20 N5 1_555 1_555
C21 C20 1_555 1_555
C22 N6 1_555 1_555
C23 C3 1_555 1_555
C24 C8 1_555 1_555
C25 N1 1_555 1_555
C26 N3 1_555 1_555
C27 N5 1_555 1_555
C28 C2 1_555 1_555
C29 C17 1_555 1_555
C30 C23 1_555 1_555
N2 C25 1_555 1_555
N4 C26 1_555 1_555
N6 C27 1_555 1_555
C1 C16 1_555 1_555
C10 C22 1_555 1_555
C12 C24 1_555 1_555
C18 C23 1_555 1_555

#END
