
#######################################################################
#
#                 Cambridge Crystallographic Data Centre
#                                CCDC 
#
#######################################################################
#
# If this CIF has been generated from an entry in the Cambridge 
# Structural Database, then it will include bibliographic, chemical, 
# crystal, experimental, refinement or atomic coordinate data resulting 
# from the CCDC's data processing and validation procedures.
#
#######################################################################

data_PUYFEV
_chemical_formula_moiety         'C37 H27 B1 N2 O2,C1 H1 Cl3'
_chemical_name_systematic        
'8a-(4-(9H-Carbazol-9-yl)phenyl)-5,12-dimethyl-8aH-8,9-dioxa-13\L^5^-aza-8a\l^5^-borabenzo[fg]tetracene chloroform solvate'
_symmetry_cell_setting           monoclinic
_symmetry_space_group_name_H-M   'P 21/c'
_symmetry_Int_Tables_number      14
_space_group_name_Hall           '-P 2ybc'
loop_
_symmetry_equiv_pos_site_id
_symmetry_equiv_pos_as_xyz
1 x,y,z
2 -x,1/2+y,1/2-z
3 -x,-y,-z
4 x,1/2-y,1/2+z
_cell_length_a                   10.324(2)
_cell_length_b                   29.638(6)
_cell_length_c                   11.364(2)
_cell_angle_alpha                90
_cell_angle_beta                 106.61(3)
_cell_angle_gamma                90
_cell_volume                     3332.09
_exptl_crystal_colour            colorless
_exptl_crystal_description       block
_cell_formula_units_Z            4
loop_
_atom_site_label
_atom_site_type_symbol
_atom_site_fract_x
_atom_site_fract_y
_atom_site_fract_z
N1 N 0.6514(3) 0.17679(10) 0.6135(3)
O1 O 0.7620(3) 0.10758(9) 0.5682(2)
O2 O 0.8299(2) 0.17528(9) 0.5057(2)
C1 C 0.5809(3) 0.15249(13) 0.6756(3)
C2 C 0.6642(3) 0.22229(12) 0.6262(3)
C3 C 0.7436(3) 0.24611(13) 0.5573(3)
C4 C 0.8251(4) 0.22055(15) 0.5006(3)
C5 C 0.5813(4) 0.10315(13) 0.6609(4)
C6 C 0.5951(3) 0.14668(11) 0.3864(3)
C7 C 0.5183(4) 0.17426(15) 0.7513(4)
H1 H 0.4689 0.1580 0.7935
N2 N 0.3066(3) 0.13252(11) 0.0379(3)
C8 C 0.4033(4) 0.13684(12) 0.1554(3)
C9 C 0.6763(4) 0.08247(14) 0.6106(4)
C10 C 0.6040(4) 0.24404(14) 0.7051(3)
H2 H 0.6150 0.2750 0.7175
C11 C 0.4932(4) 0.07482(14) 0.7022(4)
H3 H 0.4287 0.0882 0.7337
C12 C 0.2628(4) 0.16675(15) -0.0468(3)
C13 C 0.1707(4) 0.14928(19) -0.1536(4)
C14 C 0.6252(4) 0.12579(13) 0.2894(4)
H4 H 0.7121 0.1145 0.3011
C15 C 0.4645(4) 0.16343(16) 0.3625(4)
H5 H 0.4400 0.1785 0.4246
C16 C 0.5331(4) 0.12081(14) 0.1761(4)
H6 H 0.5584 0.1066 0.1131
C17 C 0.1563(4) 0.10266(19) -0.1306(4)
B1 B 0.7111(4) 0.15075(14) 0.5164(4)
C18 C 0.2414(4) 0.09299(16) -0.0124(4)
C19 C 0.2928(4) 0.21218(18) -0.0347(4)
H7 H 0.3520 0.2236 0.0369
C20 C 0.7453(5) 0.29250(16) 0.5495(4)
H8 H 0.6904 0.3089 0.5860
C21 C 0.3696(4) 0.15846(17) 0.2493(4)
H9 H 0.2827 0.1698 0.2369
C22 C 0.6843(5) 0.03584(16) 0.6085(5)
H10 H 0.7487 0.0219 0.5780
C23 C 0.9055(5) 0.2896(2) 0.4372(5)
H11 H 0.9622 0.3038 0.3983
C24 C 0.1155(5) 0.1783(3) -0.2509(4)
H12 H 0.0578 0.1672 -0.3237
C25 C 0.9055(4) 0.24320(18) 0.4400(5)
H13 H 0.9591 0.2270 0.4016
C26 C 0.4976(6) 0.02955(18) 0.6982(5)
C27 C 0.5296(5) 0.22034(15) 0.7639(4)
H14 H 0.4855 0.2353 0.8133
C28 C 0.5963(6) 0.01005(17) 0.6519(5)
H15 H 0.6029 -0.0212 0.6502
C29 C 0.8255(6) 0.31650(17) 0.4891(5)
C30 C 0.1464(6) 0.2234(3) -0.2393(5)
H16 H 0.1089 0.2428 -0.3044
C31 C 0.2480(6) 0.05066(17) 0.0399(6)
H17 H 0.3052 0.0448 0.1178
C32 C 0.2323(5) 0.2404(2) -0.1322(6)
H18 H 0.2499 0.2712 -0.1253
C33 C 0.0725(6) 0.0694(3) -0.1970(6)
H19 H 0.0138 0.0753 -0.2743
C34 C 0.8203(7) 0.36676(17) 0.4780(6)
H20 H 0.7754 0.3790 0.5341
H21 H 0.7716 0.3751 0.3956
H22 H 0.9106 0.3785 0.4973
C35 C 0.0793(8) 0.0277(3) -0.1449(8)
H23 H 0.0236 0.0051 -0.1890
C36 C 0.1652(9) 0.0169(3) -0.0289(8)
H24 H 0.1674 -0.0122 0.0021
C37 C 0.3998(7) -0.0006(2) 0.7403(8)
H25 H 0.4220 0.0001 0.8283
H26 H 0.4068 -0.0310 0.7133
H27 H 0.3091 0.0102 0.7057
Cl1 Cl 0.0103(3) 0.13005(15) 0.2843(2)
Cl2 Cl 0.2045(2) 0.11162(15) 0.5050(2)
Cl3 Cl -0.0134(4) 0.05096(10) 0.4120(5)
C38 C 0.0391(6) 0.1056(2) 0.4238(6)
H28 H -0.0147 0.1220 0.4683
loop_
_geom_bond_atom_site_label_1
_geom_bond_atom_site_label_2
_geom_bond_site_symmetry_1
_geom_bond_site_symmetry_2
N1 C1 1_555 1_555
O1 C9 1_555 1_555
O2 C4 1_555 1_555
C1 C5 1_555 1_555
C2 N1 1_555 1_555
C3 C2 1_555 1_555
C4 C3 1_555 1_555
C5 C9 1_555 1_555
C6 C14 1_555 1_555
C7 C1 1_555 1_555
H1 C7 1_555 1_555
N2 C8 1_555 1_555
C8 C16 1_555 1_555
C9 C22 1_555 1_555
C10 C2 1_555 1_555
H2 C10 1_555 1_555
C11 C5 1_555 1_555
H3 C11 1_555 1_555
C12 N2 1_555 1_555
C13 C12 1_555 1_555
C14 H4 1_555 1_555
C15 C6 1_555 1_555
H5 C15 1_555 1_555
C16 C14 1_555 1_555
H6 C16 1_555 1_555
C17 C13 1_555 1_555
B1 N1 1_555 1_555
C18 N2 1_555 1_555
C19 C12 1_555 1_555
H7 C19 1_555 1_555
C20 C3 1_555 1_555
H8 C20 1_555 1_555
C21 C8 1_555 1_555
H9 C21 1_555 1_555
C22 H10 1_555 1_555
C23 H11 1_555 1_555
C24 C13 1_555 1_555
H12 C24 1_555 1_555
C25 C4 1_555 1_555
H13 C25 1_555 1_555
C26 C11 1_555 1_555
C27 C7 1_555 1_555
H14 C27 1_555 1_555
C28 C22 1_555 1_555
H15 C28 1_555 1_555
C29 C20 1_555 1_555
C30 C24 1_555 1_555
H16 C30 1_555 1_555
C31 C18 1_555 1_555
H17 C31 1_555 1_555
C32 C19 1_555 1_555
H18 C32 1_555 1_555
C33 C17 1_555 1_555
H19 C33 1_555 1_555
C34 C29 1_555 1_555
H20 C34 1_555 1_555
H21 C34 1_555 1_555
H22 C34 1_555 1_555
C35 C33 1_555 1_555
H23 C35 1_555 1_555
C36 C31 1_555 1_555
H24 C36 1_555 1_555
C37 C26 1_555 1_555
H25 C37 1_555 1_555
H26 C37 1_555 1_555
H27 C37 1_555 1_555
Cl1 C38 1_555 1_555
Cl2 C38 1_555 1_555
Cl3 C38 1_555 1_555
C38 H28 1_555 1_555
O1 B1 1_555 1_555
O2 B1 1_555 1_555
C6 B1 1_555 1_555
C10 C27 1_555 1_555
C15 C21 1_555 1_555
C17 C18 1_555 1_555
C23 C25 1_555 1_555
C23 C29 1_555 1_555
C26 C28 1_555 1_555
C30 C32 1_555 1_555
C35 C36 1_555 1_555

#END
