
#######################################################################
#
#                 Cambridge Crystallographic Data Centre
#                                CCDC 
#
#######################################################################
#
# If this CIF has been generated from an entry in the Cambridge 
# Structural Database, then it will include bibliographic, chemical, 
# crystal, experimental, refinement or atomic coordinate data resulting 
# from the CCDC's data processing and validation procedures.
#
#######################################################################

data_PUYQIK
_chemical_formula_moiety         'C6 Cl9 N10 P3,C6 H4 Cl2'
_chemical_name_systematic        
'2,5,8-tris(trichlorophosphinimino)-1,3,4,6,7,9,9b-heptaazaphenalene 1,2-dichlorobenzene solvate'
_symmetry_cell_setting           rhombohedral
_symmetry_space_group_name_H-M   'R 3 c'
_symmetry_Int_Tables_number      161
_space_group_name_Hall           'R 3 -2"c'
loop_
_symmetry_equiv_pos_site_id
_symmetry_equiv_pos_as_xyz
1 x,y,z
2 -y,x-y,z
3 -x+y,-x,z
4 -y,-x,1/2+z
5 -x+y,y,1/2+z
6 x,x-y,1/2+z
7 2/3+x,1/3+y,1/3+z
8 2/3-y,1/3+x-y,1/3+z
9 2/3-x+y,1/3-x,1/3+z
10 2/3-y,1/3-x,5/6+z
11 2/3-x+y,1/3+y,5/6+z
12 2/3+x,1/3+x-y,5/6+z
13 1/3+x,2/3+y,2/3+z
14 1/3-y,2/3+x-y,2/3+z
15 1/3-x+y,2/3-x,2/3+z
16 1/3-y,2/3-x,1/6+z
17 1/3-x+y,2/3+y,1/6+z
18 1/3+x,2/3+x-y,1/6+z
_cell_length_a                   18.0719(3)
_cell_length_b                   18.0719(3)
_cell_length_c                   14.7542(6)
_cell_angle_alpha                90
_cell_angle_beta                 90
_cell_angle_gamma                120
_cell_volume                     4173.05
_exptl_crystal_colour            colorless
_exptl_crystal_description       piece
_cell_formula_units_Z            6
loop_
_atom_site_label
_atom_site_type_symbol
_atom_site_fract_x
_atom_site_fract_y
_atom_site_fract_z
Cl1 Cl -0.05054(8) -0.39400(5) 0.82958(8)
Cl2 Cl 0.10258(10) -0.24943(8) 0.93860(6)
Cl3 Cl 0.08119(8) -0.22427(6) 0.73379(6)
P1 P 0.01461(7) -0.26946(5) 0.84799(7)
N1 N -0.09995(21) -0.14769(15) 0.87953(19)
N2 N 0.05060(21) -0.09744(14) 0.87650(19)
N3 N 0.0000 0.0000 0.8781(3)
N4 N -0.05174(22) -0.24212(16) 0.8702(2)
C1 C -0.03229(25) -0.15871(17) 0.8755(2)
C2 C -0.08480(25) -0.06793(18) 0.87875(19)
Cl1A Cl 0.39400(5) 0.34346(9) 0.82958(8)
Cl1B Cl -0.34346(9) 0.05054(8) 0.82958(8)
Cl2A Cl 0.24943(8) 0.35201(13) 0.93860(6)
Cl2B Cl -0.35201(13) -0.10258(10) 0.93860(6)
Cl3A Cl 0.22427(6) 0.30546(10) 0.73379(6)
Cl3B Cl -0.30546(10) -0.08119(8) 0.73379(6)
P1A P 0.26946(5) 0.28407(9) 0.84799(7)
P1B P -0.28407(9) -0.01461(7) 0.84799(7)
N1B N -0.04774(26) 0.09995(21) 0.87953(19)
N1A N 0.14769(15) 0.04774(26) 0.87953(19)
N2B N -0.14804(25) -0.05060(21) 0.87650(19)
N2A N 0.09744(14) 0.14804(25) 0.87650(19)
N4A N 0.24212(16) 0.19038(27) 0.8702(2)
N4B N -0.19038(27) 0.05174(22) 0.8702(2)
C1B C -0.12642(30) 0.03229(25) 0.8755(2)
C1A C 0.15871(17) 0.12642(30) 0.8755(2)
C2B C 0.01687(31) 0.08480(25) 0.87875(19)
C2A C 0.06793(18) -0.01687(31) 0.87875(19)
C3? C 0.2891(12) 0.6747(10) 0.7847(11)
C4? C 0.3466(12) 0.7608(6) 0.7836(8)
H1? H 0.3269 0.7996 0.7750
C5? C 0.4323(13) 0.7910(10) 0.7948(9)
H2? H 0.4705 0.8502 0.7938
C6? C 0.4633(11) 0.7362(7) 0.8075(12)
H3? H 0.5213 0.7570 0.8202
C7? C 0.4070(13) 0.6501(10) 0.8012(10)
H4? H 0.4281 0.6120 0.8036
C8? C 0.3208(11) 0.6181(6) 0.7915(13)
Cl4? Cl 0.1796(5) 0.6354(4) 0.7770(4)
Cl5? Cl 0.2508(4) 0.5083(2) 0.7874(4)
loop_
_geom_bond_atom_site_label_1
_geom_bond_atom_site_label_2
_geom_bond_site_symmetry_1
_geom_bond_site_symmetry_2
Cl1 P1 1_555 1_555
Cl2 P1 1_555 1_555
Cl3 P1 1_555 1_555
P1 N4 1_555 1_555
N1 C1 1_555 1_555
N2 C1 1_555 1_555
N3 C2 1_555 1_555
N4 C1 1_555 1_555
C2 N1 1_555 1_555
Cl1A P1A 1_555 1_555
Cl1B P1B 1_555 1_555
Cl2A P1A 1_555 1_555
Cl2B P1B 1_555 1_555
Cl3A P1A 1_555 1_555
Cl3B P1B 1_555 1_555
P1A N4A 1_555 1_555
P1B N4B 1_555 1_555
N1B C1B 1_555 1_555
N1A C1A 1_555 1_555
N2B C2 1_555 1_555
N2A C1A 1_555 1_555
N4A C1A 1_555 1_555
N4B C1B 1_555 1_555
C1B N2B 1_555 1_555
C2B N3 1_555 1_555
C2A N2 1_555 1_555
N3 C2A 1_555 1_555
N1B C2B 1_555 1_555
N1A C2A 1_555 1_555
N2A C2B 1_555 1_555

#END
