
#######################################################################
#
#                 Cambridge Crystallographic Data Centre
#                                CCDC 
#
#######################################################################
#
# If this CIF has been generated from an entry in the Cambridge 
# Structural Database, then it will include bibliographic, chemical, 
# crystal, experimental, refinement or atomic coordinate data resulting 
# from the CCDC's data processing and validation procedures.
#
#######################################################################

data_PUYVEK
_chemical_formula_moiety         'C18 H20 N4'
_chemical_name_systematic        
(1R,2R)-bis(4-Pyridylmethyleneamino)cyclohexane
_symmetry_cell_setting           orthorhombic
_symmetry_space_group_name_H-M   'P 21 21 2'
_symmetry_Int_Tables_number      18
_space_group_name_Hall           'P 2 2ab'
loop_
_symmetry_equiv_pos_site_id
_symmetry_equiv_pos_as_xyz
1 x,y,z
2 -x,-y,z
3 1/2-x,1/2+y,-z
4 1/2+x,1/2-y,-z
_cell_length_a                   15.230(4)
_cell_length_b                   5.7890(10)
_cell_length_c                   9.415(2)
_cell_angle_alpha                90
_cell_angle_beta                 90
_cell_angle_gamma                90
_cell_volume                     830.087
_exptl_crystal_colour            colorless
_exptl_crystal_description       block
_chemical_melting_point          407-409K
_cell_formula_units_Z            2
_exptl_crystal_recrystallization_method 'petroleum ether/chloroform'
loop_
_atom_site_label
_atom_site_type_symbol
_atom_site_fract_x
_atom_site_fract_y
_atom_site_fract_z
C1 C 0.36087(19) 0.5747(5) 0.2450(3)
H1 H 0.3864 0.7185 0.2297
C2 C 0.38240(14) 0.4610(4) 0.3675(3)
H2 H 0.4208 0.5272 0.4326
C3 C 0.34617(12) 0.2459(4) 0.3930(2)
C4 C 0.28680(13) 0.1598(5) 0.2941(2)
H3 H 0.2590 0.0186 0.3081
C5 C 0.27040(18) 0.2919(7) 0.1735(3)
H4 H 0.2314 0.2329 0.1067
C6 C 0.37032(11) 0.1118(4) 0.5197(2)
H5 H 0.3391 -0.0218 0.5412
C7 C 0.45115(12) 0.0325(3) 0.72348(19)
H6 H 0.4156 -0.1086 0.7206
C8 C 0.42892(12) 0.1681(4) 0.8567(2)
H7 H 0.4608 0.3132 0.8558
H8 H 0.3666 0.2033 0.8570
C9 C 0.45190(14) 0.0359(5) 0.9902(2)
H9 H 0.4152 -0.1006 0.9968
H10 H 0.4402 0.1318 1.0725
N1 N 0.30656(18) 0.4962(6) 0.1469(2)
N2 N 0.43171(10) 0.1731(3) 0.59912(18)
C7A C 0.54885(12) -0.0325(3) 0.72348(19)
H6A H 0.5844 0.1086 0.7206
C8A C 0.57108(12) -0.1681(4) 0.8567(2)
H7A H 0.5392 -0.3132 0.8558
H8A H 0.6334 -0.2033 0.8570
C9A C 0.54810(14) -0.0359(5) 0.9902(2)
H9A H 0.5848 0.1006 0.9968
H10A H 0.5598 -0.1318 1.0725
N2A N 0.56829(10) -0.1731(3) 0.59912(18)
C6A C 0.62968(11) -0.1118(4) 0.5197(2)
C3A C 0.65383(12) -0.2459(4) 0.3930(2)
C2A C 0.61760(14) -0.4610(4) 0.3675(3)
C1A C 0.63913(19) -0.5747(5) 0.2450(3)
H1A H 0.6136 -0.7185 0.2297
N1A N 0.69344(18) -0.4962(6) 0.1469(2)
C5A C 0.72960(18) -0.2919(7) 0.1735(3)
C4A C 0.71320(13) -0.1598(5) 0.2941(2)
H3A H 0.7410 -0.0186 0.3081
H4A H 0.7686 -0.2329 0.1067
H2A H 0.5792 -0.5272 0.4326
H5A H 0.6609 0.0218 0.5412
loop_
_geom_bond_atom_site_label_1
_geom_bond_atom_site_label_2
_geom_bond_site_symmetry_1
_geom_bond_site_symmetry_2
C1 H1 1_555 1_555
C2 C1 1_555 1_555
H2 C2 1_555 1_555
C3 C2 1_555 1_555
C4 C3 1_555 1_555
H3 C4 1_555 1_555
C5 C4 1_555 1_555
H4 C5 1_555 1_555
C6 C3 1_555 1_555
H5 C6 1_555 1_555
C7 H6 1_555 1_555
C8 C7 1_555 1_555
H7 C8 1_555 1_555
H8 C8 1_555 1_555
C9 C8 1_555 1_555
H9 C9 1_555 1_555
H10 C9 1_555 1_555
N1 C1 1_555 1_555
N2 C6 1_555 1_555
C7A C7 1_555 1_555
H6A C7A 1_555 1_555
C8A C7A 1_555 1_555
H7A C8A 1_555 1_555
H8A C8A 1_555 1_555
C9A C9 1_555 1_555
H9A C9A 1_555 1_555
H10A C9A 1_555 1_555
N2A C7A 1_555 1_555
C6A N2A 1_555 1_555
C3A C6A 1_555 1_555
C2A C3A 1_555 1_555
C1A C2A 1_555 1_555
H1A C1A 1_555 1_555
N1A C1A 1_555 1_555
C5A N1A 1_555 1_555
C4A C3A 1_555 1_555
H3A C4A 1_555 1_555
H4A C5A 1_555 1_555
H2A C2A 1_555 1_555
H5A C6A 1_555 1_555
C5 N1 1_555 1_555
C7 N2 1_555 1_555
C8A C9A 1_555 1_555
C5A C4A 1_555 1_555

#END
