
#######################################################################
#
#                 Cambridge Crystallographic Data Centre
#                                CCDC 
#
#######################################################################
#
# If this CIF has been generated from an entry in the Cambridge 
# Structural Database, then it will include bibliographic, chemical, 
# crystal, experimental, refinement or atomic coordinate data resulting 
# from the CCDC's data processing and validation procedures.
#
#######################################################################

data_PUYZIS
_chemical_formula_moiety         'C28 H27 N1 O5'
_chemical_name_systematic        
Spiro(5-carbomethoxy-2-(4-methoxyphenyl)-4-(4-methylphenyl)pyrrolidine-3,3'-chroman-4'-one)
_symmetry_cell_setting           monoclinic
_symmetry_space_group_name_H-M   'P 21/c'
_symmetry_Int_Tables_number      14
_space_group_name_Hall           '-P 2ybc'
loop_
_symmetry_equiv_pos_site_id
_symmetry_equiv_pos_as_xyz
1 x,y,z
2 x,1/2-y,1/2+z
3 -x,-y,-z
4 -x,1/2+y,1/2-z
_cell_length_a                   12.4779(6)
_cell_length_b                   18.0879(19)
_cell_length_c                   10.4580(19)
_cell_angle_alpha                90
_cell_angle_beta                 92.782(9)
_cell_angle_gamma                90
_cell_volume                     2357.58
_exptl_crystal_colour            colorless
_exptl_crystal_description       prism
_chemical_melting_point          425-426K
_cell_formula_units_Z            4
_exptl_crystal_recrystallization_method ethanol
loop_
_atom_site_label
_atom_site_type_symbol
_atom_site_fract_x
_atom_site_fract_y
_atom_site_fract_z
N1 N 0.2774(2) -0.26246(13) 0.7940(3)
H1 H 0.2497 -0.3050 0.7761
O1 O 0.25013(19) -0.11143(13) 0.5449(2)
O2 O 0.21895(19) -0.03912(13) 0.9101(2)
O3 O -0.2169(2) -0.1963(2) 0.6407(4)
O4 O 0.4439(2) -0.32473(18) 0.6358(3)
O5 O 0.5293(2) -0.33171(16) 0.8231(2)
C1 C 0.2412(2) -0.09030(16) 0.6545(3)
C2 C 0.2936(2) -0.13159(15) 0.7686(3)
C3 C 0.3160(3) -0.07462(18) 0.8747(3)
H2 H 0.3494 -0.0990 0.9491
H3 H 0.3656 -0.0377 0.8455
C4 C 0.0974(3) 0.0540(2) 0.8404(5)
H4 H 0.0878 0.0668 0.9253
C5 C 0.0444(4) 0.0918(2) 0.7423(7)
H5 H -0.0016 0.1304 0.7610
C6 C 0.0585(4) 0.0733(3) 0.6183(6)
H6 H 0.0232 0.1000 0.5530
C7 C 0.1239(3) 0.0162(2) 0.5886(4)
H7 H 0.1321 0.0039 0.5032
C8 C 0.1788(2) -0.02414(17) 0.6848(3)
C9 C 0.1653(3) -0.00345(18) 0.8107(4)
C10 C 0.2187(2) -0.19416(16) 0.8197(3)
H8 H 0.2168 -0.1886 0.9128
C11 C 0.1040(2) -0.19614(17) 0.7657(3)
C12 C 0.0243(3) -0.1614(2) 0.8323(4)
H9 H 0.0428 -0.1376 0.9091
C13 C -0.0805(3) -0.1615(3) 0.7876(5)
H10 H -0.1324 -0.1372 0.8328
C14 C -0.1090(3) -0.1977(2) 0.6749(5)
C15 C -0.0327(3) -0.2302(2) 0.6067(4)
H11 H -0.0514 -0.2527 0.5288
C16 C 0.0746(3) -0.23004(19) 0.6530(4)
H12 H 0.1264 -0.2534 0.6063
C17 C -0.2527(4) -0.2328(3) 0.5296(6)
H13 H -0.2148 -0.2145 0.4585
H14 H -0.3282 -0.2242 0.5145
H15 H -0.2398 -0.2849 0.5392
C18 C 0.3917(2) -0.24459(16) 0.8044(3)
H16 H 0.4163 -0.2374 0.8940
C19 C 0.4554(3) -0.30403(18) 0.7423(3)
C20 C 0.5985(4) -0.3881(3) 0.7722(5)
H17 H 0.5553 -0.4261 0.7314
H18 H 0.6423 -0.4093 0.8408
H19 H 0.6437 -0.3662 0.7108
C21 C 0.3955(2) -0.17283(16) 0.7299(3)
H20 H 0.3840 -0.1858 0.6393
C22 C 0.4972(2) -0.12743(16) 0.7406(3)
C23 C 0.5280(3) -0.08737(19) 0.6357(3)
H21 H 0.4899 -0.0932 0.5578
C24 C 0.6131(3) -0.0394(2) 0.6434(3)
H22 H 0.6308 -0.0131 0.5710
C25 C 0.6740(3) -0.02925(18) 0.7580(3)
C26 C 0.6448(3) -0.07026(18) 0.8610(3)
H23 H 0.6842 -0.0654 0.9384
C27 C 0.5589(2) -0.11856(19) 0.8538(3)
H24 H 0.5421 -0.1455 0.9259
C28 C 0.7657(3) 0.0243(2) 0.7666(4)
H25 H 0.7612 0.0538 0.8424
H26 H 0.7625 0.0558 0.6927
H27 H 0.8323 -0.0024 0.7702
loop_
_geom_bond_atom_site_label_1
_geom_bond_atom_site_label_2
_geom_bond_site_symmetry_1
_geom_bond_site_symmetry_2
N1 H1 1_555 1_555
O1 C1 1_555 1_555
O2 C3 1_555 1_555
O3 C14 1_555 1_555
O4 C19 1_555 1_555
O5 C19 1_555 1_555
C1 C2 1_555 1_555
C2 C3 1_555 1_555
C3 H2 1_555 1_555
H3 C3 1_555 1_555
C4 H4 1_555 1_555
C5 C4 1_555 1_555
H5 C5 1_555 1_555
C6 C5 1_555 1_555
H6 C6 1_555 1_555
C7 C6 1_555 1_555
H7 C7 1_555 1_555
C8 C1 1_555 1_555
C9 O2 1_555 1_555
C10 N1 1_555 1_555
H8 C10 1_555 1_555
C11 C10 1_555 1_555
C12 C11 1_555 1_555
H9 C12 1_555 1_555
C13 C12 1_555 1_555
H10 C13 1_555 1_555
C14 C13 1_555 1_555
C15 C14 1_555 1_555
H11 C15 1_555 1_555
C16 C11 1_555 1_555
H12 C16 1_555 1_555
C17 O3 1_555 1_555
H13 C17 1_555 1_555
H14 C17 1_555 1_555
H15 C17 1_555 1_555
C18 N1 1_555 1_555
H16 C18 1_555 1_555
C19 C18 1_555 1_555
C20 O5 1_555 1_555
H17 C20 1_555 1_555
H18 C20 1_555 1_555
H19 C20 1_555 1_555
C21 C2 1_555 1_555
H20 C21 1_555 1_555
C22 C21 1_555 1_555
C23 C22 1_555 1_555
H21 C23 1_555 1_555
C24 C23 1_555 1_555
H22 C24 1_555 1_555
C25 C24 1_555 1_555
C26 C25 1_555 1_555
H23 C26 1_555 1_555
C27 C22 1_555 1_555
H24 C27 1_555 1_555
C28 C25 1_555 1_555
H25 C28 1_555 1_555
H26 C28 1_555 1_555
H27 C28 1_555 1_555
C2 C10 1_555 1_555
C4 C9 1_555 1_555
C7 C8 1_555 1_555
C8 C9 1_555 1_555
C15 C16 1_555 1_555
C18 C21 1_555 1_555
C26 C27 1_555 1_555

#END
