
#######################################################################
#
#                 Cambridge Crystallographic Data Centre
#                                CCDC 
#
#######################################################################
#
# If this CIF has been generated from an entry in the Cambridge 
# Structural Database, then it will include bibliographic, chemical, 
# crystal, experimental, refinement or atomic coordinate data resulting 
# from the CCDC's data processing and validation procedures.
#
#######################################################################

data_PUZNUV
_chemical_formula_moiety         'C24 H16 Cl1 N1 O2'
_chemical_name_systematic        
3-Benzylidene-4-(4-chlorobenzylidene)-1-phenylpyrrolidine-2,5-dione
_symmetry_cell_setting           orthorhombic
_symmetry_space_group_name_H-M   'P 21 21 21'
_symmetry_Int_Tables_number      19
_space_group_name_Hall           'P 2ac 2ab'
loop_
_symmetry_equiv_pos_site_id
_symmetry_equiv_pos_as_xyz
1 x,y,z
2 1/2-x,-y,1/2+z
3 -x,1/2+y,1/2-z
4 1/2+x,1/2-y,-z
_cell_length_a                   4.8059(4)
_cell_length_b                   19.8149(15)
_cell_length_c                   20.2607(15)
_cell_angle_alpha                90
_cell_angle_beta                 90
_cell_angle_gamma                90
_cell_volume                     1929.39
_exptl_crystal_description       plate
_cell_formula_units_Z            4
loop_
_atom_site_label
_atom_site_type_symbol
_atom_site_fract_x
_atom_site_fract_y
_atom_site_fract_z
C25 C -0.022(4) 0.0509(5) 0.4263(5)
C26 C -0.161(3) -0.0016(7) 0.3948(6)
H17 H -0.2515 0.0061 0.3549
C27 C -0.165(3) -0.0655(6) 0.4230(6)
H18 H -0.2583 -0.1006 0.4019
C28 C -0.031(3) -0.0771(5) 0.4826(6)
H19 H -0.0334 -0.1199 0.5015
C29 C 0.108(4) -0.0246(6) 0.5141(5)
H20 H 0.1983 -0.0323 0.5540
C30 C 0.112(4) 0.0393(6) 0.4859(5)
H21 H 0.2052 0.0744 0.5070
O3 O 0.328(5) 0.0909(12) 0.3207(11)
O4 O -0.249(4) 0.1745(6) 0.4759(6)
N2 N -0.001(4) 0.1158(9) 0.3960(7)
C31 C 0.157(3) 0.1319(5) 0.3404(8)
C32 C 0.124(3) 0.2038(7) 0.3253(8)
C33 C -0.073(8) 0.2285(11) 0.3744(17)
C34 C -0.110(5) 0.1732(9) 0.4256(8)
C35 C 0.242(6) 0.2408(14) 0.2729(17)
H22 H 0.1759 0.2849 0.2711
C36 C 0.444(2) 0.2260(4) 0.2206(4)
C37 C 0.5045(17) 0.2821(3) 0.1820(3)
H23 H 0.4218 0.3234 0.1913
C38 C 0.689(2) 0.2764(4) 0.1293(4)
H24 H 0.7289 0.3139 0.1035
C39 C 0.812(2) 0.2146(5) 0.1154(4)
C40 C 0.752(2) 0.1585(4) 0.1540(5)
H25 H 0.8348 0.1172 0.1447
C41 C 0.568(3) 0.1642(4) 0.2066(5)
H26 H 0.5276 0.1267 0.2325
Cl2 Cl 1.050(2) 0.2106(5) 0.0550(4)
C42 C -0.191(4) 0.2940(13) 0.3883(10)
H27 H -0.3575 0.2960 0.4115
C43 C -0.059(3) 0.3576(3) 0.3675(4)
C44 C -0.142(3) 0.3677(4) 0.3026(4)
H28 H -0.2249 0.3327 0.2791
C45 C -0.102(2) 0.4301(4) 0.2727(3)
H29 H -0.1575 0.4368 0.2292
C46 C 0.022(3) 0.4824(3) 0.3077(4)
H30 H 0.0491 0.5241 0.2877
C47 C 0.106(3) 0.4723(4) 0.3726(4)
H31 H 0.1884 0.5073 0.3961
C48 C 0.065(3) 0.4099(5) 0.4026(4)
H32 H 0.1210 0.4032 0.4460
C1? C -0.042(6) 0.0510(9) 0.4123(11)
C2? C -0.276(5) 0.0124(13) 0.3972(13)
H1? H -0.4104 0.0294 0.3688
C3? C -0.307(5) -0.0514(12) 0.4246(14)
H2? H -0.4630 -0.0772 0.4145
C4? C -0.105(6) -0.0767(10) 0.4671(13)
H3? H -0.1266 -0.1195 0.4855
C5? C 0.128(5) -0.0382(12) 0.4822(12)
H4? H 0.2625 -0.0551 0.5107
C6? C 0.159(5) 0.0257(11) 0.4548(12)
H5? H 0.3152 0.0514 0.4649
O1? O 0.246(5) 0.0888(6) 0.3006(8)
O2? O -0.383(3) 0.1668(8) 0.4430(8)
N1? N -0.014(6) 0.1182(9) 0.3864(14)
C7? C 0.146(12) 0.137(2) 0.330(2)
C8? C 0.149(8) 0.2108(16) 0.3275(15)
C9? C -0.034(11) 0.2340(11) 0.381(2)
C10? C 0.252(12) 0.241(3) 0.285(3)
H6? H 0.2129 0.2865 0.2892
C11? C -0.184(5) 0.1716(14) 0.4055(10)
C12? C 0.420(3) 0.2287(9) 0.2282(8)
C13? C 0.475(5) 0.2889(7) 0.1955(10)
H7? H 0.3861 0.3284 0.2086
C14? C 0.662(6) 0.2901(9) 0.1431(10)
H8? H 0.6981 0.3304 0.1213
C15? C 0.794(5) 0.2311(12) 0.1235(9)
C16? C 0.739(5) 0.1708(9) 0.1562(11)
H9? H 0.8279 0.1313 0.1430
C17? C 0.552(4) 0.1696(7) 0.2085(10)
H10? H 0.5160 0.1293 0.2304
Cl1? Cl 1.0463(11) 0.2126(3) 0.0534(3)
C18? C -0.073(5) 0.2898(16) 0.4009(12)
H11? H -0.0783 0.2950 0.4465
C19? C -0.121(4) 0.3595(6) 0.3561(8)
C20? C -0.314(3) 0.3970(8) 0.3206(9)
H12? H -0.4939 0.3808 0.3150
C21? C -0.237(4) 0.4586(9) 0.2932(9)
H13? H -0.3666 0.4837 0.2694
C22? C 0.032(5) 0.4827(8) 0.3015(9)
H14? H 0.0829 0.5240 0.2832
C23? C 0.225(3) 0.4453(10) 0.3371(11)
H15? H 0.4051 0.4614 0.3426
C24? C 0.149(3) 0.3836(9) 0.3644(9)
H16? H 0.2778 0.3585 0.3882
loop_
_geom_bond_atom_site_label_1
_geom_bond_atom_site_label_2
_geom_bond_site_symmetry_1
_geom_bond_site_symmetry_2
C25 C26 1_555 1_555
C26 H17 1_555 1_555
C27 C26 1_555 1_555
H18 C27 1_555 1_555
C28 C27 1_555 1_555
H19 C28 1_555 1_555
C29 C28 1_555 1_555
H20 C29 1_555 1_555
C30 C25 1_555 1_555
H21 C30 1_555 1_555
O3 C31 1_555 1_555
O4 C34 1_555 1_555
N2 C25 1_555 1_555
C31 N2 1_555 1_555
C32 C31 1_555 1_555
C33 C32 1_555 1_555
C34 N2 1_555 1_555
C35 C32 1_555 1_555
H22 C35 1_555 1_555
C36 C35 1_555 1_555
C37 C36 1_555 1_555
H23 C37 1_555 1_555
C38 C37 1_555 1_555
H24 C38 1_555 1_555
C39 C38 1_555 1_555
C40 C39 1_555 1_555
H25 C40 1_555 1_555
C41 C36 1_555 1_555
H26 C41 1_555 1_555
Cl2 C39 1_555 1_555
C42 C33 1_555 1_555
H27 C42 1_555 1_555
C43 C42 1_555 1_555
C44 C43 1_555 1_555
H28 C44 1_555 1_555
C45 C44 1_555 1_555
H29 C45 1_555 1_555
C46 C45 1_555 1_555
H30 C46 1_555 1_555
C47 C46 1_555 1_555
H31 C47 1_555 1_555
C48 C43 1_555 1_555
H32 C48 1_555 1_555
C29 C30 1_555 1_555
C33 C34 1_555 1_555
C40 C41 1_555 1_555
C47 C48 1_555 1_555

#END
