
#######################################################################
#
#                 Cambridge Crystallographic Data Centre
#                                CCDC 
#
#######################################################################
#
# If this CIF has been generated from an entry in the Cambridge 
# Structural Database, then it will include bibliographic, chemical, 
# crystal, experimental, refinement or atomic coordinate data resulting 
# from the CCDC's data processing and validation procedures.
#
#######################################################################

data_PUZPIL
_chemical_formula_moiety         'C18 H24 O6'
_chemical_name_systematic        
'10-hydroxy-5-methoxy-7,11,11-trimethyl-3-oxo-3,5,8,9,10,10a-hexahydro-1H-1,10-methanocyclonona[c]furan-9-yl acetate'
_symmetry_cell_setting           orthorhombic
_symmetry_space_group_name_H-M   'P 21 21 21'
_symmetry_Int_Tables_number      19
_space_group_name_Hall           'P 2ac 2ab'
loop_
_symmetry_equiv_pos_site_id
_symmetry_equiv_pos_as_xyz
1 x,y,z
2 1/2-x,-y,1/2+z
3 1/2+x,1/2-y,-z
4 -x,1/2+y,1/2-z
_cell_length_a                   6.55990(10)
_cell_length_b                   9.67550(10)
_cell_length_c                   26.7827(2)
_cell_angle_alpha                90
_cell_angle_beta                 90
_cell_angle_gamma                90
_cell_volume                     1699.91
_exptl_crystal_description       block
_cell_formula_units_Z            4
loop_
_atom_site_label
_atom_site_type_symbol
_atom_site_fract_x
_atom_site_fract_y
_atom_site_fract_z
O1 O 0.1999(2) -0.18848(14) 0.22243(4)
O2 O -0.0958(2) 0.07757(14) 0.06729(5)
O3 O -0.1664(2) -0.11507(15) 0.16597(5)
H1 H -0.2182 -0.1908 0.1712
O4 O -0.4129(2) -0.48934(14) 0.04005(5)
O5 O -0.3958(3) 0.02829(16) 0.03208(6)
O6 O 0.5070(2) -0.29032(18) 0.21988(7)
C1 C -0.1905(3) -0.42113(18) 0.11026(6)
H2 H -0.2985 -0.4117 0.1325
C2 C -0.0055(3) -0.44085(18) 0.12927(7)
C3 C 0.1516(3) -0.24457(19) 0.17351(6)
H3 H 0.2794 -0.2604 0.1554
C4 C 0.0858(3) 0.00554(19) 0.08271(7)
H4 H 0.2044 0.0234 0.0614
C5 C -0.2856(3) -0.26305(19) 0.04523(6)
H5 H -0.4030 -0.2435 0.0271
C6 C -0.1727(3) -0.15621(19) 0.06026(6)
C7 C 0.1324(3) 0.01358(19) 0.13926(6)
C8 C 0.0434(3) -0.3837(2) 0.18030(7)
H6 H 0.1308 -0.4473 0.1983
H7 H -0.0811 -0.3712 0.1993
C9 C -0.2391(3) -0.0117(2) 0.05052(6)
C10 C 0.3644(4) 0.0155(3) 0.14565(9)
H8 H 0.4225 -0.0630 0.1290
H9 H 0.3975 0.0119 0.1805
H10 H 0.4185 0.0989 0.1314
C11 C -0.2380(3) -0.41293(18) 0.05532(6)
H11 H -0.1190 -0.4416 0.0358
C12 C 0.1715(4) -0.5002(3) 0.10086(8)
H12 H 0.1219 -0.5497 0.0723
H13 H 0.2462 -0.5621 0.1221
H14 H 0.2594 -0.4267 0.0901
C13 C 0.4197(5) -0.1455(3) 0.28930(9)
H15 H 0.4655 -0.0528 0.2831
H16 H 0.5211 -0.1943 0.3082
H17 H 0.2945 -0.1429 0.3078
C14 C 0.0300(3) -0.13320(18) 0.14593(6)
C15 C 0.0279(3) -0.14833(18) 0.08652(6)
H18 H 0.1315 -0.2116 0.0734
C16 C 0.0348(5) 0.1306(2) 0.16788(8)
H19 H 0.0895 0.2171 0.1565
H20 H 0.0628 0.1199 0.2028
H21 H -0.1099 0.1293 0.1625
C17 C 0.3854(3) -0.2176(2) 0.24073(7)
C18 C -0.3811(4) -0.6344(2) 0.04429(9)
H22 H -0.2684 -0.6612 0.0236
H23 H -0.5017 -0.6824 0.0337
H24 H -0.3518 -0.6574 0.0784
loop_
_geom_bond_atom_site_label_1
_geom_bond_atom_site_label_2
_geom_bond_site_symmetry_1
_geom_bond_site_symmetry_2
O1 C3 1_555 1_555
O2 C4 1_555 1_555
O3 H1 1_555 1_555
O4 C11 1_555 1_555
O5 C9 1_555 1_555
O6 C17 1_555 1_555
C1 H2 1_555 1_555
C2 C1 1_555 1_555
C3 H3 1_555 1_555
C4 H4 1_555 1_555
C5 H5 1_555 1_555
C6 C5 1_555 1_555
C7 C4 1_555 1_555
C8 C2 1_555 1_555
H6 C8 1_555 1_555
H7 C8 1_555 1_555
C9 O2 1_555 1_555
C10 C7 1_555 1_555
H8 C10 1_555 1_555
H9 C10 1_555 1_555
H10 C10 1_555 1_555
C11 C1 1_555 1_555
H11 C11 1_555 1_555
C12 C2 1_555 1_555
H12 C12 1_555 1_555
H13 C12 1_555 1_555
H14 C12 1_555 1_555
C13 H15 1_555 1_555
H16 C13 1_555 1_555
H17 C13 1_555 1_555
C14 O3 1_555 1_555
C15 C4 1_555 1_555
H18 C15 1_555 1_555
C16 C7 1_555 1_555
H19 C16 1_555 1_555
H20 C16 1_555 1_555
H21 C16 1_555 1_555
C17 O1 1_555 1_555
C18 O4 1_555 1_555
H22 C18 1_555 1_555
H23 C18 1_555 1_555
H24 C18 1_555 1_555
C3 C8 1_555 1_555
C3 C14 1_555 1_555
C5 C11 1_555 1_555
C6 C9 1_555 1_555
C6 C15 1_555 1_555
C7 C14 1_555 1_555
C13 C17 1_555 1_555
C14 C15 1_555 1_555

#END
