
#######################################################################
#
#                 Cambridge Crystallographic Data Centre
#                                CCDC 
#
#######################################################################
#
# If this CIF has been generated from an entry in the Cambridge 
# Structural Database, then it will include bibliographic, chemical, 
# crystal, experimental, refinement or atomic coordinate data resulting 
# from the CCDC's data processing and validation procedures.
#
#######################################################################

data_PUZXEP
_chemical_formula_moiety         'C27 H33 Br1 N2 O4 S1'
_chemical_name_systematic        
'12-bromo-7-((2-((2-thienylcarbonyl)amino)ethoxy)imino)abi\h-8,11,13-trien-18-oic acid'
_chemical_properties_biological  'BK channel-opening activity'
_symmetry_cell_setting           orthorhombic
_symmetry_space_group_name_H-M   'P 21 21 21'
_symmetry_Int_Tables_number      19
_space_group_name_Hall           'P 2ac 2ab'
loop_
_symmetry_equiv_pos_site_id
_symmetry_equiv_pos_as_xyz
1 x,y,z
2 1/2-x,-y,1/2+z
3 -x,1/2+y,1/2-z
4 1/2+x,1/2-y,-z
_cell_length_a                   9.5918(19)
_cell_length_b                   9.6056(19)
_cell_length_c                   28.900(6)
_cell_angle_alpha                90
_cell_angle_beta                 90
_cell_angle_gamma                90
_cell_volume                     2662.7
_exptl_crystal_colour            colorless
_exptl_crystal_description       block
_cell_formula_units_Z            4
loop_
_atom_site_label
_atom_site_type_symbol
_atom_site_fract_x
_atom_site_fract_y
_atom_site_fract_z
Br1 Br 0.73550(13) 0.73493(12) 0.13898(4)
C1 C 0.4149(10) 0.7422(17) 0.2889(4)
H1 H 0.4358 0.6560 0.2729
H2 H 0.3828 0.8095 0.2663
C2 C 0.2992(12) 0.7166(15) 0.3254(4)
H3 H 0.2785 0.8026 0.3416
H4 H 0.2147 0.6851 0.3102
C3 C 0.3488(12) 0.6069(14) 0.3597(5)
H5 H 0.2736 0.5870 0.3811
H6 H 0.3689 0.5218 0.3429
C4 C 0.4736(12) 0.6468(11) 0.3864(3)
C5 C 0.5924(10) 0.6975(11) 0.3530(4)
H7 H 0.6234 0.6127 0.3372
C6 C 0.7239(8) 0.7598(9) 0.3723(3)
H8 H 0.6945 0.8332 0.3932
H9 H 0.7657 0.6882 0.3915
C7 C 0.8270(13) 0.8129(11) 0.3473(3)
C8 C 0.8054(11) 0.8105(11) 0.2966(3)
C9 C 0.6690(11) 0.7953(10) 0.2788(3)
C10 C 0.5476(11) 0.7973(11) 0.3130(3)
C11 C 0.6561(11) 0.7772(13) 0.2310(3)
H10 H 0.5682 0.7653 0.2180
C12 C 0.7744(11) 0.7769(11) 0.2024(3)
C13 C 0.9065(13) 0.8019(12) 0.2181(4)
C14 C 0.9190(11) 0.8171(11) 0.2653(4)
H11 H 1.0075 0.8326 0.2775
C15 C 1.0316(13) 0.8116(13) 0.1865(4)
H12 H 1.0001 0.8045 0.1543
C16 C 1.101(3) 0.954(2) 0.1938(10)
H13 H 1.0749 1.0155 0.1691
H14 H 1.2002 0.9431 0.1943
H15 H 1.0703 0.9926 0.2228
C17 C 1.1349(19) 0.697(2) 0.1961(6)
H16 H 1.1792 0.7128 0.2254
H17 H 1.2042 0.6950 0.1721
H18 H 1.0872 0.6088 0.1968
C18 C 0.5237(11) 0.5176(12) 0.4110(3)
C19 C 0.4331(13) 0.7568(14) 0.4224(4)
H19 H 0.4790 0.8430 0.4153
H20 H 0.4609 0.7258 0.4526
H21 H 0.3340 0.7704 0.4218
C20 C 0.5309(16) 0.9504(13) 0.3282(4)
H22 H 0.5902 0.9682 0.3543
H23 H 0.4357 0.9674 0.3367
H24 H 0.5566 1.0107 0.3032
C21 C 1.0429(11) 0.9518(13) 0.4292(3)
H25 H 1.1237 0.9627 0.4094
H26 H 1.0754 0.9228 0.4595
C22 C 0.9699(12) 1.0886(13) 0.4335(4)
H27 H 1.0336 1.1571 0.4462
H28 H 0.9411 1.1202 0.4031
C23 C 0.7212(13) 1.1239(11) 0.4512(4)
C24 C 0.6061(13) 1.0883(13) 0.4842(4)
C25 C 0.6129(12) 0.9986(17) 0.5265(4)
H29 H 0.6893 0.9521 0.5389
C26 C 0.481(2) 1.002(3) 0.5420(9)
H30 H 0.4623 0.9681 0.5714
C27 C 0.3747(18) 1.0536(18) 0.5163(7)
H31 H 0.2805 1.0491 0.5238
N1 N 0.9433(9) 0.8674(10) 0.3607(3)
N2 N 0.8474(10) 1.0765(12) 0.4636(3)
H32 H 0.8568 1.0376 0.4902
O1 O 0.5032(10) 0.4956(10) 0.4521(3)
O2 O 0.5922(10) 0.4278(10) 0.3853(3)
H33 H 0.6119 0.3592 0.4009
O3 O 0.9544(9) 0.8468(9) 0.4105(3)
O4 O 0.6975(9) 1.1910(9) 0.4163(3)
S1 S 0.4405(5) 1.1248(5) 0.46995(15)
loop_
_geom_bond_atom_site_label_1
_geom_bond_atom_site_label_2
_geom_bond_site_symmetry_1
_geom_bond_site_symmetry_2
Br1 C12 1_555 1_555
C1 H1 1_555 1_555
H2 C1 1_555 1_555
C2 C1 1_555 1_555
H3 C2 1_555 1_555
H4 C2 1_555 1_555
C3 C2 1_555 1_555
H5 C3 1_555 1_555
H6 C3 1_555 1_555
C4 C3 1_555 1_555
C5 C4 1_555 1_555
H7 C5 1_555 1_555
C6 C5 1_555 1_555
H8 C6 1_555 1_555
H9 C6 1_555 1_555
C7 C6 1_555 1_555
C8 C7 1_555 1_555
C9 C8 1_555 1_555
C10 C1 1_555 1_555
C11 C9 1_555 1_555
H10 C11 1_555 1_555
C12 C11 1_555 1_555
C13 C12 1_555 1_555
C14 C8 1_555 1_555
H11 C14 1_555 1_555
C15 C13 1_555 1_555
H12 C15 1_555 1_555
C16 C15 1_555 1_555
H13 C16 1_555 1_555
H14 C16 1_555 1_555
H15 C16 1_555 1_555
C17 C15 1_555 1_555
H16 C17 1_555 1_555
H17 C17 1_555 1_555
H18 C17 1_555 1_555
C18 C4 1_555 1_555
C19 C4 1_555 1_555
H19 C19 1_555 1_555
H20 C19 1_555 1_555
H21 C19 1_555 1_555
C20 C10 1_555 1_555
H22 C20 1_555 1_555
H23 C20 1_555 1_555
H24 C20 1_555 1_555
C21 H25 1_555 1_555
H26 C21 1_555 1_555
C22 C21 1_555 1_555
H27 C22 1_555 1_555
H28 C22 1_555 1_555
C23 C24 1_555 1_555
C24 C25 1_555 1_555
C25 H29 1_555 1_555
C26 C25 1_555 1_555
H30 C26 1_555 1_555
C27 C26 1_555 1_555
H31 C27 1_555 1_555
N1 C7 1_555 1_555
N2 C22 1_555 1_555
H32 N2 1_555 1_555
O1 C18 1_555 1_555
O2 C18 1_555 1_555
H33 O2 1_555 1_555
O3 C21 1_555 1_555
O4 C23 1_555 1_555
S1 C24 1_555 1_555
C5 C10 1_555 1_555
C9 C10 1_555 1_555
C13 C14 1_555 1_555
C23 N2 1_555 1_555
C27 S1 1_555 1_555
N1 O3 1_555 1_555

#END
