
#######################################################################
#
#                 Cambridge Crystallographic Data Centre
#                                CCDC 
#
#######################################################################
#
# If this CIF has been generated from an entry in the Cambridge 
# Structural Database, then it will include bibliographic, chemical, 
# crystal, experimental, refinement or atomic coordinate data resulting 
# from the CCDC's data processing and validation procedures.
#
#######################################################################

data_PYRGLU11
_chemical_name_common            5-oxoproline
_chemical_formula_moiety         'C5 H7 N1 O3'
_chemical_name_systematic        'rac-pyroglutamic acid'
_symmetry_cell_setting           monoclinic
_symmetry_space_group_name_H-M   'P 21/c'
_symmetry_Int_Tables_number      14
_space_group_name_Hall           '-P 2ybc'
loop_
_symmetry_equiv_pos_site_id
_symmetry_equiv_pos_as_xyz
1 x,y,z
2 -x,1/2+y,1/2-z
3 -x,-y,-z
4 x,1/2-y,1/2+z
_cell_length_a                   7.8818(14)
_cell_length_b                   8.7859(15)
_cell_length_c                   8.9967(16)
_cell_angle_alpha                90
_cell_angle_beta                 115.426(2)
_cell_angle_gamma                90
_cell_volume                     562.665
_exptl_crystal_colour            colorless
_exptl_crystal_description       block
_cell_formula_units_Z            4
loop_
_atom_site_label
_atom_site_type_symbol
_atom_site_fract_x
_atom_site_fract_y
_atom_site_fract_z
O1 O -0.03298(8) 0.54816(7) 0.30877(7)
O2 O 0.61969(8) 0.89271(7) 0.71743(7)
H1 H 0.7336 0.9020 0.7376
O3 O 0.63607(9) 0.68783(8) 0.57476(8)
N1 N 0.26376(9) 0.61340(7) 0.49563(8)
C1 C 0.07847(10) 0.63750(8) 0.41329(8)
C2 C 0.55254(10) 0.76656(8) 0.63317(9)
C3 C 0.21957(10) 0.86338(8) 0.56716(9)
H2 H 0.2207 0.9178 0.6639
H3 H 0.2502 0.9362 0.4983
C4 C 0.35897(10) 0.72848(8) 0.62076(8)
H4 H 0.3721 0.6900 0.7298
C5 C 0.02820(10) 0.78709(9) 0.46758(10)
H5 H -0.0395 0.7700 0.5368
H6 H -0.0511 0.8501 0.3715
H7 H 0.310(2) 0.5236(17) 0.4912(18)
loop_
_geom_bond_atom_site_label_1
_geom_bond_atom_site_label_2
_geom_bond_site_symmetry_1
_geom_bond_site_symmetry_2
O1 C1 1_555 1_555
O2 H1 1_555 1_555
O3 C2 1_555 1_555
N1 C1 1_555 1_555
C1 C5 1_555 1_555
C2 O2 1_555 1_555
C3 H2 1_555 1_555
H3 C3 1_555 1_555
C4 N1 1_555 1_555
H4 C4 1_555 1_555
C5 C3 1_555 1_555
H5 C5 1_555 1_555
H6 C5 1_555 1_555
H7 N1 1_555 1_555
C2 C4 1_555 1_555
C3 C4 1_555 1_555

#END
