
#######################################################################
#
#                 Cambridge Crystallographic Data Centre
#                                CCDC 
#
#######################################################################
#
# If this CIF has been generated from an entry in the Cambridge 
# Structural Database, then it will include bibliographic, chemical, 
# crystal, experimental, refinement or atomic coordinate data resulting 
# from the CCDC's data processing and validation procedures.
#
#######################################################################

data_QABHOT
_chemical_formula_moiety         'C12 H18 Br1 N1 O2 S1'
_chemical_name_systematic        
(R)-N-((R)-1-(4-Bromophenyl)-2-hydroxyethyl)-2-methylpropane-2-sulfinamide
_symmetry_cell_setting           orthorhombic
_symmetry_space_group_name_H-M   'P 21 21 2'
_symmetry_Int_Tables_number      18
_space_group_name_Hall           'P 2 2ab'
loop_
_symmetry_equiv_pos_site_id
_symmetry_equiv_pos_as_xyz
1 x,y,z
2 -x,-y,z
3 1/2-x,1/2+y,-z
4 1/2+x,1/2-y,-z
_cell_length_a                   11.5318(5)
_cell_length_b                   19.1460(8)
_cell_length_c                   6.3985(2)
_cell_angle_alpha                90
_cell_angle_beta                 90
_cell_angle_gamma                90
_cell_volume                     1412.71
_exptl_crystal_colour            white
_exptl_crystal_description       rod
_cell_formula_units_Z            4
_exptl_crystal_recrystallization_method dichloromethane/n-hexane
loop_
_atom_site_label
_atom_site_type_symbol
_atom_site_fract_x
_atom_site_fract_y
_atom_site_fract_z
Br1 Br 0.601336(18) 0.910245(11) -0.18536(3)
S1 S 0.69970(3) 0.59103(2) 0.43550(6)
O1 O 0.34229(12) 0.60548(7) 0.5669(2)
O2 O 0.68246(13) 0.51719(6) 0.36447(18)
N1 N 0.57355(13) 0.62824(8) 0.4967(2)
C1 C 0.37509(15) 0.65797(9) 0.4220(3)
H1 H 0.3782 0.7036 0.4945
H2 H 0.3156 0.6612 0.3108
C2 C 0.49384(15) 0.64287(8) 0.3220(3)
H3 H 0.4881 0.6009 0.2296
C3 C 0.53002(14) 0.70601(8) 0.1936(3)
C4 C 0.60032(15) 0.75830(9) 0.2752(3)
H4 H 0.6333 0.7526 0.4103
C5 C 0.62323(16) 0.81889(10) 0.1622(3)
H5 H 0.6718 0.8543 0.2183
C6 C 0.57390(15) 0.82641(9) -0.0332(3)
C7 C 0.50469(17) 0.77513(9) -0.1201(3)
H6 H 0.4723 0.7811 -0.2554
C8 C 0.48329(15) 0.71464(9) -0.0059(3)
H7 H 0.4364 0.6788 -0.0643
C9 C 0.75749(14) 0.58562(10) 0.7042(3)
C10 C 0.78217(19) 0.65958(10) 0.7779(4)
H8 H 0.8131 0.6583 0.9205
H9 H 0.7102 0.6868 0.7761
H10 H 0.8391 0.6814 0.6848
C11 C 0.87007(17) 0.54387(11) 0.6810(3)
H11 H 0.9068 0.5386 0.8182
H12 H 0.9229 0.5687 0.5867
H13 H 0.8526 0.4977 0.6232
C12 C 0.67362(17) 0.54780(10) 0.8489(3)
H14 H 0.7066 0.5457 0.9900
H15 H 0.6606 0.5003 0.7971
H16 H 0.5997 0.5730 0.8528
H17 H 0.335(2) 0.5727(13) 0.515(4)
H18 H 0.5397(19) 0.6054(11) 0.579(3)
loop_
_geom_bond_atom_site_label_1
_geom_bond_atom_site_label_2
_geom_bond_site_symmetry_1
_geom_bond_site_symmetry_2
Br1 C6 1_555 1_555
S1 O2 1_555 1_555
O1 C1 1_555 1_555
N1 S1 1_555 1_555
C1 H1 1_555 1_555
H2 C1 1_555 1_555
C2 N1 1_555 1_555
H3 C2 1_555 1_555
C3 C2 1_555 1_555
C4 C3 1_555 1_555
H4 C4 1_555 1_555
C5 C4 1_555 1_555
H5 C5 1_555 1_555
C6 C5 1_555 1_555
C7 C6 1_555 1_555
H6 C7 1_555 1_555
C8 C3 1_555 1_555
H7 C8 1_555 1_555
C9 S1 1_555 1_555
C10 C9 1_555 1_555
H8 C10 1_555 1_555
H9 C10 1_555 1_555
H10 C10 1_555 1_555
C11 C9 1_555 1_555
H11 C11 1_555 1_555
H12 C11 1_555 1_555
H13 C11 1_555 1_555
C12 C9 1_555 1_555
H14 C12 1_555 1_555
H15 C12 1_555 1_555
H16 C12 1_555 1_555
H17 O1 1_555 1_555
H18 N1 1_555 1_555
C1 C2 1_555 1_555
C7 C8 1_555 1_555

#END
