
#######################################################################
#
#                 Cambridge Crystallographic Data Centre
#                                CCDC 
#
#######################################################################
#
# If this CIF has been generated from an entry in the Cambridge 
# Structural Database, then it will include bibliographic, chemical, 
# crystal, experimental, refinement or atomic coordinate data resulting 
# from the CCDC's data processing and validation procedures.
#
#######################################################################

data_QABPUG
_chemical_formula_moiety         
'C40 H44 N24 O12,C18 H28 N4 2+,2(Cl1 1-),19(H2 O1)'
_chemical_name_systematic        
"\a,\a',\f,\f'-Tetramethylcucurbit(6)uril N,N'-bis(3-pyridylmethyl)-1,6-hexanediamine dichloride nonadecahydrate"
_symmetry_cell_setting           triclinic
_symmetry_space_group_name_H-M   'P -1'
_symmetry_Int_Tables_number      2
_space_group_name_Hall           '-P 1'
loop_
_symmetry_equiv_pos_site_id
_symmetry_equiv_pos_as_xyz
1 x,y,z
2 -x,-y,-z
_cell_length_a                   12.199(2)
_cell_length_b                   12.238(2)
_cell_length_c                   26.488(5)
_cell_angle_alpha                88.939(2)
_cell_angle_beta                 85.608(2)
_cell_angle_gamma                84.498(2)
_cell_volume                     3924.4
_cell_formula_units_Z            2
loop_
_atom_site_label
_atom_site_type_symbol
_atom_site_fract_x
_atom_site_fract_y
_atom_site_fract_z
O2 O 0.3021(4) 0.1676(4) 0.23306(18)
O3 O 0.5272(4) 0.8375(4) 0.16680(17)
O4 O 0.4494(3) 0.6943(4) 0.4339(2)
O5 O 0.1695(4) 0.4380(3) 0.0799(3)
O6 O 0.1613(6) 0.0583(5) 0.30612(13)
O7 O 0.6129(4) 0.6913(4) 0.9497(2)
O8 O 0.5333(5) 0.0389(4) 0.21692(19)
O9 O 0.8884(6) 0.0778(4) 0.3197(2)
O10 O 0.2500(5) 0.3885(5) 0.1840(3)
O11 O 0.6661(9) -0.0221(6) 0.3090(3)
O12 O 0.4117(6) 0.5322(6) 0.1691(5)
O13 O 0.5617(5) 0.0040(5) 0.4265(3)
O16 O 0.4043(11) 0.7194(14) 0.2344(4)
O17 O 0.2776(10) 0.8554(13) 0.2875(6)
O18 O 0.5212(10) 0.7304(9) 0.3206(5)
O19 O 0.6897(10) 0.0992(13) 0.5439(11)
O21 O 0.680(2) 0.826(3) 0.2506(6)
Cl1 Cl 0.2199(3) 0.8669(2) 0.57274(13)
Cl2 Cl 0.5061(3) 0.4457(2) 0.94262(15)
C1 C 0.1177(3) 0.7077(3) 0.90183(13)
C2 C 0.2057(3) 0.8130(3) 0.83763(13)
C3 C 0.2890(3) 0.7774(3) 0.87960(13)
C4 C 0.2590(3) 0.9709(3) 0.87561(13)
C5 C 0.2599(3) 0.6591(3) 0.96038(13)
H1 H 0.3322 0.6217 0.9513
H2 H 0.2103 0.6035 0.9698
C6 C 0.3999(3) 0.8991(3) 0.93164(13)
H3 H 0.4264 0.9705 0.9249
H4 H 0.4614 0.8440 0.9243
C7 C 0.2033(3) 0.7165(3) 1.04839(13)
C8 C 0.3622(3) 0.7869(3) 1.01165(13)
H5 H 0.4315 0.7406 1.0044
C9 C 0.3464(3) 0.8199(3) 1.06809(13)
H6 H 0.4068 0.7862 1.0872
C10 C 0.3599(3) 0.9780(3) 1.01729(14)
C11 C 0.2063(3) 0.7690(3) 1.13833(13)
H7 H 0.1671 0.7039 1.1434
H8 H 0.2710 0.7590 1.1577
C12 C 0.3327(3) 1.0090(3) 1.10932(14)
H9 H 0.3604 1.0787 1.0996
H10 H 0.3774 0.9761 1.1354
C13 C 0.0228(3) 0.8648(3) 1.16117(12)
C14 C 0.1734(3) 0.9650(3) 1.17188(13)
H11 H 0.2236 0.9548 1.1991
C15 C 0.0648(3) 1.0352(3) 1.18964(13)
H12 H 0.0611 1.0513 1.2259
C16 C 0.1627(3) 1.1326(3) 1.12734(13)
C17 C 0.1365(3) 1.0082(3) 0.80757(13)
H13 H 0.1440 0.9759 0.7742
H14 H 0.1726 1.0755 0.8054
C18 C 0.0043(3) 0.7668(3) 0.83149(15)
H15 H -0.0348 0.7040 0.8423
H16 H 0.0222 0.7610 0.7953
C19 C 0.2446(3) 0.7775(3) 0.78385(14)
H17 H 0.2527 0.6988 0.7823
H18 H 0.3144 0.8051 0.7744
H19 H 0.1913 0.8063 0.7610
C20 C 0.3948(3) 0.7076(3) 0.86040(16)
H20 H 0.3762 0.6386 0.8485
H21 H 0.4425 0.6948 0.8875
H22 H 0.4320 0.7458 0.8332
N1 N 0.1063(2) 0.7615(2) 0.85649(11)
N2 N 0.2214(2) 0.7181(2) 0.91653(11)
N3 N 0.1920(2) 0.9331(2) 0.84233(11)
N4 N 0.3144(2) 0.8841(2) 0.89799(11)
N5 N 0.2675(2) 0.7280(2) 1.00471(11)
N6 N 0.2422(2) 0.7785(2) 1.08497(11)
N7 N 0.3631(2) 0.8913(2) 0.98510(11)
N8 N 0.3457(2) 0.9385(2) 1.06609(11)
N9 N 0.1362(2) 0.8619(2) 1.15784(11)
N10 N 0.0200(2) 1.0347(2) 0.82234(11)
N11 N 0.2193(2) 1.0294(2) 1.13034(11)
N12 N -0.0688(2) 0.8662(2) 0.84130(11)
O24 O 0.0470(2) 0.65635(19) 0.92469(10)
O25 O 0.1245(2) 0.66196(19) 1.05461(10)
O26 O -0.0294(2) 0.78835(19) 1.15159(9)
O27 O 0.2683(2) 1.0674(2) 0.88359(10)
O28 O 0.3698(2) 1.0735(2) 1.00560(10)
O29 O 0.1917(2) 1.2084(2) 1.10062(10)
C1A C -0.1177(3) 1.2923(3) 1.09817(13)
C2A C -0.2057(3) 1.1870(3) 1.16237(13)
C3A C -0.2890(3) 1.2226(3) 1.12040(13)
C4A C -0.2590(3) 1.0291(3) 1.12439(13)
C5A C -0.2599(3) 1.3409(3) 1.03962(13)
H1A H -0.3322 1.3783 1.0487
H2A H -0.2103 1.3965 1.0302
C6A C -0.3999(3) 1.1009(3) 1.06836(13)
H3A H -0.4264 1.0295 1.0751
H4A H -0.4614 1.1560 1.0757
C7A C -0.2033(3) 1.2835(3) 0.95161(13)
C8A C -0.3622(3) 1.2131(3) 0.98835(13)
H5A H -0.4315 1.2594 0.9956
C9A C -0.3464(3) 1.1801(3) 0.93191(13)
H6A H -0.4068 1.2138 0.9128
C10A C -0.3599(3) 1.0220(3) 0.98271(14)
C11A C -0.2063(3) 1.2310(3) 0.86167(13)
H7A H -0.1671 1.2961 0.8566
H8A H -0.2710 1.2410 0.8423
C12A C -0.3327(3) 0.9910(3) 0.89068(14)
H9A H -0.3604 0.9213 0.9004
H10A H -0.3774 1.0239 0.8646
C13A C -0.0228(3) 1.1352(3) 0.83883(12)
C14A C -0.1734(3) 1.0350(3) 0.82812(13)
H11A H -0.2236 1.0452 0.8009
C15A C -0.0648(3) 0.9648(3) 0.81036(13)
H12A H -0.0611 0.9487 0.7741
C16A C -0.1627(3) 0.8674(3) 0.87266(13)
C17A C -0.1365(3) 0.9918(3) 1.19243(13)
H13A H -0.1440 1.0241 1.2258
H14A H -0.1726 0.9245 1.1946
C18A C -0.0043(3) 1.2332(3) 1.16851(15)
H15A H 0.0348 1.2960 1.1577
H16A H -0.0222 1.2390 1.2047
C19A C -0.2446(3) 1.2225(3) 1.21615(14)
H17A H -0.2527 1.3012 1.2177
H18A H -0.3144 1.1949 1.2256
H19A H -0.1913 1.1937 1.2390
C20A C -0.3948(3) 1.2924(3) 1.13960(16)
H20A H -0.3762 1.3614 1.1515
H21A H -0.4425 1.3052 1.1125
H22A H -0.4320 1.2542 1.1668
N1A N -0.1063(2) 1.2385(2) 1.14351(11)
N2A N -0.2214(2) 1.2819(2) 1.08347(11)
N3A N -0.1920(2) 1.0669(2) 1.15767(11)
N4A N -0.3144(2) 1.1159(2) 1.10201(11)
N5A N -0.2675(2) 1.2720(2) 0.99529(11)
N6A N -0.2422(2) 1.2215(2) 0.91503(11)
N7A N -0.3631(2) 1.1087(2) 1.01490(11)
N8A N -0.3457(2) 1.0615(2) 0.93391(11)
N9A N -0.1362(2) 1.1381(2) 0.84216(11)
N10A N -0.0200(2) 0.9653(2) 1.17766(11)
N11A N -0.2193(2) 0.9706(2) 0.86966(11)
N12A N 0.0688(2) 1.1338(2) 1.15870(11)
O24A O -0.0470(2) 1.34365(19) 1.07531(10)
O25A O -0.1245(2) 1.33804(19) 0.94539(10)
O26A O 0.0294(2) 1.21165(19) 0.84841(9)
O27A O -0.2683(2) 0.9326(2) 1.11641(10)
O28A O -0.3698(2) 0.9265(2) 0.99440(10)
O29A O -0.1917(2) 0.7916(2) 0.89938(10)
C21 C 0.3157(3) 0.4171(3) 0.40802(13)
C22 C 0.2465(3) 0.2534(3) 0.38374(13)
H23 H 0.2937 0.1904 0.3695
C23 C 0.2231(3) 0.3436(3) 0.34299(13)
H24 H 0.2610 0.3231 0.3101
C24 C 0.0572(3) 0.2754(3) 0.37336(14)
C25 C 0.2725(3) 0.5413(3) 0.33561(14)
H25 H 0.2924 0.5248 0.3002
H26 H 0.3316 0.5786 0.3480
C26 C 0.0450(3) 0.4109(3) 0.30300(14)
H27 H -0.0212 0.3757 0.2980
H28 H 0.0904 0.4078 0.2712
C27 C 0.1583(3) 0.7000(3) 0.37276(13)
C28 C 0.0831(3) 0.6154(3) 0.30523(12)
C29 C 0.0036(3) 0.7201(3) 0.32382(12)
C30 C -0.0895(3) 0.5589(3) 0.33579(12)
C31 C 0.0289(3) 0.8626(3) 0.39179(14)
H29 H 0.0949 0.8900 0.4030
H30 H -0.0021 0.9158 0.3679
C32 C -0.2004(3) 0.7298(3) 0.35983(13)
H31 H -0.2609 0.6864 0.3545
H32 H -0.2118 0.7977 0.3406
C33 C -0.0221(3) 0.8608(3) 0.48391(13)
C34 C -0.1677(3) 0.8568(3) 0.43156(13)
H33 H -0.1968 0.9210 0.4124
C35 C -0.2140(3) 0.8607(3) 0.48766(14)
H34 H -0.2630 0.9278 0.4947
C36 C -0.2723(3) 0.7075(3) 0.44897(13)
C37 C 0.3510(3) 0.2551(3) 0.46361(14)
H35 H 0.4071 0.2989 0.4744
H36 H 0.3877 0.1848 0.4525
C38 C 0.1196(3) 0.1259(3) 0.43059(14)
H37 H 0.1782 0.0690 0.4211
H38 H 0.0504 0.1000 0.4224
C39 C 0.1268(3) 0.6187(3) 0.24988(14)
H39 H 0.1722 0.6784 0.2445
H40 H 0.0659 0.6292 0.2288
H41 H 0.1699 0.5508 0.2414
C40 C -0.0181(3) 0.8082(3) 0.28374(14)
H42 H 0.0495 0.8391 0.2732
H43 H -0.0713 0.8649 0.2975
H44 H -0.0463 0.7764 0.2551
N13 N 0.3011(2) 0.3094(2) 0.42129(11)
N14 N 0.2650(2) 0.4400(2) 0.36320(11)
N15 N 0.1378(2) 0.2237(2) 0.40093(11)
N16 N 0.1052(2) 0.3501(2) 0.34125(12)
N17 N 0.1726(2) 0.6151(2) 0.33905(11)
N18 N 0.0601(2) 0.7593(2) 0.36572(11)
N19 N 0.0139(2) 0.5252(2) 0.31586(11)
N20 N -0.0985(2) 0.6707(2) 0.34061(11)
N21 N -0.0498(2) 0.8550(2) 0.43488(11)
N22 N 0.1160(2) 0.1425(2) 0.48470(11)
N23 N -0.2037(2) 0.7556(2) 0.41312(11)
N24 N 0.2741(2) 0.2367(2) 0.50667(11)
O30 O 0.36487(19) 0.4787(2) 0.43089(9)
O31 O 0.2235(2) 0.7203(2) 0.40324(10)
O32 O 0.0713(2) 0.8695(2) 0.49711(10)
O33 O -0.0400(2) 0.2594(2) 0.37700(11)
O34 O -0.16412(19) 0.5001(2) 0.34638(9)
O35 O -0.3234(2) 0.6282(2) 0.44201(10)
C21A C -0.3157(3) 0.5829(3) 0.59198(13)
C22A C -0.2465(3) 0.7466(3) 0.61626(13)
H23A H -0.2937 0.8096 0.6305
C23A C -0.2231(3) 0.6564(3) 0.65701(13)
H24A H -0.2610 0.6769 0.6899
C24A C -0.0572(3) 0.7246(3) 0.62664(14)
C25A C -0.2725(3) 0.4587(3) 0.66439(14)
H25A H -0.2924 0.4752 0.6998
H26A H -0.3316 0.4214 0.6520
C26A C -0.0450(3) 0.5891(3) 0.69700(14)
H27A H 0.0212 0.6243 0.7020
H28A H -0.0904 0.5922 0.7288
C27A C -0.1583(3) 0.3000(3) 0.62724(13)
C28A C -0.0831(3) 0.3846(3) 0.69477(12)
C29A C -0.0036(3) 0.2799(3) 0.67618(12)
C30A C 0.0895(3) 0.4411(3) 0.66421(12)
C31A C -0.0289(3) 0.1374(3) 0.60821(14)
H29A H -0.0949 0.1100 0.5970
H30A H 0.0021 0.0842 0.6321
C32A C 0.2004(3) 0.2702(3) 0.64017(13)
H31A H 0.2609 0.3136 0.6455
H32A H 0.2118 0.2023 0.6594
C33A C 0.0221(3) 0.1392(3) 0.51609(13)
C34A C 0.1677(3) 0.1432(3) 0.56844(13)
H33A H 0.1968 0.0790 0.5876
C35A C 0.2140(3) 0.1393(3) 0.51234(14)
H34A H 0.2630 0.0722 0.5053
C36A C 0.2723(3) 0.2925(3) 0.55103(13)
C37A C -0.3510(3) 0.7449(3) 0.53639(14)
H35A H -0.4071 0.7011 0.5256
H36A H -0.3877 0.8152 0.5475
C38A C -0.1196(3) 0.8741(3) 0.56941(14)
H37A H -0.1782 0.9310 0.5789
H38A H -0.0504 0.9000 0.5776
C39A C -0.1268(3) 0.3813(3) 0.75012(14)
H39A H -0.1722 0.3216 0.7555
H40A H -0.0659 0.3708 0.7712
H41A H -0.1699 0.4492 0.7586
C40A C 0.0181(3) 0.1918(3) 0.71626(14)
H42A H -0.0495 0.1609 0.7268
H43A H 0.0713 0.1351 0.7025
H44A H 0.0463 0.2236 0.7449
N13A N -0.3011(2) 0.6906(2) 0.57871(11)
N14A N -0.2650(2) 0.5600(2) 0.63680(11)
N15A N -0.1378(2) 0.7763(2) 0.59907(11)
N16A N -0.1052(2) 0.6499(2) 0.65875(12)
N17A N -0.1726(2) 0.3849(2) 0.66095(11)
N18A N -0.0601(2) 0.2407(2) 0.63428(11)
N19A N -0.0139(2) 0.4748(2) 0.68414(11)
N20A N 0.0985(2) 0.3293(2) 0.65939(11)
N21A N 0.0498(2) 0.1450(2) 0.56512(11)
N22A N -0.1160(2) 0.8575(2) 0.51530(11)
N23A N 0.2037(2) 0.2444(2) 0.58688(11)
N24A N -0.2741(2) 0.7633(2) 0.49333(11)
O30A O -0.36487(19) 0.5213(2) 0.56911(9)
O31A O -0.2235(2) 0.2797(2) 0.59676(10)
O32A O -0.0713(2) 0.1305(2) 0.50289(10)
O33A O 0.0400(2) 0.7406(2) 0.62300(11)
O34A O 0.16412(19) 0.4999(2) 0.65362(9)
O35A O 0.3234(2) 0.3718(2) 0.55799(10)
C41 C 0.9095(4) 0.5461(3) 0.15525(17)
C42 C 0.7881(5) 0.5216(4) 0.22239(18)
H45 H 0.7740 0.5049 0.2565
C43 C 0.7011(5) 0.5523(5) 0.1949(2)
H46 H 0.6291 0.5534 0.2094
C44 C 0.7220(4) 0.5826(5) 0.1440(2)
H47 H 0.6639 0.6026 0.1239
C45 C 0.8281(3) 0.5823(3) 0.12445(14)
C46 C 0.8555(3) 0.6191(3) 0.07058(14)
H48 H 0.9257 0.5817 0.0579
H49 H 0.7992 0.5995 0.0494
C47 C 0.8946(3) 0.7824(3) 0.01563(15)
H50 H 0.8353 0.7750 -0.0060
H51 H 0.9594 0.7376 0.0017
C48 C 0.9196(6) 0.9015(4) 0.0154(3)
C49 C 1.0103(8) 0.9291(7) 0.0278(4)
C50 C 0.9744(9) 0.9456(8) -0.0269(3)
N25 N 0.8907(4) 0.5139(3) 0.20380(16)
N26 N 0.8621(3) 0.7408(2) 0.06770(11)
H59 H 0.9115 0.7587 0.0890
H60 H 0.7959 0.7748 0.0783
C41A C 1.0905(4) 1.4539(3) -0.15525(17)
C42A C 1.2119(5) 1.4784(4) -0.22239(18)
H45A H 1.2260 1.4951 -0.2565
C43A C 1.2989(5) 1.4477(5) -0.1949(2)
H46A H 1.3709 1.4466 -0.2094
C44A C 1.2780(4) 1.4174(5) -0.1440(2)
H47A H 1.3361 1.3974 -0.1239
C45A C 1.1719(3) 1.4177(3) -0.12445(14)
C46A C 1.1445(3) 1.3809(3) -0.07058(14)
H48A H 1.0743 1.4183 -0.0579
H49A H 1.2008 1.4005 -0.0494
C47A C 1.1054(3) 1.2176(3) -0.01563(15)
H50A H 1.1647 1.2250 0.0060
H51A H 1.0406 1.2624 -0.0017
C48A C 1.0804(6) 1.0985(4) -0.0154(3)
C49A C 0.9897(8) 1.0709(7) -0.0278(4)
C50A C 1.0256(9) 1.0544(8) 0.0269(3)
N25A N 1.1093(4) 1.4861(3) -0.20380(16)
N26A N 1.1379(3) 1.2592(2) -0.06770(11)
H59A H 1.0885 1.2413 -0.0890
H60A H 1.2041 1.2252 -0.0783
C51 C 0.5802(3) 0.4587(4) 0.34781(18)
C52 C 0.5132(4) 0.3708(7) 0.2864(2)
H52 H 0.4863 0.3726 0.2544
C53 C 0.5223(4) 0.2665(6) 0.3119(2)
H53 H 0.5006 0.2035 0.2980
C54 C 0.5663(3) 0.2663(4) 0.35948(19)
H54 H 0.5754 0.2017 0.3784
C55 C 0.5954(3) 0.3626(3) 0.37748(14)
C56 C 0.6350(3) 0.3704(3) 0.42979(15)
H55 H 0.5976 0.4355 0.4461
H56 H 0.6150 0.3071 0.4497
C57 C 0.7938(3) 0.3887(4) 0.48012(17)
H57 H 0.7884 0.3202 0.4987
H58 H 0.7441 0.4445 0.4977
C58 C 0.9117(4) 0.4206(5) 0.4808(3)
C59 C 0.9320(7) 0.5210(6) 0.4726(3)
C60 C 0.9477(6) 0.4520(7) 0.5250(3)
N27 N 0.5388(3) 0.4626(5) 0.30339(18)
N28 N 0.7567(2) 0.3757(2) 0.42924(12)
H61 H 0.7915 0.3138 0.4156
H62 H 0.7758 0.4325 0.4095
C51A C 1.4198(3) 0.5413(4) 0.65219(18)
C52A C 1.4868(4) 0.6292(7) 0.7136(2)
H52A H 1.5137 0.6274 0.7456
C53A C 1.4777(4) 0.7335(6) 0.6881(2)
H53A H 1.4994 0.7965 0.7020
C54A C 1.4337(3) 0.7337(4) 0.64052(19)
H54A H 1.4246 0.7983 0.6216
C55A C 1.4046(3) 0.6374(3) 0.62252(14)
C56A C 1.3650(3) 0.6296(3) 0.57021(15)
H55A H 1.4024 0.5645 0.5539
H56A H 1.3850 0.6929 0.5503
C57A C 1.2062(3) 0.6113(4) 0.51988(17)
H57A H 1.2116 0.6798 0.5013
H58A H 1.2559 0.5555 0.5023
C58A C 1.0883(4) 0.5794(5) 0.5192(3)
C59A C 1.0680(7) 0.4790(6) 0.5274(3)
C60A C 1.0523(6) 0.5480(7) 0.4750(3)
N27A N 1.4612(3) 0.5374(5) 0.69661(18)
N28A N 1.2433(2) 0.6243(2) 0.57076(12)
H61A H 1.2085 0.6862 0.5844
H62A H 1.2242 0.5675 0.5905
O1 O 0.6173(3) 0.7636(3) 0.06635(13)
O14? O 0.5678(6) 0.0562(10) 0.4740(6)
O15? O 0.5808(18) -0.073(2) 0.4032(11)
O20? O 0.6749(12) 0.0765(13) 0.6045(10)
O22? O 0.272(3) 0.199(2) 0.2265(9)
O23? O 0.451(3) 0.664(3) 0.2437(14)
loop_
_geom_bond_atom_site_label_1
_geom_bond_atom_site_label_2
_geom_bond_site_symmetry_1
_geom_bond_site_symmetry_2
C1 N1 1_555 1_555
C2 C3 1_555 1_555
C3 C20 1_555 1_555
C4 N3 1_555 1_555
C5 H1 1_555 1_555
H2 C5 1_555 1_555
C6 H3 1_555 1_555
H4 C6 1_555 1_555
C7 N5 1_555 1_555
C8 H5 1_555 1_555
C9 C8 1_555 1_555
H6 C9 1_555 1_555
C10 N7 1_555 1_555
C11 H7 1_555 1_555
H8 C11 1_555 1_555
C12 H9 1_555 1_555
H10 C12 1_555 1_555
C13 N9 1_555 1_555
C14 H11 1_555 1_555
C15 C14 1_555 1_555
H12 C15 1_555 1_555
C16 N11 1_555 1_555
C17 H13 1_555 1_555
H14 C17 1_555 1_555
C18 H15 1_555 1_555
H16 C18 1_555 1_555
C19 C2 1_555 1_555
H17 C19 1_555 1_555
H18 C19 1_555 1_555
H19 C19 1_555 1_555
C20 H20 1_555 1_555
H21 C20 1_555 1_555
H22 C20 1_555 1_555
C21 N13 1_555 1_555
C22 H23 1_555 1_555
C23 C22 1_555 1_555
H24 C23 1_555 1_555
C24 N15 1_555 1_555
C25 H25 1_555 1_555
H26 C25 1_555 1_555
C26 H27 1_555 1_555
H28 C26 1_555 1_555
C27 N17 1_555 1_555
C28 C29 1_555 1_555
C29 C40 1_555 1_555
C30 N19 1_555 1_555
C31 H29 1_555 1_555
H30 C31 1_555 1_555
C32 H31 1_555 1_555
H32 C32 1_555 1_555
C33 N21 1_555 1_555
C34 H33 1_555 1_555
C35 C34 1_555 1_555
H34 C35 1_555 1_555
C36 N23 1_555 1_555
C37 H35 1_555 1_555
H36 C37 1_555 1_555
C38 H37 1_555 1_555
H38 C38 1_555 1_555
C39 C28 1_555 1_555
H39 C39 1_555 1_555
H40 C39 1_555 1_555
H41 C39 1_555 1_555
C40 H42 1_555 1_555
H43 C40 1_555 1_555
H44 C40 1_555 1_555
C41 C45 1_555 1_555
C42 H45 1_555 1_555
C43 C42 1_555 1_555
H46 C43 1_555 1_555
C44 C43 1_555 1_555
H47 C44 1_555 1_555
C45 C44 1_555 1_555
C46 C45 1_555 1_555
H48 C46 1_555 1_555
H49 C46 1_555 1_555
C47 H50 1_555 1_555
H51 C47 1_555 1_555
C48 C47 1_555 1_555
C49 C48 1_555 1_555
C50 C48 1_555 1_555
C51 C55 1_555 1_555
C52 H52 1_555 1_555
C53 C52 1_555 1_555
H53 C53 1_555 1_555
C54 C53 1_555 1_555
H54 C54 1_555 1_555
C55 C54 1_555 1_555
C56 C55 1_555 1_555
H55 C56 1_555 1_555
H56 C56 1_555 1_555
C57 H57 1_555 1_555
H58 C57 1_555 1_555
C58 C57 1_555 1_555
C59 C58 1_555 1_555
C60 C58 1_555 1_555
N1 C2 1_555 1_555
N2 C1 1_555 1_555
N3 C2 1_555 1_555
N4 C3 1_555 1_555
N5 C5 1_555 1_555
N6 C7 1_555 1_555
N7 C6 1_555 1_555
N8 C9 1_555 1_555
N9 C11 1_555 1_555
N10 C17 1_555 1_555
N11 C12 1_555 1_555
N12 C18 1_555 1_555
N13 C22 1_555 1_555
N14 C21 1_555 1_555
N15 C22 1_555 1_555
N16 C23 1_555 1_555
N17 C25 1_555 1_555
N18 C27 1_555 1_555
N19 C26 1_555 1_555
N20 C29 1_555 1_555
N21 C31 1_555 1_555
N22 C38 1_555 1_555
N23 C32 1_555 1_555
N24 C37 1_555 1_555
N25 C41 1_555 1_555
N26 C46 1_555 1_555
H59 N26 1_555 1_555
H60 N26 1_555 1_555
N27 C51 1_555 1_555
N28 C56 1_555 1_555
H61 N28 1_555 1_555
H62 N28 1_555 1_555
O24 C1 1_555 1_555
O25 C7 1_555 1_555
O26 C13 1_555 1_555
O27 C4 1_555 1_555
O28 C10 1_555 1_555
O29 C16 1_555 1_555
O30 C21 1_555 1_555
O31 C27 1_555 1_555
O32 C33 1_555 1_555
O33 C24 1_555 1_555
O34 C30 1_555 1_555
O35 C36 1_555 1_555
C1A N1A 1_555 1_555
C2A C3A 1_555 1_555
C3A C20A 1_555 1_555
C4A N3A 1_555 1_555
C5A H1A 1_555 1_555
H2A C5A 1_555 1_555
C6A H3A 1_555 1_555
H4A C6A 1_555 1_555
C7A N5A 1_555 1_555
C8A H5A 1_555 1_555
C9A C8A 1_555 1_555
H6A C9A 1_555 1_555
C10A N7A 1_555 1_555
C11A H7A 1_555 1_555
H8A C11A 1_555 1_555
C12A H9A 1_555 1_555
H10A C12A 1_555 1_555
C13A N10 1_555 1_555
C14A H11A 1_555 1_555
C15A N10 1_555 1_555
H12A C15A 1_555 1_555
C16A N12 1_555 1_555
C17A H13A 1_555 1_555
H14A C17A 1_555 1_555
C18A H15A 1_555 1_555
H16A C18A 1_555 1_555
C19A C2A 1_555 1_555
H17A C19A 1_555 1_555
H18A C19A 1_555 1_555
H19A C19A 1_555 1_555
C20A H20A 1_555 1_555
H21A C20A 1_555 1_555
H22A C20A 1_555 1_555
C21A N13A 1_555 1_555
C22A H23A 1_555 1_555
C23A C22A 1_555 1_555
H24A C23A 1_555 1_555
C24A N15A 1_555 1_555
C25A H25A 1_555 1_555
H26A C25A 1_555 1_555
C26A H27A 1_555 1_555
H28A C26A 1_555 1_555
C27A N17A 1_555 1_555
C28A C29A 1_555 1_555
C29A C40A 1_555 1_555
C30A N19A 1_555 1_555
C31A H29A 1_555 1_555
H30A C31A 1_555 1_555
C32A H31A 1_555 1_555
H32A C32A 1_555 1_555
C33A N22 1_555 1_555
C34A H33A 1_555 1_555
C35A N22 1_555 1_555
H34A C35A 1_555 1_555
C36A N24 1_555 1_555
C37A H35A 1_555 1_555
H36A C37A 1_555 1_555
C38A H37A 1_555 1_555
H38A C38A 1_555 1_555
C39A C28A 1_555 1_555
H39A C39A 1_555 1_555
H40A C39A 1_555 1_555
H41A C39A 1_555 1_555
C40A H42A 1_555 1_555
H43A C40A 1_555 1_555
H44A C40A 1_555 1_555
C41A C45A 1_555 1_555
C42A H45A 1_555 1_555
C43A C42A 1_555 1_555
H46A C43A 1_555 1_555
C44A C43A 1_555 1_555
H47A C44A 1_555 1_555
C45A C44A 1_555 1_555
C46A C45A 1_555 1_555
H48A C46A 1_555 1_555
H49A C46A 1_555 1_555
C47A H50A 1_555 1_555
H51A C47A 1_555 1_555
C48A C47A 1_555 1_555
C49A C50 1_555 1_555
C50A C49 1_555 1_555
C51A C55A 1_555 1_555
C52A H52A 1_555 1_555
C53A C52A 1_555 1_555
H53A C53A 1_555 1_555
C54A C53A 1_555 1_555
H54A C54A 1_555 1_555
C55A C54A 1_555 1_555
C56A C55A 1_555 1_555
H55A C56A 1_555 1_555
H56A C56A 1_555 1_555
C57A H57A 1_555 1_555
H58A C57A 1_555 1_555
C58A C57A 1_555 1_555
C59A C60 1_555 1_555
C60A C59 1_555 1_555
N1A C2A 1_555 1_555
N2A C1A 1_555 1_555
N3A C2A 1_555 1_555
N4A C3A 1_555 1_555
N5A C5A 1_555 1_555
N6A C7A 1_555 1_555
N7A C6A 1_555 1_555
N8A C9A 1_555 1_555
N9A C11A 1_555 1_555
N10A C13 1_555 1_555
N11A C12A 1_555 1_555
N12A C15 1_555 1_555
N13A C22A 1_555 1_555
N14A C21A 1_555 1_555
N15A C22A 1_555 1_555
N16A C23A 1_555 1_555
N17A C25A 1_555 1_555
N18A C27A 1_555 1_555
N19A C26A 1_555 1_555
N20A C29A 1_555 1_555
N21A C31A 1_555 1_555
N22A C33 1_555 1_555
N23A C32A 1_555 1_555
N24A C35 1_555 1_555
N25A C41A 1_555 1_555
N26A C46A 1_555 1_555
H59A N26A 1_555 1_555
H60A N26A 1_555 1_555
N27A C51A 1_555 1_555
N28A C56A 1_555 1_555
H61A N28A 1_555 1_555
H62A N28A 1_555 1_555
O24A C1A 1_555 1_555
O25A C7A 1_555 1_555
O26A C13A 1_555 1_555
O27A C4A 1_555 1_555
O28A C10A 1_555 1_555
O29A C16A 1_555 1_555
O30A C21A 1_555 1_555
O31A C27A 1_555 1_555
O32A C33A 1_555 1_555
O33A C24A 1_555 1_555
O34A C30A 1_555 1_555
O35A C36A 1_555 1_555
C3 N2 1_555 1_555
C4 N4 1_555 1_555
C5 N2 1_555 1_555
C6 N4 1_555 1_555
C8 N5 1_555 1_555
C8 N7 1_555 1_555
C9 N6 1_555 1_555
C10 N8 1_555 1_555
C11 N6 1_555 1_555
C12 N8 1_555 1_555
C14 N9 1_555 1_555
C14 N11 1_555 1_555
C15 N10A 1_555 1_555
C16 N12A 1_555 1_555
C17 N3 1_555 1_555
C18 N1 1_555 1_555
C23 N14 1_555 1_555
C24 N16 1_555 1_555
C25 N14 1_555 1_555
C26 N16 1_555 1_555
C28 N17 1_555 1_555
C28 N19 1_555 1_555
C29 N18 1_555 1_555
C30 N20 1_555 1_555
C31 N18 1_555 1_555
C32 N20 1_555 1_555
C34 N21 1_555 1_555
C34 N23 1_555 1_555
C35 N22A 1_555 1_555
C36 N24A 1_555 1_555
C37 N13 1_555 1_555
C38 N15 1_555 1_555
C42 N25 1_555 1_555
C47 N26 1_555 1_555
C49 C50 1_555 1_555
C52 N27 1_555 1_555
C57 N28 1_555 1_555
C59 C60 1_555 1_555
N12 C15A 1_555 1_555
N24 C35A 1_555 1_555
C3A N2A 1_555 1_555
C4A N4A 1_555 1_555
C5A N2A 1_555 1_555
C6A N4A 1_555 1_555
C8A N5A 1_555 1_555
C8A N7A 1_555 1_555
C9A N6A 1_555 1_555
C10A N8A 1_555 1_555
C11A N6A 1_555 1_555
C12A N8A 1_555 1_555
C13A N9A 1_555 1_555
C14A C15A 1_555 1_555
C14A N9A 1_555 1_555
C14A N11A 1_555 1_555
C16A N11A 1_555 1_555
C17A N3A 1_555 1_555
C17A N10A 1_555 1_555
C18A N1A 1_555 1_555
C18A N12A 1_555 1_555
C23A N14A 1_555 1_555
C24A N16A 1_555 1_555
C25A N14A 1_555 1_555
C26A N16A 1_555 1_555
C28A N17A 1_555 1_555
C28A N19A 1_555 1_555
C29A N18A 1_555 1_555
C30A N20A 1_555 1_555
C31A N18A 1_555 1_555
C32A N20A 1_555 1_555
C33A N21A 1_555 1_555
C34A C35A 1_555 1_555
C34A N21A 1_555 1_555
C34A N23A 1_555 1_555
C36A N23A 1_555 1_555
C37A N13A 1_555 1_555
C37A N24A 1_555 1_555
C38A N15A 1_555 1_555
C38A N22A 1_555 1_555
C42A N25A 1_555 1_555
C47A N26A 1_555 1_555
C48A C49A 1_555 1_555
C48A C50A 1_555 1_555
C49A C50A 1_555 1_555
C52A N27A 1_555 1_555
C57A N28A 1_555 1_555
C58A C59A 1_555 1_555
C58A C60A 1_555 1_555
C59A C60A 1_555 1_555

#END
