
#######################################################################
#
#                 Cambridge Crystallographic Data Centre
#                                CCDC 
#
#######################################################################
#
# If this CIF has been generated from an entry in the Cambridge 
# Structural Database, then it will include bibliographic, chemical, 
# crystal, experimental, refinement or atomic coordinate data resulting 
# from the CCDC's data processing and validation procedures.
#
#######################################################################

data_QABQIW
_chemical_formula_moiety         'C30 H28 N2'
_chemical_name_systematic        
1,2-diphenyl-N,N'-bis(1-phenylethyl)ethane-1,2-diimine
_symmetry_cell_setting           monoclinic
_symmetry_space_group_name_H-M   'P 21/n'
_symmetry_Int_Tables_number      14
_space_group_name_Hall           '-P 2yn'
loop_
_symmetry_equiv_pos_site_id
_symmetry_equiv_pos_as_xyz
1 x,y,z
2 1/2-x,1/2+y,1/2-z
3 -x,-y,-z
4 1/2+x,1/2-y,1/2+z
_cell_length_a                   14.7632(7)
_cell_length_b                   9.5031(3)
_cell_length_c                   17.5055(8)
_cell_angle_alpha                90
_cell_angle_beta                 108.188(3)
_cell_angle_gamma                90
_cell_volume                     2333.25
_exptl_crystal_colour            colorless
_exptl_crystal_description       block
_cell_formula_units_Z            4
loop_
_atom_site_label
_atom_site_type_symbol
_atom_site_fract_x
_atom_site_fract_y
_atom_site_fract_z
N1 N 0.94231(7) 0.34372(11) 0.08680(6)
N2 N 0.71189(7) 0.36080(11) 0.05866(6)
C1 C 0.86414(8) 0.33447(12) 0.02941(7)
C2 C 0.85932(9) 0.24447(12) -0.04158(7)
C3 C 0.93790(10) 0.16493(13) -0.04338(8)
H1 H 0.9956(12) 0.1679(17) 0.0038(10)
C4 C 0.93486(11) 0.08613(15) -0.11063(9)
H2 H 0.9934(13) 0.030(2) -0.1102(10)
C5 C 0.85367(12) 0.08532(16) -0.17681(9)
H3 H 0.8504(12) 0.0317(19) -0.2259(11)
C6 C 0.77533(11) 0.16242(16) -0.17544(8)
H4 H 0.7175(13) 0.1620(19) -0.2210(10)
C7 C 0.77778(10) 0.24107(15) -0.10800(8)
H5 H 0.7221(12) 0.2941(18) -0.1084(10)
C8 C 0.77193(8) 0.40947(12) 0.02670(6)
C9 C 0.75080(8) 0.54477(12) -0.01849(6)
C10 C 0.66221(9) 0.60963(13) -0.03272(7)
H6 H 0.6148(11) 0.5660(16) -0.0124(9)
C11 C 0.64279(11) 0.73571(15) -0.07413(9)
H7 H 0.5806(13) 0.780(2) -0.0839(11)
C12 C 0.71125(12) 0.79892(16) -0.10181(9)
H8 H 0.6958(14) 0.884(2) -0.1314(12)
C13 C 0.79876(12) 0.73574(16) -0.08838(9)
H9 H 0.8492(13) 0.780(2) -0.1070(10)
C14 C 0.81897(10) 0.60930(15) -0.04668(8)
H10 H 0.8808(11) 0.5651(17) -0.0375(9)
C15 C 0.94800(8) 0.43584(13) 0.15545(7)
H11 H 0.8863(10) 0.4851(15) 0.1475(8)
C16 C 0.97038(8) 0.35198(13) 0.23284(7)
C17 C 1.01199(9) 0.21950(14) 0.24156(8)
H12 H 1.0265(11) 0.1768(18) 0.1962(9)
C18 C 1.03364(9) 0.14896(15) 0.31453(8)
H13 H 1.0611(11) 0.0561(18) 0.3194(9)
C19 C 1.01467(10) 0.20953(16) 0.37931(8)
H14 H 1.0298(12) 0.1583(18) 0.4313(10)
C20 C 0.97345(11) 0.34135(18) 0.37101(8)
H15 H 0.9590(13) 0.384(2) 0.4177(11)
C21 C 0.95147(10) 0.41239(16) 0.29851(8)
H16 H 0.9217(11) 0.5047(19) 0.2911(9)
C22 C 1.02659(11) 0.54356(16) 0.16194(9)
H17 H 1.0917(13) 0.492(2) 0.1703(10)
H18 H 1.0119(13) 0.597(2) 0.1122(11)
H19 H 1.0342(12) 0.608(2) 0.2098(10)
C23 C 0.73195(9) 0.22879(13) 0.10463(7)
H20 H 0.7996(11) 0.2015(16) 0.1177(8)
C24 C 0.70858(9) 0.24732(13) 0.18226(7)
C25 C 0.63155(14) 0.32467(19) 0.18663(10)
H21 H 0.5908(15) 0.375(2) 0.1384(12)
C26 C 0.6110(2) 0.3346(2) 0.25851(13)
H22 H 0.5600(19) 0.392(3) 0.2624(15)
C27 C 0.66828(16) 0.26864(19) 0.32673(10)
H23 H 0.6545(15) 0.277(2) 0.3766(12)
C28 C 0.74356(13) 0.1893(3) 0.32204(10)
H24 H 0.7845(16) 0.143(2) 0.3702(13)
C29 C 0.76343(10) 0.1787(2) 0.25047(9)
H25 H 0.8201(17) 0.124(2) 0.2491(13)
C30 C 0.67206(13) 0.11052(16) 0.05447(9)
H26 H 0.6875(13) 0.098(2) 0.0032(11)
H27 H 0.6857(13) 0.018(2) 0.0848(10)
H28 H 0.6040(14) 0.134(2) 0.0435(10)
loop_
_geom_bond_atom_site_label_1
_geom_bond_atom_site_label_2
_geom_bond_site_symmetry_1
_geom_bond_site_symmetry_2
N1 C1 1_555 1_555
N2 C8 1_555 1_555
C1 C2 1_555 1_555
C2 C3 1_555 1_555
C3 H1 1_555 1_555
C4 C3 1_555 1_555
H2 C4 1_555 1_555
C5 C4 1_555 1_555
H3 C5 1_555 1_555
C6 C5 1_555 1_555
H4 C6 1_555 1_555
C7 C2 1_555 1_555
H5 C7 1_555 1_555
C8 C1 1_555 1_555
C9 C8 1_555 1_555
C10 C9 1_555 1_555
H6 C10 1_555 1_555
C11 C10 1_555 1_555
H7 C11 1_555 1_555
C12 C11 1_555 1_555
H8 C12 1_555 1_555
C13 C12 1_555 1_555
H9 C13 1_555 1_555
C14 C9 1_555 1_555
H10 C14 1_555 1_555
C15 N1 1_555 1_555
H11 C15 1_555 1_555
C16 C15 1_555 1_555
C17 C16 1_555 1_555
H12 C17 1_555 1_555
C18 C17 1_555 1_555
H13 C18 1_555 1_555
C19 C18 1_555 1_555
H14 C19 1_555 1_555
C20 C19 1_555 1_555
H15 C20 1_555 1_555
C21 C16 1_555 1_555
H16 C21 1_555 1_555
C22 C15 1_555 1_555
H17 C22 1_555 1_555
H18 C22 1_555 1_555
H19 C22 1_555 1_555
C23 N2 1_555 1_555
H20 C23 1_555 1_555
C24 C23 1_555 1_555
C25 C24 1_555 1_555
H21 C25 1_555 1_555
C26 C25 1_555 1_555
H22 C26 1_555 1_555
C27 C26 1_555 1_555
H23 C27 1_555 1_555
C28 C27 1_555 1_555
H24 C28 1_555 1_555
C29 C24 1_555 1_555
H25 C29 1_555 1_555
C30 C23 1_555 1_555
H26 C30 1_555 1_555
H27 C30 1_555 1_555
H28 C30 1_555 1_555
C6 C7 1_555 1_555
C13 C14 1_555 1_555
C20 C21 1_555 1_555
C28 C29 1_555 1_555

#END
