
#######################################################################
#
#                 Cambridge Crystallographic Data Centre
#                                CCDC 
#
#######################################################################
#
# If this CIF has been generated from an entry in the Cambridge 
# Structural Database, then it will include bibliographic, chemical, 
# crystal, experimental, refinement or atomic coordinate data resulting 
# from the CCDC's data processing and validation procedures.
#
#######################################################################

data_QACMEP
_chemical_name_common            '1S,3R-albucidin hydrate'
_chemical_formula_moiety         'C9 H11 N5 O2,D2 O1'
_chemical_name_systematic        
'(4-(6-amino-9H-purin-9-yl)oxetan-2-yl)methanol perdeuterohydrate'
_symmetry_cell_setting           tetragonal
_symmetry_space_group_name_H-M   'P 41 21 2'
_symmetry_Int_Tables_number      92
_space_group_name_Hall           'P 4abw 2nw'
loop_
_symmetry_equiv_pos_site_id
_symmetry_equiv_pos_as_xyz
1 x,y,z
2 -x,-y,1/2+z
3 1/2+x,1/2-y,3/4-z
4 1/2-x,1/2+y,1/4-z
5 -y,-x,1/2-z
6 y,x,-z
7 1/2+y,1/2-x,3/4+z
8 1/2-y,1/2+x,1/4+z
_cell_length_a                   5.9872(9)
_cell_length_b                   5.9872(9)
_cell_length_c                   60.571(9)
_cell_angle_alpha                90
_cell_angle_beta                 90
_cell_angle_gamma                90
_cell_volume                     2171.26
_exptl_crystal_colour            colorless
_exptl_crystal_description       block
_chemical_melting_point          '435-437 K'
_cell_formula_units_Z            8
loop_
_atom_site_label
_atom_site_type_symbol
_atom_site_fract_x
_atom_site_fract_y
_atom_site_fract_z
C1 C 0.4991(9) 0.5822(10) 0.21436(8)
H1 H 0.3691(9) 0.6737(10) 0.21269(8)
C2 C 0.7000(8) 0.2933(8) 0.20467(7)
C3 C 0.8532(8) 0.3274(8) 0.22107(7)
C4 C 0.8195(9) 0.5177(9) 0.23457(8)
C5 C 0.9655(9) 0.0417(9) 0.20364(8)
H2 H 1.0519(9) -0.0842(9) 0.19894(8)
C6 C 0.6826(9) 0.0336(8) 0.17262(8)
H3 H 0.5173(9) 0.0640(8) 0.17184(8)
C7 C 0.7358(8) -0.1970(8) 0.16364(8)
H4 H 0.6030(8) -0.2948(8) 0.16128(8)
H5 H 0.8562(8) -0.2765(8) 0.17190(8)
C8 C 0.8199(8) -0.0740(8) 0.14297(7)
H6 H 0.7065(8) -0.0855(8) 0.13073(7)
C9 C 1.0505(9) -0.1139(10) 0.13473(8)
H7 H 1.0529(9) -0.2566(10) 0.12623(8)
H8 H 1.0905(9) 0.0094(10) 0.12438(8)
N1 N 0.9576(9) 0.5800(8) 0.25045(8)
H9 H 1.110(10) 0.480(10) 0.2509(9)
H10 H 0.926(10) 0.694(10) 0.2573(9)
N2 N 0.6357(8) 0.6412(8) 0.23040(7)
N3 N 0.5153(7) 0.4139(7) 0.20039(7)
N4 N 1.0200(7) 0.1670(7) 0.22041(6)
N5 N 0.7719(7) 0.1061(7) 0.19318(6)
O1 O 0.7973(7) 0.1405(6) 0.15427(5)
O2 O 1.2116(7) -0.1267(8) 0.15161(7)
H11 H 1.208(14) -0.244(14) 0.1589(12)
O3 O 0.1730(8) 0.4487(8) 0.16856(8)
D1 D 0.271(8) 0.423(11) 0.1777(9)
D2 D 0.091(10) 0.340(7) 0.1670(12)
loop_
_geom_bond_atom_site_label_1
_geom_bond_atom_site_label_2
_geom_bond_site_symmetry_1
_geom_bond_site_symmetry_2
C1 H1 1_555 1_555
C2 C3 1_555 1_555
C3 C4 1_555 1_555
C4 N1 1_555 1_555
C5 H2 1_555 1_555
C6 H3 1_555 1_555
C7 C6 1_555 1_555
H4 C7 1_555 1_555
H5 C7 1_555 1_555
C8 C7 1_555 1_555
H6 C8 1_555 1_555
C9 C8 1_555 1_555
H7 C9 1_555 1_555
H8 C9 1_555 1_555
N1 H9 1_555 1_555
H10 N1 1_555 1_555
N2 C1 1_555 1_555
N3 C1 1_555 1_555
N4 C3 1_555 1_555
N5 C2 1_555 1_555
O1 C6 1_555 1_555
O2 C9 1_555 1_555
H11 O2 1_555 1_555
O3 D1 1_555 1_555
D2 O3 1_555 1_555
C2 N3 1_555 1_555
C4 N2 1_555 1_555
C5 N4 1_555 1_555
C5 N5 1_555 1_555
C6 N5 1_555 1_555
C8 O1 1_555 1_555

#END
