
#######################################################################
#
#                 Cambridge Crystallographic Data Centre
#                                CCDC 
#
#######################################################################
#
# If this CIF has been generated from an entry in the Cambridge 
# Structural Database, then it will include bibliographic, chemical, 
# crystal, experimental, refinement or atomic coordinate data resulting 
# from the CCDC's data processing and validation procedures.
#
#######################################################################

data_QACVEX
_chemical_formula_moiety         '0.5(C6 H8 O4 2-),C4 H12 N1 1+'
_chemical_name_systematic        
'diethylammonium hemikis(1,4-butanedicarboxylate)'
_symmetry_cell_setting           triclinic
_symmetry_space_group_name_H-M   'P -1'
_symmetry_Int_Tables_number      2
_space_group_name_Hall           '-P 1'
loop_
_symmetry_equiv_pos_site_id
_symmetry_equiv_pos_as_xyz
1 x,y,z
2 -x,-y,-z
_cell_length_a                   7.378(3)
_cell_length_b                   7.896(3)
_cell_length_c                   8.280(3)
_cell_angle_alpha                66.472(9)
_cell_angle_beta                 84.180(8)
_cell_angle_gamma                89.304(9)
_cell_volume                     439.772
_exptl_crystal_colour            colorless
_exptl_crystal_description       plate
_cell_formula_units_Z            2
loop_
_atom_site_label
_atom_site_type_symbol
_atom_site_fract_x
_atom_site_fract_y
_atom_site_fract_z
O1 O 0.1923(4) 0.8398(4) 0.8364(3)
O2 O 0.1024(4) 0.6958(3) 0.6733(3)
C1 C 0.1742(5) 0.8314(5) 0.6904(5)
C2 C 0.2355(5) 1.0003(5) 0.5222(5)
C3 C 0.4307(5) 1.0680(5) 0.5133(5)
H3 H 0.213(4) 0.975(4) 0.419(4)
H4 H 0.142(5) 1.103(5) 0.504(5)
H5 H 0.451(5) 1.193(6) 0.408(5)
H6 H 0.451(4) 1.079(5) 0.635(4)
O1A O 0.8077(4) 1.1602(4) 0.1636(3)
O2A O 0.8976(4) 1.3042(3) 0.3267(3)
C1A C 0.8258(5) 1.1686(5) 0.3096(5)
C2A C 0.7645(5) 0.9997(5) 0.4778(5)
C3A C 0.5693(5) 0.9320(5) 0.4867(5)
H3A H 0.787(4) 1.025(4) 0.581(4)
H4A H 0.858(5) 0.897(5) 0.496(5)
H5A H 0.549(5) 0.807(6) 0.592(5)
H6A H 0.549(4) 0.921(5) 0.365(4)
N1 N 0.0336(5) 0.3371(5) 0.8639(4)
C4 C 0.2187(6) 0.2592(6) 0.8927(6)
C5 C 0.3007(7) 0.3095(7) 1.0276(6)
C6 C -0.0571(6) 0.2932(6) 0.7315(6)
C7 C -0.2427(7) 0.3710(8) 0.7110(7)
H1 H -0.055(6) 0.287(7) 0.983(7)
H2 H 0.031(6) 0.479(8) 0.819(7)
H7 H 0.295(5) 0.309(5) 0.769(5)
H8 H 0.197(5) 0.117(6) 0.933(5)
H9 H 0.217(6) 0.274(6) 1.139(6)
H10 H 0.329(5) 0.455(6) 0.979(5)
H11 H 0.423(6) 0.239(6) 1.063(5)
H12 H -0.062(5) 0.163(5) 0.776(5)
H13 H 0.025(5) 0.347(6) 0.614(5)
H14 H -0.325(6) 0.333(7) 0.816(6)
H15 H -0.232(6) 0.513(7) 0.677(6)
H16 H -0.314(6) 0.349(7) 0.617(6)
loop_
_geom_bond_atom_site_label_1
_geom_bond_atom_site_label_2
_geom_bond_site_symmetry_1
_geom_bond_site_symmetry_2
O1 C1 1_555 1_555
O2 C1 1_555 1_555
N1 C4 1_555 1_555
C1 C2 1_555 1_555
C2 C3 1_555 1_555
C3 H5 1_555 1_555
C4 C5 1_555 1_555
C5 H9 1_555 1_555
C6 N1 1_555 1_555
C7 C6 1_555 1_555
H1 N1 1_555 1_555
H2 N1 1_555 1_555
H3 C2 1_555 1_555
H4 C2 1_555 1_555
H6 C3 1_555 1_555
H7 C4 1_555 1_555
H8 C4 1_555 1_555
H10 C5 1_555 1_555
H11 C5 1_555 1_555
H12 C6 1_555 1_555
H13 C6 1_555 1_555
H14 C7 1_555 1_555
H15 C7 1_555 1_555
H16 C7 1_555 1_555
O1A C1A 1_555 1_555
O2A C1A 1_555 1_555
C1A C2A 1_555 1_555
C2A C3A 1_555 1_555
C3A C3 1_555 1_555
H3A C2A 1_555 1_555
H4A C2A 1_555 1_555
H5A C3A 1_555 1_555
H6A C3A 1_555 1_555

#END
