
#######################################################################
#
#                 Cambridge Crystallographic Data Centre
#                                CCDC 
#
#######################################################################
#
# If this CIF has been generated from an entry in the Cambridge 
# Structural Database, then it will include bibliographic, chemical, 
# crystal, experimental, refinement or atomic coordinate data resulting 
# from the CCDC's data processing and validation procedures.
#
#######################################################################

data_QAFBAA01
_chemical_formula_moiety         'C24 H28 N2 O1'
_chemical_name_systematic        
2,6-bis(4-(Dimethylamino)benzylidene)cyclohexanone
_symmetry_cell_setting           orthorhombic
_symmetry_space_group_name_H-M   'C m c 21'
_symmetry_Int_Tables_number      36
_space_group_name_Hall           'C 2n -2'
loop_
_symmetry_equiv_pos_site_id
_symmetry_equiv_pos_as_xyz
1 x,y,z
2 -x,-y,1/2+z
3 -x,y,z
4 x,-y,1/2+z
5 1/2+x,1/2+y,z
6 1/2-x,1/2-y,1/2+z
7 1/2-x,1/2+y,z
8 1/2+x,1/2-y,1/2+z
_cell_length_a                   21.8575(9)
_cell_length_b                   9.3150(10)
_cell_length_c                   9.6437(6)
_cell_angle_alpha                90
_cell_angle_beta                 90
_cell_angle_gamma                90
_cell_volume                     1963.48
_exptl_crystal_colour            'light orange'
_exptl_crystal_description       needle
_cell_formula_units_Z            4
_exptl_crystal_recrystallization_method chloroform
loop_
_atom_site_label
_atom_site_type_symbol
_atom_site_fract_x
_atom_site_fract_y
_atom_site_fract_z
O1 O 0.5000 0.2819(7) 0.1339(6)
C1 C 0.5000 0.3279(9) 0.2552(8)
C2 C 0.4412(2) 0.3581(6) 0.3264(5)
C3 C 0.4434(2) 0.3984(7) 0.4782(6)
H1 H 0.4314(2) 0.4958(7) 0.4861(6)
H2 H 0.4114(2) 0.3678(7) 0.5440(6)
C4 C 0.5000 0.3397(10) 0.5486(7)
H3 H 0.5000 0.3669(10) 0.6459(7)
H4 H 0.5000 0.2356(10) 0.5433(7)
C5 C 0.3892(2) 0.3408(6) 0.2545(5)
H5 H 0.3995(2) 0.3075(6) 0.1625(5)
C6 C 0.3253(2) 0.3614(6) 0.2952(5)
C7 C 0.2804(2) 0.2877(7) 0.2186(5)
H6 H 0.2998(2) 0.2254(7) 0.1437(5)
C8 C 0.2195(2) 0.2943(6) 0.2529(6)
H7 H 0.1905(2) 0.2312(6) 0.1857(6)
C9 C 0.1990(2) 0.3752(6) 0.3638(5)
C10 C 0.2429(2) 0.4588(7) 0.4345(6)
H8 H 0.2300(2) 0.5233(7) 0.5116(6)
C11 C 0.3044(2) 0.4479(6) 0.4023(6)
H9 H 0.3300(2) 0.5181(6) 0.4714(6)
N1 N 0.1380(2) 0.3781(5) 0.4050(6)
C12 C 0.0931(2) 0.2977(8) 0.3279(7)
H10 H 0.0831(14) 0.3483(23) 0.2442(23)
H11 H 0.0569(8) 0.2864(40) 0.3831(18)
H12 H 0.1093(8) 0.2049(18) 0.3051(38)
C13 C 0.1157(3) 0.4880(8) 0.4964(8)
H13 H 0.0721(4) 0.4786(36) 0.5064(45)
H14 H 0.1251(21) 0.5807(8) 0.4584(27)
H15 H 0.1348(18) 0.4783(35) 0.5855(17)
C3B C 0.5566(2) 0.3984(7) 0.4782(6)
C2B C 0.5588(2) 0.3581(6) 0.3264(5)
C5B C 0.6108(2) 0.3408(6) 0.2545(5)
H5B H 0.6005(2) 0.3075(6) 0.1625(5)
C6B C 0.6747(2) 0.3614(6) 0.2952(5)
C7B C 0.7196(2) 0.2877(7) 0.2186(5)
H6B H 0.7002(2) 0.2254(7) 0.1437(5)
C8B C 0.7805(2) 0.2943(6) 0.2529(6)
H7B H 0.8095(2) 0.2312(6) 0.1857(6)
C9B C 0.8010(2) 0.3752(6) 0.3638(5)
C10B C 0.7571(2) 0.4588(7) 0.4345(6)
H8B H 0.7700(2) 0.5233(7) 0.5116(6)
C11B C 0.6956(2) 0.4479(6) 0.4023(6)
H9B H 0.6700(2) 0.5181(6) 0.4714(6)
N1B N 0.8620(2) 0.3781(5) 0.4050(6)
C12B C 0.9069(2) 0.2977(8) 0.3279(7)
H10B H 0.9169(14) 0.3483(23) 0.2442(23)
H11B H 0.9431(8) 0.2864(40) 0.3831(18)
H12B H 0.8907(8) 0.2049(18) 0.3051(38)
C13B C 0.8843(3) 0.4880(8) 0.4964(8)
H13B H 0.9279(4) 0.4786(36) 0.5064(45)
H14B H 0.8749(21) 0.5807(8) 0.4584(27)
H15B H 0.8652(18) 0.4783(35) 0.5855(17)
H1B H 0.5686(2) 0.4958(7) 0.4861(6)
H2B H 0.5886(2) 0.3678(7) 0.5440(6)
loop_
_geom_bond_atom_site_label_1
_geom_bond_atom_site_label_2
_geom_bond_site_symmetry_1
_geom_bond_site_symmetry_2
O1 C1 1_555 1_555
C1 C2 1_555 1_555
C2 C3 1_555 1_555
C3 H1 1_555 1_555
H2 C3 1_555 1_555
C4 C3 1_555 1_555
H3 C4 1_555 1_555
H4 C4 1_555 1_555
C5 C2 1_555 1_555
H5 C5 1_555 1_555
C6 C5 1_555 1_555
C7 C6 1_555 1_555
H6 C7 1_555 1_555
C8 C7 1_555 1_555
H7 C8 1_555 1_555
C9 C8 1_555 1_555
C10 C9 1_555 1_555
H8 C10 1_555 1_555
C11 C6 1_555 1_555
H9 C11 1_555 1_555
N1 C9 1_555 1_555
C12 N1 1_555 1_555
H10 C12 1_555 1_555
H11 C12 1_555 1_555
H12 C12 1_555 1_555
C13 N1 1_555 1_555
H13 C13 1_555 1_555
H14 C13 1_555 1_555
H15 C13 1_555 1_555
C3B C4 1_555 1_555
C2B C1 1_555 1_555
C5B C2B 1_555 1_555
H5B C5B 1_555 1_555
C6B C5B 1_555 1_555
C7B C6B 1_555 1_555
H6B C7B 1_555 1_555
C8B C7B 1_555 1_555
H7B C8B 1_555 1_555
C9B C8B 1_555 1_555
C10B C9B 1_555 1_555
H8B C10B 1_555 1_555
C11B C6B 1_555 1_555
H9B C11B 1_555 1_555
N1B C9B 1_555 1_555
C12B N1B 1_555 1_555
H10B C12B 1_555 1_555
H11B C12B 1_555 1_555
H12B C12B 1_555 1_555
C13B N1B 1_555 1_555
H13B C13B 1_555 1_555
H14B C13B 1_555 1_555
H15B C13B 1_555 1_555
H1B C3B 1_555 1_555
H2B C3B 1_555 1_555
C10 C11 1_555 1_555
C3B C2B 1_555 1_555
C10B C11B 1_555 1_555

#END
