
#######################################################################
#
#                 Cambridge Crystallographic Data Centre
#                                CCDC 
#
#######################################################################
#
# If this CIF has been generated from an entry in the Cambridge 
# Structural Database, then it will include bibliographic, chemical, 
# crystal, experimental, refinement or atomic coordinate data resulting 
# from the CCDC's data processing and validation procedures.
#
#######################################################################

data_QAFLOB
_chemical_formula_moiety         'C34 H27 N1 O8 S1,C7 H8'
_chemical_name_systematic        
'8-Hydroxy-12-oxo-5a,6,7,8,9,10-hexahydro-12H-azepino[2,1-b][1,3]benzothiazine-6,7,9-triyl tribenzoate toluene solvate'
_symmetry_cell_setting           orthorhombic
_symmetry_space_group_name_H-M   'P 21 21 21'
_symmetry_Int_Tables_number      19
_space_group_name_Hall           'P 2ac 2ab'
loop_
_symmetry_equiv_pos_site_id
_symmetry_equiv_pos_as_xyz
1 x,y,z
2 1/2+x,1/2-y,-z
3 -x,1/2+y,1/2-z
4 1/2-x,-y,1/2+z
_cell_length_a                   11.3095(13)
_cell_length_b                   13.4453(16)
_cell_length_c                   23.449(3)
_cell_angle_alpha                90
_cell_angle_beta                 90
_cell_angle_gamma                90
_cell_volume                     3565.65
_exptl_crystal_colour            colorless
_exptl_crystal_description       Prism
_cell_formula_units_Z            4
loop_
_atom_site_label
_atom_site_type_symbol
_atom_site_fract_x
_atom_site_fract_y
_atom_site_fract_z
N1 N -0.0240(2) 0.22183(19) 0.81825(11)
O1 O 0.0407(3) 0.37563(16) 0.83711(12)
O2 O 0.1018(2) 0.28793(16) 0.71219(9)
O3 O 0.1233(3) 0.2633(2) 0.61795(11)
O4 O -0.0592(2) 0.05464(18) 0.71284(11)
H1 H -0.0458 0.0007 0.6978
O5 O 0.2065(2) 0.00794(15) 0.74363(10)
O6 O 0.3248(3) 0.1137(2) 0.69858(16)
O7 O 0.16090(19) 0.05494(14) 0.85776(9)
O8 O 0.1585(3) -0.11196(18) 0.86361(13)
S1 S -0.08043(8) 0.09641(7) 0.90486(4)
C1 C -0.0346(3) 0.1160(2) 0.83226(13)
H2 H -0.1004 0.0917 0.8089
C2 C 0.0710(3) 0.0534(2) 0.81461(13)
H3 H 0.0447 -0.0154 0.8091
C3 C 0.1293(3) 0.0895(2) 0.75973(13)
H4 H 0.1773 0.1485 0.7680
C4 C 0.0436(3) 0.1134(2) 0.71127(14)
H5 H 0.0841 0.1010 0.6750
C5 C 0.0012(3) 0.2217(2) 0.71171(14)
H6 H -0.0445 0.2340 0.6769
C6 C -0.0735(3) 0.2510(2) 0.76276(14)
H7 H -0.0841 0.3225 0.7624
H8 H -0.1510 0.2208 0.7588
C7 C 0.0277(3) 0.2896(2) 0.85228(14)
C8 C 0.0648(3) 0.2592(2) 0.91019(14)
C9 C 0.0173(3) 0.1770(3) 0.93911(14)
C10 C 0.0445(4) 0.1622(3) 0.99619(16)
H9 H 0.0117 0.1088 1.0157
C11 C 0.1189(5) 0.2254(4) 1.0237(2)
H10 H 0.1352 0.2149 1.0621
C12 C 0.1705(4) 0.3042(4) 0.9962(2)
H11 H 0.2233 0.3455 1.0153
C13 C 0.1429(3) 0.3213(3) 0.93978(18)
H12 H 0.1769 0.3752 0.9210
C14 C 0.1526(4) 0.3051(3) 0.66051(16)
C15 C 0.2470(3) 0.3813(3) 0.66437(17)
C16 C 0.2673(4) 0.4358(3) 0.71315(19)
H13 H 0.2233 0.4234 0.7459
C17 C 0.3532(4) 0.5089(3) 0.7133(2)
H14 H 0.3684 0.5454 0.7462
C18 C 0.4161(5) 0.5270(5) 0.6641(3)
H15 H 0.4722 0.5775 0.6638
C19 C 0.3984(6) 0.4732(5) 0.6162(3)
H16 H 0.4428 0.4857 0.5836
C20 C 0.3137(5) 0.3997(4) 0.6163(2)
H17 H 0.3013 0.3620 0.5836
C21 C 0.3043(3) 0.0308(3) 0.71462(17)
C22 C 0.3833(3) -0.0561(3) 0.70604(18)
C23 C 0.4645(4) -0.0517(4) 0.6616(2)
H18 H 0.4650 0.0025 0.6370
C24 C 0.5445(4) -0.1283(5) 0.6541(3)
H19 H 0.5977 -0.1265 0.6239
C25 C 0.5450(5) -0.2063(5) 0.6912(3)
H20 H 0.6000 -0.2570 0.6863
C26 C 0.4670(5) -0.2116(4) 0.7350(3)
H21 H 0.4692 -0.2647 0.7604
C27 C 0.3833(4) -0.1362(3) 0.7414(2)
H22 H 0.3269 -0.1408 0.7701
C28 C 0.1925(3) -0.0329(2) 0.88152(14)
C29 C 0.2717(3) -0.0186(2) 0.93105(14)
C30 C 0.3029(4) -0.1007(3) 0.96257(17)
H23 H 0.2795 -0.1637 0.9506
C31 C 0.3683(5) -0.0906(4) 1.0118(2)
H24 H 0.3886 -0.1465 1.0330
C32 C 0.4033(4) 0.0011(4) 1.02930(19)
H25 H 0.4452 0.0083 1.0632
C33 C 0.3766(4) 0.0836(3) 0.9967(2)
H26 H 0.4037 0.1460 1.0076
C34 C 0.3099(3) 0.0732(3) 0.94782(17)
H27 H 0.2908 0.1290 0.9262
C35 C 0.4410(4) 0.6506(4) 0.9482(3)
C36 C 0.3561(5) 0.6065(4) 0.98282(17)
H28 H 0.3749 0.5891 1.0201
C37 C 0.2433(5) 0.5886(4) 0.9617(2)
H29 H 0.1865 0.5591 0.9849
C38 C 0.2153(5) 0.6147(4) 0.9060(3)
H30 H 0.1398 0.6026 0.8919
C39 C 0.3002(8) 0.6587(4) 0.87132(17)
H31 H 0.2814 0.6761 0.8340
C40 C 0.4130(7) 0.6766(4) 0.8924(3)
H32 H 0.4698 0.7061 0.8692
C41 C 0.5459(9) 0.6650(9) 0.9674(6)
H33 H 0.5603 0.7351 0.9707
H34 H 0.6024 0.6362 0.9417
H35 H 0.5534 0.6344 1.0042
loop_
_geom_bond_atom_site_label_1
_geom_bond_atom_site_label_2
_geom_bond_site_symmetry_1
_geom_bond_site_symmetry_2
N1 C1 1_555 1_555
O1 C7 1_555 1_555
O2 C5 1_555 1_555
O3 C14 1_555 1_555
O4 H1 1_555 1_555
O5 C3 1_555 1_555
O6 C21 1_555 1_555
O7 C2 1_555 1_555
O8 C28 1_555 1_555
S1 C1 1_555 1_555
C1 H2 1_555 1_555
C2 C1 1_555 1_555
H3 C2 1_555 1_555
C3 C2 1_555 1_555
H4 C3 1_555 1_555
C4 O4 1_555 1_555
H5 C4 1_555 1_555
C5 C4 1_555 1_555
H6 C5 1_555 1_555
C6 N1 1_555 1_555
H7 C6 1_555 1_555
H8 C6 1_555 1_555
C7 N1 1_555 1_555
C8 C7 1_555 1_555
C9 S1 1_555 1_555
C10 C9 1_555 1_555
H9 C10 1_555 1_555
C11 C10 1_555 1_555
H10 C11 1_555 1_555
C12 C11 1_555 1_555
H11 C12 1_555 1_555
C13 C8 1_555 1_555
H12 C13 1_555 1_555
C14 O2 1_555 1_555
C15 C14 1_555 1_555
C16 C15 1_555 1_555
H13 C16 1_555 1_555
C17 C16 1_555 1_555
H14 C17 1_555 1_555
C18 C17 1_555 1_555
H15 C18 1_555 1_555
C19 C18 1_555 1_555
H16 C19 1_555 1_555
C20 C15 1_555 1_555
H17 C20 1_555 1_555
C21 O5 1_555 1_555
C22 C21 1_555 1_555
C23 C22 1_555 1_555
H18 C23 1_555 1_555
C24 C23 1_555 1_555
H19 C24 1_555 1_555
C25 C24 1_555 1_555
H20 C25 1_555 1_555
C26 C25 1_555 1_555
H21 C26 1_555 1_555
C27 C22 1_555 1_555
H22 C27 1_555 1_555
C28 O7 1_555 1_555
C29 C28 1_555 1_555
C30 C29 1_555 1_555
H23 C30 1_555 1_555
C31 C30 1_555 1_555
H24 C31 1_555 1_555
C32 C31 1_555 1_555
H25 C32 1_555 1_555
C33 C32 1_555 1_555
H26 C33 1_555 1_555
C34 C29 1_555 1_555
H27 C34 1_555 1_555
C35 C36 1_555 1_555
C36 H28 1_555 1_555
C37 C36 1_555 1_555
H29 C37 1_555 1_555
C38 C37 1_555 1_555
H30 C38 1_555 1_555
C39 C38 1_555 1_555
H31 C39 1_555 1_555
C40 C35 1_555 1_555
H32 C40 1_555 1_555
C41 C35 1_555 1_555
H33 C41 1_555 1_555
H34 C41 1_555 1_555
H35 C41 1_555 1_555
C3 C4 1_555 1_555
C5 C6 1_555 1_555
C8 C9 1_555 1_555
C12 C13 1_555 1_555
C19 C20 1_555 1_555
C26 C27 1_555 1_555
C33 C34 1_555 1_555
C39 C40 1_555 1_555

#END
