
#######################################################################
#
#                 Cambridge Crystallographic Data Centre
#                                CCDC 
#
#######################################################################
#
# If this CIF has been generated from an entry in the Cambridge 
# Structural Database, then it will include bibliographic, chemical, 
# crystal, experimental, refinement or atomic coordinate data resulting 
# from the CCDC's data processing and validation procedures.
#
#######################################################################

data_QAFQEV
_chemical_formula_moiety         'N1 O3 1-,5(H2 O1),C36 H44 N20 Na1 O11 1+'
_chemical_name_systematic        
'Aqua-(1,2,4-hexamethylcucurbit[5]uril)-sodium nitrate monohydrate clathrate tetrahydrate'
_symmetry_cell_setting           triclinic
_symmetry_space_group_name_H-M   'P -1'
_symmetry_Int_Tables_number      2
_space_group_name_Hall           '-P 1'
loop_
_symmetry_equiv_pos_site_id
_symmetry_equiv_pos_as_xyz
1 x,y,z
2 -x,-y,-z
_cell_length_a                   11.1475(10)
_cell_length_b                   11.4007(10)
_cell_length_c                   20.9445(18)
_cell_angle_alpha                103.301(3)
_cell_angle_beta                 95.845(3)
_cell_angle_gamma                96.505(3)
_cell_volume                     2551.12
_cell_formula_units_Z            2
loop_
_atom_site_label
_atom_site_type_symbol
_atom_site_fract_x
_atom_site_fract_y
_atom_site_fract_z
O1 O 0.1298(3) 1.7313(3) 0.55947(17)
H1 H 0.0602 1.6838 0.5602
H2 H 0.1467 1.8148 0.5818
O2 O 0.5080(3) 0.8565(3) 0.52589(19)
H3 H 0.5767 0.8263 0.5101
H4 H 0.4595 0.7841 0.5138
Na1 Na 0.4210(3) 1.0443(3) 0.61347(19)
C1 C 0.2303(3) 1.2795(3) 0.56605(19)
C2 C 0.1817(3) 1.4771(3) 0.5993(2)
H7 H 0.1751 1.5304 0.5683
C3 C 0.0652(4) 1.3833(3) 0.5897(2)
H8 H 0.0046 1.3923 0.5538
C4 C 0.0878(4) 1.5136(3) 0.6961(2)
C5 C 0.0302(4) 1.1525(3) 0.5541(2)
H9 H 0.0695 1.0937 0.5244
H10 H -0.0455 1.1632 0.5292
C6 C -0.0954(3) 1.3583(3) 0.6660(2)
H11 H -0.1533 1.3402 0.6254
H12 H -0.1264 1.4179 0.6996
C7 C 0.0664(3) 1.0204(3) 0.6290(2)
C8 C -0.1029(3) 1.1248(3) 0.6460(2)
C9 C -0.0874(3) 1.0446(3) 0.6984(2)
C10 C -0.0643(3) 1.2522(4) 0.7541(2)
C11 C 0.0750(4) 0.9034(4) 0.7141(2)
H13 H 0.0109 0.8538 0.7289
H14 H 0.1145 0.8480 0.6825
C12 C -0.0462(4) 1.1130(4) 0.8266(2)
H15 H -0.0976 1.0366 0.8253
H16 H -0.0761 1.1783 0.8575
C13 C 0.2861(4) 0.9739(3) 0.7654(2)
C14 C 0.1364(4) 0.9958(5) 0.8377(2)
C15 C 0.2670(4) 1.0403(5) 0.8783(2)
C16 C 0.1505(4) 1.2016(5) 0.8947(2)
C17 C 0.4787(4) 1.0443(4) 0.8399(2)
H17 H 0.5106 0.9891 0.8046
H18 H 0.5046 1.0238 0.8817
C18 C 0.3559(4) 1.2513(5) 0.9559(2)
H19 H 0.3972 1.2057 0.9837
H20 H 0.3176 1.3123 0.9849
C19 C 0.5769(4) 1.1994(4) 0.7905(2)
C20 C 0.5557(4) 1.2681(4) 0.9032(2)
C21 C 0.6208(4) 1.3772(4) 0.8781(2)
C22 C 0.4393(4) 1.4289(4) 0.9184(2)
C23 C 0.6771(4) 1.3803(4) 0.7622(2)
H21 H 0.7495 1.4366 0.7856
H22 H 0.7041 1.3184 0.7281
C24 C 0.5554(4) 1.5865(4) 0.8775(2)
H23 H 0.6426 1.6172 0.8879
H24 H 0.5130 1.6399 0.9085
C25 C 0.5380(4) 1.3958(4) 0.6677(2)
C26 C 0.5843(4) 1.5752(3) 0.7542(2)
C27 C 0.4938(4) 1.5982(3) 0.6962(2)
C28 C 0.4028(4) 1.6269(3) 0.7949(2)
C29 C 0.4009(4) 1.4491(4) 0.5838(2)
H25 H 0.4370 1.3888 0.5531
H26 H 0.4016 1.5221 0.5665
C30 C 0.2750(4) 1.6527(3) 0.6982(2)
H27 H 0.2941 1.6968 0.6646
H28 H 0.2377 1.7064 0.7317
C31 C -0.2241(4) 1.0927(4) 0.5997(2)
H29 H -0.2907 1.1077 0.6255
H30 H -0.2346 1.0075 0.5764
H31 H -0.2237 1.1427 0.5680
C32 C -0.1977(4) 0.9521(4) 0.6986(3)
H32 H -0.2140 0.8926 0.6563
H33 H -0.2681 0.9938 0.7059
H34 H -0.1811 0.9112 0.7337
C33 C 0.0639(7) 0.8769(6) 0.8506(4)
H35 H 0.0441 0.8943 0.8956
H36 H 0.1140 0.8120 0.8444
H37 H -0.0106 0.8519 0.8198
C34 C 0.3032(8) 0.9586(7) 0.9270(4)
H38 H 0.2515 0.9679 0.9619
H39 H 0.3877 0.9840 0.9463
H40 H 0.2924 0.8740 0.9027
C37 C 0.7084(4) 1.6564(4) 0.7707(3)
H47 H 0.7523 1.6413 0.7326
H48 H 0.7551 1.6379 0.8079
H49 H 0.6963 1.7412 0.7821
C38 C 0.5399(4) 1.7017(4) 0.6659(2)
H50 H 0.5507 1.7783 0.6992
H51 H 0.4811 1.7050 0.6291
H52 H 0.6172 1.6877 0.6503
N2 N 0.2755(3) 1.4005(3) 0.58563(17)
N3 N 0.1091(3) 1.2673(3) 0.57327(17)
N4 N 0.1877(3) 1.5451(3) 0.66715(17)
N5 N 0.0208(3) 1.4120(3) 0.65314(17)
N6 N 0.0001(3) 1.1026(3) 0.60895(17)
N7 N 0.0180(3) 0.9849(3) 0.67963(18)
N8 N -0.0906(3) 1.2476(3) 0.68849(17)
N9 N -0.0595(3) 1.1361(3) 0.76140(17)
N10 N 0.1628(3) 0.9625(3) 0.76973(18)
N11 N 0.3472(3) 1.0235(3) 0.82759(19)
N12 N 0.0785(3) 1.1049(4) 0.85205(19)
N13 N 0.2613(4) 1.1679(4) 0.9091(2)
N14 N 0.5320(3) 1.1683(3) 0.84366(19)
N15 N 0.6238(3) 1.3210(3) 0.80875(18)
N16 N 0.4470(4) 1.3141(4) 0.92527(19)
N17 N 0.5358(3) 1.4652(3) 0.88824(18)
N18 N 0.5977(3) 1.4469(3) 0.73030(17)
N19 N 0.4752(3) 1.4801(3) 0.64773(17)
N20 N 0.5141(3) 1.5949(3) 0.81032(17)
N21 N 0.3872(3) 1.6254(3) 0.72910(17)
O9 O 0.2868(2) 1.1950(2) 0.54513(14)
O10 O 0.1516(2) 0.9808(2) 0.60207(15)
O11 O 0.3325(3) 0.9414(2) 0.71559(15)
O12 O 0.5779(3) 1.1304(3) 0.73671(16)
O13 O 0.5413(3) 1.2932(2) 0.63509(14)
O14 O 0.0628(3) 1.5658(3) 0.74967(15)
O15 O 0.3287(3) 1.6548(3) 0.83365(15)
O16 O 0.3607(3) 1.4915(3) 0.93751(16)
O17 O 0.1206(3) 1.3010(3) 0.91879(17)
O18 O -0.0518(3) 1.3441(3) 0.79962(15)
O3 O 0.3250(3) 0.6638(3) 0.4991(2)
H5 H 0.2538 0.6929 0.5209
H6 H 0.2960 0.6011 0.4646
O4 O 0.0195(10) 1.6977(7) 0.9733(4)
O5 O 0.2682(11) 1.2892(13) 0.7445(7)
N1 N 0.1524(4) 0.3933(4) 0.4058(2)
O6 O 0.0931(4) 0.4305(4) 0.4507(2)
O7 O 0.2452(4) 0.4591(4) 0.3975(2)
O8 O 0.1154(6) 0.3015(6) 0.3641(4)
Na2? Na 0.1268(4) 1.5328(4) 0.8818(2)
C35? C 0.6356(6) 1.2310(7) 0.9583(4)
H41? H 0.6512 1.2977 0.9977
H42? H 0.7122 1.2125 0.9432
H43? H 0.5933 1.1598 0.9685
C36? C 0.7521(6) 1.4342(7) 0.9141(3)
H44? H 0.7478 1.4707 0.9603
H45? H 0.7853 1.4962 0.8933
H46? H 0.8042 1.3711 0.9109
loop_
_geom_bond_atom_site_label_1
_geom_bond_atom_site_label_2
_geom_bond_site_symmetry_1
_geom_bond_site_symmetry_2
O1 H1 1_555 1_555
H2 O1 1_555 1_555
O2 H3 1_555 1_555
H4 O2 1_555 1_555
O3 H5 1_555 1_555
H6 O3 1_555 1_555
N1 O6 1_555 1_555
O7 N1 1_555 1_555
O8 N1 1_555 1_555
Na1 O2 1_555 1_555
C1 N2 1_555 1_555
C2 H7 1_555 1_555
C3 C2 1_555 1_555
H8 C3 1_555 1_555
C4 N4 1_555 1_555
C5 H9 1_555 1_555
H10 C5 1_555 1_555
C6 H11 1_555 1_555
H12 C6 1_555 1_555
C7 N6 1_555 1_555
C8 C9 1_555 1_555
C9 C32 1_555 1_555
C10 N8 1_555 1_555
C11 H13 1_555 1_555
H14 C11 1_555 1_555
C12 H15 1_555 1_555
H16 C12 1_555 1_555
C13 N10 1_555 1_555
C14 C15 1_555 1_555
C15 C34 1_555 1_555
C16 N12 1_555 1_555
C17 H17 1_555 1_555
H18 C17 1_555 1_555
C18 H19 1_555 1_555
H20 C18 1_555 1_555
C19 N14 1_555 1_555
C20 C21 1_555 1_555
C21 N15 1_555 1_555
C22 N16 1_555 1_555
C23 H21 1_555 1_555
H22 C23 1_555 1_555
C24 H23 1_555 1_555
H24 C24 1_555 1_555
C25 N18 1_555 1_555
C26 C27 1_555 1_555
C27 C38 1_555 1_555
C28 N20 1_555 1_555
C29 H25 1_555 1_555
H26 C29 1_555 1_555
C30 H27 1_555 1_555
H28 C30 1_555 1_555
C31 C8 1_555 1_555
H29 C31 1_555 1_555
H30 C31 1_555 1_555
H31 C31 1_555 1_555
C32 H32 1_555 1_555
H33 C32 1_555 1_555
H34 C32 1_555 1_555
C33 C14 1_555 1_555
H35 C33 1_555 1_555
H36 C33 1_555 1_555
H37 C33 1_555 1_555
C34 H38 1_555 1_555
H39 C34 1_555 1_555
H40 C34 1_555 1_555
C37 C26 1_555 1_555
H47 C37 1_555 1_555
H48 C37 1_555 1_555
H49 C37 1_555 1_555
C38 H50 1_555 1_555
H51 C38 1_555 1_555
H52 C38 1_555 1_555
N2 C2 1_555 1_555
N3 C1 1_555 1_555
N4 C2 1_555 1_555
N5 C3 1_555 1_555
N6 C5 1_555 1_555
N7 C7 1_555 1_555
N8 C6 1_555 1_555
N9 C9 1_555 1_555
N10 C11 1_555 1_555
N11 C13 1_555 1_555
N12 C12 1_555 1_555
N13 C15 1_555 1_555
N14 C17 1_555 1_555
N15 C19 1_555 1_555
N16 C18 1_555 1_555
N17 C21 1_555 1_555
N18 C23 1_555 1_555
N19 C25 1_555 1_555
N20 C24 1_555 1_555
N21 C27 1_555 1_555
O9 Na1 1_555 1_555
O10 Na1 1_555 1_555
O11 Na1 1_555 1_555
O12 Na1 1_555 1_555
O13 Na1 1_555 1_555
O14 C4 1_555 1_555
O15 C28 1_555 1_555
O16 C22 1_555 1_555
O17 C16 1_555 1_555
O18 C10 1_555 1_555
C1 O9 1_555 1_555
C3 N3 1_555 1_555
C4 N5 1_555 1_555
C5 N3 1_555 1_555
C6 N5 1_555 1_555
C7 O10 1_555 1_555
C8 N6 1_555 1_555
C8 N8 1_555 1_555
C9 N7 1_555 1_555
C10 N9 1_555 1_555
C11 N7 1_555 1_555
C12 N9 1_555 1_555
C13 O11 1_555 1_555
C14 N10 1_555 1_555
C14 N12 1_555 1_555
C15 N11 1_555 1_555
C16 N13 1_555 1_555
C17 N11 1_555 1_555
C18 N13 1_555 1_555
C19 O12 1_555 1_555
C20 N14 1_555 1_555
C20 N16 1_555 1_555
C22 N17 1_555 1_555
C23 N15 1_555 1_555
C24 N17 1_555 1_555
C25 O13 1_555 1_555
C26 N18 1_555 1_555
C26 N20 1_555 1_555
C27 N19 1_555 1_555
C28 N21 1_555 1_555
C29 N2 1_555 1_555
C29 N19 1_555 1_555
C30 N4 1_555 1_555
C30 N21 1_555 1_555

#END
