
#######################################################################
#
#                 Cambridge Crystallographic Data Centre
#                                CCDC 
#
#######################################################################
#
# If this CIF has been generated from an entry in the Cambridge 
# Structural Database, then it will include bibliographic, chemical, 
# crystal, experimental, refinement or atomic coordinate data resulting 
# from the CCDC's data processing and validation procedures.
#
#######################################################################

data_QAGCOT
_chemical_formula_moiety         'C24 H23 N1 O2 S1'
_chemical_name_systematic        
1-((4-Methylphenyl)sulfonyl)-5-(2-naphthyl)-3-(prop-1-en-2-yl)-2,3-dihydro-1H-pyrrole
_symmetry_cell_setting           monoclinic
_symmetry_space_group_name_H-M   'P 21'
_symmetry_Int_Tables_number      4
_space_group_name_Hall           'P 2yb'
loop_
_symmetry_equiv_pos_site_id
_symmetry_equiv_pos_as_xyz
1 x,y,z
2 -x,1/2+y,-z
_cell_length_a                   12.0001(12)
_cell_length_b                   7.6608(12)
_cell_length_c                   12.186(2)
_cell_angle_alpha                90
_cell_angle_beta                 114.840(4)
_cell_angle_gamma                90
_cell_volume                     1016.62
_exptl_crystal_colour            colorless
_exptl_crystal_description       block
_cell_formula_units_Z            2
loop_
_atom_site_label
_atom_site_type_symbol
_atom_site_fract_x
_atom_site_fract_y
_atom_site_fract_z
S1 S 0.79191(5) 0.36446(7) 0.45139(5)
O1 O 0.83398(17) 0.2910(2) 0.36745(16)
O2 O 0.80666(16) 0.2702(2) 0.55753(15)
N1 N 0.86774(16) 0.5508(3) 0.49585(16)
C1 C 0.7865(2) 0.6277(3) 0.7515(2)
H1 H 0.7169 0.6939 0.7077
C2 C 0.8072(2) 0.5679(3) 0.8678(2)
C3 C 0.7222(2) 0.5985(4) 0.9184(2)
H2 H 0.6511 0.6620 0.8750
C4 C 0.7438(3) 0.5357(4) 1.0303(3)
H3 H 0.6867 0.5563 1.0619
C5 C 0.8501(3) 0.4412(4) 1.0980(2)
H4 H 0.8641 0.4003 1.1746
C6 C 0.9329(3) 0.4094(3) 1.0514(2)
H5 H 1.0038 0.3468 1.0970
C7 C 0.9137(2) 0.4694(3) 0.9352(2)
C8 C 0.9960(2) 0.4321(3) 0.8825(2)
H6 H 1.0667 0.3677 0.9257
C9 C 0.9726(2) 0.4893(3) 0.7695(2)
H7 H 1.0270 0.4615 0.7358
C10 C 0.8673(2) 0.5902(3) 0.70182(19)
C11 C 0.8478(2) 0.6602(3) 0.5822(2)
C12 C 0.8673(2) 0.6689(3) 0.3984(2)
H8 H 0.8145 0.6227 0.3195
H9 H 0.9497 0.6815 0.4032
C13 C 0.8184(2) 0.8471(4) 0.41937(18)
H10 H 0.8772 0.9380 0.4229
C14 C 0.8244(2) 0.8224(3) 0.5438(2)
H11 H 0.8128 0.9124 0.5891
C15 C 0.6931(2) 0.8962(3) 0.3225(2)
C16 C 0.6897(3) 0.9406(4) 0.2012(2)
H12 H 0.6071 0.9688 0.1460
H13 H 0.7178 0.8423 0.1708
H14 H 0.7421 1.0390 0.2091
C17 C 0.5946(3) 0.9011(4) 0.3429(3)
H15 H 0.5196 0.9327 0.2813
H16 H 0.5995 0.8729 0.4190
C18 C 0.6360(2) 0.4203(3) 0.3725(2)
C19 C 0.5840(2) 0.4309(3) 0.2479(2)
H17 H 0.6288 0.3982 0.2048
C20 C 0.4650(3) 0.4904(4) 0.1880(2)
H18 H 0.4303 0.4977 0.1041
C21 C 0.3960(2) 0.5395(4) 0.2501(3)
C22 C 0.4494(2) 0.5247(4) 0.3744(3)
H19 H 0.4045 0.5557 0.4178
C23 C 0.5679(2) 0.4650(4) 0.4358(2)
H20 H 0.6019 0.4548 0.5196
C24 C 0.2672(3) 0.6045(5) 0.1842(3)
H21 H 0.2335 0.6301 0.2414
H22 H 0.2182 0.5167 0.1288
H23 H 0.2672 0.7086 0.1403
loop_
_geom_bond_atom_site_label_1
_geom_bond_atom_site_label_2
_geom_bond_site_symmetry_1
_geom_bond_site_symmetry_2
S1 O1 1_555 1_555
O2 S1 1_555 1_555
N1 S1 1_555 1_555
C1 H1 1_555 1_555
C2 C1 1_555 1_555
C3 C2 1_555 1_555
H2 C3 1_555 1_555
C4 C3 1_555 1_555
H3 C4 1_555 1_555
C5 C4 1_555 1_555
H4 C5 1_555 1_555
C6 C5 1_555 1_555
H5 C6 1_555 1_555
C7 C2 1_555 1_555
C8 C7 1_555 1_555
H6 C8 1_555 1_555
C9 C8 1_555 1_555
H7 C9 1_555 1_555
C10 C1 1_555 1_555
C11 N1 1_555 1_555
C12 N1 1_555 1_555
H8 C12 1_555 1_555
H9 C12 1_555 1_555
C13 C12 1_555 1_555
H10 C13 1_555 1_555
C14 C11 1_555 1_555
H11 C14 1_555 1_555
C15 C13 1_555 1_555
C16 C15 1_555 1_555
H12 C16 1_555 1_555
H13 C16 1_555 1_555
H14 C16 1_555 1_555
C17 C15 1_555 1_555
H15 C17 1_555 1_555
H16 C17 1_555 1_555
C18 S1 1_555 1_555
C19 C18 1_555 1_555
H17 C19 1_555 1_555
C20 C19 1_555 1_555
H18 C20 1_555 1_555
C21 C20 1_555 1_555
C22 C21 1_555 1_555
H19 C22 1_555 1_555
C23 C18 1_555 1_555
H20 C23 1_555 1_555
C24 C21 1_555 1_555
H21 C24 1_555 1_555
H22 C24 1_555 1_555
H23 C24 1_555 1_555
C6 C7 1_555 1_555
C9 C10 1_555 1_555
C10 C11 1_555 1_555
C13 C14 1_555 1_555
C22 C23 1_555 1_555

#END
