
#######################################################################
#
#                 Cambridge Crystallographic Data Centre
#                                CCDC 
#
#######################################################################
#
# If this CIF has been generated from an entry in the Cambridge 
# Structural Database, then it will include bibliographic, chemical, 
# crystal, experimental, refinement or atomic coordinate data resulting 
# from the CCDC's data processing and validation procedures.
#
#######################################################################

data_QAGCUZ
_chemical_formula_moiety         'C20 H21 N1 O2 S1'
_chemical_name_systematic        
4-Methyl-1-((4-methylphenyl)sulfonyl)-7-phenyl-2,5-dihydro-1H-azepine
_symmetry_cell_setting           triclinic
_symmetry_space_group_name_H-M   'P -1'
_symmetry_Int_Tables_number      2
_space_group_name_Hall           '-P 1'
loop_
_symmetry_equiv_pos_site_id
_symmetry_equiv_pos_as_xyz
1 x,y,z
2 -x,-y,-z
_cell_length_a                   8.1845(8)
_cell_length_b                   10.3787(10)
_cell_length_c                   11.7173(12)
_cell_angle_alpha                116.156(3)
_cell_angle_beta                 99.215(3)
_cell_angle_gamma                95.524(3)
_cell_volume                     866.088
_exptl_crystal_colour            colorless
_exptl_crystal_description       block
_cell_formula_units_Z            2
loop_
_atom_site_label
_atom_site_type_symbol
_atom_site_fract_x
_atom_site_fract_y
_atom_site_fract_z
S1 S 0.53849(7) 0.57781(7) 0.26647(6)
N1 N 0.7241(2) 0.6787(2) 0.30115(19)
O1 O 0.4477(2) 0.5675(2) 0.14747(17)
O2 O 0.4736(2) 0.63730(18) 0.38141(17)
C1 C 0.8032(3) 0.6669(3) 0.1935(3)
H1 H 0.8862 0.7552 0.2248
H2 H 0.7173 0.6635 0.1243
C2 C 0.8880(3) 0.5378(3) 0.1357(3)
H3 H 0.8741 0.4932 0.0455
C3 C 0.9799(3) 0.4803(3) 0.1979(3)
C4 C 1.0223(4) 0.5320(3) 0.3410(3)
H4 H 0.9822 0.4495 0.3541
H5 H 1.1443 0.5510 0.3672
C5 C 0.9660(3) 0.6599(3) 0.4366(3)
H6 H 1.0370 0.7054 0.5194
C6 C 0.8326(3) 0.7221(3) 0.4262(2)
C7 C 0.7995(3) 0.8474(3) 0.5388(2)
C8 C 0.8294(4) 0.8581(3) 0.6614(3)
H7 H 0.8658 0.7815 0.6728
C9 C 0.8075(4) 0.9778(4) 0.7677(3)
H8 H 0.8298 0.9819 0.8498
C10 C 0.7524(4) 1.0919(4) 0.7530(3)
H9 H 0.7387 1.1741 0.8249
C11 C 0.7186(4) 1.0829(3) 0.6328(4)
H10 H 0.6800 1.1590 0.6220
C12 C 0.7404(4) 0.9628(3) 0.5263(3)
H11 H 0.7153 0.9586 0.4443
C13 C 0.5723(3) 0.4024(3) 0.2390(2)
C14 C 0.5890(3) 0.3023(3) 0.1181(2)
H12 H 0.5727 0.3231 0.0481
C15 C 0.6305(3) 0.1706(3) 0.1026(3)
H13 H 0.6442 0.1037 0.0215
C16 C 0.6522(3) 0.1355(3) 0.2039(3)
C17 C 0.6278(3) 0.2348(3) 0.3226(3)
H14 H 0.6369 0.2113 0.3911
C18 C 0.5901(3) 0.3684(3) 0.3415(2)
H15 H 0.5767 0.4354 0.4227
C19 C 1.0511(3) 0.3472(3) 0.1227(3)
H16 H 1.0200 0.3189 0.0312
H17 H 1.0070 0.2685 0.1379
H18 H 1.1717 0.3694 0.1511
C20 C 0.7000(4) -0.0074(3) 0.1866(3)
H19 H 0.7120 -0.0630 0.0987
H20 H 0.6137 -0.0616 0.2035
H21 H 0.8049 0.0112 0.2465
loop_
_geom_bond_atom_site_label_1
_geom_bond_atom_site_label_2
_geom_bond_site_symmetry_1
_geom_bond_site_symmetry_2
S1 N1 1_555 1_555
N1 C1 1_555 1_555
O1 S1 1_555 1_555
O2 S1 1_555 1_555
C1 H1 1_555 1_555
H2 C1 1_555 1_555
C2 C1 1_555 1_555
H3 C2 1_555 1_555
C3 C2 1_555 1_555
C4 C3 1_555 1_555
H4 C4 1_555 1_555
H5 C4 1_555 1_555
C5 C4 1_555 1_555
H6 C5 1_555 1_555
C6 N1 1_555 1_555
C7 C6 1_555 1_555
C8 C7 1_555 1_555
H7 C8 1_555 1_555
C9 C8 1_555 1_555
H8 C9 1_555 1_555
C10 C9 1_555 1_555
H9 C10 1_555 1_555
C11 C10 1_555 1_555
H10 C11 1_555 1_555
C12 C7 1_555 1_555
H11 C12 1_555 1_555
C13 S1 1_555 1_555
C14 C13 1_555 1_555
H12 C14 1_555 1_555
C15 C14 1_555 1_555
H13 C15 1_555 1_555
C16 C15 1_555 1_555
C17 C16 1_555 1_555
H14 C17 1_555 1_555
C18 C13 1_555 1_555
H15 C18 1_555 1_555
C19 C3 1_555 1_555
H16 C19 1_555 1_555
H17 C19 1_555 1_555
H18 C19 1_555 1_555
C20 C16 1_555 1_555
H19 C20 1_555 1_555
H20 C20 1_555 1_555
H21 C20 1_555 1_555
C5 C6 1_555 1_555
C11 C12 1_555 1_555
C17 C18 1_555 1_555

#END
