
#######################################################################
#
#                 Cambridge Crystallographic Data Centre
#                                CCDC 
#
#######################################################################
#
# If this CIF has been generated from an entry in the Cambridge 
# Structural Database, then it will include bibliographic, chemical, 
# crystal, experimental, refinement or atomic coordinate data resulting 
# from the CCDC's data processing and validation procedures.
#
#######################################################################

data_QAGDUA
_chemical_formula_moiety         'C18 H28 N3 1+,B1 F4 1-'
_chemical_name_systematic        
'(S)-4-(3,3-Dimethylbutan-2-yl)-1-mesityl-3-methyl-4H-1,2,4-triazol-1-ium tetrafluoroborate'
_symmetry_cell_setting           orthorhombic
_symmetry_space_group_name_H-M   'P 21 21 21'
_symmetry_Int_Tables_number      19
_space_group_name_Hall           'P 2ac 2ab'
loop_
_symmetry_equiv_pos_site_id
_symmetry_equiv_pos_as_xyz
1 x,y,z
2 1/2-x,-y,1/2+z
3 1/2+x,1/2-y,-z
4 -x,1/2+y,1/2-z
_cell_length_a                   9.3232(4)
_cell_length_b                   9.8579(5)
_cell_length_c                   43.235(2)
_cell_angle_alpha                90
_cell_angle_beta                 90
_cell_angle_gamma                90
_cell_volume                     3973.61
_exptl_crystal_colour            colorless
_exptl_crystal_description       irregular
_chemical_melting_point          '188-189 deg.C'
_cell_formula_units_Z            8
loop_
_atom_site_label
_atom_site_type_symbol
_atom_site_fract_x
_atom_site_fract_y
_atom_site_fract_z
F1 F 0.21406(11) 0.89008(14) 0.01582(3)
F2 F 0.35568(17) 0.8666(2) 0.05855(4)
F3 F 0.45426(13) 0.89418(19) 0.01217(3)
F4 F 0.3376(2) 1.0710(2) 0.03394(6)
B1 B 0.3381(2) 0.9340(3) 0.03029(5)
C1 C 0.51590(19) 0.4275(2) 0.06207(4)
C2 C 0.36954(19) 0.5222(2) 0.11420(5)
C3 C 0.3943(2) 0.3605(2) 0.07306(5)
C4 C 0.49018(18) 0.5925(2) 0.10429(4)
C5 C 0.90280(18) 0.6661(2) 0.06035(4)
C6 C 0.56018(18) 0.5434(2) 0.07772(4)
C7 C 0.68511(19) 0.7369(2) 0.05316(4)
C8 C 0.3193(2) 0.4075(2) 0.09884(4)
C9 C 0.5973(2) 0.3762(2) 0.03416(5)
C10 C 0.86478(18) 1.0207(2) 0.06010(4)
C11 C 0.5457(2) 0.7154(2) 0.12116(5)
C12 C 0.9509(3) 0.9838(3) 0.08914(6)
C13 C 0.9335(2) 1.1474(2) 0.04581(5)
C14 C 0.1861(2) 0.3356(3) 0.10988(5)
C15 C 0.7101(2) 1.0519(3) 0.06905(6)
C16 C 1.06182(19) 0.6580(3) 0.05886(5)
C17 C 0.80339(19) 0.9290(2) 0.00507(4)
N1 N 0.82244(15) 0.77278(17) 0.04922(3)
N2 N 0.82032(16) 0.57035(18) 0.07158(4)
N3 N 0.68276(16) 0.61779(17) 0.06677(4)
C18 C 0.87699(17) 0.9032(2) 0.03610(4)
H1 H 0.705(3) 0.945(3) 0.0079(6)
H2 H 0.845(3) 1.005(4) -0.0039(7)
H3 H 0.940(5) 1.053(6) 0.1037(12)
H4 H 1.102(4) 0.724(4) 0.0705(9)
H5 H 0.553(3) 0.306(3) 0.0256(6)
H6 H 0.309(3) 0.561(3) 0.1326(6)
H7 H 0.352(3) 0.284(4) 0.0623(7)
H8 H 0.932(3) 0.911(4) 0.0971(7)
H9 H 0.816(3) 0.849(3) -0.0094(6)
H10 H 0.603(3) 0.452(4) 0.0187(7)
H11 H 0.199(3) 0.324(3) 0.1325(7)
H12 H 0.085(3) 0.402(4) 0.1071(8)
H13 H 0.887(3) 1.163(3) 0.0270(8)
H14 H 0.696(3) 0.350(3) 0.0399(6)
H15 H 0.162(4) 0.251(4) 0.0989(8)
H16 H 0.510(3) 0.732(3) 0.1398(7)
H17 H 0.660(3) 0.709(3) 0.1255(7)
H18 H 0.531(2) 0.787(3) 0.1103(5)
H19 H 0.601(3) 0.787(3) 0.0476(5)
H20 H 0.709(2) 1.125(3) 0.0818(6)
H21 H 0.980(2) 0.890(2) 0.0327(5)
H22 H 1.095(2) 0.572(3) 0.0660(6)
H23 H 0.670(4) 0.976(4) 0.0800(9)
H24 H 1.101(4) 0.658(4) 0.0364(9)
H25 H 1.033(3) 1.128(3) 0.0392(6)
H26 H 0.936(3) 1.211(4) 0.0607(8)
H27 H 0.656(4) 1.066(4) 0.0512(9)
H28 H 1.067(6) 0.968(6) 0.0818(12)
C19 C -0.30451(19) 1.3362(2) 0.20945(4)
C20 C -0.2561(2) 1.2558(2) 0.23777(5)
C21 C -0.91003(18) 0.9015(2) 0.18727(4)
C22 C -0.49544(19) 1.1637(2) 0.19564(4)
C23 C -0.77588(18) 0.8924(2) 0.13977(4)
C24 C -0.69299(19) 1.0020(2) 0.14888(4)
C25 C -0.88464(19) 0.8404(2) 0.15865(4)
C26 C -0.57153(19) 1.3733(2) 0.19699(4)
C27 C -0.83015(18) 1.0114(2) 0.19750(4)
C28 C -0.72121(19) 1.0581(2) 0.17794(4)
C29 C -0.0625(2) 1.3992(3) 0.19072(5)
C30 C -0.5775(2) 1.0575(3) 0.12814(5)
C31 C -0.20314(19) 1.3304(2) 0.18078(4)
C32 C -0.9713(2) 0.7190(3) 0.14890(5)
C33 C -0.8564(2) 1.0752(3) 0.22856(5)
C34 C -0.2672(2) 1.4135(3) 0.15423(5)
C35 C -0.5761(2) 1.5209(2) 0.20288(5)
N4 N -0.68314(16) 1.30023(17) 0.18875(4)
N5 N -0.63330(16) 1.16931(19) 0.18808(4)
N6 N -0.45258(16) 1.29202(17) 0.20091(3)
C36 C -0.1722(2) 1.1866(3) 0.16992(5)
H29 H -0.602(2) 1.033(3) 0.1073(6)
H30 H -0.471(3) 1.029(3) 0.1343(6)
H31 H -0.581(3) 1.153(4) 0.1299(7)
H32 H -0.254(2) 1.144(3) 0.2330(6)
H33 H -0.939(3) 1.034(3) 0.2380(6)
H34 H -0.756(2) 0.855(3) 0.1182(6)
H35 H -0.323(3) 1.274(3) 0.2542(6)
H36 H -0.186(4) 1.417(4) 0.1389(9)
H37 H -0.353(4) 1.370(3) 0.1466(7)
H38 H -0.081(4) 1.185(4) 0.1551(8)
H39 H -0.993(2) 0.868(3) 0.2013(6)
H40 H -0.962(3) 0.704(4) 0.1245(8)
H41 H -0.167(3) 1.290(3) 0.2451(5)
H42 H -0.781(3) 1.066(3) 0.2410(7)
H43 H -0.522(3) 1.569(3) 0.1916(6)
H44 H -0.543(2) 1.544(2) 0.2239(6)
H45 H 0.006(3) 1.348(3) 0.2057(7)
H46 H -0.437(2) 1.084(2) 0.1957(4)
H47 H -0.091(3) 1.483(3) 0.1988(6)
H48 H -0.288(3) 1.502(4) 0.1621(7)
H49 H -0.257(4) 1.135(4) 0.1614(8)
H50 H -0.322(2) 1.433(3) 0.2148(5)
H51 H -0.867(3) 1.178(4) 0.2274(7)
H52 H 0.014(3) 1.402(3) 0.1728(7)
H53 H -0.681(3) 1.554(3) 0.1989(7)
H54 H -1.081(5) 0.735(5) 0.1527(10)
H55 H -0.930(4) 0.642(4) 0.1584(8)
H56 H -0.131(3) 1.125(4) 0.1847(7)
F5 F -0.25499(17) 0.70479(18) 0.20266(4)
F6 F -0.41175(17) 0.7696(2) 0.23832(4)
F7 F -0.2262(2) 0.9039(2) 0.22826(5)
F8 F -0.3989(5) 0.8763(3) 0.19181(5)
B2 B -0.3238(3) 0.8153(3) 0.21498(6)
loop_
_geom_bond_atom_site_label_1
_geom_bond_atom_site_label_2
_geom_bond_site_symmetry_1
_geom_bond_site_symmetry_2
F1 B1 1_555 1_555
F2 B1 1_555 1_555
F3 B1 1_555 1_555
F4 B1 1_555 1_555
C1 C3 1_555 1_555
C2 C4 1_555 1_555
C3 C8 1_555 1_555
C4 C6 1_555 1_555
C5 C16 1_555 1_555
C6 C1 1_555 1_555
C7 N1 1_555 1_555
C8 C2 1_555 1_555
C9 C1 1_555 1_555
C10 C12 1_555 1_555
C11 C4 1_555 1_555
C12 H3 1_555 1_555
C13 C10 1_555 1_555
C14 C8 1_555 1_555
C15 C10 1_555 1_555
C16 H4 1_555 1_555
C17 C18 1_555 1_555
N1 C5 1_555 1_555
N2 C5 1_555 1_555
N3 C6 1_555 1_555
C18 C10 1_555 1_555
H1 C17 1_555 1_555
H2 C17 1_555 1_555
H5 C9 1_555 1_555
H6 C2 1_555 1_555
H7 C3 1_555 1_555
H8 C12 1_555 1_555
H9 C17 1_555 1_555
H10 C9 1_555 1_555
H11 C14 1_555 1_555
H12 C14 1_555 1_555
H13 C13 1_555 1_555
H14 C9 1_555 1_555
H15 C14 1_555 1_555
H16 C11 1_555 1_555
H17 C11 1_555 1_555
H18 C11 1_555 1_555
H19 C7 1_555 1_555
H20 C15 1_555 1_555
H21 C18 1_555 1_555
H22 C16 1_555 1_555
H23 C15 1_555 1_555
H24 C16 1_555 1_555
H25 C13 1_555 1_555
H26 C13 1_555 1_555
H27 C15 1_555 1_555
H28 C12 1_555 1_555
C19 C20 1_555 1_555
C20 H32 1_555 1_555
C21 C25 1_555 1_555
C22 N5 1_555 1_555
C23 C24 1_555 1_555
C24 C28 1_555 1_555
C25 C23 1_555 1_555
C26 C35 1_555 1_555
C27 C21 1_555 1_555
C28 C27 1_555 1_555
C29 C31 1_555 1_555
C30 C24 1_555 1_555
C31 C19 1_555 1_555
C32 C25 1_555 1_555
C33 C27 1_555 1_555
C34 C31 1_555 1_555
C35 H43 1_555 1_555
N4 C26 1_555 1_555
N5 C28 1_555 1_555
N6 C19 1_555 1_555
C36 C31 1_555 1_555
H29 C30 1_555 1_555
H30 C30 1_555 1_555
H31 C30 1_555 1_555
H33 C33 1_555 1_555
H34 C23 1_555 1_555
H35 C20 1_555 1_555
H36 C34 1_555 1_555
H37 C34 1_555 1_555
H38 C36 1_555 1_555
H39 C21 1_555 1_555
H40 C32 1_555 1_555
H41 C20 1_555 1_555
H42 C33 1_555 1_555
H44 C35 1_555 1_555
H45 C29 1_555 1_555
H46 C22 1_555 1_555
H47 C29 1_555 1_555
H48 C34 1_555 1_555
H49 C36 1_555 1_555
H50 C19 1_555 1_555
H51 C33 1_555 1_555
H52 C29 1_555 1_555
H53 C35 1_555 1_555
H54 C32 1_555 1_555
H55 C32 1_555 1_555
H56 C36 1_555 1_555
F5 B2 1_555 1_555
F6 B2 1_555 1_555
F7 B2 1_555 1_555
F8 B2 1_555 1_555
C7 N3 1_555 1_555
N1 C18 1_555 1_555
N2 N3 1_555 1_555
C22 N6 1_555 1_555
C26 N6 1_555 1_555
N4 N5 1_555 1_555

#END
