
#######################################################################
#
#                 Cambridge Crystallographic Data Centre
#                                CCDC 
#
#######################################################################
#
# If this CIF has been generated from an entry in the Cambridge 
# Structural Database, then it will include bibliographic, chemical, 
# crystal, experimental, refinement or atomic coordinate data resulting 
# from the CCDC's data processing and validation procedures.
#
#######################################################################

data_QAGPEV
_chemical_formula_moiety         'C40 H36 N10,0.25(C1 H2 Cl2)'
_chemical_name_systematic        
'3,4-bis(dicyanomethylene)-2,5-bis(4-(diisopropylamino)phenyl)hexa-1,5-diene-1,1,6,6-tetracarbonitrile dichloromethane solvate'
_symmetry_cell_setting           monoclinic
_symmetry_space_group_name_H-M   'P 21/n'
_symmetry_Int_Tables_number      14
_space_group_name_Hall           '-P 2yn'
loop_
_symmetry_equiv_pos_site_id
_symmetry_equiv_pos_as_xyz
1 x,y,z
2 1/2-x,1/2+y,1/2-z
3 -x,-y,-z
4 1/2+x,1/2-y,1/2+z
_cell_length_a                   13.6680(6)
_cell_length_b                   12.3175(6)
_cell_length_c                   24.2737(12)
_cell_angle_alpha                90
_cell_angle_beta                 100.887(2)
_cell_angle_gamma                90
_cell_volume                     4013.06
_exptl_crystal_colour            purple
_exptl_crystal_description       plate
_cell_formula_units_Z            4
loop_
_atom_site_label
_atom_site_type_symbol
_atom_site_fract_x
_atom_site_fract_y
_atom_site_fract_z
N1 N 0.4715(2) 0.3633(3) 0.49259(14)
N2 N 0.5326(2) 0.2568(3) 0.66051(14)
N3 N 0.1360(2) 0.4848(3) 0.77650(12)
N4 N 0.0954(2) 0.4555(3) 0.40372(14)
N5 N 0.1890(3) 0.1758(4) 0.50715(16)
N6 N 0.3360(3) 0.5169(3) 0.39928(14)
N7 N 0.3118(3) 0.8230(4) 0.48183(14)
N8 N 0.5578(2) 0.6563(3) 0.76979(12)
N9 N 0.0890(2) 0.8253(3) 0.63234(14)
N10 N 0.0199(2) 0.6393(3) 0.48241(14)
C1 C 0.4047(3) 0.3541(3) 0.58527(14)
C2 C 0.3126(2) 0.3953(3) 0.58969(14)
C3 C 0.2574(2) 0.4463(3) 0.53639(14)
C4 C 0.2676(2) 0.5658(3) 0.53114(13)
C5 C 0.2471(2) 0.6361(3) 0.57897(14)
C6 C 0.1530(3) 0.6817(3) 0.57037(14)
C7 C 0.4404(3) 0.3606(3) 0.53350(16)
C8 C 0.4732(3) 0.3005(3) 0.62874(16)
C9 C 0.2678(2) 0.4022(3) 0.63823(13)
C10 C 0.3216(3) 0.3976(3) 0.69374(14)
C11 C 0.2792(3) 0.4193(3) 0.73935(15)
C12 C 0.1769(3) 0.4514(3) 0.73307(14)
C13 C 0.1211(3) 0.4463(3) 0.67758(15)
C14 C 0.1641(3) 0.4250(3) 0.63234(15)
C15 C 0.1922(3) 0.4810(4) 0.83560(16)
C16 C 0.2365(3) 0.5913(4) 0.85289(18)
C17 C 0.1288(4) 0.4383(4) 0.87604(17)
C18 C 0.0405(3) 0.5437(3) 0.76915(16)
C19 C 0.0359(3) 0.6438(4) 0.73084(16)
C20 C -0.0504(3) 0.4697(4) 0.75460(19)
C21 C 0.2015(3) 0.3846(3) 0.49636(14)
C22 C 0.1420(3) 0.4254(3) 0.44517(16)
C23 C 0.1956(3) 0.2682(4) 0.50281(15)
C24 C 0.2947(3) 0.6144(3) 0.48670(14)
C25 C 0.3182(3) 0.5584(3) 0.43873(16)
C26 C 0.3045(3) 0.7313(4) 0.48453(15)
C27 C 0.3254(3) 0.6476(3) 0.62739(14)
C28 C 0.4252(3) 0.6230(3) 0.62411(15)
C29 C 0.5000(3) 0.6279(3) 0.66978(15)
C30 C 0.4830(3) 0.6560(3) 0.72384(15)
C31 C 0.3831(3) 0.6842(3) 0.72684(15)
C32 C 0.3085(3) 0.6790(3) 0.68077(14)
C33 C 0.6563(3) 0.6038(4) 0.77018(18)
C34 C 0.7223(3) 0.6712(4) 0.7383(2)
C35 C 0.6481(3) 0.4844(4) 0.75407(19)
C36 C 0.5400(3) 0.6935(4) 0.82516(16)
C37 C 0.6273(3) 0.7602(4) 0.85749(18)
C38 C 0.5156(4) 0.5975(5) 0.86074(19)
C39 C 0.1194(3) 0.7605(3) 0.60623(15)
C40 C 0.0796(3) 0.6565(3) 0.52095(16)
H1 H 0.3924 0.3780 0.7000
H2 H 0.2786 0.6194 0.8222
H3 H 0.2850 0.5851 0.8934
H4 H 0.1773 0.6482 0.8554
H5 H 0.0728 0.4977 0.8806
H6 H 0.1756 0.4231 0.9164
H7 H 0.0930 0.3637 0.8598
H8 H 0.1013 0.6933 0.7443
H9 H -0.0300 0.6906 0.7333
H10 H 0.0332 0.6178 0.6881
H11 H -0.0651 0.4530 0.7101
H12 H -0.1144 0.5093 0.7659
H13 H -0.0361 0.3944 0.7775
H14 H 0.7132 0.6424 0.6956
H15 H 0.7993 0.6631 0.7586
H16 H 0.7005 0.7555 0.7382
H17 H 0.5985 0.4441 0.7773
H18 H 0.7208 0.4472 0.7638
H19 H 0.6189 0.4771 0.7097
H20 H 0.6867 0.7062 0.8761
H21 H 0.6024 0.8062 0.8901
H22 H 0.6542 0.8151 0.8290
H23 H 0.4562 0.5499 0.8366
H24 H 0.4925 0.6278 0.8980
H25 H 0.5810 0.5473 0.8726
H26 H 0.321(3) 0.417(3) 0.7761(16)
H27 H 0.054(3) 0.464(3) 0.6730(13)
H28 H 0.123(3) 0.423(3) 0.5927(15)
H29 H 0.242(3) 0.429(3) 0.8363(15)
H30 H 0.039(3) 0.572(3) 0.8053(16)
H31 H 0.444(2) 0.608(3) 0.5860(13)
H32 H 0.568(3) 0.611(3) 0.6652(15)
H33 H 0.370(2) 0.711(3) 0.7634(14)
H34 H 0.239(3) 0.698(3) 0.6828(13)
H35 H 0.697(3) 0.599(3) 0.8121(15)
H36 H 0.477(2) 0.746(3) 0.8180(13)
Cl1 Cl 0.122(2) 0.460(3) 0.1213(15)
Cl2 Cl 0.207(3) 0.673(3) 0.1120(14)
C41 C 0.158(7) 0.555(5) 0.0729(17)
H37 H 0.2080 0.5234 0.0544
H38 H 0.1007 0.5750 0.0445
loop_
_geom_bond_atom_site_label_1
_geom_bond_atom_site_label_2
_geom_bond_site_symmetry_1
_geom_bond_site_symmetry_2
N1 C7 1_555 1_555
N2 C8 1_555 1_555
N3 C12 1_555 1_555
N4 C22 1_555 1_555
N5 C23 1_555 1_555
N6 C25 1_555 1_555
N7 C26 1_555 1_555
N8 C30 1_555 1_555
N9 C39 1_555 1_555
N10 C40 1_555 1_555
C1 C2 1_555 1_555
C2 C3 1_555 1_555
C3 C4 1_555 1_555
C4 C5 1_555 1_555
C5 C6 1_555 1_555
C6 C39 1_555 1_555
C7 C1 1_555 1_555
C8 C1 1_555 1_555
C9 C2 1_555 1_555
C10 C9 1_555 1_555
C11 C10 1_555 1_555
C12 C11 1_555 1_555
C13 C12 1_555 1_555
C14 C9 1_555 1_555
C15 N3 1_555 1_555
C16 C15 1_555 1_555
C17 C15 1_555 1_555
C18 N3 1_555 1_555
C19 C18 1_555 1_555
C20 C18 1_555 1_555
C21 C3 1_555 1_555
C22 C21 1_555 1_555
C23 C21 1_555 1_555
C24 C4 1_555 1_555
C25 C24 1_555 1_555
C26 C24 1_555 1_555
C27 C5 1_555 1_555
C28 C27 1_555 1_555
C29 C28 1_555 1_555
C30 C29 1_555 1_555
C31 C30 1_555 1_555
C32 C27 1_555 1_555
C33 N8 1_555 1_555
C34 C33 1_555 1_555
C35 C33 1_555 1_555
C36 N8 1_555 1_555
C37 C36 1_555 1_555
C38 C36 1_555 1_555
C40 C6 1_555 1_555
Cl1 C41 1_555 1_555
Cl2 C41 1_555 1_555
C41 H37 1_555 1_555
H1 C10 1_555 1_555
H2 C16 1_555 1_555
H3 C16 1_555 1_555
H4 C16 1_555 1_555
H5 C17 1_555 1_555
H6 C17 1_555 1_555
H7 C17 1_555 1_555
H8 C19 1_555 1_555
H9 C19 1_555 1_555
H10 C19 1_555 1_555
H11 C20 1_555 1_555
H12 C20 1_555 1_555
H13 C20 1_555 1_555
H14 C34 1_555 1_555
H15 C34 1_555 1_555
H16 C34 1_555 1_555
H17 C35 1_555 1_555
H18 C35 1_555 1_555
H19 C35 1_555 1_555
H20 C37 1_555 1_555
H21 C37 1_555 1_555
H22 C37 1_555 1_555
H23 C38 1_555 1_555
H24 C38 1_555 1_555
H25 C38 1_555 1_555
H26 C11 1_555 1_555
H27 C13 1_555 1_555
H28 C14 1_555 1_555
H29 C15 1_555 1_555
H30 C18 1_555 1_555
H31 C28 1_555 1_555
H32 C29 1_555 1_555
H33 C31 1_555 1_555
H34 C32 1_555 1_555
H35 C33 1_555 1_555
H36 C36 1_555 1_555
H38 C41 1_555 1_555
C13 C14 1_555 1_555
C31 C32 1_555 1_555

#END
