
#######################################################################
#
#                 Cambridge Crystallographic Data Centre
#                                CCDC 
#
#######################################################################
#
# If this CIF has been generated from an entry in the Cambridge 
# Structural Database, then it will include bibliographic, chemical, 
# crystal, experimental, refinement or atomic coordinate data resulting 
# from the CCDC's data processing and validation procedures.
#
#######################################################################

data_QAGYIJ
_chemical_formula_moiety         'C26 H22 N6'
_chemical_name_systematic        
2,5-bis(4-(dimethylamino)phenyl)hexa-1,3,5-triene-1,1,6,6-tetracarbonitrile
_symmetry_cell_setting           monoclinic
_symmetry_space_group_name_H-M   'P 21/c'
_symmetry_Int_Tables_number      14
_space_group_name_Hall           '-P 2ybc'
loop_
_symmetry_equiv_pos_site_id
_symmetry_equiv_pos_as_xyz
1 x,y,z
2 -x,1/2+y,1/2-z
3 -x,-y,-z
4 x,1/2-y,1/2+z
_cell_length_a                   12.9058(13)
_cell_length_b                   7.5529(7)
_cell_length_c                   12.7458(10)
_cell_angle_alpha                90
_cell_angle_beta                 118.198(3)
_cell_angle_gamma                90
_cell_volume                     1094.96
_exptl_crystal_colour            purple
_exptl_crystal_description       plane
_cell_formula_units_Z            2
loop_
_atom_site_label
_atom_site_type_symbol
_atom_site_fract_x
_atom_site_fract_y
_atom_site_fract_z
N1 N 0.1044(2) 0.6280(4) -0.0464(2)
C1 C 0.4140(3) 0.5235(4) 0.1578(2)
C2 C 0.2100(3) 0.6170(4) 0.0547(2)
C3 C 0.4275(3) 0.5836(4) 0.2676(2)
C4 C 0.5396(3) 0.5691(4) 0.3779(2)
C5 C 0.3295(3) 0.6634(4) 0.2680(3)
C6 C 0.3084(3) 0.5370(4) 0.0549(3)
C7 C 0.2235(3) 0.6805(4) 0.1649(3)
C8 C 0.5424(3) 0.5413(4) 0.4936(3)
C9 C 0.7558(3) 0.5636(5) 0.4902(3)
C10 C 0.6469(3) 0.5824(4) 0.3806(2)
C11 C 0.6664(3) 0.6237(4) 0.2805(3)
N2 N 0.8411(3) 0.5542(5) 0.5778(2)
N3 N 0.6869(3) 0.6548(4) 0.2042(2)
C12 C 0.0043(3) 0.7196(5) -0.0484(3)
C13 C 0.0939(3) 0.5602(6) -0.1588(3)
H1 H 0.4815 0.4704 0.1542
H2 H 0.3362 0.7081 0.3431
H3 H 0.3019 0.4899 -0.0197
H4 H 0.1569 0.7374 0.1682
H5 H -0.0719 0.7010 -0.1342
H6 H 0.0238 0.8592 -0.0330
H7 H -0.0131 0.6665 0.0204
H8 H 0.0054 0.5814 -0.2292
H9 H 0.1133 0.4203 -0.1502
H10 H 0.1551 0.6290 -0.1798
H11 H 0.614(3) 0.586(4) 0.565(3)
N1B N 0.8956(2) 0.3720(4) 1.0464(2)
C1B C 0.5860(3) 0.4765(4) 0.8422(2)
C2B C 0.7900(3) 0.3830(4) 0.9453(2)
C3B C 0.5725(3) 0.4164(4) 0.7324(2)
C4B C 0.4604(3) 0.4309(4) 0.6221(2)
C5B C 0.6705(3) 0.3366(4) 0.7320(3)
C6B C 0.6916(3) 0.4630(4) 0.9451(3)
C7B C 0.7765(3) 0.3195(4) 0.8351(3)
C8B C 0.4576(3) 0.4587(4) 0.5064(3)
C9B C 0.2442(3) 0.4364(5) 0.5098(3)
C10B C 0.3531(3) 0.4176(4) 0.6194(2)
C11B C 0.3336(3) 0.3763(4) 0.7195(3)
N2B N 0.1589(3) 0.4458(5) 0.4222(2)
N3B N 0.3131(3) 0.3452(4) 0.7958(2)
C12B C 0.9957(3) 0.2804(5) 1.0484(3)
C13B C 0.9061(3) 0.4398(6) 1.1588(3)
H1B H 0.5185 0.5296 0.8458
H2B H 0.6638 0.2919 0.6569
H3B H 0.6981 0.5101 1.0197
H4B H 0.8431 0.2626 0.8318
H5B H 1.0719 0.2990 1.1342
H6B H 0.9762 0.1408 1.0330
H7B H 1.0131 0.3335 0.9796
H8B H 0.9946 0.4186 1.2292
H9B H 0.8867 0.5797 1.1502
H10B H 0.8449 0.3710 1.1798
H11B H 0.386(3) 0.414(4) 0.435(3)
loop_
_geom_bond_atom_site_label_1
_geom_bond_atom_site_label_2
_geom_bond_site_symmetry_1
_geom_bond_site_symmetry_2
N1 C2 1_555 1_555
C1 C3 1_555 1_555
C2 C6 1_555 1_555
C3 C4 1_555 1_555
C4 C8 1_555 1_555
C5 C3 1_555 1_555
C6 C1 1_555 1_555
C7 C2 1_555 1_555
C8 H11 1_555 1_555
C9 C10 1_555 1_555
C10 C4 1_555 1_555
C11 C10 1_555 1_555
N2 C9 1_555 1_555
N3 C11 1_555 1_555
C12 N1 1_555 1_555
C13 N1 1_555 1_555
H1 C1 1_555 1_555
H2 C5 1_555 1_555
H3 C6 1_555 1_555
H4 C7 1_555 1_555
H5 C12 1_555 1_555
H6 C12 1_555 1_555
H7 C12 1_555 1_555
H8 C13 1_555 1_555
H9 C13 1_555 1_555
H10 C13 1_555 1_555
N1B C2B 1_555 1_555
C1B C3B 1_555 1_555
C2B C6B 1_555 1_555
C3B C4B 1_555 1_555
C4B C8B 1_555 1_555
C5B C3B 1_555 1_555
C6B C1B 1_555 1_555
C7B C2B 1_555 1_555
C8B C8 1_555 1_555
C9B C10B 1_555 1_555
C10B C4B 1_555 1_555
C11B C10B 1_555 1_555
N2B C9B 1_555 1_555
N3B C11B 1_555 1_555
C12B N1B 1_555 1_555
C13B N1B 1_555 1_555
H1B C1B 1_555 1_555
H2B C5B 1_555 1_555
H3B C6B 1_555 1_555
H4B C7B 1_555 1_555
H5B C12B 1_555 1_555
H6B C12B 1_555 1_555
H7B C12B 1_555 1_555
H8B C13B 1_555 1_555
H9B C13B 1_555 1_555
H10B C13B 1_555 1_555
H11B C8B 1_555 1_555
C5 C7 1_555 1_555
C5B C7B 1_555 1_555

#END
