
#######################################################################
#
#                 Cambridge Crystallographic Data Centre
#                                CCDC 
#
#######################################################################
#
# If this CIF has been generated from an entry in the Cambridge 
# Structural Database, then it will include bibliographic, chemical, 
# crystal, experimental, refinement or atomic coordinate data resulting 
# from the CCDC's data processing and validation procedures.
#
#######################################################################

data_QAHGIS
_chemical_formula_moiety         'C8 H4 I1 N1 O2'
_chemical_name_systematic        7-iodo-1H-indole-2,3-dione
_symmetry_cell_setting           monoclinic
_symmetry_space_group_name_H-M   'P 21/c'
_symmetry_Int_Tables_number      14
_space_group_name_Hall           '-P 2ybc'
loop_
_symmetry_equiv_pos_site_id
_symmetry_equiv_pos_as_xyz
1 x,y,z
2 -x,1/2+y,1/2-z
3 -x,-y,-z
4 x,1/2-y,1/2+z
_cell_length_a                   4.0896(3)
_cell_length_b                   13.2139(10)
_cell_length_c                   15.1946(11)
_cell_angle_alpha                90
_cell_angle_beta                 92.325(4)
_cell_angle_gamma                90
_cell_volume                     820.434
_exptl_crystal_colour            red
_exptl_crystal_description       block
_cell_formula_units_Z            4
loop_
_atom_site_label
_atom_site_type_symbol
_atom_site_fract_x
_atom_site_fract_y
_atom_site_fract_z
I1 I 0.19785(10) 0.18336(3) 0.57456(2)
O1 O 0.7430(14) 0.5226(3) 0.4045(3)
O2 O 0.9639(13) 0.3999(3) 0.2590(3)
N1 N 0.5378(14) 0.3695(3) 0.4492(3)
C1 C 0.6936(17) 0.4330(4) 0.3954(4)
C2 C 0.8030(16) 0.3679(4) 0.3167(3)
C3 C 0.6755(14) 0.2681(4) 0.3337(3)
C4 C 0.6910(18) 0.1779(4) 0.2852(4)
H1 H 0.7903 0.1760 0.2312
C5 C 0.5550(17) 0.0925(4) 0.3200(4)
H2 H 0.5622 0.0318 0.2891
C6 C 0.4069(16) 0.0956(4) 0.4006(4)
H3 H 0.3138 0.0370 0.4224
C7 C 0.3947(14) 0.1848(4) 0.4495(3)
C8 C 0.5242(14) 0.2709(4) 0.4142(3)
H4 H 0.463(13) 0.387(4) 0.4997(18)
loop_
_geom_bond_atom_site_label_1
_geom_bond_atom_site_label_2
_geom_bond_site_symmetry_1
_geom_bond_site_symmetry_2
I1 C7 1_555 1_555
O1 C1 1_555 1_555
O2 C2 1_555 1_555
N1 C1 1_555 1_555
C1 C2 1_555 1_555
C2 C3 1_555 1_555
C3 C4 1_555 1_555
C4 H1 1_555 1_555
C5 C4 1_555 1_555
H2 C5 1_555 1_555
C6 C5 1_555 1_555
H3 C6 1_555 1_555
C7 C6 1_555 1_555
C8 N1 1_555 1_555
H4 N1 1_555 1_555
C3 C8 1_555 1_555
C7 C8 1_555 1_555

#END
