
#######################################################################
#
#                 Cambridge Crystallographic Data Centre
#                                CCDC 
#
#######################################################################
#
# If this CIF has been generated from an entry in the Cambridge 
# Structural Database, then it will include bibliographic, chemical, 
# crystal, experimental, refinement or atomic coordinate data resulting 
# from the CCDC's data processing and validation procedures.
#
#######################################################################

data_QAHRIB
_chemical_formula_moiety         'C24 H28'
_chemical_name_systematic        
1,2,9,10-Tetraethylpentacyclo(7.7.0.0^2,6^.0^3,8^.0^11,16^)hexadeca-3,5,7,11,13,15-hexaene
_symmetry_cell_setting           monoclinic
_symmetry_space_group_name_H-M   'P 21/c'
_symmetry_Int_Tables_number      14
_space_group_name_Hall           '-P 2ybc'
loop_
_symmetry_equiv_pos_site_id
_symmetry_equiv_pos_as_xyz
1 x,y,z
2 x,1/2-y,1/2+z
3 -x,-y,-z
4 -x,1/2+y,1/2-z
_cell_length_a                   16.160(3)
_cell_length_b                   15.269(3)
_cell_length_c                   16.389(3)
_cell_angle_alpha                90
_cell_angle_beta                 108.54(3)
_cell_angle_gamma                90
_cell_volume                     3834.06
_exptl_crystal_colour            colorless
_exptl_crystal_description       block
_cell_formula_units_Z            8
loop_
_atom_site_label
_atom_site_type_symbol
_atom_site_fract_x
_atom_site_fract_y
_atom_site_fract_z
C1 C 0.04140(15) 0.32168(16) 0.41607(15)
C2 C 0.06346(19) 0.39757(19) 0.46134(18)
H1 H 0.0336 0.4494 0.4414
C3 C 0.1318(2) 0.3952(2) 0.5382(2)
H2 H 0.1471 0.4459 0.5710
C4 C 0.17699(19) 0.3196(3) 0.56643(18)
H3 H 0.2234 0.3201 0.6176
C5 C 0.15504(17) 0.2416(2) 0.52017(17)
H4 H 0.1845 0.1897 0.5403
C6 C 0.08759(15) 0.24496(17) 0.44297(14)
C7 C 0.04548(14) 0.18026(16) 0.37294(14)
C8 C -0.02385(15) 0.29561(16) 0.32937(15)
C9 C -0.05575(14) 0.20246(16) 0.35170(14)
C10 C 0.03417(15) 0.23674(17) 0.28876(14)
C11 C -0.03480(16) 0.18693(17) 0.22096(15)
C12 C -0.0449(2) 0.1614(2) 0.13807(17)
H5 H -0.0045 0.1759 0.1106
C13 C -0.1206(2) 0.1114(2) 0.0968(2)
H6 H -0.1316 0.0951 0.0397
C14 C -0.1773(2) 0.0869(2) 0.1380(2)
H7 H -0.2249 0.0520 0.1096
C15 C -0.16551(18) 0.11311(19) 0.22251(19)
H8 H -0.2056 0.0979 0.2502
C16 C -0.09310(15) 0.16198(16) 0.26350(15)
C17 C 0.07630(18) 0.08544(18) 0.3829(2)
H9 H 0.0801 0.0653 0.4401
H10 H 0.0332 0.0496 0.3417
C18 C 0.16355(19) 0.0725(2) 0.3696(2)
H11 H 0.1790 0.0116 0.3762
H12 H 0.2070 0.1062 0.4114
H13 H 0.1602 0.0915 0.3128
C19 C -0.08566(17) 0.36398(18) 0.27589(16)
H14 H -0.0529 0.4172 0.2757
H15 H -0.1080 0.3432 0.2170
C20 C -0.16227(19) 0.3859(2) 0.3067(2)
H16 H -0.1981 0.4294 0.2696
H17 H -0.1411 0.4082 0.3644
H18 H -0.1962 0.3341 0.3056
C21 C -0.10466(18) 0.19323(19) 0.41597(17)
H19 H -0.0817 0.2355 0.4618
H20 H -0.1656 0.2074 0.3876
C22 C -0.0991(2) 0.1034(2) 0.4551(2)
H21 H -0.1309 0.1026 0.4956
H22 H -0.0391 0.0890 0.4841
H23 H -0.1238 0.0612 0.4105
C23 C 0.11288(18) 0.2737(2) 0.26877(18)
H24 H 0.1565 0.2903 0.3225
H25 H 0.1378 0.2279 0.2429
C24 C 0.0939(2) 0.3520(2) 0.2095(2)
H26 H 0.1466 0.3706 0.1996
H27 H 0.0715 0.3989 0.2354
H28 H 0.0514 0.3363 0.1557
C25 C 0.40694(16) 0.74386(17) 0.06851(16)
C26 C 0.3283(2) 0.7324(2) 0.0061(2)
H29 H 0.2835 0.7727 -0.0002
C27 C 0.3160(2) 0.6605(2) -0.0476(2)
H30 H 0.2636 0.6533 -0.0919
C28 C 0.3787(3) 0.6019(3) -0.0358(2)
H31 H 0.3682 0.5516 -0.0696
C29 C 0.4606(3) 0.6134(2) 0.0259(3)
H32 H 0.5064 0.5750 0.0299
C30 C 0.47055(18) 0.68338(18) 0.08011(18)
C31 C 0.54403(19) 0.7196(2) 0.15495(19)
C32 C 0.44683(17) 0.80970(18) 0.13726(17)
C33 C 0.4927(2) 0.7502(2) 0.21643(17)
C34 C 0.54266(17) 0.8185(2) 0.13543(17)
C35 C 0.58949(16) 0.85820(18) 0.22132(17)
C36 C 0.6457(2) 0.9283(3) 0.2506(2)
H33 H 0.6644 0.9620 0.2126
C37 C 0.6729(2) 0.9466(3) 0.3370(3)
H34 H 0.7156 0.9889 0.3589
C38 C 0.6396(3) 0.9052(3) 0.3890(2)
H35 H 0.6541 0.9231 0.4461
C39 C 0.5829(3) 0.8349(3) 0.3609(2)
H36 H 0.5643 0.8020 0.3996
C40 C 0.55518(19) 0.8154(2) 0.27526(17)
C41 C 0.6371(2) 0.6774(3) 0.1760(3)
C43 C 0.6435(2) 0.5935(2) 0.2217(2)
C44 C 0.3875(3) 0.8799(3) 0.1575(3)
C46 C 0.3623(3) 0.9481(3) 0.0916(2)
C47 C 0.4590(3) 0.6739(3) 0.2587(3)
C49 C 0.3931(3) 0.7011(4) 0.2967(3)
C50 C 0.5495(2) 0.8644(2) 0.0505(2)
C52 C 0.6361(3) 0.8529(3) 0.0418(2)
C42? C 0.5839(6) 0.6407(7) 0.2415(6)
C45? C 0.4288(7) 0.9162(8) 0.1006(8)
C48? C 0.3844(6) 0.7456(10) 0.2352(6)
C51? C 0.6096(8) 0.7923(8) 0.0812(7)
loop_
_geom_bond_atom_site_label_1
_geom_bond_atom_site_label_2
_geom_bond_site_symmetry_1
_geom_bond_site_symmetry_2
C1 C2 1_555 1_555
C2 H1 1_555 1_555
C3 C2 1_555 1_555
H2 C3 1_555 1_555
C4 C3 1_555 1_555
H3 C4 1_555 1_555
C5 C4 1_555 1_555
H4 C5 1_555 1_555
C6 C1 1_555 1_555
C7 C6 1_555 1_555
C8 C1 1_555 1_555
C9 C7 1_555 1_555
C10 C7 1_555 1_555
C11 C10 1_555 1_555
C12 C11 1_555 1_555
H5 C12 1_555 1_555
C13 C12 1_555 1_555
H6 C13 1_555 1_555
C14 C13 1_555 1_555
H7 C14 1_555 1_555
C15 C14 1_555 1_555
H8 C15 1_555 1_555
C16 C9 1_555 1_555
C17 C7 1_555 1_555
H9 C17 1_555 1_555
H10 C17 1_555 1_555
C18 C17 1_555 1_555
H11 C18 1_555 1_555
H12 C18 1_555 1_555
H13 C18 1_555 1_555
C19 C8 1_555 1_555
H14 C19 1_555 1_555
H15 C19 1_555 1_555
C20 C19 1_555 1_555
H16 C20 1_555 1_555
H17 C20 1_555 1_555
H18 C20 1_555 1_555
C21 C9 1_555 1_555
H19 C21 1_555 1_555
H20 C21 1_555 1_555
C22 C21 1_555 1_555
H21 C22 1_555 1_555
H22 C22 1_555 1_555
H23 C22 1_555 1_555
C23 C10 1_555 1_555
H24 C23 1_555 1_555
H25 C23 1_555 1_555
C24 C23 1_555 1_555
H26 C24 1_555 1_555
H27 C24 1_555 1_555
H28 C24 1_555 1_555
C25 C26 1_555 1_555
C26 H29 1_555 1_555
C27 C26 1_555 1_555
H30 C27 1_555 1_555
C28 C27 1_555 1_555
H31 C28 1_555 1_555
C29 C28 1_555 1_555
H32 C29 1_555 1_555
C30 C25 1_555 1_555
C31 C30 1_555 1_555
C32 C25 1_555 1_555
C33 C31 1_555 1_555
C34 C31 1_555 1_555
C35 C34 1_555 1_555
C36 C35 1_555 1_555
H33 C36 1_555 1_555
C37 C36 1_555 1_555
H34 C37 1_555 1_555
C38 C37 1_555 1_555
H35 C38 1_555 1_555
C39 C38 1_555 1_555
H36 C39 1_555 1_555
C40 C33 1_555 1_555
C41 C31 1_555 1_555
C43 C41 1_555 1_555
C44 C32 1_555 1_555
C46 C44 1_555 1_555
C47 C33 1_555 1_555
C49 C47 1_555 1_555
C50 C34 1_555 1_555
C52 C50 1_555 1_555
C5 C6 1_555 1_555
C8 C9 1_555 1_555
C8 C10 1_555 1_555
C11 C16 1_555 1_555
C15 C16 1_555 1_555
C29 C30 1_555 1_555
C32 C33 1_555 1_555
C32 C34 1_555 1_555
C35 C40 1_555 1_555
C39 C40 1_555 1_555

#END
