
#######################################################################
#
#                 Cambridge Crystallographic Data Centre
#                                CCDC 
#
#######################################################################
#
# If this CIF has been generated from an entry in the Cambridge 
# Structural Database, then it will include bibliographic, chemical, 
# crystal, experimental, refinement or atomic coordinate data resulting 
# from the CCDC's data processing and validation procedures.
#
#######################################################################

data_QAHSIB
_chemical_formula_moiety         'C10 H10 N2,C6 Cl4 O2'
_chemical_name_systematic        '2,3-Diaminonaphthalene chloranil'
_symmetry_cell_setting           orthorhombic
_symmetry_space_group_name_H-M   'P 21 21 21'
_symmetry_Int_Tables_number      19
_space_group_name_Hall           'P 2ac 2ab'
loop_
_symmetry_equiv_pos_site_id
_symmetry_equiv_pos_as_xyz
1 x,y,z
2 1/2-x,-y,1/2+z
3 1/2+x,1/2-y,-z
4 -x,1/2+y,1/2-z
_cell_length_a                   6.866(3)
_cell_length_b                   14.739(8)
_cell_length_c                   15.867(3)
_cell_angle_alpha                90
_cell_angle_beta                 90
_cell_angle_gamma                90
_cell_volume                     1605.71
_cell_formula_units_Z            4
_exptl_crystal_recrystallization_method dichloromethane
loop_
_atom_site_label
_atom_site_type_symbol
_atom_site_fract_x
_atom_site_fract_y
_atom_site_fract_z
Cl1 Cl 0.116(1) -0.2444(4) 0.6297(4)
Cl2 Cl 0.004(1) -0.1299(5) 0.4690(4)
Cl3 Cl 0.087(1) 0.1786(4) 0.6485(4)
Cl4 Cl 0.195(1) 0.0617(5) 0.8114(4)
O1 O 0.012(3) 0.063(1) 0.5032(9)
O2 O 0.201(2) -0.131(1) 0.7724(8)
C1 C 0.122(3) -0.128(1) 0.631(1)
C2 C 0.076(4) -0.083(2) 0.564(1)
C3 C 0.051(3) 0.022(2) 0.562(1)
C4 C 0.107(3) 0.062(1) 0.646(1)
C5 C 0.147(3) 0.016(1) 0.713(1)
C6 C 0.161(3) -0.086(1) 0.714(1)
N1 N 0.072(3) -0.747(1) 0.415(1)
N2 N -0.044(3) -0.632(1) 0.545(1)
C7 C 0.115(3) -0.612(1) 0.326(1)
C8 C 0.124(3) -0.518(1) 0.317(1)
C9 C 0.082(3) -0.459(1) 0.388(1)
C10 C 0.026(3) -0.500(1) 0.464(1)
C11 C 0.015(3) -0.595(1) 0.467(1)
C12 C 0.068(3) -0.651(1) 0.400(1)
C13 C 0.178(3) -0.479(1) 0.240(1)
C14 C 0.185(4) -0.387(2) 0.230(2)
C15 C 0.146(3) -0.330(1) 0.296(1)
C16 C 0.090(3) -0.363(1) 0.370(1)
loop_
_geom_bond_atom_site_label_1
_geom_bond_atom_site_label_2
_geom_bond_site_symmetry_1
_geom_bond_site_symmetry_2
Cl1 C1 1_555 1_555
Cl2 C2 1_555 1_555
Cl3 C4 1_555 1_555
Cl4 C5 1_555 1_555
O1 C3 1_555 1_555
O2 C6 1_555 1_555
N1 C12 1_555 1_555
N2 C11 1_555 1_555
C1 C2 1_555 1_555
C2 C3 1_555 1_555
C3 C4 1_555 1_555
C4 C5 1_555 1_555
C5 C6 1_555 1_555
C6 C1 1_555 1_555
C7 C8 1_555 1_555
C8 C9 1_555 1_555
C9 C10 1_555 1_555
C10 C11 1_555 1_555
C11 C12 1_555 1_555
C12 C7 1_555 1_555
C13 C8 1_555 1_555
C14 C13 1_555 1_555
C15 C14 1_555 1_555
C16 C9 1_555 1_555
C15 C16 1_555 1_555

#END
