
#######################################################################
#
#                 Cambridge Crystallographic Data Centre
#                                CCDC 
#
#######################################################################
#
# If this CIF has been generated from an entry in the Cambridge 
# Structural Database, then it will include bibliographic, chemical, 
# crystal, experimental, refinement or atomic coordinate data resulting 
# from the CCDC's data processing and validation procedures.
#
#######################################################################

data_QAJNIB
_chemical_formula_moiety         'C24 H24 N2 O3 S1'
_chemical_name_systematic        
N-(1-Benzyl-7-methoxy-2,3-dihydroquinolin-4(1H)-ylidene)-4-methylbenzenesulfonamide
_symmetry_cell_setting           monoclinic
_symmetry_space_group_name_H-M   'P c'
_symmetry_Int_Tables_number      7
_space_group_name_Hall           'P -2yc'
loop_
_symmetry_equiv_pos_site_id
_symmetry_equiv_pos_as_xyz
1 x,y,z
2 x,-y,1/2+z
_cell_length_a                   8.4903(5)
_cell_length_b                   26.1760(16)
_cell_length_c                   19.7878(12)
_cell_angle_alpha                90
_cell_angle_beta                 99.048(5)
_cell_angle_gamma                90
_cell_volume                     4342.96
_exptl_crystal_colour            yellow
_exptl_crystal_description       prism
_cell_formula_units_Z            8
loop_
_atom_site_label
_atom_site_type_symbol
_atom_site_fract_x
_atom_site_fract_y
_atom_site_fract_z
C1 C 0.4817(11) 0.3085(4) 0.9977(7)
C2 C 0.5490(14) 0.3138(5) 1.0634(7)
H1 H 0.5610 0.2852 1.0932
C3 C 0.6021(14) 0.3630(6) 1.0876(6)
H2 H 0.6486 0.3665 1.1343
C4 C 0.5895(14) 0.4057(5) 1.0470(7)
C5 C 0.6480(15) 0.4573(5) 1.0757(7)
H3 H 0.6287 0.4831 1.0395
H4 H 0.7626 0.4554 1.0930
H5 H 0.5906 0.4667 1.1131
C6 C 0.5149(16) 0.3985(5) 0.9804(7)
H6 H 0.4943 0.4275 0.9513
C7 C 0.4694(16) 0.3510(5) 0.9547(6)
H7 H 0.4294 0.3472 0.9074
C8 C 0.5845(12) 0.1705(4) 0.9495(5)
C9 C 0.432(2) 0.1385(7) 0.9462(18)
H8 H 0.3356 0.1592 0.9308
H9 H 0.4240 0.1228 0.9910
C10 C 0.460(2) 0.0954(9) 0.8893(18)
H10 H 0.3654 0.0727 0.8809
H11 H 0.4700 0.1126 0.8456
C11 C 0.7333(14) 0.0906(4) 0.9373(5)
C12 C 0.7293(12) 0.1430(3) 0.9540(5)
C13 C 0.8742(12) 0.1684(4) 0.9799(5)
H12 H 0.8713 0.2038 0.9900
C14 C 1.0189(13) 0.1433(4) 0.9909(6)
H13 H 1.1154 0.1608 1.0073
C15 C 1.0165(16) 0.0909(4) 0.9769(6)
C16 C 1.1682(15) 0.0121(4) 0.9937(8)
H14 H 1.2781 0.0006 1.0084
H15 H 1.1309 0.0003 0.9470
H16 H 1.0994 -0.0020 1.0245
C17 C 0.8815(13) 0.0647(4) 0.9513(5)
H17 H 0.8867 0.0291 0.9429
C18 C 0.5988(13) 0.0136(4) 0.8843(5)
H18 H 0.7055 0.0059 0.8726
H19 H 0.5202 0.0109 0.8418
C19 C 0.5582(12) -0.0260(4) 0.9363(7)
C20 C 0.4544(15) -0.0658(5) 0.9146(7)
H20 H 0.4056 -0.0678 0.8680
C21 C 0.422(2) -0.1029(5) 0.9618(11)
H21 H 0.3510 -0.1303 0.9475
C22 C 0.493(3) -0.0993(6) 1.0273(10)
H22 H 0.4732 -0.1251 1.0588
C23 C 0.5880(17) -0.0610(6) 1.0492(7)
H23 H 0.6348 -0.0586 1.0960
C24 C 0.6176(13) -0.0253(4) 1.0041(7)
H24 H 0.6850 0.0023 1.0208
N1 N 0.5835(9) 0.2186(3) 0.9657(4)
N2 N 0.5978(10) 0.0656(3) 0.9108(4)
O1 O 0.3409(14) 0.2278(4) 1.0301(8)
O2 O 0.303(2) 0.2541(5) 0.9110(7)
O3 O 1.1625(9) 0.0670(3) 0.9957(5)
S1 S 0.4048(7) 0.2489(2) 0.9766(5)
C27 C 1.0006(12) -0.0466(4) 0.7233(7)
C28 C 0.9210(13) -0.0546(4) 0.6606(6)
H29 H 0.9008 -0.0273 0.6286
C29 C 0.8680(13) -0.1042(4) 0.6431(6)
H30 H 0.8145 -0.1105 0.5980
C30 C 0.8897(16) -0.1427(4) 0.6872(8)
C31 C 0.8226(15) -0.1955(4) 0.6670(6)
H31 H 0.7676 -0.1947 0.6196
H32 H 0.7471 -0.2054 0.6974
H33 H 0.9099 -0.2203 0.6711
C32 C 0.9728(14) -0.1337(4) 0.7487(7)
H34 H 0.9934 -0.1612 0.7801
C33 C 1.0311(13) -0.0851(5) 0.7689(6)
H35 H 1.0901 -0.0794 0.8131
C34 C 0.9166(11) 0.0956(4) 0.7589(5)
C35 C 1.0669(13) 0.1241(4) 0.7771(7)
H36 H 1.1394 0.1036 0.8107
H37 H 1.1177 0.1273 0.7356
C36 C 1.0537(14) 0.1735(5) 0.8048(7)
H38 H 1.0921 0.1708 0.8546
H39 H 1.1310 0.1955 0.7858
C37 C 0.7726(12) 0.1763(4) 0.7692(5)
C38 C 0.7710(11) 0.1232(4) 0.7527(4)
C39 C 0.6303(11) 0.0997(4) 0.7287(5)
H40 H 0.6295 0.0638 0.7213
C40 C 0.4936(11) 0.1256(4) 0.7154(5)
H41 H 0.3976 0.1085 0.6970
C41 C 0.4922(13) 0.1781(4) 0.7286(7)
C42 C 0.3468(13) 0.2565(5) 0.7188(8)
H42 H 0.2388 0.2693 0.7027
H43 H 0.4216 0.2724 0.6921
H44 H 0.3777 0.2651 0.7673
C43 C 0.6300(12) 0.2023(4) 0.7563(5)
H45 H 0.6273 0.2377 0.7668
C44 C 0.9144(12) 0.2526(3) 0.8251(5)
H46 H 0.9903 0.2532 0.8685
H47 H 0.8076 0.2613 0.8359
C45 C 0.9639(12) 0.2941(4) 0.7770(6)
C46 C 1.0639(13) 0.3334(4) 0.8014(6)
H48 H 1.1075 0.3345 0.8486
C47 C 1.1026(16) 0.3718(4) 0.7582(9)
H49 H 1.1724 0.3985 0.7764
C48 C 1.0422(16) 0.3715(5) 0.6906(9)
H50 H 1.0635 0.3988 0.6617
C49 C 0.9520(15) 0.3320(5) 0.6658(6)
H51 H 0.9164 0.3303 0.6179
C50 C 0.9067(12) 0.2922(4) 0.7077(6)
H52 H 0.8393 0.2652 0.6887
N3 N 0.9151(9) 0.0469(3) 0.7460(4)
N4 N 0.9091(10) 0.2008(3) 0.7973(4)
O6 O 1.1739(11) 0.0118(3) 0.8117(6)
O7 O 1.1588(10) 0.0336(3) 0.6898(6)
O8 O 0.3499(9) 0.2008(3) 0.7101(5)
S3 S 1.0806(4) 0.01514(12) 0.7453(2)
C51 C 1.1052(12) 0.5466(4) 0.5026(7)
C52 C 1.1621(15) 0.5660(5) 0.5647(7)
H53 H 1.2238 0.5446 0.5975
C53 C 1.1340(15) 0.6159(6) 0.5825(7)
H54 H 1.1834 0.6291 0.6253
C54 C 1.0364(16) 0.6457(4) 0.5390(8)
C55 C 0.9992(17) 0.7016(4) 0.5580(8)
H55 H 0.9314 0.7177 0.5192
H56 H 1.0992 0.7207 0.5689
H57 H 0.9438 0.7014 0.5978
C56 C 0.9773(18) 0.6261(5) 0.4767(8)
H58 H 0.9083 0.6464 0.4450
C57 C 1.0149(16) 0.5775(6) 0.4582(7)
H59 H 0.9763 0.5656 0.4133
C58 C 0.9936(13) 0.4066(4) 0.4767(5)
C59 C 1.1287(14) 0.3748(4) 0.4631(8)
H60 H 1.1956 0.3955 0.4369
H61 H 1.1945 0.3662 0.5075
C60 C 1.0892(13) 0.3287(5) 0.4269(6)
H62 H 1.0736 0.3368 0.3774
H63 H 1.1833 0.3059 0.4361
C61 C 0.8365(12) 0.3255(4) 0.4672(5)
C62 C 0.8525(11) 0.3790(3) 0.4850(5)
C63 C 0.7327(12) 0.4024(4) 0.5121(5)
H64 H 0.7406 0.4379 0.5220
C64 C 0.6032(13) 0.3764(4) 0.5251(6)
H65 H 0.5225 0.3932 0.5449
C65 C 0.5889(13) 0.3231(4) 0.5087(6)
C66 C 0.4521(15) 0.2446(4) 0.5230(7)
H66 H 0.3576 0.2324 0.5409
H67 H 0.5478 0.2289 0.5488
H68 H 0.4436 0.2352 0.4746
C67 C 0.7024(13) 0.2992(4) 0.4815(5)
H69 H 0.6921 0.2637 0.4717
C68 C 0.9301(14) 0.2488(4) 0.4103(5)
H70 H 1.0015 0.2444 0.3757
H71 H 0.8191 0.2466 0.3861
C69 C 0.9578(14) 0.2051(4) 0.4596(7)
C70 C 0.9107(18) 0.1547(5) 0.4382(8)
H72 H 0.8639 0.1481 0.3922
C71 C 0.934(2) 0.1158(5) 0.4853(11)
H73 H 0.8926 0.0829 0.4722
C72 C 1.014(2) 0.1223(7) 0.5493(11)
H74 H 1.0447 0.0939 0.5782
C73 C 1.0466(17) 0.1689(6) 0.5701(8)
H75 H 1.0929 0.1742 0.6165
C74 C 1.0168(14) 0.2115(5) 0.5271(8)
H76 H 1.0379 0.2449 0.5451
N5 N 1.0004(9) 0.4552(3) 0.4870(4)
N6 N 0.9550(11) 0.3003(3) 0.4394(4)
O9 O 1.2894(10) 0.4686(3) 0.5297(6)
O10 O 1.1886(12) 0.4898(3) 0.4109(5)
O11 O 0.4628(9) 0.2993(3) 0.5298(4)
S4 S 1.1618(4) 0.48624(11) 0.4815(2)
C75 C 0.3932(14) 0.1886(4) 0.2398(7)
C76 C 0.3235(15) 0.1766(5) 0.1775(7)
H77 H 0.2512 0.1992 0.1510
C77 C 0.3612(16) 0.1287(6) 0.1523(7)
H78 H 0.3156 0.1196 0.1069
C78 C 0.4602(17) 0.0945(5) 0.1899(9)
C79 C 0.4938(16) 0.0413(4) 0.1627(8)
H79 H 0.5689 0.0231 0.1971
H80 H 0.5401 0.0449 0.1206
H81 H 0.3940 0.0220 0.1530
C80 C 0.5364(16) 0.1086(5) 0.2522(8)
H82 H 0.6129 0.0869 0.2781
C81 C 0.4988(14) 0.1561(5) 0.2773(6)
H83 H 0.5481 0.1662 0.3218
C82 C 0.5180(10) 0.3289(4) 0.2872(5)
C83 C 0.3846(13) 0.3612(4) 0.3027(6)
H84 H 0.3212 0.3725 0.2589
H85 H 0.3141 0.3400 0.3267
C84 C 0.4322(14) 0.4057(4) 0.3439(6)
H86 H 0.3385 0.4284 0.3430
H87 H 0.4658 0.3947 0.3919
C85 C 0.6756(11) 0.4100(4) 0.2962(5)
C86 C 0.6649(10) 0.3561(3) 0.2832(4)
C87 C 0.7903(11) 0.3324(4) 0.2580(5)
H88 H 0.7828 0.2968 0.2486
C88 C 0.9233(10) 0.3577(4) 0.2462(5)
H89 H 1.0096 0.3400 0.2315
C89 C 0.9291(15) 0.4112(4) 0.2565(6)
C90 C 1.0556(14) 0.4905(5) 0.2384(8)
H90 H 1.1554 0.5033 0.2259
H91 H 1.0433 0.5034 0.2837
H92 H 0.9657 0.5020 0.2046
C91 C 0.8079(12) 0.4358(4) 0.2821(5)
H93 H 0.8157 0.4715 0.2902
C92 C 0.5851(12) 0.4854(4) 0.3539(5)
H94 H 0.6928 0.4869 0.3816
H95 H 0.5060 0.4911 0.3849
C93 C 0.5692(11) 0.5271(4) 0.3001(6)
C94 C 0.6347(14) 0.5731(5) 0.3175(6)
H96 H 0.6894 0.5783 0.3627
C95 C 0.624(2) 0.6135(5) 0.2707(11)
H97 H 0.6758 0.6452 0.2826
C96 C 0.538(2) 0.6057(6) 0.2078(9)
H98 H 0.5198 0.6335 0.1765
C97 C 0.4787(18) 0.5609(6) 0.1895(7)
H99 H 0.4267 0.5554 0.1439
C98 C 0.4915(13) 0.5225(4) 0.2350(7)
H100 H 0.4439 0.4906 0.2209
N7 N 0.5134(9) 0.2798(3) 0.2745(4)
N8 N 0.5598(9) 0.4346(3) 0.3224(4)
O12 O 0.2154(10) 0.2690(3) 0.2296(6)
O13 O 0.3258(12) 0.2390(3) 0.3440(6)
O14 O 1.0590(8) 0.4351(3) 0.2399(5)
S5 S 0.3463(4) 0.24757(12) 0.2754(2)
C25? C 0.447(3) 0.1403(9) 0.906(2)
H25? H 0.3440 0.1551 0.9136
H26? H 0.4550 0.1451 0.8568
C26? C 0.446(3) 0.0874(9) 0.920(2)
H27? H 0.3589 0.0706 0.8884
H28? H 0.4269 0.0817 0.9673
O4? O 0.303(2) 0.2277(7) 0.9842(12)
O5? O 0.384(2) 0.2599(6) 0.8789(9)
S2? S 0.4306(11) 0.2506(3) 0.9470(7)
loop_
_geom_bond_atom_site_label_1
_geom_bond_atom_site_label_2
_geom_bond_site_symmetry_1
_geom_bond_site_symmetry_2
C1 C2 1_555 1_555
C2 H1 1_555 1_555
C3 C2 1_555 1_555
H2 C3 1_555 1_555
C4 C3 1_555 1_555
C5 C4 1_555 1_555
H3 C5 1_555 1_555
H4 C5 1_555 1_555
H5 C5 1_555 1_555
C6 C4 1_555 1_555
H6 C6 1_555 1_555
C7 C1 1_555 1_555
H7 C7 1_555 1_555
C8 C9 1_555 1_555
C9 H8 1_555 1_555
H9 C9 1_555 1_555
C10 C9 1_555 1_555
H10 C10 1_555 1_555
H11 C10 1_555 1_555
C11 C12 1_555 1_555
C12 C8 1_555 1_555
C13 C12 1_555 1_555
H12 C13 1_555 1_555
C14 C13 1_555 1_555
H13 C14 1_555 1_555
C15 C14 1_555 1_555
C16 H14 1_555 1_555
H15 C16 1_555 1_555
H16 C16 1_555 1_555
C17 C11 1_555 1_555
H17 C17 1_555 1_555
C18 H18 1_555 1_555
H19 C18 1_555 1_555
C19 C18 1_555 1_555
C20 C19 1_555 1_555
H20 C20 1_555 1_555
C21 C20 1_555 1_555
H21 C21 1_555 1_555
C22 C21 1_555 1_555
H22 C22 1_555 1_555
C23 C22 1_555 1_555
H23 C23 1_555 1_555
C24 C19 1_555 1_555
H24 C24 1_555 1_555
N1 C8 1_555 1_555
N2 C10 1_555 1_555
O1 S1 1_555 1_555
O2 S1 1_555 1_555
O3 C15 1_555 1_555
S1 C1 1_555 1_555
C27 C28 1_555 1_555
C28 H29 1_555 1_555
C29 C28 1_555 1_555
H30 C29 1_555 1_555
C30 C29 1_555 1_555
C31 C30 1_555 1_555
H31 C31 1_555 1_555
H32 C31 1_555 1_555
H33 C31 1_555 1_555
C32 C30 1_555 1_555
H34 C32 1_555 1_555
C33 C27 1_555 1_555
H35 C33 1_555 1_555
C34 C35 1_555 1_555
C35 H36 1_555 1_555
H37 C35 1_555 1_555
C36 C35 1_555 1_555
H38 C36 1_555 1_555
H39 C36 1_555 1_555
C37 C38 1_555 1_555
C38 C34 1_555 1_555
C39 C38 1_555 1_555
H40 C39 1_555 1_555
C40 C39 1_555 1_555
H41 C40 1_555 1_555
C41 C40 1_555 1_555
C42 H42 1_555 1_555
H43 C42 1_555 1_555
H44 C42 1_555 1_555
C43 C37 1_555 1_555
H45 C43 1_555 1_555
C44 H46 1_555 1_555
H47 C44 1_555 1_555
C45 C44 1_555 1_555
C46 C45 1_555 1_555
H48 C46 1_555 1_555
C47 C46 1_555 1_555
H49 C47 1_555 1_555
C48 C47 1_555 1_555
H50 C48 1_555 1_555
C49 C48 1_555 1_555
H51 C49 1_555 1_555
C50 C45 1_555 1_555
H52 C50 1_555 1_555
N3 C34 1_555 1_555
N4 C36 1_555 1_555
O6 S3 1_555 1_555
O7 S3 1_555 1_555
O8 C41 1_555 1_555
S3 C27 1_555 1_555
C51 C52 1_555 1_555
C52 H53 1_555 1_555
C53 C52 1_555 1_555
H54 C53 1_555 1_555
C54 C53 1_555 1_555
C55 C54 1_555 1_555
H55 C55 1_555 1_555
H56 C55 1_555 1_555
H57 C55 1_555 1_555
C56 C54 1_555 1_555
H58 C56 1_555 1_555
C57 C51 1_555 1_555
H59 C57 1_555 1_555
C58 C59 1_555 1_555
C59 H60 1_555 1_555
H61 C59 1_555 1_555
C60 C59 1_555 1_555
H62 C60 1_555 1_555
H63 C60 1_555 1_555
C61 C62 1_555 1_555
C62 C58 1_555 1_555
C63 C62 1_555 1_555
H64 C63 1_555 1_555
C64 C63 1_555 1_555
H65 C64 1_555 1_555
C65 C64 1_555 1_555
C66 H66 1_555 1_555
H67 C66 1_555 1_555
H68 C66 1_555 1_555
C67 C61 1_555 1_555
H69 C67 1_555 1_555
C68 H70 1_555 1_555
H71 C68 1_555 1_555
C69 C68 1_555 1_555
C70 C69 1_555 1_555
H72 C70 1_555 1_555
C71 C70 1_555 1_555
H73 C71 1_555 1_555
C72 C71 1_555 1_555
H74 C72 1_555 1_555
C73 C72 1_555 1_555
H75 C73 1_555 1_555
C74 C69 1_555 1_555
H76 C74 1_555 1_555
N5 C58 1_555 1_555
N6 C60 1_555 1_555
O9 S4 1_555 1_555
O10 S4 1_555 1_555
O11 C65 1_555 1_555
S4 C51 1_555 1_555
C75 C76 1_555 1_555
C76 H77 1_555 1_555
C77 C76 1_555 1_555
H78 C77 1_555 1_555
C78 C77 1_555 1_555
C79 C78 1_555 1_555
H79 C79 1_555 1_555
H80 C79 1_555 1_555
H81 C79 1_555 1_555
C80 C78 1_555 1_555
H82 C80 1_555 1_555
C81 C75 1_555 1_555
H83 C81 1_555 1_555
C82 C83 1_555 1_555
C83 H84 1_555 1_555
H85 C83 1_555 1_555
C84 C83 1_555 1_555
H86 C84 1_555 1_555
H87 C84 1_555 1_555
C85 C86 1_555 1_555
C86 C82 1_555 1_555
C87 C86 1_555 1_555
H88 C87 1_555 1_555
C88 C87 1_555 1_555
H89 C88 1_555 1_555
C89 C88 1_555 1_555
C90 H90 1_555 1_555
H91 C90 1_555 1_555
H92 C90 1_555 1_555
C91 C85 1_555 1_555
H93 C91 1_555 1_555
C92 H94 1_555 1_555
H95 C92 1_555 1_555
C93 C92 1_555 1_555
C94 C93 1_555 1_555
H96 C94 1_555 1_555
C95 C94 1_555 1_555
H97 C95 1_555 1_555
C96 C95 1_555 1_555
H98 C96 1_555 1_555
C97 C96 1_555 1_555
H99 C97 1_555 1_555
C98 C93 1_555 1_555
H100 C98 1_555 1_555
N7 C82 1_555 1_555
N8 C84 1_555 1_555
O12 S5 1_555 1_555
O13 S5 1_555 1_555
O14 C89 1_555 1_555
S5 C75 1_555 1_555
C6 C7 1_555 1_555
C11 N2 1_555 1_555
C15 C17 1_555 1_555
C16 O3 1_555 1_555
C18 N2 1_555 1_555
C23 C24 1_555 1_555
N1 S1 1_555 1_555
C32 C33 1_555 1_555
C37 N4 1_555 1_555
C41 C43 1_555 1_555
C42 O8 1_555 1_555
C44 N4 1_555 1_555
C49 C50 1_555 1_555
N3 S3 1_555 1_555
C56 C57 1_555 1_555
C61 N6 1_555 1_555
C65 C67 1_555 1_555
C66 O11 1_555 1_555
C68 N6 1_555 1_555
C73 C74 1_555 1_555
N5 S4 1_555 1_555
C80 C81 1_555 1_555
C85 N8 1_555 1_555
C89 C91 1_555 1_555
C90 O14 1_555 1_555
C92 N8 1_555 1_555
C97 C98 1_555 1_555
N7 S5 1_555 1_555

#END
