
#######################################################################
#
#                 Cambridge Crystallographic Data Centre
#                                CCDC 
#
#######################################################################
#
# If this CIF has been generated from an entry in the Cambridge 
# Structural Database, then it will include bibliographic, chemical, 
# crystal, experimental, refinement or atomic coordinate data resulting 
# from the CCDC's data processing and validation procedures.
#
#######################################################################

data_QAJRAV
_chemical_formula_moiety         'C22 H18 Br2 S7 Si2'
_chemical_name_systematic        
6,7-Dibromo-5,8-bis(trimethylsilyl)thiopheno(3',2'-4,5)thiopheno(2,3-b)thiopheno(3'''',2''''-4''',5''')thiopheno(3''',2'''-4'',5'')thiopheno(3'',2''-4,5)thiopheno(3,2-d)thiophene
_symmetry_cell_setting           orthorhombic
_symmetry_space_group_name_H-M   'P b c a'
_symmetry_Int_Tables_number      61
_space_group_name_Hall           '-P 2ac 2ab'
loop_
_symmetry_equiv_pos_site_id
_symmetry_equiv_pos_as_xyz
1 x,y,z
2 1/2+x,y,1/2-z
3 1/2-x,1/2+y,z
4 x,1/2-y,1/2+z
5 -x,-y,-z
6 1/2-x,-y,1/2+z
7 1/2+x,1/2-y,-z
8 -x,1/2+y,1/2-z
_cell_length_a                   12.471(3)
_cell_length_b                   13.846(3)
_cell_length_c                   31.152(7)
_cell_angle_alpha                90
_cell_angle_beta                 90
_cell_angle_gamma                90
_cell_volume                     5379.12
_exptl_crystal_colour            colorless
_exptl_crystal_description       plate
_cell_formula_units_Z            8
_exptl_crystal_recrystallization_method benzene/isopropanol
loop_
_atom_site_label
_atom_site_type_symbol
_atom_site_fract_x
_atom_site_fract_y
_atom_site_fract_z
Br1 Br 0.55431(5) -0.14696(4) 0.35001(2)
Br2 Br 0.72027(5) 0.07459(5) 0.36225(2)
Si1 Si 0.41806(15) -0.14894(13) 0.45216(6)
Si2 Si 0.92229(15) -0.06533(16) 0.42195(7)
S1 S 0.34730(14) 0.05226(11) 0.42008(5)
S2 S 0.31947(13) 0.18866(11) 0.34173(5)
S3 S 0.38600(14) 0.19647(12) 0.24652(6)
S4 S 0.53366(14) 0.09414(12) 0.18227(5)
S5 S 0.71075(14) -0.06052(12) 0.17866(5)
S6 S 0.86003(13) -0.17704(12) 0.23897(6)
S7 S 0.92939(13) -0.17180(13) 0.33514(6)
C1 C 0.4276(5) -0.0486(4) 0.4116(2)
C2 C 0.4751(5) -0.0429(4) 0.3724(2)
C3 C 0.4527(5) 0.0429(4) 0.3480(2)
C4 C 0.3800(5) 0.0979(4) 0.3708(2)
C5 C 0.4691(5) 0.0807(4) 0.3052(2)
C6 C 0.3959(5) 0.1551(5) 0.2983(2)
C7 C 0.5316(5) 0.0639(4) 0.2661(2)
C8 C 0.4855(5) 0.1179(4) 0.2329(2)
C9 C 0.6207(5) 0.0083(4) 0.2493(2)
C10 C 0.6211(5) 0.0130(4) 0.2053(2)
C11 C 0.7105(5) -0.0515(4) 0.2630(2)
C12 C 0.7564(5) -0.0968(5) 0.2282(2)
C13 C 0.7737(5) -0.0742(5) 0.3008(2)
C14 C 0.8502(5) -0.1437(5) 0.2924(2)
C15 C 0.7913(5) -0.0383(5) 0.3431(2)
C16 C 0.8702(5) -0.0823(5) 0.3662(2)
C17 C 0.5525(6) -0.1912(5) 0.4690(3)
H1 H 0.5449 -0.2480 0.4876
H2 H 0.5891 -0.1397 0.4848
H3 H 0.5947 -0.2084 0.4436
C18 C 0.3465(8) -0.1008(6) 0.4997(3)
H4 H 0.3348 -0.1529 0.5204
H5 H 0.2771 -0.0742 0.4908
H6 H 0.3896 -0.0497 0.5130
C19 C 0.3379(6) -0.2468(5) 0.4272(2)
H7 H 0.3720 -0.2670 0.4003
H8 H 0.2653 -0.2232 0.4212
H9 H 0.3340 -0.3020 0.4468
C20 C 0.8228(7) -0.1089(7) 0.4609(3)
H10 H 0.8044 -0.1761 0.4543
H11 H 0.7582 -0.0689 0.4591
H12 H 0.8528 -0.1050 0.4899
C21 C 0.9522(11) 0.0630(8) 0.4340(3)
H13 H 0.8852 0.0999 0.4348
H14 H 0.9992 0.0894 0.4117
H15 H 0.9881 0.0675 0.4620
C22 C 1.0481(7) -0.1385(10) 0.4265(3)
H16 H 1.0817 -0.1265 0.4545
H17 H 1.0978 -0.1201 0.4036
H18 H 1.0306 -0.2073 0.4240
loop_
_geom_bond_atom_site_label_1
_geom_bond_atom_site_label_2
_geom_bond_site_symmetry_1
_geom_bond_site_symmetry_2
Br1 C2 1_555 1_555
Br2 C15 1_555 1_555
Si1 C1 1_555 1_555
Si2 C16 1_555 1_555
S1 C1 1_555 1_555
S2 C4 1_555 1_555
S3 C6 1_555 1_555
S4 C8 1_555 1_555
S5 C10 1_555 1_555
S6 C12 1_555 1_555
S7 C14 1_555 1_555
C1 C2 1_555 1_555
C2 C3 1_555 1_555
C3 C4 1_555 1_555
C4 S1 1_555 1_555
C5 C3 1_555 1_555
C6 S2 1_555 1_555
C7 C5 1_555 1_555
C8 S3 1_555 1_555
C9 C7 1_555 1_555
C10 S4 1_555 1_555
C11 C9 1_555 1_555
C12 S5 1_555 1_555
C13 C11 1_555 1_555
C14 S6 1_555 1_555
C15 C13 1_555 1_555
C16 S7 1_555 1_555
C17 Si1 1_555 1_555
H1 C17 1_555 1_555
H2 C17 1_555 1_555
H3 C17 1_555 1_555
C18 Si1 1_555 1_555
H4 C18 1_555 1_555
H5 C18 1_555 1_555
H6 C18 1_555 1_555
C19 Si1 1_555 1_555
H7 C19 1_555 1_555
H8 C19 1_555 1_555
H9 C19 1_555 1_555
C20 Si2 1_555 1_555
H10 C20 1_555 1_555
H11 C20 1_555 1_555
H12 C20 1_555 1_555
C21 Si2 1_555 1_555
H13 C21 1_555 1_555
H14 C21 1_555 1_555
H15 C21 1_555 1_555
C22 Si2 1_555 1_555
H16 C22 1_555 1_555
H17 C22 1_555 1_555
H18 C22 1_555 1_555
C5 C6 1_555 1_555
C7 C8 1_555 1_555
C9 C10 1_555 1_555
C11 C12 1_555 1_555
C13 C14 1_555 1_555
C15 C16 1_555 1_555

#END
