
#######################################################################
#
#                 Cambridge Crystallographic Data Centre
#                                CCDC 
#
#######################################################################
#
# If this CIF has been generated from an entry in the Cambridge 
# Structural Database, then it will include bibliographic, chemical, 
# crystal, experimental, refinement or atomic coordinate data resulting 
# from the CCDC's data processing and validation procedures.
#
#######################################################################

data_QAJVII
_chemical_formula_moiety         'C14 H11 F1 N2 O2'
_chemical_name_systematic        
2-Fluoro-N'-(2-hydroxybenzylidene)benzohydrazide
_symmetry_cell_setting           monoclinic
_symmetry_space_group_name_H-M   'P 21/c'
_symmetry_Int_Tables_number      14
_space_group_name_Hall           '-P 2ybc'
loop_
_symmetry_equiv_pos_site_id
_symmetry_equiv_pos_as_xyz
1 x,y,z
2 -x,1/2+y,1/2-z
3 -x,-y,-z
4 x,1/2-y,1/2+z
_cell_length_a                   10.661(3)
_cell_length_b                   13.515(3)
_cell_length_c                   8.998(3)
_cell_angle_alpha                90
_cell_angle_beta                 98.150(3)
_cell_angle_gamma                90
_cell_volume                     1283.37
_exptl_crystal_colour            colorless
_exptl_crystal_description       block
_cell_formula_units_Z            4
loop_
_atom_site_label
_atom_site_type_symbol
_atom_site_fract_x
_atom_site_fract_y
_atom_site_fract_z
N1 N 0.7863(3) 0.15833(19) 1.0481(3)
N2 N 0.7326(3) 0.23495(19) 0.9579(3)
H1 H 0.7179 0.2280 0.8620
O1 O 0.9198(3) 0.08661(17) 1.2936(2)
H2 H 0.8803 0.1289 1.2408
O2 O 0.7248(2) 0.33336(17) 1.1581(2)
C1 C 0.8526(3) -0.0093(2) 1.0701(3)
C2 C 0.9105(3) -0.0011(2) 1.2207(4)
C3 C 0.9606(3) -0.0842(3) 1.2979(4)
H3 H 1.0004 -0.0782 1.3964
C4 C 0.9518(4) -0.1747(3) 1.2298(5)
H4 H 0.9841 -0.2300 1.2835
C5 C 0.8961(4) -0.1856(3) 1.0833(5)
H5 H 0.8911 -0.2477 1.0382
C6 C 0.8476(3) -0.1033(3) 1.0036(4)
H6 H 0.8111 -0.1104 0.9040
C7 C 0.7984(3) 0.0748(2) 0.9849(3)
H7 H 0.7720 0.0681 0.8824
C8 C 0.7038(3) 0.3200(2) 1.0222(3)
C9 C 0.6465(3) 0.3994(2) 0.9199(3)
C10 C 0.5089(4) 0.4606(4) 0.7014(4)
H8 H 0.4522 0.4476 0.6152
C11 C 0.5415(4) 0.5549(4) 0.7403(5)
H9 H 0.5064 0.6068 0.6805
C12 C 0.6252(3) 0.5749(2) 0.8661(3)
H10 H 0.6484 0.6397 0.8912
C13 C 0.5613(3) 0.3835(2) 0.7917(3)
C14 C 0.6747(4) 0.4973(3) 0.9556(4)
H11 H 0.7291 0.5114 1.0432
F1 F 0.5221(3) 0.2946(2) 0.7509(3)
F2? F 0.7513(8) 0.5218(5) 1.0737(9)
H12? H 0.5381 0.3188 0.7649
loop_
_geom_bond_atom_site_label_1
_geom_bond_atom_site_label_2
_geom_bond_site_symmetry_1
_geom_bond_site_symmetry_2
N1 N2 1_555 1_555
N2 H1 1_555 1_555
O1 H2 1_555 1_555
O2 C8 1_555 1_555
C1 C2 1_555 1_555
C2 O1 1_555 1_555
C3 C2 1_555 1_555
H3 C3 1_555 1_555
C4 C3 1_555 1_555
H4 C4 1_555 1_555
C5 C4 1_555 1_555
H5 C5 1_555 1_555
C6 C1 1_555 1_555
H6 C6 1_555 1_555
C7 N1 1_555 1_555
H7 C7 1_555 1_555
C8 N2 1_555 1_555
C9 C8 1_555 1_555
C10 H8 1_555 1_555
C11 C10 1_555 1_555
H9 C11 1_555 1_555
C12 C11 1_555 1_555
H10 C12 1_555 1_555
C13 C9 1_555 1_555
C14 C9 1_555 1_555
H11 C14 1_555 1_555
F1 C13 1_555 1_555
C1 C7 1_555 1_555
C5 C6 1_555 1_555
C10 C13 1_555 1_555
C12 C14 1_555 1_555

#END
