
#######################################################################
#
#                 Cambridge Crystallographic Data Centre
#                                CCDC 
#
#######################################################################
#
# If this CIF has been generated from an entry in the Cambridge 
# Structural Database, then it will include bibliographic, chemical, 
# crystal, experimental, refinement or atomic coordinate data resulting 
# from the CCDC's data processing and validation procedures.
#
#######################################################################

data_QAJZAE
_chemical_formula_moiety         'C20 H14 F1 N3'
_chemical_name_systematic        
2-Amino-4-(2-fluorophenyl)-5,6-dihydrobenzo[h]quinoline-3-carbonitrile
_symmetry_cell_setting           orthorhombic
_symmetry_space_group_name_H-M   'P 21 21 21'
_symmetry_Int_Tables_number      19
_space_group_name_Hall           'P 2ac 2ab'
loop_
_symmetry_equiv_pos_site_id
_symmetry_equiv_pos_as_xyz
1 x,y,z
2 1/2-x,-y,1/2+z
3 -x,1/2+y,1/2-z
4 1/2+x,1/2-y,-z
_cell_length_a                   6.9690(14)
_cell_length_b                   12.716(3)
_cell_length_c                   17.379(4)
_cell_angle_alpha                90
_cell_angle_beta                 90
_cell_angle_gamma                90
_cell_volume                     1540.09
_exptl_crystal_colour            yellow
_exptl_crystal_description       block
_chemical_melting_point          '438 K'
_cell_formula_units_Z            4
_exptl_crystal_recrystallization_method methanol
loop_
_atom_site_label
_atom_site_type_symbol
_atom_site_fract_x
_atom_site_fract_y
_atom_site_fract_z
C1 C 0.9531(6) 0.0831(3) 0.49848(19)
N1 N 0.9958(5) 0.2550(2) 0.55568(16)
N2 N 1.0177(6) 0.2774(2) 0.68616(17)
H1 H 1.0349 0.3435 0.6784
H2 H 1.0166 0.2530 0.7323
N3 N 0.9601(7) 0.0234(3) 0.77208(18)
C2 C 0.9338(9) 0.0206(3) 0.4259(2)
H3 H 0.8013 0.0217 0.4089
H4 H 0.9695 -0.0519 0.4356
C3 C 1.0620(9) 0.0662(3) 0.3634(2)
H5 H 1.1955 0.0561 0.3773
H6 H 1.0389 0.0294 0.3154
C4 C 1.0233(7) 0.1807(3) 0.3527(2)
C5 C 1.0325(8) 0.2273(3) 0.2808(2)
H7 H 1.0595 0.1862 0.2378
C6 C 1.0010(7) 0.3334(3) 0.2722(2)
H8 H 1.0047 0.3636 0.2235
C7 C 0.9642(7) 0.3947(3) 0.3356(2)
H9 H 0.9440 0.4666 0.3299
C8 C 0.9571(6) 0.3495(3) 0.4076(2)
H10 H 0.9324 0.3914 0.4503
C9 C 0.9862(6) 0.2430(3) 0.41728(19)
C10 C 0.9766(5) 0.1922(3) 0.49386(19)
C11 C 0.9925(6) 0.2118(3) 0.62584(19)
C12 C 0.9689(6) 0.1031(3) 0.63549(19)
C13 C 0.9470(6) 0.0380(3) 0.5712(2)
C14 C 0.9174(6) -0.0773(3) 0.5810(2)
C15 C 0.7404(8) -0.1240(4) 0.5688(3)
H11 H 0.6394 -0.0781 0.5591
C16 C 0.7092(9) -0.2297(4) 0.5788(3)
H12 H 0.5881 -0.2583 0.5705
C17 C 0.8575(10) -0.2917(4) 0.6009(2)
H13 H 0.8376 -0.3633 0.6084
C18 C 1.0355(9) -0.2501(3) 0.6122(2)
H14 H 1.1378 -0.2934 0.6255
C19 C 1.0625(8) -0.1438(3) 0.6038(2)
C20 C 0.9635(7) 0.0585(3) 0.7116(2)
F1 F 1.2344(6) -0.1074(3) 0.6101(3)
H15? H 1.1833 -0.1153 0.6130
F2? F 0.610(2) -0.0743(11) 0.5394(10)
loop_
_geom_bond_atom_site_label_1
_geom_bond_atom_site_label_2
_geom_bond_site_symmetry_1
_geom_bond_site_symmetry_2
C1 C2 1_555 1_555
N1 C10 1_555 1_555
N2 H1 1_555 1_555
H2 N2 1_555 1_555
N3 C20 1_555 1_555
C2 H3 1_555 1_555
H4 C2 1_555 1_555
C3 C2 1_555 1_555
H5 C3 1_555 1_555
H6 C3 1_555 1_555
C4 C3 1_555 1_555
C5 C4 1_555 1_555
H7 C5 1_555 1_555
C6 C5 1_555 1_555
H8 C6 1_555 1_555
C7 C6 1_555 1_555
H9 C7 1_555 1_555
C8 C7 1_555 1_555
H10 C8 1_555 1_555
C9 C4 1_555 1_555
C10 C1 1_555 1_555
C11 N1 1_555 1_555
C12 C11 1_555 1_555
C13 C1 1_555 1_555
C14 C13 1_555 1_555
C15 C14 1_555 1_555
H11 C15 1_555 1_555
C16 C15 1_555 1_555
H12 C16 1_555 1_555
C17 C16 1_555 1_555
H13 C17 1_555 1_555
C18 C17 1_555 1_555
H14 C18 1_555 1_555
C19 C14 1_555 1_555
C20 C12 1_555 1_555
F1 C19 1_555 1_555
N2 C11 1_555 1_555
C8 C9 1_555 1_555
C9 C10 1_555 1_555
C12 C13 1_555 1_555
C18 C19 1_555 1_555

#END
