
#######################################################################
#
#                 Cambridge Crystallographic Data Centre
#                                CCDC 
#
#######################################################################
#
# If this CIF has been generated from an entry in the Cambridge 
# Structural Database, then it will include bibliographic, chemical, 
# crystal, experimental, refinement or atomic coordinate data resulting 
# from the CCDC's data processing and validation procedures.
#
#######################################################################

data_QAKKIZ
_chemical_formula_moiety         'C19 H28 N2 O3 S1'
_chemical_name_systematic        
1-(1-(1,1-dioxidotetrahydrothiophen-2-yl)cyclohexyl)-3-(1-phenylethyl)urea
_symmetry_cell_setting           orthorhombic
_symmetry_space_group_name_H-M   'P 21 21 21'
_symmetry_Int_Tables_number      19
_space_group_name_Hall           'P 2ac 2ab'
loop_
_symmetry_equiv_pos_site_id
_symmetry_equiv_pos_as_xyz
1 x,y,z
2 1/2-x,-y,1/2+z
3 1/2+x,1/2-y,-z
4 -x,1/2+y,1/2-z
_cell_length_a                   17.766(2)
_cell_length_b                   18.398(2)
_cell_length_c                   12.290(1)
_cell_angle_alpha                90
_cell_angle_beta                 90
_cell_angle_gamma                90
_cell_volume                     4017.1
_exptl_crystal_colour            colorless
_exptl_crystal_description       plate
_cell_formula_units_Z            8
loop_
_atom_site_label
_atom_site_type_symbol
_atom_site_fract_x
_atom_site_fract_y
_atom_site_fract_z
S1 S 0.4969(1) -0.0774(1) -0.0558(1)
C1 C 0.4097(2) -0.0834(2) 0.0164(4)
C2 C 0.3524(3) -0.1052(3) -0.0701(4)
C3 C 0.3887(4) -0.1617(5) -0.1397(7)
C4 C 0.4666(5) -0.1358(5) -0.1638(6)
O1 O 0.5102(3) -0.0065(3) -0.0943(4)
O2 O 0.5557(2) -0.1121(2) 0.0029(4)
C5 C 0.3908(2) -0.0169(2) 0.0905(4)
C6 C 0.3251(3) -0.0397(3) 0.1647(5)
C7 C 0.3002(4) 0.0225(4) 0.2383(7)
C8 C 0.2778(4) 0.0886(4) 0.1737(9)
C9 C 0.3407(4) 0.1128(3) 0.0987(6)
C10 C 0.3697(3) 0.0509(3) 0.0258(4)
N1 N 0.4574(2) 0.0012(2) 0.1560(3)
C11 C 0.4908(2) -0.0442(2) 0.2296(3)
O3 O 0.4770(2) -0.1094(1) 0.2337(3)
N2 N 0.5404(2) -0.0120(2) 0.2951(4)
C12 C 0.5854(3) -0.0506(3) 0.3755(5)
C13 C 0.5654(5) -0.0207(5) 0.4881(7)
C14 C 0.6684(3) -0.0488(3) 0.3458(5)
C15 C 0.6901(4) -0.0723(4) 0.2426(7)
C16 C 0.7641(6) -0.0749(5) 0.2143(10)
C17 C 0.8198(6) -0.0519(6) 0.2832(14)
C18 C 0.7985(5) -0.0268(5) 0.3853(10)
C19 C 0.7235(4) -0.0250(4) 0.4155(7)
H1 H 0.4107 -0.1194 0.0729
H2 H 0.3390 -0.0637 -0.1134
H3 H 0.3081 -0.1247 -0.0362
H4 H 0.3609 -0.1676 -0.2061
H5 H 0.3905 -0.2072 -0.1017
H6 H 0.5000 -0.1767 -0.1692
H7 H 0.4668 -0.1095 -0.2312
H8 H 0.3409 -0.0798 0.2091
H9 H 0.2834 -0.0544 0.1202
H10 H 0.3410 0.0352 0.2858
H11 H 0.2579 0.0068 0.2809
H12 H 0.2660 0.1274 0.2230
H13 H 0.2342 0.0772 0.1309
H14 H 0.3817 0.1304 0.1422
H15 H 0.3223 0.1513 0.0531
H16 H 0.3310 0.0383 -0.0254
H17 H 0.4134 0.0676 -0.0127
H18 H 0.4791 0.0485 0.1464
H19 H 0.5468 0.0396 0.2889
H20 H 0.5739 -0.1016 0.3768
H21 H 0.5945 -0.0455 0.5425
H22 H 0.5764 0.0304 0.4906
H23 H 0.5128 -0.0282 0.5019
H24 H 0.6524 -0.0868 0.1910
H25 H 0.7777 -0.0934 0.1439
H26 H 0.8717 -0.0531 0.2617
H27 H 0.8363 -0.0105 0.4355
H28 H 0.7098 -0.0069 0.4860
S2 S 0.7148(1) 0.2119(1) 0.3367(2)
C20 C 0.6876(3) 0.1771(3) 0.2048(6)
C21 C 0.7635(4) 0.1559(5) 0.1486(9)
C22 C 0.8232(5) 0.1651(9) 0.2155(10)
C23 C 0.8122(4) 0.1859(5) 0.3243(8)
O4 O 0.7110(3) 0.2851(3) 0.3436(6)
O5 O 0.6754(5) 0.1725(5) 0.4226(5)
C24 C 0.6306(3) 0.2229(3) 0.1401(5)
C25 C 0.5992(4) 0.1741(5) 0.0463(5)
C26 C 0.5406(6) 0.2110(10) -0.0210(7)
C27 C 0.5720(9) 0.2838(12) -0.0689(9)
C28 C 0.6068(8) 0.3305(7) 0.0183(11)
C29 C 0.6643(4) 0.2925(4) 0.0900(7)
N3 N 0.5704(2) 0.2466(2) 0.2126(3)
C30 C 0.5191(2) 0.2032(2) 0.2581(3)
O6 O 0.5175(2) 0.1368(2) 0.2464(3)
N4 N 0.4664(2) 0.2375(2) 0.3192(3)
C31 C 0.4069(3) 0.1988(3) 0.3755(4)
C32 C 0.3380(3) 0.2467(3) 0.3813(5)
C33 C 0.4291(3) 0.1706(3) 0.4879(4)
C34 C 0.3798(4) 0.1274(5) 0.5437(7)
C35 C 0.3972(6) 0.1009(6) 0.6447(8)
C36 C 0.4659(5) 0.1159(4) 0.6908(5)
C37 C 0.5147(5) 0.1557(4) 0.6349(6)
C38 C 0.4978(4) 0.1833(3) 0.5316(5)
H29 H 0.6561 0.1349 0.2108
H30 H 0.7703 0.1858 0.0853
H31 H 0.7611 0.1058 0.1271
H32 H 0.8545 0.2016 0.1829
H33 H 0.8497 0.1197 0.2170
H34 H 0.8231 0.1459 0.3720
H35 H 0.8442 0.2262 0.3421
H36 H 0.5775 0.1312 0.0779
H37 H 0.6403 0.1606 -0.0003
H38 H 0.4975 0.2213 0.0236
H39 H 0.5261 0.1795 -0.0797
H40 H 0.5315 0.3101 -0.1023
H41 H 0.6095 0.2728 -0.1226
H42 H 0.5671 0.3482 0.0642
H43 H 0.6313 0.3708 -0.0165
H44 H 0.7074 0.2798 0.0469
H45 H 0.6793 0.3248 0.1474
H46 H 0.5674 0.2976 0.2289
H47 H 0.4686 0.2895 0.3254
H48 H 0.3962 0.1558 0.3340
H49 H 0.2984 0.2214 0.4185
H50 H 0.3500 0.2905 0.4201
H51 H 0.3218 0.2587 0.3090
H52 H 0.3322 0.1154 0.5115
H53 H 0.3613 0.0717 0.6834
H54 H 0.4783 0.0980 0.7619
H55 H 0.5631 0.1659 0.6662
H56 H 0.5346 0.2110 0.4921
loop_
_geom_bond_atom_site_label_1
_geom_bond_atom_site_label_2
_geom_bond_site_symmetry_1
_geom_bond_site_symmetry_2
S1 C1 1_555 1_555
C1 C2 1_555 1_555
C2 C3 1_555 1_555
C3 C4 1_555 1_555
C4 S1 1_555 1_555
O1 S1 1_555 1_555
O2 S1 1_555 1_555
C5 C1 1_555 1_555
C6 C5 1_555 1_555
C7 C6 1_555 1_555
C8 C7 1_555 1_555
C9 C8 1_555 1_555
C10 C5 1_555 1_555
N1 C5 1_555 1_555
C11 N1 1_555 1_555
O3 C11 1_555 1_555
N2 C11 1_555 1_555
C12 N2 1_555 1_555
C13 C12 1_555 1_555
C14 C12 1_555 1_555
C15 C14 1_555 1_555
C16 C15 1_555 1_555
C17 C16 1_555 1_555
C18 C17 1_555 1_555
C19 C14 1_555 1_555
H1 C1 1_555 1_555
H2 C2 1_555 1_555
H3 C2 1_555 1_555
H4 C3 1_555 1_555
H5 C3 1_555 1_555
H6 C4 1_555 1_555
H7 C4 1_555 1_555
H8 C6 1_555 1_555
H9 C6 1_555 1_555
H10 C7 1_555 1_555
H11 C7 1_555 1_555
H12 C8 1_555 1_555
H13 C8 1_555 1_555
H14 C9 1_555 1_555
H15 C9 1_555 1_555
H16 C10 1_555 1_555
H17 C10 1_555 1_555
H18 N1 1_555 1_555
H19 N2 1_555 1_555
H20 C12 1_555 1_555
H21 C13 1_555 1_555
H22 C13 1_555 1_555
H23 C13 1_555 1_555
H24 C15 1_555 1_555
H25 C16 1_555 1_555
H26 C17 1_555 1_555
H27 C18 1_555 1_555
H28 C19 1_555 1_555
S2 C20 1_555 1_555
C20 C21 1_555 1_555
C21 C22 1_555 1_555
C22 C23 1_555 1_555
C23 S2 1_555 1_555
O4 S2 1_555 1_555
O5 S2 1_555 1_555
C24 C20 1_555 1_555
C25 C24 1_555 1_555
C26 C25 1_555 1_555
C27 C26 1_555 1_555
C28 C27 1_555 1_555
C29 C24 1_555 1_555
N3 C24 1_555 1_555
C30 N3 1_555 1_555
O6 C30 1_555 1_555
N4 C30 1_555 1_555
C31 N4 1_555 1_555
C32 C31 1_555 1_555
C33 C31 1_555 1_555
C34 C33 1_555 1_555
C35 C34 1_555 1_555
C36 C35 1_555 1_555
C37 C36 1_555 1_555
C38 C33 1_555 1_555
H29 C20 1_555 1_555
H30 C21 1_555 1_555
H31 C21 1_555 1_555
H32 C22 1_555 1_555
H33 C22 1_555 1_555
H34 C23 1_555 1_555
H35 C23 1_555 1_555
H36 C25 1_555 1_555
H37 C25 1_555 1_555
H38 C26 1_555 1_555
H39 C26 1_555 1_555
H40 C27 1_555 1_555
H41 C27 1_555 1_555
H42 C28 1_555 1_555
H43 C28 1_555 1_555
H44 C29 1_555 1_555
H45 C29 1_555 1_555
H46 N3 1_555 1_555
H47 N4 1_555 1_555
H48 C31 1_555 1_555
H49 C32 1_555 1_555
H50 C32 1_555 1_555
H51 C32 1_555 1_555
H52 C34 1_555 1_555
H53 C35 1_555 1_555
H54 C36 1_555 1_555
H55 C37 1_555 1_555
H56 C38 1_555 1_555
C9 C10 1_555 1_555
C18 C19 1_555 1_555
C28 C29 1_555 1_555
C37 C38 1_555 1_555

#END
