
#######################################################################
#
#                 Cambridge Crystallographic Data Centre
#                                CCDC 
#
#######################################################################
#
# If this CIF has been generated from an entry in the Cambridge 
# Structural Database, then it will include bibliographic, chemical, 
# crystal, experimental, refinement or atomic coordinate data resulting 
# from the CCDC's data processing and validation procedures.
#
#######################################################################

data_QAMCOZ
_chemical_formula_moiety         'C13 H19 Cl1 N4 O1'
_chemical_name_systematic        
5-(Chloromethyl)-1-(2-(3,5-dimethyl-1,2-oxazol-4-yl)ethyl)-4-propyl-1H-1,2,3-triazole
_symmetry_cell_setting           triclinic
_symmetry_space_group_name_H-M   'P -1'
_symmetry_Int_Tables_number      2
_space_group_name_Hall           '-P 1'
loop_
_symmetry_equiv_pos_site_id
_symmetry_equiv_pos_as_xyz
1 x,y,z
2 -x,-y,-z
_cell_length_a                   6.4780(4)
_cell_length_b                   10.9896(7)
_cell_length_c                   11.4239(8)
_cell_angle_alpha                108.252(6)
_cell_angle_beta                 105.167(6)
_cell_angle_gamma                100.100(5)
_cell_volume                     715.479
_exptl_crystal_colour            colorless
_exptl_crystal_description       block
_cell_formula_units_Z            2
loop_
_atom_site_label
_atom_site_type_symbol
_atom_site_fract_x
_atom_site_fract_y
_atom_site_fract_z
Cl1 Cl -0.03195(9) 0.61570(5) 0.40586(5)
O1 O 0.3324(2) 0.10868(15) 0.25997(15)
N1 N 0.0136(2) 0.40350(14) 0.11933(14)
N2 N 0.1762(3) 0.37035(16) 0.07411(15)
N3 N 0.3313(3) 0.48148(16) 0.10655(16)
N4 N 0.1517(3) -0.00853(16) 0.18207(17)
C1 C -0.0786(3) 0.60846(19) 0.24002(19)
H1 H -0.2368 0.5616 0.1862
H2 H -0.0473 0.7003 0.2409
C2 C 0.0654(3) 0.53811(17) 0.18091(16)
C3 C 0.2698(3) 0.58694(18) 0.17259(17)
C4 C 0.4105(3) 0.72801(19) 0.22438(19)
H3 H 0.3163 0.7833 0.1983
H4 H 0.5272 0.7316 0.1833
C5 C 0.5222(3) 0.7881(2) 0.3727(2)
H5 H 0.4064 0.7961 0.4144
H6 H 0.6018 0.7274 0.4006
C6 C 0.6861(4) 0.9248(2) 0.4196(3)
H7 H 0.8092 0.9161 0.3857
H8 H 0.7449 0.9628 0.5156
H9 H 0.6100 0.9838 0.3878
C7 C -0.1783(3) 0.29961(18) 0.10285(18)
H10 H -0.2092 0.2221 0.0213
H11 H -0.3107 0.3340 0.0938
C8 C -0.1404(3) 0.25385(17) 0.21851(18)
H12 H -0.0851 0.3335 0.3011
H13 H -0.2848 0.2004 0.2133
C9 C 0.0215(3) 0.17253(16) 0.22260(16)
C10 C 0.2481(3) 0.21346(19) 0.28168(18)
C11 C 0.4068(3) 0.3480(2) 0.3608(2)
H14 H 0.5238 0.3427 0.4320
H15 H 0.3271 0.4095 0.3978
H16 H 0.4743 0.3804 0.3049
C12 C -0.0291(3) 0.03209(17) 0.16146(18)
C13 C -0.2507(3) -0.06589(18) 0.0819(2)
H17 H -0.3140 -0.0483 0.0031
H18 H -0.3502 -0.0576 0.1337
H19 H -0.2339 -0.1565 0.0565
loop_
_geom_bond_atom_site_label_1
_geom_bond_atom_site_label_2
_geom_bond_site_symmetry_1
_geom_bond_site_symmetry_2
Cl1 C1 1_555 1_555
O1 N4 1_555 1_555
N1 N2 1_555 1_555
N2 N3 1_555 1_555
N3 C3 1_555 1_555
N4 C12 1_555 1_555
C1 H1 1_555 1_555
H2 C1 1_555 1_555
C2 N1 1_555 1_555
C3 C2 1_555 1_555
C4 C3 1_555 1_555
H3 C4 1_555 1_555
H4 C4 1_555 1_555
C5 C4 1_555 1_555
H5 C5 1_555 1_555
H6 C5 1_555 1_555
C6 C5 1_555 1_555
H7 C6 1_555 1_555
H8 C6 1_555 1_555
H9 C6 1_555 1_555
C7 N1 1_555 1_555
H10 C7 1_555 1_555
H11 C7 1_555 1_555
C8 C7 1_555 1_555
H12 C8 1_555 1_555
H13 C8 1_555 1_555
C9 C8 1_555 1_555
C10 O1 1_555 1_555
C11 C10 1_555 1_555
H14 C11 1_555 1_555
H15 C11 1_555 1_555
H16 C11 1_555 1_555
C12 C9 1_555 1_555
C13 C12 1_555 1_555
H17 C13 1_555 1_555
H18 C13 1_555 1_555
H19 C13 1_555 1_555
C1 C2 1_555 1_555
C9 C10 1_555 1_555

#END
