
#######################################################################
#
#                 Cambridge Crystallographic Data Centre
#                                CCDC 
#
#######################################################################
#
# If this CIF has been generated from an entry in the Cambridge 
# Structural Database, then it will include bibliographic, chemical, 
# crystal, experimental, refinement or atomic coordinate data resulting 
# from the CCDC's data processing and validation procedures.
#
#######################################################################

data_QAMKAT
_chemical_formula_moiety         'C20 H25 F2 N2 O4 P1'
_chemical_name_systematic        
'diethyl (1,1-difluoro-2-(morpholin-4-ylimino)-2-(2-naphthyl)ethyl)phosphonate'
_symmetry_cell_setting           monoclinic
_symmetry_space_group_name_H-M   'P 21/n'
_symmetry_Int_Tables_number      14
_space_group_name_Hall           '-P 2yn'
loop_
_symmetry_equiv_pos_site_id
_symmetry_equiv_pos_as_xyz
1 x,y,z
2 1/2-x,1/2+y,1/2-z
3 -x,-y,-z
4 1/2+x,1/2-y,1/2+z
_cell_length_a                   9.3937(10)
_cell_length_b                   13.2586(14)
_cell_length_c                   16.8078(17)
_cell_angle_alpha                90
_cell_angle_beta                 105.4320(18)
_cell_angle_gamma                90
_cell_volume                     2017.89
_exptl_crystal_colour            colorless
_exptl_crystal_description       polyhedron
_cell_formula_units_Z            4
loop_
_atom_site_label
_atom_site_type_symbol
_atom_site_fract_x
_atom_site_fract_y
_atom_site_fract_z
P1 P 0.7964(6) 0.7689(5) 0.4064(3)
O1 O 0.8995(4) 0.7256(2) 0.36609(19)
C1 C 0.8003(9) 0.7246(5) 0.5124(4)
F1 F 0.9324(7) 0.7551(8) 0.5636(5)
F2 F 0.6933(6) 0.7736(5) 0.5373(3)
C2 C 0.78602(17) 0.60887(12) 0.52203(10)
N1 N 0.75958(14) 0.56112(10) 0.45282(8)
N2 N 0.74377(15) 0.45847(10) 0.44571(8)
C3 C 0.6969(2) 0.43102(13) 0.35767(10)
H1 H 0.7602 0.4656 0.3276
H2 H 0.5936 0.4527 0.3335
C4 C 0.7089(2) 0.31826(14) 0.34891(12)
H3 H 0.6769 0.2998 0.2897
H4 H 0.8132 0.2974 0.3707
O2 O 0.62010(14) 0.26639(9) 0.39232(8)
C5 C 0.6684(2) 0.29208(13) 0.47759(12)
H5 H 0.7729 0.2718 0.4997
H6 H 0.6089 0.2545 0.5083
C6 C 0.65382(19) 0.40378(12) 0.49085(11)
H7 H 0.5491 0.4244 0.4706
H8 H 0.6880 0.4197 0.5504
O3 O 0.8198(13) 0.8839(5) 0.4302(6)
C7 C 0.8154(12) 0.9532(5) 0.3623(5)
H9 H 0.7176 0.9500 0.3215
H10 H 0.8917 0.9344 0.3341
C8 C 0.8432(16) 1.0566(7) 0.3965(7)
H11 H 0.8407 1.1044 0.3517
H12 H 0.7669 1.0747 0.4239
H13 H 0.9404 1.0591 0.4365
O4 O 0.6274(3) 0.76404(17) 0.35866(14)
C9 C 0.5703(4) 0.7041(3) 0.28505(19)
H14 H 0.6435 0.6525 0.2801
H15 H 0.5498 0.7477 0.2355
C10 C 0.4323(10) 0.6550(8) 0.2918(6)
H16 H 0.3914 0.6139 0.2426
H17 H 0.4537 0.6118 0.3409
H18 H 0.3604 0.7067 0.2965
C11 C 0.81396(17) 0.57147(11) 0.60834(9)
C12 C 0.91745(17) 0.49223(12) 0.63524(10)
H19 H 0.9674 0.4641 0.5982
C13 C 0.94552(18) 0.45622(13) 0.71398(10)
H20 H 1.0149 0.4031 0.7310
C14 C 0.87281(17) 0.49670(12) 0.77096(10)
C15 C 0.8963(2) 0.45912(14) 0.85237(11)
H21 H 0.9644 0.4057 0.8709
C16 C 0.8215(2) 0.49925(15) 0.90430(11)
H22 H 0.8380 0.4733 0.9587
C17 C 0.7207(2) 0.57841(15) 0.87836(11)
H23 H 0.6699 0.6057 0.9153
C18 C 0.69504(19) 0.61649(13) 0.80030(10)
H24 H 0.6264 0.6700 0.7833
C19 C 0.77028(17) 0.57657(12) 0.74447(10)
C20 C 0.74376(17) 0.61294(12) 0.66258(10)
H25 H 0.6763 0.6669 0.6449
P2? P 0.8197(8) 0.7610(7) 0.4072(5)
O5? O 0.9666(5) 0.7323(3) 0.3980(3)
C21? C 0.7900(14) 0.7122(10) 0.5048(7)
F3? F 0.8949(10) 0.7621(11) 0.5673(8)
F4? F 0.6607(8) 0.7591(8) 0.5136(5)
O6? O 0.795(2) 0.8763(8) 0.4190(9)
C22? C 0.797(2) 0.9532(10) 0.3580(10)
H26? H 0.6968 0.9600 0.3200
H27? H 0.8653 0.9328 0.3252
C23? C 0.844(2) 1.0512(12) 0.3982(13)
H28? H 0.8447 1.1021 0.3560
H29? H 0.7756 1.0718 0.4300
H30? H 0.9438 1.0447 0.4352
O7? O 0.6953(4) 0.7247(2) 0.33311(19)
C24? C 0.5427(6) 0.7555(5) 0.3149(5)
H31? H 0.5230 0.8073 0.2708
H32? H 0.5233 0.7861 0.3647
C25? C 0.4428(15) 0.6691(12) 0.2880(12)
H33? H 0.3401 0.6921 0.2761
H34? H 0.4608 0.6395 0.2381
H35? H 0.4611 0.6183 0.3319
loop_
_geom_bond_atom_site_label_1
_geom_bond_atom_site_label_2
_geom_bond_site_symmetry_1
_geom_bond_site_symmetry_2
P1 O1 1_555 1_555
C1 P1 1_555 1_555
F1 C1 1_555 1_555
F2 C1 1_555 1_555
C2 C1 1_555 1_555
N1 C2 1_555 1_555
N2 N1 1_555 1_555
C3 N2 1_555 1_555
H1 C3 1_555 1_555
H2 C3 1_555 1_555
C4 C3 1_555 1_555
H3 C4 1_555 1_555
H4 C4 1_555 1_555
O2 C4 1_555 1_555
C5 O2 1_555 1_555
H5 C5 1_555 1_555
H6 C5 1_555 1_555
C6 N2 1_555 1_555
H7 C6 1_555 1_555
H8 C6 1_555 1_555
O3 P1 1_555 1_555
C7 O3 1_555 1_555
H9 C7 1_555 1_555
H10 C7 1_555 1_555
C8 C7 1_555 1_555
H11 C8 1_555 1_555
H12 C8 1_555 1_555
H13 C8 1_555 1_555
O4 P1 1_555 1_555
C9 O4 1_555 1_555
H14 C9 1_555 1_555
H15 C9 1_555 1_555
C10 C9 1_555 1_555
H16 C10 1_555 1_555
H17 C10 1_555 1_555
H18 C10 1_555 1_555
C11 C2 1_555 1_555
C12 C11 1_555 1_555
H19 C12 1_555 1_555
C13 C12 1_555 1_555
H20 C13 1_555 1_555
C14 C13 1_555 1_555
C15 C14 1_555 1_555
H21 C15 1_555 1_555
C16 C15 1_555 1_555
H22 C16 1_555 1_555
C17 C16 1_555 1_555
H23 C17 1_555 1_555
C18 C17 1_555 1_555
H24 C18 1_555 1_555
C19 C14 1_555 1_555
C20 C11 1_555 1_555
H25 C20 1_555 1_555
C5 C6 1_555 1_555
C18 C19 1_555 1_555
C19 C20 1_555 1_555

#END
