
#######################################################################
#
#                 Cambridge Crystallographic Data Centre
#                                CCDC 
#
#######################################################################
#
# If this CIF has been generated from an entry in the Cambridge 
# Structural Database, then it will include bibliographic, chemical, 
# crystal, experimental, refinement or atomic coordinate data resulting 
# from the CCDC's data processing and validation procedures.
#
#######################################################################

data_QAMMAU
_chemical_formula_moiety         'C15 H13 N1 O4'
_chemical_name_systematic        
'4-((2-Hydroxy-4-methoxybenzylidene)amino)benzoic acid'
_symmetry_cell_setting           monoclinic
_symmetry_space_group_name_H-M   'P 21/n'
_symmetry_Int_Tables_number      14
_space_group_name_Hall           '-P 2yn'
loop_
_symmetry_equiv_pos_site_id
_symmetry_equiv_pos_as_xyz
1 x,y,z
2 1/2-x,1/2+y,1/2-z
3 -x,-y,-z
4 1/2+x,1/2-y,1/2+z
_cell_length_a                   5.137(3)
_cell_length_b                   10.636(3)
_cell_length_c                   23.581(7)
_cell_angle_alpha                90
_cell_angle_beta                 90.66(4)
_cell_angle_gamma                90
_cell_volume                     1288.31
_exptl_crystal_colour            yellow
_exptl_crystal_description       prism
_cell_formula_units_Z            4
loop_
_atom_site_label
_atom_site_type_symbol
_atom_site_fract_x
_atom_site_fract_y
_atom_site_fract_z
O1 O 0.2438(4) 0.4666(2) 0.44818(9)
O2 O 0.6363(4) 0.3207(2) 0.27772(9)
H1 H 0.7523 0.3407 0.2559
O3 O 1.8753(4) 0.6019(2) 0.05457(9)
H2 H 1.9900 0.5928 0.0310
O4 O 1.7657(4) 0.4084(2) 0.02488(9)
N1 N 1.0044(5) 0.4574(2) 0.23513(10)
C1 C 0.7755(6) 0.5158(3) 0.31829(12)
C2 C 0.6173(6) 0.4070(3) 0.31856(13)
C3 C 0.4360(6) 0.3889(3) 0.36140(12)
H3 H 0.3301 0.3179 0.3609
C4 C 0.4131(6) 0.4764(3) 0.40467(13)
C5 C 0.5684(6) 0.5844(3) 0.40542(13)
H4 H 0.5507 0.6436 0.4341
C6 C 0.7478(6) 0.6022(3) 0.36325(13)
H5 H 0.8536 0.6731 0.3644
C7 C 0.0767(7) 0.3577(3) 0.45049(14)
H6 H -0.0256 0.3610 0.4843
H7 H 0.1811 0.2828 0.4509
H8 H -0.0366 0.3567 0.4178
C8 C 0.9693(6) 0.5363(3) 0.27630(13)
H9 H 1.0728 0.6079 0.2785
C9 C 1.1910(5) 0.4760(3) 0.19268(12)
C10 C 1.3670(6) 0.5761(3) 0.19039(13)
H10 H 1.3649 0.6375 0.2185
C11 C 1.5451(6) 0.5849(3) 0.14667(12)
H11 H 1.6628 0.6513 0.1459
C12 C 1.5472(5) 0.4940(3) 0.10390(12)
C13 C 1.3740(6) 0.3962(3) 0.10627(13)
H12 H 1.3761 0.3349 0.0782
C14 C 1.1970(6) 0.3871(3) 0.14943(12)
H13 H 1.0796 0.3205 0.1497
C15 C 1.7373(6) 0.4993(3) 0.05756(13)
loop_
_geom_bond_atom_site_label_1
_geom_bond_atom_site_label_2
_geom_bond_site_symmetry_1
_geom_bond_site_symmetry_2
O1 C4 1_555 1_555
O2 H1 1_555 1_555
O3 H2 1_555 1_555
O4 C15 1_555 1_555
N1 C8 1_555 1_555
C1 C2 1_555 1_555
C2 O2 1_555 1_555
C3 C2 1_555 1_555
H3 C3 1_555 1_555
C4 C3 1_555 1_555
C5 C4 1_555 1_555
H4 C5 1_555 1_555
C6 C1 1_555 1_555
H5 C6 1_555 1_555
C7 O1 1_555 1_555
H6 C7 1_555 1_555
H7 C7 1_555 1_555
H8 C7 1_555 1_555
C8 C1 1_555 1_555
H9 C8 1_555 1_555
C9 N1 1_555 1_555
C10 C9 1_555 1_555
H10 C10 1_555 1_555
C11 C10 1_555 1_555
H11 C11 1_555 1_555
C12 C11 1_555 1_555
C13 C12 1_555 1_555
H12 C13 1_555 1_555
C14 C9 1_555 1_555
H13 C14 1_555 1_555
C15 O3 1_555 1_555
C5 C6 1_555 1_555
C12 C15 1_555 1_555
C13 C14 1_555 1_555

#END
