
#######################################################################
#
#                 Cambridge Crystallographic Data Centre
#                                CCDC 
#
#######################################################################
#
# If this CIF has been generated from an entry in the Cambridge 
# Structural Database, then it will include bibliographic, chemical, 
# crystal, experimental, refinement or atomic coordinate data resulting 
# from the CCDC's data processing and validation procedures.
#
#######################################################################

data_QAMPEZ
_chemical_formula_moiety         'C4 H15 N3 2+,C8 H4 O4 2-'
_chemical_name_systematic        "2,2'-Iminobis(ethylammonium) phthalate"
_symmetry_cell_setting           monoclinic
_symmetry_space_group_name_H-M   'P 21/c'
_symmetry_Int_Tables_number      14
_space_group_name_Hall           '-P 2ybc'
loop_
_symmetry_equiv_pos_site_id
_symmetry_equiv_pos_as_xyz
1 x,y,z
2 x,1/2-y,1/2+z
3 -x,-y,-z
4 -x,1/2+y,1/2-z
_cell_length_a                   11.7634(8)
_cell_length_b                   11.0250(10)
_cell_length_c                   12.0322(7)
_cell_angle_alpha                90
_cell_angle_beta                 115.3780(10)
_cell_angle_gamma                90
_cell_volume                     1409.89
_exptl_crystal_colour            colorless
_exptl_crystal_description       plate
_cell_formula_units_Z            4
_exptl_crystal_recrystallization_method 'aqueous ethanol'
loop_
_atom_site_label
_atom_site_type_symbol
_atom_site_fract_x
_atom_site_fract_y
_atom_site_fract_z
O1 O 0.76079(18) 0.0159(2) 0.47152(17)
O2 O 0.92677(15) 0.11559(16) 0.60395(15)
O3 O 1.01283(15) 0.21397(15) 0.88155(16)
O4 O 1.01029(15) 0.01335(15) 0.86180(16)
C1 C 0.7505(2) 0.09581(19) 0.6492(2)
C2 C 0.8158(2) 0.1178(2) 0.7749(2)
C3 C 0.7493(2) 0.1416(2) 0.8438(2)
H1 H 0.7928 0.1569 0.9276
C4 C 0.6202(3) 0.1429(3) 0.7900(3)
H2 H 0.5767 0.1592 0.8371
C5 C 0.5551(2) 0.1200(3) 0.6655(3)
H3 H 0.4676 0.1196 0.6288
C6 C 0.6201(2) 0.0981(2) 0.5968(3)
H4 H 0.5758 0.0843 0.5128
C7 C 0.8184(2) 0.0747(2) 0.5689(2)
C8 C 0.9574(2) 0.1144(2) 0.8416(2)
N1 N 1.1283(2) -0.0689(2) 0.6832(2)
H5 H 1.161(2) -0.052(2) 0.619(2)
H6 H 1.080(3) -0.141(3) 0.658(3)
H7 H 1.070(3) -0.008(3) 0.682(3)
N2 N 1.2352(2) 0.13870(19) 0.8313(2)
H8 H 1.197(2) 0.133(2) 0.876(2)
N3 N 1.1116(2) 0.3008(2) 0.6339(2)
H9 H 1.084(3) 0.293(3) 0.541(3)
H10 H 1.076(2) 0.375(3) 0.646(2)
H11 H 1.080(3) 0.248(3) 0.660(3)
C9 C 1.2363(2) -0.0796(2) 0.8049(2)
H12 H 1.2892 -0.1468 0.8042
H13 H 1.2062 -0.0960 0.8668
C10 C 1.3128(2) 0.0368(2) 0.8368(3)
H14 H 1.3805 0.0302 0.9190
H15 H 1.3500 0.0487 0.7796
C11 C 1.2859(2) 0.2580(2) 0.8323(2)
H16 H 1.3768 0.2565 0.8775
H17 H 1.2526 0.3150 0.8722
C12 C 1.2497(2) 0.2966(2) 0.7014(2)
H18 H 1.2846 0.3761 0.7003
H19 H 1.2836 0.2397 0.6619
loop_
_geom_bond_atom_site_label_1
_geom_bond_atom_site_label_2
_geom_bond_site_symmetry_1
_geom_bond_site_symmetry_2
O1 C7 1_555 1_555
O2 C7 1_555 1_555
O3 C8 1_555 1_555
O4 C8 1_555 1_555
C1 C2 1_555 1_555
C2 C3 1_555 1_555
C3 H1 1_555 1_555
C4 C3 1_555 1_555
H2 C4 1_555 1_555
C5 C4 1_555 1_555
H3 C5 1_555 1_555
C6 C1 1_555 1_555
H4 C6 1_555 1_555
C7 C1 1_555 1_555
C8 C2 1_555 1_555
N1 H5 1_555 1_555
H6 N1 1_555 1_555
H7 N1 1_555 1_555
N2 H8 1_555 1_555
N3 H9 1_555 1_555
H10 N3 1_555 1_555
H11 N3 1_555 1_555
C9 N1 1_555 1_555
H12 C9 1_555 1_555
H13 C9 1_555 1_555
C10 N2 1_555 1_555
H14 C10 1_555 1_555
H15 C10 1_555 1_555
C11 N2 1_555 1_555
H16 C11 1_555 1_555
H17 C11 1_555 1_555
C12 N3 1_555 1_555
H18 C12 1_555 1_555
H19 C12 1_555 1_555
C5 C6 1_555 1_555
C9 C10 1_555 1_555
C11 C12 1_555 1_555

#END
