
#######################################################################
#
#                 Cambridge Crystallographic Data Centre
#                                CCDC 
#
#######################################################################
#
# If this CIF has been generated from an entry in the Cambridge 
# Structural Database, then it will include bibliographic, chemical, 
# crystal, experimental, refinement or atomic coordinate data resulting 
# from the CCDC's data processing and validation procedures.
#
#######################################################################

data_QAMPOL
_chemical_formula_moiety         'C18 H24 Br1 N1 O3'
_chemical_name_systematic        
8-Bromo-4-(3-(tetrahydrofuran-2-yloxy)propyl)-2,3,3a,4,5,9b-hexahydrofuro[3,2-c]quinoline
_symmetry_cell_setting           orthorhombic
_symmetry_space_group_name_H-M   'P n a 21'
_symmetry_Int_Tables_number      33
_space_group_name_Hall           'P 2c -2n'
loop_
_symmetry_equiv_pos_site_id
_symmetry_equiv_pos_as_xyz
1 x,y,z
2 -x,-y,1/2+z
3 1/2+x,1/2-y,z
4 1/2-x,1/2+y,1/2+z
_cell_length_a                   29.729(11)
_cell_length_b                   6.971(2)
_cell_length_c                   8.951(3)
_cell_angle_alpha                90
_cell_angle_beta                 90
_cell_angle_gamma                90
_cell_volume                     1855.01
_exptl_crystal_description       block
_cell_formula_units_Z            4
loop_
_atom_site_label
_atom_site_type_symbol
_atom_site_fract_x
_atom_site_fract_y
_atom_site_fract_z
Br1 Br 0.33490(2) 1.15498(12) 0.10797(12)
C1 C 0.48041(16) 0.9035(8) 0.1032(7)
C2 C 0.39485(18) 1.0522(11) 0.1068(9)
C3 C 0.4304(2) 1.1666(9) 0.0738(8)
H1 H 0.4253 1.2956 0.0532
C4 C 0.4435(2) 0.7897(9) 0.1397(6)
H2 H 0.4480 0.6609 0.1623
C5 C 0.47382(18) 1.0971(8) 0.0699(6)
C6 C 0.60384(19) 0.8296(8) 0.0408(7)
H3 H 0.6090 0.8171 0.1474
H4 H 0.6272 0.9122 0.0010
C7 C 0.55899(19) 0.9244(8) 0.0166(7)
H5 H 0.5519 0.9169 -0.0901
C8 C 0.5585(2) 1.1336(8) 0.0615(6)
H6 H 0.5813 1.2013 0.0028
C9 C 0.4002(2) 0.8631(10) 0.1433(6)
H7 H 0.3758 0.7869 0.1694
C10 C 0.5127(2) 1.2298(8) 0.0331(6)
H8 H 0.5106 1.2708 -0.0714
C11 C 0.6082(2) 0.6305(9) -0.0316(8)
H9 H 0.5865 0.5452 0.0143
H10 H 0.6005 0.6413 -0.1366
C12 C 0.6543(3) 0.5406(13) -0.0190(10)
H11 H 0.6555 0.4224 -0.0761
H12 H 0.6770 0.6274 -0.0578
C13 C 0.5374(3) 1.3517(10) 0.2605(7)
H13 H 0.5171 1.3240 0.3426
H14 H 0.5561 1.4599 0.2884
C14 C 0.5664(2) 1.1783(9) 0.2274(7)
H15 H 0.5576 1.0704 0.2893
H16 H 0.5979 1.2068 0.2457
N1 N 0.52344(12) 0.8241(6) 0.0990(7)
H17 H 0.5210 0.7055 0.0601
O1 O 0.51251(13) 1.3955(5) 0.1297(5)
O2 O 0.66194(18) 0.5046(11) 0.1266(10)
O3 O 0.7177(2) 0.2983(17) 0.1228(15)
C15 C 0.7133(4) 0.4766(18) 0.1547(14)
H19 H 0.7327 0.5625 0.0968
C16 C 0.7057(10) 0.277(4) 0.369(2)
H20 H 0.7224 0.2306 0.4546
H21 H 0.6739 0.2787 0.3934
C17 C 0.7144(6) 0.150(2) 0.232(2)
H22 H 0.7421 0.0774 0.2408
H23 H 0.6896 0.0634 0.2117
C18 C 0.7220(7) 0.479(3) 0.3223(19)
H24 H 0.7048 0.5788 0.3715
H25 H 0.7537 0.4965 0.3442
H18? H 0.5329 0.8105 0.1940
loop_
_geom_bond_atom_site_label_1
_geom_bond_atom_site_label_2
_geom_bond_site_symmetry_1
_geom_bond_site_symmetry_2
Br1 C2 1_555 1_555
C1 C4 1_555 1_555
C2 C3 1_555 1_555
C3 H1 1_555 1_555
C4 H2 1_555 1_555
C5 C1 1_555 1_555
C6 H3 1_555 1_555
H4 C6 1_555 1_555
C7 C6 1_555 1_555
H5 C7 1_555 1_555
C8 C7 1_555 1_555
H6 C8 1_555 1_555
C9 C2 1_555 1_555
H7 C9 1_555 1_555
C10 C5 1_555 1_555
H8 C10 1_555 1_555
C11 C6 1_555 1_555
H9 C11 1_555 1_555
H10 C11 1_555 1_555
C12 C11 1_555 1_555
H11 C12 1_555 1_555
H12 C12 1_555 1_555
C13 H13 1_555 1_555
H14 C13 1_555 1_555
C14 C8 1_555 1_555
H15 C14 1_555 1_555
H16 C14 1_555 1_555
N1 C1 1_555 1_555
H17 N1 1_555 1_555
O1 C10 1_555 1_555
O2 C12 1_555 1_555
O3 C15 1_555 1_555
C15 O2 1_555 1_555
H19 C15 1_555 1_555
C16 H20 1_555 1_555
H21 C16 1_555 1_555
C17 O3 1_555 1_555
H22 C17 1_555 1_555
H23 C17 1_555 1_555
C18 C15 1_555 1_555
H24 C18 1_555 1_555
H25 C18 1_555 1_555
C3 C5 1_555 1_555
C4 C9 1_555 1_555
C7 N1 1_555 1_555
C8 C10 1_555 1_555
C13 C14 1_555 1_555
C13 O1 1_555 1_555
C16 C17 1_555 1_555
C16 C18 1_555 1_555

#END
