
#######################################################################
#
#                 Cambridge Crystallographic Data Centre
#                                CCDC 
#
#######################################################################
#
# If this CIF has been generated from an entry in the Cambridge 
# Structural Database, then it will include bibliographic, chemical, 
# crystal, experimental, refinement or atomic coordinate data resulting 
# from the CCDC's data processing and validation procedures.
#
#######################################################################

data_QAMTAB
_chemical_formula_moiety         'C52 H60 Si2'
_chemical_name_systematic        
5,12-bis((triisopropylsilyl)ethynyl)-6,11-diphenyltetracene
_symmetry_cell_setting           orthorhombic
_symmetry_space_group_name_H-M   'P 21 21 21'
_symmetry_Int_Tables_number      19
_space_group_name_Hall           'P 2ac 2ab'
loop_
_symmetry_equiv_pos_site_id
_symmetry_equiv_pos_as_xyz
1 x,y,z
2 1/2-x,-y,1/2+z
3 -x,1/2+y,1/2-z
4 1/2+x,1/2-y,-z
_cell_length_a                   9.5021(8)
_cell_length_b                   18.5086(15)
_cell_length_c                   24.385(2)
_cell_angle_alpha                90
_cell_angle_beta                 90
_cell_angle_gamma                90
_cell_volume                     4288.6
_exptl_crystal_colour            purple
_exptl_crystal_description       block
_cell_formula_units_Z            4
loop_
_atom_site_label
_atom_site_type_symbol
_atom_site_fract_x
_atom_site_fract_y
_atom_site_fract_z
Si1 Si 1.25031(4) 0.785285(19) 0.217750(14)
Si2 Si 0.29136(3) 1.049473(19) 0.432981(15)
C1 C 0.78740(13) 0.90546(6) 0.28111(5)
C2 C 0.92298(13) 0.79529(7) 0.40038(5)
C3 C 0.80070(13) 0.91573(7) 0.45582(5)
C4 C 0.87289(13) 0.85745(7) 0.31123(5)
C5 C 0.88104(13) 0.86470(7) 0.48498(5)
C6 C 0.78032(12) 0.90730(6) 0.39834(5)
C7 C 0.85943(13) 0.85217(7) 0.36969(5)
C8 C 0.65642(14) 0.97768(7) 0.52879(5)
H1 H 0.6161 0.9324 0.5383
C9 C 0.93246(13) 0.80095(7) 0.45772(5)
C10 C 0.75144(13) 0.98159(7) 0.48536(5)
C11 C 0.96368(14) 0.72681(7) 0.37269(5)
C12 C 0.46363(14) 1.01754(7) 0.40834(6)
C13 C 0.98563(14) 0.82260(7) 0.28238(6)
C14 C 0.68652(13) 0.94951(7) 0.30927(5)
C15 C 0.98260(15) 0.82138(8) 0.57083(6)
H2 H 1.0047 0.8289 0.6084
C16 C 0.32138(13) 1.13479(7) 0.47416(6)
H3 H 0.3594 1.1192 0.5105
C17 C 0.60154(14) 0.99484(7) 0.22161(6)
H4 H 0.5385 1.0242 0.2012
C18 C 1.10009(14) 0.69854(7) 0.37423(6)
H5 H 1.1729 0.7245 0.3923
C19 C 1.21335(14) 0.71555(8) 0.16337(6)
H6 H 1.3017 0.7090 0.1417
C20 C 0.70461(14) 0.95291(7) 0.19378(5)
H7 H 0.7107 0.9550 0.1549
C21 C 0.68410(12) 0.95058(7) 0.36712(5)
C22 C 0.99591(15) 0.74545(7) 0.49058(6)
H8 H 1.0209 0.7008 0.4740
C23 C 0.91420(14) 0.87393(7) 0.54205(6)
H9 H 0.8880 0.9174 0.5601
C24 C 0.17462(14) 1.06642(8) 0.37166(6)
H10 H 0.0847 1.0871 0.3860
C25 C 1.08631(15) 0.80352(7) 0.25560(6)
C26 C 0.21166(14) 0.97508(7) 0.47648(6)
H11 H 0.1075 0.9770 0.4709
C27 C 0.59246(14) 0.99316(7) 0.27745(6)
H12 H 0.5228 1.0213 0.2955
C28 C 0.85873(15) 0.68761(7) 0.34596(6)
H13 H 0.7656 0.7063 0.3446
C29 C 0.61979(14) 1.03928(8) 0.55838(6)
H14 H 0.5545 1.0359 0.5878
C30 C 0.79453(14) 0.90990(7) 0.22241(5)
H15 H 0.8631 0.8824 0.2032
C31 C 0.13582(19) 0.99732(9) 0.34043(7)
H16 H 0.0700 1.0091 0.3108
H17 H 0.0915 0.9629 0.3656
H18 H 0.2211 0.9757 0.3249
C32 C 0.26073(18) 0.89951(8) 0.45860(7)
H19 H 0.3630 0.8959 0.4628
H20 H 0.2355 0.8916 0.4201
H21 H 0.2149 0.8629 0.4815
C33 C 0.80911(14) 1.04861(7) 0.47205(6)
H22 H 0.8735 1.0523 0.4424
C34 C 0.23602(17) 1.12244(9) 0.33169(6)
H23 H 0.3255 1.1046 0.3170
H24 H 0.2520 1.1681 0.3511
H25 H 0.1697 1.1304 0.3015
C35 C 1.17577(19) 0.64207(8) 0.18864(7)
H26 H 1.0881 0.6464 0.2095
H27 H 1.2517 0.6265 0.2132
H28 H 1.1636 0.6063 0.1594
C36 C 1.38238(15) 0.75174(8) 0.26932(6)
H29 H 1.3405 0.7084 0.2876
C37 C 1.09825(17) 0.73979(9) 0.12354(6)
H30 H 1.0814 0.7016 0.0965
H31 H 1.1284 0.7839 0.1047
H32 H 1.0113 0.7493 0.1439
C38 C 0.57142(14) 0.98975(7) 0.39268(5)
C39 C 0.67849(15) 1.10550(8) 0.54503(6)
H33 H 0.6540 1.1475 0.5653
C40 C 0.18236(15) 1.17445(8) 0.48583(6)
H34 H 0.1991 1.2135 0.5122
H35 H 0.1139 1.1403 0.5011
H36 H 0.1455 1.1948 0.4516
C41 C 1.02101(16) 0.75531(8) 0.54493(6)
H37 H 1.0643 0.7180 0.5657
C42 C 1.12949(16) 0.63247(8) 0.34935(6)
H38 H 1.2224 0.6136 0.3505
C43 C 1.31307(15) 0.87339(8) 0.18690(6)
H39 H 1.3707 0.8980 0.2157
C44 C 0.88844(17) 0.62157(8) 0.32125(6)
H40 H 0.8160 0.5953 0.3032
C45 C 0.23841(18) 0.98405(9) 0.53808(6)
H41 H 0.1904 0.9454 0.5582
H42 H 0.2022 1.0310 0.5502
H43 H 0.3398 0.9815 0.5453
C46 C 1.19351(19) 0.92571(9) 0.17184(7)
H44 H 1.2336 0.9711 0.1582
H45 H 1.1362 0.9355 0.2044
H46 H 1.1345 0.9040 0.1433
C47 C 1.02423(17) 0.59420(8) 0.32300(6)
H47 H 1.0450 0.5492 0.3061
C48 C 1.4103(2) 0.80807(9) 0.31417(7)
H48 H 1.4745 0.7878 0.3416
H49 H 1.3213 0.8213 0.3318
H50 H 1.4529 0.8512 0.2978
C49 C 0.42995(16) 1.18720(8) 0.44971(7)
H51 H 0.3914 1.2092 0.4164
H52 H 0.5162 1.1607 0.4407
H53 H 0.4515 1.2251 0.4765
C50 C 0.77352(15) 1.11019(7) 0.50170(6)
H54 H 0.8141 1.1555 0.4924
C51 C 1.41071(17) 0.86124(9) 0.13765(6)
H55 H 1.3580 0.8380 0.1080
H56 H 1.4893 0.8301 0.1486
H57 H 1.4473 0.9078 0.1249
C52 C 1.52065(19) 0.72766(14) 0.24271(8)
H58 H 1.5709 0.7700 0.2286
H59 H 1.5004 0.6945 0.2124
H60 H 1.5792 0.7031 0.2701
loop_
_geom_bond_atom_site_label_1
_geom_bond_atom_site_label_2
_geom_bond_site_symmetry_1
_geom_bond_site_symmetry_2
Si1 C19 1_555 1_555
Si2 C12 1_555 1_555
C1 C4 1_555 1_555
C2 C7 1_555 1_555
C3 C5 1_555 1_555
C4 C7 1_555 1_555
C5 C9 1_555 1_555
C6 C3 1_555 1_555
C7 C6 1_555 1_555
C8 H1 1_555 1_555
C9 C2 1_555 1_555
C10 C3 1_555 1_555
C11 C2 1_555 1_555
C12 C38 1_555 1_555
C13 C4 1_555 1_555
C14 C1 1_555 1_555
C15 H2 1_555 1_555
C16 Si2 1_555 1_555
H3 C16 1_555 1_555
C17 H4 1_555 1_555
C18 C11 1_555 1_555
H5 C18 1_555 1_555
C19 H6 1_555 1_555
C20 C17 1_555 1_555
H7 C20 1_555 1_555
C21 C6 1_555 1_555
C22 C9 1_555 1_555
H8 C22 1_555 1_555
C23 C5 1_555 1_555
H9 C23 1_555 1_555
C24 Si2 1_555 1_555
H10 C24 1_555 1_555
C25 Si1 1_555 1_555
C26 Si2 1_555 1_555
H11 C26 1_555 1_555
C27 C14 1_555 1_555
H12 C27 1_555 1_555
C28 C11 1_555 1_555
H13 C28 1_555 1_555
C29 C8 1_555 1_555
H14 C29 1_555 1_555
C30 C1 1_555 1_555
H15 C30 1_555 1_555
C31 C24 1_555 1_555
H16 C31 1_555 1_555
H17 C31 1_555 1_555
H18 C31 1_555 1_555
C32 C26 1_555 1_555
H19 C32 1_555 1_555
H20 C32 1_555 1_555
H21 C32 1_555 1_555
C33 C10 1_555 1_555
H22 C33 1_555 1_555
C34 C24 1_555 1_555
H23 C34 1_555 1_555
H24 C34 1_555 1_555
H25 C34 1_555 1_555
C35 C19 1_555 1_555
H26 C35 1_555 1_555
H27 C35 1_555 1_555
H28 C35 1_555 1_555
C36 Si1 1_555 1_555
H29 C36 1_555 1_555
C37 C19 1_555 1_555
H30 C37 1_555 1_555
H31 C37 1_555 1_555
H32 C37 1_555 1_555
C38 C21 1_555 1_555
C39 C29 1_555 1_555
H33 C39 1_555 1_555
C40 C16 1_555 1_555
H34 C40 1_555 1_555
H35 C40 1_555 1_555
H36 C40 1_555 1_555
C41 C15 1_555 1_555
H37 C41 1_555 1_555
C42 C18 1_555 1_555
H38 C42 1_555 1_555
C43 Si1 1_555 1_555
H39 C43 1_555 1_555
C44 C28 1_555 1_555
H40 C44 1_555 1_555
C45 C26 1_555 1_555
H41 C45 1_555 1_555
H42 C45 1_555 1_555
H43 C45 1_555 1_555
C46 C43 1_555 1_555
H44 C46 1_555 1_555
H45 C46 1_555 1_555
H46 C46 1_555 1_555
C47 C42 1_555 1_555
H47 C47 1_555 1_555
C48 C36 1_555 1_555
H48 C48 1_555 1_555
H49 C48 1_555 1_555
H50 C48 1_555 1_555
C49 C16 1_555 1_555
H51 C49 1_555 1_555
H52 C49 1_555 1_555
H53 C49 1_555 1_555
C50 C33 1_555 1_555
H54 C50 1_555 1_555
C51 C43 1_555 1_555
H55 C51 1_555 1_555
H56 C51 1_555 1_555
H57 C51 1_555 1_555
C52 C36 1_555 1_555
H58 C52 1_555 1_555
H59 C52 1_555 1_555
H60 C52 1_555 1_555
C8 C10 1_555 1_555
C13 C25 1_555 1_555
C14 C21 1_555 1_555
C15 C23 1_555 1_555
C17 C27 1_555 1_555
C20 C30 1_555 1_555
C22 C41 1_555 1_555
C39 C50 1_555 1_555
C44 C47 1_555 1_555

#END
