
#######################################################################
#
#                 Cambridge Crystallographic Data Centre
#                                CCDC 
#
#######################################################################
#
# If this CIF has been generated from an entry in the Cambridge 
# Structural Database, then it will include bibliographic, chemical, 
# crystal, experimental, refinement or atomic coordinate data resulting 
# from the CCDC's data processing and validation procedures.
#
#######################################################################

data_QAMYIP
_chemical_formula_moiety         'C9 H10 N4 O1'
_chemical_name_systematic        3-(1H-benzotriazol-1-yl)propanamide
_symmetry_cell_setting           monoclinic
_symmetry_space_group_name_H-M   'P 21/c'
_symmetry_Int_Tables_number      14
_space_group_name_Hall           '-P 2ybc'
loop_
_symmetry_equiv_pos_site_id
_symmetry_equiv_pos_as_xyz
1 x,y,z
2 -x,1/2+y,1/2-z
3 -x,-y,-z
4 x,1/2-y,1/2+z
_cell_length_a                   20.0070(8)
_cell_length_b                   5.5542(4)
_cell_length_c                   7.9022(5)
_cell_angle_alpha                90
_cell_angle_beta                 92.703(5)
_cell_angle_gamma                90
_cell_volume                     877.138
_exptl_crystal_colour            colorless
_exptl_crystal_description       plate
_cell_formula_units_Z            4
_exptl_crystal_recrystallization_method tetrahydrofuran
loop_
_atom_site_label
_atom_site_type_symbol
_atom_site_fract_x
_atom_site_fract_y
_atom_site_fract_z
C1 C 0.58031(5) 0.0750(2) 0.89361(13)
C2 C 0.62683(6) -0.0254(2) 1.03216(14)
H1 H 0.600776 -0.131411 1.105226
H2 H 0.644269 0.109667 1.103065
C3 C 0.68574(6) -0.1673(2) 0.96969(15)
H3 H 0.707672 -0.255714 1.065884
H4 H 0.669276 -0.287075 0.884809
C4 C 0.80217(6) -0.0380(2) 0.88401(14)
C5 C 0.82253(6) 0.1666(2) 0.79764(14)
C6 C 0.89028(6) 0.2008(2) 0.76251(15)
H5 H 0.904588 0.337897 0.702111
C7 C 0.93475(6) 0.0269(2) 0.81955(16)
H6 H 0.980829 0.044274 0.798189
C8 C 0.91339(6) -0.1779(2) 0.90953(15)
H7 H 0.945783 -0.293053 0.948007
C9 C 0.84723(6) -0.2156(2) 0.94302(15)
H8 H 0.833023 -0.353641 1.002543
N1 N 0.54964(5) 0.27966(19) 0.93000(13)
H9 H 0.520560 0.343810 0.856088
H10 H 0.558408 0.350950 1.027990
N2 N 0.73492(5) -0.00962(18) 0.89329(12)
N3 N 0.71552(5) 0.19991(19) 0.81995(13)
N4 N 0.76755(5) 0.30922(19) 0.76093(13)
O1 O 0.56970(4) -0.03251(15) 0.75730(10)
loop_
_geom_bond_atom_site_label_1
_geom_bond_atom_site_label_2
_geom_bond_site_symmetry_1
_geom_bond_site_symmetry_2
C1 C2 1_555 1_555
C2 H1 1_555 1_555
H2 C2 1_555 1_555
C3 C2 1_555 1_555
H3 C3 1_555 1_555
H4 C3 1_555 1_555
C4 C5 1_555 1_555
C5 C6 1_555 1_555
C6 H5 1_555 1_555
C7 C6 1_555 1_555
H6 C7 1_555 1_555
C8 C7 1_555 1_555
H7 C8 1_555 1_555
C9 C4 1_555 1_555
H8 C9 1_555 1_555
N1 C1 1_555 1_555
H9 N1 1_555 1_555
H10 N1 1_555 1_555
N2 C3 1_555 1_555
N3 N2 1_555 1_555
N4 C5 1_555 1_555
O1 C1 1_555 1_555
C4 N2 1_555 1_555
C8 C9 1_555 1_555
N3 N4 1_555 1_555

#END
