
#######################################################################
#
#                 Cambridge Crystallographic Data Centre
#                                CCDC 
#
#######################################################################
#
# If this CIF has been generated from an entry in the Cambridge 
# Structural Database, then it will include bibliographic, chemical, 
# crystal, experimental, refinement or atomic coordinate data resulting 
# from the CCDC's data processing and validation procedures.
#
#######################################################################

data_QANHIZ
_chemical_compound_source        
'Isolated from the fermentation broth of Penicillium sp. SCS-KFD09 isolated from a marine worm, Sipunculus nudus, from Haikou Bay, China.'
_chemical_name_common            'chrodrimanin A'
_chemical_formula_moiety         'C25 H30 O7'
_chemical_name_systematic        
1,5,8-trihydroxy-2,7a,10,10,13a-pentamethyl-1,8,9,9a,10,13a,13b,14-octahydro-2H,4H-benzo[a]pyrano[3,4-j]xanthene-4,11(7aH)-dione
_symmetry_cell_setting           orthorhombic
_symmetry_space_group_name_H-M   'P 21 21 21'
_symmetry_Int_Tables_number      19
_space_group_name_Hall           'P 2ac 2ab'
loop_
_symmetry_equiv_pos_site_id
_symmetry_equiv_pos_as_xyz
1 x,y,z
2 1/2+x,1/2-y,-z
3 -x,1/2+y,1/2-z
4 1/2-x,-y,1/2+z
_cell_length_a                   10.9888(4)
_cell_length_b                   12.7811(4)
_cell_length_c                   15.6040(5)
_cell_angle_alpha                90
_cell_angle_beta                 90
_cell_angle_gamma                90
_cell_volume                     2191.57
_exptl_crystal_colour            colorless
_exptl_crystal_description       block
_cell_formula_units_Z            4
loop_
_atom_site_label
_atom_site_type_symbol
_atom_site_fract_x
_atom_site_fract_y
_atom_site_fract_z
O1 O 0.3902(3) 0.3404(3) 0.91762(15)
O2 O 0.3063(2) 0.15638(16) 0.50294(12)
H1 H 0.3100 0.1636 0.4508
O3 O 0.32893(17) 0.33656(15) 0.42427(11)
O4 O 0.4889(2) 0.45095(18) 0.16553(12)
H2 H 0.5430 0.4870 0.1450
O5 O 0.6651(2) 0.58919(18) 0.16982(13)
O6 O 0.7110(2) 0.67117(15) 0.28824(12)
O7 O 0.7831(2) 0.54565(18) 0.43379(16)
H3 H 0.7765 0.4880 0.4564
C1 C 0.4969(4) 0.4052(3) 0.7123(2)
H4 H 0.5517 0.4516 0.6874
C2 C 0.4966(2) 0.4600(2) 0.43337(16)
C3 C 0.4721(4) 0.4151(3) 0.7948(2)
H5 H 0.5098 0.4685 0.8254
C4 C 0.5744(2) 0.5240(2) 0.38621(16)
C5 C 0.3875(3) 0.3455(3) 0.84007(19)
C6 C 0.5726(3) 0.5250(2) 0.29602(17)
C7 C 0.3018(2) 0.2759(2) 0.78846(17)
C8 C 0.4928(3) 0.4573(2) 0.25200(17)
C9 C 0.3108(2) 0.30205(19) 0.69134(16)
H6 H 0.2681 0.3689 0.6847
C10 C 0.4124(3) 0.3963(2) 0.29790(17)
H7 H 0.3576 0.3533 0.2692
C11 C 0.2399(3) 0.2249(3) 0.63605(18)
H8 H 0.1553 0.2267 0.6536
H9 H 0.2703 0.1550 0.6475
C12 C 0.4132(2) 0.3989(2) 0.38666(16)
C13 C 0.2460(3) 0.2442(2) 0.53948(16)
H10 H 0.1628 0.2471 0.5169
C14 C 0.6670(2) 0.5938(2) 0.42911(17)
H11 H 0.6392 0.6108 0.4871
C15 C 0.3109(2) 0.3467(2) 0.51712(15)
C16 C 0.6816(3) 0.6941(2) 0.37834(18)
H12 H 0.6044 0.7325 0.3802
C17 C 0.4373(2) 0.3505(2) 0.55831(15)
H13 H 0.4828 0.2940 0.5304
C18 C 0.7809(3) 0.7649(2) 0.4096(2)
H14 H 0.8562 0.7270 0.4117
H15 H 0.7611 0.7900 0.4659
H16 H 0.7891 0.8232 0.3712
C19 C 0.4407(2) 0.3223(2) 0.65718(16)
C20 C 0.6511(3) 0.5952(2) 0.24736(17)
C21 C 0.5022(3) 0.4507(2) 0.53035(16)
H17 H 0.4633 0.5109 0.5565
H18 H 0.5864 0.4489 0.5490
C22 C 0.2288(3) 0.4414(2) 0.5301(2)
H19 H 0.2644 0.5012 0.5026
H20 H 0.2202 0.4551 0.5903
H21 H 0.1503 0.4276 0.5056
C23 C 0.3272(4) 0.1614(3) 0.8126(2)
H22 H 0.3089 0.1508 0.8721
H23 H 0.4115 0.1458 0.8025
H24 H 0.2773 0.1161 0.7784
C24 C 0.1730(3) 0.3017(3) 0.8201(2)
H25 H 0.1568 0.3747 0.8113
H26 H 0.1667 0.2856 0.8801
H27 H 0.1148 0.2608 0.7887
C25 C 0.5262(3) 0.2263(3) 0.6643(2)
H28 H 0.4920 0.1687 0.6330
H29 H 0.5352 0.2071 0.7235
H30 H 0.6044 0.2436 0.6409
loop_
_geom_bond_atom_site_label_1
_geom_bond_atom_site_label_2
_geom_bond_site_symmetry_1
_geom_bond_site_symmetry_2
O1 C5 1_555 1_555
O2 H1 1_555 1_555
O3 C12 1_555 1_555
O4 H2 1_555 1_555
O5 C20 1_555 1_555
O6 C16 1_555 1_555
O7 H3 1_555 1_555
C1 H4 1_555 1_555
C2 C4 1_555 1_555
C3 C1 1_555 1_555
H5 C3 1_555 1_555
C4 C6 1_555 1_555
C5 C3 1_555 1_555
C6 C8 1_555 1_555
C7 C5 1_555 1_555
C8 O4 1_555 1_555
C9 C7 1_555 1_555
H6 C9 1_555 1_555
C10 C8 1_555 1_555
H7 C10 1_555 1_555
C11 C9 1_555 1_555
H8 C11 1_555 1_555
H9 C11 1_555 1_555
C12 C2 1_555 1_555
C13 O2 1_555 1_555
H10 C13 1_555 1_555
C14 O7 1_555 1_555
H11 C14 1_555 1_555
C15 O3 1_555 1_555
C16 C14 1_555 1_555
H12 C16 1_555 1_555
C17 C15 1_555 1_555
H13 C17 1_555 1_555
C18 C16 1_555 1_555
H14 C18 1_555 1_555
H15 C18 1_555 1_555
H16 C18 1_555 1_555
C19 C1 1_555 1_555
C20 O6 1_555 1_555
C21 C2 1_555 1_555
H17 C21 1_555 1_555
H18 C21 1_555 1_555
C22 C15 1_555 1_555
H19 C22 1_555 1_555
H20 C22 1_555 1_555
H21 C22 1_555 1_555
C23 C7 1_555 1_555
H22 C23 1_555 1_555
H23 C23 1_555 1_555
H24 C23 1_555 1_555
C24 C7 1_555 1_555
H25 C24 1_555 1_555
H26 C24 1_555 1_555
H27 C24 1_555 1_555
C25 C19 1_555 1_555
H28 C25 1_555 1_555
H29 C25 1_555 1_555
H30 C25 1_555 1_555
C4 C14 1_555 1_555
C6 C20 1_555 1_555
C9 C19 1_555 1_555
C10 C12 1_555 1_555
C11 C13 1_555 1_555
C13 C15 1_555 1_555
C17 C19 1_555 1_555
C17 C21 1_555 1_555

#END
