
#######################################################################
#
#                 Cambridge Crystallographic Data Centre
#                                CCDC 
#
#######################################################################
#
# If this CIF has been generated from an entry in the Cambridge 
# Structural Database, then it will include bibliographic, chemical, 
# crystal, experimental, refinement or atomic coordinate data resulting 
# from the CCDC's data processing and validation procedures.
#
#######################################################################

data_QANHEV
_chemical_compound_source        
'Isolated from the fermentation broth of Penicillium sp. SCS-KFD09 isolated from a marine worm, Sipunculus nudus, from Haikou Bay, China.'
_chemical_name_common            'chrodrimanin L'
_chemical_formula_moiety         'C25 H30 Cl2 O6'
_chemical_name_systematic        
6,12-dichloro-5,8-dihydroxy-2,7a,10,10,13a-pentamethyl-1,8,9,9a,10,12,13,13a,13b,14-decahydro-2H,4H-benzo[a]pyrano[3,4-j]xanthene-4,11(7aH)-dione
_symmetry_cell_setting           orthorhombic
_symmetry_space_group_name_H-M   'P 21 21 21'
_symmetry_Int_Tables_number      19
_space_group_name_Hall           'P 2ac 2ab'
loop_
_symmetry_equiv_pos_site_id
_symmetry_equiv_pos_as_xyz
1 x,y,z
2 1/2-x,-y,1/2+z
3 -x,1/2+y,1/2-z
4 1/2+x,1/2-y,-z
_cell_length_a                   11.0269(3)
_cell_length_b                   13.3801(3)
_cell_length_c                   16.1400(4)
_cell_angle_alpha                90
_cell_angle_beta                 90
_cell_angle_gamma                90
_cell_volume                     2381.31
_exptl_crystal_colour            colorless
_exptl_crystal_description       block
_cell_formula_units_Z            4
loop_
_atom_site_label
_atom_site_type_symbol
_atom_site_fract_x
_atom_site_fract_y
_atom_site_fract_z
Cl1 Cl 0.68423(15) 0.37419(11) 0.74941(9)
Cl2 Cl 0.51845(18) 0.47374(12) 0.12758(9)
O1 O 0.5999(5) 0.2692(4) 0.1100(3)
O2 O 0.7026(6) 0.1810(3) 0.5284(3)
H1 H 0.6959 0.2032 0.5755
O3 O 0.6675(3) 0.3626(3) 0.5747(2)
O4 O 0.4969(4) 0.5070(3) 0.8097(2)
H2 H 0.4377 0.5394 0.8248
O5 O 0.3052(5) 0.6147(3) 0.7914(2)
O6 O 0.2500(4) 0.6702(3) 0.6693(2)
C1 C 0.5610(6) 0.4231(4) 0.2894(3)
H3 H 0.6021 0.4794 0.3148
H4 H 0.4754 0.4393 0.2860
C2 C 0.4954(5) 0.4718(4) 0.5528(3)
C3 C 0.6109(7) 0.4084(5) 0.2010(4)
H5 H 0.6898 0.4421 0.2002
C4 C 0.4130(5) 0.5361(4) 0.5897(3)
C5 C 0.6349(6) 0.3041(5) 0.1745(3)
C6 C 0.4124(5) 0.5497(4) 0.6766(3)
C7 C 0.7147(5) 0.2435(4) 0.2337(3)
C8 C 0.4954(6) 0.4981(4) 0.7263(3)
C9 C 0.7041(5) 0.2855(4) 0.3237(3)
H6 H 0.7614 0.3413 0.3266
C10 C 0.5803(5) 0.4371(4) 0.6893(3)
C11 C 0.7450(6) 0.2119(4) 0.3892(4)
H7 H 0.8240 0.1860 0.3737
H8 H 0.6889 0.1561 0.3900
C12 C 0.5806(5) 0.4240(4) 0.6028(3)
C13 C 0.7533(5) 0.2552(5) 0.4762(3)
H9 H 0.8391 0.2631 0.4905
C14 C 0.3204(6) 0.5930(4) 0.5414(3)
H10 H 0.2477 0.5528 0.5355
H11 H 0.3516 0.6070 0.4864
C15 C 0.6904(5) 0.3575(4) 0.4852(3)
C16 C 0.2892(6) 0.6903(4) 0.5844(3)
H12 H 0.3615 0.7328 0.5858
C17 C 0.5678(4) 0.3563(4) 0.4397(3)
H13 H 0.5223 0.3009 0.4643
C18 C 0.1860(7) 0.7478(5) 0.5447(4)
H14 H 0.1162 0.7052 0.5400
H15 H 0.2101 0.7699 0.4906
H16 H 0.1663 0.8047 0.5784
C19 C 0.5771(5) 0.3309(3) 0.3445(3)
C20 C 0.3215(6) 0.6129(4) 0.7161(4)
C21 C 0.4952(5) 0.4503(4) 0.4607(3)
H17 H 0.5296 0.5069 0.4314
H18 H 0.4123 0.4419 0.4420
C22 C 0.7724(6) 0.4457(5) 0.4644(4)
H19 H 0.7343 0.5066 0.4819
H20 H 0.7860 0.4479 0.4057
H21 H 0.8485 0.4381 0.4926
C23 C 0.6800(7) 0.1323(4) 0.2248(4)
H22 H 0.7317 0.0925 0.2595
H23 H 0.6895 0.1121 0.1681
H24 H 0.5971 0.1231 0.2413
C24 C 0.8457(5) 0.2557(6) 0.2044(4)
H25 H 0.8550 0.2251 0.1510
H26 H 0.8994 0.2241 0.2433
H27 H 0.8650 0.3255 0.2006
C25 C 0.4722(5) 0.2593(4) 0.3250(4)
H28 H 0.4856 0.1967 0.3524
H29 H 0.4680 0.2486 0.2662
H30 H 0.3974 0.2879 0.3439
loop_
_geom_bond_atom_site_label_1
_geom_bond_atom_site_label_2
_geom_bond_site_symmetry_1
_geom_bond_site_symmetry_2
Cl1 C10 1_555 1_555
Cl2 C3 1_555 1_555
O1 C5 1_555 1_555
O2 H1 1_555 1_555
O3 C12 1_555 1_555
O4 H2 1_555 1_555
O5 C20 1_555 1_555
O6 C16 1_555 1_555
C1 H3 1_555 1_555
H4 C1 1_555 1_555
C2 C4 1_555 1_555
C3 C1 1_555 1_555
H5 C3 1_555 1_555
C4 C6 1_555 1_555
C5 C3 1_555 1_555
C6 C8 1_555 1_555
C7 C5 1_555 1_555
C8 O4 1_555 1_555
C9 C7 1_555 1_555
H6 C9 1_555 1_555
C10 C8 1_555 1_555
C11 C9 1_555 1_555
H7 C11 1_555 1_555
H8 C11 1_555 1_555
C12 C2 1_555 1_555
C13 O2 1_555 1_555
H9 C13 1_555 1_555
C14 C4 1_555 1_555
H10 C14 1_555 1_555
H11 C14 1_555 1_555
C15 O3 1_555 1_555
C16 C14 1_555 1_555
H12 C16 1_555 1_555
C17 C15 1_555 1_555
H13 C17 1_555 1_555
C18 C16 1_555 1_555
H14 C18 1_555 1_555
H15 C18 1_555 1_555
H16 C18 1_555 1_555
C19 C1 1_555 1_555
C20 O6 1_555 1_555
C21 C2 1_555 1_555
H17 C21 1_555 1_555
H18 C21 1_555 1_555
C22 C15 1_555 1_555
H19 C22 1_555 1_555
H20 C22 1_555 1_555
H21 C22 1_555 1_555
C23 C7 1_555 1_555
H22 C23 1_555 1_555
H23 C23 1_555 1_555
H24 C23 1_555 1_555
C24 C7 1_555 1_555
H25 C24 1_555 1_555
H26 C24 1_555 1_555
H27 C24 1_555 1_555
C25 C19 1_555 1_555
H28 C25 1_555 1_555
H29 C25 1_555 1_555
H30 C25 1_555 1_555
C6 C20 1_555 1_555
C9 C19 1_555 1_555
C10 C12 1_555 1_555
C11 C13 1_555 1_555
C13 C15 1_555 1_555
C17 C19 1_555 1_555
C17 C21 1_555 1_555

#END
