
#######################################################################
#
#                 Cambridge Crystallographic Data Centre
#                                CCDC 
#
#######################################################################
#
# If this CIF has been generated from an entry in the Cambridge 
# Structural Database, then it will include bibliographic, chemical, 
# crystal, experimental, refinement or atomic coordinate data resulting 
# from the CCDC's data processing and validation procedures.
#
#######################################################################

data_QANHAP
_chemical_formula_moiety         'C25 H20 N4'
_chemical_name_systematic        bis(4-(3-Pyridylmethyleneamino)phenyl)methane
_symmetry_cell_setting           monoclinic
_symmetry_space_group_name_H-M   'P c'
_symmetry_Int_Tables_number      7
_space_group_name_Hall           'P -2yc'
loop_
_symmetry_equiv_pos_site_id
_symmetry_equiv_pos_as_xyz
1 x,y,z
2 x,-y,1/2+z
_cell_length_a                   18.7505(10)
_cell_length_b                   4.6414(10)
_cell_length_c                   11.3866(10)
_cell_angle_alpha                90
_cell_angle_beta                 98.394(10)
_cell_angle_gamma                90
_cell_volume                     980.344
_exptl_crystal_colour            yellow
_exptl_crystal_description       block
_cell_formula_units_Z            2
_exptl_crystal_recrystallization_method ethanol
loop_
_atom_site_label
_atom_site_type_symbol
_atom_site_fract_x
_atom_site_fract_y
_atom_site_fract_z
N1 N 1.38687(18) 0.3314(9) 1.4166(3)
N2 N 1.21014(14) -0.0157(6) 1.1031(2)
N3 N 0.74195(14) 0.1956(5) 0.6940(2)
N4 N 0.60546(19) 0.7947(7) 0.4941(3)
C1 C 1.3264(2) 0.1870(10) 1.3719(3)
C2 C 1.4176(2) 0.4898(11) 1.3394(5)
C3 C 1.3924(2) 0.5013(10) 1.2211(4)
C4 C 1.3322(2) 0.3496(9) 1.1778(4)
C5 C 1.29817(17) 0.1853(8) 1.2537(3)
C6 C 1.23284(18) 0.0183(8) 1.2119(3)
C7 C 1.14446(17) -0.1646(7) 1.0697(3)
C8 C 1.1390(2) -0.3547(9) 0.9741(3)
C9 C 1.07583(19) -0.4965(9) 0.9364(3)
C10 C 1.01474(16) -0.4492(6) 0.9883(3)
C11 C 1.01964(19) -0.2567(7) 1.0809(3)
C12 C 1.08326(19) -0.1167(8) 1.1219(3)
C13 C 0.94456(19) -0.5996(8) 0.9437(3)
C14 C 0.88863(15) -0.3967(6) 0.8794(3)
C15 C 0.89570(18) -0.2901(7) 0.7680(3)
C16 C 0.84642(17) -0.1021(7) 0.7103(3)
C17 C 0.78862(16) -0.0037(6) 0.7618(3)
C18 C 0.78076(18) -0.1103(7) 0.8731(3)
C19 C 0.82977(16) -0.3062(7) 0.9295(3)
C20 C 0.69408(18) 0.3254(7) 0.7398(3)
C21 C 0.64497(16) 0.5350(7) 0.6741(3)
C22 C 0.59340(19) 0.6733(8) 0.7285(4)
C23 C 0.5481(2) 0.8671(9) 0.6633(4)
C24 C 0.5556(2) 0.9178(9) 0.5486(4)
C25 C 0.6488(2) 0.6058(8) 0.5587(3)
H1 H 0.8509(15) -0.025(7) 0.634(3)
H2 H 0.9368(17) -0.346(7) 0.738(3)
H3 H 0.7402(13) -0.058(6) 0.910(2)
H4 H 0.5257(15) 1.058(7) 0.507(3)
H5 H 0.9250(16) -0.695(7) 1.012(3)
H6 H 0.686(2) 0.504(8) 0.509(3)
H7 H 0.9534(15) -0.754(7) 0.891(3)
H8 H 0.9790(15) -0.233(6) 1.116(2)
H9 H 1.0757(19) -0.618(8) 0.872(3)
H10 H 1.464(2) 0.605(10) 1.368(4)
H11 H 1.182(2) -0.369(8) 0.939(3)
H12 H 0.514(2) 0.973(9) 0.703(4)
H13 H 0.6855(19) 0.281(8) 0.825(4)
H14 H 1.3054(18) 0.053(8) 1.429(3)
H15 H 1.314(2) 0.339(8) 1.102(3)
H16 H 1.0836(15) 0.016(6) 1.184(3)
H17 H 0.8250(16) -0.393(6) 1.007(3)
H18 H 1.207(2) -0.095(8) 1.273(3)
H19 H 0.5898(18) 0.630(7) 0.813(3)
H20 H 1.414(2) 0.625(8) 1.174(4)
loop_
_geom_bond_atom_site_label_1
_geom_bond_atom_site_label_2
_geom_bond_site_symmetry_1
_geom_bond_site_symmetry_2
N1 C1 1_555 1_555
N2 C6 1_555 1_555
N3 C17 1_555 1_555
N4 C24 1_555 1_555
C1 C5 1_555 1_555
C2 N1 1_555 1_555
C3 C2 1_555 1_555
C4 C3 1_555 1_555
C5 C4 1_555 1_555
C6 C5 1_555 1_555
C7 N2 1_555 1_555
C8 C7 1_555 1_555
C9 C8 1_555 1_555
C10 C9 1_555 1_555
C11 C10 1_555 1_555
C12 C7 1_555 1_555
C13 C10 1_555 1_555
C14 C13 1_555 1_555
C15 C14 1_555 1_555
C16 C15 1_555 1_555
C17 C16 1_555 1_555
C18 C17 1_555 1_555
C19 C14 1_555 1_555
C20 N3 1_555 1_555
C21 C20 1_555 1_555
C22 C21 1_555 1_555
C23 C22 1_555 1_555
C24 C23 1_555 1_555
C25 N4 1_555 1_555
H1 C16 1_555 1_555
H2 C15 1_555 1_555
H3 C18 1_555 1_555
H4 C24 1_555 1_555
H5 C13 1_555 1_555
H6 C25 1_555 1_555
H7 C13 1_555 1_555
H8 C11 1_555 1_555
H9 C9 1_555 1_555
H10 C2 1_555 1_555
H11 C8 1_555 1_555
H12 C23 1_555 1_555
H13 C20 1_555 1_555
H14 C1 1_555 1_555
H15 C4 1_555 1_555
H16 C12 1_555 1_555
H17 C19 1_555 1_555
H18 C6 1_555 1_555
H19 C22 1_555 1_555
H20 C3 1_555 1_555
C11 C12 1_555 1_555
C18 C19 1_555 1_555
C21 C25 1_555 1_555

#END
