
#######################################################################
#
#                 Cambridge Crystallographic Data Centre
#                                CCDC 
#
#######################################################################
#
# If this CIF has been generated from an entry in the Cambridge 
# Structural Database, then it will include bibliographic, chemical, 
# crystal, experimental, refinement or atomic coordinate data resulting 
# from the CCDC's data processing and validation procedures.
#
#######################################################################

data_QANLOJ
_chemical_formula_moiety         'C30 H20 F2'
_chemical_name_systematic        9,10-bis(2-(3-fluorophenyl)vinyl)anthracene
_symmetry_cell_setting           monoclinic
_symmetry_space_group_name_H-M   'P 21/n'
_symmetry_Int_Tables_number      14
_space_group_name_Hall           '-P 2yn'
loop_
_symmetry_equiv_pos_site_id
_symmetry_equiv_pos_as_xyz
1 x,y,z
2 1/2-x,1/2+y,1/2-z
3 -x,-y,-z
4 1/2+x,1/2-y,1/2+z
_cell_length_a                   9.3630(19)
_cell_length_b                   5.2200(10)
_cell_length_c                   21.662(4)
_cell_angle_alpha                90
_cell_angle_beta                 96.92(3)
_cell_angle_gamma                90
_cell_volume                     1051.01
_cell_formula_units_Z            2
loop_
_atom_site_label
_atom_site_type_symbol
_atom_site_fract_x
_atom_site_fract_y
_atom_site_fract_z
F1 F 0.4428(6) 0.8834(9) 0.6770(2)
C1 C 0.5649(5) 1.1501(9) 0.8500(2)
H1 H 0.5921 1.2127 0.8899
C2 C 0.4573(6) 1.2684(11) 0.8126(2)
H2 H 0.4114 1.4093 0.8276
C3 C 0.4147(6) 1.1823(11) 0.7524(2)
H3 H 0.3417 1.2636 0.7267
C4 C 0.4842(6) 0.9742(11) 0.7325(2)
C5 C 0.5935(6) 0.8509(10) 0.7694(2)
H4 H 0.6389 0.7108 0.7537
C6 C 0.6358(5) 0.9336(9) 0.8290(2)
C7 C 0.7469(5) 0.7891(10) 0.8685(2)
H5 H 0.7982 0.6684 0.8485
C8 C 0.7817(5) 0.8121(9) 0.9291(2)
H6 H 0.7333 0.9335 0.9502
C9 C 0.8936(4) 0.6549(9) 0.96523(19)
C10 C 0.8535(5) 0.4691(9) 1.0080(2)
C11 C 0.7066(5) 0.4354(10) 1.0175(2)
H7 H 0.6365 0.5408 0.9968
C12 C 0.6683(5) 0.2524(12) 1.0563(2)
H8 H 0.5721 0.2340 1.0623
C13 C 0.7725(5) 0.0887(10) 1.0878(2)
H9 H 0.7442 -0.0400 1.1134
C14 C 0.9117(5) 0.1172(9) 1.0812(2)
H10 H 0.9791 0.0093 1.1029
C15 C 0.9590(5) 0.3111(8) 1.04137(19)
F1B F 1.5572(6) 0.1166(9) 1.3230(2)
C1B C 1.4351(5) -0.1501(9) 1.1500(2)
H1B H 1.4079 -0.2127 1.1101
C2B C 1.5427(6) -0.2684(11) 1.1874(2)
H2B H 1.5886 -0.4093 1.1724
C3B C 1.5853(6) -0.1823(11) 1.2476(2)
H3B H 1.6583 -0.2636 1.2733
C4B C 1.5158(6) 0.0258(11) 1.2675(2)
C5B C 1.4065(6) 0.1491(10) 1.2306(2)
H4B H 1.3611 0.2892 1.2463
C6B C 1.3642(5) 0.0664(9) 1.1710(2)
C7B C 1.2531(5) 0.2109(10) 1.1315(2)
H5B H 1.2018 0.3316 1.1515
C8B C 1.2183(5) 0.1879(9) 1.0709(2)
H6B H 1.2667 0.0665 1.0498
C9B C 1.1064(4) 0.3451(9) 1.03477(19)
C10B C 1.1465(5) 0.5309(9) 0.9920(2)
C11B C 1.2934(5) 0.5646(10) 0.9825(2)
H7B H 1.3635 0.4592 1.0032
C12B C 1.3317(5) 0.7476(12) 0.9437(2)
H8B H 1.4279 0.7660 0.9377
C13B C 1.2275(5) 0.9113(10) 0.9122(2)
H9B H 1.2558 1.0400 0.8866
C14B C 1.0883(5) 0.8828(9) 0.9188(2)
H10B H 1.0209 0.9907 0.8971
C15B C 1.0410(5) 0.6889(8) 0.95863(19)
loop_
_geom_bond_atom_site_label_1
_geom_bond_atom_site_label_2
_geom_bond_site_symmetry_1
_geom_bond_site_symmetry_2
F1 C4 1_555 1_555
C1 H1 1_555 1_555
C2 C1 1_555 1_555
H2 C2 1_555 1_555
C3 C2 1_555 1_555
H3 C3 1_555 1_555
C4 C3 1_555 1_555
C5 C4 1_555 1_555
H4 C5 1_555 1_555
C6 C1 1_555 1_555
C7 C6 1_555 1_555
H5 C7 1_555 1_555
C8 C7 1_555 1_555
H6 C8 1_555 1_555
C9 C8 1_555 1_555
C10 C9 1_555 1_555
C11 C10 1_555 1_555
H7 C11 1_555 1_555
C12 C11 1_555 1_555
H8 C12 1_555 1_555
C13 C12 1_555 1_555
H9 C13 1_555 1_555
C14 C13 1_555 1_555
H10 C14 1_555 1_555
C15 C10 1_555 1_555
F1B C4B 1_555 1_555
C1B H1B 1_555 1_555
C2B C1B 1_555 1_555
H2B C2B 1_555 1_555
C3B C2B 1_555 1_555
H3B C3B 1_555 1_555
C4B C3B 1_555 1_555
C5B C4B 1_555 1_555
H4B C5B 1_555 1_555
C6B C1B 1_555 1_555
C7B C6B 1_555 1_555
H5B C7B 1_555 1_555
C8B C7B 1_555 1_555
H6B C8B 1_555 1_555
C9B C15 1_555 1_555
C10B C9B 1_555 1_555
C11B C10B 1_555 1_555
H7B C11B 1_555 1_555
C12B C11B 1_555 1_555
H8B C12B 1_555 1_555
C13B C12B 1_555 1_555
H9B C13B 1_555 1_555
C14B C13B 1_555 1_555
H10B C14B 1_555 1_555
C15B C9 1_555 1_555
C5 C6 1_555 1_555
C14 C15 1_555 1_555
C5B C6B 1_555 1_555
C8B C9B 1_555 1_555
C10B C15B 1_555 1_555
C14B C15B 1_555 1_555

#END
