
#######################################################################
#
#                 Cambridge Crystallographic Data Centre
#                                CCDC 
#
#######################################################################
#
# If this CIF has been generated from an entry in the Cambridge 
# Structural Database, then it will include bibliographic, chemical, 
# crystal, experimental, refinement or atomic coordinate data resulting 
# from the CCDC's data processing and validation procedures.
#
#######################################################################

data_QANWEK
_chemical_formula_moiety         'C6 H16 N1 1+,C7 H3 N2 O6 1-,H2 O1'
_chemical_name_systematic        
'N-ethylbutan-1-aminium 3,5-dinitrobenzoate monohydrate'
_symmetry_cell_setting           monoclinic
_symmetry_space_group_name_H-M   'P 21/c'
_symmetry_Int_Tables_number      14
_space_group_name_Hall           '-P 2ybc'
loop_
_symmetry_equiv_pos_site_id
_symmetry_equiv_pos_as_xyz
1 x,y,z
2 -x,1/2+y,1/2-z
3 -x,-y,-z
4 x,1/2-y,1/2+z
_cell_length_a                   16.3681(2)
_cell_length_b                   17.8171(2)
_cell_length_c                   11.46860(10)
_cell_angle_alpha                90
_cell_angle_beta                 100.4910(10)
_cell_angle_gamma                90
_cell_volume                     3288.7
_exptl_crystal_colour            yellow
_exptl_crystal_description       block
_cell_formula_units_Z            8
loop_
_atom_site_label
_atom_site_type_symbol
_atom_site_fract_x
_atom_site_fract_y
_atom_site_fract_z
O1 O 0.45941(9) 0.31179(8) 0.00184(11)
O2 O 0.47221(10) 0.32963(8) -0.18625(11)
O3 O 0.65478(10) 0.52783(9) -0.28438(12)
O4 O 0.74035(9) 0.58185(9) -0.14328(14)
O5 O 0.69890(9) 0.55940(9) 0.26001(13)
C1 C 0.48819(11) 0.34448(10) -0.07900(15)
N1 N 0.68186(10) 0.54039(9) -0.17936(15)
C2 C 0.62488(11) 0.48840(10) 0.10711(15)
O6 O 0.60640(12) 0.48306(9) 0.30186(13)
C3 C 0.66355(11) 0.52511(10) 0.02642(16)
H1 H 0.7030 0.5639 0.0497
C4 C 0.54868(11) 0.40847(10) -0.04166(15)
N2 N 0.64489(11) 0.51211(9) 0.23226(14)
C5 C 0.56863(11) 0.43047(10) 0.07664(15)
H2 H 0.5441 0.4062 0.1354
C6 C 0.58511(11) 0.44557(10) -0.12617(15)
H3 H 0.5712 0.4320 -0.2075
C7 C 0.64168(11) 0.50238(10) -0.09036(16)
O7 O 1.00162(10) 0.66284(8) 0.68145(11)
O8 O 1.00751(10) 0.68779(8) 0.49325(12)
C8 C 0.98537(11) 0.64952(10) 0.57389(15)
N3 N 0.85236(11) 0.47190(9) 0.25938(14)
O9 O 0.80521(10) 0.41911(8) 0.23072(13)
O10 O 0.83839(10) 0.44854(8) 0.77385(12)
O11 O 0.75946(10) 0.38919(9) 0.63146(14)
N4 N 0.81349(11) 0.43497(9) 0.66861(15)
O12 O 0.88654(11) 0.50702(9) 0.19046(13)
C9 C 0.83313(11) 0.45428(10) 0.46419(16)
H4 H 0.7984 0.4123 0.4399
C10 C 0.90010(11) 0.53900(10) 0.61836(16)
H5 H 0.9113 0.5528 0.6997
C11 C 0.85060(11) 0.47744(10) 0.58090(16)
C12 C 0.93320(11) 0.58029(10) 0.53508(15)
C13 C 0.91787(11) 0.55791(10) 0.41700(15)
H6 H 0.9407 0.5851 0.3593
C14 C 0.86875(11) 0.49526(10) 0.38476(15)
N5 N 0.07993(10) 0.67440(9) 0.04319(13)
H7 H 0.0539 0.7199 0.0266
H8 H 0.0780 0.6628 0.1208
C15 C 0.16819(13) 0.68215(12) 0.03066(17)
H9 H 0.1714 0.7027 -0.0486
H10 H 0.1954 0.6323 0.0382
C16 C 0.03294(13) 0.61634(11) -0.03468(17)
H11 H 0.0566 0.5662 -0.0115
H12 H 0.0388 0.6257 -0.1179
C17 C 0.21251(13) 0.73428(11) 0.12607(18)
H13 H 0.1871 0.7848 0.1144
H14 H 0.2045 0.7156 0.2045
C18 C -0.05760(15) 0.61705(14) -0.0260(2)
H15 H -0.0634 0.6091 0.0567
H16 H -0.0865 0.5769 -0.0755
H17 H -0.0819 0.6656 -0.0535
C19 C 0.34980(15) 0.78491(16) 0.2297(3)
H18 H 0.3303 0.8370 0.2239
H19 H 0.4096 0.7837 0.2293
H20 H 0.3390 0.7627 0.3036
C20 C 0.30445(15) 0.74073(17) 0.1257(2)
H21 H 0.3287 0.6898 0.1272
H22 H 0.3126 0.7654 0.0513
N6 N 0.39017(11) 0.17039(9) -0.03948(13)
H23 H 0.3850 0.1598 -0.1190
H24 H 0.4103 0.2185 -0.0273
C21 C 0.45069(16) 0.11714(12) 0.02947(18)
H25 H 0.4315 0.0650 0.0114
H26 H 0.4531 0.1258 0.1153
C22 C 0.30661(15) 0.16614(15) -0.0053(2)
H27 H 0.3149 0.1569 0.0811
H28 H 0.2782 0.1214 -0.0448
C23 C 0.53562(18) 0.12631(16) 0.0011(2)
H29 H 0.5335 0.1179 -0.0838
H30 H 0.5734 0.0898 0.0467
H31 H 0.5557 0.1773 0.0218
C24 C 0.2497(2) 0.2366(3) -0.0498(4)
H32 H 0.1927 0.2160 -0.0603
H33 H 0.2556 0.2689 0.0215
C25 C 0.1709(2) 0.2952(2) -0.2308(3)
H34 H 0.1268 0.2584 -0.2278
H35 H 0.1901 0.2907 -0.3065
H36 H 0.1492 0.3459 -0.2233
C26 C 0.2459(3) 0.2801(3) -0.1281(7)
H37 H 0.2931 0.2676 -0.1678
H38 H 0.2594 0.3293 -0.0895
O13 O 0.41492(11) 0.19234(10) -0.27545(14)
H48 H 0.4309(19) 0.2339(19) -0.251(3)
H49 H 0.4309(18) 0.1860(17) -0.342(3)
O14 O 1.05686(11) 0.69870(10) 0.27674(14)
H50 H 1.0404(18) 0.6913(17) 0.340(3)
H51 H 1.0380(19) 0.7401(19) 0.253(3)
H39? H 0.2875 0.1133 -0.0101
H40? H 0.3104 0.1832 0.0776
H41? H 0.1615 0.2978 -0.3175
H42? H 0.1985 0.3412 -0.1974
H43? H 0.1174 0.2900 -0.2045
C27? C 0.2228(3) 0.2303(3) -0.1917(4)
H44? H 0.1980 0.1906 -0.2474
H45? H 0.2760 0.2433 -0.2165
C28? C 0.2468(3) 0.1938(5) -0.0945(6)
H46? H 0.2164 0.1464 -0.1171
H47? H 0.2122 0.2199 -0.0448
loop_
_geom_bond_atom_site_label_1
_geom_bond_atom_site_label_2
_geom_bond_site_symmetry_1
_geom_bond_site_symmetry_2
O1 C1 1_555 1_555
O2 C1 1_555 1_555
O3 N1 1_555 1_555
O4 N1 1_555 1_555
O5 N2 1_555 1_555
C1 C4 1_555 1_555
N1 C7 1_555 1_555
C2 C3 1_555 1_555
O6 N2 1_555 1_555
C3 H1 1_555 1_555
C4 C5 1_555 1_555
N2 C2 1_555 1_555
C5 C2 1_555 1_555
H2 C5 1_555 1_555
C6 C4 1_555 1_555
H3 C6 1_555 1_555
C7 C3 1_555 1_555
O7 C8 1_555 1_555
O8 C8 1_555 1_555
C8 C12 1_555 1_555
N3 O9 1_555 1_555
O10 N4 1_555 1_555
O11 N4 1_555 1_555
N4 C11 1_555 1_555
O12 N3 1_555 1_555
C9 H4 1_555 1_555
C10 H5 1_555 1_555
C11 C9 1_555 1_555
C12 C10 1_555 1_555
C13 C12 1_555 1_555
H6 C13 1_555 1_555
C14 N3 1_555 1_555
N5 H7 1_555 1_555
H8 N5 1_555 1_555
C15 N5 1_555 1_555
H9 C15 1_555 1_555
H10 C15 1_555 1_555
C16 N5 1_555 1_555
H11 C16 1_555 1_555
H12 C16 1_555 1_555
C17 C15 1_555 1_555
H13 C17 1_555 1_555
H14 C17 1_555 1_555
C18 C16 1_555 1_555
H15 C18 1_555 1_555
H16 C18 1_555 1_555
H17 C18 1_555 1_555
C19 H18 1_555 1_555
H19 C19 1_555 1_555
H20 C19 1_555 1_555
C20 C17 1_555 1_555
H21 C20 1_555 1_555
H22 C20 1_555 1_555
N6 H23 1_555 1_555
H24 N6 1_555 1_555
C21 N6 1_555 1_555
H25 C21 1_555 1_555
H26 C21 1_555 1_555
C22 N6 1_555 1_555
H27 C22 1_555 1_555
H28 C22 1_555 1_555
C23 C21 1_555 1_555
H29 C23 1_555 1_555
H30 C23 1_555 1_555
H31 C23 1_555 1_555
C24 C22 1_555 1_555
H32 C24 1_555 1_555
H33 C24 1_555 1_555
C25 H34 1_555 1_555
H35 C25 1_555 1_555
H36 C25 1_555 1_555
C26 C24 1_555 1_555
H37 C26 1_555 1_555
H38 C26 1_555 1_555
O13 H48 1_555 1_555
H49 O13 1_555 1_555
O14 H50 1_555 1_555
H51 O14 1_555 1_555
C6 C7 1_555 1_555
C9 C14 1_555 1_555
C10 C11 1_555 1_555
C13 C14 1_555 1_555
C19 C20 1_555 1_555
C25 C26 1_555 1_555

#END
