
#######################################################################
#
#                 Cambridge Crystallographic Data Centre
#                                CCDC 
#
#######################################################################
#
# If this CIF has been generated from an entry in the Cambridge 
# Structural Database, then it will include bibliographic, chemical, 
# crystal, experimental, refinement or atomic coordinate data resulting 
# from the CCDC's data processing and validation procedures.
#
#######################################################################

data_QAPCOC
_chemical_compound_source        'isolated from Uncaria rhynchophylla'
_chemical_name_common            'uncarilin B'
_chemical_formula_moiety         'C38 H42 N6 O4'
_chemical_name_systematic        
3,10-dimethyl-13,14-bis(2-(2-methylbut-3-en-2-yl)-1H-indol-3-yl)-1,4,8,11-tetraazadispiro[5.0.5^7^.2^6^]tetradecane-2,5,9,12-tetrone
_chemical_properties_biological  
'( )-Uncarilin B showed activities on MT1 and MT2 receptors with agonistic rates of 11.26% and 52.44% at a concentration of 0.25 mM'
_symmetry_cell_setting           monoclinic
_symmetry_space_group_name_H-M   'C 2/c'
_symmetry_Int_Tables_number      15
_space_group_name_Hall           '-C 2yn'
loop_
_symmetry_equiv_pos_site_id
_symmetry_equiv_pos_as_xyz
1 x,y,z
2 -x,y,1/2-z
3 1/2+x,1/2+y,z
4 1/2-x,1/2+y,1/2-z
5 -x,-y,-z
6 x,-y,1/2+z
7 1/2-x,1/2-y,-z
8 1/2+x,1/2-y,1/2+z
_cell_length_a                   22.1604(8)
_cell_length_b                   15.5985(6)
_cell_length_c                   11.4109(4)
_cell_angle_alpha                90
_cell_angle_beta                 120.9440(10)
_cell_angle_gamma                90
_cell_volume                     3382.99
_exptl_crystal_colour            colorless
_exptl_crystal_description       prism
_cell_formula_units_Z            4
loop_
_atom_site_label
_atom_site_type_symbol
_atom_site_fract_x
_atom_site_fract_y
_atom_site_fract_z
O1 O 0.49677(6) 0.11497(7) 0.47555(11)
O2 O 0.32206(6) 0.02664(7) -0.03751(11)
N1 N 0.43766(7) 0.01121(8) 0.31936(13)
H1 H 0.4376 -0.0206 0.3830
N2 N 0.30831(7) 0.37990(8) 0.09866(13)
H2 H 0.2753 0.4106 0.0998
N3 N 0.40217(7) 0.12018(8) 0.11246(13)
H3 H 0.3833 0.1607 0.0501
C1 C 0.35781(9) -0.09842(11) 0.16726(18)
H4 H 0.3828 -0.1407 0.2402
H5 H 0.3401 -0.1261 0.0784
H6 H 0.3182 -0.0748 0.1724
C2 C 0.40772(8) -0.02672(10) 0.18397(16)
H7 H 0.4470 -0.0520 0.1764
C3 C 0.46528(8) 0.09015(10) 0.35625(15)
C4 C 0.46160(7) 0.14482(10) 0.24418(15)
C5 C 0.46825(8) 0.24482(9) 0.26165(15)
H8 H 0.4856 0.2595 0.3592
C6 C 0.40434(8) 0.29831(10) 0.17081(15)
C7 C 0.36315(8) 0.34065(10) 0.21091(16)
C8 C 0.37229(8) 0.35628(10) 0.35057(16)
C9 C 0.39973(9) 0.27731(11) 0.43915(17)
H9 H 0.3801 0.2239 0.3965
C10 C 0.44831(10) 0.27535(13) 0.56990(18)
H10 H 0.4695 0.3271 0.6170
H11 H 0.4621 0.2222 0.6171
C11 C 0.37263(8) 0.31303(10) 0.02546(15)
C12 C 0.38812(8) 0.28948(10) -0.07568(16)
H12 H 0.4278 0.2546 -0.0528
C13 C 0.34483(9) 0.31774(10) -0.20855(16)
H13 H 0.3557 0.3026 -0.2763
C14 C 0.28541(9) 0.36820(11) -0.24521(17)
H14 H 0.2567 0.3868 -0.3371
C15 C 0.26812(9) 0.39122(10) -0.14957(17)
H15 H 0.2273 0.4244 -0.1744
C16 C 0.31246(8) 0.36424(10) -0.01511(16)
C17 C 0.30099(9) 0.37602(12) 0.33741(18)
H16 H 0.2684 0.3285 0.2903
H17 H 0.2816 0.4289 0.2849
H18 H 0.3076 0.3831 0.4286
C18 C 0.42136(10) 0.43409(12) 0.41513(18)
H19 H 0.4241 0.4492 0.5012
H20 H 0.4027 0.4829 0.3522
H21 H 0.4684 0.4197 0.4331
C19 C 0.37294(8) 0.04196(10) 0.07583(16)
O1A O 0.50323(6) 0.11497(7) 0.02445(11)
O2A O 0.67794(6) 0.02664(7) 0.53751(11)
N1A N 0.56234(7) 0.01121(8) 0.18064(13)
H1A H 0.5624 -0.0206 0.1170
N2A N 0.69169(7) 0.37990(8) 0.40134(13)
H2A H 0.7247 0.4106 0.4002
N3A N 0.59783(7) 0.12018(8) 0.38754(13)
H3A H 0.6167 0.1607 0.4499
C1A C 0.64219(9) -0.09842(11) 0.33274(18)
H4A H 0.6172 -0.1407 0.2598
H5A H 0.6599 -0.1261 0.4216
H6A H 0.6818 -0.0748 0.3276
C2A C 0.59228(8) -0.02672(10) 0.31603(16)
H7A H 0.5530 -0.0520 0.3236
C3A C 0.53472(8) 0.09015(10) 0.14375(15)
C4A C 0.53840(7) 0.14482(10) 0.25582(15)
C5A C 0.53175(8) 0.24482(9) 0.23835(15)
H8A H 0.5144 0.2595 0.1408
C6A C 0.59566(8) 0.29831(10) 0.32919(15)
C7A C 0.63685(8) 0.34065(10) 0.28909(16)
C8A C 0.62771(8) 0.35628(10) 0.14943(16)
C9A C 0.60027(9) 0.27731(11) 0.06085(17)
H9A H 0.6199 0.2239 0.1035
C10A C 0.55169(10) 0.27535(13) -0.06990(18)
H10A H 0.5305 0.3271 -0.1170
H11A H 0.5379 0.2222 -0.1171
C11A C 0.62737(8) 0.31303(10) 0.47454(15)
C12A C 0.61188(8) 0.28948(10) 0.57568(16)
H12A H 0.5722 0.2546 0.5528
C13A C 0.65517(9) 0.31774(10) 0.70855(16)
H13A H 0.6443 0.3026 0.7763
C14A C 0.71459(9) 0.36820(11) 0.74521(17)
H14A H 0.7433 0.3868 0.8371
C15A C 0.73188(9) 0.39122(10) 0.64957(17)
H15A H 0.7727 0.4244 0.6744
C16A C 0.68754(8) 0.36424(10) 0.51511(16)
C17A C 0.69901(9) 0.37602(12) 0.16259(18)
H16A H 0.7316 0.3285 0.2097
H17A H 0.7184 0.4289 0.2151
H18A H 0.6924 0.3831 0.0714
C18A C 0.57864(10) 0.43409(12) 0.08487(18)
H19A H 0.5759 0.4492 -0.0012
H20A H 0.5973 0.4829 0.1478
H21A H 0.5316 0.4197 0.0669
C19A C 0.62706(8) 0.04196(10) 0.42417(16)
loop_
_geom_bond_atom_site_label_1
_geom_bond_atom_site_label_2
_geom_bond_site_symmetry_1
_geom_bond_site_symmetry_2
O1 C3 1_555 1_555
O2 C19 1_555 1_555
N1 H1 1_555 1_555
N2 H2 1_555 1_555
N3 H3 1_555 1_555
C1 H4 1_555 1_555
H5 C1 1_555 1_555
H6 C1 1_555 1_555
C2 N1 1_555 1_555
H7 C2 1_555 1_555
C3 N1 1_555 1_555
C4 N3 1_555 1_555
C5 C4 1_555 1_555
H8 C5 1_555 1_555
C6 C5 1_555 1_555
C7 N2 1_555 1_555
C8 C7 1_555 1_555
C9 C8 1_555 1_555
H9 C9 1_555 1_555
C10 C9 1_555 1_555
H10 C10 1_555 1_555
H11 C10 1_555 1_555
C11 C6 1_555 1_555
C12 C11 1_555 1_555
H12 C12 1_555 1_555
C13 C12 1_555 1_555
H13 C13 1_555 1_555
C14 C13 1_555 1_555
H14 C14 1_555 1_555
C15 C14 1_555 1_555
H15 C15 1_555 1_555
C16 N2 1_555 1_555
C17 C8 1_555 1_555
H16 C17 1_555 1_555
H17 C17 1_555 1_555
H18 C17 1_555 1_555
C18 C8 1_555 1_555
H19 C18 1_555 1_555
H20 C18 1_555 1_555
H21 C18 1_555 1_555
C19 N3 1_555 1_555
O1A C3A 1_555 1_555
O2A C19A 1_555 1_555
N1A H1A 1_555 1_555
N2A H2A 1_555 1_555
N3A H3A 1_555 1_555
C1A H4A 1_555 1_555
H5A C1A 1_555 1_555
H6A C1A 1_555 1_555
C2A N1A 1_555 1_555
H7A C2A 1_555 1_555
C3A N1A 1_555 1_555
C4A C4 1_555 1_555
C5A C5 1_555 1_555
H8A C5A 1_555 1_555
C6A C5A 1_555 1_555
C7A N2A 1_555 1_555
C8A C7A 1_555 1_555
C9A C8A 1_555 1_555
H9A C9A 1_555 1_555
C10A C9A 1_555 1_555
H10A C10A 1_555 1_555
H11A C10A 1_555 1_555
C11A C6A 1_555 1_555
C12A C11A 1_555 1_555
H12A C12A 1_555 1_555
C13A C12A 1_555 1_555
H13A C13A 1_555 1_555
C14A C13A 1_555 1_555
H14A C14A 1_555 1_555
C15A C14A 1_555 1_555
H15A C15A 1_555 1_555
C16A N2A 1_555 1_555
C17A C8A 1_555 1_555
H16A C17A 1_555 1_555
H17A C17A 1_555 1_555
H18A C17A 1_555 1_555
C18A C8A 1_555 1_555
H19A C18A 1_555 1_555
H20A C18A 1_555 1_555
H21A C18A 1_555 1_555
C19A N3A 1_555 1_555
C1 C2 1_555 1_555
C2 C19 1_555 1_555
C3 C4 1_555 1_555
C6 C7 1_555 1_555
C11 C16 1_555 1_555
C15 C16 1_555 1_555
N3A C4A 1_555 1_555
C1A C2A 1_555 1_555
C2A C19A 1_555 1_555
C3A C4A 1_555 1_555
C4A C5A 1_555 1_555
C6A C7A 1_555 1_555
C11A C16A 1_555 1_555
C15A C16A 1_555 1_555

#END
