
#######################################################################
#
#                 Cambridge Crystallographic Data Centre
#                                CCDC 
#
#######################################################################
#
# If this CIF has been generated from an entry in the Cambridge 
# Structural Database, then it will include bibliographic, chemical, 
# crystal, experimental, refinement or atomic coordinate data resulting 
# from the CCDC's data processing and validation procedures.
#
#######################################################################

data_QAPHIA
_chemical_name_common            
4-[3-(3,4,5-trimethoxyphenyl)hexahydro[1,3]oxazolo-[3,4-a]pyridin-1-yl]-2,8-bis(trifluoromethyl)quinoline
_chemical_formula_moiety         'C27 H26 F6 N2 O4'
_chemical_name_systematic        
2,8-bis(trifluoromethyl)-4-(3-(3,4,5-trimethoxyphenyl)hexahydro[1,3]oxazolo[3,4-a]pyridin-1-yl)quinoline
_chemical_properties_biological  'tested for anti-microbacterial activity'
_symmetry_cell_setting           triclinic
_symmetry_space_group_name_H-M   'P -1'
_symmetry_Int_Tables_number      2
_space_group_name_Hall           '-P 1'
loop_
_symmetry_equiv_pos_site_id
_symmetry_equiv_pos_as_xyz
1 x,y,z
2 -x,-y,-z
_cell_length_a                   9.3070(2)
_cell_length_b                   11.4785(3)
_cell_length_c                   12.7888(3)
_cell_angle_alpha                77.0150(10)
_cell_angle_beta                 78.837(2)
_cell_angle_gamma                74.420(2)
_cell_volume                     1269.39
_exptl_crystal_colour            colorless
_exptl_crystal_description       block
_chemical_melting_point          147-149deg.C
_cell_formula_units_Z            2
loop_
_atom_site_label
_atom_site_type_symbol
_atom_site_fract_x
_atom_site_fract_y
_atom_site_fract_z
F1 F 1.12340(13) 0.19040(10) 0.85248(9)
F2 F 1.17472(12) 0.36782(10) 0.80400(9)
F3 F 0.97681(13) 0.34525(12) 0.91744(9)
O1 O 1.02535(14) 0.39534(11) 0.24361(10)
O2 O 1.58543(14) 0.05588(12) 0.17438(11)
F4 F 1.47679(14) 0.14474(13) 0.48256(13)
O3 O 1.67782(14) 0.22043(12) 0.00589(11)
O4 O 1.48442(14) 0.41457(12) -0.08463(10)
F5 F 1.47802(13) 0.32439(15) 0.39329(11)
F6 F 1.48509(14) 0.28231(17) 0.56544(12)
N1 N 1.01647(16) 0.19649(13) 0.25448(12)
N2 N 1.19191(16) 0.30146(14) 0.60758(12)
C1 C 1.03792(18) 0.32963(15) 0.62800(14)
C2 C 0.93217(19) 0.36242(16) 0.34340(13)
H1 H 0.8403 0.4307 0.3521
C3 C 1.05741(19) 0.30061(16) 0.17897(13)
H2 H 0.9931 0.3273 0.1197
C4 C 0.94647(18) 0.35028(15) 0.54470(13)
C5 C 0.85723(19) 0.14881(16) 0.42448(14)
H3 H 0.7683 0.1822 0.4748
H4 H 0.9455 0.1190 0.4641
C6 C 1.3238(2) 0.17246(16) 0.17696(14)
H5 H 1.2896 0.1162 0.2371
C7 C 0.88596(18) 0.24859(16) 0.32797(14)
H6 H 0.7959 0.2770 0.2889
C8 C 1.4237(2) 0.33855(16) 0.00080(14)
C9 C 1.0610(2) 0.31210(17) 0.82623(14)
C10 C 1.17466(19) 0.31580(16) 0.41851(14)
H7 H 1.2276 0.3109 0.3476
C11 C 0.7234(2) 0.38563(17) 0.67784(15)
H8 H 0.6167 0.4042 0.6954
C12 C 1.3855(2) 0.52732(17) -0.12643(16)
H9 H 1.3093 0.5093 -0.1596
H10 H 1.4437 0.5780 -0.1811
H11 H 1.3357 0.5718 -0.0672
C13 C 0.9569(2) -0.00327(18) 0.29604(16)
H12 H 1.0497 -0.0437 0.3293
H13 H 0.9297 -0.0649 0.2652
C14 C 0.96711(19) 0.33849(16) 0.73601(14)
C15 C 1.2712(2) 0.35863(16) 0.04327(14)
H14 H 1.2010 0.4287 0.0125
C16 C 1.02024(19) 0.34142(15) 0.43690(14)
C17 C 1.52653(19) 0.23482(17) 0.04567(14)
C18 C 1.22263(19) 0.27520(16) 0.13105(14)
C19 C 1.25313(19) 0.29691(16) 0.50689(15)
C20 C 0.78733(19) 0.37833(16) 0.57338(14)
H15 H 0.7247 0.3922 0.5192
C21 C 0.8292(2) 0.04239(18) 0.38293(16)
H16 H 0.8198 -0.0264 0.4444
H17 H 0.7331 0.0702 0.3524
C22 C 0.8132(2) 0.36603(17) 0.76016(14)
H18 H 0.7669 0.3719 0.8324
C23 C 0.9865(2) 0.10322(17) 0.20587(15)
H19 H 1.0742 0.0736 0.1530
H20 H 0.8976 0.1388 0.1673
C24 C 1.4760(2) 0.15268(17) 0.13398(15)
C25 C 1.5371(2) -0.03648(19) 0.25802(17)
H21 H 1.4865 -0.0003 0.3219
H22 H 1.6247 -0.1024 0.2773
H23 H 1.4669 -0.0703 0.2324
C26 C 1.7417(2) 0.11779(19) -0.04806(18)
H24 H 1.7252 0.0422 0.0011
H25 H 1.8501 0.1112 -0.0697
H26 H 1.6935 0.1297 -0.1126
C27 C 1.4230(2) 0.26474(19) 0.48700(15)
loop_
_geom_bond_atom_site_label_1
_geom_bond_atom_site_label_2
_geom_bond_site_symmetry_1
_geom_bond_site_symmetry_2
F1 C9 1_555 1_555
F2 C9 1_555 1_555
F3 C9 1_555 1_555
O1 C2 1_555 1_555
O2 C24 1_555 1_555
F4 C27 1_555 1_555
O3 C17 1_555 1_555
O4 C8 1_555 1_555
F5 C27 1_555 1_555
F6 C27 1_555 1_555
N1 C3 1_555 1_555
N2 C1 1_555 1_555
C1 C4 1_555 1_555
C2 H1 1_555 1_555
C3 O1 1_555 1_555
H2 C3 1_555 1_555
C4 C16 1_555 1_555
C5 H3 1_555 1_555
H4 C5 1_555 1_555
C6 H5 1_555 1_555
C7 N1 1_555 1_555
H6 C7 1_555 1_555
C8 C15 1_555 1_555
C9 C14 1_555 1_555
C10 H7 1_555 1_555
C11 H8 1_555 1_555
C12 O4 1_555 1_555
H9 C12 1_555 1_555
H10 C12 1_555 1_555
H11 C12 1_555 1_555
C13 H12 1_555 1_555
H13 C13 1_555 1_555
C14 C1 1_555 1_555
C15 H14 1_555 1_555
C16 C2 1_555 1_555
C17 C8 1_555 1_555
C18 C3 1_555 1_555
C19 N2 1_555 1_555
C20 C4 1_555 1_555
H15 C20 1_555 1_555
C21 C5 1_555 1_555
H16 C21 1_555 1_555
H17 C21 1_555 1_555
C22 C11 1_555 1_555
H18 C22 1_555 1_555
C23 N1 1_555 1_555
H19 C23 1_555 1_555
H20 C23 1_555 1_555
C24 C6 1_555 1_555
C25 O2 1_555 1_555
H21 C25 1_555 1_555
H22 C25 1_555 1_555
H23 C25 1_555 1_555
C26 O3 1_555 1_555
H24 C26 1_555 1_555
H25 C26 1_555 1_555
H26 C26 1_555 1_555
C27 C19 1_555 1_555
C2 C7 1_555 1_555
C5 C7 1_555 1_555
C6 C18 1_555 1_555
C10 C16 1_555 1_555
C10 C19 1_555 1_555
C11 C20 1_555 1_555
C13 C21 1_555 1_555
C13 C23 1_555 1_555
C14 C22 1_555 1_555
C15 C18 1_555 1_555
C17 C24 1_555 1_555

#END
