
#######################################################################
#
#                 Cambridge Crystallographic Data Centre
#                                CCDC 
#
#######################################################################
#
# If this CIF has been generated from an entry in the Cambridge 
# Structural Database, then it will include bibliographic, chemical, 
# crystal, experimental, refinement or atomic coordinate data resulting 
# from the CCDC's data processing and validation procedures.
#
#######################################################################

data_QAPRUX
_chemical_formula_moiety         'C29 H24 N2 O3 S1'
_chemical_name_systematic        
'ethyl 10b-cyano-3-oxo-1-phenyl-2-((phenylsulfanyl)methyl)-1,2,3,10b-tetrahydropyrrolo[2,1-a]isoquinoline-2-carboxylate'
_symmetry_cell_setting           monoclinic
_symmetry_space_group_name_H-M   'P 21/c'
_symmetry_Int_Tables_number      14
_space_group_name_Hall           '-P 2ybc'
loop_
_symmetry_equiv_pos_site_id
_symmetry_equiv_pos_as_xyz
1 x,y,z
2 -x,1/2+y,1/2-z
3 -x,-y,-z
4 x,1/2-y,1/2+z
_cell_length_a                   14.3911(14)
_cell_length_b                   10.3957(10)
_cell_length_c                   18.5711(14)
_cell_angle_alpha                90
_cell_angle_beta                 119.604(5)
_cell_angle_gamma                90
_cell_volume                     2415.66
_exptl_crystal_description       block
_cell_formula_units_Z            4
loop_
_atom_site_label
_atom_site_type_symbol
_atom_site_fract_x
_atom_site_fract_y
_atom_site_fract_z
S1 S 0.41012(5) -0.12075(6) -0.08429(3)
O1 O 0.47049(10) -0.14041(14) -0.23110(9)
O2 O 0.30089(12) 0.07605(13) -0.31446(10)
O3 O 0.26461(15) 0.08957(16) -0.21086(11)
N1 N 0.33810(11) -0.27519(14) -0.32053(9)
N2 N 0.20795(15) -0.49926(19) -0.27501(12)
C1 C 0.17361(14) -0.33934(17) -0.44484(11)
C2 C 0.06873(16) -0.3128(2) -0.50197(13)
H1 H 0.0270 -0.2637 -0.4870
C3 C 0.02578(19) -0.3600(2) -0.58222(14)
H2 H -0.0447 -0.3413 -0.6212
C4 C 0.08658(19) -0.4338(2) -0.60408(13)
H3 H 0.0570 -0.4656 -0.6578
C5 C 0.19081(18) -0.4612(2) -0.54749(13)
H4 H 0.2311 -0.5123 -0.5629
C6 C 0.23710(15) -0.41279(17) -0.46668(11)
C7 C 0.07953(14) -0.15086(19) -0.34264(12)
C8 C 0.02326(18) -0.0394(2) -0.37967(16)
H5 H 0.0520 0.0191 -0.4012
C9 C -0.0742(2) -0.0127(3) -0.3855(2)
H6 H -0.1097 0.0636 -0.4099
C10 C -0.1180(2) -0.0981(3) -0.35563(18)
H7 H -0.1841 -0.0809 -0.3603
C11 C -0.0652(2) -0.2096(3) -0.31867(17)
H8 H -0.0957 -0.2680 -0.2985
C12 C 0.03481(17) -0.2356(2) -0.31124(15)
H9 H 0.0712 -0.3105 -0.2850
C13 C 0.43439(17) -0.2519(2) -0.01713(12)
C14 C 0.35548(19) -0.3325(2) -0.02087(14)
H10 H 0.2850 -0.3218 -0.0626
C15 C 0.3811(3) -0.4279(3) 0.03681(17)
H11 H 0.3278 -0.4824 0.0334
C16 C 0.4841(3) -0.4441(3) 0.09938(18)
H12 H 0.5009 -0.5093 0.1382
C17 C 0.5624(3) -0.3630(3) 0.10432(17)
H13 H 0.6323 -0.3726 0.1473
C18 C 0.53872(19) -0.2678(3) 0.04646(14)
H14 H 0.5925 -0.2141 0.0499
C19 C 0.22382(13) -0.29815(16) -0.35437(10)
C20 C 0.39789(15) -0.36148(18) -0.33886(12)
H15 H 0.4712 -0.3690 -0.3035
C21 C 0.34983(16) -0.4324(2) -0.40671(13)
H16 H 0.3883 -0.4954 -0.4163
C22 C 0.21258(14) -0.40972(18) -0.30837(11)
C23 C 0.18678(13) -0.16698(17) -0.33797(11)
H17 H 0.1833 -0.1103 -0.3814
C24 C 0.28658(13) -0.11837(17) -0.25649(11)
C25 C 0.37836(13) -0.17413(17) -0.26608(11)
C26 C 0.29122(15) -0.1726(2) -0.17782(11)
H18 H 0.2901 -0.2658 -0.1804
H19 H 0.2284 -0.1448 -0.1756
C27 C 0.28465(15) 0.02766(19) -0.25567(13)
C28 C 0.2861(2) 0.2144(2) -0.32937(17)
H20 H 0.2327 0.2457 -0.3163
H21 H 0.3527 0.2591 -0.2944
C29 C 0.2522(4) 0.2385(3) -0.4149(2)
H22 H 0.3097 0.2195 -0.4254
H23 H 0.2322 0.3272 -0.4274
H24 H 0.1920 0.1848 -0.4491
loop_
_geom_bond_atom_site_label_1
_geom_bond_atom_site_label_2
_geom_bond_site_symmetry_1
_geom_bond_site_symmetry_2
S1 C13 1_555 1_555
O1 C25 1_555 1_555
O2 C27 1_555 1_555
O3 C27 1_555 1_555
N1 C19 1_555 1_555
N2 C22 1_555 1_555
C1 C2 1_555 1_555
C2 H1 1_555 1_555
C3 C2 1_555 1_555
H2 C3 1_555 1_555
C4 C3 1_555 1_555
H3 C4 1_555 1_555
C5 C4 1_555 1_555
H4 C5 1_555 1_555
C6 C1 1_555 1_555
C7 C8 1_555 1_555
C8 H5 1_555 1_555
C9 C8 1_555 1_555
H6 C9 1_555 1_555
C10 C9 1_555 1_555
H7 C10 1_555 1_555
C11 C10 1_555 1_555
H8 C11 1_555 1_555
C12 C7 1_555 1_555
H9 C12 1_555 1_555
C13 C14 1_555 1_555
C14 H10 1_555 1_555
C15 C14 1_555 1_555
H11 C15 1_555 1_555
C16 C15 1_555 1_555
H12 C16 1_555 1_555
C17 C16 1_555 1_555
H13 C17 1_555 1_555
C18 C13 1_555 1_555
H14 C18 1_555 1_555
C19 C1 1_555 1_555
C20 N1 1_555 1_555
H15 C20 1_555 1_555
C21 C6 1_555 1_555
H16 C21 1_555 1_555
C22 C19 1_555 1_555
C23 C7 1_555 1_555
H17 C23 1_555 1_555
C24 C23 1_555 1_555
C25 N1 1_555 1_555
C26 S1 1_555 1_555
H18 C26 1_555 1_555
H19 C26 1_555 1_555
C27 C24 1_555 1_555
C28 O2 1_555 1_555
H20 C28 1_555 1_555
H21 C28 1_555 1_555
C29 C28 1_555 1_555
H22 C29 1_555 1_555
H23 C29 1_555 1_555
H24 C29 1_555 1_555
C5 C6 1_555 1_555
C11 C12 1_555 1_555
C17 C18 1_555 1_555
C19 C23 1_555 1_555
C20 C21 1_555 1_555
C24 C25 1_555 1_555
C24 C26 1_555 1_555

#END
