
#######################################################################
#
#                 Cambridge Crystallographic Data Centre
#                                CCDC 
#
#######################################################################
#
# If this CIF has been generated from an entry in the Cambridge 
# Structural Database, then it will include bibliographic, chemical, 
# crystal, experimental, refinement or atomic coordinate data resulting 
# from the CCDC's data processing and validation procedures.
#
#######################################################################

data_QAPTUY
_chemical_formula_moiety         'C18 H10 N4 O1,C1 H1 Cl3'
_chemical_name_systematic        
'2-(Pyridin-2-yl)[1,3]oxazolo[4,5-f][1,10]phenanthroline chloroform solvate'
_symmetry_cell_setting           orthorhombic
_symmetry_space_group_name_H-M   'P n m a'
_symmetry_Int_Tables_number      62
_space_group_name_Hall           '-P 2ac 2n'
loop_
_symmetry_equiv_pos_site_id
_symmetry_equiv_pos_as_xyz
1 x,y,z
2 1/2-x,-y,1/2+z
3 1/2+x,1/2-y,1/2-z
4 -x,1/2+y,-z
5 -x,-y,-z
6 1/2+x,y,1/2-z
7 1/2-x,1/2+y,1/2+z
8 x,1/2-y,z
_cell_length_a                   9.814(2)
_cell_length_b                   6.6845(13)
_cell_length_c                   27.146(5)
_cell_angle_alpha                90
_cell_angle_beta                 90
_cell_angle_gamma                90
_cell_volume                     1780.82
_exptl_crystal_colour            colorless
_exptl_crystal_description       needle
_cell_formula_units_Z            4
loop_
_atom_site_label
_atom_site_type_symbol
_atom_site_fract_x
_atom_site_fract_y
_atom_site_fract_z
N1 N 0.2599(2) 0.2500 -0.12082(8)
N2 N 0.0313(2) 0.2500 -0.06462(9)
O1 O 0.5196(2) 0.2500 0.03361(7)
N3 N 0.3327(2) 0.2500 0.08094(8)
N4 N 0.6897(3) 0.2500 0.11424(9)
C1 C 0.7695(4) 0.2500 0.15408(14)
H1 H 0.8653 0.2500 0.1492
C2 C 0.7223(4) 0.2500 0.20141(13)
H2 H 0.7839 0.2500 0.2284
C3 C 0.5828(4) 0.2500 0.20933(11)
H3 H 0.5472 0.2500 0.2419
C4 C 0.4962(3) 0.2500 0.16923(10)
H4 H 0.4001 0.2500 0.1733
C5 C 0.5546(3) 0.2500 0.12293(10)
C6 C 0.4657(3) 0.2500 0.07947(10)
C7 C 0.2940(3) 0.2500 0.03179(9)
C8 C 0.4078(3) 0.2500 0.00332(9)
C9 C 0.1603(3) 0.2500 0.01120(9)
C10 C 0.0388(3) 0.2500 0.03859(11)
H5 H 0.0411 0.2500 0.0736
C11 C -0.0834(3) 0.2500 0.01390(11)
H6 H -0.1674 0.2500 0.0313
C12 C -0.0802(3) 0.2500 -0.03732(12)
H7 H -0.1652 0.2500 -0.0541
C13 C 0.1522(3) 0.2500 -0.04098(9)
C14 C 0.4059(3) 0.2500 -0.04890(9)
C15 C 0.2754(3) 0.2500 -0.07103(9)
C16 C 0.3711(3) 0.2500 -0.14823(10)
H8 H 0.3601 0.2500 -0.1830
C17 C 0.5039(3) 0.2500 -0.12949(10)
H9 H 0.5803 0.2500 -0.1510
C18 C 0.5213(3) 0.2500 -0.07945(10)
H10 H 0.6102 0.2500 -0.0656
Cl1 Cl 0.86844(6) 0.03434(10) -0.16910(3)
Cl2 Cl 1.05655(10) 0.2500 -0.23234(3)
C19 C 0.9706(3) 0.2500 -0.17552(10)
H11 H 1.0313 0.2500 -0.1545
Cl1G Cl 0.86844(6) 0.46566(10) -0.16910(3)
loop_
_geom_bond_atom_site_label_1
_geom_bond_atom_site_label_2
_geom_bond_site_symmetry_1
_geom_bond_site_symmetry_2
N1 C15 1_555 1_555
N2 C12 1_555 1_555
O1 C6 1_555 1_555
N3 C6 1_555 1_555
N4 C1 1_555 1_555
C1 H1 1_555 1_555
C2 C1 1_555 1_555
H2 C2 1_555 1_555
C3 C2 1_555 1_555
H3 C3 1_555 1_555
C4 C3 1_555 1_555
H4 C4 1_555 1_555
C5 N4 1_555 1_555
C6 C5 1_555 1_555
C7 N3 1_555 1_555
C8 O1 1_555 1_555
C9 C7 1_555 1_555
C10 C9 1_555 1_555
H5 C10 1_555 1_555
C11 C10 1_555 1_555
H6 C11 1_555 1_555
C12 C11 1_555 1_555
H7 C12 1_555 1_555
C13 N2 1_555 1_555
C14 C8 1_555 1_555
C15 C13 1_555 1_555
C16 N1 1_555 1_555
H8 C16 1_555 1_555
C17 C16 1_555 1_555
H9 C17 1_555 1_555
C18 C14 1_555 1_555
H10 C18 1_555 1_555
Cl1 C19 1_555 1_555
Cl2 C19 1_555 1_555
C19 H11 1_555 1_555
Cl1G C19 1_555 1_555
C4 C5 1_555 1_555
C7 C8 1_555 1_555
C9 C13 1_555 1_555
C14 C15 1_555 1_555
C17 C18 1_555 1_555

#END
