
#######################################################################
#
#                 Cambridge Crystallographic Data Centre
#                                CCDC 
#
#######################################################################
#
# If this CIF has been generated from an entry in the Cambridge 
# Structural Database, then it will include bibliographic, chemical, 
# crystal, experimental, refinement or atomic coordinate data resulting 
# from the CCDC's data processing and validation procedures.
#
#######################################################################

data_QAQFAP
_chemical_formula_moiety         'C20 H20 O4'
_chemical_name_systematic        
2,5-diphenyl-3,4,6,7-tetraoxatricyclo(7.2.1.0^2,8^)dodecane
_symmetry_cell_setting           monoclinic
_symmetry_space_group_name_H-M   'P 21/c'
_symmetry_Int_Tables_number      14
_space_group_name_Hall           '-P 2ybc'
loop_
_symmetry_equiv_pos_site_id
_symmetry_equiv_pos_as_xyz
1 x,y,z
2 -x,1/2+y,1/2-z
3 -x,-y,-z
4 x,1/2-y,1/2+z
_cell_length_a                   6.0166(6)
_cell_length_b                   17.2801(10)
_cell_length_c                   15.6010(11)
_cell_angle_alpha                90
_cell_angle_beta                 94.079(8)
_cell_angle_gamma                90
_cell_volume                     1617.89
_chemical_melting_point          133deg.C
_cell_formula_units_Z            4
_exptl_crystal_recrystallization_method 'ethyl acetate/hexane'
loop_
_atom_site_label
_atom_site_type_symbol
_atom_site_fract_x
_atom_site_fract_y
_atom_site_fract_z
O1 O 0.4668(2) 0.6069(1) 0.2004(1)
C1 C 0.6820(2) 0.5955(1) 0.1668(1)
O2 O 0.4815(2) 0.5829(1) 0.2919(2)
C2 C 0.5155(3) 0.6509(1) 0.3418(1)
O3 O 0.7364(2) 0.6787(1) 0.3398(1)
C3 C 0.8483(3) 0.6616(1) 0.1992(1)
O4 O 0.7511(2) 0.7152(1) 0.2554(1)
C4 C 0.8782(2) 0.7093(1) 0.1179(1)
C5 C 1.0157(3) 0.65981 0.0588(1)
C6 C 0.8450(3) 0.5984(1) 0.0228(1)
C7 C 0.6358(3) 0.6174(1) 0.0697(1)
C8 C 0.6443(3) 0.7060(1) 0.0724(1)
C9 C 0.5978(3) 0.4549(1) 0.1532(1)
C10 C 0.6498(3) 0.3767(1) 0.1589(1)
C11 C 0.8596(3) 0.3537(1) 0.1913(1)
C12 C 1.0149(3) 0.4090(1) 0.2181(1)
C13 C 0.9625(3) 0.4876(1) 0.2125(1)
C14 C 0.7527(3) 0.5114(1) 0.1796(1)
C15 C 0.2815(3) 0.6417(1) 0.4679(1)
C16 C 0.2522(3) 0.6206(1) 0.5522(1)
C17 C 0.4237(3) 0.5865(1) 0.6023(1)
C18 C 0.6263(3) 0.5723(1) 0.5676(1)
C19 C 0.6566(3) 0.5926(1) 0.4833(1)
C20 C 0.4847(3) 0.6279(1) 0.4335
H1 H 0.4000(20) 0.6901(8) 0.3228(4)
H2 H 0.9880(30) 0.6400(4) 0.2270(5)
H3 H 0.9477 0.7634 0.1294
H4 H 1.1432 0.6351 0.0914
H5 H 1.0715 0.6913 0.0120
H6 H 0.8163 0.6036 -0.0396
H7 H 0.8978 0.5458 0.0362
H8 H 0.4990 0.5923 0.0430
H9 H 0.6368 0.7299 0.0140
H10 H 0.5282 0.7289 0.1074
H11 H 0.4500 0.4704 0.1304
H12 H 0.5400 0.3385 0.1404
H13 H 0.8976 0.2986 0.1951
H14 H 1.1600 0.3933 0.2407
H15 H 1.0740 0.5261 0.2318
H16 H 0.1670 0.6647 0.4349
H17 H 0.1160 0.6295 0.5752
H18 H 0.4035 0.5729 0.6596
H19 H 0.7470 0.5481 0.6025
H20 H 0.7940 0.5825 0.4598
loop_
_geom_bond_atom_site_label_1
_geom_bond_atom_site_label_2
_geom_bond_site_symmetry_1
_geom_bond_site_symmetry_2
O1 C1 1_555 1_555
C1 C3 1_555 1_555
O2 O1 1_555 1_555
C2 O2 1_555 1_555
O3 C2 1_555 1_555
C3 O4 1_555 1_555
O4 O3 1_555 1_555
C4 C3 1_555 1_555
C5 C4 1_555 1_555
C6 C5 1_555 1_555
C7 C1 1_555 1_555
C8 C4 1_555 1_555
C9 C10 1_555 1_555
C10 C11 1_555 1_555
C11 C12 1_555 1_555
C12 C13 1_555 1_555
C13 C14 1_555 1_555
C14 C1 1_555 1_555
C15 C16 1_555 1_555
C16 C17 1_555 1_555
C17 C18 1_555 1_555
C18 C19 1_555 1_555
C19 C20 1_555 1_555
C20 C2 1_555 1_555
H1 C2 1_555 1_555
H2 C3 1_555 1_555
H3 C4 1_555 1_555
H4 C5 1_555 1_555
H5 C5 1_555 1_555
H6 C6 1_555 1_555
H7 C6 1_555 1_555
H8 C7 1_555 1_555
H9 C8 1_555 1_555
H10 C8 1_555 1_555
H11 C9 1_555 1_555
H12 C10 1_555 1_555
H13 C11 1_555 1_555
H14 C12 1_555 1_555
H15 C13 1_555 1_555
H16 C15 1_555 1_555
H17 C16 1_555 1_555
H18 C17 1_555 1_555
H19 C18 1_555 1_555
H20 C19 1_555 1_555
C6 C7 1_555 1_555
C7 C8 1_555 1_555
C9 C14 1_555 1_555
C15 C20 1_555 1_555

#END
