
#######################################################################
#
#                 Cambridge Crystallographic Data Centre
#                                CCDC 
#
#######################################################################
#
# If this CIF has been generated from an entry in the Cambridge 
# Structural Database, then it will include bibliographic, chemical, 
# crystal, experimental, refinement or atomic coordinate data resulting 
# from the CCDC's data processing and validation procedures.
#
#######################################################################

data_QAQGIA
_chemical_formula_moiety         'C43 H49 N1 O18,2(C1 H4 O1)'
_chemical_name_systematic        
'20,22,23,25-Tetraacetoxy-21-(acetoxymethyl)-26-hydroxy-3,15,26-trimethyl-6,16-dioxo-2,5,17-trioxa-11-azapentacyclo[16.7.1.0^1,21^.0^3,24^.0^7,12^]hexacosa-7,9,11-trien-19-yl benzoate methanol solvate'
_symmetry_cell_setting           monoclinic
_symmetry_space_group_name_H-M   'P 21'
_symmetry_Int_Tables_number      4
_space_group_name_Hall           'P 2yb'
loop_
_symmetry_equiv_pos_site_id
_symmetry_equiv_pos_as_xyz
1 x,y,z
2 -x,1/2+y,-z
_cell_length_a                   10.0252(3)
_cell_length_b                   14.9881(4)
_cell_length_c                   16.1738(5)
_cell_angle_alpha                90
_cell_angle_beta                 105.362(3)
_cell_angle_gamma                90
_cell_volume                     2343.42
_cell_formula_units_Z            2
loop_
_atom_site_label
_atom_site_type_symbol
_atom_site_fract_x
_atom_site_fract_y
_atom_site_fract_z
O1 O 0.1685(2) 0.34816(15) 0.46812(15)
O2 O 0.23995(19) 0.44728(13) 0.57474(12)
O3 O -0.0237(2) 0.50453(13) 0.52059(12)
O4 O 0.1785(2) 0.61019(13) 0.61747(12)
O5 O 0.1878(2) 0.72106(14) 0.46154(13)
O6 O 0.0709(2) 0.59832(16) 0.40573(15)
O7 O -0.1275(2) 0.65336(14) 0.5761(13)
O8 O -0.2972(3) 0.6668(3) 0.64239(19)
O9 O 0.0554(2) 0.75804(13) 0.80958(13)
O10 O 0.2097(3) 0.84952(18) 0.89374(17)
O11 O 0.2584(2) 0.64557(14) 0.88597(12)
O12 O 0.4829(2) 0.6761(18) 0.89621(16)
O13 O -0.0335(2) 0.57701(14) 0.82246(14)
O14 O -0.1034(3) 0.47554(16) 0.90238(16)
O15 O 0.3565(2) 0.47386(13) 0.84197(12)
O16 O 0.5390(2) 0.44136(16) 0.7902(15)
O17 O 0.1522(2) 0.3459(13) 0.7553(13)
O18 O 0.3408(3) 0.26081(16) 0.80847(17)
N1 N 0.3685(3) 0.58014(18) 0.25601(16)
C1 C 0.2530(3) 0.6538(2) 0.3485(19)
C2 C 0.3147(3) 0.7338(2) 0.3349(2)
C3 C 0.4014(3) 0.7360(2) 0.2824(2)
C4 C 0.4261(3) 0.6574(2) 0.24524(19)
C5 C 0.2809(3) 0.5768(2) 0.3068(18)
C6 C 0.2276(3) 0.4841(2) 0.3149(2)
C7 C 0.3405(4) 0.4257(2) 0.3742(2)
C8 C 0.3613(3) 0.4459(2) 0.46862(19)
C9 C 0.4982(3) 0.4066(2) 0.5230(2)
C10 C 0.2444(3) 0.40765(19) 0.50061(19)
C11 C 0.1418(3) 0.4166(19) 0.61952(18)
C12 C 0.0244(3) 0.48646(19) 0.60935(18)
C13 C -0.1003(3) 0.4450(2) 0.63287(19)
C14 C 0.0794(3) 0.57401(19) 0.66016(18)
C15 C 0.1689(3) 0.70727(19) 0.6104(2)
C16 C 0.3155(3) 0.7451(2) 0.6360(2)
C17 C 0.0983(3) 0.7354(2) 0.5182(2)
C18 C 0.1602(3) 0.6526(2) 0.4072(18)
C19 C 0.0731(3) 0.73065(19) 0.66818(18)
C20 C -0.0245(3) 0.6499(2) 0.65693(18)
C21 C -0.2611(3) 0.6607(2) 0.5774(2)
C22 C -0.3538(3) 0.6584(3) 0.4884(2)
C23 C 0.1538(3) 0.7347(2) 0.76202(19)
C24 C 0.2287(3) 0.6466(19) 0.79409(17)
C25 C 0.1587(3) 0.55669(18) 0.75766(18)
C26 C 0.2755(3) 0.48986(19) 0.75526(17)
C27 C 0.2303(3) 0.40128(19) 0.71076(18)
C28 C 0.4895(3) 0.4485(2) 0.8505(2)
C29 C 0.5643(4) 0.4305(3) 0.9420(2)
C30 C 0.0748(3) 0.5166(2) 0.8156(19)
C31 C -0.1184(3) 0.5460(2) 0.8672(2)
C32 C -0.2341(4) 0.6115(3) 0.8645(3)
C33 C 0.3926(3) 0.6633(2) 0.93025(19)
C34 C 0.4070(4) 0.6619(3) 1.0242(2)
C35 C 0.0987(4) 0.8165(2) 0.8748(2)
C36 C -0.0126(4) 0.8330(3) 0.9182(2)
C37 C 0.2193(3) 0.2757(2) 0.8004(2)
C38 C 0.1277(3) 0.2207(2) 0.8375(2)
C39 C 0.0028(3) 0.2521(2) 0.8472(2)
C40 C -0.0790(4) 0.1967(3) 0.8834(2)
C41 C -0.0366(4) 0.1107(3) 0.9074(2)
C42 C 0.0869(4) 0.0800(2) 0.8995(2)
C43 C 0.1709(4) 0.1343(2) 0.8638(2)
H1 H 0.0358 0.5347 0.5048
H2 H 0.2966 0.7869 0.3622
H3 H 0.4431 0.7902 0.2718
H4 H 0.4881 0.6585 0.2098
H5 H 0.1978 0.4562 0.2574
H6 H 0.1461 0.4875 0.3385
H7 H 0.3149 0.3621 0.3637
H8 H 0.4291 0.4352 0.3592
H9 H 0.3632 0.5121 0.4767
H10 H 0.5068 0.4183 0.5838
H11 H 0.5758 0.4345 0.5064
H12 H 0.4994 0.3421 0.5134
H13 H 0.1014 0.3585 0.5944
H14 H -0.0680 0.4040 0.6812
H15 H -0.1567 0.4122 0.5835
H16 H -0.1561 0.4924 0.6489
H17 H 0.3117 0.8101 0.6292
H18 H 0.3692 0.7195 0.5993
H19 H 0.3597 0.7301 0.6960
H20 H 0.0120 0.7007 0.4969
H21 H 0.0732 0.7993 0.5173
H22 H 0.0210 0.7872 0.6494
H23 H -0.0684 0.6454 0.7056
H24 H -0.3209 0.7013 0.4526
H25 H -0.4482 0.6741 0.4896
H26 H -0.3534 0.5983 0.4646
H27 H 0.2242 0.7834 0.7694
H28 H 0.3198 0.6488 0.7798
H29 H 0.3374 0.5196 0.7242
H30 H 0.3151 0.3677 0.7077
H31 H 0.5256 0.3771 0.9618
H32 H 0.5535 0.4817 0.9774
H33 H 0.6627 0.4210 0.9466
H34 H 0.0339 0.4591 0.7914
H35 H 0.1368 0.5050 0.8733
H36 H -0.2043 0.6716 0.8534
H37 H -0.2574 0.6109 0.9196
H38 H -0.3156 0.5946 0.8187
H39 H 0.5020 0.6777 1.0550
H40 H 0.3858 0.6019 1.0414
H41 H 0.3427 0.7050 1.0382
H42 H -0.0375 0.7767 0.9411
H43 H -0.0940 0.8576 0.8769
H44 H 0.0204 0.8755 0.9652
H45 H -0.0271 0.3108 0.8295
H46 H -0.1638 0.2183 0.8914
H47 H -0.0944 0.0726 0.9297
H48 H 0.1165 0.0214 0.9182
H49 H 0.2567 0.1125 0.8575
O19 O 0.2644(3) 0.9700(2) 0.60774(18)
C44 C 0.2468(5) 1.0018(4) 0.6871(3)
H50 H 0.1912 0.9783 0.5688
H51 H 0.2283 1.0661 0.6829
H52 H 0.3312 0.9904 0.7328
H53 H 0.1688 0.9709 0.7003
O20 O 0.6525(5) 0.9598(2) 0.8842(2)
C45 C 0.5930(6) 0.8761(4) 0.8658(4)
H54 H 0.6785 0.9784 0.8420
H55 H 0.6181 0.8511 0.8160
H56 H 0.4922 0.8813 0.8530
H57 H 0.6267 0.8367 0.9153
loop_
_geom_bond_atom_site_label_1
_geom_bond_atom_site_label_2
_geom_bond_site_symmetry_1
_geom_bond_site_symmetry_2
O1 C10 1_555 1_555
O2 C10 1_555 1_555
O3 C12 1_555 1_555
O4 C14 1_555 1_555
O5 C17 1_555 1_555
O6 C18 1_555 1_555
O7 C20 1_555 1_555
O8 C21 1_555 1_555
O9 C23 1_555 1_555
O10 C35 1_555 1_555
O11 C24 1_555 1_555
O12 C33 1_555 1_555
O13 C30 1_555 1_555
O14 C31 1_555 1_555
O15 C26 1_555 1_555
O16 C28 1_555 1_555
O17 C27 1_555 1_555
O18 C37 1_555 1_555
N1 C4 1_555 1_555
C1 C2 1_555 1_555
C2 C3 1_555 1_555
C3 C4 1_555 1_555
C4 H4 1_555 1_555
C5 N1 1_555 1_555
C6 C5 1_555 1_555
C7 C6 1_555 1_555
C8 C7 1_555 1_555
C9 C8 1_555 1_555
C10 C8 1_555 1_555
C11 O2 1_555 1_555
C12 C11 1_555 1_555
C13 C12 1_555 1_555
C14 C12 1_555 1_555
C15 O4 1_555 1_555
C16 C15 1_555 1_555
C17 C15 1_555 1_555
C18 O5 1_555 1_555
C19 C15 1_555 1_555
C20 C14 1_555 1_555
C21 O7 1_555 1_555
C22 C21 1_555 1_555
C23 C19 1_555 1_555
C24 C23 1_555 1_555
C25 C14 1_555 1_555
C26 C25 1_555 1_555
C27 C11 1_555 1_555
C28 O15 1_555 1_555
C29 C28 1_555 1_555
C30 C25 1_555 1_555
C31 O13 1_555 1_555
C32 C31 1_555 1_555
C33 O11 1_555 1_555
C34 C33 1_555 1_555
C35 O9 1_555 1_555
C36 C35 1_555 1_555
C37 O17 1_555 1_555
C38 C37 1_555 1_555
C39 C38 1_555 1_555
C40 C39 1_555 1_555
C41 C40 1_555 1_555
C42 C41 1_555 1_555
C43 C38 1_555 1_555
H1 O3 1_555 1_555
H2 C2 1_555 1_555
H3 C3 1_555 1_555
H5 C6 1_555 1_555
H6 C6 1_555 1_555
H7 C7 1_555 1_555
H8 C7 1_555 1_555
H9 C8 1_555 1_555
H10 C9 1_555 1_555
H11 C9 1_555 1_555
H12 C9 1_555 1_555
H13 C11 1_555 1_555
H14 C13 1_555 1_555
H15 C13 1_555 1_555
H16 C13 1_555 1_555
H17 C16 1_555 1_555
H18 C16 1_555 1_555
H19 C16 1_555 1_555
H20 C17 1_555 1_555
H21 C17 1_555 1_555
H22 C19 1_555 1_555
H23 C20 1_555 1_555
H24 C22 1_555 1_555
H25 C22 1_555 1_555
H26 C22 1_555 1_555
H27 C23 1_555 1_555
H28 C24 1_555 1_555
H29 C26 1_555 1_555
H30 C27 1_555 1_555
H31 C29 1_555 1_555
H32 C29 1_555 1_555
H33 C29 1_555 1_555
H34 C30 1_555 1_555
H35 C30 1_555 1_555
H36 C32 1_555 1_555
H37 C32 1_555 1_555
H38 C32 1_555 1_555
H39 C34 1_555 1_555
H40 C34 1_555 1_555
H41 C34 1_555 1_555
H42 C36 1_555 1_555
H43 C36 1_555 1_555
H44 C36 1_555 1_555
H45 C39 1_555 1_555
H46 C40 1_555 1_555
H47 C41 1_555 1_555
H48 C42 1_555 1_555
H49 C43 1_555 1_555
O19 C44 1_555 1_555
C44 H51 1_555 1_555
H50 O19 1_555 1_555
H52 C44 1_555 1_555
H53 C44 1_555 1_555
O20 C45 1_555 1_555
C45 H55 1_555 1_555
H54 O20 1_555 1_555
H56 C45 1_555 1_555
H57 C45 1_555 1_555
C1 C5 1_555 1_555
C1 C18 1_555 1_555
C19 C20 1_555 1_555
C24 C25 1_555 1_555
C26 C27 1_555 1_555
C42 C43 1_555 1_555

#END
