
#######################################################################
#
#                 Cambridge Crystallographic Data Centre
#                                CCDC 
#
#######################################################################
#
# If this CIF has been generated from an entry in the Cambridge 
# Structural Database, then it will include bibliographic, chemical, 
# crystal, experimental, refinement or atomic coordinate data resulting 
# from the CCDC's data processing and validation procedures.
#
#######################################################################

data_QAQLAW
_chemical_compound_source        'Schisandra micrantha'
_chemical_name_common            'Micrandilactone B'
_chemical_formula_moiety         'C29 H40 O8'
_chemical_name_systematic        
(2S,2aS,4aR,5aS,8aS,10aR,12aS,12bS,13aR)-4a-Hydroxy-2-((1R,2R)-2-hydroxy-1-methyl-2-((2R)-4-methyl-5-oxo-2,5-dihydro-2-furanyl)ethyl)-2a,10,10-trimethylperhydrofuro(3,2-b)oxireno(2'',3'':3',3a')indeno(4',5':5,6)-cyclohepta(c)furan-7-one
_symmetry_cell_setting           orthorhombic
_symmetry_space_group_name_H-M   'P 21 21 21'
_symmetry_Int_Tables_number      19
_space_group_name_Hall           'P 2ac 2ab'
loop_
_symmetry_equiv_pos_site_id
_symmetry_equiv_pos_as_xyz
1 x,y,z
2 1/2-x,-y,1/2+z
3 -x,1/2+y,1/2-z
4 1/2+x,1/2-y,-z
_cell_length_a                   6.501(1)
_cell_length_b                   12.672(1)
_cell_length_c                   32.201(1)
_cell_angle_alpha                90
_cell_angle_beta                 90
_cell_angle_gamma                90
_cell_volume                     2652.74
_exptl_crystal_colour            colorless
_exptl_crystal_description       block
_chemical_melting_point          '179-180 deg.C'
_cell_formula_units_Z            4
_exptl_crystal_recrystallization_method methanol
loop_
_atom_site_label
_atom_site_type_symbol
_atom_site_fract_x
_atom_site_fract_y
_atom_site_fract_z
O1 O 0.6846(12) -0.2767(6) 0.2316(2)
O2 O 0.2396(13) -0.0847(9) 0.2548(3)
O3 O 0.4819(11) -0.0849(7) 0.2076(2)
O4 O 0.5947(12) 0.0813(9) 0.1551(3)
H1 H 0.5244 0.0374 0.1673
O5 O 0.7450(12) 0.1370(6) 0.0727(2)
O6 O 1.2825(13) 0.5320(7) 0.0257(3)
H2 H 1.2510 0.5786 0.0092
O7 O 0.8766(15) 0.6064(6) 0.0381(2)
O8 O 0.8299(17) 0.7781(7) 0.0219(3)
C1 C 0.7401(19) -0.1764(10) 0.2434(4)
H3 H 0.8809 -0.1730 0.2542
C2 C 0.5815(19) -0.1345(11) 0.2744(3)
H4 H 0.5368 -0.1893 0.2933
H5 H 0.6358 -0.0756 0.2902
C3 C 0.4118(13) -0.1006(8) 0.2466(3)
C4 C 0.759(2) -0.2941(9) 0.1915(3)
C5 C 0.739(2) -0.1846(8) 0.1679(3)
H6 H 0.6088 -0.1865 0.1527
C6 C 0.901(2) -0.1620(8) 0.1372(4)
H7 H 0.9158 -0.2228 0.1191
H8 H 1.0304 -0.1523 0.1516
C7 C 0.8597(19) -0.0634(7) 0.1100(3)
H9 H 0.9288 -0.0726 0.0836
H10 H 0.7132 -0.0590 0.1045
C8 C 0.9301(18) 0.0404(9) 0.1291(3)
H11 H 1.0723 0.0308 0.1385
C9 C 0.7995(16) 0.0716(8) 0.1676(3)
C10 C 0.7090(16) -0.1062(8) 0.2049(3)
C11 C 0.871(2) 0.1842(9) 0.1831(3)
H12 H 0.7800 0.2063 0.2054
H13 H 1.0081 0.1781 0.1946
C12 C 0.8719(16) 0.2668(8) 0.1509(3)
H14 H 0.9235 0.3319 0.1628
H15 H 0.7320 0.2794 0.1416
C13 C 1.0054(17) 0.2368(8) 0.1132(3)
C14 C 0.9286(17) 0.1283(9) 0.0990(3)
C15 C 0.9436(18) 0.1256(8) 0.0536(3)
H16 H 0.9797 0.0597 0.0395
C16 C 1.0246(16) 0.2276(8) 0.0379(3)
H17 H 0.9522 0.2487 0.0130
H18 H 1.1700 0.2216 0.0316
C17 C 0.9894(19) 0.3095(9) 0.0732(3)
H19 H 0.8467 0.3339 0.0711
C18 C 1.2341(16) 0.2220(9) 0.1248(3)
H20 H 1.2443 0.1792 0.1493
H21 H 1.2955 0.2896 0.1299
H22 H 1.3046 0.1879 0.1023
C19 C 0.8217(14) -0.0028(7) 0.2050(3)
H23 H 0.9669 -0.0180 0.2084
H24 H 0.7782 0.0359 0.2295
C20 C 1.1265(17) 0.4054(9) 0.0698(4)
H25 H 1.2680 0.3806 0.0736
C21 C 1.083(2) 0.4855(9) 0.1055(3)
H26 H 1.1757 0.5442 0.1031
H27 H 1.1033 0.4515 0.1318
H28 H 0.9439 0.5101 0.1035
C22 C 1.1185(16) 0.4569(7) 0.0285(3)
H29 H 1.1465 0.4020 0.0079
C23 C 0.909(2) 0.5096(8) 0.0161(4)
H30 H 0.7964 0.4608 0.0222
C24 C 0.896(2) 0.5427(10) -0.0276(4)
H31 H 0.9045 0.4959 -0.0498
C25 C 0.8704(18) 0.6436(8) -0.0322(3)
C26 C 0.8524(17) 0.6862(9) 0.0128(3)
C27 C 0.8439(18) 0.7142(8) -0.0678(3)
H32 H 0.8543 0.6743 -0.0930
H33 H 0.9489 0.7674 -0.0673
H34 H 0.7111 0.7471 -0.0663
C28 C 0.976(2) -0.3324(9) 0.1936(4)
H35 H 0.9801 -0.3983 0.2083
H36 H 1.0587 -0.2813 0.2079
H37 H 1.0276 -0.3423 0.1660
C29 C 0.625(3) -0.3769(12) 0.1709(4)
H38 H 0.6439 -0.4436 0.1846
H39 H 0.6622 -0.3833 0.1422
H40 H 0.4830 -0.3563 0.1730
loop_
_geom_bond_atom_site_label_1
_geom_bond_atom_site_label_2
_geom_bond_site_symmetry_1
_geom_bond_site_symmetry_2
O1 C1 1_555 1_555
O2 C3 1_555 1_555
O3 C3 1_555 1_555
O4 H1 1_555 1_555
O5 C14 1_555 1_555
O6 H2 1_555 1_555
O7 C23 1_555 1_555
O8 C26 1_555 1_555
C1 H3 1_555 1_555
C2 C1 1_555 1_555
H4 C2 1_555 1_555
H5 C2 1_555 1_555
C3 C2 1_555 1_555
C4 O1 1_555 1_555
C5 C4 1_555 1_555
H6 C5 1_555 1_555
C6 C5 1_555 1_555
H7 C6 1_555 1_555
H8 C6 1_555 1_555
C7 C6 1_555 1_555
H9 C7 1_555 1_555
H10 C7 1_555 1_555
C8 C7 1_555 1_555
H11 C8 1_555 1_555
C9 O4 1_555 1_555
C10 O3 1_555 1_555
C11 C9 1_555 1_555
H12 C11 1_555 1_555
H13 C11 1_555 1_555
C12 C11 1_555 1_555
H14 C12 1_555 1_555
H15 C12 1_555 1_555
C13 C12 1_555 1_555
C14 C8 1_555 1_555
C15 O5 1_555 1_555
H16 C15 1_555 1_555
C16 C15 1_555 1_555
H17 C16 1_555 1_555
H18 C16 1_555 1_555
C17 C13 1_555 1_555
H19 C17 1_555 1_555
C18 C13 1_555 1_555
H20 C18 1_555 1_555
H21 C18 1_555 1_555
H22 C18 1_555 1_555
C19 C9 1_555 1_555
H23 C19 1_555 1_555
H24 C19 1_555 1_555
C20 C17 1_555 1_555
H25 C20 1_555 1_555
C21 C20 1_555 1_555
H26 C21 1_555 1_555
H27 C21 1_555 1_555
H28 C21 1_555 1_555
C22 O6 1_555 1_555
H29 C22 1_555 1_555
C23 C22 1_555 1_555
H30 C23 1_555 1_555
C24 C23 1_555 1_555
H31 C24 1_555 1_555
C25 C24 1_555 1_555
C26 O7 1_555 1_555
C27 C25 1_555 1_555
H32 C27 1_555 1_555
H33 C27 1_555 1_555
H34 C27 1_555 1_555
C28 C4 1_555 1_555
H35 C28 1_555 1_555
H36 C28 1_555 1_555
H37 C28 1_555 1_555
C29 C4 1_555 1_555
H38 C29 1_555 1_555
H39 C29 1_555 1_555
H40 C29 1_555 1_555
C1 C10 1_555 1_555
C5 C10 1_555 1_555
C8 C9 1_555 1_555
C10 C19 1_555 1_555
C13 C14 1_555 1_555
C14 C15 1_555 1_555
C16 C17 1_555 1_555
C20 C22 1_555 1_555
C25 C26 1_555 1_555

#END
