
#######################################################################
#
#                 Cambridge Crystallographic Data Centre
#                                CCDC 
#
#######################################################################
#
# If this CIF has been generated from an entry in the Cambridge 
# Structural Database, then it will include bibliographic, chemical, 
# crystal, experimental, refinement or atomic coordinate data resulting 
# from the CCDC's data processing and validation procedures.
#
#######################################################################

data_QARXAL
_chemical_formula_moiety         'C16 H23 N1 O3'
_chemical_name_systematic        
't-butyl 3-hydroxy-2-phenylpiperidine-1-carboxylate'
_symmetry_cell_setting           monoclinic
_symmetry_space_group_name_H-M   'P 21/c'
_symmetry_Int_Tables_number      14
_space_group_name_Hall           '-P 2ybc'
loop_
_symmetry_equiv_pos_site_id
_symmetry_equiv_pos_as_xyz
1 x,y,z
2 -x,1/2+y,1/2-z
3 -x,-y,-z
4 x,1/2-y,1/2+z
_cell_length_a                   14.3719(19)
_cell_length_b                   11.0213(16)
_cell_length_c                   9.9487(14)
_cell_angle_alpha                90
_cell_angle_beta                 105.385(3)
_cell_angle_gamma                90
_cell_volume                     1519.37
_exptl_crystal_colour            colorless
_exptl_crystal_description       prismatic
_cell_formula_units_Z            4
_exptl_crystal_recrystallization_method 'petroleum ether/ethyl acetate'
loop_
_atom_site_label
_atom_site_type_symbol
_atom_site_fract_x
_atom_site_fract_y
_atom_site_fract_z
N1 N 0.16875(15) 0.4130(2) 0.7518(2)
O1 O 0.10900(16) 0.17990(19) 0.8520(2)
H1 H 0.1481 0.1356 0.9047
O2 O 0.22815(13) 0.46310(19) 0.56948(19)
O3 O 0.32573(13) 0.39313(18) 0.77108(18)
C1 C 0.0714(2) 0.4565(3) 0.6801(3)
H2 H 0.0664 0.4648 0.5813
H3 H 0.0616 0.5360 0.7158
C2 C -0.0061(2) 0.3719(3) 0.6992(3)
H4 H -0.0031 0.2962 0.6509
H5 H -0.0690 0.4080 0.6600
C3 C 0.0078(2) 0.3476(3) 0.8530(3)
H6 H 0.0011 0.4230 0.9000
H7 H -0.0417 0.2921 0.8651
C4 C 0.1058(2) 0.2939(3) 0.9174(3)
H8 H 0.1133 0.2811 1.0172
C5 C 0.18780(18) 0.3760(2) 0.8985(3)
H9 H 0.2460 0.3256 0.9184
C6 C 0.21001(17) 0.4817(3) 1.0006(3)
C7 C 0.2351(2) 0.4583(3) 1.1419(3)
H10 H 0.2356 0.3785 1.1726
C8 C 0.2594(2) 0.5503(3) 1.2382(3)
H11 H 0.2762 0.5325 1.3330
C9 C 0.2588(2) 0.6679(3) 1.1946(4)
H12 H 0.2758 0.7302 1.2594
C10 C 0.2330(2) 0.6937(3) 1.0545(4)
H13 H 0.2315 0.7737 1.0242
C11 C 0.2094(2) 0.6010(3) 0.9592(3)
H14 H 0.1927 0.6193 0.8646
C12 C 0.24010(19) 0.4267(2) 0.6884(3)
C13 C 0.41558(19) 0.4108(3) 0.7296(3)
C14 C 0.4896(2) 0.3648(3) 0.8565(3)
H15 H 0.4789 0.2800 0.8689
H16 H 0.4840 0.4089 0.9372
H17 H 0.5531 0.3761 0.8443
C15 C 0.4303(3) 0.5437(3) 0.7059(4)
H18 H 0.4213 0.5897 0.7834
H19 H 0.3845 0.5696 0.6219
H20 H 0.4946 0.5563 0.6972
C16 C 0.4156(2) 0.3336(3) 0.6052(3)
H21 H 0.3664 0.3617 0.5260
H22 H 0.4030 0.2508 0.6245
H23 H 0.4774 0.3391 0.5857
loop_
_geom_bond_atom_site_label_1
_geom_bond_atom_site_label_2
_geom_bond_site_symmetry_1
_geom_bond_site_symmetry_2
N1 C1 1_555 1_555
O1 H1 1_555 1_555
O2 C12 1_555 1_555
O3 C12 1_555 1_555
C1 H2 1_555 1_555
H3 C1 1_555 1_555
C2 C1 1_555 1_555
H4 C2 1_555 1_555
H5 C2 1_555 1_555
C3 C2 1_555 1_555
H6 C3 1_555 1_555
H7 C3 1_555 1_555
C4 O1 1_555 1_555
H8 C4 1_555 1_555
C5 N1 1_555 1_555
H9 C5 1_555 1_555
C6 C5 1_555 1_555
C7 C6 1_555 1_555
H10 C7 1_555 1_555
C8 C7 1_555 1_555
H11 C8 1_555 1_555
C9 C8 1_555 1_555
H12 C9 1_555 1_555
C10 C9 1_555 1_555
H13 C10 1_555 1_555
C11 C6 1_555 1_555
H14 C11 1_555 1_555
C12 N1 1_555 1_555
C13 O3 1_555 1_555
C14 C13 1_555 1_555
H15 C14 1_555 1_555
H16 C14 1_555 1_555
H17 C14 1_555 1_555
C15 C13 1_555 1_555
H18 C15 1_555 1_555
H19 C15 1_555 1_555
H20 C15 1_555 1_555
C16 C13 1_555 1_555
H21 C16 1_555 1_555
H22 C16 1_555 1_555
H23 C16 1_555 1_555
C3 C4 1_555 1_555
C4 C5 1_555 1_555
C10 C11 1_555 1_555

#END
