
#######################################################################
#
#                 Cambridge Crystallographic Data Centre
#                                CCDC 
#
#######################################################################
#
# If this CIF has been generated from an entry in the Cambridge 
# Structural Database, then it will include bibliographic, chemical, 
# crystal, experimental, refinement or atomic coordinate data resulting 
# from the CCDC's data processing and validation procedures.
#
#######################################################################

data_QASDUK
_chemical_formula_moiety         
'2(C3 H6 N6),2(C3 H7 N6 1+),C10 H6 O6 S2 2-,8(H2 O1)'
_chemical_name_systematic        
'bis(Melamine) bis(melaminium) 1,5-naphthalenedisulfonate octahydrate'
_symmetry_cell_setting           triclinic
_symmetry_space_group_name_H-M   'P -1'
_symmetry_Int_Tables_number      2
_space_group_name_Hall           '-P 1'
loop_
_symmetry_equiv_pos_site_id
_symmetry_equiv_pos_as_xyz
1 x,y,z
2 -x,-y,-z
_cell_length_a                   7.1488(8)
_cell_length_b                   10.6394(11)
_cell_length_c                   14.7039(15)
_cell_angle_alpha                79.903(2)
_cell_angle_beta                 76.519(2)
_cell_angle_gamma                70.781(2)
_cell_volume                     1021
_exptl_crystal_colour            colorless
_exptl_crystal_description       plate
_cell_formula_units_Z            1
loop_
_atom_site_label
_atom_site_type_symbol
_atom_site_fract_x
_atom_site_fract_y
_atom_site_fract_z
S1 S 0.68469(11) 0.64546(7) 0.34110(5)
O1 O 0.5855(3) 0.7708(2) 0.38211(17)
O2 O 0.5446(3) 0.5912(2) 0.31726(16)
O3 O 0.8479(3) 0.6553(2) 0.26336(15)
C7 C 0.9948(4) 0.6751(3) 0.4501(2)
H14 H 0.9271 0.7446 0.4105
C8 C 0.9482(4) 0.5521(3) 0.46869(19)
C9 C 0.8027(4) 0.5276(3) 0.4282(2)
C10 C 0.7598(5) 0.4086(3) 0.4507(2)
H15 H 0.6606 0.3953 0.4257
C11 C 1.1369(5) 0.6925(3) 0.4895(2)
H16 H 1.1657 0.7736 0.4762
S1A S 1.31531(11) 0.35454(7) 0.65890(5)
O1A O 1.4145(3) 0.2292(2) 0.61789(17)
O2A O 1.4554(3) 0.4088(2) 0.68274(16)
O3A O 1.1521(3) 0.3447(2) 0.73664(15)
C7A C 1.0052(4) 0.3249(3) 0.5499(2)
H14A H 1.0729 0.2554 0.5895
C8A C 1.0518(4) 0.4479(3) 0.53131(19)
C9A C 1.1973(4) 0.4724(3) 0.5718(2)
C10A C 1.2402(5) 0.5914(3) 0.5493(2)
H15A H 1.3394 0.6047 0.5743
C11A C 0.8631(5) 0.3075(3) 0.5105(2)
H16A H 0.8343 0.2264 0.5238
N1 N 1.8510(4) 0.6643(3) 0.74305(19)
H1 H 1.9210 0.5819 0.7526
H2 H 1.8670 0.7073 0.6880
N2 N 1.6147(4) 0.8555(2) 0.79377(18)
N3 N 1.3705(4) 1.0408(2) 0.8513(2)
H3 H 1.2808 1.0796 0.8962
H4 H 1.3901 1.0844 0.7967
N4 N 1.4416(4) 0.8503(2) 0.95324(18)
N5 N 1.5289(4) 0.6545(3) 1.04951(19)
H5 H 1.6000 0.5724 1.0590
H6 H 1.4402 0.6930 1.0947
N6 N 1.6971(4) 0.6556(2) 0.89774(17)
C1 C 1.7163(4) 0.7260(3) 0.8143(2)
C2 C 1.4798(4) 0.9122(3) 0.8666(2)
C3 C 1.5561(4) 0.7220(3) 0.9649(2)
N7 N 1.0306(4) 0.6175(3) 0.06262(18)
H7 H 0.9443 0.6497 0.1106
H8 H 1.1021 0.5347 0.0666
N8 N 1.1930(4) 0.6362(2) -0.08963(17)
N9 N 1.3432(4) 0.6704(3) -0.24390(18)
H9 H 1.4171 0.5881 -0.2419
H10 H 1.3545 0.7231 -0.2950
N10 N 1.0996(4) 0.8468(2) -0.17538(18)
H11 H 1.115(5) 0.886(3) -0.2311(12)
N11 N 0.8551(4) 1.0247(2) -0.10885(19)
H12 H 0.7670 1.0591 -0.0620
H13 H 0.8724 1.0731 -0.1616
N12 N 0.9370(4) 0.8231(2) -0.01849(17)
C4 C 1.0532(4) 0.6946(3) -0.0167(2)
C5 C 1.2121(4) 0.7158(3) -0.1684(2)
C6 C 0.9630(4) 0.8983(3) -0.0998(2)
O4 O 1.7239(4) 0.9805(3) 0.61906(19)
H17 H 1.655(9) 1.063(2) 0.614(5)
H24 H 1.696(7) 0.938(4) 0.6723(16)
O5 O 1.0994(6) 0.9868(3) 0.6485(2)
H18 H 1.207(8) 0.951(5) 0.610(4)
H19 H 1.018(10) 0.969(7) 0.632(5)
O6 O 0.2184(5) 0.7276(3) 0.22555(19)
H20 H 0.115(9) 0.705(6) 0.241(4)
H21 H 0.292(8) 0.693(5) 0.265(4)
O7 O 1.4900(5) 0.8310(3) 0.5725(2)
H22 H 1.579(7) 0.860(4) 0.575(3)
H23 H 1.521(7) 0.816(5) 0.515(4)
loop_
_geom_bond_atom_site_label_1
_geom_bond_atom_site_label_2
_geom_bond_site_symmetry_1
_geom_bond_site_symmetry_2
S1 O1 1_555 1_555
O2 S1 1_555 1_555
O3 S1 1_555 1_555
N1 H1 1_555 1_555
H2 N1 1_555 1_555
N2 C1 1_555 1_555
N3 H3 1_555 1_555
H4 N3 1_555 1_555
N4 C2 1_555 1_555
N5 H5 1_555 1_555
H6 N5 1_555 1_555
N6 C1 1_555 1_555
N7 H7 1_555 1_555
H8 N7 1_555 1_555
N8 C4 1_555 1_555
N9 H9 1_555 1_555
H10 N9 1_555 1_555
N10 H11 1_555 1_555
N11 H12 1_555 1_555
H13 N11 1_555 1_555
N12 C4 1_555 1_555
C1 N1 1_555 1_555
C2 N2 1_555 1_555
C3 N4 1_555 1_555
C4 N7 1_555 1_555
C5 N8 1_555 1_555
C6 N10 1_555 1_555
C7 H14 1_555 1_555
C8 C7 1_555 1_555
C9 S1 1_555 1_555
C10 C9 1_555 1_555
H15 C10 1_555 1_555
C11 C7 1_555 1_555
H16 C11 1_555 1_555
O4 H17 1_555 1_555
O5 H18 1_555 1_555
H19 O5 1_555 1_555
O6 H20 1_555 1_555
H21 O6 1_555 1_555
O7 H22 1_555 1_555
H23 O7 1_555 1_555
H24 O4 1_555 1_555
S1A O1A 1_555 1_555
O2A S1A 1_555 1_555
O3A S1A 1_555 1_555
C7A H14A 1_555 1_555
C8A C8 1_555 1_555
C9A S1A 1_555 1_555
C10A C11 1_555 1_555
H15A C10A 1_555 1_555
C11A C10 1_555 1_555
H16A C11A 1_555 1_555
N3 C2 1_555 1_555
N5 C3 1_555 1_555
N6 C3 1_555 1_555
N9 C5 1_555 1_555
N10 C5 1_555 1_555
N11 C6 1_555 1_555
N12 C6 1_555 1_555
C8 C9 1_555 1_555
C7A C8A 1_555 1_555
C7A C11A 1_555 1_555
C8A C9A 1_555 1_555
C9A C10A 1_555 1_555

#END
