
#######################################################################
#
#                 Cambridge Crystallographic Data Centre
#                                CCDC 
#
#######################################################################
#
# If this CIF has been generated from an entry in the Cambridge 
# Structural Database, then it will include bibliographic, chemical, 
# crystal, experimental, refinement or atomic coordinate data resulting 
# from the CCDC's data processing and validation procedures.
#
#######################################################################

data_QATQEJ
_chemical_formula_moiety         'C33 H39 N3 O1'
_chemical_name_systematic        
4'-(4-(Dodecyloxy)phenyl)-4,2':6',4''-terpyridine
_symmetry_cell_setting           triclinic
_symmetry_space_group_name_H-M   'P -1'
_symmetry_Int_Tables_number      2
_space_group_name_Hall           '-P 1'
loop_
_symmetry_equiv_pos_site_id
_symmetry_equiv_pos_as_xyz
1 x,y,z
2 -x,-y,-z
_cell_length_a                   10.850(2)
_cell_length_b                   14.523(3)
_cell_length_c                   18.610(4)
_cell_angle_alpha                111.285(16)
_cell_angle_beta                 91.129(15)
_cell_angle_gamma                96.378(17)
_cell_volume                     2709.8
_exptl_crystal_colour            colorless
_exptl_crystal_description       block
_cell_formula_units_Z            4
loop_
_atom_site_label
_atom_site_type_symbol
_atom_site_fract_x
_atom_site_fract_y
_atom_site_fract_z
N1 N 0.82017(12) 0.86794(11) 0.97043(8)
N2 N 1.09139(10) 0.75268(9) 0.74662(7)
N3 N 1.53593(11) 0.70833(10) 0.69369(8)
C1 C 0.74691(15) 0.82383(13) 0.90583(9)
H1 H 0.6596 0.8173 0.9105
C2 C 0.78936(13) 0.78696(12) 0.83257(9)
H2 H 0.7321 0.7562 0.7888
C3 C 0.91577(13) 0.79513(11) 0.82327(8)
C4 C 0.99303(14) 0.84151(13) 0.88975(9)
H3 H 1.0806 0.8498 0.8868
C5 C 0.94156(15) 0.87552(14) 0.96031(9)
H4 H 0.9967 0.9067 1.0050
C6 C 0.96823(12) 0.75609(10) 0.74638(8)
C7 C 0.89264(13) 0.72408(11) 0.67855(8)
H5 H 0.8055 0.7260 0.6809
C8 C 0.94407(13) 0.68927(10) 0.60715(8)
C9 C 1.07215(13) 0.68694(11) 0.60798(8)
H6 H 1.1119 0.6643 0.5608
C10 C 1.14157(12) 0.71786(10) 0.67811(8)
C11 C 1.46491(14) 0.65227(12) 0.63024(9)
H7 H 1.5040 0.6091 0.5882
C12 C 1.33828(13) 0.65275(11) 0.62155(9)
H8 H 1.2928 0.6111 0.5747
C13 C 1.27807(12) 0.71500(11) 0.68221(8)
C14 C 1.35097(13) 0.77354(11) 0.74870(8)
H9 H 1.3144 0.8172 0.7918
C15 C 1.47708(14) 0.76778(12) 0.75169(9)
H10 H 1.5250 0.8086 0.7978
C16 C 0.86502(12) 0.65733(11) 0.53436(8)
C17 C 0.74621(13) 0.68633(11) 0.53438(8)
H11 H 0.7169 0.7276 0.5816
C18 C 0.67113(13) 0.65636(12) 0.46765(9)
H12 H 0.5910 0.6773 0.4692
C19 C 0.71137(13) 0.59568(11) 0.39785(8)
C20 C 0.82911(14) 0.56696(12) 0.39591(9)
H13 H 0.8586 0.5269 0.3484
C21 C 0.90359(13) 0.59710(11) 0.46378(8)
H14 H 0.9836 0.5759 0.4621
O1 O 0.62779(10) 0.56938(8) 0.33637(6)
C22 C 0.65803(14) 0.50547(12) 0.26147(8)
H15 H 0.6841 0.4433 0.2636
H16 H 0.7262 0.5393 0.2419
C23 C 0.54073(15) 0.48327(13) 0.21040(9)
H17 H 0.5099 0.5470 0.2159
H18 H 0.4768 0.4443 0.2287
C24 C 0.55564(15) 0.42607(13) 0.12527(9)
H19 H 0.6211 0.4635 0.1067
H20 H 0.5822 0.3606 0.1187
C25 C 0.43491(16) 0.41028(13) 0.07731(9)
H21 H 0.4055 0.4758 0.0879
H22 H 0.3716 0.3694 0.0944
C26 C 0.44362(16) 0.35988(13) -0.00962(9)
H23 H 0.5047 0.4015 -0.0274
H24 H 0.4744 0.2948 -0.0206
C27 C 0.31988(16) 0.34357(14) -0.05467(9)
H25 H 0.2877 0.4085 -0.0417
H26 H 0.2600 0.3000 -0.0379
C28 C 0.32601(16) 0.29713(13) -0.14175(9)
H27 H 0.3542 0.2307 -0.1552
H28 H 0.3884 0.3391 -0.1584
C29 C 0.20207(16) 0.28574(13) -0.18572(9)
H29 H 0.1388 0.2469 -0.1668
H30 H 0.1761 0.3526 -0.1741
C30 C 0.20422(15) 0.23469(12) -0.27282(9)
H31 H 0.2657 0.2744 -0.2921
H32 H 0.2320 0.1684 -0.2846
C31 C 0.07907(15) 0.22165(13) -0.31548(9)
H33 H 0.0545 0.2883 -0.3068
H34 H 0.0164 0.1868 -0.2931
C32 C 0.07682(16) 0.16385(13) -0.40184(9)
H35 H 0.1031 0.0976 -0.4109
H36 H 0.1373 0.1996 -0.4248
C33 C -0.05082(19) 0.14995(18) -0.44210(11)
H37 H -0.1121 0.1181 -0.4176
H38 H -0.0490 0.1078 -0.4967
H39 H -0.0737 0.2150 -0.4380
N4 N 0.45194(12) 0.86422(11) 0.97147(8)
N5 N 0.17898(11) 0.97903(9) 1.19446(7)
N6 N -0.27084(12) 1.00364(11) 1.24655(8)
C34 C 0.33095(16) 0.85836(15) 0.98098(10)
H40 H 0.2761 0.8261 0.9362
C35 C 0.27913(15) 0.89574(15) 1.05117(9)
H41 H 0.1914 0.8897 1.0536
C36 C 0.35533(13) 0.94209(11) 1.11808(8)
C37 C 0.48145(14) 0.94830(13) 1.10892(9)
H42 H 0.5387 0.9792 1.1527
C38 C 0.52422(15) 0.90949(14) 1.03590(10)
H43 H 0.6116 0.9156 1.0315
C39 C 0.30305(12) 0.98002(11) 1.19505(8)
C40 C 0.37779(13) 1.01297(11) 1.26324(8)
H44 H 0.4651 1.0119 1.2615
C41 C 0.32466(13) 1.04764(11) 1.33426(8)
C42 C 0.19634(13) 1.04660(11) 1.33274(8)
H45 H 0.1562 1.0697 1.3798
C43 C 0.12696(13) 1.01184(10) 1.26266(8)
C44 C -0.20508(15) 0.96840(14) 1.18474(10)
H46 H -0.2489 0.9408 1.1354
C45 C -0.07797(14) 0.96938(13) 1.18763(9)
H47 H -0.0369 0.9426 1.1413
C46 C -0.01044(13) 1.00947(11) 1.25823(8)
C47 C -0.07765(14) 1.04663(12) 1.32281(9)
H48 H -0.0362 1.0754 1.3728
C48 C -0.20470(14) 1.04165(13) 1.31413(10)
H49 H -0.2483 1.0671 1.3595
C49 C 0.40231(13) 1.08488(11) 1.40764(8)
C50 C 0.52444(13) 1.12872(12) 1.41050(8)
H50 H 0.5570 1.1342 1.3650
C51 C 0.59846(13) 1.16420(12) 1.47830(9)
H51 H 0.6811 1.1942 1.4792
C52 C 0.55290(14) 1.15632(12) 1.54530(8)
C53 C 0.43149(14) 1.11464(12) 1.54424(9)
H52 H 0.3988 1.1104 1.5901
C54 C 0.35819(14) 1.07913(12) 1.47567(8)
H53 H 0.2752 1.0499 1.4751
O2 O 0.63687(10) 1.19035(9) 1.60727(6)
C55 C 0.59686(15) 1.20772(13) 1.68336(9)
H54 H 0.5491 1.1468 1.6857
H55 H 0.5439 1.2622 1.6990
C56 C 0.71453(15) 1.23632(12) 1.73488(9)
H56 H 0.7697 1.2857 1.7212
H57 H 0.7575 1.1765 1.7241
C57 C 0.69622(15) 1.27971(13) 1.82088(9)
H58 H 0.6371 1.2328 1.8348
H59 H 0.6602 1.3430 1.8333
C58 C 0.81903(15) 1.29881(12) 1.86777(9)
H60 H 0.8500 1.2341 1.8584
H61 H 0.8802 1.3389 1.8487
C59 C 0.81341(16) 1.35218(13) 1.95438(9)
H62 H 0.7873 1.4187 1.9645
H63 H 0.7500 1.3140 1.9737
C60 C 0.93722(16) 1.36459(13) 1.99840(9)
H64 H 0.9998 1.4042 1.9797
H65 H 0.9643 1.2980 1.9866
C61 C 0.93466(16) 1.41511(13) 2.08554(9)
H66 H 0.9030 1.4801 2.0974
H67 H 0.8761 1.3735 2.1049
C62 C 1.06095(15) 1.43214(13) 2.12777(9)
H68 H 1.1185 1.4758 2.1097
H69 H 1.0939 1.3675 2.1142
C63 C 1.05872(15) 1.47904(12) 2.21496(9)
H70 H 0.9997 1.4361 2.2329
H71 H 1.0274 1.5444 2.2286
C64 C 1.18474(14) 1.49425(12) 2.25756(9)
H72 H 1.2161 1.4289 2.2438
H73 H 1.2437 1.5373 2.2397
C65 C 1.18298(15) 1.54088(13) 2.34464(9)
H74 H 1.1216 1.4996 2.3626
H75 H 1.1558 1.6077 2.3588
C66 C 1.30876(18) 1.55076(17) 2.38560(11)
H76 H 1.3344 1.4845 2.3738
H77 H 1.3030 1.5828 2.4415
H78 H 1.3701 1.5914 2.3680
loop_
_geom_bond_atom_site_label_1
_geom_bond_atom_site_label_2
_geom_bond_site_symmetry_1
_geom_bond_site_symmetry_2
N1 C1 1_555 1_555
N2 C6 1_555 1_555
N3 C11 1_555 1_555
C1 H1 1_555 1_555
C2 C1 1_555 1_555
H2 C2 1_555 1_555
C3 C2 1_555 1_555
C4 C3 1_555 1_555
H3 C4 1_555 1_555
C5 N1 1_555 1_555
H4 C5 1_555 1_555
C6 C3 1_555 1_555
C7 C6 1_555 1_555
H5 C7 1_555 1_555
C8 C7 1_555 1_555
C9 C8 1_555 1_555
H6 C9 1_555 1_555
C10 N2 1_555 1_555
C11 H7 1_555 1_555
C12 C11 1_555 1_555
H8 C12 1_555 1_555
C13 C10 1_555 1_555
C14 C13 1_555 1_555
H9 C14 1_555 1_555
C15 N3 1_555 1_555
H10 C15 1_555 1_555
C16 C8 1_555 1_555
C17 C16 1_555 1_555
H11 C17 1_555 1_555
C18 C17 1_555 1_555
H12 C18 1_555 1_555
C19 C18 1_555 1_555
C20 C19 1_555 1_555
H13 C20 1_555 1_555
C21 C16 1_555 1_555
H14 C21 1_555 1_555
O1 C19 1_555 1_555
C22 O1 1_555 1_555
H15 C22 1_555 1_555
H16 C22 1_555 1_555
C23 C22 1_555 1_555
H17 C23 1_555 1_555
H18 C23 1_555 1_555
C24 C23 1_555 1_555
H19 C24 1_555 1_555
H20 C24 1_555 1_555
C25 C24 1_555 1_555
H21 C25 1_555 1_555
H22 C25 1_555 1_555
C26 C25 1_555 1_555
H23 C26 1_555 1_555
H24 C26 1_555 1_555
C27 C26 1_555 1_555
H25 C27 1_555 1_555
H26 C27 1_555 1_555
C28 C27 1_555 1_555
H27 C28 1_555 1_555
H28 C28 1_555 1_555
C29 C28 1_555 1_555
H29 C29 1_555 1_555
H30 C29 1_555 1_555
C30 C29 1_555 1_555
H31 C30 1_555 1_555
H32 C30 1_555 1_555
C31 C30 1_555 1_555
H33 C31 1_555 1_555
H34 C31 1_555 1_555
C32 C31 1_555 1_555
H35 C32 1_555 1_555
H36 C32 1_555 1_555
C33 C32 1_555 1_555
H37 C33 1_555 1_555
H38 C33 1_555 1_555
H39 C33 1_555 1_555
N4 C34 1_555 1_555
N5 C39 1_555 1_555
N6 C44 1_555 1_555
C34 H40 1_555 1_555
C35 C34 1_555 1_555
H41 C35 1_555 1_555
C36 C35 1_555 1_555
C37 C36 1_555 1_555
H42 C37 1_555 1_555
C38 N4 1_555 1_555
H43 C38 1_555 1_555
C39 C36 1_555 1_555
C40 C39 1_555 1_555
H44 C40 1_555 1_555
C41 C40 1_555 1_555
C42 C41 1_555 1_555
H45 C42 1_555 1_555
C43 N5 1_555 1_555
C44 H46 1_555 1_555
C45 C44 1_555 1_555
H47 C45 1_555 1_555
C46 C43 1_555 1_555
C47 C46 1_555 1_555
H48 C47 1_555 1_555
C48 N6 1_555 1_555
H49 C48 1_555 1_555
C49 C41 1_555 1_555
C50 C49 1_555 1_555
H50 C50 1_555 1_555
C51 C50 1_555 1_555
H51 C51 1_555 1_555
C52 C51 1_555 1_555
C53 C52 1_555 1_555
H52 C53 1_555 1_555
C54 C49 1_555 1_555
H53 C54 1_555 1_555
O2 C52 1_555 1_555
C55 O2 1_555 1_555
H54 C55 1_555 1_555
H55 C55 1_555 1_555
C56 C55 1_555 1_555
H56 C56 1_555 1_555
H57 C56 1_555 1_555
C57 C56 1_555 1_555
H58 C57 1_555 1_555
H59 C57 1_555 1_555
C58 C57 1_555 1_555
H60 C58 1_555 1_555
H61 C58 1_555 1_555
C59 C58 1_555 1_555
H62 C59 1_555 1_555
H63 C59 1_555 1_555
C60 C59 1_555 1_555
H64 C60 1_555 1_555
H65 C60 1_555 1_555
C61 C60 1_555 1_555
H66 C61 1_555 1_555
H67 C61 1_555 1_555
C62 C61 1_555 1_555
H68 C62 1_555 1_555
H69 C62 1_555 1_555
C63 C62 1_555 1_555
H70 C63 1_555 1_555
H71 C63 1_555 1_555
C64 C63 1_555 1_555
H72 C64 1_555 1_555
H73 C64 1_555 1_555
C65 C64 1_555 1_555
H74 C65 1_555 1_555
H75 C65 1_555 1_555
C66 C65 1_555 1_555
H76 C66 1_555 1_555
H77 C66 1_555 1_555
H78 C66 1_555 1_555
C4 C5 1_555 1_555
C9 C10 1_555 1_555
C12 C13 1_555 1_555
C14 C15 1_555 1_555
C20 C21 1_555 1_555
C37 C38 1_555 1_555
C42 C43 1_555 1_555
C45 C46 1_555 1_555
C47 C48 1_555 1_555
C53 C54 1_555 1_555

#END
