
#######################################################################
#
#                 Cambridge Crystallographic Data Centre
#                                CCDC 
#
#######################################################################
#
# If this CIF has been generated from an entry in the Cambridge 
# Structural Database, then it will include bibliographic, chemical, 
# crystal, experimental, refinement or atomic coordinate data resulting 
# from the CCDC's data processing and validation procedures.
#
#######################################################################

data_QAVMEH
_chemical_formula_moiety         'C21 H27 N3 O4'
_chemical_name_systematic        
3'-(Adamantan-1-yl)-5-methyl-6H-spiro[1,4-dioxane-2,8'-[3,4,5]triazatricyclo[5.2.1.0^2,6^]dec[4]ene]-3,6-dione
_symmetry_cell_setting           monoclinic
_symmetry_space_group_name_H-M   'C 2'
_symmetry_Int_Tables_number      5
_space_group_name_Hall           'C 2y'
loop_
_symmetry_equiv_pos_site_id
_symmetry_equiv_pos_as_xyz
1 x,y,z
2 -x,y,-z
3 1/2+x,1/2+y,z
4 1/2-x,1/2+y,-z
_cell_length_a                   29.928(5)
_cell_length_b                   6.3663(10)
_cell_length_c                   20.518(3)
_cell_angle_alpha                90
_cell_angle_beta                 106.454(2)
_cell_angle_gamma                90
_cell_volume                     3749.21
_exptl_crystal_colour            colorless
_exptl_crystal_description       block
_cell_formula_units_Z            8
loop_
_atom_site_label
_atom_site_type_symbol
_atom_site_fract_x
_atom_site_fract_y
_atom_site_fract_z
O1 O 0.64466(17) 0.4704(9) 0.5745(3)
O2 O 0.69629(17) 0.4764(10) 0.5188(3)
O3 O 0.67642(16) 0.0726(9) 0.6252(2)
O4 O 0.6125(2) 0.0392(11) 0.6567(3)
N1 N 0.8519(2) 0.4005(10) 0.6625(3)
N2 N 0.8481(2) 0.5358(11) 0.7133(3)
N3 N 0.8073(2) 0.5741(12) 0.7146(3)
C1 C 0.7742(2) 0.4726(13) 0.6543(4)
H1 H 0.7541 0.5785 0.6235
C2 C 0.8049(2) 0.3496(12) 0.6182(4)
H2 H 0.8000 0.3932 0.5698
C3 C 0.7908(2) 0.1215(15) 0.6257(3)
H3 H 0.8141 0.0131 0.6218
C4 C 0.7416(2) 0.0945(13) 0.5762(3)
H4 H 0.7324 -0.0554 0.5718
H5 H 0.7403 0.1503 0.5307
C5 C 0.7091(2) 0.2233(12) 0.6090(3)
C6 C 0.7446(2) 0.3001(14) 0.6760(4)
H6 H 0.7307 0.3418 0.7130
C7 C 0.7792(3) 0.1260(14) 0.6936(3)
H7 H 0.7651 -0.0073 0.7030
H8 H 0.8065 0.1618 0.7321
C8 C 0.6840(3) 0.3834(14) 0.5646(4)
C9 C 0.6336(3) 0.3916(13) 0.6358(4)
H9 H 0.6557 0.4563 0.6768
C10 C 0.5853(3) 0.4655(16) 0.6310(4)
H10 H 0.5645 0.4297 0.5862
H11 H 0.5855 0.6181 0.6374
H12 H 0.5742 0.3969 0.6663
C11 C 0.6390(3) 0.1603(15) 0.6404(4)
C12 C 0.8921(2) 0.4338(13) 0.6345(4)
C13 C 0.9354(2) 0.4841(16) 0.6920(4)
H13 H 0.9414 0.3702 0.7262
H14 H 0.9307 0.6165 0.7145
C14 C 0.9772(2) 0.5066(15) 0.6631(4)
H15 H 1.0056 0.5397 0.7011
C15 C 0.9683(2) 0.6850(14) 0.6126(4)
H16 H 0.9954 0.7038 0.5945
H17 H 0.9634 0.8173 0.6349
C16 C 0.9244(2) 0.6310(15) 0.5540(4)
H18 H 0.9185 0.7467 0.5197
C17 C 0.8826(2) 0.6101(14) 0.5813(3)
H19 H 0.8544 0.5767 0.5438
H20 H 0.8771 0.7441 0.6024
C18 C 0.9854(3) 0.3018(13) 0.6295(4)
H21 H 1.0124 0.3176 0.6109
H22 H 0.9924 0.1874 0.6635
C19 C 0.9421(2) 0.2468(14) 0.5724(4)
H23 H 0.9466 0.1114 0.5504
C20 C 0.9003(2) 0.2315(13) 0.6018(4)
H24 H 0.8721 0.1951 0.5649
H25 H 0.9060 0.1174 0.6360
C21 C 0.9314(3) 0.4267(15) 0.5199(4)
H26 H 0.9576 0.4424 0.4997
H27 H 0.9030 0.3930 0.4829
O5 O 0.8464(2) 0.9222(10) 0.8688(3)
O6 O 0.8002(2) 1.1953(11) 0.8654(3)
O7 O 0.8610(2) 0.5176(11) 0.9822(3)
O8 O 0.7997(2) 0.7228(10) 0.9472(3)
N4 N 0.6419(2) 0.5618(12) 0.8511(3)
N5 N 0.6490(2) 0.4411(10) 0.8005(3)
N6 N 0.6909(2) 0.4337(10) 0.7995(3)
C22 C 0.7208(2) 0.5619(13) 0.8564(4)
H28 H 0.7448 0.4743 0.8889
C23 C 0.6863(3) 0.6570(15) 0.8896(4)
H29 H 0.6942 0.6243 0.9392
C24 C 0.6898(3) 0.8985(15) 0.8757(4)
H30 H 0.6621 0.9846 0.8771
C25 C 0.7373(3) 0.9734(17) 0.9233(5)
H31 H 0.7405 1.1279 0.9212
H32 H 0.7407 0.9316 0.9710
C26 C 0.7736(3) 0.8617(14) 0.8954(4)
C27 C 0.7428(3) 0.7510(13) 0.8298(4)
H33 H 0.7587 0.7182 0.7942
C28 C 0.7013(3) 0.8969(14) 0.8080(4)
H34 H 0.6757 0.8372 0.7708
H35 H 0.7098 1.0377 0.7950
C29 C 0.8094(3) 1.0152(15) 0.8749(4)
C30 C 0.8536(3) 0.6928(15) 0.8768(4)
H36 H 0.8327 0.6204 0.8363
C31 C 0.9017(3) 0.6463(17) 0.8803(4)
H37 H 0.9064 0.4938 0.8825
H38 H 0.9223 0.7117 0.9210
H39 H 0.9087 0.7018 0.8398
C32 C 0.8369(3) 0.6433(16) 0.9397(5)
C33 C 0.5979(3) 0.5610(14) 0.8659(4)
C34 C 0.5690(3) 0.3664(15) 0.8366(5)
H40 H 0.5632 0.3651 0.7866
H41 H 0.5870 0.2387 0.8551
C35 C 0.5229(3) 0.3612(14) 0.8533(4)
H42 H 0.5055 0.2323 0.8327
C36 C 0.4946(3) 0.5549(14) 0.8225(4)
H43 H 0.4644 0.5551 0.8334
H44 H 0.4882 0.5537 0.7724
C37 C 0.5230(4) 0.7522(19) 0.8526(5)
H45 H 0.5048 0.8822 0.8349
C38 C 0.5685(3) 0.7538(15) 0.8355(5)
H46 H 0.5859 0.8834 0.8535
H47 H 0.5625 0.7535 0.7855
C39 C 0.6066(3) 0.5601(16) 0.9423(4)
H48 H 0.6224 0.6917 0.9620
H49 H 0.6270 0.4405 0.9625
C40 C 0.5586(3) 0.5402(16) 0.9587(5)
H50 H 0.5639 0.5353 1.0091
C41 C 0.5311(4) 0.3541(16) 0.9271(5)
H51 H 0.5483 0.2242 0.9456
H52 H 0.5009 0.3525 0.9380
C42 C 0.5327(4) 0.7387(18) 0.9307(5)
H53 H 0.5514 0.8618 0.9521
H54 H 0.5028 0.7426 0.9424
loop_
_geom_bond_atom_site_label_1
_geom_bond_atom_site_label_2
_geom_bond_site_symmetry_1
_geom_bond_site_symmetry_2
O1 C8 1_555 1_555
O2 C8 1_555 1_555
O3 C5 1_555 1_555
O4 C11 1_555 1_555
N1 N2 1_555 1_555
N2 N3 1_555 1_555
N3 C1 1_555 1_555
C1 H1 1_555 1_555
C2 N1 1_555 1_555
H2 C2 1_555 1_555
C3 C2 1_555 1_555
H3 C3 1_555 1_555
C4 C3 1_555 1_555
H4 C4 1_555 1_555
H5 C4 1_555 1_555
C5 C4 1_555 1_555
C6 C1 1_555 1_555
H6 C6 1_555 1_555
C7 C3 1_555 1_555
H7 C7 1_555 1_555
H8 C7 1_555 1_555
C8 C5 1_555 1_555
C9 O1 1_555 1_555
H9 C9 1_555 1_555
C10 C9 1_555 1_555
H10 C10 1_555 1_555
H11 C10 1_555 1_555
H12 C10 1_555 1_555
C11 O3 1_555 1_555
C12 N1 1_555 1_555
C13 C12 1_555 1_555
H13 C13 1_555 1_555
H14 C13 1_555 1_555
C14 C13 1_555 1_555
H15 C14 1_555 1_555
C15 C14 1_555 1_555
H16 C15 1_555 1_555
H17 C15 1_555 1_555
C16 C15 1_555 1_555
H18 C16 1_555 1_555
C17 C12 1_555 1_555
H19 C17 1_555 1_555
H20 C17 1_555 1_555
C18 C14 1_555 1_555
H21 C18 1_555 1_555
H22 C18 1_555 1_555
C19 C18 1_555 1_555
H23 C19 1_555 1_555
C20 C12 1_555 1_555
H24 C20 1_555 1_555
H25 C20 1_555 1_555
C21 C16 1_555 1_555
H26 C21 1_555 1_555
H27 C21 1_555 1_555
O5 C29 1_555 1_555
O6 C29 1_555 1_555
O7 C32 1_555 1_555
O8 C26 1_555 1_555
N4 N5 1_555 1_555
N5 N6 1_555 1_555
N6 C22 1_555 1_555
C22 H28 1_555 1_555
C23 N4 1_555 1_555
H29 C23 1_555 1_555
C24 C23 1_555 1_555
H30 C24 1_555 1_555
C25 C24 1_555 1_555
H31 C25 1_555 1_555
H32 C25 1_555 1_555
C26 C25 1_555 1_555
C27 C22 1_555 1_555
H33 C27 1_555 1_555
C28 C24 1_555 1_555
H34 C28 1_555 1_555
H35 C28 1_555 1_555
C29 C26 1_555 1_555
C30 O5 1_555 1_555
H36 C30 1_555 1_555
C31 C30 1_555 1_555
H37 C31 1_555 1_555
H38 C31 1_555 1_555
H39 C31 1_555 1_555
C32 O8 1_555 1_555
C33 N4 1_555 1_555
C34 C33 1_555 1_555
H40 C34 1_555 1_555
H41 C34 1_555 1_555
C35 C34 1_555 1_555
H42 C35 1_555 1_555
C36 C35 1_555 1_555
H43 C36 1_555 1_555
H44 C36 1_555 1_555
C37 C36 1_555 1_555
H45 C37 1_555 1_555
C38 C33 1_555 1_555
H46 C38 1_555 1_555
H47 C38 1_555 1_555
C39 C33 1_555 1_555
H48 C39 1_555 1_555
H49 C39 1_555 1_555
C40 C39 1_555 1_555
H50 C40 1_555 1_555
C41 C35 1_555 1_555
H51 C41 1_555 1_555
H52 C41 1_555 1_555
C42 C37 1_555 1_555
H53 C42 1_555 1_555
H54 C42 1_555 1_555
C1 C2 1_555 1_555
C5 C6 1_555 1_555
C6 C7 1_555 1_555
C9 C11 1_555 1_555
C16 C17 1_555 1_555
C19 C20 1_555 1_555
C19 C21 1_555 1_555
C22 C23 1_555 1_555
C26 C27 1_555 1_555
C27 C28 1_555 1_555
C30 C32 1_555 1_555
C37 C38 1_555 1_555
C40 C41 1_555 1_555
C40 C42 1_555 1_555

#END
