
#######################################################################
#
#                 Cambridge Crystallographic Data Centre
#                                CCDC 
#
#######################################################################
#
# If this CIF has been generated from an entry in the Cambridge 
# Structural Database, then it will include bibliographic, chemical, 
# crystal, experimental, refinement or atomic coordinate data resulting 
# from the CCDC's data processing and validation procedures.
#
#######################################################################

data_QAWVOA
_chemical_formula_moiety         'C32 H20 S2'
_chemical_name_systematic        
2,5-bis(9H-Fluoren-2-yl)thieno(3,2-b)thiophene
_symmetry_cell_setting           triclinic
_symmetry_space_group_name_H-M   'P -1'
_symmetry_Int_Tables_number      2
_space_group_name_Hall           '-P 1'
loop_
_symmetry_equiv_pos_site_id
_symmetry_equiv_pos_as_xyz
1 x,y,z
2 -x,-y,-z
_cell_length_a                   5.7676(11)
_cell_length_b                   8.5369(16)
_cell_length_c                   22.949(4)
_cell_angle_alpha                100.272(4)
_cell_angle_beta                 94.846(3)
_cell_angle_gamma                92.070(4)
_cell_volume                     1106.35
_exptl_crystal_colour            'pale yellow'
_exptl_crystal_description       plane
_chemical_melting_point          '348 deg.C'
_cell_formula_units_Z            2
_exptl_crystal_recrystallization_method sublimation
loop_
_atom_site_label
_atom_site_type_symbol
_atom_site_fract_x
_atom_site_fract_y
_atom_site_fract_z
S1 S 0.3111(5) 0.4661(3) 0.41785(10)
C1 C 0.5340(7) -0.1349(5) 0.05744(18)
H1 H 0.5050 -0.1729 0.0168
C2 C 0.7272(7) -0.1826(5) 0.08828(18)
H2 H 0.8248 -0.2540 0.0685
C3 C 0.7765(6) -0.1241(4) 0.14894(17)
H3 H 0.9066 -0.1557 0.1698
C4 C 0.6282(6) -0.0179(4) 0.17775(15)
C5 C 0.4285(6) 0.0274(4) 0.14625(16)
C6 C 0.3819(7) -0.0309(5) 0.08619(17)
H4 H 0.2507 -0.0012 0.0652
C7 C 0.2992(6) 0.1439(4) 0.18738(16)
H5 H 0.1416 0.1031 0.1896
H6 H 0.2932 0.2460 0.1745
C8 C 0.4426(5) 0.1582(4) 0.24642(15)
C9 C 0.6365(5) 0.0650(4) 0.23975(15)
C10 C 0.8009(6) 0.0650(4) 0.28775(16)
H7 H 0.9301 0.0032 0.2834
C11 C 0.7694(6) 0.1582(4) 0.34206(16)
H8 H 0.8794 0.1583 0.3741
C12 C 0.5758(6) 0.2529(4) 0.35020(15)
C13 C 0.4103(6) 0.2511(4) 0.30069(15)
H9 H 0.2805 0.3123 0.3047
C14 C 0.5472(6) 0.3497(4) 0.40832(15)
C15 C 0.687(2) 0.361(2) 0.4596(6)
H10 H 0.8223 0.3061 0.4628
C17 C 0.4000(6) 0.5298(4) 0.48961(16)
S1A S 0.6889(5) 0.5339(3) 0.58215(10)
C1A C 0.4660(7) 1.1349(5) 0.94256(18)
H1A H 0.4950 1.1729 0.9832
C2A C 0.2728(7) 1.1826(5) 0.91172(18)
H2A H 0.1752 1.2540 0.9315
C3A C 0.2235(6) 1.1241(4) 0.85106(17)
H3A H 0.0934 1.1557 0.8302
C4A C 0.3718(6) 1.0179(4) 0.82225(15)
C5A C 0.5715(6) 0.9726(4) 0.85375(16)
C6A C 0.6181(7) 1.0309(5) 0.91381(17)
H4A H 0.7493 1.0012 0.9348
C7A C 0.7008(6) 0.8561(4) 0.81262(16)
H5A H 0.8584 0.8969 0.8104
H6A H 0.7068 0.7540 0.8255
C8A C 0.5574(5) 0.8418(4) 0.75358(15)
C9A C 0.3635(5) 0.9350(4) 0.76025(15)
C10A C 0.1991(6) 0.9350(4) 0.71225(16)
H7A H 0.0699 0.9968 0.7166
C11A C 0.2306(6) 0.8418(4) 0.65794(16)
H8A H 0.1206 0.8417 0.6259
C12A C 0.4242(6) 0.7471(4) 0.64980(15)
C13A C 0.5897(6) 0.7489(4) 0.69931(15)
H9A H 0.7195 0.6877 0.6953
C14A C 0.4528(6) 0.6503(4) 0.59168(15)
C15A C 0.313(2) 0.639(2) 0.5404(6)
H10A H 0.1777 0.6939 0.5372
C17A C 0.6000(6) 0.4702(4) 0.51039(16)
S2 S -0.1812(6) 0.8125(4) 0.44257(13)
C18 C -0.0104(7) 0.3505(5) 0.06014(17)
H12 H -0.0538 0.2873 0.0232
C19 C 0.1919(7) 0.4476(5) 0.06823(17)
H13 H 0.2833 0.4485 0.0368
C20 C 0.2589(7) 0.5435(4) 0.12289(17)
H14 H 0.3940 0.6092 0.1283
C21 C 0.1207(6) 0.5400(4) 0.16961(14)
C22 C -0.0854(6) 0.4429(4) 0.16130(16)
C23 C -0.1496(7) 0.3462(5) 0.10663(17)
H15 H -0.2838 0.2795 0.1011
C24 C -0.2010(6) 0.4593(4) 0.21778(16)
H16 H -0.2075 0.3590 0.2321
H17 H -0.3579 0.4950 0.2124
C25 C -0.0454(5) 0.5836(4) 0.26017(15)
C26 C 0.1466(5) 0.6267(4) 0.23125(14)
C27 C 0.3181(6) 0.7364(4) 0.26240(15)
H18 H 0.4493 0.7619 0.2444
C28 C 0.2914(6) 0.8069(4) 0.32016(15)
H19 H 0.4052 0.8812 0.3406
C29 C 0.0962(5) 0.7693(4) 0.34897(14)
C30 C -0.0713(6) 0.6535(4) 0.31805(15)
H20 H -0.1992 0.6242 0.3366
C31 C 0.0629(6) 0.8545(4) 0.40871(15)
C32 C 0.200(2) 0.979(2) 0.4445(8)
H21 H 0.3394 1.0188 0.4340
C34 C -0.1030(6) 0.9581(4) 0.50046(16)
S2A S 0.1812(6) 1.1875(4) 0.55743(13)
C18A C 0.0104(7) 1.6495(5) 0.93986(17)
H12A H 0.0538 1.7127 0.9768
C19A C -0.1919(7) 1.5524(5) 0.93177(17)
H13A H -0.2833 1.5515 0.9632
C20A C -0.2589(7) 1.4565(4) 0.87711(17)
H14A H -0.3940 1.3908 0.8717
C21A C -0.1207(6) 1.4600(4) 0.83039(14)
C22A C 0.0854(6) 1.5571(4) 0.83870(16)
C23A C 0.1496(7) 1.6538(5) 0.89337(17)
H15A H 0.2838 1.7205 0.8989
C24A C 0.2010(6) 1.5407(4) 0.78222(16)
H16A H 0.2075 1.6410 0.7679
H17A H 0.3579 1.5050 0.7876
C25A C 0.0454(5) 1.4164(4) 0.73983(15)
C26A C -0.1466(5) 1.3733(4) 0.76875(14)
C27A C -0.3181(6) 1.2636(4) 0.73760(15)
H18A H -0.4493 1.2381 0.7556
C28A C -0.2914(6) 1.1931(4) 0.67984(15)
H19A H -0.4052 1.1188 0.6594
C29A C -0.0962(5) 1.2307(4) 0.65103(14)
C30A C 0.0713(6) 1.3465(4) 0.68195(15)
H20A H 0.1992 1.3758 0.6634
C31A C -0.0629(6) 1.1455(4) 0.59129(15)
C32A C -0.200(2) 1.021(2) 0.5555(8)
H21A H -0.3394 0.9812 0.5660
C34A C 0.1030(6) 1.0419(4) 0.49954(16)
S3? S 0.7466(13) 0.3467(10) 0.4680(3)
S4? S 0.2616(11) 1.0033(8) 0.4435(3)
C16? C 0.373(2) 0.451(2) 0.4265(6)
H11? H 0.2478 0.4688 0.4005
C33? C -0.124(4) 0.845(3) 0.4424(11)
H22? H -0.2525 0.7742 0.4299
loop_
_geom_bond_atom_site_label_1
_geom_bond_atom_site_label_2
_geom_bond_site_symmetry_1
_geom_bond_site_symmetry_2
S1 C14 1_555 1_555
S2 C31 1_555 1_555
C1 H1 1_555 1_555
C2 C1 1_555 1_555
H2 C2 1_555 1_555
C3 C2 1_555 1_555
H3 C3 1_555 1_555
C4 C3 1_555 1_555
C5 C4 1_555 1_555
C6 C1 1_555 1_555
H4 C6 1_555 1_555
C7 C5 1_555 1_555
H5 C7 1_555 1_555
H6 C7 1_555 1_555
C8 C7 1_555 1_555
C9 C4 1_555 1_555
C10 C9 1_555 1_555
H7 C10 1_555 1_555
C11 C10 1_555 1_555
H8 C11 1_555 1_555
C12 C11 1_555 1_555
C13 C8 1_555 1_555
H9 C13 1_555 1_555
C14 C12 1_555 1_555
C15 C14 1_555 1_555
H10 C15 1_555 1_555
C17 S1 1_555 1_555
C18 H12 1_555 1_555
C19 C18 1_555 1_555
H13 C19 1_555 1_555
C20 C19 1_555 1_555
H14 C20 1_555 1_555
C21 C20 1_555 1_555
C22 C21 1_555 1_555
C23 C18 1_555 1_555
H15 C23 1_555 1_555
C24 C22 1_555 1_555
H16 C24 1_555 1_555
H17 C24 1_555 1_555
C25 C24 1_555 1_555
C26 C21 1_555 1_555
C27 C26 1_555 1_555
H18 C27 1_555 1_555
C28 C27 1_555 1_555
H19 C28 1_555 1_555
C29 C28 1_555 1_555
C30 C25 1_555 1_555
H20 C30 1_555 1_555
C31 C29 1_555 1_555
C32 C31 1_555 1_555
H21 C32 1_555 1_555
C34 S2 1_555 1_555
S1A C14A 1_555 1_555
S2A C31A 1_555 1_555
C1A H1A 1_555 1_555
C2A C1A 1_555 1_555
H2A C2A 1_555 1_555
C3A C2A 1_555 1_555
H3A C3A 1_555 1_555
C4A C3A 1_555 1_555
C5A C4A 1_555 1_555
C6A C1A 1_555 1_555
H4A C6A 1_555 1_555
C7A C5A 1_555 1_555
H5A C7A 1_555 1_555
H6A C7A 1_555 1_555
C8A C7A 1_555 1_555
C9A C4A 1_555 1_555
C10A C9A 1_555 1_555
H7A C10A 1_555 1_555
C11A C10A 1_555 1_555
H8A C11A 1_555 1_555
C12A C11A 1_555 1_555
C13A C8A 1_555 1_555
H9A C13A 1_555 1_555
C14A C12A 1_555 1_555
C15A C17 1_555 1_555
H10A C15A 1_555 1_555
C17A C15 1_555 1_555
C18A H12A 1_555 1_555
C19A C18A 1_555 1_555
H13A C19A 1_555 1_555
C20A C19A 1_555 1_555
H14A C20A 1_555 1_555
C21A C20A 1_555 1_555
C22A C21A 1_555 1_555
C23A C18A 1_555 1_555
H15A C23A 1_555 1_555
C24A C22A 1_555 1_555
H16A C24A 1_555 1_555
H17A C24A 1_555 1_555
C25A C24A 1_555 1_555
C26A C21A 1_555 1_555
C27A C26A 1_555 1_555
H18A C27A 1_555 1_555
C28A C27A 1_555 1_555
H19A C28A 1_555 1_555
C29A C28A 1_555 1_555
C30A C25A 1_555 1_555
H20A C30A 1_555 1_555
C31A C29A 1_555 1_555
C32A C34 1_555 1_555
H21A C32A 1_555 1_555
C34A C32 1_555 1_555
C5 C6 1_555 1_555
C8 C9 1_555 1_555
C12 C13 1_555 1_555
C17 C17A 1_555 1_555
C22 C23 1_555 1_555
C25 C26 1_555 1_555
C29 C30 1_555 1_555
C34 C34A 1_555 1_555
S1A C17A 1_555 1_555
S2A C34A 1_555 1_555
C5A C6A 1_555 1_555
C8A C9A 1_555 1_555
C12A C13A 1_555 1_555
C14A C15A 1_555 1_555
C22A C23A 1_555 1_555
C25A C26A 1_555 1_555
C29A C30A 1_555 1_555
C31A C32A 1_555 1_555

#END
