
#######################################################################
#
#                 Cambridge Crystallographic Data Centre
#                                CCDC 
#
#######################################################################
#
# If this CIF has been generated from an entry in the Cambridge 
# Structural Database, then it will include bibliographic, chemical, 
# crystal, experimental, refinement or atomic coordinate data resulting 
# from the CCDC's data processing and validation procedures.
#
#######################################################################

data_QAXHIJ
_chemical_formula_moiety         'C25 H21 N1 O2'
_chemical_name_systematic        
(1S,4R)-1-hydroxy-9-methyl-1,4-diphenyl-1,3,4,9-tetrahydro-2H-carbazol-2-one
_symmetry_cell_setting           orthorhombic
_symmetry_space_group_name_H-M   'P 21 21 21'
_symmetry_Int_Tables_number      19
_space_group_name_Hall           'P 2ac 2ab'
loop_
_symmetry_equiv_pos_site_id
_symmetry_equiv_pos_as_xyz
1 x,y,z
2 1/2-x,-y,1/2+z
3 1/2+x,1/2-y,-z
4 -x,1/2+y,1/2-z
_cell_length_a                   8.75219(16)
_cell_length_b                   11.3668(2)
_cell_length_c                   19.7080(4)
_cell_angle_alpha                90
_cell_angle_beta                 90
_cell_angle_gamma                90
_cell_volume                     1960.64
_exptl_crystal_colour            'yellowish yellow'
_exptl_crystal_description       block
_chemical_melting_point          '85.5-86.6 deg.C'
_cell_formula_units_Z            4
loop_
_atom_site_label
_atom_site_type_symbol
_atom_site_fract_x
_atom_site_fract_y
_atom_site_fract_z
O1 O 0.7014(3) 0.6999(2) 0.21729(12)
H1 H 0.6343 0.6989 0.2463
O2 O 0.5432(3) 0.8628(4) 0.27580(12)
N1 N 0.8784(3) 0.77923(18) 0.09557(11)
C1 C 0.2049(4) 1.0506(3) 0.04598(18)
H2 H 0.1106 1.0510 0.0243
C2 C 0.2505(4) 0.9547(3) 0.08227(18)
H3 H 0.1862 0.8899 0.0858
C3 C 0.3921(4) 0.9532(3) 0.11394(17)
H4 H 0.4218 0.8868 0.1382
C4 C 0.4895(3) 1.0483(2) 0.11010(14)
C5 C 0.4409(4) 1.1458(3) 0.07447(18)
H5 H 0.5027 1.2123 0.0721
C6 C 0.2985(4) 1.1451(3) 0.0418(2)
H6 H 0.2680 1.2105 0.0169
C7 C 0.6493(3) 1.0418(2) 0.14001(16)
H7 H 0.7001 1.1165 0.1296
C8 C 0.6543(4) 1.0261(4) 0.21811(18)
H8 H 0.7494 1.0582 0.2353
H9 H 0.5711 1.0703 0.2383
C9 C 0.6418(3) 0.9007(4) 0.23902(15)
C10 C 0.7630(3) 0.8145(3) 0.21232(13)
C11 C 0.7909(3) 0.8462(2) 0.13894(13)
C12 C 0.7416(3) 0.9461(2) 0.10718(13)
C13 C 0.7986(3) 0.9406(2) 0.03911(13)
C14 C 0.8838(3) 0.8363(2) 0.03432(12)
C15 C 0.9619(4) 0.8066(3) -0.02526(15)
H10 H 1.0195 0.7381 -0.0285
C16 C 0.9495(5) 0.8834(4) -0.07879(16)
H11 H 1.0018 0.8668 -0.1187
C17 C 0.8617(5) 0.9846(4) -0.07530(17)
H12 H 0.8548 1.0333 -0.1131
C18 C 0.7851(4) 1.0139(3) -0.01732(16)
H13 H 0.7252 1.0814 -0.0155
C19 C 0.9508(5) 0.6670(3) 0.10951(19)
H14 H 1.0598 0.6767 0.1094
H15 H 0.9221 0.6112 0.0752
H16 H 0.9185 0.6389 0.1531
C20 C 0.9058(3) 0.8275(2) 0.25666(13)
C21 C 0.9142(4) 0.7668(3) 0.31681(18)
H17 H 0.8346 0.7173 0.3296
C22 C 1.0397(4) 0.7787(4) 0.3582(2)
H18 H 1.0445 0.7369 0.3987
C23 C 1.1582(4) 0.8519(3) 0.34042(19)
H19 H 1.2424 0.8603 0.3688
C24 C 1.1507(4) 0.9118(3) 0.28079(19)
H20 H 1.2313 0.9602 0.2679
C25 C 1.0245(3) 0.9014(3) 0.23908(16)
H21 H 1.0195 0.9444 0.1990
loop_
_geom_bond_atom_site_label_1
_geom_bond_atom_site_label_2
_geom_bond_site_symmetry_1
_geom_bond_site_symmetry_2
O1 H1 1_555 1_555
O2 C9 1_555 1_555
N1 C11 1_555 1_555
C1 H2 1_555 1_555
C2 C1 1_555 1_555
H3 C2 1_555 1_555
C3 C2 1_555 1_555
H4 C3 1_555 1_555
C4 C3 1_555 1_555
C5 C4 1_555 1_555
H5 C5 1_555 1_555
C6 C1 1_555 1_555
H6 C6 1_555 1_555
C7 C4 1_555 1_555
H7 C7 1_555 1_555
C8 C7 1_555 1_555
H8 C8 1_555 1_555
H9 C8 1_555 1_555
C9 C8 1_555 1_555
C10 O1 1_555 1_555
C11 C10 1_555 1_555
C12 C7 1_555 1_555
C13 C12 1_555 1_555
C14 N1 1_555 1_555
C15 C14 1_555 1_555
H10 C15 1_555 1_555
C16 C15 1_555 1_555
H11 C16 1_555 1_555
C17 C16 1_555 1_555
H12 C17 1_555 1_555
C18 C13 1_555 1_555
H13 C18 1_555 1_555
C19 N1 1_555 1_555
H14 C19 1_555 1_555
H15 C19 1_555 1_555
H16 C19 1_555 1_555
C20 C10 1_555 1_555
C21 C20 1_555 1_555
H17 C21 1_555 1_555
C22 C21 1_555 1_555
H18 C22 1_555 1_555
C23 C22 1_555 1_555
H19 C23 1_555 1_555
C24 C23 1_555 1_555
H20 C24 1_555 1_555
C25 C20 1_555 1_555
H21 C25 1_555 1_555
C5 C6 1_555 1_555
C9 C10 1_555 1_555
C11 C12 1_555 1_555
C13 C14 1_555 1_555
C17 C18 1_555 1_555
C24 C25 1_555 1_555

#END
