
#######################################################################
#
#                 Cambridge Crystallographic Data Centre
#                                CCDC 
#
#######################################################################
#
# If this CIF has been generated from an entry in the Cambridge 
# Structural Database, then it will include bibliographic, chemical, 
# crystal, experimental, refinement or atomic coordinate data resulting 
# from the CCDC's data processing and validation procedures.
#
#######################################################################

data_QAXKOP
_chemical_formula_moiety         'C3 H6 F1 1+,As1 F6 1-'
_chemical_name_systematic        '2-Fluoro-2-propenium hexafluoroarsenate'
_symmetry_cell_setting           monoclinic
_symmetry_space_group_name_H-M   'P 21/n'
_symmetry_Int_Tables_number      14
_space_group_name_Hall           '-P 2yn'
loop_
_symmetry_equiv_pos_site_id
_symmetry_equiv_pos_as_xyz
1 x,y,z
2 1/2-x,1/2+y,1/2-z
3 -x,-y,-z
4 1/2+x,1/2-y,1/2+z
_cell_length_a                   8.854(3)
_cell_length_b                   9.544(3)
_cell_length_c                   8.856(3)
_cell_angle_alpha                90
_cell_angle_beta                 108.77(2)
_cell_angle_gamma                90
_cell_volume                     708.556
_chemical_melting_point          '-20 deg.C.(dec.)'
_cell_formula_units_Z            4
loop_
_atom_site_label
_atom_site_type_symbol
_atom_site_fract_x
_atom_site_fract_y
_atom_site_fract_z
As1 As 0.1487(1) 0.2647(1) 0.3948(1)
F1 F 0.2150(8) 0.4092(6) 0.3201(8)
F2 F 0.3363(6) 0.1906(6) 0.4427(6)
F3 F 0.1001(7) 0.1886(6) 0.2095(7)
F4 F 0.0821(7) 0.1181(6) 0.4667(7)
F5 F -0.0382(7) 0.3362(7) 0.3464(7)
F6 F 0.1996(7) 0.3396(7) 0.5798(7)
F7 F -0.0583(6) 0.2969(6) -0.3134(6)
C1 C 0.0619(10) 0.2670(10) -0.1905(10)
C2 C 0.1504(12) 0.3845(10) -0.1008(10)
C3 C 0.0959(11) 0.1237(9) -0.1556(11)
H1 H 0.2603(20) 0.3772(41) -0.0950(74)
H2 H 0.1430(72) 0.3837(44) 0.0049(28)
H3 H 0.1066(55) 0.4704(10) -0.1531(7)
H4 H 0.1417(72) 0.1116(13) -0.0424(13)
H5 H 0.1699(61) 0.0918(20) -0.2070(65)
H6 H -0.0009(16) 0.0704(12) -0.1937(70)
loop_
_geom_bond_atom_site_label_1
_geom_bond_atom_site_label_2
_geom_bond_site_symmetry_1
_geom_bond_site_symmetry_2
As1 F1 1_555 1_555
F2 As1 1_555 1_555
F3 As1 1_555 1_555
F4 As1 1_555 1_555
F5 As1 1_555 1_555
F6 As1 1_555 1_555
F7 C1 1_555 1_555
C1 C2 1_555 1_555
C2 H1 1_555 1_555
C3 C1 1_555 1_555
H2 C2 1_555 1_555
H3 C2 1_555 1_555
H4 C3 1_555 1_555
H5 C3 1_555 1_555
H6 C3 1_555 1_555

#END
