
#######################################################################
#
#                 Cambridge Crystallographic Data Centre
#                                CCDC 
#
#######################################################################
#
# If this CIF has been generated from an entry in the Cambridge 
# Structural Database, then it will include bibliographic, chemical, 
# crystal, experimental, refinement or atomic coordinate data resulting 
# from the CCDC's data processing and validation procedures.
#
#######################################################################

data_QAXWIY
_chemical_formula_moiety         'C16 H25 N1 O1,H2 O1'
_chemical_name_systematic        
'1,1,2b-trimethyl-6-methylenedecahydro-1H-cyclobuta[a]indene-5-carboxamide monohydrate'
_symmetry_cell_setting           monoclinic
_symmetry_space_group_name_H-M   'P 21'
_symmetry_Int_Tables_number      4
_space_group_name_Hall           'P 2yb'
loop_
_symmetry_equiv_pos_site_id
_symmetry_equiv_pos_as_xyz
1 x,y,z
2 -x,1/2+y,-z
_cell_length_a                   6.3519(7)
_cell_length_b                   6.7121(7)
_cell_length_c                   18.8242(16)
_cell_angle_alpha                90
_cell_angle_beta                 92.1430(10)
_cell_angle_gamma                90
_cell_volume                     802.001
_exptl_crystal_colour            'light colorless'
_exptl_crystal_description       needle
_chemical_melting_point          '124-124.2 deg.C'
_cell_formula_units_Z            2
_exptl_crystal_recrystallization_method methanol
loop_
_atom_site_label
_atom_site_type_symbol
_atom_site_fract_x
_atom_site_fract_y
_atom_site_fract_z
N1 N -0.3857(7) -0.2354(6) -0.9222(2)
H1 H -0.285823 -0.169034 -0.940844
H2 H -0.489838 -0.173622 -0.904349
O1 O -0.2326(6) -0.5251(5) -0.94623(19)
C1 C -0.3790(8) -0.4331(8) -0.9212(2)
C2 C -0.5704(8) -0.5373(7) -0.8900(2)
H3 H -0.683588 -0.530413 -0.926768
C3 C -0.6535(7) -0.4340(8) -0.8252(2)
C4 C -0.5429(7) -0.4804(7) -0.7548(2)
H4 H -0.633355 -0.435005 -0.716962
C5 C -0.3257(7) -0.3811(8) -0.7431(2)
H5 H -0.249983 -0.381164 -0.786942
H6 H -0.341766 -0.244377 -0.727535
C6 C -0.2070(8) -0.5020(7) -0.6865(2)
H7 H -0.057833 -0.520750 -0.696250
C7 C -0.2464(9) -0.4592(10) -0.6058(3)
C8 C -0.3998(10) -0.6391(11) -0.6062(3)
H8 H -0.365461 -0.736794 -0.569613
H9 H -0.546852 -0.600753 -0.605100
C9 C -0.3301(8) -0.7012(8) -0.6810(3)
H10 H -0.237802 -0.818269 -0.679929
C10 C -0.4956(8) -0.7067(8) -0.7424(2)
C11 C -0.3953(8) -0.7908(7) -0.8086(2)
H11 H -0.259132 -0.728137 -0.813811
H12 H -0.371796 -0.932429 -0.801942
C12 C -0.5287(8) -0.7590(7) -0.8768(3)
H13 H -0.661857 -0.828437 -0.873249
H14 H -0.456199 -0.814538 -0.916701
C13 C -0.8172(8) -0.3152(8) -0.8293(3)
H15 H -0.867430 -0.257652 -0.788324
H16 H -0.883172 -0.288496 -0.873218
C14 C -0.3394(11) -0.2588(10) -0.5875(3)
H17 H -0.472264 -0.242191 -0.612758
H18 H -0.244842 -0.154799 -0.600735
H19 H -0.359976 -0.252439 -0.537256
C15 C -0.0459(10) -0.5001(12) -0.5597(3)
H20 H -0.079886 -0.499558 -0.510467
H21 H 0.056610 -0.398458 -0.568054
H22 H 0.010552 -0.627736 -0.571909
C16 C -0.6935(8) -0.8237(9) -0.7240(3)
H23 H -0.658690 -0.962017 -0.718234
H24 H -0.798423 -0.809057 -0.761720
H25 H -0.747513 -0.773123 -0.680600
O2 O -0.0716(5) -0.9344(6) -0.95618(18)
H26 H -0.109661 -0.812984 -0.956553
H27 H 0.020729 -0.950414 -0.987213
loop_
_geom_bond_atom_site_label_1
_geom_bond_atom_site_label_2
_geom_bond_site_symmetry_1
_geom_bond_site_symmetry_2
N1 H1 1_555 1_555
H2 N1 1_555 1_555
O1 C1 1_555 1_555
C1 N1 1_555 1_555
C2 C1 1_555 1_555
H3 C2 1_555 1_555
C3 C2 1_555 1_555
C4 C3 1_555 1_555
H4 C4 1_555 1_555
C5 C4 1_555 1_555
H5 C5 1_555 1_555
H6 C5 1_555 1_555
C6 C5 1_555 1_555
H7 C6 1_555 1_555
C7 C6 1_555 1_555
C8 C7 1_555 1_555
H8 C8 1_555 1_555
H9 C8 1_555 1_555
C9 C6 1_555 1_555
H10 C9 1_555 1_555
C10 C4 1_555 1_555
C11 C10 1_555 1_555
H11 C11 1_555 1_555
H12 C11 1_555 1_555
C12 C2 1_555 1_555
H13 C12 1_555 1_555
H14 C12 1_555 1_555
C13 C3 1_555 1_555
H15 C13 1_555 1_555
H16 C13 1_555 1_555
C14 C7 1_555 1_555
H17 C14 1_555 1_555
H18 C14 1_555 1_555
H19 C14 1_555 1_555
C15 C7 1_555 1_555
H20 C15 1_555 1_555
H21 C15 1_555 1_555
H22 C15 1_555 1_555
C16 C10 1_555 1_555
H23 C16 1_555 1_555
H24 C16 1_555 1_555
H25 C16 1_555 1_555
O2 H26 1_555 1_555
H27 O2 1_555 1_555
C8 C9 1_555 1_555
C9 C10 1_555 1_555
C11 C12 1_555 1_555

#END
