
#######################################################################
#
#                 Cambridge Crystallographic Data Centre
#                                CCDC 
#
#######################################################################
#
# If this CIF has been generated from an entry in the Cambridge 
# Structural Database, then it will include bibliographic, chemical, 
# crystal, experimental, refinement or atomic coordinate data resulting 
# from the CCDC's data processing and validation procedures.
#
#######################################################################

data_QAYXIX
_chemical_compound_source        'Roots of Triptergium wilfordii'
_chemical_formula_moiety         'C32 H52 O5,H2 O1'
_chemical_name_systematic        
'(2\a,3\b,4\b,5\b,8\a,9\b,10\a,13\a,14\b,24R)-3,24-Epoxy-24-ethoxy-2-hydroxy-5,9,13-trimethyl-24,25,26-trinoroleanan-29-oic acid monohydrate'
_chemical_properties_biological  
'parent plant extracts have insecticidal activity, are antiAIDS agents and are used as a traditional Chinese medicine'
_symmetry_cell_setting           orthorhombic
_symmetry_space_group_name_H-M   'P 21 21 21'
_symmetry_Int_Tables_number      19
_space_group_name_Hall           'P 2ac 2ab'
loop_
_symmetry_equiv_pos_site_id
_symmetry_equiv_pos_as_xyz
1 x,y,z
2 1/2-x,-y,1/2+z
3 1/2+x,1/2-y,-z
4 -x,1/2+y,1/2-z
_cell_length_a                   12.864(3)
_cell_length_b                   30.706(3)
_cell_length_c                   7.805(4)
_cell_angle_alpha                90
_cell_angle_beta                 90
_cell_angle_gamma                90
_cell_volume                     3082.99
_exptl_crystal_colour            colorless
_exptl_crystal_description       prismatic
_chemical_melting_point          254-256deg.C
_cell_formula_units_Z            4
_exptl_crystal_recrystallization_method acetone
loop_
_atom_site_label
_atom_site_type_symbol
_atom_site_fract_x
_atom_site_fract_y
_atom_site_fract_z
O1 O -0.0991(3) 0.2294(1) 0.3428(5)
O2 O -0.0987(3) 0.1801(1) 0.5701(5)
O3 O 0.1111(3) 0.2913(1) 0.1450(5)
O4 O 0.6879(3) 0.1210(1) 0.0906(6)
O5 O 0.5810(3) 0.12366(10) -0.1300(5)
C1 C 0.0640(4) 0.2141(1) 0.1106(6)
C2 C 0.0274(4) 0.2607(1) 0.1505(7)
C3 C -0.0190(4) 0.2621(1) 0.3306(7)
C4 C 0.0616(4) 0.2491(1) 0.4633(6)
C5 C 0.0624(4) 0.1989(1) 0.4323(6)
C6 C 0.1157(4) 0.1743(1) 0.5772(6)
C7 C 0.1459(4) 0.1275(1) 0.5358(6)
C8 C 0.2146(4) 0.1265(1) 0.3757(5)
C9 C 0.1522(4) 0.1431(1) 0.2167(5)
C10 C 0.1209(4) 0.1916(1) 0.2582(5)
C11 C 0.2253(4) 0.1437(1) 0.0585(6)
C12 C 0.2871(4) 0.1020(1) 0.0333(6)
C13 C 0.3542(3) 0.0901(1) 0.1908(5)
C14 C 0.2799(3) 0.0841(1) 0.3500(5)
C15 C 0.3496(4) 0.0757(1) 0.5055(6)
C16 C 0.4136(4) 0.0336(2) 0.4872(6)
C17 C 0.4699(4) 0.0255(1) 0.3151(6)
C18 C 0.4132(3) 0.0462(1) 0.1563(6)
C19 C 0.4836(4) 0.0444(1) -0.0051(6)
C20 C 0.6004(4) 0.0546(1) 0.0063(6)
C21 C 0.6471(4) 0.0344(1) 0.1703(7)
C22 C 0.5832(4) 0.0417(1) 0.3287(6)
C23 C 0.0323(6) 0.2633(2) 0.6453(8)
C24 C -0.0543(4) 0.1901(1) 0.4122(7)
C25 C 0.0568(4) 0.1152(1) 0.1691(7)
C26 C 0.4305(4) 0.1276(1) 0.2183(6)
C27 C 0.2062(4) 0.0446(1) 0.3323(7)
C28 C 0.4722(5) -0.0245(1) 0.2893(7)
C29 C 0.6253(4) 0.1032(1) -0.0050(7)
C30 C 0.6552(4) 0.0349(2) -0.1502(7)
C31 C -0.2005(6) 0.1596(3) 0.557(1)
C32 C -0.1996(8) 0.1157(3) 0.558(1)
H1 H 0.0005 0.1953 0.0723
H2 H 0.1087 0.2149 0.0017
H3 H -0.0245 0.2691 0.0701
H4 H -0.0553 0.2920 0.3500
H5 H 0.1276 0.2612 0.4311
H6 H 0.1770 0.1897 0.6064
H7 H 0.0696 0.1740 0.6726
H8 H 0.0842 0.1106 0.5149
H9 H 0.1821 0.1149 0.6297
H10 H 0.2703 0.1520 0.3849
H11 H 0.1849 0.2070 0.2701
H12 H 0.1846 0.1490 -0.0410
H13 H 0.2733 0.1673 0.0728
H14 H 0.2391 0.0789 0.0131
H15 H 0.3309 0.1053 -0.0634
H16 H 0.3073 0.0737 0.6055
H17 H 0.3963 0.0997 0.5186
H18 H 0.3671 0.0098 0.5054
H19 H 0.4649 0.0336 0.5748
H20 H 0.3601 0.0254 0.1212
H21 H 0.4772 0.0158 -0.0505
H22 H 0.4546 0.0647 -0.0847
H23 H 0.7137 0.0476 0.1884
H24 H 0.6550 0.0043 0.1534
H25 H 0.5811 0.0723 0.3519
H26 H 0.6153 0.0271 0.4211
H27 H 0.0754 0.2482 0.7267
H28 H -0.0374 0.2580 0.6679
H29 H 0.0466 0.2941 0.6590
H30 H -0.0765 0.1641 0.3267
H31 H 0.0100 0.1320 0.1027
H32 H 0.0229 0.1060 0.2717
H33 H 0.0784 0.0904 0.1061
H34 H 0.1682 0.0471 0.2279
H35 H 0.1596 0.0440 0.4258
H36 H 0.2459 0.0185 0.3298
H37 H 0.4818 0.1194 0.3000
H38 H 0.4636 0.1346 0.1129
H39 H 0.3939 0.1524 0.2591
H40 H 0.4028 -0.0353 0.2806
H41 H 0.5063 -0.0380 0.3821
H42 H 0.5081 -0.0310 0.1852
H43 H 0.6270 0.0470 -0.2526
H44 H 0.7276 0.0410 -0.1456
H45 H 0.6453 0.0041 -0.1519
H46 H -0.2334 0.1709 0.4614
H47 H -0.2378 0.1686 0.6599
H48 H -0.2695 0.1034 0.5528
H49 H -0.1641 0.1022 0.6491
H50 H -0.1662 0.1045 0.4506
H51 H 0.1746 0.2865 0.0422
H52 H 0.4916 0.1358 -0.1367
O6 O 0.7645(4) 0.2047(1) 0.0757(8)
H53 H 0.7741 0.1809 0.0804
H54 H 0.7914 0.2208 0.1489
loop_
_geom_bond_atom_site_label_1
_geom_bond_atom_site_label_2
_geom_bond_site_symmetry_1
_geom_bond_site_symmetry_2
O1 C3 1_555 1_555
O2 C24 1_555 1_555
O3 C2 1_555 1_555
O4 C29 1_555 1_555
O5 C29 1_555 1_555
O6 H53 1_555 1_555
C1 C2 1_555 1_555
C2 C3 1_555 1_555
C3 C4 1_555 1_555
C4 C5 1_555 1_555
C5 C6 1_555 1_555
C6 C7 1_555 1_555
C7 C8 1_555 1_555
C8 C9 1_555 1_555
C9 C10 1_555 1_555
C10 C1 1_555 1_555
C11 C9 1_555 1_555
C12 C11 1_555 1_555
C13 C12 1_555 1_555
C14 C8 1_555 1_555
C15 C14 1_555 1_555
C16 C15 1_555 1_555
C17 C16 1_555 1_555
C18 C13 1_555 1_555
C19 C18 1_555 1_555
C20 C19 1_555 1_555
C21 C20 1_555 1_555
C22 C17 1_555 1_555
C23 C4 1_555 1_555
C24 O1 1_555 1_555
C25 C9 1_555 1_555
C26 C13 1_555 1_555
C27 C14 1_555 1_555
C28 C17 1_555 1_555
C29 C20 1_555 1_555
C30 C20 1_555 1_555
C31 O2 1_555 1_555
C32 C31 1_555 1_555
H1 C1 1_555 1_555
H2 C1 1_555 1_555
H3 C2 1_555 1_555
H4 C3 1_555 1_555
H5 C4 1_555 1_555
H6 C6 1_555 1_555
H7 C6 1_555 1_555
H8 C7 1_555 1_555
H9 C7 1_555 1_555
H10 C8 1_555 1_555
H11 C10 1_555 1_555
H12 C11 1_555 1_555
H13 C11 1_555 1_555
H14 C12 1_555 1_555
H15 C12 1_555 1_555
H16 C15 1_555 1_555
H17 C15 1_555 1_555
H18 C16 1_555 1_555
H19 C16 1_555 1_555
H20 C18 1_555 1_555
H21 C19 1_555 1_555
H22 C19 1_555 1_555
H23 C21 1_555 1_555
H24 C21 1_555 1_555
H25 C22 1_555 1_555
H26 C22 1_555 1_555
H27 C23 1_555 1_555
H28 C23 1_555 1_555
H29 C23 1_555 1_555
H30 C24 1_555 1_555
H31 C25 1_555 1_555
H32 C25 1_555 1_555
H33 C25 1_555 1_555
H34 C27 1_555 1_555
H35 C27 1_555 1_555
H36 C27 1_555 1_555
H37 C26 1_555 1_555
H38 C26 1_555 1_555
H39 C26 1_555 1_555
H40 C28 1_555 1_555
H41 C28 1_555 1_555
H42 C28 1_555 1_555
H43 C30 1_555 1_555
H44 C30 1_555 1_555
H45 C30 1_555 1_555
H46 C31 1_555 1_555
H47 C31 1_555 1_555
H48 C32 1_555 1_555
H49 C32 1_555 1_555
H50 C32 1_555 1_555
H51 O3 1_555 1_555
H52 O5 1_555 1_555
H54 O6 1_555 1_555
C5 C10 1_555 1_555
C5 C24 1_555 1_555
C13 C14 1_555 1_555
C17 C18 1_555 1_555
C21 C22 1_555 1_555

#END
