
#######################################################################
#
#                 Cambridge Crystallographic Data Centre
#                                CCDC 
#
#######################################################################
#
# If this CIF has been generated from an entry in the Cambridge 
# Structural Database, then it will include bibliographic, chemical, 
# crystal, experimental, refinement or atomic coordinate data resulting 
# from the CCDC's data processing and validation procedures.
#
#######################################################################

data_QAZLAH
_chemical_formula_moiety         'C43 H45 N5 O5,1.5(C2 H3 N1)'
_chemical_name_systematic        
"2-((4-(7-(diethylamino)-2-oxo-2H-chromen-3-yl)-4-oxobut-2-en-2-yl)amino)-3',6'-bis(ethylamino)-2',7'-dimethylspiro[isoindole-1,9'-xanthen]-3(2H)-one acetonitrile solvate"
_symmetry_cell_setting           triclinic
_symmetry_space_group_name_H-M   'P -1'
_symmetry_Int_Tables_number      2
_space_group_name_Hall           '-P 1'
loop_
_symmetry_equiv_pos_site_id
_symmetry_equiv_pos_as_xyz
1 x,y,z
2 -x,-y,-z
_cell_length_a                   10.543(8)
_cell_length_b                   11.218(9)
_cell_length_c                   19.322(16)
_cell_angle_alpha                85.354(17)
_cell_angle_beta                 74.292(15)
_cell_angle_gamma                78.481(16)
_cell_volume                     2154.71
_exptl_crystal_colour            orange
_exptl_crystal_description       plate
_cell_formula_units_Z            2
loop_
_atom_site_label
_atom_site_type_symbol
_atom_site_fract_x
_atom_site_fract_y
_atom_site_fract_z
N1 N 0.4689(5) 1.0661(4) 0.2894(3)
H1 H 0.4670 1.1361 0.3054
N2 N 0.8077(4) 0.2212(4) 0.2480(2)
H2 H 0.8504 0.1539 0.2618
N3 N 0.9045(4) 0.6674(4) 0.3993(2)
N4 N 1.0089(4) 0.6590(4) 0.3373(2)
H3 H 1.0347 0.5906 0.3160
N5 N 1.9136(5) 0.4308(5) -0.0806(3)
C1 C 0.6941(5) 0.7577(5) 0.3663(3)
C2 C 0.6633(5) 0.8695(5) 0.3996(3)
H4 H 0.6928 0.8751 0.4402
C3 C 0.5902(5) 0.9729(5) 0.3744(3)
C4 C 0.5447(5) 0.9639(5) 0.3133(3)
C5 C 0.5755(5) 0.8530(5) 0.2799(3)
H5 H 0.5466 0.8459 0.2392
C6 C 0.6486(5) 0.7537(5) 0.3068(3)
C7 C 0.7310(5) 0.5411(5) 0.2980(3)
C8 C 0.7358(5) 0.4377(5) 0.2611(3)
H6 H 0.6993 0.4433 0.2219
C9 C 0.7962(5) 0.3269(5) 0.2844(3)
C10 C 0.8507(5) 0.3162(5) 0.3438(3)
C11 C 0.8415(5) 0.4221(5) 0.3782(3)
H7 H 0.8774 0.4172 0.4175
C12 C 0.7804(5) 0.5367(5) 0.3566(3)
C13 C 0.7708(5) 0.6490(4) 0.3975(3)
C14 C 0.7111(5) 0.6317(4) 0.4765(3)
C15 C 0.5837(5) 0.6131(4) 0.5118(3)
H8 H 0.5203 0.6123 0.4865
C16 C 0.5528(6) 0.5958(4) 0.5849(3)
H9 H 0.4680 0.5809 0.6090
C17 C 0.6448(7) 0.5999(4) 0.6246(3)
H10 H 0.6214 0.5882 0.6743
C18 C 0.7709(6) 0.6215(4) 0.5889(3)
H11 H 0.8334 0.6254 0.6142
C19 C 0.8026(6) 0.6371(4) 0.5152(3)
C20 C 0.9316(6) 0.6540(4) 0.4655(3)
C21 C 1.0721(6) 0.7504(5) 0.3087(3)
C22 C 1.0078(5) 0.8749(4) 0.3390(3)
H12 H 0.9274 0.8689 0.3760
H13 H 0.9861 0.9297 0.3013
H14 H 1.0691 0.9050 0.3589
C23 C 1.1877(5) 0.7342(5) 0.2551(3)
H15 H 1.2253 0.8020 0.2363
C24 C 1.2542(5) 0.6178(5) 0.2261(3)
C25 C 1.3814(5) 0.6053(5) 0.1664(3)
C26 C 1.4458(6) 0.7037(6) 0.1357(3)
C27 C 1.6194(6) 0.5650(6) 0.0566(3)
C28 C 1.7366(6) 0.5569(6) 0.0048(3)
H16 H 1.7775 0.6244 -0.0087
C29 C 1.7956(6) 0.4442(7) -0.0282(3)
C30 C 1.7308(6) 0.3451(6) -0.0029(3)
H17 H 1.7684 0.2692 -0.0226
C31 C 1.6133(6) 0.3583(5) 0.0504(3)
H18 H 1.5719 0.2915 0.0656
C32 C 1.5546(6) 0.4704(6) 0.0823(3)
C33 C 1.4355(5) 0.4934(5) 0.1383(3)
H19 H 1.3919 0.4289 0.1568
C34 C 0.5597(5) 1.0929(4) 0.4119(3)
H20 H 0.5980 1.0826 0.4523
H21 H 0.4643 1.1190 0.4284
H22 H 0.5974 1.1531 0.3789
C35 C 0.3934(7) 1.0584(5) 0.2387(4)
H23 H 0.3398 0.9958 0.2554
H24 H 0.4553 1.0341 0.1929
C36 C 0.3054(8) 1.1721(6) 0.2282(4)
H25 H 0.2566 1.1607 0.1946
H26 H 0.3580 1.2339 0.2097
H27 H 0.2435 1.1968 0.2733
C37 C 0.7509(6) 0.2202(5) 0.1880(3)
H28 H 0.7837 0.2791 0.1513
H29 H 0.6540 0.2427 0.2038
C38 C 0.7899(6) 0.0939(5) 0.1569(3)
H30 H 0.7527 0.0936 0.1167
H31 H 0.7558 0.0361 0.1931
H32 H 0.8858 0.0720 0.1412
C39 C 0.9209(5) 0.1965(4) 0.3686(3)
H33 H 0.9505 0.2089 0.4099
H34 H 0.9970 0.1643 0.3306
H35 H 0.8601 0.1402 0.3811
C40 C 1.9858(6) 0.5360(7) -0.1010(4)
H36 H 1.9804 0.5781 -0.0581
H37 H 2.0796 0.5062 -0.1238
C41 C 1.9269(6) 0.6200(6) -0.1500(3)
H38 H 1.9732 0.6874 -0.1620
H39 H 1.8340 0.6492 -0.1275
H40 H 1.9348 0.5788 -0.1931
C42 C 1.9735(6) 0.3193(6) -0.1200(3)
H41 H 2.0130 0.3402 -0.1698
H42 H 1.9037 0.2739 -0.1190
C43 C 2.0783(7) 0.2406(6) -0.0900(4)
H43 H 2.1152 0.1691 -0.1181
H44 H 2.0392 0.2173 -0.0411
H45 H 2.1482 0.2847 -0.0913
O1 O 0.6688(3) 0.6476(3) 0.27005(17)
O2 O 1.0378(4) 0.6556(3) 0.47704(19)
O3 O 1.2095(3) 0.5229(3) 0.24883(19)
O4 O 1.4092(4) 0.8116(4) 0.1495(2)
O5 O 1.5669(4) 0.6795(4) 0.0839(2)
N6 N 0.2000(10) 1.0284(7) 0.4526(7)
C44 C 0.2920(7) 0.7969(7) 0.4325(4)
H46 H 0.3065 0.7811 0.3826
H47 H 0.2282 0.7506 0.4612
H48 H 0.3752 0.7739 0.4457
C45 C 0.2397(9) 0.9283(10) 0.4447(6)
C46? C 1.5000 1.0000 0.0000
C47? C 1.3494(9) 1.036(3) 0.018(2)
N7? N 1.2444(19) 1.015(2) 0.0450(14)
loop_
_geom_bond_atom_site_label_1
_geom_bond_atom_site_label_2
_geom_bond_site_symmetry_1
_geom_bond_site_symmetry_2
N1 H1 1_555 1_555
N2 H2 1_555 1_555
N3 N4 1_555 1_555
N4 H3 1_555 1_555
N5 C29 1_555 1_555
C1 C2 1_555 1_555
C2 H4 1_555 1_555
C3 C2 1_555 1_555
C4 N1 1_555 1_555
C5 C4 1_555 1_555
H5 C5 1_555 1_555
C6 C1 1_555 1_555
C7 C8 1_555 1_555
C8 H6 1_555 1_555
C9 N2 1_555 1_555
C10 C9 1_555 1_555
C11 C10 1_555 1_555
H7 C11 1_555 1_555
C12 C7 1_555 1_555
C13 N3 1_555 1_555
C14 C13 1_555 1_555
C15 C14 1_555 1_555
H8 C15 1_555 1_555
C16 C15 1_555 1_555
H9 C16 1_555 1_555
C17 C16 1_555 1_555
H10 C17 1_555 1_555
C18 C17 1_555 1_555
H11 C18 1_555 1_555
C19 C14 1_555 1_555
C20 N3 1_555 1_555
C21 N4 1_555 1_555
C22 C21 1_555 1_555
H12 C22 1_555 1_555
H13 C22 1_555 1_555
H14 C22 1_555 1_555
C23 C21 1_555 1_555
H15 C23 1_555 1_555
C24 C23 1_555 1_555
C25 C24 1_555 1_555
C26 C25 1_555 1_555
C27 C28 1_555 1_555
C28 H16 1_555 1_555
C29 C28 1_555 1_555
C30 C29 1_555 1_555
H17 C30 1_555 1_555
C31 C30 1_555 1_555
H18 C31 1_555 1_555
C32 C27 1_555 1_555
C33 C25 1_555 1_555
H19 C33 1_555 1_555
C34 C3 1_555 1_555
H20 C34 1_555 1_555
H21 C34 1_555 1_555
H22 C34 1_555 1_555
C35 N1 1_555 1_555
H23 C35 1_555 1_555
H24 C35 1_555 1_555
C36 C35 1_555 1_555
H25 C36 1_555 1_555
H26 C36 1_555 1_555
H27 C36 1_555 1_555
C37 N2 1_555 1_555
H28 C37 1_555 1_555
H29 C37 1_555 1_555
C38 C37 1_555 1_555
H30 C38 1_555 1_555
H31 C38 1_555 1_555
H32 C38 1_555 1_555
C39 C10 1_555 1_555
H33 C39 1_555 1_555
H34 C39 1_555 1_555
H35 C39 1_555 1_555
C40 N5 1_555 1_555
H36 C40 1_555 1_555
H37 C40 1_555 1_555
C41 C40 1_555 1_555
H38 C41 1_555 1_555
H39 C41 1_555 1_555
H40 C41 1_555 1_555
C42 N5 1_555 1_555
H41 C42 1_555 1_555
H42 C42 1_555 1_555
C43 C42 1_555 1_555
H43 C43 1_555 1_555
H44 C43 1_555 1_555
H45 C43 1_555 1_555
O1 C6 1_555 1_555
O2 C20 1_555 1_555
O3 C24 1_555 1_555
O4 C26 1_555 1_555
O5 C26 1_555 1_555
N6 C45 1_555 1_555
C44 H46 1_555 1_555
H47 C44 1_555 1_555
H48 C44 1_555 1_555
C45 C44 1_555 1_555
C1 C13 1_555 1_555
C3 C4 1_555 1_555
C5 C6 1_555 1_555
C7 O1 1_555 1_555
C8 C9 1_555 1_555
C11 C12 1_555 1_555
C12 C13 1_555 1_555
C18 C19 1_555 1_555
C19 C20 1_555 1_555
C27 O5 1_555 1_555
C31 C32 1_555 1_555
C32 C33 1_555 1_555

#END
