
#######################################################################
#
#                 Cambridge Crystallographic Data Centre
#                                CCDC 
#
#######################################################################
#
# If this CIF has been generated from an entry in the Cambridge 
# Structural Database, then it will include bibliographic, chemical, 
# crystal, experimental, refinement or atomic coordinate data resulting 
# from the CCDC's data processing and validation procedures.
#
#######################################################################

data_QAZROA
_chemical_formula_moiety         'C6 H13 N3 O1'
_chemical_name_systematic        3-((Dimethylamino)methylene)-1,1-dimethylurea
_symmetry_cell_setting           triclinic
_symmetry_space_group_name_H-M   'P -1'
_symmetry_Int_Tables_number      2
_space_group_name_Hall           '-P 1'
loop_
_symmetry_equiv_pos_site_id
_symmetry_equiv_pos_as_xyz
1 x,y,z
2 -x,-y,-z
_cell_length_a                   7.0182(3)
_cell_length_b                   10.5055(4)
_cell_length_c                   11.9481(5)
_cell_angle_alpha                66.943(2)
_cell_angle_beta                 76.914(2)
_cell_angle_gamma                82.617(3)
_cell_volume                     788.728
_exptl_crystal_colour            colorless
_exptl_crystal_description       block
_cell_formula_units_Z            4
loop_
_atom_site_label
_atom_site_type_symbol
_atom_site_fract_x
_atom_site_fract_y
_atom_site_fract_z
O1 O 0.2880(2) 0.89463(14) 0.84637(12)
N1 N 0.2564(2) 0.97086(16) 1.00267(15)
N2 N 0.2734(2) 0.73474(15) 1.05058(14)
N3 N 0.2695(2) 0.50311(16) 1.08288(14)
C1 C 0.2587(3) 1.1141(2) 0.9175(2)
H1 H 0.132(4) 1.159(3) 0.930(2)
H2 H 0.288(5) 1.120(3) 0.832(3)
H3 H 0.362(3) 1.167(2) 0.930(2)
C2 C 0.2250(3) 0.9497(2) 1.13328(18)
H4 H 0.325(4) 0.997(3) 1.148(2)
H5 H 0.227(4) 0.849(3) 1.185(2)
H6 H 0.097(4) 0.987(3) 1.161(2)
C3 C 0.2721(2) 0.86748(19) 0.95879(16)
C4 C 0.2543(2) 0.63709(19) 1.01226(17)
H7 H 0.233(3) 0.659(2) 0.928(2)
C5 C 0.2306(3) 0.3968(2) 1.04228(19)
H8 H 0.212(3) 0.439(2) 0.957(2)
H9 H 0.127(4) 0.344(2) 1.100(2)
H10 H 0.352(4) 0.332(3) 1.045(2)
C6 C 0.3174(3) 0.4564(2) 1.20522(19)
H11 H 0.222(4) 0.418(3) 1.264(3)
H12 H 0.358(4) 0.538(3) 1.209(2)
H13 H 0.426(4) 0.383(3) 1.213(2)
O2 O 0.1844(2) 0.62273(14) 0.74866(12)
N4 N 0.2166(3) 0.54698(17) 0.59245(15)
N5 N 0.2359(2) 0.78163(16) 0.54232(14)
N6 N 0.2499(2) 1.01217(17) 0.50937(14)
C7 C 0.2015(3) 0.4054(2) 0.68164(19)
H14 H 0.330(4) 0.363(3) 0.687(3)
H15 H 0.128(4) 0.355(4) 0.656(3)
H16 H 0.136(5) 0.405(4) 0.762(3)
C8 C 0.2564(3) 0.5668(2) 0.46188(19)
H17 H 0.154(4) 0.525(3) 0.450(3)
H18 H 0.285(5) 0.663(4) 0.408(3)
H19 H 0.377(5) 0.511(3) 0.450(3)
C9 C 0.2115(2) 0.64999(19) 0.63555(16)
C10 C 0.2312(2) 0.88020(19) 0.58420(17)
H20 H 0.215(3) 0.858(2) 0.670(2)
C11 C 0.2777(3) 1.0558(2) 0.37524(18)
H21 H 0.174(4) 1.128(3) 0.345(3)
H22 H 0.398(5) 1.087(3) 0.338(3)
H23 H 0.254(5) 0.983(3) 0.358(3)
C12 C 0.2396(3) 1.1205(2) 0.55778(19)
H24 H 0.228(3) 1.075(2) 0.649(2)
H25 H 0.357(3) 1.176(2) 0.520(2)
H26 H 0.126(4) 1.184(3) 0.540(2)
loop_
_geom_bond_atom_site_label_1
_geom_bond_atom_site_label_2
_geom_bond_site_symmetry_1
_geom_bond_site_symmetry_2
O1 C3 1_555 1_555
O2 C9 1_555 1_555
N1 C1 1_555 1_555
N2 C3 1_555 1_555
N3 C4 1_555 1_555
N4 C7 1_555 1_555
N5 C9 1_555 1_555
N6 C10 1_555 1_555
C1 H1 1_555 1_555
H2 C1 1_555 1_555
H3 C1 1_555 1_555
C2 N1 1_555 1_555
H4 C2 1_555 1_555
H5 C2 1_555 1_555
H6 C2 1_555 1_555
C3 N1 1_555 1_555
C4 N2 1_555 1_555
H7 C4 1_555 1_555
C5 N3 1_555 1_555
H8 C5 1_555 1_555
H9 C5 1_555 1_555
H10 C5 1_555 1_555
C6 N3 1_555 1_555
H11 C6 1_555 1_555
H12 C6 1_555 1_555
H13 C6 1_555 1_555
C7 H14 1_555 1_555
H15 C7 1_555 1_555
H16 C7 1_555 1_555
C8 N4 1_555 1_555
H17 C8 1_555 1_555
H18 C8 1_555 1_555
H19 C8 1_555 1_555
C9 N4 1_555 1_555
C10 N5 1_555 1_555
H20 C10 1_555 1_555
C11 N6 1_555 1_555
H21 C11 1_555 1_555
H22 C11 1_555 1_555
H23 C11 1_555 1_555
C12 N6 1_555 1_555
H24 C12 1_555 1_555
H25 C12 1_555 1_555
H26 C12 1_555 1_555

#END
