
#######################################################################
#
#                 Cambridge Crystallographic Data Centre
#                                CCDC 
#
#######################################################################
#
# If this CIF has been generated from an entry in the Cambridge 
# Structural Database, then it will include bibliographic, chemical, 
# crystal, experimental, refinement or atomic coordinate data resulting 
# from the CCDC's data processing and validation procedures.
#
#######################################################################

data_QAZYUO
_chemical_formula_moiety         'C15 H26 O5'
_chemical_name_systematic        
2,3-dihydroxy-2-(1-hydroxy-3-methylbutyl)-3,6-dimethylhexahydro-1-benzofuran-4(2H)-one
_symmetry_cell_setting           monoclinic
_symmetry_space_group_name_H-M   'P 21'
_symmetry_Int_Tables_number      4
_space_group_name_Hall           'P 2yb'
loop_
_symmetry_equiv_pos_site_id
_symmetry_equiv_pos_as_xyz
1 x,y,z
2 -x,1/2+y,-z
_cell_length_a                   11.467(2)
_cell_length_b                   6.0303(12)
_cell_length_c                   11.711(2)
_cell_angle_alpha                90
_cell_angle_beta                 99.70(3)
_cell_angle_gamma                90
_cell_volume                     798.232
_exptl_crystal_colour            colorless
_exptl_crystal_description       block
_cell_formula_units_Z            2
loop_
_atom_site_label
_atom_site_type_symbol
_atom_site_fract_x
_atom_site_fract_y
_atom_site_fract_z
O1 O -0.00831(10) 0.9240(3) 0.31553(11)
O2 O 0.15302(9) 0.5492(2) 0.50422(9)
H1 H 0.1184 0.5462 0.5600
O3 O 0.37406(8) 0.6346(2) 0.42678(8)
O4 O 0.51816(8) 0.6214(2) 0.65327(9)
H2 H 0.5470 0.5843 0.5967
O5 O 0.39043(8) 0.94845(19) 0.54218(9)
H3 H 0.4593 0.9401 0.5751
C1 C 0.06660(13) 0.7899(3) 0.30331(13)
C2 C 0.03883(13) 0.5911(4) 0.22812(14)
H4 H -0.0283 0.6254 0.1685
H5 H 0.0153 0.4714 0.2747
C3 C 0.14007(14) 0.5103(3) 0.16996(13)
H6 H 0.1596 0.6279 0.1186
C4 C 0.24723(14) 0.4710(3) 0.26307(13)
H7 H 0.2270 0.3653 0.3190
H8 H 0.3105 0.4078 0.2281
C5 C 0.28965(12) 0.6829(3) 0.32442(12)
H9 H 0.3280 0.7743 0.2723
C6 C 0.34176(11) 0.7349(3) 0.52747(12)
C7 C 0.20592(11) 0.7621(3) 0.49713(12)
C8 C 0.19277(12) 0.8206(3) 0.36685(12)
H10 H 0.2134 0.9774 0.3610
C9 C 0.39303(11) 0.5858(3) 0.62992(12)
H11 H 0.3768 0.4301 0.6090
C10 C 0.34706(14) 0.6380(3) 0.74104(12)
H12 H 0.2620 0.6171 0.7272
H13 H 0.3622 0.7933 0.7593
C11 C 0.39976(17) 0.5003(3) 0.84674(14)
H14 H 0.4857 0.5217 0.8609
C12 C 0.3509(2) 0.5856(5) 0.95180(18)
H15 H 0.3833 0.4999 1.0187
H16 H 0.2663 0.5720 0.9380
H17 H 0.3724 0.7385 0.9649
C13 C 0.3746(3) 0.2571(5) 0.8266(2)
H18 H 0.4086 0.1749 0.8942
H19 H 0.4085 0.2079 0.7614
H20 H 0.2906 0.2335 0.8113
C14 C 0.15288(14) 0.9376(4) 0.56574(15)
H21 H 0.1628 0.8941 0.6456
H22 H 0.0701 0.9533 0.5355
H23 H 0.1922 1.0766 0.5594
C15 C 0.1040(2) 0.3042(4) 0.09684(18)
H24 H 0.1689 0.2570 0.0605
H25 H 0.0371 0.3383 0.0385
H26 H 0.0835 0.1876 0.1456
loop_
_geom_bond_atom_site_label_1
_geom_bond_atom_site_label_2
_geom_bond_site_symmetry_1
_geom_bond_site_symmetry_2
O1 C1 1_555 1_555
O2 H1 1_555 1_555
O3 C5 1_555 1_555
O4 H2 1_555 1_555
O5 H3 1_555 1_555
C1 C2 1_555 1_555
C2 H4 1_555 1_555
H5 C2 1_555 1_555
C3 C2 1_555 1_555
H6 C3 1_555 1_555
C4 C3 1_555 1_555
H7 C4 1_555 1_555
H8 C4 1_555 1_555
C5 C4 1_555 1_555
H9 C5 1_555 1_555
C6 O3 1_555 1_555
C7 O2 1_555 1_555
C8 C1 1_555 1_555
H10 C8 1_555 1_555
C9 O4 1_555 1_555
H11 C9 1_555 1_555
C10 C9 1_555 1_555
H12 C10 1_555 1_555
H13 C10 1_555 1_555
C11 C10 1_555 1_555
H14 C11 1_555 1_555
C12 C11 1_555 1_555
H15 C12 1_555 1_555
H16 C12 1_555 1_555
H17 C12 1_555 1_555
C13 C11 1_555 1_555
H18 C13 1_555 1_555
H19 C13 1_555 1_555
H20 C13 1_555 1_555
C14 C7 1_555 1_555
H21 C14 1_555 1_555
H22 C14 1_555 1_555
H23 C14 1_555 1_555
C15 C3 1_555 1_555
H24 C15 1_555 1_555
H25 C15 1_555 1_555
H26 C15 1_555 1_555
O5 C6 1_555 1_555
C5 C8 1_555 1_555
C6 C7 1_555 1_555
C6 C9 1_555 1_555
C7 C8 1_555 1_555

#END
