
#######################################################################
#
#                 Cambridge Crystallographic Data Centre
#                                CCDC 
#
#######################################################################
#
# If this CIF has been generated from an entry in the Cambridge 
# Structural Database, then it will include bibliographic, chemical, 
# crystal, experimental, refinement or atomic coordinate data resulting 
# from the CCDC's data processing and validation procedures.
#
#######################################################################

data_QEBKOA
_chemical_formula_moiety         'C27 H32 F1 N1 O3'
_chemical_name_systematic        
(1S,2S,4aS,5R,6R,8aR)-1-((E)-2-(5-(3-fluorophenyl)pyridin-2-yl)vinyl)-5-(hydroxymethyl)-5,8a-dimethyloctahydro-1H-spiro[naphthalene-2,2'-oxiran]-6-ol
_chemical_properties_biological  'potent PAR1 inhibitory activity'
_symmetry_cell_setting           orthorhombic
_symmetry_space_group_name_H-M   'P 21 21 21'
_symmetry_Int_Tables_number      19
_space_group_name_Hall           'P 2ac 2ab'
loop_
_symmetry_equiv_pos_site_id
_symmetry_equiv_pos_as_xyz
1 x,y,z
2 1/2+x,1/2-y,-z
3 -x,1/2+y,1/2-z
4 1/2-x,-y,1/2+z
_cell_length_a                   7.9412(3)
_cell_length_b                   14.5954(6)
_cell_length_c                   20.0744(8)
_cell_angle_alpha                90
_cell_angle_beta                 90
_cell_angle_gamma                90
_cell_volume                     2326.72
_exptl_crystal_colour            colorless
_exptl_crystal_description       'needle-like crystal'
_cell_formula_units_Z            4
loop_
_atom_site_label
_atom_site_type_symbol
_atom_site_fract_x
_atom_site_fract_y
_atom_site_fract_z
O1 O 0.6960(3) 0.06699(18) 0.61016(13)
N1 N 0.1612(4) 0.57263(19) 0.48396(13)
F1 F 0.0681(4) 1.05496(18) 0.53385(14)
H1 H 0.682(5) 0.019(3) 0.581(2)
O2 O 0.6805(4) 0.04965(19) 0.74263(15)
O3 O -0.1164(3) 0.3648(2) 0.70266(16)
C1 C 0.1862(4) 0.5521(2) 0.54895(16)
C2 C 0.1760(4) 0.4223(2) 0.62752(16)
H2 H 0.1957(4) 0.4632(2) 0.66214(16)
C3 C 0.3250(4) 0.2732(2) 0.65920(14)
C4 C 0.1988(4) 0.8288(2) 0.48303(16)
C5 C 0.2870(4) 0.1704(2) 0.67230(15)
H3 H 0.2221(4) 0.1510(2) 0.63323(15)
C6 C 0.1552(4) 0.3231(2) 0.64510(15)
H4 H 0.1057(4) 0.2932(2) 0.60601(15)
C7 C 0.1982(4) 0.7340(2) 0.50730(17)
C8 C 0.1660(5) 0.6606(2) 0.46531(16)
H5 H 0.1462(5) 0.6736(2) 0.42064(16)
C9 C 0.5504(4) 0.1163(2) 0.73673(16)
H6 H 0.4792(4) 0.1131(2) 0.77593(16)
H7 H 0.6010(4) 0.1768(2) 0.73559(16)
C10 C 0.4394(4) 0.1039(2) 0.67393(15)
C11 C 0.1683(4) 0.4555(2) 0.56699(17)
H8 H 0.1500(4) 0.4141(2) 0.53252(17)
C12 C 0.5442(4) 0.1199(2) 0.60998(16)
H9 H 0.4762(4) 0.0994(2) 0.57206(16)
C13 C 0.0324(4) 0.3078(2) 0.70278(18)
C14 C 0.2720(5) 0.8513(3) 0.42188(18)
H10 H 0.3175(5) 0.8050(3) 0.39562(18)
C15 C 0.5890(4) 0.2190(2) 0.59835(18)
H11 H 0.6614(4) 0.2402(2) 0.63408(18)
H12 H 0.6507(4) 0.2245(2) 0.55685(18)
C16 C 0.1297(5) 0.8994(3) 0.52015(18)
H13 H 0.0789(5) 0.8869(3) 0.56091(18)
C17 C 0.2286(5) 0.7119(2) 0.57375(17)
H14 H 0.2525(5) 0.7581(2) 0.60425(17)
C18 C 0.2236(5) 0.6222(2) 0.59440(17)
H15 H 0.2450(5) 0.6080(2) 0.63874(17)
C19 C 0.1361(5) 0.9877(2) 0.4967(2)
C20 C 0.4317(4) 0.2790(2) 0.59530(16)
H16 H 0.3634(4) 0.2603(2) 0.55761(16)
H17 H 0.4652(4) 0.3422(2) 0.58818(16)
C21 C 0.2100(5) 1.0102(3) 0.4371(2)
H18 H 0.2140(5) 1.0706(3) 0.4225(2)
C22 C 0.4163(4) 0.3229(2) 0.71659(17)
H19 H 0.5337(7) 0.3074(13) 0.7159(8)
H20 H 0.404(3) 0.3879(2) 0.7113(7)
H21 H 0.368(2) 0.3045(13) 0.75837(19)
C23 C 0.1645(4) 0.1584(2) 0.73070(18)
H22 H 0.1405(4) 0.0938(2) 0.73694(18)
H23 H 0.2159(4) 0.1814(2) 0.77122(18)
C24 C 0.2782(5) 0.9401(3) 0.3997(2)
H24 H 0.3289(5) 0.9533(3) 0.3591(2)
C25 C 0.0018(4) 0.2096(3) 0.7174(2)
H25 H -0.0710(4) 0.2045(3) 0.7561(2)
H26 H -0.0557(4) 0.1816(3) 0.6800(2)
C26 C 0.3759(5) 0.0046(2) 0.6728(2)
H27 H 0.294(3) -0.0024(6) 0.6379(10)
H28 H 0.4688(8) -0.0360(3) 0.6650(14)
H29 H 0.325(3) -0.0098(7) 0.7149(6)
C27 C 0.0059(5) 0.3766(3) 0.7553(2)
H30 H 0.0754(5) 0.4312(3) 0.7544(2)
H31 H -0.0236(5) 0.3550(3) 0.7994(2)
H32 H 0.709(5) 0.042(3) 0.709(2)
loop_
_geom_bond_atom_site_label_1
_geom_bond_atom_site_label_2
_geom_bond_site_symmetry_1
_geom_bond_site_symmetry_2
O1 H1 1_555 1_555
N1 C1 1_555 1_555
F1 C19 1_555 1_555
O2 C9 1_555 1_555
O3 C13 1_555 1_555
C1 C11 1_555 1_555
C2 H2 1_555 1_555
C3 C5 1_555 1_555
C4 C7 1_555 1_555
C5 H3 1_555 1_555
C6 C2 1_555 1_555
H4 C6 1_555 1_555
C7 C8 1_555 1_555
C8 N1 1_555 1_555
H5 C8 1_555 1_555
C9 H6 1_555 1_555
H7 C9 1_555 1_555
C10 C5 1_555 1_555
C11 C2 1_555 1_555
H8 C11 1_555 1_555
C12 O1 1_555 1_555
H9 C12 1_555 1_555
C13 C6 1_555 1_555
C14 C4 1_555 1_555
H10 C14 1_555 1_555
C15 C12 1_555 1_555
H11 C15 1_555 1_555
H12 C15 1_555 1_555
C16 C4 1_555 1_555
H13 C16 1_555 1_555
C17 C7 1_555 1_555
H14 C17 1_555 1_555
C18 C1 1_555 1_555
H15 C18 1_555 1_555
C19 C16 1_555 1_555
C20 C3 1_555 1_555
H16 C20 1_555 1_555
H17 C20 1_555 1_555
C21 C19 1_555 1_555
H18 C21 1_555 1_555
C22 C3 1_555 1_555
H19 C22 1_555 1_555
H20 C22 1_555 1_555
H21 C22 1_555 1_555
C23 C5 1_555 1_555
H22 C23 1_555 1_555
H23 C23 1_555 1_555
C24 C14 1_555 1_555
H24 C24 1_555 1_555
C25 C13 1_555 1_555
H25 C25 1_555 1_555
H26 C25 1_555 1_555
C26 C10 1_555 1_555
H27 C26 1_555 1_555
H28 C26 1_555 1_555
H29 C26 1_555 1_555
C27 O3 1_555 1_555
H30 C27 1_555 1_555
H31 C27 1_555 1_555
H32 O2 1_555 1_555
C3 C6 1_555 1_555
C9 C10 1_555 1_555
C10 C12 1_555 1_555
C13 C27 1_555 1_555
C15 C20 1_555 1_555
C17 C18 1_555 1_555
C21 C24 1_555 1_555
C23 C25 1_555 1_555

#END
