
#######################################################################
#
#                 Cambridge Crystallographic Data Centre
#                                CCDC 
#
#######################################################################
#
# If this CIF has been generated from an entry in the Cambridge 
# Structural Database, then it will include bibliographic, chemical, 
# crystal, experimental, refinement or atomic coordinate data resulting 
# from the CCDC's data processing and validation procedures.
#
#######################################################################

data_QEBTOG
_chemical_formula_moiety         'C42 H34 N2 O2 P2'
_chemical_name_systematic        
(S,S)-2,2'-bis(2-diphenylphosphinophenyl)-(4,4'-bioxazoline)
_symmetry_cell_setting           orthorhombic
_symmetry_space_group_name_H-M   'P 21 21 21'
_symmetry_Int_Tables_number      19
_space_group_name_Hall           'P 2ac 2ab'
loop_
_symmetry_equiv_pos_site_id
_symmetry_equiv_pos_as_xyz
1 x,y,z
2 1/2-x,-y,1/2+z
3 1/2+x,1/2-y,-z
4 -x,1/2+y,1/2-z
_cell_length_a                   10.4647(17)
_cell_length_b                   18.104(6)
_cell_length_c                   18.635(5)
_cell_angle_alpha                90
_cell_angle_beta                 90
_cell_angle_gamma                90
_cell_volume                     3530.46
_cell_formula_units_Z            4
_exptl_crystal_recrystallization_method 'methanol/diethyl ether'
loop_
_atom_site_label
_atom_site_type_symbol
_atom_site_fract_x
_atom_site_fract_y
_atom_site_fract_z
P1 P 0.2578(1) 0.0167(1) 0.0788(1)
P2 P -0.0793(1) 0.0138(1) -0.0514(1)
O1 O -0.0026(3) 0.2035(1) 0.0361(1)
O2 O 0.3270(3) 0.0584(2) -0.1156(2)
N1 N 0.2013(3) 0.1649(2) 0.0307(2)
N2 N 0.1275(3) 0.1035(2) -0.1052(2)
C1 C 0.0947(3) 0.1614(2) 0.0618(2)
C2 C 0.1843(4) 0.2125(2) -0.0328(2)
C3 C 0.0473(4) 0.2405(2) -0.0261(2)
C4 C 0.0641(3) 0.1162(2) 0.1252(2)
C5 C -0.0332(4) 0.1391(3) 0.1705(2)
C6 C -0.0681(4) 0.0983(3) 0.2300(2)
C7 C -0.0069(4) 0.0325(3) 0.2425(2)
C8 C 0.0891(4) 0.0087(2) 0.1982(2)
C9 C 0.1300(3) 0.0493(2) 0.1391(2)
C10 C 0.2849(4) -0.0760(2) 0.1167(2)
C11 C 0.3617(4) -0.0915(2) 0.1758(2)
C12 C 0.3734(5) -0.1630(3) 0.2020(2)
C13 C 0.3075(6) -0.2190(3) 0.1696(3)
C14 C 0.2337(7) -0.2049(3) 0.1107(3)
C15 C 0.2230(5) -0.1335(2) 0.0838(3)
C16 C 0.3977(4) 0.0656(2) 0.1149(2)
C17 C 0.5148(4) 0.0516(2) 0.0841(3)
C18 C 0.6250(4) 0.0856(3) 0.1089(3)
C19 C 0.6178(4) 0.1363(3) 0.1625(3)
C20 C 0.5023(4) 0.1521(3) 0.1925(2)
C21 C 0.3927(4) 0.1167(2) 0.1689(2)
C22 C 0.1992(4) 0.0481(2) -0.1113(2)
C23 C 0.2111(4) 0.1688(2) -0.1009(2)
C24 C 0.3461(5) 0.1371(2) -0.1063(3)
C25 C 0.1568(3) -0.0299(2) -0.1143(2)
C26 C 0.2456(4) -0.0815(2) -0.1384(2)
C27 C 0.2127(4) -0.1559(2) -0.1431(2)
C28 C 0.0935(4) -0.1776(2) -0.1234(2)
C29 C 0.0048(4) -0.1272(2) -0.0996(2)
C30 C 0.0337(4) -0.0510(2) -0.0937(2)
C31 C -0.1494(4) 0.0629(2) -0.1281(2)
C32 C -0.2159(5) 0.1271(2) -0.1132(2)
C33 C -0.2753(6) 0.1661(3) -0.1672(3)
C34 C -0.2695(5) 0.1419(3) -0.2362(3)
C35 C -0.2033(5) 0.0782(3) -0.2526(2)
C36 C -0.1449(4) 0.0391(2) -0.1988(2)
C37 C -0.2121(4) -0.0490(2) -0.0291(2)
C38 C -0.2060(5) -0.0867(2) 0.0359(2)
C39 C -0.3029(6) -0.1341(3) 0.0568(2)
C40 C -0.4083(5) -0.1436(2) 0.0149(2)
C41 C -0.4174(5) -0.1062(2) -0.0486(2)
C42 C -0.3206(4) -0.0600(2) -0.0700(2)
H1 H 0.2435 0.2544 -0.0299
H2 H 0.0458 0.2937 -0.0197
H3 H -0.0019 0.2280 -0.0685
H4 H -0.0759 0.1830 0.1607
H5 H -0.1316 0.1150 0.2609
H6 H -0.0309 0.0037 0.2815
H7 H 0.1283 -0.0363 0.2079
H8 H 0.4059 -0.0533 0.1982
H9 H 0.4257 -0.1728 0.2413
H10 H 0.3128 -0.2667 0.1877
H11 H 0.1902 -0.2434 0.0884
H12 H 0.1736 -0.1248 0.0432
H13 H 0.5201 0.0187 0.0459
H14 H 0.7037 0.0738 0.0888
H15 H 0.6912 0.1601 0.1786
H16 H 0.4970 0.1869 0.2290
H17 H 0.3146 0.1279 0.1902
H18 H 0.1951 0.2005 -0.1426
H19 H 0.3912 0.1580 -0.1470
H20 H 0.3943 0.1472 -0.0629
H21 H 0.3272 -0.0662 -0.1514
H22 H 0.2717 -0.1904 -0.1596
H23 H 0.0716 -0.2273 -0.1261
H24 H -0.0763 -0.1435 -0.0869
H25 H -0.2206 0.1442 -0.0662
H26 H -0.3197 0.2091 -0.1564
H27 H -0.3101 0.1684 -0.2724
H28 H -0.1982 0.0619 -0.2998
H29 H -0.1015 -0.0042 -0.2099
H30 H -0.1358 -0.0800 0.0658
H31 H -0.2960 -0.1598 0.0998
H32 H -0.4735 -0.1752 0.0293
H33 H -0.4894 -0.1120 -0.0773
H34 H -0.3283 -0.0353 -0.1136
loop_
_geom_bond_atom_site_label_1
_geom_bond_atom_site_label_2
_geom_bond_site_symmetry_1
_geom_bond_site_symmetry_2
P1 C9 1_555 1_555
P2 C30 1_555 1_555
O1 C1 1_555 1_555
O2 C22 1_555 1_555
N1 C1 1_555 1_555
N2 C22 1_555 1_555
C1 C4 1_555 1_555
C2 N1 1_555 1_555
C3 O1 1_555 1_555
C4 C5 1_555 1_555
C5 C6 1_555 1_555
C6 C7 1_555 1_555
C7 C8 1_555 1_555
C8 C9 1_555 1_555
C9 C4 1_555 1_555
C10 P1 1_555 1_555
C11 C10 1_555 1_555
C12 C11 1_555 1_555
C13 C12 1_555 1_555
C14 C13 1_555 1_555
C15 C10 1_555 1_555
C16 P1 1_555 1_555
C17 C16 1_555 1_555
C18 C17 1_555 1_555
C19 C18 1_555 1_555
C20 C19 1_555 1_555
C21 C16 1_555 1_555
C22 C25 1_555 1_555
C23 N2 1_555 1_555
C24 O2 1_555 1_555
C25 C26 1_555 1_555
C26 C27 1_555 1_555
C27 C28 1_555 1_555
C28 C29 1_555 1_555
C29 C30 1_555 1_555
C30 C25 1_555 1_555
C31 P2 1_555 1_555
C32 C31 1_555 1_555
C33 C32 1_555 1_555
C34 C33 1_555 1_555
C35 C34 1_555 1_555
C36 C31 1_555 1_555
C37 P2 1_555 1_555
C38 C37 1_555 1_555
C39 C38 1_555 1_555
C40 C39 1_555 1_555
C41 C40 1_555 1_555
C42 C37 1_555 1_555
H1 C2 1_555 1_555
H2 C3 1_555 1_555
H3 C3 1_555 1_555
H4 C5 1_555 1_555
H5 C6 1_555 1_555
H6 C7 1_555 1_555
H7 C8 1_555 1_555
H8 C11 1_555 1_555
H9 C12 1_555 1_555
H10 C13 1_555 1_555
H11 C14 1_555 1_555
H12 C15 1_555 1_555
H13 C17 1_555 1_555
H14 C18 1_555 1_555
H15 C19 1_555 1_555
H16 C20 1_555 1_555
H17 C21 1_555 1_555
H18 C23 1_555 1_555
H19 C24 1_555 1_555
H20 C24 1_555 1_555
H21 C26 1_555 1_555
H22 C27 1_555 1_555
H23 C28 1_555 1_555
H24 C29 1_555 1_555
H25 C32 1_555 1_555
H26 C33 1_555 1_555
H27 C34 1_555 1_555
H28 C35 1_555 1_555
H29 C36 1_555 1_555
H30 C38 1_555 1_555
H31 C39 1_555 1_555
H32 C40 1_555 1_555
H33 C41 1_555 1_555
H34 C42 1_555 1_555
C2 C3 1_555 1_555
C2 C23 1_555 1_555
C14 C15 1_555 1_555
C20 C21 1_555 1_555
C23 C24 1_555 1_555
C35 C36 1_555 1_555
C41 C42 1_555 1_555

#END
