
#######################################################################
#
#                 Cambridge Crystallographic Data Centre
#                                CCDC 
#
#######################################################################
#
# If this CIF has been generated from an entry in the Cambridge 
# Structural Database, then it will include bibliographic, chemical, 
# crystal, experimental, refinement or atomic coordinate data resulting 
# from the CCDC's data processing and validation procedures.
#
#######################################################################

data_QECHEL
_chemical_name_common            '3,3-di(acetic ether)-2,4-pentanedione'
_chemical_formula_moiety         'C13 H20 O6'
_chemical_name_systematic        'Diethyl 3,3-diacetylpentane-1,5-dicarboxylate'
_symmetry_cell_setting           monoclinic
_symmetry_space_group_name_H-M   'C 2/c'
_symmetry_Int_Tables_number      15
_space_group_name_Hall           '-C 2yn'
loop_
_symmetry_equiv_pos_site_id
_symmetry_equiv_pos_as_xyz
1 x,y,z
2 -x,y,1/2-z
3 1/2+x,1/2+y,z
4 1/2-x,1/2+y,1/2-z
5 -x,-y,-z
6 x,-y,1/2+z
7 1/2-x,1/2-y,-z
8 1/2+x,1/2-y,1/2+z
_cell_length_a                   14.864(2)
_cell_length_b                   10.5674(7)
_cell_length_c                   9.5053(6)
_cell_angle_alpha                90
_cell_angle_beta                 101.825(6)
_cell_angle_gamma                90
_cell_volume                     1461.35
_exptl_crystal_colour            colorless
_chemical_melting_point          53.5-56deg.C
_cell_formula_units_Z            4
loop_
_atom_site_label
_atom_site_type_symbol
_atom_site_fract_x
_atom_site_fract_y
_atom_site_fract_z
O1 O -0.1720(1) 0.3741(1) 0.2011(1)
O2 O -0.1080(1) 0.5100(1) 0.0724(1)
O3 O 0.0847(1) 0.1312(1) 0.0929(1)
C1 C 0.0000 0.2318(1) 0.2500
C2 C -0.0364(1) 0.3142(1) 0.1185(1)
C3 C -0.1129(1) 0.4002(1) 0.1369(1)
C4 C -0.1773(1) 0.6052(1) 0.0834(1)
C5 C -0.1455(1) 0.6844(1) 0.2111(1)
C6 C 0.0752(1) 0.1427(1) 0.2150(1)
C7 C 0.1331(1) 0.0703(1) 0.3347(1)
C2A C 0.0364(1) 0.3142(1) 0.3815(1)
C3A C 0.1129(1) 0.4002(1) 0.3631(1)
O1A O 0.1720(1) 0.3741(1) 0.2989(1)
O2A O 0.1080(1) 0.5100(1) 0.4276(1)
C4A C 0.1773(1) 0.6052(1) 0.4166(1)
C5A C 0.1455(1) 0.6844(1) 0.2889(1)
C6A C -0.0752(1) 0.1427(1) 0.2850(1)
O3A O -0.0847(1) 0.1312(1) 0.4071(1)
C7A C -0.1331(1) 0.0703(1) 0.1653(1)
loop_
_geom_bond_atom_site_label_1
_geom_bond_atom_site_label_2
_geom_bond_site_symmetry_1
_geom_bond_site_symmetry_2
O1 C3 1_555 1_555
O2 C3 1_555 1_555
O3 C6 1_555 1_555
C1 C2 1_555 1_555
C2 C3 1_555 1_555
C4 O2 1_555 1_555
C5 C4 1_555 1_555
C6 C1 1_555 1_555
C7 C6 1_555 1_555
C2A C1 1_555 1_555
C3A C2A 1_555 1_555
O1A C3A 1_555 1_555
O2A C3A 1_555 1_555
C4A O2A 1_555 1_555
C5A C4A 1_555 1_555
C6A C1 1_555 1_555
O3A C6A 1_555 1_555
C7A C6A 1_555 1_555

#END
