
#######################################################################
#
#                 Cambridge Crystallographic Data Centre
#                                CCDC 
#
#######################################################################
#
# If this CIF has been generated from an entry in the Cambridge 
# Structural Database, then it will include bibliographic, chemical, 
# crystal, experimental, refinement or atomic coordinate data resulting 
# from the CCDC's data processing and validation procedures.
#
#######################################################################

data_QECNIY
_chemical_formula_moiety         'C6 H9 N5 O2,3(H2 O1)'
_chemical_name_systematic        
'methyl 5-amino-3-methoxy-1,2,4-triazine-6-carboximidate trihydrate'
_symmetry_cell_setting           triclinic
_symmetry_space_group_name_H-M   'P -1'
_symmetry_Int_Tables_number      2
_space_group_name_Hall           '-P 1'
loop_
_symmetry_equiv_pos_site_id
_symmetry_equiv_pos_as_xyz
1 x,y,z
2 -x,-y,-z
_cell_length_a                   6.7937(12)
_cell_length_b                   7.1517(12)
_cell_length_c                   12.0380(19)
_cell_angle_alpha                83.522(6)
_cell_angle_beta                 75.242(7)
_cell_angle_gamma                75.545(6)
_cell_volume                     546.927
_exptl_crystal_description       sheet
_cell_formula_units_Z            2
loop_
_atom_site_label
_atom_site_type_symbol
_atom_site_fract_x
_atom_site_fract_y
_atom_site_fract_z
C1 C 0.2239(4) 0.7502(4) 0.1347(2)
C2 C 0.2576(4) 0.7524(3) -0.0572(2)
C3 C 0.2554(4) 0.5507(3) -0.0400(2)
C4 C 0.2230(5) 1.0344(4) 0.2195(2)
H1 H 0.3512 1.0470 0.1623
H2 H 0.2277 1.0743 0.2938
H3 H 0.1016 1.1170 0.1946
C5 C 0.2712(4) 0.4167(3) -0.1300(2)
C6 C 0.3123(5) 0.3796(4) -0.3277(2)
H4 H 0.4390 0.2762 -0.3310
H5 H 0.3240 0.4558 -0.4010
H6 H 0.1904 0.3228 -0.3132
N1 N 0.2410(3) 0.4640(3) 0.06369(18)
N2 N 0.2262(4) 0.5612(3) 0.15503(18)
N3 N 0.2388(3) 0.8500(3) 0.03570(17)
N4 N 0.2764(4) 0.8496(3) -0.1576(2)
H7 H 0.276(4) 0.970(4) -0.157(2)
H8 H 0.298(4) 0.790(4) -0.219(2)
N5 N 0.2693(4) 0.2401(3) -0.1122(2)
H9 H 0.258(4) 0.205(4) -0.035(2)
O1 O 0.2059(3) 0.8354(2) 0.23074(15)
O2 O 0.2882(3) 0.5036(2) -0.23582(15)
O3 O 0.4275(4) 0.8564(3) 0.5791(2)
H10 H 0.327(4) 0.828(4) 0.563(3)
H11 H 0.467(10) 0.946(8) 0.537(5)
O4 O 0.0857(4) 0.7913(3) 0.50707(19)
H13 H 0.136(5) 0.735(4) 0.4486(19)
H14 H 0.045(6) 0.908(3) 0.502(4)
O5 O 0.2199(4) 0.4231(3) 0.38518(17)
H16 H 0.220(5) 0.462(4) 0.3176(16)
H17 H 0.120(7) 0.371(8) 0.415(4)
H12? H 0.518(6) 0.761(5) 0.593(6)
H15? H -0.026(6) 0.763(9) 0.545(4)
H18? H 0.320(7) 0.333(6) 0.392(4)
loop_
_geom_bond_atom_site_label_1
_geom_bond_atom_site_label_2
_geom_bond_site_symmetry_1
_geom_bond_site_symmetry_2
C1 N2 1_555 1_555
C2 C3 1_555 1_555
C3 C5 1_555 1_555
C4 H1 1_555 1_555
H2 C4 1_555 1_555
H3 C4 1_555 1_555
C5 N5 1_555 1_555
C6 H4 1_555 1_555
H5 C6 1_555 1_555
H6 C6 1_555 1_555
N1 C3 1_555 1_555
N2 N1 1_555 1_555
N3 C1 1_555 1_555
N4 C2 1_555 1_555
H7 N4 1_555 1_555
H8 N4 1_555 1_555
N5 H9 1_555 1_555
O1 C1 1_555 1_555
O2 C5 1_555 1_555
O3 H10 1_555 1_555
H11 O3 1_555 1_555
O4 H13 1_555 1_555
H14 O4 1_555 1_555
O5 H16 1_555 1_555
H17 O5 1_555 1_555
C2 N3 1_555 1_555
C4 O1 1_555 1_555
C6 O2 1_555 1_555

#END
