
#######################################################################
#
#                 Cambridge Crystallographic Data Centre
#                                CCDC 
#
#######################################################################
#
# If this CIF has been generated from an entry in the Cambridge 
# Structural Database, then it will include bibliographic, chemical, 
# crystal, experimental, refinement or atomic coordinate data resulting 
# from the CCDC's data processing and validation procedures.
#
#######################################################################

data_QEDLOC
_chemical_formula_moiety         'C11 H13 Cl1 N2 O3'
_chemical_name_systematic        
N-(5-Chloro-2-nitrophenyl)-2,2-dimethylpropanamide
_symmetry_cell_setting           orthorhombic
_symmetry_space_group_name_H-M   'P n m a'
_symmetry_Int_Tables_number      62
_space_group_name_Hall           '-P 2ac 2n'
loop_
_symmetry_equiv_pos_site_id
_symmetry_equiv_pos_as_xyz
1 x,y,z
2 1/2-x,-y,1/2+z
3 1/2+x,1/2-y,1/2-z
4 -x,1/2+y,-z
5 -x,-y,-z
6 1/2+x,y,1/2-z
7 1/2-x,1/2+y,1/2+z
8 x,1/2-y,z
_cell_length_a                   10.401(2)
_cell_length_b                   7.0280(14)
_cell_length_c                   17.106(3)
_cell_angle_alpha                90
_cell_angle_beta                 90
_cell_angle_gamma                90
_cell_volume                     1250.42
_exptl_crystal_colour            colorless
_exptl_crystal_description       block
_cell_formula_units_Z            4
loop_
_atom_site_label
_atom_site_type_symbol
_atom_site_fract_x
_atom_site_fract_y
_atom_site_fract_z
Cl1 Cl 0.24447(9) 0.2500 0.50682(10)
N1 N 0.7748(5) 0.2500 0.3855(3)
C1 C 0.4982(4) 0.2500 0.5237(3)
H1 H 0.4794 0.2500 0.5769
O1 O 0.7853(5) 0.2500 0.3151(3)
N2 N 0.7290(3) 0.2500 0.5525(2)
H2 H 0.8046 0.2500 0.5321
O2 O 0.8711(4) 0.2500 0.4258(3)
C2 C 0.4005(4) 0.2500 0.4726(3)
O3 O 0.6267(3) 0.2500 0.6688(2)
C3 C 0.4218(5) 0.2500 0.3921(3)
H3 H 0.3541 0.2500 0.3565
C4 C 0.5469(7) 0.2500 0.3681(3)
H4 H 0.5640 0.2500 0.3147
C5 C 0.6479(4) 0.2500 0.4186(3)
C6 C 0.6275(4) 0.2500 0.5004(3)
C7 C 0.7243(4) 0.2500 0.6321(3)
C8 C 0.8531(4) 0.2500 0.6754(3)
C9 C 0.9244(4) 0.0714(7) 0.6607(3)
H5 H 0.9438 0.0615 0.6060
H6 H 1.0029 0.0720 0.6902
H7 H 0.8726 -0.0351 0.6763
C10 C 0.8297(7) 0.2500 0.7644(4)
H8 H 0.9098 0.2500 0.7922
H9 H 0.7814 0.3615 0.7780
C9G C 0.9244(4) 0.4286(7) 0.6607(3)
H5G H 0.9438 0.4385 0.6060
H6G H 1.0029 0.4280 0.6902
H7G H 0.8726 0.5351 0.6763
H9G H 0.7814 0.1385 0.7780
loop_
_geom_bond_atom_site_label_1
_geom_bond_atom_site_label_2
_geom_bond_site_symmetry_1
_geom_bond_site_symmetry_2
Cl1 C2 1_555 1_555
N1 O1 1_555 1_555
C1 H1 1_555 1_555
N2 H2 1_555 1_555
O2 N1 1_555 1_555
C2 C1 1_555 1_555
O3 C7 1_555 1_555
C3 C2 1_555 1_555
H3 C3 1_555 1_555
C4 C3 1_555 1_555
H4 C4 1_555 1_555
C5 N1 1_555 1_555
C6 C1 1_555 1_555
C7 N2 1_555 1_555
C8 C7 1_555 1_555
C9 C8 1_555 1_555
H5 C9 1_555 1_555
H6 C9 1_555 1_555
H7 C9 1_555 1_555
C10 C8 1_555 1_555
H8 C10 1_555 1_555
H9 C10 1_555 1_555
C9G C8 1_555 1_555
H5G C9G 1_555 1_555
H6G C9G 1_555 1_555
H7G C9G 1_555 1_555
H9G C10 1_555 1_555
N2 C6 1_555 1_555
C4 C5 1_555 1_555
C5 C6 1_555 1_555

#END
