
#######################################################################
#
#                 Cambridge Crystallographic Data Centre
#                                CCDC 
#
#######################################################################
#
# If this CIF has been generated from an entry in the Cambridge 
# Structural Database, then it will include bibliographic, chemical, 
# crystal, experimental, refinement or atomic coordinate data resulting 
# from the CCDC's data processing and validation procedures.
#
#######################################################################

data_QEDNOF
_chemical_formula_moiety         'C16 H13 N1 O2'
_chemical_name_systematic        3-(benzylamino)-2H-chromen-2-one
_symmetry_cell_setting           monoclinic
_symmetry_space_group_name_H-M   'P 21/c'
_symmetry_Int_Tables_number      14
_space_group_name_Hall           '-P 2ybc'
loop_
_symmetry_equiv_pos_site_id
_symmetry_equiv_pos_as_xyz
1 x,y,z
2 -x,1/2+y,1/2-z
3 -x,-y,-z
4 x,1/2-y,1/2+z
_cell_length_a                   9.1014(5)
_cell_length_b                   5.8581(4)
_cell_length_c                   23.9958(12)
_cell_angle_alpha                90
_cell_angle_beta                 95.595(5)
_cell_angle_gamma                90
_cell_volume                     1273.29
_exptl_crystal_colour            'metallic colorless'
_exptl_crystal_description       block
_cell_formula_units_Z            4
loop_
_atom_site_label
_atom_site_type_symbol
_atom_site_fract_x
_atom_site_fract_y
_atom_site_fract_z
O1 O 0.17513(15) 0.0685(3) 0.14723(6)
C1 C -0.0010(2) 0.4557(4) 0.13461(7)
H1 H -0.0601 0.5853 0.1307
N1 N -0.10014(17) 0.3038(3) 0.04471(6)
H2 H -0.1057 0.1855 0.0234
C2 C 0.0859(2) 0.0959(4) 0.09906(8)
C3 C -0.00936(19) 0.2973(4) 0.09336(7)
C4 C 0.0977(2) 0.4260(4) 0.18406(7)
C5 C 0.1829(2) 0.2287(4) 0.18994(8)
O2 O 0.09030(18) -0.0497(3) 0.06340(6)
C6 C -0.3239(2) 0.5360(4) 0.05778(7)
C7 C -0.3774(2) 0.3704(4) 0.09132(8)
H3 H -0.3277 0.2321 0.0965
C8 C 0.2787(2) 0.1836(5) 0.23682(9)
H4 H 0.3338 0.0497 0.2395
C9 C -0.1872(2) 0.5024(4) 0.02783(8)
H5 H -0.2166 0.4919 -0.0120
H6 H -0.1253 0.6367 0.0339
C10 C 0.1138(2) 0.5826(4) 0.22818(8)
H7 H 0.0596 0.7175 0.2257
C11 C -0.4007(2) 0.7398(4) 0.05086(9)
H8 H -0.3657 0.8544 0.0288
C12 C -0.5798(2) 0.6105(5) 0.10950(10)
H9 H -0.6655 0.6349 0.1268
C13 C 0.2908(3) 0.3408(5) 0.27944(10)
H10 H 0.3546 0.3135 0.3114
C14 C 0.2083(3) 0.5399(5) 0.27506(9)
H11 H 0.2172 0.6454 0.3041
C15 C -0.5046(2) 0.4086(4) 0.11737(10)
H12 H -0.5391 0.2966 0.1403
C16 C -0.5290(3) 0.7751(5) 0.07633(10)
H13 H -0.5805 0.9117 0.0707
loop_
_geom_bond_atom_site_label_1
_geom_bond_atom_site_label_2
_geom_bond_site_symmetry_1
_geom_bond_site_symmetry_2
O1 C2 1_555 1_555
C1 H1 1_555 1_555
N1 H2 1_555 1_555
C2 C3 1_555 1_555
C3 C1 1_555 1_555
C4 C1 1_555 1_555
C5 O1 1_555 1_555
O2 C2 1_555 1_555
C6 C7 1_555 1_555
C7 H3 1_555 1_555
C8 C5 1_555 1_555
H4 C8 1_555 1_555
C9 N1 1_555 1_555
H5 C9 1_555 1_555
H6 C9 1_555 1_555
C10 C4 1_555 1_555
H7 C10 1_555 1_555
C11 C6 1_555 1_555
H8 C11 1_555 1_555
C12 H9 1_555 1_555
C13 C8 1_555 1_555
H10 C13 1_555 1_555
C14 C10 1_555 1_555
H11 C14 1_555 1_555
C15 C7 1_555 1_555
H12 C15 1_555 1_555
C16 C11 1_555 1_555
H13 C16 1_555 1_555
N1 C3 1_555 1_555
C4 C5 1_555 1_555
C6 C9 1_555 1_555
C12 C15 1_555 1_555
C12 C16 1_555 1_555
C13 C14 1_555 1_555

#END
