
#######################################################################
#
#                 Cambridge Crystallographic Data Centre
#                                CCDC 
#
#######################################################################
#
# If this CIF has been generated from an entry in the Cambridge 
# Structural Database, then it will include bibliographic, chemical, 
# crystal, experimental, refinement or atomic coordinate data resulting 
# from the CCDC's data processing and validation procedures.
#
#######################################################################

data_QEFPOG
_chemical_formula_moiety         'C12 H10 N2 O4 S2,C14 H10'
_chemical_name_systematic        
"1,4-Dithiine-tetracarboxylic N,N'-diethyldi-imide anthracene"
_symmetry_cell_setting           triclinic
_symmetry_space_group_name_H-M   'P -1'
_symmetry_Int_Tables_number      2
_space_group_name_Hall           '-P 1'
loop_
_symmetry_equiv_pos_site_id
_symmetry_equiv_pos_as_xyz
1 x,y,z
2 -x,-y,-z
_cell_length_a                   7.2647(2)
_cell_length_b                   7.3961(2)
_cell_length_c                   10.4962(2)
_cell_angle_alpha                87.9500(10)
_cell_angle_beta                 84.0650(10)
_cell_angle_gamma                83.0860(10)
_cell_volume                     556.708
_exptl_crystal_colour            red
_exptl_crystal_description       prism
_cell_formula_units_Z            1
loop_
_atom_site_label
_atom_site_type_symbol
_atom_site_fract_x
_atom_site_fract_y
_atom_site_fract_z
S1 S -0.47249(6) -0.22814(5) 0.07636(4)
O1 O -0.2455(2) -0.4373(2) -0.15589(13)
O2 O -0.3279(2) 0.1264(2) -0.34869(12)
N1 N -0.2632(2) -0.1769(2) -0.28532(13)
C1 C -0.2944(2) -0.2766(2) -0.17204(15)
C2 C -0.3988(2) -0.1472(2) -0.07617(14)
C3 C -0.5792(2) -0.0191(2) 0.13277(14)
C4 C -0.3344(2) 0.0048(2) -0.26871(15)
C5 C -0.1618(2) -0.2537(3) -0.4025(2)
C6 C -0.2779(3) -0.3644(3) -0.4746(2)
H1 H -0.0512(38) -0.3228(37) -0.3741(26)
H2 H -0.1258(39) -0.1488(39) -0.4532(27)
H3 H -0.2041(38) -0.4181(37) -0.5509(27)
H4 H -0.3895(42) -0.2883(41) -0.5003(28)
H5 H -0.3168(42) -0.4711(43) -0.4233(29)
C3A C -0.4208(2) 0.0191(2) -0.13277(14)
S1A S -0.52751(6) 0.22814(5) -0.07636(4)
C2A C -0.6012(2) 0.1472(2) 0.07617(14)
C1A C -0.7056(2) 0.2766(2) 0.17204(15)
O1A O -0.7545(2) 0.4373(2) 0.15589(13)
N1A N -0.7368(2) 0.1769(2) 0.28532(13)
C4A C -0.6656(2) -0.0048(2) 0.26871(15)
O2A O -0.6721(2) -0.1264(2) 0.34869(12)
C5A C -0.8382(2) 0.2537(3) 0.4025(2)
C6A C -0.7221(3) 0.3644(3) 0.4746(2)
H3A H -0.7959(38) 0.4181(37) 0.5509(27)
H4A H -0.6105(42) 0.2883(41) 0.5003(28)
H5A H -0.6832(42) 0.4711(43) 0.4233(29)
H1A H -0.9488(38) 0.3228(37) 0.3741(26)
H2A H -0.8742(39) 0.1488(39) 0.4532(27)
C7 C 0.0177(2) -0.1681(2) 0.0674(2)
C8 C 0.0947(2) -0.1577(2) -0.06006(15)
C9 C 0.1943(2) -0.3133(2) -0.1235(2)
C10 C 0.2716(2) -0.2992(3) -0.2474(2)
C11 C 0.2531(3) -0.1291(3) -0.3161(2)
C12 C 0.1588(2) 0.0219(3) -0.2585(2)
C13 C -0.0773(2) -0.0138(2) 0.12870(15)
H6 H 0.0295(31) -0.2891(31) 0.1154(22)
H7 H 0.2060(36) -0.4325(34) -0.0735(25)
H8 H 0.3419(36) -0.4040(36) -0.2876(25)
H9 H 0.3039(38) -0.1271(37) -0.4033(26)
H10 H 0.1498(40) 0.1383(40) -0.3000(28)
C13A C 0.0773(2) 0.0138(2) -0.12870(15)
C7A C -0.0177(2) 0.1681(2) -0.0674(2)
C8A C -0.0947(2) 0.1577(2) 0.06006(15)
C9A C -0.1943(2) 0.3133(2) 0.1235(2)
C10A C -0.2716(2) 0.2992(3) 0.2474(2)
C11A C -0.2531(3) 0.1291(3) 0.3161(2)
C12A C -0.1588(2) -0.0219(3) 0.2585(2)
H10A H -0.1498(40) -0.1383(40) 0.3000(28)
H9A H -0.3039(38) 0.1271(37) 0.4033(26)
H8A H -0.3419(36) 0.4040(36) 0.2876(25)
H7A H -0.2060(36) 0.4325(34) 0.0735(25)
H6A H -0.0295(31) 0.2891(31) -0.1154(22)
loop_
_geom_bond_atom_site_label_1
_geom_bond_atom_site_label_2
_geom_bond_site_symmetry_1
_geom_bond_site_symmetry_2
S1 C2 1_555 1_555
O1 C1 1_555 1_555
O2 C4 1_555 1_555
N1 C1 1_555 1_555
C1 C2 1_555 1_555
C2 C3A 1_555 1_555
C3 S1 1_555 1_555
C4 N1 1_555 1_555
C5 N1 1_555 1_555
C6 C5 1_555 1_555
H1 C5 1_555 1_555
H2 C5 1_555 1_555
H3 C6 1_555 1_555
H4 C6 1_555 1_555
H5 C6 1_555 1_555
C7 C8 1_555 1_555
C8 C9 1_555 1_555
C9 C10 1_555 1_555
C10 C11 1_555 1_555
C11 C12 1_555 1_555
C12 H10 1_555 1_555
C13 C7 1_555 1_555
H6 C7 1_555 1_555
H7 C9 1_555 1_555
H8 C10 1_555 1_555
H9 C11 1_555 1_555
C3A C4 1_555 1_555
S1A C3A 1_555 1_555
C2A C3 1_555 1_555
C1A C2A 1_555 1_555
O1A C1A 1_555 1_555
N1A C1A 1_555 1_555
C4A C3 1_555 1_555
O2A C4A 1_555 1_555
C5A N1A 1_555 1_555
C6A C5A 1_555 1_555
H3A C6A 1_555 1_555
H4A C6A 1_555 1_555
H5A C6A 1_555 1_555
H1A C5A 1_555 1_555
H2A C5A 1_555 1_555
C13A C8 1_555 1_555
C7A C13A 1_555 1_555
C8A C13 1_555 1_555
C9A C8A 1_555 1_555
C10A C9A 1_555 1_555
C11A C10A 1_555 1_555
C12A C13 1_555 1_555
H10A C12A 1_555 1_555
H9A C11A 1_555 1_555
H8A C10A 1_555 1_555
H7A C9A 1_555 1_555
H6A C7A 1_555 1_555
C12 C13A 1_555 1_555
S1A C2A 1_555 1_555
N1A C4A 1_555 1_555
C7A C8A 1_555 1_555
C11A C12A 1_555 1_555

#END
