
#######################################################################
#
#                 Cambridge Crystallographic Data Centre
#                                CCDC 
#
#######################################################################
#
# If this CIF has been generated from an entry in the Cambridge 
# Structural Database, then it will include bibliographic, chemical, 
# crystal, experimental, refinement or atomic coordinate data resulting 
# from the CCDC's data processing and validation procedures.
#
#######################################################################

data_QEFPOG02
_chemical_formula_moiety         
'0.82(C12 H10 N2 O4 S2),0.82(C14 H10),0.18(C26 H20 N2 O4 S2)'
_chemical_name_systematic        
"1,4-Dithiine-tetracarboxylic N,N'-diethyldi-imide anthracene 5,15-diethyl-2,8-dithia-5,15-diaza-11,12:17,18-dibenzopentacyclo(7.4.3.2^10,13^.0.0^3,7^)octadeca-3(7),11,17-triene-4,6,14,16-tetraone"
_symmetry_cell_setting           triclinic
_symmetry_space_group_name_H-M   'P -1'
_symmetry_Int_Tables_number      2
_space_group_name_Hall           '-P 1'
loop_
_symmetry_equiv_pos_site_id
_symmetry_equiv_pos_as_xyz
1 x,y,z
2 -x,-y,-z
_cell_length_a                   7.3366(5)
_cell_length_b                   7.4234(6)
_cell_length_c                   10.4827(8)
_cell_angle_alpha                88.256(2)
_cell_angle_beta                 85.090(2)
_cell_angle_gamma                82.415(2)
_cell_volume                     563.736
_exptl_crystal_colour            orange
_exptl_crystal_description       prism
_cell_formula_units_Z            1
loop_
_atom_site_label
_atom_site_type_symbol
_atom_site_fract_x
_atom_site_fract_y
_atom_site_fract_z
S1 S 0.03102(11) 0.27347(11) 0.57716(6)
O1 O 0.2537(4) 0.0599(3) 0.3463(3)
O2 O 0.1647(4) 0.6211(3) 0.1512(2)
N1 N 0.2330(3) 0.3201(2) 0.2161(2)
C8 C 0.2038(3) 0.2210(4) 0.3290(3)
C9 C 0.1605(4) 0.5027(3) 0.2324(2)
C10 C 0.1022(3) 0.3515(2) 0.4250(2)
C11 C -0.0782(3) 0.4832(2) 0.6322(2)
C12 C 0.3326(4) 0.2421(5) 0.0989(3)
C13 C 0.2136(7) 0.1388(5) 0.0242(2)
H6 H 0.3792(26) 0.3527(28) 0.0467(19)
H7 H 0.4442(25) 0.1611(28) 0.1258(18)
H8 H 0.2904(30) 0.0775(31) -0.0480(21)
H9 H 0.1133(31) 0.2119(29) 0.0008(22)
H10 H 0.1738(29) 0.0354(32) 0.0740(21)
C11A C 0.0782(3) 0.5168(2) 0.3678(2)
S1A S -0.03102(11) 0.72653(11) 0.42284(6)
C10A C -0.1022(3) 0.6485(2) 0.5750(2)
C8A C -0.2038(3) 0.7790(4) 0.6710(3)
O1A O -0.2537(4) 0.9401(3) 0.6537(3)
N1A N -0.2330(3) 0.6799(2) 0.7839(2)
C9A C -0.1605(4) 0.4973(3) 0.7676(2)
O2A O -0.1647(4) 0.3789(3) 0.8488(2)
C12A C -0.3326(4) 0.7579(5) 0.9011(3)
C13A C -0.2136(7) 0.8612(5) 0.9758(2)
H8A H -0.2904(30) 0.9225(31) 1.0480(21)
H9A H -0.1133(31) 0.7881(29) 0.9992(22)
H10A H -0.1738(29) 0.9646(32) 0.9260(21)
H6A H -0.3792(26) 0.6473(28) 0.9533(19)
H7A H -0.4442(25) 0.8389(28) 0.8742(18)
C1 C 0.6516(4) 0.5212(4) 0.2414(3)
C2 C 0.7463(4) 0.3692(4) 0.1838(2)
C3 C 0.7681(4) 0.2017(5) 0.2526(2)
C4 C 0.6933(5) 0.1880(4) 0.3763(4)
C5 C 0.5950(2) 0.3430(2) 0.43956(14)
C6 C 0.5733(2) 0.5138(2) 0.37125(14)
C7 C 0.5211(2) 0.3322(2) 0.56708(14)
H1 H 0.6368(35) 0.6392(35) 0.1988(25)
H2 H 0.7954(27) 0.3736(27) 0.0957(19)
H3 H 0.8373(26) 0.0889(27) 0.2133(18)
H4 H 0.7032(27) 0.0709(28) 0.4269(19)
H5 H 0.5371(27) 0.2136(29) 0.6142(20)
C7A C 0.4789(2) 0.6678(2) 0.43292(14)
C5A C 0.4050(2) 0.6570(2) 0.56044(14)
C4A C 0.3067(5) 0.8120(4) 0.6237(4)
C3A C 0.2319(4) 0.7983(5) 0.7474(2)
C2A C 0.2537(4) 0.6308(4) 0.8162(2)
C1A C 0.3484(4) 0.4788(4) 0.7586(3)
C6A C 0.4267(2) 0.4862(2) 0.62875(14)
H1A H 0.3632(35) 0.3608(35) 0.8012(25)
H2A H 0.2046(27) 0.6264(27) 0.9043(19)
H3A H 0.1627(26) 0.9111(27) 0.7867(18)
H4A H 0.2968(27) 0.9291(28) 0.5731(19)
H5A H 0.4629(27) 0.7864(29) 0.3858(20)
C14? C 0.6089(23) 0.5421(24) 0.2272(15)
H11? H 0.5900(23) 0.6510(24) 0.1870(15)
C15? C 0.7448(26) 0.4187(22) 0.1848(17)
H12? H 0.8185(26) 0.4464(22) 0.1159(17)
C16? C 0.7795(27) 0.2450(25) 0.2431(18)
H13? H 0.8735(27) 0.1645(25) 0.2109(18)
C17? C 0.6712(26) 0.1987(24) 0.3480(18)
H14? H 0.6927(26) 0.0884(24) 0.3859(18)
C18? C 0.5199(15) 0.3322(15) 0.3972(10)
C19? C 0.4952(15) 0.5024(14) 0.3343(10)
C20? C 0.3384(14) 0.6277(15) 0.3900(10)
H15? H 0.3284(14) 0.7505(15) 0.3473(10)
C21? C 0.3458(16) 0.4540(24) 0.7311(15)
H16? H 0.3616(16) 0.3437(24) 0.7696(15)
C22? C 0.3126(18) 0.6013(21) 0.8032(14)
H17? H 0.3065(18) 0.5900(21) 0.8891(14)
C23? C 0.2863(19) 0.7805(24) 0.7424(17)
H18? H 0.2652(19) 0.8808(24) 0.7903(17)
C24? C 0.2938(22) 0.7953(27) 0.6119(21)
H19? H 0.2773(22) 0.9060(27) 0.5739(21)
C25? C 0.3276(12) 0.6372(17) 0.5352(12)
C26? C 0.3568(14) 0.4655(17) 0.5974(13)
C27? C 0.3863(14) 0.3105(15) 0.5073(10)
H20? H 0.4113(14) 0.1901(15) 0.5522(10)
S2? S 0.0112(15) 0.2560(12) 0.5568(8)
O3? O 0.2318(32) 0.0296(29) 0.3487(28)
O4? O 0.1438(28) 0.5804(24) 0.1460(23)
N2? N 0.1880(14) 0.2859(20) 0.2247(16)
C28? C 0.2104(27) 0.1895(34) 0.3398(29)
C29? C 0.1634(17) 0.4654(22) 0.2286(22)
C30? C 0.1936(17) 0.3347(16) 0.4416(11)
C31? C 0.1626(17) 0.5243(15) 0.3737(11)
C32? C 0.1931(17) 0.2080(18) 0.0927(13)
H21? H 0.1217(17) 0.1035(18) 0.0965(13)
H22? H 0.1360(17) 0.3014(18) 0.0337(13)
C33? C 0.3807(26) 0.1499(27) 0.0458(19)
H23? H 0.3832(30) 0.099(20) -0.0395(65)
H24? H 0.4366(70) 0.057(15) 0.1043(81)
H25? H 0.4504(59) 0.2541(47) 0.041(14)
S3? S -0.0524(7) 0.6735(6) 0.4086(4)
O5? O -0.2541(35) 0.9021(22) 0.6535(28)
O6? O -0.1578(42) 0.3455(28) 0.8437(23)
N3? N -0.2280(26) 0.6437(22) 0.7790(16)
C34? C -0.2016(22) 0.7432(22) 0.6584(16)
C35? C -0.1600(31) 0.4653(26) 0.7658(20)
C36? C -0.1112(16) 0.6078(21) 0.5708(14)
C37? C -0.0821(28) 0.4430(20) 0.6259(16)
C38? C -0.3180(37) 0.7415(54) 0.8910(28)
H26? H -0.3495(37) 0.6503(54) 0.9573(28)
H27? H -0.4357(37) 0.8090(54) 0.8662(28)
C39? C -0.2148(72) 0.8728(57) 0.9514(33)
H28? H -0.232(20) 0.860(17) 1.0448(33)
H29? H -0.261(18) 0.9971(60) 0.925(13)
H30? H -0.0831(78) 0.847(16) 0.924(14)
loop_
_geom_bond_atom_site_label_1
_geom_bond_atom_site_label_2
_geom_bond_site_symmetry_1
_geom_bond_site_symmetry_2
C1 C2 1_555 1_555
C2 C3 1_555 1_555
C3 C4 1_555 1_555
C4 C5 1_555 1_555
C5 C6 1_555 1_555
C6 C1 1_555 1_555
C7 C5 1_555 1_555
H1 C1 1_555 1_555
H2 C2 1_555 1_555
H3 C3 1_555 1_555
H4 C4 1_555 1_555
H5 C7 1_555 1_555
S1 C10 1_555 1_555
O1 C8 1_555 1_555
O2 C9 1_555 1_555
N1 C8 1_555 1_555
C8 C10 1_555 1_555
C9 N1 1_555 1_555
C10 C11A 1_555 1_555
C11 S1 1_555 1_555
C12 N1 1_555 1_555
C13 C12 1_555 1_555
H6 C12 1_555 1_555
H7 C12 1_555 1_555
H8 C13 1_555 1_555
H9 C13 1_555 1_555
H10 C13 1_555 1_555
C7A C6 1_555 1_555
C5A C7A 1_555 1_555
C4A C5A 1_555 1_555
C3A C4A 1_555 1_555
C2A C3A 1_555 1_555
C1A C2A 1_555 1_555
C6A C7 1_555 1_555
H1A C1A 1_555 1_555
H2A C2A 1_555 1_555
H3A C3A 1_555 1_555
H4A C4A 1_555 1_555
H5A C7A 1_555 1_555
C11A C9 1_555 1_555
S1A C11A 1_555 1_555
C10A C11 1_555 1_555
C8A C10A 1_555 1_555
O1A C8A 1_555 1_555
N1A C8A 1_555 1_555
C9A C11 1_555 1_555
O2A C9A 1_555 1_555
C12A N1A 1_555 1_555
C13A C12A 1_555 1_555
H8A C13A 1_555 1_555
H9A C13A 1_555 1_555
H10A C13A 1_555 1_555
H6A C12A 1_555 1_555
H7A C12A 1_555 1_555
C5A C6A 1_555 1_555
C1A C6A 1_555 1_555
S1A C10A 1_555 1_555
N1A C9A 1_555 1_555

#END
