
#######################################################################
#
#                 Cambridge Crystallographic Data Centre
#                                CCDC 
#
#######################################################################
#
# If this CIF has been generated from an entry in the Cambridge 
# Structural Database, then it will include bibliographic, chemical, 
# crystal, experimental, refinement or atomic coordinate data resulting 
# from the CCDC's data processing and validation procedures.
#
#######################################################################

data_QEFRIF
_chemical_formula_moiety         'C36 H29 N3 O3'
_chemical_name_systematic        
2-benzyl-3-[(1,3-dioxo-1,3-dihydro-2H-isoindol-2-yl)methyl]-5-phenyl-N-(quinolin-8-yl)pent-4-enamide
_symmetry_cell_setting           monoclinic
_symmetry_space_group_name_H-M   'P 21/n'
_symmetry_Int_Tables_number      14
_space_group_name_Hall           '-P 2yn'
loop_
_symmetry_equiv_pos_site_id
_symmetry_equiv_pos_as_xyz
1 x,y,z
2 1/2-x,1/2+y,1/2-z
3 -x,-y,-z
4 1/2+x,1/2-y,1/2+z
_cell_length_a                   10.3980(4)
_cell_length_b                   18.5954(7)
_cell_length_c                   15.0498(6)
_cell_angle_alpha                90
_cell_angle_beta                 98.417(2)
_cell_angle_gamma                90
_cell_volume                     2878.61
_exptl_crystal_colour            colorless
_exptl_crystal_description       block
_cell_formula_units_Z            4
loop_
_atom_site_label
_atom_site_type_symbol
_atom_site_fract_x
_atom_site_fract_y
_atom_site_fract_z
O1 O 0.00349(8) 0.39811(4) 0.51989(5)
O2 O 0.36803(8) 0.38203(5) 0.38408(6)
O3 O 0.37112(8) 0.48154(5) 0.79698(5)
N1 N 0.19481(9) 0.40687(5) 0.45987(6)
N2 N 0.56127(9) 0.52047(5) 0.75421(7)
H1 H 0.5966(15) 0.5369(8) 0.7090(11)
N3 N 0.80863(9) 0.49088(5) 0.72852(7)
C1 C 0.07931(11) 0.37368(6) 0.47357(7)
C2 C 0.07296(11) 0.30505(6) 0.42230(8)
C3 C -0.02063(12) 0.25172(7) 0.41187(8)
H2 H -0.0982 0.2559 0.4379
C4 C 0.00356(13) 0.19152(7) 0.36163(9)
H3 H -0.0584 0.1537 0.3534
C5 C 0.11693(14) 0.18610(7) 0.32341(9)
H4 H 0.1312 0.1443 0.2899
C6 C 0.21016(13) 0.24042(7) 0.33295(8)
H5 H 0.2872 0.2369 0.3062
C7 C 0.18546(11) 0.29960(6) 0.38306(8)
C8 C 0.26458(11) 0.36540(6) 0.40608(7)
C9 C 0.24182(11) 0.47338(6) 0.50424(8)
H6 H 0.1673 0.5054 0.5094
H7 H 0.2998 0.4983 0.4676
C10 C 0.31653(11) 0.45813(6) 0.59852(8)
H8 H 0.2569 0.4324 0.6343
C11 C 0.43117(11) 0.41026(6) 0.59153(8)
H9 H 0.5027 0.4309 0.5681
C12 C 0.44074(11) 0.34167(6) 0.61532(8)
H10 H 0.3697 0.3214 0.6397
C13 C 0.55189(12) 0.29398(7) 0.60733(8)
C14 C 0.53679(13) 0.21963(7) 0.61141(11)
H11 H 0.4541 0.2001 0.6175
C15 C 0.64080(15) 0.17366(8) 0.60672(12)
H12 H 0.6283 0.1231 0.6086
C16 C 0.76218(14) 0.20093(8) 0.59938(10)
H13 H 0.8336 0.1695 0.5971
C17 C 0.77882(13) 0.27471(8) 0.59537(9)
H14 H 0.8619 0.2939 0.5899
C18 C 0.67513(12) 0.32053(7) 0.59932(8)
H15 H 0.6880 0.3710 0.5965
C19 C 0.36143(11) 0.52872(6) 0.64783(8)
H16 H 0.4245 0.5536 0.6141
C20 C 0.24882(11) 0.58057(6) 0.65776(8)
H17 H 0.2052 0.5947 0.5974
H18 H 0.1842 0.5555 0.6889
C21 C 0.29588(11) 0.64716(6) 0.71000(8)
C22 C 0.28302(13) 0.65426(8) 0.79992(9)
H19 H 0.2423 0.6172 0.8291
C23 C 0.32924(16) 0.71521(10) 0.84770(11)
H20 H 0.3213 0.7192 0.9096
C24 C 0.38653(15) 0.76984(9) 0.80567(13)
H21 H 0.4161 0.8120 0.8380
C25 C 0.40070(14) 0.76296(8) 0.71635(13)
H22 H 0.4411 0.8003 0.6874
C26 C 0.35629(13) 0.70192(7) 0.66872(10)
H23 H 0.3672 0.6974 0.6074
C27 C 0.43093(11) 0.50820(6) 0.74092(8)
C28 C 0.65007(11) 0.49905(6) 0.82917(8)
C29 C 0.61859(12) 0.49347(7) 0.91409(8)
H24 H 0.5338 0.5063 0.9249
C30 C 0.71120(13) 0.46886(8) 0.98580(9)
H25 H 0.6877 0.4652 1.0443
C31 C 0.83374(12) 0.45032(7) 0.97229(8)
H26 H 0.8940 0.4324 1.0208
C32 C 0.87122(11) 0.45773(6) 0.88618(8)
C33 C 0.99812(12) 0.44253(7) 0.86807(9)
H27 H 1.0626 0.4255 0.9146
C34 C 1.02750(12) 0.45241(7) 0.78375(9)
H28 H 1.1129 0.4434 0.7709
C35 C 0.92885(12) 0.47620(7) 0.71569(9)
H29 H 0.9502 0.4821 0.6569
C36 C 0.77937(11) 0.48271(6) 0.81349(8)
loop_
_geom_bond_atom_site_label_1
_geom_bond_atom_site_label_2
_geom_bond_site_symmetry_1
_geom_bond_site_symmetry_2
O1 C1 1_555 1_555
O2 C8 1_555 1_555
O3 C27 1_555 1_555
N1 C1 1_555 1_555
N2 H1 1_555 1_555
N3 C35 1_555 1_555
C1 C2 1_555 1_555
C2 C3 1_555 1_555
C3 H2 1_555 1_555
C4 C3 1_555 1_555
H3 C4 1_555 1_555
C5 C4 1_555 1_555
H4 C5 1_555 1_555
C6 C5 1_555 1_555
H5 C6 1_555 1_555
C7 C2 1_555 1_555
C8 N1 1_555 1_555
C9 N1 1_555 1_555
H6 C9 1_555 1_555
H7 C9 1_555 1_555
C10 C9 1_555 1_555
H8 C10 1_555 1_555
C11 C10 1_555 1_555
H9 C11 1_555 1_555
C12 C11 1_555 1_555
H10 C12 1_555 1_555
C13 C12 1_555 1_555
C14 C13 1_555 1_555
H11 C14 1_555 1_555
C15 C14 1_555 1_555
H12 C15 1_555 1_555
C16 C15 1_555 1_555
H13 C16 1_555 1_555
C17 C16 1_555 1_555
H14 C17 1_555 1_555
C18 C13 1_555 1_555
H15 C18 1_555 1_555
C19 C10 1_555 1_555
H16 C19 1_555 1_555
C20 C19 1_555 1_555
H17 C20 1_555 1_555
H18 C20 1_555 1_555
C21 C20 1_555 1_555
C22 C21 1_555 1_555
H19 C22 1_555 1_555
C23 C22 1_555 1_555
H20 C23 1_555 1_555
C24 C23 1_555 1_555
H21 C24 1_555 1_555
C25 C24 1_555 1_555
H22 C25 1_555 1_555
C26 C21 1_555 1_555
H23 C26 1_555 1_555
C27 N2 1_555 1_555
C28 N2 1_555 1_555
C29 C28 1_555 1_555
H24 C29 1_555 1_555
C30 C29 1_555 1_555
H25 C30 1_555 1_555
C31 C30 1_555 1_555
H26 C31 1_555 1_555
C32 C31 1_555 1_555
C33 C32 1_555 1_555
H27 C33 1_555 1_555
C34 C33 1_555 1_555
H28 C34 1_555 1_555
C35 C34 1_555 1_555
H29 C35 1_555 1_555
C36 N3 1_555 1_555
C6 C7 1_555 1_555
C7 C8 1_555 1_555
C17 C18 1_555 1_555
C19 C27 1_555 1_555
C25 C26 1_555 1_555
C28 C36 1_555 1_555
C32 C36 1_555 1_555

#END
