
#######################################################################
#
#                 Cambridge Crystallographic Data Centre
#                                CCDC 
#
#######################################################################
#
# If this CIF has been generated from an entry in the Cambridge 
# Structural Database, then it will include bibliographic, chemical, 
# crystal, experimental, refinement or atomic coordinate data resulting 
# from the CCDC's data processing and validation procedures.
#
#######################################################################

data_QEGHAO
_chemical_formula_moiety         'C64 H74 O2 S2'
_chemical_name_systematic        
4,4,10,10-tetrakis(4-hexylphenyl)-4,10-dihydrobisthieno[2,3-d:2,3-d']benzo[1,2-b:4,5-b']dipyran
_symmetry_cell_setting           triclinic
_symmetry_space_group_name_H-M   'P -1'
_symmetry_Int_Tables_number      2
_space_group_name_Hall           '-P 1'
loop_
_symmetry_equiv_pos_site_id
_symmetry_equiv_pos_as_xyz
1 x,y,z
2 -x,-y,-z
_cell_length_a                   10.906(3)
_cell_length_b                   11.771(3)
_cell_length_c                   12.388(3)
_cell_angle_alpha                82.688(4)
_cell_angle_beta                 66.072(4)
_cell_angle_gamma                62.769(4)
_cell_volume                     1289.19
_exptl_crystal_colour            yellow
_exptl_crystal_description       block
_cell_formula_units_Z            1
loop_
_atom_site_label
_atom_site_type_symbol
_atom_site_fract_x
_atom_site_fract_y
_atom_site_fract_z
S1 S 0.43409(16) 1.09547(14) 0.33669(12)
O1 O 0.3790(4) 0.8456(3) 0.1410(3)
C1 C 0.4343(5) 0.9272(5) 0.0721(4)
C2 C 0.4482(5) 1.0169(5) 0.1229(4)
C3 C 0.5154(5) 1.0901(5) 0.0477(4)
H1 H 0.5259 1.1522 0.0805
C4 C 0.3964(6) 1.0230(5) 0.2506(4)
C5 C 0.3122(6) 0.9626(5) 0.3178(4)
C6 C 0.2785(6) 0.9750(5) 0.4402(4)
H2 H 0.2220 0.9381 0.4993
C7 C 0.3352(6) 1.0447(5) 0.4633(5)
H3 H 0.3222 1.0637 0.5406
C8 C 0.2622(6) 0.8974(5) 0.2591(4)
C9 C 0.1164(6) 0.9891(5) 0.2462(4)
C10 C 0.0236(6) 1.1067(5) 0.3080(4)
H4 H 0.0525 1.1344 0.3585
C11 C -0.1110(6) 1.1851(5) 0.2981(5)
H5 H -0.1740 1.2655 0.3426
C12 C -0.1559(6) 1.1488(6) 0.2244(5)
C13 C -0.0624(7) 1.0314(6) 0.1622(5)
H6 H -0.0910 1.0042 0.1112
C14 C 0.0716(6) 0.9523(6) 0.1724(5)
H7 H 0.1342 0.8717 0.1282
C15 C -0.3001(8) 1.2373(7) 0.2098(7)
H8 H -0.3769 1.2865 0.2859
H9 H -0.3380 1.1867 0.1863
C16 C -0.2687(11) 1.3380(9) 0.1059(11)
H10 H -0.2631 1.4054 0.1414
H11 H -0.1693 1.2900 0.0418
C17 C -0.370(2) 1.3953(15) 0.0574(13)
H12 H -0.4727 1.4432 0.1176
H13 H -0.3688 1.3338 0.0090
C18 C -0.3045(19) 1.4887(11) -0.0223(9)
H14 H -0.3907 1.5737 -0.0128
H15 H -0.2424 1.4988 0.0125
C19 C -0.2160(10) 1.4574(7) -0.1477(6)
H16 H -0.2574 1.4168 -0.1796
H17 H -0.1120 1.3941 -0.1598
C20 C -0.2124(9) 1.5726(7) -0.2161(6)
H18 H -0.3122 1.6292 -0.2154
H19 H -0.1399 1.5441 -0.2980
H20 H -0.1826 1.6191 -0.1792
C21 C 0.2542(6) 0.7805(5) 0.3235(4)
C22 C 0.3828(7) 0.6797(6) 0.3264(6)
H21 H 0.4755 0.6841 0.2880
C23 C 0.3800(8) 0.5729(6) 0.3837(6)
H22 H 0.4710 0.5047 0.3839
C24 C 0.2483(7) 0.5621(6) 0.4412(5)
C25 C 0.1197(7) 0.6647(6) 0.4413(5)
H23 H 0.0267 0.6613 0.4824
C26 C 0.1206(6) 0.7727(5) 0.3837(4)
H24 H 0.0291 0.8420 0.3853
C27 C 0.2462(9) 0.4451(6) 0.5025(5)
H25 H 0.3409 0.3697 0.4584
H26 H 0.1627 0.4335 0.5007
C28 C 0.2283(8) 0.4494(6) 0.6303(5)
H27 H 0.3112 0.4618 0.6324
H28 H 0.1329 0.5240 0.6749
C29 C 0.2284(8) 0.3290(6) 0.6911(5)
H29 H 0.1531 0.3111 0.6813
H30 H 0.3281 0.2558 0.6521
C30 C 0.1937(7) 0.3396(6) 0.8216(5)
H31 H 0.0981 0.4172 0.8592
H32 H 0.2737 0.3504 0.8311
C31 C 0.1810(7) 0.2244(6) 0.8852(5)
H33 H 0.0999 0.2142 0.8769
H34 H 0.2760 0.1466 0.8472
C32 C 0.1482(7) 0.2361(6) 1.0151(5)
H35 H 0.2300 0.2430 1.0238
H36 H 0.1394 0.1602 1.0525
H37 H 0.0538 0.3128 1.0532
S1A S 0.56591(16) 0.90453(14) -0.33669(12)
O1A O 0.6210(4) 1.1544(3) -0.1410(3)
C1A C 0.5657(5) 1.0728(5) -0.0721(4)
C2A C 0.5518(5) 0.9831(5) -0.1229(4)
C3A C 0.4846(5) 0.9099(5) -0.0477(4)
H1A H 0.4741 0.8478 -0.0805
C4A C 0.6036(6) 0.9770(5) -0.2506(4)
C5A C 0.6878(6) 1.0374(5) -0.3178(4)
C6A C 0.7215(6) 1.0250(5) -0.4402(4)
H2A H 0.7780 1.0619 -0.4993
C7A C 0.6648(6) 0.9553(5) -0.4633(5)
H3A H 0.6778 0.9363 -0.5406
C8A C 0.7378(6) 1.1026(5) -0.2591(4)
C9A C 0.8836(6) 1.0109(5) -0.2462(4)
C10A C 0.9764(6) 0.8933(5) -0.3080(4)
H4A H 0.9475 0.8656 -0.3585
C11A C 1.1110(6) 0.8149(5) -0.2981(5)
H5A H 1.1740 0.7345 -0.3426
C12A C 1.1559(6) 0.8512(6) -0.2244(5)
C13A C 1.0624(7) 0.9686(6) -0.1622(5)
H6A H 1.0910 0.9958 -0.1112
C14A C 0.9284(6) 1.0477(6) -0.1724(5)
H7A H 0.8658 1.1283 -0.1282
C15A C 1.3001(8) 0.7627(7) -0.2098(7)
H8A H 1.3769 0.7135 -0.2859
H9A H 1.3380 0.8133 -0.1863
C16A C 1.2687(11) 0.6620(9) -0.1059(11)
H10A H 1.2631 0.5946 -0.1414
H11A H 1.1693 0.7100 -0.0418
C17A C 1.370(2) 0.6047(15) -0.0574(13)
H12A H 1.4727 0.5568 -0.1176
H13A H 1.3688 0.6662 -0.0090
C18A C 1.3045(19) 0.5113(11) 0.0223(9)
H14A H 1.3907 0.4263 0.0128
H15A H 1.2424 0.5012 -0.0125
C19A C 1.2160(10) 0.5426(7) 0.1477(6)
H16A H 1.2574 0.5832 0.1796
H17A H 1.1120 0.6059 0.1598
C20A C 1.2124(9) 0.4274(7) 0.2161(6)
H18A H 1.3122 0.3708 0.2154
H19A H 1.1399 0.4559 0.2980
H20A H 1.1826 0.3809 0.1792
C21A C 0.7458(6) 1.2195(5) -0.3235(4)
C22A C 0.6172(7) 1.3203(6) -0.3264(6)
H21A H 0.5245 1.3159 -0.2880
C23A C 0.6200(8) 1.4271(6) -0.3837(6)
H22A H 0.5290 1.4953 -0.3839
C24A C 0.7517(7) 1.4379(6) -0.4412(5)
C25A C 0.8803(7) 1.3353(6) -0.4413(5)
H23A H 0.9733 1.3387 -0.4824
C26A C 0.8794(6) 1.2273(5) -0.3837(4)
H24A H 0.9709 1.1580 -0.3853
C27A C 0.7538(9) 1.5549(6) -0.5025(5)
H25A H 0.6591 1.6303 -0.4584
H26A H 0.8373 1.5665 -0.5007
C28A C 0.7717(8) 1.5506(6) -0.6303(5)
H27A H 0.6888 1.5382 -0.6324
H28A H 0.8671 1.4760 -0.6749
C29A C 0.7716(8) 1.6710(6) -0.6911(5)
H29A H 0.8469 1.6889 -0.6813
H30A H 0.6719 1.7442 -0.6521
C30A C 0.8063(7) 1.6604(6) -0.8216(5)
H31A H 0.9019 1.5828 -0.8592
H32A H 0.7263 1.6496 -0.8311
C31A C 0.8190(7) 1.7756(6) -0.8852(5)
H33A H 0.9001 1.7858 -0.8769
H34A H 0.7240 1.8534 -0.8472
C32A C 0.8518(7) 1.7639(6) -1.0151(5)
H35A H 0.7700 1.7570 -1.0238
H36A H 0.8606 1.8398 -1.0525
H37A H 0.9462 1.6872 -1.0532
loop_
_geom_bond_atom_site_label_1
_geom_bond_atom_site_label_2
_geom_bond_site_symmetry_1
_geom_bond_site_symmetry_2
S1 C4 1_555 1_555
O1 C1 1_555 1_555
C1 C2 1_555 1_555
C2 C3 1_555 1_555
C3 H1 1_555 1_555
C4 C2 1_555 1_555
C5 C4 1_555 1_555
C6 C5 1_555 1_555
H2 C6 1_555 1_555
C7 S1 1_555 1_555
H3 C7 1_555 1_555
C8 O1 1_555 1_555
C9 C8 1_555 1_555
C10 C9 1_555 1_555
H4 C10 1_555 1_555
C11 C10 1_555 1_555
H5 C11 1_555 1_555
C12 C11 1_555 1_555
C13 C12 1_555 1_555
H6 C13 1_555 1_555
C14 C9 1_555 1_555
H7 C14 1_555 1_555
C15 C12 1_555 1_555
H8 C15 1_555 1_555
H9 C15 1_555 1_555
C16 C15 1_555 1_555
H10 C16 1_555 1_555
H11 C16 1_555 1_555
C17 C16 1_555 1_555
H12 C17 1_555 1_555
H13 C17 1_555 1_555
C18 C17 1_555 1_555
H14 C18 1_555 1_555
H15 C18 1_555 1_555
C19 C18 1_555 1_555
H16 C19 1_555 1_555
H17 C19 1_555 1_555
C20 C19 1_555 1_555
H18 C20 1_555 1_555
H19 C20 1_555 1_555
H20 C20 1_555 1_555
C21 C8 1_555 1_555
C22 C21 1_555 1_555
H21 C22 1_555 1_555
C23 C22 1_555 1_555
H22 C23 1_555 1_555
C24 C23 1_555 1_555
C25 C24 1_555 1_555
H23 C25 1_555 1_555
C26 C21 1_555 1_555
H24 C26 1_555 1_555
C27 C24 1_555 1_555
H25 C27 1_555 1_555
H26 C27 1_555 1_555
C28 C27 1_555 1_555
H27 C28 1_555 1_555
H28 C28 1_555 1_555
C29 C28 1_555 1_555
H29 C29 1_555 1_555
H30 C29 1_555 1_555
C30 C29 1_555 1_555
H31 C30 1_555 1_555
H32 C30 1_555 1_555
C31 C30 1_555 1_555
H33 C31 1_555 1_555
H34 C31 1_555 1_555
C32 C31 1_555 1_555
H35 C32 1_555 1_555
H36 C32 1_555 1_555
H37 C32 1_555 1_555
S1A C4A 1_555 1_555
O1A C1A 1_555 1_555
C1A C3 1_555 1_555
C2A C1A 1_555 1_555
C3A C1 1_555 1_555
H1A C3A 1_555 1_555
C4A C2A 1_555 1_555
C5A C4A 1_555 1_555
C6A C5A 1_555 1_555
H2A C6A 1_555 1_555
C7A S1A 1_555 1_555
H3A C7A 1_555 1_555
C8A O1A 1_555 1_555
C9A C8A 1_555 1_555
C10A C9A 1_555 1_555
H4A C10A 1_555 1_555
C11A C10A 1_555 1_555
H5A C11A 1_555 1_555
C12A C11A 1_555 1_555
C13A C12A 1_555 1_555
H6A C13A 1_555 1_555
C14A C9A 1_555 1_555
H7A C14A 1_555 1_555
C15A C12A 1_555 1_555
H8A C15A 1_555 1_555
H9A C15A 1_555 1_555
C16A C15A 1_555 1_555
H10A C16A 1_555 1_555
H11A C16A 1_555 1_555
C17A C16A 1_555 1_555
H12A C17A 1_555 1_555
H13A C17A 1_555 1_555
C18A C17A 1_555 1_555
H14A C18A 1_555 1_555
H15A C18A 1_555 1_555
C19A C18A 1_555 1_555
H16A C19A 1_555 1_555
H17A C19A 1_555 1_555
C20A C19A 1_555 1_555
H18A C20A 1_555 1_555
H19A C20A 1_555 1_555
H20A C20A 1_555 1_555
C21A C8A 1_555 1_555
C22A C21A 1_555 1_555
H21A C22A 1_555 1_555
C23A C22A 1_555 1_555
H22A C23A 1_555 1_555
C24A C23A 1_555 1_555
C25A C24A 1_555 1_555
H23A C25A 1_555 1_555
C26A C21A 1_555 1_555
H24A C26A 1_555 1_555
C27A C24A 1_555 1_555
H25A C27A 1_555 1_555
H26A C27A 1_555 1_555
C28A C27A 1_555 1_555
H27A C28A 1_555 1_555
H28A C28A 1_555 1_555
C29A C28A 1_555 1_555
H29A C29A 1_555 1_555
H30A C29A 1_555 1_555
C30A C29A 1_555 1_555
H31A C30A 1_555 1_555
H32A C30A 1_555 1_555
C31A C30A 1_555 1_555
H33A C31A 1_555 1_555
H34A C31A 1_555 1_555
C32A C31A 1_555 1_555
H35A C32A 1_555 1_555
H36A C32A 1_555 1_555
H37A C32A 1_555 1_555
C5 C8 1_555 1_555
C6 C7 1_555 1_555
C13 C14 1_555 1_555
C25 C26 1_555 1_555
C2A C3A 1_555 1_555
C5A C8A 1_555 1_555
C6A C7A 1_555 1_555
C13A C14A 1_555 1_555
C25A C26A 1_555 1_555

#END
