
#######################################################################
#
#                 Cambridge Crystallographic Data Centre
#                                CCDC 
#
#######################################################################
#
# If this CIF has been generated from an entry in the Cambridge 
# Structural Database, then it will include bibliographic, chemical, 
# crystal, experimental, refinement or atomic coordinate data resulting 
# from the CCDC's data processing and validation procedures.
#
#######################################################################

data_QEGKEV
_chemical_formula_moiety         'C30 H52 O3,2(C1 H4 O1)'
_chemical_name_systematic        
"4,4,7a,10,10,13a,15b-heptamethyldocosahydro-6aH-cyclohepta[1,2-a:5,4-a']dinaphthalene-3,6a,11-triol methanol solvate"
_symmetry_cell_setting           orthorhombic
_symmetry_space_group_name_H-M   'P 21 21 21'
_symmetry_Int_Tables_number      19
_space_group_name_Hall           'P 2ac 2ab'
loop_
_symmetry_equiv_pos_site_id
_symmetry_equiv_pos_as_xyz
1 x,y,z
2 1/2-x,-y,1/2+z
3 -x,1/2+y,1/2-z
4 1/2+x,1/2-y,-z
_cell_length_a                   7.3195(5)
_cell_length_b                   10.8647(7)
_cell_length_c                   37.895(3)
_cell_angle_alpha                90
_cell_angle_beta                 90
_cell_angle_gamma                90
_cell_volume                     3013.57
_exptl_crystal_colour            colorless
_exptl_crystal_description       block
_cell_formula_units_Z            4
loop_
_atom_site_label
_atom_site_type_symbol
_atom_site_fract_x
_atom_site_fract_y
_atom_site_fract_z
O1 O 0.7261(3) 1.09732(17) 0.58599(5)
O2 O 0.7309(3) 0.51064(16) 0.60555(4)
O3 O 0.5194(3) 0.67818(18) 0.86414(4)
C1 C 0.4193(3) 0.7316(2) 0.80512(6)
H1 H 0.4552 0.8172 0.8094
H2 H 0.2915 0.7224 0.8123
C2 C 0.5035(3) 0.7201(2) 0.68904(5)
H3 H 0.3828 0.7127 0.7000
H4 H 0.5337 0.8079 0.6883
C3 C 0.4989(3) 0.6897(2) 0.56767(6)
H5 H 0.4118 0.6421 0.5813
H6 H 0.5842 0.6345 0.5562
H7 H 0.4343 0.7374 0.5500
C4 C 0.4879(3) 0.6742(2) 0.65110(5)
H8 H 0.3749 0.7061 0.6407
H9 H 0.4806 0.5842 0.6511
C5 C 0.4358(3) 0.7039(2) 0.76565(5)
H10 H 0.3616 0.7633 0.7525
H11 H 0.3863 0.6217 0.7610
C6 C 0.9534(3) 0.7586(2) 0.69287(5)
H12 H 0.9898 0.7906 0.7157
H13 H 0.8791 0.8193 0.6808
H14 H 1.0613 0.7409 0.6789
C7 C 0.4800(3) 0.8887(2) 0.60011(5)
H15 H 0.3579 0.8587 0.6063
H16 H 0.5283 0.9330 0.6206
C8 C 0.9470(3) 0.5603(2) 0.72493(6)
H17 H 0.8945 0.4773 0.7249
H18 H 1.0743 0.5534 0.7172
C9 C 0.6042(3) 0.7774(2) 0.59243(5)
C10 C 0.6518(3) 0.7148(2) 0.62823(5)
H19 H 0.7105 0.7809 0.6422
C11 C 0.8419(3) 0.63966(19) 0.69800(5)
C12 C 0.4631(3) 0.9786(2) 0.56928(6)
H20 H 0.4033 0.9373 0.5494
H21 H 0.3863 1.0483 0.5764
C13 C 0.9448(3) 0.6093(2) 0.76261(5)
H22 H 1.0063 0.6894 0.7633
H23 H 1.0124 0.5527 0.7779
C14 C 0.7896(3) 0.8268(2) 0.57772(5)
H24 H 0.8420 0.8746 0.5975
C15 C 0.9677(3) 0.6587(2) 0.60740(6)
H25 H 1.0322 0.7173 0.6226
H26 H 1.0495 0.5888 0.6032
C16 C 0.5375(3) 0.6474(2) 0.82748(5)
H27 H 0.4915 0.5624 0.8243
C17 C 0.9684(4) 0.9768(3) 0.54033(7)
H28 H 1.0203 1.0035 0.5626
H29 H 0.9573 1.0467 0.5246
H30 H 1.0475 0.9154 0.5297
C18 C 0.6431(3) 0.65617(19) 0.71329(5)
H31 H 0.5963 0.5711 0.7156
C19 C 0.7791(3) 0.9208(2) 0.54681(6)
C20 C 0.6485(4) 1.0259(2) 0.55763(6)
H32 H 0.6308 1.0807 0.5370
C21 C 0.9246(3) 0.7209(2) 0.57226(6)
H33 H 0.8721 0.6605 0.5559
H34 H 1.0376 0.7526 0.5618
C22 C 0.7968(3) 0.6130(2) 0.62654(5)
C23 C 0.6347(3) 0.70965(19) 0.75205(5)
C24 C 0.7500(3) 0.62322(19) 0.77639(5)
H35 H 0.6945 0.5408 0.7733
C25 C 0.8409(3) 0.5604(2) 0.66369(6)
H36 H 0.9621 0.5225 0.6620
H37 H 0.7541 0.4932 0.6678
C26 C 0.7137(4) 0.8643(3) 0.51178(6)
H38 H 0.7827 0.7900 0.5069
H39 H 0.7324 0.9230 0.4928
H40 H 0.5849 0.8444 0.5135
C27 C 0.7404(3) 0.6481(2) 0.81701(5)
C28 C 0.8340(4) 0.5416(2) 0.83667(6)
H41 H 0.8094 0.5486 0.8617
H42 H 0.9647 0.5452 0.8326
H43 H 0.7868 0.4639 0.8280
C29 C 0.6964(3) 0.8459(2) 0.75297(6)
H44 H 0.6652 0.8853 0.7308
H45 H 0.8275 0.8498 0.7565
H46 H 0.6352 0.8881 0.7722
C30 C 0.8347(3) 0.7681(2) 0.82883(6)
H47 H 0.7590 0.8379 0.8224
H48 H 0.9525 0.7751 0.8173
H49 H 0.8519 0.7667 0.8542
H50 H 0.623(5) 0.480(6) 0.6044(18)
H51 H 0.773(8) 1.168(3) 0.5811(14)
H52 H 0.432(6) 0.644(5) 0.8747(13)
O4 O 0.4025(3) 0.3946(2) 0.60370(6)
C31 C 0.3517(5) 0.3587(3) 0.56950(9)
H53 H 0.3196 0.4309 0.5558
H54 H 0.2474 0.3038 0.5708
H55 H 0.4530 0.3165 0.5583
H56 H 0.427(10) 0.328(4) 0.6144(16)
O5 O 0.8733(4) 0.3199(2) 0.56656(7)
C32 C 0.8660(7) 0.3559(4) 0.53126(10)
H57 H 0.9373 0.2992 0.5171
H58 H 0.9155 0.4383 0.5289
H59 H 0.7401 0.3551 0.5233
H60 H 0.853(9) 0.371(5) 0.5832(12)
loop_
_geom_bond_atom_site_label_1
_geom_bond_atom_site_label_2
_geom_bond_site_symmetry_1
_geom_bond_site_symmetry_2
O1 C20 1_555 1_555
O2 C22 1_555 1_555
O3 C16 1_555 1_555
C1 H1 1_555 1_555
H2 C1 1_555 1_555
C2 H3 1_555 1_555
H4 C2 1_555 1_555
C3 H5 1_555 1_555
H6 C3 1_555 1_555
H7 C3 1_555 1_555
C4 C2 1_555 1_555
H8 C4 1_555 1_555
H9 C4 1_555 1_555
C5 C1 1_555 1_555
H10 C5 1_555 1_555
H11 C5 1_555 1_555
C6 H12 1_555 1_555
H13 C6 1_555 1_555
H14 C6 1_555 1_555
C7 H15 1_555 1_555
H16 C7 1_555 1_555
C8 H17 1_555 1_555
H18 C8 1_555 1_555
C9 C3 1_555 1_555
C10 C4 1_555 1_555
H19 C10 1_555 1_555
C11 C6 1_555 1_555
C12 C7 1_555 1_555
H20 C12 1_555 1_555
H21 C12 1_555 1_555
C13 C8 1_555 1_555
H22 C13 1_555 1_555
H23 C13 1_555 1_555
C14 C9 1_555 1_555
H24 C14 1_555 1_555
C15 H25 1_555 1_555
H26 C15 1_555 1_555
C16 C1 1_555 1_555
H27 C16 1_555 1_555
C17 H28 1_555 1_555
H29 C17 1_555 1_555
H30 C17 1_555 1_555
C18 C2 1_555 1_555
H31 C18 1_555 1_555
C19 C14 1_555 1_555
C20 C12 1_555 1_555
H32 C20 1_555 1_555
C21 C14 1_555 1_555
H33 C21 1_555 1_555
H34 C21 1_555 1_555
C22 C10 1_555 1_555
C23 C5 1_555 1_555
C24 C13 1_555 1_555
H35 C24 1_555 1_555
C25 C11 1_555 1_555
H36 C25 1_555 1_555
H37 C25 1_555 1_555
C26 C19 1_555 1_555
H38 C26 1_555 1_555
H39 C26 1_555 1_555
H40 C26 1_555 1_555
C27 C16 1_555 1_555
C28 C27 1_555 1_555
H41 C28 1_555 1_555
H42 C28 1_555 1_555
H43 C28 1_555 1_555
C29 C23 1_555 1_555
H44 C29 1_555 1_555
H45 C29 1_555 1_555
H46 C29 1_555 1_555
C30 C27 1_555 1_555
H47 C30 1_555 1_555
H48 C30 1_555 1_555
H49 C30 1_555 1_555
H50 O2 1_555 1_555
H51 O1 1_555 1_555
H52 O3 1_555 1_555
O4 C31 1_555 1_555
C31 H53 1_555 1_555
H54 C31 1_555 1_555
H55 C31 1_555 1_555
H56 O4 1_555 1_555
O5 C32 1_555 1_555
C32 H57 1_555 1_555
H58 C32 1_555 1_555
H59 C32 1_555 1_555
H60 O5 1_555 1_555
C7 C9 1_555 1_555
C8 C11 1_555 1_555
C9 C10 1_555 1_555
C11 C18 1_555 1_555
C15 C21 1_555 1_555
C15 C22 1_555 1_555
C17 C19 1_555 1_555
C18 C23 1_555 1_555
C19 C20 1_555 1_555
C22 C25 1_555 1_555
C23 C24 1_555 1_555
C24 C27 1_555 1_555

#END
