
#######################################################################
#
#                 Cambridge Crystallographic Data Centre
#                                CCDC 
#
#######################################################################
#
# If this CIF has been generated from an entry in the Cambridge 
# Structural Database, then it will include bibliographic, chemical, 
# crystal, experimental, refinement or atomic coordinate data resulting 
# from the CCDC's data processing and validation procedures.
#
#######################################################################

data_QEGLAS
_chemical_formula_moiety         'C18 H20 N2 O2'
_chemical_name_systematic        
3-(tricyclo[3.3.1.1^3,7^]decan-1-yl)quinazoline-2,4(1H,3H)-dione
_symmetry_cell_setting           triclinic
_symmetry_space_group_name_H-M   'P -1'
_symmetry_Int_Tables_number      2
_space_group_name_Hall           '-P 1'
loop_
_symmetry_equiv_pos_site_id
_symmetry_equiv_pos_as_xyz
1 x,y,z
2 -x,-y,-z
_cell_length_a                   6.3768(6)
_cell_length_b                   10.5670(9)
_cell_length_c                   11.5596(10)
_cell_angle_alpha                108.484(3)
_cell_angle_beta                 92.159(3)
_cell_angle_gamma                106.084(3)
_cell_volume                     703.063
_exptl_crystal_colour            colorless
_exptl_crystal_description       needle
_cell_formula_units_Z            2
loop_
_atom_site_label
_atom_site_type_symbol
_atom_site_fract_x
_atom_site_fract_y
_atom_site_fract_z
C1 C 0.10123(17) 0.36518(11) 0.56782(10)
C2 C 0.33831(18) 0.21433(11) 0.55669(10)
C3 C 0.41809(17) 0.24860(11) 0.44928(10)
C4 C 0.57758(19) 0.19315(12) 0.39141(10)
H1 H 0.6311 0.1312 0.4197
C5 C 0.6566(2) 0.22913(13) 0.29281(11)
H2 H 0.7659 0.1927 0.2535
C6 C 0.5754(2) 0.31930(13) 0.25104(10)
H3 H 0.6312 0.3440 0.1835
C7 C 0.41569(19) 0.37302(12) 0.30599(10)
H4 H 0.3600 0.4332 0.2763
C8 C 0.33741(18) 0.33697(11) 0.40655(10)
C9 C 0.11325(17) 0.24733(11) 0.73165(9)
C10 C 0.00099(18) 0.08822(11) 0.69709(10)
H5 H -0.1382 0.0596 0.6413
H6 H 0.0986 0.0364 0.6534
C11 C -0.04758(19) 0.05228(11) 0.81435(11)
H7 H -0.1133 -0.0514 0.7917
C12 C 0.16787(19) 0.10161(12) 0.90240(11)
H8 H 0.1384 0.0749 0.9763
H9 H 0.2739 0.0556 0.8612
C13 C 0.26693(18) 0.26101(12) 0.94079(10)
H10 H 0.4046 0.2925 1.0002
C14 C 0.1019(2) 0.33168(12) 1.00242(10)
H11 H 0.1659 0.4348 1.0287
H12 H 0.0658 0.3061 1.0762
C15 C -0.10691(18) 0.28307(12) 0.91002(11)
H13 H -0.2139 0.3313 0.9492
C16 C -0.05219(18) 0.32052(11) 0.79363(10)
H14 H -0.1888 0.2901 0.7353
H15 H 0.0119 0.4233 0.8164
C17 C -0.21103(19) 0.12505(13) 0.87567(11)
H16 H -0.3494 0.0933 0.8184
H17 H -0.2464 0.1015 0.9504
C18 C 0.32253(17) 0.30141(11) 0.82659(10)
H18 H 0.4363 0.2602 0.7894
H19 H 0.3823 0.4046 0.8508
N1 N 0.18003(15) 0.38827(10) 0.46601(9)
N2 N 0.18225(14) 0.27749(9) 0.61453(8)
O1 O -0.03444(13) 0.42112(9) 0.61360(8)
O2 O 0.40704(14) 0.13612(9) 0.59475(7)
H20 H 0.126(3) 0.4478(17) 0.4424(14)
loop_
_geom_bond_atom_site_label_1
_geom_bond_atom_site_label_2
_geom_bond_site_symmetry_1
_geom_bond_site_symmetry_2
C1 N1 1_555 1_555
C2 C3 1_555 1_555
C3 C4 1_555 1_555
C4 H1 1_555 1_555
C5 C4 1_555 1_555
H2 C5 1_555 1_555
C6 C5 1_555 1_555
H3 C6 1_555 1_555
C7 C6 1_555 1_555
H4 C7 1_555 1_555
C8 C3 1_555 1_555
C9 C10 1_555 1_555
C10 H5 1_555 1_555
H6 C10 1_555 1_555
C11 C10 1_555 1_555
H7 C11 1_555 1_555
C12 C11 1_555 1_555
H8 C12 1_555 1_555
H9 C12 1_555 1_555
C13 C12 1_555 1_555
H10 C13 1_555 1_555
C14 C13 1_555 1_555
H11 C14 1_555 1_555
H12 C14 1_555 1_555
C15 C14 1_555 1_555
H13 C15 1_555 1_555
C16 C9 1_555 1_555
H14 C16 1_555 1_555
H15 C16 1_555 1_555
C17 C11 1_555 1_555
H16 C17 1_555 1_555
H17 C17 1_555 1_555
C18 C9 1_555 1_555
H18 C18 1_555 1_555
H19 C18 1_555 1_555
N1 C8 1_555 1_555
N2 C1 1_555 1_555
O1 C1 1_555 1_555
O2 C2 1_555 1_555
H20 N1 1_555 1_555
C2 N2 1_555 1_555
C7 C8 1_555 1_555
C9 N2 1_555 1_555
C13 C18 1_555 1_555
C15 C16 1_555 1_555
C15 C17 1_555 1_555

#END
