
#######################################################################
#
#                 Cambridge Crystallographic Data Centre
#                                CCDC 
#
#######################################################################
#
# If this CIF has been generated from an entry in the Cambridge 
# Structural Database, then it will include bibliographic, chemical, 
# crystal, experimental, refinement or atomic coordinate data resulting 
# from the CCDC's data processing and validation procedures.
#
#######################################################################

data_QEJPIG
_chemical_formula_moiety         'C40 H31 N5 O2,1.47(C1 H1 Cl3)'
_chemical_name_systematic        
'18-Nitro-5,10,15-tris(4-methylphenyl)corrole chloroform solvate'
_symmetry_cell_setting           triclinic
_symmetry_space_group_name_H-M   'P -1'
_symmetry_Int_Tables_number      2
_space_group_name_Hall           '-P 1'
loop_
_symmetry_equiv_pos_site_id
_symmetry_equiv_pos_as_xyz
1 x,y,z
2 -x,-y,-z
_cell_length_a                   9.6282(10)
_cell_length_b                   14.5927(14)
_cell_length_c                   15.2094(15)
_cell_angle_alpha                64.348(5)
_cell_angle_beta                 83.229(5)
_cell_angle_gamma                87.496(5)
_cell_volume                     1912.83
_exptl_crystal_colour            'dark blue'
_exptl_crystal_description       parallelepiped
_cell_formula_units_Z            2
_exptl_crystal_recrystallization_method chloroform
loop_
_atom_site_label
_atom_site_type_symbol
_atom_site_fract_x
_atom_site_fract_y
_atom_site_fract_z
O1 O 0.4434(2) 0.82690(15) 0.37324(14)
O2 O 0.2932(2) 0.86965(15) 0.46715(15)
N1 N 0.5089(2) 0.57298(16) 0.63299(15)
N2 N 0.5320(2) 0.39930(17) 0.78661(16)
H1 H 0.559(3) 0.437(2) 0.726(3)
N3 N 0.7302(2) 0.34941(16) 0.64339(15)
H2 H 0.650(4) 0.369(2) 0.629(2)
N4 N 0.6962(2) 0.54679(17) 0.51145(16)
H3 H 0.708(3) 0.520(2) 0.575(3)
N5 N 0.3819(2) 0.81119(17) 0.45484(17)
C1 C 0.5137(3) 0.64577(19) 0.53980(19)
C2 C 0.4138(3) 0.72195(19) 0.53796(19)
C3 C 0.3504(3) 0.6944(2) 0.6321(2)
H4 H 0.2814 0.7311 0.6535
C4 C 0.4095(3) 0.6004(2) 0.69000(19)
C5 C 0.3760(3) 0.5345(2) 0.79168(19)
C6 C 0.4336(3) 0.4383(2) 0.83535(18)
C7 C 0.4035(3) 0.3580(2) 0.93171(19)
H5 H 0.3400 0.3616 0.9829
C8 C 0.4810(3) 0.2757(2) 0.93759(19)
H6 H 0.4793 0.2118 0.9934
C9 C 0.5658(3) 0.30129(19) 0.84557(18)
C10 C 0.6686(3) 0.2409(2) 0.82273(19)
C11 C 0.7524(3) 0.26913(19) 0.73223(19)
C12 C 0.8833(3) 0.2269(2) 0.71574(19)
H7 H 0.9270 0.1708 0.7636
C13 C 0.9358(3) 0.2801(2) 0.62013(19)
H8 H 1.0228 0.2675 0.5909
C14 C 0.8402(3) 0.35718(19) 0.57114(18)
C15 C 0.8538(3) 0.4320(2) 0.47316(18)
C16 C 0.7714(3) 0.5212(2) 0.44303(18)
C17 C 0.7351(3) 0.5941(2) 0.35141(19)
H9 H 0.7713 0.5977 0.2891
C18 C 0.6375(3) 0.6600(2) 0.36779(19)
H10 H 0.5958 0.7162 0.3188
C19 C 0.6117(3) 0.62826(19) 0.46996(19)
C20 C 0.2785(3) 0.57000(19) 0.85381(18)
C21 C 0.3256(3) 0.5826(2) 0.93115(19)
H11 H 0.4200 0.5676 0.9444
C22 C 0.2364(3) 0.6167(2) 0.98900(19)
H12 H 0.2708 0.6249 1.0412
C23 C 0.0973(3) 0.6391(2) 0.9718(2)
C24 C 0.0511(3) 0.6263(2) 0.8946(2)
H13 H -0.0434 0.6411 0.8815
C25 C 0.1392(3) 0.5926(2) 0.8364(2)
H14 H 0.1046 0.5847 0.7841
C26 C -0.0005(3) 0.6758(2) 1.0347(2)
H15 H 0.0519 0.6862 1.0811
H16 H -0.0743 0.6249 1.0710
H17 H -0.0425 0.7401 0.9928
C27 C 0.7011(3) 0.1406(2) 0.90265(19)
C28 C 0.7370(3) 0.1310(2) 0.9923(2)
H18 H 0.7382 0.1897 1.0043
C29 C 0.7710(3) 0.0375(2) 1.0643(2)
H19 H 0.7946 0.0333 1.1248
C30 C 0.7714(3) -0.0500(2) 1.0497(2)
C31 C 0.7356(3) -0.0404(2) 0.9594(2)
H20 H 0.7353 -0.0991 0.9474
C32 C 0.7008(3) 0.0525(2) 0.8876(2)
H21 H 0.6764 0.0566 0.8272
C33 C 0.8112(4) -0.1508(2) 1.1272(2)
H22 H 0.9102 -0.1637 1.1133
H23 H 0.7540 -0.2048 1.1272
H24 H 0.7953 -0.1498 1.1916
C34 C 0.9602(3) 0.4168(2) 0.40241(18)
C35 C 0.9884(3) 0.3198(2) 0.40731(19)
H25 H 0.9337 0.2634 0.4540
C36 C 1.0944(3) 0.3048(2) 0.34529(19)
H26 H 1.1127 0.2380 0.3511
C37 C 1.1754(3) 0.3863(2) 0.27405(19)
C38 C 1.1441(3) 0.4831(2) 0.26711(19)
H27 H 1.1960 0.5398 0.2183
C39 C 1.0391(3) 0.4989(2) 0.32956(18)
H28 H 1.0203 0.5659 0.3230
C40 C 1.2924(3) 0.3693(2) 0.2083(2)
H29 H 1.3173 0.4338 0.1512
H30 H 1.2622 0.3201 0.1862
H31 H 1.3739 0.3428 0.2445
C41 C 0.5918(5) -0.0844(3) 0.7103(3)
H32 H 0.5623 -0.0126 0.6930
Cl1 Cl 0.58951(12) -0.10905(8) 0.60662(7)
Cl2 Cl 0.76095(13) -0.10000(9) 0.74527(9)
Cl3 Cl 0.47275(14) -0.16692(10) 0.80636(8)
C42 C 0.1647(5) 0.9893(3) 0.6125(3)
H33 H 0.2102 0.9735 0.5581
Cl4 Cl 0.12943(11) 0.87509(7) 0.71815(8)
Cl5 Cl 0.27594(13) 1.06902(8) 0.63213(8)
Cl6 Cl 0.00783(15) 1.05603(11) 0.57670(12)
loop_
_geom_bond_atom_site_label_1
_geom_bond_atom_site_label_2
_geom_bond_site_symmetry_1
_geom_bond_site_symmetry_2
O1 N5 1_555 1_555
O2 N5 1_555 1_555
N1 C1 1_555 1_555
N2 H1 1_555 1_555
N3 H2 1_555 1_555
N4 H3 1_555 1_555
N5 C2 1_555 1_555
C1 C2 1_555 1_555
C2 C3 1_555 1_555
C3 H4 1_555 1_555
C4 N1 1_555 1_555
C5 C4 1_555 1_555
C6 N2 1_555 1_555
C7 C6 1_555 1_555
H5 C7 1_555 1_555
C8 C7 1_555 1_555
H6 C8 1_555 1_555
C9 N2 1_555 1_555
C10 C9 1_555 1_555
C11 N3 1_555 1_555
C12 C11 1_555 1_555
H7 C12 1_555 1_555
C13 C12 1_555 1_555
H8 C13 1_555 1_555
C14 N3 1_555 1_555
C15 C14 1_555 1_555
C16 N4 1_555 1_555
C17 C16 1_555 1_555
H9 C17 1_555 1_555
C18 C17 1_555 1_555
H10 C18 1_555 1_555
C19 N4 1_555 1_555
C20 C5 1_555 1_555
C21 C20 1_555 1_555
H11 C21 1_555 1_555
C22 C21 1_555 1_555
H12 C22 1_555 1_555
C23 C22 1_555 1_555
C24 C23 1_555 1_555
H13 C24 1_555 1_555
C25 C20 1_555 1_555
H14 C25 1_555 1_555
C26 C23 1_555 1_555
H15 C26 1_555 1_555
H16 C26 1_555 1_555
H17 C26 1_555 1_555
C27 C10 1_555 1_555
C28 C27 1_555 1_555
H18 C28 1_555 1_555
C29 C28 1_555 1_555
H19 C29 1_555 1_555
C30 C29 1_555 1_555
C31 C30 1_555 1_555
H20 C31 1_555 1_555
C32 C27 1_555 1_555
H21 C32 1_555 1_555
C33 C30 1_555 1_555
H22 C33 1_555 1_555
H23 C33 1_555 1_555
H24 C33 1_555 1_555
C34 C15 1_555 1_555
C35 C34 1_555 1_555
H25 C35 1_555 1_555
C36 C35 1_555 1_555
H26 C36 1_555 1_555
C37 C36 1_555 1_555
C38 C37 1_555 1_555
H27 C38 1_555 1_555
C39 C34 1_555 1_555
H28 C39 1_555 1_555
C40 C37 1_555 1_555
H29 C40 1_555 1_555
H30 C40 1_555 1_555
H31 C40 1_555 1_555
C41 H32 1_555 1_555
Cl1 C41 1_555 1_555
Cl2 C41 1_555 1_555
Cl3 C41 1_555 1_555
C42 H33 1_555 1_555
Cl4 C42 1_555 1_555
Cl5 C42 1_555 1_555
Cl6 C42 1_555 1_555
C1 C19 1_555 1_555
C3 C4 1_555 1_555
C5 C6 1_555 1_555
C8 C9 1_555 1_555
C10 C11 1_555 1_555
C13 C14 1_555 1_555
C15 C16 1_555 1_555
C18 C19 1_555 1_555
C24 C25 1_555 1_555
C31 C32 1_555 1_555
C38 C39 1_555 1_555

#END
