
#######################################################################
#
#                 Cambridge Crystallographic Data Centre
#                                CCDC 
#
#######################################################################
#
# If this CIF has been generated from an entry in the Cambridge 
# Structural Database, then it will include bibliographic, chemical, 
# crystal, experimental, refinement or atomic coordinate data resulting 
# from the CCDC's data processing and validation procedures.
#
#######################################################################

data_QEJQAX
_chemical_formula_moiety         'C10 H6 O4 S1'
_chemical_name_systematic        
2,1-Benzoxathiol-2-one-1-spiro-1'-(2',1'-oxathiol-3'-one)
_symmetry_cell_setting           monoclinic
_symmetry_space_group_name_H-M   'P 21/c'
_symmetry_Int_Tables_number      14
_space_group_name_Hall           '-P 2ybc'
loop_
_symmetry_equiv_pos_site_id
_symmetry_equiv_pos_as_xyz
1 x,y,z
2 -x,1/2+y,1/2-z
3 -x,-y,-z
4 x,1/2-y,1/2+z
_cell_length_a                   5.585(4)
_cell_length_b                   17.216(7)
_cell_length_c                   9.378(7)
_cell_angle_alpha                90
_cell_angle_beta                 91.16(6)
_cell_angle_gamma                90
_cell_volume                     901.523
_chemical_melting_point          185.5-186.5deg.C
_cell_formula_units_Z            4
_chemical_properties_physical    moisture-sensitive
_exptl_crystal_recrystallization_method 'acetone/carbon tetrachloride'
loop_
_atom_site_label
_atom_site_type_symbol
_atom_site_fract_x
_atom_site_fract_y
_atom_site_fract_z
S1 S 0.0805(3) 0.4085(1) 0.0490(2)
O1 O 0.3472(9) 0.4156(3) -0.0651(5)
C1 C 0.4678(13) 0.3499(4) -0.0830(8)
O2 O 0.6476(9) 0.3449(3) -0.1485(5)
C2 C 0.3475(12) 0.2856(4) -0.0051(6)
C3 C 0.1478(11) 0.3075(3) 0.0676(6)
C4 C 0.0140(11) 0.2536(4) 0.1426(6)
C5 C 0.0911(13) 0.1771(4) 0.1387(7)
C6 C 0.2937(12) 0.1550(4) 0.0663(7)
C7 C 0.4227(12) 0.2091(4) -0.0069(7)
O3 O -0.1652(8) 0.4022(2) 0.1741(5)
C8 C -0.1196(12) 0.4407(4) 0.2959(7)
O4 O -0.2695(9) 0.4475(3) 0.3858(5)
C9 C 0.1240(11) 0.4710(4) 0.3001(7)
C10 C 0.2467(12) 0.4575(3) 0.1837(7)
H1 H -0.1256 0.2686 0.1940
H2 H 0.0023 0.1382 0.1885
H3 H 0.3440 0.1017 0.0674
H4 H 0.5626 0.1946 -0.0584
H5 H 0.1891 0.4984 0.3812
H6 H 0.4106 0.4728 0.1726
loop_
_geom_bond_atom_site_label_1
_geom_bond_atom_site_label_2
_geom_bond_site_symmetry_1
_geom_bond_site_symmetry_2
S1 O1 1_555 1_555
O1 C1 1_555 1_555
C1 O2 1_555 1_555
C2 C1 1_555 1_555
C3 S1 1_555 1_555
C4 C3 1_555 1_555
C5 C4 1_555 1_555
C6 C5 1_555 1_555
C7 C2 1_555 1_555
O3 S1 1_555 1_555
C8 O3 1_555 1_555
O4 C8 1_555 1_555
C9 C8 1_555 1_555
C10 S1 1_555 1_555
H1 C4 1_555 1_555
H2 C5 1_555 1_555
H3 C6 1_555 1_555
H4 C7 1_555 1_555
H5 C9 1_555 1_555
H6 C10 1_555 1_555
C2 C3 1_555 1_555
C6 C7 1_555 1_555
C9 C10 1_555 1_555

#END
