
#######################################################################
#
#                 Cambridge Crystallographic Data Centre
#                                CCDC 
#
#######################################################################
#
# If this CIF has been generated from an entry in the Cambridge 
# Structural Database, then it will include bibliographic, chemical, 
# crystal, experimental, refinement or atomic coordinate data resulting 
# from the CCDC's data processing and validation procedures.
#
#######################################################################

data_QEJSEE
_chemical_compound_source        'leaves and stems of Schisandra sphenanthera'
_chemical_name_common            'Sphenadilactone A trihydrate'
_chemical_formula_moiety         'C29 H36 O12,3(H2 O1)'
_chemical_name_systematic        
'(1R,3R,7R,10R,17R,21S,24S,27R,30S)-14,19-dihydroxy-9-(hydroxymethyl)-9,10,17,19,24-pentamethyl-4,8,15,22,26,28-hexaoxanonacyclo (14.12.1.1^17,20^.0^1,13^.0^3,7^.0^3,10^.0^14,27^.0^21,25^.0^27,30^) triacontane-5,18,23-trione trihydrate'
_chemical_properties_biological  
'cytotoxic against K562, A549 and HT-29 cell lines and exhibits anti-HIV activity'
_symmetry_cell_setting           monoclinic
_symmetry_space_group_name_H-M   'P 21'
_symmetry_Int_Tables_number      4
_space_group_name_Hall           'P 2yb'
loop_
_symmetry_equiv_pos_site_id
_symmetry_equiv_pos_as_xyz
1 x,y,z
2 -x,1/2+y,-z
_cell_length_a                   8.2550(17)
_cell_length_b                   18.920(4)
_cell_length_c                   9.6570(19)
_cell_angle_alpha                90
_cell_angle_beta                 90.05(3)
_cell_angle_gamma                90
_cell_volume                     1508.27
_exptl_crystal_colour            colorless
_exptl_crystal_description       block
_chemical_melting_point          '210-211 deg.C'
_cell_formula_units_Z            2
_exptl_crystal_recrystallization_method acetone/methanol
loop_
_atom_site_label
_atom_site_type_symbol
_atom_site_fract_x
_atom_site_fract_y
_atom_site_fract_z
O1 O 0.5945(6) -0.1243(3) 0.2525(5)
O2 O 0.3690(4) -0.06051(19) 0.2311(3)
O3 O 0.2410(5) -0.12826(19) -0.0378(4)
O4 O 0.3541(4) 0.10314(16) 0.3346(3)
O5 O 0.0273(4) 0.14772(18) 0.4635(3)
O6 O 0.3456(6) 0.2928(2) 0.2222(4)
O7 O 0.4052(4) 0.06317(16) 0.5562(3)
O8 O 0.6649(6) 0.0675(2) 0.8873(4)
O9 O 0.6348(5) 0.14889(18) 0.7218(4)
O10 O 0.0794(4) 0.0536(2) 0.6044(3)
H1 H -0.0164 0.0425 0.5987
O11 O 0.6102(5) 0.19099(18) 0.2897(4)
H2 H 0.5513 0.1562 0.2844
O12 O 0.0819(7) -0.2256(2) 0.1317(6)
H3 H 0.0358 -0.2636 0.1430
C1 C 0.3332(6) -0.0660(3) -0.0134(5)
H4 H 0.3292 -0.0332 -0.0918
C2 C 0.5041(7) -0.0866(3) 0.0239(5)
H5 H 0.5339 -0.1310 -0.0196
H6 H 0.5804 -0.0504 -0.0042
C3 C 0.5001(7) -0.0939(3) 0.1790(6)
C4 C 0.0739(7) -0.1136(3) 0.0018(6)
C5 C 0.0922(6) -0.0690(3) 0.1371(5)
H7 H 0.0992 -0.1021 0.2149
C6 C -0.0503(6) -0.0193(3) 0.1652(6)
H8 H -0.1505 -0.0452 0.1515
H9 H -0.0478 0.0188 0.0982
C7 C -0.0510(7) 0.0129(3) 0.3127(6)
H10 H -0.1249 0.0527 0.3150
H11 H -0.0899 -0.0222 0.3779
C8 C 0.1173(6) 0.0376(3) 0.3569(5)
H12 H 0.1832 -0.0045 0.3756
C9 C 0.2095(6) 0.0838(2) 0.2539(4)
C10 C 0.2611(6) -0.0335(2) 0.1208(5)
C11 C 0.1214(7) 0.1528(3) 0.2241(5)
H13 H 0.0186 0.1427 0.1796
H14 H 0.1856 0.1812 0.1610
C12 C 0.0913(6) 0.1947(2) 0.3578(5)
H15 H 0.0074 0.2299 0.3377
C13 C 0.2365(6) 0.2346(2) 0.4273(5)
C14 C 0.3270(6) 0.1851(2) 0.5276(4)
H16 H 0.2812 0.1900 0.6207
C15 C 0.3080(6) 0.1094(2) 0.4795(5)
C16 C 0.1273(6) 0.0855(2) 0.4831(5)
C17 C 0.3685(7) 0.2608(2) 0.3291(5)
C18 C 0.1693(7) 0.2991(3) 0.5070(6)
H17 H 0.2572 0.3244 0.5491
H18 H 0.0958 0.2832 0.5775
H19 H 0.1130 0.3297 0.4439
C19 C 0.2666(6) 0.0474(2) 0.1196(4)
H20 H 0.1999 0.0641 0.0437
H21 H 0.3771 0.0620 0.1011
C20 C 0.5402(6) 0.2415(2) 0.3841(5)
C21 C 0.6550(7) 0.3040(3) 0.3867(6)
H22 H 0.6705 0.3212 0.2942
H23 H 0.7573 0.2895 0.4246
H24 H 0.6098 0.3409 0.4431
C22 C 0.5067(6) 0.2094(2) 0.5293(5)
H25 H 0.5166 0.2476 0.5976
C23 C 0.6258(6) 0.1513(2) 0.5696(5)
H26 H 0.7330 0.1616 0.5309
C24 C 0.5754(6) 0.0752(2) 0.5332(5)
H27 H 0.6080 0.0622 0.4390
C25 C 0.6660(6) 0.0324(2) 0.6423(5)
H28 H 0.7799 0.0299 0.6141
C26 C 0.6555(7) 0.0816(3) 0.7651(5)
C27 C 0.6066(8) -0.0426(2) 0.6659(5)
H29 H 0.6194 -0.0695 0.5824
H30 H 0.4943 -0.0417 0.6916
H31 H 0.6687 -0.0641 0.7388
C28 C -0.0029(10) -0.1853(4) 0.0319(9)
H32 H -0.1129 -0.1780 0.0640
H33 H -0.0086 -0.2121 -0.0537
C29 C -0.0120(9) -0.0764(5) -0.1154(7)
H34 H -0.0184 -0.1074 -0.1939
H35 H 0.0471 -0.0346 -0.1402
H36 H -0.1193 -0.0636 -0.0866
O13 O -0.0899(7) -0.3587(3) 0.1691(5)
H37 H -0.10(2) -0.360(13) 0.264(3)
H38 H -0.172(7) -0.332(4) 0.133(8)
O14 O 0.6640(11) 0.2061(4) 0.0064(6)
H39 H 0.761(4) 0.182(3) 0.034(5)
H40 H 0.63(2) 0.224(17) 0.089(7)
O15 O 0.6481(10) -0.2736(5) 0.1074(10)
H41 H 0.565(8) -0.285(5) 0.048(7)
H42 H 0.743(6) -0.27(3) 0.05(2)
loop_
_geom_bond_atom_site_label_1
_geom_bond_atom_site_label_2
_geom_bond_site_symmetry_1
_geom_bond_site_symmetry_2
O1 C3 1_555 1_555
O2 C3 1_555 1_555
O3 C1 1_555 1_555
O4 C9 1_555 1_555
O5 C12 1_555 1_555
O6 C17 1_555 1_555
O7 C15 1_555 1_555
O8 C26 1_555 1_555
O9 C23 1_555 1_555
O10 H1 1_555 1_555
O11 H2 1_555 1_555
O12 H3 1_555 1_555
C1 H4 1_555 1_555
C2 C1 1_555 1_555
H5 C2 1_555 1_555
H6 C2 1_555 1_555
C3 C2 1_555 1_555
C4 O3 1_555 1_555
C5 C4 1_555 1_555
H7 C5 1_555 1_555
C6 C5 1_555 1_555
H8 C6 1_555 1_555
H9 C6 1_555 1_555
C7 C6 1_555 1_555
H10 C7 1_555 1_555
H11 C7 1_555 1_555
C8 C7 1_555 1_555
H12 C8 1_555 1_555
C9 C8 1_555 1_555
C10 O2 1_555 1_555
C11 C9 1_555 1_555
H13 C11 1_555 1_555
H14 C11 1_555 1_555
C12 C11 1_555 1_555
H15 C12 1_555 1_555
C13 C12 1_555 1_555
C14 C13 1_555 1_555
H16 C14 1_555 1_555
C15 O4 1_555 1_555
C16 O5 1_555 1_555
C17 C13 1_555 1_555
C18 C13 1_555 1_555
H17 C18 1_555 1_555
H18 C18 1_555 1_555
H19 C18 1_555 1_555
C19 C9 1_555 1_555
H20 C19 1_555 1_555
H21 C19 1_555 1_555
C20 O11 1_555 1_555
C21 C20 1_555 1_555
H22 C21 1_555 1_555
H23 C21 1_555 1_555
H24 C21 1_555 1_555
C22 C14 1_555 1_555
H25 C22 1_555 1_555
C23 C22 1_555 1_555
H26 C23 1_555 1_555
C24 O7 1_555 1_555
H27 C24 1_555 1_555
C25 C24 1_555 1_555
H28 C25 1_555 1_555
C26 O9 1_555 1_555
C27 C25 1_555 1_555
H29 C27 1_555 1_555
H30 C27 1_555 1_555
H31 C27 1_555 1_555
C28 O12 1_555 1_555
H32 C28 1_555 1_555
H33 C28 1_555 1_555
C29 C4 1_555 1_555
H34 C29 1_555 1_555
H35 C29 1_555 1_555
H36 C29 1_555 1_555
O13 H37 1_555 1_555
H38 O13 1_555 1_555
O14 H39 1_555 1_555
H40 O14 1_555 1_555
O15 H41 1_555 1_555
H42 O15 1_555 1_555
O10 C16 1_555 1_555
C1 C10 1_555 1_555
C4 C28 1_555 1_555
C5 C10 1_555 1_555
C8 C16 1_555 1_555
C10 C19 1_555 1_555
C14 C15 1_555 1_555
C15 C16 1_555 1_555
C17 C20 1_555 1_555
C20 C22 1_555 1_555
C23 C24 1_555 1_555
C25 C26 1_555 1_555

#END
