
#######################################################################
#
#                 Cambridge Crystallographic Data Centre
#                                CCDC 
#
#######################################################################
#
# If this CIF has been generated from an entry in the Cambridge 
# Structural Database, then it will include bibliographic, chemical, 
# crystal, experimental, refinement or atomic coordinate data resulting 
# from the CCDC's data processing and validation procedures.
#
#######################################################################

data_QEKBAJ
_chemical_formula_moiety         'C14 H14 N2'
_chemical_name_systematic        (E)-1,1'-Bi-3-cyanocyclohex-2-enylidene
_symmetry_cell_setting           monoclinic
_symmetry_space_group_name_H-M   'P 21/n'
_symmetry_Int_Tables_number      14
_space_group_name_Hall           '-P 2yn'
loop_
_symmetry_equiv_pos_site_id
_symmetry_equiv_pos_as_xyz
1 x,y,z
2 1/2-x,1/2+y,1/2-z
3 -x,-y,-z
4 1/2+x,1/2-y,1/2+z
_cell_length_a                   5.3980(5)
_cell_length_b                   7.0757(7)
_cell_length_c                   15.300(5)
_cell_angle_alpha                90
_cell_angle_beta                 94.571(2)
_cell_angle_gamma                90
_cell_volume                     582.519
_exptl_crystal_colour            colorless
_exptl_crystal_description       plate
_chemical_melting_point          '259.5 deg.C'
_cell_formula_units_Z            2
_exptl_crystal_recrystallization_method 'ethyl acetate'
loop_
_atom_site_label
_atom_site_type_symbol
_atom_site_fract_x
_atom_site_fract_y
_atom_site_fract_z
N1 N -0.1981(3) 0.4910(2) 0.8809(1)
C1 C 0.4046(2) 0.0035(2) 0.9677(1)
C2 C 0.2563(2) 0.1726(2) 0.9532(1)
C3 C 0.0643(2) 0.1854(2) 0.8919(1)
C4 C -0.0074(2) 0.0307(2) 0.8278(1)
C5 C 0.2113(2) -0.1005(2) 0.8196(1)
C6 C 0.3266(3) -0.1626(2) 0.9093(1)
C7 C -0.0798(3) 0.3561(2) 0.8865(1)
C1B C 0.5954(2) -0.0035(2) 1.0323(1)
C2B C 0.7437(2) -0.1726(2) 1.0468(1)
C3B C 0.9357(2) -0.1854(2) 1.1081(1)
C4B C 1.0074(2) -0.0307(2) 1.1722(1)
C5B C 0.7887(2) 0.1005(2) 1.1804(1)
C6B C 0.6734(3) 0.1626(2) 1.0907(1)
C7B C 1.0798(3) -0.3561(2) 1.1135(1)
N1B N 1.1981(3) -0.4910(2) 1.1191(1)
loop_
_geom_bond_atom_site_label_1
_geom_bond_atom_site_label_2
_geom_bond_site_symmetry_1
_geom_bond_site_symmetry_2
N1 C7 1_555 1_555
C1 C2 1_555 1_555
C2 C3 1_555 1_555
C3 C4 1_555 1_555
C4 C5 1_555 1_555
C5 C6 1_555 1_555
C6 C1 1_555 1_555
C7 C3 1_555 1_555
C1B C1 1_555 1_555
C2B C1B 1_555 1_555
C3B C2B 1_555 1_555
C4B C3B 1_555 1_555
C5B C4B 1_555 1_555
C6B C1B 1_555 1_555
C7B C3B 1_555 1_555
N1B C7B 1_555 1_555
C5B C6B 1_555 1_555

#END
