
#######################################################################
#
#                 Cambridge Crystallographic Data Centre
#                                CCDC 
#
#######################################################################
#
# If this CIF has been generated from an entry in the Cambridge 
# Structural Database, then it will include bibliographic, chemical, 
# crystal, experimental, refinement or atomic coordinate data resulting 
# from the CCDC's data processing and validation procedures.
#
#######################################################################

data_QEKVUY
_chemical_formula_moiety         
'C22 H31 N6 O4 S1 1+,C7 H4 N1 O3 S1 1-,C1 H3 N1 O2'
_chemical_name_systematic        
'Sildenafil saccharinate nitromethane clathrate'
_symmetry_cell_setting           triclinic
_symmetry_space_group_name_H-M   'P -1'
_symmetry_Int_Tables_number      2
_space_group_name_Hall           '-P 1'
loop_
_symmetry_equiv_pos_site_id
_symmetry_equiv_pos_as_xyz
1 x,y,z
2 -x,-y,-z
_cell_length_a                   9.904(3)
_cell_length_b                   12.121(3)
_cell_length_c                   14.746(4)
_cell_angle_alpha                87.369(3)
_cell_angle_beta                 75.491(3)
_cell_angle_gamma                89.243(3)
_cell_volume                     1711.94
_exptl_crystal_colour            colorless
_exptl_crystal_description       block
_cell_formula_units_Z            2
loop_
_atom_site_label
_atom_site_type_symbol
_atom_site_fract_x
_atom_site_fract_y
_atom_site_fract_z
S1 S 0.30366(8) 0.48675(6) 0.36250(5)
O1 O 0.5869(2) 0.18510(18) 0.06373(14)
O2 O 0.4714(2) 0.21362(19) -0.19875(15)
N1 N 0.3203(3) 0.4459(2) 0.00573(17)
O3 O 0.2689(2) 0.59169(18) 0.32175(15)
O4 O 0.3728(2) 0.48513(19) 0.43855(15)
C1 C 0.4028(3) 0.3629(2) 0.0165(2)
N2 N -0.0770(3) 0.2635(2) 0.43842(19)
N3 N 0.1513(3) 0.4207(2) 0.40535(17)
N4 N 0.2915(3) 0.4204(2) -0.23036(17)
C2 C 0.5551(3) 0.2495(3) 0.2228(2)
H1 H 0.6174 0.1943 0.2361
N5 N 0.4568(3) 0.2885(2) -0.05457(18)
C3 C 0.2899(3) 0.4552(2) -0.0817(2)
C4 C 0.3776(3) 0.4167(2) 0.1808(2)
H2 H 0.3189 0.4744 0.1673
C5 C 0.4013(3) 0.4051(3) 0.2709(2)
C6 C 0.4398(3) 0.3435(2) 0.1098(2)
N6 N 0.2046(3) 0.5105(2) -0.20737(18)
C7 C 0.3440(3) 0.3841(2) -0.1562(2)
C8 C 0.4281(3) 0.2892(3) -0.1441(2)
C9 C 0.4915(3) 0.3213(3) 0.2922(2)
H3 H 0.5082 0.3142 0.3529
C10 C 0.5281(3) 0.2577(2) 0.1325(2)
C11 C 0.0598(3) 0.4161(3) 0.3385(2)
H4 H 0.1005 0.3649 0.2883
H5 H 0.0531 0.4903 0.3089
C12 C -0.0860(3) 0.3761(3) 0.3921(2)
H6 H -0.1280 0.4292 0.4403
H7 H -0.1466 0.3723 0.3482
C13 C 0.0181(3) 0.2666(3) 0.5047(2)
H8 H 0.0264 0.1916 0.5323
H9 H -0.0224 0.3159 0.5563
C14 C 0.1634(3) 0.3090(3) 0.4509(2)
H10 H 0.2239 0.3139 0.4948
H11 H 0.2068 0.2566 0.4025
C15 C 0.2018(3) 0.5320(3) -0.1162(2)
C16 C -0.0732(4) 0.7741(3) -0.0680(2)
H12 H -0.1256 0.7474 -0.0055
H13 H -0.1384 0.8023 -0.1038
H14 H -0.0103 0.8335 -0.0620
C17 C 0.6492(4) 0.0812(3) 0.0916(2)
H15 H 0.5778 0.0366 0.1370
H16 H 0.7256 0.0976 0.1211
C18 C -0.2187(4) 0.2186(3) 0.4864(2)
H17 H -0.2650 0.2677 0.5358
H18 H -0.2089 0.1448 0.5142
H19 H -0.2747 0.2139 0.4405
C19 C 0.1144(3) 0.6257(3) -0.0662(2)
H20 H 0.1778 0.6837 -0.0559
H21 H 0.0603 0.5971 -0.0039
C20 C 0.0127(3) 0.6783(3) -0.1195(2)
H22 H -0.0519 0.6208 -0.1289
H23 H 0.0664 0.7062 -0.1821
C21 C 0.3180(4) 0.3776(3) -0.3256(2)
H24 H 0.3946 0.3239 -0.3345
H25 H 0.3434 0.4389 -0.3723
H26 H 0.2337 0.3416 -0.3331
C22 C 0.7052(4) 0.0187(3) 0.0028(2)
H27 H 0.6302 0.0085 -0.0285
H28 H 0.7402 -0.0536 0.0191
H29 H 0.7811 0.0609 -0.0393
H30 H -0.039(5) 0.211(4) 0.389(3)
H31 H 0.505(4) 0.231(3) -0.038(3)
S2 S 0.17404(8) 1.03865(7) 0.29761(6)
O5 O -0.1793(2) 1.10012(19) 0.26380(16)
O6 O 0.2953(2) 1.0867(2) 0.23004(18)
C23 C 0.1157(3) 0.9195(3) 0.2509(2)
O7 O 0.1919(3) 1.0148(2) 0.39188(17)
C24 C -0.0638(3) 1.0592(3) 0.2675(2)
N7 N 0.0332(3) 1.1133(2) 0.30201(18)
C25 C 0.1134(4) 0.7401(3) 0.1893(2)
H32 H 0.1556 0.6704 0.1736
C26 C -0.0154(3) 0.9448(3) 0.2354(2)
C27 C -0.0185(3) 0.7639(3) 0.1725(2)
H33 H -0.0635 0.7100 0.1457
C28 C 0.1833(3) 0.8183(3) 0.2289(2)
H34 H 0.2721 0.8031 0.2402
C29 C -0.0847(3) 0.8669(3) 0.1951(2)
H35 H -0.1731 0.8831 0.1834
O8 O 0.5361(3) 0.8180(3) 0.4874(2)
N8 N 0.6106(3) 0.8828(2) 0.4287(2)
O9 O 0.7385(3) 0.8869(2) 0.4169(2)
C30 C 0.5410(4) 0.9562(3) 0.3679(2)
H36 H 0.5990 1.0215 0.3450
H37 H 0.4493 0.9793 0.4049
H38 H 0.5298 0.9152 0.3145
loop_
_geom_bond_atom_site_label_1
_geom_bond_atom_site_label_2
_geom_bond_site_symmetry_1
_geom_bond_site_symmetry_2
S1 O3 1_555 1_555
O1 C10 1_555 1_555
O2 C8 1_555 1_555
N1 C1 1_555 1_555
O4 S1 1_555 1_555
C1 N5 1_555 1_555
N2 C12 1_555 1_555
N3 S1 1_555 1_555
N4 N6 1_555 1_555
C2 H1 1_555 1_555
N5 C8 1_555 1_555
C3 N1 1_555 1_555
C4 H2 1_555 1_555
C5 S1 1_555 1_555
C6 C1 1_555 1_555
N6 C15 1_555 1_555
C7 N4 1_555 1_555
C8 C7 1_555 1_555
C9 C2 1_555 1_555
H3 C9 1_555 1_555
C10 C2 1_555 1_555
C11 N3 1_555 1_555
H4 C11 1_555 1_555
H5 C11 1_555 1_555
C12 C11 1_555 1_555
H6 C12 1_555 1_555
H7 C12 1_555 1_555
C13 N2 1_555 1_555
H8 C13 1_555 1_555
H9 C13 1_555 1_555
C14 N3 1_555 1_555
H10 C14 1_555 1_555
H11 C14 1_555 1_555
C15 C3 1_555 1_555
C16 H12 1_555 1_555
H13 C16 1_555 1_555
H14 C16 1_555 1_555
C17 O1 1_555 1_555
H15 C17 1_555 1_555
H16 C17 1_555 1_555
C18 N2 1_555 1_555
H17 C18 1_555 1_555
H18 C18 1_555 1_555
H19 C18 1_555 1_555
C19 C15 1_555 1_555
H20 C19 1_555 1_555
H21 C19 1_555 1_555
C20 C16 1_555 1_555
H22 C20 1_555 1_555
H23 C20 1_555 1_555
C21 N4 1_555 1_555
H24 C21 1_555 1_555
H25 C21 1_555 1_555
H26 C21 1_555 1_555
C22 C17 1_555 1_555
H27 C22 1_555 1_555
H28 C22 1_555 1_555
H29 C22 1_555 1_555
H30 N2 1_555 1_555
H31 N5 1_555 1_555
S2 O6 1_555 1_555
O5 C24 1_555 1_555
C23 S2 1_555 1_555
O7 S2 1_555 1_555
C24 N7 1_555 1_555
N7 S2 1_555 1_555
C25 H32 1_555 1_555
C26 C23 1_555 1_555
C27 C25 1_555 1_555
H33 C27 1_555 1_555
C28 C23 1_555 1_555
H34 C28 1_555 1_555
C29 C26 1_555 1_555
H35 C29 1_555 1_555
O8 N8 1_555 1_555
N8 O9 1_555 1_555
C30 N8 1_555 1_555
H36 C30 1_555 1_555
H37 C30 1_555 1_555
H38 C30 1_555 1_555
C3 C7 1_555 1_555
C4 C5 1_555 1_555
C4 C6 1_555 1_555
C5 C9 1_555 1_555
C6 C10 1_555 1_555
C13 C14 1_555 1_555
C19 C20 1_555 1_555
C24 C26 1_555 1_555
C25 C28 1_555 1_555
C27 C29 1_555 1_555

#END
