
#######################################################################
#
#                 Cambridge Crystallographic Data Centre
#                                CCDC 
#
#######################################################################
#
# If this CIF has been generated from an entry in the Cambridge 
# Structural Database, then it will include bibliographic, chemical, 
# crystal, experimental, refinement or atomic coordinate data resulting 
# from the CCDC's data processing and validation procedures.
#
#######################################################################

data_QEKVIL
_chemical_formula_moiety         'C21 H27 Cl1 O4'
_chemical_name_systematic        
'Methyl 1-chloro-7-isopropyl-4a-methyl-8-methoxy-1,1a,2,3,4,4a,9,10-octahydrophenanthren-2-one-1-carboxylate'
_symmetry_cell_setting           monoclinic
_symmetry_space_group_name_H-M   'P 21/n'
_symmetry_Int_Tables_number      14
_space_group_name_Hall           '-P 2yn'
loop_
_symmetry_equiv_pos_site_id
_symmetry_equiv_pos_as_xyz
1 x,y,z
2 1/2-x,1/2+y,1/2-z
3 -x,-y,-z
4 1/2+x,1/2-y,1/2+z
_cell_length_a                   14.931(2)
_cell_length_b                   9.740(2)
_cell_length_c                   15.246(1)
_cell_angle_alpha                90
_cell_angle_beta                 117.221(5)
_cell_angle_gamma                90
_cell_volume                     1971.64
_exptl_crystal_colour            colorless
_cell_formula_units_Z            4
loop_
_atom_site_label
_atom_site_type_symbol
_atom_site_fract_x
_atom_site_fract_y
_atom_site_fract_z
Cl1 Cl 0.40389(4) 0.20429(5) -0.03165(3)
O1 O 0.6025(1) 0.1696(2) -0.0090(1)
O2 O 0.5794(1) 0.4504(1) 0.1055(1)
O3 O 0.4489(1) 0.4119(1) 0.1365(1)
O4 O 0.40532(9) -0.2193(1) 0.3452(1)
C1 C 0.6054(1) 0.1149(2) 0.2608(1)
C2 C 0.6942(1) 0.0800(2) 0.2399(1)
C3 C 0.7039(1) 0.1762(2) 0.1654(1)
C4 C 0.6079(1) 0.1879(2) 0.0711(1)
C5 C 0.5139(1) 0.2218(2) 0.0858(1)
C6 C 0.5082(1) 0.1174(2) 0.1598(1)
C7 C 0.4139(1) 0.1229(2) 0.1742(1)
C8 C 0.4041(1) -0.0112(2) 0.2198(1)
C9 C 0.5012(1) -0.0554(2) 0.3066(1)
C10 C 0.4987(1) -0.1608(2) 0.3682(1)
C11 C 0.5848(1) -0.2128(2) 0.4465(1)
C12 C 0.6755(1) -0.1503(2) 0.4653(1)
C13 C 0.6803(1) -0.0449(2) 0.4072(1)
C14 C 0.5943(1) 0.0021(2) 0.3256(1)
C15 C 0.6265(2) 0.2515(2) 0.3189(1)
C16 C 0.5186(1) 0.3751(2) 0.1105(1)
C17 C 0.4514(3) 0.5553(3) 0.1646(2)
C18 C 0.3580(2) -0.1605(3) 0.3992(2)
C19 C 0.5829(2) -0.3347(2) 0.5075(2)
C20 C 0.6233(3) -0.2982(3) 0.6156(2)
C21 C 0.6412(2) -0.4550(2) 0.4951(2)
H1 H 0.644(2) 0.329(2) 0.290(2)
H2 H 0.567(2) 0.278(2) 0.329(2)
H3 H 0.683(2) 0.240(3) 0.382(2)
H4 H 0.404(2) 0.562(3) 0.186(2)
H5 H 0.518(2) 0.575(3) 0.220(2)
H6 H 0.436(2) 0.613(3) 0.105(2)
H7 H 0.399(2) -0.176(3) 0.472(2)
H8 H 0.346(2) -0.061(3) 0.387(2)
H9 H 0.294(2) -0.197(3) 0.374(2)
H10 H 0.584(2) -0.227(3) 0.622(2)
H11 H 0.618(2) -0.369(3) 0.655(2)
H12 H 0.694(2) -0.269(3) 0.648(2)
H13 H 0.638(2) -0.522(3) 0.537(2)
H14 H 0.714(2) -0.430(2) 0.515(2)
H15 H 0.611(2) -0.481(3) 0.426(2)
H16 H 0.7546 0.0850 0.3001
H17 H 0.6852 -0.0110 0.2147
H18 H 0.7224 0.2648 0.1941
H19 H 0.7551 0.1419 0.1507
H20 H 0.5060 0.0299 0.1314
H21 H 0.4189 0.1970 0.2168
H22 H 0.3564 0.1357 0.1122
H23 H 0.3542 -0.0005 0.2414
H24 H 0.3839 -0.0809 0.1708
H25 H 0.7357 -0.1810 0.5195
H26 H 0.7435 -0.0034 0.4232
H27 H 0.5147 -0.3621 0.4839
loop_
_geom_bond_atom_site_label_1
_geom_bond_atom_site_label_2
_geom_bond_site_symmetry_1
_geom_bond_site_symmetry_2
Cl1 C5 1_555 1_555
O1 C4 1_555 1_555
O2 C16 1_555 1_555
O3 C16 1_555 1_555
O4 C10 1_555 1_555
C1 C2 1_555 1_555
C2 C3 1_555 1_555
C3 C4 1_555 1_555
C4 C5 1_555 1_555
C5 C6 1_555 1_555
C6 C1 1_555 1_555
C7 C6 1_555 1_555
C8 C7 1_555 1_555
C9 C8 1_555 1_555
C10 C9 1_555 1_555
C11 C10 1_555 1_555
C12 C11 1_555 1_555
C13 C12 1_555 1_555
C14 C1 1_555 1_555
C15 C1 1_555 1_555
C16 C5 1_555 1_555
C17 O3 1_555 1_555
C18 O4 1_555 1_555
C19 C11 1_555 1_555
C20 C19 1_555 1_555
C21 C19 1_555 1_555
H1 C15 1_555 1_555
H2 C15 1_555 1_555
H3 C15 1_555 1_555
H4 C17 1_555 1_555
H5 C17 1_555 1_555
H6 C17 1_555 1_555
H7 C18 1_555 1_555
H8 C18 1_555 1_555
H9 C18 1_555 1_555
H10 C20 1_555 1_555
H11 C20 1_555 1_555
H12 C20 1_555 1_555
H13 C21 1_555 1_555
H14 C21 1_555 1_555
H15 C21 1_555 1_555
H16 C2 1_555 1_555
H17 C2 1_555 1_555
H18 C3 1_555 1_555
H19 C3 1_555 1_555
H20 C6 1_555 1_555
H21 C7 1_555 1_555
H22 C7 1_555 1_555
H23 C8 1_555 1_555
H24 C8 1_555 1_555
H25 C12 1_555 1_555
H26 C13 1_555 1_555
H27 C19 1_555 1_555
C9 C14 1_555 1_555
C13 C14 1_555 1_555

#END
