
#######################################################################
#
#                 Cambridge Crystallographic Data Centre
#                                CCDC 
#
#######################################################################
#
# If this CIF has been generated from an entry in the Cambridge 
# Structural Database, then it will include bibliographic, chemical, 
# crystal, experimental, refinement or atomic coordinate data resulting 
# from the CCDC's data processing and validation procedures.
#
#######################################################################

data_QELFAR
_chemical_formula_moiety         'C25 H21 N1 O5'
_chemical_name_systematic        
"6'-(diethylamino)-3'-hydroxy-3-oxo-3H-spiro[2-benzofuran-1,9'-xanthene]-2'-carbaldehyde unknown solvate"
_symmetry_cell_setting           monoclinic
_symmetry_space_group_name_H-M   'C 2/c'
_symmetry_Int_Tables_number      15
_space_group_name_Hall           '-C 2yn'
loop_
_symmetry_equiv_pos_site_id
_symmetry_equiv_pos_as_xyz
1 x,y,z
2 -x,y,1/2-z
3 1/2+x,1/2+y,z
4 1/2-x,1/2+y,1/2-z
5 -x,-y,-z
6 x,-y,1/2+z
7 1/2-x,1/2-y,-z
8 1/2+x,1/2-y,1/2+z
_cell_length_a                   20.420(5)
_cell_length_b                   7.929(2)
_cell_length_c                   29.104(8)
_cell_angle_alpha                90
_cell_angle_beta                 91.616(6)
_cell_angle_gamma                90
_cell_volume                     4710.36
_exptl_crystal_colour            colorless
_exptl_crystal_description       block
_cell_formula_units_Z            8
loop_
_atom_site_label
_atom_site_type_symbol
_atom_site_fract_x
_atom_site_fract_y
_atom_site_fract_z
O1 O 0.05546(10) -0.1038(3) 0.08544(8)
O2 O -0.04412(12) -0.1333(3) 0.05268(10)
O3 O 0.22304(13) -0.1145(4) 0.13298(9)
O4 O 0.32543(13) -0.0676(5) -0.00725(10)
H1 H 0.3183 -0.0375 -0.0339
O5 O 0.25816(15) 0.0724(4) -0.07657(10)
N1 N 0.1658(2) -0.0810(7) 0.28916(14)
C1 C -0.00102(17) -0.0413(5) 0.06620(13)
C2 C 0.00328(16) 0.1425(4) 0.06652(12)
C3 C 0.06156(16) 0.1898(4) 0.08683(12)
C4 C 0.10179(16) 0.0354(4) 0.09926(12)
C5 C 0.16167(16) 0.0155(4) 0.07050(12)
C6 C 0.21783(18) -0.0616(5) 0.08857(13)
C7 C 0.17643(19) -0.0635(5) 0.16356(13)
C8 C 0.11841(17) 0.0153(5) 0.14915(13)
C9 C 0.07838(19) 0.0656(5) 0.18413(15)
H2 H 0.0396 0.1211 0.1762
C10 C 0.0924(2) 0.0386(6) 0.22971(15)
H3 H 0.0636 0.0763 0.2517
C11 C 0.1507(2) -0.0465(7) 0.24378(15)
C12 C 0.1195(3) -0.0345(12) 0.3267(2)
H4 H 0.1291 -0.0996 0.3543
H5 H 0.0745 -0.0556 0.3168
C13 C 0.1305(4) 0.1537(14) 0.3357(3)
H6 H 0.1215 0.2159 0.3079
H7 H 0.1752 0.1721 0.3456
H8 H 0.1017 0.1911 0.3591
C14 C 0.2252(3) -0.1768(9) 0.30323(19)
H9 H 0.2187 -0.2253 0.3334
H10 H 0.2310 -0.2690 0.2818
C15 C 0.2854(4) -0.0744(9) 0.3050(2)
H11 H 0.2934 -0.0301 0.2750
H12 H 0.3217 -0.1434 0.3150
H13 H 0.2803 0.0171 0.3262
C16 C 0.1929(2) -0.0944(6) 0.20911(14)
H14 H 0.2324 -0.1474 0.2168
C17 C 0.2722(2) -0.0884(6) 0.06281(14)
H15 H 0.3091 -0.1393 0.0761
C18 C 0.27202(19) -0.0400(5) 0.01742(14)
C19 C 0.21594(18) 0.0382(5) -0.00226(13)
C20 C 0.2138(2) 0.0935(6) -0.04974(15)
H16 H 0.1762 0.1486 -0.0605
C21 C 0.16279(16) 0.0646(4) 0.02505(12)
H17 H 0.1260 0.1179 0.0123
C22 C 0.07734(19) 0.3579(5) 0.09226(14)
H18 H 0.1168 0.3915 0.1062
C23 C 0.0315(2) 0.4750(5) 0.07587(17)
H19 H 0.0405 0.5894 0.0791
C24 C -0.0271(2) 0.4254(5) 0.05498(16)
H20 H -0.0568 0.5068 0.0445
C25 C -0.04196(18) 0.2595(5) 0.04954(14)
H21 H -0.0809 0.2255 0.0350
loop_
_geom_bond_atom_site_label_1
_geom_bond_atom_site_label_2
_geom_bond_site_symmetry_1
_geom_bond_site_symmetry_2
O1 C1 1_555 1_555
O2 C1 1_555 1_555
O3 C6 1_555 1_555
O4 H1 1_555 1_555
O5 C20 1_555 1_555
N1 C11 1_555 1_555
C1 C2 1_555 1_555
C2 C3 1_555 1_555
C3 C4 1_555 1_555
C4 O1 1_555 1_555
C5 C4 1_555 1_555
C6 C5 1_555 1_555
C7 O3 1_555 1_555
C8 C4 1_555 1_555
C9 C8 1_555 1_555
H2 C9 1_555 1_555
C10 C9 1_555 1_555
H3 C10 1_555 1_555
C11 C10 1_555 1_555
C12 N1 1_555 1_555
H4 C12 1_555 1_555
H5 C12 1_555 1_555
C13 C12 1_555 1_555
H6 C13 1_555 1_555
H7 C13 1_555 1_555
H8 C13 1_555 1_555
C14 N1 1_555 1_555
H9 C14 1_555 1_555
H10 C14 1_555 1_555
C15 C14 1_555 1_555
H11 C15 1_555 1_555
H12 C15 1_555 1_555
H13 C15 1_555 1_555
C16 C7 1_555 1_555
H14 C16 1_555 1_555
C17 C6 1_555 1_555
H15 C17 1_555 1_555
C18 O4 1_555 1_555
C19 C18 1_555 1_555
C20 C19 1_555 1_555
H16 C20 1_555 1_555
C21 C5 1_555 1_555
H17 C21 1_555 1_555
C22 C3 1_555 1_555
H18 C22 1_555 1_555
C23 C22 1_555 1_555
H19 C23 1_555 1_555
C24 C23 1_555 1_555
H20 C24 1_555 1_555
C25 C2 1_555 1_555
H21 C25 1_555 1_555
C7 C8 1_555 1_555
C11 C16 1_555 1_555
C17 C18 1_555 1_555
C19 C21 1_555 1_555
C24 C25 1_555 1_555

#END
