
#######################################################################
#
#                 Cambridge Crystallographic Data Centre
#                                CCDC 
#
#######################################################################
#
# If this CIF has been generated from an entry in the Cambridge 
# Structural Database, then it will include bibliographic, chemical, 
# crystal, experimental, refinement or atomic coordinate data resulting 
# from the CCDC's data processing and validation procedures.
#
#######################################################################

data_QELJIA
_chemical_name_common            
(1,2,3,5-tetraborapentacyclo[2.2.0.0$1,3!.0$1,5!.0$2,6!]hexane-4,6-diylbis(trimethylsilane))-tris(tetrahydrofuran)-magnesium
_chemical_formula_moiety         'C20 H46 B4 Mg1 O3 Si2'
_chemical_name_systematic        
closo-1,1,1-tris(Tetrahydrofuran)-2,4-bis(trimethylsilyl)-1-magnesa-2,4-dicarbaheptaborane
_symmetry_cell_setting           monoclinic
_symmetry_space_group_name_H-M   'P 21/c'
_symmetry_Int_Tables_number      14
_space_group_name_Hall           '-P 2ybc'
loop_
_symmetry_equiv_pos_site_id
_symmetry_equiv_pos_as_xyz
1 x,y,z
2 -x,1/2+y,1/2-z
3 -x,-y,-z
4 x,1/2-y,1/2+z
_cell_length_a                   10.1198(2)
_cell_length_b                   14.8063(2)
_cell_length_c                   19.956
_cell_angle_alpha                90
_cell_angle_beta                 101.79
_cell_angle_gamma                90
_cell_volume                     2927.06
_exptl_crystal_colour            colorless
_exptl_crystal_description       plate
_chemical_melting_point          '287 deg.C'
_cell_formula_units_Z            4
_exptl_crystal_recrystallization_method benzene
loop_
_atom_site_label
_atom_site_type_symbol
_atom_site_fract_x
_atom_site_fract_y
_atom_site_fract_z
Mg1 Mg 0.9240(1) 0.3136(1) 0.7835(1)
Si1 Si 0.6927(1) 0.3961(1) 0.9099(1)
Si2 Si 0.6726(1) 0.4160(1) 0.6169(1)
O1 O 1.0816(2) 0.2912(2) 0.7335(1)
O2 O 0.8551(2) 0.1836(2) 0.7582(1)
O3 O 1.0451(2) 0.2681(2) 0.8744(1)
C1 C 0.7634(3) 0.3964(2) 0.8319(1)
B1 B 0.6868(3) 0.3609(3) 0.7619(2)
C2 C 0.7573(3) 0.4041(2) 0.7074(1)
B2 B 0.8814(3) 0.4653(2) 0.7416(2)
B3 B 0.8861(3) 0.4603(2) 0.8248(2)
B4 B 0.7289(4) 0.4759(2) 0.7696(2)
C3 C 1.1870(4) 0.2239(3) 0.7499(3)
C4 C 1.2754(5) 0.2354(4) 0.7017(3)
C5 C 1.2496(6) 0.3281(4) 0.6744(3)
C6 C 1.1159(6) 0.3477(4) 0.6822(3)
C7 C 0.7594(5) 0.1348(3) 0.7885(3)
C8 C 0.6636(5) 0.0950(4) 0.7305(3)
C9 C 0.7422(6) 0.0778(4) 0.6776(3)
C10 C 0.8456(4) 0.1492(3) 0.6890(2)
C11 C 1.1392(4) 0.3281(3) 0.9169(2)
C12 C 1.2037(7) 0.2728(5) 0.9769(3)
C13 C 1.1555(9) 0.1861(4) 0.9684(3)
C14 C 1.0508(6) 0.1794(3) 0.9065(2)
C15 C 0.6558(8) 0.5132(4) 0.9346(3)
C16 C 0.5310(6) 0.3348(6) 0.8987(3)
C17 C 0.8105(4) 0.3509(3) 0.9841(2)
C18 C 0.5693(4) 0.5210(3) 0.6054(2)
C19 C 0.5593(4) 0.3187(4) 0.5862(2)
C20 C 0.7962(5) 0.4215(3) 0.5592(2)
loop_
_geom_bond_atom_site_label_1
_geom_bond_atom_site_label_2
_geom_bond_site_symmetry_1
_geom_bond_site_symmetry_2
Mg1 O1 1_555 1_555
Si1 C1 1_555 1_555
Si2 C2 1_555 1_555
O1 C3 1_555 1_555
O2 Mg1 1_555 1_555
O3 Mg1 1_555 1_555
C1 Mg1 1_555 1_555
B1 Mg1 1_555 1_555
C2 Mg1 1_555 1_555
B2 Mg1 1_555 1_555
B3 Mg1 1_555 1_555
B4 C1 1_555 1_555
C3 C4 1_555 1_555
C4 C5 1_555 1_555
C5 C6 1_555 1_555
C6 O1 1_555 1_555
C7 O2 1_555 1_555
C8 C7 1_555 1_555
C9 C8 1_555 1_555
C10 O2 1_555 1_555
C11 O3 1_555 1_555
C12 C11 1_555 1_555
C13 C12 1_555 1_555
C14 O3 1_555 1_555
C15 Si1 1_555 1_555
C16 Si1 1_555 1_555
C17 Si1 1_555 1_555
C18 Si2 1_555 1_555
C19 Si2 1_555 1_555
C20 Si2 1_555 1_555
C1 B1 1_555 1_555
C1 B3 1_555 1_555
B1 C2 1_555 1_555
B1 B4 1_555 1_555
C2 B2 1_555 1_555
C2 B4 1_555 1_555
B2 B3 1_555 1_555
B2 B4 1_555 1_555
B3 B4 1_555 1_555
C9 C10 1_555 1_555
C13 C14 1_555 1_555

#END
