
#######################################################################
#
#                 Cambridge Crystallographic Data Centre
#                                CCDC 
#
#######################################################################
#
# If this CIF has been generated from an entry in the Cambridge 
# Structural Database, then it will include bibliographic, chemical, 
# crystal, experimental, refinement or atomic coordinate data resulting 
# from the CCDC's data processing and validation procedures.
#
#######################################################################

data_QELPUV
_chemical_formula_moiety         'C18 H14 Br2 O3'
_chemical_name_systematic        
'4-methylphenyl 2-(2,4-dibromobut-2-enoyl)benzoate'
_symmetry_cell_setting           triclinic
_symmetry_space_group_name_H-M   'P -1'
_symmetry_Int_Tables_number      2
_space_group_name_Hall           '-P 1'
loop_
_symmetry_equiv_pos_site_id
_symmetry_equiv_pos_as_xyz
1 x,y,z
2 -x,-y,-z
_cell_length_a                   8.6056(18)
_cell_length_b                   9.950(2)
_cell_length_c                   11.172(2)
_cell_angle_alpha                83.164(3)
_cell_angle_beta                 67.931(3)
_cell_angle_gamma                73.512(3)
_cell_volume                     849.985
_exptl_crystal_colour            colorless
_exptl_crystal_description       block
_cell_formula_units_Z            2
loop_
_atom_site_label
_atom_site_type_symbol
_atom_site_fract_x
_atom_site_fract_y
_atom_site_fract_z
Br1 Br 0.31640(8) 0.66232(6) 0.95875(5)
Br2 Br 0.14035(7) 0.30485(6) 0.89810(6)
O1 O 0.4339(5) 0.0539(4) 0.8675(4)
O2 O 0.5359(4) 0.1897(3) 0.5707(3)
O3 O 0.7502(5) 0.2860(4) 0.4411(3)
C1 C 0.3254(7) 0.5597(5) 0.8176(5)
H1 H 0.2076 0.5576 0.8289
H2 H 0.3719 0.6084 0.7357
C2 C 0.4351(7) 0.4148(5) 0.8119(4)
H3 H 0.5551 0.4040 0.7868
C3 C 0.3807(6) 0.2946(5) 0.8392(4)
C4 C 0.4953(7) 0.1503(5) 0.8240(4)
C5 C 0.6877(6) 0.1298(4) 0.7625(4)
C6 C 0.7758(6) 0.1673(5) 0.6332(5)
C7 C 0.9547(7) 0.1468(5) 0.5899(5)
H4 H 1.0140 0.1741 0.5052
C8 C 1.0478(8) 0.0860(6) 0.6705(6)
H5 H 1.1689 0.0719 0.6403
C9 C 0.9607(8) 0.0476(6) 0.7937(6)
H6 H 1.0237 0.0076 0.8478
C10 C 0.7867(8) 0.0651(5) 0.8403(5)
H7 H 0.7314 0.0342 0.9245
C11 C 0.6911(6) 0.2224(5) 0.5380(4)
C12 C 0.4397(6) 0.2473(5) 0.4897(4)
C13 C 0.4502(7) 0.1647(5) 0.3948(5)
H8 H 0.5242 0.0735 0.3810
C14 C 0.3479(7) 0.2202(6) 0.3194(5)
H9 H 0.3535 0.1649 0.2546
C15 C 0.2408(7) 0.3518(6) 0.3375(5)
C16 C 0.2342(7) 0.4331(5) 0.4351(5)
H10 H 0.1619 0.5249 0.4481
C17 C 0.3310(7) 0.3809(5) 0.5115(5)
H11 H 0.3235 0.4353 0.5777
C18 C 0.1313(8) 0.4105(8) 0.2538(6)
H12 H 0.1990 0.3819 0.1651
H13 H 0.0964 0.5120 0.2577
H14 H 0.0288 0.3750 0.2853
loop_
_geom_bond_atom_site_label_1
_geom_bond_atom_site_label_2
_geom_bond_site_symmetry_1
_geom_bond_site_symmetry_2
Br1 C1 1_555 1_555
Br2 C3 1_555 1_555
O1 C4 1_555 1_555
O2 C11 1_555 1_555
O3 C11 1_555 1_555
C1 H1 1_555 1_555
H2 C1 1_555 1_555
C2 C1 1_555 1_555
H3 C2 1_555 1_555
C3 C2 1_555 1_555
C4 C3 1_555 1_555
C5 C4 1_555 1_555
C6 C5 1_555 1_555
C7 C6 1_555 1_555
H4 C7 1_555 1_555
C8 C7 1_555 1_555
H5 C8 1_555 1_555
C9 C8 1_555 1_555
H6 C9 1_555 1_555
C10 C5 1_555 1_555
H7 C10 1_555 1_555
C11 C6 1_555 1_555
C12 O2 1_555 1_555
C13 C12 1_555 1_555
H8 C13 1_555 1_555
C14 C13 1_555 1_555
H9 C14 1_555 1_555
C15 C14 1_555 1_555
C16 C15 1_555 1_555
H10 C16 1_555 1_555
C17 C12 1_555 1_555
H11 C17 1_555 1_555
C18 C15 1_555 1_555
H12 C18 1_555 1_555
H13 C18 1_555 1_555
H14 C18 1_555 1_555
C9 C10 1_555 1_555
C16 C17 1_555 1_555

#END
