
#######################################################################
#
#                 Cambridge Crystallographic Data Centre
#                                CCDC 
#
#######################################################################
#
# If this CIF has been generated from an entry in the Cambridge 
# Structural Database, then it will include bibliographic, chemical, 
# crystal, experimental, refinement or atomic coordinate data resulting 
# from the CCDC's data processing and validation procedures.
#
#######################################################################

data_QELYAI
_chemical_formula_moiety         'C7 H5 N1 O1 S1,C7 H5 N1 S2'
_chemical_name_systematic        
'1,3-Benzothiazol-2(3H)-one 1,3-benzothiazole-2(3H)-thione'
_symmetry_cell_setting           monoclinic
_symmetry_space_group_name_H-M   'P 21/c'
_symmetry_Int_Tables_number      14
_space_group_name_Hall           '-P 2ybc'
loop_
_symmetry_equiv_pos_site_id
_symmetry_equiv_pos_as_xyz
1 x,y,z
2 -x,1/2+y,1/2-z
3 -x,-y,-z
4 x,1/2-y,1/2+z
_cell_length_a                   12.078(5)
_cell_length_b                   6.793(3)
_cell_length_c                   17.271(7)
_cell_angle_alpha                90
_cell_angle_beta                 96.820(6)
_cell_angle_gamma                90
_cell_volume                     1406.99
_exptl_crystal_colour            orange
_exptl_crystal_description       prism
_cell_formula_units_Z            4
_exptl_crystal_recrystallization_method ethanol
loop_
_atom_site_label
_atom_site_type_symbol
_atom_site_fract_x
_atom_site_fract_y
_atom_site_fract_z
S1 S 0.74108(6) 0.04224(11) 0.45603(4)
S2 S 0.64817(7) 0.43677(12) 0.48774(5)
N1 N 0.81052(17) 0.2379(3) 0.57700(12)
H1 H 0.8186 0.3293 0.6117
C1 C 0.87372(19) 0.0670(3) 0.58409(13)
C2 C 0.8466(2) -0.0601(4) 0.52151(14)
C3 C 0.9004(2) -0.2392(4) 0.51810(16)
H3 H 0.8820 -0.3247 0.4765
C4 C 0.9817(2) -0.2876(4) 0.57765(17)
H4 H 1.0189 -0.4072 0.5761
C5 C 1.0091(2) -0.1609(4) 0.64003(16)
H5 H 1.0644 -0.1966 0.6796
C6 C 0.9554(2) 0.0173(4) 0.64415(14)
H6 H 0.9735 0.1018 0.6861
C7 C 0.7360(2) 0.2533(4) 0.51314(15)
S3 S 0.78603(6) 0.81042(11) 0.78808(4)
O1 O 0.82639(17) 0.4906(3) 0.70658(11)
N2 N 0.69078(17) 0.7061(3) 0.65412(12)
H2 H 0.6704 0.6394 0.6125
C8 C 0.6425(2) 0.8867(3) 0.66808(13)
C9 C 0.6863(2) 0.9672(4) 0.73920(14)
C10 C 0.6496(2) 1.1491(4) 0.76257(16)
H7 H 0.6787 1.2039 0.8100
C11 C 0.5692(2) 1.2461(4) 0.71403(18)
H8 H 0.5442 1.3688 0.7285
C12 C 0.5250(2) 1.1633(4) 0.64384(18)
H9 H 0.4701 1.2310 0.6121
C13 C 0.5606(2) 0.9829(4) 0.61986(16)
H10 H 0.5303 0.9278 0.5727
C14 C 0.7709(2) 0.6408(4) 0.70891(14)
loop_
_geom_bond_atom_site_label_1
_geom_bond_atom_site_label_2
_geom_bond_site_symmetry_1
_geom_bond_site_symmetry_2
S1 C2 1_555 1_555
S2 C7 1_555 1_555
S3 C9 1_555 1_555
O1 C14 1_555 1_555
N1 H1 1_555 1_555
N2 H2 1_555 1_555
C1 N1 1_555 1_555
C2 C1 1_555 1_555
C3 C2 1_555 1_555
H3 C3 1_555 1_555
C4 C3 1_555 1_555
H4 C4 1_555 1_555
C5 C4 1_555 1_555
H5 C5 1_555 1_555
C6 C1 1_555 1_555
H6 C6 1_555 1_555
C7 S1 1_555 1_555
C8 N2 1_555 1_555
C9 C8 1_555 1_555
C10 C9 1_555 1_555
H7 C10 1_555 1_555
C11 C10 1_555 1_555
H8 C11 1_555 1_555
C12 C11 1_555 1_555
H9 C12 1_555 1_555
C13 C8 1_555 1_555
H10 C13 1_555 1_555
C14 S3 1_555 1_555
N1 C7 1_555 1_555
N2 C14 1_555 1_555
C5 C6 1_555 1_555
C12 C13 1_555 1_555

#END
