
#######################################################################
#
#                 Cambridge Crystallographic Data Centre
#                                CCDC 
#
#######################################################################
#
# If this CIF has been generated from an entry in the Cambridge 
# Structural Database, then it will include bibliographic, chemical, 
# crystal, experimental, refinement or atomic coordinate data resulting 
# from the CCDC's data processing and validation procedures.
#
#######################################################################

data_QEMBAM
_chemical_formula_moiety         'C25 H30 O4 Si1'
_chemical_name_systematic        
4-Butyl-2-phenyl-2-(trimethylsilyloxy)-3,4-dihydro-2H,5H-pyrano(3,2-c)(1)benzopyran-5-one
_symmetry_cell_setting           monoclinic
_symmetry_space_group_name_H-M   'P 21/n'
_symmetry_Int_Tables_number      14
_space_group_name_Hall           '-P 2yn'
loop_
_symmetry_equiv_pos_site_id
_symmetry_equiv_pos_as_xyz
1 x,y,z
2 1/2-x,1/2+y,1/2-z
3 -x,-y,-z
4 1/2+x,1/2-y,1/2+z
_cell_length_a                   12.138(2)
_cell_length_b                   12.874(3)
_cell_length_c                   15.300(3)
_cell_angle_alpha                90
_cell_angle_beta                 90.20(3)
_cell_angle_gamma                90
_cell_volume                     2390.83
_exptl_crystal_colour            colorless
_exptl_crystal_description       block
_chemical_melting_point          '389.2 K'
_cell_formula_units_Z            4
_exptl_crystal_recrystallization_method 'petroleum ether/acetone'
loop_
_atom_site_label
_atom_site_type_symbol
_atom_site_fract_x
_atom_site_fract_y
_atom_site_fract_z
O1 O 0.31524(15) 0.35280(16) 0.37902(13)
O2 O 0.38656(16) 0.20111(17) 0.43653(13)
O3 O -0.02571(19) 0.2168(2) 0.27937(17)
O4 O -0.01687(17) 0.3763(2) 0.32973(15)
C1 C 0.1766(6) -0.0827(5) 0.5075(4)
H1 H 0.1453 -0.1435 0.5339
H2 H 0.1305 -0.0238 0.5192
H3 H 0.2488 -0.0706 0.5313
C2 C 0.1843(6) -0.0973(4) 0.4182(4)
H4 H 0.1106 -0.1118 0.3967
H5 H 0.2276 -0.1596 0.4089
C3 C 0.2323(4) -0.0132(3) 0.3609(3)
H6 H 0.3103 -0.0064 0.3737
H7 H 0.2250 -0.0338 0.3001
C4 C 0.1782(3) 0.0894(3) 0.3732(2)
H8 H 0.1992 0.1162 0.4301
H9 H 0.0991 0.0789 0.3737
C5 C 0.2052(2) 0.1727(3) 0.3037(2)
H10 H 0.1743 0.1489 0.2479
C6 C 0.3277(2) 0.1963(3) 0.2888(2)
H11 H 0.3673 0.1311 0.2836
H12 H 0.3354 0.2333 0.2340
C7 C 0.3804(2) 0.2601(3) 0.3608(2)
C8 C 0.2791(3) 0.2880(4) 0.5860(3)
H13 H 0.2615 0.3525 0.5578
H14 H 0.2885 0.2993 0.6476
H15 H 0.2204 0.2393 0.5765
C9 C 0.4452(4) 0.1116(3) 0.5922(3)
H16 H 0.3861 0.0628 0.5850
H17 H 0.4586 0.1228 0.6534
H18 H 0.5107 0.0846 0.5654
C10 C 0.5174(4) 0.3332(4) 0.5508(3)
H19 H 0.4948 0.3966 0.5229
H20 H 0.5833 0.3079 0.5235
H21 H 0.5317 0.3462 0.6116
C11 C 0.4935(2) 0.3022(3) 0.3343(2)
C12 C 0.5092(3) 0.4015(3) 0.3041(3)
H22 H 0.4491 0.4460 0.2996
C13 C 0.6122(4) 0.4367(4) 0.2803(3)
H23 H 0.6215 0.5043 0.2603
C14 C 0.7001(4) 0.3710(6) 0.2863(3)
H24 H 0.7697 0.3941 0.2700
C15 C 0.6874(3) 0.2729(5) 0.3157(3)
H25 H 0.7485 0.2296 0.3203
C16 C 0.5830(3) 0.2356(4) 0.3394(2)
H26 H 0.5740 0.1674 0.3582
C17 C 0.2050(2) 0.3529(3) 0.36205(18)
C18 C 0.1500(2) 0.2730(3) 0.32634(19)
C19 C 0.0324(3) 0.2835(3) 0.3100(2)
C20 C 0.0399(2) 0.4571(3) 0.3666(2)
C21 C -0.0177(3) 0.5462(3) 0.3865(2)
H27 H -0.0920 0.5516 0.3723
C22 C 0.0346(3) 0.6261(3) 0.4271(3)
H28 H -0.0044 0.6862 0.4404
C23 C 0.1447(3) 0.6193(3) 0.4487(3)
H29 H 0.1794 0.6740 0.4775
C24 C 0.2031(3) 0.5317(3) 0.4275(2)
H30 H 0.2778 0.5280 0.4409
C25 C 0.1520(2) 0.4487(3) 0.38645(19)
Si1 Si 0.40752(7) 0.23564(8) 0.54003(6)
loop_
_geom_bond_atom_site_label_1
_geom_bond_atom_site_label_2
_geom_bond_site_symmetry_1
_geom_bond_site_symmetry_2
O1 C7 1_555 1_555
O2 C7 1_555 1_555
O3 C19 1_555 1_555
O4 C19 1_555 1_555
C1 H1 1_555 1_555
H2 C1 1_555 1_555
H3 C1 1_555 1_555
C2 C1 1_555 1_555
H4 C2 1_555 1_555
H5 C2 1_555 1_555
C3 C2 1_555 1_555
H6 C3 1_555 1_555
H7 C3 1_555 1_555
C4 C3 1_555 1_555
H8 C4 1_555 1_555
H9 C4 1_555 1_555
C5 C4 1_555 1_555
H10 C5 1_555 1_555
C6 C5 1_555 1_555
H11 C6 1_555 1_555
H12 C6 1_555 1_555
C7 C6 1_555 1_555
C8 H13 1_555 1_555
H14 C8 1_555 1_555
H15 C8 1_555 1_555
C9 H16 1_555 1_555
H17 C9 1_555 1_555
H18 C9 1_555 1_555
C10 H19 1_555 1_555
H20 C10 1_555 1_555
H21 C10 1_555 1_555
C11 C7 1_555 1_555
C12 C11 1_555 1_555
H22 C12 1_555 1_555
C13 C12 1_555 1_555
H23 C13 1_555 1_555
C14 C13 1_555 1_555
H24 C14 1_555 1_555
C15 C14 1_555 1_555
H25 C15 1_555 1_555
C16 C11 1_555 1_555
H26 C16 1_555 1_555
C17 O1 1_555 1_555
C18 C5 1_555 1_555
C19 C18 1_555 1_555
C20 O4 1_555 1_555
C21 C20 1_555 1_555
H27 C21 1_555 1_555
C22 C21 1_555 1_555
H28 C22 1_555 1_555
C23 C22 1_555 1_555
H29 C23 1_555 1_555
C24 C23 1_555 1_555
H30 C24 1_555 1_555
C25 C17 1_555 1_555
Si1 O2 1_555 1_555
C8 Si1 1_555 1_555
C9 Si1 1_555 1_555
C10 Si1 1_555 1_555
C15 C16 1_555 1_555
C17 C18 1_555 1_555
C20 C25 1_555 1_555
C24 C25 1_555 1_555

#END
