
#######################################################################
#
#                 Cambridge Crystallographic Data Centre
#                                CCDC 
#
#######################################################################
#
# If this CIF has been generated from an entry in the Cambridge 
# Structural Database, then it will include bibliographic, chemical, 
# crystal, experimental, refinement or atomic coordinate data resulting 
# from the CCDC's data processing and validation procedures.
#
#######################################################################

data_QEMGUL
_chemical_formula_moiety         'C15 H13 N3 S1'
_chemical_name_systematic        
3-Methyl-1-phenyl-N-(2-thienylmethylene)-1H-pyrazol-5-amine
_symmetry_cell_setting           monoclinic
_symmetry_space_group_name_H-M   'P 21/c'
_symmetry_Int_Tables_number      14
_space_group_name_Hall           '-P 2ybc'
loop_
_symmetry_equiv_pos_site_id
_symmetry_equiv_pos_as_xyz
1 x,y,z
2 -x,1/2+y,1/2-z
3 -x,-y,-z
4 x,1/2-y,1/2+z
_cell_length_a                   10.035(4)
_cell_length_b                   8.194(3)
_cell_length_c                   16.671(7)
_cell_angle_alpha                90
_cell_angle_beta                 92.438(5)
_cell_angle_gamma                90
_cell_volume                     1369.56
_exptl_crystal_colour            yellow
_exptl_crystal_description       block
_cell_formula_units_Z            4
_exptl_crystal_recrystallization_method ethanol
loop_
_atom_site_label
_atom_site_type_symbol
_atom_site_fract_x
_atom_site_fract_y
_atom_site_fract_z
N1 N 0.15469(19) 0.4472(2) 0.69549(12)
N2 N 0.0735(2) 0.4553(3) 0.62744(12)
N3 N 0.1598(2) 0.5093(3) 0.83491(13)
S1 S 0.31109(9) 0.48198(12) 0.99574(5)
C1 C -0.0399(3) 0.5191(3) 0.65183(16)
C2 C -0.0325(2) 0.5534(3) 0.73340(16)
H1 H -0.0991 0.5989 0.7635
C3 C 0.0929(2) 0.5069(3) 0.76092(15)
C4 C 0.1084(3) 0.5853(3) 0.89249(16)
H2 H 0.0282 0.6400 0.8828
C5 C 0.1694(3) 0.5896(3) 0.97162(16)
C6 C 0.1285(3) 0.6719(4) 1.03697(18)
H3 H 0.0523 0.7367 1.0361
C7 C 0.2109(4) 0.6502(4) 1.10522(18)
H4 H 0.1968 0.6994 1.1544
C8 C 0.3124(4) 0.5507(5) 1.09194(19)
H5 H 0.3770 0.5218 1.1310
C9 C 0.2881(2) 0.3894(3) 0.68847(15)
C10 C 0.3507(3) 0.4161(4) 0.61757(16)
H6 H 0.3071 0.4730 0.5759
C11 C 0.4776(3) 0.3583(4) 0.60878(19)
H7 H 0.5193 0.3754 0.5607
C12 C 0.5434(3) 0.2760(4) 0.6697(2)
H8 H 0.6297 0.2382 0.6633
C13 C 0.4817(3) 0.2492(4) 0.74052(19)
H9 H 0.5263 0.1930 0.7820
C14 C 0.3536(3) 0.3057(3) 0.75020(17)
H10 H 0.3118 0.2874 0.7981
C15 C -0.1541(3) 0.5456(4) 0.59229(18)
H11 H -0.1292 0.5096 0.5402
H12 H -0.1760 0.6596 0.5901
H13 H -0.2301 0.4846 0.6084
loop_
_geom_bond_atom_site_label_1
_geom_bond_atom_site_label_2
_geom_bond_site_symmetry_1
_geom_bond_site_symmetry_2
N1 N2 1_555 1_555
N2 C1 1_555 1_555
N3 C3 1_555 1_555
S1 C5 1_555 1_555
C1 C2 1_555 1_555
C2 H1 1_555 1_555
C3 N1 1_555 1_555
C4 N3 1_555 1_555
H2 C4 1_555 1_555
C5 C4 1_555 1_555
C6 C5 1_555 1_555
H3 C6 1_555 1_555
C7 C6 1_555 1_555
H4 C7 1_555 1_555
C8 S1 1_555 1_555
H5 C8 1_555 1_555
C9 N1 1_555 1_555
C10 C9 1_555 1_555
H6 C10 1_555 1_555
C11 C10 1_555 1_555
H7 C11 1_555 1_555
C12 C11 1_555 1_555
H8 C12 1_555 1_555
C13 C12 1_555 1_555
H9 C13 1_555 1_555
C14 C9 1_555 1_555
H10 C14 1_555 1_555
C15 C1 1_555 1_555
H11 C15 1_555 1_555
H12 C15 1_555 1_555
H13 C15 1_555 1_555
C2 C3 1_555 1_555
C7 C8 1_555 1_555
C13 C14 1_555 1_555

#END
