
#######################################################################
#
#                 Cambridge Crystallographic Data Centre
#                                CCDC 
#
#######################################################################
#
# If this CIF has been generated from an entry in the Cambridge 
# Structural Database, then it will include bibliographic, chemical, 
# crystal, experimental, refinement or atomic coordinate data resulting 
# from the CCDC's data processing and validation procedures.
#
#######################################################################

data_QEMSAD
_chemical_name_common            'Methyl (Z)-beta-chlorocinnamohydroxamate'
_chemical_formula_moiety         'C10 H10 Cl1 N1 O2'
_chemical_name_systematic        (Z)-3-Chloro-N-methoxy-3-phenylacrylamide
_symmetry_cell_setting           triclinic
_symmetry_space_group_name_H-M   'P -1'
_symmetry_Int_Tables_number      2
_space_group_name_Hall           '-P 1'
loop_
_symmetry_equiv_pos_site_id
_symmetry_equiv_pos_as_xyz
1 x,y,z
2 -x,-y,-z
_cell_length_a                   10.8798(15)
_cell_length_b                   11.3640(10)
_cell_length_c                   13.0891(14)
_cell_angle_alpha                104.466(6)
_cell_angle_beta                 101.454(5)
_cell_angle_gamma                95.672(7)
_cell_volume                     1516.89
_exptl_crystal_colour            colorless
_chemical_melting_point          '96-97 deg.C'
_cell_formula_units_Z            6
loop_
_atom_site_label
_atom_site_type_symbol
_atom_site_fract_x
_atom_site_fract_y
_atom_site_fract_z
Cl1 Cl 0.85063(3) 0.94853(4) 1.20748(3)
O1 O 0.59611(9) 0.83803(9) 1.06019(7)
O2 O 0.45396(9) 0.75682(9) 0.85574(8)
N1 N 0.58555(10) 0.78447(11) 0.87999(9)
H1 H 0.6203(16) 0.7681(15) 0.8259(14)
C1 C 0.88241(12) 0.88442(11) 1.08167(10)
C2 C 0.78853(12) 0.83662(11) 0.99324(10)
H2 H 0.8143 0.8089 0.9272
C3 C 0.65008(12) 0.82115(11) 0.98442(10)
C4 C 1.01884(12) 0.88574(11) 1.08212(10)
C5 C 1.11404(12) 0.96755(12) 1.16360(11)
H3 H 1.0918 1.0263 1.2198
C6 C 1.24144(13) 0.96351(13) 1.16295(12)
H4 H 1.3055 1.0186 1.2195
C7 C 1.27563(13) 0.88012(13) 1.08086(13)
H5 H 1.3627 0.8781 1.0806
C8 C 1.18174(14) 0.79945(13) 0.99884(13)
H6 H 1.2047 0.7424 0.9419
C9 C 1.05453(13) 0.80153(12) 0.99939(11)
H7 H 0.9911 0.7453 0.9431
C10 C 0.39954(15) 0.86133(15) 0.83660(13)
H8 H 0.4240 0.9297 0.9030
H9 H 0.3068 0.8400 0.8152
H10 H 0.4306 0.8858 0.7784
Cl2 Cl 0.72762(3) 0.51537(3) 0.80305(2)
O3 O 0.51254(9) 0.32493(9) 0.65866(7)
O4 O 0.32959(9) 0.13690(9) 0.63394(7)
N2 N 0.41085(11) 0.19660(11) 0.73392(8)
H11 H 0.3909(16) 0.1792(15) 0.7892(14)
C11 C 0.66667(12) 0.44358(11) 0.88874(9)
C12 C 0.56956(12) 0.35073(12) 0.85206(9)
H12 H 0.5438 0.3174 0.9056
C13 C 0.49689(12) 0.29294(12) 0.73915(10)
C14 C 0.73114(12) 0.49262(11) 1.00498(9)
C15 C 0.85875(13) 0.54596(13) 1.03692(11)
H13 H 0.9038 0.5555 0.9836
C16 C 0.92045(14) 0.58523(14) 1.14593(12)
H14 H 1.0077 0.6203 1.1667
C17 C 0.85521(15) 0.57340(13) 1.22440(11)
H15 H 0.8976 0.5999 1.2989
C18 C 0.72790(14) 0.52275(13) 1.19377(11)
H16 H 0.6827 0.5158 1.2476
C19 C 0.66572(13) 0.48201(12) 1.08485(10)
H17 H 0.5785 0.4468 1.0646
C20 C 0.3800(2) 0.03277(17) 0.58261(14)
H18 H 0.4682 0.0584 0.5811
H19 H 0.3294 -0.0029 0.5083
H20 H 0.3772 -0.0288 0.6232
Cl3 Cl 0.00697(4) 0.31892(4) 0.30050(3)
O5 O 0.26495(9) 0.25793(9) 0.28044(7)
O6 O 0.50517(9) 0.26493(9) 0.38599(8)
N3 N 0.40426(12) 0.26656(13) 0.43678(10)
H21 H 0.4234(17) 0.2755(16) 0.5035(15)
C21 C 0.06880(13) 0.27467(12) 0.41565(10)
C22 C 0.18944(12) 0.25806(12) 0.44163(10)
H22 H 0.2163 0.2418 0.5097
C23 C 0.28674(12) 0.26182(11) 0.37723(10)
C24 C -0.02179(12) 0.25974(13) 0.48389(10)
C25 C -0.11270(15) 0.33686(15) 0.49880(12)
H23 H -0.1220 0.3973 0.4603
C26 C -0.18970(15) 0.32553(17) 0.56985(12)
H24 H -0.2504 0.3793 0.5805
C27 C -0.17879(14) 0.23695(16) 0.62503(12)
H25 H -0.2316 0.2298 0.6736
C28 C -0.09081(14) 0.15872(15) 0.60929(12)
H26 H -0.0840 0.0968 0.6464
C29 C -0.01214(13) 0.16994(13) 0.53956(11)
H27 H 0.0486 0.1161 0.5297
C30 C 0.55628(14) 0.38809(14) 0.39044(12)
H28 H 0.4912 0.4243 0.3506
H29 H 0.6297 0.3862 0.3575
H30 H 0.5828 0.4378 0.4662
loop_
_geom_bond_atom_site_label_1
_geom_bond_atom_site_label_2
_geom_bond_site_symmetry_1
_geom_bond_site_symmetry_2
Cl1 C1 1_555 1_555
O1 C3 1_555 1_555
O2 N1 1_555 1_555
N1 H1 1_555 1_555
C1 C2 1_555 1_555
C2 H2 1_555 1_555
C3 N1 1_555 1_555
C4 C1 1_555 1_555
C5 C4 1_555 1_555
H3 C5 1_555 1_555
C6 C5 1_555 1_555
H4 C6 1_555 1_555
C7 C6 1_555 1_555
H5 C7 1_555 1_555
C8 C7 1_555 1_555
H6 C8 1_555 1_555
C9 C4 1_555 1_555
H7 C9 1_555 1_555
C10 O2 1_555 1_555
H8 C10 1_555 1_555
H9 C10 1_555 1_555
H10 C10 1_555 1_555
Cl2 C11 1_555 1_555
O3 C13 1_555 1_555
O4 N2 1_555 1_555
N2 H11 1_555 1_555
C11 C12 1_555 1_555
C12 H12 1_555 1_555
C13 N2 1_555 1_555
C14 C11 1_555 1_555
C15 C14 1_555 1_555
H13 C15 1_555 1_555
C16 C15 1_555 1_555
H14 C16 1_555 1_555
C17 C16 1_555 1_555
H15 C17 1_555 1_555
C18 C17 1_555 1_555
H16 C18 1_555 1_555
C19 C14 1_555 1_555
H17 C19 1_555 1_555
C20 O4 1_555 1_555
H18 C20 1_555 1_555
H19 C20 1_555 1_555
H20 C20 1_555 1_555
Cl3 C21 1_555 1_555
O5 C23 1_555 1_555
O6 N3 1_555 1_555
N3 H21 1_555 1_555
C21 C22 1_555 1_555
C22 H22 1_555 1_555
C23 N3 1_555 1_555
C24 C21 1_555 1_555
C25 C24 1_555 1_555
H23 C25 1_555 1_555
C26 C25 1_555 1_555
H24 C26 1_555 1_555
C27 C26 1_555 1_555
H25 C27 1_555 1_555
C28 C27 1_555 1_555
H26 C28 1_555 1_555
C29 C24 1_555 1_555
H27 C29 1_555 1_555
C30 O6 1_555 1_555
H28 C30 1_555 1_555
H29 C30 1_555 1_555
H30 C30 1_555 1_555
C2 C3 1_555 1_555
C8 C9 1_555 1_555
C12 C13 1_555 1_555
C18 C19 1_555 1_555
C22 C23 1_555 1_555
C28 C29 1_555 1_555

#END
