
#######################################################################
#
#                 Cambridge Crystallographic Data Centre
#                                CCDC 
#
#######################################################################
#
# If this CIF has been generated from an entry in the Cambridge 
# Structural Database, then it will include bibliographic, chemical, 
# crystal, experimental, refinement or atomic coordinate data resulting 
# from the CCDC's data processing and validation procedures.
#
#######################################################################

data_QEMTAG
_chemical_formula_moiety         'C7 H12 F1 N1 O4 S1'
_chemical_name_systematic        
'1,4-dioxa-8-azaspiro[4.5]decane-8-sulfonyl fluoride'
_symmetry_cell_setting           monoclinic
_symmetry_space_group_name_H-M   'P 21/n'
_symmetry_Int_Tables_number      14
_space_group_name_Hall           '-P 2yn'
loop_
_symmetry_equiv_pos_site_id
_symmetry_equiv_pos_as_xyz
1 x,y,z
2 1/2-x,1/2+y,1/2-z
3 -x,-y,-z
4 1/2+x,1/2-y,1/2+z
_cell_length_a                   9.9413(4)
_cell_length_b                   9.5809(4)
_cell_length_c                   10.4520(4)
_cell_angle_alpha                90
_cell_angle_beta                 106.718(2)
_cell_angle_gamma                90
_cell_volume                     953.439
_exptl_crystal_colour            colorless
_exptl_crystal_description       ROD
_cell_formula_units_Z            4
loop_
_atom_site_label
_atom_site_type_symbol
_atom_site_fract_x
_atom_site_fract_y
_atom_site_fract_z
S1 S 0.73099(5) 0.64951(6) 0.61041(5)
F1 F 0.7296(2) 0.80889(17) 0.64218(17)
N1 N 0.73081(18) 0.64252(19) 0.45909(17)
O1 O 0.72189(18) 0.75629(16) 0.13569(15)
O2 O 0.73442(19) 0.52838(16) 0.07862(16)
O3 O 0.86058(18) 0.6034(2) 0.69497(16)
O4 O 0.60326(17) 0.5990(2) 0.62497(16)
C1 C 0.7629(3) 0.7543(3) 0.0163(2)
H1 H 0.8481 0.8118 0.0265
H2 H 0.6868 0.7913 -0.0595
C2 C 0.7918(5) 0.6059(3) -0.0070(3)
H3 H 0.7470 0.5798 -0.1013
H4 H 0.8941 0.5893 0.0142
C3 C 0.7315(2) 0.6166(2) 0.1866(2)
C4 C 0.8650(2) 0.5986(2) 0.3018(2)
H5 H 0.8776 0.4986 0.3261
H6 H 0.9468 0.6289 0.2727
C5 C 0.8604(2) 0.6826(2) 0.4240(2)
H7 H 0.9444 0.6623 0.4996
H8 H 0.8590 0.7837 0.4042
C6 C 0.5998(2) 0.6712(2) 0.3517(2)
H9 H 0.5937 0.7717 0.3288
H10 H 0.5172 0.6459 0.3817
C7 C 0.6021(2) 0.5848(2) 0.2305(2)
H11 H 0.6010 0.4843 0.2524
H12 H 0.5169 0.6051 0.1562
loop_
_geom_bond_atom_site_label_1
_geom_bond_atom_site_label_2
_geom_bond_site_symmetry_1
_geom_bond_site_symmetry_2
S1 F1 1_555 1_555
N1 S1 1_555 1_555
O1 C1 1_555 1_555
O2 C2 1_555 1_555
O3 S1 1_555 1_555
O4 S1 1_555 1_555
C1 H1 1_555 1_555
H2 C1 1_555 1_555
C2 C1 1_555 1_555
H3 C2 1_555 1_555
H4 C2 1_555 1_555
C3 O1 1_555 1_555
C4 C3 1_555 1_555
H5 C4 1_555 1_555
H6 C4 1_555 1_555
C5 N1 1_555 1_555
H7 C5 1_555 1_555
H8 C5 1_555 1_555
C6 N1 1_555 1_555
H9 C6 1_555 1_555
H10 C6 1_555 1_555
C7 C3 1_555 1_555
H11 C7 1_555 1_555
H12 C7 1_555 1_555
O2 C3 1_555 1_555
C4 C5 1_555 1_555
C6 C7 1_555 1_555

#END
