
#######################################################################
#
#                 Cambridge Crystallographic Data Centre
#                                CCDC 
#
#######################################################################
#
# If this CIF has been generated from an entry in the Cambridge 
# Structural Database, then it will include bibliographic, chemical, 
# crystal, experimental, refinement or atomic coordinate data resulting 
# from the CCDC's data processing and validation procedures.
#
#######################################################################

data_QEMTEK
_chemical_formula_moiety         'C12 H8 F1 N1 O3 S1'
_chemical_name_systematic        '9H-carbazol-2-yl sulfurofluoridate'
_symmetry_cell_setting           monoclinic
_symmetry_space_group_name_H-M   'P 21/n'
_symmetry_Int_Tables_number      14
_space_group_name_Hall           '-P 2yn'
loop_
_symmetry_equiv_pos_site_id
_symmetry_equiv_pos_as_xyz
1 x,y,z
2 1/2-x,1/2+y,1/2-z
3 -x,-y,-z
4 1/2+x,1/2-y,1/2+z
_cell_length_a                   5.6872(3)
_cell_length_b                   7.5305(4)
_cell_length_c                   26.1654(15)
_cell_angle_alpha                90
_cell_angle_beta                 96.062(2)
_cell_angle_gamma                90
_cell_volume                     1114.33
_exptl_crystal_colour            colorless
_exptl_crystal_description       PRISM
_cell_formula_units_Z            4
loop_
_atom_site_label
_atom_site_type_symbol
_atom_site_fract_x
_atom_site_fract_y
_atom_site_fract_z
S1 S 0.77447(9) 0.70825(7) 0.48905(2)
F1 F 0.5604(3) 0.8242(2) 0.49785(6)
N1 N 0.7746(3) 0.4933(2) 0.27517(6)
H1 H 0.921(3) 0.432(3) 0.2774(9)
O1 O 0.6473(2) 0.55932(19) 0.45616(5)
O2 O 0.9208(3) 0.8110(2) 0.46079(6)
O3 O 0.8529(3) 0.6342(2) 0.53693(5)
C1 C 0.2602(3) 0.6882(2) 0.20571(7)
H2 H 0.1189 0.7428 0.2142
C2 C 0.3036(3) 0.6700(3) 0.15495(8)
H3 H 0.1915 0.7135 0.1284
C3 C 0.5114(3) 0.5881(3) 0.14219(8)
H4 H 0.5375 0.5779 0.1070
C4 C 0.6789(3) 0.5218(3) 0.17945(7)
H5 H 0.8179 0.4650 0.1705
C5 C 0.6363(3) 0.5413(2) 0.23059(7)
C6 C 0.4281(3) 0.6247(2) 0.24431(7)
C7 C 0.4460(3) 0.6270(2) 0.29990(7)
C8 C 0.6622(3) 0.5436(2) 0.31716(7)
C9 C 0.7362(3) 0.5216(2) 0.36941(7)
H6 H 0.8806 0.4647 0.3814
C10 C 0.5844(3) 0.5884(3) 0.40229(7)
C11 C 0.3705(3) 0.6724(3) 0.38726(7)
H7 H 0.2743 0.7152 0.4122
C12 C 0.3005(3) 0.6923(2) 0.33526(7)
H8 H 0.1557 0.7496 0.3238
loop_
_geom_bond_atom_site_label_1
_geom_bond_atom_site_label_2
_geom_bond_site_symmetry_1
_geom_bond_site_symmetry_2
S1 F1 1_555 1_555
N1 H1 1_555 1_555
O1 S1 1_555 1_555
O2 S1 1_555 1_555
O3 S1 1_555 1_555
C1 H2 1_555 1_555
C2 C1 1_555 1_555
H3 C2 1_555 1_555
C3 C2 1_555 1_555
H4 C3 1_555 1_555
C4 C3 1_555 1_555
H5 C4 1_555 1_555
C5 N1 1_555 1_555
C6 C1 1_555 1_555
C7 C6 1_555 1_555
C8 N1 1_555 1_555
C9 C8 1_555 1_555
H6 C9 1_555 1_555
C10 O1 1_555 1_555
C11 C10 1_555 1_555
H7 C11 1_555 1_555
C12 C7 1_555 1_555
H8 C12 1_555 1_555
C4 C5 1_555 1_555
C5 C6 1_555 1_555
C7 C8 1_555 1_555
C9 C10 1_555 1_555
C11 C12 1_555 1_555

#END
