
#######################################################################
#
#                 Cambridge Crystallographic Data Centre
#                                CCDC 
#
#######################################################################
#
# If this CIF has been generated from an entry in the Cambridge 
# Structural Database, then it will include bibliographic, chemical, 
# crystal, experimental, refinement or atomic coordinate data resulting 
# from the CCDC's data processing and validation procedures.
#
#######################################################################

data_QEMYUC
_chemical_compound_source        'Tinospora hainanensis'
_chemical_formula_moiety         'C21 H22 N1 O4 1+,I1 1-'
_chemical_name_systematic        'Palmatine iodide'
_symmetry_cell_setting           triclinic
_symmetry_space_group_name_H-M   'P -1'
_symmetry_Int_Tables_number      2
_space_group_name_Hall           '-P 1'
loop_
_symmetry_equiv_pos_site_id
_symmetry_equiv_pos_as_xyz
1 x,y,z
2 -x,-y,-z
_cell_length_a                   7.413(1)
_cell_length_b                   10.684(2)
_cell_length_c                   12.715(4)
_cell_angle_alpha                102.08(2)
_cell_angle_beta                 94.23(1)
_cell_angle_gamma                96.74(2)
_cell_volume                     972.904
_cell_formula_units_Z            2
loop_
_atom_site_label
_atom_site_type_symbol
_atom_site_fract_x
_atom_site_fract_y
_atom_site_fract_z
I1 I 0.2985(1) 0.24632(8) 0.28408(6)
O1 O -0.585(1) -0.3642(7) 0.1111(5)
O2 O -0.487(1) -0.1002(7) 0.1212(5)
O3 O 0.073(1) 0.4629(7) 0.8747(5)
O4 O 0.028(1) 0.2227(7) 0.8798(5)
N1 N -0.251(1) 0.1402(7) 0.4013(6)
C1 C -0.262(1) -0.0287(9) 0.4936(7)
C2 C -0.335(1) -0.1209(9) 0.3981(7)
C3 C -0.370(1) -0.2519(9) 0.3921(7)
C4 C -0.449(1) -0.3358(9) 0.2964(8)
C5 C -0.493(1) -0.2862(9) 0.2034(7)
C6 C -0.451(1) -0.1587(9) 0.2056(7)
C7 C -0.371(1) -0.0720(9) 0.3033(7)
C8 C -0.326(1) 0.0587(9) 0.3095(7)
C9 C -0.221(1) 0.0985(9) 0.4978(7)
C10 C -0.188(1) 0.2758(9) 0.3968(7)
C11 C -0.216(1) 0.3690(9) 0.4978(7)
C12 C -0.135(1) 0.3274(9) 0.5958(7)
C13 C -0.060(1) 0.4211(9) 0.6883(7)
C14 C -0.002(1) 0.3814(9) 0.7812(7)
C15 C -0.022(1) 0.252(1) 0.7828(7)
C16 C -0.094(1) 0.1572(9) 0.6904(7)
C17 C -0.146(1) 0.1977(9) 0.5950(7)
C18 C -0.620(2) -0.497(1) 0.1058(8)
C19 C -0.443(2) -0.162(1) 0.0151(8)
C20 C 0.105(2) 0.597(1) 0.8771(9)
C21 C -0.030(2) 0.098(1) 0.8949(9)
H1 H -0.240 -0.058 0.558
H2 H -0.340 -0.285 0.454
H3 H -0.474 -0.426 0.293
H4 H -0.348 0.092 0.247
H5 H -0.254 0.295 0.336
H6 H -0.061 0.283 0.386
H7 H -0.343 0.371 0.503
H8 H -0.158 0.453 0.497
H9 H -0.048 0.510 0.687
H10 H -0.107 0.068 0.692
H11 H -0.684 -0.539 0.038
H12 H -0.507 -0.530 0.114
H13 H -0.691 -0.512 0.162
H14 H -0.474 -0.112 -0.036
H15 H -0.316 -0.168 0.018
H16 H -0.510 -0.246 -0.006
H17 H 0.157 0.642 0.947
H18 H 0.186 0.611 0.825
H19 H -0.007 0.627 0.861
H20 H 0.015 0.092 0.965
H21 H -0.159 0.083 0.887
H22 H 0.016 0.036 0.842
loop_
_geom_bond_atom_site_label_1
_geom_bond_atom_site_label_2
_geom_bond_site_symmetry_1
_geom_bond_site_symmetry_2
O1 C5 1_555 1_555
O2 C6 1_555 1_555
O3 C14 1_555 1_555
O4 C15 1_555 1_555
N1 C8 1_555 1_555
C1 C2 1_555 1_555
C2 C3 1_555 1_555
C3 C4 1_555 1_555
C4 C5 1_555 1_555
C5 C6 1_555 1_555
C6 C7 1_555 1_555
C7 C2 1_555 1_555
C8 C7 1_555 1_555
C9 N1 1_555 1_555
C10 N1 1_555 1_555
C11 C10 1_555 1_555
C12 C11 1_555 1_555
C13 C12 1_555 1_555
C14 C13 1_555 1_555
C15 C14 1_555 1_555
C16 C15 1_555 1_555
C17 C9 1_555 1_555
C18 O1 1_555 1_555
C19 O2 1_555 1_555
C20 O3 1_555 1_555
C21 O4 1_555 1_555
H1 C1 1_555 1_555
H2 C3 1_555 1_555
H3 C4 1_555 1_555
H4 C8 1_555 1_555
H5 C10 1_555 1_555
H6 C10 1_555 1_555
H7 C11 1_555 1_555
H8 C11 1_555 1_555
H9 C13 1_555 1_555
H10 C16 1_555 1_555
H11 C18 1_555 1_555
H12 C18 1_555 1_555
H13 C18 1_555 1_555
H14 C19 1_555 1_555
H15 C19 1_555 1_555
H16 C19 1_555 1_555
H17 C20 1_555 1_555
H18 C20 1_555 1_555
H19 C20 1_555 1_555
H20 C21 1_555 1_555
H21 C21 1_555 1_555
H22 C21 1_555 1_555
C1 C9 1_555 1_555
C12 C17 1_555 1_555
C16 C17 1_555 1_555

#END
