
#######################################################################
#
#                 Cambridge Crystallographic Data Centre
#                                CCDC 
#
#######################################################################
#
# If this CIF has been generated from an entry in the Cambridge 
# Structural Database, then it will include bibliographic, chemical, 
# crystal, experimental, refinement or atomic coordinate data resulting 
# from the CCDC's data processing and validation procedures.
#
#######################################################################

data_QENCOB
_chemical_formula_moiety         'C20 H36 O4 Si1'
_chemical_name_systematic        
6-(t-Butyldimethylsilyl)-7,7-dimethyl-3-(2-methyl-3-oxocyclopentyl)-1-oxacycloheptan-2-one
_symmetry_cell_setting           orthorhombic
_symmetry_space_group_name_H-M   'P 21 21 21'
_symmetry_Int_Tables_number      19
_space_group_name_Hall           'P 2ac 2ab'
loop_
_symmetry_equiv_pos_site_id
_symmetry_equiv_pos_as_xyz
1 x,y,z
2 1/2-x,-y,1/2+z
3 -x,1/2+y,1/2-z
4 1/2+x,1/2-y,-z
_cell_length_a                   11.0716(13)
_cell_length_b                   11.6403(13)
_cell_length_c                   17.9924(18)
_cell_angle_alpha                90
_cell_angle_beta                 90
_cell_angle_gamma                90
_cell_volume                     2318.8
_cell_formula_units_Z            4
_exptl_crystal_recrystallization_method pentane
loop_
_atom_site_label
_atom_site_type_symbol
_atom_site_fract_x
_atom_site_fract_y
_atom_site_fract_z
Si1 Si 0.61333(18) -0.15406(16) 0.40603(11)
O1 O 0.4163(3) 0.0288(3) 0.2408(2)
O2 O 0.5146(3) -0.1125(3) 0.3453(2)
O3 O 0.3256(4) 0.1467(3) 0.3150(3)
C1 C 0.4622(5) -0.1700(5) 0.2831(3)
H1 H 0.5155 -0.2339 0.2697
C2 C 0.4614(6) -0.0846(5) 0.2175(3)
C3 C 0.3235(6) 0.0520(5) 0.2862(3)
C4 C 0.2210(5) -0.0319(5) 0.2974(3)
H2 H 0.1983 -0.0605 0.2481
C5 C 0.1072(5) 0.0259(5) 0.3309(4)
H3 H 0.0438 -0.0328 0.3317
C6 C 0.2575(5) -0.1359(5) 0.3435(3)
H4 H 0.2962 -0.1088 0.3886
H5 H 0.1849 -0.1767 0.3580
C7 C 0.3420(5) -0.2201(5) 0.3052(4)
H6 H 0.3561 -0.2846 0.3383
H7 H 0.3024 -0.2496 0.2611
C8 C 0.5896(6) -0.0565(5) 0.1950(4)
H8 H 0.5886 -0.0019 0.1550
H9 H 0.6296 -0.1253 0.1789
H10 H 0.6320 -0.0244 0.2366
C9 C 0.1190(6) 0.0710(6) 0.4106(4)
H11 H 0.1112 0.0087 0.4461
H12 H 0.1967 0.1078 0.4178
C10 C 0.3912(7) -0.1280(6) 0.1510(3)
H13 H 0.3095 -0.1442 0.1656
H14 H 0.4282 -0.1969 0.1325
H15 H 0.3913 -0.0706 0.1127
C11 C 0.0558(7) 0.1288(7) 0.2872(5)
H16 H 0.1239 0.1762 0.2709
O4 O -0.0874(6) 0.2684(6) 0.3302(5)
C12 C 0.6211(7) -0.0329(6) 0.4722(4)
C13 C 0.7168(8) -0.0550(8) 0.5322(5)
H17 H 0.7939 -0.0668 0.5091
H18 H 0.6951 -0.1221 0.5602
H19 H 0.7212 0.0101 0.5649
C14 C -0.0129(7) 0.1948(7) 0.3421(6)
C15 C 0.5628(11) -0.2882(7) 0.4538(5)
H20 H 0.5614 -0.3504 0.4189
H21 H 0.4833 -0.2770 0.4738
H22 H 0.6178 -0.3061 0.4935
C16 C -0.0153(11) 0.0977(11) 0.2208(5)
H23 H 0.0351 0.0566 0.1865
H24 H -0.0452 0.1662 0.1975
H25 H -0.0821 0.0500 0.2352
C17 C 0.4980(11) -0.0123(10) 0.5071(5)
H26 H 0.4743 -0.0790 0.5350
H27 H 0.4397 0.0022 0.4688
H28 H 0.5022 0.0529 0.5397
C18 C 0.7593(8) -0.1840(13) 0.3619(6)
H29 H 0.7511 -0.2481 0.3287
H30 H 0.8180 -0.2019 0.3995
H31 H 0.7853 -0.1177 0.3345
C19 C 0.0177(9) 0.1567(8) 0.4203(6)
H32 H -0.0516 0.1211 0.4439
H33 H 0.0437 0.2214 0.4503
C20 C 0.6556(13) 0.0753(7) 0.4296(6)
H34 H 0.7324 0.0641 0.4059
H35 H 0.6609 0.1389 0.4635
H36 H 0.5953 0.0912 0.3927
loop_
_geom_bond_atom_site_label_1
_geom_bond_atom_site_label_2
_geom_bond_site_symmetry_1
_geom_bond_site_symmetry_2
Si1 O2 1_555 1_555
O1 C2 1_555 1_555
O2 C1 1_555 1_555
O3 C3 1_555 1_555
C1 H1 1_555 1_555
C2 C1 1_555 1_555
C3 O1 1_555 1_555
C4 C3 1_555 1_555
H2 C4 1_555 1_555
C5 C4 1_555 1_555
H3 C5 1_555 1_555
C6 C4 1_555 1_555
H4 C6 1_555 1_555
H5 C6 1_555 1_555
C7 C1 1_555 1_555
H6 C7 1_555 1_555
H7 C7 1_555 1_555
C8 C2 1_555 1_555
H8 C8 1_555 1_555
H9 C8 1_555 1_555
H10 C8 1_555 1_555
C9 C5 1_555 1_555
H11 C9 1_555 1_555
H12 C9 1_555 1_555
C10 C2 1_555 1_555
H13 C10 1_555 1_555
H14 C10 1_555 1_555
H15 C10 1_555 1_555
C11 C5 1_555 1_555
H16 C11 1_555 1_555
O4 C14 1_555 1_555
C12 Si1 1_555 1_555
C13 C12 1_555 1_555
H17 C13 1_555 1_555
H18 C13 1_555 1_555
H19 C13 1_555 1_555
C14 C11 1_555 1_555
C15 Si1 1_555 1_555
H20 C15 1_555 1_555
H21 C15 1_555 1_555
H22 C15 1_555 1_555
C16 C11 1_555 1_555
H23 C16 1_555 1_555
H24 C16 1_555 1_555
H25 C16 1_555 1_555
C17 C12 1_555 1_555
H26 C17 1_555 1_555
H27 C17 1_555 1_555
H28 C17 1_555 1_555
C18 Si1 1_555 1_555
H29 C18 1_555 1_555
H30 C18 1_555 1_555
H31 C18 1_555 1_555
C19 C9 1_555 1_555
H32 C19 1_555 1_555
H33 C19 1_555 1_555
C20 C12 1_555 1_555
H34 C20 1_555 1_555
H35 C20 1_555 1_555
H36 C20 1_555 1_555
C6 C7 1_555 1_555
C14 C19 1_555 1_555

#END
