
#######################################################################
#
#                 Cambridge Crystallographic Data Centre
#                                CCDC 
#
#######################################################################
#
# If this CIF has been generated from an entry in the Cambridge 
# Structural Database, then it will include bibliographic, chemical, 
# crystal, experimental, refinement or atomic coordinate data resulting 
# from the CCDC's data processing and validation procedures.
#
#######################################################################

data_QENHAV
_chemical_formula_moiety         'C24 H24 N2 O2 S1'
_chemical_name_systematic        
1-[(4-methylphenyl)sulfonyl]-5-phenyl-1,6-dihydro-1'H,2H,3'H-spiro[pyridine-3,2'-pyrrolizine]
_symmetry_cell_setting           monoclinic
_symmetry_space_group_name_H-M   'I 2/c'
_symmetry_Int_Tables_number      15
_space_group_name_Hall           '-I 2yc'
loop_
_symmetry_equiv_pos_site_id
_symmetry_equiv_pos_as_xyz
1 x,y,z
2 -x,y,1/2-z
3 1/2+x,1/2+y,1/2+z
4 1/2-x,1/2+y,-z
5 -x,-y,-z
6 x,-y,1/2+z
7 1/2-x,1/2-y,1/2-z
8 1/2+x,1/2-y,z
_cell_length_a                   20.043(3)
_cell_length_b                   8.4582(12)
_cell_length_c                   24.852(4)
_cell_angle_alpha                90
_cell_angle_beta                 90.828(12)
_cell_angle_gamma                90
_cell_volume                     4212.66
_exptl_crystal_colour            yellow
_exptl_crystal_description       BLOCK
_cell_formula_units_Z            8
loop_
_atom_site_label
_atom_site_type_symbol
_atom_site_fract_x
_atom_site_fract_y
_atom_site_fract_z
C1 C 0.37938(9) 0.2382(2) 0.02880(7)
C2 C 0.35571(11) 0.3895(2) 0.01849(9)
H1 H 0.3143 0.4032 0.0018
C3 C 0.39303(13) 0.5184(3) 0.03270(10)
H2 H 0.3767 0.6193 0.0255
C4 C 0.45438(16) 0.5015(3) 0.05744(10)
C5 C 0.47949(13) 0.3505(4) 0.06531(10)
H3 H 0.5221 0.3376 0.0799
C6 C 0.44156(11) 0.2171(3) 0.05153(9)
H4 H 0.4582 0.1160 0.0577
C7 C 0.49432(18) 0.6406(4) 0.07664(12)
H5 H 0.4860 0.7291 0.0533
H6 H 0.5409 0.6146 0.0763
H7 H 0.4816 0.6672 0.1126
C8 C 0.32440(10) 0.0303(2) 0.12617(8)
H8 H 0.3462 0.1251 0.1395
H9 H 0.3585 -0.0464 0.1173
C9 C 0.27901(10) -0.0371(2) 0.16929(7)
C10 C 0.31924(12) -0.0582(2) 0.22241(8)
H10 H 0.3529 0.0234 0.2265
H11 H 0.2902 -0.0559 0.2533
C11 C 0.25962(11) -0.2092(2) 0.15447(9)
H12 H 0.2176 -0.2391 0.1704
H13 H 0.2566 -0.2234 0.1158
C12 C 0.35003(10) -0.2153(2) 0.21593(7)
C13 C 0.40126(13) -0.3045(3) 0.23469(10)
H14 H 0.4322 -0.2752 0.2611
C14 C 0.39934(17) -0.4463(4) 0.20762(12)
H15 H 0.4289 -0.5300 0.2124
C15 C 0.34600(17) -0.4428(3) 0.17215(11)
H16 H 0.3331 -0.5232 0.1487
C16 C 0.21950(11) 0.0694(2) 0.17528(8)
H17 H 0.1942 0.0596 0.2062
C17 C 0.20123(9) 0.1757(2) 0.13940(7)
C18 C 0.23738(9) 0.1971(2) 0.08722(7)
H18 H 0.2052 0.2013 0.0577
H19 H 0.2614 0.2967 0.0880
C19 C 0.14363(9) 0.2844(2) 0.14767(7)
C20 C 0.08769(11) 0.2377(3) 0.17655(9)
H20 H 0.0861 0.1364 0.1910
C21 C 0.03524(13) 0.3381(4) 0.18403(10)
H21 H -0.0016 0.3040 0.2032
C22 C 0.03634(13) 0.4894(4) 0.16343(11)
H22 H 0.0008 0.5580 0.1688
C23 C 0.09045(14) 0.5362(3) 0.13513(11)
H23 H 0.0916 0.6383 0.1212
C24 C 0.14363(12) 0.4361(3) 0.12656(9)
H24 H 0.1796 0.4706 0.1065
N1 N 0.28437(8) 0.06784(17) 0.07803(6)
N2 N 0.31530(10) -0.2991(2) 0.17777(8)
O1 O 0.36373(9) -0.06398(16) 0.01741(6)
O2 O 0.27754(7) 0.11326(18) -0.02002(5)
S1 S 0.32555(3) 0.07721(5) 0.02087(2)
loop_
_geom_bond_atom_site_label_1
_geom_bond_atom_site_label_2
_geom_bond_site_symmetry_1
_geom_bond_site_symmetry_2
C1 C2 1_555 1_555
C2 H1 1_555 1_555
C3 C2 1_555 1_555
H2 C3 1_555 1_555
C4 C3 1_555 1_555
C5 C4 1_555 1_555
H3 C5 1_555 1_555
C6 C1 1_555 1_555
H4 C6 1_555 1_555
C7 C4 1_555 1_555
H5 C7 1_555 1_555
H6 C7 1_555 1_555
H7 C7 1_555 1_555
C8 H8 1_555 1_555
H9 C8 1_555 1_555
C9 C8 1_555 1_555
C10 C9 1_555 1_555
H10 C10 1_555 1_555
H11 C10 1_555 1_555
C11 C9 1_555 1_555
H12 C11 1_555 1_555
H13 C11 1_555 1_555
C12 C10 1_555 1_555
C13 C12 1_555 1_555
H14 C13 1_555 1_555
C14 C13 1_555 1_555
H15 C14 1_555 1_555
C15 C14 1_555 1_555
H16 C15 1_555 1_555
C16 C9 1_555 1_555
H17 C16 1_555 1_555
C17 C16 1_555 1_555
C18 C17 1_555 1_555
H18 C18 1_555 1_555
H19 C18 1_555 1_555
C19 C17 1_555 1_555
C20 C19 1_555 1_555
H20 C20 1_555 1_555
C21 C20 1_555 1_555
H21 C21 1_555 1_555
C22 C21 1_555 1_555
H22 C22 1_555 1_555
C23 C22 1_555 1_555
H23 C23 1_555 1_555
C24 C19 1_555 1_555
H24 C24 1_555 1_555
N1 C8 1_555 1_555
N2 C11 1_555 1_555
O1 S1 1_555 1_555
O2 S1 1_555 1_555
S1 C1 1_555 1_555
C5 C6 1_555 1_555
C12 N2 1_555 1_555
C15 N2 1_555 1_555
C18 N1 1_555 1_555
C23 C24 1_555 1_555
N1 S1 1_555 1_555

#END
