
#######################################################################
#
#                 Cambridge Crystallographic Data Centre
#                                CCDC 
#
#######################################################################
#
# If this CIF has been generated from an entry in the Cambridge 
# Structural Database, then it will include bibliographic, chemical, 
# crystal, experimental, refinement or atomic coordinate data resulting 
# from the CCDC's data processing and validation procedures.
#
#######################################################################

data_QEPLED
_chemical_formula_moiety         'C12 H6 S4'
_chemical_name_systematic        2-(2-thienyl)dithieno[3,2-b:2',3'-d]thiophene
_symmetry_cell_setting           orthorhombic
_symmetry_space_group_name_H-M   'P c a 21'
_symmetry_Int_Tables_number      29
_space_group_name_Hall           'P 2c -2ac'
loop_
_symmetry_equiv_pos_site_id
_symmetry_equiv_pos_as_xyz
1 x,y,z
2 -x,-y,1/2+z
3 1/2+x,-y,z
4 1/2-x,y,1/2+z
_cell_length_a                   23.660(5)
_cell_length_b                   5.9832(12)
_cell_length_c                   15.709(3)
_cell_angle_alpha                90
_cell_angle_beta                 90
_cell_angle_gamma                90
_cell_volume                     2223.81
_exptl_crystal_colour            yellow
_exptl_crystal_description       needle
_cell_formula_units_Z            8
_exptl_crystal_recrystallization_method 2-propanol
loop_
_atom_site_label
_atom_site_type_symbol
_atom_site_fract_x
_atom_site_fract_y
_atom_site_fract_z
S1 S 0.74095(4) 0.42385(16) 0.65575(6)
S2 S 0.57828(4) 0.07029(14) 0.65585(6)
S3 S 0.50208(4) 0.63986(15) 0.55208(6)
S4 S 0.41301(4) 0.06643(15) 0.62391(6)
C1 C 0.79120(16) 0.2486(7) 0.6959(2)
H1 H 0.8298 0.2888 0.7026
C2 C 0.77013(15) 0.0464(7) 0.7172(2)
H2 H 0.7923 -0.0703 0.7410
C3 C 0.71093(15) 0.0263(6) 0.7001(2)
H3 H 0.6893 -0.1045 0.7107
C4 C 0.68917(14) 0.2227(6) 0.6660(2)
C5 C 0.63141(14) 0.2716(6) 0.6414(2)
C6 C 0.61107(15) 0.4647(6) 0.6049(2)
H4 H 0.6335 0.5919 0.5920
C7 C 0.55207(14) 0.4489(6) 0.5891(2)
C8 C 0.52826(14) 0.2474(6) 0.6130(2)
C9 C 0.46810(14) 0.2461(6) 0.6023(2)
C10 C 0.44856(14) 0.4488(6) 0.5698(2)
C11 C 0.38894(15) 0.4571(6) 0.5634(2)
H5 H 0.3685 0.5827 0.5428
C12 C 0.36432(15) 0.2649(6) 0.5901(2)
H6 H 0.3246 0.2412 0.5903
S5 S -0.02019(4) 0.09770(18) 0.86355(7)
S6 S 0.14580(4) 0.41950(15) 0.84650(5)
S7 S 0.21906(4) -0.15318(15) 0.95172(6)
S8 S 0.31045(4) 0.42010(15) 0.88769(6)
C13 C -0.06943(16) 0.2742(7) 0.8221(2)
H7 H -0.1087 0.2416 0.8200
C14 C -0.04647(16) 0.4657(7) 0.7925(2)
H8 H -0.0683 0.5827 0.7681
C15 C 0.01384(14) 0.4765(6) 0.8012(2)
H9 H 0.0367 0.5984 0.7834
C16 C 0.03413(14) 0.2799(6) 0.8400(2)
C17 C 0.09236(15) 0.2225(6) 0.8621(2)
C18 C 0.11195(15) 0.0277(6) 0.8956(2)
H10 H 0.0890 -0.0986 0.9076
C19 C 0.17145(15) 0.0371(6) 0.9104(2)
C20 C 0.19547(15) 0.2387(6) 0.8883(2)
C21 C 0.25449(15) 0.2412(6) 0.9051(2)
C22 C 0.27363(15) 0.0391(6) 0.9391(2)
C23 C 0.33276(15) 0.0327(6) 0.9527(2)
H11 H 0.3525 -0.0903 0.9768
C24 C 0.35756(15) 0.2260(6) 0.9268(2)
H12 H 0.3971 0.2516 0.9299
loop_
_geom_bond_atom_site_label_1
_geom_bond_atom_site_label_2
_geom_bond_site_symmetry_1
_geom_bond_site_symmetry_2
S1 C1 1_555 1_555
S2 C5 1_555 1_555
S3 C7 1_555 1_555
S4 C9 1_555 1_555
S5 C13 1_555 1_555
S6 C17 1_555 1_555
S7 C19 1_555 1_555
S8 C21 1_555 1_555
C1 H1 1_555 1_555
C2 C1 1_555 1_555
H2 C2 1_555 1_555
C3 C2 1_555 1_555
H3 C3 1_555 1_555
C4 S1 1_555 1_555
C5 C4 1_555 1_555
C6 C5 1_555 1_555
H4 C6 1_555 1_555
C7 C6 1_555 1_555
C8 S2 1_555 1_555
C9 C8 1_555 1_555
C10 S3 1_555 1_555
C11 C10 1_555 1_555
H5 C11 1_555 1_555
C12 S4 1_555 1_555
H6 C12 1_555 1_555
C13 H7 1_555 1_555
C14 C13 1_555 1_555
H8 C14 1_555 1_555
C15 C14 1_555 1_555
H9 C15 1_555 1_555
C16 S5 1_555 1_555
C17 C16 1_555 1_555
C18 C17 1_555 1_555
H10 C18 1_555 1_555
C19 C18 1_555 1_555
C20 S6 1_555 1_555
C21 C20 1_555 1_555
C22 S7 1_555 1_555
C23 C22 1_555 1_555
H11 C23 1_555 1_555
C24 S8 1_555 1_555
H12 C24 1_555 1_555
C3 C4 1_555 1_555
C7 C8 1_555 1_555
C9 C10 1_555 1_555
C11 C12 1_555 1_555
C15 C16 1_555 1_555
C19 C20 1_555 1_555
C21 C22 1_555 1_555
C23 C24 1_555 1_555

#END
