
#######################################################################
#
#                 Cambridge Crystallographic Data Centre
#                                CCDC 
#
#######################################################################
#
# If this CIF has been generated from an entry in the Cambridge 
# Structural Database, then it will include bibliographic, chemical, 
# crystal, experimental, refinement or atomic coordinate data resulting 
# from the CCDC's data processing and validation procedures.
#
#######################################################################

data_QEPZET
_chemical_formula_moiety         'C16 H14 Cl1 N3 O2 S1'
_chemical_name_systematic        
1-(3-chloro-4-methylphenyl)-5-[(4-methylphenyl)sulfonyl]-1H-1,2,4-triazole
_symmetry_cell_setting           triclinic
_symmetry_space_group_name_H-M   'P -1'
_symmetry_Int_Tables_number      2
_space_group_name_Hall           '-P 1'
loop_
_symmetry_equiv_pos_site_id
_symmetry_equiv_pos_as_xyz
1 x,y,z
2 -x,-y,-z
_cell_length_a                   7.5209(7)
_cell_length_b                   7.6562(7)
_cell_length_c                   14.6835(16)
_cell_angle_alpha                88.885(4)
_cell_angle_beta                 80.413(3)
_cell_angle_gamma                80.682(3)
_cell_volume                     822.665
_exptl_crystal_description       block
_cell_formula_units_Z            2
loop_
_atom_site_label
_atom_site_type_symbol
_atom_site_fract_x
_atom_site_fract_y
_atom_site_fract_z
S1 S 0.10119(9) 0.37841(10) 0.30494(5)
Cl1 Cl -0.29023(11) 0.97917(12) 0.19731(7)
N1 N 0.3165(3) 0.5634(3) 0.17925(14)
N2 N 0.4666(3) 0.4013(3) 0.27587(16)
O1 O 0.0008(3) 0.5157(3) 0.36666(14)
C1 C 0.0287(3) 0.7605(3) 0.18052(19)
H1 H 0.0213 0.7800 0.2434
N3 N 0.4941(3) 0.5875(3) 0.15412(17)
C2 C 0.1914(4) 0.6268(4) 0.03779(18)
H2 H 0.2933 0.5564 0.0049
O2 O 0.0187(3) 0.3245(3) 0.23172(14)
C3 C 0.3054(3) 0.4521(3) 0.25131(17)
C4 C -0.1081(3) 0.8396(4) 0.1341(2)
C5 C 0.1761(3) 0.6522(3) 0.13176(18)
C6 C 0.1786(3) 0.1944(3) 0.36780(18)
C7 C -0.1024(4) 0.8135(4) 0.0401(2)
C8 C 0.2935(4) -0.1021(4) 0.4676(2)
C9 C 0.0519(4) 0.7084(4) -0.0061(2)
H3 H 0.0621 0.6919 -0.0695
C10 C 0.5759(4) 0.4884(4) 0.2139(2)
H4 H 0.7008 0.4784 0.2139
C11 C 0.1672(4) 0.2076(4) 0.46204(19)
H5 H 0.1222 0.3152 0.4924
C12 C 0.2485(4) 0.0355(4) 0.3228(2)
H6 H 0.2565 0.0270 0.2591
C13 C 0.2237(4) 0.0587(5) 0.5108(2)
H7 H 0.2145 0.0670 0.5745
C14 C -0.2563(4) 0.8918(4) -0.0093(2)
H8 H -0.3649 0.8452 0.0162
H9 H -0.2241 0.8620 -0.0738
H10 H -0.2782 1.0182 -0.0020
C15 C 0.3527(5) -0.2643(5) 0.5211(3)
H11 H 0.2670 -0.3448 0.5220
H12 H 0.3574 -0.2309 0.5833
H13 H 0.4716 -0.3208 0.4923
C16 C 0.3061(4) -0.1097(4) 0.3726(3)
H14 H 0.3548 -0.2161 0.3419
loop_
_geom_bond_atom_site_label_1
_geom_bond_atom_site_label_2
_geom_bond_site_symmetry_1
_geom_bond_site_symmetry_2
S1 O1 1_555 1_555
Cl1 C4 1_555 1_555
N1 N3 1_555 1_555
N2 C3 1_555 1_555
C1 H1 1_555 1_555
N3 C10 1_555 1_555
C2 H2 1_555 1_555
O2 S1 1_555 1_555
C3 S1 1_555 1_555
C4 C1 1_555 1_555
C5 N1 1_555 1_555
C6 S1 1_555 1_555
C7 C4 1_555 1_555
C8 C13 1_555 1_555
C9 C2 1_555 1_555
H3 C9 1_555 1_555
C10 N2 1_555 1_555
H4 C10 1_555 1_555
C11 C6 1_555 1_555
H5 C11 1_555 1_555
C12 C6 1_555 1_555
H6 C12 1_555 1_555
C13 C11 1_555 1_555
H7 C13 1_555 1_555
C14 C7 1_555 1_555
H8 C14 1_555 1_555
H9 C14 1_555 1_555
H10 C14 1_555 1_555
C15 C8 1_555 1_555
H11 C15 1_555 1_555
H12 C15 1_555 1_555
H13 C15 1_555 1_555
C16 C8 1_555 1_555
H14 C16 1_555 1_555
N1 C3 1_555 1_555
C1 C5 1_555 1_555
C2 C5 1_555 1_555
C7 C9 1_555 1_555
C12 C16 1_555 1_555

#END
