
#######################################################################
#
#                 Cambridge Crystallographic Data Centre
#                                CCDC 
#
#######################################################################
#
# If this CIF has been generated from an entry in the Cambridge 
# Structural Database, then it will include bibliographic, chemical, 
# crystal, experimental, refinement or atomic coordinate data resulting 
# from the CCDC's data processing and validation procedures.
#
#######################################################################

data_QERBOF
_chemical_formula_moiety         'C19 H25 Cl2 N4 O6 P1 S1'
_chemical_name_systematic        
"2-Nitrophenyl N,N-bis(2-chloroethyl)-N'-(4-methylbenzenesulfonamino)ethylphosphorodiamidate"
_symmetry_cell_setting           triclinic
_symmetry_space_group_name_H-M   'P -1'
_symmetry_Int_Tables_number      2
_space_group_name_Hall           '-P 1'
loop_
_symmetry_equiv_pos_site_id
_symmetry_equiv_pos_as_xyz
1 x,y,z
2 -x,-y,-z
_cell_length_a                   9.3664(13)
_cell_length_b                   9.9560(14)
_cell_length_c                   13.1803(18)
_cell_angle_alpha                87.338(2)
_cell_angle_beta                 87.632(2)
_cell_angle_gamma                79.536(2)
_cell_volume                     1206.67
_exptl_crystal_colour            colorless
_chemical_melting_point          87-88deg.C
_cell_formula_units_Z            2
_exptl_crystal_recrystallization_method 'ethyl acetate/petroleum'
loop_
_atom_site_label
_atom_site_type_symbol
_atom_site_fract_x
_atom_site_fract_y
_atom_site_fract_z
P1 P 0.33995(6) 0.16989(6) 0.58045(5)
S1 S 0.58579(7) 0.26461(7) 0.15523(5)
Cl1 Cl 0.67171(10) 0.27555(11) 0.83956(8)
Cl2 Cl -0.02090(11) 0.54955(11) 0.77250(8)
O1 O 0.6995(2) 0.1518(2) 0.13385(16)
O2 O 0.6101(2) 0.4015(2) 0.13920(15)
O3 O 0.3929(2) 0.02710(18) 0.61391(13)
O4 O 0.17328(18) 0.1973(2) 0.54854(14)
O5 O -0.2527(3) 0.2900(4) 0.5152(3)
O6 O -0.0749(3) 0.3659(4) 0.5589(3)
N1 N 0.5420(2) 0.2436(2) 0.27546(16)
N2 N 0.4401(2) 0.2125(2) 0.48646(15)
N3 N 0.3248(2) 0.2886(2) 0.66466(15)
N4 N -0.1255(3) 0.2863(3) 0.5152(2)
C1 C 0.0200(4) 0.2124(5) -0.0314(3)
H1 H 0.0281 0.1270 -0.0641
H2 H -0.0118 0.2864 -0.0792
H3 H -0.0492 0.2153 0.0247
C2 C 0.1666(3) 0.2258(4) 0.0073(2)
C3 C 0.2631(4) 0.1108(4) 0.0409(3)
H4 H 0.2393 0.0248 0.0355
C4 C 0.3931(4) 0.1218(3) 0.0819(2)
H5 H 0.4561 0.0438 0.1043
C5 C 0.4295(3) 0.2497(3) 0.08968(18)
C6 C 0.3379(3) 0.3647(3) 0.0523(2)
H6 H 0.3634 0.4505 0.0547
C7 C 0.2085(3) 0.3507(3) 0.0113(2)
H7 H 0.1477 0.4281 -0.0143
C8 C 0.4078(3) 0.3267(3) 0.31684(19)
H8 H 0.3259 0.2825 0.3056
H9 H 0.3910 0.4157 0.2819
C9 C 0.4197(3) 0.3438(3) 0.42957(19)
H10 H 0.5011 0.3888 0.4403
H11 H 0.3322 0.4017 0.4550
C10 C 0.1159(3) 0.1466(3) 0.46746(19)
C11 C 0.1956(3) 0.0542(3) 0.4030(2)
H12 H 0.2931 0.0208 0.4148
C12 C 0.1312(4) 0.0106(3) 0.3208(2)
H13 H 0.1866 -0.0500 0.2767
C13 C -0.0135(4) 0.0560(4) 0.3035(3)
H14 H -0.0558 0.0262 0.2480
C14 C -0.0951(3) 0.1450(3) 0.3682(3)
H15 H -0.1935 0.1749 0.3574
C15 C -0.0313(3) 0.1909(3) 0.4498(2)
C16 C 0.4589(3) 0.3216(3) 0.7033(2)
H16 H 0.4411 0.4162 0.7225
H17 H 0.5336 0.3114 0.6495
C17 C 0.5122(4) 0.2315(4) 0.7930(3)
H18 H 0.5324 0.1370 0.7736
H19 H 0.4371 0.2403 0.8464
C18 C 0.1907(3) 0.3384(3) 0.7250(2)
H20 H 0.2110 0.3299 0.7968
H21 H 0.1179 0.2835 0.7129
C19 C 0.1345(3) 0.4850(3) 0.6954(3)
H22 H 0.1090 0.4925 0.6246
H23 H 0.2096 0.5387 0.7036
H24 H 0.508(2) 0.147(2) 0.462(2)
H25 H 0.554(3) 0.1548(13) 0.293(2)
loop_
_geom_bond_atom_site_label_1
_geom_bond_atom_site_label_2
_geom_bond_site_symmetry_1
_geom_bond_site_symmetry_2
P1 O3 1_555 1_555
S1 O1 1_555 1_555
Cl1 C17 1_555 1_555
Cl2 C19 1_555 1_555
O2 S1 1_555 1_555
O4 P1 1_555 1_555
O5 N4 1_555 1_555
O6 N4 1_555 1_555
N1 S1 1_555 1_555
N2 P1 1_555 1_555
N3 P1 1_555 1_555
N4 C15 1_555 1_555
C1 H1 1_555 1_555
H2 C1 1_555 1_555
H3 C1 1_555 1_555
C2 C1 1_555 1_555
C3 C2 1_555 1_555
H4 C3 1_555 1_555
C4 C3 1_555 1_555
H5 C4 1_555 1_555
C5 S1 1_555 1_555
C6 C5 1_555 1_555
H6 C6 1_555 1_555
C7 C2 1_555 1_555
H7 C7 1_555 1_555
C8 N1 1_555 1_555
H8 C8 1_555 1_555
H9 C8 1_555 1_555
C9 N2 1_555 1_555
H10 C9 1_555 1_555
H11 C9 1_555 1_555
C10 O4 1_555 1_555
C11 C10 1_555 1_555
H12 C11 1_555 1_555
C12 C11 1_555 1_555
H13 C12 1_555 1_555
C13 C12 1_555 1_555
H14 C13 1_555 1_555
C14 C13 1_555 1_555
H15 C14 1_555 1_555
C15 C10 1_555 1_555
C16 N3 1_555 1_555
H16 C16 1_555 1_555
H17 C16 1_555 1_555
C17 C16 1_555 1_555
H18 C17 1_555 1_555
H19 C17 1_555 1_555
C18 N3 1_555 1_555
H20 C18 1_555 1_555
H21 C18 1_555 1_555
C19 C18 1_555 1_555
H22 C19 1_555 1_555
H23 C19 1_555 1_555
H24 N2 1_555 1_555
H25 N1 1_555 1_555
C4 C5 1_555 1_555
C6 C7 1_555 1_555
C8 C9 1_555 1_555
C14 C15 1_555 1_555

#END
