
#######################################################################
#
#                 Cambridge Crystallographic Data Centre
#                                CCDC 
#
#######################################################################
#
# If this CIF has been generated from an entry in the Cambridge 
# Structural Database, then it will include bibliographic, chemical, 
# crystal, experimental, refinement or atomic coordinate data resulting 
# from the CCDC's data processing and validation procedures.
#
#######################################################################

data_QERFAX
_chemical_formula_moiety         'C26 H21 N1'
_chemical_name_systematic        
5-(4-methylphenyl)-6-phenyl-5,6-dihydrocyclohepta[b]indole
_symmetry_cell_setting           monoclinic
_symmetry_space_group_name_H-M   'P 21'
_symmetry_Int_Tables_number      4
_space_group_name_Hall           'P 2yb'
loop_
_symmetry_equiv_pos_site_id
_symmetry_equiv_pos_as_xyz
1 x,y,z
2 -x,1/2+y,-z
_cell_length_a                   5.8841(3)
_cell_length_b                   34.0526(17)
_cell_length_c                   9.6709(6)
_cell_angle_alpha                90
_cell_angle_beta                 98.100(5)
_cell_angle_gamma                90
_cell_volume                     1918.42
_cell_formula_units_Z            4
loop_
_atom_site_label
_atom_site_type_symbol
_atom_site_fract_x
_atom_site_fract_y
_atom_site_fract_z
N1 N 0.9606(6) 0.53912(11) -0.0351(4)
C1 C 0.9448(7) 0.52811(14) 0.1009(5)
C2 C 1.0673(7) 0.54868(14) 0.2265(4)
H1 H 1.1837 0.5655 0.1936
C3 C 1.1949(8) 0.51841(18) 0.3227(6)
H2 H 1.3529 0.5213 0.3454
C4 C 1.0976(10) 0.48816(18) 0.3764(6)
H3 H 1.1906 0.4745 0.4461
C5 C 0.8662(10) 0.47327(16) 0.3419(6)
H4 H 0.8042 0.4602 0.4123
C6 C 0.7345(9) 0.47654(15) 0.2200(6)
H5 H 0.5922 0.4642 0.2111
C7 C 0.7896(6) 0.49723(14) 0.0999(5)
C8 C 0.7039(7) 0.49010(14) -0.0453(5)
C9 C 0.5417(8) 0.46347(15) -0.1120(6)
H6 H 0.4683 0.4457 -0.0600
C10 C 0.4930(8) 0.46405(17) -0.2559(6)
H7 H 0.3825 0.4472 -0.3015
C11 C 0.6102(8) 0.49005(18) -0.3329(6)
H8 H 0.5769 0.4899 -0.4298
C12 C 0.7715(8) 0.51557(17) -0.2706(5)
H9 H 0.8485 0.5326 -0.3233
C13 C 0.8172(7) 0.51538(14) -0.1260(5)
C14 C 0.9142(7) 0.57557(14) 0.3009(5)
C15 C 0.7003(7) 0.58793(15) 0.2379(5)
H10 H 0.6418 0.5787 0.1495
C16 C 0.5726(9) 0.61405(17) 0.3058(7)
H11 H 0.4314 0.6229 0.2612
C17 C 0.6522(11) 0.62695(18) 0.4373(7)
H12 H 0.5653 0.6443 0.4826
C18 C 0.8616(11) 0.6141(2) 0.5023(6)
H13 H 0.9161 0.6226 0.5923
C19 C 0.9911(9) 0.58876(17) 0.4344(5)
H14 H 1.1330 0.5804 0.4793
C20 C 1.0903(7) 0.57136(14) -0.0770(5)
C21 C 1.2726(7) 0.56481(15) -0.1496(5)
H15 H 1.3128 0.5393 -0.1706
C22 C 1.3945(8) 0.59616(16) -0.1908(6)
H16 H 1.5153 0.5913 -0.2410
C23 C 1.3447(8) 0.63450(15) -0.1606(5)
C24 C 1.1592(8) 0.64061(16) -0.0878(5)
H17 H 1.1192 0.6661 -0.0667
C25 C 1.0340(8) 0.60954(14) -0.0465(5)
H18 H 0.9111 0.6143 0.0021
C26 C 1.4819(10) 0.66865(18) -0.2038(7)
H19 H 1.3795 0.6880 -0.2501
H20 H 1.5839 0.6596 -0.2662
H21 H 1.5697 0.6801 -0.1225
N2 N 0.4258(6) 0.32295(11) -0.1163(4)
C27 C 0.4037(8) 0.33412(14) 0.0172(5)
C28 C 0.5254(7) 0.31402(16) 0.1443(5)
H22 H 0.6437 0.2973 0.1130
C29 C 0.6491(9) 0.34457(19) 0.2414(6)
H23 H 0.8065 0.3416 0.2668
C30 C 0.5501(11) 0.37532(19) 0.2932(6)
H24 H 0.6420 0.3892 0.3627
C31 C 0.3226(11) 0.38992(18) 0.2567(6)
H25 H 0.2589 0.4032 0.3259
C32 C 0.1901(9) 0.38628(15) 0.1311(6)
H26 H 0.0483 0.3988 0.1202
C33 C 0.2483(7) 0.36490(14) 0.0136(5)
C34 C 0.1672(7) 0.37187(13) -0.1306(5)
C35 C 0.0063(9) 0.39763(16) -0.1994(6)
H27 H -0.0701 0.4154 -0.1494
C36 C -0.0376(9) 0.39632(18) -0.3419(6)
H28 H -0.1479 0.4130 -0.3884
C37 C 0.0779(9) 0.37079(19) -0.4185(6)
H29 H 0.0452 0.3710 -0.5154
C38 C 0.2415(8) 0.34483(16) -0.3542(5)
H30 H 0.3193 0.3277 -0.4059
C39 C 0.2839(7) 0.34563(14) -0.2084(5)
C40 C 0.3737(7) 0.28738(14) 0.2196(5)
C41 C 0.1584(8) 0.27466(16) 0.1576(5)
H31 H 0.0992 0.2838 0.0693
C42 C 0.0315(9) 0.24870(16) 0.2251(6)
H32 H -0.1101 0.2399 0.1813
C43 C 0.1146(11) 0.2359(2) 0.3570(7)
H33 H 0.0266 0.2192 0.4039
C44 C 0.3266(11) 0.24771(18) 0.4200(6)
H34 H 0.3842 0.2382 0.5081
C45 C 0.4557(9) 0.27375(18) 0.3533(5)
H35 H 0.5977 0.2822 0.3979
C46 C 0.5572(7) 0.29002(14) -0.1567(5)
C47 C 0.7385(7) 0.29701(15) -0.2306(5)
H36 H 0.7755 0.3225 -0.2542
C48 C 0.8637(8) 0.26522(17) -0.2687(6)
H37 H 0.9872 0.2697 -0.3170
C49 C 0.8100(8) 0.22722(16) -0.2370(5)
C50 C 0.6276(8) 0.22117(16) -0.1651(6)
H38 H 0.5887 0.1957 -0.1426
C51 C 0.5006(8) 0.25254(16) -0.1255(6)
H39 H 0.3767 0.2480 -0.0777
C52 C 0.9471(11) 0.19296(18) -0.2799(8)
H40 H 0.8613 0.1799 -0.3584
H41 H 0.9777 0.1749 -0.2034
H42 H 1.0896 0.2023 -0.3051
loop_
_geom_bond_atom_site_label_1
_geom_bond_atom_site_label_2
_geom_bond_site_symmetry_1
_geom_bond_site_symmetry_2
N1 C1 1_555 1_555
C1 C2 1_555 1_555
C2 H1 1_555 1_555
C3 C2 1_555 1_555
H2 C3 1_555 1_555
C4 C3 1_555 1_555
H3 C4 1_555 1_555
C5 C4 1_555 1_555
H4 C5 1_555 1_555
C6 C5 1_555 1_555
H5 C6 1_555 1_555
C7 C1 1_555 1_555
C8 C7 1_555 1_555
C9 C8 1_555 1_555
H6 C9 1_555 1_555
C10 C9 1_555 1_555
H7 C10 1_555 1_555
C11 C10 1_555 1_555
H8 C11 1_555 1_555
C12 C11 1_555 1_555
H9 C12 1_555 1_555
C13 N1 1_555 1_555
C14 C2 1_555 1_555
C15 C14 1_555 1_555
H10 C15 1_555 1_555
C16 C15 1_555 1_555
H11 C16 1_555 1_555
C17 C16 1_555 1_555
H12 C17 1_555 1_555
C18 C17 1_555 1_555
H13 C18 1_555 1_555
C19 C14 1_555 1_555
H14 C19 1_555 1_555
C20 N1 1_555 1_555
C21 C20 1_555 1_555
H15 C21 1_555 1_555
C22 C21 1_555 1_555
H16 C22 1_555 1_555
C23 C22 1_555 1_555
C24 C23 1_555 1_555
H17 C24 1_555 1_555
C25 C20 1_555 1_555
H18 C25 1_555 1_555
C26 C23 1_555 1_555
H19 C26 1_555 1_555
H20 C26 1_555 1_555
H21 C26 1_555 1_555
N2 C27 1_555 1_555
C27 C28 1_555 1_555
C28 H22 1_555 1_555
C29 C28 1_555 1_555
H23 C29 1_555 1_555
C30 C29 1_555 1_555
H24 C30 1_555 1_555
C31 C30 1_555 1_555
H25 C31 1_555 1_555
C32 C31 1_555 1_555
H26 C32 1_555 1_555
C33 C27 1_555 1_555
C34 C33 1_555 1_555
C35 C34 1_555 1_555
H27 C35 1_555 1_555
C36 C35 1_555 1_555
H28 C36 1_555 1_555
C37 C36 1_555 1_555
H29 C37 1_555 1_555
C38 C37 1_555 1_555
H30 C38 1_555 1_555
C39 N2 1_555 1_555
C40 C28 1_555 1_555
C41 C40 1_555 1_555
H31 C41 1_555 1_555
C42 C41 1_555 1_555
H32 C42 1_555 1_555
C43 C42 1_555 1_555
H33 C43 1_555 1_555
C44 C43 1_555 1_555
H34 C44 1_555 1_555
C45 C40 1_555 1_555
H35 C45 1_555 1_555
C46 N2 1_555 1_555
C47 C46 1_555 1_555
H36 C47 1_555 1_555
C48 C47 1_555 1_555
H37 C48 1_555 1_555
C49 C48 1_555 1_555
C50 C49 1_555 1_555
H38 C50 1_555 1_555
C51 C46 1_555 1_555
H39 C51 1_555 1_555
C52 C49 1_555 1_555
H40 C52 1_555 1_555
H41 C52 1_555 1_555
H42 C52 1_555 1_555
C6 C7 1_555 1_555
C8 C13 1_555 1_555
C12 C13 1_555 1_555
C18 C19 1_555 1_555
C24 C25 1_555 1_555
C32 C33 1_555 1_555
C34 C39 1_555 1_555
C38 C39 1_555 1_555
C44 C45 1_555 1_555
C50 C51 1_555 1_555

#END
