
#######################################################################
#
#                 Cambridge Crystallographic Data Centre
#                                CCDC 
#
#######################################################################
#
# If this CIF has been generated from an entry in the Cambridge 
# Structural Database, then it will include bibliographic, chemical, 
# crystal, experimental, refinement or atomic coordinate data resulting 
# from the CCDC's data processing and validation procedures.
#
#######################################################################

data_QERPIP
_chemical_formula_moiety         'C12 H6 N2 O4 2-,C5 H16 N2 2+'
_chemical_name_systematic        
"pentane-1,5-diaminium [2,2'-bipyridine]-4,4'-dicarboxylate"
_symmetry_cell_setting           monoclinic
_symmetry_space_group_name_H-M   'P 21'
_symmetry_Int_Tables_number      4
_space_group_name_Hall           'P 2yb'
loop_
_symmetry_equiv_pos_site_id
_symmetry_equiv_pos_as_xyz
1 x,y,z
2 -x,1/2+y,-z
_cell_length_a                   5.8100(12)
_cell_length_b                   13.733(3)
_cell_length_c                   10.158(2)
_cell_angle_alpha                90
_cell_angle_beta                 96.34(3)
_cell_angle_gamma                90
_cell_volume                     805.537
_exptl_crystal_colour            colorless
_exptl_crystal_description       block
_cell_formula_units_Z            2
loop_
_atom_site_label
_atom_site_type_symbol
_atom_site_fract_x
_atom_site_fract_y
_atom_site_fract_z
C1 C 0.2120(11) -0.0026(5) -0.0546(7)
O1 O 0.2629(7) -0.1332(3) -0.4874(4)
N1 N 0.0246(10) -0.0592(5) -0.0381(5)
C2 C -0.0560(14) -0.1176(6) -0.1343(7)
H1 H -0.1840 -0.1560 -0.1226
O2 O 0.5197(8) -0.0242(4) -0.4074(5)
N2 N 0.4875(10) 0.1145(4) 0.0391(5)
O3 O -0.0170(7) 0.0814(4) 0.4035(5)
C3 C 0.0445(11) -0.1250(6) -0.2568(6)
H2 H -0.0199 -0.1661 -0.3237
O4 O 0.2534(8) 0.1904(4) 0.4891(4)
C4 C 0.2384(12) -0.0701(5) -0.2739(8)
C5 C 0.3375(12) -0.0102(5) -0.1655(7)
H3 H 0.4777 0.0220 -0.1686
C6 C 0.3503(11) -0.0762(5) -0.4028(7)
C7 C 0.2995(11) 0.0619(5) 0.0561(7)
C8 C 0.5783(13) 0.1698(6) 0.1439(7)
H4 H 0.7177 0.2017 0.1369
C9 C 0.4783(11) 0.1812(5) 0.2576(7)
H5 H 0.5405 0.2239 0.3231
C10 C 0.2796(10) 0.1272(4) 0.2736(5)
C11 C 0.2015(10) 0.0654(4) 0.1760(6)
H6 H 0.0794 0.0238 0.1884
C12 C 0.1616(12) 0.1335(5) 0.3988(6)
N3 N 0.2425(9) 0.3833(5) 0.5840(5)
H7 H 0.3326 0.4112 0.5294
H8 H 0.1029 0.4107 0.5734
H9 H 0.2297 0.3200 0.5658
N4 N -0.2610(10) 0.1713(4) 0.5939(6)
H10 H -0.3997 0.1956 0.6047
H11 H -0.2781 0.1173 0.5454
H12 H -0.1808 0.2149 0.5529
C13 C 0.3506(13) 0.3971(7) 0.7283(7)
H13 H 0.3027 0.4584 0.7641
H14 H 0.5184 0.3952 0.7345
C14 C 0.2500(12) 0.3054(6) 0.8050(7)
H15 H 0.3037 0.2452 0.7687
H16 H 0.3092 0.3080 0.8980
C15 C -0.0036(9) 0.3055(4) 0.7923(5)
H17 H -0.0548 0.3579 0.8462
H18 H -0.0608 0.3193 0.7009
C16 C -0.1067(14) 0.2152(6) 0.8311(7)
H19 H -0.2535 0.2286 0.8645
H20 H -0.0053 0.1842 0.9011
C17 C -0.1435(14) 0.1498(6) 0.7164(7)
H21 H 0.0097 0.1289 0.6989
H22 H -0.2191 0.0925 0.7475
loop_
_geom_bond_atom_site_label_1
_geom_bond_atom_site_label_2
_geom_bond_site_symmetry_1
_geom_bond_site_symmetry_2
C1 N1 1_555 1_555
O1 C6 1_555 1_555
N1 C2 1_555 1_555
C2 H1 1_555 1_555
O2 C6 1_555 1_555
N2 C7 1_555 1_555
O3 C12 1_555 1_555
C3 C2 1_555 1_555
H2 C3 1_555 1_555
O4 C12 1_555 1_555
C4 C3 1_555 1_555
C5 C1 1_555 1_555
H3 C5 1_555 1_555
C6 C4 1_555 1_555
C7 C1 1_555 1_555
C8 N2 1_555 1_555
H4 C8 1_555 1_555
C9 C8 1_555 1_555
H5 C9 1_555 1_555
C10 C9 1_555 1_555
C11 C7 1_555 1_555
H6 C11 1_555 1_555
C12 C10 1_555 1_555
N3 H7 1_555 1_555
H8 N3 1_555 1_555
H9 N3 1_555 1_555
N4 H10 1_555 1_555
H11 N4 1_555 1_555
H12 N4 1_555 1_555
C13 N3 1_555 1_555
H13 C13 1_555 1_555
H14 C13 1_555 1_555
C14 C13 1_555 1_555
H15 C14 1_555 1_555
H16 C14 1_555 1_555
C15 C14 1_555 1_555
H17 C15 1_555 1_555
H18 C15 1_555 1_555
C16 C15 1_555 1_555
H19 C16 1_555 1_555
H20 C16 1_555 1_555
C17 N4 1_555 1_555
H21 C17 1_555 1_555
H22 C17 1_555 1_555
C4 C5 1_555 1_555
C10 C11 1_555 1_555
C16 C17 1_555 1_555

#END
