
#######################################################################
#
#                 Cambridge Crystallographic Data Centre
#                                CCDC 
#
#######################################################################
#
# If this CIF has been generated from an entry in the Cambridge 
# Structural Database, then it will include bibliographic, chemical, 
# crystal, experimental, refinement or atomic coordinate data resulting 
# from the CCDC's data processing and validation procedures.
#
#######################################################################

data_QERWOA
_chemical_formula_moiety         'C6 H10 N2 2+,2(C7 H7 O3 S1 1-)'
_chemical_name_systematic        
'1,4-Phenylenediammonium bis(toluene-4-sulfonate)'
_symmetry_cell_setting           monoclinic
_symmetry_space_group_name_H-M   'P 21/n'
_symmetry_Int_Tables_number      14
_space_group_name_Hall           '-P 2yn'
loop_
_symmetry_equiv_pos_site_id
_symmetry_equiv_pos_as_xyz
1 x,y,z
2 1/2-x,1/2+y,1/2-z
3 -x,-y,-z
4 1/2+x,1/2-y,1/2+z
_cell_length_a                   15.6885(6)
_cell_length_b                   7.0857(2)
_cell_length_c                   18.3270(6)
_cell_angle_alpha                90
_cell_angle_beta                 96.8000(10)
_cell_angle_gamma                90
_cell_volume                     2022.97
_exptl_crystal_colour            red
_exptl_crystal_description       prism
_cell_formula_units_Z            4
_exptl_crystal_recrystallization_method ethanol/water
loop_
_atom_site_label
_atom_site_type_symbol
_atom_site_fract_x
_atom_site_fract_y
_atom_site_fract_z
S1 S 0.12378(3) 0.23186(6) 0.53770(2)
O1 O 0.08693(8) 0.06134(19) 0.50251(7)
O2 O 0.07902(8) 0.40057(19) 0.50844(7)
O3 O 0.13193(9) 0.2210(2) 0.61769(8)
C1 C 0.48157(13) 0.2839(3) 0.44439(12)
H1 H 0.5250 0.2850 0.4875
H2 H 0.4861 0.3999 0.4160
H3 H 0.4909 0.1744 0.4136
C2 C 0.39323(12) 0.2719(3) 0.46916(11)
C3 C 0.32116(12) 0.3293(3) 0.42191(10)
H4 H 0.3283 0.3774 0.3746
C4 C 0.23951(12) 0.3169(3) 0.44337(10)
H5 H 0.1910 0.3553 0.4108
C5 C 0.22900(11) 0.2477(2) 0.51280(10)
C6 C 0.29973(11) 0.1898(3) 0.56073(10)
H6 H 0.2925 0.1429 0.6082
C7 C 0.38116(12) 0.2018(3) 0.53809(10)
H7 H 0.4295 0.1613 0.5704
S2 S 0.53295(3) 0.24479(6) 0.73086(2)
O4 O 0.48907(9) 0.4151(2) 0.70131(8)
O5 O 0.49077(9) 0.0742(2) 0.69934(8)
O6 O 0.54578(10) 0.2423(2) 0.81086(8)
C8 C 0.88894(14) 0.2468(3) 0.63150(13)
H8 H 0.9176 0.1284 0.6473
H9 H 0.9221 0.3534 0.6541
H10 H 0.8849 0.2572 0.5779
C9 C 0.80010(13) 0.2492(2) 0.65498(11)
C10 C 0.78632(12) 0.3198(3) 0.72362(10)
H11 H 0.8335 0.3690 0.7551
C11 C 0.70544(12) 0.3200(3) 0.74702(10)
H12 H 0.6974 0.3697 0.7939
C12 C 0.63614(12) 0.2466(2) 0.70117(10)
C13 C 0.64816(12) 0.1749(3) 0.63244(10)
H13 H 0.6009 0.1250 0.6012
C14 C 0.72948(12) 0.1766(3) 0.60970(10)
H14 H 0.7374 0.1278 0.5627
N1 N 0.42517(10) 0.2427(2) 0.91410(9)
H15 H 0.4328 0.1353 0.9414
H16 H 0.4322 0.3449 0.9443
H17 H 0.4644 0.2466 0.8813
N2 N 0.08850(10) 0.2509(2) 0.75958(9)
H18 H 0.0607 0.3578 0.7708
H19 H 0.0588 0.1482 0.7724
H20 H 0.0924 0.2479 0.7104
C15 C 0.33835(12) 0.2444(2) 0.87438(10)
C16 C 0.32571(11) 0.3107(3) 0.80296(10)
H21 H 0.3731 0.3537 0.7797
C17 C 0.24328(12) 0.3142(3) 0.76540(10)
H22 H 0.2337 0.3609 0.7165
C18 C 0.17532(11) 0.2487(2) 0.80014(10)
C19 C 0.18746(11) 0.1829(3) 0.87163(10)
H23 H 0.1401 0.1389 0.8947
C20 C 0.26989(11) 0.1818(3) 0.90953(10)
H24 H 0.2792 0.1387 0.9589
loop_
_geom_bond_atom_site_label_1
_geom_bond_atom_site_label_2
_geom_bond_site_symmetry_1
_geom_bond_site_symmetry_2
S1 O1 1_555 1_555
S2 O4 1_555 1_555
O2 S1 1_555 1_555
O3 S1 1_555 1_555
O5 S2 1_555 1_555
O6 S2 1_555 1_555
C1 H1 1_555 1_555
H2 C1 1_555 1_555
H3 C1 1_555 1_555
C2 C1 1_555 1_555
C3 C2 1_555 1_555
H4 C3 1_555 1_555
C4 C3 1_555 1_555
H5 C4 1_555 1_555
C5 S1 1_555 1_555
C6 C5 1_555 1_555
H6 C6 1_555 1_555
C7 C2 1_555 1_555
H7 C7 1_555 1_555
C8 H8 1_555 1_555
H9 C8 1_555 1_555
H10 C8 1_555 1_555
C9 C8 1_555 1_555
C10 C9 1_555 1_555
H11 C10 1_555 1_555
C11 C10 1_555 1_555
H12 C11 1_555 1_555
C12 S2 1_555 1_555
C13 C12 1_555 1_555
H13 C13 1_555 1_555
C14 C9 1_555 1_555
H14 C14 1_555 1_555
N1 H15 1_555 1_555
H16 N1 1_555 1_555
H17 N1 1_555 1_555
N2 H18 1_555 1_555
H19 N2 1_555 1_555
H20 N2 1_555 1_555
C15 N1 1_555 1_555
C16 C15 1_555 1_555
H21 C16 1_555 1_555
C17 C16 1_555 1_555
H22 C17 1_555 1_555
C18 N2 1_555 1_555
C19 C18 1_555 1_555
H23 C19 1_555 1_555
C20 C15 1_555 1_555
H24 C20 1_555 1_555
C4 C5 1_555 1_555
C6 C7 1_555 1_555
C11 C12 1_555 1_555
C13 C14 1_555 1_555
C17 C18 1_555 1_555
C19 C20 1_555 1_555

#END
