
#######################################################################
#
#                 Cambridge Crystallographic Data Centre
#                                CCDC 
#
#######################################################################
#
# If this CIF has been generated from an entry in the Cambridge 
# Structural Database, then it will include bibliographic, chemical, 
# crystal, experimental, refinement or atomic coordinate data resulting 
# from the CCDC's data processing and validation procedures.
#
#######################################################################

data_QERYEU
_chemical_formula_moiety         'C10 H6 N4'
_chemical_name_systematic        2,2'-(ethyne-1,2-diyl)dipyrimidine
_symmetry_cell_setting           monoclinic
_symmetry_space_group_name_H-M   'P 21/c'
_symmetry_Int_Tables_number      14
_space_group_name_Hall           '-P 2ybc'
loop_
_symmetry_equiv_pos_site_id
_symmetry_equiv_pos_as_xyz
1 x,y,z
2 -x,1/2+y,1/2-z
3 -x,-y,-z
4 x,1/2-y,1/2+z
_cell_length_a                   3.813(3)
_cell_length_b                   11.590(3)
_cell_length_c                   10.190(4)
_cell_angle_alpha                90
_cell_angle_beta                 100.67(2)
_cell_angle_gamma                90
_cell_volume                     442.537
_exptl_crystal_colour            yellow
_exptl_crystal_description       block
_cell_formula_units_Z            2
loop_
_atom_site_label
_atom_site_type_symbol
_atom_site_fract_x
_atom_site_fract_y
_atom_site_fract_z
N1 N 0.8733(8) 0.4368(2) 0.2630(2)
N2 N 0.5931(7) 0.2820(3) 0.1325(2)
C1 C 0.5550(8) 0.4696(3) 0.0456(2)
C2 C 0.6838(9) 0.3916(4) 0.1546(3)
C3 C 0.9986(10) 0.3622(4) 0.3592(3)
H1 H 1.1375 0.3893 0.4379
C4 C 0.9296(10) 0.2473(4) 0.3459(4)
H2 H 1.0214 0.1956 0.4133
C5 C 0.7242(10) 0.2112(3) 0.2319(3)
H3 H 0.6713 0.1329 0.2220
N1B N 0.1267(8) 0.5632(2) -0.2630(2)
N2B N 0.4069(7) 0.7180(3) -0.1325(2)
C1B C 0.4450(8) 0.5304(3) -0.0456(2)
C2B C 0.3162(9) 0.6084(4) -0.1546(3)
C3B C 0.0014(10) 0.6378(4) -0.3592(3)
H1B H -0.1375 0.6107 -0.4379
C4B C 0.0704(10) 0.7527(4) -0.3459(4)
H2B H -0.0214 0.8044 -0.4133
C5B C 0.2758(10) 0.7888(3) -0.2319(3)
H3B H 0.3287 0.8671 -0.2220
loop_
_geom_bond_atom_site_label_1
_geom_bond_atom_site_label_2
_geom_bond_site_symmetry_1
_geom_bond_site_symmetry_2
N1 C2 1_555 1_555
N2 C2 1_555 1_555
C1 C2 1_555 1_555
C3 N1 1_555 1_555
H1 C3 1_555 1_555
C4 C3 1_555 1_555
H2 C4 1_555 1_555
C5 N2 1_555 1_555
H3 C5 1_555 1_555
N1B C2B 1_555 1_555
N2B C2B 1_555 1_555
C1B C1 1_555 1_555
C2B C1B 1_555 1_555
C3B N1B 1_555 1_555
H1B C3B 1_555 1_555
C4B C3B 1_555 1_555
H2B C4B 1_555 1_555
C5B N2B 1_555 1_555
H3B C5B 1_555 1_555
C4 C5 1_555 1_555
C4B C5B 1_555 1_555

#END
