
#######################################################################
#
#                 Cambridge Crystallographic Data Centre
#                                CCDC 
#
#######################################################################
#
# If this CIF has been generated from an entry in the Cambridge 
# Structural Database, then it will include bibliographic, chemical, 
# crystal, experimental, refinement or atomic coordinate data resulting 
# from the CCDC's data processing and validation procedures.
#
#######################################################################

data_QESDIC
_chemical_formula_moiety         'C18 H18 N2 O2'
_chemical_name_systematic        
1-(3-(4-Methoxyphenyl)-5-phenyl-4,5-dihydro-1H-pyrazol-1-yl)ethanone
_chemical_properties_biological  
'potential biological and pharmaceutical activities'
_symmetry_cell_setting           monoclinic
_symmetry_space_group_name_H-M   'P 21/c'
_symmetry_Int_Tables_number      14
_space_group_name_Hall           '-P 2ybc'
loop_
_symmetry_equiv_pos_site_id
_symmetry_equiv_pos_as_xyz
1 x,y,z
2 -x,1/2+y,1/2-z
3 -x,-y,-z
4 x,1/2-y,1/2+z
_cell_length_a                   11.960(2)
_cell_length_b                   12.089(2)
_cell_length_c                   11.044(2)
_cell_angle_alpha                90
_cell_angle_beta                 102.68(3)
_cell_angle_gamma                90
_cell_volume                     1557.85
_exptl_crystal_colour            colorless
_exptl_crystal_description       block
_chemical_melting_point          138deg.C
_cell_formula_units_Z            4
_exptl_crystal_recrystallization_method ethanol/acetone
loop_
_atom_site_label
_atom_site_type_symbol
_atom_site_fract_x
_atom_site_fract_y
_atom_site_fract_z
O1 O 0.98479(14) 0.27624(14) 0.26720(15)
O2 O 0.65020(14) 0.90848(13) -0.25511(15)
N1 N 0.88623(12) 0.51051(13) 0.08538(14)
N2 N 0.91664(13) 0.40145(13) 0.12012(14)
C1 C 0.7300(2) 0.16119(18) -0.0073(2)
H1 H 0.7728 0.1297 -0.0592
C2 C 0.6319(2) 0.1080(2) 0.0109(3)
H2 H 0.6096 0.0412 -0.0287
C3 C 0.5677(2) 0.1536(2) 0.0871(3)
H3 H 0.5019 0.1179 0.0984
C4 C 0.60071(18) 0.2515(2) 0.1462(2)
H4 H 0.5577 0.2823 0.1984
C5 C 0.69881(17) 0.30514(18) 0.1281(2)
H5 H 0.7207 0.3718 0.1684
C6 C 0.76424(15) 0.26070(16) 0.05127(17)
C7 C 0.86758(16) 0.32136(16) 0.02265(18)
H6 H 0.9261 0.2683 0.0105
C8 C 0.83397(17) 0.39762(16) -0.09041(18)
H7 H 0.8885 0.3926 -0.1435
H8 H 0.7580 0.3803 -0.1386
C9 C 0.83706(14) 0.51037(15) -0.03101(16)
C10 C 0.96804(16) 0.37385(19) 0.23899(19)
C11 C 1.0003(2) 0.4665(2) 0.3291(2)
H9 H 1.0359 0.4372 0.4091
H10 H 0.9328 0.5072 0.3353
H11 H 1.0530 0.5149 0.3010
C12 C 0.79158(15) 0.61317(16) -0.09385(16)
C13 C 0.72450(17) 0.61213(18) -0.21421(17)
H12 H 0.7113 0.5453 -0.2567
C14 C 0.67681(18) 0.70857(18) -0.27246(18)
H13 H 0.6325 0.7061 -0.3529
C15 C 0.69585(17) 0.80830(17) -0.20962(18)
C16 C 0.76478(17) 0.81081(18) -0.09011(19)
H14 H 0.7792 0.8779 -0.0485
C17 C 0.81149(16) 0.71543(16) -0.03326(18)
H15 H 0.8570 0.7187 0.0466
C18 C 0.5717(2) 0.9082(2) -0.3733(2)
H16 H 0.5455 0.9823 -0.3944
H17 H 0.5074 0.8618 -0.3696
H18 H 0.6096 0.8804 -0.4352
loop_
_geom_bond_atom_site_label_1
_geom_bond_atom_site_label_2
_geom_bond_site_symmetry_1
_geom_bond_site_symmetry_2
O1 C10 1_555 1_555
O2 C15 1_555 1_555
N1 N2 1_555 1_555
N2 C7 1_555 1_555
C1 H1 1_555 1_555
C2 C1 1_555 1_555
H2 C2 1_555 1_555
C3 C2 1_555 1_555
H3 C3 1_555 1_555
C4 C3 1_555 1_555
H4 C4 1_555 1_555
C5 C4 1_555 1_555
H5 C5 1_555 1_555
C6 C1 1_555 1_555
C7 C6 1_555 1_555
H6 C7 1_555 1_555
C8 C7 1_555 1_555
H7 C8 1_555 1_555
H8 C8 1_555 1_555
C9 N1 1_555 1_555
C10 N2 1_555 1_555
C11 C10 1_555 1_555
H9 C11 1_555 1_555
H10 C11 1_555 1_555
H11 C11 1_555 1_555
C12 C9 1_555 1_555
C13 C12 1_555 1_555
H12 C13 1_555 1_555
C14 C13 1_555 1_555
H13 C14 1_555 1_555
C15 C14 1_555 1_555
C16 C15 1_555 1_555
H14 C16 1_555 1_555
C17 C12 1_555 1_555
H15 C17 1_555 1_555
C18 O2 1_555 1_555
H16 C18 1_555 1_555
H17 C18 1_555 1_555
H18 C18 1_555 1_555
C5 C6 1_555 1_555
C8 C9 1_555 1_555
C16 C17 1_555 1_555

#END
