
#######################################################################
#
#                 Cambridge Crystallographic Data Centre
#                                CCDC 
#
#######################################################################
#
# If this CIF has been generated from an entry in the Cambridge 
# Structural Database, then it will include bibliographic, chemical, 
# crystal, experimental, refinement or atomic coordinate data resulting 
# from the CCDC's data processing and validation procedures.
#
#######################################################################

data_QESQAJ
_chemical_formula_moiety         'C16 H19 N5 O5'
_chemical_name_systematic        
'methyl 4-{[(8-methyl-2,4,9-trioxooctahydro-2H-pyrazino[1,2-a][1,3,5]triazin-7-yl)methyl]amino}benzoate'
_symmetry_cell_setting           orthorhombic
_symmetry_space_group_name_H-M   'P 21 21 21'
_symmetry_Int_Tables_number      19
_space_group_name_Hall           'P 2ac 2ab'
loop_
_symmetry_equiv_pos_site_id
_symmetry_equiv_pos_as_xyz
1 x,y,z
2 1/2-x,-y,1/2+z
3 1/2+x,1/2-y,-z
4 -x,1/2+y,1/2-z
_cell_length_a                   7.0740(4)
_cell_length_b                   13.9328(10)
_cell_length_c                   15.8374(6)
_cell_angle_alpha                90
_cell_angle_beta                 90
_cell_angle_gamma                90
_cell_volume                     1560.94
_exptl_crystal_colour            colorless
_exptl_crystal_description       needle
_cell_formula_units_Z            4
loop_
_atom_site_label
_atom_site_type_symbol
_atom_site_fract_x
_atom_site_fract_y
_atom_site_fract_z
N1 N -0.0917(3) -0.31886(15) -0.91129(13)
H1 H -0.0401 -0.2975 -0.9567
C1 C 0.5015(4) -0.72408(18) -0.81742(16)
H2 H 0.5720 -0.6894 -0.7783
O1 O 0.1950(2) -0.33632(12) -0.84652(11)
O2 O 0.4938(3) -0.95812(12) -1.03845(11)
O3 O -0.5204(2) -0.49127(12) -0.73223(11)
C2 C 0.3037(4) -0.71078(17) -0.82123(16)
N2 N -0.0620(3) -0.41485(14) -0.79377(12)
O4 O 0.7642(3) -0.92352(13) -0.97095(11)
C3 C -0.3183(4) -0.60335(18) -0.61744(15)
H3 H -0.4535 -0.6044 -0.6225
H4 H -0.2837 -0.5732 -0.5652
H5 H -0.2708 -0.6679 -0.6184
N3 N 0.2186(3) -0.65062(15) -0.76427(14)
H6 H 0.2868 -0.6237 -0.7261
O5 O -0.3768(3) -0.25688(14) -0.94922(12)
N4 N -0.2374(3) -0.54925(15) -0.68803(13)
C4 C -0.3480(4) -0.49672(17) -0.73867(15)
C5 C 0.0170(3) -0.63080(16) -0.76623(15)
H7 H -0.0530 -0.6891 -0.7541
H8 H -0.0190 -0.6087 -0.8220
C6 C 0.4895(4) -0.84002(17) -0.92986(15)
C7 C 0.2021(4) -0.76199(18) -0.88270(16)
H9 H 0.0723 -0.7532 -0.8877
C8 C -0.0311(3) -0.55408(17) -0.70072(15)
H10 H 0.0262 -0.5735 -0.6470
C9 C -0.2874(4) -0.31260(18) -0.90492(15)
C10 C 0.2944(4) -0.82536(17) -0.93575(16)
H11 H 0.2253 -0.8589 -0.9761
N5 N -0.3631(3) -0.37076(15) -0.84578(13)
H12 H -0.4759 -0.3612 -0.8273
C11 C 0.0270(3) -0.35691(16) -0.84997(15)
C12 C 0.5778(4) -0.91237(17) -0.98553(15)
C13 C 0.5914(4) -0.78728(18) -0.87037(16)
H13 H 0.7217 -0.7951 -0.8666
C14 C -0.2508(3) -0.44917(18) -0.81422(16)
H14 H -0.2394 -0.4971 -0.8592
C15 C 0.8564(4) -0.9928(2) -1.02488(17)
H15 H 0.9891 -0.9942 -1.0124
H16 H 0.8382 -0.9751 -1.0829
H17 H 0.8031 -1.0552 -1.0152
C16 C 0.0406(3) -0.45387(16) -0.72166(15)
H18 H 0.0237 -0.4122 -0.6732
H19 H 0.1745 -0.4566 -0.7346
loop_
_geom_bond_atom_site_label_1
_geom_bond_atom_site_label_2
_geom_bond_site_symmetry_1
_geom_bond_site_symmetry_2
N1 H1 1_555 1_555
C1 H2 1_555 1_555
O1 C11 1_555 1_555
O2 C12 1_555 1_555
O3 C4 1_555 1_555
C2 C1 1_555 1_555
N2 C11 1_555 1_555
O4 C12 1_555 1_555
C3 H3 1_555 1_555
H4 C3 1_555 1_555
H5 C3 1_555 1_555
N3 C2 1_555 1_555
H6 N3 1_555 1_555
O5 C9 1_555 1_555
N4 C3 1_555 1_555
C4 N4 1_555 1_555
C5 N3 1_555 1_555
H7 C5 1_555 1_555
H8 C5 1_555 1_555
C6 C10 1_555 1_555
C7 C2 1_555 1_555
H9 C7 1_555 1_555
C8 N4 1_555 1_555
H10 C8 1_555 1_555
C9 N1 1_555 1_555
C10 C7 1_555 1_555
H11 C10 1_555 1_555
N5 C9 1_555 1_555
H12 N5 1_555 1_555
C11 N1 1_555 1_555
C12 C6 1_555 1_555
C13 C1 1_555 1_555
H13 C13 1_555 1_555
C14 N2 1_555 1_555
H14 C14 1_555 1_555
C15 O4 1_555 1_555
H15 C15 1_555 1_555
H16 C15 1_555 1_555
H17 C15 1_555 1_555
C16 N2 1_555 1_555
H18 C16 1_555 1_555
H19 C16 1_555 1_555
C4 C14 1_555 1_555
C5 C8 1_555 1_555
C6 C13 1_555 1_555
C8 C16 1_555 1_555
N5 C14 1_555 1_555

#END
