
#######################################################################
#
#                 Cambridge Crystallographic Data Centre
#                                CCDC 
#
#######################################################################
#
# If this CIF has been generated from an entry in the Cambridge 
# Structural Database, then it will include bibliographic, chemical, 
# crystal, experimental, refinement or atomic coordinate data resulting 
# from the CCDC's data processing and validation procedures.
#
#######################################################################

data_QETJEH
_chemical_formula_moiety         'C31 H25 F3 O5'
_chemical_name_systematic        
'9-((4-(trifluoromethyl)phenoxy)methyl)-5,22-dioxahexacyclo[7.6.6.1^3,6^.0^2,8^.0^10,15^.0^16,21^]docosa-10,12,14,16,18,20-hexaen-7-yl acrylate'
_symmetry_cell_setting           orthorhombic
_symmetry_space_group_name_H-M   'P 21 21 21'
_symmetry_Int_Tables_number      19
_space_group_name_Hall           'P 2ac 2ab'
loop_
_symmetry_equiv_pos_site_id
_symmetry_equiv_pos_as_xyz
1 x,y,z
2 1/2-x,-y,1/2+z
3 -x,1/2+y,1/2-z
4 1/2+x,1/2-y,-z
_cell_length_a                   9.3677(5)
_cell_length_b                   14.3667(8)
_cell_length_c                   18.4604(13)
_cell_angle_alpha                90
_cell_angle_beta                 90
_cell_angle_gamma                90
_cell_volume                     2484.45
_exptl_crystal_colour            colorless
_exptl_crystal_description       prism
_cell_formula_units_Z            4
_exptl_crystal_recrystallization_method Benzene
loop_
_atom_site_label
_atom_site_type_symbol
_atom_site_fract_x
_atom_site_fract_y
_atom_site_fract_z
O1 O 0.4781(3) 0.86473(18) 1.03478(15)
O2 O 0.3844(2) 0.94341(13) 0.94117(12)
C1 C 0.3856(3) 0.8742(2) 0.99005(17)
C2 C 0.2632(4) 0.8108(2) 0.98115(19)
H1 H 0.2549 0.7600 1.0139
C3 C 0.1649(4) 0.8199(2) 0.93092(19)
H2 H 0.1701 0.8700 0.8974
H3 H 0.0885 0.7765 0.9282
C4 C 0.5020(3) 1.00861(18) 0.94117(16)
H4 H 0.5882 0.9766 0.9612
C5 C 0.4667(3) 1.0916(2) 0.98954(17)
H5 H 0.4733 1.0729 1.0416
O3 O 0.3304(2) 1.12854(14) 0.97509(12)
C6 C 0.3499(3) 1.2036(2) 0.92493(18)
H6 H 0.3229 1.2639 0.9470
H7 H 0.2927 1.1939 0.8805
C7 C 0.5099(3) 1.20014(19) 0.90841(16)
H8 H 0.5478 1.2644 0.9005
C8 C 0.5456(3) 1.13826(18) 0.84384(16)
H9 H 0.4753 1.1533 0.8048
C9 C 0.5299(3) 1.03183(19) 0.86083(15)
H10 H 0.4463 1.0084 0.8325
O4 O 0.5666(2) 1.16189(14) 0.97471(11)
C10 C 0.6669(3) 0.97836(18) 0.83221(16)
C11 C 0.6970(3) 1.15674(18) 0.81226(15)
H11 H 0.7138 1.2245 0.8035
C12 C 0.6464(3) 0.87449(19) 0.84223(17)
H12 H 0.6311 0.8600 0.8941
H13 H 0.5618 0.8532 0.8147
C13 C 0.6854(3) 1.00549(19) 0.75297(16)
C14 C 0.7033(3) 1.10127(19) 0.74291(16)
C15 C 0.7205(3) 1.1373(2) 0.67406(17)
H14 H 0.7321 1.2024 0.6675
C16 C 0.7208(3) 1.0784(2) 0.61473(17)
H15 H 0.7332 1.1032 0.5674
C17 C 0.7032(3) 0.9840(2) 0.62403(17)
H16 H 0.7040 0.9439 0.5831
C18 C 0.6841(3) 0.9471(2) 0.69318(16)
H17 H 0.6703 0.8821 0.6993
C19 C 0.7915(3) 1.02046(19) 0.87397(15)
C20 C 0.8048(3) 1.11658(19) 0.86384(16)
C21 C 0.9071(3) 1.1671(2) 0.90140(17)
H18 H 0.9144 1.2325 0.8949
C22 C 0.9988(3) 1.1212(2) 0.94853(18)
H19 H 1.0693 1.1552 0.9743
C23 C 0.9875(3) 1.0261(2) 0.95793(17)
H20 H 1.0511 0.9951 0.9899
C24 C 0.8836(3) 0.9753(2) 0.92097(17)
H21 H 0.8762 0.9099 0.9280
O5 O 0.7718(2) 0.82807(13) 0.81643(11)
C25 C 0.7681(3) 0.73307(19) 0.81173(15)
C26 C 0.8860(3) 0.6921(2) 0.77881(18)
H22 H 0.9605 0.7300 0.7602
C27 C 0.8946(3) 0.5962(2) 0.77321(19)
H23 H 0.9753 0.5681 0.7510
C28 C 0.7850(3) 0.54163(19) 0.80008(18)
C29 C 0.6667(3) 0.58214(19) 0.83177(17)
H24 H 0.5916 0.5440 0.8495
C30 C 0.6568(3) 0.67841(19) 0.83783(16)
H25 H 0.5754 0.7064 0.8594
C31 C 0.7933(4) 0.4384(2) 0.7955(2)
F1 F 0.7318(15) 0.4018(9) 0.7397(5)
F2 F 0.7281(13) 0.3976(7) 0.8539(5)
F3 F 0.9240(6) 0.4059(4) 0.8008(8)
F4? F 0.9074(16) 0.4073(7) 0.7566(13)
F5? F 0.6849(16) 0.4024(12) 0.7561(10)
F6? F 0.789(2) 0.3949(9) 0.8545(6)
loop_
_geom_bond_atom_site_label_1
_geom_bond_atom_site_label_2
_geom_bond_site_symmetry_1
_geom_bond_site_symmetry_2
O1 C1 1_555 1_555
O2 C1 1_555 1_555
C1 C2 1_555 1_555
C2 H1 1_555 1_555
C3 C2 1_555 1_555
H2 C3 1_555 1_555
H3 C3 1_555 1_555
C4 O2 1_555 1_555
H4 C4 1_555 1_555
C5 C4 1_555 1_555
H5 C5 1_555 1_555
O3 C5 1_555 1_555
C6 O3 1_555 1_555
H6 C6 1_555 1_555
H7 C6 1_555 1_555
C7 C6 1_555 1_555
H8 C7 1_555 1_555
C8 C7 1_555 1_555
H9 C8 1_555 1_555
C9 C4 1_555 1_555
H10 C9 1_555 1_555
O4 C5 1_555 1_555
C10 C9 1_555 1_555
C11 C8 1_555 1_555
H11 C11 1_555 1_555
C12 C10 1_555 1_555
H12 C12 1_555 1_555
H13 C12 1_555 1_555
C13 C10 1_555 1_555
C14 C11 1_555 1_555
C15 C14 1_555 1_555
H14 C15 1_555 1_555
C16 C15 1_555 1_555
H15 C16 1_555 1_555
C17 C16 1_555 1_555
H16 C17 1_555 1_555
C18 C13 1_555 1_555
H17 C18 1_555 1_555
C19 C10 1_555 1_555
C20 C11 1_555 1_555
C21 C20 1_555 1_555
H18 C21 1_555 1_555
C22 C21 1_555 1_555
H19 C22 1_555 1_555
C23 C22 1_555 1_555
H20 C23 1_555 1_555
C24 C19 1_555 1_555
H21 C24 1_555 1_555
O5 C12 1_555 1_555
C25 O5 1_555 1_555
C26 C25 1_555 1_555
H22 C26 1_555 1_555
C27 C26 1_555 1_555
H23 C27 1_555 1_555
C28 C27 1_555 1_555
C29 C28 1_555 1_555
H24 C29 1_555 1_555
C30 C25 1_555 1_555
H25 C30 1_555 1_555
C31 C28 1_555 1_555
F1 C31 1_555 1_555
F2 C31 1_555 1_555
F3 C31 1_555 1_555
C7 O4 1_555 1_555
C8 C9 1_555 1_555
C13 C14 1_555 1_555
C17 C18 1_555 1_555
C19 C20 1_555 1_555
C23 C24 1_555 1_555
C29 C30 1_555 1_555

#END
