
#######################################################################
#
#                 Cambridge Crystallographic Data Centre
#                                CCDC 
#
#######################################################################
#
# If this CIF has been generated from an entry in the Cambridge 
# Structural Database, then it will include bibliographic, chemical, 
# crystal, experimental, refinement or atomic coordinate data resulting 
# from the CCDC's data processing and validation procedures.
#
#######################################################################

data_QEVJIN
_chemical_formula_moiety         'C14 H11 Br1 F3 N3 O2'
_chemical_name_systematic        
'5-(4-bromophenyl)-7-(trifluoromethyl)-4,5,6,7-tetrahydropyrazolo[1,5-a]pyrimidine-3-carboxylic acid'
_symmetry_cell_setting           orthorhombic
_symmetry_space_group_name_H-M   'P 21 21 21'
_symmetry_Int_Tables_number      19
_space_group_name_Hall           'P 2ac 2ab'
loop_
_symmetry_equiv_pos_site_id
_symmetry_equiv_pos_as_xyz
1 x,y,z
2 1/2-x,-y,1/2+z
3 -x,1/2+y,1/2-z
4 1/2+x,1/2-y,-z
_cell_length_a                   6.1940(10)
_cell_length_b                   12.328(2)
_cell_length_c                   19.107(4)
_cell_angle_alpha                90
_cell_angle_beta                 90
_cell_angle_gamma                90
_cell_volume                     1459
_cell_formula_units_Z            4
loop_
_atom_site_label
_atom_site_type_symbol
_atom_site_fract_x
_atom_site_fract_y
_atom_site_fract_z
N1 N 0.4799(3) 0.4715(2) 0.3477(1)
C1 C 0.3606(4) 0.3971(2) 0.3134(1)
C2 C 0.1792(4) 0.4093(2) 0.2706(1)
C3 C 0.1180(4) 0.3022(2) 0.2530(1)
N2 N 0.2475(3) 0.2293(2) 0.2811(1)
N3 N 0.3970(3) 0.2890(2) 0.3192(1)
C4 C 0.5888(4) 0.2437(2) 0.3523(1)
C5 C 0.6692(4) 0.3259(2) 0.4071(1)
C6 C 0.6868(4) 0.4414(2) 0.3786(1)
C7 C 0.7436(4) 0.5182(2) 0.4379(1)
C8 C 0.5965(4) 0.5395(2) 0.4910(1)
C9 C 0.6526(4) 0.6016(2) 0.5487(1)
C10 C 0.8608(4) 0.6431(2) 0.5518(1)
C11 C 1.0081(4) 0.6265(2) 0.4990(1)
C12 C 0.9493(4) 0.5634(2) 0.4417(1)
Br1 Br 0.9454(1) 0.7236(1) 0.6320(1)
C13 C 0.0903(4) 0.5146(2) 0.2527(1)
O1 O 0.1757(3) 0.5995(1) 0.2715(1)
O2 O -0.0939(3) 0.5112(1) 0.2168(1)
C14 C 0.5378(5) 0.1374(2) 0.3885(1)
F1 F 0.4922(2) 0.0569(1) 0.3444(1)
F2 F 0.3716(3) 0.1459(1) 0.4325(1)
F3 F 0.7096(3) 0.1052(1) 0.4258(1)
H1 H 0.4582 0.5366 0.3347
H2 H -0.0024 0.2848 0.2244
H3 H 0.7033 0.2318 0.3162
H4 H 0.5690 0.3257 0.4474
H5 H 0.8127 0.3026 0.4242
H6 H 0.8019 0.4444 0.3420
H7 H 0.4544 0.5110 0.4877
H8 H 0.5517 0.6153 0.5851
H9 H 1.1481 0.6578 0.5016
H10 H 1.0499 0.5511 0.4050
H11 H -0.1422 0.5744 0.2120
loop_
_geom_bond_atom_site_label_1
_geom_bond_atom_site_label_2
_geom_bond_site_symmetry_1
_geom_bond_site_symmetry_2
N1 C1 1_555 1_555
C1 C2 1_555 1_555
C2 C3 1_555 1_555
C3 N2 1_555 1_555
N2 N3 1_555 1_555
N3 C1 1_555 1_555
C4 N3 1_555 1_555
C5 C4 1_555 1_555
C6 N1 1_555 1_555
C7 C6 1_555 1_555
C8 C7 1_555 1_555
C9 C8 1_555 1_555
C10 C9 1_555 1_555
C11 C10 1_555 1_555
C12 C7 1_555 1_555
Br1 C10 1_555 1_555
C13 C2 1_555 1_555
O1 C13 1_555 1_555
O2 C13 1_555 1_555
C14 C4 1_555 1_555
F1 C14 1_555 1_555
F2 C14 1_555 1_555
F3 C14 1_555 1_555
H1 N1 1_555 1_555
H2 C3 1_555 1_555
H3 C4 1_555 1_555
H4 C5 1_555 1_555
H5 C5 1_555 1_555
H6 C6 1_555 1_555
H7 C8 1_555 1_555
H8 C9 1_555 1_555
H9 C11 1_555 1_555
H10 C12 1_555 1_555
H11 O2 1_555 1_555
C5 C6 1_555 1_555
C11 C12 1_555 1_555

#END
