
#######################################################################
#
#                 Cambridge Crystallographic Data Centre
#                                CCDC 
#
#######################################################################
#
# If this CIF has been generated from an entry in the Cambridge 
# Structural Database, then it will include bibliographic, chemical, 
# crystal, experimental, refinement or atomic coordinate data resulting 
# from the CCDC's data processing and validation procedures.
#
#######################################################################

data_QEVQEQ
_chemical_formula_moiety         'C40 H36 S2'
_chemical_name_systematic        
2,9-di-t-butyl-7,14-diphenyl[1]benzothiopyrano[2,3-b]thioxanthene
_symmetry_cell_setting           monoclinic
_symmetry_space_group_name_H-M   'P 21/c'
_symmetry_Int_Tables_number      14
_space_group_name_Hall           '-P 2ybc'
loop_
_symmetry_equiv_pos_site_id
_symmetry_equiv_pos_as_xyz
1 x,y,z
2 -x,1/2+y,1/2-z
3 -x,-y,-z
4 x,1/2-y,1/2+z
_cell_length_a                   10.9568(4)
_cell_length_b                   9.8587(4)
_cell_length_c                   14.6668(6)
_cell_angle_alpha                90
_cell_angle_beta                 99.323(2)
_cell_angle_gamma                90
_cell_volume                     1563.38
_cell_formula_units_Z            2
loop_
_atom_site_label
_atom_site_type_symbol
_atom_site_fract_x
_atom_site_fract_y
_atom_site_fract_z
S1 S 0.2755(1) 0.0811(1) 0.4904(1)
C1 C -0.0792(4) 0.0793(4) 0.5415(3)
C2 C 0.1222(4) 0.0389(5) 0.4971(3)
C3 C 0.0444(4) 0.1288(5) 0.5430(3)
C4 C 0.0842(4) 0.2489(4) 0.5854(3)
C5 C 0.2087(4) 0.3026(4) 0.5894(3)
C6 C 0.2428(4) 0.4269(4) 0.6329(3)
C7 C 0.3605(5) 0.4846(5) 0.6389(3)
C8 C 0.4466(5) 0.4144(4) 0.5971(3)
C9 C 0.4185(4) 0.2915(5) 0.5537(3)
C10 C 0.3006(4) 0.2361(4) 0.5487(3)
C11 C -0.0034(4) 0.3296(4) 0.6329(3)
C12 C 0.0028(4) 0.3193(5) 0.7277(3)
C13 C -0.0763(5) 0.3947(5) 0.7728(3)
C14 C -0.1623(5) 0.4817(5) 0.7230(4)
C15 C -0.1681(5) 0.4919(5) 0.6290(4)
C16 C -0.0890(4) 0.4164(5) 0.5827(3)
C17 C 0.3877(4) 0.6220(5) 0.6859(3)
C18 C 0.3380(5) 0.6261(6) 0.7779(4)
C19 C 0.3200(5) 0.7331(5) 0.6209(4)
C20 C 0.5256(5) 0.6542(6) 0.7046(4)
H1 H -0.1343 0.1336 0.5696
H2 H 0.1823 0.4746 0.6599
H3 H 0.5267 0.4519 0.5984
H4 H 0.4798 0.2444 0.5272
H5 H 0.0615 0.2602 0.7621
H6 H -0.0717 0.3870 0.8378
H7 H -0.2165 0.5335 0.7536
H8 H -0.2269 0.5511 0.5948
H9 H -0.0937 0.4245 0.5177
H10 H 0.3778 0.5548 0.8188
H11 H 0.2483 0.6112 0.7664
H12 H 0.3560 0.7147 0.8071
H13 H 0.3392 0.8228 0.6483
H14 H 0.2305 0.7177 0.6127
H15 H 0.3478 0.7287 0.5607
H16 H 0.5695 0.5825 0.7430
H17 H 0.5388 0.7413 0.7369
H18 H 0.5572 0.6594 0.6459
S1B S -0.2755(1) -0.0811(1) 0.5096(1)
C1B C 0.0792(4) -0.0793(4) 0.4585(3)
C2B C -0.1222(4) -0.0389(5) 0.5029(3)
C3B C -0.0444(4) -0.1288(5) 0.4570(3)
C4B C -0.0842(4) -0.2489(4) 0.4146(3)
C5B C -0.2087(4) -0.3026(4) 0.4106(3)
C6B C -0.2428(4) -0.4269(4) 0.3671(3)
C7B C -0.3605(5) -0.4846(5) 0.3611(3)
C8B C -0.4466(5) -0.4144(4) 0.4029(3)
C9B C -0.4185(4) -0.2915(5) 0.4463(3)
C10B C -0.3006(4) -0.2361(4) 0.4513(3)
C11B C 0.0034(4) -0.3296(4) 0.3671(3)
C12B C -0.0028(4) -0.3193(5) 0.2723(3)
C13B C 0.0763(5) -0.3947(5) 0.2272(3)
C14B C 0.1623(5) -0.4817(5) 0.2770(4)
C15B C 0.1681(5) -0.4919(5) 0.3710(4)
C16B C 0.0890(4) -0.4164(5) 0.4173(3)
C17B C -0.3877(4) -0.6220(5) 0.3141(3)
C18B C -0.3380(5) -0.6261(6) 0.2221(4)
C19B C -0.3200(5) -0.7331(5) 0.3791(4)
C20B C -0.5256(5) -0.6542(6) 0.2954(4)
H1B H 0.1343 -0.1336 0.4304
H2B H -0.1823 -0.4746 0.3401
H3B H -0.5267 -0.4519 0.4016
H4B H -0.4798 -0.2444 0.4728
H5B H -0.0615 -0.2602 0.2379
H6B H 0.0717 -0.3870 0.1622
H7B H 0.2165 -0.5335 0.2464
H8B H 0.2269 -0.5511 0.4052
H9B H 0.0937 -0.4245 0.4823
H10B H -0.3778 -0.5548 0.1812
H11B H -0.2483 -0.6112 0.2336
H12B H -0.3560 -0.7147 0.1929
H13B H -0.3392 -0.8228 0.3517
H14B H -0.2305 -0.7177 0.3873
H15B H -0.3478 -0.7287 0.4393
H16B H -0.5695 -0.5825 0.2570
H17B H -0.5388 -0.7413 0.2631
H18B H -0.5572 -0.6594 0.3541
loop_
_geom_bond_atom_site_label_1
_geom_bond_atom_site_label_2
_geom_bond_site_symmetry_1
_geom_bond_site_symmetry_2
S1 C2 1_555 1_555
C1 C3 1_555 1_555
C2 C3 1_555 1_555
C3 C4 1_555 1_555
C4 C5 1_555 1_555
C5 C6 1_555 1_555
C6 C7 1_555 1_555
C7 C8 1_555 1_555
C8 C9 1_555 1_555
C9 C10 1_555 1_555
C10 S1 1_555 1_555
C11 C4 1_555 1_555
C12 C11 1_555 1_555
C13 C12 1_555 1_555
C14 C13 1_555 1_555
C15 C14 1_555 1_555
C16 C11 1_555 1_555
C17 C7 1_555 1_555
C18 C17 1_555 1_555
C19 C17 1_555 1_555
C20 C17 1_555 1_555
H1 C1 1_555 1_555
H2 C6 1_555 1_555
H3 C8 1_555 1_555
H4 C9 1_555 1_555
H5 C12 1_555 1_555
H6 C13 1_555 1_555
H7 C14 1_555 1_555
H8 C15 1_555 1_555
H9 C16 1_555 1_555
H10 C18 1_555 1_555
H11 C18 1_555 1_555
H12 C18 1_555 1_555
H13 C19 1_555 1_555
H14 C19 1_555 1_555
H15 C19 1_555 1_555
H16 C20 1_555 1_555
H17 C20 1_555 1_555
H18 C20 1_555 1_555
S1B C2B 1_555 1_555
C1B C2 1_555 1_555
C2B C1 1_555 1_555
C3B C1B 1_555 1_555
C4B C3B 1_555 1_555
C5B C4B 1_555 1_555
C6B C5B 1_555 1_555
C7B C6B 1_555 1_555
C8B C7B 1_555 1_555
C9B C8B 1_555 1_555
C10B S1B 1_555 1_555
C11B C4B 1_555 1_555
C12B C11B 1_555 1_555
C13B C12B 1_555 1_555
C14B C13B 1_555 1_555
C15B C14B 1_555 1_555
C16B C11B 1_555 1_555
C17B C7B 1_555 1_555
C18B C17B 1_555 1_555
C19B C17B 1_555 1_555
C20B C17B 1_555 1_555
H1B C1B 1_555 1_555
H2B C6B 1_555 1_555
H3B C8B 1_555 1_555
H4B C9B 1_555 1_555
H5B C12B 1_555 1_555
H6B C13B 1_555 1_555
H7B C14B 1_555 1_555
H8B C15B 1_555 1_555
H9B C16B 1_555 1_555
H10B C18B 1_555 1_555
H11B C18B 1_555 1_555
H12B C18B 1_555 1_555
H13B C19B 1_555 1_555
H14B C19B 1_555 1_555
H15B C19B 1_555 1_555
H16B C20B 1_555 1_555
H17B C20B 1_555 1_555
H18B C20B 1_555 1_555
C5 C10 1_555 1_555
C15 C16 1_555 1_555
C2B C3B 1_555 1_555
C5B C10B 1_555 1_555
C9B C10B 1_555 1_555
C15B C16B 1_555 1_555

#END
