
#######################################################################
#
#                 Cambridge Crystallographic Data Centre
#                                CCDC 
#
#######################################################################
#
# If this CIF has been generated from an entry in the Cambridge 
# Structural Database, then it will include bibliographic, chemical, 
# crystal, experimental, refinement or atomic coordinate data resulting 
# from the CCDC's data processing and validation procedures.
#
#######################################################################

data_QEVRER
_chemical_formula_moiety         'C14 H7 Br1 O5,C2 H6 O1 S1'
_chemical_name_systematic        
'2-bromo-7-hydroxy-6-oxo-6H-benzo[c]chromene-8-carboxylic acid dimethyl sulfoxide solvate'
_symmetry_cell_setting           monoclinic
_symmetry_space_group_name_H-M   'P 21'
_symmetry_Int_Tables_number      4
_space_group_name_Hall           'P 2yb'
loop_
_symmetry_equiv_pos_site_id
_symmetry_equiv_pos_as_xyz
1 x,y,z
2 -x,1/2+y,-z
_cell_length_a                   5.4567(15)
_cell_length_b                   12.696(4)
_cell_length_c                   11.708(3)
_cell_angle_alpha                90
_cell_angle_beta                 90.296(4)
_cell_angle_gamma                90
_cell_volume                     811.099
_exptl_crystal_colour            white
_exptl_crystal_description       needle
_cell_formula_units_Z            2
loop_
_atom_site_label
_atom_site_type_symbol
_atom_site_fract_x
_atom_site_fract_y
_atom_site_fract_z
Br1 Br -0.48610(15) 1.20350(7) 0.85557(7)
O1 O 0.8428(10) 0.7126(6) 0.8997(4)
H1 H 0.890(13) 0.658(3) 0.930(6)
O2 O 0.9474(11) 0.6959(6) 0.7157(5)
O3 O 0.7176(12) 0.8056(6) 0.5652(5)
H2 H 0.8164 0.8511 0.5468
O4 O 0.4594(13) 0.9238(6) 0.4257(5)
O5 O 0.1544(10) 1.0221(5) 0.4949(4)
C1 C 0.8060(14) 0.7372(6) 0.7985(7)
C2 C 0.6229(13) 0.8155(6) 0.7668(6)
C3 C 0.4866(17) 0.8557(8) 0.8483(7)
H3 H 0.5148 0.8347 0.9233
C4 C 0.3119(18) 0.9245(6) 0.8275(7)
H4 H 0.2213 0.9515 0.8878
C5 C 0.2598(13) 0.9578(6) 0.7153(6)
C6 C 0.0614(14) 1.0323(6) 0.6872(6)
C7 C -0.1155(15) 1.0765(6) 0.7816(8)
H5 H -0.1001 1.0561 0.8576
C8 C -0.2910(15) 1.1455(6) 0.7479(7)
C9 C -0.333(2) 1.1730(6) 0.6334(8)
H6 H -0.4626 1.2166 0.6128
C10 C -0.1530(18) 1.1275(7) 0.5411(7)
H7 H -0.1651 1.1466 0.4646
C11 C 0.0162(14) 1.0611(6) 0.5777(7)
C12 C 0.3328(17) 0.9500(7) 0.5126(6)
C13 C 0.3818(14) 0.9176(6) 0.6311(6)
C14 C 0.5706(16) 0.8434(6) 0.6569(7)
S1 S 1.1877(4) 0.45471(18) 0.88232(18)
O6 O 1.0103(10) 0.5282(5) 0.9431(5)
C15 C 1.445(2) 0.5390(11) 0.8151(11)
H8 H 1.3729 0.5955 0.7720
H9 H 1.5415 0.4958 0.7654
H10 H 1.5469 0.5674 0.8744
C16 C 1.054(2) 0.4187(10) 0.7473(10)
H11 H 0.8902 0.3934 0.7590
H12 H 1.1505 0.3642 0.7127
H13 H 1.0497 0.4791 0.6981
loop_
_geom_bond_atom_site_label_1
_geom_bond_atom_site_label_2
_geom_bond_site_symmetry_1
_geom_bond_site_symmetry_2
Br1 C8 1_555 1_555
O1 H1 1_555 1_555
O2 C1 1_555 1_555
O3 H2 1_555 1_555
O4 C12 1_555 1_555
O5 C11 1_555 1_555
C1 O1 1_555 1_555
C2 C1 1_555 1_555
C3 C2 1_555 1_555
H3 C3 1_555 1_555
C4 C3 1_555 1_555
H4 C4 1_555 1_555
C5 C4 1_555 1_555
C6 C5 1_555 1_555
C7 C6 1_555 1_555
H5 C7 1_555 1_555
C8 C7 1_555 1_555
C9 C8 1_555 1_555
H6 C9 1_555 1_555
C10 C9 1_555 1_555
H7 C10 1_555 1_555
C11 C6 1_555 1_555
C12 O5 1_555 1_555
C13 C5 1_555 1_555
C14 O3 1_555 1_555
S1 O6 1_555 1_555
C15 S1 1_555 1_555
H8 C15 1_555 1_555
H9 C15 1_555 1_555
H10 C15 1_555 1_555
C16 S1 1_555 1_555
H11 C16 1_555 1_555
H12 C16 1_555 1_555
H13 C16 1_555 1_555
C2 C14 1_555 1_555
C10 C11 1_555 1_555
C12 C13 1_555 1_555
C13 C14 1_555 1_555

#END
