
#######################################################################
#
#                 Cambridge Crystallographic Data Centre
#                                CCDC 
#
#######################################################################
#
# If this CIF has been generated from an entry in the Cambridge 
# Structural Database, then it will include bibliographic, chemical, 
# crystal, experimental, refinement or atomic coordinate data resulting 
# from the CCDC's data processing and validation procedures.
#
#######################################################################

data_QEVRAN
_chemical_formula_moiety         'C14 H8 O6,C2 H6 O1 S1'
_chemical_name_systematic        
'1,7-dihydroxy-6-oxo-6H-benzo[c]chromene-8-carboxylic acid dimethyl sulfoxide solvate'
_symmetry_cell_setting           monoclinic
_symmetry_space_group_name_H-M   'P 21/c'
_symmetry_Int_Tables_number      14
_space_group_name_Hall           '-P 2ybc'
loop_
_symmetry_equiv_pos_site_id
_symmetry_equiv_pos_as_xyz
1 x,y,z
2 -x,1/2+y,1/2-z
3 -x,-y,-z
4 x,1/2-y,1/2+z
_cell_length_a                   11.9224(17)
_cell_length_b                   5.9968(8)
_cell_length_c                   21.810(3)
_cell_angle_alpha                90
_cell_angle_beta                 101.907(2)
_cell_angle_gamma                90
_cell_volume                     1525.78
_exptl_crystal_colour            white
_exptl_crystal_description       needle
_cell_formula_units_Z            4
loop_
_atom_site_label
_atom_site_type_symbol
_atom_site_fract_x
_atom_site_fract_y
_atom_site_fract_z
O1 O 0.20219(15) 1.2992(3) 0.74036(8)
H1 H 0.1960 1.3927 0.7124
O2 O 0.49915(14) 1.0156(3) 0.90574(8)
O3 O 0.48687(15) 0.7260(3) 0.96447(8)
O4 O 0.30103(15) 0.4905(3) 0.95074(8)
H2 H 0.3651 0.5333 0.9680
O5 O -0.01372(18) 0.3662(3) 0.84064(8)
H3 H -0.0506 0.2618 0.8506
O6 O 0.07639(18) 0.3389(4) 0.93951(9)
C1 C 0.3087(2) 1.3110(4) 0.77709(11)
C2 C 0.3823(2) 1.4793(4) 0.76806(11)
H4 H 0.3583 1.5853 0.7370
C3 C 0.4913(3) 1.4920(5) 0.80472(13)
H5 H 0.5399 1.6071 0.7983
C4 C 0.5288(2) 1.3361(4) 0.85062(13)
H6 H 0.6022 1.3433 0.8753
C5 C 0.4539(2) 1.1683(4) 0.85886(11)
C6 C 0.3427(2) 1.1471(4) 0.82417(11)
C7 C 0.2718(2) 0.9623(4) 0.83848(10)
C8 C 0.1608(2) 0.9191(4) 0.80622(12)
H7 H 0.1275 1.0106 0.7730
C9 C 0.0998(2) 0.7436(4) 0.82268(12)
H8 H 0.0259 0.7192 0.7998
C10 C 0.1431(2) 0.5998(4) 0.87214(11)
C11 C 0.2559(2) 0.6337(4) 0.90479(10)
C12 C 0.3201(2) 0.8156(4) 0.88825(10)
C13 C 0.4371(2) 0.8452(4) 0.92209(11)
C14 C 0.0686(2) 0.4214(4) 0.88861(12)
S1 S -0.12660(6) -0.07330(11) 0.92447(3)
O7 O -0.15825(15) 0.0590(3) 0.86337(7)
C15 C -0.2261(3) -0.2974(5) 0.91507(13)
H9 H -0.2076 -0.4023 0.8854
H10 H -0.3021 -0.2408 0.9000
H11 H -0.2223 -0.3700 0.9547
C16 C -0.1821(3) 0.0848(5) 0.97966(12)
H12 H -0.2619 0.1141 0.9637
H13 H -0.1413 0.2234 0.9872
H14 H -0.1732 0.0030 1.0182
loop_
_geom_bond_atom_site_label_1
_geom_bond_atom_site_label_2
_geom_bond_site_symmetry_1
_geom_bond_site_symmetry_2
O1 H1 1_555 1_555
O2 C5 1_555 1_555
O3 C13 1_555 1_555
O4 H2 1_555 1_555
O5 H3 1_555 1_555
O6 C14 1_555 1_555
C1 O1 1_555 1_555
C2 C1 1_555 1_555
H4 C2 1_555 1_555
C3 C2 1_555 1_555
H5 C3 1_555 1_555
C4 C3 1_555 1_555
H6 C4 1_555 1_555
C5 C4 1_555 1_555
C6 C1 1_555 1_555
C7 C6 1_555 1_555
C8 C7 1_555 1_555
H7 C8 1_555 1_555
C9 C8 1_555 1_555
H8 C9 1_555 1_555
C10 C9 1_555 1_555
C11 O4 1_555 1_555
C12 C7 1_555 1_555
C13 O2 1_555 1_555
C14 O5 1_555 1_555
S1 O7 1_555 1_555
C15 S1 1_555 1_555
H9 C15 1_555 1_555
H10 C15 1_555 1_555
H11 C15 1_555 1_555
C16 S1 1_555 1_555
H12 C16 1_555 1_555
H13 C16 1_555 1_555
H14 C16 1_555 1_555
C5 C6 1_555 1_555
C10 C11 1_555 1_555
C10 C14 1_555 1_555
C11 C12 1_555 1_555
C12 C13 1_555 1_555

#END
