
#######################################################################
#
#                 Cambridge Crystallographic Data Centre
#                                CCDC 
#
#######################################################################
#
# If this CIF has been generated from an entry in the Cambridge 
# Structural Database, then it will include bibliographic, chemical, 
# crystal, experimental, refinement or atomic coordinate data resulting 
# from the CCDC's data processing and validation procedures.
#
#######################################################################

data_QEVSAO
_chemical_formula_moiety         'C12 H15 O1 P1'
_chemical_name_systematic        
'2-phenyl-2-phosphabicyclo[2.2.1]heptane 2-oxide'
_symmetry_cell_setting           orthorhombic
_symmetry_space_group_name_H-M   'P 21 21 21'
_symmetry_Int_Tables_number      19
_space_group_name_Hall           'P 2ac 2ab'
loop_
_symmetry_equiv_pos_site_id
_symmetry_equiv_pos_as_xyz
1 x,y,z
2 1/2-x,-y,1/2+z
3 -x,1/2+y,1/2-z
4 1/2+x,1/2-y,-z
_cell_length_a                   8.6681(6)
_cell_length_b                   10.3977(7)
_cell_length_c                   11.4123(8)
_cell_angle_alpha                90
_cell_angle_beta                 90
_cell_angle_gamma                90
_cell_volume                     1028.57
_exptl_crystal_colour            colorless
_exptl_crystal_description       rod
_cell_formula_units_Z            4
loop_
_atom_site_label
_atom_site_type_symbol
_atom_site_fract_x
_atom_site_fract_y
_atom_site_fract_z
P1 P 0.19864(5) 0.73343(4) 0.63559(3)
O1 O 0.03490(14) 0.74523(13) 0.67535(11)
C1 C 0.3460(2) 0.77732(18) 0.74278(16)
H1 H 0.3742 0.7082 0.7999
C2 C 0.2932(2) 0.90554(18) 0.79784(16)
H2 H 0.3572 0.9275 0.8668
H3 H 0.1837 0.9009 0.8222
C3 C 0.3154(3) 1.00591(17) 0.69813(18)
H4 H 0.2152 1.0432 0.6741
H5 H 0.3847 1.0763 0.7236
C4 C 0.3887(2) 0.92819(18) 0.59659(18)
H6 H 0.4557 0.9818 0.5446
C5 C 0.2639(2) 0.85308(18) 0.52859(17)
H7 H 0.3079 0.8112 0.4582
H8 H 0.1783 0.9103 0.5045
C6 C 0.4785(2) 0.82323(19) 0.66221(17)
H9 H 0.5664 0.8587 0.7072
H10 H 0.5151 0.7544 0.6092
C7 C 0.2404(2) 0.57121(17) 0.58684(16)
C8 C 0.3391(2) 0.54053(19) 0.49456(16)
H11 H 0.3864 0.6070 0.4502
C9 C 0.3682(2) 0.41193(19) 0.46759(17)
H12 H 0.4359 0.3909 0.4050
C10 C 0.2985(3) 0.31436(18) 0.53210(16)
H13 H 0.3201 0.2270 0.5142
C11 C 0.1976(2) 0.34431(17) 0.62252(15)
H14 H 0.1488 0.2776 0.6657
C12 C 0.1683(2) 0.47249(18) 0.64958(16)
H15 H 0.0989 0.4931 0.7111
loop_
_geom_bond_atom_site_label_1
_geom_bond_atom_site_label_2
_geom_bond_site_symmetry_1
_geom_bond_site_symmetry_2
P1 O1 1_555 1_555
C1 P1 1_555 1_555
H1 C1 1_555 1_555
C2 C1 1_555 1_555
H2 C2 1_555 1_555
H3 C2 1_555 1_555
C3 C2 1_555 1_555
H4 C3 1_555 1_555
H5 C3 1_555 1_555
C4 C3 1_555 1_555
H6 C4 1_555 1_555
C5 P1 1_555 1_555
H7 C5 1_555 1_555
H8 C5 1_555 1_555
C6 C1 1_555 1_555
H9 C6 1_555 1_555
H10 C6 1_555 1_555
C7 P1 1_555 1_555
C8 C7 1_555 1_555
H11 C8 1_555 1_555
C9 C8 1_555 1_555
H12 C9 1_555 1_555
C10 C9 1_555 1_555
H13 C10 1_555 1_555
C11 C10 1_555 1_555
H14 C11 1_555 1_555
C12 C7 1_555 1_555
H15 C12 1_555 1_555
C4 C5 1_555 1_555
C4 C6 1_555 1_555
C11 C12 1_555 1_555

#END
