
#######################################################################
#
#                 Cambridge Crystallographic Data Centre
#                                CCDC 
#
#######################################################################
#
# If this CIF has been generated from an entry in the Cambridge 
# Structural Database, then it will include bibliographic, chemical, 
# crystal, experimental, refinement or atomic coordinate data resulting 
# from the CCDC's data processing and validation procedures.
#
#######################################################################

data_QEVXOF
_chemical_formula_moiety         'C26 H30 B10 O1 P2'
_chemical_name_systematic        
1-diphenylphosphanyl-2-diphenylphosphoryl-1,2-dicarba-closo-dodecaborate
_symmetry_cell_setting           monoclinic
_symmetry_space_group_name_H-M   'P 21/n'
_symmetry_Int_Tables_number      14
_space_group_name_Hall           '-P 2yn'
loop_
_symmetry_equiv_pos_site_id
_symmetry_equiv_pos_as_xyz
1 x,y,z
2 1/2-x,1/2+y,1/2-z
3 -x,-y,-z
4 1/2+x,1/2-y,1/2+z
_cell_length_a                   16.438(4)
_cell_length_b                   10.423(2)
_cell_length_c                   17.739(4)
_cell_angle_alpha                90
_cell_angle_beta                 111.868(3)
_cell_angle_gamma                90
_cell_volume                     2820.59
_exptl_crystal_colour            white
_exptl_crystal_description       block
_chemical_melting_point          '232-233 deg.C'
_cell_formula_units_Z            4
_exptl_crystal_recrystallization_method dichloromethane/n-hexane
loop_
_atom_site_label
_atom_site_type_symbol
_atom_site_fract_x
_atom_site_fract_y
_atom_site_fract_z
P1 P -0.03600(7) 0.66214(11) 0.23573(7)
P2 P 0.03452(7) 0.41304(10) 0.35773(6)
O1 O -0.1177(4) 0.5927(6) 0.2278(4)
B1 B -0.0005(3) 0.4073(4) 0.1756(3)
H1 H -0.0697 0.3828 0.1618
B2 B 0.0322(3) 0.5227(5) 0.1175(3)
H2 H -0.0157 0.5720 0.0648
B3 B 0.1270(3) 0.6024(5) 0.1848(3)
H3 H 0.1407 0.7034 0.1759
B4 B 0.1520(3) 0.5352(5) 0.2842(3)
H4 H 0.1806 0.5923 0.3400
B5 B 0.1795(3) 0.3712(5) 0.2808(3)
H5 H 0.2272 0.3225 0.3339
B6 B 0.0851(3) 0.2919(5) 0.2131(3)
H6 H 0.0716 0.1910 0.2225
B7 B 0.0582(4) 0.3571(5) 0.1146(3)
H7 H 0.0270 0.2987 0.0597
B8 B 0.1373(4) 0.4769(5) 0.1206(3)
H8 H 0.1580 0.4959 0.0694
B9 B 0.2120(3) 0.4876(5) 0.2237(3)
H9 H 0.2811 0.5145 0.2398
B10 B 0.1695(4) 0.3357(5) 0.1795(3)
H10 H 0.2113 0.2634 0.1665
C1 C 0.0458(2) 0.5534(4) 0.2162(2)
C2 C 0.0761(3) 0.4162(4) 0.2725(2)
C3 C 0.0227(3) 0.7537(4) 0.3266(3)
C4 C -0.0161(4) 0.7582(5) 0.3840(3)
H11 H -0.0681 0.7140 0.3748
C5 C 0.0222(5) 0.8283(6) 0.4550(3)
H12 H -0.0048 0.8320 0.4927
C6 C 0.0995(5) 0.8920(5) 0.4698(3)
H13 H 0.1253 0.9376 0.5178
C7 C 0.1386(4) 0.8886(5) 0.4144(3)
H14 H 0.1906 0.9333 0.4244
C8 C 0.1014(3) 0.8191(4) 0.3433(3)
H15 H 0.1292 0.8160 0.3062
C9 C -0.0635(3) 0.7765(4) 0.1517(3)
C10 C -0.0188(4) 0.8877(5) 0.1498(3)
H16 H 0.0317 0.9087 0.1940
C11 C -0.0480(5) 0.9682(6) 0.0834(4)
H17 H -0.0173 1.0429 0.0828
C12 C -0.1229(5) 0.9375(6) 0.0179(4)
H18 H -0.1426 0.9915 -0.0270
C13 C -0.1674(4) 0.8299(6) 0.0188(3)
H19 H -0.2177 0.8101 -0.0257
C14 C -0.1396(3) 0.7480(5) 0.0850(3)
H20 H -0.1715 0.6743 0.0850
C15 C 0.1269(3) 0.3523(4) 0.4439(2)
C16 C 0.1691(4) 0.2352(5) 0.4514(3)
H21 H 0.1509 0.1779 0.4081
C17 C 0.2377(4) 0.2020(5) 0.5218(3)
H22 H 0.2653 0.1230 0.5257
C18 C 0.2652(4) 0.2873(6) 0.5868(3)
H23 H 0.3107 0.2650 0.6349
C19 C 0.2255(4) 0.4026(6) 0.5798(3)
H24 H 0.2449 0.4604 0.6227
C20 C 0.1560(3) 0.4360(5) 0.5091(3)
H25 H 0.1288 0.5152 0.5056
C21 C -0.0497(3) 0.2889(4) 0.3306(2)
C22 C -0.1314(3) 0.3348(5) 0.3226(3)
H26 H -0.1393 0.4222 0.3281
C23 C -0.2017(4) 0.2516(6) 0.3062(3)
H27 H -0.2565 0.2839 0.3001
C24 C -0.1914(4) 0.1231(6) 0.2991(3)
H28 H -0.2384 0.0675 0.2896
C25 C -0.1114(4) 0.0769(5) 0.3059(3)
H29 H -0.1045 -0.0108 0.3005
C26 C -0.0401(3) 0.1577(4) 0.3208(3)
H30 H 0.0137 0.1247 0.3241
loop_
_geom_bond_atom_site_label_1
_geom_bond_atom_site_label_2
_geom_bond_site_symmetry_1
_geom_bond_site_symmetry_2
P1 O1 1_555 1_555
P2 C2 1_555 1_555
B1 H1 1_555 1_555
B2 B1 1_555 1_555
H2 B2 1_555 1_555
B3 B2 1_555 1_555
H3 B3 1_555 1_555
B4 B3 1_555 1_555
H4 B4 1_555 1_555
B5 B4 1_555 1_555
H5 B5 1_555 1_555
B6 B1 1_555 1_555
H6 B6 1_555 1_555
B7 B1 1_555 1_555
H7 B7 1_555 1_555
B8 B2 1_555 1_555
H8 B8 1_555 1_555
B9 B3 1_555 1_555
H9 B9 1_555 1_555
B10 B5 1_555 1_555
H10 B10 1_555 1_555
C1 P1 1_555 1_555
C2 B1 1_555 1_555
C3 P1 1_555 1_555
C4 C3 1_555 1_555
H11 C4 1_555 1_555
C5 C4 1_555 1_555
H12 C5 1_555 1_555
C6 C5 1_555 1_555
H13 C6 1_555 1_555
C7 C6 1_555 1_555
H14 C7 1_555 1_555
C8 C3 1_555 1_555
H15 C8 1_555 1_555
C9 P1 1_555 1_555
C10 C9 1_555 1_555
H16 C10 1_555 1_555
C11 C10 1_555 1_555
H17 C11 1_555 1_555
C12 C11 1_555 1_555
H18 C12 1_555 1_555
C13 C12 1_555 1_555
H19 C13 1_555 1_555
C14 C9 1_555 1_555
H20 C14 1_555 1_555
C15 P2 1_555 1_555
C16 C15 1_555 1_555
H21 C16 1_555 1_555
C17 C16 1_555 1_555
H22 C17 1_555 1_555
C18 C17 1_555 1_555
H23 C18 1_555 1_555
C19 C18 1_555 1_555
H24 C19 1_555 1_555
C20 C15 1_555 1_555
H25 C20 1_555 1_555
C21 P2 1_555 1_555
C22 C21 1_555 1_555
H26 C22 1_555 1_555
C23 C22 1_555 1_555
H27 C23 1_555 1_555
C24 C23 1_555 1_555
H28 C24 1_555 1_555
C25 C24 1_555 1_555
H29 C25 1_555 1_555
C26 C21 1_555 1_555
H30 C26 1_555 1_555
B1 C1 1_555 1_555
B2 B7 1_555 1_555
B2 C1 1_555 1_555
B3 B8 1_555 1_555
B3 C1 1_555 1_555
B4 B9 1_555 1_555
B4 C1 1_555 1_555
B4 C2 1_555 1_555
B5 B6 1_555 1_555
B5 B9 1_555 1_555
B5 C2 1_555 1_555
B6 B7 1_555 1_555
B6 B10 1_555 1_555
B6 C2 1_555 1_555
B7 B8 1_555 1_555
B7 B10 1_555 1_555
B8 B9 1_555 1_555
B8 B10 1_555 1_555
B9 B10 1_555 1_555
C1 C2 1_555 1_555
C7 C8 1_555 1_555
C13 C14 1_555 1_555
C19 C20 1_555 1_555
C25 C26 1_555 1_555

#END
