
#######################################################################
#
#                 Cambridge Crystallographic Data Centre
#                                CCDC 
#
#######################################################################
#
# If this CIF has been generated from an entry in the Cambridge 
# Structural Database, then it will include bibliographic, chemical, 
# crystal, experimental, refinement or atomic coordinate data resulting 
# from the CCDC's data processing and validation procedures.
#
#######################################################################

data_QEWHIL
_chemical_formula_moiety         '2(C7 H6 O3),C8 H6 N2'
_chemical_name_systematic        'bis(4-Hydroxybenzoic acid) quinoxaline'
_symmetry_cell_setting           triclinic
_symmetry_space_group_name_H-M   'P -1'
_symmetry_Int_Tables_number      2
_space_group_name_Hall           '-P 1'
loop_
_symmetry_equiv_pos_site_id
_symmetry_equiv_pos_as_xyz
1 x,y,z
2 -x,-y,-z
_cell_length_a                   6.9109(14)
_cell_length_b                   12.289(3)
_cell_length_c                   12.647(3)
_cell_angle_alpha                112.713(8)
_cell_angle_beta                 93.424(7)
_cell_angle_gamma                103.103(7)
_cell_volume                     951.944
_exptl_crystal_colour            red
_exptl_crystal_description       needle
_cell_formula_units_Z            2
loop_
_atom_site_label
_atom_site_type_symbol
_atom_site_fract_x
_atom_site_fract_y
_atom_site_fract_z
O1 O 0.2649(3) 0.56246(19) 0.02302(17)
H1 H 0.2599 0.5001 -0.0419
O2 O 0.2559(3) 0.42889(18) 0.10276(17)
O3 O 0.2657(4) 0.90946(19) 0.54516(18)
H2 H 0.2540 0.9790 0.5430
C1 C 0.2576(4) 0.5324(3) 0.1124(2)
C2 C 0.2542(4) 0.6336(3) 0.2241(2)
C3 C 0.2627(4) 0.7512(3) 0.2325(2)
H3 H 0.2665 0.7668 0.1661
C4 C 0.2654(4) 0.8454(3) 0.3386(3)
H4 H 0.2711 0.9235 0.3432
C5 C 0.2595(4) 0.8226(3) 0.4377(2)
C6 C 0.2491(4) 0.7052(3) 0.4302(3)
H5 H 0.2442 0.6896 0.4965
C7 C 0.2462(4) 0.6119(3) 0.3242(2)
H6 H 0.2388 0.5337 0.3196
O4 O 0.8177(3) 0.97625(19) 0.87382(19)
H7 H 0.9439 1.0129 0.9140
O5 O 0.8063(3) 0.91203(19) 1.01726(18)
O6 O -0.1124(3) 0.70725(18) 0.77990(17)
H8 H -0.1580 0.6720 0.8250
C8 C 0.7215(5) 0.9169(3) 0.9314(3)
C9 C 0.5038(4) 0.8598(3) 0.8870(2)
C10 C 0.4048(5) 0.8656(3) 0.7910(3)
H9 H 0.4780 0.9045 0.7500
C11 C 0.1996(5) 0.8147(3) 0.7558(3)
H10 H 0.1352 0.8194 0.6916
C12 C 0.0893(4) 0.7560(3) 0.8172(2)
C13 C 0.1874(5) 0.7494(3) 0.9129(3)
H11 H 0.1146 0.7105 0.9539
C14 C 0.3924(5) 0.8004(3) 0.9470(3)
H12 H 0.4570 0.7952 1.0108
N1 N 0.2565(3) 0.3632(2) -0.1736(2)
N2 N 0.2222(4) 0.1413(2) -0.3672(2)
C15 C 0.2360(4) 0.2586(3) -0.1639(3)
H13 H 0.2313 0.2573 -0.0911
C16 C 0.2207(4) 0.1482(3) -0.2611(3)
H14 H 0.2091 0.0770 -0.2493
C17 C 0.2408(4) 0.2483(3) -0.3806(2)
C18 C 0.2609(4) 0.3602(3) -0.2825(2)
C19 C 0.2871(5) 0.4702(3) -0.2984(3)
H15 H 0.3029 0.5443 -0.2349
C20 C 0.2888(5) 0.4668(3) -0.4070(3)
H16 H 0.3061 0.5392 -0.4172
C21 C 0.2648(5) 0.3553(3) -0.5049(3)
H17 H 0.2649 0.3549 -0.5786
C22 C 0.2416(5) 0.2484(3) -0.4918(3)
H18 H 0.2262 0.1753 -0.5564
loop_
_geom_bond_atom_site_label_1
_geom_bond_atom_site_label_2
_geom_bond_site_symmetry_1
_geom_bond_site_symmetry_2
O1 H1 1_555 1_555
O2 C1 1_555 1_555
O3 H2 1_555 1_555
C1 O1 1_555 1_555
C2 C1 1_555 1_555
C3 C2 1_555 1_555
H3 C3 1_555 1_555
C4 C3 1_555 1_555
H4 C4 1_555 1_555
C5 O3 1_555 1_555
C6 C5 1_555 1_555
H5 C6 1_555 1_555
C7 C2 1_555 1_555
H6 C7 1_555 1_555
O4 H7 1_555 1_555
O5 C8 1_555 1_555
O6 H8 1_555 1_555
C8 O4 1_555 1_555
C9 C8 1_555 1_555
C10 C9 1_555 1_555
H9 C10 1_555 1_555
C11 C10 1_555 1_555
H10 C11 1_555 1_555
C12 O6 1_555 1_555
C13 C12 1_555 1_555
H11 C13 1_555 1_555
C14 C9 1_555 1_555
H12 C14 1_555 1_555
N1 C15 1_555 1_555
N2 C16 1_555 1_555
C15 H13 1_555 1_555
C16 C15 1_555 1_555
H14 C16 1_555 1_555
C17 N2 1_555 1_555
C18 N1 1_555 1_555
C19 C18 1_555 1_555
H15 C19 1_555 1_555
C20 C19 1_555 1_555
H16 C20 1_555 1_555
C21 C20 1_555 1_555
H17 C21 1_555 1_555
C22 C17 1_555 1_555
H18 C22 1_555 1_555
C4 C5 1_555 1_555
C6 C7 1_555 1_555
C11 C12 1_555 1_555
C13 C14 1_555 1_555
C17 C18 1_555 1_555
C21 C22 1_555 1_555

#END
