
#######################################################################
#
#                 Cambridge Crystallographic Data Centre
#                                CCDC 
#
#######################################################################
#
# If this CIF has been generated from an entry in the Cambridge 
# Structural Database, then it will include bibliographic, chemical, 
# crystal, experimental, refinement or atomic coordinate data resulting 
# from the CCDC's data processing and validation procedures.
#
#######################################################################

data_QEWJUZ
_chemical_formula_moiety         'C28 H22 O2'
_chemical_name_systematic        9-(bis(4-Methoxyphenyl)methylene)-9H-fluorene
_symmetry_cell_setting           orthorhombic
_symmetry_space_group_name_H-M   'P b a 2'
_symmetry_Int_Tables_number      32
_space_group_name_Hall           'P 2 -2ab'
loop_
_symmetry_equiv_pos_site_id
_symmetry_equiv_pos_as_xyz
1 x,y,z
2 -x,-y,z
3 1/2+x,1/2-y,z
4 1/2-x,1/2+y,z
_cell_length_a                   20.290(4)
_cell_length_b                   20.572(4)
_cell_length_c                   9.773(2)
_cell_angle_alpha                90
_cell_angle_beta                 90
_cell_angle_gamma                90
_cell_volume                     4079.31
_exptl_crystal_colour            yellow
_exptl_crystal_description       block
_cell_formula_units_Z            8
loop_
_atom_site_label
_atom_site_type_symbol
_atom_site_fract_x
_atom_site_fract_y
_atom_site_fract_z
O1 O 0.02650(14) 0.85182(14) -0.0797(3)
O2 O 0.48779(14) 0.82971(14) 0.0279(3)
C1 C 0.19281(18) 0.5841(2) -0.1154(4)
C2 C 0.12755(19) 0.5953(2) -0.0787(5)
H1 H 0.1123 0.6384 -0.0637
C3 C 0.0849(2) 0.5429(2) -0.0642(5)
H2 H 0.0402 0.5505 -0.0400
C4 C 0.1064(2) 0.4799(2) -0.0845(5)
H3 H 0.0764 0.4448 -0.0746
C5 C 0.1711(2) 0.4677(2) -0.1190(5)
H4 H 0.1861 0.4243 -0.1314
C6 C 0.21397(19) 0.5195(2) -0.1352(4)
C7 C 0.2845(2) 0.5203(2) -0.1671(4)
C8 C 0.3265(2) 0.4693(2) -0.2026(4)
H5 H 0.3110 0.4257 -0.2036
C9 C 0.3910(2) 0.4832(2) -0.2363(5)
H6 H 0.4201 0.4489 -0.2605
C10 C 0.4140(2) 0.5470(2) -0.2352(5)
H7 H 0.4582 0.5559 -0.2612
C11 C 0.37278(19) 0.5975(2) -0.1965(5)
H8 H 0.3891 0.6408 -0.1940
C12 C 0.30780(19) 0.58499(19) -0.1615(4)
C13 C 0.25106(19) 0.6284(2) -0.1267(4)
C14 C 0.2541(2) 0.6931(2) -0.1012(4)
C15 C 0.19484(19) 0.73616(19) -0.0956(4)
C16 C 0.1471(2) 0.7353(2) -0.1970(4)
H9 H 0.1524 0.7071 -0.2732
C17 C 0.0920(2) 0.7746(2) -0.1895(4)
H10 H 0.0600 0.7734 -0.2603
C18 C 0.08331(19) 0.81602(19) -0.0787(5)
C19 C 0.0148(2) 0.8934(2) 0.0363(5)
H11 H -0.0272 0.9163 0.0241
H12 H 0.0506 0.9252 0.0439
H13 H 0.0129 0.8671 0.1198
C20 C 0.1304(2) 0.8178(2) 0.0240(5)
H14 H 0.1246 0.8451 0.1015
C21 C 0.1867(2) 0.7788(2) 0.0120(5)
H15 H 0.2202 0.7818 0.0797
C22 C 0.31767(19) 0.72615(18) -0.0711(4)
C23 C 0.3430(2) 0.77539(19) -0.1548(5)
H16 H 0.3201 0.7872 -0.2358
C24 C 0.4011(2) 0.8071(2) -0.1210(4)
H17 H 0.4187 0.8392 -0.1805
C25 C 0.43354(19) 0.79179(19) 0.0002(4)
C26 C 0.5188(2) 0.8204(2) 0.1574(5)
H18 H 0.5567 0.8497 0.1653
H19 H 0.5337 0.7752 0.1653
H20 H 0.4872 0.8299 0.2306
C27 C 0.4097(2) 0.7431(2) 0.0845(4)
H21 H 0.4318 0.7325 0.1673
C28 C 0.35335(19) 0.7100(2) 0.0462(4)
H22 H 0.3384 0.6751 0.1017
O3 O 0.35417(14) 0.96921(14) -0.5877(3)
O4 O 0.32011(16) 0.50947(14) -0.6840(3)
C29 C 0.08038(19) 0.80757(19) -0.5580(4)
C30 C 0.0925(2) 0.87240(19) -0.5918(4)
H23 H 0.1362 0.8872 -0.6075
C31 C 0.0397(2) 0.9149(2) -0.6019(5)
H24 H 0.0477 0.9591 -0.6250
C32 C -0.0246(2) 0.8944(2) -0.5791(5)
H25 H -0.0598 0.9246 -0.5851
C33 C -0.0376(2) 0.8298(2) -0.5475(5)
H26 H -0.0815 0.8151 -0.5344
C34 C 0.0151(2) 0.7874(2) -0.5357(4)
C35 C 0.0153(2) 0.71753(19) -0.5054(4)
C36 C -0.0363(2) 0.6772(2) -0.4664(4)
H27 H -0.0801 0.6934 -0.4627
C37 C -0.0230(2) 0.6129(2) -0.4329(5)
H28 H -0.0576 0.5848 -0.4048
C38 C 0.0412(2) 0.5902(2) -0.4407(5)
H29 H 0.0498 0.5462 -0.4173
C39 C 0.0936(2) 0.6294(2) -0.4817(4)
H30 H 0.1372 0.6127 -0.4863
C40 C 0.07993(19) 0.69405(19) -0.5158(4)
C41 C 0.12494(19) 0.74981(19) -0.5488(4)
C42 C 0.19114(19) 0.74658(19) -0.5669(4)
C43 C 0.23648(19) 0.80332(19) -0.5678(4)
C44 C 0.2324(2) 0.8532(2) -0.4705(4)
H31 H 0.2012 0.8502 -0.3982
C45 C 0.2737(2) 0.9069(2) -0.4787(5)
H32 H 0.2716 0.9399 -0.4108
C46 C 0.3180(2) 0.9124(2) -0.5861(5)
C47 C 0.3970(2) 0.9789(2) -0.7019(5)
H33 H 0.4195 1.0208 -0.6925
H34 H 0.3711 0.9787 -0.7866
H35 H 0.4297 0.9439 -0.7050
C48 C 0.3246(2) 0.8629(2) -0.6797(5)
H36 H 0.3562 0.8661 -0.7511
C49 C 0.28465(19) 0.8083(2) -0.6690(4)
H37 H 0.2903 0.7736 -0.7320
C50 C 0.22373(18) 0.68243(19) -0.5962(4)
C51 C 0.21002(19) 0.6502(2) -0.7176(4)
H38 H 0.1788 0.6682 -0.7793
C52 C 0.24094(19) 0.5924(2) -0.7505(4)
H39 H 0.2314 0.5714 -0.8348
C53 C 0.2854(2) 0.56556(19) -0.6611(4)
C54 C 0.3139(3) 0.4814(3) -0.8173(5)
H40 H 0.3408 0.4420 -0.8226
H41 H 0.3289 0.5127 -0.8862
H42 H 0.2676 0.4703 -0.8343
C55 C 0.2981(2) 0.5959(2) -0.5361(4)
H43 H 0.3268 0.5760 -0.4717
C56 C 0.26896(19) 0.6547(2) -0.5059(4)
H44 H 0.2798 0.6765 -0.4232
loop_
_geom_bond_atom_site_label_1
_geom_bond_atom_site_label_2
_geom_bond_site_symmetry_1
_geom_bond_site_symmetry_2
O1 C18 1_555 1_555
O2 C25 1_555 1_555
C1 C2 1_555 1_555
C2 H1 1_555 1_555
C3 C2 1_555 1_555
H2 C3 1_555 1_555
C4 C3 1_555 1_555
H3 C4 1_555 1_555
C5 C4 1_555 1_555
H4 C5 1_555 1_555
C6 C1 1_555 1_555
C7 C6 1_555 1_555
C8 C7 1_555 1_555
H5 C8 1_555 1_555
C9 C8 1_555 1_555
H6 C9 1_555 1_555
C10 C9 1_555 1_555
H7 C10 1_555 1_555
C11 C10 1_555 1_555
H8 C11 1_555 1_555
C12 C7 1_555 1_555
C13 C1 1_555 1_555
C14 C13 1_555 1_555
C15 C14 1_555 1_555
C16 C15 1_555 1_555
H9 C16 1_555 1_555
C17 C16 1_555 1_555
H10 C17 1_555 1_555
C18 C17 1_555 1_555
C19 O1 1_555 1_555
H11 C19 1_555 1_555
H12 C19 1_555 1_555
H13 C19 1_555 1_555
C20 C18 1_555 1_555
H14 C20 1_555 1_555
C21 C15 1_555 1_555
H15 C21 1_555 1_555
C22 C14 1_555 1_555
C23 C22 1_555 1_555
H16 C23 1_555 1_555
C24 C23 1_555 1_555
H17 C24 1_555 1_555
C25 C24 1_555 1_555
C26 O2 1_555 1_555
H18 C26 1_555 1_555
H19 C26 1_555 1_555
H20 C26 1_555 1_555
C27 C25 1_555 1_555
H21 C27 1_555 1_555
C28 C22 1_555 1_555
H22 C28 1_555 1_555
O3 C46 1_555 1_555
O4 C53 1_555 1_555
C29 C30 1_555 1_555
C30 H23 1_555 1_555
C31 C30 1_555 1_555
H24 C31 1_555 1_555
C32 C31 1_555 1_555
H25 C32 1_555 1_555
C33 C32 1_555 1_555
H26 C33 1_555 1_555
C34 C29 1_555 1_555
C35 C34 1_555 1_555
C36 C35 1_555 1_555
H27 C36 1_555 1_555
C37 C36 1_555 1_555
H28 C37 1_555 1_555
C38 C37 1_555 1_555
H29 C38 1_555 1_555
C39 C38 1_555 1_555
H30 C39 1_555 1_555
C40 C35 1_555 1_555
C41 C29 1_555 1_555
C42 C41 1_555 1_555
C43 C42 1_555 1_555
C44 C43 1_555 1_555
H31 C44 1_555 1_555
C45 C44 1_555 1_555
H32 C45 1_555 1_555
C46 C45 1_555 1_555
C47 O3 1_555 1_555
H33 C47 1_555 1_555
H34 C47 1_555 1_555
H35 C47 1_555 1_555
C48 C46 1_555 1_555
H36 C48 1_555 1_555
C49 C43 1_555 1_555
H37 C49 1_555 1_555
C50 C42 1_555 1_555
C51 C50 1_555 1_555
H38 C51 1_555 1_555
C52 C51 1_555 1_555
H39 C52 1_555 1_555
C53 C52 1_555 1_555
C54 O4 1_555 1_555
H40 C54 1_555 1_555
H41 C54 1_555 1_555
H42 C54 1_555 1_555
C55 C53 1_555 1_555
H43 C55 1_555 1_555
C56 C50 1_555 1_555
H44 C56 1_555 1_555
C5 C6 1_555 1_555
C11 C12 1_555 1_555
C12 C13 1_555 1_555
C20 C21 1_555 1_555
C27 C28 1_555 1_555
C33 C34 1_555 1_555
C39 C40 1_555 1_555
C40 C41 1_555 1_555
C48 C49 1_555 1_555
C55 C56 1_555 1_555

#END
