
#######################################################################
#
#                 Cambridge Crystallographic Data Centre
#                                CCDC 
#
#######################################################################
#
# If this CIF has been generated from an entry in the Cambridge 
# Structural Database, then it will include bibliographic, chemical, 
# crystal, experimental, refinement or atomic coordinate data resulting 
# from the CCDC's data processing and validation procedures.
#
#######################################################################

data_QEWQIU
_chemical_formula_moiety         'C18 H12 Cl2 N4 S1,C3 H7 N1 O1'
_chemical_name_systematic        
'6-amino-8-(2,3-dichlorophenyl)-8,8a-dihydro-1H-isothiochromene-5,7,7(3H)-tricarbonitrile N,N-dimethylformamide solvate'
_symmetry_cell_setting           monoclinic
_symmetry_space_group_name_H-M   'P 21/c'
_symmetry_Int_Tables_number      14
_space_group_name_Hall           '-P 2ybc'
loop_
_symmetry_equiv_pos_site_id
_symmetry_equiv_pos_as_xyz
1 x,y,z
2 -x,1/2+y,1/2-z
3 -x,-y,-z
4 x,1/2-y,1/2+z
_cell_length_a                   9.8139(3)
_cell_length_b                   7.4629(2)
_cell_length_c                   29.2903(9)
_cell_angle_alpha                90
_cell_angle_beta                 96.2990(10)
_cell_angle_gamma                90
_cell_volume                     2132.28
_exptl_crystal_colour            colorless
_exptl_crystal_description       block
_cell_formula_units_Z            4
loop_
_atom_site_label
_atom_site_type_symbol
_atom_site_fract_x
_atom_site_fract_y
_atom_site_fract_z
Cl1 Cl 0.94995(8) 0.42680(9) 0.16935(2)
S1 S 0.63489(8) 0.83388(12) 0.01578(3)
Cl2 Cl 0.81881(10) 0.50301(14) 0.25818(3)
C1 C 0.9772(2) 0.7435(3) 0.10590(8)
H1 H 0.9796 0.6132 0.1019
C2 C 0.9028(3) 0.6412(4) 0.18128(8)
C3 C 1.1273(2) 0.8115(3) 0.10703(8)
C4 C 1.0938(3) 0.7555(3) 0.02322(8)
C5 C 1.1824(3) 0.7794(3) 0.06108(9)
C6 C 0.8892(2) 0.8193(3) 0.06418(8)
H2 H 0.8934 0.9504 0.0655
C7 C 1.1393(3) 1.0048(4) 0.11641(9)
N1 N 1.3195(3) 0.7766(4) 0.06276(10)
C8 C 0.9450(3) 0.7585(3) 0.02128(8)
N2 N 1.1519(3) 1.1531(4) 0.12236(9)
C9 C 0.9200(2) 0.7785(3) 0.15075(8)
C10 C 0.7417(3) 0.7616(4) 0.06554(10)
H3 H 0.7076 0.8112 0.0927
H4 H 0.7378 0.6320 0.0677
C11 C 1.2113(3) 0.7187(4) 0.14441(9)
N3 N 1.1997(3) 0.7037(4) -0.05134(9)
C12 C 0.8678(3) 0.7097(4) -0.01650(9)
H5 H 0.9144 0.6716 -0.0407
N4 N 1.2710(3) 0.6480(4) 0.17406(10)
C13 C 0.8788(3) 0.9488(4) 0.16160(10)
H6 H 0.8868 1.0424 0.1411
C14 C 0.8102(3) 0.8456(5) 0.23219(10)
H7 H 0.7749 0.8685 0.2598
C15 C 1.1525(3) 0.7261(3) -0.01843(9)
C16 C 0.8463(3) 0.6754(4) 0.22143(9)
C17 C 0.7176(3) 0.7081(5) -0.02497(11)
H8 H 0.6860 0.5850 -0.0246
H9 H 0.6905 0.7560 -0.0554
C18 C 0.8261(3) 0.9815(4) 0.20233(11)
H10 H 0.8011 1.0975 0.2095
H11 H 1.375(4) 0.815(6) 0.0862(16)
H12 H 1.352(4) 0.785(5) 0.0375(14)
N5 N 0.5283(3) 0.2409(6) 0.15159(17)
C19 C 0.5653(6) 0.4144(9) 0.1362(3)
H13 H 0.6456 0.4559 0.1549
H14 H 0.4911 0.4965 0.1387
H15 H 0.5839 0.4073 0.1048
O1 O 0.4978(3) -0.0462(5) 0.12798(13)
C20 C 0.5332(5) 0.1039(10) 0.12039(19)
H16 H 0.5652 0.1285 0.0923
C21 C 0.4844(7) 0.2280(11) 0.1939(3)
H17 H 0.4731 0.1041 0.2014
H18 H 0.3983 0.2891 0.1939
H19 H 0.5508 0.2818 0.2163
loop_
_geom_bond_atom_site_label_1
_geom_bond_atom_site_label_2
_geom_bond_site_symmetry_1
_geom_bond_site_symmetry_2
Cl1 C2 1_555 1_555
S1 C10 1_555 1_555
Cl2 C16 1_555 1_555
C1 H1 1_555 1_555
C2 C9 1_555 1_555
C3 C1 1_555 1_555
C4 C5 1_555 1_555
C5 C3 1_555 1_555
C6 C1 1_555 1_555
H2 C6 1_555 1_555
C7 C3 1_555 1_555
N1 C5 1_555 1_555
C8 C4 1_555 1_555
N2 C7 1_555 1_555
C9 C1 1_555 1_555
C10 C6 1_555 1_555
H3 C10 1_555 1_555
H4 C10 1_555 1_555
C11 C3 1_555 1_555
N3 C15 1_555 1_555
C12 C8 1_555 1_555
H5 C12 1_555 1_555
N4 C11 1_555 1_555
C13 C9 1_555 1_555
H6 C13 1_555 1_555
C14 H7 1_555 1_555
C15 C4 1_555 1_555
C16 C2 1_555 1_555
C17 S1 1_555 1_555
H8 C17 1_555 1_555
H9 C17 1_555 1_555
C18 C13 1_555 1_555
H10 C18 1_555 1_555
H11 N1 1_555 1_555
H12 N1 1_555 1_555
N5 C19 1_555 1_555
C19 H13 1_555 1_555
H14 C19 1_555 1_555
H15 C19 1_555 1_555
O1 C20 1_555 1_555
C20 N5 1_555 1_555
H16 C20 1_555 1_555
C21 N5 1_555 1_555
H17 C21 1_555 1_555
H18 C21 1_555 1_555
H19 C21 1_555 1_555
C6 C8 1_555 1_555
C12 C17 1_555 1_555
C14 C16 1_555 1_555
C14 C18 1_555 1_555

#END
