
#######################################################################
#
#                 Cambridge Crystallographic Data Centre
#                                CCDC 
#
#######################################################################
#
# If this CIF has been generated from an entry in the Cambridge 
# Structural Database, then it will include bibliographic, chemical, 
# crystal, experimental, refinement or atomic coordinate data resulting 
# from the CCDC's data processing and validation procedures.
#
#######################################################################

data_QEWVAQ
_chemical_formula_moiety         'C42 H48 O6'
_chemical_name_systematic        
7-(4-Methoxylphenyl)-5-((E)-2-(4-methoxylphenyl)ethenyl)-3,9-bis(2-(4-methoxyphenyl)ethyl)-2,8-dioxabicyclo(4.4.0)decane
_symmetry_cell_setting           orthorhombic
_symmetry_space_group_name_H-M   'P 21 21 21'
_symmetry_Int_Tables_number      19
_space_group_name_Hall           'P 2ac 2ab'
loop_
_symmetry_equiv_pos_site_id
_symmetry_equiv_pos_as_xyz
1 x,y,z
2 1/2-x,-y,1/2+z
3 -x,1/2+y,1/2-z
4 1/2+x,1/2-y,-z
_cell_length_a                   6.0896(11)
_cell_length_b                   22.401(4)
_cell_length_c                   26.176(5)
_cell_angle_alpha                90
_cell_angle_beta                 90
_cell_angle_gamma                90
_cell_volume                     3570.75
_exptl_crystal_colour            colorless
_exptl_crystal_description       block
_cell_formula_units_Z            4
_exptl_crystal_recrystallization_method 'carbon tetrachloride/pentane'
loop_
_atom_site_label
_atom_site_type_symbol
_atom_site_fract_x
_atom_site_fract_y
_atom_site_fract_z
O1 O -0.1461(3) 0.44708(8) -0.05140(7)
O2 O -0.2140(3) 0.61110(8) 0.01789(7)
O3 O -0.9854(5) 0.35564(13) -0.29223(10)
O4 O 0.2424(4) 0.24636(8) 0.08396(9)
O5 O -0.5764(4) 0.91237(10) 0.18701(9)
C1 C -0.0321(5) 0.51422(11) 0.01735(11)
H1 H -0.1527 0.4996 0.0401
C2 C -0.1236(5) 0.56594(11) -0.01411(11)
H2 H -0.0003 0.5839 -0.0341
C3 C -0.2976(5) 0.54613(12) -0.05089(11)
H3 H -0.3405 0.5800 -0.0730
H4 H -0.4292 0.5329 -0.0318
C4 C -0.2140(5) 0.49554(12) -0.08343(11)
H5 H -0.0838 0.5099 -0.1032
C5 C -0.3843(5) 0.47256(12) -0.12073(12)
H6 H -0.4269 0.5057 -0.1437
H7 H -0.5167 0.4607 -0.1013
C6 C -0.3115(6) 0.41979(15) -0.15332(14)
H8 H -0.1783 0.4310 -0.1727
H9 H -0.2731 0.3859 -0.1307
C7 C -0.4876(6) 0.40039(14) -0.19007(13)
C8 C -0.6254(7) 0.35447(16) -0.17971(15)
H10 H -0.6070 0.3330 -0.1487
C9 C -0.7932(7) 0.33771(16) -0.21288(15)
H11 H -0.8862 0.3051 -0.2045
C10 C -0.8237(7) 0.36798(15) -0.25727(12)
C11 C -0.6894(7) 0.41562(18) -0.26872(14)
H12 H -0.7122 0.4378 -0.2992
C12 C -0.5224(7) 0.43090(18) -0.23596(14)
H13 H -0.4280 0.4631 -0.2447
C13 C -1.1302(8) 0.3083(2) -0.28038(16)
H14 H -1.0481 0.2707 -0.2792
H15 H -1.2445 0.3058 -0.3066
H16 H -1.1983 0.3157 -0.2471
C14 C 0.0330(5) 0.46220(11) -0.01837(11)
H17 H 0.1599 0.4753 -0.0399
C15 C 0.0947(4) 0.40510(11) 0.00843(10)
C16 C 0.2970(5) 0.37855(11) 0.00101(10)
H18 H 0.4004 0.3972 -0.0210
C17 C 0.3535(5) 0.32490(12) 0.02494(11)
H19 H 0.4929 0.3071 0.0190
C18 C 0.2041(5) 0.29805(11) 0.05734(11)
C19 C -0.0002(5) 0.32421(12) 0.06503(11)
H20 H -0.1035 0.3057 0.0871
C20 C -0.0536(5) 0.37680(12) 0.04081(11)
H21 H -0.1942 0.3941 0.0463
C21 C 0.4520(5) 0.21926(13) 0.07834(14)
H22 H 0.4753 0.2086 0.0424
H23 H 0.4591 0.1832 0.0994
H24 H 0.5663 0.2473 0.0893
C22 C 0.1522(5) 0.53813(12) 0.05187(11)
H25 H 0.2738 0.5525 0.0293
C23 C 0.2472(5) 0.49353(11) 0.08850(11)
H26 H 0.1540 0.4620 0.0995
O6 O 0.8094(8) 0.31129(17) 0.22861(15)
C24 C 0.4480(5) 0.49429(13) 0.10665(11)
H27 H 0.5390 0.5273 0.0982
C25 C 0.5404(12) 0.4475(3) 0.1391(2)
C26 C 0.7442(8) 0.4551(3) 0.16200(18)
H28 H 0.8192 0.4918 0.1570
C27 C 0.8433(8) 0.4116(3) 0.1919(2)
H29 H 0.9839 0.4185 0.2065
C28 C 0.7355(12) 0.3582(2) 0.2002(2)
C29 C 0.5288(12) 0.3499(2) 0.17859(19)
H30 H 0.4527 0.3135 0.1842
C30 C 0.4352(13) 0.3928(2) 0.1497(2)
H31 H 0.2930 0.3859 0.1359
C31 C 1.0169(14) 0.3153(4) 0.2496(3)
H32 H 1.1268 0.3148 0.2223
H33 H 1.0416 0.2813 0.2725
H34 H 1.0297 0.3525 0.2690
C40 C 0.0649(5) 0.59215(11) 0.08221(11)
H43 H -0.0391 0.5778 0.1085
H44 H 0.1892 0.6116 0.1000
C41 C -0.0502(5) 0.63808(12) 0.04892(11)
H45 H 0.0611 0.6575 0.0263
C42 C -0.1609(5) 0.68579(12) 0.08071(11)
H46 H -0.0490 0.7048 0.1028
H47 H -0.2702 0.6664 0.1033
C43 C -0.2763(6) 0.73448(13) 0.04989(12)
H48 H -0.1729 0.7509 0.0243
H49 H -0.4020 0.7168 0.0313
C44 C -0.3580(5) 0.78447(12) 0.08383(11)
C45 C -0.5635(6) 0.78318(15) 0.10491(14)
H50 H -0.6612 0.7518 0.0960
C46 C -0.6317(6) 0.82628(15) 0.13878(14)
H51 H -0.7762 0.8246 0.1524
C47 C -0.4935(5) 0.87161(14) 0.15314(11)
C48 C -0.2871(5) 0.87395(13) 0.13214(12)
H52 H -0.1891 0.9051 0.1413
C49 C -0.2224(5) 0.83049(13) 0.09743(12)
H53 H -0.0800 0.8328 0.0827
C50 C -0.4266(7) 0.95350(17) 0.20880(15)
H54 H -0.3015 0.9318 0.2233
H55 H -0.5003 0.9762 0.2359
H56 H -0.3745 0.9810 0.1823
O7? O 0.9500(19) 0.3510(5) 0.2399(4)
C32? C 0.4480(5) 0.49429(13) 0.10665(11)
H35? H 0.5372 0.5237 0.0907
C33? C 0.571(4) 0.4592(9) 0.1471(8)
C34? C 0.741(3) 0.4812(8) 0.1731(6)
H36? H 0.7782 0.5222 0.1701
C35? C 0.860(3) 0.4451(8) 0.2038(6)
H37? H 0.9786 0.4614 0.2229
C36? C 0.815(3) 0.3854(10) 0.2081(6)
C37? C 0.645(4) 0.3613(9) 0.1814(8)
H38? H 0.6080 0.3203 0.1848
C38? C 0.524(3) 0.4005(10) 0.1473(8)
H39? H 0.4125 0.3849 0.1256
C39? C 0.913(5) 0.2886(12) 0.2391(11)
H40? H 0.7630 0.2802 0.2508
H41? H 1.0181 0.2687 0.2617
H42? H 0.9312 0.2736 0.2041
loop_
_geom_bond_atom_site_label_1
_geom_bond_atom_site_label_2
_geom_bond_site_symmetry_1
_geom_bond_site_symmetry_2
O1 C4 1_555 1_555
O2 C2 1_555 1_555
O3 C10 1_555 1_555
O4 C18 1_555 1_555
O5 C47 1_555 1_555
C1 H1 1_555 1_555
C2 C1 1_555 1_555
H2 C2 1_555 1_555
C3 C2 1_555 1_555
H3 C3 1_555 1_555
H4 C3 1_555 1_555
C4 C3 1_555 1_555
H5 C4 1_555 1_555
C5 C4 1_555 1_555
H6 C5 1_555 1_555
H7 C5 1_555 1_555
C6 C5 1_555 1_555
H8 C6 1_555 1_555
H9 C6 1_555 1_555
C7 C6 1_555 1_555
C8 C7 1_555 1_555
H10 C8 1_555 1_555
C9 C8 1_555 1_555
H11 C9 1_555 1_555
C10 C9 1_555 1_555
C11 C10 1_555 1_555
H12 C11 1_555 1_555
C12 C7 1_555 1_555
H13 C12 1_555 1_555
C13 O3 1_555 1_555
H14 C13 1_555 1_555
H15 C13 1_555 1_555
H16 C13 1_555 1_555
C14 O1 1_555 1_555
H17 C14 1_555 1_555
C15 C14 1_555 1_555
C16 C15 1_555 1_555
H18 C16 1_555 1_555
C17 C16 1_555 1_555
H19 C17 1_555 1_555
C18 C17 1_555 1_555
C19 C18 1_555 1_555
H20 C19 1_555 1_555
C20 C15 1_555 1_555
H21 C20 1_555 1_555
C21 O4 1_555 1_555
H22 C21 1_555 1_555
H23 C21 1_555 1_555
H24 C21 1_555 1_555
C22 C1 1_555 1_555
H25 C22 1_555 1_555
C23 C22 1_555 1_555
H26 C23 1_555 1_555
O6 C28 1_555 1_555
C24 C23 1_555 1_555
H27 C24 1_555 1_555
C25 C24 1_555 1_555
C26 C25 1_555 1_555
H28 C26 1_555 1_555
C27 C26 1_555 1_555
H29 C27 1_555 1_555
C28 C27 1_555 1_555
C29 C28 1_555 1_555
H30 C29 1_555 1_555
C30 C25 1_555 1_555
H31 C30 1_555 1_555
C31 O6 1_555 1_555
H32 C31 1_555 1_555
H33 C31 1_555 1_555
H34 C31 1_555 1_555
C40 C22 1_555 1_555
H43 C40 1_555 1_555
H44 C40 1_555 1_555
C41 O2 1_555 1_555
H45 C41 1_555 1_555
C42 C41 1_555 1_555
H46 C42 1_555 1_555
H47 C42 1_555 1_555
C43 C42 1_555 1_555
H48 C43 1_555 1_555
H49 C43 1_555 1_555
C44 C43 1_555 1_555
C45 C44 1_555 1_555
H50 C45 1_555 1_555
C46 C45 1_555 1_555
H51 C46 1_555 1_555
C47 C46 1_555 1_555
C48 C47 1_555 1_555
H52 C48 1_555 1_555
C49 C44 1_555 1_555
H53 C49 1_555 1_555
C50 O5 1_555 1_555
H54 C50 1_555 1_555
H55 C50 1_555 1_555
H56 C50 1_555 1_555
C1 C14 1_555 1_555
C11 C12 1_555 1_555
C19 C20 1_555 1_555
C29 C30 1_555 1_555
C40 C41 1_555 1_555
C48 C49 1_555 1_555

#END
