
#######################################################################
#
#                 Cambridge Crystallographic Data Centre
#                                CCDC 
#
#######################################################################
#
# If this CIF has been generated from an entry in the Cambridge 
# Structural Database, then it will include bibliographic, chemical, 
# crystal, experimental, refinement or atomic coordinate data resulting 
# from the CCDC's data processing and validation procedures.
#
#######################################################################

data_QEWWUL
_chemical_formula_moiety         'C5 H3 N3 O6,H2 O1'
_chemical_name_systematic        
'4-Oxo-3,5-dinitropyridine-N-hydroxide monohydrate'
_symmetry_cell_setting           tetragonal
_symmetry_space_group_name_H-M   'P -4 21 m'
_symmetry_Int_Tables_number      113
_space_group_name_Hall           'P -4 2ab'
loop_
_symmetry_equiv_pos_site_id
_symmetry_equiv_pos_as_xyz
1 x,y,z
2 y,-x,-z
3 -x,-y,z
4 -y,x,-z
5 1/2+x,1/2-y,-z
6 1/2-y,1/2-x,z
7 1/2-x,1/2+y,-z
8 1/2+y,1/2+x,z
_cell_length_a                   13.113(5)
_cell_length_b                   13.113(5)
_cell_length_c                   4.941(3)
_cell_angle_alpha                90
_cell_angle_beta                 90
_cell_angle_gamma                90
_cell_volume                     849.609
_exptl_crystal_colour            yellow
_exptl_crystal_description       block
_cell_formula_units_Z            4
loop_
_atom_site_label
_atom_site_type_symbol
_atom_site_fract_x
_atom_site_fract_y
_atom_site_fract_z
O1 O 0.10034(18) 0.60034(18) 1.1743(7)
O2 O 0.2885(2) 0.7885(2) 0.3251(7)
H1 H 0.329(3) 0.829(3) 0.413(9)
O3 O -0.0109(2) 0.7734(2) 1.1837(5)
O4 O -0.02283(19) 0.8541(2) 0.8068(6)
N1 N 0.24225(18) 0.74225(18) 0.5461(7)
N2 N 0.0179(2) 0.7908(2) 0.9537(6)
C1 C 0.1440(2) 0.6440(2) 0.9837(9)
C2 C 0.1083(2) 0.7370(2) 0.8563(7)
C3 C 0.1556(3) 0.7831(3) 0.6433(6)
H2 H 0.1361(19) 0.842(2) 0.573(5)
O3G O 0.2734(2) 0.4891(2) 1.1837(5)
O4G O 0.3541(2) 0.47717(19) 0.8068(6)
N2G N 0.2908(2) 0.5179(2) 0.9537(6)
C2G C 0.2370(2) 0.6083(2) 0.8563(7)
C3G C 0.2831(3) 0.6556(3) 0.6433(6)
H2G H 0.342(2) 0.6361(19) 0.573(5)
O5 O 0.4134(2) 0.9134(2) 0.5297(10)
H3? H 0.390(5) 0.987(3) 0.551(8)
H4? H 0.433(4) 0.889(3) 0.718(7)
loop_
_geom_bond_atom_site_label_1
_geom_bond_atom_site_label_2
_geom_bond_site_symmetry_1
_geom_bond_site_symmetry_2
O1 C1 1_555 1_555
O2 H1 1_555 1_555
O3 N2 1_555 1_555
O4 N2 1_555 1_555
N1 O2 1_555 1_555
N2 C2 1_555 1_555
C1 C2 1_555 1_555
C2 C3 1_555 1_555
C3 N1 1_555 1_555
H2 C3 1_555 1_555
O3G N2G 1_555 1_555
O4G N2G 1_555 1_555
N2G C2G 1_555 1_555
C2G C1 1_555 1_555
C3G N1 1_555 1_555
H2G C3G 1_555 1_555
C2G C3G 1_555 1_555

#END
