
#######################################################################
#
#                 Cambridge Crystallographic Data Centre
#                                CCDC 
#
#######################################################################
#
# If this CIF has been generated from an entry in the Cambridge 
# Structural Database, then it will include bibliographic, chemical, 
# crystal, experimental, refinement or atomic coordinate data resulting 
# from the CCDC's data processing and validation procedures.
#
#######################################################################

data_QEXGEG
_chemical_compound_source        'rhizomes of Glochidion coccineum'
_chemical_name_common            'Glochicoccin A'
_chemical_formula_moiety         'C15 H22 O7'
_chemical_name_systematic        
(2S,3R,3aR,4R,4'S,5'R,7R,8aR)-octahydro-3,4'-dihydroxy-3-(hydroxymethyl)-5'-methyl-3H-spiro[4,7-methanofuro[3,2-c]oxepine-2,2'-pyran]-6(4H)-one
_chemical_properties_biological  'devoid of cytotoxic or antioxidant properties'
_symmetry_cell_setting           monoclinic
_symmetry_space_group_name_H-M   'P 21'
_symmetry_Int_Tables_number      4
_space_group_name_Hall           'P 2yb'
loop_
_symmetry_equiv_pos_site_id
_symmetry_equiv_pos_as_xyz
1 x,y,z
2 -x,1/2+y,-z
_cell_length_a                   9.303(1)
_cell_length_b                   8.443(1)
_cell_length_c                   9.895(1)
_cell_angle_alpha                90
_cell_angle_beta                 71.41(1)
_cell_angle_gamma                90
_cell_volume                     736.654
_exptl_crystal_colour            yellow
_exptl_crystal_description       column
_chemical_melting_point          202-203deg.C
_cell_formula_units_Z            2
_exptl_crystal_recrystallization_method methanol
loop_
_atom_site_label
_atom_site_type_symbol
_atom_site_fract_x
_atom_site_fract_y
_atom_site_fract_z
O1 O 0.4478(3) 0.5801(4) 0.8557(3)
O2 O 0.2732(5) 0.7702(5) 0.9353(4)
O3 O -0.0273(2) 0.0782(4) 0.6170(3)
H1 H -0.0066 0.1523 0.6610
O4 O 0.3408(3) 0.0863(3) 0.8654(2)
H2 H 0.3310 -0.0089 0.8545
O5 O 0.6576(3) 0.1344(4) 0.7187(3)
H3 H 0.7436 0.1087 0.6702
C1 C 0.1057(3) -0.0172(5) 0.5560(3)
H4 H 0.0735 -0.1266 0.5490
C2 C 0.1968(3) 0.0401(5) 0.4060(3)
H5 H 0.2802 -0.0347 0.3668
C3 C 0.2656(3) 0.2004(5) 0.4154(3)
H6 H 0.3260 0.2344 0.3206
H7 H 0.1853 0.2773 0.4528
O6 O 0.3599(2) 0.1945(3) 0.50621(19)
C4 C 0.2827(3) 0.1450(4) 0.6474(3)
C5 C 0.2080(3) -0.0156(5) 0.6499(3)
H8 H 0.1483 -0.0413 0.7472
H9 H 0.2858 -0.0960 0.6168
O7 O 0.1666(2) 0.2545(3) 0.7174(2)
C6 C 0.2302(3) 0.3876(4) 0.7713(3)
H10 H 0.2304 0.4810 0.7125
C7 C 0.3956(3) 0.3393(4) 0.7531(3)
H11 H 0.4591 0.3865 0.6635
C8 C 0.3990(3) 0.1606(4) 0.7299(3)
C9 C 0.4510(4) 0.4060(5) 0.8711(3)
H12 H 0.5532 0.3681 0.8623
C10 C 0.3435(4) 0.3831(5) 1.0207(3)
H13 H 0.3887 0.4151 1.0923
H14 H 0.3082 0.2746 1.0379
C11 C 0.2175(4) 0.4956(5) 1.0146(3)
H15 H 0.1514 0.5258 1.1097
C12 C 0.1293(3) 0.4200(6) 0.9247(4)
H16 H 0.0850 0.3212 0.9686
H17 H 0.0471 0.4899 0.9230
C13 C 0.3104(4) 0.6323(5) 0.9358(4)
C14 C 0.1028(4) 0.0451(6) 0.3041(4)
H18 H 0.1650 0.0818 0.2122
H19 H 0.0186 0.1158 0.3411
H20 H 0.0658 -0.0592 0.2949
C15 C 0.5544(3) 0.0950(5) 0.6456(3)
H21 H 0.5490 -0.0191 0.6368
H22 H 0.5879 0.1404 0.5506
loop_
_geom_bond_atom_site_label_1
_geom_bond_atom_site_label_2
_geom_bond_site_symmetry_1
_geom_bond_site_symmetry_2
O1 C9 1_555 1_555
O2 C13 1_555 1_555
O3 H1 1_555 1_555
O4 H2 1_555 1_555
O5 H3 1_555 1_555
C1 O3 1_555 1_555
H4 C1 1_555 1_555
C2 C1 1_555 1_555
H5 C2 1_555 1_555
C3 C2 1_555 1_555
H6 C3 1_555 1_555
H7 C3 1_555 1_555
O6 C3 1_555 1_555
C4 O6 1_555 1_555
C5 C1 1_555 1_555
H8 C5 1_555 1_555
H9 C5 1_555 1_555
O7 C4 1_555 1_555
C6 O7 1_555 1_555
H10 C6 1_555 1_555
C7 C6 1_555 1_555
H11 C7 1_555 1_555
C8 O4 1_555 1_555
C9 C7 1_555 1_555
H12 C9 1_555 1_555
C10 C9 1_555 1_555
H13 C10 1_555 1_555
H14 C10 1_555 1_555
C11 C10 1_555 1_555
H15 C11 1_555 1_555
C12 C6 1_555 1_555
H16 C12 1_555 1_555
H17 C12 1_555 1_555
C13 O1 1_555 1_555
C14 C2 1_555 1_555
H18 C14 1_555 1_555
H19 C14 1_555 1_555
H20 C14 1_555 1_555
C15 O5 1_555 1_555
H21 C15 1_555 1_555
H22 C15 1_555 1_555
C4 C5 1_555 1_555
C4 C8 1_555 1_555
C7 C8 1_555 1_555
C8 C15 1_555 1_555
C11 C12 1_555 1_555
C11 C13 1_555 1_555

#END
