
#######################################################################
#
#                 Cambridge Crystallographic Data Centre
#                                CCDC 
#
#######################################################################
#
# If this CIF has been generated from an entry in the Cambridge 
# Structural Database, then it will include bibliographic, chemical, 
# crystal, experimental, refinement or atomic coordinate data resulting 
# from the CCDC's data processing and validation procedures.
#
#######################################################################

data_QEXLEN
_chemical_formula_moiety         'C28 H37 N3 O1'
_chemical_name_systematic        
N-{(dicyclohexylamino)[(2,6-dimethylphenyl)amino]methylidene}benzamide
_symmetry_cell_setting           monoclinic
_symmetry_space_group_name_H-M   'I 2/a'
_symmetry_Int_Tables_number      15
_space_group_name_Hall           '-I 2ya'
loop_
_symmetry_equiv_pos_site_id
_symmetry_equiv_pos_as_xyz
1 x,y,z
2 1/2-x,y,-z
3 1/2+x,1/2+y,1/2+z
4 -x,1/2+y,1/2-z
5 -x,-y,-z
6 1/2+x,-y,z
7 1/2-x,1/2-y,1/2-z
8 x,1/2-y,1/2+z
_cell_length_a                   17.8466(3)
_cell_length_b                   13.6126(2)
_cell_length_c                   21.6710(4)
_cell_angle_alpha                90
_cell_angle_beta                 108.4980(10)
_cell_angle_gamma                90
_cell_volume                     4992.72
_exptl_crystal_colour            colorless
_exptl_crystal_description       block
_cell_formula_units_Z            8
loop_
_atom_site_label
_atom_site_type_symbol
_atom_site_fract_x
_atom_site_fract_y
_atom_site_fract_z
O1 O 0.49453(6) 0.16725(9) 1.11377(5)
N1 N 0.41481(5) 0.15116(7) 0.99143(5)
H1 H 0.4251 0.1385 1.0328
N2 N 0.52707(5) 0.25159(7) 1.03259(4)
N3 N 0.47632(5) 0.22720(7) 0.92213(4)
C1 C 0.47201(6) 0.20961(8) 0.98232(5)
C2 C 0.53148(7) 0.23135(9) 1.09455(6)
C3 C 0.59111(7) 0.29180(10) 1.14477(6)
C4 C 0.60602(11) 0.26980(14) 1.21004(7)
H2 H 0.5789 0.2186 1.2219
C5 C 0.66094(13) 0.32342(17) 1.25763(8)
H3 H 0.6712 0.3076 1.3013
C6 C 0.70033(12) 0.39996(17) 1.24034(9)
H4 H 0.7372 0.4360 1.2723
C7 C 0.68532(11) 0.42352(15) 1.17574(9)
H5 H 0.7113 0.4761 1.1641
C8 C 0.63143(9) 0.36862(12) 1.12817(7)
H6 H 0.6223 0.3837 1.0845
C9 C 0.33463(6) 0.13688(8) 0.95107(5)
C10 C 0.30787(7) 0.04030(9) 0.93713(6)
C11 C 0.22900(8) 0.02560(12) 0.90135(7)
H7 H 0.2101 -0.0381 0.8914
C12 C 0.17851(8) 0.10336(14) 0.88045(7)
H8 H 0.1260 0.0923 0.8562
C13 C 0.20547(8) 0.19761(13) 0.89538(7)
H9 H 0.1706 0.2498 0.8812
C14 C 0.28390(7) 0.21686(10) 0.93129(6)
C15 C 0.31141(9) 0.32000(10) 0.94917(9)
H10 H 0.3442 0.3404 0.9239
H11 H 0.3412 0.3229 0.9946
H12 H 0.2665 0.3628 0.9404
C16 C 0.36260(11) -0.04501(11) 0.95962(10)
H13 H 0.3812 -0.0467 1.0063
H14 H 0.4067 -0.0382 0.9437
H15 H 0.3350 -0.1049 0.9433
C17 C 0.52919(7) 0.30418(9) 0.91027(6)
H16 H 0.5177 0.3059 0.8630
C18 C 0.61741(7) 0.28116(10) 0.93810(7)
H17 H 0.6333 0.2804 0.9853
H18 H 0.6279 0.2168 0.9235
C19 C 0.66476(8) 0.35874(12) 0.91567(7)
H19 H 0.7207 0.3452 0.9348
H20 H 0.6518 0.3557 0.8687
C20 C 0.64698(9) 0.46077(12) 0.93534(8)
H21 H 0.6765 0.5088 0.9194
H22 H 0.6640 0.4653 0.9824
C21 C 0.55945(9) 0.48426(11) 0.90849(8)
H23 H 0.5437 0.4872 0.8614
H24 H 0.5497 0.5482 0.9242
C22 C 0.50977(8) 0.40713(9) 0.92879(7)
H25 H 0.4541 0.4207 0.9076
H26 H 0.5200 0.4105 0.9755
C23 C 0.43638(6) 0.16354(9) 0.86588(5)
H27 H 0.4064 0.1145 0.8815
C24 C 0.49459(8) 0.10703(11) 0.84051(6)
H28 H 0.5310 0.0705 0.8759
H29 H 0.5250 0.1528 0.8237
C25 C 0.45000(10) 0.03631(12) 0.78671(7)
H30 H 0.4873 0.0036 0.7694
H31 H 0.4242 -0.0135 0.8049
C26 C 0.38869(10) 0.08920(14) 0.73213(7)
H32 H 0.3589 0.0415 0.7006
H33 H 0.4150 0.1330 0.7103
C27 C 0.33239(8) 0.14807(13) 0.75746(7)
H34 H 0.2964 0.1847 0.7219
H35 H 0.3014 0.1036 0.7745
C28 C 0.37690(7) 0.21898(10) 0.81064(6)
H36 H 0.3398 0.2535 0.8273
H37 H 0.4043 0.2672 0.7928
loop_
_geom_bond_atom_site_label_1
_geom_bond_atom_site_label_2
_geom_bond_site_symmetry_1
_geom_bond_site_symmetry_2
O1 C2 1_555 1_555
N1 H1 1_555 1_555
N2 C1 1_555 1_555
N3 C1 1_555 1_555
C1 N1 1_555 1_555
C2 N2 1_555 1_555
C3 C2 1_555 1_555
C4 C3 1_555 1_555
H2 C4 1_555 1_555
C5 C4 1_555 1_555
H3 C5 1_555 1_555
C6 C5 1_555 1_555
H4 C6 1_555 1_555
C7 C6 1_555 1_555
H5 C7 1_555 1_555
C8 C3 1_555 1_555
H6 C8 1_555 1_555
C9 N1 1_555 1_555
C10 C9 1_555 1_555
C11 C10 1_555 1_555
H7 C11 1_555 1_555
C12 C11 1_555 1_555
H8 C12 1_555 1_555
C13 C12 1_555 1_555
H9 C13 1_555 1_555
C14 C9 1_555 1_555
C15 C14 1_555 1_555
H10 C15 1_555 1_555
H11 C15 1_555 1_555
H12 C15 1_555 1_555
C16 C10 1_555 1_555
H13 C16 1_555 1_555
H14 C16 1_555 1_555
H15 C16 1_555 1_555
C17 N3 1_555 1_555
H16 C17 1_555 1_555
C18 C17 1_555 1_555
H17 C18 1_555 1_555
H18 C18 1_555 1_555
C19 C18 1_555 1_555
H19 C19 1_555 1_555
H20 C19 1_555 1_555
C20 C19 1_555 1_555
H21 C20 1_555 1_555
H22 C20 1_555 1_555
C21 C20 1_555 1_555
H23 C21 1_555 1_555
H24 C21 1_555 1_555
C22 C17 1_555 1_555
H25 C22 1_555 1_555
H26 C22 1_555 1_555
C23 N3 1_555 1_555
H27 C23 1_555 1_555
C24 C23 1_555 1_555
H28 C24 1_555 1_555
H29 C24 1_555 1_555
C25 C24 1_555 1_555
H30 C25 1_555 1_555
H31 C25 1_555 1_555
C26 C25 1_555 1_555
H32 C26 1_555 1_555
H33 C26 1_555 1_555
C27 C26 1_555 1_555
H34 C27 1_555 1_555
H35 C27 1_555 1_555
C28 C23 1_555 1_555
H36 C28 1_555 1_555
H37 C28 1_555 1_555
C7 C8 1_555 1_555
C13 C14 1_555 1_555
C21 C22 1_555 1_555
C27 C28 1_555 1_555

#END
