
#######################################################################
#
#                 Cambridge Crystallographic Data Centre
#                                CCDC 
#
#######################################################################
#
# If this CIF has been generated from an entry in the Cambridge 
# Structural Database, then it will include bibliographic, chemical, 
# crystal, experimental, refinement or atomic coordinate data resulting 
# from the CCDC's data processing and validation procedures.
#
#######################################################################

data_QEXLUB
_chemical_formula_moiety         'C32 H24 O4'
_chemical_name_systematic        
3,3'-Dibenzyl-3,3'-dihydroxy-(2,2'-bi-1H-indene)-1,1'-dione
_symmetry_cell_setting           orthorhombic
_symmetry_space_group_name_H-M   'P b c a'
_symmetry_Int_Tables_number      61
_space_group_name_Hall           '-P 2ac 2ab'
loop_
_symmetry_equiv_pos_site_id
_symmetry_equiv_pos_as_xyz
1 x,y,z
2 1/2-x,-y,1/2+z
3 -x,1/2+y,1/2-z
4 1/2+x,1/2-y,-z
5 -x,-y,-z
6 1/2+x,y,1/2-z
7 x,1/2-y,1/2+z
8 1/2-x,1/2+y,z
_cell_length_a                   15.576(6)
_cell_length_b                   9.611(4)
_cell_length_c                   16.139(6)
_cell_angle_alpha                90
_cell_angle_beta                 90
_cell_angle_gamma                90
_cell_volume                     2416.02
_exptl_crystal_colour            yellow
_exptl_crystal_description       block
_cell_formula_units_Z            4
_exptl_crystal_recrystallization_method dichloromethane
loop_
_atom_site_label
_atom_site_type_symbol
_atom_site_fract_x
_atom_site_fract_y
_atom_site_fract_z
O1 O 0.65842(8) 0.57513(15) 0.45300(9)
O2 O 0.38464(8) 0.69523(17) 0.55169(9)
H1 H 0.3606(17) 0.605(3) 0.5552(17)
C1 C 0.59950(11) 0.6272(2) 0.49314(11)
C2 C 0.51514(10) 0.56101(18) 0.51526(10)
C3 C 0.46932(10) 0.66008(18) 0.57587(11)
C4 C 0.52364(11) 0.78932(18) 0.57118(11)
C5 C 0.50771(14) 0.9187(2) 0.60669(11)
H2 H 0.4568 0.9355 0.6350
C6 C 0.56912(15) 1.0220(2) 0.59903(12)
H3 H 0.5596 1.1082 0.6235
C7 C 0.64517(15) 0.9990(2) 0.55510(13)
H4 H 0.6850 1.0705 0.5496
C8 C 0.66163(13) 0.8702(2) 0.51966(12)
H5 H 0.7126 0.8530 0.4915
C9 C 0.59926(11) 0.7679(2) 0.52776(11)
C10 C 0.46946(12) 0.6018(2) 0.66545(11)
H6 H 0.4412 0.6684 0.7014
H7 H 0.4358 0.5168 0.6664
C11 C 0.55721(12) 0.5708(2) 0.70053(11)
C12 C 0.59917(14) 0.4470(2) 0.68168(12)
H8 H 0.5727 0.3826 0.6471
C13 C 0.67921(17) 0.4186(3) 0.71337(15)
H9 H 0.7069 0.3361 0.6995
C14 C 0.71836(18) 0.5122(4) 0.76569(17)
H10 H 0.7721 0.4922 0.7877
C15 C 0.67810(19) 0.6358(3) 0.78554(15)
H11 H 0.7045 0.6989 0.8210
C16 C 0.59848(15) 0.6649(2) 0.75245(12)
H12 H 0.5719 0.7489 0.7651
O1D O 0.34158(8) 0.42487(15) 0.54700(9)
O2D O 0.61536(8) 0.30477(17) 0.44831(9)
H1D H 0.6394(17) 0.395(3) 0.4448(17)
C1D C 0.40050(11) 0.3728(2) 0.50686(11)
C2D C 0.48486(10) 0.43899(18) 0.48474(10)
C3D C 0.53068(10) 0.33992(18) 0.42413(11)
C4D C 0.47636(11) 0.21068(18) 0.42882(11)
C5D C 0.49229(14) 0.0813(2) 0.39331(11)
H2D H 0.5432 0.0645 0.3650
C6D C 0.43088(15) -0.0220(2) 0.40097(12)
H3D H 0.4404 -0.1082 0.3765
C7D C 0.35483(15) 0.0010(2) 0.44490(13)
H4D H 0.3150 -0.0705 0.4504
C8D C 0.33837(13) 0.1298(2) 0.48034(12)
H5D H 0.2874 0.1470 0.5085
C9D C 0.40074(11) 0.2321(2) 0.47224(11)
C10D C 0.53054(12) 0.3982(2) 0.33455(11)
H6D H 0.5588 0.3316 0.2986
H7D H 0.5642 0.4832 0.3336
C11D C 0.44279(12) 0.4292(2) 0.29947(11)
C12D C 0.40083(14) 0.5530(2) 0.31832(12)
H8D H 0.4273 0.6174 0.3529
C13D C 0.32079(17) 0.5814(3) 0.28663(15)
H9D H 0.2931 0.6639 0.3005
C14D C 0.28164(18) 0.4878(4) 0.23431(17)
H10D H 0.2279 0.5078 0.2123
C15D C 0.32190(19) 0.3642(3) 0.21446(15)
H11D H 0.2955 0.3011 0.1790
C16D C 0.40152(15) 0.3351(2) 0.24755(12)
H12D H 0.4281 0.2511 0.2349
loop_
_geom_bond_atom_site_label_1
_geom_bond_atom_site_label_2
_geom_bond_site_symmetry_1
_geom_bond_site_symmetry_2
O1 C1 1_555 1_555
O2 H1 1_555 1_555
C1 C2 1_555 1_555
C2 C3 1_555 1_555
C3 O2 1_555 1_555
C4 C3 1_555 1_555
C5 C4 1_555 1_555
H2 C5 1_555 1_555
C6 C5 1_555 1_555
H3 C6 1_555 1_555
C7 C6 1_555 1_555
H4 C7 1_555 1_555
C8 C7 1_555 1_555
H5 C8 1_555 1_555
C9 C1 1_555 1_555
C10 C3 1_555 1_555
H6 C10 1_555 1_555
H7 C10 1_555 1_555
C11 C10 1_555 1_555
C12 C11 1_555 1_555
H8 C12 1_555 1_555
C13 C12 1_555 1_555
H9 C13 1_555 1_555
C14 C13 1_555 1_555
H10 C14 1_555 1_555
C15 C14 1_555 1_555
H11 C15 1_555 1_555
C16 C11 1_555 1_555
H12 C16 1_555 1_555
O1D C1D 1_555 1_555
O2D H1D 1_555 1_555
C1D C2D 1_555 1_555
C2D C2 1_555 1_555
C3D O2D 1_555 1_555
C4D C3D 1_555 1_555
C5D C4D 1_555 1_555
H2D C5D 1_555 1_555
C6D C5D 1_555 1_555
H3D C6D 1_555 1_555
C7D C6D 1_555 1_555
H4D C7D 1_555 1_555
C8D C7D 1_555 1_555
H5D C8D 1_555 1_555
C9D C1D 1_555 1_555
C10D C3D 1_555 1_555
H6D C10D 1_555 1_555
H7D C10D 1_555 1_555
C11D C10D 1_555 1_555
C12D C11D 1_555 1_555
H8D C12D 1_555 1_555
C13D C12D 1_555 1_555
H9D C13D 1_555 1_555
C14D C13D 1_555 1_555
H10D C14D 1_555 1_555
C15D C14D 1_555 1_555
H11D C15D 1_555 1_555
C16D C11D 1_555 1_555
H12D C16D 1_555 1_555
C4 C9 1_555 1_555
C8 C9 1_555 1_555
C15 C16 1_555 1_555
C2D C3D 1_555 1_555
C4D C9D 1_555 1_555
C8D C9D 1_555 1_555
C15D C16D 1_555 1_555

#END
