
#######################################################################
#
#                 Cambridge Crystallographic Data Centre
#                                CCDC 
#
#######################################################################
#
# If this CIF has been generated from an entry in the Cambridge 
# Structural Database, then it will include bibliographic, chemical, 
# crystal, experimental, refinement or atomic coordinate data resulting 
# from the CCDC's data processing and validation procedures.
#
#######################################################################

data_QEXZUR
_chemical_formula_moiety         'C14 H10 Br1 N3 O1 S2'
_chemical_name_systematic        
3'-(3-bromo-1,2,4-thiadiazol-5-yl)-5',6'-dihydrospiro[indole-3,2'-thiopyran]-2(1H)-one
_symmetry_cell_setting           triclinic
_symmetry_space_group_name_H-M   'P -1'
_symmetry_Int_Tables_number      2
_space_group_name_Hall           '-P 1'
loop_
_symmetry_equiv_pos_site_id
_symmetry_equiv_pos_as_xyz
1 x,y,z
2 -x,-y,-z
_cell_length_a                   6.8130(2)
_cell_length_b                   9.9630(4)
_cell_length_c                   11.1499(4)
_cell_angle_alpha                101.960(3)
_cell_angle_beta                 91.991(3)
_cell_angle_gamma                105.834(3)
_cell_volume                     708.951
_exptl_crystal_colour            'pale yellow'
_chemical_melting_point          '339.75-342.85 K'
_cell_formula_units_Z            2
_exptl_crystal_recrystallization_method tetrahydrofuran/hexane
loop_
_atom_site_label
_atom_site_type_symbol
_atom_site_fract_x
_atom_site_fract_y
_atom_site_fract_z
C1 C 0.2557(3) 0.3357(2) 0.09756(18)
C2 C 0.2148(3) 0.4462(2) 0.05355(19)
H1 H 0.110628 0.428904 -0.008724
C3 C 0.3363(3) 0.5843(2) 0.10652(19)
H2 H 0.311056 0.661130 0.080091
C4 C 0.4948(3) 0.6102(2) 0.1980(2)
H3 H 0.573020 0.703761 0.232059
C5 C 0.5374(3) 0.4971(2) 0.23929(19)
H4 H 0.645276 0.513579 0.298960
C6 C 0.4143(3) 0.3597(2) 0.18878(17)
C7 C 0.2376(3) 0.1123(2) 0.12617(17)
C8 C 0.4265(3) 0.2171(2) 0.21030(17)
C9 C 0.6575(3) 0.0269(2) 0.18529(18)
H5 H 0.529479 -0.047159 0.155914
H6 H 0.767991 -0.007370 0.150281
C10 C 0.6888(3) 0.0569(2) 0.32492(18)
H7 H 0.670882 -0.033216 0.349533
H8 H 0.828770 0.114867 0.351776
C11 C 0.5469(3) 0.1318(2) 0.38929(18)
C12 C 0.4290(3) 0.19898(19) 0.34162(17)
C13 C 0.2801(3) 0.2489(2) 0.41895(17)
C14 C 0.0725(3) 0.2540(2) 0.56146(18)
Br1 Br -0.06169(3) 0.18481(2) 0.68999(2)
N1 N 0.1542(2) 0.18871(17) 0.06190(15)
H9 H 0.052108 0.151551 0.006321
N2 N 0.0308(3) 0.35876(18) 0.52245(16)
N3 N 0.2086(2) 0.18802(17) 0.50927(15)
O1 O 0.1761(2) -0.01730(14) 0.11728(12)
S1 S 0.65207(7) 0.18765(5) 0.13613(4)
S2 S 0.17346(7) 0.38516(5) 0.40653(4)
H10 H 0.539(4) 0.132(3) 0.472(2)
loop_
_geom_bond_atom_site_label_1
_geom_bond_atom_site_label_2
_geom_bond_site_symmetry_1
_geom_bond_site_symmetry_2
C1 C2 1_555 1_555
C2 H1 1_555 1_555
C3 C2 1_555 1_555
H2 C3 1_555 1_555
C4 C3 1_555 1_555
H3 C4 1_555 1_555
C5 C4 1_555 1_555
H4 C5 1_555 1_555
C6 C1 1_555 1_555
C7 C8 1_555 1_555
C8 C6 1_555 1_555
C9 H5 1_555 1_555
H6 C9 1_555 1_555
C10 C9 1_555 1_555
H7 C10 1_555 1_555
H8 C10 1_555 1_555
C11 C10 1_555 1_555
C12 C8 1_555 1_555
C13 C12 1_555 1_555
C14 Br1 1_555 1_555
N1 C1 1_555 1_555
H9 N1 1_555 1_555
N2 C14 1_555 1_555
N3 C13 1_555 1_555
O1 C7 1_555 1_555
S1 C8 1_555 1_555
S2 C13 1_555 1_555
H10 C11 1_555 1_555
C5 C6 1_555 1_555
C7 N1 1_555 1_555
C9 S1 1_555 1_555
C11 C12 1_555 1_555
C14 N3 1_555 1_555
N2 S2 1_555 1_555

#END
