
#######################################################################
#
#                 Cambridge Crystallographic Data Centre
#                                CCDC 
#
#######################################################################
#
# If this CIF has been generated from an entry in the Cambridge 
# Structural Database, then it will include bibliographic, chemical, 
# crystal, experimental, refinement or atomic coordinate data resulting 
# from the CCDC's data processing and validation procedures.
#
#######################################################################

data_QEYSAR
_chemical_formula_moiety         'C24 H31 Ca1 Cl2 N7 O10 2+,C2 H3 N1,2(I1 1-)'
_chemical_name_systematic        
'(acetonitrile)-(diaqua)-[11,32-dichloro-2,8,14,17,20,23,26,29-octaoxa-10,12,31,33,34,35-hexaazatetracyclo[28.3.1.1^3,7^.1^9,13^]hexatriaconta-1(34),3(36),4,6,9(35),10,12,30,32-nonaene]-calcium(ii) diiodide acetonitrile solvate'
_symmetry_cell_setting           orthorhombic
_symmetry_space_group_name_H-M   'P n a 21'
_symmetry_Int_Tables_number      33
_space_group_name_Hall           'P 2c -2n'
loop_
_symmetry_equiv_pos_site_id
_symmetry_equiv_pos_as_xyz
1 x,y,z
2 -x,-y,1/2+z
3 1/2+x,1/2-y,z
4 1/2-x,1/2+y,1/2+z
_cell_length_a                   17.615(3)
_cell_length_b                   15.703(3)
_cell_length_c                   13.956(2)
_cell_angle_alpha                90
_cell_angle_beta                 90
_cell_angle_gamma                90
_cell_volume                     3860.35
_exptl_crystal_colour            colorless
_exptl_crystal_description       block
_cell_formula_units_Z            4
loop_
_atom_site_label
_atom_site_type_symbol
_atom_site_fract_x
_atom_site_fract_y
_atom_site_fract_z
Ca1 Ca 0.28310(7) 0.21669(9) 0.72341(11)
Cl1 Cl 0.62909(10) -0.14110(10) 0.69521(14)
Cl2 Cl 0.57711(11) 0.66091(11) 0.63542(15)
O1 O 0.4031(3) -0.0057(3) 0.5689(4)
O2 O 0.6362(3) 0.1047(3) 0.4908(4)
O3 O 0.6112(3) 0.4039(3) 0.4542(4)
O4 O 0.3819(3) 0.4425(3) 0.5968(4)
O5 O 0.2915(2) 0.3695(3) 0.7544(3)
O6 O 0.2806(3) 0.2514(3) 0.8930(5)
O7 O 0.2763(3) 0.0930(3) 0.8244(7)
O8 O 0.2674(3) 0.0790(3) 0.6367(5)
O9 O 0.4148(3) 0.2271(3) 0.7324(5)
H1 H 0.448361 0.185661 0.747267
H2 H 0.443760 0.273635 0.721592
O10 O 0.1517(3) 0.2356(3) 0.7232(4)
H3 H 0.116636 0.201342 0.747654
H4 H 0.125587 0.278690 0.698572
N1 N 0.5080(3) -0.0700(4) 0.6234(5)
N2 N 0.6288(3) -0.0126(3) 0.5811(4)
N3 N 0.5160(3) 0.0568(4) 0.5279(4)
N4 N 0.5933(3) 0.5208(4) 0.5409(4)
N5 N 0.4715(3) 0.5480(3) 0.6103(4)
N6 N 0.4925(3) 0.4183(3) 0.5256(4)
N7 N 0.2995(3) 0.2638(4) 0.5533(5)
C1 C 0.4787(3) -0.0049(4) 0.5722(5)
C2 C 0.5831(4) -0.0661(4) 0.6252(5)
C3 C 0.5912(4) 0.0479(4) 0.5342(5)
C4 C 0.6034(4) 0.1728(4) 0.4387(5)
C5 C 0.5684(4) 0.1593(4) 0.3525(5)
H5 H 0.560048 0.103248 0.329270
C6 C 0.5454(4) 0.2297(5) 0.2998(5)
H6 H 0.521267 0.221493 0.239628
C7 C 0.5572(3) 0.3125(4) 0.3336(5)
H7 H 0.541963 0.360728 0.297367
C8 C 0.5917(3) 0.3213(4) 0.4212(5)
C9 C 0.6148(3) 0.2531(4) 0.4763(5)
H8 H 0.637459 0.260998 0.537385
C10 C 0.5619(3) 0.4475(4) 0.5086(5)
C11 C 0.5432(4) 0.5651(4) 0.5907(5)
C12 C 0.4510(4) 0.4714(4) 0.5777(5)
C13 C 0.3354(4) 0.4920(4) 0.6623(5)
H9 H 0.317371 0.544761 0.630813
H10 H 0.364993 0.507846 0.719915
C14 C 0.2690(4) 0.4363(4) 0.6896(5)
H11 H 0.229356 0.471627 0.720233
H12 H 0.247033 0.410680 0.630983
C15 C 0.2870(4) 0.3974(5) 0.8526(5)
H13 H 0.233465 0.408087 0.870327
H14 H 0.315858 0.450975 0.860837
C16 C 0.3195(4) 0.3297(5) 0.9149(5)
H15 H 0.374602 0.323478 0.902572
H16 H 0.312311 0.344566 0.983259
C17 C 0.3030(5) 0.1827(6) 0.9534(7)
H17 H 0.292585 0.196599 1.021370
H18 H 0.357923 0.171098 0.946192
C18 C 0.2576(6) 0.1071(6) 0.9231(7)
H19 H 0.271102 0.056672 0.962225
H20 H 0.202654 0.118387 0.930460
C19 C 0.2411(8) 0.0164(6) 0.7913(9)
H21 H 0.254909 -0.032134 0.833028
H22 H 0.185143 0.022548 0.791213
C20 C 0.2682(9) 0.0032(6) 0.6972(10)
H23 H 0.236921 -0.041431 0.666304
H24 H 0.320942 -0.018477 0.700836
C21 C 0.2842(4) 0.0603(5) 0.5376(7)
H25 H 0.257551 0.101721 0.495971
H26 H 0.265190 0.002704 0.521708
C22 C 0.3683(4) 0.0645(5) 0.5180(6)
H27 H 0.378119 0.059409 0.448344
H28 H 0.389312 0.119334 0.540645
C23 C 0.3534(5) 0.3147(6) 0.3906(6)
H29 H 0.312741 0.314397 0.342684
H30 H 0.393768 0.275586 0.370663
H31 H 0.374079 0.372384 0.396516
C24 C 0.3232(4) 0.2876(5) 0.4824(5)
I1 I 0.55074(2) 0.08888(2) 0.81717(4)
I2 I 0.02442(2) 0.08832(3) 0.81773(4)
N8 N 0.7220(5) 0.2137(8) 0.1756(11)
C25 C 0.6151(6) 0.2354(6) 0.0482(10)
H32 H 0.638367 0.237836 -0.015510
H33 H 0.587896 0.288638 0.060799
H34 H 0.579357 0.187567 0.050838
C26 C 0.6758(7) 0.2231(6) 0.1225(11)
loop_
_geom_bond_atom_site_label_1
_geom_bond_atom_site_label_2
_geom_bond_site_symmetry_1
_geom_bond_site_symmetry_2
Ca1 O5 1_555 1_555
Cl1 C2 1_555 1_555
Cl2 C11 1_555 1_555
O1 C1 1_555 1_555
O2 C3 1_555 1_555
O3 C8 1_555 1_555
O4 C12 1_555 1_555
O5 C14 1_555 1_555
O6 Ca1 1_555 1_555
O7 Ca1 1_555 1_555
O8 Ca1 1_555 1_555
O9 Ca1 1_555 1_555
H1 O9 1_555 1_555
H2 O9 1_555 1_555
O10 Ca1 1_555 1_555
H3 O10 1_555 1_555
H4 O10 1_555 1_555
N1 C1 1_555 1_555
N2 C2 1_555 1_555
N3 C1 1_555 1_555
N4 C10 1_555 1_555
N5 C11 1_555 1_555
N6 C10 1_555 1_555
N7 Ca1 1_555 1_555
C2 N1 1_555 1_555
C3 N2 1_555 1_555
C4 O2 1_555 1_555
C5 C4 1_555 1_555
H5 C5 1_555 1_555
C6 C5 1_555 1_555
H6 C6 1_555 1_555
C7 C6 1_555 1_555
H7 C7 1_555 1_555
C8 C7 1_555 1_555
C9 C4 1_555 1_555
H8 C9 1_555 1_555
C10 O3 1_555 1_555
C11 N4 1_555 1_555
C12 N5 1_555 1_555
C13 O4 1_555 1_555
H9 C13 1_555 1_555
H10 C13 1_555 1_555
C14 C13 1_555 1_555
H11 C14 1_555 1_555
H12 C14 1_555 1_555
C15 O5 1_555 1_555
H13 C15 1_555 1_555
H14 C15 1_555 1_555
C16 O6 1_555 1_555
H15 C16 1_555 1_555
H16 C16 1_555 1_555
C17 O6 1_555 1_555
H17 C17 1_555 1_555
H18 C17 1_555 1_555
C18 O7 1_555 1_555
H19 C18 1_555 1_555
H20 C18 1_555 1_555
C19 O7 1_555 1_555
H21 C19 1_555 1_555
H22 C19 1_555 1_555
C20 O8 1_555 1_555
H23 C20 1_555 1_555
H24 C20 1_555 1_555
C21 O8 1_555 1_555
H25 C21 1_555 1_555
H26 C21 1_555 1_555
C22 O1 1_555 1_555
H27 C22 1_555 1_555
H28 C22 1_555 1_555
C23 H29 1_555 1_555
H30 C23 1_555 1_555
H31 C23 1_555 1_555
C24 N7 1_555 1_555
N8 C26 1_555 1_555
C25 H32 1_555 1_555
H33 C25 1_555 1_555
H34 C25 1_555 1_555
C26 C25 1_555 1_555
N3 C3 1_555 1_555
N6 C12 1_555 1_555
C8 C9 1_555 1_555
C15 C16 1_555 1_555
C17 C18 1_555 1_555
C19 C20 1_555 1_555
C21 C22 1_555 1_555
C23 C24 1_555 1_555

#END
