
#######################################################################
#
#                 Cambridge Crystallographic Data Centre
#                                CCDC 
#
#######################################################################
#
# If this CIF has been generated from an entry in the Cambridge 
# Structural Database, then it will include bibliographic, chemical, 
# crystal, experimental, refinement or atomic coordinate data resulting 
# from the CCDC's data processing and validation procedures.
#
#######################################################################

data_QEZXAX
_chemical_formula_moiety         'C19 H22 F3 S1 1+,C1 F3 O3 S1 1-'
_chemical_name_systematic        
'(trifluoromethyl)bis(2,4,6-trimethylphenyl)sulfanium trifluoromethanesulfonate'
_symmetry_cell_setting           triclinic
_symmetry_space_group_name_H-M   'P -1'
_symmetry_Int_Tables_number      2
_space_group_name_Hall           '-P 1'
loop_
_symmetry_equiv_pos_site_id
_symmetry_equiv_pos_as_xyz
1 x,y,z
2 -x,-y,-z
_cell_length_a                   11.7125(5)
_cell_length_b                   15.6802(6)
_cell_length_c                   18.0230(7)
_cell_angle_alpha                100.9223(13)
_cell_angle_beta                 90.8105(13)
_cell_angle_gamma                92.0309(13)
_cell_volume                     3247.27
_exptl_crystal_description       plate
_cell_formula_units_Z            6
loop_
_atom_site_label
_atom_site_type_symbol
_atom_site_fract_x
_atom_site_fract_y
_atom_site_fract_z
S1 S 0.23289(3) 0.17454(3) 0.61024(2)
F1 F 0.31332(9) 0.07364(7) 0.49104(6)
F2 F 0.26277(10) 0.20067(7) 0.47751(6)
F3 F 0.13565(9) 0.09899(8) 0.47602(6)
C1 C 0.23498(15) 0.13142(12) 0.50650(10)
C2 C 0.21641(13) 0.09478(10) 0.66923(9)
C3 C 0.24221(13) 0.13526(10) 0.74439(9)
C4 C 0.22997(14) 0.08475(11) 0.79967(10)
H1 H 0.245315 0.110763 0.85103
C5 C 0.19598(14) -0.00251(11) 0.78195(10)
C6 C 0.17604(14) -0.04057(11) 0.70669(10)
H2 H 0.154511 -0.100659 0.694608
C7 C 0.18622(13) 0.00549(10) 0.64821(10)
C8 C 0.28316(14) 0.22880(10) 0.76807(9)
H3 H 0.353454 0.238726 0.74157
H4 H 0.298396 0.241702 0.822739
H5 H 0.22427 0.266805 0.755314
C9 C 0.18308(16) -0.05579(12) 0.84274(11)
H6 H 0.106951 -0.084531 0.838391
H7 H 0.192524 -0.01777 0.892447
H8 H 0.241347 -0.09977 0.836969
C10 C 0.16711(17) -0.04449(12) 0.56888(11)
H9 H 0.111947 -0.014834 0.542291
H10 H 0.137265 -0.1033 0.570437
H11 H 0.239648 -0.047918 0.54224
C11 C 0.11292(13) 0.24230(10) 0.61828(9)
C12 C 0.14325(14) 0.33129(11) 0.62496(9)
C13 C 0.05575(15) 0.38973(11) 0.63708(10)
H12 H 0.073511 0.450016 0.64093
C14 C -0.05697(15) 0.36205(12) 0.64369(10)
C15 C -0.08329(14) 0.27366(11) 0.63636(9)
H13 H -0.160693 0.255065 0.640202
C16 C -0.00045(13) 0.21148(10) 0.62360(9)
C17 C 0.26329(15) 0.36658(12) 0.61919(11)
H14 H 0.289572 0.348401 0.567414
H15 H 0.313751 0.344132 0.654224
H16 H 0.264705 0.430202 0.632173
C18 C -0.14928(18) 0.42703(14) 0.65799(14)
H17 H -0.182073 0.435274 0.609637
H18 H -0.116722 0.482605 0.685713
H19 H -0.209235 0.405587 0.687947
C19 C -0.03796(14) 0.11762(11) 0.61675(10)
H20 H -0.009921 0.084016 0.569513
H21 H -0.121598 0.112561 0.616624
H22 H -0.006808 0.095074 0.65964
S2 S 0.53964(3) 0.32730(2) 0.32363(2)
F4 F 0.56983(11) 0.31297(8) 0.45978(6)
F5 F 0.61026(9) 0.44232(7) 0.44317(6)
F6 F 0.43528(9) 0.39849(7) 0.45069(6)
C20 C 0.53762(15) 0.37545(12) 0.42589(10)
C21 C 0.41840(13) 0.25327(10) 0.31280(9)
C22 C 0.30493(13) 0.27643(10) 0.30234(9)
C23 C 0.22202(13) 0.20914(11) 0.29087(9)
H23 H 0.14477 0.222569 0.283313
C24 C 0.24768(14) 0.12317(11) 0.29001(9)
C25 C 0.36033(14) 0.10311(11) 0.30125(9)
H24 H 0.377913 0.04446 0.301395
C26 C 0.44841(14) 0.16676(11) 0.31233(9)
C27 C 0.26704(14) 0.36698(11) 0.30352(10)
H25 H 0.311657 0.393325 0.267521
H26 H 0.278921 0.401741 0.354446
H27 H 0.185769 0.365083 0.289349
C28 C 0.15460(16) 0.05310(12) 0.27770(11)
H28 H 0.116168 0.051798 0.228824
H29 H 0.099068 0.065121 0.318165
H30 H 0.187899 -0.003275 0.278095
C29 C 0.56839(14) 0.13918(11) 0.32455(11)
H31 H 0.570166 0.075604 0.31306
H32 H 0.592452 0.160421 0.37731
H33 H 0.620421 0.163612 0.2912
C30 C 0.53331(13) 0.40619(10) 0.26336(9)
C31 C 0.57267(13) 0.36880(10) 0.19138(9)
C32 C 0.57721(13) 0.42047(11) 0.13691(9)
H34 H 0.601439 0.395901 0.087643
C33 C 0.54750(14) 0.50709(11) 0.15195(10)
C34 C 0.51045(14) 0.54143(11) 0.22392(10)
H35 H 0.490261 0.600589 0.23451
C35 C 0.50141(13) 0.49350(10) 0.28137(10)
C36 C 0.60980(14) 0.27627(10) 0.17117(9)
H36 H 0.631552 0.263662 0.118022
H37 H 0.546593 0.23655 0.1791
H38 H 0.675378 0.268487 0.203276
C37 C 0.55605(18) 0.56153(12) 0.09198(11)
H39 H 0.609469 0.535761 0.05347
H40 H 0.58372 0.620504 0.114845
H41 H 0.480551 0.56388 0.068477
C38 C 0.46211(15) 0.54125(11) 0.35659(10)
H42 H 0.431711 0.597023 0.350555
H43 H 0.526808 0.551583 0.39265
H44 H 0.402222 0.50622 0.375511
S3 S 0.89134(3) 0.22383(3) -0.07106(2)
F7 F 0.94352(11) 0.14929(7) -0.20215(6)
F8 F 0.99657(9) 0.28410(7) -0.17867(6)
F9 F 0.82120(9) 0.24571(8) -0.20783(6)
C39 C 0.91295(15) 0.22847(12) -0.17207(9)
C40 C 0.87140(13) 0.32786(10) -0.01200(9)
C41 C 0.88766(13) 0.31989(10) 0.06403(9)
C42 C 0.87884(14) 0.39399(11) 0.11924(9)
H45 H 0.887869 0.389754 0.170868
C43 C 0.85716(14) 0.47421(11) 0.10111(10)
C44 C 0.84552(15) 0.47971(11) 0.02547(10)
H46 H 0.833107 0.53493 0.013048
C45 C 0.85121(14) 0.40790(11) -0.03318(10)
C46 C 0.91158(15) 0.23515(11) 0.08809(9)
H47 H 0.847572 0.193441 0.072138
H48 H 0.920982 0.245017 0.14321
H49 H 0.981747 0.211917 0.064562
C47 C 0.84451(16) 0.55260(12) 0.16249(11)
H50 H 0.841287 0.604724 0.140023
H51 H 0.910041 0.558447 0.197745
H52 H 0.773957 0.545758 0.189718
C48 C 0.83440(18) 0.42404(12) -0.11249(10)
H53 H 0.906441 0.415931 -0.139478
H54 H 0.810269 0.483637 -0.110409
H55 H 0.775585 0.383016 -0.139085
C49 C 0.76856(13) 0.15146(10) -0.07906(9)
C50 C 0.65495(14) 0.17490(11) -0.08697(9)
C51 C 0.57100(15) 0.10878(12) -0.09353(10)
H56 H 0.493361 0.122757 -0.098587
C52 C 0.59645(15) 0.02314(12) -0.09295(10)
C53 C 0.70924(15) 0.00267(11) -0.08434(10)
H57 H 0.726671 -0.055814 -0.083316
C54 C 0.79791(14) 0.06546(11) -0.07714(9)
C55 C 0.61739(15) 0.26495(11) -0.08996(11)
H58 H 0.624575 0.27557 -0.141583
H59 H 0.665586 0.307696 -0.055425
H60 H 0.537533 0.270268 -0.074812
C56 C 0.50247(17) -0.04651(13) -0.10189(13)
H61 H 0.484138 -0.066755 -0.15571
H62 H 0.434349 -0.022694 -0.075922
H63 H 0.527824 -0.095335 -0.079841
C57 C 0.91849(15) 0.03789(12) -0.06849(12)
H64 H 0.917303 -0.022977 -0.062559
H65 H 0.95508 0.074554 -0.023795
H66 H 0.961554 0.044161 -0.113505
S4 S 0.58355(4) 0.15801(3) 0.67068(3)
O1 O 0.68897(12) 0.11494(10) 0.67609(10)
O2 O 0.58433(14) 0.24734(9) 0.70866(9)
O3 O 0.48102(13) 0.10714(10) 0.67835(11)
C58 C 0.57567(15) 0.16602(14) 0.57145(12)
F10 F 0.56688(12) 0.08859(10) 0.52598(8)
F11 F 0.66804(11) 0.20748(10) 0.55048(8)
F12 F 0.48488(10) 0.21067(9) 0.55669(8)
S6 S 0.87490(4) 0.33887(3) 0.32622(3)
O7 O 0.83848(15) 0.25166(9) 0.29192(9)
O8 O 0.97794(12) 0.37115(12) 0.29770(9)
O9 O 0.78441(12) 0.39948(9) 0.33577(8)
C60 C 0.91428(19) 0.33072(15) 0.42253(11)
F16 F 0.99732(14) 0.27513(12) 0.42388(9)
F17 F 0.94949(16) 0.40710(10) 0.46252(8)
F18 F 0.82650(14) 0.30157(12) 0.45775(8)
S8 S 0.22305(3) 0.23800(3) -0.00622(2)
O13 O 0.16956(11) 0.15975(8) 0.00977(8)
O14 O 0.33253(11) 0.22779(10) -0.04106(7)
O15 O 0.14691(11) 0.29254(8) -0.03763(8)
C62 C 0.25974(15) 0.30172(13) 0.08704(10)
F22 F 0.33036(10) 0.25968(9) 0.12490(6)
F23 F 0.31142(10) 0.37753(8) 0.08225(8)
F24 F 0.16692(10) 0.31909(10) 0.12834(7)
S5? S 0.5919(5) 0.2147(4) 0.6305(4)
O4? O 0.6661(12) 0.1917(8) 0.5674(6)
O5? O 0.6412(13) 0.2752(5) 0.6937(6)
O6? O 0.4751(7) 0.2287(7) 0.6113(9)
C59? C 0.5778(7) 0.1144(4) 0.6668(5)
F13? F 0.5307(13) 0.0493(5) 0.6163(7)
F14? F 0.6790(9) 0.0882(8) 0.6873(9)
F15? F 0.5126(12) 0.1244(7) 0.7284(6)
S7? S 0.8739(13) 0.3298(10) 0.3341(8)
O10? O 0.803(2) 0.4031(13) 0.3354(13)
O11? O 0.814(2) 0.2472(11) 0.3261(14)
O12? O 0.9721(17) 0.330(2) 0.2869(9)
C61? C 0.9355(13) 0.3468(10) 0.4292(8)
F19? F 0.8565(18) 0.368(2) 0.4811(8)
F20? F 0.984(2) 0.2761(12) 0.4424(13)
F21? F 1.0141(19) 0.4113(14) 0.4401(12)
loop_
_geom_bond_atom_site_label_1
_geom_bond_atom_site_label_2
_geom_bond_site_symmetry_1
_geom_bond_site_symmetry_2
S1 C1 1_555 1_555
F1 C1 1_555 1_555
F2 C1 1_555 1_555
F3 C1 1_555 1_555
C2 S1 1_555 1_555
C3 C2 1_555 1_555
C4 C3 1_555 1_555
H1 C4 1_555 1_555
C5 C4 1_555 1_555
C6 C5 1_555 1_555
H2 C6 1_555 1_555
C7 C2 1_555 1_555
C8 C3 1_555 1_555
H3 C8 1_555 1_555
H4 C8 1_555 1_555
H5 C8 1_555 1_555
C9 C5 1_555 1_555
H6 C9 1_555 1_555
H7 C9 1_555 1_555
H8 C9 1_555 1_555
C10 C7 1_555 1_555
H9 C10 1_555 1_555
H10 C10 1_555 1_555
H11 C10 1_555 1_555
C11 S1 1_555 1_555
C12 C11 1_555 1_555
C13 C12 1_555 1_555
H12 C13 1_555 1_555
C14 C13 1_555 1_555
C15 C14 1_555 1_555
H13 C15 1_555 1_555
C16 C11 1_555 1_555
C17 C12 1_555 1_555
H14 C17 1_555 1_555
H15 C17 1_555 1_555
H16 C17 1_555 1_555
C18 C14 1_555 1_555
H17 C18 1_555 1_555
H18 C18 1_555 1_555
H19 C18 1_555 1_555
C19 C16 1_555 1_555
H20 C19 1_555 1_555
H21 C19 1_555 1_555
H22 C19 1_555 1_555
S2 C20 1_555 1_555
F4 C20 1_555 1_555
F5 C20 1_555 1_555
F6 C20 1_555 1_555
C21 S2 1_555 1_555
C22 C21 1_555 1_555
C23 C22 1_555 1_555
H23 C23 1_555 1_555
C24 C23 1_555 1_555
C25 C24 1_555 1_555
H24 C25 1_555 1_555
C26 C21 1_555 1_555
C27 C22 1_555 1_555
H25 C27 1_555 1_555
H26 C27 1_555 1_555
H27 C27 1_555 1_555
C28 C24 1_555 1_555
H28 C28 1_555 1_555
H29 C28 1_555 1_555
H30 C28 1_555 1_555
C29 C26 1_555 1_555
H31 C29 1_555 1_555
H32 C29 1_555 1_555
H33 C29 1_555 1_555
C30 S2 1_555 1_555
C31 C30 1_555 1_555
C32 C31 1_555 1_555
H34 C32 1_555 1_555
C33 C32 1_555 1_555
C34 C33 1_555 1_555
H35 C34 1_555 1_555
C35 C30 1_555 1_555
C36 C31 1_555 1_555
H36 C36 1_555 1_555
H37 C36 1_555 1_555
H38 C36 1_555 1_555
C37 C33 1_555 1_555
H39 C37 1_555 1_555
H40 C37 1_555 1_555
H41 C37 1_555 1_555
C38 C35 1_555 1_555
H42 C38 1_555 1_555
H43 C38 1_555 1_555
H44 C38 1_555 1_555
S3 C39 1_555 1_555
F7 C39 1_555 1_555
F8 C39 1_555 1_555
F9 C39 1_555 1_555
C40 S3 1_555 1_555
C41 C40 1_555 1_555
C42 C41 1_555 1_555
H45 C42 1_555 1_555
C43 C42 1_555 1_555
C44 C43 1_555 1_555
H46 C44 1_555 1_555
C45 C40 1_555 1_555
C46 C41 1_555 1_555
H47 C46 1_555 1_555
H48 C46 1_555 1_555
H49 C46 1_555 1_555
C47 C43 1_555 1_555
H50 C47 1_555 1_555
H51 C47 1_555 1_555
H52 C47 1_555 1_555
C48 C45 1_555 1_555
H53 C48 1_555 1_555
H54 C48 1_555 1_555
H55 C48 1_555 1_555
C49 S3 1_555 1_555
C50 C49 1_555 1_555
C51 C50 1_555 1_555
H56 C51 1_555 1_555
C52 C51 1_555 1_555
C53 C52 1_555 1_555
H57 C53 1_555 1_555
C54 C49 1_555 1_555
C55 C50 1_555 1_555
H58 C55 1_555 1_555
H59 C55 1_555 1_555
H60 C55 1_555 1_555
C56 C52 1_555 1_555
H61 C56 1_555 1_555
H62 C56 1_555 1_555
H63 C56 1_555 1_555
C57 C54 1_555 1_555
H64 C57 1_555 1_555
H65 C57 1_555 1_555
H66 C57 1_555 1_555
S4 O1 1_555 1_555
O2 S4 1_555 1_555
O3 S4 1_555 1_555
C58 S4 1_555 1_555
F10 C58 1_555 1_555
F11 C58 1_555 1_555
F12 C58 1_555 1_555
S6 O7 1_555 1_555
O8 S6 1_555 1_555
O9 S6 1_555 1_555
C60 S6 1_555 1_555
F16 C60 1_555 1_555
F17 C60 1_555 1_555
F18 C60 1_555 1_555
S8 O13 1_555 1_555
O14 S8 1_555 1_555
O15 S8 1_555 1_555
C62 S8 1_555 1_555
F22 C62 1_555 1_555
F23 C62 1_555 1_555
F24 C62 1_555 1_555
C6 C7 1_555 1_555
C15 C16 1_555 1_555
C25 C26 1_555 1_555
C34 C35 1_555 1_555
C44 C45 1_555 1_555
C53 C54 1_555 1_555

#END
