
#######################################################################
#
#                 Cambridge Crystallographic Data Centre
#                                CCDC 
#
#######################################################################
#
# If this CIF has been generated from an entry in the Cambridge 
# Structural Database, then it will include bibliographic, chemical, 
# crystal, experimental, refinement or atomic coordinate data resulting 
# from the CCDC's data processing and validation procedures.
#
#######################################################################

data_QEZZUR
_chemical_formula_moiety         'C21 H25 I1 Si2'
_chemical_name_systematic        
2-iodo-1,1-dimethyl-3,4-diphenyl-5-(trimethylsilyl)-1H-silole
_symmetry_cell_setting           monoclinic
_symmetry_space_group_name_H-M   'C 2/c'
_symmetry_Int_Tables_number      15
_space_group_name_Hall           '-C 2yn'
loop_
_symmetry_equiv_pos_site_id
_symmetry_equiv_pos_as_xyz
1 x,y,z
2 1/2+x,1/2+y,z
3 -x,y,1/2-z
4 1/2-x,1/2+y,1/2-z
5 -x,-y,-z
6 1/2-x,1/2-y,-z
7 x,-y,1/2+z
8 1/2+x,1/2-y,1/2+z
_cell_length_a                   27.932(6)
_cell_length_b                   11.207(2)
_cell_length_c                   15.052(3)
_cell_angle_alpha                90
_cell_angle_beta                 111.80(3)
_cell_angle_gamma                90
_cell_volume                     4374.83
_exptl_crystal_colour            colorless
_exptl_crystal_description       block
_chemical_melting_point          '135.6-136.8 deg.C'
_cell_formula_units_Z            8
loop_
_atom_site_label
_atom_site_type_symbol
_atom_site_fract_x
_atom_site_fract_y
_atom_site_fract_z
I1 I 0.448797(10) 0.43726(2) 0.09322(2)
Si1 Si 0.36223(4) 0.53949(10) 0.19515(8)
Si2 Si 0.30405(4) 0.77029(12) 0.25264(9)
C1 C 0.34927(14) 0.7030(4) 0.2010(3)
C2 C 0.37795(14) 0.7606(3) 0.1582(3)
C3 C 0.41271(13) 0.6857(3) 0.1232(2)
C4 C 0.40928(14) 0.5689(3) 0.1373(3)
C5 C 0.37765(14) 0.8921(4) 0.1445(3)
C6 C 0.33353(17) 0.9500(4) 0.0844(3)
H1 H 0.3041 0.9057 0.0513
C7 C 0.33271(19) 1.0718(4) 0.0731(4)
H2 H 0.3031 1.1092 0.0319
C8 C 0.37559(19) 1.1383(4) 0.1227(4)
H3 H 0.3747 1.2209 0.1164
C9 C 0.41905(19) 1.0836(4) 0.1804(4)
H4 H 0.4482 1.1290 0.2129
C10 C 0.42075(15) 0.9601(4) 0.1921(3)
H5 H 0.4510 0.9235 0.2320
C11 C 0.44434(14) 0.7424(3) 0.0741(3)
C12 C 0.42109(17) 0.8044(4) -0.0117(3)
H6 H 0.3854 0.8125 -0.0380
C13 C 0.4509(2) 0.8537(5) -0.0576(3)
H7 H 0.4353 0.8938 -0.1153
C14 C 0.5033(2) 0.8438(5) -0.0185(4)
H8 H 0.5233 0.8780 -0.0493
C15 C 0.52651(18) 0.7841(4) 0.0652(4)
H9 H 0.5623 0.7780 0.0911
C16 C 0.49774(15) 0.7327(4) 0.1121(3)
H10 H 0.5140 0.6916 0.1691
C17 C 0.30488(17) 0.4595(4) 0.1107(4)
H11 H 0.2935 0.4982 0.0494
H12 H 0.2777 0.4609 0.1352
H13 H 0.3140 0.3784 0.1041
C18 C 0.39084(18) 0.4579(4) 0.3091(3)
H14 H 0.4054 0.3843 0.2983
H15 H 0.3646 0.4413 0.3343
H16 H 0.4174 0.5056 0.3540
C19 C 0.3008(2) 0.6688(5) 0.3481(4)
H17 H 0.2914 0.5902 0.3222
H18 H 0.2755 0.6979 0.3718
H19 H 0.3339 0.6660 0.3994
C20 C 0.23768(16) 0.7798(6) 0.1591(4)
H20 H 0.2283 0.7040 0.1278
H21 H 0.2370 0.8395 0.1129
H22 H 0.2137 0.8009 0.1885
C21 C 0.3249(2) 0.9197(4) 0.3087(4)
H23 H 0.3028 0.9439 0.3415
H24 H 0.3227 0.9770 0.2599
H25 H 0.3598 0.9151 0.3535
loop_
_geom_bond_atom_site_label_1
_geom_bond_atom_site_label_2
_geom_bond_site_symmetry_1
_geom_bond_site_symmetry_2
I1 C4 1_555 1_555
Si1 C1 1_555 1_555
Si2 C1 1_555 1_555
C1 C2 1_555 1_555
C2 C3 1_555 1_555
C3 C4 1_555 1_555
C4 Si1 1_555 1_555
C5 C2 1_555 1_555
C6 C5 1_555 1_555
H1 C6 1_555 1_555
C7 C6 1_555 1_555
H2 C7 1_555 1_555
C8 C7 1_555 1_555
H3 C8 1_555 1_555
C9 C8 1_555 1_555
H4 C9 1_555 1_555
C10 C5 1_555 1_555
H5 C10 1_555 1_555
C11 C3 1_555 1_555
C12 C11 1_555 1_555
H6 C12 1_555 1_555
C13 C12 1_555 1_555
H7 C13 1_555 1_555
C14 C13 1_555 1_555
H8 C14 1_555 1_555
C15 C14 1_555 1_555
H9 C15 1_555 1_555
C16 C11 1_555 1_555
H10 C16 1_555 1_555
C17 Si1 1_555 1_555
H11 C17 1_555 1_555
H12 C17 1_555 1_555
H13 C17 1_555 1_555
C18 Si1 1_555 1_555
H14 C18 1_555 1_555
H15 C18 1_555 1_555
H16 C18 1_555 1_555
C19 Si2 1_555 1_555
H17 C19 1_555 1_555
H18 C19 1_555 1_555
H19 C19 1_555 1_555
C20 Si2 1_555 1_555
H20 C20 1_555 1_555
H21 C20 1_555 1_555
H22 C20 1_555 1_555
C21 Si2 1_555 1_555
H23 C21 1_555 1_555
H24 C21 1_555 1_555
H25 C21 1_555 1_555
C9 C10 1_555 1_555
C15 C16 1_555 1_555

#END
