
#######################################################################
#
#                 Cambridge Crystallographic Data Centre
#                                CCDC 
#
#######################################################################
#
# If this CIF has been generated from an entry in the Cambridge 
# Structural Database, then it will include bibliographic, chemical, 
# crystal, experimental, refinement or atomic coordinate data resulting 
# from the CCDC's data processing and validation procedures.
#
#######################################################################

data_QIBHEO
_chemical_formula_moiety         'C13 H14 N4 O1,C2 H3 N1'
_chemical_name_systematic        '1,5-Diphenylcarbazide acetonitrile solvate'
_symmetry_cell_setting           monoclinic
_symmetry_space_group_name_H-M   'P 21/n'
_symmetry_Int_Tables_number      14
_space_group_name_Hall           '-P 2yn'
loop_
_symmetry_equiv_pos_site_id
_symmetry_equiv_pos_as_xyz
1 x,y,z
2 1/2+x,1/2-y,1/2+z
3 -x,-y,-z
4 1/2-x,1/2+y,1/2-z
_cell_length_a                   5.7818(2)
_cell_length_b                   15.3200(10)
_cell_length_c                   17.4690(10)
_cell_angle_alpha                90
_cell_angle_beta                 97.4760(10)
_cell_angle_gamma                90
_cell_volume                     1534.2
_exptl_crystal_colour            'light yellow'
_exptl_crystal_description       parallelepiped
_cell_formula_units_Z            4
loop_
_atom_site_label
_atom_site_type_symbol
_atom_site_fract_x
_atom_site_fract_y
_atom_site_fract_z
O1 O 0.2298(2) 0.02618(10) 0.08467(9)
N1 N 0.2917(3) 0.12213(13) 0.21908(12)
H1 H 0.3851 0.1661 0.2225
N2 N 0.0912(3) 0.12298(13) 0.16609(11)
H2 H -0.0197 0.1585 0.1726
N3 N -0.1502(3) 0.06424(12) 0.06440(11)
H3 H -0.1834 0.0239 0.0305
N4 N -0.3182(3) 0.12511(11) 0.07862(10)
H4 H -0.4045 0.1175 0.1146
C1 C 0.1821(4) -0.01479(18) 0.27475(15)
H5 H 0.0340 -0.0118 0.2468
C2 C 0.2397(5) -0.0841(2) 0.32369(18)
H6 H 0.1308 -0.1281 0.3274
C3 C 0.4544(5) -0.08960(19) 0.36697(17)
H7 H 0.4920 -0.1366 0.3999
C4 C 0.6124(5) -0.02428(19) 0.36066(16)
H8 H 0.7582 -0.0268 0.3901
C5 C 0.5589(4) 0.04477(16) 0.31158(14)
H9 H 0.6686 0.0885 0.3081
C6 C 0.3414(4) 0.04983(14) 0.26685(12)
C7 C 0.0673(4) 0.06916(14) 0.10475(12)
C8 C -0.3399(3) 0.20007(14) 0.03097(11)
C9 C -0.1753(4) 0.22137(17) -0.01703(14)
H10 H -0.0471 0.1853 -0.0195
C10 C -0.2024(5) 0.29622(19) -0.06116(16)
H11 H -0.0927 0.3097 -0.0938
C11 C -0.3872(5) 0.35074(19) -0.05764(18)
H12 H -0.4028 0.4013 -0.0873
C12 C -0.5504(5) 0.33034(18) -0.00980(16)
H13 H -0.6769 0.3672 -0.0071
C13 C -0.5271(4) 0.25551(15) 0.03406(14)
H14 H -0.6385 0.2421 0.0661
N5 N 0.7416(6) 0.24647(18) 0.24697(19)
C14 C 0.8849(7) 0.3712(2) 0.3392(2)
C15 C 0.8028(5) 0.30067(19) 0.28802(18)
H15 H 0.7596 0.3650 0.3582
H16 H 0.9699 0.3434 0.3807
H17 H 0.8611 0.4215 0.3181
loop_
_geom_bond_atom_site_label_1
_geom_bond_atom_site_label_2
_geom_bond_site_symmetry_1
_geom_bond_site_symmetry_2
O1 C7 1_555 1_555
N1 H1 1_555 1_555
N2 N1 1_555 1_555
H2 N2 1_555 1_555
N3 H3 1_555 1_555
N4 N3 1_555 1_555
H4 N4 1_555 1_555
N5 C15 1_555 1_555
C1 H5 1_555 1_555
C2 C1 1_555 1_555
H6 C2 1_555 1_555
C3 C2 1_555 1_555
H7 C3 1_555 1_555
C4 C3 1_555 1_555
H8 C4 1_555 1_555
C5 C4 1_555 1_555
H9 C5 1_555 1_555
C6 N1 1_555 1_555
C7 N2 1_555 1_555
C8 N4 1_555 1_555
C9 C8 1_555 1_555
H10 C9 1_555 1_555
C10 C9 1_555 1_555
H11 C10 1_555 1_555
C11 C10 1_555 1_555
H12 C11 1_555 1_555
C12 C11 1_555 1_555
H13 C12 1_555 1_555
C13 C8 1_555 1_555
H14 C13 1_555 1_555
C14 C15 1_555 1_555
H15 C14 1_555 1_555
H16 C14 1_555 1_555
H17 C14 1_555 1_555
N3 C7 1_555 1_555
C1 C6 1_555 1_555
C5 C6 1_555 1_555
C12 C13 1_555 1_555

#END
