
#######################################################################
#
#                 Cambridge Crystallographic Data Centre
#                                CCDC 
#
#######################################################################
#
# If this CIF has been generated from an entry in the Cambridge 
# Structural Database, then it will include bibliographic, chemical, 
# crystal, experimental, refinement or atomic coordinate data resulting 
# from the CCDC's data processing and validation procedures.
#
#######################################################################

data_QIBTIE01
_chemical_formula_moiety         'C6 H12 O5'
_chemical_name_systematic        'Methyl \b-D-arabinofuranoside'
_symmetry_cell_setting           orthorhombic
_symmetry_space_group_name_H-M   'P 21 21 21'
_symmetry_Int_Tables_number      19
_space_group_name_Hall           'P 2ac 2ab'
loop_
_symmetry_equiv_pos_site_id
_symmetry_equiv_pos_as_xyz
1 x,y,z
2 1/2-x,-y,1/2+z
3 -x,1/2+y,1/2-z
4 1/2+x,1/2-y,-z
_cell_length_a                   5.9060(10)
_cell_length_b                   10.845(3)
_cell_length_c                   12.154(3)
_cell_angle_alpha                90
_cell_angle_beta                 90
_cell_angle_gamma                90
_cell_volume                     778.471
_exptl_crystal_colour            white
_exptl_crystal_description       'rectangular prism'
_cell_formula_units_Z            4
_exptl_crystal_recrystallization_method acetonitrile
loop_
_atom_site_label
_atom_site_type_symbol
_atom_site_fract_x
_atom_site_fract_y
_atom_site_fract_z
O1 O 0.20919(12) 0.19581(6) 0.19598(5)
O2 O 0.33979(11) 0.44942(6) 0.45934(5)
H1 H 0.427(3) 0.4119(14) 0.5017(16)
O3 O 0.10562(11) 0.40443(6) 0.19685(5)
O4 O 0.12255(12) 0.18433(6) 0.41985(5)
H2 H 0.242(4) 0.1437(17) 0.3963(17)
O5 O 0.49691(14) 0.55965(7) 0.11385(6)
H3 H 0.402(3) 0.5439(13) 0.0673(13)
C1 C 0.28720(14) 0.45762(8) 0.26152(7)
H4 H 0.239(2) 0.5406(11) 0.2836(10)
C2 C 0.31500(14) 0.37593(7) 0.36319(6)
H5 H 0.450(2) 0.3202(11) 0.3540(10)
C3 C 0.10185(15) 0.29605(8) 0.36129(7)
H6 H -0.017(2) 0.3430(11) 0.3926(11)
C4 C 0.50361(15) 0.46571(8) 0.19544(7)
H7 H 0.620(2) 0.4858(12) 0.2471(12)
H8 H 0.532(2) 0.3814(12) 0.1625(11)
C5 C 0.05974(15) 0.28475(8) 0.23740(8)
H9 H -0.092(2) 0.2685(12) 0.2172(11)
C6 C 0.1762(2) 0.17174(10) 0.08154(8)
H10 H 0.303(3) 0.1109(14) 0.0595(15)
H11 H 0.179(3) 0.2490(15) 0.0388(13)
H12 H 0.024(3) 0.1348(14) 0.0673(13)
loop_
_geom_bond_atom_site_label_1
_geom_bond_atom_site_label_2
_geom_bond_site_symmetry_1
_geom_bond_site_symmetry_2
O1 C5 1_555 1_555
O2 H1 1_555 1_555
O3 C1 1_555 1_555
O4 H2 1_555 1_555
O5 H3 1_555 1_555
C1 H4 1_555 1_555
C2 O2 1_555 1_555
H5 C2 1_555 1_555
C3 O4 1_555 1_555
H6 C3 1_555 1_555
C4 O5 1_555 1_555
H7 C4 1_555 1_555
H8 C4 1_555 1_555
C5 O3 1_555 1_555
H9 C5 1_555 1_555
C6 O1 1_555 1_555
H10 C6 1_555 1_555
H11 C6 1_555 1_555
H12 C6 1_555 1_555
C1 C2 1_555 1_555
C1 C4 1_555 1_555
C2 C3 1_555 1_555
C3 C5 1_555 1_555

#END
