
#######################################################################
#
#                 Cambridge Crystallographic Data Centre
#                                CCDC 
#
#######################################################################
#
# If this CIF has been generated from an entry in the Cambridge 
# Structural Database, then it will include bibliographic, chemical, 
# crystal, experimental, refinement or atomic coordinate data resulting 
# from the CCDC's data processing and validation procedures.
#
#######################################################################

data_QIDHIX
_chemical_formula_moiety         
'C52 H59 Cl1 N7 Na1 O5,2(C1 H2 Cl2),0.5(C2 H3 N1)'
_chemical_name_systematic        
'(48,50-dimethoxy-1,25,30,30,39,39-hexamethyl-5,21,44,45,46,47,49-heptaazanonacyclo[23.9.9.1^6,10^.1^11,15^.1^16,20^.1^26,29^.1^31,34^.1^35,38^.1^40,43^]pentaconta-6(50),7,9,11(49),12,14,16(48),17,19,26,28,31,33,35,37,40,42-heptadecaene-4,22-dione)-methanol-chloro-lithium dichloromethane acetonitrile solvate'
_symmetry_cell_setting           triclinic
_symmetry_space_group_name_H-M   'P -1'
_symmetry_Int_Tables_number      2
_space_group_name_Hall           '-P 1'
loop_
_symmetry_equiv_pos_site_id
_symmetry_equiv_pos_as_xyz
1 x,y,z
2 -x,-y,-z
_cell_length_a                   12.8038(3)
_cell_length_b                   13.0845(4)
_cell_length_c                   16.7736(5)
_cell_angle_alpha                104.882(2)
_cell_angle_beta                 91.849(2)
_cell_angle_gamma                92.800(2)
_cell_volume                     2709.68
_cell_formula_units_Z            2
loop_
_atom_site_label
_atom_site_type_symbol
_atom_site_fract_x
_atom_site_fract_y
_atom_site_fract_z
C53 C 0.1271(3) 0.3075(4) 0.5760(3)
H59 H 0.140424 0.241553 0.533966
H60 H 0.195015 0.337854 0.604101
Cl2 Cl 0.04448(10) 0.27660(10) 0.64833(8)
Cl3 Cl 0.07453(10) 0.39813(9) 0.52629(7)
C54 C 0.2657(6) 0.7038(4) 0.5779(4)
H61 H 0.198718 0.695477 0.604147
H62 H 0.310169 0.759444 0.617362
Cl4 Cl 0.32821(10) 0.58374(13) 0.56007(7)
Cl5 Cl 0.23986(10) 0.74650(10) 0.48860(10)
C1 C 0.4358(2) -0.0428(2) 0.12097(16)
C2 C 0.4326(2) -0.1501(2) 0.08804(18)
H1 H 0.489803 -0.194094 0.086462
C3 C 0.3287(2) -0.1841(2) 0.05656(17)
H2 H 0.304051 -0.254787 0.030164
C4 C 0.2704(2) -0.0963(2) 0.07124(16)
C5 C 0.1574(2) -0.0835(2) 0.04640(16)
C6 C 0.0853(2) -0.0746(2) 0.11726(16)
C7 C -0.0062(2) -0.1313(2) 0.12300(17)
H3 H -0.037484 -0.189437 0.081581
C8 C -0.0458(2) -0.0872(2) 0.20224(17)
H4 H -0.108002 -0.110764 0.223139
C9 C 0.0225(2) -0.0044(2) 0.24296(16)
C10 C 0.0163(2) 0.0754(2) 0.32550(16)
C11 C 0.1124(2) 0.0764(2) 0.38119(15)
C12 C 0.1284(2) 0.0260(2) 0.44282(17)
H5 H 0.078823 -0.019806 0.459653
C13 C 0.2326(2) 0.0546(2) 0.47701(16)
H6 H 0.264622 0.031709 0.520795
C14 C 0.2783(2) 0.1214(2) 0.43493(16)
C15 C 0.3866(2) 0.1779(2) 0.44515(16)
C16 C 0.4594(2) 0.1199(2) 0.38205(16)
C17 C 0.5519(2) 0.0740(2) 0.39234(17)
H7 H 0.583114 0.069139 0.443302
C18 C 0.5923(2) 0.0351(2) 0.31258(17)
H8 H 0.655477 0.000136 0.300962
C19 C 0.5232(2) 0.0572(2) 0.25548(16)
C20 C 0.5258(2) 0.0359(2) 0.16229(16)
C21 C 0.5155(2) 0.1404(2) 0.13575(17)
H9 H 0.518107 0.124843 0.074903
H10 H 0.446473 0.168268 0.151262
C22 C 0.6011(2) 0.2256(2) 0.17486(19)
H11 H 0.618105 0.221405 0.231892
H12 H 0.665070 0.211536 0.143156
C23 C 0.5692(2) 0.3365(2) 0.17717(17)
C24 C 0.6218(2) 0.5234(2) 0.23088(17)
C25 C 0.7035(2) 0.5894(2) 0.21570(19)
H13 H 0.770230 0.562655 0.202662
C26 C 0.6864(2) 0.6946(2) 0.2198(2)
H14 H 0.742824 0.741137 0.213160
C27 C 0.5877(2) 0.7319(2) 0.23353(18)
H15 H 0.576102 0.802600 0.232041
C28 C 0.5045(2) 0.6679(2) 0.24957(17)
C29 C 0.5255(2) 0.5651(2) 0.25414(16)
C30 C 0.3978(2) 0.7080(2) 0.25734(16)
C31 C 0.3841(2) 0.8151(2) 0.29280(17)
H16 H 0.442335 0.862032 0.316566
C32 C 0.2848(2) 0.8519(2) 0.29287(17)
H17 H 0.274041 0.924776 0.315618
C33 C 0.2013(2) 0.7812(2) 0.25934(18)
H18 H 0.132297 0.804720 0.258373
C34 C 0.2203(2) 0.6744(2) 0.22685(17)
C35 C 0.1300(2) 0.5982(2) 0.19084(17)
C36 C 0.0576(2) 0.6241(2) 0.13597(18)
H19 H 0.069111 0.687986 0.119691
C37 C -0.0308(2) 0.5583(2) 0.10484(18)
H20 H -0.079369 0.577802 0.068117
C38 C -0.0481(2) 0.4645(2) 0.12724(17)
H21 H -0.108664 0.419578 0.106093
C39 C 0.0234(2) 0.4361(2) 0.18091(17)
C40 C 0.1116(2) 0.5031(2) 0.21282(16)
C41 C -0.0783(2) 0.3024(2) 0.23027(16)
C42 C -0.0758(2) 0.1934(2) 0.24588(17)
H22 H -0.061396 0.141294 0.193765
H23 H -0.145486 0.173422 0.263011
C43 C 0.0069(2) 0.1881(2) 0.31239(16)
H24 H -0.010349 0.236951 0.365294
H25 H 0.075752 0.213206 0.297041
C44 C -0.0808(2) 0.0459(2) 0.36788(17)
H26 H -0.143681 0.048022 0.333588
H27 H -0.084947 0.096438 0.421910
H28 H -0.075828 -0.025673 0.375229
C45 C 0.4329(2) 0.1843(2) 0.53219(17)
H29 H 0.386994 0.223325 0.573520
H30 H 0.502426 0.221089 0.539496
H31 H 0.438727 0.112587 0.538994
C46 C 0.3784(2) 0.2920(2) 0.43622(17)
H32 H 0.351769 0.289488 0.380254
H33 H 0.447728 0.329267 0.446295
H34 H 0.330394 0.329650 0.476439
C47 C 0.6290(2) -0.0122(2) 0.13291(18)
H35 H 0.633700 -0.080309 0.146683
H36 H 0.687881 0.036092 0.160284
H37 H 0.631503 -0.023223 0.072983
C48 C 0.1197(2) -0.1805(2) -0.02296(17)
H38 H 0.122374 -0.244343 -0.002786
H39 H 0.165092 -0.186788 -0.069732
H40 H 0.047621 -0.172528 -0.040771
C49 C 0.1518(2) 0.0160(2) 0.01367(17)
H41 H 0.171270 0.079226 0.058565
H42 H 0.080393 0.020525 -0.007395
H43 H 0.200336 0.011648 -0.030950
C50 C 0.4316(2) 0.5413(2) 0.36723(18)
H44 H 0.394704 0.606674 0.374490
H45 H 0.497358 0.555922 0.400770
H46 H 0.387632 0.488292 0.384735
C51 C 0.1490(3) 0.4831(3) 0.34703(19)
H47 H 0.190593 0.439557 0.374100
H48 H 0.074839 0.459720 0.345061
H49 H 0.158704 0.557495 0.378256
C52 C 0.2783(4) 0.2783(4) -0.0047(3)
H50 H 0.317714 0.311714 -0.041365
H51 H 0.220223 0.232627 -0.036374
H52 H 0.324661 0.235722 0.019452
Cl1 Cl 0.25247(5) 0.22411(5) 0.21368(4)
N1 N 0.33659(18) -0.01095(18) 0.11082(14)
H53 H 0.318005 0.054762 0.127284
N2 N 0.10177(17) 0.00216(17) 0.19062(13)
H54 H 0.155475 0.048922 0.202421
N3 N 0.20476(17) 0.13370(17) 0.37686(13)
H55 H 0.215103 0.172646 0.341840
N4 N 0.44333(17) 0.10855(18) 0.29847(14)
H56 H 0.389203 0.131210 0.275763
N5 N 0.63619(18) 0.41491(18) 0.22321(15)
H57 H 0.690582 0.397475 0.249211
N6 N 0.31679(18) 0.63784(17) 0.22478(14)
N7 N 0.01111(18) 0.33769(17) 0.20205(14)
H58 H 0.064735 0.297252 0.196488
Na1 Na 0.32821(9) 0.42256(11) 0.18165(8)
O1 O -0.15570(16) 0.35444(17) 0.24195(14)
O2 O 0.18245(14) 0.47192(15) 0.26464(12)
O3 O 0.45373(15) 0.50151(14) 0.28181(12)
O4 O 0.48959(15) 0.35327(16) 0.14097(12)
O5 O 0.2401(4) 0.3539(6) 0.0561(2)
C55? C 0.3764(12) -0.4682(10) 0.0109(8)
C56? C 0.2769(13) -0.4541(13) 0.0144(10)
N8? N 0.4695(13) -0.4549(12) 0.0172(10)
loop_
_geom_bond_atom_site_label_1
_geom_bond_atom_site_label_2
_geom_bond_site_symmetry_1
_geom_bond_site_symmetry_2
C1 C2 1_555 1_555
C2 H1 1_555 1_555
C3 C2 1_555 1_555
H2 C3 1_555 1_555
C4 C3 1_555 1_555
C5 C4 1_555 1_555
C6 C5 1_555 1_555
C7 C6 1_555 1_555
H3 C7 1_555 1_555
C8 C7 1_555 1_555
H4 C8 1_555 1_555
C9 C8 1_555 1_555
C10 C9 1_555 1_555
C11 C10 1_555 1_555
C12 C11 1_555 1_555
H5 C12 1_555 1_555
C13 C12 1_555 1_555
H6 C13 1_555 1_555
C14 C13 1_555 1_555
C15 C14 1_555 1_555
C16 C15 1_555 1_555
C17 C16 1_555 1_555
H7 C17 1_555 1_555
C18 C17 1_555 1_555
H8 C18 1_555 1_555
C19 C18 1_555 1_555
C20 C1 1_555 1_555
C21 C20 1_555 1_555
H9 C21 1_555 1_555
H10 C21 1_555 1_555
C22 C21 1_555 1_555
H11 C22 1_555 1_555
H12 C22 1_555 1_555
C23 C22 1_555 1_555
C24 C25 1_555 1_555
C25 H13 1_555 1_555
C26 C25 1_555 1_555
H14 C26 1_555 1_555
C27 C26 1_555 1_555
H15 C27 1_555 1_555
C28 C27 1_555 1_555
C29 C24 1_555 1_555
C30 C28 1_555 1_555
C31 C30 1_555 1_555
H16 C31 1_555 1_555
C32 C31 1_555 1_555
H17 C32 1_555 1_555
C33 C32 1_555 1_555
H18 C33 1_555 1_555
C34 C33 1_555 1_555
C35 C34 1_555 1_555
C36 C35 1_555 1_555
H19 C36 1_555 1_555
C37 C36 1_555 1_555
H20 C37 1_555 1_555
C38 C37 1_555 1_555
H21 C38 1_555 1_555
C39 C38 1_555 1_555
C40 C35 1_555 1_555
C41 C42 1_555 1_555
C42 H22 1_555 1_555
H23 C42 1_555 1_555
C43 C10 1_555 1_555
H24 C43 1_555 1_555
H25 C43 1_555 1_555
C44 C10 1_555 1_555
H26 C44 1_555 1_555
H27 C44 1_555 1_555
H28 C44 1_555 1_555
C45 C15 1_555 1_555
H29 C45 1_555 1_555
H30 C45 1_555 1_555
H31 C45 1_555 1_555
C46 C15 1_555 1_555
H32 C46 1_555 1_555
H33 C46 1_555 1_555
H34 C46 1_555 1_555
C47 C20 1_555 1_555
H35 C47 1_555 1_555
H36 C47 1_555 1_555
H37 C47 1_555 1_555
C48 C5 1_555 1_555
H38 C48 1_555 1_555
H39 C48 1_555 1_555
H40 C48 1_555 1_555
C49 C5 1_555 1_555
H41 C49 1_555 1_555
H42 C49 1_555 1_555
H43 C49 1_555 1_555
C50 H44 1_555 1_555
H45 C50 1_555 1_555
H46 C50 1_555 1_555
C51 H47 1_555 1_555
H48 C51 1_555 1_555
H49 C51 1_555 1_555
C52 H50 1_555 1_555
H51 C52 1_555 1_555
H52 C52 1_555 1_555
Cl1 Na1 1_555 1_555
N1 C1 1_555 1_555
H53 N1 1_555 1_555
N2 C6 1_555 1_555
H54 N2 1_555 1_555
N3 C11 1_555 1_555
H55 N3 1_555 1_555
N4 C16 1_555 1_555
H56 N4 1_555 1_555
N5 C23 1_555 1_555
H57 N5 1_555 1_555
N6 C30 1_555 1_555
N7 C39 1_555 1_555
H58 N7 1_555 1_555
Na1 N6 1_555 1_555
O1 C41 1_555 1_555
O2 C40 1_555 1_555
O3 C29 1_555 1_555
O4 C23 1_555 1_555
O5 C52 1_555 1_555
C53 H59 1_555 1_555
H60 C53 1_555 1_555
Cl2 C53 1_555 1_555
Cl3 C53 1_555 1_555
C54 H61 1_555 1_555
H62 C54 1_555 1_555
Cl4 C54 1_555 1_555
Cl5 C54 1_555 1_555
C4 N1 1_555 1_555
C9 N2 1_555 1_555
C14 N3 1_555 1_555
C19 C20 1_555 1_555
C19 N4 1_555 1_555
C24 N5 1_555 1_555
C28 C29 1_555 1_555
C34 N6 1_555 1_555
C39 C40 1_555 1_555
C41 N7 1_555 1_555
C42 C43 1_555 1_555
C50 O3 1_555 1_555
C51 O2 1_555 1_555
Na1 O2 1_555 1_555
Na1 O3 1_555 1_555
Na1 O4 1_555 1_555
Na1 O5 1_555 1_555

#END
