
#######################################################################
#
#                 Cambridge Crystallographic Data Centre
#                                CCDC 
#
#######################################################################
#
# If this CIF has been generated from an entry in the Cambridge 
# Structural Database, then it will include bibliographic, chemical, 
# crystal, experimental, refinement or atomic coordinate data resulting 
# from the CCDC's data processing and validation procedures.
#
#######################################################################

data_QIFQON
_chemical_formula_moiety         'C16 H18 Cl1 N1 O4'
_chemical_name_systematic        
4-(2-Chlorophenyl)-5-nitro-1-oxaspiro[5.5]undecan-2-one
_symmetry_cell_setting           orthorhombic
_symmetry_space_group_name_H-M   'P 21 21 21'
_symmetry_Int_Tables_number      19
_space_group_name_Hall           'P 2ac 2ab'
loop_
_symmetry_equiv_pos_site_id
_symmetry_equiv_pos_as_xyz
1 x,y,z
2 1/2-x,-y,1/2+z
3 -x,1/2+y,1/2-z
4 1/2+x,1/2-y,-z
_cell_length_a                   11.3247(6)
_cell_length_b                   13.2021(7)
_cell_length_c                   21.0022(12)
_cell_angle_alpha                90
_cell_angle_beta                 90
_cell_angle_gamma                90
_cell_volume                     3140.04
_exptl_crystal_colour            colorless
_exptl_crystal_description       block
_cell_formula_units_Z            8
loop_
_atom_site_label
_atom_site_type_symbol
_atom_site_fract_x
_atom_site_fract_y
_atom_site_fract_z
C1 C 0.4643(2) 0.3894(2) 0.06306(12)
C2 C 0.5721(3) 0.3522(2) 0.04130(14)
C3 C 0.5951(3) 0.2508(3) 0.03646(16)
H1 H 0.6690 0.2290 0.0228
C4 C 0.5096(4) 0.1810(3) 0.05163(17)
H2 H 0.5249 0.1120 0.0478
C5 C 0.4017(4) 0.2141(3) 0.07249(18)
H3 H 0.3429 0.1676 0.0826
C6 C 0.3800(3) 0.3171(2) 0.07854(16)
H4 H 0.3067 0.3383 0.0934
C7 C 0.4404(2) 0.5024(2) 0.06608(12)
H5 H 0.5155 0.5343 0.0776
C8 C 0.3514(3) 0.5353(3) 0.11671(15)
H6 H 0.2948 0.4808 0.1220
H7 H 0.3935 0.5422 0.1567
C9 C 0.2835(2) 0.6314(2) 0.10569(13)
C10 C 0.3825(2) 0.6585(2) 0.00248(12)
C11 C 0.4070(2) 0.54477(19) 0.00060(12)
H8 H 0.4739 0.5335 -0.0281
C12 C 0.3279(3) 0.6966(2) -0.05965(14)
H9 H 0.2507 0.6660 -0.0649
H10 H 0.3769 0.6748 -0.0950
C13 C 0.3151(3) 0.8119(3) -0.06199(19)
H11 H 0.2859 0.8320 -0.1036
H12 H 0.2579 0.8334 -0.0304
C14 C 0.4330(3) 0.8638(3) -0.0492(2)
H13 H 0.4881 0.8473 -0.0830
H14 H 0.4220 0.9367 -0.0490
C15 C 0.4829(3) 0.8303(2) 0.01388(19)
H15 H 0.4305 0.8516 0.0479
H16 H 0.5589 0.8624 0.0206
C16 C 0.4976(2) 0.7154(2) 0.01622(15)
H17 H 0.5262 0.6961 0.0580
H18 H 0.5567 0.6953 -0.0148
Cl1 Cl 0.68313(7) 0.43671(8) 0.01866(5)
N1 N 0.3030(2) 0.48534(17) -0.02486(11)
O1 O 0.20953(17) 0.49147(17) 0.00359(12)
O2 O 0.3197(2) 0.4315(2) -0.07066(11)
O3 O 0.2149(2) 0.66159(19) 0.14410(11)
O4 O 0.29777(17) 0.68438(14) 0.05236(9)
C17 C 0.5445(2) 0.3871(2) 0.29371(13)
C18 C 0.4626(3) 0.3193(2) 0.27064(15)
C19 C 0.3423(3) 0.3358(3) 0.27359(19)
H19 H 0.2898 0.2881 0.2575
C20 C 0.3017(3) 0.4230(3) 0.30034(17)
H20 H 0.2210 0.4355 0.3024
C21 C 0.3799(3) 0.4925(3) 0.32424(17)
H21 H 0.3523 0.5519 0.3427
C22 C 0.4997(3) 0.4741(2) 0.32084(14)
H22 H 0.5517 0.5218 0.3373
C23 C 0.6765(3) 0.3657(2) 0.28805(12)
H23 H 0.6848 0.2921 0.2921
C24 C 0.7535(3) 0.4108(3) 0.33996(13)
H24 H 0.7301 0.4807 0.3463
H25 H 0.7377 0.3749 0.3793
C25 C 0.8840(3) 0.4082(3) 0.32798(14)
C26 C 0.8554(2) 0.3582(3) 0.21525(13)
C27 C 0.7265(2) 0.3926(2) 0.22222(12)
H26 H 0.6798 0.3562 0.1903
C28 C 0.8590(3) 0.2430(3) 0.20808(16)
H27 H 0.8259 0.2123 0.2461
H28 H 0.8098 0.2235 0.1723
C29 C 0.9825(4) 0.2023(4) 0.1978(2)
H29 H 0.9789 0.1297 0.1911
H30 H 1.0297 0.2148 0.2355
C30 C 1.0409(4) 0.2523(4) 0.1406(2)
H31 H 1.1216 0.2284 0.1368
H32 H 0.9989 0.2334 0.1021
C31 C 1.0407(3) 0.3661(4) 0.1472(2)
H33 H 1.0729 0.3960 0.1088
H34 H 1.0914 0.3851 0.1825
C32 C 0.9168(3) 0.4081(3) 0.15873(16)
H35 H 0.9221 0.4805 0.1663
H36 H 0.8695 0.3978 0.1208
Cl2 Cl 0.51056(9) 0.20571(7) 0.23605(5)
N2 N 0.7109(2) 0.5042(2) 0.21032(11)
O5 O 0.7675(2) 0.56348(19) 0.24208(14)
O6 O 0.6413(2) 0.5293(2) 0.17006(12)
O7 O 0.9535(2) 0.4283(3) 0.36864(12)
O8 O 0.92561(18) 0.38581(19) 0.27044(10)
loop_
_geom_bond_atom_site_label_1
_geom_bond_atom_site_label_2
_geom_bond_site_symmetry_1
_geom_bond_site_symmetry_2
C1 C2 1_555 1_555
C2 C3 1_555 1_555
C3 H1 1_555 1_555
C4 C3 1_555 1_555
H2 C4 1_555 1_555
C5 C4 1_555 1_555
H3 C5 1_555 1_555
C6 C1 1_555 1_555
H4 C6 1_555 1_555
C7 C1 1_555 1_555
H5 C7 1_555 1_555
C8 C7 1_555 1_555
H6 C8 1_555 1_555
H7 C8 1_555 1_555
C9 C8 1_555 1_555
C10 C11 1_555 1_555
C11 C7 1_555 1_555
H8 C11 1_555 1_555
C12 C10 1_555 1_555
H9 C12 1_555 1_555
H10 C12 1_555 1_555
C13 C12 1_555 1_555
H11 C13 1_555 1_555
H12 C13 1_555 1_555
C14 C13 1_555 1_555
H13 C14 1_555 1_555
H14 C14 1_555 1_555
C15 C14 1_555 1_555
H15 C15 1_555 1_555
H16 C15 1_555 1_555
C16 C10 1_555 1_555
H17 C16 1_555 1_555
H18 C16 1_555 1_555
Cl1 C2 1_555 1_555
N1 C11 1_555 1_555
O1 N1 1_555 1_555
O2 N1 1_555 1_555
O3 C9 1_555 1_555
O4 C9 1_555 1_555
C17 C18 1_555 1_555
C18 C19 1_555 1_555
C19 H19 1_555 1_555
C20 C19 1_555 1_555
H20 C20 1_555 1_555
C21 C20 1_555 1_555
H21 C21 1_555 1_555
C22 C17 1_555 1_555
H22 C22 1_555 1_555
C23 C17 1_555 1_555
H23 C23 1_555 1_555
C24 C23 1_555 1_555
H24 C24 1_555 1_555
H25 C24 1_555 1_555
C25 C24 1_555 1_555
C26 C27 1_555 1_555
C27 C23 1_555 1_555
H26 C27 1_555 1_555
C28 C26 1_555 1_555
H27 C28 1_555 1_555
H28 C28 1_555 1_555
C29 C28 1_555 1_555
H29 C29 1_555 1_555
H30 C29 1_555 1_555
C30 C29 1_555 1_555
H31 C30 1_555 1_555
H32 C30 1_555 1_555
C31 C30 1_555 1_555
H33 C31 1_555 1_555
H34 C31 1_555 1_555
C32 C26 1_555 1_555
H35 C32 1_555 1_555
H36 C32 1_555 1_555
Cl2 C18 1_555 1_555
N2 C27 1_555 1_555
O5 N2 1_555 1_555
O6 N2 1_555 1_555
O7 C25 1_555 1_555
O8 C25 1_555 1_555
C5 C6 1_555 1_555
C10 O4 1_555 1_555
C15 C16 1_555 1_555
C21 C22 1_555 1_555
C26 O8 1_555 1_555
C31 C32 1_555 1_555

#END
