
#######################################################################
#
#                 Cambridge Crystallographic Data Centre
#                                CCDC 
#
#######################################################################
#
# If this CIF has been generated from an entry in the Cambridge 
# Structural Database, then it will include bibliographic, chemical, 
# crystal, experimental, refinement or atomic coordinate data resulting 
# from the CCDC's data processing and validation procedures.
#
#######################################################################

data_QIHBIV
_chemical_formula_moiety         'C56 H72 N4 P2 Se3,0.375(C6 H14)'
_chemical_name_systematic        
'5,6-bis{1,3-bis[2,6-diisopropylphenyl]-1,3-dihydro-2H-imidazol-2-ylidene}-2,3-diselena-1,4-diphosphabicyclo[2.1.1]hexane-1-selone hexane solvate'
_symmetry_cell_setting           monoclinic
_symmetry_space_group_name_H-M   'P 21/c'
_symmetry_Int_Tables_number      14
_space_group_name_Hall           '-P 2ybc'
loop_
_symmetry_equiv_pos_site_id
_symmetry_equiv_pos_as_xyz
1 x,y,z
2 -x,1/2+y,1/2-z
3 -x,-y,-z
4 x,1/2-y,1/2+z
_cell_length_a                   22.5770(2)
_cell_length_b                   21.81947(19)
_cell_length_c                   25.4025(2)
_cell_angle_alpha                90
_cell_angle_beta                 103.6486(9)
_cell_angle_gamma                90
_cell_volume                     12160.4
_exptl_crystal_colour            yellow
_exptl_crystal_description       block
_cell_formula_units_Z            8
loop_
_atom_site_label
_atom_site_type_symbol
_atom_site_fract_x
_atom_site_fract_y
_atom_site_fract_z
Se1 Se 0.53356(2) 0.63663(2) 0.37733(2)
Se2 Se 0.54907(2) 0.74107(2) 0.39319(2)
Se3 Se 0.69200(2) 0.81493(2) 0.44477(2)
P1 P 0.65502(4) 0.72976(4) 0.41769(3)
P2 P 0.64410(4) 0.61645(4) 0.39121(3)
N1 N 0.65642(13) 0.57729(13) 0.51703(11)
N2 N 0.64681(13) 0.66974(13) 0.54748(10)
N3 N 0.67290(14) 0.75104(13) 0.28309(11)
N4 N 0.65021(14) 0.65427(14) 0.26594(11)
C1 C 0.65569(14) 0.63825(15) 0.50293(12)
C2 C 0.66369(14) 0.65998(15) 0.45334(12)
C3 C 0.64874(16) 0.73503(15) 0.55713(12)
C4 C 0.66166(14) 0.69690(15) 0.30718(12)
C5 C 0.66470(15) 0.68558(15) 0.36205(13)
C6 C 0.63920(17) 0.48645(16) 0.45777(14)
C7 C 0.64421(16) 0.58874(16) 0.27151(13)
C8 C 0.67991(17) 0.52737(15) 0.48986(14)
C9 C 0.57066(17) 0.48912(16) 0.45258(14)
H1 H 0.5602 0.5312 0.4631
C10 C 0.59379(16) 0.76753(16) 0.55178(12)
C11 C 0.70654(17) 0.76265(18) 0.57530(13)
C12 C 0.59880(19) 0.82984(17) 0.56425(13)
H2 H 0.5629 0.8538 0.5602
C13 C 0.6434(2) 0.62797(17) 0.58831(14)
H3 H 0.6377 0.6379 0.6232
C14 C 0.53201(17) 0.73721(17) 0.53533(14)
H4 H 0.5346 0.7031 0.5097
C15 C 0.58624(16) 0.56166(16) 0.25564(13)
C16 C 0.69684(17) 0.80747(16) 0.30835(14)
C17 C 0.65615(19) 0.68160(19) 0.21801(14)
H5 H 0.6513 0.6619 0.1839
C18 C 0.65745(18) 0.85737(17) 0.30499(14)
C19 C 0.64942(19) 0.57169(17) 0.56978(14)
H6 H 0.6490 0.5345 0.5891
C20 C 0.6552(2) 0.85736(18) 0.58249(14)
H7 H 0.6573 0.8998 0.5910
C21 C 0.58311(18) 0.49851(18) 0.26172(15)
H8 H 0.5446 0.4788 0.2517
C22 C 0.66983(19) 0.74030(19) 0.22858(14)
H9 H 0.6764 0.7699 0.2031
C23 C 0.52969(17) 0.59816(18) 0.22955(15)
H10 H 0.5353 0.6410 0.2438
C24 C 0.76474(18) 0.7267(2) 0.57952(16)
H11 H 0.7557 0.6931 0.5520
C25 C 0.58971(18) 0.85278(17) 0.28125(15)
H12 H 0.5786 0.8083 0.2790
C26 C 0.7078(2) 0.82448(18) 0.58841(14)
H13 H 0.7459 0.8442 0.6017
C27 C 0.5340(2) 0.4766(2) 0.39468(17)
H14 H 0.5506 0.5011 0.3692
H15 H 0.4913 0.4877 0.3915
H16 H 0.5367 0.4330 0.3863
C28 C 0.66402(19) 0.44021(17) 0.43167(16)
H17 H 0.6376 0.4116 0.4096
C29 C 0.74338(18) 0.52222(17) 0.49815(15)
C30 C 0.69752(17) 0.55447(19) 0.29041(14)
C31 C 0.47129(18) 0.57246(19) 0.24168(16)
H18 H 0.4598 0.5346 0.2211
H19 H 0.4384 0.6026 0.2313
H20 H 0.4782 0.5637 0.2805
C32 C 0.76510(19) 0.47486(19) 0.47079(18)
H21 H 0.8078 0.4700 0.4754
C33 C 0.5520(2) 0.44316(19) 0.49148(18)
H22 H 0.5654 0.4020 0.4842
H23 H 0.5076 0.4436 0.4862
H24 H 0.5711 0.4546 0.5289
C34 C 0.48149(19) 0.7813(2) 0.50713(17)
H25 H 0.4723 0.8101 0.5338
H26 H 0.4447 0.7579 0.4906
H27 H 0.4951 0.8042 0.4789
C35 C 0.69113(19) 0.49160(19) 0.29591(16)
H28 H 0.7263 0.4672 0.3096
C36 C 0.6344(2) 0.46392(19) 0.28182(16)
H29 H 0.6309 0.4209 0.2860
C37 C 0.6840(2) 0.91351(18) 0.32464(16)
H30 H 0.6590 0.9488 0.3227
C38 C 0.7261(2) 0.43504(19) 0.43725(18)
H31 H 0.7419 0.4041 0.4180
C39 C 0.5527(2) 0.88427(19) 0.31644(18)
H32 H 0.5644 0.8677 0.3533
H33 H 0.5092 0.8769 0.3013
H34 H 0.5607 0.9285 0.3173
C40 C 0.78768(18) 0.5631(2) 0.53541(17)
H35 H 0.7635 0.5924 0.5523
C41 C 0.76017(18) 0.5834(2) 0.30205(18)
H36 H 0.7551 0.6283 0.3079
C42 C 0.75967(19) 0.8115(2) 0.33123(17)
C43 C 0.5136(2) 0.7100(2) 0.58491(17)
H37 H 0.5408 0.6759 0.5993
H38 H 0.4715 0.6952 0.5742
H39 H 0.5168 0.7417 0.6128
C44 C 0.7456(2) 0.9184(2) 0.34664(19)
H40 H 0.7626 0.9569 0.3596
C45 C 0.7823(2) 0.8684(2) 0.34991(19)
H41 H 0.8247 0.8727 0.3655
C46 C 0.5720(2) 0.8791(3) 0.22406(17)
H42 H 0.5802 0.9233 0.2254
H43 H 0.5285 0.8719 0.2086
H44 H 0.5960 0.8591 0.2014
C47 C 0.5211(2) 0.6007(3) 0.16799(17)
H45 H 0.5560 0.6217 0.1593
H46 H 0.4836 0.6231 0.1519
H47 H 0.5183 0.5589 0.1534
C48 C 0.7855(2) 0.6967(3) 0.6351(2)
H48 H 0.7951 0.7285 0.6630
H49 H 0.8219 0.6718 0.6360
H50 H 0.7528 0.6705 0.6418
C49 C 0.8258(2) 0.6009(2) 0.5049(2)
H51 H 0.8503 0.5733 0.4880
H52 H 0.8529 0.6283 0.5302
H53 H 0.7988 0.6253 0.4767
C50 C 0.8169(2) 0.7652(3) 0.5675(2)
H54 H 0.8020 0.7882 0.5338
H55 H 0.8502 0.7382 0.5636
H56 H 0.8317 0.7940 0.5973
C51 C 0.8014(2) 0.7563(2) 0.3357(2)
H57 H 0.7747 0.7194 0.3260
C52 C 0.8283(3) 0.5261(3) 0.5813(2)
H58 H 0.8028 0.5042 0.6014
H59 H 0.8559 0.5539 0.6058
H60 H 0.8522 0.4964 0.5660
C53 C 0.7880(2) 0.5765(3) 0.2538(2)
H61 H 0.7922 0.5329 0.2463
H62 H 0.8283 0.5960 0.2617
H63 H 0.7616 0.5961 0.2221
C54 C 0.8392(3) 0.7462(3) 0.3925(3)
H64 H 0.8682 0.7800 0.4026
H65 H 0.8615 0.7074 0.3940
H66 H 0.8123 0.7445 0.4177
C55 C 0.8025(3) 0.5576(4) 0.3535(2)
H67 H 0.7822 0.5598 0.3835
H68 H 0.8402 0.5817 0.3625
H69 H 0.8123 0.5148 0.3474
C56 C 0.8415(3) 0.7595(4) 0.2952(3)
H70 H 0.8156 0.7620 0.2584
H71 H 0.8670 0.7228 0.2986
H72 H 0.8675 0.7960 0.3026
Se4 Se 0.20803(3) 0.83384(3) 0.16924(2)
Se5 Se 0.14912(2) 0.82224(3) 0.35876(2)
Se6 Se 0.18139(3) 0.88639(2) 0.24119(3)
P3 P 0.16882(4) 0.79489(5) 0.28628(4)
P4 P 0.19371(5) 0.73423(6) 0.20779(5)
N5 N 0.33602(13) 0.71959(14) 0.27846(11)
N6 N 0.32507(13) 0.77085(14) 0.34942(11)
N7 N 0.01464(14) 0.76694(17) 0.21994(14)
C57 C 0.29299(16) 0.74922(16) 0.29975(14)
N8 N 0.04360(15) 0.73368(19) 0.14773(14)
C58 C 0.31706(18) 0.86567(19) 0.39783(14)
C59 C 0.39302(17) 0.7224(2) 0.31462(15)
H73 H 0.4299 0.7052 0.3094
C60 C 0.32458(16) 0.67569(16) 0.23506(14)
C61 C 0.30576(17) 0.80274(18) 0.39248(14)
C62 C 0.23102(16) 0.75223(17) 0.27611(15)
C63 C 0.33476(19) 0.69197(18) 0.18504(15)
C64 C 0.34161(19) 0.90290(19) 0.35700(15)
H74 H 0.3326 0.8802 0.3218
C65 C 0.3069(2) 0.5882(2) 0.1562(2)
H75 H 0.3000 0.5579 0.1285
C66 C 0.06609(17) 0.7523(2) 0.20069(16)
C67 C 0.12637(17) 0.75264(19) 0.22980(16)
C68 C 0.3251(2) 0.6463(2) 0.14537(17)
H76 H 0.3312 0.6554 0.1105
C69 C 0.2830(2) 0.7684(2) 0.42976(16)
C70 C 0.01138(18) 0.7766(2) 0.27537(17)
C71 C 0.38593(18) 0.7537(2) 0.35806(15)
H77 H 0.4171 0.7627 0.3894
C72 C 0.2988(2) 0.5737(2) 0.2060(2)
H78 H 0.2868 0.5333 0.2128
C73 C -0.03706(19) 0.7567(3) 0.17885(19)
H79 H -0.0779 0.7636 0.1814
C74 C 0.30751(19) 0.61675(18) 0.24702(18)
C75 C 0.2700(2) 0.7007(2) 0.42226(18)
H80 H 0.2596 0.6920 0.3825
C76 C 0.3055(2) 0.8944(2) 0.44361(17)
H81 H 0.3127 0.9372 0.4486
C77 C 0.3564(3) 0.7548(2) 0.1741(2)
H82 H 0.3398 0.7847 0.1968
C78 C 0.01670(19) 0.7259(2) 0.30950(19)
C79 C -0.02021(19) 0.7356(3) 0.13525(19)
H83 H -0.0467 0.7239 0.1018
C80 C 0.2839(2) 0.8617(2) 0.48163(17)
H84 H 0.2765 0.8820 0.5125
C81 C 0.3125(3) 0.9659(2) 0.34722(18)
H85 H 0.2681 0.9615 0.3362
H86 H 0.3271 0.9867 0.3185
H87 H 0.3235 0.9900 0.3806
C82 C 0.3267(3) 0.6630(2) 0.4482(2)
H88 H 0.3590 0.6713 0.4294
H89 H 0.3165 0.6192 0.4454
H90 H 0.3407 0.6743 0.4865
C83 C 0.2731(2) 0.7996(2) 0.47495(17)
H91 H 0.2587 0.7776 0.5017
C84 C 0.4109(2) 0.9108(3) 0.3760(2)
H92 H 0.4207 0.9313 0.4113
H93 H 0.4256 0.9356 0.3496
H94 H 0.4305 0.8705 0.3792
C85 C 0.2164(3) 0.6799(2) 0.4448(2)
H95 H 0.2257 0.6872 0.4839
H96 H 0.2092 0.6360 0.4376
H97 H 0.1798 0.7030 0.4272
C86 C -0.0015(2) 0.8355(2) 0.2905(2)
C87 C 0.3024(3) 0.5991(2) 0.3042(2)
H98 H 0.3068 0.6381 0.3255
C88 C 0.0106(3) 0.7356(3) 0.3621(2)
H99 H 0.0148 0.7023 0.3869
C89 C 0.4256(3) 0.7589(3) 0.1905(3)
H100 H 0.4397 0.7502 0.2293
H101 H 0.4386 0.8002 0.1830
H102 H 0.4432 0.7288 0.1699
C90 C -0.0093(2) 0.8436(3) 0.3426(2)
H103 H -0.0198 0.8829 0.3539
C91 C 0.0263(2) 0.6618(2) 0.2903(2)
H104 H 0.0344 0.6653 0.2534
C92 C 0.0760(2) 0.7098(3) 0.10902(19)
C93 C -0.0071(3) 0.8899(3) 0.2524(2)
H105 H 0.0074 0.8773 0.2198
C94 C 0.3330(4) 0.7735(3) 0.1147(2)
H106 H 0.3522 0.7477 0.0918
H107 H 0.3431 0.8166 0.1102
H108 H 0.2887 0.7681 0.1040
C95 C -0.0018(3) 0.7945(3) 0.3785(2)
H109 H -0.0051 0.8010 0.4147
C96 C 0.0961(3) 0.6484(3) 0.1149(3)
C97 C 0.3551(4) 0.5589(3) 0.3313(3)
H110 H 0.3513 0.5189 0.3133
H111 H 0.3547 0.5535 0.3695
H112 H 0.3934 0.5783 0.3287
C98 C 0.0857(3) 0.6089(3) 0.1590(3)
H113 H 0.0901 0.6349 0.1921
C99 C 0.0815(2) 0.7477(3) 0.0663(2)
C100 C 0.0564(3) 0.8100(3) 0.0576(2)
H114 H 0.0514 0.8263 0.0931
C101 C 0.0316(4) 0.9435(3) 0.2794(3)
H115 H 0.0161 0.9580 0.3102
H116 H 0.0295 0.9768 0.2532
H117 H 0.0740 0.9302 0.2923
C102 C 0.1106(3) 0.7197(4) 0.0279(3)
H118 H 0.1151 0.7425 -0.0028
C103 C -0.0316(3) 0.6240(3) 0.2851(4)
H119 H -0.0404 0.6192 0.3208
H120 H -0.0258 0.5835 0.2703
H121 H -0.0657 0.6449 0.2607
C104 C 0.1253(3) 0.6270(4) 0.0761(4)
H122 H 0.1411 0.5865 0.0796
C105 C 0.0815(3) 0.6299(3) 0.3269(3)
H123 H 0.1191 0.6466 0.3196
H124 H 0.0794 0.5858 0.3194
H125 H 0.0812 0.6369 0.3649
C106 C 0.0950(3) 0.8554(5) 0.0343(3)
H126 H 0.1383 0.8478 0.0504
H127 H 0.0847 0.8973 0.0428
H128 H 0.0869 0.8503 -0.0050
C107 C 0.1320(4) 0.6610(5) 0.0342(4)
H129 H 0.1519 0.6441 0.0085
C108 C -0.0085(3) 0.8088(4) 0.0166(3)
H130 H -0.0044 0.7933 -0.0186
H131 H -0.0253 0.8504 0.0122
H132 H -0.0358 0.7820 0.0308
C109 C 0.0208(4) 0.5820(4) 0.1455(4)
H133 H -0.0090 0.6154 0.1372
H134 H 0.0143 0.5588 0.1767
H135 H 0.0157 0.5548 0.1141
C110 C 0.2411(4) 0.5734(4) 0.3055(4)
H136 H 0.2091 0.6018 0.2873
H137 H 0.2386 0.5680 0.3433
H138 H 0.2355 0.5338 0.2869
C111 C 0.1318(4) 0.5550(4) 0.1732(4)
H139 H 0.1223 0.5239 0.1447
H140 H 0.1291 0.5368 0.2078
H141 H 0.1733 0.5704 0.1761
C112 C -0.0738(4) 0.9097(3) 0.2342(3)
H142 H -0.0983 0.8754 0.2160
H143 H -0.0771 0.9443 0.2091
H144 H -0.0886 0.9221 0.2659
C113 C 0.5184(3) 1.0125(2) 0.48111(19)
H145 H 0.4910 1.0181 0.4448
H146 H 0.5342 1.0535 0.4944
C114 C 0.5709(3) 0.9736(3) 0.4755(2)
H147 H 0.5551 0.9328 0.4617
H148 H 0.5981 0.9675 0.5118
C115 C 0.6085(3) 0.9994(3) 0.4379(2)
H149 H 0.5829 1.0026 0.4010
H150 H 0.6430 0.9721 0.4379
H151 H 0.6238 1.0402 0.4506
C113B C 0.4816(3) 0.9875(2) 0.51889(19)
H145B H 0.5090 0.9819 0.5552
H146B H 0.4658 0.9465 0.5056
C114B C 0.4291(3) 1.0264(3) 0.5245(2)
H147B H 0.4449 1.0672 0.5383
H148B H 0.4019 1.0325 0.4882
C115B C 0.3915(3) 1.0006(3) 0.5621(2)
H149B H 0.4171 0.9974 0.5990
H150B H 0.3570 1.0279 0.5621
H151B H 0.3762 0.9598 0.5494
C116 C -0.0073(4) 0.9914(4) 0.0265(4)
H152 H -0.0153 0.9468 0.0263
H153 H -0.0453 1.0127 0.0291
C117 C 0.0421(5) 1.0069(6) 0.0762(5)
H154 H 0.0459 1.0520 0.0798
H155 H 0.0815 0.9906 0.0717
C118 C 0.0287(7) 0.9800(7) 0.1285(5)
H156 H 0.0096 0.9396 0.1207
H157 H 0.0010 1.0074 0.1418
H158 H 0.0669 0.9759 0.1562
C116B C 0.0073(4) 1.0086(4) -0.0265(4)
H152B H 0.0153 1.0532 -0.0263
H153B H 0.0453 0.9873 -0.0291
C117B C -0.0421(5) 0.9931(6) -0.0762(5)
H154B H -0.0459 0.9480 -0.0798
H155B H -0.0815 1.0094 -0.0717
C118B C -0.0287(7) 1.0200(7) -0.1285(5)
H156B H -0.0096 1.0604 -0.1207
H157B H -0.0010 0.9926 -0.1418
H158B H -0.0669 1.0241 -0.1562
Se7? Se 0.2107(3) 0.7148(6) 0.1266(2)
Se8? Se 0.2084(6) 0.8656(4) 0.1951(5)
Se9? Se 0.1751(4) 0.8852(5) 0.2774(3)
P5? P 0.1858(5) 0.7650(6) 0.1985(4)
loop_
_geom_bond_atom_site_label_1
_geom_bond_atom_site_label_2
_geom_bond_site_symmetry_1
_geom_bond_site_symmetry_2
Se1 Se2 1_555 1_555
Se2 P1 1_555 1_555
Se3 P1 1_555 1_555
P1 C2 1_555 1_555
P2 Se1 1_555 1_555
N1 C1 1_555 1_555
N2 C1 1_555 1_555
N3 C4 1_555 1_555
N4 C4 1_555 1_555
C1 C2 1_555 1_555
C2 P2 1_555 1_555
C3 N2 1_555 1_555
C4 C5 1_555 1_555
C5 P1 1_555 1_555
C6 C8 1_555 1_555
C7 N4 1_555 1_555
C8 N1 1_555 1_555
C9 C6 1_555 1_555
H1 C9 1_555 1_555
C10 C3 1_555 1_555
C11 C3 1_555 1_555
C12 C10 1_555 1_555
H2 C12 1_555 1_555
C13 N2 1_555 1_555
H3 C13 1_555 1_555
C14 C10 1_555 1_555
H4 C14 1_555 1_555
C15 C7 1_555 1_555
C16 N3 1_555 1_555
C17 N4 1_555 1_555
H5 C17 1_555 1_555
C18 C16 1_555 1_555
C19 N1 1_555 1_555
H6 C19 1_555 1_555
C20 C12 1_555 1_555
H7 C20 1_555 1_555
C21 C15 1_555 1_555
H8 C21 1_555 1_555
C22 N3 1_555 1_555
H9 C22 1_555 1_555
C23 C15 1_555 1_555
H10 C23 1_555 1_555
C24 C11 1_555 1_555
H11 C24 1_555 1_555
C25 C18 1_555 1_555
H12 C25 1_555 1_555
C26 C11 1_555 1_555
H13 C26 1_555 1_555
C27 C9 1_555 1_555
H14 C27 1_555 1_555
H15 C27 1_555 1_555
H16 C27 1_555 1_555
C28 C6 1_555 1_555
H17 C28 1_555 1_555
C29 C8 1_555 1_555
C30 C7 1_555 1_555
C31 C23 1_555 1_555
H18 C31 1_555 1_555
H19 C31 1_555 1_555
H20 C31 1_555 1_555
C32 C29 1_555 1_555
H21 C32 1_555 1_555
C33 C9 1_555 1_555
H22 C33 1_555 1_555
H23 C33 1_555 1_555
H24 C33 1_555 1_555
C34 C14 1_555 1_555
H25 C34 1_555 1_555
H26 C34 1_555 1_555
H27 C34 1_555 1_555
C35 C30 1_555 1_555
H28 C35 1_555 1_555
C36 C21 1_555 1_555
H29 C36 1_555 1_555
C37 C18 1_555 1_555
H30 C37 1_555 1_555
C38 C28 1_555 1_555
H31 C38 1_555 1_555
C39 C25 1_555 1_555
H32 C39 1_555 1_555
H33 C39 1_555 1_555
H34 C39 1_555 1_555
C40 C29 1_555 1_555
H35 C40 1_555 1_555
C41 C30 1_555 1_555
H36 C41 1_555 1_555
C42 C16 1_555 1_555
C43 C14 1_555 1_555
H37 C43 1_555 1_555
H38 C43 1_555 1_555
H39 C43 1_555 1_555
C44 C37 1_555 1_555
H40 C44 1_555 1_555
C45 C42 1_555 1_555
H41 C45 1_555 1_555
C46 C25 1_555 1_555
H42 C46 1_555 1_555
H43 C46 1_555 1_555
H44 C46 1_555 1_555
C47 C23 1_555 1_555
H45 C47 1_555 1_555
H46 C47 1_555 1_555
H47 C47 1_555 1_555
C48 C24 1_555 1_555
H48 C48 1_555 1_555
H49 C48 1_555 1_555
H50 C48 1_555 1_555
C49 C40 1_555 1_555
H51 C49 1_555 1_555
H52 C49 1_555 1_555
H53 C49 1_555 1_555
C50 C24 1_555 1_555
H54 C50 1_555 1_555
H55 C50 1_555 1_555
H56 C50 1_555 1_555
C51 C42 1_555 1_555
H57 C51 1_555 1_555
C52 C40 1_555 1_555
H58 C52 1_555 1_555
H59 C52 1_555 1_555
H60 C52 1_555 1_555
C53 C41 1_555 1_555
H61 C53 1_555 1_555
H62 C53 1_555 1_555
H63 C53 1_555 1_555
C54 C51 1_555 1_555
H64 C54 1_555 1_555
H65 C54 1_555 1_555
H66 C54 1_555 1_555
C55 C41 1_555 1_555
H67 C55 1_555 1_555
H68 C55 1_555 1_555
H69 C55 1_555 1_555
C56 C51 1_555 1_555
H70 C56 1_555 1_555
H71 C56 1_555 1_555
H72 C56 1_555 1_555
Se4 Se6 1_555 1_555
Se5 P3 1_555 1_555
Se6 P3 1_555 1_555
P3 C62 1_555 1_555
P4 Se4 1_555 1_555
N5 C57 1_555 1_555
N6 C57 1_555 1_555
N7 C66 1_555 1_555
C57 C62 1_555 1_555
N8 C66 1_555 1_555
C58 C61 1_555 1_555
C59 N5 1_555 1_555
H73 C59 1_555 1_555
C60 N5 1_555 1_555
C61 N6 1_555 1_555
C62 P4 1_555 1_555
C63 C60 1_555 1_555
C64 C58 1_555 1_555
H74 C64 1_555 1_555
C65 H75 1_555 1_555
C66 C67 1_555 1_555
C67 P3 1_555 1_555
C68 C63 1_555 1_555
H76 C68 1_555 1_555
C69 C61 1_555 1_555
C70 N7 1_555 1_555
C71 N6 1_555 1_555
H77 C71 1_555 1_555
C72 C65 1_555 1_555
H78 C72 1_555 1_555
C73 N7 1_555 1_555
H79 C73 1_555 1_555
C74 C60 1_555 1_555
C75 C69 1_555 1_555
H80 C75 1_555 1_555
C76 C58 1_555 1_555
H81 C76 1_555 1_555
C77 C63 1_555 1_555
H82 C77 1_555 1_555
C78 C70 1_555 1_555
C79 N8 1_555 1_555
H83 C79 1_555 1_555
C80 C76 1_555 1_555
H84 C80 1_555 1_555
C81 C64 1_555 1_555
H85 C81 1_555 1_555
H86 C81 1_555 1_555
H87 C81 1_555 1_555
C82 C75 1_555 1_555
H88 C82 1_555 1_555
H89 C82 1_555 1_555
H90 C82 1_555 1_555
C83 C69 1_555 1_555
H91 C83 1_555 1_555
C84 C64 1_555 1_555
H92 C84 1_555 1_555
H93 C84 1_555 1_555
H94 C84 1_555 1_555
C85 C75 1_555 1_555
H95 C85 1_555 1_555
H96 C85 1_555 1_555
H97 C85 1_555 1_555
C86 C70 1_555 1_555
C87 C74 1_555 1_555
H98 C87 1_555 1_555
C88 C78 1_555 1_555
H99 C88 1_555 1_555
C89 C77 1_555 1_555
H100 C89 1_555 1_555
H101 C89 1_555 1_555
H102 C89 1_555 1_555
C90 C86 1_555 1_555
H103 C90 1_555 1_555
C91 C78 1_555 1_555
H104 C91 1_555 1_555
C92 N8 1_555 1_555
C93 C86 1_555 1_555
H105 C93 1_555 1_555
C94 C77 1_555 1_555
H106 C94 1_555 1_555
H107 C94 1_555 1_555
H108 C94 1_555 1_555
C95 C88 1_555 1_555
H109 C95 1_555 1_555
C96 C92 1_555 1_555
C97 C87 1_555 1_555
H110 C97 1_555 1_555
H111 C97 1_555 1_555
H112 C97 1_555 1_555
C98 C96 1_555 1_555
H113 C98 1_555 1_555
C99 C92 1_555 1_555
C100 C99 1_555 1_555
H114 C100 1_555 1_555
C101 C93 1_555 1_555
H115 C101 1_555 1_555
H116 C101 1_555 1_555
H117 C101 1_555 1_555
C102 C99 1_555 1_555
H118 C102 1_555 1_555
C103 C91 1_555 1_555
H119 C103 1_555 1_555
H120 C103 1_555 1_555
H121 C103 1_555 1_555
C104 C96 1_555 1_555
H122 C104 1_555 1_555
C105 C91 1_555 1_555
H123 C105 1_555 1_555
H124 C105 1_555 1_555
H125 C105 1_555 1_555
C106 C100 1_555 1_555
H126 C106 1_555 1_555
H127 C106 1_555 1_555
H128 C106 1_555 1_555
C107 C102 1_555 1_555
H129 C107 1_555 1_555
C108 C100 1_555 1_555
H130 C108 1_555 1_555
H131 C108 1_555 1_555
H132 C108 1_555 1_555
C109 C98 1_555 1_555
H133 C109 1_555 1_555
H134 C109 1_555 1_555
H135 C109 1_555 1_555
C110 C87 1_555 1_555
H136 C110 1_555 1_555
H137 C110 1_555 1_555
H138 C110 1_555 1_555
C111 C98 1_555 1_555
H139 C111 1_555 1_555
H140 C111 1_555 1_555
H141 C111 1_555 1_555
C112 C93 1_555 1_555
H142 C112 1_555 1_555
H143 C112 1_555 1_555
H144 C112 1_555 1_555
C113 H145 1_555 1_555
H146 C113 1_555 1_555
C114 C113 1_555 1_555
H147 C114 1_555 1_555
H148 C114 1_555 1_555
C115 C114 1_555 1_555
H149 C115 1_555 1_555
H150 C115 1_555 1_555
H151 C115 1_555 1_555
C116 H152 1_555 1_555
H153 C116 1_555 1_555
C117 C116 1_555 1_555
H154 C117 1_555 1_555
H155 C117 1_555 1_555
C118 C117 1_555 1_555
H156 C118 1_555 1_555
H157 C118 1_555 1_555
H158 C118 1_555 1_555
C113B C113 1_555 1_555
H145B C113B 1_555 1_555
H146B C113B 1_555 1_555
C114B C113B 1_555 1_555
H147B C114B 1_555 1_555
H148B C114B 1_555 1_555
C115B C114B 1_555 1_555
H149B C115B 1_555 1_555
H150B C115B 1_555 1_555
H151B C115B 1_555 1_555
C116B C116 1_555 1_555
H152B C116B 1_555 1_555
H153B C116B 1_555 1_555
C117B C116B 1_555 1_555
H154B C117B 1_555 1_555
H155B C117B 1_555 1_555
C118B C117B 1_555 1_555
H156B C118B 1_555 1_555
H157B C118B 1_555 1_555
H158B C118B 1_555 1_555
P2 C5 1_555 1_555
C13 C19 1_555 1_555
C17 C22 1_555 1_555
C20 C26 1_555 1_555
C32 C38 1_555 1_555
C35 C36 1_555 1_555
C44 C45 1_555 1_555
P4 C67 1_555 1_555
C59 C71 1_555 1_555
C65 C68 1_555 1_555
C72 C74 1_555 1_555
C73 C79 1_555 1_555
C80 C83 1_555 1_555
C90 C95 1_555 1_555
C104 C107 1_555 1_555

#END
