
#######################################################################
#
#                 Cambridge Crystallographic Data Centre
#                                CCDC 
#
#######################################################################
#
# If this CIF has been generated from an entry in the Cambridge 
# Structural Database, then it will include bibliographic, chemical, 
# crystal, experimental, refinement or atomic coordinate data resulting 
# from the CCDC's data processing and validation procedures.
#
#######################################################################

data_QIHDOD
_chemical_formula_moiety         'C13 H10 F3 N1 O2 S1,H2 O1'
_chemical_name_systematic        
'1-(4-hydroxy-2-(methylsulfanyl)-6-(trifluoromethyl)quinolin-3-yl)ethan-1-one monohydrate'
_chemical_properties_biological  'antibacterial activity'
_symmetry_cell_setting           monoclinic
_symmetry_space_group_name_H-M   'P 21/n'
_symmetry_Int_Tables_number      14
_space_group_name_Hall           '-P 2yn'
loop_
_symmetry_equiv_pos_site_id
_symmetry_equiv_pos_as_xyz
1 x,y,z
2 1/2-x,1/2+y,1/2-z
3 -x,-y,-z
4 1/2+x,1/2-y,1/2+z
_cell_length_a                   4.6964(6)
_cell_length_b                   16.416(2)
_cell_length_c                   18.198(2)
_cell_angle_alpha                90
_cell_angle_beta                 94.200(13)
_cell_angle_gamma                90
_cell_volume                     1399.23
_exptl_crystal_colour            colorless
_exptl_crystal_description       block
_chemical_melting_point          '155-157 deg.C'
_cell_formula_units_Z            4
_exptl_crystal_recrystallization_method ethanol/water
loop_
_atom_site_label
_atom_site_type_symbol
_atom_site_fract_x
_atom_site_fract_y
_atom_site_fract_z
S1 S 0.1830(3) 0.98712(7) 0.58808(7)
F1 F 1.1359(7) 1.1080(3) 1.00289(16)
F2 F 1.3351(8) 1.19233(16) 0.93387(18)
F3 F 1.5121(6) 1.07583(16) 0.95498(16)
O1 O -0.0361(7) 1.1435(2) 0.5926(2)
O2 O 0.5343(6) 1.23046(14) 0.74408(16)
N1 N 0.5579(7) 0.98658(18) 0.70484(18)
C1 C 0.3866(8) 1.0342(2) 0.6606(2)
C2 C 0.3760(8) 1.1182(2) 0.6710(2)
C3 C 0.5446(8) 1.1559(2) 0.7298(2)
C4 C 0.7355(8) 1.1024(2) 0.7750(2)
C5 C 0.7379(8) 1.0187(2) 0.7613(2)
C6 C 0.9191(9) 0.9675(2) 0.8043(2)
H1 H 0.9202 0.9118 0.7948
C7 C 1.0965(9) 0.9993(2) 0.8608(2)
H2 H 1.2188 0.9651 0.8890
C8 C 1.0931(9) 1.0825(2) 0.8758(2)
C9 C 0.9137(8) 1.1328(2) 0.8335(2)
H3 H 0.9109 1.1882 0.8440
C10 C 0.1946(10) 1.1687(2) 0.6178(2)
C11 C 0.3049(12) 1.2471(3) 0.5905(3)
H4 H 0.2617 1.2509 0.5383
H5 H 0.5079 1.2496 0.6013
H6 H 0.2163 1.2916 0.6145
C12 C 0.3871(12) 0.8970(3) 0.5717(3)
H7 H 0.3178 0.8728 0.5258
H8 H 0.3677 0.8588 0.6110
H9 H 0.5845 0.9113 0.5696
C13 C 1.2672(10) 1.1155(3) 0.9415(2)
O3 O 1.0299(7) 1.32328(16) 0.7575(2)
H10 H 0.8876 1.2920 0.7482
H11 H 1.1833 1.2972 0.7520
loop_
_geom_bond_atom_site_label_1
_geom_bond_atom_site_label_2
_geom_bond_site_symmetry_1
_geom_bond_site_symmetry_2
S1 C1 1_555 1_555
F1 C13 1_555 1_555
F2 C13 1_555 1_555
F3 C13 1_555 1_555
O1 C10 1_555 1_555
O2 C3 1_555 1_555
N1 C1 1_555 1_555
C1 C2 1_555 1_555
C2 C3 1_555 1_555
C3 C4 1_555 1_555
C4 C5 1_555 1_555
C5 N1 1_555 1_555
C6 C5 1_555 1_555
H1 C6 1_555 1_555
C7 C6 1_555 1_555
H2 C7 1_555 1_555
C8 C7 1_555 1_555
C9 C4 1_555 1_555
H3 C9 1_555 1_555
C10 C2 1_555 1_555
C11 C10 1_555 1_555
H4 C11 1_555 1_555
H5 C11 1_555 1_555
H6 C11 1_555 1_555
C12 S1 1_555 1_555
H7 C12 1_555 1_555
H8 C12 1_555 1_555
H9 C12 1_555 1_555
C13 C8 1_555 1_555
O3 H10 1_555 1_555
H11 O3 1_555 1_555
C8 C9 1_555 1_555

#END
