
#######################################################################
#
#                 Cambridge Crystallographic Data Centre
#                                CCDC 
#
#######################################################################
#
# If this CIF has been generated from an entry in the Cambridge 
# Structural Database, then it will include bibliographic, chemical, 
# crystal, experimental, refinement or atomic coordinate data resulting 
# from the CCDC's data processing and validation procedures.
#
#######################################################################

data_QIHLOL
_chemical_formula_moiety         'C20 H26 Cl1 N5 O3 S1'
_chemical_name_systematic        
'1-(2-azido-3-((2-chlorophenyl)(methyl)amino)propanoyl)-8,8-dimethylhexahydro-3a,6-methano-2,1-benzothiazole 2,2-dioxide'
_symmetry_cell_setting           orthorhombic
_symmetry_space_group_name_H-M   'C 2 2 21'
_symmetry_Int_Tables_number      20
_space_group_name_Hall           'C 2n 2'
loop_
_symmetry_equiv_pos_site_id
_symmetry_equiv_pos_as_xyz
1 x,y,z
2 -x,-y,1/2+z
3 x,-y,-z
4 -x,y,1/2-z
5 1/2+x,1/2+y,z
6 1/2-x,1/2-y,1/2+z
7 1/2+x,1/2-y,-z
8 1/2-x,1/2+y,1/2-z
_cell_length_a                   11.7543(4)
_cell_length_b                   11.5026(4)
_cell_length_c                   32.3951(9)
_cell_angle_alpha                90
_cell_angle_beta                 90
_cell_angle_gamma                90
_cell_volume                     4379.98
_exptl_crystal_colour            colorless
_exptl_crystal_description       block
_cell_formula_units_Z            8
loop_
_atom_site_label
_atom_site_type_symbol
_atom_site_fract_x
_atom_site_fract_y
_atom_site_fract_z
Cl1 Cl -0.04099(12) 0.32512(16) 0.57838(5)
S1 S 0.55842(9) 0.42344(10) 0.61273(3)
O1 O 0.3763(3) 0.6649(3) 0.65985(10)
O2 O 0.5322(3) 0.4496(3) 0.57101(9)
O3 O 0.5180(3) 0.3155(3) 0.62854(11)
N1 N 0.5124(3) 0.5342(3) 0.64296(11)
N2 N 0.2312(3) 0.4611(3) 0.66120(11)
N3 N 0.1676(3) 0.5352(4) 0.67382(12)
N4 N 0.1025(4) 0.5961(5) 0.68825(16)
N5 N 0.1483(3) 0.4986(3) 0.57662(10)
C1 C 0.7257(4) 0.4931(4) 0.70245(13)
C2 C 0.6321(5) 0.4104(5) 0.71736(15)
H1 H 0.5589 0.4425 0.7107
H2 H 0.6380 0.4005 0.7467
H3 H 0.6406 0.3364 0.7040
C3 C 0.8411(5) 0.4348(5) 0.71235(16)
H4 H 0.8503 0.3669 0.6954
H5 H 0.8429 0.4128 0.7409
H6 H 0.9017 0.4885 0.7068
C4 C 0.7160(4) 0.6184(4) 0.71906(14)
H7 H 0.7212 0.6242 0.7492
C5 C 0.6006(4) 0.6577(4) 0.70133(13)
H8 H 0.5932 0.7417 0.7018
H9 H 0.5376 0.6233 0.7163
C6 C 0.8112(4) 0.6822(4) 0.69611(15)
H10 H 0.7938 0.7643 0.6932
H11 H 0.8832 0.6740 0.7105
C7 C 0.8150(4) 0.6223(4) 0.65394(15)
H12 H 0.8870 0.5827 0.6497
H13 H 0.8031 0.6775 0.6317
C8 C 0.7154(4) 0.5347(4) 0.65687(12)
C9 C 0.6076(3) 0.6108(3) 0.65661(12)
H14 H 0.6169 0.6754 0.6372
C10 C 0.7059(4) 0.4447(5) 0.62294(15)
H15 H 0.7406 0.3722 0.6316
H16 H 0.7445 0.4716 0.5983
C11 C 0.0639(5) 0.5758(5) 0.55706(15)
H17 H 0.0998 0.6194 0.5354
H18 H 0.0337 0.6282 0.5773
H19 H 0.0033 0.5299 0.5457
C12 C 0.4008(4) 0.5717(4) 0.64420(13)
C13 C 0.3072(4) 0.4952(4) 0.62697(13)
H20 H 0.3413 0.4252 0.6150
C14 C 0.2447(4) 0.5622(4) 0.59299(13)
H21 H 0.2184 0.6358 0.6040
H22 H 0.2974 0.5788 0.5707
C15 C 0.1709(4) 0.3942(4) 0.55588(12)
C16 C 0.0881(4) 0.3074(5) 0.55341(14)
C17 C 0.1063(6) 0.2037(5) 0.53367(17)
H23 H 0.0489 0.1482 0.5325
C18 C 0.2096(7) 0.1826(5) 0.51578(19)
H24 H 0.2220 0.1132 0.5017
C19 C 0.2941(5) 0.2626(6) 0.51846(16)
H25 H 0.3651 0.2464 0.5071
C20 C 0.2756(4) 0.3685(5) 0.53797(14)
H26 H 0.3339 0.4230 0.5391
loop_
_geom_bond_atom_site_label_1
_geom_bond_atom_site_label_2
_geom_bond_site_symmetry_1
_geom_bond_site_symmetry_2
Cl1 C16 1_555 1_555
S1 O2 1_555 1_555
O1 C12 1_555 1_555
O3 S1 1_555 1_555
N1 S1 1_555 1_555
N2 N3 1_555 1_555
N3 N4 1_555 1_555
N5 C11 1_555 1_555
C1 C2 1_555 1_555
C2 H1 1_555 1_555
H2 C2 1_555 1_555
H3 C2 1_555 1_555
C3 C1 1_555 1_555
H4 C3 1_555 1_555
H5 C3 1_555 1_555
H6 C3 1_555 1_555
C4 C1 1_555 1_555
H7 C4 1_555 1_555
C5 C4 1_555 1_555
H8 C5 1_555 1_555
H9 C5 1_555 1_555
C6 C4 1_555 1_555
H10 C6 1_555 1_555
H11 C6 1_555 1_555
C7 C6 1_555 1_555
H12 C7 1_555 1_555
H13 C7 1_555 1_555
C8 C1 1_555 1_555
C9 N1 1_555 1_555
H14 C9 1_555 1_555
C10 S1 1_555 1_555
H15 C10 1_555 1_555
H16 C10 1_555 1_555
C11 H17 1_555 1_555
H18 C11 1_555 1_555
H19 C11 1_555 1_555
C12 N1 1_555 1_555
C13 N2 1_555 1_555
H20 C13 1_555 1_555
C14 N5 1_555 1_555
H21 C14 1_555 1_555
H22 C14 1_555 1_555
C15 N5 1_555 1_555
C16 C15 1_555 1_555
C17 C16 1_555 1_555
H23 C17 1_555 1_555
C18 C17 1_555 1_555
H24 C18 1_555 1_555
C19 C18 1_555 1_555
H25 C19 1_555 1_555
C20 C15 1_555 1_555
H26 C20 1_555 1_555
C5 C9 1_555 1_555
C7 C8 1_555 1_555
C8 C9 1_555 1_555
C8 C10 1_555 1_555
C12 C13 1_555 1_555
C13 C14 1_555 1_555
C19 C20 1_555 1_555

#END
