
#######################################################################
#
#                 Cambridge Crystallographic Data Centre
#                                CCDC 
#
#######################################################################
#
# If this CIF has been generated from an entry in the Cambridge 
# Structural Database, then it will include bibliographic, chemical, 
# crystal, experimental, refinement or atomic coordinate data resulting 
# from the CCDC's data processing and validation procedures.
#
#######################################################################

data_QIHZAK
_chemical_formula_moiety         'C10 H30 B11 N1'
_chemical_name_systematic        
nido-7-(N-ethylethanamine)-\mH-1,3-(butane-1,4-diyl)-1,3-dicarba-dodecaborane
_symmetry_cell_setting           monoclinic
_symmetry_space_group_name_H-M   'P 21/c'
_symmetry_Int_Tables_number      14
_space_group_name_Hall           '-P 2ybc'
loop_
_symmetry_equiv_pos_site_id
_symmetry_equiv_pos_as_xyz
1 x,y,z
2 -x,1/2+y,1/2-z
3 -x,-y,-z
4 x,1/2-y,1/2+z
_cell_length_a                   7.4647(12)
_cell_length_b                   14.673(2)
_cell_length_c                   16.269(3)
_cell_angle_alpha                90
_cell_angle_beta                 94.198(3)
_cell_angle_gamma                90
_cell_volume                     1777.16
_exptl_crystal_colour            colorless
_exptl_crystal_description       block
_cell_formula_units_Z            4
loop_
_atom_site_label
_atom_site_type_symbol
_atom_site_fract_x
_atom_site_fract_y
_atom_site_fract_z
N1 N 0.34852(17) 0.13105(8) 0.43509(7)
H1 H 0.4252 0.1040 0.4738
C1 C 0.2458(2) 0.01030(10) 0.20083(8)
C2 C 0.07102(19) -0.01527(11) 0.24298(9)
C3 C 0.2308(3) 0.05513(13) 0.11464(10)
H2 H 0.3352 0.0933 0.1088
H3 H 0.2300 0.0080 0.0728
C4 C 0.0641(4) 0.11178(19) 0.10095(14)
H4 H 0.0520 0.1316 0.0439
H5 H 0.0760 0.1657 0.1354
C5 C -0.1022(3) 0.0609(2) 0.12014(14)
H6 H -0.1131 0.0063 0.0866
H7 H -0.2067 0.0987 0.1062
C6 C -0.0980(2) 0.03480(15) 0.21024(11)
H8 H -0.2011 -0.0035 0.2184
H9 H -0.1100 0.0897 0.2426
C7 C 0.4478(3) 0.21217(12) 0.40374(10)
H10 H 0.5563 0.1907 0.3807
H11 H 0.3733 0.2404 0.3595
C8 C 0.4986(3) 0.28344(13) 0.46781(12)
H12 H 0.5608 0.3324 0.4430
H13 H 0.5753 0.2568 0.5113
H14 H 0.3920 0.3066 0.4900
C9 C 0.1818(2) 0.15522(12) 0.47829(9)
H15 H 0.1293 0.0997 0.4983
H16 H 0.2161 0.1932 0.5257
C10 C 0.0428(3) 0.20473(16) 0.42337(12)
H17 H -0.0595 0.2182 0.4538
H18 H 0.0061 0.1670 0.3769
H19 H 0.0929 0.2605 0.4044
B1 B 0.3885(2) 0.05833(12) 0.26351(10)
H20 H 0.4228 0.1260 0.2403
B2 B 0.1781(2) -0.09728(13) 0.18959(11)
H21 H 0.1452 -0.1239 0.1271
B3 B 0.4113(2) -0.07375(13) 0.23705(11)
B4 B 0.4821(2) -0.01421(12) 0.34038(10)
H22 H 0.6222 0.0013 0.3615
B5 B 0.3070(2) 0.05735(11) 0.36549(9)
B6 B 0.0526(3) -0.12496(13) 0.27154(12)
H23 H -0.0737 -0.1635 0.2624
B7 B 0.2669(3) -0.17353(13) 0.26354(12)
H24 H 0.2889 -0.2441 0.2437
B8 B 0.4188(3) -0.12967(13) 0.33956(11)
H25 H 0.5271 -0.1763 0.3619
B9 B 0.3102(2) -0.05274(12) 0.40284(10)
H26 H 0.3244 -0.0537 0.4706
B10 B 0.0962(2) -0.02840(12) 0.34608(10)
H27 H -0.0160 0.0086 0.3710
B11 B 0.1904(3) -0.14466(13) 0.36096(11)
H28 H 0.1432 -0.1953 0.4043
H29 H 0.256(2) 0.1018(12) 0.3072(11)
H30 H 0.515(3) -0.0865(14) 0.1964(13)
loop_
_geom_bond_atom_site_label_1
_geom_bond_atom_site_label_2
_geom_bond_site_symmetry_1
_geom_bond_site_symmetry_2
N1 H1 1_555 1_555
C1 C2 1_555 1_555
C2 C6 1_555 1_555
C3 C1 1_555 1_555
H2 C3 1_555 1_555
H3 C3 1_555 1_555
C4 C3 1_555 1_555
H4 C4 1_555 1_555
H5 C4 1_555 1_555
C5 C4 1_555 1_555
H6 C5 1_555 1_555
H7 C5 1_555 1_555
C6 C5 1_555 1_555
H8 C6 1_555 1_555
H9 C6 1_555 1_555
C7 N1 1_555 1_555
H10 C7 1_555 1_555
H11 C7 1_555 1_555
C8 C7 1_555 1_555
H12 C8 1_555 1_555
H13 C8 1_555 1_555
H14 C8 1_555 1_555
C9 N1 1_555 1_555
H15 C9 1_555 1_555
H16 C9 1_555 1_555
C10 C9 1_555 1_555
H17 C10 1_555 1_555
H18 C10 1_555 1_555
H19 C10 1_555 1_555
B1 C1 1_555 1_555
H20 B1 1_555 1_555
B2 C1 1_555 1_555
H21 B2 1_555 1_555
B3 C1 1_555 1_555
B4 B1 1_555 1_555
H22 B4 1_555 1_555
B5 N1 1_555 1_555
B6 C2 1_555 1_555
H23 B6 1_555 1_555
B7 B2 1_555 1_555
H24 B7 1_555 1_555
B8 B3 1_555 1_555
H25 B8 1_555 1_555
B9 B4 1_555 1_555
H26 B9 1_555 1_555
B10 C2 1_555 1_555
H27 B10 1_555 1_555
B11 B6 1_555 1_555
H28 B11 1_555 1_555
H29 B1 1_555 1_555
H30 B3 1_555 1_555
C2 B2 1_555 1_555
B1 B3 1_555 1_555
B1 B5 1_555 1_555
B2 B3 1_555 1_555
B2 B6 1_555 1_555
B3 B4 1_555 1_555
B3 B7 1_555 1_555
B4 B5 1_555 1_555
B4 B8 1_555 1_555
B5 B9 1_555 1_555
B5 B10 1_555 1_555
B5 H29 1_555 1_555
B6 B7 1_555 1_555
B6 B10 1_555 1_555
B7 B8 1_555 1_555
B7 B11 1_555 1_555
B8 B9 1_555 1_555
B8 B11 1_555 1_555
B9 B10 1_555 1_555
B9 B11 1_555 1_555
B10 B11 1_555 1_555

#END
