
#######################################################################
#
#                 Cambridge Crystallographic Data Centre
#                                CCDC 
#
#######################################################################
#
# If this CIF has been generated from an entry in the Cambridge 
# Structural Database, then it will include bibliographic, chemical, 
# crystal, experimental, refinement or atomic coordinate data resulting 
# from the CCDC's data processing and validation procedures.
#
#######################################################################

data_QIJBES
_chemical_formula_moiety         'C36 H30 N1 P2 1+,C13 H26 B11 S1 1-,C4 H8 O1'
_chemical_name_systematic        
'triphenyl-N-(triphenylphosphoranylidene)phosphoraniminium closo-[1,2-(1-[(4-methylphenyl)sulfanyl]pentane-1,5-diyl)-1-carba-undecaborane] tetrahydrofuran solvate'
_symmetry_cell_setting           triclinic
_symmetry_space_group_name_H-M   'P -1'
_symmetry_Int_Tables_number      2
_space_group_name_Hall           '-P 1'
loop_
_symmetry_equiv_pos_site_id
_symmetry_equiv_pos_as_xyz
1 x,y,z
2 -x,-y,-z
_cell_length_a                   11.125(8)
_cell_length_b                   14.248(11)
_cell_length_c                   17.751(14)
_cell_angle_alpha                98.412(17)
_cell_angle_beta                 104.365(14)
_cell_angle_gamma                98.182(15)
_cell_volume                     2649.15
_exptl_crystal_colour            colorless
_exptl_crystal_description       block
_cell_formula_units_Z            2
loop_
_atom_site_label
_atom_site_type_symbol
_atom_site_fract_x
_atom_site_fract_y
_atom_site_fract_z
S1 S 1.16721(8) 0.58763(5) 0.78821(5)
C1 C 1.1624(3) 0.3219(2) 0.88419(17)
C2 C 1.1830(4) 0.3511(3) 0.97379(19)
H1 H 1.1106 0.3774 0.9823
H2 H 1.1840 0.2930 0.9963
C3 C 1.3017(4) 0.4239(3) 1.0200(2)
H3 H 1.3181 0.4189 1.0754
H4 H 1.3721 0.4056 1.0021
C4 C 1.2997(4) 0.5292(3) 1.0142(2)
H5 H 1.3718 0.5683 1.0548
H6 H 1.2245 0.5452 1.0273
C5 C 1.3018(3) 0.5606(3) 0.9354(2)
H7 H 1.3153 0.6305 0.9436
H8 H 1.3728 0.5404 0.9193
C6 C 1.1811(3) 0.51950(19) 0.86826(16)
H9 H 1.1096 0.5262 0.8903
C7 C 1.1252(3) 0.69588(19) 0.82323(17)
C8 C 1.0979(3) 0.7200(2) 0.89501(19)
H10 H 1.1042 0.6775 0.9302
C9 C 1.0617(3) 0.8067(2) 0.9143(2)
H11 H 1.0440 0.8219 0.9626
C10 C 1.0510(3) 0.8716(2) 0.8636(2)
C11 C 1.0785(3) 0.8474(2) 0.7925(2)
H12 H 1.0726 0.8903 0.7575
C12 C 1.1144(3) 0.7616(2) 0.77250(19)
H13 H 1.1319 0.7469 0.7240
C13 C 1.0112(4) 0.9665(2) 0.8847(3)
H14 H 0.9958 0.9714 0.9359
H15 H 0.9353 0.9698 0.8459
H16 H 1.0770 1.0186 0.8858
B1 B 1.1617(3) 0.4085(2) 0.82678(18)
B2 B 1.2840(3) 0.3405(3) 0.84201(18)
H17 H 1.3815 0.3747 0.8751
B3 B 1.2176(4) 0.2232(3) 0.8499(2)
H18 H 1.2715 0.1812 0.8887
B4 B 1.0549(4) 0.2171(3) 0.8379(3)
H19 H 1.0025 0.1717 0.8686
B5 B 1.0207(3) 0.3303(2) 0.8229(2)
H20 H 0.9454 0.3585 0.8440
B6 B 1.2156(3) 0.3597(2) 0.74643(18)
H21 H 1.2678 0.4066 0.7166
B7 B 1.2505(3) 0.2449(3) 0.7612(2)
H22 H 1.3263 0.2165 0.7409
B8 B 1.1095(4) 0.1674(3) 0.7582(2)
H23 H 1.0930 0.0891 0.7361
B9 B 0.9862(4) 0.2344(3) 0.7415(3)
H24 H 0.8888 0.1996 0.7085
B10 B 1.0516(3) 0.3524(2) 0.7342(2)
H25 H 0.9964 0.3944 0.6961
B11 B 1.1079(4) 0.2524(3) 0.6943(2)
H26 H 1.0902 0.2293 0.6300
O1 O 0.5526(5) 0.0879(4) 0.7686(3)
C14 C 0.6303(8) 0.1787(6) 0.7775(5)
H27 H 0.5807 0.2233 0.7544
H28 H 0.6963 0.1721 0.7513
C15 C 0.6866(10) 0.2149(5) 0.8643(5)
H29 H 0.7781 0.2275 0.8775
H30 H 0.6585 0.2737 0.8815
C16 C 0.6426(11) 0.1397(8) 0.8996(4)
H31 H 0.6159 0.1654 0.9452
H32 H 0.7086 0.1034 0.9167
C17 C 0.5357(7) 0.0778(5) 0.8389(3)
H33 H 0.5321 0.0110 0.8450
H34 H 0.4572 0.0969 0.8436
N1 N 0.56110(19) 0.29955(15) 0.33765(12)
P1 P 0.42310(6) 0.27227(4) 0.28009(4)
P2 P 0.63704(6) 0.29284(4) 0.42362(4)
C18 C 0.4287(2) 0.21198(18) 0.18529(15)
C19 C 0.5420(3) 0.2079(2) 0.16949(17)
H35 H 0.6168 0.2360 0.2081
C20 C 0.5453(4) 0.1620(3) 0.0958(2)
H36 H 0.6225 0.1589 0.0850
C21 C 0.4359(4) 0.1214(3) 0.03916(19)
H37 H 0.4384 0.0896 -0.0099
C22 C 0.3230(4) 0.1272(3) 0.05412(19)
H38 H 0.2484 0.1004 0.0149
C23 C 0.3182(3) 0.1725(2) 0.12672(18)
H39 H 0.2405 0.1765 0.1365
C24 C 0.3132(2) 0.19364(19) 0.31277(15)
C25 C 0.3080(3) 0.0949(2) 0.2964(2)
H40 H 0.3551 0.0694 0.2646
C26 C 0.2324(4) 0.0340(3) 0.3275(3)
H41 H 0.2289 -0.0324 0.3166
C27 C 0.1629(4) 0.0713(3) 0.3741(2)
H42 H 0.1115 0.0302 0.3943
C28 C 0.1688(3) 0.1679(3) 0.3910(2)
H43 H 0.1221 0.1929 0.4232
C29 C 0.2437(3) 0.2296(2) 0.36063(18)
H44 H 0.2471 0.2959 0.3726
C30 C 0.3624(2) 0.37932(18) 0.26275(15)
C31 C 0.2346(2) 0.3785(2) 0.23475(18)
H45 H 0.1764 0.3218 0.2267
C32 C 0.1942(3) 0.4621(2) 0.2189(2)
H46 H 0.1082 0.4617 0.2006
C33 C 0.2788(3) 0.5457(2) 0.2298(2)
H47 H 0.2502 0.6020 0.2197
C34 C 0.4056(3) 0.5467(2) 0.2554(2)
H48 H 0.4632 0.6033 0.2616
C35 C 0.4473(3) 0.4637(2) 0.2721(2)
H49 H 0.5335 0.4644 0.2898
C36 C 0.5421(2) 0.2683(2) 0.48942(15)
C37 C 0.5214(4) 0.1788(3) 0.5099(2)
H50 H 0.5614 0.1304 0.4921
C38 C 0.4415(5) 0.1607(5) 0.5568(3)
H51 H 0.4287 0.1003 0.5705
C39 C 0.3827(5) 0.2284(6) 0.5824(3)
H52 H 0.3284 0.2151 0.6133
C40 C 0.4023(4) 0.3167(5) 0.5634(3)
H53 H 0.3617 0.3641 0.5821
C41 C 0.4822(3) 0.3385(3) 0.5161(2)
H54 H 0.4945 0.3994 0.5032
C42 C 0.7259(2) 0.19765(17) 0.42004(15)
C43 C 0.6856(3) 0.1211(2) 0.35694(17)
H55 H 0.6174 0.1222 0.3146
C44 C 0.7455(3) 0.0430(2) 0.3559(2)
H56 H 0.7181 -0.0084 0.3131
C45 C 0.8446(3) 0.0413(2) 0.4178(2)
H57 H 0.8845 -0.0118 0.4175
C46 C 0.8864(3) 0.1167(2) 0.4805(2)
H58 H 0.9548 0.1148 0.5225
C47 C 0.8280(3) 0.1956(2) 0.48207(18)
H59 H 0.8572 0.2472 0.5246
C48 C 0.7436(2) 0.40566(18) 0.46824(14)
C49 C 0.7875(3) 0.4353(2) 0.55033(16)
H60 H 0.7618 0.3964 0.5834
C50 C 0.8696(3) 0.5227(2) 0.58243(18)
H61 H 0.8995 0.5421 0.6371
C51 C 0.9072(3) 0.5812(2) 0.53360(19)
H62 H 0.9616 0.6401 0.5555
C52 C 0.8645(3) 0.5525(2) 0.45285(19)
H63 H 0.8903 0.5919 0.4202
C53 C 0.7832(2) 0.46509(19) 0.41976(16)
H64 H 0.7548 0.4459 0.3650
loop_
_geom_bond_atom_site_label_1
_geom_bond_atom_site_label_2
_geom_bond_site_symmetry_1
_geom_bond_site_symmetry_2
S1 C6 1_555 1_555
C1 C2 1_555 1_555
C2 H1 1_555 1_555
H2 C2 1_555 1_555
C3 C2 1_555 1_555
H3 C3 1_555 1_555
H4 C3 1_555 1_555
C4 C3 1_555 1_555
H5 C4 1_555 1_555
H6 C4 1_555 1_555
C5 C4 1_555 1_555
H7 C5 1_555 1_555
H8 C5 1_555 1_555
C6 C5 1_555 1_555
H9 C6 1_555 1_555
C7 S1 1_555 1_555
C8 C7 1_555 1_555
H10 C8 1_555 1_555
C9 C8 1_555 1_555
H11 C9 1_555 1_555
C10 C9 1_555 1_555
C11 C10 1_555 1_555
H12 C11 1_555 1_555
C12 C7 1_555 1_555
H13 C12 1_555 1_555
C13 C10 1_555 1_555
H14 C13 1_555 1_555
H15 C13 1_555 1_555
H16 C13 1_555 1_555
B1 C1 1_555 1_555
B2 C1 1_555 1_555
H17 B2 1_555 1_555
B3 C1 1_555 1_555
H18 B3 1_555 1_555
B4 C1 1_555 1_555
H19 B4 1_555 1_555
B5 C1 1_555 1_555
H20 B5 1_555 1_555
B6 B1 1_555 1_555
H21 B6 1_555 1_555
B7 B2 1_555 1_555
H22 B7 1_555 1_555
B8 B3 1_555 1_555
H23 B8 1_555 1_555
B9 B4 1_555 1_555
H24 B9 1_555 1_555
B10 B1 1_555 1_555
H25 B10 1_555 1_555
B11 B6 1_555 1_555
H26 B11 1_555 1_555
O1 C14 1_555 1_555
C14 H27 1_555 1_555
H28 C14 1_555 1_555
C15 C14 1_555 1_555
H29 C15 1_555 1_555
H30 C15 1_555 1_555
C16 C15 1_555 1_555
H31 C16 1_555 1_555
H32 C16 1_555 1_555
C17 O1 1_555 1_555
H33 C17 1_555 1_555
H34 C17 1_555 1_555
N1 P1 1_555 1_555
P1 C18 1_555 1_555
P2 N1 1_555 1_555
C18 C19 1_555 1_555
C19 H35 1_555 1_555
C20 C19 1_555 1_555
H36 C20 1_555 1_555
C21 C20 1_555 1_555
H37 C21 1_555 1_555
C22 C21 1_555 1_555
H38 C22 1_555 1_555
C23 C18 1_555 1_555
H39 C23 1_555 1_555
C24 P1 1_555 1_555
C25 C24 1_555 1_555
H40 C25 1_555 1_555
C26 C25 1_555 1_555
H41 C26 1_555 1_555
C27 C26 1_555 1_555
H42 C27 1_555 1_555
C28 C27 1_555 1_555
H43 C28 1_555 1_555
C29 C24 1_555 1_555
H44 C29 1_555 1_555
C30 P1 1_555 1_555
C31 C30 1_555 1_555
H45 C31 1_555 1_555
C32 C31 1_555 1_555
H46 C32 1_555 1_555
C33 C32 1_555 1_555
H47 C33 1_555 1_555
C34 C33 1_555 1_555
H48 C34 1_555 1_555
C35 C30 1_555 1_555
H49 C35 1_555 1_555
C36 P2 1_555 1_555
C37 C36 1_555 1_555
H50 C37 1_555 1_555
C38 C37 1_555 1_555
H51 C38 1_555 1_555
C39 C38 1_555 1_555
H52 C39 1_555 1_555
C40 C39 1_555 1_555
H53 C40 1_555 1_555
C41 C36 1_555 1_555
H54 C41 1_555 1_555
C42 P2 1_555 1_555
C43 C42 1_555 1_555
H55 C43 1_555 1_555
C44 C43 1_555 1_555
H56 C44 1_555 1_555
C45 C44 1_555 1_555
H57 C45 1_555 1_555
C46 C45 1_555 1_555
H58 C46 1_555 1_555
C47 C42 1_555 1_555
H59 C47 1_555 1_555
C48 P2 1_555 1_555
C49 C48 1_555 1_555
H60 C49 1_555 1_555
C50 C49 1_555 1_555
H61 C50 1_555 1_555
C51 C50 1_555 1_555
H62 C51 1_555 1_555
C52 C51 1_555 1_555
H63 C52 1_555 1_555
C53 C48 1_555 1_555
H64 C53 1_555 1_555
C6 B1 1_555 1_555
C11 C12 1_555 1_555
B1 B2 1_555 1_555
B1 B5 1_555 1_555
B2 B3 1_555 1_555
B2 B6 1_555 1_555
B3 B4 1_555 1_555
B3 B7 1_555 1_555
B4 B5 1_555 1_555
B4 B8 1_555 1_555
B5 B9 1_555 1_555
B5 B10 1_555 1_555
B6 B7 1_555 1_555
B6 B10 1_555 1_555
B7 B8 1_555 1_555
B7 B11 1_555 1_555
B8 B9 1_555 1_555
B8 B11 1_555 1_555
B9 B10 1_555 1_555
B9 B11 1_555 1_555
B10 B11 1_555 1_555
C16 C17 1_555 1_555
C22 C23 1_555 1_555
C28 C29 1_555 1_555
C34 C35 1_555 1_555
C40 C41 1_555 1_555
C46 C47 1_555 1_555
C52 C53 1_555 1_555

#END
