
#######################################################################
#
#                 Cambridge Crystallographic Data Centre
#                                CCDC 
#
#######################################################################
#
# If this CIF has been generated from an entry in the Cambridge 
# Structural Database, then it will include bibliographic, chemical, 
# crystal, experimental, refinement or atomic coordinate data resulting 
# from the CCDC's data processing and validation procedures.
#
#######################################################################

data_QIJGAT
_chemical_formula_moiety         'C26 H30 B20 F12'
_chemical_name_systematic        
1,4-bis-(1-(3,5-bis(trifluoromethyl)phenyl)-o-carboran-2-yl)benzene
_symmetry_cell_setting           monoclinic
_symmetry_space_group_name_H-M   'P 21'
_symmetry_Int_Tables_number      4
_space_group_name_Hall           'P 2yb'
loop_
_symmetry_equiv_pos_site_id
_symmetry_equiv_pos_as_xyz
1 x,y,z
2 -x,1/2+y,-z
_cell_length_a                   8.7298(5)
_cell_length_b                   22.0835(12)
_cell_length_c                   10.9754(6)
_cell_angle_alpha                90
_cell_angle_beta                 112.501(2)
_cell_angle_gamma                90
_cell_volume                     1954.81
_exptl_crystal_colour            colorless
_exptl_crystal_description       Cubic
_cell_formula_units_Z            2
loop_
_atom_site_label
_atom_site_type_symbol
_atom_site_fract_x
_atom_site_fract_y
_atom_site_fract_z
C1 C 0.0713(5) 0.11559(18) 0.5996(4)
C2 C 0.1657(5) 0.16017(18) 0.7353(4)
C3 C 0.2653(5) 0.21395(18) 0.7228(4)
C4 C 0.1933(5) 0.2661(2) 0.6594(4)
H1 H 0.0783 0.2692 0.6230
C5 C 0.2886(5) 0.3149(2) 0.6481(4)
H2 H 0.2367 0.3500 0.6049
C6 C 0.4608(5) 0.31151(18) 0.7010(3)
C7 C 0.5341(5) 0.25875(19) 0.7671(4)
H3 H 0.6490 0.2557 0.8049
C8 C 0.4379(5) 0.2110(2) 0.7772(4)
H4 H 0.4894 0.1761 0.8214
C9 C 0.5612(5) 0.36390(18) 0.6871(4)
C10 C 0.6557(5) 0.41059(18) 0.8201(4)
C11 C 0.0846(5) 0.13421(18) 0.4715(4)
C12 C 0.2363(5) 0.14563(18) 0.4625(4)
H5 H 0.3339 0.1410 0.5363
C13 C 0.2425(5) 0.1640(2) 0.3434(4)
C14 C 0.1018(6) 0.1689(2) 0.2320(4)
H6 H 0.1073 0.1798 0.1519
C15 C -0.0496(6) 0.1572(2) 0.2412(4)
C16 C -0.0576(5) 0.1405(2) 0.3597(4)
H7 H -0.1602 0.1333 0.3642
C17 C 0.4080(7) 0.1794(3) 0.3378(6)
C18 C -0.2045(7) 0.1648(4) 0.1217(5)
C19 C 0.6410(5) 0.39333(19) 0.9471(3)
C20 C 0.7798(5) 0.37383(19) 1.0546(4)
H8 H 0.8821 0.3717 1.0469
C21 C 0.7677(5) 0.3578(2) 1.1713(4)
C22 C 0.6176(6) 0.3586(3) 1.1854(5)
H9 H 0.6098 0.3468 1.2641
C23 C 0.4790(6) 0.3775(3) 1.0799(5)
C24 C 0.4906(5) 0.3949(3) 0.9626(4)
H10 H 0.3960 0.4078 0.8930
C25 C 0.9195(7) 0.3388(3) 1.2850(5)
C26 C 0.3170(10) 0.3726(10) 1.0908(7)
F1 F 1.0299(5) 0.3132(2) 1.2527(3)
F2 F 0.8884(5) 0.3003(2) 1.3627(4)
F3 F 0.9915(6) 0.3835(2) 1.3625(4)
F4 F 0.2541(10) 0.4326(6) 1.0758(11)
F5 F 0.2009(7) 0.3547(6) 1.0003(7)
F6 F 0.3181(7) 0.3643(6) 1.2030(5)
F7 F 0.4231(15) 0.2318(6) 0.303(3)
F8 F 0.449(3) 0.1419(11) 0.264(3)
F9 F 0.5355(10) 0.1743(12) 0.4542(13)
F10 F -0.1858(5) 0.1894(4) 0.0229(4)
F11 F -0.2709(8) 0.1135(3) 0.0738(7)
F12 F -0.3195(5) 0.1940(3) 0.1409(4)
B1 B 0.6818(7) 0.4357(3) 0.5348(5)
H11 H 0.6912 0.4447 0.4393
B2 B 0.5587(7) 0.4809(3) 0.5926(5)
H12 H 0.4869 0.5191 0.5339
B3 B 0.4987(7) 0.4053(3) 0.5441(5)
H13 H 0.3890 0.3939 0.4558
B4 B 0.6813(7) 0.3610(3) 0.5944(5)
H14 H 0.6902 0.3207 0.5384
B5 B 0.8547(7) 0.4086(3) 0.6737(6)
H15 H 0.9762 0.3997 0.6687
B6 B 0.7792(7) 0.4839(3) 0.6729(6)
H16 H 0.8521 0.5237 0.6675
B7 B 0.4820(6) 0.4361(2) 0.6901(5)
H17 H 0.3618 0.4444 0.6979
B8 B 0.6528(6) 0.4849(2) 0.7683(5)
H18 H 0.6426 0.5249 0.8243
B9 B 0.8357(6) 0.4387(2) 0.8186(5)
H19 H 0.9442 0.4490 0.9087
B10 B 0.7759(6) 0.3634(2) 0.7684(5)
H20 H 0.8450 0.3245 0.8261
B11 B 0.0506(8) 0.0861(3) 0.8859(6)
H21 H 0.0428 0.0756 0.9813
B12 B 0.1737(7) 0.0413(3) 0.8219(6)
H22 H 0.2467 0.0022 0.8755
B13 B -0.0496(7) 0.0398(3) 0.7460(6)
H23 H -0.1216 -0.0003 0.7512
B14 B -0.1250(7) 0.1154(3) 0.7498(5)
H24 H -0.2454 0.1242 0.7567
B15 B 0.0523(7) 0.1626(3) 0.8317(5)
H25 H 0.0475 0.2020 0.8914
B16 B 0.2330(7) 0.1167(3) 0.8753(5)
H26 H 0.3444 0.1266 0.9635
B17 B 0.2454(6) 0.0889(2) 0.7264(5)
H27 H 0.3647 0.0815 0.7165
B18 B 0.0722(7) 0.0414(2) 0.6466(5)
H28 H 0.0788 0.0025 0.5861
B19 B -0.1095(6) 0.0867(2) 0.6034(5)
H29 H -0.2202 0.0769 0.5146
B20 B -0.0491(6) 0.1626(2) 0.6553(5)
H30 H -0.1185 0.2020 0.6002
F13? F 0.3914(15) 0.1955(17) 0.2178(13)
F14? F 0.503(2) 0.1339(7) 0.357(4)
F15? F 0.475(4) 0.2242(16) 0.410(3)
loop_
_geom_bond_atom_site_label_1
_geom_bond_atom_site_label_2
_geom_bond_site_symmetry_1
_geom_bond_site_symmetry_2
C1 C2 1_555 1_555
C2 C3 1_555 1_555
C3 C4 1_555 1_555
C4 H1 1_555 1_555
C5 C4 1_555 1_555
H2 C5 1_555 1_555
C6 C5 1_555 1_555
C7 C6 1_555 1_555
H3 C7 1_555 1_555
C8 C3 1_555 1_555
H4 C8 1_555 1_555
C9 C6 1_555 1_555
C10 C9 1_555 1_555
C11 C1 1_555 1_555
C12 C11 1_555 1_555
H5 C12 1_555 1_555
C13 C12 1_555 1_555
C14 C13 1_555 1_555
H6 C14 1_555 1_555
C15 C14 1_555 1_555
C16 C11 1_555 1_555
H7 C16 1_555 1_555
C17 C13 1_555 1_555
C18 C15 1_555 1_555
C19 C10 1_555 1_555
C20 C19 1_555 1_555
H8 C20 1_555 1_555
C21 C20 1_555 1_555
C22 C21 1_555 1_555
H9 C22 1_555 1_555
C23 C22 1_555 1_555
C24 C19 1_555 1_555
H10 C24 1_555 1_555
C25 C21 1_555 1_555
C26 C23 1_555 1_555
F1 C25 1_555 1_555
F2 C25 1_555 1_555
F3 C25 1_555 1_555
F4 C26 1_555 1_555
F5 C26 1_555 1_555
F6 C26 1_555 1_555
F7 C17 1_555 1_555
F8 C17 1_555 1_555
F9 C17 1_555 1_555
F10 C18 1_555 1_555
F11 C18 1_555 1_555
F12 C18 1_555 1_555
B1 H11 1_555 1_555
B2 B1 1_555 1_555
H12 B2 1_555 1_555
B3 C9 1_555 1_555
H13 B3 1_555 1_555
B4 C9 1_555 1_555
H14 B4 1_555 1_555
B5 B1 1_555 1_555
H15 B5 1_555 1_555
B6 B1 1_555 1_555
H16 B6 1_555 1_555
B7 C9 1_555 1_555
H17 B7 1_555 1_555
B8 C10 1_555 1_555
H18 B8 1_555 1_555
B9 C10 1_555 1_555
H19 B9 1_555 1_555
B10 C9 1_555 1_555
H20 B10 1_555 1_555
B11 H21 1_555 1_555
B12 B11 1_555 1_555
H22 B12 1_555 1_555
B13 B11 1_555 1_555
H23 B13 1_555 1_555
B14 B11 1_555 1_555
H24 B14 1_555 1_555
B15 C2 1_555 1_555
H25 B15 1_555 1_555
B16 C2 1_555 1_555
H26 B16 1_555 1_555
B17 C1 1_555 1_555
H27 B17 1_555 1_555
B18 C1 1_555 1_555
H28 B18 1_555 1_555
B19 C1 1_555 1_555
H29 B19 1_555 1_555
B20 C1 1_555 1_555
H30 B20 1_555 1_555
C2 B17 1_555 1_555
C2 B20 1_555 1_555
C7 C8 1_555 1_555
C10 B7 1_555 1_555
C10 B10 1_555 1_555
C15 C16 1_555 1_555
C23 C24 1_555 1_555
B1 B3 1_555 1_555
B1 B4 1_555 1_555
B2 B3 1_555 1_555
B2 B6 1_555 1_555
B2 B7 1_555 1_555
B2 B8 1_555 1_555
B3 B4 1_555 1_555
B3 B7 1_555 1_555
B4 B5 1_555 1_555
B4 B10 1_555 1_555
B5 B6 1_555 1_555
B5 B9 1_555 1_555
B5 B10 1_555 1_555
B6 B8 1_555 1_555
B6 B9 1_555 1_555
B7 B8 1_555 1_555
B8 B9 1_555 1_555
B9 B10 1_555 1_555
B11 B15 1_555 1_555
B11 B16 1_555 1_555
B12 B13 1_555 1_555
B12 B16 1_555 1_555
B12 B17 1_555 1_555
B12 B18 1_555 1_555
B13 B14 1_555 1_555
B13 B18 1_555 1_555
B13 B19 1_555 1_555
B14 B15 1_555 1_555
B14 B19 1_555 1_555
B14 B20 1_555 1_555
B15 B16 1_555 1_555
B15 B20 1_555 1_555
B16 B17 1_555 1_555
B17 B18 1_555 1_555
B18 B19 1_555 1_555
B19 B20 1_555 1_555

#END
