
#######################################################################
#
#                 Cambridge Crystallographic Data Centre
#                                CCDC 
#
#######################################################################
#
# If this CIF has been generated from an entry in the Cambridge 
# Structural Database, then it will include bibliographic, chemical, 
# crystal, experimental, refinement or atomic coordinate data resulting 
# from the CCDC's data processing and validation procedures.
#
#######################################################################

data_QIJGIB
_chemical_formula_moiety         'C26 H44 B20 N2'
_chemical_name_systematic        
1,4-bis-(1-(4-N,N-dimethylaniline)-o-carboran-2-yl)benzene
_symmetry_cell_setting           monoclinic
_symmetry_space_group_name_H-M   'P 21/c'
_symmetry_Int_Tables_number      14
_space_group_name_Hall           '-P 2ybc'
loop_
_symmetry_equiv_pos_site_id
_symmetry_equiv_pos_as_xyz
1 x,y,z
2 -x,1/2+y,1/2-z
3 -x,-y,-z
4 x,1/2-y,1/2+z
_cell_length_a                   17.770(4)
_cell_length_b                   13.153(3)
_cell_length_c                   15.181(4)
_cell_angle_alpha                90
_cell_angle_beta                 102.535(10)
_cell_angle_gamma                90
_cell_volume                     3463.66
_exptl_crystal_colour            yellow
_exptl_crystal_description       platy
_cell_formula_units_Z            4
loop_
_atom_site_label
_atom_site_type_symbol
_atom_site_fract_x
_atom_site_fract_y
_atom_site_fract_z
C1 C 0.34757(13) 0.5959(2) 0.15780(16)
C2 C 0.42092(13) 0.63645(19) 0.10246(16)
C3 C 0.45972(13) 0.56199(18) 0.05022(15)
C4 C 0.43505(14) 0.5522(2) -0.04254(16)
H1 H 0.3913 0.5869 -0.0723
C5 C 0.52511(14) 0.5090(2) 0.09130(16)
H2 H 0.5429 0.5144 0.1534
C6 C 0.32177(13) 0.4879(2) 0.15045(16)
C7 C 0.36475(15) 0.4093(2) 0.19709(18)
H3 H 0.4130 0.4234 0.2330
C8 C 0.33795(16) 0.3110(2) 0.19169(19)
H4 H 0.3689 0.2605 0.2238
C9 C 0.26574(15) 0.2844(2) 0.13948(17)
C10 C 0.22192(15) 0.3641(2) 0.09393(17)
H5 H 0.1730 0.3505 0.0594
C11 C 0.24918(14) 0.4623(2) 0.09869(17)
H6 H 0.2185 0.5130 0.0666
N1 N 0.24029(14) 0.18569(19) 0.13210(17)
C12 C 0.2883(2) 0.1045(3) 0.1779(3)
H7 H 0.3370 0.1051 0.1602
H8 H 0.2632 0.0404 0.1619
H9 H 0.2965 0.1142 0.2419
C13 C 0.16713(17) 0.1584(2) 0.07460(19)
H10 H 0.1260 0.1881 0.0978
H11 H 0.1618 0.0857 0.0731
H12 H 0.1650 0.1832 0.0146
B1 B 0.35547(17) 0.6663(3) 0.2546(2)
H13 H 0.3408 0.6365 0.3165
B2 B 0.28375(19) 0.6935(3) 0.1557(2)
H14 H 0.2220 0.6816 0.1528
B3 B 0.33642(19) 0.7942(3) 0.2191(2)
H15 H 0.3091 0.8480 0.2579
B4 B 0.43306(18) 0.7520(3) 0.2583(2)
H16 H 0.4688 0.7777 0.3229
B5 B 0.43950(17) 0.6270(2) 0.21841(19)
H17 H 0.4789 0.5695 0.2557
B6 B 0.32557(17) 0.6699(2) 0.0608(2)
H18 H 0.2917 0.6402 -0.0034
B7 B 0.31667(19) 0.7965(3) 0.0982(2)
H19 H 0.2762 0.8510 0.0584
B8 B 0.40904(18) 0.8341(3) 0.1629(2)
H20 H 0.4286 0.9136 0.1655
B9 B 0.47314(18) 0.7309(2) 0.1630(2)
H21 H 0.5349 0.7428 0.1656
B10 B 0.40200(17) 0.7583(2) 0.0642(2)
H22 H 0.4168 0.7879 0.0023
C1B C 0.65243(13) 0.4041(2) -0.15780(16)
C2B C 0.57908(13) 0.36355(19) -0.10246(16)
C3B C 0.54028(13) 0.43801(18) -0.05022(15)
C4B C 0.56495(14) 0.4478(2) 0.04254(16)
H1B H 0.6087 0.4131 0.0723
C5B C 0.47489(14) 0.4910(2) -0.09130(16)
H2B H 0.4571 0.4856 -0.1534
C6B C 0.67823(13) 0.5121(2) -0.15045(16)
C7B C 0.63525(15) 0.5907(2) -0.19709(18)
H3B H 0.5870 0.5766 -0.2330
C8B C 0.66205(16) 0.6890(2) -0.19169(19)
H4B H 0.6311 0.7395 -0.2238
C9B C 0.73426(15) 0.7156(2) -0.13948(17)
C10B C 0.77808(15) 0.6359(2) -0.09393(17)
H5B H 0.8270 0.6495 -0.0594
C11B C 0.75082(14) 0.5377(2) -0.09869(17)
H6B H 0.7815 0.4870 -0.0666
N1B N 0.75971(14) 0.81431(19) -0.13210(17)
C12B C 0.7117(2) 0.8955(3) -0.1779(3)
H7B H 0.6630 0.8949 -0.1602
H8B H 0.7368 0.9596 -0.1619
H9B H 0.7035 0.8858 -0.2419
C13B C 0.83287(17) 0.8416(2) -0.07460(19)
H10B H 0.8740 0.8119 -0.0978
H11B H 0.8382 0.9143 -0.0731
H12B H 0.8350 0.8168 -0.0146
B1B B 0.64453(17) 0.3337(3) -0.2546(2)
H13B H 0.6592 0.3635 -0.3165
B2B B 0.71625(19) 0.3065(3) -0.1557(2)
H14B H 0.7780 0.3184 -0.1528
B3B B 0.66358(19) 0.2058(3) -0.2191(2)
H15B H 0.6909 0.1520 -0.2579
B4B B 0.56694(18) 0.2480(3) -0.2583(2)
H16B H 0.5312 0.2223 -0.3229
B5B B 0.56050(17) 0.3730(2) -0.21841(19)
H17B H 0.5211 0.4305 -0.2557
B6B B 0.67443(17) 0.3301(2) -0.0608(2)
H18B H 0.7083 0.3598 0.0034
B7B B 0.68333(19) 0.2035(3) -0.0982(2)
H19B H 0.7238 0.1490 -0.0584
B8B B 0.59096(18) 0.1659(3) -0.1629(2)
H20B H 0.5714 0.0864 -0.1655
B9B B 0.52686(18) 0.2691(2) -0.1630(2)
H21B H 0.4651 0.2572 -0.1656
B10B B 0.59800(17) 0.2417(2) -0.0642(2)
H22B H 0.5832 0.2121 -0.0023
C14 C 0.03821(15) 0.09253(19) 0.75369(16)
C15 C -0.03321(14) 0.04792(18) 0.80802(15)
C16 C -0.01285(12) 0.02442(18) 0.90769(15)
C17 C -0.03985(13) 0.08660(19) 0.96789(15)
H23 H -0.0668 0.1455 0.9469
C18 C 0.02738(13) -0.06256(19) 0.94140(16)
H24 H 0.0463 -0.1053 0.9024
C19 C 0.11885(15) 0.1087(2) 0.80575(16)
C20 C 0.14547(16) 0.2066(2) 0.82811(17)
H25 H 0.1116 0.2609 0.8128
C21 C 0.22047(17) 0.2263(2) 0.87229(19)
H26 H 0.2360 0.2932 0.8850
C22 C 0.27345(17) 0.1477(3) 0.89821(19)
C23 C 0.24655(17) 0.0489(3) 0.8756(2)
H27 H 0.2799 -0.0057 0.8919
C24 C 0.17179(16) 0.0305(2) 0.8297(2)
H28 H 0.1565 -0.0360 0.8145
N2 N 0.34772(15) 0.1659(2) 0.94426(19)
C25 C 0.37274(19) 0.2685(3) 0.9695(2)
H29 H 0.3706 0.3084 0.9161
H30 H 0.4247 0.2672 1.0044
H31 H 0.3395 0.2979 1.0047
C26 C 0.4023(2) 0.0835(3) 0.9690(3)
H32 H 0.3841 0.0379 1.0092
H33 H 0.4515 0.1106 0.9985
H34 H 0.4074 0.0473 0.9157
B11 B -0.09757(17) -0.0245(2) 0.73516(19)
H35 H -0.1275 -0.0903 0.7563
B12 B 0.00226(18) -0.0289(2) 0.73351(19)
H36 H 0.0378 -0.0966 0.7552
B13 B -0.0676(2) -0.0233(3) 0.6309(2)
H37 H -0.0783 -0.0881 0.5841
B14 B -0.1436(2) 0.0579(3) 0.6481(2)
H38 H -0.2037 0.0463 0.6121
B15 B -0.11991(18) 0.1015(2) 0.7617(2)
H39 H -0.1644 0.1186 0.7998
B16 B 0.0179(2) 0.0495(3) 0.6440(2)
H40 H 0.0624 0.0324 0.6059
B17 B -0.0725(2) 0.1047(3) 0.5920(2)
H41 H -0.0870 0.1238 0.5198
B18 B -0.1034(2) 0.1817(3) 0.6739(2)
H42 H -0.1373 0.2514 0.6550
B19 B -0.03327(18) 0.1725(2) 0.7764(2)
H43 H -0.0205 0.2349 0.8256
B20 B -0.0043(2) 0.1755(3) 0.6712(2)
H44 H 0.0263 0.2413 0.6508
C14B C -0.03821(15) -0.09253(19) 1.24631(16)
C15B C 0.03321(14) -0.04792(18) 1.19198(15)
C16B C 0.01285(12) -0.02442(18) 1.09231(15)
C17B C 0.03985(13) -0.08660(19) 1.03211(15)
H23B H 0.0668 -0.1455 1.0531
C18B C -0.02738(13) 0.06256(19) 1.05860(16)
H24B H -0.0463 0.1053 1.0976
C19B C -0.11885(15) -0.1087(2) 1.19425(16)
C20B C -0.14547(16) -0.2066(2) 1.17189(17)
H25B H -0.1116 -0.2609 1.1872
C21B C -0.22047(17) -0.2263(2) 1.12771(19)
H26B H -0.2360 -0.2932 1.1150
C22B C -0.27345(17) -0.1477(3) 1.10179(19)
C23B C -0.24655(17) -0.0489(3) 1.1244(2)
H27B H -0.2799 0.0057 1.1081
C24B C -0.17179(16) -0.0305(2) 1.1703(2)
H28B H -0.1565 0.0360 1.1855
N2B N -0.34772(15) -0.1659(2) 1.05574(19)
C25B C -0.37274(19) -0.2685(3) 1.0305(2)
H29B H -0.3706 -0.3084 1.0839
H30B H -0.4247 -0.2672 0.9956
H31B H -0.3395 -0.2979 0.9953
C26B C -0.4023(2) -0.0835(3) 1.0310(3)
H32B H -0.3841 -0.0379 0.9908
H33B H -0.4515 -0.1106 1.0015
H34B H -0.4074 -0.0473 1.0843
B11B B 0.09757(17) 0.0245(2) 1.26484(19)
H35B H 0.1275 0.0903 1.2437
B12B B -0.00226(18) 0.0289(2) 1.26649(19)
H36B H -0.0378 0.0966 1.2448
B13B B 0.0676(2) 0.0233(3) 1.3691(2)
H37B H 0.0783 0.0881 1.4159
B14B B 0.1436(2) -0.0579(3) 1.3519(2)
H38B H 0.2037 -0.0463 1.3879
B15B B 0.11991(18) -0.1015(2) 1.2383(2)
H39B H 0.1644 -0.1186 1.2002
B16B B -0.0179(2) -0.0495(3) 1.3560(2)
H40B H -0.0624 -0.0324 1.3941
B17B B 0.0725(2) -0.1047(3) 1.4080(2)
H41B H 0.0870 -0.1238 1.4802
B18B B 0.1034(2) -0.1817(3) 1.3261(2)
H42B H 0.1373 -0.2514 1.3450
B19B B 0.03327(18) -0.1725(2) 1.2236(2)
H43B H 0.0205 -0.2349 1.1744
B20B B 0.0043(2) -0.1755(3) 1.3288(2)
H44B H -0.0263 -0.2413 1.3492
loop_
_geom_bond_atom_site_label_1
_geom_bond_atom_site_label_2
_geom_bond_site_symmetry_1
_geom_bond_site_symmetry_2
C1 C2 1_555 1_555
C2 C3 1_555 1_555
C3 C4 1_555 1_555
C4 H1 1_555 1_555
C5 C3 1_555 1_555
H2 C5 1_555 1_555
C6 C1 1_555 1_555
C7 C6 1_555 1_555
H3 C7 1_555 1_555
C8 C7 1_555 1_555
H4 C8 1_555 1_555
C9 C8 1_555 1_555
C10 C9 1_555 1_555
H5 C10 1_555 1_555
C11 C6 1_555 1_555
H6 C11 1_555 1_555
N1 C9 1_555 1_555
C12 N1 1_555 1_555
H7 C12 1_555 1_555
H8 C12 1_555 1_555
H9 C12 1_555 1_555
C13 N1 1_555 1_555
H10 C13 1_555 1_555
H11 C13 1_555 1_555
H12 C13 1_555 1_555
B1 C1 1_555 1_555
H13 B1 1_555 1_555
B2 C1 1_555 1_555
H14 B2 1_555 1_555
B3 B1 1_555 1_555
H15 B3 1_555 1_555
B4 B1 1_555 1_555
H16 B4 1_555 1_555
B5 C1 1_555 1_555
H17 B5 1_555 1_555
B6 C1 1_555 1_555
H18 B6 1_555 1_555
B7 B2 1_555 1_555
H19 B7 1_555 1_555
B8 B3 1_555 1_555
H20 B8 1_555 1_555
B9 C2 1_555 1_555
H21 B9 1_555 1_555
B10 C2 1_555 1_555
H22 B10 1_555 1_555
C14 C15 1_555 1_555
C15 C16 1_555 1_555
C16 C17 1_555 1_555
C17 H23 1_555 1_555
C18 C16 1_555 1_555
H24 C18 1_555 1_555
C19 C14 1_555 1_555
C20 C19 1_555 1_555
H25 C20 1_555 1_555
C21 C20 1_555 1_555
H26 C21 1_555 1_555
C22 C21 1_555 1_555
C23 C22 1_555 1_555
H27 C23 1_555 1_555
C24 C19 1_555 1_555
H28 C24 1_555 1_555
N2 C22 1_555 1_555
C25 N2 1_555 1_555
H29 C25 1_555 1_555
H30 C25 1_555 1_555
H31 C25 1_555 1_555
C26 N2 1_555 1_555
H32 C26 1_555 1_555
H33 C26 1_555 1_555
H34 C26 1_555 1_555
B11 C15 1_555 1_555
H35 B11 1_555 1_555
B12 C14 1_555 1_555
H36 B12 1_555 1_555
B13 B11 1_555 1_555
H37 B13 1_555 1_555
B14 B11 1_555 1_555
H38 B14 1_555 1_555
B15 C15 1_555 1_555
H39 B15 1_555 1_555
B16 C14 1_555 1_555
H40 B16 1_555 1_555
B17 B13 1_555 1_555
H41 B17 1_555 1_555
B18 B14 1_555 1_555
H42 B18 1_555 1_555
B19 C14 1_555 1_555
H43 B19 1_555 1_555
B20 C14 1_555 1_555
H44 B20 1_555 1_555
C1B C2B 1_555 1_555
C2B C3B 1_555 1_555
C3B C4B 1_555 1_555
C4B C5 1_555 1_555
H1B C4B 1_555 1_555
C5B C4 1_555 1_555
H2B C5B 1_555 1_555
C6B C1B 1_555 1_555
C7B C6B 1_555 1_555
H3B C7B 1_555 1_555
C8B C7B 1_555 1_555
H4B C8B 1_555 1_555
C9B C8B 1_555 1_555
C10B C9B 1_555 1_555
H5B C10B 1_555 1_555
C11B C6B 1_555 1_555
H6B C11B 1_555 1_555
N1B C9B 1_555 1_555
C12B N1B 1_555 1_555
H7B C12B 1_555 1_555
H8B C12B 1_555 1_555
H9B C12B 1_555 1_555
C13B N1B 1_555 1_555
H10B C13B 1_555 1_555
H11B C13B 1_555 1_555
H12B C13B 1_555 1_555
B1B C1B 1_555 1_555
H13B B1B 1_555 1_555
B2B C1B 1_555 1_555
H14B B2B 1_555 1_555
B3B B1B 1_555 1_555
H15B B3B 1_555 1_555
B4B B1B 1_555 1_555
H16B B4B 1_555 1_555
B5B C1B 1_555 1_555
H17B B5B 1_555 1_555
B6B C1B 1_555 1_555
H18B B6B 1_555 1_555
B7B B2B 1_555 1_555
H19B B7B 1_555 1_555
B8B B3B 1_555 1_555
H20B B8B 1_555 1_555
B9B C2B 1_555 1_555
H21B B9B 1_555 1_555
B10B C2B 1_555 1_555
H22B B10B 1_555 1_555
C14B C15B 1_555 1_555
C15B C16B 1_555 1_555
C16B C17B 1_555 1_555
C17B C18 1_555 1_555
H23B C17B 1_555 1_555
C18B C17 1_555 1_555
H24B C18B 1_555 1_555
C19B C14B 1_555 1_555
C20B C19B 1_555 1_555
H25B C20B 1_555 1_555
C21B C20B 1_555 1_555
H26B C21B 1_555 1_555
C22B C21B 1_555 1_555
C23B C22B 1_555 1_555
H27B C23B 1_555 1_555
C24B C19B 1_555 1_555
H28B C24B 1_555 1_555
N2B C22B 1_555 1_555
C25B N2B 1_555 1_555
H29B C25B 1_555 1_555
H30B C25B 1_555 1_555
H31B C25B 1_555 1_555
C26B N2B 1_555 1_555
H32B C26B 1_555 1_555
H33B C26B 1_555 1_555
H34B C26B 1_555 1_555
B11B C15B 1_555 1_555
H35B B11B 1_555 1_555
B12B C14B 1_555 1_555
H36B B12B 1_555 1_555
B13B B11B 1_555 1_555
H37B B13B 1_555 1_555
B14B B11B 1_555 1_555
H38B B14B 1_555 1_555
B15B C15B 1_555 1_555
H39B B15B 1_555 1_555
B16B C14B 1_555 1_555
H40B B16B 1_555 1_555
B17B B13B 1_555 1_555
H41B B17B 1_555 1_555
B18B B14B 1_555 1_555
H42B B18B 1_555 1_555
B19B C14B 1_555 1_555
H43B B19B 1_555 1_555
B20B C14B 1_555 1_555
H44B B20B 1_555 1_555
C2 B5 1_555 1_555
C2 B6 1_555 1_555
C10 C11 1_555 1_555
B1 B2 1_555 1_555
B1 B5 1_555 1_555
B2 B3 1_555 1_555
B2 B6 1_555 1_555
B3 B4 1_555 1_555
B3 B7 1_555 1_555
B4 B5 1_555 1_555
B4 B8 1_555 1_555
B4 B9 1_555 1_555
B5 B9 1_555 1_555
B6 B7 1_555 1_555
B6 B10 1_555 1_555
B7 B8 1_555 1_555
B7 B10 1_555 1_555
B8 B9 1_555 1_555
B8 B10 1_555 1_555
B9 B10 1_555 1_555
C15 B12 1_555 1_555
C15 B19 1_555 1_555
C23 C24 1_555 1_555
B11 B12 1_555 1_555
B11 B15 1_555 1_555
B12 B13 1_555 1_555
B12 B16 1_555 1_555
B13 B14 1_555 1_555
B13 B16 1_555 1_555
B14 B15 1_555 1_555
B14 B17 1_555 1_555
B15 B18 1_555 1_555
B15 B19 1_555 1_555
B16 B17 1_555 1_555
B16 B20 1_555 1_555
B17 B18 1_555 1_555
B17 B20 1_555 1_555
B18 B19 1_555 1_555
B18 B20 1_555 1_555
B19 B20 1_555 1_555
C2B B5B 1_555 1_555
C2B B6B 1_555 1_555
C3B C5B 1_555 1_555
C10B C11B 1_555 1_555
B1B B2B 1_555 1_555
B1B B5B 1_555 1_555
B2B B3B 1_555 1_555
B2B B6B 1_555 1_555
B3B B4B 1_555 1_555
B3B B7B 1_555 1_555
B4B B5B 1_555 1_555
B4B B8B 1_555 1_555
B4B B9B 1_555 1_555
B5B B9B 1_555 1_555
B6B B7B 1_555 1_555
B6B B10B 1_555 1_555
B7B B8B 1_555 1_555
B7B B10B 1_555 1_555
B8B B9B 1_555 1_555
B8B B10B 1_555 1_555
B9B B10B 1_555 1_555
C15B B12B 1_555 1_555
C15B B19B 1_555 1_555
C16B C18B 1_555 1_555
C23B C24B 1_555 1_555
B11B B12B 1_555 1_555
B11B B15B 1_555 1_555
B12B B13B 1_555 1_555
B12B B16B 1_555 1_555
B13B B14B 1_555 1_555
B13B B16B 1_555 1_555
B14B B15B 1_555 1_555
B14B B17B 1_555 1_555
B15B B18B 1_555 1_555
B15B B19B 1_555 1_555
B16B B17B 1_555 1_555
B16B B20B 1_555 1_555
B17B B18B 1_555 1_555
B17B B20B 1_555 1_555
B18B B19B 1_555 1_555
B18B B20B 1_555 1_555
B19B B20B 1_555 1_555

#END
