
#######################################################################
#
#                 Cambridge Crystallographic Data Centre
#                                CCDC 
#
#######################################################################
#
# If this CIF has been generated from an entry in the Cambridge 
# Structural Database, then it will include bibliographic, chemical, 
# crystal, experimental, refinement or atomic coordinate data resulting 
# from the CCDC's data processing and validation procedures.
#
#######################################################################

data_QIJJEA
_chemical_formula_moiety         'C32 H26 N6 O6,H2 O1'
_chemical_name_systematic        
'Diethyl 1,4-dioxo-6,9-bis(pyridin-3-ylethynyl)-1,2,3,4,5,10-hexahydro-2,3,4a,10a-tetraazabenzo[g]cyclopenta[cd]azulene-2a,10b-dicarboxylate monohydrate'
_symmetry_cell_setting           triclinic
_symmetry_space_group_name_H-M   'P -1'
_symmetry_Int_Tables_number      2
_space_group_name_Hall           '-P 1'
loop_
_symmetry_equiv_pos_site_id
_symmetry_equiv_pos_as_xyz
1 x,y,z
2 -x,-y,-z
_cell_length_a                   9.0028(7)
_cell_length_b                   12.1877(9)
_cell_length_c                   14.2782(10)
_cell_angle_alpha                82.9710(10)
_cell_angle_beta                 76.8020(10)
_cell_angle_gamma                76.4090(10)
_cell_volume                     1478.65
_cell_formula_units_Z            2
loop_
_atom_site_label
_atom_site_type_symbol
_atom_site_fract_x
_atom_site_fract_y
_atom_site_fract_z
C1 C 0.3960(4) 0.2539(4) 1.4442(2)
H1 H 0.4131 0.2174 1.5047
C2 C 0.3949(4) 0.3666(4) 1.4289(2)
H2 H 0.4125 0.4064 1.4771
C3 C 0.3672(4) 0.4225(3) 1.3412(2)
H3 H 0.3652 0.5011 1.3285
C4 C 0.3429(3) 0.3605(3) 1.27322(19)
C5 C 0.3504(4) 0.2450(3) 1.2957(2)
H4 H 0.3375 0.2016 1.2484
C6 C 0.3135(3) 0.4080(2) 1.17992(19)
C7 C 0.2913(3) 0.4368(2) 1.10177(18)
C8 C 0.2649(3) 0.4741(2) 1.00545(16)
C9 C 0.1856(2) 0.41504(18) 0.96115(16)
C10 C 0.1606(2) 0.45178(18) 0.86818(16)
C11 C 0.2136(3) 0.54767(19) 0.82040(17)
C12 C 0.2917(3) 0.6055(2) 0.86591(18)
H5 H 0.3273 0.6703 0.8336
C13 C 0.3169(3) 0.5690(2) 0.95668(18)
H6 H 0.3702 0.6086 0.9868
C14 C 0.1847(3) 0.5912(2) 0.7250(2)
C15 C 0.1611(3) 0.6284(2) 0.6505(2)
C16 C 0.1254(4) 0.6760(2) 0.5581(2)
C17 C 0.0170(4) 0.6418(3) 0.5207(2)
H7 H -0.0354 0.5851 0.5547
C18 C -0.0148(4) 0.6912(3) 0.4327(2)
H8 H -0.0871 0.6676 0.4047
C19 C 0.0591(4) 0.7738(4) 0.3873(2)
H9 H 0.0358 0.8074 0.3273
C20 C 0.1960(4) 0.7608(3) 0.5058(2)
H10 H 0.2715 0.7841 0.5311
C21 C 0.0742(3) 0.39007(19) 0.81910(16)
H11 H -0.0321 0.3929 0.8588
H12 H 0.0629 0.4309 0.7559
C22 C 0.1289(3) 0.31232(19) 1.01415(16)
H13 H 0.1544 0.3005 1.0790
H14 H 0.0139 0.3267 1.0227
C23 C 0.2859(3) 0.2458(2) 0.73514(16)
C24 C 0.3219(3) 0.13019(19) 0.98516(17)
C25 C 0.1429(3) 0.18584(18) 0.88243(16)
C26 C -0.0223(3) 0.1625(2) 0.92125(18)
C27 C -0.2790(3) 0.1861(2) 0.8963(2)
H15 H -0.3164 0.1987 0.9657
H16 H -0.2824 0.1076 0.8868
C28 C -0.3786(3) 0.2687(3) 0.8379(2)
H17 H -0.3689 0.3456 0.8447
H18 H -0.4878 0.2627 0.8607
H19 H -0.3445 0.2521 0.7699
C29 C 0.2774(3) 0.08342(19) 0.84233(17)
C30 C 0.2388(3) -0.0233(2) 0.81703(19)
C31 C 0.0674(9) -0.1058(4) 0.7636(5)
H20 H 0.1565 -0.1478 0.7180
H21 H 0.0459 -0.1557 0.8230
C32 C -0.0702(8) -0.0728(6) 0.7204(8)
H22 H -0.1585 -0.0331 0.7668
H23 H -0.0959 -0.1405 0.7033
H24 H -0.0484 -0.0225 0.6623
N1 N 0.3750(4) 0.1918(3) 1.3806(2)
N2 N 0.1642(4) 0.8113(3) 0.4225(2)
N3 N 0.1499(2) 0.27200(15) 0.80368(13)
N4 N 0.1981(2) 0.21040(16) 0.96357(13)
N5 N 0.3565(2) 0.13627(17) 0.75512(15)
H25 H 0.4424 0.1010 0.7182
N6 N 0.3646(2) 0.05345(17) 0.91783(15)
H26 H 0.4379 -0.0083 0.9200
O1 O 0.3304(2) 0.31034(15) 0.66839(12)
O2 O 0.3816(2) 0.12988(15) 1.05437(13)
O3 O -0.0565(2) 0.11659(19) 1.00025(15)
O4 O -0.1192(2) 0.20418(15) 0.86316(13)
O5 O 0.3240(2) -0.11372(15) 0.82189(15)
O6 O 0.1061(3) -0.00227(18) 0.78703(18)
O7 O 0.6018(5) 0.0444(3) 0.6134(4)
H32 H 0.6082 -0.0241 0.6153
H33 H 0.6665 0.0842 0.6034
C33? C 0.094(2) -0.0699(17) 0.7095(13)
H27? H 0.1874 -0.1307 0.6907
H28? H 0.0648 -0.0232 0.6521
C34? C -0.039(3) -0.111(2) 0.7767(17)
H29? H -0.0066 -0.1462 0.8362
H30? H -0.0712 -0.1665 0.7457
H31? H -0.1276 -0.0467 0.7920
O8? O 0.657(2) 0.0327(12) 0.6706(18)
H34? H 0.7094 0.0784 0.6435
H35? H 0.6483 -0.0286 0.6568
loop_
_geom_bond_atom_site_label_1
_geom_bond_atom_site_label_2
_geom_bond_site_symmetry_1
_geom_bond_site_symmetry_2
C1 H1 1_555 1_555
C2 C1 1_555 1_555
H2 C2 1_555 1_555
C3 C2 1_555 1_555
H3 C3 1_555 1_555
C4 C3 1_555 1_555
C5 C4 1_555 1_555
H4 C5 1_555 1_555
C6 C4 1_555 1_555
C7 C6 1_555 1_555
C8 C7 1_555 1_555
C9 C8 1_555 1_555
C10 C9 1_555 1_555
C11 C10 1_555 1_555
C12 C11 1_555 1_555
H5 C12 1_555 1_555
C13 C8 1_555 1_555
H6 C13 1_555 1_555
C14 C11 1_555 1_555
C15 C14 1_555 1_555
C16 C15 1_555 1_555
C17 C16 1_555 1_555
H7 C17 1_555 1_555
C18 C17 1_555 1_555
H8 C18 1_555 1_555
C19 C18 1_555 1_555
H9 C19 1_555 1_555
C20 C16 1_555 1_555
H10 C20 1_555 1_555
C21 C10 1_555 1_555
H11 C21 1_555 1_555
H12 C21 1_555 1_555
C22 C9 1_555 1_555
H13 C22 1_555 1_555
H14 C22 1_555 1_555
C23 N3 1_555 1_555
C24 N4 1_555 1_555
C25 C26 1_555 1_555
C26 O3 1_555 1_555
C27 H15 1_555 1_555
H16 C27 1_555 1_555
C28 C27 1_555 1_555
H17 C28 1_555 1_555
H18 C28 1_555 1_555
H19 C28 1_555 1_555
C29 C25 1_555 1_555
C30 C29 1_555 1_555
C31 H20 1_555 1_555
H21 C31 1_555 1_555
C32 C31 1_555 1_555
H22 C32 1_555 1_555
H23 C32 1_555 1_555
H24 C32 1_555 1_555
N1 C1 1_555 1_555
N2 C19 1_555 1_555
N3 C21 1_555 1_555
N4 C22 1_555 1_555
N5 C23 1_555 1_555
H25 N5 1_555 1_555
N6 C24 1_555 1_555
H26 N6 1_555 1_555
O1 C23 1_555 1_555
O2 C24 1_555 1_555
O4 C26 1_555 1_555
O5 C30 1_555 1_555
O6 C30 1_555 1_555
O7 H32 1_555 1_555
H33 O7 1_555 1_555
C5 N1 1_555 1_555
C12 C13 1_555 1_555
C20 N2 1_555 1_555
C25 N3 1_555 1_555
C25 N4 1_555 1_555
C27 O4 1_555 1_555
C29 N5 1_555 1_555
C29 N6 1_555 1_555
C31 O6 1_555 1_555

#END
