
#######################################################################
#
#                 Cambridge Crystallographic Data Centre
#                                CCDC 
#
#######################################################################
#
# If this CIF has been generated from an entry in the Cambridge 
# Structural Database, then it will include bibliographic, chemical, 
# crystal, experimental, refinement or atomic coordinate data resulting 
# from the CCDC's data processing and validation procedures.
#
#######################################################################

data_QIJKAX
_chemical_formula_moiety         'C48 H34 N6 O6,C3 H7 N1 O1'
_chemical_name_systematic        
'Diethyl 1,4-dioxo-6,9-bis((4-(pyridin-4-ylethynyl)phenyl)ethynyl)-1,2,3,4,5,10-hexahydro-2,3,4a,10a-tetraazabenzo[g]cyclopenta[cd]azulene-2a,10b-dicarboxylate N,N-dimethylformamide solvate'
_symmetry_cell_setting           monoclinic
_symmetry_space_group_name_H-M   'P 21/n'
_symmetry_Int_Tables_number      14
_space_group_name_Hall           '-P 2yn'
loop_
_symmetry_equiv_pos_site_id
_symmetry_equiv_pos_as_xyz
1 x,y,z
2 1/2-x,1/2+y,1/2-z
3 -x,-y,-z
4 1/2+x,1/2-y,1/2+z
_cell_length_a                   8.6103(13)
_cell_length_b                   31.467(5)
_cell_length_c                   16.826(3)
_cell_angle_alpha                90
_cell_angle_beta                 103.106(3)
_cell_angle_gamma                90
_cell_volume                     4440.09
_cell_formula_units_Z            4
loop_
_atom_site_label
_atom_site_type_symbol
_atom_site_fract_x
_atom_site_fract_y
_atom_site_fract_z
C1 C -0.1352(5) 0.37101(12) -0.6772(2)
H1 H -0.0771 0.3903 -0.7030
C2 C -0.1002(5) 0.36997(12) -0.5930(2)
H2 H -0.0187 0.3876 -0.5623
C3 C -0.1856(5) 0.34279(11) -0.5536(2)
C4 C -0.3032(5) 0.31774(11) -0.6027(2)
H3 H -0.3666 0.2991 -0.5789
C5 C -0.3261(5) 0.32049(12) -0.6863(2)
H4 H -0.4043 0.3026 -0.7188
C6 C -0.1539(5) 0.34012(11) -0.4663(3)
C7 C -0.1259(5) 0.33749(11) -0.3933(3)
C8 C -0.0922(5) 0.33478(11) -0.3063(2)
C9 C -0.0319(5) 0.36967(11) -0.2583(2)
H5 H -0.0110 0.3953 -0.2838
C10 C -0.0025(5) 0.36754(11) -0.1751(2)
H6 H 0.0395 0.3916 -0.1434
C11 C -0.0331(4) 0.33053(11) -0.1362(2)
C12 C -0.0956(5) 0.29544(12) -0.1832(2)
H7 H -0.1181 0.2700 -0.1575
C13 C -0.1245(5) 0.29756(11) -0.2670(2)
H8 H -0.1670 0.2735 -0.2986
C14 C 0.0040(4) 0.32831(11) -0.0486(3)
C15 C 0.0463(4) 0.32807(10) 0.0247(2)
C16 C 0.1013(4) 0.32808(10) 0.1111(2)
C17 C 0.2151(4) 0.35788(9) 0.15035(19)
C18 C 0.2641(4) 0.35792(9) 0.23507(19)
C19 C 0.2051(4) 0.32666(10) 0.2808(2)
C20 C 0.0953(4) 0.29674(10) 0.2406(2)
H9 H 0.0559 0.2757 0.2714
C21 C 0.0436(4) 0.29735(10) 0.1575(2)
H10 H -0.0317 0.2769 0.1310
C22 C 0.2542(4) 0.32501(10) 0.3677(2)
C23 C 0.2899(4) 0.32266(10) 0.4411(2)
C24 C 0.3281(4) 0.32006(10) 0.5281(2)
C25 C 0.4551(5) 0.34330(11) 0.5746(2)
H11 H 0.5170 0.3610 0.5481
C26 C 0.4914(5) 0.34074(11) 0.6584(2)
H12 H 0.5783 0.3565 0.6894
C27 C 0.4001(4) 0.31488(10) 0.6979(2)
C28 C 0.2719(4) 0.29243(10) 0.6518(2)
H13 H 0.2083 0.2752 0.6784
C29 C 0.2364(4) 0.29494(10) 0.5680(2)
H14 H 0.1486 0.2794 0.5370
C30 C 0.4369(4) 0.31100(10) 0.7850(2)
C31 C 0.4643(5) 0.30686(10) 0.8581(2)
C32 C 0.4805(5) 0.30106(10) 0.9442(2)
C33 C 0.6078(5) 0.31747(11) 1.0022(2)
H15 H 0.6906 0.3328 0.9861
C34 C 0.6113(5) 0.31099(11) 1.0844(2)
H16 H 0.6976 0.3228 1.1236
C35 C 0.3798(5) 0.27383(11) 1.0540(2)
H17 H 0.2987 0.2584 1.0715
C36 C 0.3652(4) 0.27886(11) 0.9717(2)
H18 H 0.2765 0.2671 0.9340
C37 C 0.2900(4) 0.38792(9) 0.09837(19)
H19 H 0.4065 0.3828 0.1103
H20 H 0.2465 0.3813 0.0400
C38 C 0.3801(4) 0.39137(10) 0.2790(2)
H21 H 0.3968 0.3869 0.3386
H22 H 0.4841 0.3874 0.2642
C39 C 0.1559(4) 0.45780(10) 0.0608(2)
C40 C 0.2059(4) 0.45290(10) 0.2898(2)
C41 C 0.3437(4) 0.45468(10) 0.18502(19)
C42 C 0.5217(5) 0.46224(11) 0.1871(3)
C43 C 0.7181(6) 0.46355(15) 0.1070(3)
H23 H 0.7776 0.4803 0.1540
H24 H 0.7202 0.4794 0.0565
C44 C 0.7954(5) 0.42105(13) 0.1053(3)
H25 H 0.7906 0.4052 0.1548
H26 H 0.9071 0.4250 0.1027
H27 H 0.7393 0.4052 0.0572
C45 C 0.2379(4) 0.49634(10) 0.1816(2)
C46 C 0.3367(5) 0.53687(11) 0.2023(2)
C47 C 0.5241(12) 0.5812(3) 0.1662(5)
H28 H 0.6021 0.5763 0.2184
H29 H 0.4631 0.6074 0.1709
C48 C 0.6069(10) 0.5846(2) 0.0966(5)
H30 H 0.6723 0.5593 0.0954
H31 H 0.6751 0.6099 0.1041
H32 H 0.5270 0.5869 0.0450
N1 N -0.2449(4) 0.34681(10) -0.72464(17)
N2 N 0.5006(4) 0.28919(9) 1.11146(18)
N3 N 0.2612(3) 0.43263(8) 0.11255(15)
N4 N 0.3265(3) 0.43504(8) 0.25981(15)
N5 N 0.1488(4) 0.49576(8) 0.09861(16)
H33 H 0.0949 0.5178 0.0745
N6 N 0.1495(3) 0.48742(8) 0.24236(17)
H34 H 0.0672 0.5026 0.2486
O1 O 0.0810(3) 0.44763(7) -0.00799(14)
O2 O 0.1588(3) 0.43950(7) 0.34842(15)
O3 O 0.6145(4) 0.47112(10) 0.24807(19)
O4 O 0.5526(3) 0.45782(8) 0.11398(18)
O5 O 0.3423(4) 0.55770(8) 0.26275(17)
O6 O 0.4178(3) 0.54496(7) 0.14527(15)
C51 C 0.7418(6) 0.56394(13) 0.4189(3)
H40 H 0.8074 0.5837 0.3955
H41 H 0.7466 0.5718 0.4758
H42 H 0.6311 0.5654 0.3876
C52 C 0.7322(7) 0.48801(14) 0.4591(3)
H43 H 0.6188 0.4846 0.4333
H44 H 0.7439 0.4965 0.5162
H45 H 0.7877 0.4610 0.4567
C53 C 0.8955(5) 0.51077(13) 0.3654(3)
H46 H 0.9249 0.4818 0.3635
N7 N 0.8016(4) 0.52094(10) 0.41566(19)
O7 O 0.9473(3) 0.53573(8) 0.32146(17)
C49? C 0.522(3) 0.5804(9) 0.144(2)
H35? H 0.4691 0.6068 0.1563
H36? H 0.5422 0.5833 0.0886
C50? C 0.678(2) 0.5753(6) 0.2049(12)
H37? H 0.6622 0.5800 0.2601
H38? H 0.7550 0.5961 0.1934
H39? H 0.7192 0.5465 0.2010
loop_
_geom_bond_atom_site_label_1
_geom_bond_atom_site_label_2
_geom_bond_site_symmetry_1
_geom_bond_site_symmetry_2
C1 H1 1_555 1_555
C2 C1 1_555 1_555
H2 C2 1_555 1_555
C3 C2 1_555 1_555
C4 C3 1_555 1_555
H3 C4 1_555 1_555
C5 C4 1_555 1_555
H4 C5 1_555 1_555
C6 C3 1_555 1_555
C7 C6 1_555 1_555
C8 C7 1_555 1_555
C9 C8 1_555 1_555
H5 C9 1_555 1_555
C10 C9 1_555 1_555
H6 C10 1_555 1_555
C11 C10 1_555 1_555
C12 C11 1_555 1_555
H7 C12 1_555 1_555
C13 C8 1_555 1_555
H8 C13 1_555 1_555
C14 C11 1_555 1_555
C15 C14 1_555 1_555
C16 C15 1_555 1_555
C17 C16 1_555 1_555
C18 C17 1_555 1_555
C19 C18 1_555 1_555
C20 C19 1_555 1_555
H9 C20 1_555 1_555
C21 C16 1_555 1_555
H10 C21 1_555 1_555
C22 C19 1_555 1_555
C23 C22 1_555 1_555
C24 C23 1_555 1_555
C25 C24 1_555 1_555
H11 C25 1_555 1_555
C26 C25 1_555 1_555
H12 C26 1_555 1_555
C27 C26 1_555 1_555
C28 C27 1_555 1_555
H13 C28 1_555 1_555
C29 C24 1_555 1_555
H14 C29 1_555 1_555
C30 C27 1_555 1_555
C31 C30 1_555 1_555
C32 C31 1_555 1_555
C33 C32 1_555 1_555
H15 C33 1_555 1_555
C34 C33 1_555 1_555
H16 C34 1_555 1_555
C35 H17 1_555 1_555
C36 C32 1_555 1_555
H18 C36 1_555 1_555
C37 C17 1_555 1_555
H19 C37 1_555 1_555
H20 C37 1_555 1_555
C38 C18 1_555 1_555
H21 C38 1_555 1_555
H22 C38 1_555 1_555
C39 N3 1_555 1_555
C40 N4 1_555 1_555
C41 C42 1_555 1_555
C42 O3 1_555 1_555
C43 H23 1_555 1_555
H24 C43 1_555 1_555
C44 C43 1_555 1_555
H25 C44 1_555 1_555
H26 C44 1_555 1_555
H27 C44 1_555 1_555
C45 C41 1_555 1_555
C46 C45 1_555 1_555
C47 H28 1_555 1_555
H29 C47 1_555 1_555
C48 C47 1_555 1_555
H30 C48 1_555 1_555
H31 C48 1_555 1_555
H32 C48 1_555 1_555
N1 C1 1_555 1_555
N2 C34 1_555 1_555
N3 C37 1_555 1_555
N4 C38 1_555 1_555
N5 C39 1_555 1_555
H33 N5 1_555 1_555
N6 C40 1_555 1_555
H34 N6 1_555 1_555
O1 C39 1_555 1_555
O2 C40 1_555 1_555
O4 C42 1_555 1_555
O5 C46 1_555 1_555
O6 C46 1_555 1_555
C51 H40 1_555 1_555
H41 C51 1_555 1_555
H42 C51 1_555 1_555
C52 H43 1_555 1_555
H44 C52 1_555 1_555
H45 C52 1_555 1_555
C53 H46 1_555 1_555
N7 C51 1_555 1_555
O7 C53 1_555 1_555
C5 N1 1_555 1_555
C12 C13 1_555 1_555
C20 C21 1_555 1_555
C28 C29 1_555 1_555
C35 C36 1_555 1_555
C35 N2 1_555 1_555
C41 N3 1_555 1_555
C41 N4 1_555 1_555
C43 O4 1_555 1_555
C45 N5 1_555 1_555
C45 N6 1_555 1_555
C47 O6 1_555 1_555
C52 N7 1_555 1_555
C53 N7 1_555 1_555

#END
