
#######################################################################
#
#                 Cambridge Crystallographic Data Centre
#                                CCDC 
#
#######################################################################
#
# If this CIF has been generated from an entry in the Cambridge 
# Structural Database, then it will include bibliographic, chemical, 
# crystal, experimental, refinement or atomic coordinate data resulting 
# from the CCDC's data processing and validation procedures.
#
#######################################################################

data_QIJMIF
_chemical_formula_moiety         'C20 H19 N3 O5'
_chemical_name_systematic        
4-Azido-4-deoxy-2-O-benzoyl-3-O-benzyl-1,6-anhydro-\b-L-altropyranose
_symmetry_cell_setting           orthorhombic
_symmetry_space_group_name_H-M   'P 21 21 21'
_symmetry_Int_Tables_number      19
_space_group_name_Hall           'P 2ac 2ab'
loop_
_symmetry_equiv_pos_site_id
_symmetry_equiv_pos_as_xyz
1 x,y,z
2 1/2-x,-y,1/2+z
3 1/2+x,1/2-y,-z
4 -x,1/2+y,1/2-z
_cell_length_a                   8.8646(15)
_cell_length_b                   11.5634(12)
_cell_length_c                   18.468(4)
_cell_angle_alpha                90
_cell_angle_beta                 90
_cell_angle_gamma                90
_cell_volume                     1893.06
_exptl_crystal_colour            colorless
_chemical_melting_point          '132-133 deg.C'
_cell_formula_units_Z            4
_exptl_crystal_recrystallization_method chloroform/hexane
loop_
_atom_site_label
_atom_site_type_symbol
_atom_site_fract_x
_atom_site_fract_y
_atom_site_fract_z
O1 O 0.2542(2) 0.5085(1) 0.1505(1)
O2 O 0.5807(2) 0.4820(2) 0.1482(1)
O3 O 0.3480(2) 0.3875(2) 0.3268(1)
O4 O 0.2082(2) 0.3054(1) 0.2386(1)
O5 O 0.1795(2) 0.6705(2) 0.2066(1)
N1 N 0.6484(3) 0.4240(2) 0.2915(1)
N2 N 0.7766(3) 0.4402(2) 0.2671(1)
N3 N 0.8956(3) 0.4628(3) 0.2512(2)
C1 C 0.2554(3) 0.4124(2) 0.2674(1)
C2 C 0.3488(3) 0.4800(2) 0.2117(1)
C3 C 0.4786(3) 0.4075(2) 0.1841(1)
C4 C 0.5559(3) 0.3435(2) 0.2478(1)
C5 C 0.4376(3) 0.2938(2) 0.2986(1)
C6 C 0.3177(3) 0.2215(2) 0.2611(2)
C7 C 0.6778(3) 0.4253(3) 0.0977(2)
C8 C 0.6034(3) 0.3975(2) 0.0264(1)
C9 C 0.6491(4) 0.3020(3) -0.0131(2)
C10 C 0.5883(5) 0.2798(3) -0.0800(2)
C11 C 0.4797(5) 0.3512(3) -0.1086(2)
C12 C 0.4317(5) 0.4439(3) -0.0693(2)
C13 C 0.4934(4) 0.4677(3) -0.0021(2)
C14 C 0.1706(3) 0.6057(2) 0.1562(1)
C15 C 0.0673(3) 0.6198(2) 0.0937(1)
C16 C -0.0376(3) 0.7097(2) 0.0967(2)
C17 C -0.1402(3) 0.7255(3) 0.0410(2)
C18 C -0.1376(3) 0.6522(3) -0.0186(2)
C19 C -0.0330(3) 0.5641(3) -0.0219(1)
C20 C 0.0686(3) 0.5478(2) 0.0339(1)
H1 H 0.168 0.459 0.284
H2 H 0.380 0.551 0.238
H3 H 0.444 0.342 0.153
H4 H 0.623 0.280 0.230
H5 H 0.490 0.254 0.340
H6 H 0.365 0.184 0.218
H7 H 0.764 0.478 0.086
H8 H 0.730 0.353 0.114
H9 H 0.722 0.246 0.009
H10 H 0.626 0.214 -0.110
H11 H 0.429 0.331 -0.155
H12 H 0.354 0.498 -0.089
H13 H 0.455 0.535 0.027
H14 H -0.036 0.766 0.138
H15 H -0.215 0.790 0.045
H16 H -0.209 0.665 -0.060
H17 H -0.030 0.512 -0.065
H18 H 0.141 0.482 0.031
loop_
_geom_bond_atom_site_label_1
_geom_bond_atom_site_label_2
_geom_bond_site_symmetry_1
_geom_bond_site_symmetry_2
O1 C2 1_555 1_555
O2 C3 1_555 1_555
O3 C1 1_555 1_555
O4 C1 1_555 1_555
O5 C14 1_555 1_555
N1 N2 1_555 1_555
N2 N3 1_555 1_555
C1 C2 1_555 1_555
C2 C3 1_555 1_555
C3 C4 1_555 1_555
C4 N1 1_555 1_555
C5 O3 1_555 1_555
C6 O4 1_555 1_555
C7 O2 1_555 1_555
C8 C7 1_555 1_555
C9 C8 1_555 1_555
C10 C9 1_555 1_555
C11 C10 1_555 1_555
C12 C11 1_555 1_555
C13 C8 1_555 1_555
C14 O1 1_555 1_555
C15 C14 1_555 1_555
C16 C15 1_555 1_555
C17 C16 1_555 1_555
C18 C17 1_555 1_555
C19 C18 1_555 1_555
C20 C15 1_555 1_555
H1 C1 1_555 1_555
H2 C2 1_555 1_555
H3 C3 1_555 1_555
H4 C4 1_555 1_555
H5 C5 1_555 1_555
H6 C6 1_555 1_555
H7 C7 1_555 1_555
H8 C7 1_555 1_555
H9 C9 1_555 1_555
H10 C10 1_555 1_555
H11 C11 1_555 1_555
H12 C12 1_555 1_555
H13 C13 1_555 1_555
H14 C16 1_555 1_555
H15 C17 1_555 1_555
H16 C18 1_555 1_555
H17 C19 1_555 1_555
H18 C20 1_555 1_555
C4 C5 1_555 1_555
C5 C6 1_555 1_555
C12 C13 1_555 1_555
C19 C20 1_555 1_555

#END
