
#######################################################################
#
#                 Cambridge Crystallographic Data Centre
#                                CCDC 
#
#######################################################################
#
# If this CIF has been generated from an entry in the Cambridge 
# Structural Database, then it will include bibliographic, chemical, 
# crystal, experimental, refinement or atomic coordinate data resulting 
# from the CCDC's data processing and validation procedures.
#
#######################################################################

data_QIJNAY
_chemical_formula_moiety         'C27 H27 N3 O6'
_chemical_name_systematic        
'2-Azido-2-deoxy-3,4-di-O-benzyl-\b-D-glucopyranosyl benzoate'
_symmetry_cell_setting           orthorhombic
_symmetry_space_group_name_H-M   'P 21 21 21'
_symmetry_Int_Tables_number      19
_space_group_name_Hall           'P 2ac 2ab'
loop_
_symmetry_equiv_pos_site_id
_symmetry_equiv_pos_as_xyz
1 x,y,z
2 1/2-x,-y,1/2+z
3 1/2+x,1/2-y,-z
4 -x,1/2+y,1/2-z
_cell_length_a                   5.786(5)
_cell_length_b                   16.8340(24)
_cell_length_c                   25.424(3)
_cell_angle_alpha                90
_cell_angle_beta                 90
_cell_angle_gamma                90
_cell_volume                     2476.34
_exptl_crystal_colour            colorless
_chemical_melting_point          '184-185 deg.C'
_cell_formula_units_Z            4
_exptl_crystal_recrystallization_method chloroform/hexane
loop_
_atom_site_label
_atom_site_type_symbol
_atom_site_fract_x
_atom_site_fract_y
_atom_site_fract_z
O1 O 0.0289(7) 0.6676(2) 0.8696(1)
O2 O 0.4808(7) 0.4933(2) 0.9696(1)
O3 O 0.1723(7) 0.5261(2) 1.0596(1)
O4 O -0.0333(7) 0.6595(2) 0.9565(1)
O5 O -0.3554(8) 0.6670(3) 0.8547(2)
O6 O -0.3388(13) 0.6926(4) 1.0418(3)
N1 N 0.2401(9) 0.5140(3) 0.8696(2)
N2 N 0.4345(11) 0.4980(3) 0.8536(2)
N3 N 0.6020(12) 0.4782(4) 0.8342(2)
C1 C 0.0068(11) 0.6126(3) 0.9114(2)
C2 C 0.2312(9) 0.5683(3) 0.9152(2)
C3 C 0.2488(10) 0.5213(3) 0.9664(2)
C4 C 0.1869(9) 0.5737(3) 1.0132(2)
C5 C -0.0449(11) 0.6131(3) 1.0044(2)
C6 C -0.1114(12) 0.6709(4) 1.0478(2)
C7 C -0.1672(12) 0.6931(3) 0.8450(2)
C8 C -0.1184(10) 0.7553(3) 0.8061(2)
C9 C 0.0891(11) 0.7965(3) 0.8049(2)
C10 C 0.1239(12) 0.8544(3) 0.7675(2)
C11 C -0.0430(12) 0.8715(3) 0.7307(2)
C12 C -0.2470(11) 0.8299(4) 0.7307(3)
C13 C -0.2866(10) 0.7726(3) 0.7691(2)
C14 C 0.5141(12) 0.4166(3) 0.9948(2)
C15 C 0.5036(12) 0.3489(3) 0.9569(2)
C16 C 0.6826(11) 0.3366(4) 0.9220(3)
C17 C 0.6773(15) 0.2730(4) 0.8878(3)
C18 C 0.4945(18) 0.2219(4) 0.8888(3)
C19 C 0.3156(16) 0.2339(4) 0.9223(3)
C20 C 0.3196(12) 0.2968(4) 0.9567(3)
C21 C 0.3392(12) 0.5456(4) 1.0986(2)
C22 C 0.3039(11) 0.4936(3) 1.1453(2)
C23 C 0.4706(12) 0.4406(4) 1.1606(3)
C24 C 0.4396(15) 0.3937(5) 1.2047(3)
C25 C 0.2436(17) 0.4004(5) 1.2337(3)
C26 C 0.0743(13) 0.4511(5) 1.2182(3)
C27 C 0.1052(12) 0.4973(4) 1.1745(2)
H1 H -0.123 0.574 0.906
H2 H 0.360 0.608 0.915
H3 H 0.133 0.477 0.966
H4 H 0.307 0.616 1.016
H5 H -0.163 0.570 1.001
H6 H 0.213 0.784 0.831
H7 H 0.268 0.887 0.769
H8 H -0.012 0.911 0.702
H9 H -0.367 0.841 0.703
H10 H -0.431 0.740 0.768
H11 H 0.649 0.415 1.019
H12 H 0.378 0.409 1.019
H13 H 0.818 0.374 0.922
H14 H 0.804 0.265 0.862
H15 H 0.499 0.175 0.864
H16 H 0.184 0.195 0.922
H17 H 0.185 0.306 0.981
H18 H 0.499 0.538 1.084
H19 H 0.329 0.603 1.109
H20 H 0.615 0.436 1.139
H21 H 0.558 0.354 1.216
H22 H 0.228 0.371 1.268
H23 H -0.075 0.454 1.238
H24 H -0.019 0.535 1.164
H25 H -0.014 0.720 1.048
H26 H -0.103 0.642 1.082
O7? O 0.0647(23) 0.7254(8) 1.0601(5)
loop_
_geom_bond_atom_site_label_1
_geom_bond_atom_site_label_2
_geom_bond_site_symmetry_1
_geom_bond_site_symmetry_2
O1 C1 1_555 1_555
O2 C3 1_555 1_555
O3 C4 1_555 1_555
O4 C1 1_555 1_555
O5 C7 1_555 1_555
O6 C6 1_555 1_555
N1 N2 1_555 1_555
N2 N3 1_555 1_555
C1 C2 1_555 1_555
C2 N1 1_555 1_555
C3 C2 1_555 1_555
C4 C3 1_555 1_555
C5 O4 1_555 1_555
C6 C5 1_555 1_555
C7 O1 1_555 1_555
C8 C7 1_555 1_555
C9 C8 1_555 1_555
C10 C9 1_555 1_555
C11 C10 1_555 1_555
C12 C11 1_555 1_555
C13 C8 1_555 1_555
C14 O2 1_555 1_555
C15 C14 1_555 1_555
C16 C15 1_555 1_555
C17 C16 1_555 1_555
C18 C17 1_555 1_555
C19 C18 1_555 1_555
C20 C15 1_555 1_555
C21 O3 1_555 1_555
C22 C21 1_555 1_555
C23 C22 1_555 1_555
C24 C23 1_555 1_555
C25 C24 1_555 1_555
C26 C25 1_555 1_555
C27 C22 1_555 1_555
H1 C1 1_555 1_555
H2 C2 1_555 1_555
H3 C3 1_555 1_555
H4 C4 1_555 1_555
H5 C5 1_555 1_555
H6 C9 1_555 1_555
H7 C10 1_555 1_555
H8 C11 1_555 1_555
H9 C12 1_555 1_555
H10 C13 1_555 1_555
H11 C14 1_555 1_555
H12 C14 1_555 1_555
H13 C16 1_555 1_555
H14 C17 1_555 1_555
H15 C18 1_555 1_555
H16 C19 1_555 1_555
H17 C20 1_555 1_555
H18 C21 1_555 1_555
H19 C21 1_555 1_555
H20 C23 1_555 1_555
H21 C24 1_555 1_555
H22 C25 1_555 1_555
H23 C26 1_555 1_555
H24 C27 1_555 1_555
H25 C6 1_555 1_555
H26 C6 1_555 1_555
C4 C5 1_555 1_555
C12 C13 1_555 1_555
C19 C20 1_555 1_555
C26 C27 1_555 1_555

#END
