
#######################################################################
#
#                 Cambridge Crystallographic Data Centre
#                                CCDC 
#
#######################################################################
#
# If this CIF has been generated from an entry in the Cambridge 
# Structural Database, then it will include bibliographic, chemical, 
# crystal, experimental, refinement or atomic coordinate data resulting 
# from the CCDC's data processing and validation procedures.
#
#######################################################################

data_QIJVIR
_chemical_formula_moiety         'C36 H40 N6'
_chemical_name_systematic        
2,2'-[5,10-bis(2-ethylhexyl)indolo[3,2-b]indole-2,7(5H,10H)-diylidene]dipropanedinitrile
_symmetry_cell_setting           triclinic
_symmetry_space_group_name_H-M   'P -1'
_symmetry_Int_Tables_number      2
_space_group_name_Hall           '-P 1'
loop_
_symmetry_equiv_pos_site_id
_symmetry_equiv_pos_as_xyz
1 x,y,z
2 -x,-y,-z
_cell_length_a                   10.9536(12)
_cell_length_b                   12.6964(12)
_cell_length_c                   12.7800(11)
_cell_angle_alpha                116.804(4)
_cell_angle_beta                 92.354(6)
_cell_angle_gamma                98.939(6)
_cell_volume                     1554.6
_exptl_crystal_colour            colorless
_exptl_crystal_description       block
_cell_formula_units_Z            2
loop_
_atom_site_label
_atom_site_type_symbol
_atom_site_fract_x
_atom_site_fract_y
_atom_site_fract_z
C1 C 0.9174(4) 0.0513(4) 0.7658(3)
C2 C 0.9071(4) 0.2463(3) 0.9235(3)
C3 C 0.9050(4) 0.1720(3) 0.7998(3)
C4 C 0.8889(3) 0.2126(3) 0.7157(3)
C5 C 0.8707(3) 0.3324(3) 0.7511(3)
H1 H 0.8656 0.3854 0.8314
C6 C 0.8611(3) 0.3682(3) 0.6655(3)
C7 C 0.8696(3) 0.2889(3) 0.5423(3)
C8 C 0.8847(4) 0.1704(3) 0.5093(3)
H2 H 0.8890 0.1169 0.4290
C9 C 0.8930(4) 0.1331(3) 0.5928(3)
H3 H 0.9018 0.0526 0.5699
C10 C 0.8585(3) 0.3587(3) 0.4849(3)
C11 C 0.8420(3) 0.4756(3) 0.5699(3)
C12 C 0.8309(3) 0.5445(3) 0.5127(3)
C13 C 0.8398(3) 0.4661(3) 0.3898(3)
C14 C 0.8319(3) 0.5035(3) 0.3050(3)
H4 H 0.8378 0.4510 0.2248
C15 C 0.8150(4) 0.6223(3) 0.3400(3)
C16 C 0.8073(4) 0.7014(3) 0.4622(3)
H5 H 0.7962 0.7812 0.4846
C17 C 0.8159(4) 0.6636(3) 0.5460(3)
H6 H 0.8118 0.7170 0.6264
C18 C 0.8067(4) 0.6660(3) 0.2571(3)
C19 C 0.8166(4) 0.5939(3) 0.1355(3)
C20 C 0.7915(4) 0.7855(3) 0.2895(3)
C21 C 0.8072(3) 0.5762(3) 0.7835(3)
H7 H 0.8247 0.6517 0.7768
H8 H 0.8612 0.5887 0.8538
C22 C 0.6747(5) 0.5561(5) 0.8052(4)
H9 H 0.6830 0.5054 0.8454
C23 C 0.6494(5) 0.6653(4) 0.9105(4)
H10 H 0.7254 0.7004 0.9687
H11 H 0.6368 0.7255 0.8839
C24 C 0.5444(7) 0.6499(7) 0.9720(6)
H12 H 0.5627 0.6008 1.0106
H13 H 0.4701 0.6039 0.9127
C25 C 0.5127(7) 0.7647(6) 1.0642(6)
H14 H 0.5896 0.8183 1.1160
H15 H 0.4770 0.8067 1.0249
C26 C 0.4248(11) 0.7400(10) 1.1346(9)
H16 H 0.3472 0.6901 1.0839
H17 H 0.4078 0.8158 1.1955
H18 H 0.4596 0.6971 1.1723
C27 C 0.5774(12) 0.4665(11) 0.7040(11)
H19 H 0.5102 0.4297 0.7338
H20 H 0.6155 0.4016 0.6462
C28 C 0.5236(16) 0.5348(16) 0.6444(15)
H21 H 0.4665 0.5823 0.6938
H22 H 0.4785 0.4769 0.5666
H23 H 0.5919 0.5885 0.6351
C29 C 0.8630(4) 0.2480(3) 0.2654(3)
H24 H 0.9204 0.2022 0.2810
H25 H 0.8990 0.2753 0.2099
C30 C 0.7416(6) 0.1656(5) 0.2070(5)
H26 H 0.7485 0.1132 0.2456
C31 C 0.7186(12) 0.0672(11) 0.0860(9)
H27 H 0.6988 0.0989 0.0307
H28 H 0.6457 0.0064 0.0789
C32 C 0.8300(11) 0.0081(11) 0.0524(11)
H29 H 0.8994 0.0653 0.0496
H30 H 0.8086 -0.0626 -0.0254
H31 H 0.8545 -0.0167 0.1113
C33 C 0.6214(9) 0.2009(11) 0.2536(13)
H32 H 0.5966 0.2508 0.2183
H33 H 0.6426 0.2546 0.3395
C34 C 0.5042(9) 0.1096(11) 0.2386(12)
H34 H 0.4274 0.1386 0.2299
H35 H 0.5028 0.0305 0.1698
C35 C 0.519(2) 0.104(3) 0.353(2)
H36 H 0.5888 0.0612 0.3503
H37 H 0.5460 0.1870 0.4171
C36 C 0.411(2) 0.045(2) 0.388(2)
H38 H 0.3529 -0.0119 0.3168
H39 H 0.3679 0.1060 0.4416
H40 H 0.4402 0.0009 0.4270
N1 N 0.8438(3) 0.4806(2) 0.6786(2)
N2 N 0.8575(3) 0.3541(2) 0.3766(2)
N3 N 0.9259(5) -0.0469(3) 0.7381(3)
N4 N 0.9106(4) 0.3036(3) 1.0232(3)
N5 N 0.8255(4) 0.5377(3) 0.0376(3)
N6 N 0.7797(4) 0.8823(3) 0.3155(3)
H41? H 0.6639 0.4892 0.8271
C37? C 0.5813(15) 0.5176(12) 0.7012(11)
H42? H 0.6166 0.5555 0.6535
H43? H 0.5075 0.5525 0.7310
C38? C 0.5350(12) 0.3853(11) 0.6179(11)
H44? H 0.5972 0.3546 0.5645
H45? H 0.4565 0.3747 0.5715
H46? H 0.5215 0.3409 0.6636
H47? H 0.6998 0.2102 0.1733
C39? C 0.7785(16) 0.0632(16) 0.0958(10)
H48? H 0.8658 0.0931 0.0903
H49? H 0.7804 -0.0040 0.1149
C40? C 0.7101(16) 0.0064(16) -0.0293(12)
H50? H 0.6205 -0.0147 -0.0274
H51? H 0.7409 -0.0663 -0.0797
H52? H 0.7248 0.0639 -0.0612
C41? C 0.6460(10) 0.1294(11) 0.2644(11)
H53? H 0.6880 0.1175 0.3273
H54? H 0.5982 0.0497 0.2056
C42? C 0.5542(18) 0.2074(18) 0.319(2)
H55? H 0.5271 0.2411 0.2674
H56? H 0.5914 0.2747 0.3969
C43? C 0.444(2) 0.127(2) 0.3324(19)
H57? H 0.3700 0.1646 0.3459
H58? H 0.4230 0.0478 0.2604
C44? C 0.485(3) 0.110(3) 0.439(2)
H59? H 0.5420 0.0532 0.4164
H60? H 0.4122 0.0795 0.4658
H61? H 0.5284 0.1880 0.5029
loop_
_geom_bond_atom_site_label_1
_geom_bond_atom_site_label_2
_geom_bond_site_symmetry_1
_geom_bond_site_symmetry_2
C1 C3 1_555 1_555
C2 C3 1_555 1_555
C3 C4 1_555 1_555
C4 C5 1_555 1_555
C5 H1 1_555 1_555
C6 C5 1_555 1_555
C7 C6 1_555 1_555
C8 C7 1_555 1_555
H2 C8 1_555 1_555
C9 C4 1_555 1_555
H3 C9 1_555 1_555
C10 C7 1_555 1_555
C11 C10 1_555 1_555
C12 C11 1_555 1_555
C13 C12 1_555 1_555
C14 C13 1_555 1_555
H4 C14 1_555 1_555
C15 C14 1_555 1_555
C16 C15 1_555 1_555
H5 C16 1_555 1_555
C17 C12 1_555 1_555
H6 C17 1_555 1_555
C18 C15 1_555 1_555
C19 C18 1_555 1_555
C20 C18 1_555 1_555
C21 H7 1_555 1_555
H8 C21 1_555 1_555
C22 C21 1_555 1_555
H9 C22 1_555 1_555
C23 C22 1_555 1_555
H10 C23 1_555 1_555
H11 C23 1_555 1_555
C24 C23 1_555 1_555
H12 C24 1_555 1_555
H13 C24 1_555 1_555
C25 C24 1_555 1_555
H14 C25 1_555 1_555
H15 C25 1_555 1_555
C26 C25 1_555 1_555
H16 C26 1_555 1_555
H17 C26 1_555 1_555
H18 C26 1_555 1_555
C27 C22 1_555 1_555
H19 C27 1_555 1_555
H20 C27 1_555 1_555
C28 C27 1_555 1_555
H21 C28 1_555 1_555
H22 C28 1_555 1_555
H23 C28 1_555 1_555
C29 H24 1_555 1_555
H25 C29 1_555 1_555
C30 C29 1_555 1_555
H26 C30 1_555 1_555
C31 C30 1_555 1_555
H27 C31 1_555 1_555
H28 C31 1_555 1_555
C32 C31 1_555 1_555
H29 C32 1_555 1_555
H30 C32 1_555 1_555
H31 C32 1_555 1_555
C33 C30 1_555 1_555
H32 C33 1_555 1_555
H33 C33 1_555 1_555
C34 C33 1_555 1_555
H34 C34 1_555 1_555
H35 C34 1_555 1_555
C35 C34 1_555 1_555
H36 C35 1_555 1_555
H37 C35 1_555 1_555
C36 C35 1_555 1_555
H38 C36 1_555 1_555
H39 C36 1_555 1_555
H40 C36 1_555 1_555
N1 C6 1_555 1_555
N2 C10 1_555 1_555
N3 C1 1_555 1_555
N4 C2 1_555 1_555
N5 C19 1_555 1_555
N6 C20 1_555 1_555
C8 C9 1_555 1_555
C11 N1 1_555 1_555
C13 N2 1_555 1_555
C16 C17 1_555 1_555
C21 N1 1_555 1_555
C29 N2 1_555 1_555

#END
