
#######################################################################
#
#                 Cambridge Crystallographic Data Centre
#                                CCDC 
#
#######################################################################
#
# If this CIF has been generated from an entry in the Cambridge 
# Structural Database, then it will include bibliographic, chemical, 
# crystal, experimental, refinement or atomic coordinate data resulting 
# from the CCDC's data processing and validation procedures.
#
#######################################################################

data_QIKHOK
_chemical_formula_moiety         'C34 H50 N2 O2 Si2'
_chemical_name_systematic        
2,3-bis(4-{[tris(propan-2-yl)silyl]oxy}phenyl)but-2-enedinitrile
_symmetry_cell_setting           monoclinic
_symmetry_space_group_name_H-M   'P 21/n'
_symmetry_Int_Tables_number      14
_space_group_name_Hall           '-P 2yn'
loop_
_symmetry_equiv_pos_site_id
_symmetry_equiv_pos_as_xyz
1 x,y,z
2 1/2-x,1/2+y,1/2-z
3 -x,-y,-z
4 1/2+x,1/2-y,1/2+z
_cell_length_a                   7.9051(3)
_cell_length_b                   14.7663(5)
_cell_length_c                   14.1674(5)
_cell_angle_alpha                90
_cell_angle_beta                 95.080(7)
_cell_angle_gamma                90
_cell_volume                     1647.25
_exptl_crystal_colour            colorless
_exptl_crystal_description       block
_cell_formula_units_Z            2
loop_
_atom_site_label
_atom_site_type_symbol
_atom_site_fract_x
_atom_site_fract_y
_atom_site_fract_z
Si1 Si 0.70908(10) 0.33155(5) 0.44805(5)
O1 O 0.7276(3) 0.42436(14) 0.38170(14)
N1 N 0.6845(4) 0.4289(2) -0.1084(2)
C1 C 0.7850(4) 0.4364(2) 0.2949(2)
C2 C 0.7994(4) 0.4553(2) -0.0619(2)
C3 C 0.6733(4) 0.4692(2) 0.2214(2)
H1 H 0.558691 0.481208 0.232549
C4 C 0.9531(4) 0.4198(2) 0.2779(2)
H2 H 1.031305 0.397425 0.327200
C5 C 0.5906(4) 0.3753(2) 0.5476(2)
H3 H 0.486688 0.405543 0.516953
C6 C 0.9262(4) 0.2843(2) 0.4832(2)
H4 H 0.974918 0.266009 0.423287
C7 C 0.7259(5) 0.4843(2) 0.1331(2)
H5 H 0.646678 0.505765 0.083860
C8 C 0.5767(5) 0.2456(2) 0.3776(2)
H6 H 0.559665 0.193700 0.421086
C9 C 0.6863(5) 0.4483(3) 0.6078(3)
H7 H 0.726679 0.495126 0.566293
H8 H 0.609864 0.475541 0.650677
H9 H 0.783424 0.420822 0.645039
C10 C 0.5269(4) 0.3018(3) 0.6113(3)
H10 H 0.465961 0.255492 0.572204
H11 H 0.623709 0.274051 0.648544
H12 H 0.450150 0.328771 0.654182
C11 C 0.8915(6) 0.4690(2) 0.1145(3)
C12 C 1.0056(5) 0.4362(2) 0.1887(3)
H13 H 1.120490 0.425191 0.177414
C13 C 1.0496(4) 0.3537(3) 0.5321(3)
H14 H 1.052380 0.408059 0.492567
H15 H 1.011564 0.370031 0.593866
H16 H 1.163679 0.327332 0.541120
C14 C 0.6653(6) 0.2072(3) 0.2936(3)
H17 H 0.778081 0.184618 0.316409
H18 H 0.597309 0.157543 0.264247
H19 H 0.676737 0.255158 0.246737
C15 C 0.9197(5) 0.1985(3) 0.5439(3)
H20 H 0.840574 0.154949 0.511775
H21 H 1.033211 0.171453 0.552928
H22 H 0.881096 0.214152 0.605674
C16 C 0.3992(5) 0.2815(3) 0.3435(3)
H23 H 0.344537 0.305678 0.397659
H24 H 0.409646 0.329751 0.296853
H25 H 0.330218 0.232135 0.314362
C17 C 0.9303(6) 0.4832(3) 0.0132(3)
Si1B Si 1.29092(10) 0.66845(5) -0.44805(5)
O1B O 1.2724(3) 0.57564(14) -0.38170(14)
N1B N 1.3155(4) 0.5711(2) 0.1084(2)
C1B C 1.2150(4) 0.5636(2) -0.2949(2)
C2B C 1.2006(4) 0.5447(2) 0.0619(2)
C3B C 1.3267(4) 0.5308(2) -0.2214(2)
H1B H 1.441309 0.518792 -0.232549
C4B C 1.0469(4) 0.5802(2) -0.2779(2)
H2B H 0.968695 0.602575 -0.327200
C5B C 1.4094(4) 0.6247(2) -0.5476(2)
H3B H 1.513312 0.594457 -0.516953
C6B C 1.0738(4) 0.7157(2) -0.4832(2)
H4B H 1.025082 0.733991 -0.423287
C7B C 1.2741(5) 0.5157(2) -0.1331(2)
H5B H 1.353322 0.494235 -0.083860
C8B C 1.4233(5) 0.7544(2) -0.3776(2)
H6B H 1.440335 0.806300 -0.421086
C9B C 1.3137(5) 0.5517(3) -0.6078(3)
H7B H 1.273321 0.504874 -0.566293
H8B H 1.390136 0.524459 -0.650677
H9B H 1.216576 0.579178 -0.645039
C10B C 1.4731(4) 0.6982(3) -0.6113(3)
H10B H 1.534039 0.744508 -0.572204
H11B H 1.376291 0.725949 -0.648544
H12B H 1.549850 0.671229 -0.654182
C11B C 1.1085(6) 0.5310(2) -0.1145(3)
C12B C 0.9944(5) 0.5638(2) -0.1887(3)
H13B H 0.879510 0.574809 -0.177414
C13B C 0.9504(4) 0.6463(3) -0.5321(3)
H14B H 0.947620 0.591941 -0.492567
H15B H 0.988436 0.629969 -0.593866
H16B H 0.836321 0.672668 -0.541120
C14B C 1.3347(6) 0.7928(3) -0.2936(3)
H17B H 1.221919 0.815382 -0.316409
H18B H 1.402691 0.842457 -0.264247
H19B H 1.323263 0.744842 -0.246737
C15B C 1.0803(5) 0.8015(3) -0.5439(3)
H20B H 1.159426 0.845051 -0.511775
H21B H 0.966789 0.828547 -0.552928
H22B H 1.118904 0.785848 -0.605674
C16B C 1.6008(5) 0.7185(3) -0.3435(3)
H23B H 1.655463 0.694322 -0.397659
H24B H 1.590354 0.670249 -0.296853
H25B H 1.669782 0.767865 -0.314362
C17B C 1.0697(6) 0.5168(3) -0.0132(3)
loop_
_geom_bond_atom_site_label_1
_geom_bond_atom_site_label_2
_geom_bond_site_symmetry_1
_geom_bond_site_symmetry_2
Si1 O1 1_555 1_555
O1 C1 1_555 1_555
N1 C2 1_555 1_555
C1 C3 1_555 1_555
C2 C17 1_555 1_555
C3 H1 1_555 1_555
C4 C1 1_555 1_555
H2 C4 1_555 1_555
C5 Si1 1_555 1_555
H3 C5 1_555 1_555
C6 Si1 1_555 1_555
H4 C6 1_555 1_555
C7 C3 1_555 1_555
H5 C7 1_555 1_555
C8 Si1 1_555 1_555
H6 C8 1_555 1_555
C9 C5 1_555 1_555
H7 C9 1_555 1_555
H8 C9 1_555 1_555
H9 C9 1_555 1_555
C10 C5 1_555 1_555
H10 C10 1_555 1_555
H11 C10 1_555 1_555
H12 C10 1_555 1_555
C11 C7 1_555 1_555
C12 C4 1_555 1_555
H13 C12 1_555 1_555
C13 C6 1_555 1_555
H14 C13 1_555 1_555
H15 C13 1_555 1_555
H16 C13 1_555 1_555
C14 C8 1_555 1_555
H17 C14 1_555 1_555
H18 C14 1_555 1_555
H19 C14 1_555 1_555
C15 C6 1_555 1_555
H20 C15 1_555 1_555
H21 C15 1_555 1_555
H22 C15 1_555 1_555
C16 C8 1_555 1_555
H23 C16 1_555 1_555
H24 C16 1_555 1_555
H25 C16 1_555 1_555
C17 C11 1_555 1_555
Si1B O1B 1_555 1_555
O1B C1B 1_555 1_555
N1B C2B 1_555 1_555
C1B C3B 1_555 1_555
C2B C17B 1_555 1_555
C3B H1B 1_555 1_555
C4B C1B 1_555 1_555
H2B C4B 1_555 1_555
C5B Si1B 1_555 1_555
H3B C5B 1_555 1_555
C6B Si1B 1_555 1_555
H4B C6B 1_555 1_555
C7B C3B 1_555 1_555
H5B C7B 1_555 1_555
C8B Si1B 1_555 1_555
H6B C8B 1_555 1_555
C9B C5B 1_555 1_555
H7B C9B 1_555 1_555
H8B C9B 1_555 1_555
H9B C9B 1_555 1_555
C10B C5B 1_555 1_555
H10B C10B 1_555 1_555
H11B C10B 1_555 1_555
H12B C10B 1_555 1_555
C11B C7B 1_555 1_555
C12B C4B 1_555 1_555
H13B C12B 1_555 1_555
C13B C6B 1_555 1_555
H14B C13B 1_555 1_555
H15B C13B 1_555 1_555
H16B C13B 1_555 1_555
C14B C8B 1_555 1_555
H17B C14B 1_555 1_555
H18B C14B 1_555 1_555
H19B C14B 1_555 1_555
C15B C6B 1_555 1_555
H20B C15B 1_555 1_555
H21B C15B 1_555 1_555
H22B C15B 1_555 1_555
C16B C8B 1_555 1_555
H23B C16B 1_555 1_555
H24B C16B 1_555 1_555
H25B C16B 1_555 1_555
C17B C17 1_555 1_555
C11 C12 1_555 1_555
C11B C12B 1_555 1_555
C11B C17B 1_555 1_555

#END
