
#######################################################################
#
#                 Cambridge Crystallographic Data Centre
#                                CCDC 
#
#######################################################################
#
# If this CIF has been generated from an entry in the Cambridge 
# Structural Database, then it will include bibliographic, chemical, 
# crystal, experimental, refinement or atomic coordinate data resulting 
# from the CCDC's data processing and validation procedures.
#
#######################################################################

data_QIKJIG
_chemical_formula_moiety         'C23 H36 O2 Si1'
_chemical_name_systematic        
'(4-t-butyl-2-{[tris(propan-2-yl)silyl]ethynyl}phenyl)acetic acid'
_symmetry_cell_setting           monoclinic
_symmetry_space_group_name_H-M   'P 21/n'
_symmetry_Int_Tables_number      14
_space_group_name_Hall           '-P 2yn'
loop_
_symmetry_equiv_pos_site_id
_symmetry_equiv_pos_as_xyz
1 x,y,z
2 1/2-x,1/2+y,1/2-z
3 -x,-y,-z
4 1/2+x,1/2-y,1/2+z
_cell_length_a                   12.0000(2)
_cell_length_b                   11.31110(10)
_cell_length_c                   18.3435(3)
_cell_angle_alpha                90
_cell_angle_beta                 103.8940(10)
_cell_angle_gamma                90
_cell_volume                     2416.97
_exptl_crystal_colour            colorless
_exptl_crystal_description       block
_cell_formula_units_Z            4
loop_
_atom_site_label
_atom_site_type_symbol
_atom_site_fract_x
_atom_site_fract_y
_atom_site_fract_z
Si1 Si 0.79018(9) 0.21396(10) 0.37060(9)
O1 O 0.4356(2) 0.11992(15) 0.45796(11)
O2 O 0.5642(2) 0.11326(17) 0.56600(11)
H1 H 0.5522 0.0419 0.5615
C1 C 0.4648(2) 0.38560(18) 0.39420(13)
C2 C 0.4257(2) 0.36999(19) 0.45919(13)
C3 C 0.4014(2) 0.4537(2) 0.33570(13)
H2 H 0.4288 0.4634 0.2928
C4 C 0.4947(2) 0.1685(2) 0.51197(13)
C5 C 0.2991(2) 0.5076(2) 0.33882(15)
C6 C 0.5708(2) 0.3315(2) 0.38820(16)
C7 C 0.3238(2) 0.4230(2) 0.46260(15)
H3 H 0.2964 0.4135 0.5056
C8 C 0.2611(2) 0.4898(2) 0.40410(17)
H4 H 0.1922 0.5236 0.4082
C9 C 0.4944(3) 0.2994(2) 0.52456(14)
H5 H 0.5731 0.3274 0.5361
H6 H 0.4640 0.3147 0.5681
C10 C 0.6581(3) 0.2854(3) 0.3826(2)
C11 C 0.2281(3) 0.5840(3) 0.27497(17)
C12 C 0.1995(8) 0.7026(5) 0.3102(4)
H7 H 0.1411 0.6890 0.3369
H8 H 0.1725 0.7594 0.2710
H9 H 0.2674 0.7323 0.3442
C13 C 0.1145(5) 0.5118(7) 0.2458(4)
H10 H 0.0771 0.5009 0.2860
H11 H 0.1325 0.4361 0.2279
H12 H 0.0646 0.5542 0.2056
C14 C 0.9127(6) 0.3075(6) 0.4207(8)
H13 H 0.9033 0.3074 0.4723
C15 C 0.2904(8) 0.6231(10) 0.2193(6)
H14 H 0.2402 0.6693 0.1812
H15 H 0.3165 0.5553 0.1967
H16 H 0.3552 0.6702 0.2437
C16 C 0.9028(7) 0.4382(6) 0.4007(6)
H17 H 0.8992 0.4477 0.3482
H18 H 0.9686 0.4794 0.4296
H19 H 0.8345 0.4698 0.4117
C17 C 1.0331(7) 0.2604(12) 0.4304(10)
H20 H 1.0313 0.1910 0.4000
H21 H 1.0642 0.2406 0.4822
H22 H 1.0802 0.3195 0.4152
C18 C 0.7604(9) 0.1515(10) 0.2734(6)
H23 H 0.7094 0.0851 0.2766
C19 C 0.687(5) 0.226(6) 0.212(5)
H24 H 0.7091 0.2124 0.1658
H25 H 0.6973 0.3081 0.2254
H26 H 0.6078 0.2050 0.2059
C20 C 0.8615(16) 0.0900(13) 0.2531(16)
H27 H 0.9311 0.1314 0.2758
H28 H 0.8508 0.0897 0.1996
H29 H 0.8666 0.0101 0.2713
C21 C 0.8114(5) 0.0755(6) 0.4288(6)
H30 H 0.8791 0.0349 0.4199
C22 C 0.7133(8) -0.0078(6) 0.4086(7)
H31 H 0.6501 0.0225 0.4265
H32 H 0.7358 -0.0833 0.4312
H33 H 0.6906 -0.0164 0.3550
C23 C 0.8350(8) 0.1001(10) 0.5193(6)
H34 H 0.8994 0.1523 0.5347
H35 H 0.8511 0.0266 0.5459
H36 H 0.7682 0.1357 0.5302
C24? C 0.900(2) 0.336(3) 0.3642(18)
H37? H 0.8737 0.3903 0.3222
C25? C 0.898(3) 0.388(3) 0.4403(19)
H38? H 0.9545 0.4491 0.4528
H39? H 0.9146 0.3268 0.4778
H40? H 0.8233 0.4200 0.4383
C26? C 1.014(3) 0.278(5) 0.365(3)
H41? H 1.0710 0.3374 0.3660
H42? H 1.0066 0.2296 0.3212
H43? H 1.0369 0.2289 0.4092
C27? C 0.7850(15) 0.2496(15) 0.2609(11)
H44? H 0.8113 0.3303 0.2554
C28? C 0.868(3) 0.160(2) 0.242(3)
H45? H 0.8968 0.1104 0.2843
H46? H 0.9300 0.2010 0.2283
H47? H 0.8280 0.1127 0.2000
C29? C 0.668(8) 0.229(9) 0.209(8)
H48? H 0.6735 0.2358 0.1580
H49? H 0.6153 0.2872 0.2190
H50? H 0.6415 0.1515 0.2177
C30? C 0.1072(8) 0.5505(9) 0.2407(8)
H51? H 0.1009 0.4660 0.2381
H52? H 0.0841 0.5831 0.1911
H53? H 0.0585 0.5808 0.2709
C31? C 0.2757(7) 0.5620(9) 0.2019(4)
H54? H 0.3564 0.5791 0.2132
H55? H 0.2361 0.6128 0.1621
H56? H 0.2632 0.4810 0.1865
C32? C 0.2847(13) 0.7045(9) 0.2805(8)
H57? H 0.2859 0.7389 0.3285
H58? H 0.2423 0.7547 0.2414
H59? H 0.3619 0.6961 0.2750
loop_
_geom_bond_atom_site_label_1
_geom_bond_atom_site_label_2
_geom_bond_site_symmetry_1
_geom_bond_site_symmetry_2
Si1 C10 1_555 1_555
O1 C4 1_555 1_555
O2 H1 1_555 1_555
C1 C2 1_555 1_555
C2 C7 1_555 1_555
C3 C1 1_555 1_555
H2 C3 1_555 1_555
C4 O2 1_555 1_555
C5 C3 1_555 1_555
C6 C1 1_555 1_555
C7 H3 1_555 1_555
C8 C5 1_555 1_555
H4 C8 1_555 1_555
C9 C2 1_555 1_555
H5 C9 1_555 1_555
H6 C9 1_555 1_555
C10 C6 1_555 1_555
C11 C5 1_555 1_555
C12 C11 1_555 1_555
H7 C12 1_555 1_555
H8 C12 1_555 1_555
H9 C12 1_555 1_555
C13 C11 1_555 1_555
H10 C13 1_555 1_555
H11 C13 1_555 1_555
H12 C13 1_555 1_555
C14 Si1 1_555 1_555
H13 C14 1_555 1_555
C15 C11 1_555 1_555
H14 C15 1_555 1_555
H15 C15 1_555 1_555
H16 C15 1_555 1_555
C16 C14 1_555 1_555
H17 C16 1_555 1_555
H18 C16 1_555 1_555
H19 C16 1_555 1_555
C17 C14 1_555 1_555
H20 C17 1_555 1_555
H21 C17 1_555 1_555
H22 C17 1_555 1_555
C18 Si1 1_555 1_555
H23 C18 1_555 1_555
C19 C18 1_555 1_555
H24 C19 1_555 1_555
H25 C19 1_555 1_555
H26 C19 1_555 1_555
C20 C18 1_555 1_555
H27 C20 1_555 1_555
H28 C20 1_555 1_555
H29 C20 1_555 1_555
C21 Si1 1_555 1_555
H30 C21 1_555 1_555
C22 C21 1_555 1_555
H31 C22 1_555 1_555
H32 C22 1_555 1_555
H33 C22 1_555 1_555
C23 C21 1_555 1_555
H34 C23 1_555 1_555
H35 C23 1_555 1_555
H36 C23 1_555 1_555
C4 C9 1_555 1_555
C7 C8 1_555 1_555

#END
