
#######################################################################
#
#                 Cambridge Crystallographic Data Centre
#                                CCDC 
#
#######################################################################
#
# If this CIF has been generated from an entry in the Cambridge 
# Structural Database, then it will include bibliographic, chemical, 
# crystal, experimental, refinement or atomic coordinate data resulting 
# from the CCDC's data processing and validation procedures.
#
#######################################################################

data_QIKPOR
_chemical_formula_moiety         'C18 H20 N1 1+,B1 F4 1-'
_chemical_name_systematic        
'6-t-Butyl-7-methylpyrido[2,1-a]isoquinolinium tetrafluoroborate unknown solvate'
_symmetry_cell_setting           triclinic
_symmetry_space_group_name_H-M   'P -1'
_symmetry_Int_Tables_number      2
_space_group_name_Hall           '-P 1'
loop_
_symmetry_equiv_pos_site_id
_symmetry_equiv_pos_as_xyz
1 x,y,z
2 -x,-y,-z
_cell_length_a                   9.6211(3)
_cell_length_b                   10.5192(3)
_cell_length_c                   10.8160(4)
_cell_angle_alpha                108.753(2)
_cell_angle_beta                 111.778(2)
_cell_angle_gamma                91.391(2)
_cell_volume                     949.644
_exptl_crystal_colour            orange
_exptl_crystal_description       tabular
_cell_formula_units_Z            2
loop_
_atom_site_label
_atom_site_type_symbol
_atom_site_fract_x
_atom_site_fract_y
_atom_site_fract_z
C1 C 0.7754(4) 0.4935(3) 0.5348(3)
H1 H 0.6949 0.4484 0.4397
H2 H 0.8718 0.5091 0.5265
H3 H 0.7503 0.5808 0.5816
C2 C 0.7898(3) 0.4016(3) 0.6248(3)
C3 C 0.8827(3) 0.2861(2) 0.5901(2)
C4 C 1.0080(3) 0.1910(2) 0.4267(2)
C5 C 1.1273(3) 0.1668(2) 0.5400(2)
C6 C 1.2614(3) 0.1249(3) 0.5266(3)
H4 H 1.2796 0.1203 0.4449
C7 C 1.3649(3) 0.0908(3) 0.6338(3)
H5 H 1.4548 0.0622 0.6250
C8 C 0.7536(3) 0.1991(3) 0.2035(3)
H6 H 0.6635 0.1974 0.1262
C9 C 0.7558(3) 0.2329(2) 0.3349(2)
H7 H 0.6656 0.2525 0.3488
C10 C 1.0056(3) 0.1593(2) 0.2896(2)
H8 H 1.0926 0.1320 0.2733
C11 C 0.8836(3) 0.1665(3) 0.1804(3)
H9 H 0.8860 0.1498 0.0896
C12 C 1.3413(3) 0.0970(3) 0.7531(3)
H10 H 1.4146 0.0727 0.8254
C13 C 1.2128(3) 0.1381(3) 0.7687(3)
H11 H 1.1976 0.1412 0.8514
C14 C 1.1030(3) 0.1758(2) 0.6634(2)
C15 C 0.9759(3) 0.2348(2) 0.6847(2)
C16 C 0.6325(3) 0.3486(4) 0.6086(3)
H12 H 0.5717 0.2932 0.5086
H13 H 0.5825 0.4257 0.6389
H14 H 0.6423 0.2931 0.6678
C17 C 0.8812(4) 0.5006(3) 0.7802(3)
H15 H 0.8330 0.5816 0.7990
H16 H 0.9853 0.5276 0.7930
H17 H 0.8831 0.4550 0.8467
C18 C 0.9550(4) 0.2379(3) 0.8185(3)
H18 H 1.0363 0.3040 0.9025
H19 H 0.9588 0.1474 0.8256
H20 H 0.8566 0.2643 0.8134
N1 N 0.8853(2) 0.23995(17) 0.45035(18)
B2 B 0.3219(15) 0.1295(12) 0.1585(11)
F5 F 0.1790(14) 0.1553(17) 0.0839(18)
F6 F 0.3064(8) 0.0230(9) 0.2019(10)
F7 F 0.4068(16) 0.1087(15) 0.0807(14)
F8 F 0.3828(7) 0.2345(10) 0.2817(6)
B1? B 0.3308(15) 0.1467(12) 0.1586(12)
F1? F 0.1741(14) 0.1274(19) 0.085(2)
F2? F 0.3682(8) 0.1084(11) 0.2744(7)
F3? F 0.3859(15) 0.0691(12) 0.0652(12)
F4? F 0.4040(7) 0.2804(6) 0.2166(11)
loop_
_geom_bond_atom_site_label_1
_geom_bond_atom_site_label_2
_geom_bond_site_symmetry_1
_geom_bond_site_symmetry_2
C1 H1 1_555 1_555
H2 C1 1_555 1_555
H3 C1 1_555 1_555
C2 C1 1_555 1_555
C3 C2 1_555 1_555
C4 C5 1_555 1_555
C5 C6 1_555 1_555
C6 H4 1_555 1_555
C7 C6 1_555 1_555
H5 C7 1_555 1_555
C8 H6 1_555 1_555
C9 C8 1_555 1_555
H7 C9 1_555 1_555
C10 C4 1_555 1_555
H8 C10 1_555 1_555
C11 C8 1_555 1_555
H9 C11 1_555 1_555
C12 C7 1_555 1_555
H10 C12 1_555 1_555
C13 C12 1_555 1_555
H11 C13 1_555 1_555
C14 C5 1_555 1_555
C15 C3 1_555 1_555
C16 C2 1_555 1_555
H12 C16 1_555 1_555
H13 C16 1_555 1_555
H14 C16 1_555 1_555
C17 C2 1_555 1_555
H15 C17 1_555 1_555
H16 C17 1_555 1_555
H17 C17 1_555 1_555
C18 C15 1_555 1_555
H18 C18 1_555 1_555
H19 C18 1_555 1_555
H20 C18 1_555 1_555
N1 C3 1_555 1_555
B2 F5 1_555 1_555
F6 B2 1_555 1_555
F7 B2 1_555 1_555
F8 B2 1_555 1_555
C4 N1 1_555 1_555
C9 N1 1_555 1_555
C10 C11 1_555 1_555
C13 C14 1_555 1_555
C14 C15 1_555 1_555

#END
