
#######################################################################
#
#                 Cambridge Crystallographic Data Centre
#                                CCDC 
#
#######################################################################
#
# If this CIF has been generated from an entry in the Cambridge 
# Structural Database, then it will include bibliographic, chemical, 
# crystal, experimental, refinement or atomic coordinate data resulting 
# from the CCDC's data processing and validation procedures.
#
#######################################################################

data_QILXUG
_chemical_formula_moiety         'C23 H20 Cl1 F3 N2 O4'
_chemical_name_systematic        
'Ethyl 9-chloro-6-(4-methoxybenzyl)-5-oxo-10b-(trifluoromethyl)-3,5,6,10b-tetrahydropyrrolo[1,2-c]quinazoline-1-carboxylate'
_symmetry_cell_setting           triclinic
_symmetry_space_group_name_H-M   'P -1'
_symmetry_Int_Tables_number      2
_space_group_name_Hall           '-P 1'
loop_
_symmetry_equiv_pos_site_id
_symmetry_equiv_pos_as_xyz
1 x,y,z
2 -x,-y,-z
_cell_length_a                   7.844(11)
_cell_length_b                   11.183(15)
_cell_length_c                   12.865(19)
_cell_angle_alpha                85.56(5)
_cell_angle_beta                 85.01(4)
_cell_angle_gamma                80.27(3)
_cell_volume                     1105.8
_exptl_crystal_colour            colorless
_exptl_crystal_description       BLOCK
_cell_formula_units_Z            2
loop_
_atom_site_label
_atom_site_type_symbol
_atom_site_fract_x
_atom_site_fract_y
_atom_site_fract_z
C1 C 0.2814(7) 0.0104(5) 1.0892(4)
H1 H 0.3176 -0.0290 1.1517
C2 C 0.2530(6) -0.0576(4) 1.0070(4)
C3 C 0.1984(7) -0.0009(5) 0.9142(4)
H2 H 0.1775 -0.0466 0.8607
C4 C 0.1745(7) 0.1252(5) 0.9011(4)
H3 H 0.1400 0.1633 0.8377
C5 C 0.2014(6) 0.1957(4) 0.9812(4)
C6 C 0.2524(7) 0.3928(4) 1.0293(4)
C7 C 0.4388(8) 0.3823(5) 1.1758(5)
H4 H 0.3862 0.4474 1.2196
H5 H 0.5262 0.4108 1.1265
C8 C 0.5129(9) 0.2715(6) 1.2394(5)
H6 H 0.6087 0.2679 1.2781
C9 C 0.4282(7) 0.1779(5) 1.2356(4)
C10 C 0.2741(7) 0.2158(4) 1.1658(4)
C11 C 0.2557(6) 0.1360(4) 1.0772(4)
C12 C 0.0991(8) 0.2393(5) 1.2355(5)
C13 C 0.4649(8) 0.0612(5) 1.3005(4)
C14 C 0.6781(9) -0.0697(6) 1.3914(5)
H7 H 0.6715 -0.1366 1.3491
H8 H 0.6024 -0.0767 1.4546
C15 C 0.8580(11) -0.0741(8) 1.4184(8)
H9 H 0.9313 -0.0642 1.3556
H10 H 0.8975 -0.1511 1.4541
H11 H 0.8624 -0.0099 1.4630
C16 C 0.1051(7) 0.3874(5) 0.8721(4)
H12 H 0.0706 0.4730 0.8840
H13 H 0.0013 0.3553 0.8606
C17 C 0.2292(7) 0.3754(5) 0.7718(4)
C18 C 0.4063(8) 0.3417(5) 0.7757(5)
H14 H 0.4520 0.3252 0.8406
C19 C 0.5189(9) 0.3313(6) 0.6857(5)
H15 H 0.6378 0.3098 0.6909
C20 C 0.4524(9) 0.3534(6) 0.5884(5)
C21 C 0.2760(10) 0.3891(6) 0.5823(5)
H16 H 0.2303 0.4056 0.5174
C22 C 0.1661(9) 0.4004(6) 0.6740(5)
H17 H 0.0476 0.4252 0.6690
C23 C 0.7317(11) 0.2903(10) 0.4982(7)
H18 H 0.7889 0.3454 0.5307
H19 H 0.7838 0.2783 0.4287
H20 H 0.7430 0.2137 0.5384
N1 N 0.3076(6) 0.3358(4) 1.1219(4)
N2 N 0.1789(6) 0.3243(4) 0.9674(4)
O1 O 0.2730(6) 0.4984(3) 1.0045(3)
O2 O 0.3651(6) -0.0092(4) 1.3222(3)
O3 O 0.6239(6) 0.0458(4) 1.3335(3)
O4 O 0.5506(8) 0.3404(5) 0.4936(4)
F1 F 0.0480(5) 0.1368(3) 1.2774(3)
F2 F -0.0309(5) 0.2979(4) 1.1811(3)
F3 F 0.1086(6) 0.3071(4) 1.3154(3)
Cl1 Cl 0.28014(19) -0.21595(12) 1.02437(12)
loop_
_geom_bond_atom_site_label_1
_geom_bond_atom_site_label_2
_geom_bond_site_symmetry_1
_geom_bond_site_symmetry_2
C1 H1 1_555 1_555
C2 C1 1_555 1_555
C3 C2 1_555 1_555
H2 C3 1_555 1_555
C4 C3 1_555 1_555
H3 C4 1_555 1_555
C5 C4 1_555 1_555
C6 N1 1_555 1_555
C7 H4 1_555 1_555
H5 C7 1_555 1_555
C8 C7 1_555 1_555
H6 C8 1_555 1_555
C9 C8 1_555 1_555
C10 C9 1_555 1_555
C11 C1 1_555 1_555
C12 C10 1_555 1_555
C13 C9 1_555 1_555
C14 H7 1_555 1_555
H8 C14 1_555 1_555
C15 C14 1_555 1_555
H9 C15 1_555 1_555
H10 C15 1_555 1_555
H11 C15 1_555 1_555
C16 H12 1_555 1_555
H13 C16 1_555 1_555
C17 C16 1_555 1_555
C18 C17 1_555 1_555
H14 C18 1_555 1_555
C19 C18 1_555 1_555
H15 C19 1_555 1_555
C20 C19 1_555 1_555
C21 C20 1_555 1_555
H16 C21 1_555 1_555
C22 C17 1_555 1_555
H17 C22 1_555 1_555
C23 H18 1_555 1_555
H19 C23 1_555 1_555
H20 C23 1_555 1_555
N1 C7 1_555 1_555
N2 C5 1_555 1_555
O1 C6 1_555 1_555
O2 C13 1_555 1_555
O3 C13 1_555 1_555
O4 C20 1_555 1_555
F1 C12 1_555 1_555
F2 C12 1_555 1_555
F3 C12 1_555 1_555
Cl1 C2 1_555 1_555
C5 C11 1_555 1_555
C6 N2 1_555 1_555
C10 C11 1_555 1_555
C10 N1 1_555 1_555
C14 O3 1_555 1_555
C16 N2 1_555 1_555
C21 C22 1_555 1_555
C23 O4 1_555 1_555

#END
