
#######################################################################
#
#                 Cambridge Crystallographic Data Centre
#                                CCDC 
#
#######################################################################
#
# If this CIF has been generated from an entry in the Cambridge 
# Structural Database, then it will include bibliographic, chemical, 
# crystal, experimental, refinement or atomic coordinate data resulting 
# from the CCDC's data processing and validation procedures.
#
#######################################################################

data_QILYAN
_chemical_formula_moiety         'C25 H24 I1 N3 O4 S1'
_chemical_name_systematic        
'Methyl 3a-((2-iodophenyl)amino)-1-((4-methylphenyl)sulfonyl)-1,2,3,3a,8,8a-hexahydropyrrolo[2,3-b]indole-2-carboxylate'
_symmetry_cell_setting           monoclinic
_symmetry_space_group_name_H-M   'P 21'
_symmetry_Int_Tables_number      4
_space_group_name_Hall           'P 2yb'
loop_
_symmetry_equiv_pos_site_id
_symmetry_equiv_pos_as_xyz
1 x,y,z
2 -x,1/2+y,-z
_cell_length_a                   9.7685(5)
_cell_length_b                   26.1496(11)
_cell_length_c                   10.6114(6)
_cell_angle_alpha                90
_cell_angle_beta                 116.328(7)
_cell_angle_gamma                90
_cell_volume                     2429.43
_exptl_crystal_colour            colorless
_exptl_crystal_description       prism
_cell_formula_units_Z            4
loop_
_atom_site_label
_atom_site_type_symbol
_atom_site_fract_x
_atom_site_fract_y
_atom_site_fract_z
I1 I 1.47209(3) 0.261519(12) 0.53164(4)
S1 S 0.94627(12) 0.11543(4) 0.62911(12)
O1 O 0.9433(4) 0.07361(12) 0.5400(4)
O2 O 1.0690(3) 0.11928(14) 0.7676(3)
O3 O 1.2030(4) 0.24024(15) 0.7178(4)
O4 O 1.0647(4) 0.23704(12) 0.8378(3)
N1 N 1.1075(4) 0.23166(13) 0.3954(4)
H1 H 1.1589 0.2539 0.4583
N2 N 0.7578(4) 0.15792(14) 0.2906(4)
H2 H 0.6970 0.1351 0.2954
N3 N 0.9430(4) 0.16678(14) 0.5412(4)
C1 C 1.1784(5) 0.20665(17) 0.3261(5)
C2 C 1.3345(5) 0.21316(16) 0.3627(5)
C3 C 1.4081(5) 0.18842(18) 0.2957(5)
H3 H 1.5111 0.1946 0.3229
C4 C 1.3292(5) 0.15441(18) 0.1882(5)
H4 H 1.3794 0.1365 0.1453
C5 C 1.1763(6) 0.14750(18) 0.1457(5)
H5 H 1.1215 0.1256 0.0712
C6 C 1.1020(5) 0.17287(18) 0.2125(5)
H6 H 0.9979 0.1674 0.1812
C7 C 0.7224(5) 0.19324(18) 0.1819(5)
C8 C 0.5967(5) 0.1938(2) 0.0516(5)
H7 H 0.5222 0.1686 0.0267
C9 C 0.5842(5) 0.2329(2) -0.0412(5)
H8 H 0.5010 0.2335 -0.1296
C10 C 0.6926(5) 0.2710(2) -0.0049(5)
H9 H 0.6820 0.2970 -0.0686
C11 C 0.8184(5) 0.2706(2) 0.1274(5)
H10 H 0.8914 0.2964 0.1533
C12 C 0.8322(5) 0.23146(17) 0.2185(5)
C13 C 0.9496(4) 0.22211(15) 0.3671(4)
C14 C 0.9159(5) 0.16627(16) 0.3949(4)
H11 H 0.9849 0.1422 0.3810
C15 C 0.9086(5) 0.25285(16) 0.4708(4)
H12 H 0.9719 0.2832 0.5025
H13 H 0.8024 0.2634 0.4248
C16 C 0.9366(5) 0.21811(16) 0.5961(5)
H14 H 0.8506 0.2203 0.6198
C17 C 1.0855(5) 0.23182(17) 0.7239(5)
C18 C 1.1938(6) 0.2569(2) 0.9598(5)
H15 H 1.2796 0.2344 0.9844
H16 H 1.1681 0.2591 1.0372
H17 H 1.2194 0.2902 0.9391
C19 C 0.7760(5) 0.11441(16) 0.6481(5)
C20 C 0.6384(5) 0.10556(18) 0.5331(5)
H18 H 0.6346 0.1013 0.4446
C21 C 0.5051(5) 0.10300(19) 0.5497(5)
H19 H 0.4122 0.0973 0.4716
C22 C 0.5089(5) 0.10878(19) 0.6811(6)
C23 C 0.6492(6) 0.1172(3) 0.7947(6)
H20 H 0.6539 0.1208 0.8837
C24 C 0.7823(6) 0.1204(2) 0.7802(5)
H21 H 0.8750 0.1265 0.8580
C25 C 0.3646(6) 0.1077(2) 0.7003(7)
H22 H 0.3350 0.1421 0.7088
H23 H 0.3827 0.0889 0.7839
H24 H 0.2844 0.0916 0.6205
I2 I -0.14568(4) 0.350631(14) 0.75844(4)
S2 S 0.46576(12) 0.51092(4) 0.88405(11)
O5 O 0.4895(4) 0.50401(13) 1.0249(3)
O6 O 0.3774(3) 0.55385(12) 0.8042(3)
O7 O 0.2843(4) 0.38654(14) 0.9523(3)
O8 O 0.5372(4) 0.37339(14) 1.0636(3)
N4 N 0.0776(4) 0.38849(14) 0.6220(4)
H25 H 0.0878 0.3624 0.6748
N5 N 0.2923(4) 0.48528(14) 0.5449(4)
H26 H 0.3380 0.5140 0.5517
N6 N 0.3771(4) 0.46084(14) 0.7929(4)
C26 C -0.0662(5) 0.41159(18) 0.5535(5)
C27 C -0.1839(5) 0.39936(18) 0.5901(5)
C28 C -0.3299(5) 0.4202(2) 0.5168(6)
H27 H -0.4059 0.4115 0.5431
C29 C -0.3624(6) 0.4529(2) 0.4076(6)
H28 H -0.4610 0.4654 0.3567
C30 C -0.2471(6) 0.4674(2) 0.3732(6)
H29 H -0.2664 0.4914 0.3028
C31 C -0.1041(5) 0.4463(2) 0.4427(5)
H30 H -0.0294 0.4555 0.4150
C32 C 0.2423(5) 0.46139(18) 0.3008(5)
H31 H 0.2738 0.4927 0.2811
C33 C 0.1914(6) 0.4229(2) 0.2020(5)
H32 H 0.1869 0.4286 0.1138
C34 C 0.1468(6) 0.3760(2) 0.2311(5)
H33 H 0.1162 0.3502 0.1638
C35 C 0.1474(6) 0.36714(19) 0.3613(5)
H34 H 0.1163 0.3359 0.3815
C36 C 0.1949(5) 0.40579(17) 0.4579(5)
C37 C 0.2451(4) 0.45203(17) 0.4307(5)
C38 C 0.2107(5) 0.40691(16) 0.6073(4)
C39 C 0.2526(5) 0.46401(16) 0.6504(4)
H35 H 0.1651 0.4822 0.6508
C40 C 0.3563(5) 0.37698(17) 0.7068(5)
H36 H 0.3283 0.3442 0.7316
H37 H 0.4212 0.3709 0.6608
C41 C 0.4407(5) 0.40957(16) 0.8389(5)
H38 H 0.5507 0.4095 0.8665
C42 C 0.4098(5) 0.39011(17) 0.9589(5)
C43 C 0.5224(7) 0.3467(3) 1.1779(5)
H39 H 0.4444 0.3629 1.1957
H40 H 0.6179 0.3482 1.2613
H41 H 0.4953 0.3117 1.1519
C44 C 0.6469(5) 0.51231(17) 0.8848(5)
C45 C 0.6587(5) 0.5106(2) 0.7605(5)
H42 H 0.5715 0.5076 0.6754
C46 C 0.8019(6) 0.5134(2) 0.7627(6)
H43 H 0.8100 0.5127 0.6786
C47 C 0.9324(5) 0.51723(19) 0.8888(6)
C48 C 0.9178(5) 0.5194(2) 1.0122(5)
H44 H 1.0052 0.5225 1.0971
C49 C 0.7769(5) 0.51689(19) 1.0130(5)
H45 H 0.7690 0.5182 1.0971
C50 C 1.0872(6) 0.5200(3) 0.8899(7)
H46 H 1.1618 0.5311 0.9808
H47 H 1.0836 0.5438 0.8197
H48 H 1.1148 0.4868 0.8700
loop_
_geom_bond_atom_site_label_1
_geom_bond_atom_site_label_2
_geom_bond_site_symmetry_1
_geom_bond_site_symmetry_2
I1 C2 1_555 1_555
S1 O1 1_555 1_555
O2 S1 1_555 1_555
O3 C17 1_555 1_555
O4 C17 1_555 1_555
N1 H1 1_555 1_555
N2 H2 1_555 1_555
N3 S1 1_555 1_555
C1 N1 1_555 1_555
C2 C1 1_555 1_555
C3 C2 1_555 1_555
H3 C3 1_555 1_555
C4 C3 1_555 1_555
H4 C4 1_555 1_555
C5 C4 1_555 1_555
H5 C5 1_555 1_555
C6 C1 1_555 1_555
H6 C6 1_555 1_555
C7 N2 1_555 1_555
C8 C7 1_555 1_555
H7 C8 1_555 1_555
C9 C8 1_555 1_555
H8 C9 1_555 1_555
C10 C9 1_555 1_555
H9 C10 1_555 1_555
C11 C10 1_555 1_555
H10 C11 1_555 1_555
C12 C7 1_555 1_555
C13 N1 1_555 1_555
C14 N2 1_555 1_555
H11 C14 1_555 1_555
C15 C13 1_555 1_555
H12 C15 1_555 1_555
H13 C15 1_555 1_555
C16 N3 1_555 1_555
H14 C16 1_555 1_555
C17 C16 1_555 1_555
C18 O4 1_555 1_555
H15 C18 1_555 1_555
H16 C18 1_555 1_555
H17 C18 1_555 1_555
C19 S1 1_555 1_555
C20 C19 1_555 1_555
H18 C20 1_555 1_555
C21 C20 1_555 1_555
H19 C21 1_555 1_555
C22 C21 1_555 1_555
C23 C22 1_555 1_555
H20 C23 1_555 1_555
C24 C19 1_555 1_555
H21 C24 1_555 1_555
C25 C22 1_555 1_555
H22 C25 1_555 1_555
H23 C25 1_555 1_555
H24 C25 1_555 1_555
I2 C27 1_555 1_555
S2 O5 1_555 1_555
O6 S2 1_555 1_555
O7 C42 1_555 1_555
O8 C42 1_555 1_555
N4 H25 1_555 1_555
N5 H26 1_555 1_555
N6 S2 1_555 1_555
C26 N4 1_555 1_555
C27 C26 1_555 1_555
C28 C27 1_555 1_555
H27 C28 1_555 1_555
C29 C28 1_555 1_555
H28 C29 1_555 1_555
C30 C29 1_555 1_555
H29 C30 1_555 1_555
C31 C26 1_555 1_555
H30 C31 1_555 1_555
C32 H31 1_555 1_555
C33 C32 1_555 1_555
H32 C33 1_555 1_555
C34 C33 1_555 1_555
H33 C34 1_555 1_555
C35 C34 1_555 1_555
H34 C35 1_555 1_555
C36 C35 1_555 1_555
C37 N5 1_555 1_555
C38 N4 1_555 1_555
C39 N5 1_555 1_555
H35 C39 1_555 1_555
C40 C38 1_555 1_555
H36 C40 1_555 1_555
H37 C40 1_555 1_555
C41 N6 1_555 1_555
H38 C41 1_555 1_555
C42 C41 1_555 1_555
C43 O8 1_555 1_555
H39 C43 1_555 1_555
H40 C43 1_555 1_555
H41 C43 1_555 1_555
C44 S2 1_555 1_555
C45 C44 1_555 1_555
H42 C45 1_555 1_555
C46 C45 1_555 1_555
H43 C46 1_555 1_555
C47 C46 1_555 1_555
C48 C47 1_555 1_555
H44 C48 1_555 1_555
C49 C44 1_555 1_555
H45 C49 1_555 1_555
C50 C47 1_555 1_555
H46 C50 1_555 1_555
H47 C50 1_555 1_555
H48 C50 1_555 1_555
N3 C14 1_555 1_555
C5 C6 1_555 1_555
C11 C12 1_555 1_555
C12 C13 1_555 1_555
C13 C14 1_555 1_555
C15 C16 1_555 1_555
C23 C24 1_555 1_555
N6 C39 1_555 1_555
C30 C31 1_555 1_555
C32 C37 1_555 1_555
C36 C37 1_555 1_555
C36 C38 1_555 1_555
C38 C39 1_555 1_555
C40 C41 1_555 1_555
C48 C49 1_555 1_555

#END
