
#######################################################################
#
#                 Cambridge Crystallographic Data Centre
#                                CCDC 
#
#######################################################################
#
# If this CIF has been generated from an entry in the Cambridge 
# Structural Database, then it will include bibliographic, chemical, 
# crystal, experimental, refinement or atomic coordinate data resulting 
# from the CCDC's data processing and validation procedures.
#
#######################################################################

data_QILZES
_chemical_formula_moiety         'C19 H22 N3 O3 P1'
_chemical_name_systematic        
'diethyl (1-benzyl-4-phenyl-1H-1,2,3-triazol-5-yl)phosphonate'
_symmetry_cell_setting           triclinic
_symmetry_space_group_name_H-M   'P -1'
_symmetry_Int_Tables_number      2
_space_group_name_Hall           '-P 1'
loop_
_symmetry_equiv_pos_site_id
_symmetry_equiv_pos_as_xyz
1 x,y,z
2 -x,-y,-z
_cell_length_a                   8.9982(18)
_cell_length_b                   9.971(2)
_cell_length_c                   11.732(2)
_cell_angle_alpha                95.26(3)
_cell_angle_beta                 111.97(3)
_cell_angle_gamma                95.68(3)
_cell_volume                     961.881
_cell_formula_units_Z            2
loop_
_atom_site_label
_atom_site_type_symbol
_atom_site_fract_x
_atom_site_fract_y
_atom_site_fract_z
P1 P 0.67614(4) 0.23767(3) 0.23532(3)
O1 O 0.83377(12) 0.33401(10) 0.25558(10)
O2 O 0.70661(13) 0.23145(11) 0.37432(9)
C1 C 0.51596(15) 0.33570(12) 0.17653(12)
O3 O 0.64504(14) 0.10726(10) 0.15683(11)
N1 N 0.36874(14) 0.28427(12) 0.08622(11)
C2 C 0.24179(17) 0.05989(14) 0.10418(13)
C3 C 0.62870(17) 0.58801(13) 0.27824(13)
N2 N 0.36102(16) 0.49776(13) 0.12047(14)
C4 C 0.50837(16) 0.47399(13) 0.19743(13)
C5 C 0.2989(2) 0.14463(15) 0.02474(14)
H1 H 0.3797 0.1018 0.0044
H2 H 0.2083 0.1476 -0.0523
N3 N 0.27792(17) 0.38283(14) 0.05446(14)
C6 C 0.7408(2) 0.57477(15) 0.39306(15)
H3 H 0.7404 0.4914 0.4226
C7 C 0.8643(2) 0.3840(2) 0.15272(18)
H4 H 0.7702 0.4199 0.0995
H5 H 0.8857 0.3103 0.1038
C8 C 0.2774(2) -0.07114(16) 0.11264(17)
H6 H 0.3403 -0.1045 0.0723
C9 C 0.6303(2) 0.71469(14) 0.23711(16)
H7 H 0.5550 0.7254 0.1598
C10 C 0.8536(3) 0.68410(19) 0.46464(18)
H8 H 0.9300 0.6738 0.5416
C11 C 0.7418(3) 0.82420(16) 0.30931(19)
H9 H 0.7413 0.9084 0.2812
C12 C 0.5936(3) 0.1513(2) 0.41205(18)
H10 H 0.6479 0.0844 0.4613
H11 H 0.5045 0.1031 0.3391
C13 C 0.2205(2) -0.15309(19) 0.1803(2)
H12 H 0.2450 -0.2414 0.1853
C14 C 0.8536(3) 0.80863(18) 0.4226(2)
H13 H 0.9296 0.8822 0.4714
C15 C 0.1274(2) -0.1044(2) 0.2405(2)
H14 H 0.0888 -0.1598 0.2859
C16 C 0.0917(3) 0.0256(2) 0.2334(2)
H15 H 0.0298 0.0589 0.2747
C17 C 0.5309(4) 0.2393(4) 0.4849(3)
H16 H 0.6193 0.2874 0.5568
H17 H 0.4581 0.1849 0.5106
H18 H 0.4741 0.3035 0.4352
C18 C 0.1477(2) 0.10710(19) 0.1649(2)
H19 H 0.1219 0.1950 0.1594
C19 C 1.0053(3) 0.4919(2) 0.2033(3)
H20 H 0.9834 0.5641 0.2520
H21 H 1.0262 0.5267 0.1363
H22 H 1.0984 0.4551 0.2547
loop_
_geom_bond_atom_site_label_1
_geom_bond_atom_site_label_2
_geom_bond_site_symmetry_1
_geom_bond_site_symmetry_2
P1 O1 1_555 1_555
O1 C7 1_555 1_555
O2 P1 1_555 1_555
C1 P1 1_555 1_555
O3 P1 1_555 1_555
N1 C1 1_555 1_555
C2 C5 1_555 1_555
C3 C4 1_555 1_555
N2 C4 1_555 1_555
C4 C1 1_555 1_555
C5 N1 1_555 1_555
H1 C5 1_555 1_555
H2 C5 1_555 1_555
N3 N1 1_555 1_555
C6 C3 1_555 1_555
H3 C6 1_555 1_555
C7 H4 1_555 1_555
H5 C7 1_555 1_555
C8 C2 1_555 1_555
H6 C8 1_555 1_555
C9 C3 1_555 1_555
H7 C9 1_555 1_555
C10 C6 1_555 1_555
H8 C10 1_555 1_555
C11 C9 1_555 1_555
H9 C11 1_555 1_555
C12 O2 1_555 1_555
H10 C12 1_555 1_555
H11 C12 1_555 1_555
C13 C8 1_555 1_555
H12 C13 1_555 1_555
C14 C10 1_555 1_555
H13 C14 1_555 1_555
C15 C13 1_555 1_555
H14 C15 1_555 1_555
C16 C15 1_555 1_555
H15 C16 1_555 1_555
C17 C12 1_555 1_555
H16 C17 1_555 1_555
H17 C17 1_555 1_555
H18 C17 1_555 1_555
C18 C2 1_555 1_555
H19 C18 1_555 1_555
C19 C7 1_555 1_555
H20 C19 1_555 1_555
H21 C19 1_555 1_555
H22 C19 1_555 1_555
N2 N3 1_555 1_555
C11 C14 1_555 1_555
C16 C18 1_555 1_555

#END
