
#######################################################################
#
#                 Cambridge Crystallographic Data Centre
#                                CCDC 
#
#######################################################################
#
# If this CIF has been generated from an entry in the Cambridge 
# Structural Database, then it will include bibliographic, chemical, 
# crystal, experimental, refinement or atomic coordinate data resulting 
# from the CCDC's data processing and validation procedures.
#
#######################################################################

data_QIMKOM03
_chemical_name_common            'Gabapentin monohydrate'
_chemical_formula_moiety         'C9 H17 N1 O2,H2 O1'
_chemical_name_systematic        
'1-(ammoniomethyl)cyclohexaneacetate monohydrate'
_symmetry_cell_setting           monoclinic
_symmetry_space_group_name_H-M   'P 21/c'
_symmetry_Int_Tables_number      14
_space_group_name_Hall           '-P 2ybc'
loop_
_symmetry_equiv_pos_site_id
_symmetry_equiv_pos_as_xyz
1 x,y,z
2 -x,1/2+y,1/2-z
3 -x,-y,-z
4 x,1/2-y,1/2+z
_cell_length_a                   14.631(3)
_cell_length_b                   9.2998(19)
_cell_length_c                   7.6479(15)
_cell_angle_alpha                90
_cell_angle_beta                 93.11(3)
_cell_angle_gamma                90
_cell_volume                     1039.08
_exptl_crystal_colour            colorless
_exptl_crystal_description       plate
_cell_formula_units_Z            4
loop_
_atom_site_label
_atom_site_type_symbol
_atom_site_fract_x
_atom_site_fract_y
_atom_site_fract_z
O1 O 0.33539(14) 0.39298(18) 0.1076(2)
N1 N 0.34682(16) 0.3930(2) -0.5323(3)
O2 O 0.39021(14) 0.61431(19) 0.0887(2)
C1 C 0.36140(16) 0.4840(2) -0.1767(3)
H1 H 0.3876 0.3914 -0.2042
H2 H 0.4007 0.5576 -0.2220
C2 C 0.26553(16) 0.4959(2) -0.2734(3)
C3 C 0.28045(18) 0.5014(2) -0.4719(3)
H3 H 0.2220 0.4868 -0.5356
H4 H 0.3021 0.5966 -0.5010
C4 C 0.36215(17) 0.4993(2) 0.0220(3)
C5 C 0.20230(17) 0.3693(3) -0.2293(3)
H5 H 0.2271 0.2814 -0.2757
H6 H 0.2024 0.3593 -0.1030
C6 C 0.1042(2) 0.3865(3) -0.3012(5)
H7 H 0.0675 0.3083 -0.2589
H8 H 0.1025 0.3807 -0.4280
C7 C 0.21958(19) 0.6386(3) -0.2241(3)
H9 H 0.2193 0.6450 -0.0975
H10 H 0.2561 0.7179 -0.2643
C8 C 0.0632(2) 0.5294(4) -0.2472(5)
H11 H 0.0022 0.5393 -0.3022
H12 H 0.0579 0.5305 -0.1213
C9 C 0.1222(2) 0.6554(3) -0.3003(4)
H13 H 0.1224 0.6602 -0.4270
H14 H 0.0965 0.7445 -0.2587
H15 H 0.333(2) 0.298(3) -0.498(4)
H16 H 0.344(2) 0.389(4) -0.671(5)
H17 H 0.409(2) 0.415(4) -0.492(4)
O3 O 0.46956(15) 0.6567(2) -0.5794(3)
H18 H 0.449(2) 0.728(4) -0.547(5)
H19 H 0.442(3) 0.652(5) -0.690(7)
loop_
_geom_bond_atom_site_label_1
_geom_bond_atom_site_label_2
_geom_bond_site_symmetry_1
_geom_bond_site_symmetry_2
O1 C4 1_555 1_555
N1 C3 1_555 1_555
O2 C4 1_555 1_555
C1 H1 1_555 1_555
H2 C1 1_555 1_555
C2 C1 1_555 1_555
C3 C2 1_555 1_555
H3 C3 1_555 1_555
H4 C3 1_555 1_555
C4 C1 1_555 1_555
C5 C2 1_555 1_555
H5 C5 1_555 1_555
H6 C5 1_555 1_555
C6 C5 1_555 1_555
H7 C6 1_555 1_555
H8 C6 1_555 1_555
C7 C2 1_555 1_555
H9 C7 1_555 1_555
H10 C7 1_555 1_555
C8 C6 1_555 1_555
H11 C8 1_555 1_555
H12 C8 1_555 1_555
C9 C7 1_555 1_555
H13 C9 1_555 1_555
H14 C9 1_555 1_555
H15 N1 1_555 1_555
H16 N1 1_555 1_555
H17 N1 1_555 1_555
O3 H18 1_555 1_555
H19 O3 1_555 1_555
C8 C9 1_555 1_555

#END
