
#######################################################################
#
#                 Cambridge Crystallographic Data Centre
#                                CCDC 
#
#######################################################################
#
# If this CIF has been generated from an entry in the Cambridge 
# Structural Database, then it will include bibliographic, chemical, 
# crystal, experimental, refinement or atomic coordinate data resulting 
# from the CCDC's data processing and validation procedures.
#
#######################################################################

data_QIMPEK
_chemical_formula_moiety         'C18 H16 N4 O6'
_chemical_name_systematic        
2-amino-4-(2,4-dinitrophenyl)-7,7-dimethyl-5-oxo-5,6,7,8-tetrahydro-4H-1-benzopyran-3-carbonitrile
_symmetry_cell_setting           monoclinic
_symmetry_space_group_name_H-M   'C 2/c'
_symmetry_Int_Tables_number      15
_space_group_name_Hall           '-C 2yn'
loop_
_symmetry_equiv_pos_site_id
_symmetry_equiv_pos_as_xyz
1 x,y,z
2 -x,y,1/2-z
3 1/2+x,1/2+y,z
4 1/2-x,1/2+y,1/2-z
5 -x,-y,-z
6 x,-y,1/2+z
7 1/2-x,1/2-y,-z
8 1/2+x,1/2-y,1/2+z
_cell_length_a                   28.3976(19)
_cell_length_b                   10.5649(7)
_cell_length_c                   12.1155(10)
_cell_angle_alpha                90
_cell_angle_beta                 97.662(7)
_cell_angle_gamma                90
_cell_volume                     3602.41
_exptl_crystal_colour            colorless
_exptl_crystal_description       block
_cell_formula_units_Z            8
loop_
_atom_site_label
_atom_site_type_symbol
_atom_site_fract_x
_atom_site_fract_y
_atom_site_fract_z
C1 C 0.42189(7) 0.26434(19) 0.46655(17)
C2 C 0.41991(8) 0.3301(2) 0.56087(16)
C3 C 0.38012(7) 0.31612(19) 0.63079(17)
H1 H 0.363231 0.396991 0.631073
C4 C 0.34588(7) 0.21665(19) 0.58042(17)
C5 C 0.35119(7) 0.1543(2) 0.48720(18)
C6 C 0.31786(9) 0.0589(2) 0.4318(2)
H2 H 0.335882 -0.005521 0.398693
H3 H 0.297083 0.099562 0.372221
C7 C 0.28749(8) -0.0048(2) 0.5110(2)
C8 C 0.26777(8) 0.0975(2) 0.5812(2)
H4 H 0.242401 0.141250 0.534821
H5 H 0.253834 0.056381 0.640724
C9 C 0.30282(8) 0.1941(2) 0.6320(2)
C10 C 0.45621(9) 0.4198(2) 0.59287(18)
C11 C 0.24685(9) -0.0761(3) 0.4421(3)
H6 H 0.259693 -0.140018 0.398368
H7 H 0.227184 -0.115112 0.491010
H8 H 0.228171 -0.017820 0.393647
C12 C 0.31744(10) -0.0971(2) 0.5880(2)
H9 H 0.329943 -0.161641 0.544289
H10 H 0.343196 -0.052267 0.630275
H11 H 0.298013 -0.135410 0.637840
C13 C 0.39918(7) 0.28089(19) 0.75087(17)
C14 C 0.39176(7) 0.3499(2) 0.84428(18)
C15 C 0.40594(8) 0.3068(3) 0.95113(19)
H12 H 0.399786 0.353464 1.012709
C16 C 0.42927(9) 0.1935(3) 0.96373(18)
C17 C 0.43909(9) 0.1235(2) 0.8743(2)
H13 H 0.455590 0.047434 0.884694
C18 C 0.42402(9) 0.1682(2) 0.76921(18)
H14 H 0.430685 0.121277 0.708203
O1 O 0.38889(5) 0.17454(14) 0.42881(12)
O2 O 0.29522(6) 0.25755(17) 0.71206(15)
O3 O 0.34192(8) 0.4973(2) 0.9063(2)
O4 O 0.37480(9) 0.54456(19) 0.7614(2)
O5 O 0.43598(9) 0.2109(3) 1.15393(17)
O6 O 0.45990(10) 0.0377(3) 1.08628(18)
N1 N 0.45547(7) 0.2720(2) 0.39809(17)
H15 H 0.4747(9) 0.344(2) 0.4027(19)
H16 H 0.4471(9) 0.241(2) 0.334(2)
N2 N 0.48536(9) 0.4928(2) 0.61807(18)
N3 N 0.36735(8) 0.4725(2) 0.8351(2)
N4 N 0.44290(9) 0.1431(3) 1.0764(2)
loop_
_geom_bond_atom_site_label_1
_geom_bond_atom_site_label_2
_geom_bond_site_symmetry_1
_geom_bond_site_symmetry_2
C1 C2 1_555 1_555
C2 C3 1_555 1_555
C3 H1 1_555 1_555
C4 C3 1_555 1_555
C5 C4 1_555 1_555
C6 C5 1_555 1_555
H2 C6 1_555 1_555
H3 C6 1_555 1_555
C7 C6 1_555 1_555
C8 C7 1_555 1_555
H4 C8 1_555 1_555
H5 C8 1_555 1_555
C9 C4 1_555 1_555
C10 C2 1_555 1_555
C11 C7 1_555 1_555
H6 C11 1_555 1_555
H7 C11 1_555 1_555
H8 C11 1_555 1_555
C12 C7 1_555 1_555
H9 C12 1_555 1_555
H10 C12 1_555 1_555
H11 C12 1_555 1_555
C13 C3 1_555 1_555
C14 C13 1_555 1_555
C15 C14 1_555 1_555
H12 C15 1_555 1_555
C16 C15 1_555 1_555
C17 C16 1_555 1_555
H13 C17 1_555 1_555
C18 C13 1_555 1_555
H14 C18 1_555 1_555
O1 C1 1_555 1_555
O2 C9 1_555 1_555
O3 N3 1_555 1_555
O4 N3 1_555 1_555
O5 N4 1_555 1_555
O6 N4 1_555 1_555
N1 C1 1_555 1_555
H15 N1 1_555 1_555
H16 N1 1_555 1_555
N2 C10 1_555 1_555
N3 C14 1_555 1_555
N4 C16 1_555 1_555
C5 O1 1_555 1_555
C8 C9 1_555 1_555
C17 C18 1_555 1_555

#END
