
#######################################################################
#
#                 Cambridge Crystallographic Data Centre
#                                CCDC 
#
#######################################################################
#
# If this CIF has been generated from an entry in the Cambridge 
# Structural Database, then it will include bibliographic, chemical, 
# crystal, experimental, refinement or atomic coordinate data resulting 
# from the CCDC's data processing and validation procedures.
#
#######################################################################

data_QIMSIR
_chemical_formula_moiety         'C22 H19 N1 O6'
_chemical_name_systematic        
'ethyl 2-amino-4-(2-methoxyphenyl)-5-oxo-4H,5H-pyrano[3,2-c][1]benzopyran-3-carboxylate'
_symmetry_cell_setting           monoclinic
_symmetry_space_group_name_H-M   'P 21/n'
_symmetry_Int_Tables_number      14
_space_group_name_Hall           '-P 2yn'
loop_
_symmetry_equiv_pos_site_id
_symmetry_equiv_pos_as_xyz
1 x,y,z
2 1/2-x,1/2+y,1/2-z
3 -x,-y,-z
4 1/2+x,1/2-y,1/2+z
_cell_length_a                   9.055(3)
_cell_length_b                   17.601(6)
_cell_length_c                   11.817(4)
_cell_angle_alpha                90
_cell_angle_beta                 91.361(5)
_cell_angle_gamma                90
_cell_volume                     1882.83
_exptl_crystal_colour            colorless
_exptl_crystal_description       block
_cell_formula_units_Z            4
loop_
_atom_site_label
_atom_site_type_symbol
_atom_site_fract_x
_atom_site_fract_y
_atom_site_fract_z
N1 N 0.00892(15) 0.37449(7) 1.08055(11)
H1 H -0.0043 0.4202 1.0568
H2 H -0.0293 0.3601 1.1429
O1 O 0.25622(13) 0.41895(6) 0.78774(10)
O2 O 0.12129(14) 0.47091(6) 0.92437(10)
O3 O 0.09717(11) 0.25761(5) 1.07831(8)
O4 O 0.41121(12) 0.09878(6) 0.99804(9)
O5 O 0.45281(13) 0.15414(7) 0.83486(9)
O6 O -0.04601(12) 0.19744(7) 0.87216(9)
C1 C 0.3545(3) 0.48979(13) 0.63596(18)
H3 H 0.3770 0.5398 0.6089
H4 H 0.2856 0.4657 0.5844
H5 H 0.4435 0.4602 0.6411
C2 C 0.2890(2) 0.49531(10) 0.74861(16)
H6 H 0.3576 0.5200 0.8011
H7 H 0.1991 0.5253 0.7442
C3 C 0.17231(17) 0.41424(8) 0.88048(13)
C4 C 0.15777(16) 0.33722(8) 0.92105(12)
C5 C 0.08833(16) 0.32616(8) 1.02088(12)
C6 C 0.20157(15) 0.20666(8) 1.04618(12)
C7 C 0.26878(16) 0.21041(8) 0.94647(12)
C8 C 0.23180(16) 0.27143(8) 0.86100(12)
H8 H 0.3260 0.2907 0.8335
C9 C 0.38176(17) 0.15551(8) 0.92011(12)
C10 C 0.33928(17) 0.09472(8) 1.09934(13)
C11 C 0.23447(17) 0.14834(8) 1.12883(12)
C12 C 0.1692(2) 0.14256(9) 1.23457(13)
H9 H 0.0998 0.1783 1.2566
C13 C 0.2081(2) 0.08371(10) 1.30576(15)
H10 H 0.1654 0.0801 1.3764
C14 C 0.3097(2) 0.03004(10) 1.27358(15)
H11 H 0.3335 -0.0099 1.3222
C15 C 0.3763(2) 0.03475(10) 1.17061(15)
H12 H 0.4448 -0.0015 1.1491
C16 C 0.14789(17) 0.23866(8) 0.75833(12)
C17 C 0.2116(2) 0.24207(9) 0.65301(13)
H13 H 0.3001 0.2682 0.6454
C18 C 0.1467(2) 0.20756(11) 0.55865(14)
H14 H 0.1916 0.2104 0.4888
C19 C 0.0164(2) 0.16934(11) 0.56927(14)
H15 H -0.0266 0.1456 0.5064
C20 C -0.0522(2) 0.16564(10) 0.67227(15)
H16 H -0.1418 0.1403 0.6784
C21 C 0.01327(17) 0.20005(9) 0.76692(13)
C22 C -0.1749(2) 0.15283(13) 0.88628(18)
H17 H -0.2048 0.1557 0.9636
H18 H -0.1542 0.1009 0.8673
H19 H -0.2529 0.1717 0.8375
loop_
_geom_bond_atom_site_label_1
_geom_bond_atom_site_label_2
_geom_bond_site_symmetry_1
_geom_bond_site_symmetry_2
N1 H1 1_555 1_555
H2 N1 1_555 1_555
O1 C2 1_555 1_555
O2 C3 1_555 1_555
O3 C5 1_555 1_555
O4 C9 1_555 1_555
O5 C9 1_555 1_555
O6 C21 1_555 1_555
C1 H3 1_555 1_555
H4 C1 1_555 1_555
H5 C1 1_555 1_555
C2 C1 1_555 1_555
H6 C2 1_555 1_555
H7 C2 1_555 1_555
C3 O1 1_555 1_555
C4 C3 1_555 1_555
C5 N1 1_555 1_555
C6 O3 1_555 1_555
C7 C6 1_555 1_555
C8 C4 1_555 1_555
H8 C8 1_555 1_555
C9 C7 1_555 1_555
C10 O4 1_555 1_555
C11 C6 1_555 1_555
C12 C11 1_555 1_555
H9 C12 1_555 1_555
C13 C12 1_555 1_555
H10 C13 1_555 1_555
C14 C13 1_555 1_555
H11 C14 1_555 1_555
C15 C10 1_555 1_555
H12 C15 1_555 1_555
C16 C8 1_555 1_555
C17 C16 1_555 1_555
H13 C17 1_555 1_555
C18 C17 1_555 1_555
H14 C18 1_555 1_555
C19 C18 1_555 1_555
H15 C19 1_555 1_555
C20 C19 1_555 1_555
H16 C20 1_555 1_555
C21 C16 1_555 1_555
C22 O6 1_555 1_555
H17 C22 1_555 1_555
H18 C22 1_555 1_555
H19 C22 1_555 1_555
C4 C5 1_555 1_555
C7 C8 1_555 1_555
C10 C11 1_555 1_555
C14 C15 1_555 1_555
C20 C21 1_555 1_555

#END
