
#######################################################################
#
#                 Cambridge Crystallographic Data Centre
#                                CCDC 
#
#######################################################################
#
# If this CIF has been generated from an entry in the Cambridge 
# Structural Database, then it will include bibliographic, chemical, 
# crystal, experimental, refinement or atomic coordinate data resulting 
# from the CCDC's data processing and validation procedures.
#
#######################################################################

data_QINPOV
_chemical_formula_moiety         'C19 H12 N4'
_chemical_name_systematic        
6-(pyridin-4-yl)pyrido[2',1':2,3]imidazo[4,5-c]quinoline
_symmetry_cell_setting           triclinic
_symmetry_space_group_name_H-M   'P -1'
_symmetry_Int_Tables_number      2
_space_group_name_Hall           '-P 1'
loop_
_symmetry_equiv_pos_site_id
_symmetry_equiv_pos_as_xyz
1 x,y,z
2 -x,-y,-z
_cell_length_a                   7.640(3)
_cell_length_b                   8.930(4)
_cell_length_c                   11.458(5)
_cell_angle_alpha                72.751(4)
_cell_angle_beta                 75.543(5)
_cell_angle_gamma                79.079(5)
_cell_volume                     717.273
_exptl_crystal_colour            colorless
_exptl_crystal_description       plate
_cell_formula_units_Z            2
loop_
_atom_site_label
_atom_site_type_symbol
_atom_site_fract_x
_atom_site_fract_y
_atom_site_fract_z
N1 N 0.66044(17) 0.38025(14) 0.61202(12)
N2 N 0.82223(19) 0.77250(16) 0.53069(13)
N3 N 0.76023(18) 0.39971(16) 0.40599(13)
C1 C 0.7278(2) 0.52518(17) 0.55799(15)
C2 C 0.6683(2) 0.66059(18) 0.73439(15)
C3 C 0.8832(2) 0.7814(2) 0.40597(16)
C4 C 0.7430(2) 0.64999(18) 0.60450(15)
C5 C 0.7882(2) 0.53052(18) 0.43238(15)
C6 C 0.8680(2) 0.6645(2) 0.35054(16)
C7 C 0.5887(2) 0.30613(19) 0.73290(16)
H1 H 0.5785 0.3534 0.7969
C8 C 0.6838(2) 0.31024(19) 0.51533(16)
N4 N 0.5229(4) 0.7108(2) 0.96908(17)
C9 C 0.5332(3) 0.1636(2) 0.75759(19)
H2 H 0.4825 0.1128 0.8392
C10 C 0.9291(3) 0.6864(2) 0.22169(17)
H3 H 0.9196 0.6098 0.1844
C11 C 0.6258(2) 0.1614(2) 0.54355(19)
H4 H 0.6391 0.1115 0.4807
C12 C 0.4859(3) 0.6546(2) 0.78759(16)
H5 H 0.4083 0.6322 0.7458
C13 C 0.5511(3) 0.0912(2) 0.6619(2)
H6 H 0.5108 -0.0068 0.6804
C14 C 0.9619(3) 0.9170(2) 0.33031(18)
H7 H 0.9748 0.9944 0.3658
C15 C 1.0026(3) 0.8201(3) 0.15110(19)
H8 H 1.0424 0.8346 0.0653
C16 C 0.7769(3) 0.6911(2) 0.80161(18)
H9 H 0.9005 0.6968 0.7690
C17 C 1.0189(3) 0.9352(3) 0.2054(2)
H10 H 1.0696 1.0258 0.1556
C18 C 0.4211(4) 0.6821(3) 0.90296(19)
H11 H 0.2972 0.6804 0.9367
C19 C 0.6990(4) 0.7131(3) 0.9181(2)
H12 H 0.7743 0.7306 0.9640
loop_
_geom_bond_atom_site_label_1
_geom_bond_atom_site_label_2
_geom_bond_site_symmetry_1
_geom_bond_site_symmetry_2
N1 C1 1_555 1_555
N2 C3 1_555 1_555
N3 C5 1_555 1_555
C1 C4 1_555 1_555
C2 C4 1_555 1_555
C3 C6 1_555 1_555
C4 N2 1_555 1_555
C5 C1 1_555 1_555
C6 C5 1_555 1_555
C7 N1 1_555 1_555
H1 C7 1_555 1_555
C8 N1 1_555 1_555
N4 C18 1_555 1_555
C9 C7 1_555 1_555
H2 C9 1_555 1_555
C10 C6 1_555 1_555
H3 C10 1_555 1_555
C11 C8 1_555 1_555
H4 C11 1_555 1_555
C12 C2 1_555 1_555
H5 C12 1_555 1_555
C13 C9 1_555 1_555
H6 C13 1_555 1_555
C14 C3 1_555 1_555
H7 C14 1_555 1_555
C15 C10 1_555 1_555
H8 C15 1_555 1_555
C16 C2 1_555 1_555
H9 C16 1_555 1_555
C17 C14 1_555 1_555
H10 C17 1_555 1_555
C18 C12 1_555 1_555
H11 C18 1_555 1_555
C19 N4 1_555 1_555
H12 C19 1_555 1_555
N3 C8 1_555 1_555
C11 C13 1_555 1_555
C15 C17 1_555 1_555
C16 C19 1_555 1_555

#END
