
#######################################################################
#
#                 Cambridge Crystallographic Data Centre
#                                CCDC 
#
#######################################################################
#
# If this CIF has been generated from an entry in the Cambridge 
# Structural Database, then it will include bibliographic, chemical, 
# crystal, experimental, refinement or atomic coordinate data resulting 
# from the CCDC's data processing and validation procedures.
#
#######################################################################

data_QIPZAS
_chemical_formula_moiety         'C36 H28 O1'
_chemical_name_systematic        
1,1',1'',1''',1''''-(5-Methoxycyclopenta-1,3-diene-1,2,3,4,5-pentayl)pentabenzene
_symmetry_cell_setting           triclinic
_symmetry_space_group_name_H-M   'P -1'
_symmetry_Int_Tables_number      2
_space_group_name_Hall           '-P 1'
loop_
_symmetry_equiv_pos_site_id
_symmetry_equiv_pos_as_xyz
1 x,y,z
2 -x,-y,-z
_cell_length_a                   10.131(3)
_cell_length_b                   10.150(2)
_cell_length_c                   14.682(4)
_cell_angle_alpha                99.93(2)
_cell_angle_beta                 93.55(2)
_cell_angle_gamma                114.56(3)
_cell_volume                     1337.46
_cell_formula_units_Z            2
loop_
_atom_site_label
_atom_site_type_symbol
_atom_site_fract_x
_atom_site_fract_y
_atom_site_fract_z
O1 O 0.60826(15) 0.61913(15) 0.41623(8)
C1 C 0.2555(2) 0.5606(2) 0.32978(14)
H1 H 0.3090 0.6592 0.3267
C2 C 0.1237(2) 0.5186(3) 0.36546(16)
H2 H 0.0895 0.5889 0.3859
C3 C 0.0440(3) 0.3739(3) 0.37064(16)
H3 H -0.0436 0.3464 0.3953
C4 C 0.0934(3) 0.2693(3) 0.33928(17)
H4 H 0.0387 0.1707 0.3419
C5 C 0.2248(2) 0.3109(2) 0.30374(15)
H5 H 0.2575 0.2394 0.2829
C6 C 0.3086(2) 0.4566(2) 0.29855(12)
C7 C 0.4525(2) 0.4994(2) 0.26500(12)
C8 C 0.48905(19) 0.42511(19) 0.19343(12)
C9 C 0.38974(18) 0.29138(18) 0.12250(12)
C10 C 0.2658(2) 0.2861(2) 0.07302(13)
H6 H 0.2422 0.3660 0.0866
C11 C 0.1775(2) 0.1644(2) 0.00420(15)
H7 H 0.0946 0.1624 -0.0281
C12 C 0.2107(3) 0.0453(3) -0.01731(16)
H8 H 0.1515 -0.0361 -0.0648
C13 C 0.3314(2) 0.0473(2) 0.03167(17)
H9 H 0.3530 -0.0339 0.0183
C14 C 0.4210(2) 0.1693(2) 0.10064(14)
H10 H 0.5033 0.1700 0.1330
C15 C 0.6889(2) 0.4155(2) 0.03217(13)
H11 H 0.6127 0.4348 0.0091
C16 C 0.7633(3) 0.3631(2) -0.02903(15)
H12 H 0.7378 0.3487 -0.0931
C17 C 0.8744(3) 0.3322(2) 0.00419(18)
H13 H 0.9243 0.2975 -0.0374
C18 C 0.9122(2) 0.3524(2) 0.09884(18)
H14 H 0.9866 0.3301 0.1212
C19 C 0.8395(2) 0.4059(2) 0.16048(15)
H15 H 0.8655 0.4198 0.2245
C20 C 0.72756(19) 0.43944(18) 0.12781(12)
C21 C 0.65156(19) 0.49735(19) 0.19576(11)
C22 C 0.71322(19) 0.61476(19) 0.26855(11)
C23 C 0.8686(2) 0.7244(2) 0.29603(12)
C24 C 0.9611(2) 0.7651(2) 0.22955(14)
H16 H 0.9241 0.7243 0.1665
C25 C 1.1066(3) 0.8648(3) 0.25522(17)
H17 H 1.1669 0.8897 0.2096
C26 C 1.1632(3) 0.9278(3) 0.34819(18)
H18 H 1.2618 0.9940 0.3657
C27 C 1.0730(2) 0.8921(3) 0.41459(16)
H19 H 1.1101 0.9357 0.4774
C28 C 0.9275(2) 0.7919(2) 0.38917(13)
H20 H 0.8677 0.7691 0.4352
C29 C 0.5921(2) 0.6300(2) 0.32045(11)
C30 C 0.5934(2) 0.7810(2) 0.31973(12)
C31 C 0.5877(3) 0.8234(3) 0.23538(15)
H21 H 0.5823 0.7592 0.1803
C32 C 0.5899(4) 0.9588(3) 0.23161(19)
H22 H 0.5843 0.9845 0.1742
C33 C 0.6005(3) 1.0566(3) 0.3129(2)
H23 H 0.6025 1.1485 0.3107
C34 C 0.6079(3) 1.0167(3) 0.39655(18)
H24 H 0.6153 1.0821 0.4516
C35 C 0.6045(2) 0.8794(2) 0.40057(14)
H25 H 0.6096 0.8538 0.4581
C36 C 0.6237(3) 0.4888(3) 0.42883(15)
H26 H 0.5394 0.4020 0.3952
H27 H 0.6315 0.4876 0.4942
H28 H 0.7104 0.4897 0.4055
loop_
_geom_bond_atom_site_label_1
_geom_bond_atom_site_label_2
_geom_bond_site_symmetry_1
_geom_bond_site_symmetry_2
O1 C29 1_555 1_555
C1 H1 1_555 1_555
C2 C1 1_555 1_555
H2 C2 1_555 1_555
C3 C2 1_555 1_555
H3 C3 1_555 1_555
C4 C3 1_555 1_555
H4 C4 1_555 1_555
C5 C4 1_555 1_555
H5 C5 1_555 1_555
C6 C1 1_555 1_555
C7 C6 1_555 1_555
C8 C7 1_555 1_555
C9 C8 1_555 1_555
C10 C9 1_555 1_555
H6 C10 1_555 1_555
C11 C10 1_555 1_555
H7 C11 1_555 1_555
C12 C11 1_555 1_555
H8 C12 1_555 1_555
C13 C12 1_555 1_555
H9 C13 1_555 1_555
C14 C9 1_555 1_555
H10 C14 1_555 1_555
C15 H11 1_555 1_555
C16 C15 1_555 1_555
H12 C16 1_555 1_555
C17 C16 1_555 1_555
H13 C17 1_555 1_555
C18 C17 1_555 1_555
H14 C18 1_555 1_555
C19 C18 1_555 1_555
H15 C19 1_555 1_555
C20 C15 1_555 1_555
C21 C8 1_555 1_555
C22 C21 1_555 1_555
C23 C22 1_555 1_555
C24 C23 1_555 1_555
H16 C24 1_555 1_555
C25 C24 1_555 1_555
H17 C25 1_555 1_555
C26 C25 1_555 1_555
H18 C26 1_555 1_555
C27 C26 1_555 1_555
H19 C27 1_555 1_555
C28 C23 1_555 1_555
H20 C28 1_555 1_555
C29 C7 1_555 1_555
C30 C29 1_555 1_555
C31 C30 1_555 1_555
H21 C31 1_555 1_555
C32 C31 1_555 1_555
H22 C32 1_555 1_555
C33 C32 1_555 1_555
H23 C33 1_555 1_555
C34 C33 1_555 1_555
H24 C34 1_555 1_555
C35 C30 1_555 1_555
H25 C35 1_555 1_555
C36 O1 1_555 1_555
H26 C36 1_555 1_555
H27 C36 1_555 1_555
H28 C36 1_555 1_555
C5 C6 1_555 1_555
C13 C14 1_555 1_555
C19 C20 1_555 1_555
C20 C21 1_555 1_555
C22 C29 1_555 1_555
C27 C28 1_555 1_555
C34 C35 1_555 1_555

#END
