
#######################################################################
#
#                 Cambridge Crystallographic Data Centre
#                                CCDC 
#
#######################################################################
#
# If this CIF has been generated from an entry in the Cambridge 
# Structural Database, then it will include bibliographic, chemical, 
# crystal, experimental, refinement or atomic coordinate data resulting 
# from the CCDC's data processing and validation procedures.
#
#######################################################################

data_QIQVUK
_chemical_name_common            
'Octaethyldithiabronzaphyrin bis(trifluoroacetate) bis(trifluoroacetic acid)'
_chemical_formula_moiety         
'C44 H52 N4 S2 2+,2(C2 H1 F3 O2),2(C2 F3 O2 1-)'
_chemical_name_systematic        
'7,8,13,14,21,22,27,28-octaethyl-31,34-dithia-29,30,32,33-tetra-azaheptacyclo[24.2.1.1^2,5^.1^6,9^.1^12,15^.1^16,19^.1^20,23^]tetratriaconta-1(29),2,4,6,8,10,12(32),13,15,17,19,21,23,25,27-pentadecaene-29,32-di-ium bis(trifluoroacetate) bis(trifluoroacetic acid)'
_symmetry_cell_setting           monoclinic
_symmetry_space_group_name_H-M   'P 21/c'
_symmetry_Int_Tables_number      14
_space_group_name_Hall           '-P 2ybc'
loop_
_symmetry_equiv_pos_site_id
_symmetry_equiv_pos_as_xyz
1 x,y,z
2 -x,1/2+y,1/2-z
3 -x,-y,-z
4 x,1/2-y,1/2+z
_cell_length_a                   12.4875(4)
_cell_length_b                   12.9069(4)
_cell_length_c                   16.8517(6)
_cell_angle_alpha                90
_cell_angle_beta                 98.0780(10)
_cell_angle_gamma                90
_cell_volume                     2689.12
_exptl_crystal_colour            green
_exptl_crystal_description       block
_cell_formula_units_Z            2
_exptl_crystal_recrystallization_method 'trifluoroacetic acid/chloroform'
loop_
_atom_site_label
_atom_site_type_symbol
_atom_site_fract_x
_atom_site_fract_y
_atom_site_fract_z
S1 S 0.25222(4) 0.41813(4) 0.43469(4)
N1 N 0.33530(16) 0.71263(15) 0.39088(11)
N2 N 0.48403(15) 0.20698(15) 0.50425(11)
C1 C 0.27133(17) 0.62781(17) 0.39888(12)
C2 C 0.38236(17) 0.24735(17) 0.48298(13)
C3 C 0.31759(18) 0.52808(18) 0.40612(13)
C4 C 0.17070(18) 0.77261(18) 0.40682(13)
C5 C 0.27882(18) 0.80167(18) 0.39746(13)
C6 C 0.30820(18) 0.18017(17) 0.51455(13)
C7 C 0.16598(17) 0.66558(18) 0.40770(13)
C8 C 0.47951(18) 0.12117(17) 0.55107(13)
C9 C 0.42658(18) 0.50484(18) 0.40145(14)
H1 H 0.4757 0.5538 0.3849
C10 C 0.32228(18) 0.90252(17) 0.39775(13)
H2 H 0.2708 0.9567 0.3871
C11 C 0.36777(18) 0.10118(17) 0.55518(13)
C12 C 0.45559(18) 0.40493(18) 0.42305(14)
H3 H 0.5265 0.3785 0.4225
C13 C 0.37069(17) 0.34542(17) 0.44602(13)
C14 C 0.42932(18) 0.93383(17) 0.41130(14)
H4 H 0.4434 1.0013 0.3928
C15 C 0.06910(18) 0.60024(19) 0.41615(15)
H5 H 0.0133 0.6439 0.4360
H6 H 0.0901 0.5453 0.4564
C16 C 0.08299(18) 0.84782(19) 0.41997(14)
H7 H 0.1162 0.9078 0.4507
H8 H 0.0333 0.8138 0.4528
C17 C 0.3277(2) 0.01359(19) 0.60187(14)
H9 H 0.3727 -0.0485 0.5964
H10 H 0.2525 -0.0032 0.5786
C18 C 0.18762(18) 0.19364(19) 0.50580(15)
H11 H 0.1711 0.2661 0.5189
H12 H 0.1583 0.1481 0.5448
C19 C 0.1311(2) 0.1685(2) 0.42156(17)
H13 H 0.1592 0.2138 0.3826
H14 H 0.0531 0.1795 0.4192
H15 H 0.1449 0.0960 0.4089
C20 C 0.0210(2) 0.5499(2) 0.33660(17)
H16 H -0.0034 0.6040 0.2974
H17 H -0.0405 0.5062 0.3452
H18 H 0.0763 0.5073 0.3164
C21 C 0.0176(2) 0.8870(2) 0.34257(17)
H19 H 0.0654 0.9241 0.3109
H20 H -0.0392 0.9340 0.3554
H21 H -0.0156 0.8281 0.3116
C22 C 0.3307(3) 0.0383(2) 0.69047(17)
H22 H 0.4048 0.0559 0.7138
H23 H 0.3063 -0.0223 0.7181
H24 H 0.2829 0.0971 0.6965
H25 H 0.542(3) 0.228(2) 0.4879(18)
H26 H 0.395(3) 0.710(2) 0.3763(19)
S1B S 0.74778(4) 0.58187(4) 0.56531(4)
N1B N 0.66470(16) 0.28737(15) 0.60912(11)
N2B N 0.51597(15) 0.79302(15) 0.49575(11)
C1B C 0.72867(17) 0.37219(17) 0.60112(12)
C2B C 0.61764(17) 0.75265(17) 0.51702(13)
C3B C 0.68241(18) 0.47192(18) 0.59388(13)
C4B C 0.82930(18) 0.22739(18) 0.59318(13)
C5B C 0.72118(18) 0.19833(18) 0.60254(13)
C6B C 0.69180(18) 0.81983(17) 0.48545(13)
C7B C 0.83402(17) 0.33442(18) 0.59230(13)
C8B C 0.52049(18) 0.87883(17) 0.44893(13)
C9B C 0.57342(18) 0.49516(18) 0.59855(14)
H1B H 0.5243 0.4462 0.6151
C10B C 0.67772(18) 0.09748(17) 0.60225(13)
H2B H 0.7292 0.0433 0.6129
C11B C 0.63223(18) 0.89882(17) 0.44482(13)
C12B C 0.54441(18) 0.59507(18) 0.57695(14)
H3B H 0.4735 0.6215 0.5775
C13B C 0.62931(17) 0.65458(17) 0.55398(13)
C14B C 0.57068(18) 0.06617(17) 0.58870(14)
H4B H 0.5566 -0.0013 0.6072
C15B C 0.93090(18) 0.39976(19) 0.58385(15)
H5B H 0.9867 0.3561 0.5640
H6B H 0.9099 0.4547 0.5436
C16B C 0.91701(18) 0.15218(19) 0.58003(14)
H7B H 0.8838 0.0922 0.5493
H8B H 0.9667 0.1862 0.5472
C17B C 0.6723(2) 0.98641(19) 0.39813(14)
H9B H 0.6273 1.0485 0.4036
H10B H 0.7475 1.0032 0.4214
C18B C 0.81238(18) 0.80636(19) 0.49420(15)
H11B H 0.8289 0.7339 0.4811
H12B H 0.8417 0.8519 0.4552
C19B C 0.8689(2) 0.8315(2) 0.57844(17)
H13B H 0.8408 0.7862 0.6174
H14B H 0.9469 0.8205 0.5808
H15B H 0.8551 0.9040 0.5911
C20B C 0.9790(2) 0.4501(2) 0.66340(17)
H16B H 1.0034 0.3960 0.7026
H17B H 1.0405 0.4938 0.6548
H18B H 0.9237 0.4927 0.6836
C21B C 0.9824(2) 0.1130(2) 0.65743(17)
H19B H 0.9346 0.0759 0.6891
H20B H 1.0392 0.0660 0.6446
H21B H 1.0156 0.1719 0.6884
C22B C 0.6693(3) 0.9617(2) 0.30953(17)
H22B H 0.5952 0.9441 0.2862
H23B H 0.6937 1.0223 0.2819
H24B H 0.7171 0.9029 0.3035
H25B H 0.458(3) 0.772(2) 0.5121(18)
H26B H 0.605(3) 0.290(2) 0.6237(19)
F1 F 0.87373(13) 0.31239(16) 0.40966(10)
O1 O 0.67159(13) 0.26204(14) 0.42706(10)
O2 O 0.63436(17) 0.2387(2) 0.29406(11)
F2 F 0.81758(19) 0.3461(3) 0.28876(13)
C23 C 0.69395(19) 0.25845(19) 0.35921(14)
F3 F 0.85521(19) 0.1919(3) 0.3236(2)
C24 C 0.8119(2) 0.2770(3) 0.34598(16)
H27 H 0.541(5) 0.217(5) 0.301(4)
O3 O 0.44549(14) 0.19277(14) 0.16231(10)
F4 F 0.26307(15) 0.08073(17) 0.27060(11)
O4 O 0.44791(16) 0.18312(19) 0.29539(11)
C25 C 0.40588(19) 0.17410(19) 0.22251(14)
F5 F 0.2609(3) 0.0904(4) 0.14568(16)
F6 F 0.2202(2) 0.2129(3) 0.2060(3)
C26 C 0.2890(2) 0.1337(3) 0.21156(16)
loop_
_geom_bond_atom_site_label_1
_geom_bond_atom_site_label_2
_geom_bond_site_symmetry_1
_geom_bond_site_symmetry_2
S1 C3 1_555 1_555
N1 C1 1_555 1_555
N2 C2 1_555 1_555
C1 C3 1_555 1_555
C2 C6 1_555 1_555
C3 C9 1_555 1_555
C4 C5 1_555 1_555
C5 N1 1_555 1_555
C6 C11 1_555 1_555
C7 C1 1_555 1_555
C8 N2 1_555 1_555
C9 H1 1_555 1_555
C10 C5 1_555 1_555
H2 C10 1_555 1_555
C11 C8 1_555 1_555
C12 C9 1_555 1_555
H3 C12 1_555 1_555
C13 S1 1_555 1_555
C14 C10 1_555 1_555
H4 C14 1_555 1_555
C15 C7 1_555 1_555
H5 C15 1_555 1_555
H6 C15 1_555 1_555
C16 C4 1_555 1_555
H7 C16 1_555 1_555
H8 C16 1_555 1_555
C17 C11 1_555 1_555
H9 C17 1_555 1_555
H10 C17 1_555 1_555
C18 C6 1_555 1_555
H11 C18 1_555 1_555
H12 C18 1_555 1_555
C19 C18 1_555 1_555
H13 C19 1_555 1_555
H14 C19 1_555 1_555
H15 C19 1_555 1_555
C20 C15 1_555 1_555
H16 C20 1_555 1_555
H17 C20 1_555 1_555
H18 C20 1_555 1_555
C21 C16 1_555 1_555
H19 C21 1_555 1_555
H20 C21 1_555 1_555
H21 C21 1_555 1_555
C22 C17 1_555 1_555
H22 C22 1_555 1_555
H23 C22 1_555 1_555
H24 C22 1_555 1_555
H25 N2 1_555 1_555
H26 N1 1_555 1_555
F1 C24 1_555 1_555
O1 C23 1_555 1_555
O2 C23 1_555 1_555
F2 C24 1_555 1_555
C23 C24 1_555 1_555
F3 C24 1_555 1_555
H27 O2 1_555 1_555
O3 C25 1_555 1_555
F4 C26 1_555 1_555
O4 C25 1_555 1_555
C25 C26 1_555 1_555
F5 C26 1_555 1_555
F6 C26 1_555 1_555
S1B C3B 1_555 1_555
N1B C1B 1_555 1_555
N2B C2B 1_555 1_555
C1B C3B 1_555 1_555
C2B C6B 1_555 1_555
C3B C9B 1_555 1_555
C4B C5B 1_555 1_555
C5B N1B 1_555 1_555
C6B C11B 1_555 1_555
C7B C1B 1_555 1_555
C8B C14 1_555 1_555
C9B H1B 1_555 1_555
C10B C5B 1_555 1_555
H2B C10B 1_555 1_555
C11B C8B 1_555 1_555
C12B C9B 1_555 1_555
H3B C12B 1_555 1_555
C13B S1B 1_555 1_555
C14B C8 1_555 1_555
H4B C14B 1_555 1_555
C15B C7B 1_555 1_555
H5B C15B 1_555 1_555
H6B C15B 1_555 1_555
C16B C4B 1_555 1_555
H7B C16B 1_555 1_555
H8B C16B 1_555 1_555
C17B C11B 1_555 1_555
H9B C17B 1_555 1_555
H10B C17B 1_555 1_555
C18B C6B 1_555 1_555
H11B C18B 1_555 1_555
H12B C18B 1_555 1_555
C19B C18B 1_555 1_555
H13B C19B 1_555 1_555
H14B C19B 1_555 1_555
H15B C19B 1_555 1_555
C20B C15B 1_555 1_555
H16B C20B 1_555 1_555
H17B C20B 1_555 1_555
H18B C20B 1_555 1_555
C21B C16B 1_555 1_555
H19B C21B 1_555 1_555
H20B C21B 1_555 1_555
H21B C21B 1_555 1_555
C22B C17B 1_555 1_555
H22B C22B 1_555 1_555
H23B C22B 1_555 1_555
H24B C22B 1_555 1_555
H25B N2B 1_555 1_555
H26B N1B 1_555 1_555
C2 C13 1_555 1_555
C4 C7 1_555 1_555
C12 C13 1_555 1_555
N2B C8B 1_555 1_555
C2B C13B 1_555 1_555
C4B C7B 1_555 1_555
C10B C14B 1_555 1_555
C12B C13B 1_555 1_555

#END
