
#######################################################################
#
#                 Cambridge Crystallographic Data Centre
#                                CCDC 
#
#######################################################################
#
# If this CIF has been generated from an entry in the Cambridge 
# Structural Database, then it will include bibliographic, chemical, 
# crystal, experimental, refinement or atomic coordinate data resulting 
# from the CCDC's data processing and validation procedures.
#
#######################################################################

data_QIRGIJ01
_chemical_name_common            Fused-(phenyl)bis-fluorenone
_chemical_formula_moiety         'C42 H24'
_chemical_name_systematic        
7-(7H-Dibenzo[c,g]fluoren-7-ylidene)-7H-dibenzo[c,g]fluorene
_symmetry_cell_setting           monoclinic
_symmetry_space_group_name_H-M   'C 2/c'
_symmetry_Int_Tables_number      15
_space_group_name_Hall           '-C 2yn'
loop_
_symmetry_equiv_pos_site_id
_symmetry_equiv_pos_as_xyz
1 x,y,z
2 -x,y,1/2-z
3 1/2+x,1/2+y,z
4 1/2-x,1/2+y,1/2-z
5 -x,-y,-z
6 x,-y,1/2+z
7 1/2-x,1/2-y,-z
8 1/2+x,1/2-y,1/2+z
_cell_length_a                   24.1802(17)
_cell_length_b                   15.1459(11)
_cell_length_c                   18.2993(14)
_cell_angle_alpha                90
_cell_angle_beta                 127.1010(10)
_cell_angle_gamma                90
_cell_volume                     5345.15
_exptl_crystal_colour            'black violet'
_exptl_crystal_description       prism
_cell_formula_units_Z            8
loop_
_atom_site_label
_atom_site_type_symbol
_atom_site_fract_x
_atom_site_fract_y
_atom_site_fract_z
C1 C 0.04083(12) -0.33527(13) 0.58410(15)
H1 H 0.0318 -0.3853 0.5491
C2 C 0.09278(11) -0.33687(11) 0.67811(15)
H2 H 0.1195 -0.3875 0.7054
C3 C 0.10503(9) -0.26484(10) 0.73090(13)
H3 H 0.1399 -0.2673 0.7938
C4 C 0.06574(8) -0.18658(9) 0.69177(10)
C5 C 0.07876(7) -0.10706(9) 0.74151(10)
C6 C 0.05195(7) -0.02681(9) 0.69457(10)
C7 C 0.09403(7) 0.04545(9) 0.75838(9)
C8 C 0.09142(7) 0.13412(9) 0.73874(9)
C9 C 0.15086(7) 0.19438(9) 0.77802(9)
C10 C 0.12682(7) 0.27731(8) 0.73733(9)
C11 C 0.17369(7) 0.33941(9) 0.74316(10)
C12 C 0.15355(8) 0.41383(10) 0.68519(11)
H4 H 0.1067 0.4248 0.6400
C13 C 0.20172(9) 0.46960(11) 0.69460(14)
H5 H 0.1872 0.5177 0.6554
C14 C 0.27254(9) 0.45561(11) 0.76223(14)
H6 H 0.3047 0.4965 0.7708
C15 C 0.20356(11) -0.23212(12) 1.08143(14)
H7 H 0.2220 -0.2644 1.1348
C16 C 0.15500(10) -0.27052(12) 0.99673(14)
H8 H 0.1399 -0.3278 0.9938
C17 C 0.12907(9) -0.22536(10) 0.91766(12)
H9 H 0.0956 -0.2517 0.8616
C18 C 0.15236(7) -0.13894(9) 0.91950(10)
C19 C 0.19906(7) -0.09782(10) 1.00665(10)
C20 C 0.21586(7) -0.00788(10) 1.01216(10)
H10 H 0.2477 0.0176 1.0694
C21 C 0.18666(7) 0.04250(9) 0.93584(10)
H11 H 0.1959 0.1027 0.9411
C22 C 0.14222(7) 0.00321(9) 0.84862(9)
C23 C 0.00345(11) -0.26096(12) 0.54363(13)
H12 H -0.0310 -0.2606 0.4806
C24 C 0.01542(8) -0.18378(10) 0.59477(11)
C25 C -0.01692(9) -0.10331(11) 0.55119(11)
H13 H -0.0528 -0.1031 0.4886
C26 C 0.00309(8) -0.02568(10) 0.59843(10)
H14 H -0.0154 0.0275 0.5674
C27 C 0.12791(7) -0.08708(9) 0.84037(10)
C28 C 0.24612(7) 0.32028(9) 0.80522(10)
C29 C 0.29436(8) 0.38232(11) 0.81535(12)
H15 H 0.3416 0.3725 0.8591
C30 C 0.26840(7) 0.23762(10) 0.84949(10)
H16 H 0.3156 0.2261 0.8908
C31 C 0.22209(7) 0.17442(10) 0.83291(10)
H17 H 0.2375 0.1182 0.8578
C32 C 0.05056(7) 0.27657(9) 0.68322(9)
C33 C 0.00091(7) 0.34619(9) 0.65005(9)
C34 C 0.01680(8) 0.43670(10) 0.66961(11)
H18 H 0.0630 0.4544 0.7065
C35 C -0.03402(9) 0.49898(11) 0.63565(13)
H19 H -0.0220 0.5583 0.6485
C36 C -0.10378(9) 0.47468(12) 0.58188(14)
H20 H -0.1381 0.5177 0.5576
C37 C -0.12135(8) 0.38790(11) 0.56523(12)
H21 H -0.1678 0.3719 0.5309
C38 C -0.07043(7) 0.32164(10) 0.59902(10)
C39 C -0.08893(7) 0.23170(10) 0.58804(10)
H22 H -0.1356 0.2165 0.5521
C40 C -0.04050(7) 0.16672(10) 0.62851(10)
H23 H -0.0537 0.1082 0.6247
C41 C 0.02985(7) 0.18865(9) 0.67623(9)
C42 C 0.22422(9) -0.14739(12) 1.08659(12)
H24 H 0.2555 -0.1215 1.1438
loop_
_geom_bond_atom_site_label_1
_geom_bond_atom_site_label_2
_geom_bond_site_symmetry_1
_geom_bond_site_symmetry_2
C1 H1 1_555 1_555
C2 C1 1_555 1_555
H2 C2 1_555 1_555
C3 C2 1_555 1_555
H3 C3 1_555 1_555
C4 C3 1_555 1_555
C5 C4 1_555 1_555
C6 C5 1_555 1_555
C7 C6 1_555 1_555
C8 C7 1_555 1_555
C9 C8 1_555 1_555
C10 C9 1_555 1_555
C11 C10 1_555 1_555
C12 C11 1_555 1_555
H4 C12 1_555 1_555
C13 C12 1_555 1_555
H5 C13 1_555 1_555
C14 C13 1_555 1_555
H6 C14 1_555 1_555
C15 H7 1_555 1_555
C16 C15 1_555 1_555
H8 C16 1_555 1_555
C17 C16 1_555 1_555
H9 C17 1_555 1_555
C18 C17 1_555 1_555
C19 C18 1_555 1_555
C20 C19 1_555 1_555
H10 C20 1_555 1_555
C21 C20 1_555 1_555
H11 C21 1_555 1_555
C22 C7 1_555 1_555
C23 C1 1_555 1_555
H12 C23 1_555 1_555
C24 C4 1_555 1_555
C25 C24 1_555 1_555
H13 C25 1_555 1_555
C26 C6 1_555 1_555
H14 C26 1_555 1_555
C27 C5 1_555 1_555
C28 C11 1_555 1_555
C29 C14 1_555 1_555
H15 C29 1_555 1_555
C30 C28 1_555 1_555
H16 C30 1_555 1_555
C31 C9 1_555 1_555
H17 C31 1_555 1_555
C32 C10 1_555 1_555
C33 C32 1_555 1_555
C34 C33 1_555 1_555
H18 C34 1_555 1_555
C35 C34 1_555 1_555
H19 C35 1_555 1_555
C36 C35 1_555 1_555
H20 C36 1_555 1_555
C37 C36 1_555 1_555
H21 C37 1_555 1_555
C38 C33 1_555 1_555
C39 C38 1_555 1_555
H22 C39 1_555 1_555
C40 C39 1_555 1_555
H23 C40 1_555 1_555
C41 C8 1_555 1_555
C42 C15 1_555 1_555
H24 C42 1_555 1_555
C18 C27 1_555 1_555
C19 C42 1_555 1_555
C21 C22 1_555 1_555
C22 C27 1_555 1_555
C23 C24 1_555 1_555
C25 C26 1_555 1_555
C28 C29 1_555 1_555
C30 C31 1_555 1_555
C32 C41 1_555 1_555
C37 C38 1_555 1_555
C40 C41 1_555 1_555

#END
