
#######################################################################
#
#                 Cambridge Crystallographic Data Centre
#                                CCDC 
#
#######################################################################
#
# If this CIF has been generated from an entry in the Cambridge 
# Structural Database, then it will include bibliographic, chemical, 
# crystal, experimental, refinement or atomic coordinate data resulting 
# from the CCDC's data processing and validation procedures.
#
#######################################################################

data_QIRPAL
_chemical_formula_moiety         'C8 H8 N2 O5'
_chemical_name_systematic        3,4-dimethyl-2,6-dinitrophenol
_symmetry_cell_setting           monoclinic
_symmetry_space_group_name_H-M   'P 21/n'
_symmetry_Int_Tables_number      14
_space_group_name_Hall           '-P 2yn'
loop_
_symmetry_equiv_pos_site_id
_symmetry_equiv_pos_as_xyz
1 x,y,z
2 1/2-x,1/2+y,1/2-z
3 -x,-y,-z
4 1/2+x,1/2-y,1/2+z
_cell_length_a                   10.7951(12)
_cell_length_b                   8.1053(9)
_cell_length_c                   10.8626(9)
_cell_angle_alpha                90
_cell_angle_beta                 100.371(4)
_cell_angle_gamma                90
_cell_volume                     934.923
_exptl_crystal_colour            yellow
_exptl_crystal_description       plate
_cell_formula_units_Z            4
loop_
_atom_site_label
_atom_site_type_symbol
_atom_site_fract_x
_atom_site_fract_y
_atom_site_fract_z
C1 C 0.4868(3) 0.2230(4) 0.0374(3)
C2 C 0.3664(3) 0.1977(4) -0.0321(3)
C3 C 0.2882(3) 0.0970(4) 0.0229(3)
C4 C 0.3211(3) 0.0204(4) 0.1378(3)
C5 C 0.4445(3) 0.0492(4) 0.2046(3)
C6 C 0.5241(3) 0.1492(4) 0.1532(3)
H1 H 0.6050 0.1680 0.1972
C7 C 0.2296(4) -0.0883(5) 0.1891(3)
H2 H 0.1492 -0.0845 0.1344
H3 H 0.2209 -0.0501 0.2707
H4 H 0.2603 -0.1997 0.1948
C8 C 0.4881(4) -0.0297(5) 0.3314(3)
H5 H 0.5727 0.0050 0.3642
H6 H 0.4859 -0.1476 0.3228
H7 H 0.4335 0.0036 0.3875
N1 N 0.5765(3) 0.3260(4) -0.0116(3)
N2 N 0.1604(3) 0.0730(4) -0.0512(3)
O1 O 0.6798(3) 0.3491(4) 0.0508(3)
O2 O 0.5439(3) 0.3881(4) -0.1168(3)
O3 O 0.3198(2) 0.2611(3) -0.1449(2)
H8 H 0.376(3) 0.318(4) -0.168(3)
O4 O 0.0773(3) 0.1602(4) -0.0281(3)
O5 O 0.1469(3) -0.0321(4) -0.1309(3)
loop_
_geom_bond_atom_site_label_1
_geom_bond_atom_site_label_2
_geom_bond_site_symmetry_1
_geom_bond_site_symmetry_2
C1 C2 1_555 1_555
C2 C3 1_555 1_555
C3 C4 1_555 1_555
C4 C5 1_555 1_555
C5 C6 1_555 1_555
C6 C1 1_555 1_555
H1 C6 1_555 1_555
C7 C4 1_555 1_555
H2 C7 1_555 1_555
H3 C7 1_555 1_555
H4 C7 1_555 1_555
C8 C5 1_555 1_555
H5 C8 1_555 1_555
H6 C8 1_555 1_555
H7 C8 1_555 1_555
N1 C1 1_555 1_555
N2 C3 1_555 1_555
O1 N1 1_555 1_555
O2 N1 1_555 1_555
O3 C2 1_555 1_555
H8 O3 1_555 1_555
O4 N2 1_555 1_555
O5 N2 1_555 1_555

#END
