
#######################################################################
#
#                 Cambridge Crystallographic Data Centre
#                                CCDC 
#
#######################################################################
#
# If this CIF has been generated from an entry in the Cambridge 
# Structural Database, then it will include bibliographic, chemical, 
# crystal, experimental, refinement or atomic coordinate data resulting 
# from the CCDC's data processing and validation procedures.
#
#######################################################################

data_QIRQAM
_chemical_formula_moiety         'C22 H19 N1 O6'
_chemical_name_systematic        
'ethyl 2-amino-4-(3-methoxyphenyl)-5-oxo-4H,5H-pyrano[3,2-c]chromene-3-carboxylate'
_symmetry_cell_setting           monoclinic
_symmetry_space_group_name_H-M   'P 21/n'
_symmetry_Int_Tables_number      14
_space_group_name_Hall           '-P 2yn'
loop_
_symmetry_equiv_pos_site_id
_symmetry_equiv_pos_as_xyz
1 x,y,z
2 1/2-x,1/2+y,1/2-z
3 -x,-y,-z
4 1/2+x,1/2-y,1/2+z
_cell_length_a                   9.195(4)
_cell_length_b                   17.253(5)
_cell_length_c                   12.127(5)
_cell_angle_alpha                90
_cell_angle_beta                 95.100(16)
_cell_angle_gamma                90
_cell_volume                     1916.23
_exptl_crystal_colour            colorless
_exptl_crystal_description       block
_cell_formula_units_Z            4
loop_
_atom_site_label
_atom_site_type_symbol
_atom_site_fract_x
_atom_site_fract_y
_atom_site_fract_z
N1 N 0.49560(16) 0.37245(8) 0.40727(11)
H1 H 0.483575 0.418000 0.433799
H2 H 0.454648 0.360356 0.343060
O1 O 0.75159(14) 0.40343(6) 0.71414(9)
O2 O 0.61551(16) 0.46330(7) 0.57665(10)
O3 O 0.57946(12) 0.25269(6) 0.40508(9)
O4 O 0.93243(14) 0.13463(7) 0.65864(9)
O5 O 0.89809(14) 0.09037(7) 0.48794(9)
O6 O 0.57235(15) 0.23129(8) 1.00681(10)
C1 C 0.8455(3) 0.46517(13) 0.88042(17)
H3 H 0.867432 0.514263 0.915277
H4 H 0.775872 0.437907 0.920396
H5 H 0.933327 0.435070 0.880484
C2 C 0.7839(3) 0.47789(11) 0.76527(16)
H6 H 0.695443 0.508595 0.764521
H7 H 0.853418 0.505749 0.724477
C3 C 0.66726(19) 0.40382(9) 0.61672(13)
C4 C 0.65122(18) 0.32779(9) 0.56748(12)
C5 C 0.57731(18) 0.32087(9) 0.46539(13)
C6 C 0.68582(17) 0.19993(9) 0.43730(13)
C7 C 0.75556(17) 0.19973(9) 0.53939(12)
C8 C 0.72126(18) 0.25723(9) 0.62582(12)
H8 H 0.813414 0.273607 0.665851
C9 C 0.86593(19) 0.14203(9) 0.56841(13)
C10 C 0.82475(19) 0.09076(9) 0.38317(13)
C11 C 0.71586(18) 0.14441(9) 0.35368(13)
C12 C 0.6459(2) 0.14179(10) 0.24681(14)
H9 H 0.572176 0.177090 0.225675
C13 C 0.6859(2) 0.08683(11) 0.17235(15)
H10 H 0.639418 0.085091 0.101066
C14 C 0.7948(2) 0.03466(11) 0.20428(16)
H11 H 0.821873 -0.001972 0.153675
C15 C 0.8647(2) 0.03555(11) 0.30962(16)
H12 H 0.937364 -0.000385 0.330596
C16 C 0.62571(18) 0.22146(9) 0.70925(12)
C17 C 0.5164(2) 0.16963(10) 0.67677(14)
H13 H 0.501334 0.154756 0.602927
C18 C 0.4288(2) 0.13959(11) 0.75320(16)
H14 H 0.355116 0.104679 0.730420
C19 C 0.4498(2) 0.16097(11) 0.86284(15)
H15 H 0.390564 0.140569 0.913951
C20 C 0.5589(2) 0.21266(10) 0.89649(14)
C21 C 0.64754(19) 0.24259(10) 0.82025(13)
H16 H 0.721994 0.276966 0.843360
C22 C 0.6966(3) 0.27477(14) 1.04759(16)
H17 H 0.693073 0.283923 1.125394
H18 H 0.783559 0.246354 1.035663
H19 H 0.697183 0.323460 1.009323
loop_
_geom_bond_atom_site_label_1
_geom_bond_atom_site_label_2
_geom_bond_site_symmetry_1
_geom_bond_site_symmetry_2
N1 H1 1_555 1_555
H2 N1 1_555 1_555
O1 C2 1_555 1_555
O2 C3 1_555 1_555
O3 C5 1_555 1_555
O4 C9 1_555 1_555
O5 C9 1_555 1_555
O6 C20 1_555 1_555
C1 H3 1_555 1_555
H4 C1 1_555 1_555
H5 C1 1_555 1_555
C2 C1 1_555 1_555
H6 C2 1_555 1_555
H7 C2 1_555 1_555
C3 O1 1_555 1_555
C4 C3 1_555 1_555
C5 N1 1_555 1_555
C6 O3 1_555 1_555
C7 C6 1_555 1_555
C8 C4 1_555 1_555
H8 C8 1_555 1_555
C9 C7 1_555 1_555
C10 O5 1_555 1_555
C11 C6 1_555 1_555
C12 C11 1_555 1_555
H9 C12 1_555 1_555
C13 C12 1_555 1_555
H10 C13 1_555 1_555
C14 C13 1_555 1_555
H11 C14 1_555 1_555
C15 C10 1_555 1_555
H12 C15 1_555 1_555
C16 C8 1_555 1_555
C17 C16 1_555 1_555
H13 C17 1_555 1_555
C18 C17 1_555 1_555
H14 C18 1_555 1_555
C19 C18 1_555 1_555
H15 C19 1_555 1_555
C20 C19 1_555 1_555
C21 C16 1_555 1_555
H16 C21 1_555 1_555
C22 O6 1_555 1_555
H17 C22 1_555 1_555
H18 C22 1_555 1_555
H19 C22 1_555 1_555
C4 C5 1_555 1_555
C7 C8 1_555 1_555
C10 C11 1_555 1_555
C14 C15 1_555 1_555
C20 C21 1_555 1_555

#END
