
#######################################################################
#
#                 Cambridge Crystallographic Data Centre
#                                CCDC 
#
#######################################################################
#
# If this CIF has been generated from an entry in the Cambridge 
# Structural Database, then it will include bibliographic, chemical, 
# crystal, experimental, refinement or atomic coordinate data resulting 
# from the CCDC's data processing and validation procedures.
#
#######################################################################

data_QIRSIT
_chemical_formula_moiety         'C21 H25 Cl1 N1 O1 1+,Cl1 1-'
_chemical_name_systematic        
"Nor-3-\a-((4'-chlorophenyl)(phenyl)methoxy)tropane hydrochloride"
_symmetry_cell_setting           orthorhombic
_symmetry_space_group_name_H-M   'P b c a'
_symmetry_Int_Tables_number      61
_space_group_name_Hall           '-P 2ac 2ab'
loop_
_symmetry_equiv_pos_site_id
_symmetry_equiv_pos_as_xyz
1 x,y,z
2 1/2+x,y,1/2-z
3 x,1/2-y,1/2+z
4 1/2-x,1/2+y,z
5 -x,-y,-z
6 1/2-x,-y,1/2+z
7 -x,1/2+y,1/2-z
8 1/2+x,1/2-y,-z
_cell_length_a                   9.122(1)
_cell_length_b                   20.334(1)
_cell_length_c                   20.847(1)
_cell_angle_alpha                90
_cell_angle_beta                 90
_cell_angle_gamma                90
_cell_volume                     3866.84
_exptl_crystal_colour            colorless
_exptl_crystal_description       prism
_cell_formula_units_Z            8
loop_
_atom_site_label
_atom_site_type_symbol
_atom_site_fract_x
_atom_site_fract_y
_atom_site_fract_z
Cl1 Cl -0.13376(9) 0.20023(4) 0.63364(4)
Cl2 Cl 0.04241(9) -0.02152(4) 0.25943(4)
C1 C 0.2699(3) 0.13616(15) 0.65101(14)
H1 H 0.2473 0.1125 0.6907
C2 C 0.2134(3) 0.09871(14) 0.59335(15)
H2 H 0.1085 0.0925 0.5981
H3 H 0.2587 0.0556 0.5927
C3 C 0.2429(3) 0.13267(14) 0.52923(13)
H4 H 0.1737 0.1155 0.4974
C4 C 0.2213(3) 0.20691(14) 0.53457(13)
H5 H 0.2711 0.2281 0.4990
H6 H 0.1176 0.2167 0.5307
C5 C 0.2780(3) 0.23605(14) 0.59709(13)
H7 H 0.2615 0.2837 0.5983
C6 C 0.4380(3) 0.21979(15) 0.61235(15)
H8 H 0.4813 0.2536 0.6392
H9 H 0.4951 0.2160 0.5733
C7 C 0.4322(3) 0.15358(16) 0.64808(15)
H10 H 0.4866 0.1202 0.6250
H11 H 0.4728 0.1578 0.6909
N1 N 0.1971(3) 0.20243(12) 0.65067(10)
H12 H 0.094(4) 0.1968(14) 0.6411(14)
C8 C 0.2066(4) 0.2382(2) 0.71337(15)
H13 H 0.1577 0.2799 0.7097
H14 H 0.3077 0.2453 0.7242
H15 H 0.1605 0.2125 0.7463
O1 O 0.3885(2) 0.11380(9) 0.51067(8)
C9 C 0.4252(3) 0.12674(14) 0.44507(12)
H16 H 0.4123 0.1739 0.4369
C10 C 0.3285(3) 0.08868(13) 0.39874(13)
C11 C 0.2592(3) 0.12123(14) 0.34933(13)
H17 H 0.2709 0.1664 0.3450
C12 C 0.1725(3) 0.08721(15) 0.30615(13)
H18 H 0.1260 0.1094 0.2729
C13 C 0.1557(3) 0.02045(14) 0.31276(13)
C14 C 0.2244(3) -0.01349(14) 0.36150(14)
H19 H 0.2130 -0.0588 0.3654
C15 C 0.3107(3) 0.02118(14) 0.40453(14)
H20 H 0.3574 -0.0011 0.4377
C16 C 0.5873(3) 0.11006(13) 0.43806(13)
C17 C 0.6434(3) 0.09007(15) 0.37908(14)
H21 H 0.5804 0.0843 0.3444
C18 C 0.7919(3) 0.07871(16) 0.37149(15)
H22 H 0.8283 0.0659 0.3317
C19 C 0.8862(3) 0.08633(16) 0.42274(15)
H23 H 0.9858 0.0779 0.4179
C20 C 0.8318(3) 0.10650(15) 0.48101(14)
H24 H 0.8954 0.1123 0.5154
C21 C 0.6840(3) 0.11826(14) 0.48906(13)
H25 H 0.6489 0.1317 0.5288
loop_
_geom_bond_atom_site_label_1
_geom_bond_atom_site_label_2
_geom_bond_site_symmetry_1
_geom_bond_site_symmetry_2
Cl2 C13 1_555 1_555
C1 H1 1_555 1_555
C2 C1 1_555 1_555
H2 C2 1_555 1_555
H3 C2 1_555 1_555
C3 C2 1_555 1_555
H4 C3 1_555 1_555
C4 C3 1_555 1_555
H5 C4 1_555 1_555
H6 C4 1_555 1_555
C5 C4 1_555 1_555
H7 C5 1_555 1_555
C6 C5 1_555 1_555
H8 C6 1_555 1_555
H9 C6 1_555 1_555
C7 C1 1_555 1_555
H10 C7 1_555 1_555
H11 C7 1_555 1_555
N1 C1 1_555 1_555
H12 N1 1_555 1_555
C8 N1 1_555 1_555
H13 C8 1_555 1_555
H14 C8 1_555 1_555
H15 C8 1_555 1_555
O1 C3 1_555 1_555
C9 O1 1_555 1_555
H16 C9 1_555 1_555
C10 C9 1_555 1_555
C11 C10 1_555 1_555
H17 C11 1_555 1_555
C12 C11 1_555 1_555
H18 C12 1_555 1_555
C13 C12 1_555 1_555
C14 C13 1_555 1_555
H19 C14 1_555 1_555
C15 C10 1_555 1_555
H20 C15 1_555 1_555
C16 C9 1_555 1_555
C17 C16 1_555 1_555
H21 C17 1_555 1_555
C18 C17 1_555 1_555
H22 C18 1_555 1_555
C19 C18 1_555 1_555
H23 C19 1_555 1_555
C20 C19 1_555 1_555
H24 C20 1_555 1_555
C21 C16 1_555 1_555
H25 C21 1_555 1_555
C5 N1 1_555 1_555
C6 C7 1_555 1_555
C14 C15 1_555 1_555
C20 C21 1_555 1_555

#END
