
#######################################################################
#
#                 Cambridge Crystallographic Data Centre
#                                CCDC 
#
#######################################################################
#
# If this CIF has been generated from an entry in the Cambridge 
# Structural Database, then it will include bibliographic, chemical, 
# crystal, experimental, refinement or atomic coordinate data resulting 
# from the CCDC's data processing and validation procedures.
#
#######################################################################

data_QISKUB
_chemical_formula_moiety         'C12 H18 O2'
_chemical_name_systematic        2-t-butyl-6-(hydroxymethyl)-4-methylphenol
_symmetry_cell_setting           orthorhombic
_symmetry_space_group_name_H-M   'P b c a'
_symmetry_Int_Tables_number      61
_space_group_name_Hall           '-P 2ac 2ab'
loop_
_symmetry_equiv_pos_site_id
_symmetry_equiv_pos_as_xyz
1 x,y,z
2 1/2-x,-y,1/2+z
3 1/2+x,1/2-y,-z
4 -x,1/2+y,1/2-z
5 -x,-y,-z
6 1/2+x,y,1/2-z
7 1/2-x,1/2+y,z
8 x,1/2-y,1/2+z
_cell_length_a                   17.9560(6)
_cell_length_b                   9.8553(3)
_cell_length_c                   25.5955(7)
_cell_angle_alpha                90
_cell_angle_beta                 90
_cell_angle_gamma                90
_cell_volume                     4529.42
_cell_formula_units_Z            16
loop_
_atom_site_label
_atom_site_type_symbol
_atom_site_fract_x
_atom_site_fract_y
_atom_site_fract_z
O1 O 0.22389(6) 0.33864(11) 0.52452(4)
H1 H 0.2663 0.3426 0.5127
C1 C 0.15357(9) 0.19605(15) 0.58331(6)
C2 C 0.28943(9) 0.20929(16) 0.58879(6)
C3 C 0.28867(10) 0.11780(17) 0.63021(6)
H2 H 0.3335 0.0902 0.6450
C4 C 0.22202(9) 0.24753(15) 0.56586(6)
O2 O 0.36620(7) 0.28735(12) 0.51476(5)
H3 H 0.3618 0.2137 0.5002
C5 C 0.15659(9) 0.10781(16) 0.62599(6)
H4 H 0.1120 0.0744 0.6392
C6 C 0.22232(10) 0.06710(16) 0.64980(6)
C7 C 0.07889(9) 0.23146(17) 0.55694(6)
C8 C 0.08113(10) 0.19249(19) 0.49872(6)
H5 H 0.0911 0.0971 0.4955
H6 H 0.1197 0.2430 0.4815
H7 H 0.0340 0.2131 0.4829
C9 C 0.36239(10) 0.26875(18) 0.57046(7)
H8 H 0.3698 0.3558 0.5874
H9 H 0.4026 0.2093 0.5812
C10 C 0.06248(10) 0.38388(18) 0.56384(7)
H10 H 0.1049 0.4357 0.5528
H11 H 0.0522 0.4025 0.5999
H12 H 0.0201 0.4084 0.5430
C11 C 0.01359(10) 0.1535(2) 0.58122(8)
H13 H 0.0098 0.1756 0.6176
H14 H 0.0218 0.0577 0.5774
H15 H -0.0318 0.1782 0.5638
C12 C 0.22143(11) -0.03259(19) 0.69471(7)
H16 H 0.2377 0.0121 0.7260
H17 H 0.2543 -0.1068 0.6870
H18 H 0.1718 -0.0664 0.6996
O3 O 0.08734(6) 0.45506(12) 0.38465(4)
H19 H 0.0934 0.4883 0.4137
C13 C 0.15441(9) 0.31608(15) 0.32409(6)
C14 C 0.15468(8) 0.40912(15) 0.36579(6)
C15 C 0.22116(9) 0.45741(15) 0.38728(6)
O4 O 0.16362(7) 0.54516(11) 0.46794(4)
H20 H 0.1755 0.4818 0.4869
C16 C 0.29107(9) 0.31850(16) 0.32662(6)
C17 C 0.28857(9) 0.41045(15) 0.36756(6)
H21 H 0.3329 0.4414 0.3821
C18 C 0.22364(9) 0.27362(15) 0.30597(6)
H22 H 0.2250 0.2118 0.2785
C19 C 0.08113(9) 0.26602(16) 0.29950(6)
C20 C 0.22060(10) 0.56577(16) 0.42887(6)
H23 H 0.2689 0.5677 0.4459
H24 H 0.2129 0.6533 0.4124
C21 C 0.36410(9) 0.26631(19) 0.30537(7)
H25 H 0.4036 0.3260 0.3158
H26 H 0.3617 0.2628 0.2679
H27 H 0.3734 0.1770 0.3189
C22 C 0.09518(10) 0.17168(18) 0.25300(7)
H28 H 0.1237 0.2188 0.2270
H29 H 0.0484 0.1439 0.2383
H30 H 0.1223 0.0932 0.2645
C23 C 0.03578(10) 0.18677(19) 0.34031(7)
H31 H 0.0638 0.1093 0.3517
H32 H -0.0102 0.1572 0.3250
H33 H 0.0255 0.2444 0.3697
C24 C 0.03578(10) 0.38732(18) 0.27933(7)
H34 H 0.0240 0.4465 0.3079
H35 H -0.0095 0.3553 0.2636
H36 H 0.0644 0.4360 0.2538
loop_
_geom_bond_atom_site_label_1
_geom_bond_atom_site_label_2
_geom_bond_site_symmetry_1
_geom_bond_site_symmetry_2
O1 H1 1_555 1_555
C1 C4 1_555 1_555
C2 C3 1_555 1_555
C3 H2 1_555 1_555
C4 O1 1_555 1_555
O2 H3 1_555 1_555
C5 C1 1_555 1_555
H4 C5 1_555 1_555
C6 C3 1_555 1_555
C7 C1 1_555 1_555
C8 C7 1_555 1_555
H5 C8 1_555 1_555
H6 C8 1_555 1_555
H7 C8 1_555 1_555
C9 C2 1_555 1_555
H8 C9 1_555 1_555
H9 C9 1_555 1_555
C10 C7 1_555 1_555
H10 C10 1_555 1_555
H11 C10 1_555 1_555
H12 C10 1_555 1_555
C11 C7 1_555 1_555
H13 C11 1_555 1_555
H14 C11 1_555 1_555
H15 C11 1_555 1_555
C12 C6 1_555 1_555
H16 C12 1_555 1_555
H17 C12 1_555 1_555
H18 C12 1_555 1_555
O3 H19 1_555 1_555
C13 C14 1_555 1_555
C14 O3 1_555 1_555
C15 C14 1_555 1_555
O4 H20 1_555 1_555
C16 C17 1_555 1_555
C17 C15 1_555 1_555
H21 C17 1_555 1_555
C18 C13 1_555 1_555
H22 C18 1_555 1_555
C19 C13 1_555 1_555
C20 C15 1_555 1_555
H23 C20 1_555 1_555
H24 C20 1_555 1_555
C21 C16 1_555 1_555
H25 C21 1_555 1_555
H26 C21 1_555 1_555
H27 C21 1_555 1_555
C22 C19 1_555 1_555
H28 C22 1_555 1_555
H29 C22 1_555 1_555
H30 C22 1_555 1_555
C23 C19 1_555 1_555
H31 C23 1_555 1_555
H32 C23 1_555 1_555
H33 C23 1_555 1_555
C24 C19 1_555 1_555
H34 C24 1_555 1_555
H35 C24 1_555 1_555
H36 C24 1_555 1_555
C2 C4 1_555 1_555
O2 C9 1_555 1_555
C5 C6 1_555 1_555
O4 C20 1_555 1_555
C16 C18 1_555 1_555

#END
