
#######################################################################
#
#                 Cambridge Crystallographic Data Centre
#                                CCDC 
#
#######################################################################
#
# If this CIF has been generated from an entry in the Cambridge 
# Structural Database, then it will include bibliographic, chemical, 
# crystal, experimental, refinement or atomic coordinate data resulting 
# from the CCDC's data processing and validation procedures.
#
#######################################################################

data_QISLUB
_chemical_formula_moiety         'C15 H20 N2 O2'
_chemical_name_systematic        
1-(5-Methyl-2-(morpholin-4-yl)phenyl)pyrrolidin-2-one
_symmetry_cell_setting           triclinic
_symmetry_space_group_name_H-M   'P -1'
_symmetry_Int_Tables_number      2
_space_group_name_Hall           '-P 1'
loop_
_symmetry_equiv_pos_site_id
_symmetry_equiv_pos_as_xyz
1 x,y,z
2 -x,-y,-z
_cell_length_a                   6.2937(3)
_cell_length_b                   9.6377(5)
_cell_length_c                   11.5898(6)
_cell_angle_alpha                91.360(2)
_cell_angle_beta                 101.965(2)
_cell_angle_gamma                104.611(2)
_cell_volume                     663.337
_cell_formula_units_Z            2
loop_
_atom_site_label
_atom_site_type_symbol
_atom_site_fract_x
_atom_site_fract_y
_atom_site_fract_z
C1 C 1.2394(2) 0.33716(14) 0.88759(11)
H1 H 1.3488 0.4237 0.9110
C2 C 1.0346(2) 0.33860(14) 0.81466(10)
C3 C 0.8687(2) 0.20899(14) 0.77305(10)
C4 C 0.9143(2) 0.08189(14) 0.81432(11)
H2 H 0.8063 -0.0051 0.7906
C5 C 1.2857(2) 0.21011(14) 0.92668(11)
C6 C 0.4819(2) 0.07847(14) 0.67868(11)
H3 H 0.4610 0.0456 0.7550
H4 H 0.5202 0.0040 0.6358
C7 C 0.6889(2) 0.26332(15) 0.57881(11)
H5 H 0.7331 0.1935 0.5337
H6 H 0.8055 0.3532 0.5894
C8 C 1.1176(2) 0.08282(14) 0.89001(11)
H7 H 1.1417 -0.0034 0.9167
C9 C 0.2665(2) 0.10692(15) 0.60978(11)
H8 H 0.1451 0.0194 0.5996
H9 H 0.2268 0.1795 0.6542
C10 C 1.0339(2) 0.70371(15) 0.71970(12)
H10 H 0.9533 0.7058 0.6391
H11 H 1.1529 0.7922 0.7417
C11 C 1.1291(2) 0.57367(14) 0.73219(11)
C12 C 0.4669(2) 0.28582(16) 0.51194(12)
H12 H 0.4270 0.3590 0.5555
H13 H 0.4836 0.3194 0.4353
C13 C 0.8050(2) 0.52145(14) 0.81428(12)
H14 H 0.7862 0.4995 0.8934
H15 H 0.6661 0.4761 0.7577
C14 C 0.8744(2) 0.68431(14) 0.80459(12)
H16 H 0.7442 0.7195 0.7731
H17 H 0.9502 0.7350 0.8812
C15 C 1.5079(2) 0.21168(15) 1.00686(12)
H18 H 1.4896 0.1288 1.0519
H19 H 1.5592 0.2974 1.0597
H20 H 1.6166 0.2098 0.9601
N1 N 0.66414(17) 0.21137(11) 0.69535(9)
N2 N 0.99553(17) 0.47489(11) 0.78683(9)
O1 O 0.29127(15) 0.15496(11) 0.49613(8)
O2 O 1.29289(16) 0.55722(11) 0.69777(9)
loop_
_geom_bond_atom_site_label_1
_geom_bond_atom_site_label_2
_geom_bond_site_symmetry_1
_geom_bond_site_symmetry_2
C1 H1 1_555 1_555
C2 C1 1_555 1_555
C3 C2 1_555 1_555
C4 C3 1_555 1_555
H2 C4 1_555 1_555
C5 C1 1_555 1_555
C6 H3 1_555 1_555
H4 C6 1_555 1_555
C7 H5 1_555 1_555
H6 C7 1_555 1_555
C8 C4 1_555 1_555
H7 C8 1_555 1_555
C9 C6 1_555 1_555
H8 C9 1_555 1_555
H9 C9 1_555 1_555
C10 H10 1_555 1_555
H11 C10 1_555 1_555
C11 C10 1_555 1_555
C12 C7 1_555 1_555
H12 C12 1_555 1_555
H13 C12 1_555 1_555
C13 H14 1_555 1_555
H15 C13 1_555 1_555
C14 C10 1_555 1_555
H16 C14 1_555 1_555
H17 C14 1_555 1_555
C15 C5 1_555 1_555
H18 C15 1_555 1_555
H19 C15 1_555 1_555
H20 C15 1_555 1_555
N1 C3 1_555 1_555
N2 C2 1_555 1_555
O1 C9 1_555 1_555
O2 C11 1_555 1_555
C5 C8 1_555 1_555
C6 N1 1_555 1_555
C7 N1 1_555 1_555
C11 N2 1_555 1_555
C12 O1 1_555 1_555
C13 C14 1_555 1_555
C13 N2 1_555 1_555

#END
