
#######################################################################
#
#                 Cambridge Crystallographic Data Centre
#                                CCDC 
#
#######################################################################
#
# If this CIF has been generated from an entry in the Cambridge 
# Structural Database, then it will include bibliographic, chemical, 
# crystal, experimental, refinement or atomic coordinate data resulting 
# from the CCDC's data processing and validation procedures.
#
#######################################################################

data_QISMOW
_chemical_name_common            
5,17-di-t-butyl-11,23-dicarbonyl-25,26,27,28-tetrapropoxycalix(4)arene
_chemical_formula_moiety         'C50 H64 O6'
_chemical_name_systematic        
11,23-Di-t-butyl-25,26,27,28-tetrapropoxypentacyclo[19.3.1.1^3,7^.1^9,13^.1^15,19^]octacosa-1(25),3(28),4,6,9(27),10,12,15(26),16,18,21,23-dodecaene-5,17-dicarbaldehyde
_symmetry_cell_setting           monoclinic
_symmetry_space_group_name_H-M   'C 2/c'
_symmetry_Int_Tables_number      15
_space_group_name_Hall           '-C 2yn'
loop_
_symmetry_equiv_pos_site_id
_symmetry_equiv_pos_as_xyz
1 x,y,z
2 -x,y,1/2-z
3 1/2+x,1/2+y,z
4 1/2-x,1/2+y,1/2-z
5 -x,-y,-z
6 x,-y,1/2+z
7 1/2-x,1/2-y,-z
8 1/2+x,1/2-y,1/2+z
_cell_length_a                   25.760(3)
_cell_length_b                   10.9952(10)
_cell_length_c                   18.630(2)
_cell_angle_alpha                90
_cell_angle_beta                 119.985(4)
_cell_angle_gamma                90
_cell_volume                     4570.44
_exptl_crystal_colour            colorless
_exptl_crystal_description       block
_cell_formula_units_Z            4
loop_
_atom_site_label
_atom_site_type_symbol
_atom_site_fract_x
_atom_site_fract_y
_atom_site_fract_z
O1 O 0.08556(6) 0.12295(13) 0.42588(8)
C1 C 0.11743(9) 0.3086(2) 0.39366(12)
O2 O 0.05693(7) 0.15173(16) 0.23267(10)
C2 C 0.07909(9) 0.24656(19) 0.41372(11)
C3 C 0.03298(9) 0.3077(2) 0.41928(11)
C4 C 0.09473(9) 0.2271(2) 0.22094(13)
C5 C 0.18365(9) 0.3471(2) 0.27398(13)
H1 H 0.2195 0.3736 0.3189
C6 C 0.11376(10) 0.3480(2) 0.12995(13)
H2 H 0.1021 0.3751 0.0767
C7 C 0.14768(9) 0.2690(2) 0.28858(12)
C8 C 0.07606(9) 0.2701(2) 0.14099(13)
C9 C 0.16849(9) 0.3875(2) 0.19527(13)
C10 C 0.02974(10) 0.4329(2) 0.41039(13)
H3 H 0.0002 0.4752 0.4148
C11 C 0.16201(10) 0.2422(2) 0.37669(13)
H4 H 0.2024 0.2688 0.4156
H5 H 0.1596 0.1553 0.3837
C12 C 0.11198(10) 0.4329(2) 0.38438(14)
H6 H 0.1371 0.4751 0.3707
C13 C -0.01374(10) 0.2393(2) 0.42946(13)
H7 H -0.0106 0.2608 0.4820
H8 H -0.0068 0.1525 0.4298
C14 C 0.06973(11) 0.4966(2) 0.39495(14)
C15 C 0.20760(10) 0.4753(2) 0.17907(15)
C16 C 0.11760(12) 0.0877(2) 0.51152(14)
H9 H 0.0946 0.1095 0.5379
H10 H 0.1557 0.1301 0.5399
C17 C 0.12794(14) -0.0462(3) 0.51733(18)
H11 H 0.0904 -0.0867 0.4807
H12 H 0.1407 -0.0724 0.5735
C18 C 0.06881(17) 0.6306(3) 0.3888(2)
H13 H 0.0935 0.6657 0.3714
C19 C 0.07656(15) 0.0283(3) 0.2543(2)
H14 H 0.0581 -0.0063 0.2841
H15 H 0.1196 0.0273 0.2911
C20 C 0.26459(14) 0.5093(4) 0.2576(2)
H16 H 0.2875 0.5646 0.2445
H17 H 0.2878 0.4373 0.2826
H18 H 0.2547 0.5475 0.2955
O3 O 0.03986(15) 0.6967(2) 0.4038(2)
C21 C 0.0861(2) -0.1795(3) 0.2111(3)
H19 H 0.1264 -0.1755 0.2570
H20 H 0.0858 -0.2230 0.1662
H21 H 0.0612 -0.2210 0.2279
C22 C 0.06156(16) -0.0468(3) 0.1820(2)
H22 H 0.0793 -0.0123 0.1512
H23 H 0.0184 -0.0491 0.1458
C23 C 0.22514(19) 0.4145(4) 0.1203(3)
H24 H 0.1896 0.3950 0.0691
H25 H 0.2471 0.3413 0.1453
H26 H 0.2497 0.4691 0.1098
C24 C 0.17334(18) 0.5888(4) 0.1358(3)
H27 H 0.1409 0.5680 0.0818
H28 H 0.1997 0.6449 0.1302
H29 H 0.1577 0.6258 0.1677
C25 C 0.1740(2) -0.0851(4) 0.4952(3)
H30 H 0.1602 -0.0653 0.4383
H31 H 0.1801 -0.1713 0.5030
H32 H 0.2110 -0.0436 0.5301
O1A O -0.08556(6) 0.12295(13) 0.07412(8)
C1A C -0.11743(9) 0.3086(2) 0.10634(12)
O2A O -0.05693(7) 0.15173(16) 0.26733(10)
C2A C -0.07909(9) 0.24656(19) 0.08628(11)
C3A C -0.03298(9) 0.3077(2) 0.08072(11)
C4A C -0.09473(9) 0.2271(2) 0.27906(13)
C5A C -0.18365(9) 0.3471(2) 0.22602(13)
H1A H -0.2195 0.3736 0.1811
C6A C -0.11376(10) 0.3480(2) 0.37005(13)
H2A H -0.1021 0.3751 0.4233
C7A C -0.14768(9) 0.2690(2) 0.21142(12)
C8A C -0.07606(9) 0.2701(2) 0.35901(13)
C9A C -0.16849(9) 0.3875(2) 0.30473(13)
C10A C -0.02974(10) 0.4329(2) 0.08961(13)
H3A H -0.0002 0.4752 0.0852
C11A C -0.16201(10) 0.2422(2) 0.12331(13)
H4A H -0.2024 0.2688 0.0844
H5A H -0.1596 0.1553 0.1163
C12A C -0.11198(10) 0.4329(2) 0.11562(14)
H6A H -0.1371 0.4751 0.1293
C13A C 0.01374(10) 0.2393(2) 0.07054(13)
H7A H 0.0106 0.2608 0.0180
H8A H 0.0068 0.1525 0.0702
C14A C -0.06973(11) 0.4966(2) 0.10505(14)
C15A C -0.20760(10) 0.4753(2) 0.32093(15)
C16A C -0.11760(12) 0.0877(2) -0.01152(14)
H9A H -0.0946 0.1095 -0.0379
H10A H -0.1557 0.1301 -0.0399
C17A C -0.12794(14) -0.0462(3) -0.01733(18)
H11A H -0.0904 -0.0867 0.0193
H12A H -0.1407 -0.0724 -0.0735
C18A C -0.06881(17) 0.6306(3) 0.1112(2)
H13A H -0.0935 0.6657 0.1286
C19A C -0.07656(15) 0.0283(3) 0.2457(2)
H14A H -0.0581 -0.0063 0.2159
H15A H -0.1196 0.0273 0.2089
C20A C -0.26459(14) 0.5093(4) 0.2424(2)
H16A H -0.2875 0.5646 0.2555
H17A H -0.2878 0.4373 0.2174
H18A H -0.2547 0.5475 0.2045
O3A O -0.03986(15) 0.6967(2) 0.0962(2)
C21A C -0.0861(2) -0.1795(3) 0.2889(3)
H19A H -0.1264 -0.1755 0.2430
H20A H -0.0858 -0.2230 0.3338
H21A H -0.0612 -0.2210 0.2721
C22A C -0.06156(16) -0.0468(3) 0.3180(2)
H22A H -0.0793 -0.0123 0.3488
H23A H -0.0184 -0.0491 0.3542
C23A C -0.22514(19) 0.4145(4) 0.3797(3)
H24A H -0.1896 0.3950 0.4309
H25A H -0.2471 0.3413 0.3547
H26A H -0.2497 0.4691 0.3902
C24A C -0.17334(18) 0.5888(4) 0.3642(3)
H27A H -0.1409 0.5680 0.4182
H28A H -0.1997 0.6449 0.3698
H29A H -0.1577 0.6258 0.3323
C25A C -0.1740(2) -0.0851(4) 0.0048(3)
H30A H -0.1602 -0.0653 0.0617
H31A H -0.1801 -0.1713 -0.0030
H32A H -0.2110 -0.0436 -0.0301
loop_
_geom_bond_atom_site_label_1
_geom_bond_atom_site_label_2
_geom_bond_site_symmetry_1
_geom_bond_site_symmetry_2
O1 C2 1_555 1_555
C1 C2 1_555 1_555
O2 C4 1_555 1_555
C2 C3 1_555 1_555
C3 C10 1_555 1_555
C4 C7 1_555 1_555
C5 H1 1_555 1_555
C6 H2 1_555 1_555
C7 C5 1_555 1_555
C8 C4 1_555 1_555
C9 C5 1_555 1_555
C10 H3 1_555 1_555
C11 C1 1_555 1_555
H4 C11 1_555 1_555
H5 C11 1_555 1_555
C12 C1 1_555 1_555
H6 C12 1_555 1_555
C13 C3 1_555 1_555
H7 C13 1_555 1_555
H8 C13 1_555 1_555
C14 C10 1_555 1_555
C15 C9 1_555 1_555
C16 O1 1_555 1_555
H9 C16 1_555 1_555
H10 C16 1_555 1_555
C17 C16 1_555 1_555
H11 C17 1_555 1_555
H12 C17 1_555 1_555
C18 C14 1_555 1_555
H13 C18 1_555 1_555
C19 O2 1_555 1_555
H14 C19 1_555 1_555
H15 C19 1_555 1_555
C20 C15 1_555 1_555
H16 C20 1_555 1_555
H17 C20 1_555 1_555
H18 C20 1_555 1_555
O3 C18 1_555 1_555
C21 H19 1_555 1_555
H20 C21 1_555 1_555
H21 C21 1_555 1_555
C22 C19 1_555 1_555
H22 C22 1_555 1_555
H23 C22 1_555 1_555
C23 C15 1_555 1_555
H24 C23 1_555 1_555
H25 C23 1_555 1_555
H26 C23 1_555 1_555
C24 C15 1_555 1_555
H27 C24 1_555 1_555
H28 C24 1_555 1_555
H29 C24 1_555 1_555
C25 C17 1_555 1_555
H30 C25 1_555 1_555
H31 C25 1_555 1_555
H32 C25 1_555 1_555
O1A C2A 1_555 1_555
C1A C2A 1_555 1_555
O2A C4A 1_555 1_555
C2A C3A 1_555 1_555
C3A C10A 1_555 1_555
C4A C7A 1_555 1_555
C5A H1A 1_555 1_555
C6A H2A 1_555 1_555
C7A C5A 1_555 1_555
C8A C13 1_555 1_555
C9A C5A 1_555 1_555
C10A H3A 1_555 1_555
C11A C1A 1_555 1_555
H4A C11A 1_555 1_555
H5A C11A 1_555 1_555
C12A C1A 1_555 1_555
H6A C12A 1_555 1_555
C13A C8 1_555 1_555
H7A C13A 1_555 1_555
H8A C13A 1_555 1_555
C14A C10A 1_555 1_555
C15A C9A 1_555 1_555
C16A O1A 1_555 1_555
H9A C16A 1_555 1_555
H10A C16A 1_555 1_555
C17A C16A 1_555 1_555
H11A C17A 1_555 1_555
H12A C17A 1_555 1_555
C18A C14A 1_555 1_555
H13A C18A 1_555 1_555
C19A O2A 1_555 1_555
H14A C19A 1_555 1_555
H15A C19A 1_555 1_555
C20A C15A 1_555 1_555
H16A C20A 1_555 1_555
H17A C20A 1_555 1_555
H18A C20A 1_555 1_555
O3A C18A 1_555 1_555
C21A H19A 1_555 1_555
H20A C21A 1_555 1_555
H21A C21A 1_555 1_555
C22A C19A 1_555 1_555
H22A C22A 1_555 1_555
H23A C22A 1_555 1_555
C23A C15A 1_555 1_555
H24A C23A 1_555 1_555
H25A C23A 1_555 1_555
H26A C23A 1_555 1_555
C24A C15A 1_555 1_555
H27A C24A 1_555 1_555
H28A C24A 1_555 1_555
H29A C24A 1_555 1_555
C25A C17A 1_555 1_555
H30A C25A 1_555 1_555
H31A C25A 1_555 1_555
H32A C25A 1_555 1_555
C6 C8 1_555 1_555
C6 C9 1_555 1_555
C7 C11 1_555 1_555
C12 C14 1_555 1_555
C21 C22 1_555 1_555
C3A C13A 1_555 1_555
C4A C8A 1_555 1_555
C6A C8A 1_555 1_555
C6A C9A 1_555 1_555
C7A C11A 1_555 1_555
C12A C14A 1_555 1_555
C21A C22A 1_555 1_555

#END
