
#######################################################################
#
#                 Cambridge Crystallographic Data Centre
#                                CCDC 
#
#######################################################################
#
# If this CIF has been generated from an entry in the Cambridge 
# Structural Database, then it will include bibliographic, chemical, 
# crystal, experimental, refinement or atomic coordinate data resulting 
# from the CCDC's data processing and validation procedures.
#
#######################################################################

data_QITLAG
_chemical_formula_moiety         'C22 H28 O4'
_chemical_name_systematic        5,13-bis(2-Methoxyethoxy)-(2.2)metacyclophane
_symmetry_cell_setting           triclinic
_symmetry_space_group_name_H-M   'P -1'
_symmetry_Int_Tables_number      2
_space_group_name_Hall           '-P 1'
loop_
_symmetry_equiv_pos_site_id
_symmetry_equiv_pos_as_xyz
1 x,y,z
2 -x,-y,-z
_cell_length_a                   5.177(1)
_cell_length_b                   8.068(1)
_cell_length_c                   11.869(1)
_cell_angle_alpha                99.29(1)
_cell_angle_beta                 101.11(1)
_cell_angle_gamma                101.14(1)
_cell_volume                     467.017
_exptl_crystal_colour            colorless
_exptl_crystal_description       blocks
_cell_formula_units_Z            1
loop_
_atom_site_label
_atom_site_type_symbol
_atom_site_fract_x
_atom_site_fract_y
_atom_site_fract_z
C1 C 0.4835(6) 0.8444(3) 0.6711(2)
H1 H 0.4401 0.8335 0.7459
H2 H 0.6337 0.7909 0.6642
C2 C 0.2332(5) 0.7490(3) 0.5697(2)
H3 H 0.1863 0.6279 0.5733
H4 H 0.0797 0.7978 0.5793
C3 C 0.2920(5) 0.7653(3) 0.4520(2)
C4 C 0.4062(5) 0.6460(3) 0.3924(2)
H5 H 0.4019 0.5396 0.4135
C5 C 0.5260(5) 0.6840(3) 0.3021(2)
C6 C 0.5495(5) 0.8458(3) 0.2744(2)
H6 H 0.6416 0.8737 0.2175
C7 C 0.5658(5) 1.0334(3) 0.6677(2)
C8 C 0.2895(5) 0.9198(3) 0.4140(2)
H7 H 0.1892 0.9929 0.4438
O1 O 0.6235(4) 0.5532(2) 0.24829(17)
C9 C 0.7868(6) 0.5912(4) 0.1684(2)
H8 H 0.9254 0.6963 0.2030
H9 H 0.6767 0.6083 0.0972
C10 C 0.9155(6) 0.4430(4) 0.1404(2)
H10 H 1.0666 0.4797 0.1058
H11 H 0.9848 0.4071 0.2122
O2 O 0.7268(4) 0.3029(3) 0.06188(19)
C11 C 0.8462(9) 0.1635(5) 0.0350(4)
H12 H 0.7135 0.0695 -0.0182
H13 H 0.9137 0.1268 0.1057
H14 H 0.9929 0.1989 -0.0011
C7A C 0.4342(5) 0.9666(3) 0.3323(2)
C1A C 0.5165(6) 1.1556(3) 0.3289(2)
H1A H 0.5599 1.1665 0.2541
H2A H 0.3663 1.2091 0.3358
C2A C 0.7668(5) 1.2510(3) 0.4303(2)
H3A H 0.8137 1.3721 0.4267
H4A H 0.9203 1.2022 0.4207
C3A C 0.7080(5) 1.2347(3) 0.5480(2)
C4A C 0.5938(5) 1.3540(3) 0.6076(2)
H5A H 0.5981 1.4604 0.5865
C5A C 0.4740(5) 1.3160(3) 0.6979(2)
C6A C 0.4505(5) 1.1542(3) 0.7256(2)
H6A H 0.3584 1.1263 0.7825
C8A C 0.7105(5) 1.0802(3) 0.5860(2)
H7A H 0.8108 1.0071 0.5562
O1A O 0.3765(4) 1.4468(2) 0.75171(17)
C9A C 0.2132(6) 1.4088(4) 0.8316(2)
H8A H 0.0746 1.3037 0.7970
H9A H 0.3233 1.3917 0.9028
C10A C 0.0845(6) 1.5570(4) 0.8596(2)
H10A H -0.0666 1.5203 0.8942
H11A H 0.0152 1.5929 0.7878
O2A O 0.2732(4) 1.6971(3) 0.93812(19)
C11A C 0.1538(9) 1.8365(5) 0.9650(4)
H12A H 0.2865 1.9305 1.0182
H13A H 0.0863 1.8732 0.8943
H14A H 0.0071 1.8011 1.0011
loop_
_geom_bond_atom_site_label_1
_geom_bond_atom_site_label_2
_geom_bond_site_symmetry_1
_geom_bond_site_symmetry_2
C1 H1 1_555 1_555
H2 C1 1_555 1_555
C2 C1 1_555 1_555
H3 C2 1_555 1_555
H4 C2 1_555 1_555
C3 C2 1_555 1_555
C4 C3 1_555 1_555
H5 C4 1_555 1_555
C5 C4 1_555 1_555
C6 C5 1_555 1_555
H6 C6 1_555 1_555
C7 C1 1_555 1_555
C8 C3 1_555 1_555
H7 C8 1_555 1_555
O1 C5 1_555 1_555
C9 O1 1_555 1_555
H8 C9 1_555 1_555
H9 C9 1_555 1_555
C10 C9 1_555 1_555
H10 C10 1_555 1_555
H11 C10 1_555 1_555
O2 C10 1_555 1_555
C11 O2 1_555 1_555
H12 C11 1_555 1_555
H13 C11 1_555 1_555
H14 C11 1_555 1_555
C7A C6 1_555 1_555
C1A C7A 1_555 1_555
H1A C1A 1_555 1_555
H2A C1A 1_555 1_555
C2A C1A 1_555 1_555
H3A C2A 1_555 1_555
H4A C2A 1_555 1_555
C3A C2A 1_555 1_555
C4A C3A 1_555 1_555
H5A C4A 1_555 1_555
C5A C4A 1_555 1_555
C6A C7 1_555 1_555
H6A C6A 1_555 1_555
C8A C7 1_555 1_555
H7A C8A 1_555 1_555
O1A C5A 1_555 1_555
C9A O1A 1_555 1_555
H8A C9A 1_555 1_555
H9A C9A 1_555 1_555
C10A C9A 1_555 1_555
H10A C10A 1_555 1_555
H11A C10A 1_555 1_555
O2A C10A 1_555 1_555
C11A O2A 1_555 1_555
H12A C11A 1_555 1_555
H13A C11A 1_555 1_555
H14A C11A 1_555 1_555
C8 C7A 1_555 1_555
C3A C8A 1_555 1_555
C5A C6A 1_555 1_555

#END
