
#######################################################################
#
#                 Cambridge Crystallographic Data Centre
#                                CCDC 
#
#######################################################################
#
# If this CIF has been generated from an entry in the Cambridge 
# Structural Database, then it will include bibliographic, chemical, 
# crystal, experimental, refinement or atomic coordinate data resulting 
# from the CCDC's data processing and validation procedures.
#
#######################################################################

data_QITLIO
_chemical_formula_moiety         'C19 H18 O1'
_chemical_name_systematic        (3.2.2)(1,3,5)Cyclophan-2-one
_symmetry_cell_setting           orthorhombic
_symmetry_space_group_name_H-M   'P 21 21 21'
_symmetry_Int_Tables_number      19
_space_group_name_Hall           'P 2ac 2ab'
loop_
_symmetry_equiv_pos_site_id
_symmetry_equiv_pos_as_xyz
1 x,y,z
2 1/2-x,-y,1/2+z
3 -x,1/2+y,1/2-z
4 1/2+x,1/2-y,-z
_cell_length_a                   8.5570(10)
_cell_length_b                   8.6270(10)
_cell_length_c                   18.3760(10)
_cell_angle_alpha                90
_cell_angle_beta                 90
_cell_angle_gamma                90
_cell_volume                     1356.54
_exptl_crystal_colour            colorless
_exptl_crystal_description       plates
_cell_formula_units_Z            4
loop_
_atom_site_label
_atom_site_type_symbol
_atom_site_fract_x
_atom_site_fract_y
_atom_site_fract_z
O1 O 0.3508(2) 0.8016(2) 0.54046(8)
C1 C 0.6589(2) 0.4572(2) 0.32585(11)
H1 H 0.7337 0.5355 0.3407
H2 H 0.6970 0.4103 0.2813
C2 C 0.6481(2) 0.3281(3) 0.38717(12)
H3 H 0.6846 0.2303 0.3675
H4 H 0.7164 0.3563 0.4272
C3 C 0.4846(2) 0.3076(2) 0.41560(9)
C4 C 0.4292(2) 0.40564(19) 0.46972(9)
H5 H 0.4997 0.4542 0.5008
C5 C 0.2695(2) 0.4324(2) 0.47825(9)
C6 C 0.1662(2) 0.3562(2) 0.43294(9)
H6 H 0.0595 0.3726 0.4388
C7 C 0.2171(2) 0.2562(2) 0.37912(10)
C8 C 0.3764(2) 0.22631(19) 0.37404(9)
H7 H 0.4114 0.1502 0.3421
C9 C 0.1138(3) 0.2240(3) 0.31444(12)
H8 H 0.0065 0.2143 0.3308
H9 H 0.1442 0.1258 0.2929
C10 C 0.1233(3) 0.3557(2) 0.25418(11)
H10 H 0.1571 0.3103 0.2085
H11 H 0.0201 0.3994 0.2468
C11 C 0.2348(2) 0.4835(2) 0.27528(10)
C12 C 0.3943(2) 0.4575(2) 0.26773(9)
H12 H 0.4291 0.3873 0.2329
C13 C 0.5032(2) 0.5340(2) 0.31101(9)
C14 C 0.4510(2) 0.65181(18) 0.35576(9)
H13 H 0.5232 0.7094 0.3822
C15 C 0.2922(2) 0.68609(18) 0.36204(9)
C16 C 0.1868(2) 0.6016(2) 0.32082(10)
H14 H 0.0809 0.6250 0.3239
C17 C 0.2353(2) 0.7862(2) 0.42435(10)
H15 H 0.1228 0.7975 0.4205
H16 H 0.2810 0.8886 0.4196
C18 C 0.2742(2) 0.7229(2) 0.49909(11)
C19 C 0.2147(3) 0.5666(2) 0.52457(10)
H17 H 0.2489 0.5498 0.5743
H18 H 0.1013 0.5683 0.5246
loop_
_geom_bond_atom_site_label_1
_geom_bond_atom_site_label_2
_geom_bond_site_symmetry_1
_geom_bond_site_symmetry_2
O1 C18 1_555 1_555
C1 H1 1_555 1_555
H2 C1 1_555 1_555
C2 C1 1_555 1_555
H3 C2 1_555 1_555
H4 C2 1_555 1_555
C3 C2 1_555 1_555
C4 C3 1_555 1_555
H5 C4 1_555 1_555
C5 C4 1_555 1_555
C6 C5 1_555 1_555
H6 C6 1_555 1_555
C7 C6 1_555 1_555
C8 C3 1_555 1_555
H7 C8 1_555 1_555
C9 C7 1_555 1_555
H8 C9 1_555 1_555
H9 C9 1_555 1_555
C10 C9 1_555 1_555
H10 C10 1_555 1_555
H11 C10 1_555 1_555
C11 C10 1_555 1_555
C12 C11 1_555 1_555
H12 C12 1_555 1_555
C13 C1 1_555 1_555
C14 C13 1_555 1_555
H13 C14 1_555 1_555
C15 C14 1_555 1_555
C16 C11 1_555 1_555
H14 C16 1_555 1_555
C17 C15 1_555 1_555
H15 C17 1_555 1_555
H16 C17 1_555 1_555
C18 C17 1_555 1_555
C19 C5 1_555 1_555
H17 C19 1_555 1_555
H18 C19 1_555 1_555
C7 C8 1_555 1_555
C12 C13 1_555 1_555
C15 C16 1_555 1_555
C18 C19 1_555 1_555

#END
