
#######################################################################
#
#                 Cambridge Crystallographic Data Centre
#                                CCDC 
#
#######################################################################
#
# If this CIF has been generated from an entry in the Cambridge 
# Structural Database, then it will include bibliographic, chemical, 
# crystal, experimental, refinement or atomic coordinate data resulting 
# from the CCDC's data processing and validation procedures.
#
#######################################################################

data_QITWOH
_chemical_formula_moiety         'C21 H14 N2,C1 H1 Cl3'
_chemical_name_systematic        
'2,3-Diphenyl-1H-indole-5-carbonitrile chloroform solvate'
_symmetry_cell_setting           orthorhombic
_symmetry_space_group_name_H-M   'P 21 21 21'
_symmetry_Int_Tables_number      19
_space_group_name_Hall           'P 2ac 2ab'
loop_
_symmetry_equiv_pos_site_id
_symmetry_equiv_pos_as_xyz
1 x,y,z
2 1/2-x,-y,1/2+z
3 1/2+x,1/2-y,-z
4 -x,1/2+y,1/2-z
_cell_length_a                   9.4508(3)
_cell_length_b                   12.8668(5)
_cell_length_c                   17.0426(5)
_cell_angle_alpha                90
_cell_angle_beta                 90
_cell_angle_gamma                90
_cell_volume                     2072.41
_exptl_crystal_colour            colorless
_exptl_crystal_description       block
_cell_formula_units_Z            4
loop_
_atom_site_label
_atom_site_type_symbol
_atom_site_fract_x
_atom_site_fract_y
_atom_site_fract_z
Cl1 Cl 0.9206(14) 0.7028(8) 0.4959(4)
Cl2 Cl 1.0707(13) 0.8197(10) 0.5910(7)
Cl3 Cl 0.8233(13) 0.7248(7) 0.6541(5)
C1 C 0.9409(10) 0.7159(6) 0.5850(4)
H1 H 0.9951 0.6540 0.5997
N1 N 1.0336(4) 0.4354(3) 0.52945(18)
H3 H 1.0647 0.4341 0.4820
N2 N 1.3212(4) 0.5423(3) 0.8764(2)
C2 C 0.7323(4) 0.4625(4) 0.7468(2)
H4 H 0.7809 0.5249 0.7526
C3 C 0.6272(5) 0.4363(5) 0.7999(3)
H5 H 0.6066 0.4806 0.8414
C4 C 0.5534(5) 0.3451(5) 0.7914(3)
H6 H 0.4831 0.3277 0.8272
C5 C 0.5838(5) 0.2796(4) 0.7298(3)
H7 H 0.5328 0.2184 0.7236
C6 C 0.6903(4) 0.3046(3) 0.6768(2)
H8 H 0.7111 0.2596 0.6357
C7 C 0.7656(4) 0.3964(3) 0.6851(2)
C8 C 0.8870(4) 0.4208(3) 0.6330(2)
C9 C 0.8959(4) 0.4099(3) 0.5524(2)
C10 C 1.1108(4) 0.4625(3) 0.5933(2)
C11 C 1.0231(4) 0.4544(3) 0.6600(2)
C12 C 1.0801(4) 0.4748(3) 0.7338(2)
H9 H 1.0247 0.4685 0.7787
C13 C 1.2207(4) 0.5046(3) 0.7393(2)
C14 C 1.3069(4) 0.5140(3) 0.6722(2)
H10 H 1.4008 0.5346 0.6774
C15 C 1.2524(4) 0.4929(4) 0.5992(2)
H11 H 1.3086 0.4986 0.5546
C16 C 1.2792(4) 0.5255(3) 0.8156(2)
C17 C 0.7919(4) 0.3787(3) 0.4934(2)
C18 C 0.8285(5) 0.3137(3) 0.4319(2)
H12 H 0.9206 0.2886 0.4284
C19 C 0.7304(6) 0.2856(4) 0.3760(3)
H13 H 0.7570 0.2418 0.3352
C20 C 0.5942(6) 0.3215(4) 0.3798(3)
H14 H 0.5286 0.3028 0.3417
C21 C 0.5558(6) 0.3856(5) 0.4406(3)
H15 H 0.4633 0.4098 0.4439
C22 C 0.6532(5) 0.4143(4) 0.4966(3)
H16 H 0.6258 0.4582 0.5372
Cl4? Cl 0.9209(14) 0.7884(8) 0.5007(5)
Cl5? Cl 1.0706(6) 0.7523(4) 0.6462(3)
Cl6? Cl 0.7843(8) 0.7385(12) 0.6264(8)
H2? H 0.9502 0.6420 0.5719
loop_
_geom_bond_atom_site_label_1
_geom_bond_atom_site_label_2
_geom_bond_site_symmetry_1
_geom_bond_site_symmetry_2
Cl1 C1 1_555 1_555
Cl2 C1 1_555 1_555
Cl3 C1 1_555 1_555
C1 H1 1_555 1_555
N1 H3 1_555 1_555
N2 C16 1_555 1_555
C2 H4 1_555 1_555
C3 C2 1_555 1_555
H5 C3 1_555 1_555
C4 C3 1_555 1_555
H6 C4 1_555 1_555
C5 C4 1_555 1_555
H7 C5 1_555 1_555
C6 C5 1_555 1_555
H8 C6 1_555 1_555
C7 C2 1_555 1_555
C8 C7 1_555 1_555
C9 N1 1_555 1_555
C10 N1 1_555 1_555
C11 C8 1_555 1_555
C12 C11 1_555 1_555
H9 C12 1_555 1_555
C13 C12 1_555 1_555
C14 C13 1_555 1_555
H10 C14 1_555 1_555
C15 C10 1_555 1_555
H11 C15 1_555 1_555
C16 C13 1_555 1_555
C17 C9 1_555 1_555
C18 C17 1_555 1_555
H12 C18 1_555 1_555
C19 C18 1_555 1_555
H13 C19 1_555 1_555
C20 C19 1_555 1_555
H14 C20 1_555 1_555
C21 C20 1_555 1_555
H15 C21 1_555 1_555
C22 C17 1_555 1_555
H16 C22 1_555 1_555
C6 C7 1_555 1_555
C8 C9 1_555 1_555
C10 C11 1_555 1_555
C14 C15 1_555 1_555
C21 C22 1_555 1_555

#END
