
#######################################################################
#
#                 Cambridge Crystallographic Data Centre
#                                CCDC 
#
#######################################################################
#
# If this CIF has been generated from an entry in the Cambridge 
# Structural Database, then it will include bibliographic, chemical, 
# crystal, experimental, refinement or atomic coordinate data resulting 
# from the CCDC's data processing and validation procedures.
#
#######################################################################

data_QIWFUX
_chemical_compound_source        'Taiwanese gorgonian Briareum excavatum'
_chemical_formula_moiety         'C28 H40 O13'
_chemical_name_systematic        'Briaexcavatolide K'
_symmetry_cell_setting           orthorhombic
_symmetry_space_group_name_H-M   'P 21 21 21'
_symmetry_Int_Tables_number      19
_space_group_name_Hall           'P 2ac 2ab'
loop_
_symmetry_equiv_pos_site_id
_symmetry_equiv_pos_as_xyz
1 x,y,z
2 1/2-x,-y,1/2+z
3 1/2+x,1/2-y,-z
4 -x,1/2+y,1/2-z
_cell_length_a                   8.568(3)
_cell_length_b                   17.490(4)
_cell_length_c                   19.846(2)
_cell_angle_alpha                90
_cell_angle_beta                 90
_cell_angle_gamma                90
_cell_volume                     2974.01
_exptl_crystal_colour            colorless
_exptl_crystal_description       prism
_chemical_melting_point          270-273deg.C
_cell_formula_units_Z            4
_exptl_crystal_recrystallization_method ethanol
loop_
_atom_site_label
_atom_site_type_symbol
_atom_site_fract_x
_atom_site_fract_y
_atom_site_fract_z
O1 O -0.0048(4) -0.1250(2) -0.1495(2)
O2 O -0.0913(5) -0.1577(2) -0.2536(2)
O3 O -0.2544(5) -0.2096(2) -0.1132(2)
O4 O -0.5122(6) -0.1891(3) -0.1142(3)
O5 O -0.0181(5) 0.0026(2) 0.1444(2)
O6 O 0.0667(4) 0.0990(2) 0.0404(2)
O7 O -0.1253(4) 0.1584(2) -0.0483(2)
O8 O -0.3176(5) 0.2406(2) -0.0189(2)
O9 O -0.3795(5) 0.1628(2) -0.1500(2)
O10 O -0.0241(5) 0.0153(2) -0.2292(2)
O11 O 0.0377(8) 0.1296(3) -0.2706(3)
O12 O -0.0056(6) 0.0951(2) 0.2208(2)
O13 O -0.3068(4) 0.0943(2) 0.1256(2)
C1 C -0.1132(6) -0.0001(3) -0.1153(2)
C2 C -0.1501(6) -0.0861(3) -0.1332(3)
C3 C -0.2295(7) -0.1361(3) -0.0801(3)
C4 C -0.1395(7) -0.1503(3) -0.0139(3)
C5 C -0.2350(7) -0.1257(3) 0.0462(3)
C6 C -0.2120(7) -0.0618(3) 0.0809(3)
C7 C -0.0783(7) -0.0080(3) 0.0751(3)
C8 C -0.0932(6) 0.0774(3) 0.0496(3)
C9 C -0.1972(6) 0.0949(3) -0.0129(2)
C10 C -0.2377(6) 0.0288(3) -0.0622(2)
C11 C -0.4012(7) 0.0357(3) -0.0963(3)
C12 C -0.4077(7) 0.0834(3) -0.1613(3)
C13 C -0.2881(8) 0.0549(3) -0.2105(3)
C14 C -0.1289(7) 0.0500(3) -0.1798(3)
C15 C 0.0575(6) 0.0088(3) -0.0908(2)
C16 C -0.3717(9) -0.1771(3) 0.0618(3)
C17 C -0.1486(7) 0.1164(3) 0.1150(3)
C18 C -0.1293(8) 0.2024(3) 0.1205(3)
C19 C -0.0497(7) 0.0741(4) 0.1667(3)
C20 C -0.5316(7) 0.0592(4) -0.0464(3)
C21 C 0.0091(8) -0.1574(3) -0.2117(3)
C22 C 0.1688(8) -0.1929(3) -0.2184(3)
C23 C -0.4043(9) -0.2255(4) -0.1314(3)
C24 C -0.409(1) -0.2974(4) -0.1730(3)
C25 C -0.2011(7) 0.2268(3) -0.0492(3)
C26 C -0.1145(8) 0.2815(3) -0.0935(3)
C27 C 0.0473(9) 0.0619(4) -0.2711(3)
C28 C 0.1405(9) 0.0163(4) -0.3219(3)
H1 H -0.2139 -0.0870 -0.1725
H2 H -0.3283 -0.1145 -0.0692
H3 H -0.1155 -0.2035 -0.0100
H4 H -0.0441 -0.1222 -0.0146
H5 H -0.2894 -0.0493 0.1131
H6 H 0.0011 -0.0325 0.0492
H7 H -0.2939 0.1135 0.0047
H8 H -0.2499 -0.0139 -0.0330
H9 H -0.4281 -0.0145 -0.1101
H10 H -0.5076 0.0790 -0.1809
H11 H -0.3193 0.0060 -0.2251
H12 H -0.2844 0.0891 -0.2478
H13 H -0.0926 0.1001 -0.1700
H14 H 0.0734 -0.0204 -0.0512
H15 H 0.1273 -0.0082 -0.1250
H16 H 0.0782 0.0613 -0.0814
H17 H -0.4661 -0.1496 0.0555
H18 H -0.3706 -0.2200 0.0318
H19 H -0.3651 -0.1948 0.1067
H20 H -0.0228 0.2152 0.1133
H21 H -0.1924 0.2268 0.0879
H22 H -0.1595 0.2186 0.1644
H23 H -0.5176 0.1115 -0.0340
H24 H -0.6301 0.0526 -0.0665
H25 H -0.5240 0.0283 -0.0069
H26 H 0.1812 -0.2309 -0.1846
H27 H 0.1790 -0.2151 -0.2615
H28 H 0.2455 -0.1542 -0.2125
H29 H -0.5145 -0.3080 -0.1851
H30 H -0.3479 -0.2909 -0.2117
H31 H -0.3699 -0.3387 -0.1466
H32 H -0.0117 0.2885 -0.0757
H33 H -0.1072 0.2615 -0.1377
H34 H -0.1666 0.3294 -0.0943
H35 H 0.0727 -0.0167 -0.3466
H36 H 0.1912 0.0500 -0.3527
H37 H 0.2167 -0.0136 -0.2993
H38 H 0.0892 0.1592 0.0176
H39 H -0.4522 0.1845 -0.1081
H40 H -0.3685 0.1167 0.1646
loop_
_geom_bond_atom_site_label_1
_geom_bond_atom_site_label_2
_geom_bond_site_symmetry_1
_geom_bond_site_symmetry_2
O1 C2 1_555 1_555
O2 C21 1_555 1_555
O3 C3 1_555 1_555
O4 C23 1_555 1_555
O5 C7 1_555 1_555
O6 C8 1_555 1_555
O7 C9 1_555 1_555
O8 C25 1_555 1_555
O9 C12 1_555 1_555
O10 C14 1_555 1_555
O11 C27 1_555 1_555
O12 C19 1_555 1_555
O13 C17 1_555 1_555
C1 C2 1_555 1_555
C2 C3 1_555 1_555
C3 C4 1_555 1_555
C4 C5 1_555 1_555
C5 C6 1_555 1_555
C6 C7 1_555 1_555
C7 C8 1_555 1_555
C8 C9 1_555 1_555
C9 C10 1_555 1_555
C10 C1 1_555 1_555
C11 C10 1_555 1_555
C12 C11 1_555 1_555
C13 C12 1_555 1_555
C14 C1 1_555 1_555
C15 C1 1_555 1_555
C16 C5 1_555 1_555
C17 C8 1_555 1_555
C18 C17 1_555 1_555
C19 O5 1_555 1_555
C20 C11 1_555 1_555
C21 O1 1_555 1_555
C22 C21 1_555 1_555
C23 O3 1_555 1_555
C24 C23 1_555 1_555
C25 O7 1_555 1_555
C26 C25 1_555 1_555
C27 O10 1_555 1_555
C28 C27 1_555 1_555
H1 C2 1_555 1_555
H2 C3 1_555 1_555
H3 C4 1_555 1_555
H4 C4 1_555 1_555
H5 C6 1_555 1_555
H6 C7 1_555 1_555
H7 C9 1_555 1_555
H8 C10 1_555 1_555
H9 C11 1_555 1_555
H10 C12 1_555 1_555
H11 C13 1_555 1_555
H12 C13 1_555 1_555
H13 C14 1_555 1_555
H14 C15 1_555 1_555
H15 C15 1_555 1_555
H16 C15 1_555 1_555
H17 C16 1_555 1_555
H18 C16 1_555 1_555
H19 C16 1_555 1_555
H20 C18 1_555 1_555
H21 C18 1_555 1_555
H22 C18 1_555 1_555
H23 C20 1_555 1_555
H24 C20 1_555 1_555
H25 C20 1_555 1_555
H26 C22 1_555 1_555
H27 C22 1_555 1_555
H28 C22 1_555 1_555
H29 C24 1_555 1_555
H30 C24 1_555 1_555
H31 C24 1_555 1_555
H32 C26 1_555 1_555
H33 C26 1_555 1_555
H34 C26 1_555 1_555
H35 C28 1_555 1_555
H36 C28 1_555 1_555
H37 C28 1_555 1_555
H38 O6 1_555 1_555
H39 O9 1_555 1_555
H40 O13 1_555 1_555
C13 C14 1_555 1_555
C17 C19 1_555 1_555

#END
