
#######################################################################
#
#                 Cambridge Crystallographic Data Centre
#                                CCDC 
#
#######################################################################
#
# If this CIF has been generated from an entry in the Cambridge 
# Structural Database, then it will include bibliographic, chemical, 
# crystal, experimental, refinement or atomic coordinate data resulting 
# from the CCDC's data processing and validation procedures.
#
#######################################################################

data_QIWGAF
_chemical_formula_moiety         'C18 H21 N1 O4'
_chemical_name_systematic        
'Diethyl 5-methyl-3-p-tolyl-1H-pyrrole-2,4-dicarboxylate'
_symmetry_cell_setting           triclinic
_symmetry_space_group_name_H-M   'P -1'
_symmetry_Int_Tables_number      2
_space_group_name_Hall           '-P 1'
loop_
_symmetry_equiv_pos_site_id
_symmetry_equiv_pos_as_xyz
1 x,y,z
2 -x,-y,-z
_cell_length_a                   8.446(5)
_cell_length_b                   9.144(5)
_cell_length_c                   11.754(7)
_cell_angle_alpha                69.99(2)
_cell_angle_beta                 85.26(2)
_cell_angle_gamma                75.04(2)
_cell_volume                     824.039
_exptl_crystal_colour            colorless
_chemical_melting_point          '137-138 deg.C'
_cell_formula_units_Z            2
loop_
_atom_site_label
_atom_site_type_symbol
_atom_site_fract_x
_atom_site_fract_y
_atom_site_fract_z
O1 O 0.59762(10) 0.29463(10) 0.49325(7)
O2 O 0.85035(10) 0.16824(11) 0.45322(8)
O3 O 0.43698(10) -0.16262(10) 0.92411(8)
C1 C 0.59641(15) -0.22974(14) 0.91624(11)
O4 O 0.66654(10) -0.35746(10) 0.98797(8)
C2 C 0.59911(14) 0.01319(14) 0.71739(10)
C3 C 0.19173(14) 0.27082(14) 0.77324(11)
H1 H 0.1455 0.3226 0.8302
C4 C 0.83641(15) -0.18048(15) 0.78093(11)
C5 C 0.35322(14) 0.18269(14) 0.78694(10)
H2 H 0.4156 0.1739 0.8536
N1 N 0.86305(12) -0.07232(12) 0.67445(9)
C6 C 0.72207(14) 0.04655(14) 0.63376(10)
C7 C 0.33002(14) 0.12127(15) 0.60858(11)
H3 H 0.3766 0.0706 0.5511
C8 C 0.73050(14) 0.17327(14) 0.51888(10)
C9 C 0.42549(14) 0.10686(14) 0.70476(10)
C10 C 0.59586(16) 0.41880(15) 0.37489(11)
H4 H 0.7060 0.4401 0.3576
H5 H 0.5173 0.5196 0.3759
C11 C 0.67283(14) -0.13166(14) 0.81113(10)
C12 C 0.09595(15) 0.28485(15) 0.67742(12)
C13 C 0.16859(15) 0.20810(16) 0.59563(12)
H6 H 0.1058 0.2156 0.5295
C14 C 0.96863(16) -0.32352(16) 0.84312(12)
H7 H 1.0672 -0.3248 0.7929
H8 H 0.9322 -0.4214 0.8558
H9 H 0.9934 -0.3185 0.9215
C15 C -0.08065(16) 0.38012(18) 0.66149(13)
H10 H -0.1524 0.3079 0.6987
H11 H -0.1065 0.4322 0.5750
H12 H -0.0976 0.4621 0.7004
C16 C 0.54760(19) 0.36702(18) 0.27722(13)
H13 H 0.6255 0.2674 0.2762
H14 H 0.5485 0.4510 0.1986
H15 H 0.4373 0.3489 0.2932
C17 C 0.34195(15) -0.25362(16) 1.01645(11)
H16 H 0.3954 -0.2914 1.0967
H17 H 0.3303 -0.3479 0.9976
C18 C 0.17822(17) -0.14036(17) 1.01538(13)
H18 H 0.1904 -0.0546 1.0436
H19 H 0.1034 -0.1988 1.0691
H20 H 0.1336 -0.0935 0.9328
H21 H 0.9655(17) -0.0802(17) 0.6278(13)
loop_
_geom_bond_atom_site_label_1
_geom_bond_atom_site_label_2
_geom_bond_site_symmetry_1
_geom_bond_site_symmetry_2
O1 C8 1_555 1_555
O2 C8 1_555 1_555
O3 C1 1_555 1_555
C1 O4 1_555 1_555
C2 C6 1_555 1_555
C3 H1 1_555 1_555
C4 N1 1_555 1_555
C5 C3 1_555 1_555
H2 C5 1_555 1_555
N1 C6 1_555 1_555
C6 C8 1_555 1_555
C7 H3 1_555 1_555
C9 C2 1_555 1_555
C10 O1 1_555 1_555
H4 C10 1_555 1_555
H5 C10 1_555 1_555
C11 C1 1_555 1_555
C12 C3 1_555 1_555
C13 C7 1_555 1_555
H6 C13 1_555 1_555
C14 C4 1_555 1_555
H7 C14 1_555 1_555
H8 C14 1_555 1_555
H9 C14 1_555 1_555
C15 C12 1_555 1_555
H10 C15 1_555 1_555
H11 C15 1_555 1_555
H12 C15 1_555 1_555
C16 C10 1_555 1_555
H13 C16 1_555 1_555
H14 C16 1_555 1_555
H15 C16 1_555 1_555
C17 O3 1_555 1_555
H16 C17 1_555 1_555
H17 C17 1_555 1_555
C18 C17 1_555 1_555
H18 C18 1_555 1_555
H19 C18 1_555 1_555
H20 C18 1_555 1_555
H21 N1 1_555 1_555
C2 C11 1_555 1_555
C4 C11 1_555 1_555
C5 C9 1_555 1_555
C7 C9 1_555 1_555
C12 C13 1_555 1_555

#END
