
#######################################################################
#
#                 Cambridge Crystallographic Data Centre
#                                CCDC 
#
#######################################################################
#
# If this CIF has been generated from an entry in the Cambridge 
# Structural Database, then it will include bibliographic, chemical, 
# crystal, experimental, refinement or atomic coordinate data resulting 
# from the CCDC's data processing and validation procedures.
#
#######################################################################

data_QIWMEQ
_chemical_formula_moiety         'C24 H20 O4'
_chemical_name_systematic        
'Ethyl 3,9-dimethyl-6-oxo-7-phenyl-6H-benzo[c]chromene-8-carboxylate'
_symmetry_cell_setting           triclinic
_symmetry_space_group_name_H-M   'P -1'
_symmetry_Int_Tables_number      2
_space_group_name_Hall           '-P 1'
loop_
_symmetry_equiv_pos_site_id
_symmetry_equiv_pos_as_xyz
1 x,y,z
2 -x,-y,-z
_cell_length_a                   8.3674(11)
_cell_length_b                   10.6683(14)
_cell_length_c                   11.3817(15)
_cell_angle_alpha                95.596(2)
_cell_angle_beta                 109.866(2)
_cell_angle_gamma                94.495(2)
_cell_volume                     944.21
_exptl_crystal_colour            colorless
_exptl_crystal_description       block
_cell_formula_units_Z            2
loop_
_atom_site_label
_atom_site_type_symbol
_atom_site_fract_x
_atom_site_fract_y
_atom_site_fract_z
C1 C 0.7703(3) 0.7757(2) 0.7831(2)
H1 H 0.7182 0.8138 0.7084
H2 H 0.7852 0.6896 0.7600
H3 H 0.8797 0.8225 0.8312
C2 C 0.44092(19) 0.79354(14) 1.00224(14)
C3 C 0.60334(19) 0.86477(14) 1.04712(14)
C4 C 0.39322(19) 0.70301(14) 0.89368(14)
C5 C 0.6578(2) 0.94302(15) 1.16935(15)
C6 C 0.5028(2) 0.69669(15) 0.82497(14)
C7 C 0.23907(19) 0.60719(14) 0.85635(14)
C8 C 0.7067(2) 0.85627(16) 0.97364(16)
H4 H 0.8127 0.9054 1.0015
C9 C 0.6568(2) 0.77744(17) 0.86132(16)
C10 C 0.5440(2) 0.95209(15) 1.23270(15)
C11 C 0.3166(2) 0.82208(15) 1.06401(15)
C12 C 0.4608(2) 0.59767(17) 0.71217(15)
C13 C 0.1107(2) 0.59682(16) 0.73963(15)
H5 H 0.1161 0.6534 0.6835
C14 C 0.5877(3) 1.01999(17) 1.35136(17)
H6 H 0.5065 1.0249 1.3901
C15 C 0.8234(2) 1.00521(18) 1.23188(18)
H7 H 0.9045 1.0016 1.1928
C16 C 0.2289(2) 0.52069(16) 0.93767(16)
H8 H 0.3151 0.5260 1.0160
C17 C 0.0925(2) 0.42699(17) 0.90374(18)
H9 H 0.0869 0.3697 0.9592
C18 C -0.0262(2) 0.50218(18) 0.70631(18)
H10 H -0.1125 0.4957 0.6279
C19 C -0.0350(2) 0.41796(18) 0.78833(19)
H11 H -0.1273 0.3549 0.7657
C20 C 0.8676(3) 1.07167(18) 1.35056(19)
H12 H 0.9786 1.1118 1.3903
C21 C 0.7511(3) 1.08037(17) 1.41222(17)
C22 C 0.4603(3) 0.3777(2) 0.64960(19)
H13 H 0.5383 0.3160 0.6808
H14 H 0.4810 0.4066 0.5773
C23 C 0.7998(3) 1.1554(2) 1.5412(2)
H15 H 0.7292 1.2227 1.5372
H16 H 0.9178 1.1906 1.5692
H17 H 0.7836 1.1005 1.5993
C24 C 0.2818(3) 0.3170(2) 0.6105(3)
H18 H 0.2581 0.2952 0.6833
H19 H 0.2665 0.2417 0.5525
H20 H 0.2048 0.3749 0.5704
O1 O 0.16473(15) 0.79210(13) 1.02151(12)
O2 O 0.4106(2) 0.61828(15) 0.60520(12)
O3 O 0.37725(15) 0.89467(11) 1.17983(10)
O4 O 0.49313(16) 0.48460(12) 0.74730(11)
loop_
_geom_bond_atom_site_label_1
_geom_bond_atom_site_label_2
_geom_bond_site_symmetry_1
_geom_bond_site_symmetry_2
C1 H1 1_555 1_555
H2 C1 1_555 1_555
H3 C1 1_555 1_555
C2 C3 1_555 1_555
C3 C5 1_555 1_555
C4 C2 1_555 1_555
C5 C10 1_555 1_555
C6 C4 1_555 1_555
C7 C4 1_555 1_555
C8 C3 1_555 1_555
H4 C8 1_555 1_555
C9 C1 1_555 1_555
C10 C14 1_555 1_555
C11 C2 1_555 1_555
C12 C6 1_555 1_555
C13 C7 1_555 1_555
H5 C13 1_555 1_555
C14 H6 1_555 1_555
C15 C5 1_555 1_555
H7 C15 1_555 1_555
C16 C7 1_555 1_555
H8 C16 1_555 1_555
C17 C16 1_555 1_555
H9 C17 1_555 1_555
C18 C13 1_555 1_555
H10 C18 1_555 1_555
C19 C17 1_555 1_555
H11 C19 1_555 1_555
C20 C15 1_555 1_555
H12 C20 1_555 1_555
C21 C14 1_555 1_555
C22 H13 1_555 1_555
H14 C22 1_555 1_555
C23 C21 1_555 1_555
H15 C23 1_555 1_555
H16 C23 1_555 1_555
H17 C23 1_555 1_555
C24 C22 1_555 1_555
H18 C24 1_555 1_555
H19 C24 1_555 1_555
H20 C24 1_555 1_555
O1 C11 1_555 1_555
O2 C12 1_555 1_555
O3 C10 1_555 1_555
O4 C12 1_555 1_555
C6 C9 1_555 1_555
C8 C9 1_555 1_555
C11 O3 1_555 1_555
C18 C19 1_555 1_555
C20 C21 1_555 1_555
C22 O4 1_555 1_555

#END
