
#######################################################################
#
#                 Cambridge Crystallographic Data Centre
#                                CCDC 
#
#######################################################################
#
# If this CIF has been generated from an entry in the Cambridge 
# Structural Database, then it will include bibliographic, chemical, 
# crystal, experimental, refinement or atomic coordinate data resulting 
# from the CCDC's data processing and validation procedures.
#
#######################################################################

data_QIWSEW
_chemical_formula_moiety         'C12 H16 N2 P2'
_chemical_name_systematic        
1,2,3,4,7,8,9,10-octahydro-[1,2,3]benzodiazaphospholo[2,1-a][1,2,3]benzodiazaphosphole
_symmetry_cell_setting           monoclinic
_symmetry_space_group_name_H-M   'P 21/c'
_symmetry_Int_Tables_number      14
_space_group_name_Hall           '-P 2ybc'
loop_
_symmetry_equiv_pos_site_id
_symmetry_equiv_pos_as_xyz
1 x,y,z
2 -x,1/2+y,1/2-z
3 -x,-y,-z
4 x,1/2-y,1/2+z
_cell_length_a                   8.4187(7)
_cell_length_b                   8.5857(8)
_cell_length_c                   8.6384(8)
_cell_angle_alpha                90
_cell_angle_beta                 92.484(2)
_cell_angle_gamma                90
_cell_volume                     623.801
_exptl_crystal_colour            yellow
_exptl_crystal_description       prism
_cell_formula_units_Z            2
loop_
_atom_site_label
_atom_site_type_symbol
_atom_site_fract_x
_atom_site_fract_y
_atom_site_fract_z
P2 P 0.62959(17) 0.11991(17) 0.83319(17)
N2 N 0.5784(5) 0.0249(5) 0.9990(5)
C7 C 0.4330(6) 0.0883(6) 0.7686(6)
C8 C 0.3686(6) 0.1502(7) 0.6147(6)
H9 H 0.3576 0.2647 0.6219
H10 H 0.4460 0.1276 0.5345
C9 C 0.2113(6) 0.0815(8) 0.5653(6)
H11 H 0.2286 -0.0223 0.5193
H12 H 0.1602 0.1485 0.4842
C10 C 0.1004(7) 0.0650(9) 0.6974(6)
H13 H 0.0026 0.0119 0.6574
H14 H 0.0694 0.1707 0.7305
C11 C 0.1639(5) -0.0232(6) 0.8397(6)
H15 H 0.1050 0.0078 0.9315
H16 H 0.1502 -0.1366 0.8238
C12 C 0.3381(5) 0.0154(6) 0.8649(6)
P2B P 0.37041(17) -0.11991(17) 1.16681(17)
N2B N 0.4216(5) -0.0249(5) 1.0010(5)
C7B C 0.5670(6) -0.0883(6) 1.2314(6)
C8B C 0.6314(6) -0.1502(7) 1.3853(6)
H9B H 0.6424 -0.2647 1.3781
H10B H 0.5540 -0.1276 1.4655
C9B C 0.7887(6) -0.0815(8) 1.4347(6)
H11B H 0.7714 0.0223 1.4807
H12B H 0.8398 -0.1485 1.5158
C10B C 0.8996(7) -0.0650(9) 1.3026(6)
H13B H 0.9974 -0.0119 1.3426
H14B H 0.9306 -0.1707 1.2695
C11B C 0.8361(5) 0.0232(6) 1.1603(6)
H15B H 0.8950 -0.0078 1.0685
H16B H 0.8498 0.1366 1.1762
C12B C 0.6619(5) -0.0154(6) 1.1351(6)
P1? P 0.2805(2) -0.1025(2) 1.0507(2)
N1? N 0.4770(6) -0.0418(6) 1.0626(6)
C1? C 0.2593(7) -0.0123(7) 0.8686(6)
C2? C 0.1147(7) 0.0018(7) 0.7561(7)
H1? H 0.0178 0.0187 0.8148
H2? H 0.1010 -0.0959 0.6961
C3? C 0.1380(7) 0.1397(8) 0.6443(7)
H3? H 0.0524 0.1393 0.5621
H4? H 0.1322 0.2391 0.7018
C4? C 0.2976(6) 0.1262(11) 0.5722(7)
H5? H 0.3051 0.0234 0.5213
H6? H 0.3058 0.2073 0.4915
C5? C 0.4344(7) 0.1440(7) 0.6897(6)
H7? H 0.5334 0.1038 0.6466
H8? H 0.4503 0.2554 0.7157
C6? C 0.3964(7) 0.0539(7) 0.8326(6)
loop_
_geom_bond_atom_site_label_1
_geom_bond_atom_site_label_2
_geom_bond_site_symmetry_1
_geom_bond_site_symmetry_2
P2 N2 1_555 1_555
N2 N2B 1_555 1_555
C7 P2 1_555 1_555
C8 C7 1_555 1_555
H9 C8 1_555 1_555
H10 C8 1_555 1_555
C9 C8 1_555 1_555
H11 C9 1_555 1_555
H12 C9 1_555 1_555
C10 C9 1_555 1_555
H13 C10 1_555 1_555
H14 C10 1_555 1_555
C11 C10 1_555 1_555
H15 C11 1_555 1_555
H16 C11 1_555 1_555
C12 C7 1_555 1_555
P2B N2B 1_555 1_555
N2B C12 1_555 1_555
C7B P2B 1_555 1_555
C8B C7B 1_555 1_555
H9B C8B 1_555 1_555
H10B C8B 1_555 1_555
C9B C8B 1_555 1_555
H11B C9B 1_555 1_555
H12B C9B 1_555 1_555
C10B C9B 1_555 1_555
H13B C10B 1_555 1_555
H14B C10B 1_555 1_555
C11B C10B 1_555 1_555
H15B C11B 1_555 1_555
H16B C11B 1_555 1_555
C12B N2 1_555 1_555
C11 C12 1_555 1_555
C7B C12B 1_555 1_555
C11B C12B 1_555 1_555

#END
