
#######################################################################
#
#                 Cambridge Crystallographic Data Centre
#                                CCDC 
#
#######################################################################
#
# If this CIF has been generated from an entry in the Cambridge 
# Structural Database, then it will include bibliographic, chemical, 
# crystal, experimental, refinement or atomic coordinate data resulting 
# from the CCDC's data processing and validation procedures.
#
#######################################################################

data_QIYFIN
_chemical_formula_moiety         'C46 H44'
_chemical_name_systematic        
'Heptacyclo(32.2.2.2^3,6^.2^16,19^.2^21,24^.1^9,13^.1^27,31^) hexatetraconta-3,5,9,11,13(44),16,18,21,23,27,29,31(39),34,36,37,40,42,45-octadecaene'
_symmetry_cell_setting           orthorhombic
_symmetry_space_group_name_H-M   'P 21 21 21'
_symmetry_Int_Tables_number      19
_space_group_name_Hall           'P 2ac 2ab'
loop_
_symmetry_equiv_pos_site_id
_symmetry_equiv_pos_as_xyz
1 x,y,z
2 1/2-x,-y,1/2+z
3 -x,1/2+y,1/2-z
4 1/2+x,1/2-y,-z
_cell_length_a                   6.1265(4)
_cell_length_b                   18.8806(16)
_cell_length_c                   28.773(3)
_cell_angle_alpha                90
_cell_angle_beta                 90
_cell_angle_gamma                90
_cell_volume                     3328.23
_exptl_crystal_colour            colorless
_exptl_crystal_description       plates
_chemical_melting_point          139-141deg.C
_cell_formula_units_Z            4
_exptl_crystal_recrystallization_method methanol/dichloromethane
loop_
_atom_site_label
_atom_site_type_symbol
_atom_site_fract_x
_atom_site_fract_y
_atom_site_fract_z
C1 C -0.2540(10) 0.2119(3) 0.2567(2)
H1 H -0.3354 0.1827 0.2795
H2 H -0.1249 0.1843 0.2467
C2 C -0.1762(9) 0.2786(3) 0.2808(2)
H3 H -0.1085 0.3098 0.2572
H4 H -0.3053 0.3037 0.2933
C3 C -0.0157(9) 0.2684(3) 0.3198(2)
C4 C 0.1197(9) 0.3222(3) 0.33456(19)
H5 H 0.1131 0.3666 0.3191
C5 C 0.2652(8) 0.3142(3) 0.3712(2)
H6 H 0.3559 0.3528 0.3799
C6 C 0.2800(8) 0.2505(3) 0.39541(19)
C7 C 0.1478(8) 0.1959(3) 0.38020(19)
H7 H 0.1569 0.1513 0.3953
C8 C 0.0030(9) 0.2041(3) 0.34382(18)
H8 H -0.0861 0.1652 0.3349
C9 C 0.4308(8) 0.2391(3) 0.4360(2)
H9 H 0.5428 0.2041 0.4267
H10 H 0.3453 0.2179 0.4616
C10 C 0.5462(9) 0.3037(3) 0.45451(18)
C11 C 0.7492(8) 0.3233(3) 0.43717(18)
H11 H 0.8151 0.2958 0.4133
C12 C 0.8567(9) 0.3826(3) 0.45434(19)
H12 H 0.9979 0.3940 0.4430
C13 C 0.7604(8) 0.4258(3) 0.48805(19)
C14 C 0.5584(8) 0.4065(3) 0.50475(18)
H13 H 0.4912 0.4344 0.5282
C15 C 0.4504(9) 0.3465(3) 0.48776(19)
H14 H 0.3093 0.3351 0.4992
C16 C 0.8830(10) 0.4893(3) 0.50810(19)
H15 H 1.0362 0.4753 0.5141
H16 H 0.8163 0.5023 0.5382
C17 C 0.8818(9) 0.5547(3) 0.4760(2)
H17 H 0.7282 0.5683 0.4701
H18 H 0.9521 0.5945 0.4927
C18 C 0.9957(9) 0.5452(3) 0.4296(2)
C19 C 1.2086(9) 0.5211(3) 0.4272(2)
H19 H 1.2863 0.5118 0.4551
C20 C 1.3102(9) 0.5105(3) 0.3850(2)
H20 H 1.4567 0.4941 0.3839
C21 C 1.1961(10) 0.5240(3) 0.3438(2)
H21 H 1.2651 0.5159 0.3147
C22 C 0.9852(10) 0.5487(3) 0.3450(2)
C23 C 0.8876(9) 0.5592(3) 0.3884(2)
H22 H 0.7421 0.5765 0.3896
C24 C 0.8577(10) 0.5604(3) 0.3007(2)
H23 H 0.7383 0.5945 0.3069
H24 H 0.9553 0.5817 0.2771
C25 C 0.7619(9) 0.4930(3) 0.28154(18)
H25 H 0.8839 0.4616 0.2722
H26 H 0.6822 0.4689 0.3069
C26 C 0.6098(9) 0.5001(3) 0.24084(19)
C27 C 0.4645(8) 0.4467(3) 0.23023(19)
H27 H 0.4591 0.4059 0.2496
C28 C 0.3251(9) 0.4507(3) 0.19191(19)
H28 H 0.2254 0.4132 0.1861
C29 C 0.3299(8) 0.5082(3) 0.16248(18)
C30 C 0.4749(8) 0.5619(3) 0.17329(19)
H29 H 0.4804 0.6026 0.1539
C31 C 0.6111(8) 0.5584(3) 0.21112(19)
H30 H 0.7083 0.5965 0.2172
C32 C 0.1845(9) 0.5154(3) 0.1205(2)
H31 H 0.2763 0.5312 0.0942
H32 H 0.0783 0.5537 0.1269
C33 C 0.0576(9) 0.4509(3) 0.10472(19)
C34 C -0.1376(9) 0.4331(3) 0.12605(19)
H33 H -0.1856 0.4598 0.1521
C35 C -0.2649(8) 0.3771(3) 0.11010(19)
H34 H -0.4002 0.3670 0.1248
C36 C -0.1968(9) 0.3362(3) 0.0732(2)
C37 C 0.0000(9) 0.3523(3) 0.05270(19)
H35 H 0.0512 0.3244 0.0275
C38 C 0.1242(9) 0.4087(3) 0.0685(2)
H36 H 0.2598 0.4185 0.0538
C39 C -0.3424(10) 0.2775(3) 0.0532(2)
H37 H -0.2885 0.2650 0.0219
H38 H -0.4924 0.2963 0.0497
C40 C -0.3522(10) 0.2097(3) 0.0827(2)
H39 H -0.4397 0.1737 0.0659
H40 H -0.2025 0.1907 0.0863
C41 C -0.4508(9) 0.2210(3) 0.1308(2)
C42 C -0.6585(9) 0.2448(3) 0.1373(2)
H41 H -0.7489 0.2520 0.1109
C43 C -0.7421(9) 0.2588(3) 0.1807(2)
H42 H -0.8878 0.2753 0.1841
C44 C -0.6094(10) 0.2485(3) 0.2198(2)
H43 H -0.6656 0.2581 0.2500
C45 C -0.3986(9) 0.2247(3) 0.2149(2)
C46 C -0.3195(10) 0.2113(3) 0.1706(2)
H44 H -0.1736 0.1951 0.1670
loop_
_geom_bond_atom_site_label_1
_geom_bond_atom_site_label_2
_geom_bond_site_symmetry_1
_geom_bond_site_symmetry_2
C1 H1 1_555 1_555
H2 C1 1_555 1_555
C2 C1 1_555 1_555
H3 C2 1_555 1_555
H4 C2 1_555 1_555
C3 C2 1_555 1_555
C4 C3 1_555 1_555
H5 C4 1_555 1_555
C5 C4 1_555 1_555
H6 C5 1_555 1_555
C6 C5 1_555 1_555
C7 C6 1_555 1_555
H7 C7 1_555 1_555
C8 C3 1_555 1_555
H8 C8 1_555 1_555
C9 C6 1_555 1_555
H9 C9 1_555 1_555
H10 C9 1_555 1_555
C10 C9 1_555 1_555
C11 C10 1_555 1_555
H11 C11 1_555 1_555
C12 C11 1_555 1_555
H12 C12 1_555 1_555
C13 C12 1_555 1_555
C14 C13 1_555 1_555
H13 C14 1_555 1_555
C15 C10 1_555 1_555
H14 C15 1_555 1_555
C16 C13 1_555 1_555
H15 C16 1_555 1_555
H16 C16 1_555 1_555
C17 C16 1_555 1_555
H17 C17 1_555 1_555
H18 C17 1_555 1_555
C18 C17 1_555 1_555
C19 C18 1_555 1_555
H19 C19 1_555 1_555
C20 C19 1_555 1_555
H20 C20 1_555 1_555
C21 C20 1_555 1_555
H21 C21 1_555 1_555
C22 C21 1_555 1_555
C23 C18 1_555 1_555
H22 C23 1_555 1_555
C24 C22 1_555 1_555
H23 C24 1_555 1_555
H24 C24 1_555 1_555
C25 C24 1_555 1_555
H25 C25 1_555 1_555
H26 C25 1_555 1_555
C26 C25 1_555 1_555
C27 C26 1_555 1_555
H27 C27 1_555 1_555
C28 C27 1_555 1_555
H28 C28 1_555 1_555
C29 C28 1_555 1_555
C30 C29 1_555 1_555
H29 C30 1_555 1_555
C31 C26 1_555 1_555
H30 C31 1_555 1_555
C32 C29 1_555 1_555
H31 C32 1_555 1_555
H32 C32 1_555 1_555
C33 C32 1_555 1_555
C34 C33 1_555 1_555
H33 C34 1_555 1_555
C35 C34 1_555 1_555
H34 C35 1_555 1_555
C36 C35 1_555 1_555
C37 C36 1_555 1_555
H35 C37 1_555 1_555
C38 C33 1_555 1_555
H36 C38 1_555 1_555
C39 C36 1_555 1_555
H37 C39 1_555 1_555
H38 C39 1_555 1_555
C40 C39 1_555 1_555
H39 C40 1_555 1_555
H40 C40 1_555 1_555
C41 C40 1_555 1_555
C42 C41 1_555 1_555
H41 C42 1_555 1_555
C43 C42 1_555 1_555
H42 C43 1_555 1_555
C44 C43 1_555 1_555
H43 C44 1_555 1_555
C45 C1 1_555 1_555
C46 C41 1_555 1_555
H44 C46 1_555 1_555
C7 C8 1_555 1_555
C14 C15 1_555 1_555
C22 C23 1_555 1_555
C30 C31 1_555 1_555
C37 C38 1_555 1_555
C44 C45 1_555 1_555
C45 C46 1_555 1_555

#END
