
#######################################################################
#
#                 Cambridge Crystallographic Data Centre
#                                CCDC 
#
#######################################################################
#
# If this CIF has been generated from an entry in the Cambridge 
# Structural Database, then it will include bibliographic, chemical, 
# crystal, experimental, refinement or atomic coordinate data resulting 
# from the CCDC's data processing and validation procedures.
#
#######################################################################

data_QIYFOT
_chemical_formula_moiety         'C44 H40'
_chemical_name_systematic        
'Heptacyclo(33.3.1.1^2,6^.1^9,13^.1^16,20^.1^21,25^.1^28,32^) tetratetraconta-1(39),2,4,6(44),9,11,13(43),16,18,20(42),21,23,25(41),28,30,32(40),35,37-octadecaene'
_symmetry_cell_setting           monoclinic
_symmetry_space_group_name_H-M   'P 21/c'
_symmetry_Int_Tables_number      14
_space_group_name_Hall           '-P 2ybc'
loop_
_symmetry_equiv_pos_site_id
_symmetry_equiv_pos_as_xyz
1 x,y,z
2 x,1/2-y,1/2+z
3 -x,-y,-z
4 -x,1/2+y,1/2-z
_cell_length_a                   14.9078(5)
_cell_length_b                   16.9439(5)
_cell_length_c                   6.2211(2)
_cell_angle_alpha                90
_cell_angle_beta                 99.562(2)
_cell_angle_gamma                90
_cell_volume                     1549.59
_exptl_crystal_colour            colorless
_exptl_crystal_description       plates
_chemical_melting_point          229deg.C
_cell_formula_units_Z            2
_exptl_crystal_recrystallization_method methanol/dichloromethane
loop_
_atom_site_label
_atom_site_type_symbol
_atom_site_fract_x
_atom_site_fract_y
_atom_site_fract_z
C1 C 0.13518(7) 0.50208(6) -0.20149(15)
H1 H 0.1174 0.4735 -0.0763
H2 H 0.0887 0.5433 -0.2462
C2 C 0.22584(6) 0.54235(6) -0.12560(15)
H3 H 0.2736 0.5013 -0.0978
H4 H 0.2400 0.5761 -0.2455
C3 C 0.23088(6) 0.59266(5) 0.07708(15)
C4 C 0.15470(6) 0.62838(6) 0.13909(16)
H5 H 0.0962 0.6197 0.0554
C5 C 0.16398(7) 0.67644(6) 0.32228(16)
H6 H 0.1116 0.7002 0.3632
C6 C 0.24883(7) 0.69007(6) 0.44609(15)
H7 H 0.2543 0.7234 0.5704
C7 C 0.32607(7) 0.65507(6) 0.38886(15)
C8 C 0.31553(6) 0.60644(6) 0.20558(15)
H8 H 0.3678 0.5818 0.1667
C9 C 0.41915(7) 0.66980(6) 0.52238(16)
H9 H 0.4150 0.7151 0.6206
H10 H 0.4616 0.6846 0.4226
C10 C 0.45851(7) 0.59927(6) 0.65920(16)
H11 H 0.4179 0.5855 0.7643
H12 H 0.4617 0.5532 0.5629
C11 C 0.55254(6) 0.61746(6) 0.78168(16)
C12 C 0.56463(7) 0.64904(6) 0.99134(16)
H13 H 0.5137 0.6553 1.0634
C13 C 0.65042(7) 0.67141(6) 1.09595(16)
H14 H 0.6578 0.6933 1.2384
C14 C 0.72548(7) 0.66194(6) 0.99295(15)
H15 H 0.7840 0.6774 1.0658
C15 C 0.71597(6) 0.62989(5) 0.78288(15)
C16 C 0.62856(6) 0.60848(6) 0.68026(15)
H16 H 0.6208 0.5872 0.5371
C17 C 0.79596(6) 0.62002(6) 0.66978(15)
C18 C 0.87238(7) 0.66843(6) 0.71987(15)
H17 H 0.8745 0.7074 0.8305
C19 C 0.94528(7) 0.65994(6) 0.60859(17)
H18 H 0.9976 0.6923 0.6457
C20 C 0.94215(6) 0.60434(6) 0.44345(16)
H19 H 0.9921 0.5996 0.3672
C21 C 0.13339(6) 0.44452(6) -0.38833(15)
C22 C 0.79535(6) 0.56305(6) 0.50598(15)
H20 H 0.7447 0.5285 0.4743
C21B C 0.86661(6) 0.55548(6) 0.38833(15)
C1B C 0.86482(7) 0.49792(6) 0.20149(15)
H1B H 0.8826 0.5265 0.0763
H2B H 0.9113 0.4567 0.2462
C2B C 0.77416(6) 0.45765(6) 0.12560(15)
H3B H 0.7264 0.4987 0.0978
H4B H 0.7600 0.4239 0.2455
C3B C 0.76912(6) 0.40734(5) -0.07708(15)
C4B C 0.84530(6) 0.37162(6) -0.13909(16)
H5B H 0.9038 0.3803 -0.0554
C5B C 0.83602(7) 0.32356(6) -0.32228(16)
H6B H 0.8884 0.2998 -0.3632
C6B C 0.75117(7) 0.30993(6) -0.44609(15)
H7B H 0.7457 0.2766 -0.5704
C7B C 0.67393(7) 0.34493(6) -0.38886(15)
C8B C 0.68447(6) 0.39356(6) -0.20558(15)
H8B H 0.6322 0.4182 -0.1667
C9B C 0.58085(7) 0.33020(6) -0.52238(16)
H9B H 0.5850 0.2849 -0.6206
H10B H 0.5384 0.3154 -0.4226
C10B C 0.54149(7) 0.40073(6) -0.65920(16)
H11B H 0.5821 0.4145 -0.7643
H12B H 0.5383 0.4468 -0.5629
C11B C 0.44746(6) 0.38254(6) -0.78168(16)
C12B C 0.43537(7) 0.35096(6) -0.99134(16)
H13B H 0.4863 0.3447 -1.0634
C13B C 0.34958(7) 0.32859(6) -1.09595(16)
H14B H 0.3422 0.3067 -1.2384
C14B C 0.27452(7) 0.33806(6) -0.99295(15)
H15B H 0.2160 0.3226 -1.0658
C15B C 0.28403(6) 0.37011(5) -0.78288(15)
C16B C 0.37144(6) 0.39152(6) -0.68026(15)
H16B H 0.3792 0.4128 -0.5371
C17B C 0.20404(6) 0.37998(6) -0.66978(15)
C18B C 0.12762(7) 0.33157(6) -0.71987(15)
H17B H 0.1255 0.2926 -0.8305
C19B C 0.05472(7) 0.34006(6) -0.60859(17)
H18B H 0.0024 0.3077 -0.6457
C20B C 0.05785(6) 0.39566(6) -0.44345(16)
H19B H 0.0079 0.4004 -0.3672
C22B C 0.20465(6) 0.43695(6) -0.50598(15)
H20B H 0.2553 0.4715 -0.4743
loop_
_geom_bond_atom_site_label_1
_geom_bond_atom_site_label_2
_geom_bond_site_symmetry_1
_geom_bond_site_symmetry_2
C1 H1 1_555 1_555
H2 C1 1_555 1_555
C2 C1 1_555 1_555
H3 C2 1_555 1_555
H4 C2 1_555 1_555
C3 C2 1_555 1_555
C4 C3 1_555 1_555
H5 C4 1_555 1_555
C5 C4 1_555 1_555
H6 C5 1_555 1_555
C6 C5 1_555 1_555
H7 C6 1_555 1_555
C7 C6 1_555 1_555
C8 C3 1_555 1_555
H8 C8 1_555 1_555
C9 C7 1_555 1_555
H9 C9 1_555 1_555
H10 C9 1_555 1_555
C10 C9 1_555 1_555
H11 C10 1_555 1_555
H12 C10 1_555 1_555
C11 C10 1_555 1_555
C12 C11 1_555 1_555
H13 C12 1_555 1_555
C13 C12 1_555 1_555
H14 C13 1_555 1_555
C14 C13 1_555 1_555
H15 C14 1_555 1_555
C15 C14 1_555 1_555
C16 C11 1_555 1_555
H16 C16 1_555 1_555
C17 C15 1_555 1_555
C18 C17 1_555 1_555
H17 C18 1_555 1_555
C19 C18 1_555 1_555
H18 C19 1_555 1_555
C20 C19 1_555 1_555
H19 C20 1_555 1_555
C21 C1 1_555 1_555
C22 C17 1_555 1_555
H20 C22 1_555 1_555
C21B C20 1_555 1_555
C1B C21B 1_555 1_555
H1B C1B 1_555 1_555
H2B C1B 1_555 1_555
C2B C1B 1_555 1_555
H3B C2B 1_555 1_555
H4B C2B 1_555 1_555
C3B C2B 1_555 1_555
C4B C3B 1_555 1_555
H5B C4B 1_555 1_555
C5B C4B 1_555 1_555
H6B C5B 1_555 1_555
C6B C5B 1_555 1_555
H7B C6B 1_555 1_555
C7B C6B 1_555 1_555
C8B C3B 1_555 1_555
H8B C8B 1_555 1_555
C9B C7B 1_555 1_555
H9B C9B 1_555 1_555
H10B C9B 1_555 1_555
C10B C9B 1_555 1_555
H11B C10B 1_555 1_555
H12B C10B 1_555 1_555
C11B C10B 1_555 1_555
C12B C11B 1_555 1_555
H13B C12B 1_555 1_555
C13B C12B 1_555 1_555
H14B C13B 1_555 1_555
C14B C13B 1_555 1_555
H15B C14B 1_555 1_555
C15B C14B 1_555 1_555
C16B C11B 1_555 1_555
H16B C16B 1_555 1_555
C17B C15B 1_555 1_555
C18B C17B 1_555 1_555
H17B C18B 1_555 1_555
C19B C18B 1_555 1_555
H18B C19B 1_555 1_555
C20B C21 1_555 1_555
H19B C20B 1_555 1_555
C22B C21 1_555 1_555
H20B C22B 1_555 1_555
C7 C8 1_555 1_555
C15 C16 1_555 1_555
C22 C21B 1_555 1_555
C7B C8B 1_555 1_555
C15B C16B 1_555 1_555
C17B C22B 1_555 1_555
C19B C20B 1_555 1_555

#END
