
#######################################################################
#
#                 Cambridge Crystallographic Data Centre
#                                CCDC 
#
#######################################################################
#
# If this CIF has been generated from an entry in the Cambridge 
# Structural Database, then it will include bibliographic, chemical, 
# crystal, experimental, refinement or atomic coordinate data resulting 
# from the CCDC's data processing and validation procedures.
#
#######################################################################

data_QIYGEL
_chemical_formula_moiety         'C14 H18 N2'
_chemical_name_systematic        
2,5,5-trimethyl-1,5,6,10b-tetrahydropyrazolo[5,1-a]isoquinoline
_chemical_properties_biological  
'antibacterial activity on S. aureus DNA gyrase and E. coli DNA gyrase'
_symmetry_cell_setting           monoclinic
_symmetry_space_group_name_H-M   'C c'
_symmetry_Int_Tables_number      9
_space_group_name_Hall           'C -2yc'
loop_
_symmetry_equiv_pos_site_id
_symmetry_equiv_pos_as_xyz
1 x,y,z
2 x,-y,1/2+z
3 1/2+x,1/2+y,z
4 1/2+x,1/2-y,1/2+z
_cell_length_a                   16.479(3)
_cell_length_b                   6.8530(14)
_cell_length_c                   12.486(3)
_cell_angle_alpha                90
_cell_angle_beta                 124.46(3)
_cell_angle_gamma                90
_cell_volume                     1162.62
_exptl_crystal_colour            colorless
_exptl_crystal_description       block
_chemical_melting_point          155-156deg.C
_cell_formula_units_Z            4
loop_
_atom_site_label
_atom_site_type_symbol
_atom_site_fract_x
_atom_site_fract_y
_atom_site_fract_z
C1 C 1.1466(7) 0.4083(15) 0.7974(9)
H1 H 1.1638 0.3333 0.7511
C2 C 1.0566(6) 0.4936(11) 0.7335(8)
H2 H 1.0134 0.4761 0.6443
C3 C 1.0277(5) 0.6082(11) 0.7998(7)
C4 C 1.0971(6) 0.6382(13) 0.9352(7)
C5 C 1.1885(6) 0.5469(13) 1.0007(8)
H3 H 1.2321 0.5635 1.0899
C6 C 1.2153(7) 0.4309(14) 0.9338(9)
H4 H 1.2764 0.3699 0.9771
C7 C 0.9274(6) 0.6978(12) 0.7300(7)
H5 H 0.9162 0.7871 0.6617
C8 C 0.8482(7) 0.5403(13) 0.6759(9)
H6 H 0.7888 0.5813 0.5948
H7 H 0.8713 0.4189 0.6621
C9 C 0.8308(6) 0.5195(13) 0.7810(8)
C10 C 0.7717(10) 0.354(2) 0.7876(14)
H8 H 0.8140 0.2441 0.8313
H9 H 0.7192 0.3168 0.7011
H10 H 0.7447 0.3973 0.8344
C11 C 0.9952(7) 0.8934(11) 0.9280(8)
C12 C 1.0776(4) 0.7551(10) 1.0046(5)
H11 H 1.1365 0.8293 1.0651
H12 H 1.0631 0.6738 1.0554
C13 C 0.9782(7) 0.9730(16) 1.0287(9)
H13 H 0.9128 1.0251 0.9850
H14 H 1.0251 1.0743 1.0784
H15 H 0.9861 0.8695 1.0856
C14 C 1.0291(8) 1.0542(14) 0.8774(10)
H16 H 1.0454 0.9984 0.8214
H17 H 1.0860 1.1177 0.9493
H18 H 0.9772 1.1479 0.8298
N1 N 0.8709(5) 0.6643(12) 0.8653(7)
N2 N 0.9098(5) 0.7979(10) 0.8235(6)
loop_
_geom_bond_atom_site_label_1
_geom_bond_atom_site_label_2
_geom_bond_site_symmetry_1
_geom_bond_site_symmetry_2
C1 H1 1_555 1_555
C2 C1 1_555 1_555
H2 C2 1_555 1_555
C3 C2 1_555 1_555
C4 C3 1_555 1_555
C5 C4 1_555 1_555
H3 C5 1_555 1_555
C6 C1 1_555 1_555
H4 C6 1_555 1_555
C7 C3 1_555 1_555
H5 C7 1_555 1_555
C8 C7 1_555 1_555
H6 C8 1_555 1_555
H7 C8 1_555 1_555
C9 C8 1_555 1_555
C10 C9 1_555 1_555
H8 C10 1_555 1_555
H9 C10 1_555 1_555
H10 C10 1_555 1_555
C11 C12 1_555 1_555
C12 C4 1_555 1_555
H11 C12 1_555 1_555
H12 C12 1_555 1_555
C13 C11 1_555 1_555
H13 C13 1_555 1_555
H14 C13 1_555 1_555
H15 C13 1_555 1_555
C14 C11 1_555 1_555
H16 C14 1_555 1_555
H17 C14 1_555 1_555
H18 C14 1_555 1_555
N1 C9 1_555 1_555
N2 C7 1_555 1_555
C5 C6 1_555 1_555
C11 N2 1_555 1_555
N1 N2 1_555 1_555

#END
