
#######################################################################
#
#                 Cambridge Crystallographic Data Centre
#                                CCDC 
#
#######################################################################
#
# If this CIF has been generated from an entry in the Cambridge 
# Structural Database, then it will include bibliographic, chemical, 
# crystal, experimental, refinement or atomic coordinate data resulting 
# from the CCDC's data processing and validation procedures.
#
#######################################################################

data_QIZPUL
_chemical_formula_moiety         'C41 H33 O2 P2 1+,N1 O3 1-'
_chemical_name_systematic        
'1,3-Diformyl-1,3-bis(triphenylphosphonio)prop-2-en-1-ide nitrate'
_symmetry_cell_setting           triclinic
_symmetry_space_group_name_H-M   'P -1'
_symmetry_Int_Tables_number      2
_space_group_name_Hall           '-P 1'
loop_
_symmetry_equiv_pos_site_id
_symmetry_equiv_pos_as_xyz
1 x,y,z
2 -x,-y,-z
_cell_length_a                   9.594(3)
_cell_length_b                   10.695(4)
_cell_length_c                   17.058(6)
_cell_angle_alpha                98.626(6)
_cell_angle_beta                 95.024(6)
_cell_angle_gamma                108.664(6)
_cell_volume                     1622.22
_exptl_crystal_colour            'light red'
_exptl_crystal_description       bar
_cell_formula_units_Z            2
_exptl_crystal_recrystallization_method 'dichloromethane/diethyl ether'
loop_
_atom_site_label
_atom_site_type_symbol
_atom_site_fract_x
_atom_site_fract_y
_atom_site_fract_z
P1 P 0.68693(7) 1.17431(6) 0.33117(4)
P2 P 0.19701(7) 0.74047(6) 0.20495(4)
O1 O 0.6806(2) 1.0124(2) 0.46195(12)
O2 O 0.3811(2) 0.59690(19) 0.28186(12)
C1 C 0.5824(3) 0.9617(3) 0.40549(17)
H1 H 0.5069 0.8827 0.4102
C2 C 0.5699(3) 1.0101(2) 0.33243(16)
C3 C 0.4549(3) 0.9422(2) 0.27054(15)
H2 H 0.4269 0.9926 0.2354
C4 C 0.3784(3) 0.8058(2) 0.25661(15)
C5 C 0.4447(3) 0.7146(3) 0.28271(16)
H3 H 0.5469 0.7491 0.3023
C6 C 0.8772(3) 1.1888(3) 0.32731(16)
C7 C 0.9650(3) 1.2885(3) 0.29249(18)
H4 H 0.9245 1.3472 0.2708
C8 C 1.1113(3) 1.3019(3) 0.28955(19)
H5 H 1.1709 1.3689 0.2651
C9 C 1.1701(4) 1.2178(3) 0.3222(2)
H6 H 1.2703 1.2269 0.3200
C10 C 1.0843(4) 1.1203(3) 0.3580(2)
H7 H 1.1264 1.0642 0.3816
C11 C 0.9370(3) 1.1042(3) 0.3597(2)
H8 H 0.8773 1.0354 0.3829
C12 C 0.6749(3) 1.2839(3) 0.41788(16)
C13 C 0.5463(3) 1.2525(3) 0.45269(18)
H9 H 0.4680 1.1714 0.4323
C14 C 0.5330(3) 1.3390(3) 0.51652(19)
H10 H 0.4445 1.3184 0.5392
C15 C 0.6471(4) 1.4549(3) 0.54763(18)
H11 H 0.6381 1.5128 0.5926
C16 C 0.7743(4) 1.4873(3) 0.51382(19)
H12 H 0.8520 1.5685 0.5347
C17 C 0.7893(3) 1.4020(3) 0.44970(17)
H13 H 0.8780 1.4239 0.4271
C18 C 0.6260(3) 1.2304(2) 0.24567(16)
C19 C 0.6389(3) 1.1706(3) 0.17057(17)
H14 H 0.6799 1.1014 0.1648
C20 C 0.5919(4) 1.2124(3) 0.10487(19)
H15 H 0.6005 1.1717 0.0536
C21 C 0.5326(4) 1.3123(3) 0.1127(2)
H16 H 0.5011 1.3408 0.0669
C22 C 0.5187(4) 1.3715(3) 0.1868(2)
H17 H 0.4771 1.4404 0.1918
C23 C 0.5648(3) 1.3311(3) 0.25361(18)
H18 H 0.5549 1.3717 0.3047
C24 C 0.1712(3) 0.8615(2) 0.14918(16)
C25 C 0.2578(3) 0.8916(3) 0.08965(18)
H19 H 0.3246 0.8458 0.0782
C26 C 0.2473(4) 0.9874(3) 0.0472(2)
H20 H 0.3052 1.0068 0.0059
C27 C 0.1517(4) 1.0547(3) 0.0653(2)
H21 H 0.1446 1.1215 0.0367
C28 C 0.0671(5) 1.0266(3) 0.1241(2)
H22 H 0.0023 1.0744 0.1360
C29 C 0.0749(4) 0.9291(3) 0.16618(19)
H23 H 0.0147 0.9089 0.2064
C30 C 0.1675(3) 0.5883(2) 0.13676(16)
C31 C 0.2773(3) 0.5791(3) 0.09085(18)
H24 H 0.3695 0.6490 0.0999
C32 C 0.2520(4) 0.4688(3) 0.03263(19)
H25 H 0.3269 0.4623 0.0019
C33 C 0.1172(4) 0.3675(3) 0.0190(2)
H26 H 0.0984 0.2931 -0.0225
C34 C 0.0100(4) 0.3739(3) 0.0655(2)
H27 H -0.0805 0.3020 0.0575
C35 C 0.0336(3) 0.4837(3) 0.12320(19)
H28 H -0.0417 0.4886 0.1541
C36 C 0.0669(3) 0.7187(3) 0.27527(18)
C37 C 0.1202(3) 0.7510(3) 0.35529(18)
H29 H 0.2227 0.7745 0.3722
C38 C 0.0250(4) 0.7496(4) 0.4113(2)
H30 H 0.0619 0.7736 0.4663
C39 C -0.1248(4) 0.7124(4) 0.3854(3)
H31 H -0.1909 0.7113 0.4230
C40 C -0.1782(4) 0.6772(3) 0.3056(3)
H32 H -0.2812 0.6491 0.2885
C41 C -0.0831(3) 0.6825(3) 0.2508(2)
H33 H -0.1201 0.6614 0.1958
O3 O 0.5835(3) 0.8482(3) 0.08404(15)
O4 O 0.7382(3) 0.8969(2) 0.19087(17)
O5 O 0.6519(3) 0.6958(3) 0.12633(19)
N1 N 0.6603(3) 0.8142(3) 0.13243(17)
loop_
_geom_bond_atom_site_label_1
_geom_bond_atom_site_label_2
_geom_bond_site_symmetry_1
_geom_bond_site_symmetry_2
P1 C2 1_555 1_555
P2 C4 1_555 1_555
O1 C1 1_555 1_555
O2 C5 1_555 1_555
O3 N1 1_555 1_555
O4 N1 1_555 1_555
O5 N1 1_555 1_555
C1 H1 1_555 1_555
C2 C1 1_555 1_555
C3 C2 1_555 1_555
H2 C3 1_555 1_555
C4 C3 1_555 1_555
C5 C4 1_555 1_555
H3 C5 1_555 1_555
C6 P1 1_555 1_555
C7 C6 1_555 1_555
H4 C7 1_555 1_555
C8 C7 1_555 1_555
H5 C8 1_555 1_555
C9 C8 1_555 1_555
H6 C9 1_555 1_555
C10 C9 1_555 1_555
H7 C10 1_555 1_555
C11 C6 1_555 1_555
H8 C11 1_555 1_555
C12 P1 1_555 1_555
C13 C12 1_555 1_555
H9 C13 1_555 1_555
C14 C13 1_555 1_555
H10 C14 1_555 1_555
C15 C14 1_555 1_555
H11 C15 1_555 1_555
C16 C15 1_555 1_555
H12 C16 1_555 1_555
C17 C12 1_555 1_555
H13 C17 1_555 1_555
C18 P1 1_555 1_555
C19 C18 1_555 1_555
H14 C19 1_555 1_555
C20 C19 1_555 1_555
H15 C20 1_555 1_555
C21 C20 1_555 1_555
H16 C21 1_555 1_555
C22 C21 1_555 1_555
H17 C22 1_555 1_555
C23 C18 1_555 1_555
H18 C23 1_555 1_555
C24 P2 1_555 1_555
C25 C24 1_555 1_555
H19 C25 1_555 1_555
C26 C25 1_555 1_555
H20 C26 1_555 1_555
C27 C26 1_555 1_555
H21 C27 1_555 1_555
C28 C27 1_555 1_555
H22 C28 1_555 1_555
C29 C24 1_555 1_555
H23 C29 1_555 1_555
C30 P2 1_555 1_555
C31 C30 1_555 1_555
H24 C31 1_555 1_555
C32 C31 1_555 1_555
H25 C32 1_555 1_555
C33 C32 1_555 1_555
H26 C33 1_555 1_555
C34 C33 1_555 1_555
H27 C34 1_555 1_555
C35 C30 1_555 1_555
H28 C35 1_555 1_555
C36 P2 1_555 1_555
C37 C36 1_555 1_555
H29 C37 1_555 1_555
C38 C37 1_555 1_555
H30 C38 1_555 1_555
C39 C38 1_555 1_555
H31 C39 1_555 1_555
C40 C39 1_555 1_555
H32 C40 1_555 1_555
C41 C36 1_555 1_555
H33 C41 1_555 1_555
C10 C11 1_555 1_555
C16 C17 1_555 1_555
C22 C23 1_555 1_555
C28 C29 1_555 1_555
C34 C35 1_555 1_555
C40 C41 1_555 1_555

#END
