
#######################################################################
#
#                 Cambridge Crystallographic Data Centre
#                                CCDC 
#
#######################################################################
#
# If this CIF has been generated from an entry in the Cambridge 
# Structural Database, then it will include bibliographic, chemical, 
# crystal, experimental, refinement or atomic coordinate data resulting 
# from the CCDC's data processing and validation procedures.
#
#######################################################################

data_QIZQEV
_chemical_formula_moiety         'C15 H12 N4'
_chemical_name_systematic        2,2',2''-tripyridylamine
_symmetry_cell_setting           rhombohedral
_symmetry_space_group_name_H-M   'R 3'
_symmetry_Int_Tables_number      146
_space_group_name_Hall           'R 3'
loop_
_symmetry_equiv_pos_site_id
_symmetry_equiv_pos_as_xyz
1 x,y,z
2 -y,x-y,z
3 -x+y,-x,z
4 1/3+x,2/3+y,2/3+z
5 1/3-y,2/3+x-y,2/3+z
6 1/3-x+y,2/3-x,2/3+z
7 2/3+x,1/3+y,1/3+z
8 2/3-y,1/3+x-y,1/3+z
9 2/3-x+y,1/3-x,1/3+z
_cell_length_a                   15.912(2)
_cell_length_b                   15.912(2)
_cell_length_c                   4.134(1)
_cell_angle_alpha                90
_cell_angle_beta                 90
_cell_angle_gamma                120
_cell_volume                     906.464
_exptl_crystal_colour            colorless
_chemical_melting_point          129-131deg.C
_cell_formula_units_Z            3
_exptl_crystal_recrystallization_method dichloromethane/hexane
loop_
_atom_site_label
_atom_site_type_symbol
_atom_site_fract_x
_atom_site_fract_y
_atom_site_fract_z
N1 N 0.0000 0.0000 0.2562(13)
C1 C -0.2476(3) -0.0698(3) 0.3711(9)
N2 N -0.1505(2) -0.0203(2) 0.3962(8)
C2 C -0.2985(3) -0.1538(3) 0.2002(1)
C3 C -0.2474(3) -0.1899(3) 0.0413(10)
C4 C -0.1474(2) -0.1397(2) 0.0555(10)
C5 C -0.1027(2) -0.0557(2) 0.2374(7)
H1 H -0.2760(30) -0.0430(20) 0.470(10)
H2 H -0.3690(30) -0.1850(30) 0.207(15)
H3 H -0.2780(30) -0.2460(30) -0.091(10)
H4 H -0.1080(30) -0.1580(30) -0.0600(10)
C5A C 0.0557(2) -0.0470(3) 0.2374(7)
N2A N 0.0203(2) -0.1302(3) 0.3962(8)
C1A C 0.0698(3) -0.1778(4) 0.3711(9)
C2A C 0.1538(3) -0.1447(4) 0.2002(1)
C3A C 0.1899(3) -0.0575(4) 0.0413(10)
C4A C 0.1397(2) -0.0077(3) 0.0555(10)
H4A H 0.1580(30) 0.0500(42) -0.0600(10)
H3A H 0.2460(30) -0.0320(42) -0.091(10)
H2A H 0.1850(30) -0.1840(42) 0.207(15)
H1A H 0.0430(20) -0.2330(36) 0.470(10)
C5B C 0.0470(3) 0.1027(2) 0.2374(7)
N2B N 0.1302(3) 0.1505(2) 0.3962(8)
C1B C 0.1778(4) 0.2476(3) 0.3711(9)
C2B C 0.1447(4) 0.2985(3) 0.2002(1)
C3B C 0.0575(4) 0.2474(3) 0.0413(10)
C4B C 0.0077(3) 0.1474(2) 0.0555(10)
H4B H -0.0500(42) 0.1080(30) -0.0600(10)
H3B H 0.0320(42) 0.2780(30) -0.091(10)
H2B H 0.1840(42) 0.3690(30) 0.207(15)
H1B H 0.2330(36) 0.2760(30) 0.470(10)
loop_
_geom_bond_atom_site_label_1
_geom_bond_atom_site_label_2
_geom_bond_site_symmetry_1
_geom_bond_site_symmetry_2
N1 C5 1_555 1_555
C1 N2 1_555 1_555
N2 C5 1_555 1_555
C2 C1 1_555 1_555
C3 C2 1_555 1_555
C4 C3 1_555 1_555
C5 C4 1_555 1_555
H1 C1 1_555 1_555
H2 C2 1_555 1_555
H3 C3 1_555 1_555
H4 C4 1_555 1_555
C5A N1 1_555 1_555
N2A C5A 1_555 1_555
C1A N2A 1_555 1_555
C2A C1A 1_555 1_555
C3A C2A 1_555 1_555
C4A C5A 1_555 1_555
H4A C4A 1_555 1_555
H3A C3A 1_555 1_555
H2A C2A 1_555 1_555
H1A C1A 1_555 1_555
C5B N1 1_555 1_555
N2B C5B 1_555 1_555
C1B N2B 1_555 1_555
C2B C1B 1_555 1_555
C3B C2B 1_555 1_555
C4B C5B 1_555 1_555
H4B C4B 1_555 1_555
H3B C3B 1_555 1_555
H2B C2B 1_555 1_555
H1B C1B 1_555 1_555
C3A C4A 1_555 1_555
C3B C4B 1_555 1_555

#END
