
#######################################################################
#
#                 Cambridge Crystallographic Data Centre
#                                CCDC 
#
#######################################################################
#
# If this CIF has been generated from an entry in the Cambridge 
# Structural Database, then it will include bibliographic, chemical, 
# crystal, experimental, refinement or atomic coordinate data resulting 
# from the CCDC's data processing and validation procedures.
#
#######################################################################

data_QIZQIZ
_chemical_formula_moiety         'C15 H12 N4'
_chemical_name_systematic        2,2',3''-tripyridylamine
_symmetry_cell_setting           monoclinic
_symmetry_space_group_name_H-M   'P 21/n'
_symmetry_Int_Tables_number      14
_space_group_name_Hall           '-P 2yn'
loop_
_symmetry_equiv_pos_site_id
_symmetry_equiv_pos_as_xyz
1 x,y,z
2 1/2-x,1/2+y,1/2-z
3 -x,-y,-z
4 1/2+x,1/2-y,1/2+z
_cell_length_a                   8.758(12)
_cell_length_b                   11.598(6)
_cell_length_c                   24.985(12)
_cell_angle_alpha                90
_cell_angle_beta                 94.72(5)
_cell_angle_gamma                90
_cell_volume                     2529.25
_cell_formula_units_Z            8
loop_
_atom_site_label
_atom_site_type_symbol
_atom_site_fract_x
_atom_site_fract_y
_atom_site_fract_z
N1 N 0.8245(3) 0.7643(3) 0.0334(1)
C1 C 0.9345(4) 0.7025(3) 0.0678(1)
N2 N 0.9479(4) 0.7333(3) 0.1202(1)
C2 C 1.0145(6) 0.6167(4) 0.0478(3)
N3 N 0.6045(4) 0.8775(3) 0.0347(1)
C3 C 1.1151(6) 0.5573(4) 0.0813(2)
N4 N 0.8128(5) 0.8811(3) -0.1043(1)
C4 C 1.1303(6) 0.5820(5) 0.1350(3)
C5 C 1.0487(6) 0.6702(6) 0.1531(2)
C6 C 0.6776(4) 0.7824(3) 0.0507(1)
C7 C 0.6130(5) 0.7011(4) 0.0832(2)
C8 C 0.4734(5) 0.7222(4) 0.1008(2)
C9 C 0.3955(5) 0.8212(4) 0.0846(2)
C10 C 0.4639(5) 0.8943(4) 0.0512(2)
C11 C 0.7737(6) 0.8295(4) -0.0592(2)
C12 C 0.8730(5) 0.8173(3) -0.0138(1)
C13 C 1.0200(5) 0.8582(4) -0.0155(2)
C14 C 1.0610(6) 0.9096(4) -0.0617(2)
C15 C 0.9568(6) 0.9194(4) -0.1046(2)
H1 H 1.0120(50) 0.6070(40) 0.0236(14)
H2 H 1.1740(60) 0.5030(50) 0.0700(20)
H3 H 1.2080(60) 0.5400(50) 0.1580(20)
H4 H 1.0510(60) 0.6910(50) 0.1920(20)
H5 H 0.6710(40) 0.6400(30) 0.0927(13)
H6 H 0.4180(50) 0.6620(40) 0.1258(17)
H7 H 0.2880(60) 0.8340(40) 0.0942(18)
H8 H 0.4100(50) 0.9590(40) 0.0381(17)
H9 H 0.6720(50) 0.8010(40) -0.0621(16)
H10 H 1.0880(40) 0.8550(30) 0.0119(14)
H11 H 1.1580(50) 0.9360(40) -0.0627(18)
H12 H 0.9750(50) 0.9550(40) -0.1390(20)
N5 N 0.5474(3) 0.4418(3) 0.2044(1)
N6 N 0.4820(4) 0.4188(3) 0.1127(1)
N7 N 0.3544(4) 0.4765(3) 0.2600(1)
N8 N 0.8164(6) 0.6518(4) 0.2708(2)
C16 C 0.5923(4) 0.4173(3) 0.1526(1)
C17 C 0.7453(5) 0.3954(3) 0.1453(2)
C18 C 0.7822(7) 0.3726(4) 0.0934(2)
C19 C 0.6690(8) 0.3723(4) 0.0522(2)
C20 C 0.5234(7) 0.3958(4) 0.0631(2)
C21 C 0.4032(4) 0.4103(3) 0.2210(1)
C22 C 0.3206(5) 0.3162(3) 0.2007(2)
C23 C 0.1836(5) 0.2905(4) 0.2203(2)
C24 C 0.1307(5) 0.3592(4) 0.2599(2)
C25 C 0.2206(5) 0.4485(4) 0.2783(2)
C26 C 0.7157(6) 0.5997(4) 0.2357(2)
C27 C 0.6550(4) 0.4925(3) 0.2434(1)
C28 C 0.7014(5) 0.4364(4) 0.2899(2)
C29 C 0.8020(5) 0.4886(5) 0.3266(2)
C30 C 0.8559(6) 0.5960(5) 0.3162(2)
H13 H 0.8240(50) 0.3940(40) 0.1743(17)
H14 H 0.8850(60) 0.3560(40) 0.0880(19)
H15 H 0.6950(50) 0.3600(40) 0.0178(19)
H16 H 0.4410(50) 0.3950(30) 0.0372(16)
H17 H 0.3580(40) 0.2690(30) 0.1734(14)
H18 H 0.1220(50) 0.2240(40) 0.2070(16)
H19 H 0.0360(60) 0.3440(40) 0.2780(20)
H20 H 0.1910(50) 0.4990(40) 0.3045(16)
H21 H 0.6840(60) 0.6380(40) 0.2050(20)
H22 H 0.6610(50) 0.3680(40) 0.2947(16)
H23 H 0.8320(60) 0.4600(50) 0.3560(20)
H24 H 0.9380(50) 0.6350(40) 0.3445(18)
loop_
_geom_bond_atom_site_label_1
_geom_bond_atom_site_label_2
_geom_bond_site_symmetry_1
_geom_bond_site_symmetry_2
N1 C1 1_555 1_555
C1 N2 1_555 1_555
N2 C5 1_555 1_555
C2 C1 1_555 1_555
N3 C6 1_555 1_555
C3 C2 1_555 1_555
N4 C11 1_555 1_555
C4 C3 1_555 1_555
N5 C16 1_555 1_555
C5 C4 1_555 1_555
N6 C16 1_555 1_555
C6 N1 1_555 1_555
N7 C21 1_555 1_555
C7 C6 1_555 1_555
C8 C7 1_555 1_555
N8 C26 1_555 1_555
C9 C8 1_555 1_555
C10 N3 1_555 1_555
C11 C12 1_555 1_555
C12 N1 1_555 1_555
C13 C12 1_555 1_555
C14 C13 1_555 1_555
C15 N4 1_555 1_555
C16 C17 1_555 1_555
C17 C18 1_555 1_555
C18 C19 1_555 1_555
C19 C20 1_555 1_555
C20 N6 1_555 1_555
C21 N5 1_555 1_555
C22 C21 1_555 1_555
C23 C22 1_555 1_555
C24 C23 1_555 1_555
C25 N7 1_555 1_555
C26 C27 1_555 1_555
C27 N5 1_555 1_555
C28 C27 1_555 1_555
C29 C28 1_555 1_555
C30 N8 1_555 1_555
H1 C2 1_555 1_555
H2 C3 1_555 1_555
H3 C4 1_555 1_555
H4 C5 1_555 1_555
H5 C7 1_555 1_555
H6 C8 1_555 1_555
H7 C9 1_555 1_555
H8 C10 1_555 1_555
H9 C11 1_555 1_555
H10 C13 1_555 1_555
H11 C14 1_555 1_555
H12 C15 1_555 1_555
H13 C17 1_555 1_555
H14 C18 1_555 1_555
H15 C19 1_555 1_555
H16 C20 1_555 1_555
H17 C22 1_555 1_555
H18 C23 1_555 1_555
H19 C24 1_555 1_555
H20 C25 1_555 1_555
H21 C26 1_555 1_555
H22 C28 1_555 1_555
H23 C29 1_555 1_555
H24 C30 1_555 1_555
C9 C10 1_555 1_555
C14 C15 1_555 1_555
C24 C25 1_555 1_555
C29 C30 1_555 1_555

#END
