
#######################################################################
#
#                 Cambridge Crystallographic Data Centre
#                                CCDC 
#
#######################################################################
#
# If this CIF has been generated from an entry in the Cambridge 
# Structural Database, then it will include bibliographic, chemical, 
# crystal, experimental, refinement or atomic coordinate data resulting 
# from the CCDC's data processing and validation procedures.
#
#######################################################################

data_QIZTOI
_chemical_formula_moiety         'C32 H66 O1 Si7,0.5(C6 H12)'
_chemical_name_systematic        
'1-hydroxy-4,5-methano-1-(2,4,6-tris(bis(trimethylsilyl)methyl)phenyl)-1-silapent-2-ene cyclohexane solvate'
_symmetry_cell_setting           monoclinic
_symmetry_space_group_name_H-M   'C 2/c'
_symmetry_Int_Tables_number      15
_space_group_name_Hall           '-C 2yn'
loop_
_symmetry_equiv_pos_site_id
_symmetry_equiv_pos_as_xyz
1 x,y,z
2 -x,y,1/2-z
3 1/2+x,1/2+y,z
4 1/2-x,1/2+y,1/2-z
5 -x,-y,-z
6 x,-y,1/2+z
7 1/2-x,1/2-y,-z
8 1/2+x,1/2-y,1/2+z
_cell_length_a                   38.407(1)
_cell_length_b                   13.2176(4)
_cell_length_c                   18.4041(6)
_cell_angle_alpha                90
_cell_angle_beta                 104.5197(7)
_cell_angle_gamma                90
_cell_volume                     9044.42
_exptl_crystal_colour            colorless
_exptl_crystal_description       prismatic
_cell_formula_units_Z            8
loop_
_atom_site_label
_atom_site_type_symbol
_atom_site_fract_x
_atom_site_fract_y
_atom_site_fract_z
Si1 Si 0.06265(2) 0.49605(6) 0.33476(4)
Si2 Si 0.13283(2) 0.76474(6) 0.40734(4)
Si3 Si 0.09979(2) 0.75678(7) 0.22615(4)
Si6 Si 0.09838(3) 0.24296(8) 0.21795(5)
Si7 Si 0.13281(2) 0.22235(7) 0.39788(5)
O1 O 0.0368(1) 0.4418(5) 0.2583(2)
C1 C 0.0378(2) 0.6037(5) 0.3575(4)
C2 C 0.0306(5) 0.593(1) 0.4249(10)
C3 C 0.0424(5) 0.501(2) 0.4664(8)
C4 C 0.0237(4) 0.405(1) 0.434(1)
C5 C 0.0611(2) 0.4282(6) 0.4232(3)
C6 C 0.10941(6) 0.4961(2) 0.3199(1)
C7 C 0.12789(6) 0.5876(2) 0.3167(1)
C8 C 0.16372(6) 0.5855(2) 0.3102(1)
C9 C 0.18166(6) 0.4958(2) 0.3064(1)
C10 C 0.16313(6) 0.4065(2) 0.3075(1)
C11 C 0.12740(6) 0.4043(2) 0.3144(1)
C12 C 0.11066(6) 0.6904(2) 0.3199(1)
C13 C 0.22064(6) 0.4931(2) 0.3017(1)
C14 C 0.11001(7) 0.3014(2) 0.3138(2)
C15 C 0.1670(1) 0.8570(3) 0.3943(2)
C16 C 0.1552(1) 0.6766(3) 0.4845(2)
C17 C 0.0967(1) 0.8334(3) 0.4393(2)
C18 C 0.1396(1) 0.8079(3) 0.1970(2)
C19 C 0.0781(1) 0.6676(3) 0.1513(2)
C20 C 0.0677(2) 0.8599(4) 0.2298(3)
C21 C 0.2681(4) 0.528(1) 0.1952(8)
C23 C 0.1876(4) 0.495(2) 0.133(1)
C25 C 0.2390(4) 0.530(2) 0.4719(7)
C26 C 0.2998(4) 0.507(3) 0.396(1)
C27 C 0.0582(2) 0.1593(5) 0.2116(4)
C28 C 0.1355(2) 0.1730(5) 0.1948(3)
C29 C 0.0850(1) 0.3421(3) 0.1449(2)
C30 C 0.1453(2) 0.3015(4) 0.4821(2)
C31 C 0.1013(1) 0.1211(5) 0.4093(4)
C32 C 0.1751(1) 0.1615(4) 0.3910(2)
H1 H 0.0308 0.6593 0.3263
H2 H 0.0185 0.6433 0.4442
H3 H 0.0516 0.5056 0.5210
H4 H 0.0035 0.4107 0.3900
H5 H 0.0216 0.3509 0.4681
H6 H 0.0819 0.3885 0.4503
H7 H 0.1756 0.6464 0.3084
H8 H 0.1746 0.3456 0.3036
H9 H 0.0869 0.6737 0.3274
H10 H 0.1768 0.8917 0.4408
H11 H 0.1559 0.9052 0.3564
H12 H 0.1858 0.8221 0.3790
H13 H 0.1749 0.6430 0.4709
H14 H 0.1382 0.6273 0.4921
H15 H 0.1642 0.7143 0.5299
H16 H 0.1069 0.8659 0.4865
H17 H 0.0786 0.7861 0.4451
H18 H 0.0860 0.8834 0.4026
H19 H 0.1548 0.7530 0.1901
H20 H 0.1529 0.8525 0.2352
H21 H 0.1316 0.8445 0.1507
H22 H 0.0564 0.6420 0.1612
H23 H 0.0942 0.6125 0.1498
H24 H 0.0725 0.7020 0.1038
H25 H 0.0623 0.8961 0.1831
H26 H 0.0782 0.9053 0.2700
H27 H 0.0460 0.8318 0.2382
H30 H 0.2763 0.4910 0.1577
H31 H 0.2865 0.5280 0.2413
H41 H 0.2403 0.6018 0.4672
H47 H 0.0865 0.3169 0.3228
H48 H 0.0490 0.1376 0.1606
H49 H 0.0400 0.1961 0.2277
H50 H 0.0652 0.1012 0.2432
H51 H 0.1267 0.1375 0.1483
H52 H 0.1452 0.1253 0.2340
H53 H 0.1539 0.2195 0.1899
H54 H 0.1049 0.3870 0.1471
H55 H 0.0650 0.3797 0.1535
H56 H 0.0782 0.3109 0.0963
H57 H 0.1603 0.2633 0.5224
H58 H 0.1240 0.3228 0.4960
H59 H 0.1583 0.3598 0.4719
H60 H 0.1142 0.0697 0.4421
H61 H 0.0903 0.0919 0.3612
H62 H 0.0830 0.1492 0.4305
H63 H 0.1917 0.2122 0.3831
H64 H 0.1702 0.1149 0.3497
H65 H 0.1855 0.1257 0.4367
H72 H 0.0202 0.4120 0.2694
H80 H 0.2248 0.4204 0.2978
Si8 Si 0.22752(3) 0.5416(1) 0.21044(5)
C41 C 0.2392(1) 0.6784(3) 0.2125(3)
H81 H 0.2410 0.6993 0.1636
H82 H 0.2619 0.6894 0.2482
H83 H 0.2209 0.7171 0.2269
H87 H 0.1895 0.5417 0.0891
H88 H 0.1668 0.5609 0.1478
H89 H 0.1795 0.4511 0.1349
Si9 Si 0.25256(4) 0.5250(1) 0.39272(8)
C44 C 0.2517(1) 0.6627(4) 0.4139(3)
H90 H 0.2600 0.7005 0.3770
H91 H 0.2671 0.6758 0.4628
H92 H 0.2276 0.6827 0.4129
H94 H 0.2532 0.4655 0.5151
H96 H 0.2991 0.4180 0.3738
H97 H 0.3146 0.4906 0.4416
H98 H 0.3082 0.5306 0.3591
C33 C 0.0102(1) -0.0980(3) 0.4770(3)
C35 C -0.0200(1) -0.0877(4) 0.5145(3)
H99 H 0.0062 -0.1565 0.4442
H100 H 0.0327 -0.1077 0.5145
C47 C 0.0124(1) -0.0041(3) 0.4321(3)
H101 H -0.0101 0.0058 0.3946
H102 H 0.0314 -0.0111 0.4065
H103 H -0.0425 -0.0781 0.4771
H104 H -0.0219 -0.1487 0.5426
C47D C -0.0124(1) 0.0041(3) 0.5679(3)
C33D C -0.0102(1) 0.0980(3) 0.5230(3)
C35D C 0.0200(1) 0.0877(4) 0.4855(3)
H103D H 0.0425 0.0781 0.5229
H104D H 0.0219 0.1487 0.4574
H99D H -0.0062 0.1565 0.5558
H100D H -0.0327 0.1077 0.4855
H101D H 0.0101 -0.0058 0.6054
H102D H -0.0314 0.0111 0.5935
Si4? Si 0.22719(8) 0.4685(4) 0.2103(2)
Si5? Si 0.2529(1) 0.4689(5) 0.3939(2)
C22? C 0.2366(5) 0.327(1) 0.2075(9)
C24? C 0.2538(5) 0.327(1) 0.408(1)
C34? C 0.0391(6) -0.003(1) 0.522(1)
H28? H 0.2242 0.5665 0.3012
H29? H 0.2629 0.5966 0.1785
H32? H 0.2559 0.3094 0.2498
H33? H 0.2432 0.3112 0.1619
H34? H 0.2154 0.2900 0.2095
H35? H 0.1902 0.4615 0.0884
H36? H 0.1856 0.5665 0.1245
H37? H 0.1664 0.4704 0.1461
H38? H 0.2707 0.3102 0.4546
H39? H 0.2608 0.2942 0.3674
H40? H 0.2303 0.3038 0.4098
H42? H 0.2548 0.5087 0.5186
H43? H 0.2148 0.5101 0.4706
H44? H 0.3000 0.5765 0.3807
H45? H 0.3090 0.4648 0.3630
H46? H 0.3146 0.5001 0.4465
H66? H 0.0022 -0.0857 0.4234
H67? H 0.0214 -0.1642 0.4856
H68? H 0.0413 -0.0034 0.5758
H69? H 0.0628 -0.0097 0.5129
H70? H 0.0110 0.0778 0.4318
H71? H 0.0355 0.1467 0.4945
H73? H 0.0218 0.5897 0.2736
O2? O 0.03671(9) 0.5546(4) 0.2602(2)
C36? C 0.0381(2) 0.3860(5) 0.3548(4)
H74? H 0.0313 0.3317 0.3222
C37? C 0.0309(4) 0.393(1) 0.4229(9)
H75? H 0.0185 0.3422 0.4408
C38? C 0.0434(4) 0.484(1) 0.4671(7)
H76? H 0.0531 0.4760 0.5214
C39? C 0.0254(4) 0.582(1) 0.4382(9)
H77? H 0.0242 0.6338 0.4746
H78? H 0.0047 0.5788 0.3953
C40? C 0.0620(1) 0.5580(4) 0.4249(3)
H79? H 0.0832 0.5955 0.4526
C42? C 0.2657(1) 0.4689(4) 0.1892(3)
H84? H 0.2591 0.3988 0.1820
H85? H 0.2866 0.4755 0.2303
H86? H 0.2708 0.4952 0.1443
C43? C 0.1858(2) 0.5214(8) 0.1368(4)
C45? C 0.2388(2) 0.4470(5) 0.4664(3)
H93? H 0.2139 0.4590 0.4641
H95? H 0.2423 0.3765 0.4576
C46? C 0.2993(2) 0.486(1) 0.3917(6)
loop_
_geom_bond_atom_site_label_1
_geom_bond_atom_site_label_2
_geom_bond_site_symmetry_1
_geom_bond_site_symmetry_2
Si1 O1 1_555 1_555
Si2 C12 1_555 1_555
Si3 C12 1_555 1_555
Si6 C14 1_555 1_555
Si7 C14 1_555 1_555
O1 H72 1_555 1_555
C1 Si1 1_555 1_555
C2 C1 1_555 1_555
C3 C2 1_555 1_555
C4 C3 1_555 1_555
C5 Si1 1_555 1_555
C6 Si1 1_555 1_555
C7 C6 1_555 1_555
C8 C7 1_555 1_555
C9 C8 1_555 1_555
C10 C9 1_555 1_555
C11 C6 1_555 1_555
C12 C7 1_555 1_555
C13 C9 1_555 1_555
C14 C11 1_555 1_555
C15 Si2 1_555 1_555
C16 Si2 1_555 1_555
C17 Si2 1_555 1_555
C18 Si3 1_555 1_555
C19 Si3 1_555 1_555
C20 Si3 1_555 1_555
C21 H30 1_555 1_555
C23 Si8 1_555 1_555
C25 H41 1_555 1_555
C26 Si9 1_555 1_555
C27 Si6 1_555 1_555
C28 Si6 1_555 1_555
C29 Si6 1_555 1_555
C30 Si7 1_555 1_555
C31 Si7 1_555 1_555
C32 Si7 1_555 1_555
C33 C35 1_555 1_555
C35 H103 1_555 1_555
H1 C1 1_555 1_555
H2 C2 1_555 1_555
H3 C3 1_555 1_555
H4 C4 1_555 1_555
H5 C4 1_555 1_555
H6 C5 1_555 1_555
H7 C8 1_555 1_555
H8 C10 1_555 1_555
H9 C12 1_555 1_555
H10 C15 1_555 1_555
H11 C15 1_555 1_555
H12 C15 1_555 1_555
H13 C16 1_555 1_555
H14 C16 1_555 1_555
H15 C16 1_555 1_555
H16 C17 1_555 1_555
H17 C17 1_555 1_555
H18 C17 1_555 1_555
H19 C18 1_555 1_555
H20 C18 1_555 1_555
H21 C18 1_555 1_555
H22 C19 1_555 1_555
H23 C19 1_555 1_555
H24 C19 1_555 1_555
H25 C20 1_555 1_555
H26 C20 1_555 1_555
H27 C20 1_555 1_555
H31 C21 1_555 1_555
H47 C14 1_555 1_555
H48 C27 1_555 1_555
H49 C27 1_555 1_555
H50 C27 1_555 1_555
H51 C28 1_555 1_555
H52 C28 1_555 1_555
H53 C28 1_555 1_555
H54 C29 1_555 1_555
H55 C29 1_555 1_555
H56 C29 1_555 1_555
H57 C30 1_555 1_555
H58 C30 1_555 1_555
H59 C30 1_555 1_555
H60 C31 1_555 1_555
H61 C31 1_555 1_555
H62 C31 1_555 1_555
H63 C32 1_555 1_555
H64 C32 1_555 1_555
H65 C32 1_555 1_555
H80 C13 1_555 1_555
Si8 C13 1_555 1_555
C41 Si8 1_555 1_555
H81 C41 1_555 1_555
H82 C41 1_555 1_555
H83 C41 1_555 1_555
H87 C23 1_555 1_555
H88 C23 1_555 1_555
H89 C23 1_555 1_555
Si9 C13 1_555 1_555
C44 Si9 1_555 1_555
H90 C44 1_555 1_555
H91 C44 1_555 1_555
H92 C44 1_555 1_555
H94 C25 1_555 1_555
H96 C26 1_555 1_555
H97 C26 1_555 1_555
H98 C26 1_555 1_555
H99 C33 1_555 1_555
H100 C33 1_555 1_555
C47 C33 1_555 1_555
H101 C47 1_555 1_555
H102 C47 1_555 1_555
H104 C35 1_555 1_555
C47D C35 1_555 1_555
C33D C47D 1_555 1_555
C35D C47 1_555 1_555
H103D C35D 1_555 1_555
H104D C35D 1_555 1_555
H99D C33D 1_555 1_555
H100D C33D 1_555 1_555
H101D C47D 1_555 1_555
H102D C47D 1_555 1_555
C3 C5 1_555 1_555
C4 C5 1_555 1_555
C10 C11 1_555 1_555
C21 Si8 1_555 1_555
C25 Si9 1_555 1_555
C33D C35D 1_555 1_555

#END
