
#######################################################################
#
#                 Cambridge Crystallographic Data Centre
#                                CCDC 
#
#######################################################################
#
# If this CIF has been generated from an entry in the Cambridge 
# Structural Database, then it will include bibliographic, chemical, 
# crystal, experimental, refinement or atomic coordinate data resulting 
# from the CCDC's data processing and validation procedures.
#
#######################################################################

data_QIZXED
_chemical_formula_moiety         'C20 H32 Cl1 N1 O6 P2'
_chemical_name_systematic        
trans-2-(1-(diethoxyphosphorylamino)cyclopentyl)-4-(p-chlorophenyl)-5,5-dimethyl-1,3,2\l^5^-dioxaphosphorinane-2-oxide
_symmetry_cell_setting           monoclinic
_symmetry_space_group_name_H-M   'P 21/c'
_symmetry_Int_Tables_number      14
_space_group_name_Hall           '-P 2ybc'
loop_
_symmetry_equiv_pos_site_id
_symmetry_equiv_pos_as_xyz
1 x,y,z
2 -x,1/2+y,1/2-z
3 -x,-y,-z
4 x,1/2-y,1/2+z
_cell_length_a                   11.813(2)
_cell_length_b                   14.536(2)
_cell_length_c                   15.179(3)
_cell_angle_alpha                90
_cell_angle_beta                 110.336(3)
_cell_angle_gamma                90
_cell_volume                     2443.99
_chemical_melting_point          '168-170 deg.C'
_cell_formula_units_Z            4
_exptl_crystal_recrystallization_method 'ethyl acetate'
loop_
_atom_site_label
_atom_site_type_symbol
_atom_site_fract_x
_atom_site_fract_y
_atom_site_fract_z
P1 P 0.59793(8) 0.13818(6) 0.19493(7)
P2 P 0.71710(6) 0.06961(5) 0.01228(5)
Cl1 Cl 0.86639(9) 0.60627(6) 0.16577(6)
O3 O 0.5321(3) 0.2089(3) 0.1057(3)
C5 C 0.5011(6) 0.3007(4) 0.1281(5)
H11 H 0.5362 0.3471 0.0995
H12 H 0.5304 0.3103 0.1956
C6 C 0.3639(7) 0.3054(7) 0.0883(7)
H13 H 0.3377 0.3648 0.1013
H14 H 0.3308 0.2586 0.1169
H15 H 0.3366 0.2958 0.0216
O4 O 0.4876(4) 0.1248(3) 0.2236(3)
C7 C 0.5119(10) 0.0588(6) 0.2983(6)
H16 H 0.5946 0.0369 0.3198
H17 H 0.4563 0.0073 0.2823
C8 C 0.4878(13) 0.1240(9) 0.3658(9)
H18 H 0.5006 0.0931 0.4244
H19 H 0.4058 0.1451 0.3404
H20 H 0.5416 0.1756 0.3760
O5 O 0.7079(2) 0.17982(16) 0.25492(16)
O6 O 0.60670(17) 0.06267(16) -0.07015(14)
O7 O 0.83361(16) 0.02964(14) -0.00383(14)
O8 O 0.75470(15) 0.17107(12) 0.04585(13)
N1 N 0.60963(19) 0.04683(15) 0.13947(16)
H21 H 0.5454 0.0136 0.1202
C9 C 0.7123(2) 0.01021(18) 0.1160(2)
C10 C 0.8302(2) 0.0106(2) 0.2009(2)
H22 H 0.8994 0.0005 0.1817
H23 H 0.8405 0.0683 0.2349
C11 C 0.8135(3) -0.0690(3) 0.2604(3)
H24 H 0.8908 -0.0960 0.2965
H25 H 0.7745 -0.0481 0.3035
C12 C 0.7348(4) -0.1381(3) 0.1916(3)
H26 H 0.6665 -0.1551 0.2096
H27 H 0.7807 -0.1933 0.1909
C13 C 0.6916(3) -0.0933(2) 0.0954(2)
H28 H 0.6068 -0.1062 0.0624
H29 H 0.7379 -0.1152 0.0578
C14 C 0.8073(2) 0.22972(19) -0.00792(18)
H30 H 0.7489 0.2355 -0.0719
C15 C 0.8247(2) 0.32306(19) 0.03742(18)
C16 C 0.8304(3) 0.3355(2) 0.12893(19)
H31 H 0.8255 0.2847 0.1647
C17 C 0.8433(3) 0.4222(2) 0.1682(2)
H32 H 0.8464 0.4297 0.2298
C18 C 0.8515(3) 0.4972(2) 0.1160(2)
C19 C 0.8468(3) 0.4871(2) 0.0250(2)
H33 H 0.8534 0.5381 -0.0098
C20 C 0.8321(3) 0.4006(2) -0.0142(2)
H34 H 0.8271 0.3938 -0.0763
C21 C 0.9221(2) 0.1822(2) -0.01327(19)
C22 C 0.9719(3) 0.2355(2) -0.0788(2)
H35 H 1.0430 0.2053 -0.0813
H36 H 0.9920 0.2970 -0.0556
H37 H 0.9121 0.2376 -0.1407
C23 C 1.0189(2) 0.1723(2) 0.0839(2)
H38 H 1.0886 0.1426 0.0782
H39 H 0.9879 0.1360 0.1233
H40 H 1.0411 0.2321 0.1113
C24 C 0.8835(3) 0.0884(2) -0.0586(2)
H41 H 0.8235 0.0970 -0.1206
H42 H 0.9528 0.0581 -0.0660
O1? O 0.4857(6) 0.1851(5) 0.1569(6)
C1? C 0.4924(13) 0.2574(9) 0.0945(10)
H1? H 0.4951 0.2291 0.0374
H2? H 0.5685 0.2892 0.1235
C2? C 0.3920(15) 0.3299(12) 0.0663(14)
H3? H 0.4131 0.3782 0.0317
H4? H 0.3824 0.3551 0.1217
H5? H 0.3177 0.3018 0.0278
O2? O 0.5654(9) 0.0857(7) 0.2864(8)
C3? C 0.4424(12) 0.0681(19) 0.2851(11)
H6? H 0.4086 0.0129 0.2500
H7? H 0.3892 0.1198 0.2591
C4? C 0.4651(16) 0.0564(13) 0.3882(11)
H8? H 0.3907 0.0415 0.3972
H9? H 0.4968 0.1127 0.4205
H10? H 0.5222 0.0077 0.4126
loop_
_geom_bond_atom_site_label_1
_geom_bond_atom_site_label_2
_geom_bond_site_symmetry_1
_geom_bond_site_symmetry_2
P1 O3 1_555 1_555
P2 O6 1_555 1_555
Cl1 C18 1_555 1_555
O3 C5 1_555 1_555
C5 H11 1_555 1_555
H12 C5 1_555 1_555
C6 C5 1_555 1_555
H13 C6 1_555 1_555
H14 C6 1_555 1_555
H15 C6 1_555 1_555
O4 P1 1_555 1_555
C7 O4 1_555 1_555
H16 C7 1_555 1_555
H17 C7 1_555 1_555
C8 C7 1_555 1_555
H18 C8 1_555 1_555
H19 C8 1_555 1_555
H20 C8 1_555 1_555
O5 P1 1_555 1_555
O7 P2 1_555 1_555
O8 P2 1_555 1_555
N1 P1 1_555 1_555
H21 N1 1_555 1_555
C9 P2 1_555 1_555
C10 C9 1_555 1_555
H22 C10 1_555 1_555
H23 C10 1_555 1_555
C11 C10 1_555 1_555
H24 C11 1_555 1_555
H25 C11 1_555 1_555
C12 C11 1_555 1_555
H26 C12 1_555 1_555
H27 C12 1_555 1_555
C13 C9 1_555 1_555
H28 C13 1_555 1_555
H29 C13 1_555 1_555
C14 O8 1_555 1_555
H30 C14 1_555 1_555
C15 C14 1_555 1_555
C16 C15 1_555 1_555
H31 C16 1_555 1_555
C17 C16 1_555 1_555
H32 C17 1_555 1_555
C18 C17 1_555 1_555
C19 C18 1_555 1_555
H33 C19 1_555 1_555
C20 C15 1_555 1_555
H34 C20 1_555 1_555
C21 C14 1_555 1_555
C22 C21 1_555 1_555
H35 C22 1_555 1_555
H36 C22 1_555 1_555
H37 C22 1_555 1_555
C23 C21 1_555 1_555
H38 C23 1_555 1_555
H39 C23 1_555 1_555
H40 C23 1_555 1_555
C24 O7 1_555 1_555
H41 C24 1_555 1_555
H42 C24 1_555 1_555
N1 C9 1_555 1_555
C12 C13 1_555 1_555
C19 C20 1_555 1_555
C21 C24 1_555 1_555

#END
