
#######################################################################
#
#                 Cambridge Crystallographic Data Centre
#                                CCDC 
#
#######################################################################
#
# If this CIF has been generated from an entry in the Cambridge 
# Structural Database, then it will include bibliographic, chemical, 
# crystal, experimental, refinement or atomic coordinate data resulting 
# from the CCDC's data processing and validation procedures.
#
#######################################################################

data_QOCBIU
_chemical_formula_moiety         'C14 H16 N2'
_chemical_name_systematic        
3,5-Dimethyl-4-(3,5-dimethyl-pyridin-4-yl)pyridine
_symmetry_cell_setting           monoclinic
_symmetry_space_group_name_H-M   'C 2/c'
_symmetry_Int_Tables_number      15
_space_group_name_Hall           '-C 2yn'
loop_
_symmetry_equiv_pos_site_id
_symmetry_equiv_pos_as_xyz
1 x,y,z
2 1/2+x,1/2+y,z
3 -x,y,1/2-z
4 1/2-x,1/2+y,1/2-z
5 -x,-y,-z
6 1/2-x,1/2-y,-z
7 x,-y,1/2+z
8 1/2+x,1/2-y,1/2+z
_cell_length_a                   28.3010(5)
_cell_length_b                   11.4661(2)
_cell_length_c                   14.8096(3)
_cell_angle_alpha                90
_cell_angle_beta                 99.471(2)
_cell_angle_gamma                90
_cell_volume                     4740.24
_exptl_crystal_colour            colorless
_exptl_crystal_description       plates
_cell_formula_units_Z            16
loop_
_atom_site_label
_atom_site_type_symbol
_atom_site_fract_x
_atom_site_fract_y
_atom_site_fract_z
N1 N 0.07995(4) 0.05153(11) 0.67333(7)
C1 C 0.06314(5) 0.15209(13) 0.70103(9)
H1 H 0.0308 0.1715 0.6779
C2 C 0.08939(4) 0.23022(13) 0.76093(8)
C3 C 0.06668(5) 0.34039(14) 0.78781(10)
H2 H 0.0396 0.3613 0.7403
H3 H 0.0904 0.4035 0.7946
H4 H 0.0552 0.3284 0.8460
C4 C 0.13725(4) 0.20268(12) 0.79432(8)
C5 C 0.15636(5) 0.09949(12) 0.76530(8)
C6 C 0.20808(5) 0.06737(14) 0.79400(9)
H5 H 0.2284 0.1288 0.7749
H6 H 0.2146 -0.0065 0.7651
H7 H 0.2150 0.0588 0.8607
C7 C 0.12595(5) 0.02803(13) 0.70627(9)
H8 H 0.1387 -0.0430 0.6878
N2 N 0.22368(4) 0.43835(11) 0.97916(7)
C8 C 0.21696(5) 0.45316(13) 0.88834(9)
H9 H 0.2316 0.5189 0.8653
C9 C 0.19014(4) 0.37951(13) 0.82513(8)
C10 C 0.18571(5) 0.40179(14) 0.72412(9)
H10 H 0.1968 0.4810 0.7140
H11 H 0.1521 0.3936 0.6953
H12 H 0.2054 0.3453 0.6972
C11 C 0.16763(4) 0.28425(12) 0.85860(8)
C12 C 0.17323(5) 0.26706(13) 0.95378(9)
C13 C 0.14945(5) 0.16803(14) 0.99490(9)
H13 H 0.1625 0.1621 1.0603
H14 H 0.1555 0.0951 0.9642
H15 H 0.1149 0.1822 0.9871
C14 C 0.20184(5) 0.34589(14) 1.00880(9)
H16 H 0.2063 0.3332 1.0730
N3 N 0.50998(4) 0.22910(12) 0.48587(8)
C15 C 0.50124(5) 0.32098(14) 0.53560(9)
H17 H 0.5239 0.3829 0.5423
C16 C 0.46122(5) 0.33264(13) 0.57859(9)
C17 C 0.45474(5) 0.44105(13) 0.63179(10)
H18 H 0.4248 0.4797 0.6049
H19 H 0.4817 0.4939 0.6297
H20 H 0.4534 0.4204 0.6955
C18 C 0.42840(5) 0.24091(13) 0.56998(8)
C19 C 0.43604(5) 0.14344(13) 0.51740(9)
C20 C 0.40206(6) 0.04191(13) 0.50446(10)
H21 H 0.3722 0.0654 0.4654
H22 H 0.3951 0.0166 0.5641
H23 H 0.4167 -0.0226 0.4755
C21 C 0.47734(5) 0.14407(14) 0.47736(9)
H24 H 0.4827 0.0786 0.4411
N4 N 0.30484(6) 0.24820(14) 0.70517(12)
C22 C 0.30290(6) 0.28650(15) 0.61962(13)
H25 H 0.2731 0.3154 0.5889
C23 C 0.34141(5) 0.28714(13) 0.57212(10)
C24 C 0.33526(5) 0.33257(15) 0.47581(10)
H26 H 0.3595 0.3923 0.4713
H27 H 0.3033 0.3668 0.4593
H28 H 0.3389 0.2683 0.4339
C25 C 0.38535(5) 0.24533(13) 0.61726(9)
C26 C 0.38889(6) 0.20601(14) 0.70772(10)
C27 C 0.43533(6) 0.16386(16) 0.76169(10)
H29 H 0.4571 0.2301 0.7765
H30 H 0.4499 0.1068 0.7254
H31 H 0.4293 0.1272 0.8185
C28 C 0.34740(7) 0.20936(16) 0.74641(12)
H32 H 0.3495 0.1816 0.8074
loop_
_geom_bond_atom_site_label_1
_geom_bond_atom_site_label_2
_geom_bond_site_symmetry_1
_geom_bond_site_symmetry_2
N1 C1 1_555 1_555
C1 H1 1_555 1_555
C2 C1 1_555 1_555
C3 C2 1_555 1_555
H2 C3 1_555 1_555
H3 C3 1_555 1_555
H4 C3 1_555 1_555
C4 C2 1_555 1_555
C5 C4 1_555 1_555
C6 C5 1_555 1_555
H5 C6 1_555 1_555
H6 C6 1_555 1_555
H7 C6 1_555 1_555
C7 N1 1_555 1_555
H8 C7 1_555 1_555
N2 C8 1_555 1_555
C8 H9 1_555 1_555
C9 C8 1_555 1_555
C10 C9 1_555 1_555
H10 C10 1_555 1_555
H11 C10 1_555 1_555
H12 C10 1_555 1_555
C11 C4 1_555 1_555
C12 C11 1_555 1_555
C13 C12 1_555 1_555
H13 C13 1_555 1_555
H14 C13 1_555 1_555
H15 C13 1_555 1_555
C14 N2 1_555 1_555
H16 C14 1_555 1_555
N3 C15 1_555 1_555
C15 H17 1_555 1_555
C16 C15 1_555 1_555
C17 C16 1_555 1_555
H18 C17 1_555 1_555
H19 C17 1_555 1_555
H20 C17 1_555 1_555
C18 C16 1_555 1_555
C19 C18 1_555 1_555
C20 C19 1_555 1_555
H21 C20 1_555 1_555
H22 C20 1_555 1_555
H23 C20 1_555 1_555
C21 N3 1_555 1_555
H24 C21 1_555 1_555
N4 C22 1_555 1_555
C22 H25 1_555 1_555
C23 C22 1_555 1_555
C24 C23 1_555 1_555
H26 C24 1_555 1_555
H27 C24 1_555 1_555
H28 C24 1_555 1_555
C25 C18 1_555 1_555
C26 C25 1_555 1_555
C27 C26 1_555 1_555
H29 C27 1_555 1_555
H30 C27 1_555 1_555
H31 C27 1_555 1_555
C28 N4 1_555 1_555
H32 C28 1_555 1_555
C5 C7 1_555 1_555
C9 C11 1_555 1_555
C12 C14 1_555 1_555
C19 C21 1_555 1_555
C23 C25 1_555 1_555
C26 C28 1_555 1_555

#END
