
#######################################################################
#
#                 Cambridge Crystallographic Data Centre
#                                CCDC 
#
#######################################################################
#
# If this CIF has been generated from an entry in the Cambridge 
# Structural Database, then it will include bibliographic, chemical, 
# crystal, experimental, refinement or atomic coordinate data resulting 
# from the CCDC's data processing and validation procedures.
#
#######################################################################

data_QOFYAN
_chemical_formula_moiety         'C27 H24 Cl2 N2 O6'
_chemical_name_systematic        
'ethyl 2-(6-chloro-2-(4-chlorophenyl)-3-nitro-3,4-dihydro-2H-chromen-4-yl)-3-((4-methoxyphenyl)amino)acrylate'
_symmetry_cell_setting           triclinic
_symmetry_space_group_name_H-M   'P -1'
_symmetry_Int_Tables_number      2
_space_group_name_Hall           '-P 1'
loop_
_symmetry_equiv_pos_site_id
_symmetry_equiv_pos_as_xyz
1 x,y,z
2 -x,-y,-z
_cell_length_a                   10.7050(10)
_cell_length_b                   11.3094(10)
_cell_length_c                   11.5972(12)
_cell_angle_alpha                99.263(3)
_cell_angle_beta                 93.475(3)
_cell_angle_gamma                112.901(2)
_cell_volume                     1264.72
_cell_formula_units_Z            2
loop_
_atom_site_label
_atom_site_type_symbol
_atom_site_fract_x
_atom_site_fract_y
_atom_site_fract_z
C1 C 1.2724(2) 0.6904(2) 0.4817(2)
H1 H 1.3101 0.7714 0.5331
C2 C 1.3512(3) 0.6215(3) 0.4569(2)
H2 H 1.4417 0.6558 0.4923
C3 C 1.2986(2) 0.5029(3) 0.3809(2)
C4 C 1.3402(3) 0.3275(3) 0.2754(3)
H3 H 1.2536 0.2669 0.2903
H4 H 1.4055 0.2888 0.2774
H5 H 1.3298 0.3479 0.1991
C5 C 1.1643(3) 0.4507(2) 0.3323(2)
H6 H 1.1272 0.3693 0.2816
C6 C 1.0831(2) 0.5194(2) 0.3585(2)
H7 H 0.9913 0.4827 0.3266
C7 C 1.1377(2) 0.6411(2) 0.43112(18)
C8 C 0.94843(19) 0.69964(18) 0.38424(17)
H8 H 0.9320 0.6442 0.3113
C9 C 0.85779(19) 0.75400(17) 0.40437(15)
C10 C 0.8747(2) 0.84278(18) 0.51437(16)
C11 C 0.7797(2) 0.9777(2) 0.62336(18)
H9 H 0.8569 1.0591 0.6228
H10 H 0.7921 0.9499 0.6965
C12 C 0.6500(3) 0.9961(3) 0.6125(2)
H11 H 0.6319 1.0103 0.5349
H12 H 0.6578 1.0706 0.6702
H13 H 0.5763 0.9193 0.6253
C13 C 0.6993(2) 0.60914(19) 0.10027(17)
C14 C 0.6682(2) 0.4981(2) 0.01314(18)
H14 H 0.6616 0.5038 -0.0660
C15 C 0.6474(2) 0.3804(2) 0.04376(19)
H15 H 0.6278 0.3060 -0.0140
C16 C 0.6560(2) 0.37404(19) 0.16111(19)
C17 C 0.6823(2) 0.48230(19) 0.24757(18)
H16 H 0.6847 0.4748 0.3263
C18 C 0.70546(18) 0.60335(18) 0.21835(16)
C19 C 0.73439(19) 0.72218(17) 0.31424(15)
H17 H 0.6546 0.7016 0.3568
C20 C 0.7488(2) 0.84377(19) 0.26351(16)
H18 H 0.8142 0.9214 0.3191
C21 C 0.8034(2) 0.84071(19) 0.14474(16)
H19 H 0.8947 0.8408 0.1583
C22 C 0.8177(2) 0.95404(19) 0.08595(16)
C23 C 0.9360(2) 1.0673(2) 0.11295(19)
H20 H 1.0039 1.0753 0.1713
C24 C 0.9552(2) 1.1692(2) 0.0545(2)
H21 H 1.0355 1.2450 0.0728
C25 C 0.8542(2) 1.1566(2) -0.03070(19)
C26 C 0.7340(2) 1.0470(2) -0.05685(19)
H22 H 0.6650 1.0411 -0.1131
C27 C 0.7163(2) 0.9456(2) 0.00101(18)
H23 H 0.6353 0.8705 -0.0172
Cl1 Cl 0.63275(7) 0.22496(5) 0.19955(6)
Cl2 Cl 0.88111(8) 1.28116(7) -0.10973(7)
N1 N 1.05912(17) 0.71514(16) 0.45581(15)
H24 H 1.0835 0.7732 0.5200
N2 N 0.6153(2) 0.8572(2) 0.24971(17)
O1 O 1.3857(2) 0.4412(2) 0.36089(19)
O2 O 0.97243(15) 0.88319(14) 0.59184(12)
O3 O 0.76968(14) 0.87841(13) 0.52352(11)
O4 O 0.72072(15) 0.72363(13) 0.06198(11)
O5 O 0.5117(2) 0.7587(3) 0.21566(18)
O6 O 0.6199(3) 0.9676(2) 0.2730(2)
loop_
_geom_bond_atom_site_label_1
_geom_bond_atom_site_label_2
_geom_bond_site_symmetry_1
_geom_bond_site_symmetry_2
C1 H1 1_555 1_555
C2 C1 1_555 1_555
H2 C2 1_555 1_555
C3 C2 1_555 1_555
C4 H3 1_555 1_555
H4 C4 1_555 1_555
H5 C4 1_555 1_555
C5 C3 1_555 1_555
H6 C5 1_555 1_555
C6 C5 1_555 1_555
H7 C6 1_555 1_555
C7 C1 1_555 1_555
C8 H8 1_555 1_555
C9 C8 1_555 1_555
C10 C9 1_555 1_555
C11 H9 1_555 1_555
H10 C11 1_555 1_555
C12 C11 1_555 1_555
H11 C12 1_555 1_555
H12 C12 1_555 1_555
H13 C12 1_555 1_555
C13 C14 1_555 1_555
C14 H14 1_555 1_555
C15 C14 1_555 1_555
H15 C15 1_555 1_555
C16 C15 1_555 1_555
C17 C16 1_555 1_555
H16 C17 1_555 1_555
C18 C13 1_555 1_555
C19 C9 1_555 1_555
H17 C19 1_555 1_555
C20 C19 1_555 1_555
H18 C20 1_555 1_555
C21 C20 1_555 1_555
H19 C21 1_555 1_555
C22 C21 1_555 1_555
C23 C22 1_555 1_555
H20 C23 1_555 1_555
C24 C23 1_555 1_555
H21 C24 1_555 1_555
C25 C24 1_555 1_555
C26 C25 1_555 1_555
H22 C26 1_555 1_555
C27 C22 1_555 1_555
H23 C27 1_555 1_555
Cl1 C16 1_555 1_555
Cl2 C25 1_555 1_555
N1 C7 1_555 1_555
H24 N1 1_555 1_555
N2 C20 1_555 1_555
O1 C3 1_555 1_555
O2 C10 1_555 1_555
O3 C10 1_555 1_555
O4 C13 1_555 1_555
O5 N2 1_555 1_555
O6 N2 1_555 1_555
C4 O1 1_555 1_555
C6 C7 1_555 1_555
C8 N1 1_555 1_555
C11 O3 1_555 1_555
C17 C18 1_555 1_555
C18 C19 1_555 1_555
C21 O4 1_555 1_555
C26 C27 1_555 1_555

#END
