
#######################################################################
#
#                 Cambridge Crystallographic Data Centre
#                                CCDC 
#
#######################################################################
#
# If this CIF has been generated from an entry in the Cambridge 
# Structural Database, then it will include bibliographic, chemical, 
# crystal, experimental, refinement or atomic coordinate data resulting 
# from the CCDC's data processing and validation procedures.
#
#######################################################################

data_QOFZAM
_chemical_formula_moiety         'C7 H4 S2 Se4'
_chemical_name_systematic        Methylenedithiotetraselenafulvalene
_symmetry_cell_setting           monoclinic
_symmetry_space_group_name_H-M   'P 21/a'
_symmetry_Int_Tables_number      14
_space_group_name_Hall           '-P 2yab'
loop_
_symmetry_equiv_pos_site_id
_symmetry_equiv_pos_as_xyz
1 x,y,z
2 1/2+x,1/2-y,z
3 -x,-y,-z
4 1/2-x,1/2+y,-z
_cell_length_a                   11.783(3)
_cell_length_b                   8.192(3)
_cell_length_c                   12.622(4)
_cell_angle_alpha                90
_cell_angle_beta                 115.12(2)
_cell_angle_gamma                90
_cell_volume                     1103.12
_exptl_crystal_colour            orange
_exptl_crystal_description       plate
_cell_formula_units_Z            4
_exptl_crystal_recrystallization_method chlorobenzene
loop_
_atom_site_label
_atom_site_type_symbol
_atom_site_fract_x
_atom_site_fract_y
_atom_site_fract_z
Se1 Se 0.2316(1) 0.4798(2) 0.1301(1)
Se2 Se 0.0056(1) 0.2211(2) 0.0640(1)
Se3 Se -0.0301(2) 0.2322(2) -0.2220(1)
Se4 Se 0.1894(2) 0.4949(2) -0.1492(2)
S1 S 0.3049(4) 0.3949(6) 0.3974(4)
S2 S 0.1009(4) 0.1588(5) 0.3403(4)
C1 C 0.109(1) 0.348(2) 0.007(2)
C2 C 0.116(1) 0.256(2) 0.218(1)
C3 C 0.209(1) 0.361(2) 0.249(1)
C4 C 0.182(1) 0.323(2) 0.440(1)
C5 C 0.089(1) 0.357(2) -0.101(1)
C6 C 0.137(2) 0.389(2) -0.293(1)
C7 C 0.044(2) 0.279(2) -0.328(2)
loop_
_geom_bond_atom_site_label_1
_geom_bond_atom_site_label_2
_geom_bond_site_symmetry_1
_geom_bond_site_symmetry_2
Se1 C1 1_555 1_555
Se2 C1 1_555 1_555
Se3 C5 1_555 1_555
Se4 C5 1_555 1_555
S1 C3 1_555 1_555
S2 C2 1_555 1_555
C1 C5 1_555 1_555
C2 Se2 1_555 1_555
C3 Se1 1_555 1_555
C4 S1 1_555 1_555
C6 Se4 1_555 1_555
C7 Se3 1_555 1_555
S2 C4 1_555 1_555
C2 C3 1_555 1_555
C6 C7 1_555 1_555

#END
