
#######################################################################
#
#                 Cambridge Crystallographic Data Centre
#                                CCDC 
#
#######################################################################
#
# If this CIF has been generated from an entry in the Cambridge 
# Structural Database, then it will include bibliographic, chemical, 
# crystal, experimental, refinement or atomic coordinate data resulting 
# from the CCDC's data processing and validation procedures.
#
#######################################################################

data_QOGLIH
_chemical_formula_moiety         'C20 H22 N4'
_chemical_name_systematic        
3-Amino-4'-(N,N-diethylamino)-5-ethylbiphenyl-2,4-dicarbonitrile
_symmetry_cell_setting           monoclinic
_symmetry_space_group_name_H-M   'P 21/c'
_symmetry_Int_Tables_number      14
_space_group_name_Hall           '-P 2ybc'
loop_
_symmetry_equiv_pos_site_id
_symmetry_equiv_pos_as_xyz
1 x,y,z
2 x,1/2-y,1/2+z
3 -x,-y,-z
4 -x,1/2+y,1/2-z
_cell_length_a                   10.8918(2)
_cell_length_b                   10.3458(2)
_cell_length_c                   16.5707(2)
_cell_angle_alpha                90
_cell_angle_beta                 101.4960(10)
_cell_angle_gamma                90
_cell_volume                     1829.8
_exptl_crystal_colour            'pale yellow'
_exptl_crystal_description       rectangular
_cell_formula_units_Z            4
_exptl_crystal_recrystallization_method 'ethyl acetate/hexane'
loop_
_atom_site_label
_atom_site_type_symbol
_atom_site_fract_x
_atom_site_fract_y
_atom_site_fract_z
N1 N 0.96593(15) 0.08450(16) 0.20255(10)
H1 H 1.0043 0.1505 0.2272
H2 H 0.9603 0.0145 0.2296
N2 N 0.86240(19) -0.22716(19) 0.16255(12)
N3 N 1.02809(18) 0.40045(18) 0.15633(11)
N4 N 0.51316(17) -0.41009(19) -0.19047(11)
C1 C 0.72722(17) -0.11851(19) -0.05016(11)
C2 C 0.63425(19) -0.1841(2) -0.02130(12)
H3 H 0.6193 -0.1637 0.0305
C3 C 0.5630(2) -0.2786(2) -0.06669(13)
H4 H 0.5003 -0.3193 -0.0453
C4 C 0.58311(18) -0.3149(2) -0.14436(12)
C5 C 0.67786(17) -0.25020(19) -0.17304(11)
H5 H 0.6955 -0.2727 -0.2239
C6 C 0.74603(17) -0.15358(19) -0.12764(12)
H6 H 0.8067 -0.1104 -0.1496
C7 C 0.79815(17) -0.00936(19) -0.00555(11)
C8 C 0.85218(17) -0.01611(18) 0.07884(11)
C9 C 0.91466(17) 0.09071(18) 0.12149(11)
C10 C 0.92264(17) 0.20465(18) 0.07565(11)
C11 C 0.87361(18) 0.2107(2) -0.00893(12)
C12 C 0.81276(19) 0.1047(2) -0.04730(12)
H7 H 0.7799 0.1092 -0.1035
C13 C 0.85451(19) -0.1355(2) 0.12362(12)
C14 C 0.98159(18) 0.3146(2) 0.11921(12)
C15 C 0.8801(2) 0.3355(2) -0.05525(13)
H8 H 0.8740 0.3162 -0.1132
H9 H 0.9607 0.3760 -0.0352
C16 C 0.5292(2) -0.4405(3) -0.27370(15)
H10 H 0.5497 -0.3618 -0.3000
H11 H 0.4505 -0.4729 -0.3053
C17 C 0.6291(3) -0.5381(3) -0.27568(18)
H12 H 0.7073 -0.5070 -0.2444
H13 H 0.6371 -0.5525 -0.3316
H14 H 0.6074 -0.6178 -0.2523
C18 C 0.4215(2) -0.4881(3) -0.15801(16)
H15 H 0.4487 -0.4969 -0.0989
H16 H 0.4180 -0.5740 -0.1819
C19 C 0.2958(3) -0.4305(3) -0.17613(19)
H17 H 0.2983 -0.3467 -0.1509
H18 H 0.2386 -0.4850 -0.1547
H19 H 0.2684 -0.4219 -0.2346
C20 C 0.7786(3) 0.4282(3) -0.04611(19)
H20 H 0.6985 0.3909 -0.0692
H21 H 0.7890 0.5071 -0.0745
H22 H 0.7829 0.4462 0.0112
loop_
_geom_bond_atom_site_label_1
_geom_bond_atom_site_label_2
_geom_bond_site_symmetry_1
_geom_bond_site_symmetry_2
N1 H1 1_555 1_555
H2 N1 1_555 1_555
N2 C13 1_555 1_555
N3 C14 1_555 1_555
N4 C4 1_555 1_555
C1 C2 1_555 1_555
C2 H3 1_555 1_555
C3 C2 1_555 1_555
H4 C3 1_555 1_555
C4 C3 1_555 1_555
C5 C4 1_555 1_555
H5 C5 1_555 1_555
C6 C1 1_555 1_555
H6 C6 1_555 1_555
C7 C1 1_555 1_555
C8 C7 1_555 1_555
C9 N1 1_555 1_555
C10 C9 1_555 1_555
C11 C10 1_555 1_555
C12 C7 1_555 1_555
H7 C12 1_555 1_555
C13 C8 1_555 1_555
C14 C10 1_555 1_555
C15 C11 1_555 1_555
H8 C15 1_555 1_555
H9 C15 1_555 1_555
C16 N4 1_555 1_555
H10 C16 1_555 1_555
H11 C16 1_555 1_555
C17 C16 1_555 1_555
H12 C17 1_555 1_555
H13 C17 1_555 1_555
H14 C17 1_555 1_555
C18 N4 1_555 1_555
H15 C18 1_555 1_555
H16 C18 1_555 1_555
C19 C18 1_555 1_555
H17 C19 1_555 1_555
H18 C19 1_555 1_555
H19 C19 1_555 1_555
C20 C15 1_555 1_555
H20 C20 1_555 1_555
H21 C20 1_555 1_555
H22 C20 1_555 1_555
C5 C6 1_555 1_555
C8 C9 1_555 1_555
C11 C12 1_555 1_555

#END
