
#######################################################################
#
#                 Cambridge Crystallographic Data Centre
#                                CCDC 
#
#######################################################################
#
# If this CIF has been generated from an entry in the Cambridge 
# Structural Database, then it will include bibliographic, chemical, 
# crystal, experimental, refinement or atomic coordinate data resulting 
# from the CCDC's data processing and validation procedures.
#
#######################################################################

data_QOGXOB
_chemical_formula_moiety         'C24 H24 O4'
_chemical_name_systematic        
'4-Allyl-2-methoxyphenyl 2-(6-methoxy-2-naphthyl)propanoate'
_symmetry_cell_setting           orthorhombic
_symmetry_space_group_name_H-M   'P 21 21 21'
_symmetry_Int_Tables_number      19
_space_group_name_Hall           'P 2ac 2ab'
loop_
_symmetry_equiv_pos_site_id
_symmetry_equiv_pos_as_xyz
1 x,y,z
2 1/2-x,-y,1/2+z
3 -x,1/2+y,1/2-z
4 1/2+x,1/2-y,-z
_cell_length_a                   6.0563(12)
_cell_length_b                   10.234(2)
_cell_length_c                   32.654(7)
_cell_angle_alpha                90
_cell_angle_beta                 90
_cell_angle_gamma                90
_cell_volume                     2023.9
_cell_formula_units_Z            4
loop_
_atom_site_label
_atom_site_type_symbol
_atom_site_fract_x
_atom_site_fract_y
_atom_site_fract_z
C1 C 0.6982(4) 0.4175(3) 0.77697(7)
C2 C 0.7456(4) 0.4032(3) 0.73598(7)
H1 H 0.6596 0.3473 0.7202
C3 C 0.9184(4) 0.4700(3) 0.71782(7)
C4 C 1.0449(4) 0.5525(3) 0.74144(8)
H2 H 1.1614 0.5978 0.7295
C5 C 1.0009(4) 0.5685(3) 0.78258(8)
H3 H 1.0880 0.6238 0.7984
C6 C 0.8293(3) 0.5031(3) 0.79984(6)
C7 C 0.3856(5) 0.2755(3) 0.77716(11)
H4 H 0.4614 0.1993 0.7674
H5 H 0.3244 0.3225 0.7544
H6 H 0.2690 0.2496 0.7953
C8 C 0.9606(5) 0.4578(4) 0.67191(9)
H7 H 0.9946 0.3675 0.6655
H8 H 0.8273 0.4813 0.6572
C9 C 1.3216(6) 0.5257(6) 0.64329(11)
C10 C 1.1887(7) 0.4395(7) 0.66044(12)
H9 H 1.2478 0.3574 0.6659
C11 C 0.6104(4) 0.5869(3) 0.85345(7)
C12 C 0.5748(4) 0.5761(3) 0.89910(7)
H10 H 0.7194 0.5787 0.9126
C13 C 0.4398(7) 0.6912(4) 0.91440(9)
H11 H 0.4123 0.6813 0.9432
H12 H 0.3018 0.6943 0.9000
H13 H 0.5199 0.7707 0.9097
C14 C 0.4679(4) 0.4466(3) 0.90882(6)
C15 C 0.5646(4) 0.3600(3) 0.93517(6)
H14 H 0.7015 0.3802 0.9464
C16 C 0.4616(3) 0.2399(2) 0.94583(6)
C17 C 0.5556(4) 0.1519(3) 0.97419(7)
H15 H 0.6909 0.1716 0.9861
C18 C 0.4514(5) 0.0389(3) 0.98429(7)
H16 H 0.5155 -0.0177 1.0031
C19 C 0.2461(4) 0.0069(3) 0.96636(7)
C20 C 0.1495(4) 0.0892(3) 0.93912(7)
H17 H 0.0145 0.0672 0.9274
C21 C 0.2534(4) 0.2087(3) 0.92835(6)
C22 C 0.1583(4) 0.2992(3) 0.90111(7)
H18 H 0.0221 0.2806 0.8893
C23 C 0.2614(4) 0.4127(3) 0.89179(7)
H19 H 0.1941 0.4701 0.8736
C24 C -0.0367(5) -0.1535(4) 0.96037(12)
H20 H -0.0139 -0.1617 0.9314
H21 H -0.1525 -0.0916 0.9655
H22 H -0.0774 -0.2369 0.9715
O1 O 0.5358(3) 0.3568(2) 0.79834(5)
O2 O 0.7887(2) 0.51469(19) 0.84216(4)
O3 O 0.5011(3) 0.64763(19) 0.83017(5)
O4 O 0.1601(3) -0.1099(2) 0.97910(6)
C25? C 1.136(3) 0.5382(19) 0.6584(3)
H23? H 1.1018 0.6260 0.6619
H24? H 1.3777 0.4428 0.6381
H25? H 1.4054 0.5993 0.6371
loop_
_geom_bond_atom_site_label_1
_geom_bond_atom_site_label_2
_geom_bond_site_symmetry_1
_geom_bond_site_symmetry_2
C1 C2 1_555 1_555
C2 H1 1_555 1_555
C3 C2 1_555 1_555
C4 C3 1_555 1_555
H2 C4 1_555 1_555
C5 C4 1_555 1_555
H3 C5 1_555 1_555
C6 C1 1_555 1_555
C7 H4 1_555 1_555
H5 C7 1_555 1_555
H6 C7 1_555 1_555
C8 C3 1_555 1_555
H7 C8 1_555 1_555
H8 C8 1_555 1_555
C9 C10 1_555 1_555
C10 C8 1_555 1_555
H9 C10 1_555 1_555
C11 C12 1_555 1_555
C12 H10 1_555 1_555
C13 C12 1_555 1_555
H11 C13 1_555 1_555
H12 C13 1_555 1_555
H13 C13 1_555 1_555
C14 C12 1_555 1_555
C15 C14 1_555 1_555
H14 C15 1_555 1_555
C16 C15 1_555 1_555
C17 C16 1_555 1_555
H15 C17 1_555 1_555
C18 C17 1_555 1_555
H16 C18 1_555 1_555
C19 C18 1_555 1_555
C20 C19 1_555 1_555
H17 C20 1_555 1_555
C21 C16 1_555 1_555
C22 C21 1_555 1_555
H18 C22 1_555 1_555
C23 C14 1_555 1_555
H19 C23 1_555 1_555
C24 H20 1_555 1_555
H21 C24 1_555 1_555
H22 C24 1_555 1_555
O1 C1 1_555 1_555
O2 C6 1_555 1_555
O3 C11 1_555 1_555
O4 C19 1_555 1_555
C5 C6 1_555 1_555
C7 O1 1_555 1_555
C11 O2 1_555 1_555
C20 C21 1_555 1_555
C22 C23 1_555 1_555
C24 O4 1_555 1_555

#END
