
#######################################################################
#
#                 Cambridge Crystallographic Data Centre
#                                CCDC 
#
#######################################################################
#
# If this CIF has been generated from an entry in the Cambridge 
# Structural Database, then it will include bibliographic, chemical, 
# crystal, experimental, refinement or atomic coordinate data resulting 
# from the CCDC's data processing and validation procedures.
#
#######################################################################

data_QOHQUA01
_chemical_formula_moiety         'C21 H22 N2'
_chemical_name_systematic        
7-Benzylidene-2-methyl-3-phenyl-3,3a,4,5,6,7-hexahydro-2H-indazole
_symmetry_cell_setting           orthorhombic
_symmetry_space_group_name_H-M   'P c c n'
_symmetry_Int_Tables_number      56
_space_group_name_Hall           '-P 2ab 2ac'
loop_
_symmetry_equiv_pos_site_id
_symmetry_equiv_pos_as_xyz
1 x,y,z
2 1/2-x,1/2-y,z
3 1/2+x,-y,1/2-z
4 -x,1/2+y,1/2-z
5 -x,-y,-z
6 1/2+x,1/2+y,-z
7 1/2-x,y,1/2+z
8 x,1/2-y,1/2+z
_cell_length_a                   17.2028(4)
_cell_length_b                   27.1338(11)
_cell_length_c                   7.1049(3)
_cell_angle_alpha                90
_cell_angle_beta                 90
_cell_angle_gamma                90
_cell_volume                     3316.41
_exptl_crystal_colour            yellow
_cell_formula_units_Z            8
loop_
_atom_site_label
_atom_site_type_symbol
_atom_site_fract_x
_atom_site_fract_y
_atom_site_fract_z
N1 N 0.10194(9) 0.04561(6) 0.3418(2)
N2 N 0.09129(9) 0.09517(5) 0.2848(2)
C1 C 0.14474(13) -0.02512(7) -0.1601(3)
H1 H 0.1743 -0.0388 -0.2677
H2 H 0.0887 -0.0288 -0.1881
C2 C 0.16401(13) 0.02942(7) -0.1382(3)
H3 H 0.2193 0.0336 -0.1031
H4 H 0.1548 0.0470 -0.2583
C3 C 0.11203(11) 0.05003(7) 0.0145(3)
H5 H 0.0576 0.0508 -0.0348
C4 C 0.11271(10) 0.01938(7) 0.1916(3)
C5 C 0.12753(10) -0.03374(7) 0.1945(3)
C6 C 0.16442(11) -0.05424(7) 0.0174(3)
H6 H 0.1471 -0.0887 0.0004
H7 H 0.2216 -0.0546 0.0337
C7 C 0.12997(11) 0.10036(7) 0.1000(3)
H8 H 0.1873 0.1026 0.1214
C8 C 0.10458(11) 0.14512(7) -0.0093(3)
C9 C 0.02695(11) 0.15309(7) -0.0549(3)
H9 H -0.0115 0.1307 -0.0118
C10 C 0.00520(12) 0.19328(7) -0.1625(3)
H10 H -0.0481 0.1984 -0.1919
C11 C 0.06055(13) 0.22593(7) -0.2273(3)
H11 H 0.0456 0.2532 -0.3029
C12 C 0.13743(12) 0.21890(8) -0.1820(4)
H12 H 0.1757 0.2415 -0.2253
C13 C 0.15900(12) 0.17880(7) -0.0730(3)
H13 H 0.2122 0.1743 -0.0414
C14 C 0.11093(10) -0.05967(7) 0.3515(3)
H14 H 0.0831 -0.0419 0.4451
C15 C 0.12895(10) -0.11090(7) 0.4009(3)
C16 C 0.08669(10) -0.13241(7) 0.5489(3)
H15 H 0.0483 -0.1135 0.6121
C17 C 0.09977(11) -0.18047(7) 0.6046(3)
H16 H 0.0699 -0.1943 0.7038
C18 C 0.15620(11) -0.20856(7) 0.5163(3)
H17 H 0.1641 -0.2420 0.5516
C19 C 0.20112(11) -0.18735(7) 0.3755(3)
H18 H 0.2412 -0.2060 0.3176
C20 C 0.18793(10) -0.13912(7) 0.3187(3)
H19 H 0.2194 -0.1251 0.2227
C21 C 0.11758(12) 0.12914(7) 0.4303(3)
H20 H 0.0879 0.1234 0.5460
H21 H 0.1095 0.1631 0.3879
H22 H 0.1730 0.1237 0.4549
loop_
_geom_bond_atom_site_label_1
_geom_bond_atom_site_label_2
_geom_bond_site_symmetry_1
_geom_bond_site_symmetry_2
N1 N2 1_555 1_555
N2 C7 1_555 1_555
C1 H1 1_555 1_555
H2 C1 1_555 1_555
C2 C1 1_555 1_555
H3 C2 1_555 1_555
H4 C2 1_555 1_555
C3 C2 1_555 1_555
H5 C3 1_555 1_555
C4 N1 1_555 1_555
C5 C4 1_555 1_555
C6 C1 1_555 1_555
H6 C6 1_555 1_555
H7 C6 1_555 1_555
C7 C3 1_555 1_555
H8 C7 1_555 1_555
C8 C7 1_555 1_555
C9 C8 1_555 1_555
H9 C9 1_555 1_555
C10 C9 1_555 1_555
H10 C10 1_555 1_555
C11 C10 1_555 1_555
H11 C11 1_555 1_555
C12 C11 1_555 1_555
H12 C12 1_555 1_555
C13 C8 1_555 1_555
H13 C13 1_555 1_555
C14 C5 1_555 1_555
H14 C14 1_555 1_555
C15 C14 1_555 1_555
C16 C15 1_555 1_555
H15 C16 1_555 1_555
C17 C16 1_555 1_555
H16 C17 1_555 1_555
C18 C17 1_555 1_555
H17 C18 1_555 1_555
C19 C18 1_555 1_555
H18 C19 1_555 1_555
C20 C15 1_555 1_555
H19 C20 1_555 1_555
C21 N2 1_555 1_555
H20 C21 1_555 1_555
H21 C21 1_555 1_555
H22 C21 1_555 1_555
C3 C4 1_555 1_555
C5 C6 1_555 1_555
C12 C13 1_555 1_555
C19 C20 1_555 1_555

#END
