
#######################################################################
#
#                 Cambridge Crystallographic Data Centre
#                                CCDC 
#
#######################################################################
#
# If this CIF has been generated from an entry in the Cambridge 
# Structural Database, then it will include bibliographic, chemical, 
# crystal, experimental, refinement or atomic coordinate data resulting 
# from the CCDC's data processing and validation procedures.
#
#######################################################################

data_QOJJAC
_chemical_formula_moiety         'C17 H16 F2 O2 S1'
_chemical_name_systematic        
1,3-difluoro-2-(2-((2-(4-methylphenyl)vinyl)sulfonyl)ethyl)benzene
_symmetry_cell_setting           monoclinic
_symmetry_space_group_name_H-M   'P 21/c'
_symmetry_Int_Tables_number      14
_space_group_name_Hall           '-P 2ybc'
loop_
_symmetry_equiv_pos_site_id
_symmetry_equiv_pos_as_xyz
1 x,y,z
2 -x,1/2+y,1/2-z
3 -x,-y,-z
4 x,1/2-y,1/2+z
_cell_length_a                   4.7898(3)
_cell_length_b                   29.781(2)
_cell_length_c                   10.5495(8)
_cell_angle_alpha                90
_cell_angle_beta                 93.921(2)
_cell_angle_gamma                90
_cell_volume                     1501.31
_exptl_crystal_colour            colorless
_exptl_crystal_description       Columnar
_cell_formula_units_Z            4
loop_
_atom_site_label
_atom_site_type_symbol
_atom_site_fract_x
_atom_site_fract_y
_atom_site_fract_z
C1 C 0.2288(3) 0.85038(5) 0.14960(14)
H1 H 0.3690 0.8625 0.0940
H2 H 0.3302 0.8360 0.2239
C2 C 0.0470(3) 0.81528(5) 0.07636(15)
H3 H -0.0984 0.8042 0.1309
H4 H -0.0483 0.8294 0.0003
C3 C 0.2220(3) 0.77624(5) 0.03599(14)
C4 C 0.2175(3) 0.73423(5) 0.09263(14)
C5 C 0.3766(3) 0.69818(5) 0.05774(15)
H5 H 0.3661 0.6701 0.0996
C6 C 0.5521(3) 0.70415(5) -0.04010(15)
H6 H 0.6643 0.6799 -0.0655
C7 C 0.5651(3) 0.74530(5) -0.10122(15)
H7 H 0.6835 0.7495 -0.1689
C8 C 0.4015(3) 0.77986(5) -0.06111(14)
C9 C 0.2630(3) 0.93462(5) 0.25832(14)
H8 H 0.3739 0.9288 0.3347
C10 C 0.2980(3) 0.97277(5) 0.19617(14)
H9 H 0.1782 0.9781 0.1221
C11 C 0.5060(3) 1.00740(4) 0.23231(14)
C12 C 0.5631(3) 1.04108(5) 0.14592(14)
H10 H 0.4630 1.0419 0.0650
C13 C 0.7651(3) 1.07345(5) 0.17711(15)
H11 H 0.8055 1.0955 0.1159
C14 C 0.9093(3) 1.07423(5) 0.29601(15)
C15 C 0.8485(3) 1.04089(5) 0.38318(15)
H12 H 0.9421 1.0410 0.4655
C16 C 0.6536(3) 1.00766(5) 0.35135(14)
H13 H 0.6198 0.9848 0.4111
C17 C 1.1266(3) 1.10952(5) 0.33163(17)
H14 H 1.3139 1.0968 0.3256
H15 H 1.1053 1.1196 0.4189
H16 H 1.1016 1.1351 0.2735
F1 F 0.04388(18) 0.72833(3) 0.18772(8)
F2 F 0.4156(2) 0.82039(3) -0.11978(9)
O1 O -0.1320(2) 0.87871(4) 0.30750(10)
O2 O -0.1454(2) 0.91254(3) 0.09283(10)
S1 S 0.01687(7) 0.89496(2) 0.20198(3)
loop_
_geom_bond_atom_site_label_1
_geom_bond_atom_site_label_2
_geom_bond_site_symmetry_1
_geom_bond_site_symmetry_2
C1 H1 1_555 1_555
H2 C1 1_555 1_555
C2 C1 1_555 1_555
H3 C2 1_555 1_555
H4 C2 1_555 1_555
C3 C2 1_555 1_555
C4 C3 1_555 1_555
C5 C4 1_555 1_555
H5 C5 1_555 1_555
C6 C5 1_555 1_555
H6 C6 1_555 1_555
C7 C6 1_555 1_555
H7 C7 1_555 1_555
C8 C3 1_555 1_555
C9 H8 1_555 1_555
C10 C9 1_555 1_555
H9 C10 1_555 1_555
C11 C10 1_555 1_555
C12 C11 1_555 1_555
H10 C12 1_555 1_555
C13 C12 1_555 1_555
H11 C13 1_555 1_555
C14 C13 1_555 1_555
C15 C14 1_555 1_555
H12 C15 1_555 1_555
C16 C11 1_555 1_555
H13 C16 1_555 1_555
C17 C14 1_555 1_555
H14 C17 1_555 1_555
H15 C17 1_555 1_555
H16 C17 1_555 1_555
F1 C4 1_555 1_555
F2 C8 1_555 1_555
O1 S1 1_555 1_555
O2 S1 1_555 1_555
S1 C1 1_555 1_555
C7 C8 1_555 1_555
C9 S1 1_555 1_555
C15 C16 1_555 1_555

#END
