
#######################################################################
#
#                 Cambridge Crystallographic Data Centre
#                                CCDC 
#
#######################################################################
#
# If this CIF has been generated from an entry in the Cambridge 
# Structural Database, then it will include bibliographic, chemical, 
# crystal, experimental, refinement or atomic coordinate data resulting 
# from the CCDC's data processing and validation procedures.
#
#######################################################################

data_QOJJUV
_chemical_formula_moiety         'C25 H23 N5 O1 S1'
_chemical_name_systematic        
1-(2,5-Diphenyl-2,3-dihydro-3-oxo-1H-pyrazol-4-yl(4-methylphenyl)methylene)-4-methylthiosemicarbazone
_symmetry_cell_setting           orthorhombic
_symmetry_space_group_name_H-M   'P b c a'
_symmetry_Int_Tables_number      61
_space_group_name_Hall           '-P 2ac 2ab'
loop_
_symmetry_equiv_pos_site_id
_symmetry_equiv_pos_as_xyz
1 x,y,z
2 1/2-x,-y,1/2+z
3 -x,1/2+y,1/2-z
4 1/2+x,1/2-y,-z
5 -x,-y,-z
6 1/2+x,y,1/2-z
7 x,1/2-y,1/2+z
8 1/2-x,1/2+y,z
_cell_length_a                   14.290(3)
_cell_length_b                   11.420(2)
_cell_length_c                   27.986(6)
_cell_angle_alpha                90
_cell_angle_beta                 90
_cell_angle_gamma                90
_cell_volume                     4567.09
_exptl_crystal_colour            colorless
_chemical_melting_point          '214.5-215.3 deg.C'
_cell_formula_units_Z            8
_chemical_properties_physical    light-sensitive
_exptl_crystal_preparation       photochromic
loop_
_atom_site_label
_atom_site_type_symbol
_atom_site_fract_x
_atom_site_fract_y
_atom_site_fract_z
S1 S 0.16391(5) 0.47614(6) 1.02465(2)
O1 O 0.19507(10) 0.64652(11) 0.81405(5)
N1 N 0.24843(11) 0.45517(12) 0.80434(6)
N2 N 0.31376(12) 0.38496(14) 0.82735(6)
H1 H 0.3066(14) 0.3038(19) 0.8264(7)
N3 N 0.30497(13) 0.67440(14) 0.93740(6)
N4 N 0.25466(13) 0.58400(16) 0.95681(6)
H2 H 0.2539(18) 0.5122(17) 0.9421(9)
N5 N 0.21772(14) 0.69958(18) 1.02065(7)
H3 H 0.2502(18) 0.759(3) 1.0064(10)
C1 C 0.21379(15) 0.42355(16) 0.75856(7)
C2 C 0.14493(19) 0.4893(2) 0.73693(10)
H4 H 0.1205 0.5547 0.7523
C3 C 0.1127(2) 0.4577(3) 0.69272(11)
H5 H 0.0675 0.5036 0.6778
C4 C 0.1458(2) 0.3591(3) 0.66975(11)
H6 H 0.1223 0.3373 0.6401
C5 C 0.2136(2) 0.2947(2) 0.69136(9)
H7 H 0.2366 0.2281 0.6763
C6 C 0.24871(17) 0.32664(18) 0.73527(8)
H8 H 0.2962 0.2827 0.7493
C7 C 0.24677(14) 0.56365(15) 0.82647(7)
C8 C 0.31317(14) 0.55727(15) 0.86434(7)
C9 C 0.35002(13) 0.44593(16) 0.86462(6)
C10 C 0.41672(14) 0.39402(16) 0.89848(7)
C11 C 0.41404(15) 0.27671(17) 0.91054(8)
H9 H 0.3723 0.2267 0.8952
C12 C 0.47344(17) 0.2335(2) 0.94546(9)
H10 H 0.4699 0.1551 0.9542
C13 C 0.53725(17) 0.3052(2) 0.96718(8)
H11 H 0.5767 0.2755 0.9907
C14 C 0.54311(16) 0.4211(2) 0.95421(9)
H12 H 0.5876 0.4695 0.9683
C15 C 0.48283(15) 0.46558(18) 0.92028(8)
H13 H 0.4864 0.5442 0.9119
C16 C 0.33520(13) 0.66047(16) 0.89439(7)
C17 C 0.39377(14) 0.75382(16) 0.87396(7)
C18 C 0.43539(16) 0.74054(18) 0.82936(9)
H14 H 0.4247 0.6725 0.8119
C19 C 0.49203(19) 0.8264(2) 0.81055(11)
H15 H 0.5192 0.8147 0.7807
C20 C 0.50954(18) 0.9292(2) 0.83470(13)
C21 C 0.46792(19) 0.9422(2) 0.87881(12)
H16 H 0.4783 1.0110 0.8958
C22 C 0.41133(17) 0.85713(18) 0.89881(9)
H17 H 0.3850 0.8689 0.9288
C23 C 0.5709(2) 1.0249(3) 0.81450(17)
H18 H 0.6297 1.0256 0.8311
H19 H 0.5404 1.0992 0.8185
H20 H 0.5815 1.0107 0.7811
C24 C 0.21416(15) 0.59453(18) 1.00082(8)
C25 C 0.1759(2) 0.7274(3) 1.06629(10)
H21 H 0.1090 0.7293 1.0631
H22 H 0.1978 0.8025 1.0769
H23 H 0.1930 0.6688 1.0893
loop_
_geom_bond_atom_site_label_1
_geom_bond_atom_site_label_2
_geom_bond_site_symmetry_1
_geom_bond_site_symmetry_2
S1 C24 1_555 1_555
O1 C7 1_555 1_555
N1 N2 1_555 1_555
N2 H1 1_555 1_555
N3 N4 1_555 1_555
N4 H2 1_555 1_555
N5 H3 1_555 1_555
C1 N1 1_555 1_555
C2 C1 1_555 1_555
H4 C2 1_555 1_555
C3 C2 1_555 1_555
H5 C3 1_555 1_555
C4 C3 1_555 1_555
H6 C4 1_555 1_555
C5 C4 1_555 1_555
H7 C5 1_555 1_555
C6 C1 1_555 1_555
H8 C6 1_555 1_555
C7 N1 1_555 1_555
C8 C7 1_555 1_555
C9 N2 1_555 1_555
C10 C9 1_555 1_555
C11 C10 1_555 1_555
H9 C11 1_555 1_555
C12 C11 1_555 1_555
H10 C12 1_555 1_555
C13 C12 1_555 1_555
H11 C13 1_555 1_555
C14 C13 1_555 1_555
H12 C14 1_555 1_555
C15 C10 1_555 1_555
H13 C15 1_555 1_555
C16 N3 1_555 1_555
C17 C16 1_555 1_555
C18 C17 1_555 1_555
H14 C18 1_555 1_555
C19 C18 1_555 1_555
H15 C19 1_555 1_555
C20 C19 1_555 1_555
C21 C20 1_555 1_555
H16 C21 1_555 1_555
C22 C17 1_555 1_555
H17 C22 1_555 1_555
C23 C20 1_555 1_555
H18 C23 1_555 1_555
H19 C23 1_555 1_555
H20 C23 1_555 1_555
C24 N4 1_555 1_555
C25 N5 1_555 1_555
H21 C25 1_555 1_555
H22 C25 1_555 1_555
H23 C25 1_555 1_555
N5 C24 1_555 1_555
C5 C6 1_555 1_555
C8 C9 1_555 1_555
C8 C16 1_555 1_555
C14 C15 1_555 1_555
C21 C22 1_555 1_555

#END
