
#######################################################################
#
#                 Cambridge Crystallographic Data Centre
#                                CCDC 
#
#######################################################################
#
# If this CIF has been generated from an entry in the Cambridge 
# Structural Database, then it will include bibliographic, chemical, 
# crystal, experimental, refinement or atomic coordinate data resulting 
# from the CCDC's data processing and validation procedures.
#
#######################################################################

data_QOJNIN
_chemical_formula_moiety         'C22 H17 N1 O2'
_chemical_name_systematic        
endo-13-Phenyl-12,13-dihydro-11bH-quino[1,2-c][1,3]benzoxazin-6-one
_symmetry_cell_setting           triclinic
_symmetry_space_group_name_H-M   'P -1'
_symmetry_Int_Tables_number      2
_space_group_name_Hall           '-P 1'
loop_
_symmetry_equiv_pos_site_id
_symmetry_equiv_pos_as_xyz
1 x,y,z
2 -x,-y,-z
_cell_length_a                   7.1116(3)
_cell_length_b                   8.0434(3)
_cell_length_c                   14.7795(6)
_cell_angle_alpha                87.714(2)
_cell_angle_beta                 89.340(2)
_cell_angle_gamma                88.798(2)
_cell_volume                     844.502
_chemical_melting_point          '156-157 deg.C'
_cell_formula_units_Z            2
loop_
_atom_site_label
_atom_site_type_symbol
_atom_site_fract_x
_atom_site_fract_y
_atom_site_fract_z
C1 C 0.6314(2) 0.61425(18) 0.69313(9)
C2 C 0.4579(2) 0.6625(2) 0.65960(10)
H1 H 0.3619 0.5858 0.6592
C3 C 0.4244(3) 0.8245(2) 0.62641(11)
H2 H 0.3068 0.8552 0.6037
C4 C 0.5639(3) 0.9389(2) 0.62705(10)
H3 H 0.5410 1.0475 0.6053
C5 C 0.7379(3) 0.8928(2) 0.65998(10)
H4 H 0.8331 0.9702 0.6607
C6 C 0.7714(2) 0.73121(19) 0.69215(9)
H5 H 0.8902 0.7006 0.7135
C7 C 0.9838(2) 0.27554(18) 0.72208(9)
C8 C 0.8323(2) 0.35584(17) 0.67879(9)
C9 C 0.8302(2) 0.35970(19) 0.58451(10)
H6 H 0.7285 0.4103 0.5545
C10 C 0.9740(3) 0.2909(2) 0.53445(11)
H7 H 0.9695 0.2954 0.4715
C11 C 1.1247(2) 0.2153(2) 0.57829(11)
H8 H 1.2236 0.1706 0.5448
C12 C 1.1300(2) 0.2056(2) 0.67133(10)
H9 H 1.2310 0.1523 0.7005
C13 C 0.79085(19) 0.26454(18) 0.86016(8)
H10 H 0.7162 0.1778 0.8340
C14 C 0.7980(2) 0.22952(18) 0.96018(9)
C15 C 0.6360(2) 0.2023(2) 1.01149(10)
H11 H 0.5193 0.2066 0.9836
C16 C 0.6470(3) 0.1688(2) 1.10374(10)
H12 H 0.5379 0.1523 1.1379
C17 C 0.8196(3) 0.1599(2) 1.14503(11)
H13 H 0.8268 0.1362 1.2070
C18 C 0.9808(2) 0.1858(2) 1.09543(10)
H14 H 1.0979 0.1793 1.1230
C19 C 0.9659(2) 0.22174(19) 1.00385(10)
C20 C 1.1429(2) 0.2686(2) 0.86560(11)
C21 C 0.6701(2) 0.43857(18) 0.72952(8)
H15 H 0.5574 0.3745 0.7188
C22 C 0.7023(2) 0.43162(18) 0.83202(8)
H16 H 0.7845 0.5205 0.8478
H17 H 0.5833 0.4466 0.8637
N1 N 0.98125(16) 0.25616(15) 0.81919(7)
O1 O 1.29683(16) 0.29020(18) 0.83267(7)
O2 O 1.13428(15) 0.25133(15) 0.95773(7)
loop_
_geom_bond_atom_site_label_1
_geom_bond_atom_site_label_2
_geom_bond_site_symmetry_1
_geom_bond_site_symmetry_2
C1 C2 1_555 1_555
C2 H1 1_555 1_555
C3 C2 1_555 1_555
H2 C3 1_555 1_555
C4 C3 1_555 1_555
H3 C4 1_555 1_555
C5 C4 1_555 1_555
H4 C5 1_555 1_555
C6 C1 1_555 1_555
H5 C6 1_555 1_555
C7 C8 1_555 1_555
C8 C9 1_555 1_555
C9 H6 1_555 1_555
C10 C9 1_555 1_555
H7 C10 1_555 1_555
C11 C10 1_555 1_555
H8 C11 1_555 1_555
C12 C7 1_555 1_555
H9 C12 1_555 1_555
C13 H10 1_555 1_555
C14 C13 1_555 1_555
C15 C14 1_555 1_555
H11 C15 1_555 1_555
C16 C15 1_555 1_555
H12 C16 1_555 1_555
C17 C16 1_555 1_555
H13 C17 1_555 1_555
C18 C17 1_555 1_555
H14 C18 1_555 1_555
C19 C14 1_555 1_555
C20 N1 1_555 1_555
C21 C1 1_555 1_555
H15 C21 1_555 1_555
C22 C13 1_555 1_555
H16 C22 1_555 1_555
H17 C22 1_555 1_555
N1 C7 1_555 1_555
O1 C20 1_555 1_555
O2 C19 1_555 1_555
C5 C6 1_555 1_555
C8 C21 1_555 1_555
C11 C12 1_555 1_555
C13 N1 1_555 1_555
C18 C19 1_555 1_555
C20 O2 1_555 1_555
C21 C22 1_555 1_555

#END
