
#######################################################################
#
#                 Cambridge Crystallographic Data Centre
#                                CCDC 
#
#######################################################################
#
# If this CIF has been generated from an entry in the Cambridge 
# Structural Database, then it will include bibliographic, chemical, 
# crystal, experimental, refinement or atomic coordinate data resulting 
# from the CCDC's data processing and validation procedures.
#
#######################################################################

data_QOKFAX
_chemical_formula_moiety         'C68 H134 K4 N12 Si4'
_chemical_name_systematic        
bis(\m~3~-\h^4^,\h^3^,\h^3^-2,6-bis(2-Trimethylsilylaza-2-phenylallyl)pyridyl-N,N')-bis(1,2-bis(dimethylaminoethane-N,N')-(t-butylcyano-N))-tetra-potassium
_symmetry_cell_setting           triclinic
_symmetry_space_group_name_H-M   'P -1'
_symmetry_Int_Tables_number      2
_space_group_name_Hall           '-P 1'
loop_
_symmetry_equiv_pos_site_id
_symmetry_equiv_pos_as_xyz
1 x,y,z
2 -x,-y,-z
_cell_length_a                   11.552(2)
_cell_length_b                   14.882(3)
_cell_length_c                   15.279(3)
_cell_angle_alpha                63.67(3)
_cell_angle_beta                 80.83(3)
_cell_angle_gamma                73.29(3)
_cell_volume                     2253.24
_exptl_crystal_colour            orange
_exptl_crystal_description       block
_chemical_melting_point          157-159deg.C
_cell_formula_units_Z            1
loop_
_atom_site_label
_atom_site_type_symbol
_atom_site_fract_x
_atom_site_fract_y
_atom_site_fract_z
K1 K 0.62606(7) 1.13354(5) 0.17352(5)
K2 K 0.95664(6) 0.88134(5) 0.17084(5)
Si1 Si 0.80666(9) 0.94084(7) 0.37338(6)
Si2 Si 1.15965(8) 0.59917(6) 0.28840(6)
N1 N 0.77505(19) 1.04301(14) 0.06467(15)
N2 N 0.7575(2) 0.92480(17) 0.28670(16)
N3 N 1.1187(2) 0.69485(16) 0.18135(16)
N4 N 0.3680(3) 1.1957(2) 0.2191(2)
N5 N 0.4829(2) 1.29807(17) 0.02046(19)
C1 C 0.8042(2) 1.11557(18) -0.02303(19)
C2 C 1.2335(2) 0.87418(18) 0.10990(18)
H1 H 1.2156 0.8237 0.1698
C3 C 1.2991(3) 0.9424(2) 0.1039(2)
H2 H 1.3217 0.9392 0.1611
C4 C 1.3304(3) 1.0131(2) 0.0168(2)
H3 H 1.3768 1.0562 0.0140
C5 C 0.7090(3) 0.97949(19) 0.0709(2)
C6 C 0.6730(3) 0.9054(2) 0.1632(2)
H4 H 0.6260 0.8672 0.1573
C7 C 0.6947(3) 0.8794(2) 0.2606(2)
C8 C 0.6418(3) 0.7875(2) 0.3408(2)
C9 C 0.7541(4) 0.6951(3) 0.3824(3)
H5 H 0.7277 0.6365 0.4322
H6 H 0.8068 0.7145 0.4099
H7 H 0.7966 0.6774 0.3307
C10 C 0.5608(4) 0.7487(3) 0.3043(4)
H8 H 0.4899 0.8029 0.2776
H9 H 0.5373 0.6907 0.3575
H10 H 0.6036 0.7278 0.2545
C11 C 0.5810(4) 0.8135(3) 0.4222(3)
H11 H 0.5120 0.8709 0.3987
H12 H 0.6363 0.8316 0.4486
H13 H 0.5551 0.7548 0.4723
C12 C 0.6880(4) 1.0251(3) 0.4231(3)
H14 H 0.6473 1.0856 0.3699
H15 H 0.7258 1.0454 0.4607
H16 H 0.6304 0.9872 0.4641
C13 C 0.8781(4) 0.8259(3) 0.4866(3)
H17 H 0.8428 0.8360 0.5438
H18 H 0.9636 0.8197 0.4832
H19 H 0.8640 0.7639 0.4899
C14 C 0.9288(4) 1.0140(3) 0.3161(3)
H20 H 0.9932 0.9750 0.2893
H21 H 0.9598 1.0239 0.3649
H22 H 0.8954 1.0800 0.2649
C15 C 1.1277(2) 0.82014(19) 0.01510(19)
H23 H 1.0995 0.8424 -0.0466
C16 C 1.0985(2) 0.73050(17) 0.08614(19)
C17 C 1.0329(3) 0.6747(2) 0.0530(2)
C18 C 1.0069(3) 0.7263(3) -0.0559(3)
H24 H 0.9599 0.7961 -0.0732
H25 H 0.9626 0.6885 -0.0693
H26 H 1.0818 0.7266 -0.0935
C19 C 1.1094(4) 0.5645(2) 0.0767(3)
H27 H 1.1862 0.5670 0.0421
H28 H 1.0682 0.5291 0.0573
H29 H 1.1216 0.5283 0.1457
C20 C 0.9104(3) 0.6697(3) 0.1073(3)
H30 H 0.8609 0.7386 0.0912
H31 H 0.9219 0.6349 0.1764
H32 H 0.8713 0.6325 0.0884
C21 C 1.1481(5) 0.6559(3) 0.3770(3)
H33 H 1.1937 0.6060 0.4333
H34 H 1.0648 0.6748 0.3967
H35 H 1.1798 0.7162 0.3469
C22 C 1.3178(4) 0.5250(4) 0.2860(3)
H36 H 1.3245 0.4536 0.3297
H37 H 1.3697 0.5520 0.3061
H38 H 1.3414 0.5310 0.2209
C23 C 1.0722(4) 0.4981(3) 0.3494(4)
H39 H 1.1272 0.4312 0.3765
H40 H 1.0239 0.5006 0.3024
H41 H 1.0206 0.5106 0.4007
C24 C 0.4638(4) 1.2703(3) -0.0528(3)
H42 H 0.4153 1.3292 -0.1025
H43 H 0.4229 1.2154 -0.0241
H44 H 0.5403 1.2476 -0.0813
C25 C 0.5595(4) 1.3748(3) -0.0249(3)
H45 H 0.5755 1.3939 0.0235
H46 H 0.5175 1.4352 -0.0774
H47 H 0.6346 1.3444 -0.0496
C26 C 0.3715(4) 1.3437(3) 0.0618(3)
H48 H 0.3916 1.3839 0.0902
H49 H 0.3183 1.3916 0.0086
C27 C 0.3060(4) 1.2750(4) 0.1337(4)
H50 H 0.2766 1.2417 0.1028
H51 H 0.2358 1.3160 0.1549
C28 C 0.3664(4) 1.2309(4) 0.2920(3)
H52 H 0.4098 1.1756 0.3472
H53 H 0.2843 1.2532 0.3122
H54 H 0.4041 1.2878 0.2659
C29 C 0.3062(6) 1.1119(4) 0.2606(4)
H55 H 0.2223 1.1386 0.2732
H56 H 0.3426 1.0599 0.3205
H57 H 0.3131 1.0820 0.2151
N6 N 0.6696(4) 1.2889(3) 0.2213(3)
H58 H 0.6345 1.3455 0.1751
C30 C 0.7054(4) 1.3177(3) 0.2647(3)
C31 C 0.7530(3) 1.3507(3) 0.3220(3)
C32 C 0.7406(5) 1.2771(4) 0.4304(4)
H59 H 0.7715 1.2068 0.4384
H60 H 0.6569 1.2879 0.4515
H61 H 0.7858 1.2906 0.4689
C33 C 0.8887(3) 1.3344(4) 0.3033(4)
H62 H 0.9057 1.3812 0.2378
H63 H 0.9238 1.2645 0.3114
H64 H 0.9227 1.3473 0.3488
C34 C 0.7011(7) 1.4579(3) 0.3183(6)
C1A C 1.1958(2) 0.88443(18) 0.02303(19)
N1A N 1.22495(19) 0.95699(14) -0.06467(15)
K1A K 1.37394(7) 0.86646(5) -0.17352(5)
N2A N 1.2425(2) 1.07520(17) -0.28670(16)
K2A K 1.04336(6) 1.11866(5) -0.17084(5)
C5A C 1.2910(3) 1.02051(19) -0.0709(2)
N4A N 1.6320(3) 0.8043(2) -0.2191(2)
C27A C 1.6940(4) 0.7250(4) -0.1337(4)
C26A C 1.6285(4) 0.6563(3) -0.0618(3)
N5A N 1.5171(2) 0.70193(17) -0.02046(19)
C6A C 1.3270(3) 1.0946(2) -0.1632(2)
N3A N 0.8813(2) 1.30515(16) -0.18135(16)
Si2A Si 0.84035(8) 1.40083(6) -0.28840(6)
C21A C 0.8519(5) 1.3441(3) -0.3770(3)
H33A H 0.8063 1.3940 -0.4333
H34A H 0.9352 1.3252 -0.3967
H35A H 0.8202 1.2838 -0.3469
C22A C 0.6822(4) 1.4750(4) -0.2860(3)
H36A H 0.6755 1.5464 -0.3297
H37A H 0.6303 1.4480 -0.3061
H38A H 0.6586 1.4690 -0.2209
C23A C 0.9278(4) 1.5019(3) -0.3494(4)
H39A H 0.8728 1.5688 -0.3765
H40A H 0.9761 1.4994 -0.3024
H41A H 0.9794 1.4894 -0.4007
C16A C 0.9015(2) 1.26950(17) -0.08614(19)
C4A C 0.6696(3) 0.9869(2) -0.0168(2)
C3A C 0.7009(3) 1.0576(2) -0.1039(2)
C2A C 0.7665(2) 1.12582(18) -0.10990(18)
H4A H 1.3740 1.1328 -0.1573
C7A C 1.3053(3) 1.1206(2) -0.2606(2)
N6A N 1.3304(4) 0.7111(3) -0.2213(3)
H58A H 1.3655 0.6545 -0.1751
C30A C 1.2946(4) 0.6823(3) -0.2647(3)
C31A C 1.2470(3) 0.6493(3) -0.3220(3)
C32A C 1.2594(5) 0.7229(4) -0.4304(4)
H59A H 1.2285 0.7932 -0.4384
H60A H 1.3431 0.7121 -0.4515
H61A H 1.2142 0.7094 -0.4689
C33A C 1.1113(3) 0.6656(4) -0.3033(4)
H62A H 1.0943 0.6188 -0.2378
H63A H 1.0762 0.7355 -0.3114
H64A H 1.0773 0.6527 -0.3488
C34A C 1.2989(7) 0.5421(3) -0.3183(6)
C15A C 0.8723(2) 1.17986(19) -0.01510(19)
H1A H 0.7844 1.1763 -0.1698
H23A H 0.9005 1.1576 0.0466
C17A C 0.9671(3) 1.3253(2) -0.0530(2)
C18A C 0.9931(3) 1.2737(3) 0.0559(3)
H24A H 1.0401 1.2039 0.0732
H25A H 1.0374 1.3115 0.0693
H26A H 0.9182 1.2734 0.0935
C19A C 0.8906(4) 1.4355(2) -0.0767(3)
H27A H 0.8138 1.4330 -0.0421
H28A H 0.9318 1.4709 -0.0573
H29A H 0.8784 1.4717 -0.1457
C20A C 1.0896(3) 1.3303(3) -0.1073(3)
H30A H 1.1391 1.2614 -0.0912
H31A H 1.0781 1.3651 -0.1764
H32A H 1.1287 1.3675 -0.0884
Si1A Si 1.19334(9) 1.05916(7) -0.37338(6)
C12A C 1.3120(4) 0.9749(3) -0.4231(3)
H14A H 1.3527 0.9144 -0.3699
H15A H 1.2742 0.9546 -0.4607
H16A H 1.3696 1.0128 -0.4641
C13A C 1.1219(4) 1.1741(3) -0.4866(3)
H17A H 1.1572 1.1640 -0.5438
H18A H 1.0364 1.1803 -0.4832
H19A H 1.1360 1.2361 -0.4899
C14A C 1.0712(4) 0.9860(3) -0.3161(3)
H20A H 1.0068 1.0250 -0.2893
H21A H 1.0402 0.9761 -0.3649
H22A H 1.1046 0.9200 -0.2649
C8A C 1.3582(3) 1.2125(2) -0.3408(2)
C9A C 1.2459(4) 1.3049(3) -0.3824(3)
H5A H 1.2723 1.3635 -0.4322
H6A H 1.1932 1.2855 -0.4099
H7A H 1.2034 1.3226 -0.3307
C10A C 1.4392(4) 1.2513(3) -0.3043(4)
H8A H 1.5101 1.1971 -0.2776
H9A H 1.4627 1.3093 -0.3575
H10A H 1.3964 1.2722 -0.2545
C11A C 1.4190(4) 1.1865(3) -0.4222(3)
H11A H 1.4880 1.1291 -0.3987
H12A H 1.3637 1.1684 -0.4486
H13A H 1.4449 1.2452 -0.4723
H2A H 0.6783 1.0608 -0.1611
H3A H 0.6232 0.9438 -0.0140
C24A C 1.5362(4) 0.7297(3) 0.0528(3)
H42A H 1.5847 0.6708 0.1025
H43A H 1.5771 0.7846 0.0241
H44A H 1.4597 0.7524 0.0813
C25A C 1.4405(4) 0.6252(3) 0.0249(3)
H45A H 1.4245 0.6061 -0.0235
H46A H 1.4825 0.5648 0.0774
H47A H 1.3654 0.6556 0.0496
H48A H 1.6084 0.6161 -0.0902
H49A H 1.6817 0.6084 -0.0086
H50A H 1.7234 0.7583 -0.1028
H51A H 1.7642 0.6840 -0.1549
C28A C 1.6336(4) 0.7691(4) -0.2920(3)
H52A H 1.5902 0.8244 -0.3472
H53A H 1.7157 0.7468 -0.3122
H54A H 1.5959 0.7122 -0.2659
C29A C 1.6938(6) 0.8881(4) -0.2606(4)
H55A H 1.7777 0.8614 -0.2732
H56A H 1.6574 0.9401 -0.3205
H57A H 1.6869 0.9180 -0.2151
C35? C 0.7357(11) 1.4713(8) 0.2634(9)
loop_
_geom_bond_atom_site_label_1
_geom_bond_atom_site_label_2
_geom_bond_site_symmetry_1
_geom_bond_site_symmetry_2
K1 N1 1_555 1_555
K2 N1 1_555 1_555
Si1 N2 1_555 1_555
Si2 N3 1_555 1_555
N1 C1 1_555 1_555
N2 K1 1_555 1_555
N3 K2 1_555 1_555
N4 K1 1_555 1_555
N5 K1 1_555 1_555
C1 K2A 1_555 1_555
C2 K2 1_555 1_555
H1 C2 1_555 1_555
C3 C2 1_555 1_555
H2 C3 1_555 1_555
C4 C3 1_555 1_555
H3 C4 1_555 1_555
C5 K1 1_555 1_555
C6 K1 1_555 1_555
H4 C6 1_555 1_555
C7 K1 1_555 1_555
C8 C7 1_555 1_555
C9 C8 1_555 1_555
H5 C9 1_555 1_555
H6 C9 1_555 1_555
H7 C9 1_555 1_555
C10 C8 1_555 1_555
H8 C10 1_555 1_555
H9 C10 1_555 1_555
H10 C10 1_555 1_555
C11 C8 1_555 1_555
H11 C11 1_555 1_555
H12 C11 1_555 1_555
H13 C11 1_555 1_555
C12 Si1 1_555 1_555
H14 C12 1_555 1_555
H15 C12 1_555 1_555
H16 C12 1_555 1_555
C13 Si1 1_555 1_555
H17 C13 1_555 1_555
H18 C13 1_555 1_555
H19 C13 1_555 1_555
C14 Si1 1_555 1_555
H20 C14 1_555 1_555
H21 C14 1_555 1_555
H22 C14 1_555 1_555
C15 K2 1_555 1_555
H23 C15 1_555 1_555
C16 K2 1_555 1_555
C17 C16 1_555 1_555
C18 C17 1_555 1_555
H24 C18 1_555 1_555
H25 C18 1_555 1_555
H26 C18 1_555 1_555
C19 C17 1_555 1_555
H27 C19 1_555 1_555
H28 C19 1_555 1_555
H29 C19 1_555 1_555
C20 C17 1_555 1_555
H30 C20 1_555 1_555
H31 C20 1_555 1_555
H32 C20 1_555 1_555
C21 Si2 1_555 1_555
H33 C21 1_555 1_555
H34 C21 1_555 1_555
H35 C21 1_555 1_555
C22 Si2 1_555 1_555
H36 C22 1_555 1_555
H37 C22 1_555 1_555
H38 C22 1_555 1_555
C23 Si2 1_555 1_555
H39 C23 1_555 1_555
H40 C23 1_555 1_555
H41 C23 1_555 1_555
C24 N5 1_555 1_555
H42 C24 1_555 1_555
H43 C24 1_555 1_555
H44 C24 1_555 1_555
C25 N5 1_555 1_555
H45 C25 1_555 1_555
H46 C25 1_555 1_555
H47 C25 1_555 1_555
C26 N5 1_555 1_555
H48 C26 1_555 1_555
H49 C26 1_555 1_555
C27 N4 1_555 1_555
H50 C27 1_555 1_555
H51 C27 1_555 1_555
C28 N4 1_555 1_555
H52 C28 1_555 1_555
H53 C28 1_555 1_555
H54 C28 1_555 1_555
C29 N4 1_555 1_555
H55 C29 1_555 1_555
H56 C29 1_555 1_555
H57 C29 1_555 1_555
N6 K1 1_555 1_555
H58 N6 1_555 1_555
C30 N6 1_555 1_555
C31 C30 1_555 1_555
C32 C31 1_555 1_555
H59 C32 1_555 1_555
H60 C32 1_555 1_555
H61 C32 1_555 1_555
C33 C31 1_555 1_555
H62 C33 1_555 1_555
H63 C33 1_555 1_555
H64 C33 1_555 1_555
C34 C31 1_555 1_555
C1A K2 1_555 1_555
N1A C1A 1_555 1_555
K1A N1A 1_555 1_555
N2A K1A 1_555 1_555
K2A N1A 1_555 1_555
C5A C4 1_555 1_555
N4A K1A 1_555 1_555
C27A N4A 1_555 1_555
C26A C27A 1_555 1_555
N5A K1A 1_555 1_555
C6A K1A 1_555 1_555
N3A K2A 1_555 1_555
Si2A N3A 1_555 1_555
C21A Si2A 1_555 1_555
H33A C21A 1_555 1_555
H34A C21A 1_555 1_555
H35A C21A 1_555 1_555
C22A Si2A 1_555 1_555
H36A C22A 1_555 1_555
H37A C22A 1_555 1_555
H38A C22A 1_555 1_555
C23A Si2A 1_555 1_555
H39A C23A 1_555 1_555
H40A C23A 1_555 1_555
H41A C23A 1_555 1_555
C16A K2A 1_555 1_555
C4A C5 1_555 1_555
C3A C4A 1_555 1_555
C2A C1 1_555 1_555
H4A C6A 1_555 1_555
C7A K1A 1_555 1_555
N6A K1A 1_555 1_555
H58A N6A 1_555 1_555
C30A N6A 1_555 1_555
C31A C30A 1_555 1_555
C32A C31A 1_555 1_555
H59A C32A 1_555 1_555
H60A C32A 1_555 1_555
H61A C32A 1_555 1_555
C33A C31A 1_555 1_555
H62A C33A 1_555 1_555
H63A C33A 1_555 1_555
H64A C33A 1_555 1_555
C34A C31A 1_555 1_555
C15A C1 1_555 1_555
H1A C2A 1_555 1_555
H23A C15A 1_555 1_555
C17A C16A 1_555 1_555
C18A C17A 1_555 1_555
H24A C18A 1_555 1_555
H25A C18A 1_555 1_555
H26A C18A 1_555 1_555
C19A C17A 1_555 1_555
H27A C19A 1_555 1_555
H28A C19A 1_555 1_555
H29A C19A 1_555 1_555
C20A C17A 1_555 1_555
H30A C20A 1_555 1_555
H31A C20A 1_555 1_555
H32A C20A 1_555 1_555
Si1A N2A 1_555 1_555
C12A Si1A 1_555 1_555
H14A C12A 1_555 1_555
H15A C12A 1_555 1_555
H16A C12A 1_555 1_555
C13A Si1A 1_555 1_555
H17A C13A 1_555 1_555
H18A C13A 1_555 1_555
H19A C13A 1_555 1_555
C14A Si1A 1_555 1_555
H20A C14A 1_555 1_555
H21A C14A 1_555 1_555
H22A C14A 1_555 1_555
C8A C7A 1_555 1_555
C9A C8A 1_555 1_555
H5A C9A 1_555 1_555
H6A C9A 1_555 1_555
H7A C9A 1_555 1_555
C10A C8A 1_555 1_555
H8A C10A 1_555 1_555
H9A C10A 1_555 1_555
H10A C10A 1_555 1_555
C11A C8A 1_555 1_555
H11A C11A 1_555 1_555
H12A C11A 1_555 1_555
H13A C11A 1_555 1_555
H2A C3A 1_555 1_555
H3A C4A 1_555 1_555
C24A N5A 1_555 1_555
H42A C24A 1_555 1_555
H43A C24A 1_555 1_555
H44A C24A 1_555 1_555
C25A N5A 1_555 1_555
H45A C25A 1_555 1_555
H46A C25A 1_555 1_555
H47A C25A 1_555 1_555
H48A C26A 1_555 1_555
H49A C26A 1_555 1_555
H50A C27A 1_555 1_555
H51A C27A 1_555 1_555
C28A N4A 1_555 1_555
H52A C28A 1_555 1_555
H53A C28A 1_555 1_555
H54A C28A 1_555 1_555
C29A N4A 1_555 1_555
H55A C29A 1_555 1_555
H56A C29A 1_555 1_555
H57A C29A 1_555 1_555
K2 N2 1_555 1_555
K2 C6 1_555 1_555
K2 C5 1_555 1_555
K2 C7 1_555 1_555
N1 C5 1_555 1_555
N2 C7 1_555 1_555
N3 C16 1_555 1_555
C2 C1A 1_555 1_555
C5 C6 1_555 1_555
C6 C7 1_555 1_555
C15 C1A 1_555 1_555
C15 C16 1_555 1_555
C26 C27 1_555 1_555
N1A C5A 1_555 1_555
K1A C5A 1_555 1_555
N2A K2A 1_555 1_555
N2A C7A 1_555 1_555
K2A C15A 1_555 1_555
K2A C6A 1_555 1_555
K2A C2A 1_555 1_555
K2A C5A 1_555 1_555
K2A C7A 1_555 1_555
C5A C6A 1_555 1_555
C26A N5A 1_555 1_555
C6A C7A 1_555 1_555
N3A C16A 1_555 1_555
C16A C15A 1_555 1_555
C3A C2A 1_555 1_555

#END
