
#######################################################################
#
#                 Cambridge Crystallographic Data Centre
#                                CCDC 
#
#######################################################################
#
# If this CIF has been generated from an entry in the Cambridge 
# Structural Database, then it will include bibliographic, chemical, 
# crystal, experimental, refinement or atomic coordinate data resulting 
# from the CCDC's data processing and validation procedures.
#
#######################################################################

data_QOKFIF
_chemical_formula_moiety         'C31 H57 Li2 N3 O2 Si2'
_chemical_name_systematic        
(\m~2~-\h^5^-2,6-bis(2-Trimethylsilylaza-2-t-butylallyl)pyridyl-N,N',N'')-bis(tetrahydrofuran)-di-lithium
_symmetry_cell_setting           trigonal
_symmetry_space_group_name_H-M   'P 31'
_symmetry_Int_Tables_number      144
_space_group_name_Hall           'P 31'
loop_
_symmetry_equiv_pos_site_id
_symmetry_equiv_pos_as_xyz
1 x,y,z
2 -y,x-y,1/3+z
3 -x+y,-x,2/3+z
_cell_length_a                   32.449(5)
_cell_length_b                   32.449(5)
_cell_length_c                   8.795(2)
_cell_angle_alpha                90
_cell_angle_beta                 90
_cell_angle_gamma                120
_cell_volume                     8019.9
_exptl_crystal_colour            yellow
_exptl_crystal_description       blocks
_cell_formula_units_Z            9
_exptl_crystal_recrystallization_method thf/hexane
loop_
_atom_site_label
_atom_site_type_symbol
_atom_site_fract_x
_atom_site_fract_y
_atom_site_fract_z
Si1 Si 0.7274(1) 0.9231(1) 1.2255(1)
Si2 Si 0.7180(1) 0.7983(1) 0.8662(1)
Li1 Li 0.7782(1) 0.8863(1) 1.0575(4)
Li2 Li 0.8304(1) 0.8560(1) 0.8576(4)
N1 N 0.7713(1) 0.9403(1) 1.0962(2)
N2 N 0.7674(1) 0.8204(1) 0.9807(2)
N3 N 0.8457(1) 0.9147(1) 1.0722(2)
C1 C 0.7106(1) 0.8616(1) 1.2845(3)
C2 C 0.6700(1) 0.9177(1) 1.1658(3)
C3 C 0.7459(1) 0.9592(1) 1.4051(2)
C4 C 0.8051(1) 0.9800(1) 1.0286(2)
C5 C 0.7906(1) 1.0154(1) 0.9558(2)
C6 C 0.8301(1) 1.0560(1) 0.8671(3)
C7 C 0.7755(1) 1.0383(1) 1.0803(2)
C8 C 0.7509(1) 0.9887(1) 0.8472(3)
C9 C 0.8515(1) 0.9914(1) 1.0136(2)
C10 C 0.8724(1) 0.9639(1) 1.0613(2)
C11 C 0.9207(1) 0.9865(1) 1.0966(2)
C12 C 0.9416(1) 0.9604(1) 1.1388(3)
C13 C 0.9144(1) 0.9116(1) 1.1517(2)
C14 C 0.8660(1) 0.8894(1) 1.1164(2)
C15 C 0.8364(1) 0.8379(1) 1.1303(2)
C16 C 0.7911(1) 0.8062(1) 1.0743(2)
C17 C 0.7692(1) 0.7545(1) 1.1240(2)
C18 C 0.7277(1) 0.7426(1) 1.2320(3)
C19 C 0.8031(1) 0.7428(1) 1.2090(3)
C20 C 0.7531(1) 0.7214(1) 0.9848(2)
C21 C 0.7274(1) 0.7789(1) 0.6740(2)
C22 C 0.6586(1) 0.7519(1) 0.9350(3)
C23 C 0.7084(1) 0.8495(1) 0.8225(3)
O1 O 0.8619(1) 0.8232(1) 0.7682(2)
C24 C 0.8533(1) 0.8004(1) 0.6305(3)
C25 C 0.8834(1) 0.7846(1) 0.6129(5)
C26 C 0.9174(1) 0.8038(1) 0.7157(4)
C27 C 0.8982(1) 0.8170(1) 0.8413(3)
O2 O 0.8495(1) 0.9041(1) 0.6956(2)
C28 C 0.8267(1) 0.9185(1) 0.5957(4)
C29 C 0.8611(1) 0.9518(1) 0.4960(4)
C30 C 0.9070(1) 0.9666(1) 0.5621(4)
C31 C 0.8987(1) 0.9360(1) 0.6767(3)
Si3 Si 0.7369(1) 0.6061(1) -0.4697(1)
Si4 Si 0.8614(1) 0.6152(1) -0.1099(1)
Li3 Li 0.7747(1) 0.5559(1) -0.2985(4)
Li4 Li 0.8075(1) 0.5047(1) -0.1006(4)
N4 N 0.7185(1) 0.5615(1) -0.3447(2)
N5 N 0.8394(1) 0.5669(1) -0.2265(2)
N6 N 0.7459(1) 0.4875(1) -0.3141(2)
C32 C 0.7026(1) 0.5888(1) -0.6505(2)
C33 C 0.7427(1) 0.6643(1) -0.4053(3)
C34 C 0.7994(1) 0.6231(1) -0.5260(3)
C35 C 0.6795(1) 0.5276(1) -0.2715(2)
C36 C 0.6442(1) 0.5423(1) -0.2063(2)
C37 C 0.6027(1) 0.5018(1) -0.1141(3)
C38 C 0.6713(1) 0.5832(1) -0.0926(3)
C39 C 0.6222(1) 0.5572(1) -0.3345(3)
C40 C 0.6705(1) 0.4806(1) -0.2568(2)
C41 C 0.6996(1) 0.4609(1) -0.3050(2)
C42 C 0.6758(1) 0.4107(1) -0.3382(3)
C43 C 0.7036(1) 0.3914(1) -0.3812(3)
C44 C 0.7528(1) 0.4202(1) -0.3959(2)
C45 C 0.7737(1) 0.4683(1) -0.3552(2)
C46 C 0.8236(1) 0.4981(1) -0.3729(2)
C47 C 0.8543(1) 0.5428(1) -0.3207(2)
C48 C 0.9062(1) 0.5652(1) -0.3718(2)
C49 C 0.9192(1) 0.5318(1) -0.4552(3)
C50 C 0.9392(1) 0.5824(1) -0.2349(3)
C51 C 0.9173(1) 0.6068(1) -0.4758(3)
C52 C 0.9093(1) 0.6739(1) -0.1772(3)
C53 C 0.8108(1) 0.6242(1) -0.0650(3)
C54 C 0.8810(1) 0.6048(1) 0.0775(2)
O3 O 0.7602(1) 0.4837(1) 0.0608(2)
C55 C 0.7252(1) 0.4346(1) 0.0675(3)
C56 C 0.7001(1) 0.4275(1) 0.2055(4)
C57 C 0.7076(1) 0.4718(1) 0.2522(5)
C58 C 0.7472(1) 0.5067(1) 0.1675(4)
O4 O 0.8407(1) 0.4722(1) -0.0162(2)
C59 C 0.8496(1) 0.4386(1) -0.0803(4)
C60 C 0.8692(1) 0.4209(1) 0.0215(4)
C61 C 0.8804(1) 0.4517(1) 0.1385(5)
C62 C 0.8614(1) 0.4810(1) 0.1264(3)
Si5 Si 0.4207(1) 0.9448(1) -0.4669(1)
Si6 Si 0.5399(1) 0.9433(1) -0.1076(1)
Li5 Li 0.4525(1) 0.8888(1) -0.2937(4)
Li6 Li 0.4799(1) 0.8340(1) -0.0954(5)
N7 N 0.3997(1) 0.8996(1) -0.3441(2)
N8 N 0.5147(1) 0.8954(1) -0.2246(2)
N9 N 0.4194(1) 0.8213(1) -0.3098(2)
C63 C 0.3858(1) 0.9300(1) -0.6480(2)
C64 C 0.4303(1) 1.0035(1) -0.4047(3)
C65 C 0.4808(1) 0.9563(1) -0.5277(3)
C66 C 0.3589(1) 0.8687(1) -0.2673(2)
C67 C 0.3265(1) 0.8856(1) -0.2016(2)
C68 C 0.3554(1) 0.9264(1) -0.0936(3)
C69 C 0.2845(1) 0.8470(1) -0.1072(3)
C70 C 0.3068(1) 0.9029(1) -0.3297(3)
C71 C 0.3462(1) 0.8202(1) -0.2519(3)
C72 C 0.3709(1) 0.7965(1) -0.3005(2)
C73 C 0.3461(1) 0.7478(1) -0.3373(3)
C74 C 0.3703(1) 0.7246(1) -0.3769(3)
C75 C 0.4194(1) 0.7498(1) -0.3892(3)
C76 C 0.4432(1) 0.7982(1) -0.3550(2)
C77 C 0.4940(1) 0.8245(1) -0.3692(2)
C78 C 0.5265(1) 0.8689(1) -0.3155(2)
C79 C 0.5789(1) 0.8874(1) -0.3670(2)
C80 C 0.6123(1) 0.9035(1) -0.2288(3)
C81 C 0.5885(1) 0.8529(1) -0.4510(3)
C82 C 0.5923(1) 0.9293(1) -0.4723(2)
C83 C 0.5567(1) 0.9299(1) 0.0847(2)
C84 C 0.5908(1) 1.0014(1) -0.1719(3)
C85 C 0.4926(1) 0.9588(1) -0.0674(3)
O5 O 0.4311(1) 0.8147(1) 0.0631(2)
C86 C 0.4191(1) 0.8398(1) 0.1664(4)
C87 C 0.3829(1) 0.8093(1) 0.2617(5)
C88 C 0.3701(1) 0.7607(1) 0.2116(4)
C89 C 0.3952(1) 0.7676(1) 0.0780(4)
O6 O 0.5110(1) 0.7992(1) -0.0137(2)
C90 C 0.5143(1) 0.7627(1) -0.0754(4)
C91 C 0.5368(1) 0.7463(1) 0.0174(4)
C92 C 0.5475(1) 0.7740(1) 0.1411(6)
C93 C 0.5312(1) 0.8054(1) 0.1318(4)
loop_
_geom_bond_atom_site_label_1
_geom_bond_atom_site_label_2
_geom_bond_site_symmetry_1
_geom_bond_site_symmetry_2
Si1 N1 1_555 1_555
Si2 N2 1_555 1_555
Li1 N1 1_555 1_555
Li2 N2 1_555 1_555
N1 C4 1_555 1_555
N2 Li1 1_555 1_555
N3 Li1 1_555 1_555
C1 Si1 1_555 1_555
C2 Si1 1_555 1_555
C3 Si1 1_555 1_555
C4 C5 1_555 1_555
C5 C6 1_555 1_555
C7 C5 1_555 1_555
C8 C5 1_555 1_555
C9 C4 1_555 1_555
C10 N3 1_555 1_555
C11 C10 1_555 1_555
C12 C11 1_555 1_555
C13 C12 1_555 1_555
C14 Li2 1_555 1_555
C15 Li2 1_555 1_555
C16 Li2 1_555 1_555
C17 C16 1_555 1_555
C18 C17 1_555 1_555
C19 C17 1_555 1_555
C20 C17 1_555 1_555
C21 Si2 1_555 1_555
C22 Si2 1_555 1_555
C23 Si2 1_555 1_555
O1 Li2 1_555 1_555
C24 O1 1_555 1_555
C25 C24 1_555 1_555
C26 C25 1_555 1_555
C27 O1 1_555 1_555
O2 Li2 1_555 1_555
C28 O2 1_555 1_555
C29 C28 1_555 1_555
C30 C29 1_555 1_555
C31 O2 1_555 1_555
Si3 N4 1_555 1_555
Si4 N5 1_555 1_555
Li3 N4 1_555 1_555
Li4 N5 1_555 1_555
N4 C35 1_555 1_555
N5 Li3 1_555 1_555
N6 Li3 1_555 1_555
C32 Si3 1_555 1_555
C33 Si3 1_555 1_555
C34 Si3 1_555 1_555
C35 C36 1_555 1_555
C36 C37 1_555 1_555
C38 C36 1_555 1_555
C39 C36 1_555 1_555
C40 C35 1_555 1_555
C41 N6 1_555 1_555
C42 C41 1_555 1_555
C43 C42 1_555 1_555
C44 C43 1_555 1_555
C45 Li4 1_555 1_555
C46 Li4 1_555 1_555
C47 Li4 1_555 1_555
C48 C47 1_555 1_555
C49 C48 1_555 1_555
C50 C48 1_555 1_555
C51 C48 1_555 1_555
C52 Si4 1_555 1_555
C53 Si4 1_555 1_555
C54 Si4 1_555 1_555
O3 Li4 1_555 1_555
C55 O3 1_555 1_555
C56 C55 1_555 1_555
C57 C56 1_555 1_555
C58 O3 1_555 1_555
O4 Li4 1_555 1_555
C59 O4 1_555 1_555
C60 C59 1_555 1_555
C61 C60 1_555 1_555
C62 O4 1_555 1_555
Si5 N7 1_555 1_555
Si6 N8 1_555 1_555
Li5 N7 1_555 1_555
Li6 N8 1_555 1_555
N7 C66 1_555 1_555
N8 Li5 1_555 1_555
N9 Li5 1_555 1_555
C63 Si5 1_555 1_555
C64 Si5 1_555 1_555
C65 Si5 1_555 1_555
C66 C67 1_555 1_555
C67 C68 1_555 1_555
C69 C67 1_555 1_555
C70 C67 1_555 1_555
C71 C66 1_555 1_555
C72 N9 1_555 1_555
C73 C72 1_555 1_555
C74 C73 1_555 1_555
C75 C74 1_555 1_555
C76 Li6 1_555 1_555
C77 Li6 1_555 1_555
C78 Li6 1_555 1_555
C79 C78 1_555 1_555
C80 C79 1_555 1_555
C81 C79 1_555 1_555
C82 C79 1_555 1_555
C83 Si6 1_555 1_555
C84 Si6 1_555 1_555
C85 Si6 1_555 1_555
O5 Li6 1_555 1_555
C86 O5 1_555 1_555
C87 C86 1_555 1_555
C88 C87 1_555 1_555
C89 O5 1_555 1_555
O6 Li6 1_555 1_555
C90 O6 1_555 1_555
C91 C90 1_555 1_555
C92 C91 1_555 1_555
C93 O6 1_555 1_555
Li2 N3 1_555 1_555
N2 C16 1_555 1_555
N3 C14 1_555 1_555
C9 C10 1_555 1_555
C13 C14 1_555 1_555
C14 C15 1_555 1_555
C15 C16 1_555 1_555
C26 C27 1_555 1_555
C30 C31 1_555 1_555
Li4 N6 1_555 1_555
N5 C47 1_555 1_555
N6 C45 1_555 1_555
C40 C41 1_555 1_555
C44 C45 1_555 1_555
C45 C46 1_555 1_555
C46 C47 1_555 1_555
C57 C58 1_555 1_555
C61 C62 1_555 1_555
Li6 N9 1_555 1_555
N8 C78 1_555 1_555
N9 C76 1_555 1_555
C71 C72 1_555 1_555
C75 C76 1_555 1_555
C76 C77 1_555 1_555
C77 C78 1_555 1_555
C88 C89 1_555 1_555
C92 C93 1_555 1_555

#END
