
#######################################################################
#
#                 Cambridge Crystallographic Data Centre
#                                CCDC 
#
#######################################################################
#
# If this CIF has been generated from an entry in the Cambridge 
# Structural Database, then it will include bibliographic, chemical, 
# crystal, experimental, refinement or atomic coordinate data resulting 
# from the CCDC's data processing and validation procedures.
#
#######################################################################

data_QOKFEB
_chemical_formula_moiety         'C37 H59 K1 Li1 N5 O1 Si2'
_chemical_name_systematic        
(\m~2~-\h^3^-2,6-bis(2-Trimethylsilylaza-2-phenylallyl)pyridyl-N,N',N'')-(1,2-bis(dimethylaminoethane-N,N'))-(ethoxyethane-O)-lithium-potassium
_symmetry_cell_setting           monoclinic
_symmetry_space_group_name_H-M   'P 21/c'
_symmetry_Int_Tables_number      14
_space_group_name_Hall           '-P 2ybc'
loop_
_symmetry_equiv_pos_site_id
_symmetry_equiv_pos_as_xyz
1 x,y,z
2 x,1/2-y,1/2+z
3 -x,-y,-z
4 -x,1/2+y,1/2-z
_cell_length_a                   16.725(3)
_cell_length_b                   11.815(2)
_cell_length_c                   22.686(5)
_cell_angle_alpha                90
_cell_angle_beta                 105.39(3)
_cell_angle_gamma                90
_cell_volume                     4322.14
_exptl_crystal_colour            orange
_exptl_crystal_description       block
_cell_formula_units_Z            4
_exptl_crystal_recrystallization_method 'diethyl ether/hexane'
loop_
_atom_site_label
_atom_site_type_symbol
_atom_site_fract_x
_atom_site_fract_y
_atom_site_fract_z
K1 K 0.18586(2) 0.15061(3) 0.365447(12)
Li1 Li 0.31901(16) 0.0705(2) 0.30408(9)
O1 O 0.42787(8) 0.05033(12) 0.27656(5)
N1 N 0.35235(7) 0.17966(10) 0.37526(4)
N2 N 0.28205(8) -0.05952(10) 0.35353(4)
N3 N 0.23728(7) 0.18847(10) 0.24865(4)
N4 N 0.16248(9) 0.37190(14) 0.40816(6)
N5 N 0.04285(10) 0.18641(14) 0.41483(6)
Si1 Si 0.26712(3) -0.18636(4) 0.314558(17)
Si2 Si 0.14464(3) 0.15835(4) 0.196476(17)
C1 C 0.37680(9) 0.28240(13) 0.35995(5)
C2 C 0.43109(12) 0.34935(15) 0.40397(7)
H1 H 0.4492 0.4189 0.3932
C3 C 0.45740(13) 0.31106(16) 0.46338(7)
H2 H 0.4943 0.3543 0.4926
C4 C 0.42965(12) 0.21004(15) 0.47959(6)
H3 H 0.4458 0.1861 0.5201
C5 C 0.37634(9) 0.14206(13) 0.43471(5)
C6 C 0.34440(10) 0.03708(13) 0.45110(5)
H4 H 0.3437 0.0326 0.4941
C7 C 0.30328(9) -0.05014(12) 0.41548(5)
C8 C 0.27504(10) -0.14143(12) 0.45289(5)
C9 C 0.33087(14) -0.19650(15) 0.50053(7)
H5 H 0.3873 -0.1809 0.5090
C10 C 0.30164(16) -0.27596(17) 0.53587(8)
H6 H 0.3390 -0.3129 0.5678
C11 C 0.21930(15) -0.29964(17) 0.52403(7)
H7 H 0.2008 -0.3517 0.5482
C12 C 0.16406(13) -0.24787(15) 0.47729(7)
H8 H 0.1079 -0.2652 0.4688
C13 C 0.19214(10) -0.16792(14) 0.44176(6)
H9 H 0.1540 -0.1319 0.4100
C14 C 0.34549(10) 0.32296(13) 0.29828(6)
H10 H 0.3726 0.3868 0.2893
C15 C 0.28272(9) 0.28440(12) 0.25030(5)
C16 C 0.26716(9) 0.36037(13) 0.19435(5)
C17 C 0.24769(11) 0.47347(14) 0.19659(6)
H11 H 0.2443 0.5050 0.2334
C18 C 0.23312(14) 0.54079(16) 0.14487(7)
H12 H 0.2194 0.6167 0.1470
C19 C 0.23893(14) 0.49588(16) 0.09060(7)
H13 H 0.2291 0.5411 0.0559
C20 C 0.25899(12) 0.38544(17) 0.08751(6)
H14 H 0.2639 0.3559 0.0506
C21 C 0.27245(11) 0.31522(15) 0.13853(6)
H15 H 0.2848 0.2391 0.1355
C22 C 0.34109(17) -0.30000(18) 0.35432(9)
H16 H 0.3121 -0.3707 0.3517
H17 H 0.3634 -0.2800 0.3965
H18 H 0.3855 -0.3072 0.3350
C23 C 0.15878(16) -0.24614(18) 0.29529(8)
H19 H 0.1613 -0.3262 0.3028
H20 H 0.1320 -0.2323 0.2530
H21 H 0.1279 -0.2104 0.3203
C24 C 0.28731(18) -0.1591(2) 0.23823(8)
H22 H 0.2783 -0.2275 0.2145
H23 H 0.3436 -0.1347 0.2441
H24 H 0.2503 -0.1013 0.2171
C25 C 0.14996(16) 0.0744(2) 0.12797(7)
H25 H 0.1295 0.1192 0.0918
H26 H 0.1167 0.0075 0.1254
H27 H 0.2065 0.0533 0.1314
C26 C 0.07371(17) 0.2803(2) 0.16518(10)
H28 H 0.0631 0.2823 0.1215
H29 H 0.0995 0.3499 0.1821
H30 H 0.0223 0.2710 0.1760
C27 C 0.08230(13) 0.06544(19) 0.23582(7)
H31 H 0.0418 0.0239 0.2057
H32 H 0.0547 0.1119 0.2591
H33 H 0.1187 0.0135 0.2626
C28 C 0.0611(2) 0.2892(2) 0.45727(11)
H34 H 0.0114 0.3087 0.4694
H35 H 0.1037 0.2691 0.4939
C30 C 0.08862(13) 0.38867(19) 0.42924(9)
H38 H 0.0438 0.4124 0.3948
H39 H 0.0990 0.4499 0.4588
C31 C 0.1791(3) 0.4637(3) 0.37165(16)
H40 H 0.1539 0.5317 0.3815
H41 H 0.1566 0.4463 0.3291
H42 H 0.2379 0.4746 0.3799
C33 C 0.2340(2) 0.3872(3) 0.45986(13)
H46 H 0.2263 0.3828 0.5007
H47 H 0.2781 0.4368 0.4552
C34 C 0.0370(2) 0.1033(3) 0.45775(12)
H48 H -0.0104 0.1183 0.4728
H49 H 0.0863 0.1045 0.4911
H50 H 0.0313 0.0301 0.4386
C35 C -0.0271(3) 0.2153(4) 0.36271(17)
H51 H -0.0782 0.2032 0.3735
H52 H -0.0257 0.1684 0.3284
H53 H -0.0231 0.2934 0.3521
C37 C 0.5043(4) 0.0476(6) 0.3243(2)
H57 H 0.5100 0.1246 0.3397
H58 H 0.5462 0.0394 0.3022
C39 C 0.5366(15) -0.0213(10) 0.3796(5)
H61 H 0.5907 -0.0492 0.3801
H62 H 0.5000 -0.0839 0.3794
H63 H 0.5402 0.0244 0.4152
C41 C 0.43647(18) 0.1020(4) 0.22204(10)
H67 H 0.4002 0.1675 0.2148
H68 H 0.4928 0.1307 0.2309
C42 C 0.4222(3) 0.0458(5) 0.16802(15)
H69 H 0.4252 0.0979 0.1362
H70 H 0.3681 0.0120 0.1586
H71 H 0.4633 -0.0122 0.1711
C29? C 0.0301(5) 0.2973(5) 0.4201(3)
H36? H 0.0043 0.3036 0.4535
H37? H -0.0125 0.3173 0.3835
C32? C 0.1507(4) 0.4275(4) 0.34705(18)
H43? H 0.1537 0.5081 0.3522
H44? H 0.0975 0.4071 0.3209
H45? H 0.1934 0.4028 0.3289
C36? C -0.0279(5) 0.1305(7) 0.3719(3)
H54? H -0.0788 0.1617 0.3766
H55? H -0.0264 0.0507 0.3803
H56? H -0.0247 0.1425 0.3307
C38? C 0.4937(4) -0.0159(6) 0.3076(2)
H59? H 0.4840 -0.0920 0.2911
H60? H 0.5430 0.0121 0.2977
C40? C 0.5109(4) -0.0239(4) 0.36838(17)
H64? H 0.5699 -0.0270 0.3853
H65? H 0.4862 -0.0914 0.3792
H66? H 0.4890 0.0409 0.3843
loop_
_geom_bond_atom_site_label_1
_geom_bond_atom_site_label_2
_geom_bond_site_symmetry_1
_geom_bond_site_symmetry_2
K1 N1 1_555 1_555
Li1 O1 1_555 1_555
O1 C37 1_555 1_555
N1 Li1 1_555 1_555
N2 K1 1_555 1_555
N3 K1 1_555 1_555
N4 K1 1_555 1_555
N5 K1 1_555 1_555
Si1 N2 1_555 1_555
Si2 N3 1_555 1_555
C1 N1 1_555 1_555
C2 C1 1_555 1_555
H1 C2 1_555 1_555
C3 C2 1_555 1_555
H2 C3 1_555 1_555
C4 C3 1_555 1_555
H3 C4 1_555 1_555
C5 K1 1_555 1_555
C6 K1 1_555 1_555
H4 C6 1_555 1_555
C7 K1 1_555 1_555
C8 C7 1_555 1_555
C9 C8 1_555 1_555
H5 C9 1_555 1_555
C10 C9 1_555 1_555
H6 C10 1_555 1_555
C11 C10 1_555 1_555
H7 C11 1_555 1_555
C12 C11 1_555 1_555
H8 C12 1_555 1_555
C13 C8 1_555 1_555
H9 C13 1_555 1_555
C14 C1 1_555 1_555
H10 C14 1_555 1_555
C15 N3 1_555 1_555
C16 C15 1_555 1_555
C17 C16 1_555 1_555
H11 C17 1_555 1_555
C18 C17 1_555 1_555
H12 C18 1_555 1_555
C19 C18 1_555 1_555
H13 C19 1_555 1_555
C20 C19 1_555 1_555
H14 C20 1_555 1_555
C21 C16 1_555 1_555
H15 C21 1_555 1_555
C22 Si1 1_555 1_555
H16 C22 1_555 1_555
H17 C22 1_555 1_555
H18 C22 1_555 1_555
C23 Si1 1_555 1_555
H19 C23 1_555 1_555
H20 C23 1_555 1_555
H21 C23 1_555 1_555
C24 Si1 1_555 1_555
H22 C24 1_555 1_555
H23 C24 1_555 1_555
H24 C24 1_555 1_555
C25 Si2 1_555 1_555
H25 C25 1_555 1_555
H26 C25 1_555 1_555
H27 C25 1_555 1_555
C26 Si2 1_555 1_555
H28 C26 1_555 1_555
H29 C26 1_555 1_555
H30 C26 1_555 1_555
C27 Si2 1_555 1_555
H31 C27 1_555 1_555
H32 C27 1_555 1_555
H33 C27 1_555 1_555
C28 N5 1_555 1_555
H34 C28 1_555 1_555
H35 C28 1_555 1_555
C30 N4 1_555 1_555
H38 C30 1_555 1_555
H39 C30 1_555 1_555
C31 N4 1_555 1_555
H40 C31 1_555 1_555
H41 C31 1_555 1_555
H42 C31 1_555 1_555
C33 N4 1_555 1_555
H46 C33 1_555 1_555
H47 C33 1_555 1_555
C34 N5 1_555 1_555
H48 C34 1_555 1_555
H49 C34 1_555 1_555
H50 C34 1_555 1_555
C35 N5 1_555 1_555
H51 C35 1_555 1_555
H52 C35 1_555 1_555
H53 C35 1_555 1_555
C37 H57 1_555 1_555
H58 C37 1_555 1_555
C39 C37 1_555 1_555
H61 C39 1_555 1_555
H62 C39 1_555 1_555
H63 C39 1_555 1_555
C41 O1 1_555 1_555
H67 C41 1_555 1_555
H68 C41 1_555 1_555
C42 C41 1_555 1_555
H69 C42 1_555 1_555
H70 C42 1_555 1_555
H71 C42 1_555 1_555
Li1 N3 1_555 1_555
Li1 N2 1_555 1_555
N1 C5 1_555 1_555
N2 C7 1_555 1_555
C4 C5 1_555 1_555
C5 C6 1_555 1_555
C6 C7 1_555 1_555
C12 C13 1_555 1_555
C14 C15 1_555 1_555
C20 C21 1_555 1_555
C28 C30 1_555 1_555

#END
