
#######################################################################
#
#                 Cambridge Crystallographic Data Centre
#                                CCDC 
#
#######################################################################
#
# If this CIF has been generated from an entry in the Cambridge 
# Structural Database, then it will include bibliographic, chemical, 
# crystal, experimental, refinement or atomic coordinate data resulting 
# from the CCDC's data processing and validation procedures.
#
#######################################################################

data_QOKFUR
_chemical_formula_moiety         'C12 H32 Li1 N4 1+,C27 H33 Li1 N3 Si2 1-'
_chemical_name_systematic        
"bis(1,2-bis(Dimethylamino)ethane-N,N')-lithium (2,6-bis(2-trimethylsilylaza-2-phenylallyl)pyridyl-N,N',N'')-lithium"
_symmetry_cell_setting           orthorhombic
_symmetry_space_group_name_H-M   'C 2 2 21'
_symmetry_Int_Tables_number      20
_space_group_name_Hall           'C 2n 2'
loop_
_symmetry_equiv_pos_site_id
_symmetry_equiv_pos_as_xyz
1 x,y,z
2 -x,-y,1/2+z
3 x,-y,-z
4 -x,y,1/2-z
5 1/2+x,1/2+y,z
6 1/2-x,1/2-y,1/2+z
7 1/2+x,1/2-y,-z
8 1/2-x,1/2+y,1/2-z
_cell_length_a                   17.328(4)
_cell_length_b                   22.307(5)
_cell_length_c                   14.091(3)
_cell_angle_alpha                90
_cell_angle_beta                 90
_cell_angle_gamma                90
_cell_volume                     5446.67
_exptl_crystal_colour            yellow
_exptl_crystal_description       blocks
_cell_formula_units_Z            4
loop_
_atom_site_label
_atom_site_type_symbol
_atom_site_fract_x
_atom_site_fract_y
_atom_site_fract_z
Si1 Si -0.2988(1) -0.1006(1) 0.9204(1)
C1 C -0.0325(1) -0.0354(1) 0.9391(1)
C2 C 0.0468(1) -0.0362(1) 0.9389(2)
C3 C 0.0856(2) 0.0000 1.0000
C4 C -0.0716(1) -0.0717(1) 0.8718(2)
C5 C -0.1499(1) -0.0850(1) 0.8584(1)
C6 C -0.1690(1) -0.1213(1) 0.7680(2)
C7 C -0.2186(2) -0.1015(1) 0.6998(2)
C8 C -0.2306(2) -0.1369(2) 0.6206(2)
C9 C -0.2001(3) -0.1889(2) 0.6006(2)
C10 C -0.1566(2) -0.2068(1) 0.6656(2)
C11 C -0.1328(2) -0.1777(1) 0.7527(3)
C12 C -0.3375(2) -0.0855(2) 1.0440(2)
C13 C -0.2944(2) -0.1851(1) 0.9061(2)
C14 C -0.3795(2) -0.0727(1) 0.8373(2)
Li1 Li -0.1832(3) 0.0000 1.0000
N1 N -0.0731(1) 0.0000 1.0000
N2 N -0.2109(1) -0.0666(1) 0.9119(1)
H1 H 0.0735 -0.0612 0.8975
H2 H 0.1393 0.0000 1.0000
H3 H -0.0391 -0.0902 0.8282
H4 H -0.2439 -0.0650 0.7064
H5 H -0.2647 -0.1217 0.5758
H6 H -0.2097 -0.2101 0.5450
H7 H -0.1361 -0.2449 0.6564
H8 H -0.0973 -0.1943 0.7946
H9 H -0.3406 -0.0430 1.0542
H10 H -0.3036 -0.1029 1.0902
H11 H -0.3880 -0.1028 1.0501
H12 H -0.2555 -0.2011 0.9475
H13 H -0.2819 -0.1948 0.8416
H14 H -0.3435 -0.2021 0.9222
H15 H -0.3836 -0.0299 0.8421
H16 H -0.4276 -0.0907 0.8555
H17 H -0.3675 -0.0836 0.7731
C2B C 0.0468(1) 0.0362(1) 1.0611(2)
C1B C -0.0325(1) 0.0354(1) 1.0609(1)
C4B C -0.0716(1) 0.0717(1) 1.1282(2)
C5B C -0.1499(1) 0.0850(1) 1.1416(1)
C6B C -0.1690(1) 0.1213(1) 1.2320(2)
C7B C -0.2186(2) 0.1015(1) 1.3002(2)
C8B C -0.2306(2) 0.1369(2) 1.3794(2)
C9B C -0.2001(3) 0.1889(2) 1.3994(2)
C10B C -0.1566(2) 0.2068(1) 1.3344(2)
C11B C -0.1328(2) 0.1777(1) 1.2473(3)
H8B H -0.0973 0.1943 1.2054
H7B H -0.1361 0.2449 1.3436
H6B H -0.2097 0.2101 1.4550
H5B H -0.2647 0.1217 1.4242
H4B H -0.2439 0.0650 1.2936
N2B N -0.2109(1) 0.0666(1) 1.0881(1)
Si1B Si -0.2988(1) 0.1006(1) 1.0796(1)
C12B C -0.3375(2) 0.0855(2) 0.9560(2)
H9B H -0.3406 0.0430 0.9458
H10B H -0.3036 0.1029 0.9098
H11B H -0.3880 0.1028 0.9499
C13B C -0.2944(2) 0.1851(1) 1.0939(2)
H12B H -0.2555 0.2011 1.0525
H13B H -0.2819 0.1948 1.1584
H14B H -0.3435 0.2021 1.0778
C14B C -0.3795(2) 0.0727(1) 1.1627(2)
H15B H -0.3836 0.0299 1.1579
H16B H -0.4276 0.0907 1.1445
H17B H -0.3675 0.0836 1.2269
H3B H -0.0391 0.0902 1.1718
H1B H 0.0735 0.0612 1.1025
C15 C 0.0555(2) 0.2796(1) 0.6413(3)
C16 C -0.0032(2) 0.2106(1) 0.5333(2)
C17 C 0.1154(2) 0.1861(2) 0.6004(2)
C18 C 0.1553(2) 0.1627(2) 0.6841(2)
C19 C 0.1521(2) 0.1359(2) 0.8504(2)
C20 C 0.1035(2) 0.0674(1) 0.7327(3)
Li2 Li 0.0000 0.1751(2) 0.7500
N3 N 0.0426(1) 0.2168(1) 0.6212(2)
N4 N 0.1119(1) 0.1311(1) 0.7575(2)
H18 H 0.0070 0.2988 0.6537
H19 H 0.0798 0.2983 0.5876
H20 H 0.0883 0.2834 0.6958
H21 H -0.0114 0.1689 0.5200
H22 H 0.0241 0.2288 0.4814
H23 H -0.0521 0.2301 0.5413
H24 H 0.1495 0.2138 0.5679
H25 H 0.1050 0.1530 0.5574
H26 H 0.1953 0.1357 0.6618
H27 H 0.1811 0.1962 0.7144
H28 H 0.1589 0.1774 0.8663
H29 H 0.2016 0.1168 0.8463
H30 H 0.1217 0.1167 0.8986
H31 H 0.0775 0.0640 0.6727
H32 H 0.0738 0.0475 0.7807
H33 H 0.1535 0.0492 0.7283
N3C N -0.0426(1) 0.2168(1) 0.8788(2)
C15C C -0.0555(2) 0.2796(1) 0.8587(3)
H18C H -0.0070 0.2988 0.8463
H19C H -0.0798 0.2983 0.9124
H20C H -0.0883 0.2834 0.8042
C16C C 0.0032(2) 0.2106(1) 0.9667(2)
H21C H 0.0114 0.1689 0.9800
H22C H -0.0241 0.2288 1.0186
H23C H 0.0521 0.2301 0.9587
C17C C -0.1154(2) 0.1861(2) 0.8996(2)
C18C C -0.1553(2) 0.1627(2) 0.8159(2)
N4C N -0.1119(1) 0.1311(1) 0.7425(2)
C19C C -0.1521(2) 0.1359(2) 0.6496(2)
H28C H -0.1589 0.1774 0.6337
H29C H -0.2016 0.1168 0.6537
H30C H -0.1217 0.1167 0.6014
C20C C -0.1035(2) 0.0674(1) 0.7673(3)
H31C H -0.0775 0.0640 0.8273
H32C H -0.0738 0.0475 0.7193
H33C H -0.1535 0.0492 0.7717
H26C H -0.1953 0.1357 0.8382
H27C H -0.1811 0.1962 0.7856
H24C H -0.1495 0.2138 0.9321
H25C H -0.1050 0.1530 0.9426
loop_
_geom_bond_atom_site_label_1
_geom_bond_atom_site_label_2
_geom_bond_site_symmetry_1
_geom_bond_site_symmetry_2
Si1 C12 1_555 1_555
C1 C2 1_555 1_555
C2 C3 1_555 1_555
C3 H2 1_555 1_555
C4 C1 1_555 1_555
C5 C4 1_555 1_555
C6 C5 1_555 1_555
C7 C6 1_555 1_555
C8 C7 1_555 1_555
C9 C8 1_555 1_555
C10 C9 1_555 1_555
C11 C6 1_555 1_555
C12 H9 1_555 1_555
C13 Si1 1_555 1_555
C14 Si1 1_555 1_555
C15 N3 1_555 1_555
C16 N3 1_555 1_555
C17 C18 1_555 1_555
C18 N4 1_555 1_555
C19 N4 1_555 1_555
C20 N4 1_555 1_555
Li1 N1 1_555 1_555
Li2 N3 1_555 1_555
N1 C1 1_555 1_555
N2 Si1 1_555 1_555
N3 C17 1_555 1_555
N4 Li2 1_555 1_555
H1 C2 1_555 1_555
H3 C4 1_555 1_555
H4 C7 1_555 1_555
H5 C8 1_555 1_555
H6 C9 1_555 1_555
H7 C10 1_555 1_555
H8 C11 1_555 1_555
H10 C12 1_555 1_555
H11 C12 1_555 1_555
H12 C13 1_555 1_555
H13 C13 1_555 1_555
H14 C13 1_555 1_555
H15 C14 1_555 1_555
H16 C14 1_555 1_555
H17 C14 1_555 1_555
H18 C15 1_555 1_555
H19 C15 1_555 1_555
H20 C15 1_555 1_555
H21 C16 1_555 1_555
H22 C16 1_555 1_555
H23 C16 1_555 1_555
H24 C17 1_555 1_555
H25 C17 1_555 1_555
H26 C18 1_555 1_555
H27 C18 1_555 1_555
H28 C19 1_555 1_555
H29 C19 1_555 1_555
H30 C19 1_555 1_555
H31 C20 1_555 1_555
H32 C20 1_555 1_555
H33 C20 1_555 1_555
C2B C3 1_555 1_555
C1B N1 1_555 1_555
C4B C1B 1_555 1_555
C5B C4B 1_555 1_555
C6B C5B 1_555 1_555
C7B C6B 1_555 1_555
C8B C7B 1_555 1_555
C9B C8B 1_555 1_555
C10B C9B 1_555 1_555
C11B C6B 1_555 1_555
H8B C11B 1_555 1_555
H7B C10B 1_555 1_555
H6B C9B 1_555 1_555
H5B C8B 1_555 1_555
H4B C7B 1_555 1_555
N2B Li1 1_555 1_555
Si1B N2B 1_555 1_555
C12B Si1B 1_555 1_555
H9B C12B 1_555 1_555
H10B C12B 1_555 1_555
H11B C12B 1_555 1_555
C13B Si1B 1_555 1_555
H12B C13B 1_555 1_555
H13B C13B 1_555 1_555
H14B C13B 1_555 1_555
C14B Si1B 1_555 1_555
H15B C14B 1_555 1_555
H16B C14B 1_555 1_555
H17B C14B 1_555 1_555
H3B C4B 1_555 1_555
H1B C2B 1_555 1_555
N3C Li2 1_555 1_555
C15C N3C 1_555 1_555
H18C C15C 1_555 1_555
H19C C15C 1_555 1_555
H20C C15C 1_555 1_555
C16C N3C 1_555 1_555
H21C C16C 1_555 1_555
H22C C16C 1_555 1_555
H23C C16C 1_555 1_555
C17C N3C 1_555 1_555
C18C C17C 1_555 1_555
N4C Li2 1_555 1_555
C19C N4C 1_555 1_555
H28C C19C 1_555 1_555
H29C C19C 1_555 1_555
H30C C19C 1_555 1_555
C20C N4C 1_555 1_555
H31C C20C 1_555 1_555
H32C C20C 1_555 1_555
H33C C20C 1_555 1_555
H26C C18C 1_555 1_555
H27C C18C 1_555 1_555
H24C C17C 1_555 1_555
H25C C17C 1_555 1_555
C5 N2 1_555 1_555
C10 C11 1_555 1_555
Li1 N2 1_555 1_555
C2B C1B 1_555 1_555
C5B N2B 1_555 1_555
C10B C11B 1_555 1_555
C18C N4C 1_555 1_555

#END
