
#######################################################################
#
#                 Cambridge Crystallographic Data Centre
#                                CCDC 
#
#######################################################################
#
# If this CIF has been generated from an entry in the Cambridge 
# Structural Database, then it will include bibliographic, chemical, 
# crystal, experimental, refinement or atomic coordinate data resulting 
# from the CCDC's data processing and validation procedures.
#
#######################################################################

data_QOLPEN
_chemical_formula_moiety         'C10 H10 N2 O2 S1'
_chemical_name_systematic        
'Ethyl 3-aminothieno(2,3-b)pyridine-2-carboxylate'
_symmetry_cell_setting           monoclinic
_symmetry_space_group_name_H-M   'P 21/c'
_symmetry_Int_Tables_number      14
_space_group_name_Hall           '-P 2ybc'
loop_
_symmetry_equiv_pos_site_id
_symmetry_equiv_pos_as_xyz
1 x,y,z
2 -x,1/2+y,1/2-z
3 -x,-y,-z
4 x,1/2-y,1/2+z
_cell_length_a                   6.657(4)
_cell_length_b                   13.891(4)
_cell_length_c                   10.902(4)
_cell_angle_alpha                90
_cell_angle_beta                 91.64(4)
_cell_angle_gamma                90
_cell_volume                     1007.72
_exptl_crystal_colour            colorless
_exptl_crystal_description       Block
_cell_formula_units_Z            4
_exptl_crystal_recrystallization_method tetrahydrofuran
loop_
_atom_site_label
_atom_site_type_symbol
_atom_site_fract_x
_atom_site_fract_y
_atom_site_fract_z
S1 S 0.20405(9) 0.73591(5) 0.16994(5)
O1 O -0.1351(2) 0.60921(12) 0.17935(15)
O2 O -0.0551(3) 0.52930(13) 0.35384(16)
N1 N 0.5470(3) 0.83735(15) 0.20206(18)
N2 N 0.3157(4) 0.58481(17) 0.46991(19)
H1 H 0.215(4) 0.5502(18) 0.481(2)
H2 H 0.407(4) 0.593(2) 0.519(3)
C1 C 0.7139(4) 0.8539(2) 0.2686(2)
H3 H 0.8010 0.9013 0.2419
C2 C 0.7661(4) 0.8045(2) 0.3756(2)
H4 H 0.8851 0.8192 0.4184
C3 C 0.6422(4) 0.73450(18) 0.4178(2)
H5 H 0.6751 0.7009 0.4894
C4 C 0.4659(3) 0.71448(16) 0.35153(19)
C5 C 0.3088(3) 0.64550(16) 0.3736(2)
C6 C 0.1607(3) 0.64942(17) 0.2830(2)
C7 C 0.4275(3) 0.76841(17) 0.2448(2)
C8 C -0.0161(4) 0.59041(17) 0.2784(2)
C9 C -0.3115(4) 0.5493(2) 0.1610(2)
H6 H -0.4178 0.5864 0.1209
H7 H -0.3587 0.5280 0.2398
C10 C -0.2633(4) 0.4637(2) 0.0840(3)
H8 H -0.2104 0.4849 0.0076
H9 H -0.3832 0.4268 0.0684
H10 H -0.1653 0.4245 0.1267
loop_
_geom_bond_atom_site_label_1
_geom_bond_atom_site_label_2
_geom_bond_site_symmetry_1
_geom_bond_site_symmetry_2
S1 C6 1_555 1_555
O1 C8 1_555 1_555
O2 C8 1_555 1_555
N1 C1 1_555 1_555
N2 H1 1_555 1_555
H2 N2 1_555 1_555
C1 H3 1_555 1_555
C2 C1 1_555 1_555
H4 C2 1_555 1_555
C3 C2 1_555 1_555
H5 C3 1_555 1_555
C4 C3 1_555 1_555
C5 N2 1_555 1_555
C6 C5 1_555 1_555
C7 S1 1_555 1_555
C8 C6 1_555 1_555
C9 O1 1_555 1_555
H6 C9 1_555 1_555
H7 C9 1_555 1_555
C10 C9 1_555 1_555
H8 C10 1_555 1_555
H9 C10 1_555 1_555
H10 C10 1_555 1_555
N1 C7 1_555 1_555
C4 C5 1_555 1_555
C4 C7 1_555 1_555

#END
