
#######################################################################
#
#                 Cambridge Crystallographic Data Centre
#                                CCDC 
#
#######################################################################
#
# If this CIF has been generated from an entry in the Cambridge 
# Structural Database, then it will include bibliographic, chemical, 
# crystal, experimental, refinement or atomic coordinate data resulting 
# from the CCDC's data processing and validation procedures.
#
#######################################################################

data_QOLSAM
_chemical_formula_moiety         'C12 H10 N4,C8 H6 O4'
_chemical_name_systematic        
'1,4-bis(Imidazol-1-yl)benzene terephthalic acid'
_symmetry_cell_setting           monoclinic
_symmetry_space_group_name_H-M   'P 21/n'
_symmetry_Int_Tables_number      14
_space_group_name_Hall           '-P 2yn'
loop_
_symmetry_equiv_pos_site_id
_symmetry_equiv_pos_as_xyz
1 x,y,z
2 1/2-x,1/2+y,1/2-z
3 -x,-y,-z
4 1/2+x,1/2-y,1/2+z
_cell_length_a                   5.2780(17)
_cell_length_b                   10.599(5)
_cell_length_c                   15.449(5)
_cell_angle_alpha                90
_cell_angle_beta                 91.17(3)
_cell_angle_gamma                90
_cell_volume                     864.06
_exptl_crystal_colour            colorless
_exptl_crystal_description       block
_cell_formula_units_Z            2
loop_
_atom_site_label
_atom_site_type_symbol
_atom_site_fract_x
_atom_site_fract_y
_atom_site_fract_z
N1 N 0.3750(4) 0.57026(17) 0.12218(11)
N2 N 0.7031(4) 0.5588(2) 0.21140(12)
C1 C 0.0819(5) 0.6228(2) 0.00451(16)
H1 H 0.1382 0.7059 0.0073
C2 C 0.1041(5) 0.4109(2) 0.05539(15)
H2 H 0.1745 0.3505 0.0923
C3 C 0.1844(4) 0.5339(2) 0.06017(13)
C4 C 0.5583(4) 0.4962(2) 0.15707(14)
H3 H 0.5788 0.4112 0.1440
C5 C 0.6087(5) 0.6786(2) 0.21254(16)
H4 H 0.6740 0.7444 0.2460
C6 C 0.4073(3) 0.68757(13) 0.15820(8)
H5 H 0.3095 0.7590 0.1472
N1B N -0.3750(4) 0.42974(17) -0.12218(11)
N2B N -0.7031(4) 0.4412(2) -0.21140(12)
C1B C -0.0819(5) 0.3772(2) -0.00451(16)
H1B H -0.1382 0.2941 -0.0073
C2B C -0.1041(5) 0.5891(2) -0.05539(15)
H2B H -0.1745 0.6495 -0.0923
C3B C -0.1844(4) 0.4661(2) -0.06017(13)
C4B C -0.5583(4) 0.5038(2) -0.15707(14)
H3B H -0.5788 0.5888 -0.1440
C5B C -0.6087(5) 0.3214(2) -0.21254(16)
H4B H -0.6740 0.2556 -0.2460
C6B C -0.4073(3) 0.31243(13) -0.15820(8)
H5B H -0.3095 0.2410 -0.1472
O1 O 0.0950(3) 0.49725(13) 0.30802(8)
H6 H -0.0288 0.5179 0.2784
O2 O 0.0072(4) 0.67524(16) 0.37876(12)
C7 C 0.1260(5) 0.5775(2) 0.37186(15)
C8 C 0.3231(4) 0.5370(2) 0.43721(14)
C9 C 0.5136(4) 0.4536(2) 0.41709(14)
H7 H 0.5236 0.4221 0.3611
C10 C 0.3103(4) 0.5836(2) 0.52078(14)
H8 H 0.1829 0.6400 0.5350
O1B O 0.9050(3) 0.50275(13) 0.69198(8)
H6B H 1.0288 0.4821 0.7216
O2B O 0.9928(4) 0.32476(16) 0.62124(12)
C7B C 0.8740(5) 0.4225(2) 0.62814(15)
C8B C 0.6769(4) 0.4630(2) 0.56279(14)
C9B C 0.4864(4) 0.5464(2) 0.58291(14)
H7B H 0.4764 0.5779 0.6389
C10B C 0.6897(4) 0.4164(2) 0.47922(14)
H8B H 0.8171 0.3600 0.4650
loop_
_geom_bond_atom_site_label_1
_geom_bond_atom_site_label_2
_geom_bond_site_symmetry_1
_geom_bond_site_symmetry_2
N1 C3 1_555 1_555
N2 C4 1_555 1_555
C1 H1 1_555 1_555
C2 H2 1_555 1_555
C3 C1 1_555 1_555
C4 N1 1_555 1_555
H3 C4 1_555 1_555
C5 N2 1_555 1_555
H4 C5 1_555 1_555
C6 N1 1_555 1_555
H5 C6 1_555 1_555
O1 H6 1_555 1_555
O2 C7 1_555 1_555
C7 O1 1_555 1_555
C8 C7 1_555 1_555
C9 C8 1_555 1_555
H7 C9 1_555 1_555
C10 C8 1_555 1_555
H8 C10 1_555 1_555
N1B C3B 1_555 1_555
N2B C4B 1_555 1_555
C1B C2 1_555 1_555
H1B C1B 1_555 1_555
C2B C1 1_555 1_555
H2B C2B 1_555 1_555
C3B C1B 1_555 1_555
C4B N1B 1_555 1_555
H3B C4B 1_555 1_555
C5B N2B 1_555 1_555
H4B C5B 1_555 1_555
C6B N1B 1_555 1_555
H5B C6B 1_555 1_555
O1B H6B 1_555 1_555
O2B C7B 1_555 1_555
C7B O1B 1_555 1_555
C8B C7B 1_555 1_555
C9B C10 1_555 1_555
H7B C9B 1_555 1_555
C10B C9 1_555 1_555
H8B C10B 1_555 1_555
C2 C3 1_555 1_555
C5 C6 1_555 1_555
C2B C3B 1_555 1_555
C5B C6B 1_555 1_555
C8B C9B 1_555 1_555
C8B C10B 1_555 1_555

#END
