
#######################################################################
#
#                 Cambridge Crystallographic Data Centre
#                                CCDC 
#
#######################################################################
#
# If this CIF has been generated from an entry in the Cambridge 
# Structural Database, then it will include bibliographic, chemical, 
# crystal, experimental, refinement or atomic coordinate data resulting 
# from the CCDC's data processing and validation procedures.
#
#######################################################################

data_QOMSER
_chemical_formula_moiety         'C12 H17 Cl1 N1 O6 P1'
_chemical_name_systematic        
'(R)-Diethyl (1-(4-chlorophenyl)-1-hydroxy-2-nitroethyl)phosphonate'
_symmetry_cell_setting           orthorhombic
_symmetry_space_group_name_H-M   'P 21 21 21'
_symmetry_Int_Tables_number      19
_space_group_name_Hall           'P 2ac 2ab'
loop_
_symmetry_equiv_pos_site_id
_symmetry_equiv_pos_as_xyz
1 x,y,z
2 1/2+x,1/2-y,-z
3 -x,1/2+y,1/2-z
4 1/2-x,-y,1/2+z
_cell_length_a                   10.394(3)
_cell_length_b                   10.397(4)
_cell_length_c                   15.057(4)
_cell_angle_alpha                90
_cell_angle_beta                 90
_cell_angle_gamma                90
_cell_volume                     1627.16
_exptl_crystal_colour            colorless
_exptl_crystal_description       block
_cell_formula_units_Z            4
loop_
_atom_site_label
_atom_site_type_symbol
_atom_site_fract_x
_atom_site_fract_y
_atom_site_fract_z
Cl1 Cl 0.6650(3) 0.2987(2) 0.28091(19)
P1 P 0.8294(2) -0.2633(2) 0.07377(14)
O1 O 1.0468(5) -0.1300(5) 0.0926(3)
H1 H 1.0892 -0.1726 0.0573
O2 O 0.9125(13) 0.1373(13) -0.0809(13)
O3 O 1.0884(13) 0.0759(12) -0.0438(15)
O4 O 0.9231(6) -0.3615(6) 0.0322(5)
O5 O 0.8328(6) -0.2958(6) 0.1738(4)
O6 O 0.6993(6) -0.2572(6) 0.0351(4)
N1 N 0.9792(11) 0.0441(9) -0.0568(7)
C1 C 0.9127(9) 0.0378(8) 0.1908(5)
H2 H 0.9910 0.0030 0.2086
C2 C 0.8558(10) 0.1348(10) 0.2420(6)
H3 H 0.8979 0.1673 0.2917
C3 C 0.7384(10) 0.1811(8) 0.2184(7)
C4 C 0.6774(10) 0.1335(9) 0.1437(6)
H4 H 0.5962 0.1635 0.1280
C5 C 0.7378(9) 0.0407(9) 0.0922(7)
H5 H 0.6975 0.0103 0.0412
C6 C 0.8557(8) -0.0065(7) 0.1155(6)
C7 C 0.9218(8) -0.1121(7) 0.0588(5)
C8 C 0.9203(11) -0.0828(9) -0.0404(6)
H6 H 0.9678 -0.1486 -0.0722
H7 H 0.8324 -0.0830 -0.0620
C9 C 0.8879(13) -0.4910(8) 0.0033(7)
H8 H 0.9319 -0.5121 -0.0516
H9 H 0.7959 -0.4961 -0.0070
C10 C 0.9279(17) -0.5863(11) 0.0777(8)
H10 H 1.0186 -0.5785 0.0886
H11 H 0.9086 -0.6726 0.0594
H12 H 0.8814 -0.5666 0.1311
C11 C 0.7231(14) -0.2643(14) 0.2314(8)
H13 H 0.6432 -0.2943 0.2052
H14 H 0.7172 -0.1722 0.2406
C12 C 0.750(2) -0.335(2) 0.3205(11)
H15 H 0.7378 -0.4254 0.3126
H16 H 0.6911 -0.3037 0.3649
H17 H 0.8365 -0.3179 0.3389
loop_
_geom_bond_atom_site_label_1
_geom_bond_atom_site_label_2
_geom_bond_site_symmetry_1
_geom_bond_site_symmetry_2
Cl1 C3 1_555 1_555
P1 O4 1_555 1_555
O1 H1 1_555 1_555
O2 N1 1_555 1_555
O3 N1 1_555 1_555
O4 C9 1_555 1_555
O5 P1 1_555 1_555
O6 P1 1_555 1_555
N1 C8 1_555 1_555
C1 H2 1_555 1_555
C2 C1 1_555 1_555
H3 C2 1_555 1_555
C3 C2 1_555 1_555
C4 C3 1_555 1_555
H4 C4 1_555 1_555
C5 C4 1_555 1_555
H5 C5 1_555 1_555
C6 C1 1_555 1_555
C7 P1 1_555 1_555
C8 C7 1_555 1_555
H6 C8 1_555 1_555
H7 C8 1_555 1_555
C9 H8 1_555 1_555
H9 C9 1_555 1_555
C10 C9 1_555 1_555
H10 C10 1_555 1_555
H11 C10 1_555 1_555
H12 C10 1_555 1_555
C11 O5 1_555 1_555
H13 C11 1_555 1_555
H14 C11 1_555 1_555
C12 C11 1_555 1_555
H15 C12 1_555 1_555
H16 C12 1_555 1_555
H17 C12 1_555 1_555
O1 C7 1_555 1_555
C5 C6 1_555 1_555
C6 C7 1_555 1_555

#END
