
#######################################################################
#
#                 Cambridge Crystallographic Data Centre
#                                CCDC 
#
#######################################################################
#
# If this CIF has been generated from an entry in the Cambridge 
# Structural Database, then it will include bibliographic, chemical, 
# crystal, experimental, refinement or atomic coordinate data resulting 
# from the CCDC's data processing and validation procedures.
#
#######################################################################

data_QONBUR
_chemical_formula_moiety         'C88 H120 B1 N3 O1 Si6,2(C1 H2 Cl2),C1 H4 O1'
_chemical_name_systematic        
'Methoxy-(2,3,7,8,12,13-hexakis(trimethylsilylethynyl)-5,10,15-tris(3,5-di-t-butylphenyl)subporphyrinato)-boron(iii) dichloromethane methanol solvate'
_symmetry_cell_setting           monoclinic
_symmetry_space_group_name_H-M   'I a'
_symmetry_Int_Tables_number      9
_space_group_name_Hall           'I -2ya'
loop_
_symmetry_equiv_pos_site_id
_symmetry_equiv_pos_as_xyz
1 x,y,z
2 1/2+x,-y,z
3 1/2+x,1/2+y,1/2+z
4 x,1/2-y,1/2+z
_cell_length_a                   17.311(4)
_cell_length_b                   32.850(7)
_cell_length_c                   18.949(5)
_cell_angle_alpha                90
_cell_angle_beta                 113.281(8)
_cell_angle_gamma                90
_cell_volume                     9898.28
_exptl_crystal_colour            red
_exptl_crystal_description       prism
_cell_formula_units_Z            4
_exptl_crystal_recrystallization_method dichloromethane/methanol
loop_
_atom_site_label
_atom_site_type_symbol
_atom_site_fract_x
_atom_site_fract_y
_atom_site_fract_z
C1 C 0.1065(4) -0.33446(17) 0.2028(4)
C2 C 0.1911(4) -0.32026(17) 0.2502(4)
C3 C 0.2253(4) -0.34673(19) 0.3106(4)
C4 C 0.1652(3) -0.37874(18) 0.3030(3)
C5 C 0.1691(3) -0.41739(18) 0.3340(3)
C6 C 0.1050(3) -0.44607(18) 0.2949(3)
C7 C 0.0993(4) -0.48958(19) 0.2923(3)
C8 C 0.0275(3) -0.50063(17) 0.2282(3)
C9 C -0.0126(3) -0.46368(17) 0.1910(3)
C10 C -0.0776(3) -0.45454(18) 0.1185(3)
C11 C -0.0797(3) -0.41505(17) 0.0880(4)
C12 C -0.1216(4) -0.39644(18) 0.0130(4)
C13 C -0.0818(4) -0.35757(18) 0.0169(4)
C14 C -0.0188(4) -0.35310(17) 0.0922(4)
C15 C 0.0475(4) -0.32544(17) 0.1283(4)
C16 C 0.2456(4) -0.43204(19) 0.3993(3)
C17 C 0.2460(4) -0.4347(2) 0.4719(3)
H1 H 0.1974 -0.4276 0.4806
C18 C 0.3187(4) -0.4479(2) 0.5325(4)
C19 C 0.3877(4) -0.4596(2) 0.5179(4)
H2 H 0.4360 -0.4698 0.5588
C20 C 0.3883(4) -0.4566(2) 0.4449(4)
C21 C 0.3155(4) -0.4420(2) 0.3857(4)
H3 H 0.3145 -0.4389 0.3355
C22 C 0.3183(5) -0.4530(3) 0.6134(4)
C23 C 0.2348(8) -0.4390(5) 0.6191(8)
H4 H 0.2408 -0.4407 0.6726
H5 H 0.1887 -0.4567 0.5870
H6 H 0.2227 -0.4108 0.6011
C24 C 0.3424(12) -0.4977(5) 0.6414(8)
H7 H 0.3946 -0.5052 0.6361
H8 H 0.2972 -0.5161 0.6103
H9 H 0.3504 -0.4999 0.6954
C25 C 0.3844(8) -0.4250(4) 0.6681(6)
H10 H 0.3776 -0.3976 0.6459
H11 H 0.4405 -0.4353 0.6768
H12 H 0.3779 -0.4238 0.7172
C26 C 0.4621(4) -0.4688(2) 0.4261(4)
C27 C 0.5376(4) -0.4835(3) 0.4955(5)
H13 H 0.5496 -0.4642 0.5379
H14 H 0.5866 -0.4856 0.4820
H15 H 0.5253 -0.5103 0.5112
C28 C 0.4889(4) -0.4323(2) 0.3899(5)
H16 H 0.4420 -0.4242 0.3425
H17 H 0.5371 -0.4401 0.3780
H18 H 0.5048 -0.4095 0.4261
C29 C 0.4351(5) -0.5035(2) 0.3685(5)
H19 H 0.4100 -0.5252 0.3879
H20 H 0.4842 -0.5141 0.3611
H21 H 0.3937 -0.4935 0.3194
C30 C -0.1344(3) -0.48742(18) 0.0730(3)
C31 C -0.1949(4) -0.50205(19) 0.0990(4)
H22 H -0.1992 -0.4911 0.1436
C32 C -0.2491(4) -0.5336(2) 0.0566(4)
C33 C -0.2423(4) -0.5481(2) -0.0077(4)
H23 H -0.2801 -0.5688 -0.0364
C34 C -0.1821(4) -0.53393(19) -0.0335(4)
C35 C -0.1289(4) -0.50309(19) 0.0085(4)
H24 H -0.0877 -0.4926 -0.0081
C36 C -0.3186(4) -0.5479(2) 0.0827(4)
C37 C -0.2847(5) -0.5509(3) 0.1704(5)
H25 H -0.3292 -0.5610 0.1856
H26 H -0.2663 -0.5240 0.1929
H27 H -0.2370 -0.5698 0.1887
C38 C -0.3493(7) -0.5901(3) 0.0530(6)
H28 H -0.3013 -0.6086 0.0669
H29 H -0.3790 -0.5892 -0.0030
H30 H -0.3878 -0.5998 0.0760
C39 C -0.3889(5) -0.5181(4) 0.0583(7)
H31 H -0.4057 -0.5117 0.0037
H32 H -0.3705 -0.4931 0.0887
H33 H -0.4368 -0.5297 0.0666
C40 C -0.1747(5) -0.5501(2) -0.1063(4)
C41 C -0.1871(10) -0.5155(3) -0.1621(6)
H34 H -0.2382 -0.5004 -0.1680
H35 H -0.1928 -0.5263 -0.2120
H36 H -0.1385 -0.4972 -0.1424
C42 C -0.2360(6) -0.5840(3) -0.1449(6)
H37 H -0.2264 -0.6068 -0.1091
H38 H -0.2276 -0.5932 -0.1906
H39 H -0.2936 -0.5740 -0.1601
C43 C -0.0864(5) -0.5677(3) -0.0853(7)
H40 H -0.0448 -0.5458 -0.0673
H41 H -0.0830 -0.5806 -0.1307
H42 H -0.0748 -0.5880 -0.0445
C44 C 0.0604(4) -0.29002(19) 0.0848(4)
C45 C 0.0467(5) -0.2516(2) 0.1035(5)
H43 H 0.0295 -0.2478 0.1449
C46 C 0.0570(5) -0.2176(2) 0.0642(5)
C47 C 0.0841(5) -0.2252(2) 0.0058(5)
H44 H 0.0927 -0.2027 -0.0217
C48 C 0.0999(5) -0.2650(2) -0.0151(5)
C49 C 0.0863(4) -0.2968(2) 0.0262(4)
H45 H 0.0951 -0.3239 0.0137
C50 C 0.0400(6) -0.1749(2) 0.0869(6)
C51 C 0.0987(9) -0.1654(3) 0.1683(7)
H46 H 0.0817 -0.1810 0.2039
H47 H 0.0963 -0.1363 0.1781
H48 H 0.1562 -0.1729 0.1759
C52 C 0.0537(7) -0.1418(3) 0.0377(7)
H49 H 0.1114 -0.1316 0.0622
H50 H 0.0141 -0.1195 0.0319
H51 H 0.0445 -0.1530 -0.0130
C53 C -0.0539(7) -0.1735(3) 0.0784(7)
H52 H -0.0907 -0.1834 0.0273
H53 H -0.0692 -0.1455 0.0850
H54 H -0.0606 -0.1909 0.1177
C54 C 0.2334(4) -0.28669(19) 0.2350(4)
C55 C 0.2780(5) -0.2588(2) 0.2293(5)
C56 C 0.2973(7) -0.1959(4) 0.1250(7)
H55 H 0.2426 -0.1838 0.1166
H56 H 0.2896 -0.2178 0.0877
H57 H 0.3343 -0.1750 0.1184
C57 C 0.3511(8) -0.1799(4) 0.2965(8)
H58 H 0.2939 -0.1720 0.2894
H59 H 0.3815 -0.1559 0.2903
H60 H 0.3804 -0.1911 0.3482
C58 C 0.4480(6) -0.2380(3) 0.2422(7)
H61 H 0.4856 -0.2159 0.2411
H62 H 0.4425 -0.2578 0.2017
H63 H 0.4714 -0.2515 0.2923
C59 C 0.3076(4) -0.3416(2) 0.3703(4)
C60 C 0.3754(4) -0.3327(2) 0.4210(4)
C61 C 0.5530(6) -0.3104(4) 0.4481(7)
H64 H 0.5588 -0.3368 0.4263
H65 H 0.6075 -0.3023 0.4873
H66 H 0.5340 -0.2899 0.4073
C62 C 0.4568(7) -0.2630(3) 0.5264(7)
H67 H 0.4283 -0.2455 0.4818
H68 H 0.5111 -0.2510 0.5588
H69 H 0.4219 -0.2657 0.5561
C63 C 0.5112(6) -0.3522(3) 0.5737(6)
H70 H 0.4717 -0.3525 0.5991
H71 H 0.5671 -0.3441 0.6108
H72 H 0.5143 -0.3794 0.5538
C64 C 0.1581(4) -0.5173(2) 0.3430(4)
C65 C 0.2016(4) -0.5434(2) 0.3828(4)
C66 C 0.3692(5) -0.5676(3) 0.5046(6)
C67 C 0.2151(8) -0.5963(4) 0.5187(8)
H73 H 0.1639 -0.6126 0.4942
H74 H 0.2012 -0.5708 0.5377
H75 H 0.2559 -0.6116 0.5618
C68 C 0.2536(11) -0.6301(5) 0.3922(11)
H76 H 0.2649 -0.6540 0.4259
H77 H 0.2948 -0.6290 0.3687
H78 H 0.1969 -0.6322 0.3519
C69 C 0.0042(4) -0.5415(2) 0.2037(4)
C70 C -0.0128(4) -0.5761(2) 0.1878(4)
C71 C -0.0888(11) -0.6425(5) 0.0689(10)
H79 H -0.0531 -0.6345 0.0419
H80 H -0.1420 -0.6276 0.0476
H81 H -0.1000 -0.6718 0.0622
C72 C -0.1063(9) -0.6453(4) 0.2166(9)
H82 H -0.1596 -0.6307 0.1919
H83 H -0.0810 -0.6383 0.2713
H84 H -0.1166 -0.6747 0.2109
C73 C 0.0598(10) -0.6605(5) 0.2056(10)
H85 H 0.0455 -0.6895 0.2014
H86 H 0.0932 -0.6536 0.2595
H87 H 0.0924 -0.6544 0.1747
C74 C -0.1917(4) -0.41058(19) -0.0498(4)
C75 C -0.2560(4) -0.4173(2) -0.1058(4)
C76 C -0.4216(5) -0.3781(3) -0.1838(6)
H88 H -0.4279 -0.3751 -0.1349
H89 H -0.4772 -0.3801 -0.2258
H90 H -0.3918 -0.3544 -0.1922
C77 C -0.3473(6) -0.4320(4) -0.2732(5)
H91 H -0.3209 -0.4077 -0.2838
H92 H -0.4026 -0.4361 -0.3149
H93 H -0.3117 -0.4557 -0.2695
C78 C -0.4060(6) -0.4697(3) -0.1536(6)
H94 H -0.3678 -0.4929 -0.1446
H95 H -0.4602 -0.4763 -0.1949
H96 H -0.4144 -0.4636 -0.1065
C79 C -0.1089(4) -0.3295(2) -0.0454(4)
C80 C -0.1428(5) -0.3067(2) -0.0972(5)
C81 C -0.1378(13) -0.2243(6) -0.1673(12)
H97 H -0.1192 -0.2126 -0.1156
H98 H -0.1718 -0.2043 -0.2051
H99 H -0.0886 -0.2316 -0.1780
C82 C -0.2481(16) -0.2990(6) -0.2637(11)
H100 H -0.2812 -0.3219 -0.2574
H101 H -0.2031 -0.3093 -0.2779
H102 H -0.2848 -0.2809 -0.3042
C83 C -0.2976(11) -0.2527(8) -0.1518(19)
H103 H -0.3330 -0.2761 -0.1528
H104 H -0.3305 -0.2329 -0.1909
H105 H -0.2774 -0.2399 -0.1010
C84 C -0.0225(6) -0.3716(3) 0.3272(5)
H106 H 0.0337 -0.3598 0.3528
H107 H -0.0223 -0.3996 0.3452
H108 H -0.0631 -0.3554 0.3394
N1 N 0.0945(3) -0.36708(14) 0.2418(3)
N2 N 0.0325(3) -0.43201(14) 0.2355(3)
N3 N -0.0249(3) -0.38676(14) 0.1322(3)
Si1 Si 0.34662(15) -0.21748(6) 0.22646(19)
Si2 Si 0.47432(12) -0.31495(7) 0.49261(13)
Si3 Si 0.26138(14) -0.58497(7) 0.44722(16)
Si4 Si -0.03480(14) -0.63089(6) 0.17130(13)
Si5 Si -0.36021(12) -0.42513(7) -0.18117(12)
Si6 Si -0.2021(2) -0.27075(9) -0.1731(2)
B1 B 0.0113(4) -0.3890(2) 0.2170(4)
O1 O -0.0451(3) -0.37166(14) 0.2477(3)
C87 C 0.1309(7) -0.2725(3) -0.0792(6)
C88 C 0.2093(12) -0.2936(6) -0.0413(12)
H113 H 0.2163 -0.3138 -0.0764
H114 H 0.2092 -0.3074 0.0045
H115 H 0.2558 -0.2741 -0.0263
C89 C 0.0683(14) -0.3030(6) -0.1337(11)
H116 H 0.0218 -0.2882 -0.1726
H117 H 0.0463 -0.3206 -0.1043
H118 H 0.0970 -0.3196 -0.1589
C90 C 0.1303(16) -0.2381(6) -0.1236(12)
H119 H 0.1848 -0.2243 -0.1011
H120 H 0.0858 -0.2194 -0.1245
H121 H 0.1198 -0.2466 -0.1762
Cl1 Cl 0.4871(6) 0.0713(3) 0.3443(6)
Cl2 Cl 0.3696(8) 0.1059(3) 0.2161(7)
C85 C 0.4051(12) 0.0996(6) 0.3060(11)
H109 H 0.3596 0.0879 0.3188
H110 H 0.4184 0.1268 0.3304
Cl3 Cl 0.1240(7) 0.1936(3) 0.5006(7)
Cl4 Cl 0.2894(16) 0.2319(7) 0.5777(14)
C86 C 0.181(3) 0.2109(14) 0.565(3)
H111 H 0.1920 0.1905 0.6062
H112 H 0.1514 0.2337 0.5776
O2 O -0.2253(13) -0.3756(5) 0.1911(12)
H122 H -0.1865 -0.3676 0.2318
C91 C -0.2546(12) -0.4157(5) 0.2040(12)
H123 H -0.2132 -0.4364 0.2058
H124 H -0.3086 -0.4219 0.1620
H125 H -0.2617 -0.4156 0.2528
C92? C 0.2491(17) -0.4824(11) 0.6067(15)
H126? H 0.2285 -0.4766 0.6470
H127? H 0.2708 -0.5103 0.6125
H128? H 0.2029 -0.4793 0.5562
C93? C 0.3090(18) -0.4118(10) 0.6431(15)
H129? H 0.2517 -0.4017 0.6147
H130? H 0.3494 -0.3930 0.6362
H131? H 0.3199 -0.4138 0.6978
C94? C 0.403(2) -0.4756(12) 0.6689(15)
H132? H 0.4519 -0.4591 0.6734
H133? H 0.4070 -0.5023 0.6471
H134? H 0.4021 -0.4794 0.7198
C95? C 0.1361(17) -0.3196(5) -0.0984(16)
H135? H 0.0818 -0.3327 -0.1087
H136? H 0.1799 -0.3329 -0.0546
H137? H 0.1496 -0.3220 -0.1438
C96? C 0.2192(11) -0.2524(7) -0.0453(17)
H138? H 0.2392 -0.2481 -0.0864
H139? H 0.2584 -0.2704 -0.0061
H140? H 0.2157 -0.2263 -0.0219
C97? C 0.0688(16) -0.2499(8) -0.1511(13)
H141? H 0.0749 -0.2205 -0.1424
H142? H 0.0111 -0.2580 -0.1605
H143? H 0.0812 -0.2570 -0.1958
C98? C -0.292(3) -0.2895(14) -0.237(3)
H144? H -0.2967 -0.3184 -0.2266
H145? H -0.2930 -0.2866 -0.2892
H146? H -0.3397 -0.2746 -0.2342
C99? C -0.163(3) -0.2913(15) -0.265(3)
H147? H -0.1032 -0.2854 -0.2507
H148? H -0.1961 -0.2769 -0.3132
H149? H -0.1726 -0.3207 -0.2732
C100? C -0.158(4) -0.2305(18) -0.159(4)
H150? H -0.1064 -0.2321 -0.1117
H151? H -0.1948 -0.2094 -0.1526
H152? H -0.1432 -0.2236 -0.2022
loop_
_geom_bond_atom_site_label_1
_geom_bond_atom_site_label_2
_geom_bond_site_symmetry_1
_geom_bond_site_symmetry_2
C1 C2 1_555 1_555
C2 C3 1_555 1_555
C3 C4 1_555 1_555
C4 C5 1_555 1_555
C5 C6 1_555 1_555
C6 C7 1_555 1_555
C7 C8 1_555 1_555
C8 C9 1_555 1_555
C9 C10 1_555 1_555
C10 C11 1_555 1_555
C11 C12 1_555 1_555
C12 C13 1_555 1_555
C13 C14 1_555 1_555
C14 C15 1_555 1_555
C15 C1 1_555 1_555
C16 C5 1_555 1_555
C17 C16 1_555 1_555
H1 C17 1_555 1_555
C18 C17 1_555 1_555
C19 C18 1_555 1_555
H2 C19 1_555 1_555
C20 C19 1_555 1_555
C21 C16 1_555 1_555
H3 C21 1_555 1_555
C22 C18 1_555 1_555
C23 C22 1_555 1_555
H4 C23 1_555 1_555
H5 C23 1_555 1_555
H6 C23 1_555 1_555
C24 C22 1_555 1_555
H7 C24 1_555 1_555
H8 C24 1_555 1_555
H9 C24 1_555 1_555
C25 C22 1_555 1_555
H10 C25 1_555 1_555
H11 C25 1_555 1_555
H12 C25 1_555 1_555
C26 C20 1_555 1_555
C27 C26 1_555 1_555
H13 C27 1_555 1_555
H14 C27 1_555 1_555
H15 C27 1_555 1_555
C28 C26 1_555 1_555
H16 C28 1_555 1_555
H17 C28 1_555 1_555
H18 C28 1_555 1_555
C29 C26 1_555 1_555
H19 C29 1_555 1_555
H20 C29 1_555 1_555
H21 C29 1_555 1_555
C30 C10 1_555 1_555
C31 C30 1_555 1_555
H22 C31 1_555 1_555
C32 C31 1_555 1_555
C33 C32 1_555 1_555
H23 C33 1_555 1_555
C34 C33 1_555 1_555
C35 C30 1_555 1_555
H24 C35 1_555 1_555
C36 C32 1_555 1_555
C37 C36 1_555 1_555
H25 C37 1_555 1_555
H26 C37 1_555 1_555
H27 C37 1_555 1_555
C38 C36 1_555 1_555
H28 C38 1_555 1_555
H29 C38 1_555 1_555
H30 C38 1_555 1_555
C39 C36 1_555 1_555
H31 C39 1_555 1_555
H32 C39 1_555 1_555
H33 C39 1_555 1_555
C40 C34 1_555 1_555
C41 C40 1_555 1_555
H34 C41 1_555 1_555
H35 C41 1_555 1_555
H36 C41 1_555 1_555
C42 C40 1_555 1_555
H37 C42 1_555 1_555
H38 C42 1_555 1_555
H39 C42 1_555 1_555
C43 C40 1_555 1_555
H40 C43 1_555 1_555
H41 C43 1_555 1_555
H42 C43 1_555 1_555
C44 C15 1_555 1_555
C45 C44 1_555 1_555
H43 C45 1_555 1_555
C46 C45 1_555 1_555
C47 C46 1_555 1_555
H44 C47 1_555 1_555
C48 C47 1_555 1_555
C49 C44 1_555 1_555
H45 C49 1_555 1_555
C50 C46 1_555 1_555
C51 C50 1_555 1_555
H46 C51 1_555 1_555
H47 C51 1_555 1_555
H48 C51 1_555 1_555
C52 C50 1_555 1_555
H49 C52 1_555 1_555
H50 C52 1_555 1_555
H51 C52 1_555 1_555
C53 C50 1_555 1_555
H52 C53 1_555 1_555
H53 C53 1_555 1_555
H54 C53 1_555 1_555
C54 C2 1_555 1_555
C55 C54 1_555 1_555
C56 H55 1_555 1_555
H56 C56 1_555 1_555
H57 C56 1_555 1_555
C57 H58 1_555 1_555
H59 C57 1_555 1_555
H60 C57 1_555 1_555
C58 H61 1_555 1_555
H62 C58 1_555 1_555
H63 C58 1_555 1_555
C59 C3 1_555 1_555
C60 C59 1_555 1_555
C61 H64 1_555 1_555
H65 C61 1_555 1_555
H66 C61 1_555 1_555
C62 H67 1_555 1_555
H68 C62 1_555 1_555
H69 C62 1_555 1_555
C63 H70 1_555 1_555
H71 C63 1_555 1_555
H72 C63 1_555 1_555
C64 C7 1_555 1_555
C65 C64 1_555 1_555
C66 Si3 1_555 1_555
C67 H73 1_555 1_555
H74 C67 1_555 1_555
H75 C67 1_555 1_555
C68 H76 1_555 1_555
H77 C68 1_555 1_555
H78 C68 1_555 1_555
C69 C8 1_555 1_555
C70 C69 1_555 1_555
C71 H79 1_555 1_555
H80 C71 1_555 1_555
H81 C71 1_555 1_555
C72 H82 1_555 1_555
H83 C72 1_555 1_555
H84 C72 1_555 1_555
C73 H85 1_555 1_555
H86 C73 1_555 1_555
H87 C73 1_555 1_555
C74 C12 1_555 1_555
C75 C74 1_555 1_555
C76 H88 1_555 1_555
H89 C76 1_555 1_555
H90 C76 1_555 1_555
C77 H91 1_555 1_555
H92 C77 1_555 1_555
H93 C77 1_555 1_555
C78 H94 1_555 1_555
H95 C78 1_555 1_555
H96 C78 1_555 1_555
C79 C13 1_555 1_555
C80 C79 1_555 1_555
C81 H97 1_555 1_555
H98 C81 1_555 1_555
H99 C81 1_555 1_555
C82 H100 1_555 1_555
H101 C82 1_555 1_555
H102 C82 1_555 1_555
C83 H103 1_555 1_555
H104 C83 1_555 1_555
H105 C83 1_555 1_555
C84 H106 1_555 1_555
H107 C84 1_555 1_555
H108 C84 1_555 1_555
N1 C1 1_555 1_555
N2 C6 1_555 1_555
N3 C11 1_555 1_555
Si1 C55 1_555 1_555
Si2 C60 1_555 1_555
Si3 C65 1_555 1_555
Si4 C70 1_555 1_555
Si5 C75 1_555 1_555
Si6 C80 1_555 1_555
B1 N1 1_555 1_555
O1 C84 1_555 1_555
Cl1 C85 1_555 1_555
Cl2 C85 1_555 1_555
C85 H109 1_555 1_555
H110 C85 1_555 1_555
Cl3 C86 1_555 1_555
Cl4 C86 1_555 1_555
C86 H111 1_555 1_555
H112 C86 1_555 1_555
C87 C48 1_555 1_555
C88 C87 1_555 1_555
H113 C88 1_555 1_555
H114 C88 1_555 1_555
H115 C88 1_555 1_555
C89 C87 1_555 1_555
H116 C89 1_555 1_555
H117 C89 1_555 1_555
H118 C89 1_555 1_555
C90 C87 1_555 1_555
H119 C90 1_555 1_555
H120 C90 1_555 1_555
H121 C90 1_555 1_555
O2 H122 1_555 1_555
C91 O2 1_555 1_555
H123 C91 1_555 1_555
H124 C91 1_555 1_555
H125 C91 1_555 1_555
C4 N1 1_555 1_555
C9 N2 1_555 1_555
C14 N3 1_555 1_555
C20 C21 1_555 1_555
C34 C35 1_555 1_555
C48 C49 1_555 1_555
C56 Si1 1_555 1_555
C57 Si1 1_555 1_555
C58 Si1 1_555 1_555
C61 Si2 1_555 1_555
C62 Si2 1_555 1_555
C63 Si2 1_555 1_555
C67 Si3 1_555 1_555
C68 Si3 1_555 1_555
C71 Si4 1_555 1_555
C72 Si4 1_555 1_555
C73 Si4 1_555 1_555
C76 Si5 1_555 1_555
C77 Si5 1_555 1_555
C78 Si5 1_555 1_555
C81 Si6 1_555 1_555
C82 Si6 1_555 1_555
C83 Si6 1_555 1_555
N2 B1 1_555 1_555
N3 B1 1_555 1_555
B1 O1 1_555 1_555

#END
