
#######################################################################
#
#                 Cambridge Crystallographic Data Centre
#                                CCDC 
#
#######################################################################
#
# If this CIF has been generated from an entry in the Cambridge 
# Structural Database, then it will include bibliographic, chemical, 
# crystal, experimental, refinement or atomic coordinate data resulting 
# from the CCDC's data processing and validation procedures.
#
#######################################################################

data_QONHUW
_chemical_formula_moiety         'C50 H48 O12,C4 H8 O2'
_chemical_name_systematic        
'4,6,11,13-Tetramethoxy-1,16-bis(camphanoyl-O)(6)helicene ethyl acetate solvate'
_symmetry_cell_setting           orthorhombic
_symmetry_space_group_name_H-M   'P 21 21 21'
_symmetry_Int_Tables_number      19
_space_group_name_Hall           'P 2ac 2ab'
loop_
_symmetry_equiv_pos_site_id
_symmetry_equiv_pos_as_xyz
1 x,y,z
2 1/2-x,-y,1/2+z
3 1/2+x,1/2-y,-z
4 -x,1/2+y,1/2-z
_cell_length_a                   11.3435(2)
_cell_length_b                   16.5631(2)
_cell_length_c                   25.9780(2)
_cell_angle_alpha                90
_cell_angle_beta                 90
_cell_angle_gamma                90
_cell_volume                     4880.84
_exptl_crystal_colour            yellow
_exptl_crystal_description       prism
_cell_formula_units_Z            4
loop_
_atom_site_label
_atom_site_type_symbol
_atom_site_fract_x
_atom_site_fract_y
_atom_site_fract_z
O1 O 0.5152(3) 0.8826(2) 0.9004(1)
O2 O 0.3470(3) 0.8911(3) 0.9475(1)
O3 O 0.5063(3) 0.9541(3) 1.1176(1)
O4 O 0.4690(3) 0.9452(2) 1.0321(1)
O5 O 0.2239(3) 0.7517(2) 0.7504(1)
O6 O 0.0902(3) 1.0376(2) 0.7745(1)
O7 O 0.8834(3) 1.0667(3) 0.9049(1)
O8 O 0.8859(3) 0.7901(2) 0.8271(1)
O9 O 0.5127(3) 0.9517(2) 0.7359(1)
O10 O 0.6655(3) 1.0096(2) 0.6935(1)
O11 O 0.4876(3) 1.1041(2) 0.5372(1)
O12 O 0.5274(3) 1.0715(2) 0.6199(1)
C1 C 0.3806(4) 0.9036(3) 0.8270(2)
C2 C 0.4501(4) 0.8514(3) 0.8579(2)
C3 C 0.4524(4) 0.7700(3) 0.8505(2)
C4 C 0.3836(4) 0.7341(3) 0.8117(2)
C5 C 0.3039(4) 0.7804(3) 0.7857(2)
C6 C 0.2956(4) 0.8654(3) 0.7947(2)
C7 C 0.1988(4) 0.9107(3) 0.7742(2)
C8 C 0.1863(4) 0.9894(3) 0.7873(2)
C9 C 0.2787(4) 1.0330(3) 0.8143(2)
C10 C 0.3831(4) 0.9920(3) 0.8276(2)
C11 C 0.2657(5) 1.1165(3) 0.8266(2)
C12 C 0.3543(5) 1.1564(3) 0.8499(5)
C13 C 0.4671(5) 1.1210(3) 0.8570(2)
C14 C 0.4867(4) 1.0392(3) 0.8405(2)
C15 C 0.5599(5) 1.1652(3) 0.8809(2)
C16 C 0.6681(5) 1.1313(3) 0.8876(2)
C17 C 0.6955(5) 1.0541(3) 0.8667(2)
C18 C 0.6091(4) 1.0106(3) 0.8385(2)
C19 C 0.8096(5) 1.0183(3) 0.8767(2)
C20 C 0.8332(4) 0.9410(3) 0.8616(2)
C21 C 0.7548(4) 0.9007(3) 0.8270(2)
C22 C 0.6487(4) 0.9394(3) 0.8099(2)
C23 C 0.7864(4) 0.8240(3) 0.8059(2)
C24 C 0.7217(4) 0.7899(3) 0.7670(2)
C25 C 0.6279(4) 0.8335(3) 0.7452(2)
C26 C 0.5960(4) 0.9072(3) 0.7651(2)
C27 C 0.4511(4) 0.8961(3) 0.9448(2)
C28 C 0.5366(4) 0.9107(3) 0.9888(2)
C29 C 0.6406(4) 0.9664(3) 0.9807(2)
C30 C 0.7152(4) 0.9499(3) 1.0298(2)
C31 C 0.6435(4) 0.8839(3) 1.0585(2)
C32 C 0.5354(4) 0.9293(3) 1.0754(2)
C33 C 0.5908(4) 0.8330(3) 1.0138(2)
C34 C 0.4977(5) 0.7718(3) 1.0319(2)
C35 C 0.6815(4) 0.7894(3) 0.9805(2)
C36 C 0.7088(5) 0.8410(4) 1.1019(2)
C37 C 0.2280(5) 0.6674(3) 0.7391(2)
C38 C 0.0023(5) 0.9991(4) 0.7435(2)
C39 C 0.9966(6) 1.0336(4) 0.9182(2)
C40 C 0.9285(5) 0.7177(4) 0.8040(2)
C41 C 0.5620(4) 0.9952(3) 0.6969(2)
C42 C 0.4695(4) 1.0190(3) 0.6575(2)
C43 C 0.3592(4) 1.0641(3) 0.6753(2)
C44 C 0.2833(4) 1.0613(3) 0.6247(2)
C45 C 0.3584(4) 1.0100(3) 0.5862(2)
C46 C 0.4618(4) 1.0665(3) 0.5749(2)
C47 C 0.4223(4) 0.9490(3) 0.6223(2)
C48 C 0.3379(4) 0.8891(3) 0.6486(2)
C49 C 0.5203(4) 0.9014(3) 0.5955(2)
C50 C 0.2968(4) 0.9786(3) 0.5385(2)
H1 H 0.4998 0.7378 0.8713
H2 H 0.3924 0.6797 0.8038
H3 H 0.1450 0.8863 0.7522
H4 H 0.1960 1.1433 0.8186
H5 H 0.3412 1.2087 0.8617
H6 H 0.5465 1.2177 0.8920
H7 H 0.7252 1.1592 0.9062
H8 H 0.9000 0.9146 0.8738
H9 H 0.7398 0.7384 0.7551
H10 H 0.5873 0.8124 0.7172
H11 H 0.6159 1.0224 0.9788
H12 H 0.6837 0.9525 0.9497
H13 H 0.7933 0.9306 1.0210
H14 H 0.7226 0.9983 1.0506
H15 H 0.5363 0.7256 1.0466
H16 H 0.4507 0.7550 1.0031
H17 H 0.4479 0.7965 1.0573
H18 H 0.7102 0.7428 0.9984
H19 H 0.7460 0.8252 0.9732
H20 H 0.6453 0.7729 0.9488
H21 H 0.6584 0.8009 1.1168
H22 H 0.7309 0.8796 1.1277
H23 H 0.7783 0.8156 1.0883
H24 H 0.1692 0.6456 0.7139
H25 H 0.2131 0.6372 0.7700
H26 H 0.3046 0.6537 0.7260
H27 H -0.0604 1.0365 0.7367
H28 H -0.0285 0.9531 0.7615
H29 H 0.0368 0.9820 0.7116
H30 H 1.0404 1.0726 0.9377
H31 H 1.0390 1.0206 0.8873
H32 H 0.9858 0.9856 0.9383
H33 H 0.9984 0.7002 0.8216
H34 H 0.9466 0.7276 0.7685
H35 H 0.8692 0.6765 0.8064
H36 H 0.3772 1.1192 0.6853
H37 H 0.3204 1.0366 0.7035
H38 H 0.2076 1.0359 0.6311
H39 H 0.2701 1.1152 0.6114
H40 H 0.3822 0.8529 0.6699
H41 H 0.2963 0.8589 0.6228
H42 H 0.2825 0.9183 0.6694
H43 H 0.5554 0.8645 0.6195
H44 H 0.5792 0.9382 0.5831
H45 H 0.4877 0.8718 0.5671
H46 H 0.3518 0.9486 0.5179
H47 H 0.2668 1.0232 0.5188
H48 H 0.2328 0.9441 0.5484
O13 O 0.4093(5) 0.7653(4) 0.4923(2)
O14 O 0.3207(5) 0.6952(4) 0.4289(2)
C51 C 0.2006(7) 0.7542(6) 0.4906(3)
C52 C 0.3208(6) 0.7392(4) 0.4718(3)
C53 C 0.4335(11) 0.6744(8) 0.4090(5)
C54 C 0.4528(16) 0.6886(11) 0.3586(7)
H49 H 0.2040 0.7870 0.5210
H50 H 0.1633 0.7037 0.4986
H51 H 0.1561 0.7817 0.4645
H52 H 0.4925 0.7038 0.4285
H53 H 0.4464 0.6174 0.4153
H54 H 0.5320 0.6734 0.3500
H55 H 0.4417 0.7450 0.3516
H56 H 0.3984 0.6575 0.3384
loop_
_geom_bond_atom_site_label_1
_geom_bond_atom_site_label_2
_geom_bond_site_symmetry_1
_geom_bond_site_symmetry_2
O1 C2 1_555 1_555
O2 C27 1_555 1_555
O3 C32 1_555 1_555
O4 C28 1_555 1_555
O5 C5 1_555 1_555
O6 C8 1_555 1_555
O7 C19 1_555 1_555
O8 C23 1_555 1_555
O9 C26 1_555 1_555
O10 C41 1_555 1_555
O11 C46 1_555 1_555
O12 C42 1_555 1_555
O13 C52 1_555 1_555
O14 C52 1_555 1_555
C1 C2 1_555 1_555
C2 C3 1_555 1_555
C3 C4 1_555 1_555
C4 C5 1_555 1_555
C5 C6 1_555 1_555
C6 C1 1_555 1_555
C7 C6 1_555 1_555
C8 C7 1_555 1_555
C9 C8 1_555 1_555
C10 C1 1_555 1_555
C11 C9 1_555 1_555
C12 C11 1_555 1_555
C13 C12 1_555 1_555
C14 C10 1_555 1_555
C15 C13 1_555 1_555
C16 C15 1_555 1_555
C17 C16 1_555 1_555
C18 C14 1_555 1_555
C19 C17 1_555 1_555
C20 C19 1_555 1_555
C21 C20 1_555 1_555
C22 C18 1_555 1_555
C23 C21 1_555 1_555
C24 C23 1_555 1_555
C25 C24 1_555 1_555
C26 C22 1_555 1_555
C27 O1 1_555 1_555
C28 C27 1_555 1_555
C29 C28 1_555 1_555
C30 C29 1_555 1_555
C31 C30 1_555 1_555
C32 O4 1_555 1_555
C33 C28 1_555 1_555
C34 C33 1_555 1_555
C35 C33 1_555 1_555
C36 C31 1_555 1_555
C37 O5 1_555 1_555
C38 O6 1_555 1_555
C39 O7 1_555 1_555
C40 O8 1_555 1_555
C41 O9 1_555 1_555
C42 C41 1_555 1_555
C43 C42 1_555 1_555
C44 C43 1_555 1_555
C45 C44 1_555 1_555
C46 O12 1_555 1_555
C47 C42 1_555 1_555
C48 C47 1_555 1_555
C49 C47 1_555 1_555
C50 C45 1_555 1_555
C51 C52 1_555 1_555
C53 O14 1_555 1_555
C54 C53 1_555 1_555
H1 C3 1_555 1_555
H2 C4 1_555 1_555
H3 C7 1_555 1_555
H4 C11 1_555 1_555
H5 C12 1_555 1_555
H6 C15 1_555 1_555
H7 C16 1_555 1_555
H8 C20 1_555 1_555
H9 C24 1_555 1_555
H10 C25 1_555 1_555
H11 C29 1_555 1_555
H12 C29 1_555 1_555
H13 C30 1_555 1_555
H14 C30 1_555 1_555
H15 C34 1_555 1_555
H16 C34 1_555 1_555
H17 C34 1_555 1_555
H18 C35 1_555 1_555
H19 C35 1_555 1_555
H20 C35 1_555 1_555
H21 C36 1_555 1_555
H22 C36 1_555 1_555
H23 C36 1_555 1_555
H24 C37 1_555 1_555
H25 C37 1_555 1_555
H26 C37 1_555 1_555
H27 C38 1_555 1_555
H28 C38 1_555 1_555
H29 C38 1_555 1_555
H30 C39 1_555 1_555
H31 C39 1_555 1_555
H32 C39 1_555 1_555
H33 C40 1_555 1_555
H34 C40 1_555 1_555
H35 C40 1_555 1_555
H36 C43 1_555 1_555
H37 C43 1_555 1_555
H38 C44 1_555 1_555
H39 C44 1_555 1_555
H40 C48 1_555 1_555
H41 C48 1_555 1_555
H42 C48 1_555 1_555
H43 C49 1_555 1_555
H44 C49 1_555 1_555
H45 C49 1_555 1_555
H46 C50 1_555 1_555
H47 C50 1_555 1_555
H48 C50 1_555 1_555
H49 C51 1_555 1_555
H50 C51 1_555 1_555
H51 C51 1_555 1_555
H52 C53 1_555 1_555
H53 C53 1_555 1_555
H54 C54 1_555 1_555
H55 C54 1_555 1_555
H56 C54 1_555 1_555
C9 C10 1_555 1_555
C13 C14 1_555 1_555
C17 C18 1_555 1_555
C21 C22 1_555 1_555
C25 C26 1_555 1_555
C31 C32 1_555 1_555
C31 C33 1_555 1_555
C45 C46 1_555 1_555
C45 C47 1_555 1_555

#END
