
#######################################################################
#
#                 Cambridge Crystallographic Data Centre
#                                CCDC 
#
#######################################################################
#
# If this CIF has been generated from an entry in the Cambridge 
# Structural Database, then it will include bibliographic, chemical, 
# crystal, experimental, refinement or atomic coordinate data resulting 
# from the CCDC's data processing and validation procedures.
#
#######################################################################

data_QONJEI
_chemical_formula_moiety         'C74 H76 O22,2(C4 H8 O2)'
_chemical_name_systematic        
'1,4,13,16-tetrakis(Camphanoyl-O)-6,11-bis(ethoxycarbonylmethoxy-O)-(6)helicene ethyl acetate solvate'
_symmetry_cell_setting           triclinic
_symmetry_space_group_name_H-M   'P 1'
_symmetry_Int_Tables_number      1
_space_group_name_Hall           'P 1'
loop_
_symmetry_equiv_pos_site_id
_symmetry_equiv_pos_as_xyz
1 x,y,z
_cell_length_a                   11.1849(2)
_cell_length_b                   11.3784(2)
_cell_length_c                   16.4757(3)
_cell_angle_alpha                106.4516(2)
_cell_angle_beta                 102.5875(8)
_cell_angle_gamma                103.0782(7)
_cell_volume                     1867.41
_exptl_crystal_colour            yellow
_exptl_crystal_description       block
_cell_formula_units_Z            1
loop_
_atom_site_label
_atom_site_type_symbol
_atom_site_fract_x
_atom_site_fract_y
_atom_site_fract_z
O1 O 0.1364(2) -0.2771(2) 0.3771(2)
O2 O 0.1236(6) -0.4819(3) 0.3066(3)
O3 O 0.2068(3) -0.4292(3) 0.1788(2)
O4 O 0.2050(5) -0.4801(4) 0.0371(3)
O5 O -0.0798(2) -0.5214(2) 0.5797(2)
O6 O -0.2211(3) -0.4164(3) 0.6145(2)
O7 O -0.1771(2) -0.7130(2) 0.6248(2)
O8 O -0.1626(3) -0.8711(3) 0.6786(2)
O9 O 0.3585(2) -0.5679(2) 0.6092(2)
O10 O 0.3979(4) -0.5202(3) 0.7888(2)
O11 O 0.2221(3) -0.6854(3) 0.7564(2)
O12 O 0.4251(2) 0.1532(3) 0.4144(2)
O13 O 0.2390(4) 0.1141(3) 0.2602(2)
O14 O 0.3253(4) 0.3174(3) 0.2763(2)
O15 O -0.0186(2) 0.0846(2) 0.4651(2)
O16 O -0.1377(3) -0.1079(3) 0.3645(2)
O17 O -0.2294(2) 0.1637(2) 0.4198(2)
O18 O -0.3074(2) 0.3296(3) 0.4225(2)
O19 O 0.2783(2) -0.1117(2) 0.6761(2)
O20 O 0.3781(3) 0.1012(3) 0.7540(2)
O21 O 0.5307(3) 0.0529(3) 0.8829(2)
O22 O 0.6390(4) 0.0825(3) 1.0215(2)
C1 C 0.1665(3) -0.3451(3) 0.5064(2)
C2 C 0.0873(3) -0.3185(3) 0.4394(2)
C3 C -0.0424(3) -0.3419(3) 0.4276(2)
C4 C -0.1008(3) -0.3991(3) 0.4792(2)
C5 C -0.0274(3) -0.4422(3) 0.5368(2)
C6 C 0.1055(3) -0.4220(3) 0.5484(2)
C7 C 0.1725(3) -0.4913(3) 0.5912(2)
C8 C 0.2930(3) -0.4873(3) 0.5863(2)
C9 C 0.3661(3) -0.3916(3) 0.5593(2)
C10 C 0.3062(3) -0.3091(3) 0.5299(2)
C11 C 0.4980(3) -0.3773(4) 0.5664(3)
C12 C 0.5674(3) -0.2833(4) 0.5452(3)
C13 C 0.5146(3) -0.1886(3) 0.5236(2)
C14 C 0.3865(3) -0.1941(3) 0.5247(2)
C15 C 0.5887(3) -0.0899(3) 0.5028(2)
C16 C 0.5368(3) -0.0051(4) 0.4764(3)
C17 C 0.4121(3) -0.0019(2) 0.4822(2)
C18 C 0.3447(3) -0.0846(3) 0.5177(2)
C19 C 0.3503(3) 0.0802(3) 0.4482(2)
C20 C 0.2271(3) 0.0759(3) 0.4456(2)
C21 C 0.1696(3) 0.0124(3) 0.4982(2)
C22 C 0.2356(3) -0.0550(3) 0.5432(2)
C23 C 0.0518(3) 0.0234(3) 0.5131(3)
C24 C 0.0100(3) -0.0102(4) 0.5771(3)
C25 C 0.0882(3) -0.0573(4) 0.6314(3)
C26 C 0.1974(3) -0.0761(3) 0.6147(2)
C27 C 0.1433(4) -0.3742(4) 0.3095(3)
C28 C 0.1765(4) -0.3260(3) 0.2388(3)
C29 C 0.1876(5) -0.4099(4) 0.0991(3)
C30 C 0.1488(4) -0.2890(4) 0.1110(3)
C31 C 0.2755(4) -0.1813(4) 0.1764(3)
C32 C 0.2892(4) -0.2056(4) 0.2634(3)
C33 C 0.0653(4) -0.3041(4) 0.1744(3)
C34 C -0.0542(5) -0.4204(6) 0.1317(4)
C35 C 0.0274(5) -0.1864(5) 0.2146(4)
C36 C 0.0923(7) -0.2673(6) 0.0275(4)
C37 C -0.1770(3) -0.5037(3) 0.6125(3)
C38 C -0.2255(3) -0.6038(3) 0.6506(2)
C39 C -0.1902(3) -0.7735(4) 0.6836(3)
C40 C -0.2438(3) -0.6987(3) 0.7503(3)
C41 C -0.3853(3) -0.7286(4) 0.6928(3)
C42 C -0.3718(3) -0.6611(4) 0.6246(3)
C43 C -0.1801(3) -0.5593(3) 0.7537(3)
C44 C -0.0339(4) -0.5147(5) 0.7920(3)
C45 C -0.2350(5) -0.4591(4) 0.7997(3)
C46 C 0.2965(3) -0.6623(3) 0.6393(3)
C47 C 0.3121(4) -0.6113(4) 0.7370(3)
C48 C 0.2366(5) -0.6600(5) 0.8503(3)
C49 C 0.1413(6) -0.7672(6) 0.8575(4)
C50 C -0.2285(5) -0.7271(5) 0.8349(3)
C51 C 0.3933(3) 0.2593(3) 0.3982(3)
C52 C 0.3101(4) 0.2207(4) 0.3040(3)
C53 C 0.2515(8) 0.2948(6) 0.1852(4)
C54 C 0.3150(8) 0.2383(10) 0.1211(5)
C55 C -0.1173(3) 0.0057(3) 0.3928(3)
C56 C -0.1967(3) 0.0757(3) 0.3505(2)
C57 C -0.2682(3) 0.2472(3) 0.3830(3)
C58 C -0.2586(4) 0.2107(4) 0.2893(3)
C59 C -0.3707(4) 0.0814(4) 0.2398(3)
C60 C -0.3241(4) -0.0110(4) 0.2818(3)
C61 C -0.1370(3) 0.1649(3) 0.3054(3)
C62 C -0.1105(5) 0.0947(5) 0.2209(3)
C63 C -0.0138(4) 0.2743(4) 0.3666(3)
C64 C -0.2598(5) 0.3134(5) 0.2481(4)
C65 C 0.3640(3) -0.0090(4) 0.7463(3)
C66 C 0.4367(3) -0.0580(4) 0.8117(2)
C67 C 0.5614(4) 0.0122(4) 0.9525(3)
C68 C 0.4874(4) -0.1287(4) 0.9237(3)
C69 C 0.5501(4) -0.1944(4) 0.8559(3)
C70 C 0.5126(4) -0.1451(5) 0.7773(3)
C71 C 0.3603(4) -0.1257(4) 0.8628(3)
C72 C 0.2657(4) -0.2595(4) 0.8076(3)
C73 C 0.2919(5) -0.0418(5) 0.9121(3)
C74 C 0.4827(6) -0.1787(5) 0.9986(3)
H1 H -0.0926 -0.3189 0.3838
H2 H -0.1887 -0.4083 0.4751
H3 H 0.1336 -0.4608 0.6225
H4 H 0.5374 -0.4340 0.5861
H5 H 0.6529 -0.2800 0.5446
H6 H 0.6764 -0.0826 0.5073
H7 H 0.5836 0.0523 0.4540
H8 H 0.1804 0.1134 0.4103
H9 H -0.0697 -0.0023 0.5851
H10 H 0.0644 -0.0758 0.6795
H11 H 0.3505 -0.1891 0.1551
H12 H 0.2673 -0.0945 0.1831
H13 H 0.2824 -0.1324 0.3100
H14 H 0.3723 -0.2209 0.2843
H15 H -0.1201 -0.4010 0.0923
H16 H -0.0871 -0.4415 0.1780
H17 H -0.0327 -0.4939 0.0973
H18 H -0.0423 -0.1799 0.1700
H19 H 0.1019 -0.1091 0.2347
H20 H -0.0021 -0.1939 0.2653
H21 H 0.0141 -0.3388 -0.0089
H22 H 0.1549 -0.2623 -0.0058
H23 H 0.0710 -0.1864 0.0424
H24 H -0.4270 -0.8226 0.6626
H25 H -0.4366 -0.6935 0.7298
H26 H -0.4075 -0.7233 0.5630
H27 H -0.4146 -0.5932 0.6311
H28 H 0.0008 -0.4271 0.7927
H29 H 0.0016 -0.5728 0.7551
H30 H -0.0102 -0.5155 0.8526
H31 H -0.1901 -0.3749 0.7991
H32 H -0.2236 -0.4549 0.8612
H33 H -0.3270 -0.4823 0.7686
H34 H 0.3322 -0.7352 0.6267
H35 H 0.2036 -0.6954 0.6059
H36 H 0.2212 -0.5773 0.8770
H37 H 0.3248 -0.6545 0.8819
H38 H 0.1487 -0.7525 0.9202
H39 H 0.1577 -0.8484 0.8312
H40 H 0.0543 -0.7717 0.8260
H41 H -0.2737 -0.8181 0.8213
H42 H -0.2650 -0.6732 0.8739
H43 H -0.1369 -0.7086 0.8647
H44 H 0.4731 0.3284 0.4092
H45 H 0.3469 0.2935 0.4395
H46 H 0.2431 0.3773 0.1800
H47 H 0.1639 0.2359 0.1712
H48 H 0.2639 0.2242 0.0608
H49 H 0.3222 0.1560 0.1255
H50 H 0.4012 0.2974 0.1344
H51 H -0.4526 0.0905 0.2501
H52 H -0.3827 0.0514 0.1752
H53 H -0.3857 -0.0471 0.3101
H54 H -0.3317 -0.0825 0.2371
H55 H -0.0328 0.0695 0.2365
H56 H -0.0978 0.1518 0.1867
H57 H -0.1838 0.0176 0.1851
H58 H 0.0588 0.2397 0.3744
H59 H -0.0256 0.3123 0.4244
H60 H 0.0036 0.3406 0.3398
H61 H -0.3427 0.3306 0.2417
H62 H -0.2472 0.2837 0.1896
H63 H -0.1902 0.3925 0.2863
H64 H 0.5153 -0.2893 0.8360
H65 H 0.6447 -0.1681 0.8818
H66 H 0.5898 -0.0967 0.7670
H67 H 0.4591 -0.2170 0.7218
H68 H 0.1884 -0.2513 0.7711
H69 H 0.2418 -0.3043 0.8473
H70 H 0.3061 -0.3088 0.7691
H71 H 0.2136 -0.0444 0.8701
H72 H 0.3491 0.0471 0.9404
H73 H 0.2691 -0.0742 0.9576
H74 H 0.5697 -0.1746 1.0297
H75 H 0.4267 -0.2681 0.9748
H76 H 0.4486 -0.1257 1.0402
O23 O -0.4221(4) -0.4886(4) 0.1533(3)
O24 O -0.4826(5) -0.3113(4) 0.1793(4)
C75 C -0.4226(8) -0.6173(9) 0.0127(5)
C76 C -0.4449(8) -0.4999(8) 0.0616(5)
C77 C -0.4459(5) -0.3896(5) 0.2052(4)
C78 C -0.4196(8) -0.3827(8) 0.2990(6)
H77 H -0.4393 -0.6260 -0.0500
H78 H -0.5195 -0.6917 0.0178
H79 H -0.3331 -0.6131 0.0374
H80 H -0.3863 -0.4239 0.0571
H81 H -0.5347 -0.5023 0.0361
H82 H -0.4387 -0.3128 0.3351
H83 H -0.3288 -0.3790 0.3229
H84 H -0.4740 -0.4664 0.3003
O25 O -0.1154(4) 0.0349(4) 0.9022(3)
O26 O -0.0367(7) -0.1271(6) 0.8988(5)
C79 C -0.0647(6) 0.2242(6) 1.0295(4)
C80 C -0.0622(6) 0.0877(6) 0.9986(5)
C81 C -0.0931(5) -0.0712(5) 0.8591(5)
C82 C -0.1483(6) -0.1151(6) 0.7634(5)
H85 H -0.0293 0.2617 1.0943
H86 H -0.1537 0.2256 1.0116
H87 H -0.0128 0.2744 1.0028
H88 H 0.0273 0.0852 1.0166
H89 H -0.1140 0.0363 1.0255
H90 H -0.1274 -0.1931 0.7359
H91 H -0.1128 -0.0476 0.7414
H92 H -0.2420 -0.1342 0.7482
loop_
_geom_bond_atom_site_label_1
_geom_bond_atom_site_label_2
_geom_bond_site_symmetry_1
_geom_bond_site_symmetry_2
O1 C2 1_555 1_555
O2 C27 1_555 1_555
O3 C28 1_555 1_555
O4 C29 1_555 1_555
O5 C5 1_555 1_555
O6 C37 1_555 1_555
O7 C38 1_555 1_555
O8 C39 1_555 1_555
O9 C8 1_555 1_555
O10 C47 1_555 1_555
O11 C47 1_555 1_555
O12 C19 1_555 1_555
O13 C52 1_555 1_555
O14 C52 1_555 1_555
O15 C23 1_555 1_555
O16 C55 1_555 1_555
O17 C56 1_555 1_555
O18 C57 1_555 1_555
O19 C26 1_555 1_555
O20 C65 1_555 1_555
O21 C66 1_555 1_555
O22 C67 1_555 1_555
C1 C2 1_555 1_555
C2 C3 1_555 1_555
C3 C4 1_555 1_555
C4 C5 1_555 1_555
C5 C6 1_555 1_555
C6 C1 1_555 1_555
C7 C6 1_555 1_555
C8 C7 1_555 1_555
C9 C8 1_555 1_555
C10 C1 1_555 1_555
C11 C9 1_555 1_555
C12 C11 1_555 1_555
C13 C12 1_555 1_555
C14 C10 1_555 1_555
C15 C13 1_555 1_555
C16 C15 1_555 1_555
C17 C16 1_555 1_555
C18 C14 1_555 1_555
C19 C17 1_555 1_555
C20 C19 1_555 1_555
C21 C20 1_555 1_555
C22 C18 1_555 1_555
C23 C21 1_555 1_555
C24 C23 1_555 1_555
C25 C24 1_555 1_555
C26 C22 1_555 1_555
C27 O1 1_555 1_555
C28 C27 1_555 1_555
C29 O3 1_555 1_555
C30 C29 1_555 1_555
C31 C30 1_555 1_555
C32 C28 1_555 1_555
C33 C28 1_555 1_555
C34 C33 1_555 1_555
C35 C33 1_555 1_555
C36 C30 1_555 1_555
C37 O5 1_555 1_555
C38 C37 1_555 1_555
C39 O7 1_555 1_555
C40 C39 1_555 1_555
C41 C40 1_555 1_555
C42 C38 1_555 1_555
C43 C38 1_555 1_555
C44 C43 1_555 1_555
C45 C43 1_555 1_555
C46 O9 1_555 1_555
C47 C46 1_555 1_555
C48 O11 1_555 1_555
C49 C48 1_555 1_555
C50 C40 1_555 1_555
C51 O12 1_555 1_555
C52 C51 1_555 1_555
C53 O14 1_555 1_555
C54 C53 1_555 1_555
C55 O15 1_555 1_555
C56 C55 1_555 1_555
C57 O17 1_555 1_555
C58 C57 1_555 1_555
C59 C58 1_555 1_555
C60 C56 1_555 1_555
C61 C56 1_555 1_555
C62 C61 1_555 1_555
C63 C61 1_555 1_555
C64 C58 1_555 1_555
C65 O19 1_555 1_555
C66 C65 1_555 1_555
C67 O21 1_555 1_555
C68 C67 1_555 1_555
C69 C68 1_555 1_555
C70 C66 1_555 1_555
C71 C66 1_555 1_555
C72 C71 1_555 1_555
C73 C71 1_555 1_555
C74 C68 1_555 1_555
O23 C76 1_555 1_555
O24 C77 1_555 1_555
C75 C76 1_555 1_555
C76 H80 1_555 1_555
C77 O23 1_555 1_555
C78 C77 1_555 1_555
O25 C80 1_555 1_555
O26 C81 1_555 1_555
C79 C80 1_555 1_555
C80 H88 1_555 1_555
C81 O25 1_555 1_555
C82 C81 1_555 1_555
H1 C3 1_555 1_555
H2 C4 1_555 1_555
H3 C7 1_555 1_555
H4 C11 1_555 1_555
H5 C12 1_555 1_555
H6 C15 1_555 1_555
H7 C16 1_555 1_555
H8 C20 1_555 1_555
H9 C24 1_555 1_555
H10 C25 1_555 1_555
H11 C31 1_555 1_555
H12 C31 1_555 1_555
H13 C32 1_555 1_555
H14 C32 1_555 1_555
H15 C34 1_555 1_555
H16 C34 1_555 1_555
H17 C34 1_555 1_555
H18 C35 1_555 1_555
H19 C35 1_555 1_555
H20 C35 1_555 1_555
H21 C36 1_555 1_555
H22 C36 1_555 1_555
H23 C36 1_555 1_555
H24 C41 1_555 1_555
H25 C41 1_555 1_555
H26 C42 1_555 1_555
H27 C42 1_555 1_555
H28 C44 1_555 1_555
H29 C44 1_555 1_555
H30 C44 1_555 1_555
H31 C45 1_555 1_555
H32 C45 1_555 1_555
H33 C45 1_555 1_555
H34 C46 1_555 1_555
H35 C46 1_555 1_555
H36 C48 1_555 1_555
H37 C48 1_555 1_555
H38 C49 1_555 1_555
H39 C49 1_555 1_555
H40 C49 1_555 1_555
H41 C50 1_555 1_555
H42 C50 1_555 1_555
H43 C50 1_555 1_555
H44 C51 1_555 1_555
H45 C51 1_555 1_555
H46 C53 1_555 1_555
H47 C53 1_555 1_555
H48 C54 1_555 1_555
H49 C54 1_555 1_555
H50 C54 1_555 1_555
H51 C59 1_555 1_555
H52 C59 1_555 1_555
H53 C60 1_555 1_555
H54 C60 1_555 1_555
H55 C62 1_555 1_555
H56 C62 1_555 1_555
H57 C62 1_555 1_555
H58 C63 1_555 1_555
H59 C63 1_555 1_555
H60 C63 1_555 1_555
H61 C64 1_555 1_555
H62 C64 1_555 1_555
H63 C64 1_555 1_555
H64 C69 1_555 1_555
H65 C69 1_555 1_555
H66 C70 1_555 1_555
H67 C70 1_555 1_555
H68 C72 1_555 1_555
H69 C72 1_555 1_555
H70 C72 1_555 1_555
H71 C73 1_555 1_555
H72 C73 1_555 1_555
H73 C73 1_555 1_555
H74 C74 1_555 1_555
H75 C74 1_555 1_555
H76 C74 1_555 1_555
H77 C75 1_555 1_555
H78 C75 1_555 1_555
H79 C75 1_555 1_555
H81 C76 1_555 1_555
H82 C78 1_555 1_555
H83 C78 1_555 1_555
H84 C78 1_555 1_555
H85 C79 1_555 1_555
H86 C79 1_555 1_555
H87 C79 1_555 1_555
H89 C80 1_555 1_555
H90 C82 1_555 1_555
H91 C82 1_555 1_555
H92 C82 1_555 1_555
C9 C10 1_555 1_555
C13 C14 1_555 1_555
C17 C18 1_555 1_555
C21 C22 1_555 1_555
C25 C26 1_555 1_555
C30 C33 1_555 1_555
C31 C32 1_555 1_555
C40 C43 1_555 1_555
C41 C42 1_555 1_555
C58 C61 1_555 1_555
C59 C60 1_555 1_555
C68 C71 1_555 1_555
C69 C70 1_555 1_555

#END
