
#######################################################################
#
#                 Cambridge Crystallographic Data Centre
#                                CCDC 
#
#######################################################################
#
# If this CIF has been generated from an entry in the Cambridge 
# Structural Database, then it will include bibliographic, chemical, 
# crystal, experimental, refinement or atomic coordinate data resulting 
# from the CCDC's data processing and validation procedures.
#
#######################################################################

data_QOPQOC
_chemical_formula_moiety         
'C12 H14 N2 2+,2(C33 H37 N1 O12),2(F6 P1 1-),2(C2 H3 N1),3(H2 O1)'
_chemical_name_systematic        
"[3]-(1,1'-Dimethyl-4,4'-bipyridinium)-bis(2,5,8,11,13,16,19,22,24,28-deca-oxa-1,12(1,3,5)-dibenzena-26(2,6)-pyridinabicyclo[10.10.7]nonacosaphane-25,27-dione cryptand)-pseudorotaxane bis(hexafluorophosphate) acetonitrile solvate trihydrate"
_symmetry_cell_setting           triclinic
_symmetry_space_group_name_H-M   'P -1'
_symmetry_Int_Tables_number      2
_space_group_name_Hall           '-P 1'
loop_
_symmetry_equiv_pos_site_id
_symmetry_equiv_pos_as_xyz
1 x,y,z
2 -x,-y,-z
_cell_length_a                   10.697(2)
_cell_length_b                   12.361(3)
_cell_length_c                   17.412(4)
_cell_angle_alpha                77.694(6)
_cell_angle_beta                 77.988(7)
_cell_angle_gamma                88.464(9)
_cell_volume                     2199.79
_exptl_crystal_colour            orange
_exptl_crystal_description       prism
_cell_formula_units_Z            1
_exptl_crystal_recrystallization_method 'acetonitrile/di-isopropyl ether'
loop_
_atom_site_label
_atom_site_type_symbol
_atom_site_fract_x
_atom_site_fract_y
_atom_site_fract_z
P1 P 0.92004(6) 0.93492(5) 0.18096(4)
F1 F 0.91058(16) 1.01122(15) 0.09693(9)
F2 F 0.76838(16) 0.92085(14) 0.20448(12)
F3 F 0.92963(15) 0.82779(14) 0.14318(11)
F4 F 1.07243(15) 0.94961(14) 0.15740(11)
F5 F 0.9115(2) 1.04218(14) 0.21931(10)
F6 F 0.9300(2) 0.85820(15) 0.26521(11)
O1 O 0.74354(15) 0.28953(13) 0.00147(10)
O2 O 0.54943(15) 0.16497(13) -0.03500(9)
O3 O 0.27221(15) 0.22145(13) -0.02209(10)
O4 O 0.11393(16) 0.40274(14) 0.03470(10)
O5 O 0.66762(16) 0.44146(14) 0.23550(10)
O6 O 0.56823(18) 0.65697(15) 0.24895(11)
O7 O 0.30659(18) 0.67520(15) 0.30866(11)
O8 O 0.12490(17) 0.61040(15) 0.22647(11)
O9 O 0.4660(2) -0.06369(18) 0.41180(11)
O10 O -0.1048(3) 0.2225(4) 0.47476(17)
O11 O 0.42676(16) 0.08663(14) 0.32200(10)
O12 O -0.00489(17) 0.19012(15) 0.35619(10)
N1 N 0.1926(2) 0.10089(18) 0.41530(12)
C1 C 0.6987(2) 0.27235(19) 0.08253(14)
C2 C 0.7130(2) 0.36373(19) 0.11557(14)
H3 H 0.7543 0.4298 0.0829
C3 C 0.6657(2) 0.35590(19) 0.19708(14)
C4 C 0.6099(2) 0.25753(19) 0.24580(14)
H4 H 0.5824 0.2516 0.3021
C5 C 0.5948(2) 0.16821(19) 0.21166(15)
C6 C 0.6383(2) 0.17500(19) 0.12941(14)
H5 H 0.6270 0.1143 0.1059
C7 C 0.0726(2) 0.4078(2) 0.11315(14)
C8 C 0.1095(2) 0.5034(2) 0.13377(15)
H6 H 0.1580 0.5597 0.0936
C9 C 0.0758(2) 0.5169(2) 0.21219(15)
C10 C 0.0010(2) 0.4374(2) 0.27129(15)
H7 H -0.0258 0.4481 0.3247
C11 C -0.0339(2) 0.3414(2) 0.25011(15)
C12 C 0.0003(2) 0.3254(2) 0.17220(15)
H8 H -0.0248 0.2596 0.1591
C13 C 0.7704(2) 0.1963(2) -0.03695(15)
H9 H 0.7708 0.1278 0.0046
H10 H 0.8564 0.2065 -0.0724
C14 C 0.6734(2) 0.1841(2) -0.08540(14)
H11 H 0.6733 0.2522 -0.1273
H12 H 0.6961 0.1213 -0.1124
C15 C 0.4602(2) 0.1300(2) -0.07579(15)
H13 H 0.4874 0.0589 -0.0910
H14 H 0.4578 0.1857 -0.1256
C16 C 0.3301(2) 0.1160(2) -0.02255(16)
H15 H 0.2761 0.0684 -0.0421
H16 H 0.3368 0.0793 0.0328
C17 C 0.1454(2) 0.2072(2) 0.02581(15)
H17 H 0.1492 0.1895 0.0835
H18 H 0.1019 0.1446 0.0142
C18 C 0.0711(2) 0.3104(2) 0.00808(15)
H19 H 0.0764 0.3318 -0.0506
H20 H -0.0199 0.2943 0.0341
C19 C 0.7287(2) 0.54439(19) 0.18983(15)
H21 H 0.6954 0.5693 0.1401
H22 H 0.8222 0.5351 0.1747
C20 C 0.6993(3) 0.6276(2) 0.24246(17)
H23 H 0.7161 0.5955 0.2964
H24 H 0.7547 0.6943 0.2189
C21 C 0.5240(3) 0.7101(2) 0.31418(17)
H25 H 0.5853 0.7695 0.3126
H26 H 0.5178 0.6558 0.3657
C22 C 0.3948(3) 0.7586(2) 0.30851(18)
H27 H 0.3633 0.7942 0.3546
H28 H 0.4023 0.8161 0.2585
C23 C 0.1811(3) 0.7184(2) 0.31165(17)
H29 H 0.1818 0.7824 0.2663
H30 H 0.1511 0.7438 0.3625
C24 C 0.0934(3) 0.6290(2) 0.30649(16)
H31 H 0.1042 0.5602 0.3455
H32 H 0.0034 0.6519 0.3191
C25 C 0.5350(3) 0.0616(2) 0.26300(16)
H33 H 0.5061 0.0165 0.2291
H34 H 0.5985 0.0187 0.2906
C26 C 0.4020(2) 0.0159(2) 0.39226(15)
C27 C 0.2847(2) 0.0452(2) 0.44778(15)
C28 C 0.2783(3) 0.0123(3) 0.52957(16)
H35 H 0.3447 -0.0298 0.5495
C29 C 0.1743(3) 0.0417(3) 0.58132(17)
H36 H 0.1681 0.0219 0.6378
C30 C 0.0786(3) 0.1006(3) 0.54956(18)
H37 H 0.0060 0.1231 0.5839
C31 C 0.0900(3) 0.1265(3) 0.46702(16)
C32 C -0.0172(3) 0.1855(3) 0.43378(17)
C33 C -0.1022(2) 0.2490(2) 0.31561(16)
H38 H -0.1674 0.2795 0.3543
H39 H -0.1454 0.1979 0.2923
O13 O 0.2233(2) 0.0869(2) 0.23317(15)
H1 H 0.195(5) 0.108(4) 0.287(3)
H2 H 0.157(5) 0.067(4) 0.223(3)
N2 N 0.3613(2) 0.40437(19) 0.20361(14)
C34 C 0.3097(3) 0.3622(3) 0.29010(19)
H40 H 0.3760 0.3675 0.3204
H41 H 0.2824 0.2846 0.2991
H42 H 0.2363 0.4064 0.3081
C35 C 0.4076(3) 0.5089(2) 0.17779(18)
H43 H 0.4035 0.5557 0.2149
C36 C 0.4605(2) 0.5481(2) 0.09822(18)
H44 H 0.4922 0.6222 0.0806
C37 C 0.4682(2) 0.4803(2) 0.04298(16)
C38 C 0.4153(2) 0.3732(2) 0.07170(17)
H45 H 0.4158 0.3254 0.0356
C39 C 0.3631(2) 0.3374(2) 0.15160(18)
H46 H 0.3277 0.2645 0.1706
N2A N 0.6387(2) 0.59563(19) -0.20361(14)
C34A C 0.6903(3) 0.6378(3) -0.29010(19)
H40A H 0.6240 0.6325 -0.3204
H41A H 0.7176 0.7154 -0.2991
H42A H 0.7637 0.5936 -0.3081
C35A C 0.5924(3) 0.4911(2) -0.17779(18)
H43A H 0.5965 0.4443 -0.2149
C36A C 0.5395(2) 0.4519(2) -0.09822(18)
H44A H 0.5078 0.3778 -0.0806
C37A C 0.5318(2) 0.5197(2) -0.04298(16)
C38A C 0.5847(2) 0.6268(2) -0.07170(17)
H45A H 0.5842 0.6746 -0.0356
C39A C 0.6369(2) 0.6626(2) -0.15160(18)
H46A H 0.6723 0.7355 -0.1706
N3 N 0.2562(12) 0.5543(11) 0.5163(6)
C40 C 0.3468(13) 0.5734(12) 0.5323(8)
C41 C 0.4650(14) 0.5923(17) 0.5627(11)
H47 H 0.4443 0.5786 0.6215
H48 H 0.4956 0.6690 0.5410
H49 H 0.5318 0.5417 0.5454
O14 O 0.4819(10) 0.7598(9) 0.5466(5)
C42? C 0.2091(17) 0.3613(15) 0.5036(11)
C43? C 0.0858(14) 0.4009(12) 0.4831(8)
C44? C 0.3150(15) 0.4697(15) 0.4883(10)
C45? C 0.1768(15) 0.433(2) 0.5015(14)
H50? H 0.0972 0.4258 0.4247
H51? H 0.0565 0.4628 0.5090
H52? H 0.0221 0.3405 0.5021
H53? H 0.1629 0.3609 0.5395
H54? H 0.1575 0.4253 0.4502
H55? H 0.1206 0.4875 0.5233
N4? N 0.2918(19) 0.3172(19) 0.5239(16)
N5? N 0.4182(14) 0.4571(14) 0.4995(11)
loop_
_geom_bond_atom_site_label_1
_geom_bond_atom_site_label_2
_geom_bond_site_symmetry_1
_geom_bond_site_symmetry_2
P1 F1 1_555 1_555
F2 P1 1_555 1_555
F3 P1 1_555 1_555
F4 P1 1_555 1_555
F5 P1 1_555 1_555
F6 P1 1_555 1_555
O1 C1 1_555 1_555
O2 C14 1_555 1_555
O3 C16 1_555 1_555
O4 C7 1_555 1_555
O5 C3 1_555 1_555
O6 C20 1_555 1_555
O7 C22 1_555 1_555
O8 C9 1_555 1_555
O9 C26 1_555 1_555
O10 C32 1_555 1_555
O11 C25 1_555 1_555
O12 C32 1_555 1_555
O13 H1 1_555 1_555
H2 O13 1_555 1_555
N1 C27 1_555 1_555
N2 C34 1_555 1_555
C1 C2 1_555 1_555
C2 H3 1_555 1_555
C3 C2 1_555 1_555
C4 C3 1_555 1_555
H4 C4 1_555 1_555
C5 C4 1_555 1_555
C6 C1 1_555 1_555
H5 C6 1_555 1_555
C7 C8 1_555 1_555
C8 H6 1_555 1_555
C9 C8 1_555 1_555
C10 C9 1_555 1_555
H7 C10 1_555 1_555
C11 C10 1_555 1_555
C12 C7 1_555 1_555
H8 C12 1_555 1_555
C13 O1 1_555 1_555
H9 C13 1_555 1_555
H10 C13 1_555 1_555
C14 C13 1_555 1_555
H11 C14 1_555 1_555
H12 C14 1_555 1_555
C15 O2 1_555 1_555
H13 C15 1_555 1_555
H14 C15 1_555 1_555
C16 C15 1_555 1_555
H15 C16 1_555 1_555
H16 C16 1_555 1_555
C17 O3 1_555 1_555
H17 C17 1_555 1_555
H18 C17 1_555 1_555
C18 O4 1_555 1_555
H19 C18 1_555 1_555
H20 C18 1_555 1_555
C19 O5 1_555 1_555
H21 C19 1_555 1_555
H22 C19 1_555 1_555
C20 C19 1_555 1_555
H23 C20 1_555 1_555
H24 C20 1_555 1_555
C21 O6 1_555 1_555
H25 C21 1_555 1_555
H26 C21 1_555 1_555
C22 C21 1_555 1_555
H27 C22 1_555 1_555
H28 C22 1_555 1_555
C23 O7 1_555 1_555
H29 C23 1_555 1_555
H30 C23 1_555 1_555
C24 O8 1_555 1_555
H31 C24 1_555 1_555
H32 C24 1_555 1_555
C25 C5 1_555 1_555
H33 C25 1_555 1_555
H34 C25 1_555 1_555
C26 O11 1_555 1_555
C27 C26 1_555 1_555
C28 C27 1_555 1_555
H35 C28 1_555 1_555
C29 C28 1_555 1_555
H36 C29 1_555 1_555
C30 C29 1_555 1_555
H37 C30 1_555 1_555
C31 N1 1_555 1_555
C32 C31 1_555 1_555
C33 O12 1_555 1_555
H38 C33 1_555 1_555
H39 C33 1_555 1_555
C34 H40 1_555 1_555
H41 C34 1_555 1_555
H42 C34 1_555 1_555
C35 N2 1_555 1_555
H43 C35 1_555 1_555
C36 C35 1_555 1_555
H44 C36 1_555 1_555
C37 C36 1_555 1_555
C38 C37 1_555 1_555
H45 C38 1_555 1_555
C39 N2 1_555 1_555
H46 C39 1_555 1_555
N3 C40 1_555 1_555
C40 C41 1_555 1_555
C41 H47 1_555 1_555
H48 C41 1_555 1_555
H49 C41 1_555 1_555
N2A C34A 1_555 1_555
C34A H40A 1_555 1_555
H41A C34A 1_555 1_555
H42A C34A 1_555 1_555
C35A N2A 1_555 1_555
H43A C35A 1_555 1_555
C36A C35A 1_555 1_555
H44A C36A 1_555 1_555
C37A C37 1_555 1_555
C38A C37A 1_555 1_555
H45A C38A 1_555 1_555
C39A N2A 1_555 1_555
H46A C39A 1_555 1_555
C5 C6 1_555 1_555
C11 C12 1_555 1_555
C11 C33 1_555 1_555
C17 C18 1_555 1_555
C23 C24 1_555 1_555
C30 C31 1_555 1_555
C38 C39 1_555 1_555
C36A C37A 1_555 1_555
C38A C39A 1_555 1_555

#END
