
#######################################################################
#
#                 Cambridge Crystallographic Data Centre
#                                CCDC 
#
#######################################################################
#
# If this CIF has been generated from an entry in the Cambridge 
# Structural Database, then it will include bibliographic, chemical, 
# crystal, experimental, refinement or atomic coordinate data resulting 
# from the CCDC's data processing and validation procedures.
#
#######################################################################

data_QOQDIL
_chemical_formula_moiety         'C16 H20 N2 O1'
_chemical_name_systematic        
5-Benzylidene-3-methyl-2-pentyl-3,5-dihydro-4H-imidazol-4-one
_symmetry_cell_setting           monoclinic
_symmetry_space_group_name_H-M   'C 2/c'
_symmetry_Int_Tables_number      15
_space_group_name_Hall           '-C 2yn'
loop_
_symmetry_equiv_pos_site_id
_symmetry_equiv_pos_as_xyz
1 x,y,z
2 -x,y,1/2-z
3 1/2+x,1/2+y,z
4 1/2-x,1/2+y,1/2-z
5 -x,-y,-z
6 x,-y,1/2+z
7 1/2-x,1/2-y,-z
8 1/2+x,1/2-y,1/2+z
_cell_length_a                   11.461(2)
_cell_length_b                   9.3628(19)
_cell_length_c                   26.390(5)
_cell_angle_alpha                90
_cell_angle_beta                 90.09(3)
_cell_angle_gamma                90
_cell_volume                     2831.83
_exptl_crystal_colour            colorless
_exptl_crystal_description       block
_cell_formula_units_Z            8
loop_
_atom_site_label
_atom_site_type_symbol
_atom_site_fract_x
_atom_site_fract_y
_atom_site_fract_z
O1 O 0.67326(13) -0.07534(15) 0.52103(5)
N1 N 0.66577(13) 0.11471(16) 0.40448(5)
N2 N 0.62277(13) 0.14450(17) 0.48736(6)
C1 C 0.75372(16) -0.08683(19) 0.31930(7)
H1 H 0.7147 0.0019 0.3234
C2 C 0.78831(16) -0.1303(2) 0.27166(7)
H2 H 0.7725 -0.0715 0.2431
C3 C 0.84594(16) -0.2593(2) 0.26509(7)
H3 H 0.8694 -0.2887 0.2322
C4 C 0.86906(16) -0.3450(2) 0.30673(7)
H4 H 0.9093 -0.4329 0.3024
C5 C 0.83364(15) -0.30300(19) 0.35457(7)
H5 H 0.8486 -0.3630 0.3829
C6 C 0.77578(15) -0.17256(19) 0.36162(6)
C7 C 0.74149(15) -0.13381(19) 0.41307(7)
H6 H 0.7543 -0.2057 0.4379
C8 C 0.69435(15) -0.0116(2) 0.43079(7)
C9 C 0.66474(16) 0.0068(2) 0.48508(7)
C10 C 0.57752(18) 0.2120(2) 0.53308(7)
H7 H 0.6231 0.2979 0.5406
H8 H 0.5834 0.1451 0.5615
H9 H 0.4956 0.2382 0.5278
C11 C 0.62480(15) 0.2013(2) 0.43852(7)
C12 C 0.58214(17) 0.3492(2) 0.43026(7)
H10 H 0.6261 0.4136 0.4531
H11 H 0.4992 0.3532 0.4405
C13 C 0.59167(16) 0.40745(19) 0.37668(7)
H12 H 0.5525 0.3415 0.3527
H13 H 0.6748 0.4146 0.3669
C14 C 0.53481(16) 0.5545(2) 0.37374(7)
H14 H 0.4556 0.5478 0.3884
H15 H 0.5804 0.6211 0.3951
C15 C 0.52466(17) 0.6180(2) 0.32101(7)
H16 H 0.4859 0.5485 0.2983
H17 H 0.6037 0.6367 0.3075
C16 C 0.45541(19) 0.7563(2) 0.32142(8)
H18 H 0.4476 0.7923 0.2867
H19 H 0.4962 0.8273 0.3422
H20 H 0.3778 0.7386 0.3356
loop_
_geom_bond_atom_site_label_1
_geom_bond_atom_site_label_2
_geom_bond_site_symmetry_1
_geom_bond_site_symmetry_2
O1 C9 1_555 1_555
N1 C8 1_555 1_555
N2 C9 1_555 1_555
C1 H1 1_555 1_555
C2 C1 1_555 1_555
H2 C2 1_555 1_555
C3 C2 1_555 1_555
H3 C3 1_555 1_555
C4 C3 1_555 1_555
H4 C4 1_555 1_555
C5 C4 1_555 1_555
H5 C5 1_555 1_555
C6 C1 1_555 1_555
C7 C6 1_555 1_555
H6 C7 1_555 1_555
C8 C7 1_555 1_555
C9 C8 1_555 1_555
C10 N2 1_555 1_555
H7 C10 1_555 1_555
H8 C10 1_555 1_555
H9 C10 1_555 1_555
C11 N1 1_555 1_555
C12 C11 1_555 1_555
H10 C12 1_555 1_555
H11 C12 1_555 1_555
C13 C12 1_555 1_555
H12 C13 1_555 1_555
H13 C13 1_555 1_555
C14 C13 1_555 1_555
H14 C14 1_555 1_555
H15 C14 1_555 1_555
C15 C14 1_555 1_555
H16 C15 1_555 1_555
H17 C15 1_555 1_555
C16 C15 1_555 1_555
H18 C16 1_555 1_555
H19 C16 1_555 1_555
H20 C16 1_555 1_555
N2 C11 1_555 1_555
C5 C6 1_555 1_555

#END
