
#######################################################################
#
#                 Cambridge Crystallographic Data Centre
#                                CCDC 
#
#######################################################################
#
# If this CIF has been generated from an entry in the Cambridge 
# Structural Database, then it will include bibliographic, chemical, 
# crystal, experimental, refinement or atomic coordinate data resulting 
# from the CCDC's data processing and validation procedures.
#
#######################################################################

data_QOQDIJ
_chemical_name_common            
"C-Methylcalix[4]resorcinarene tris(4,4'-bipyridine)"
_chemical_formula_moiety         'C32 H32 O8,3(C10 H8 N2)'
_chemical_name_systematic        
"4,6,10,12,16,18,22,24-octahydroxy-2,8,14,20-tetramethylcalix[4]arene tris(4,4'-bipyridine)"
_symmetry_cell_setting           triclinic
_symmetry_space_group_name_H-M   'P -1'
_symmetry_Int_Tables_number      2
_space_group_name_Hall           '-P 1'
loop_
_symmetry_equiv_pos_site_id
_symmetry_equiv_pos_as_xyz
1 x,y,z
2 -x,-y,-z
_cell_length_a                   9.8060(6)
_cell_length_b                   10.8427(6)
_cell_length_c                   13.0429(8)
_cell_angle_alpha                74.672(2)
_cell_angle_beta                 73.633(2)
_cell_angle_gamma                89.016(2)
_cell_volume                     1280.78
_exptl_crystal_colour            colorless
_exptl_crystal_description       plate
_cell_formula_units_Z            1
loop_
_atom_site_label
_atom_site_type_symbol
_atom_site_fract_x
_atom_site_fract_y
_atom_site_fract_z
O1 O 0.46295(6) 0.86769(5) 0.75752(4)
O2 O 0.78726(6) 1.00693(5) 0.39116(4)
H1 H 0.8143(9) 1.0560(8) 0.4169(7)
O3 O 0.48769(5) 0.88812(5) 0.24068(4)
H2 H 0.4147(12) 0.9199(11) 0.2005(9)
O4 O 0.38261(5) 0.48417(5) 0.18711(4)
H3 H 0.3245(12) 0.5307(11) 0.1521(10)
C1 C 0.53029(7) 0.84773(6) 0.65652(6)
C2 C 0.62728(8) 0.93905(6) 0.57486(6)
H4 H 0.6522(8) 1.0181(7) 0.5849(6)
C3 C 0.68904(7) 0.91915(6) 0.47171(6)
C4 C 0.65024(7) 0.80976(6) 0.44598(6)
C5 C 0.55755(7) 0.71727(6) 0.53243(6)
H5 H 0.5364(7) 0.6361(7) 0.5167(6)
C6 C 0.49855(7) 0.73165(6) 0.63855(6)
C7 C 0.71432(7) 0.79512(6) 0.32957(6)
H6 H 0.7166(8) 0.8760(8) 0.2760(7)
C8 C 0.86626(8) 0.75384(7) 0.31424(7)
H7 H 0.9257(9) 0.8152(8) 0.3384(7)
H8 H 0.8664(9) 0.6513(8) 0.3663(7)
H9 H 0.9180(10) 0.7636(9) 0.2303(8)
C9 C 0.62215(8) 0.71137(6) 0.29491(6)
C10 C 0.51344(8) 0.76102(6) 0.25085(6)
C11 C 0.43312(8) 0.68700(7) 0.21475(6)
H10 H 0.3587(8) 0.7190(7) 0.1882(6)
C12 C 0.46002(7) 0.55891(7) 0.22174(6)
C13 C 0.56879(7) 0.50473(6) 0.26457(6)
C14 C 0.64581(7) 0.58185(6) 0.30130(6)
H11 H 0.7128(6) 0.5517(6) 0.3298(5)
C15 C 0.39795(8) 0.63266(6) 0.73520(6)
H12 H 0.4167(9) 0.6403(8) 0.8037(7)
C16 C 0.24380(8) 0.66034(7) 0.74419(7)
H13 H 0.2306(9) 0.7536(8) 0.7487(7)
H14 H 0.2155(11) 0.6356(10) 0.6724(9)
H15 H 0.1686(8) 0.6094(8) 0.8189(7)
H28 H 0.4721(10) 0.9461(9) 0.7470(8)
C13A C 0.43121(7) 0.49527(6) 0.73543(6)
C12A C 0.53998(7) 0.44109(7) 0.77826(6)
O4A O 0.61739(5) 0.51583(5) 0.81289(4)
H3A H 0.6755(12) 0.4693(11) 0.8479(10)
C11A C 0.56688(8) 0.31300(7) 0.78525(6)
C10A C 0.48656(8) 0.23898(6) 0.74915(6)
O3A O 0.51231(5) 0.11188(5) 0.75932(4)
H2A H 0.5853(12) 0.0801(11) 0.7995(9)
C9A C 0.37785(8) 0.28863(6) 0.70509(6)
C7A C 0.28568(7) 0.20488(6) 0.67043(6)
C4A C 0.34976(7) 0.19024(6) 0.55402(6)
C3A C 0.31096(7) 0.08085(6) 0.52829(6)
O2A O 0.21274(6) -0.00693(5) 0.60884(4)
H1A H 0.1857(9) -0.0560(8) 0.5831(7)
C2A C 0.37272(8) 0.06095(6) 0.42514(6)
C1A C 0.46971(7) 0.15227(6) 0.34348(6)
O1A O 0.53705(6) 0.13231(5) 0.24248(4)
H28A H 0.5279(10) 0.0539(9) 0.2530(8)
C6A C 0.50145(7) 0.26835(6) 0.36145(6)
C5A C 0.44245(7) 0.28273(6) 0.46757(6)
H5A H 0.4636(7) 0.3639(7) 0.4833(6)
C15A C 0.60205(8) 0.36734(6) 0.26480(6)
H12A H 0.5833(9) 0.3597(8) 0.1963(7)
C16A C 0.75620(8) 0.33966(7) 0.25581(7)
H13A H 0.7694(9) 0.2464(8) 0.2513(7)
H14A H 0.7845(11) 0.3644(10) 0.3276(9)
H15A H 0.8314(8) 0.3906(8) 0.1811(7)
H4A H 0.3478(8) -0.0181(7) 0.4151(6)
H6A H 0.2834(8) 0.1240(8) 0.7240(7)
C8A C 0.13374(8) 0.24616(7) 0.68576(7)
H7A H 0.0743(9) 0.1848(8) 0.6616(7)
H8A H 0.1336(9) 0.3487(8) 0.6337(7)
H9A H 0.0820(10) 0.2364(9) 0.7697(8)
C14A C 0.35419(7) 0.41815(6) 0.69870(6)
H11A H 0.2872(6) 0.4483(6) 0.6702(5)
H10A H 0.6413(8) 0.2810(7) 0.8118(6)
N1 N -0.29603(7) 0.99868(6) -0.14222(6)
N2 N 0.21124(7) 0.62501(6) 0.07086(5)
C17 C -0.33191(9) 0.91213(9) -0.04350(8)
H16 H -0.4381(10) 0.9040(9) 0.0045(8)
C18 C -0.23643(9) 0.83651(8) -0.00082(7)
H17 H -0.2725(10) 0.7714(9) 0.0748(8)
C19 C -0.09378(8) 0.84877(7) -0.06258(6)
C20 C -0.05643(8) 0.93655(8) -0.16596(7)
H18 H 0.0344(9) 0.9456(8) -0.2055(7)
C21 C -0.16064(9) 1.00822(9) -0.20171(7)
H19 H -0.1316(11) 1.0596(10) -0.2792(9)
C22 C 0.01289(8) 0.77109(7) -0.01795(6)
C23 C -0.02413(8) 0.64908(7) 0.05445(6)
H20 H -0.1175(9) 0.6154(8) 0.0735(7)
C24 C 0.07672(8) 0.58146(7) 0.09661(6)
H21 H 0.0495(8) 0.5015(8) 0.1502(7)
C25 C 0.24798(8) 0.74089(9) -0.00164(7)
H22 H 0.3513(10) 0.7687(9) -0.0299(8)
C26 C 0.15355(8) 0.81642(8) -0.04621(7)
H23 H 0.1864(9) 0.8990(8) -0.0977(7)
N3 N 0.88943(7) 0.20227(6) 0.46983(6)
C27 C 0.79984(9) 0.27066(8) 0.52747(7)
H24 H 0.6956(8) 0.2402(8) 0.5602(7)
C28 C 0.83747(9) 0.38603(7) 0.54079(7)
H25 H 0.7628(8) 0.4360(8) 0.5827(7)
C29 C 0.97669(8) 0.43848(7) 0.49256(6)
C30 C 1.07021(8) 0.36980(8) 0.42950(7)
H26 H 1.1749(9) 0.3980(8) 0.3910(7)
C31 C 1.02269(9) 0.25361(8) 0.42174(7)
H27 H 1.1103(12) 0.2254(10) 0.3603(9)
C29A C 1.02331(8) 0.56152(7) 0.50744(6)
C28A C 1.16253(9) 0.61397(7) 0.45921(7)
C27A C 1.20016(9) 0.72934(8) 0.47253(7)
N3A N 1.11057(7) 0.79773(6) 0.53017(6)
C31A C 0.97731(9) 0.74639(8) 0.57826(7)
C30A C 0.92979(8) 0.63020(8) 0.57050(7)
H26A H 0.8251(9) 0.6020(8) 0.6090(7)
H27A H 0.8897(12) 0.7746(10) 0.6397(9)
H24A H 1.3044(8) 0.7598(8) 0.4398(7)
H25A H 1.2372(8) 0.5640(8) 0.4173(7)
loop_
_geom_bond_atom_site_label_1
_geom_bond_atom_site_label_2
_geom_bond_site_symmetry_1
_geom_bond_site_symmetry_2
O1 C1 1_555 1_555
O2 H1 1_555 1_555
O3 H2 1_555 1_555
O4 H3 1_555 1_555
N1 C17 1_555 1_555
N2 C24 1_555 1_555
N3 C27 1_555 1_555
C1 C2 1_555 1_555
C2 H4 1_555 1_555
C3 O2 1_555 1_555
C4 C3 1_555 1_555
C5 C4 1_555 1_555
H5 C5 1_555 1_555
C6 C1 1_555 1_555
C7 C4 1_555 1_555
H6 C7 1_555 1_555
C8 C7 1_555 1_555
H7 C8 1_555 1_555
H8 C8 1_555 1_555
H9 C8 1_555 1_555
C9 C7 1_555 1_555
C10 O3 1_555 1_555
C11 C10 1_555 1_555
H10 C11 1_555 1_555
C12 O4 1_555 1_555
C13 C12 1_555 1_555
C14 C9 1_555 1_555
H11 C14 1_555 1_555
C15 C6 1_555 1_555
H12 C15 1_555 1_555
C16 C15 1_555 1_555
H13 C16 1_555 1_555
H14 C16 1_555 1_555
H15 C16 1_555 1_555
C17 H16 1_555 1_555
C18 C17 1_555 1_555
H17 C18 1_555 1_555
C19 C18 1_555 1_555
C20 C19 1_555 1_555
H18 C20 1_555 1_555
C21 N1 1_555 1_555
H19 C21 1_555 1_555
C22 C19 1_555 1_555
C23 C22 1_555 1_555
H20 C23 1_555 1_555
C24 C23 1_555 1_555
H21 C24 1_555 1_555
C25 N2 1_555 1_555
H22 C25 1_555 1_555
C26 C22 1_555 1_555
H23 C26 1_555 1_555
C27 H24 1_555 1_555
C28 C27 1_555 1_555
H25 C28 1_555 1_555
C29 C28 1_555 1_555
C30 C29 1_555 1_555
H26 C30 1_555 1_555
C31 N3 1_555 1_555
H27 C31 1_555 1_555
H28 O1 1_555 1_555
C13A C15 1_555 1_555
C12A C13A 1_555 1_555
O4A C12A 1_555 1_555
H3A O4A 1_555 1_555
C11A C12A 1_555 1_555
C10A C11A 1_555 1_555
O3A C10A 1_555 1_555
H2A O3A 1_555 1_555
C9A C10A 1_555 1_555
C7A C9A 1_555 1_555
C4A C7A 1_555 1_555
C3A C4A 1_555 1_555
O2A C3A 1_555 1_555
H1A O2A 1_555 1_555
C2A C3A 1_555 1_555
C1A C2A 1_555 1_555
O1A C1A 1_555 1_555
H28A O1A 1_555 1_555
C6A C1A 1_555 1_555
C5A C4A 1_555 1_555
H5A C5A 1_555 1_555
C15A C13 1_555 1_555
H12A C15A 1_555 1_555
C16A C15A 1_555 1_555
H13A C16A 1_555 1_555
H14A C16A 1_555 1_555
H15A C16A 1_555 1_555
H4A C2A 1_555 1_555
H6A C7A 1_555 1_555
C8A C7A 1_555 1_555
H7A C8A 1_555 1_555
H8A C8A 1_555 1_555
H9A C8A 1_555 1_555
C14A C13A 1_555 1_555
H11A C14A 1_555 1_555
H10A C11A 1_555 1_555
C29A C29 1_555 1_555
C28A C29A 1_555 1_555
C27A C28A 1_555 1_555
N3A C27A 1_555 1_555
C31A N3A 1_555 1_555
C30A C29A 1_555 1_555
H26A C30A 1_555 1_555
H27A C31A 1_555 1_555
H24A C27A 1_555 1_555
H25A C28A 1_555 1_555
C2 C3 1_555 1_555
C5 C6 1_555 1_555
C9 C10 1_555 1_555
C11 C12 1_555 1_555
C13 C14 1_555 1_555
C20 C21 1_555 1_555
C25 C26 1_555 1_555
C30 C31 1_555 1_555
C9A C14A 1_555 1_555
C6A C5A 1_555 1_555
C6A C15A 1_555 1_555
C31A C30A 1_555 1_555

#END
