
#######################################################################
#
#                 Cambridge Crystallographic Data Centre
#                                CCDC 
#
#######################################################################
#
# If this CIF has been generated from an entry in the Cambridge 
# Structural Database, then it will include bibliographic, chemical, 
# crystal, experimental, refinement or atomic coordinate data resulting 
# from the CCDC's data processing and validation procedures.
#
#######################################################################

data_QOQNEP
_chemical_formula_moiety         'C30 H18 N8'
_chemical_name_systematic        
2,3,7,8-tetrakis(2-Pyridyl)pyrazino(2,3-g)quinoxaline
_symmetry_cell_setting           monoclinic
_symmetry_space_group_name_H-M   'P 2/c'
_symmetry_Int_Tables_number      13
_space_group_name_Hall           '-P 2yc'
loop_
_symmetry_equiv_pos_site_id
_symmetry_equiv_pos_as_xyz
1 x,y,z
2 x,-y,1/2+z
3 -x,-y,-z
4 -x,y,1/2-z
_cell_length_a                   15.061(5)
_cell_length_b                   6.2184(19)
_cell_length_c                   13.908(4)
_cell_angle_alpha                90
_cell_angle_beta                 114.398(5)
_cell_angle_gamma                90
_cell_volume                     1186.24
_exptl_crystal_colour            yellow
_exptl_crystal_description       prism
_cell_formula_units_Z            2
_exptl_crystal_recrystallization_method 'diethyl ether/dichloromethane/methanol'
loop_
_atom_site_label
_atom_site_type_symbol
_atom_site_fract_x
_atom_site_fract_y
_atom_site_fract_z
N1 N 0.24555(13) 0.7240(3) 0.07158(14)
N2 N 0.42174(12) 0.7179(3) 0.33148(13)
N3 N 0.31210(11) 1.0697(3) 0.34939(13)
N4 N 0.11787(13) 0.7647(3) 0.19029(14)
C1 C 0.22019(16) 0.6088(4) -0.01714(18)
H1 H 0.1816 0.6746 -0.0808
C2 C 0.24769(18) 0.4002(5) -0.0196(2)
H2 H 0.2267 0.3259 -0.0832
C3 C 0.3069(2) 0.3017(4) 0.0735(2)
H3 H 0.3267 0.1598 0.0741
C4 C 0.33617(17) 0.4181(4) 0.16537(18)
H4 H 0.3780 0.3577 0.2293
C5 C 0.30255(14) 0.6264(3) 0.16148(16)
C6 C 0.33458(14) 0.7584(3) 0.25939(16)
C7 C 0.27509(14) 0.9293(3) 0.27320(15)
C8 C 0.16811(14) 0.9489(4) 0.20992(15)
C9 C 0.12431(16) 1.1480(4) 0.18140(17)
H5 H 0.1614 1.2732 0.1980
C10 C 0.02475(17) 1.1561(4) 0.1280(2)
H6 H -0.0064 1.2878 0.1063
C11 C -0.02855(17) 0.9704(4) 0.1066(2)
H7 H -0.0961 0.9726 0.0706
C12 C 0.02110(17) 0.7812(4) 0.1400(2)
H8 H -0.0152 0.6550 0.1268
C13 C 0.45943(14) 0.8533(3) 0.41707(16)
C14 C 0.40723(14) 1.0411(4) 0.42217(16)
C15 C 0.55144(15) 0.8141(4) 0.49598(16)
H9 H 0.5852 0.6904 0.4937
C15B C 0.44856(15) 1.1859(4) 0.50402(16)
C13B C 0.54057(14) 1.1467(3) 0.58293(16)
N2B N 0.57826(12) 1.2821(3) 0.66852(13)
C6B C 0.66542(14) 1.2416(3) 0.74061(16)
C5B C 0.69745(14) 1.3736(3) 0.83852(16)
N1B N 0.75445(13) 1.2760(3) 0.92842(14)
C1B C 0.77981(16) 1.3912(4) 1.01714(18)
H1B H 0.8184 1.3254 1.0808
C2B C 0.75231(18) 1.5998(5) 1.0196(2)
H2B H 0.7733 1.6741 1.0832
C3B C 0.6931(2) 1.6983(4) 0.9265(2)
H3B H 0.6733 1.8402 0.9259
C4B C 0.66383(17) 1.5819(4) 0.83463(18)
H4B H 0.6220 1.6423 0.7707
C7B C 0.72491(14) 1.0707(3) 0.72680(15)
N3B N 0.68790(11) 0.9303(3) 0.65061(13)
C14B C 0.59277(14) 0.9589(4) 0.57783(16)
C8B C 0.83189(14) 1.0511(4) 0.79008(15)
N4B N 0.88213(13) 1.2353(3) 0.80971(14)
C12B C 0.97890(17) 1.2188(4) 0.8600(2)
C11B C 1.02855(17) 1.0296(4) 0.8934(2)
C10B C 0.97525(17) 0.8439(4) 0.8720(2)
C9B C 0.87569(16) 0.8520(4) 0.81860(17)
H5B H 0.8386 0.7268 0.8020
H6B H 1.0064 0.7122 0.8937
H7B H 1.0961 1.0274 0.9294
H8B H 1.0152 1.3450 0.8732
H9B H 0.4148 1.3096 0.5063
loop_
_geom_bond_atom_site_label_1
_geom_bond_atom_site_label_2
_geom_bond_site_symmetry_1
_geom_bond_site_symmetry_2
N1 C1 1_555 1_555
N2 C6 1_555 1_555
N3 C7 1_555 1_555
N4 C8 1_555 1_555
C1 H1 1_555 1_555
C2 C1 1_555 1_555
H2 C2 1_555 1_555
C3 C2 1_555 1_555
H3 C3 1_555 1_555
C4 C3 1_555 1_555
H4 C4 1_555 1_555
C5 N1 1_555 1_555
C6 C5 1_555 1_555
C7 C6 1_555 1_555
C8 C7 1_555 1_555
C9 C8 1_555 1_555
H5 C9 1_555 1_555
C10 C9 1_555 1_555
H6 C10 1_555 1_555
C11 C10 1_555 1_555
H7 C11 1_555 1_555
C12 N4 1_555 1_555
H8 C12 1_555 1_555
C13 N2 1_555 1_555
C14 N3 1_555 1_555
C15 C13 1_555 1_555
H9 C15 1_555 1_555
C15B C14 1_555 1_555
C13B C15B 1_555 1_555
N2B C13B 1_555 1_555
C6B N2B 1_555 1_555
C5B C6B 1_555 1_555
N1B C5B 1_555 1_555
C1B N1B 1_555 1_555
H1B C1B 1_555 1_555
C2B C1B 1_555 1_555
H2B C2B 1_555 1_555
C3B C2B 1_555 1_555
H3B C3B 1_555 1_555
C4B C5B 1_555 1_555
H4B C4B 1_555 1_555
C7B C6B 1_555 1_555
N3B C7B 1_555 1_555
C14B C15 1_555 1_555
C8B C7B 1_555 1_555
N4B C8B 1_555 1_555
C12B N4B 1_555 1_555
C11B C12B 1_555 1_555
C10B C11B 1_555 1_555
C9B C8B 1_555 1_555
H5B C9B 1_555 1_555
H6B C10B 1_555 1_555
H7B C11B 1_555 1_555
H8B C12B 1_555 1_555
H9B C15B 1_555 1_555
C4 C5 1_555 1_555
C11 C12 1_555 1_555
C13 C14 1_555 1_555
C13B C14B 1_555 1_555
C3B C4B 1_555 1_555
N3B C14B 1_555 1_555
C10B C9B 1_555 1_555

#END
