
#######################################################################
#
#                 Cambridge Crystallographic Data Centre
#                                CCDC 
#
#######################################################################
#
# If this CIF has been generated from an entry in the Cambridge 
# Structural Database, then it will include bibliographic, chemical, 
# crystal, experimental, refinement or atomic coordinate data resulting 
# from the CCDC's data processing and validation procedures.
#
#######################################################################

data_QORGEL
_chemical_formula_moiety         'C18 H28 Cl1 N1'
_chemical_name_systematic        
6-Chloro-4-(2,2-dimethylpropyl)-4-methyl-2-propyl-1,2,3,4-tetrahydroquinoline
_symmetry_cell_setting           monoclinic
_symmetry_space_group_name_H-M   'P 21/n'
_symmetry_Int_Tables_number      14
_space_group_name_Hall           '-P 2yn'
loop_
_symmetry_equiv_pos_site_id
_symmetry_equiv_pos_as_xyz
1 x,y,z
2 1/2-x,1/2+y,1/2-z
3 -x,-y,-z
4 1/2+x,1/2-y,1/2+z
_cell_length_a                   9.809(2)
_cell_length_b                   11.565(2)
_cell_length_c                   15.377(3)
_cell_angle_alpha                90
_cell_angle_beta                 102.79(3)
_cell_angle_gamma                90
_cell_volume                     1701.1
_cell_formula_units_Z            4
loop_
_atom_site_label
_atom_site_type_symbol
_atom_site_fract_x
_atom_site_fract_y
_atom_site_fract_z
C1 C 0.2343(3) 0.3907(2) 0.95128(18)
C2 C 0.3595(3) 0.3435(2) 0.94108(17)
H1 H 0.3848 0.2669 0.9606
C3 C 0.4468(3) 0.4096(2) 0.90199(18)
H2 H 0.5337 0.3784 0.8957
C4 C 0.4099(3) 0.5208(2) 0.87169(17)
C5 C 0.2790(2) 0.5666(2) 0.87891(16)
C6 C 0.1946(3) 0.4979(2) 0.92026(18)
H3 H 0.1069 0.5272 0.9268
C7 C 0.2340(2) 0.6883(2) 0.84636(17)
C8 C 0.3271(2) 0.7267(2) 0.78184(17)
H4 H 0.2973 0.6842 0.7249
H5 H 0.3118 0.8101 0.7689
C9 C 0.4830(3) 0.7059(2) 0.81827(18)
H6 H 0.5129 0.7470 0.8766
C10 C 0.5764(3) 0.7449(2) 0.7555(2)
H7 H 0.6703 0.7101 0.7761
H8 H 0.5366 0.7148 0.6949
C11 C 0.5918(3) 0.8725(2) 0.7503(2)
H9 H 0.6244 0.9037 0.8113
H10 H 0.4993 0.9070 0.7247
C12 C 0.6953(3) 0.9087(3) 0.6933(2)
H11 H 0.7895 0.8828 0.7222
H12 H 0.6945 0.9930 0.6872
H13 H 0.6676 0.8732 0.6341
C13 C 0.0816(2) 0.6864(2) 0.79239(18)
H14 H 0.0702 0.6243 0.7480
H15 H 0.0591 0.7608 0.7621
H16 H 0.0187 0.6729 0.8327
C14 C 0.2520(3) 0.7626(2) 0.93341(17)
H17 H 0.1919 0.7257 0.9694
H18 H 0.3496 0.7503 0.9665
C15 C 0.2256(3) 0.8934(2) 0.93780(19)
C16 C 0.0773(3) 0.9305(3) 0.8904(2)
H19 H 0.0676 0.9251 0.8257
H20 H 0.0610 1.0105 0.9066
H21 H 0.0088 0.8796 0.9086
C17 C 0.2463(3) 0.9217(3) 1.0372(2)
H22 H 0.1784 0.8782 1.0624
H23 H 0.2323 1.0047 1.0446
H24 H 0.3412 0.9003 1.0683
C18 C 0.3305(3) 0.9661(2) 0.9005(2)
H25 H 0.4258 0.9403 0.9271
H26 H 0.3204 1.0477 0.9149
H27 H 0.3123 0.9566 0.8356
Cl1 Cl 0.12688(8) 0.30803(6) 1.00464(6)
N1 N 0.5008(3) 0.5833(2) 0.83314(18)
H28 H 0.575(3) 0.569(2) 0.8447(19)
loop_
_geom_bond_atom_site_label_1
_geom_bond_atom_site_label_2
_geom_bond_site_symmetry_1
_geom_bond_site_symmetry_2
C1 C2 1_555 1_555
C2 H1 1_555 1_555
C3 C2 1_555 1_555
H2 C3 1_555 1_555
C4 C3 1_555 1_555
C5 C4 1_555 1_555
C6 C1 1_555 1_555
H3 C6 1_555 1_555
C7 C5 1_555 1_555
C8 C7 1_555 1_555
H4 C8 1_555 1_555
H5 C8 1_555 1_555
C9 C8 1_555 1_555
H6 C9 1_555 1_555
C10 C9 1_555 1_555
H7 C10 1_555 1_555
H8 C10 1_555 1_555
C11 C10 1_555 1_555
H9 C11 1_555 1_555
H10 C11 1_555 1_555
C12 C11 1_555 1_555
H11 C12 1_555 1_555
H12 C12 1_555 1_555
H13 C12 1_555 1_555
C13 C7 1_555 1_555
H14 C13 1_555 1_555
H15 C13 1_555 1_555
H16 C13 1_555 1_555
C14 C7 1_555 1_555
H17 C14 1_555 1_555
H18 C14 1_555 1_555
C15 C14 1_555 1_555
C16 C15 1_555 1_555
H19 C16 1_555 1_555
H20 C16 1_555 1_555
H21 C16 1_555 1_555
C17 C15 1_555 1_555
H22 C17 1_555 1_555
H23 C17 1_555 1_555
H24 C17 1_555 1_555
C18 C15 1_555 1_555
H25 C18 1_555 1_555
H26 C18 1_555 1_555
H27 C18 1_555 1_555
Cl1 C1 1_555 1_555
N1 C4 1_555 1_555
H28 N1 1_555 1_555
C5 C6 1_555 1_555
C9 N1 1_555 1_555

#END
