
#######################################################################
#
#                 Cambridge Crystallographic Data Centre
#                                CCDC 
#
#######################################################################
#
# If this CIF has been generated from an entry in the Cambridge 
# Structural Database, then it will include bibliographic, chemical, 
# crystal, experimental, refinement or atomic coordinate data resulting 
# from the CCDC's data processing and validation procedures.
#
#######################################################################

data_QORMER
_chemical_formula_moiety         'C39 H32 N2 O1 P2,0.5(C4 H8 O2)'
_chemical_name_systematic        
'4,5-bis(2-(diphenylphosphino)phenyl)imidazolidin-2-one ethyl acetate solvate'
_symmetry_cell_setting           monoclinic
_symmetry_space_group_name_H-M   'C 2'
_symmetry_Int_Tables_number      5
_space_group_name_Hall           'C 2y'
loop_
_symmetry_equiv_pos_site_id
_symmetry_equiv_pos_as_xyz
1 x,y,z
2 -x,y,-z
3 1/2+x,1/2+y,z
4 1/2-x,1/2+y,-z
_cell_length_a                   37.3211(13)
_cell_length_b                   7.7753(3)
_cell_length_c                   11.7912(4)
_cell_angle_alpha                90
_cell_angle_beta                 96.260(2)
_cell_angle_gamma                90
_cell_volume                     3401.2
_exptl_crystal_colour            colorless
_exptl_crystal_description       block
_cell_formula_units_Z            4
loop_
_atom_site_label
_atom_site_type_symbol
_atom_site_fract_x
_atom_site_fract_y
_atom_site_fract_z
P1 P 0.62281(2) 0.20415(12) 0.64271(7)
P2 P 0.65486(2) 0.29439(11) 1.01767(7)
O1 O 0.49136(6) 0.5860(4) 0.8487(2)
N1 N 0.53944(8) 0.4694(5) 0.7676(3)
N2 N 0.54145(8) 0.4752(5) 0.9539(3)
C1 C 0.52118(8) 0.5170(5) 0.8568(3)
C2 C 0.57477(9) 0.3977(5) 0.8036(3)
H1 H 0.5757 0.2763 0.7762
C3 C 0.57585(9) 0.3987(5) 0.9372(3)
H2 H 0.5958 0.4751 0.9708
C4 C 0.60481(8) 0.5010(5) 0.7586(3)
C5 C 0.60981(9) 0.6710(5) 0.7941(3)
H3 H 0.5948 0.7179 0.8463
C6 C 0.63601(10) 0.7720(5) 0.7550(3)
H4 H 0.6394 0.8868 0.7816
C7 C 0.65758(10) 0.7055(6) 0.6761(3)
H5 H 0.6752 0.7759 0.6465
C8 C 0.65317(9) 0.5377(5) 0.6414(3)
H6 H 0.6682 0.4922 0.5887
C9 C 0.62695(9) 0.4320(5) 0.6819(3)
C10 C 0.66802(9) 0.1560(5) 0.6037(3)
C11 C 0.69455(10) 0.1404(5) 0.6958(3)
H7 H 0.6887 0.1643 0.7707
C12 C 0.72923(10) 0.0907(6) 0.6802(4)
H8 H 0.7473 0.0845 0.7435
C13 C 0.73759(11) 0.0499(6) 0.5714(4)
H9 H 0.7611 0.0111 0.5603
C14 C 0.71156(11) 0.0659(6) 0.4799(4)
H10 H 0.7174 0.0400 0.4054
C15 C 0.67682(10) 0.1194(6) 0.4946(3)
H11 H 0.6592 0.1310 0.4305
C16 C 0.59422(9) 0.2069(7) 0.5067(3)
C17 C 0.58985(11) 0.0543(8) 0.4452(4)
H12 H 0.6018 -0.0475 0.4729
C18 C 0.56738(15) 0.0533(11) 0.3413(5)
H13 H 0.5646 -0.0497 0.2978
C19 C 0.54940(14) 0.1996(13) 0.3020(4)
H14 H 0.5349 0.1982 0.2306
C20 C 0.55236(12) 0.3460(10) 0.3651(4)
H15 H 0.5391 0.4453 0.3390
C21 C 0.57466(10) 0.3516(7) 0.4675(4)
H16 H 0.5766 0.4547 0.5109
C22 C 0.58092(9) 0.2197(5) 0.9872(3)
C23 C 0.55139(10) 0.1090(6) 0.9874(4)
H17 H 0.5282 0.1488 0.9580
C24 C 0.55508(11) -0.0568(6) 1.0293(4)
H18 H 0.5346 -0.1297 1.0280
C25 C 0.58857(10) -0.1159(5) 1.0731(3)
H19 H 0.5913 -0.2292 1.1030
C26 C 0.61820(9) -0.0088(5) 1.0733(3)
H20 H 0.6413 -0.0501 1.1033
C27 C 0.61502(9) 0.1581(4) 1.0305(3)
C28 C 0.69337(8) 0.1596(5) 1.0732(3)
C29 C 0.70398(9) 0.0285(5) 1.0033(3)
H21 H 0.6889 -0.0019 0.9361
C30 C 0.73637(10) -0.0583(5) 1.0310(3)
H22 H 0.7433 -0.1476 0.9829
C31 C 0.75850(10) -0.0148(5) 1.1282(4)
H23 H 0.7810 -0.0710 1.1456
C32 C 0.74780(9) 0.1103(5) 1.2000(3)
H24 H 0.7627 0.1377 1.2682
C33 C 0.71535(8) 0.1970(5) 1.1731(3)
H25 H 0.7081 0.2825 1.2235
C34 C 0.65430(9) 0.4511(5) 1.1344(3)
C35 C 0.67667(9) 0.5930(5) 1.1309(3)
H26 H 0.6896 0.6094 1.0667
C36 C 0.68055(9) 0.7115(5) 1.2194(3)
H27 H 0.6963 0.8068 1.2166
C37 C 0.66112(10) 0.6889(6) 1.3117(3)
H28 H 0.6636 0.7688 1.3730
C38 C 0.63818(12) 0.5508(6) 1.3148(3)
H29 H 0.6245 0.5378 1.3777
C39 C 0.63470(8) 0.4301(3) 1.2273(3)
H30 H 0.6191 0.3342 1.2309
H31 H 0.5364(10) 0.515(5) 1.021(3)
H32 H 0.5291(16) 0.480(9) 0.700(5)
O2 O 0.51992(8) 0.6718(3) 0.5528(3)
O3 O 0.50008(8) 0.9217(3) 0.5166(3)
C40 C 0.51636(8) 0.8278(3) 0.5944(3)
C41 C 0.53188(8) 0.9443(3) 0.6846(3)
H33 H 0.5188 1.0537 0.6792
H34 H 0.5573 0.9650 0.6756
H35 H 0.5299 0.8920 0.7593
H36 H 0.5029 0.7585 0.3760
H37 H 0.4648 0.7477 0.4255
H38 H 0.4586 0.8769 0.2489
H39 H 0.4870 1.0223 0.2940
H40 H 0.4488 1.0115 0.3435
C40A C 0.48364(8) 0.8278(3) 0.4056(3)
C41A C 0.46812(8) 0.9443(3) 0.3154(3)
loop_
_geom_bond_atom_site_label_1
_geom_bond_atom_site_label_2
_geom_bond_site_symmetry_1
_geom_bond_site_symmetry_2
P1 C9 1_555 1_555
P2 C27 1_555 1_555
O1 C1 1_555 1_555
N1 C1 1_555 1_555
N2 C1 1_555 1_555
C2 N1 1_555 1_555
H1 C2 1_555 1_555
C3 N2 1_555 1_555
H2 C3 1_555 1_555
C4 C2 1_555 1_555
C5 C4 1_555 1_555
H3 C5 1_555 1_555
C6 C5 1_555 1_555
H4 C6 1_555 1_555
C7 C6 1_555 1_555
H5 C7 1_555 1_555
C8 C7 1_555 1_555
H6 C8 1_555 1_555
C9 C4 1_555 1_555
C10 P1 1_555 1_555
C11 C10 1_555 1_555
H7 C11 1_555 1_555
C12 C11 1_555 1_555
H8 C12 1_555 1_555
C13 C12 1_555 1_555
H9 C13 1_555 1_555
C14 C13 1_555 1_555
H10 C14 1_555 1_555
C15 C10 1_555 1_555
H11 C15 1_555 1_555
C16 P1 1_555 1_555
C17 C16 1_555 1_555
H12 C17 1_555 1_555
C18 C17 1_555 1_555
H13 C18 1_555 1_555
C19 C18 1_555 1_555
H14 C19 1_555 1_555
C20 C19 1_555 1_555
H15 C20 1_555 1_555
C21 C16 1_555 1_555
H16 C21 1_555 1_555
C22 C3 1_555 1_555
C23 C22 1_555 1_555
H17 C23 1_555 1_555
C24 C23 1_555 1_555
H18 C24 1_555 1_555
C25 C24 1_555 1_555
H19 C25 1_555 1_555
C26 C25 1_555 1_555
H20 C26 1_555 1_555
C27 C22 1_555 1_555
C28 P2 1_555 1_555
C29 C28 1_555 1_555
H21 C29 1_555 1_555
C30 C29 1_555 1_555
H22 C30 1_555 1_555
C31 C30 1_555 1_555
H23 C31 1_555 1_555
C32 C31 1_555 1_555
H24 C32 1_555 1_555
C33 C28 1_555 1_555
H25 C33 1_555 1_555
C34 P2 1_555 1_555
C35 C34 1_555 1_555
H26 C35 1_555 1_555
C36 C35 1_555 1_555
H27 C36 1_555 1_555
C37 C36 1_555 1_555
H28 C37 1_555 1_555
C38 C37 1_555 1_555
H29 C38 1_555 1_555
C39 C34 1_555 1_555
H30 C39 1_555 1_555
H31 N2 1_555 1_555
H32 N1 1_555 1_555
O2 C40 1_555 1_555
O3 C40 1_555 1_555
C40 C41 1_555 1_555
C41 H33 1_555 1_555
H34 C41 1_555 1_555
H35 C41 1_555 1_555
H36 C40A 1_555 1_555
H37 C40A 1_555 1_555
H38 C41A 1_555 1_555
H39 C41A 1_555 1_555
H40 C41A 1_555 1_555
C40A O3 1_555 1_555
C41A C40A 1_555 1_555
C2 C3 1_555 1_555
C8 C9 1_555 1_555
C14 C15 1_555 1_555
C20 C21 1_555 1_555
C26 C27 1_555 1_555
C32 C33 1_555 1_555
C38 C39 1_555 1_555

#END
