
#######################################################################
#
#                 Cambridge Crystallographic Data Centre
#                                CCDC 
#
#######################################################################
#
# If this CIF has been generated from an entry in the Cambridge 
# Structural Database, then it will include bibliographic, chemical, 
# crystal, experimental, refinement or atomic coordinate data resulting 
# from the CCDC's data processing and validation procedures.
#
#######################################################################

data_QOSCOQ
_chemical_formula_moiety         'C36 H30 O6 S8'
_chemical_name_systematic        
1(1,4)-Benzena-7(2,6)-(9,10-bis(4,5-bis(methylthio)-1,3-dithiol-2-ylidene)-9,10-dihydroanthracena)-3,6,8,11-tetraoxa-2,12-dioxocyclododecaphane
_symmetry_cell_setting           triclinic
_symmetry_space_group_name_H-M   'P -1'
_symmetry_Int_Tables_number      2
_space_group_name_Hall           '-P 1'
loop_
_symmetry_equiv_pos_site_id
_symmetry_equiv_pos_as_xyz
1 x,y,z
2 -x,-y,-z
_cell_length_a                   9.496(2)
_cell_length_b                   12.519(4)
_cell_length_c                   16.291(1)
_cell_angle_alpha                74.36(1)
_cell_angle_beta                 87.45(1)
_cell_angle_gamma                71.75(1)
_cell_volume                     1769.48
_exptl_crystal_colour            amber
_exptl_crystal_description       parallelepiped
_chemical_melting_point          'above 250deg.C'
_cell_formula_units_Z            2
loop_
_atom_site_label
_atom_site_type_symbol
_atom_site_fract_x
_atom_site_fract_y
_atom_site_fract_z
S1 S 0.03837(4) 0.49297(3) 0.25519(2)
S2 S 0.34780(4) 0.34599(3) 0.29835(2)
S3 S 0.04274(4) 0.64467(3) 0.36924(2)
S4 S 0.40053(4) 0.47323(3) 0.41951(2)
S5 S -0.19576(4) 0.02667(3) 0.37000(2)
S6 S 0.11642(4) -0.11052(3) 0.41818(2)
S7 S -0.30645(4) -0.11291(4) 0.52740(2)
S8 S 0.03232(4) -0.26883(3) 0.57783(2)
O1 O -0.33205(11) 0.51518(8) 0.07076(6)
O2 O -0.16162(11) 0.37068(9) -0.05021(6)
O3 O -0.23739(12) 0.30026(10) -0.14825(7)
O4 O 0.52994(11) -0.18343(8) 0.25345(6)
O5 O 0.44808(11) -0.11713(8) 0.07696(6)
O6 O 0.40208(13) -0.19261(10) -0.02604(7)
C1 C -0.09432(15) 0.39503(11) 0.14309(8)
H1 H -0.052(2) 0.4596(16) 0.1210(11)
C2 C -0.24069(15) 0.40943(11) 0.12093(8)
C3 C -0.29971(15) 0.31886(12) 0.15130(8)
H2 H -0.398(2) 0.3283(15) 0.1355(11)
C4 C -0.21128(15) 0.21189(12) 0.20245(8)
H3 H -0.2531(19) 0.1514(15) 0.2194(11)
C5 C 0.29332(15) -0.05120(11) 0.26180(8)
H4 H 0.257(2) -0.1168(16) 0.2738(11)
C6 C 0.44236(15) -0.06861(11) 0.24313(8)
C7 C 0.49743(15) 0.02569(12) 0.21937(9)
H5 H 0.5986(19) 0.0133(14) 0.2068(10)
C8 C 0.40119(15) 0.13760(12) 0.21352(8)
H6 H 0.4385(18) 0.2020(14) 0.1947(10)
C9 C 0.14492(14) 0.27424(11) 0.22649(8)
C10 C 0.03753(14) 0.08226(11) 0.27791(8)
C11 C -0.00654(14) 0.28947(11) 0.19651(8)
C12 C -0.06345(14) 0.19404(11) 0.22533(8)
C13 C 0.19679(14) 0.06056(11) 0.25883(8)
C14 C 0.25189(14) 0.15706(11) 0.23345(8)
C15 C 0.17490(14) 0.35870(11) 0.25372(8)
C16 C 0.13388(15) 0.52340(12) 0.33140(8)
C17 C 0.27643(15) 0.45692(11) 0.35063(8)
C18 C -0.11968(18) 0.60647(16) 0.41464(12)
H7 H -0.195(3) 0.638(2) 0.3744(15)
H8 H -0.148(2) 0.6423(18) 0.4615(14)
H9 H -0.094(3) 0.522(2) 0.4386(16)
C19 C 0.4379(2) 0.60315(16) 0.35471(12)
H10 H 0.473(3) 0.590(2) 0.3010(15)
H11 H 0.516(2) 0.6127(18) 0.3828(14)
H12 H 0.350(3) 0.670(2) 0.3435(16)
C20 C -0.00863(14) 0.00822(11) 0.34350(8)
C21 C -0.16051(15) -0.09081(12) 0.46269(8)
C22 C -0.01740(15) -0.15261(11) 0.48498(8)
C23 C -0.4202(2) -0.14876(19) 0.45955(16)
H13 H -0.463(3) -0.081(3) 0.4109(19)
H14 H -0.503(3) -0.159(2) 0.4931(16)
H15 H -0.372(3) -0.210(3) 0.4414(18)
C24 C 0.23166(17) -0.32379(14) 0.57440(10)
H16 H 0.255(2) -0.3548(17) 0.5260(12)
H17 H 0.259(2) -0.3817(18) 0.6277(13)
H18 H 0.278(2) -0.2640(18) 0.5750(13)
C25 C -0.29193(16) 0.54966(13) -0.01644(9)
H19 H -0.197(2) 0.5585(16) -0.0176(11)
H20 H -0.3632(19) 0.6249(15) -0.0371(10)
C26 C -0.29982(16) 0.46738(13) -0.06750(9)
H21 H -0.384(2) 0.4373(15) -0.0523(11)
H22 H -0.3077(19) 0.5071(15) -0.1261(11)
C27 C -0.14718(15) 0.29167(13) -0.09461(8)
C28 C 0.63339(15) -0.20907(13) 0.18876(9)
H23 H 0.7065(19) -0.2817(15) 0.2176(11)
H24 H 0.6815(18) -0.1507(15) 0.1690(10)
C29 C 0.55990(16) -0.22750(12) 0.11584(9)
H25 H 0.6368(19) -0.2479(15) 0.0729(11)
H26 H 0.512(2) -0.2873(16) 0.1367(11)
C30 C 0.37078(16) -0.11484(12) 0.00899(9)
C31 C -0.00771(15) 0.19104(12) -0.06845(8)
C32 C 0.08832(16) 0.18164(13) -0.00192(9)
H27 H 0.0672(19) 0.2387(15) 0.0258(11)
C33 C 0.21297(16) 0.08370(12) 0.02335(9)
H28 H 0.2785(19) 0.0794(15) 0.0676(11)
C34 C 0.24157(15) -0.00574(12) -0.01737(8)
C35 C 0.14521(16) 0.00398(13) -0.08355(9)
H29 H 0.164(2) -0.0604(16) -0.1080(11)
C36 C 0.02170(17) 0.10197(13) -0.10922(9)
H30 H -0.044(2) 0.1112(16) -0.1505(12)
loop_
_geom_bond_atom_site_label_1
_geom_bond_atom_site_label_2
_geom_bond_site_symmetry_1
_geom_bond_site_symmetry_2
S1 C15 1_555 1_555
S2 C15 1_555 1_555
S3 C16 1_555 1_555
S4 C17 1_555 1_555
S5 C20 1_555 1_555
S6 C20 1_555 1_555
S7 C21 1_555 1_555
S8 C22 1_555 1_555
O1 C2 1_555 1_555
O2 C26 1_555 1_555
O3 C27 1_555 1_555
O4 C6 1_555 1_555
O5 C29 1_555 1_555
O6 C30 1_555 1_555
C1 H1 1_555 1_555
C2 C1 1_555 1_555
C3 C2 1_555 1_555
H2 C3 1_555 1_555
C4 C3 1_555 1_555
H3 C4 1_555 1_555
C5 H4 1_555 1_555
C6 C5 1_555 1_555
C7 C6 1_555 1_555
H5 C7 1_555 1_555
C8 C7 1_555 1_555
H6 C8 1_555 1_555
C9 C11 1_555 1_555
C10 C12 1_555 1_555
C11 C1 1_555 1_555
C12 C4 1_555 1_555
C13 C5 1_555 1_555
C14 C8 1_555 1_555
C15 C9 1_555 1_555
C16 S1 1_555 1_555
C17 S2 1_555 1_555
C18 S3 1_555 1_555
H7 C18 1_555 1_555
H8 C18 1_555 1_555
H9 C18 1_555 1_555
C19 S4 1_555 1_555
H10 C19 1_555 1_555
H11 C19 1_555 1_555
H12 C19 1_555 1_555
C20 C10 1_555 1_555
C21 S5 1_555 1_555
C22 S6 1_555 1_555
C23 S7 1_555 1_555
H13 C23 1_555 1_555
H14 C23 1_555 1_555
H15 C23 1_555 1_555
C24 S8 1_555 1_555
H16 C24 1_555 1_555
H17 C24 1_555 1_555
H18 C24 1_555 1_555
C25 O1 1_555 1_555
H19 C25 1_555 1_555
H20 C25 1_555 1_555
C26 C25 1_555 1_555
H21 C26 1_555 1_555
H22 C26 1_555 1_555
C27 O2 1_555 1_555
C28 O4 1_555 1_555
H23 C28 1_555 1_555
H24 C28 1_555 1_555
C29 C28 1_555 1_555
H25 C29 1_555 1_555
H26 C29 1_555 1_555
C30 O5 1_555 1_555
C31 C27 1_555 1_555
C32 C31 1_555 1_555
H27 C32 1_555 1_555
C33 C32 1_555 1_555
H28 C33 1_555 1_555
C34 C30 1_555 1_555
C35 C34 1_555 1_555
H29 C35 1_555 1_555
C36 C31 1_555 1_555
H30 C36 1_555 1_555
C9 C14 1_555 1_555
C10 C13 1_555 1_555
C11 C12 1_555 1_555
C13 C14 1_555 1_555
C16 C17 1_555 1_555
C21 C22 1_555 1_555
C33 C34 1_555 1_555
C35 C36 1_555 1_555

#END
