
#######################################################################
#
#                 Cambridge Crystallographic Data Centre
#                                CCDC 
#
#######################################################################
#
# If this CIF has been generated from an entry in the Cambridge 
# Structural Database, then it will include bibliographic, chemical, 
# crystal, experimental, refinement or atomic coordinate data resulting 
# from the CCDC's data processing and validation procedures.
#
#######################################################################

data_QOSYON
_chemical_formula_moiety         'C25 H19 N3 O2'
_chemical_name_systematic        
'Methyl (4-(2-(1-benzyl-4(1H)-pyridinylidene)-1-cyanoethylidene)-2,5-cyclohexadien-1-ylidene)(cyano)acetate'
_symmetry_cell_setting           triclinic
_symmetry_space_group_name_H-M   'P -1'
_symmetry_Int_Tables_number      2
_space_group_name_Hall           '-P 1'
loop_
_symmetry_equiv_pos_site_id
_symmetry_equiv_pos_as_xyz
1 x,y,z
2 -x,-y,-z
_cell_length_a                   6.9438(9)
_cell_length_b                   8.2773(10)
_cell_length_c                   19.208(2)
_cell_angle_alpha                79.690(2)
_cell_angle_beta                 80.961(2)
_cell_angle_gamma                68.408(2)
_cell_volume                     1004.92
_exptl_crystal_colour            blue
_exptl_crystal_description       platelet
_cell_formula_units_Z            2
loop_
_atom_site_label
_atom_site_type_symbol
_atom_site_fract_x
_atom_site_fract_y
_atom_site_fract_z
C1 C 0.7253(4) 0.3147(4) 0.13225(13)
H1 H 0.7776 0.2064 0.1114
H2 H 0.7023 0.4134 0.0947
H3 H 0.5951 0.3234 0.1612
O1 O 0.8742(2) 0.3164(2) 0.17563(8)
C2 C 0.9256(4) 0.1812(3) 0.22958(12)
O2 O 0.8396(3) 0.0721(2) 0.23962(10)
C3 C 1.0802(3) 0.1866(3) 0.26839(12)
C4 C 1.1652(3) 0.3197(3) 0.24384(12)
N1 N 1.2322(3) 0.4311(3) 0.22530(12)
C5 C 1.1538(3) 0.0644(3) 0.33119(11)
C6 C 1.3406(3) 0.0467(3) 0.35699(12)
H4 H 1.4205 0.1128 0.3321
C7 C 1.4096(3) -0.0643(3) 0.41741(12)
H5 H 1.5364 -0.0735 0.4323
C8 C 1.2953(3) -0.1640(3) 0.45736(11)
C9 C 1.1106(3) -0.1498(3) 0.43169(12)
H6 H 1.0313 -0.2164 0.4567
C10 C 1.0429(3) -0.0408(3) 0.37093(12)
H7 H 0.9191 -0.0357 0.3552
C11 C 1.3665(3) -0.2804(3) 0.52280(11)
C12 C 1.5840(3) -0.3257(3) 0.53230(11)
N2 N 1.7568(3) -0.3612(3) 0.53772(10)
C13 C 1.2450(3) -0.3513(3) 0.57085(11)
H8 H 1.1047 -0.3129 0.5620
C14 C 1.2995(3) -0.4780(3) 0.63411(11)
C15 C 1.4624(3) -0.5038(3) 0.67421(12)
H9 H 1.5443 -0.4324 0.6619
C16 C 1.5030(4) -0.6320(3) 0.73098(12)
H10 H 1.6118 -0.6466 0.7578
N3 N 1.3907(3) -0.7381(2) 0.74947(9)
C17 C 1.2291(4) -0.7139(3) 0.71374(12)
H11 H 1.1486 -0.7861 0.7278
C18 C 1.1802(3) -0.5852(3) 0.65697(12)
H12 H 1.0649 -0.5687 0.6330
C19 C 1.4507(4) -0.8846(3) 0.80889(12)
H13 H 1.5994 -0.9523 0.8005
H14 H 1.3738 -0.9629 0.8089
C20 C 1.408(2) -0.823(2) 0.8807(4)
C21 C 1.580(2) -0.8270(19) 0.9103(7)
H15 H 1.7133 -0.8644 0.8851
C22 C 1.556(3) -0.7752(14) 0.9770(7)
H16 H 1.6723 -0.7775 0.9970
C23 C 1.360(4) -0.7198(11) 1.0142(3)
H17 H 1.3430 -0.6848 1.0594
C24 C 1.188(3) -0.7163(12) 0.9847(5)
H18 H 1.0547 -0.6789 1.0098
C25 C 1.212(2) -0.7682(16) 0.9179(6)
H19 H 1.0956 -0.7658 0.8979
C26? C 1.3818(18) -0.820(2) 0.8801(4)
C27? C 1.518(2) -0.8175(18) 0.9253(6)
C28? C 1.443(3) -0.7647(13) 0.9921(5)
C29? C 1.231(3) -0.7146(12) 1.0137(3)
C30? C 1.094(2) -0.7173(14) 0.9685(7)
C31? C 1.1698(18) -0.770(2) 0.9018(6)
H20? H 1.6617 -0.8514 0.9106
H21? H 1.5352 -0.7629 1.0226
H22? H 1.1798 -0.6789 1.0589
H23? H 0.9509 -0.6835 0.9832
H24? H 1.0775 -0.7720 0.8712
loop_
_geom_bond_atom_site_label_1
_geom_bond_atom_site_label_2
_geom_bond_site_symmetry_1
_geom_bond_site_symmetry_2
C1 H1 1_555 1_555
H2 C1 1_555 1_555
H3 C1 1_555 1_555
O1 C1 1_555 1_555
C2 O1 1_555 1_555
O2 C2 1_555 1_555
C3 C2 1_555 1_555
C4 C3 1_555 1_555
N1 C4 1_555 1_555
C5 C3 1_555 1_555
C6 C5 1_555 1_555
H4 C6 1_555 1_555
C7 C6 1_555 1_555
H5 C7 1_555 1_555
C8 C7 1_555 1_555
C9 C8 1_555 1_555
H6 C9 1_555 1_555
C10 C5 1_555 1_555
H7 C10 1_555 1_555
C11 C8 1_555 1_555
C12 C11 1_555 1_555
N2 C12 1_555 1_555
C13 C11 1_555 1_555
H8 C13 1_555 1_555
C14 C13 1_555 1_555
C15 C14 1_555 1_555
H9 C15 1_555 1_555
C16 C15 1_555 1_555
H10 C16 1_555 1_555
N3 C16 1_555 1_555
C17 N3 1_555 1_555
H11 C17 1_555 1_555
C18 C14 1_555 1_555
H12 C18 1_555 1_555
C19 N3 1_555 1_555
H13 C19 1_555 1_555
H14 C19 1_555 1_555
C20 C19 1_555 1_555
C21 C20 1_555 1_555
H15 C21 1_555 1_555
C22 C21 1_555 1_555
H16 C22 1_555 1_555
C23 C22 1_555 1_555
H17 C23 1_555 1_555
C24 C23 1_555 1_555
H18 C24 1_555 1_555
C25 C20 1_555 1_555
H19 C25 1_555 1_555
C9 C10 1_555 1_555
C17 C18 1_555 1_555
C24 C25 1_555 1_555

#END
