
#######################################################################
#
#                 Cambridge Crystallographic Data Centre
#                                CCDC 
#
#######################################################################
#
# If this CIF has been generated from an entry in the Cambridge 
# Structural Database, then it will include bibliographic, chemical, 
# crystal, experimental, refinement or atomic coordinate data resulting 
# from the CCDC's data processing and validation procedures.
#
#######################################################################

data_QOTMET01
_chemical_formula_moiety         'C27 H36 N2 S1'
_chemical_name_systematic        
1,3-bis(2,6-diisopropylphenyl)-1,3-dihydro-2H-imidazole-2-thione
_symmetry_cell_setting           monoclinic
_symmetry_space_group_name_H-M   'P 21/n'
_symmetry_Int_Tables_number      14
_space_group_name_Hall           '-P 2yn'
loop_
_symmetry_equiv_pos_site_id
_symmetry_equiv_pos_as_xyz
1 x,y,z
2 1/2-x,1/2+y,1/2-z
3 -x,-y,-z
4 1/2+x,1/2-y,1/2+z
_cell_length_a                   19.532(5)
_cell_length_b                   6.9012(17)
_cell_length_c                   21.047(5)
_cell_angle_alpha                90
_cell_angle_beta                 107.011(4)
_cell_angle_gamma                90
_cell_volume                     2712.89
_exptl_crystal_description       block
_cell_formula_units_Z            4
loop_
_atom_site_label
_atom_site_type_symbol
_atom_site_fract_x
_atom_site_fract_y
_atom_site_fract_z
S1 S 0.05806(3) 0.23257(9) 0.25345(4)
N1 N 0.03677(8) 0.6234(3) 0.25255(9)
N2 N -0.05798(8) 0.4573(2) 0.25008(9)
C1 C 0.01256(10) 0.4383(3) 0.25199(11)
C2 C -0.01741(11) 0.7552(3) 0.25102(13)
H1 H -0.0139 0.8896 0.2510
C3 C -0.07582(11) 0.6511(4) 0.24950(13)
H2 H -0.1205 0.7006 0.2483
C4 C 0.10960(11) 0.6745(3) 0.25443(12)
C5 C 0.16049(12) 0.6948(3) 0.31580(13)
C6 C 0.22985(13) 0.7410(4) 0.31548(16)
H3 H 0.2654 0.7557 0.3557
C7 C 0.24691(14) 0.7650(4) 0.25756(19)
H4 H 0.2938 0.7940 0.2588
C8 C 0.19544(14) 0.7468(4) 0.19778(16)
H5 H 0.2077 0.7662 0.1588
C9 C 0.12459(12) 0.6994(3) 0.19412(13)
C10 C 0.14310(15) 0.6692(5) 0.38128(14)
H6 H 0.0919 0.6402 0.3706
C11 C 0.1834(2) 0.5005(6) 0.42118(19)
H7 H 0.1744 0.3854 0.3944
H8 H 0.1676 0.4811 0.4598
H9 H 0.2338 0.5280 0.4346
C12 C 0.1567(2) 0.8585(6) 0.42139(19)
H10 H 0.2071 0.8858 0.4354
H11 H 0.1398 0.8453 0.4597
H12 H 0.1317 0.9628 0.3941
C13 C 0.06861(15) 0.6758(5) 0.12729(15)
H13 H 0.0230 0.6450 0.1356
C14 C 0.0583(2) 0.8651(6) 0.08711(18)
H14 H 0.0456 0.9675 0.1124
H15 H 0.0208 0.8484 0.0462
H16 H 0.1021 0.8978 0.0776
C15 C 0.0869(2) 0.5085(6) 0.08815(18)
H17 H 0.1318 0.5342 0.0796
H18 H 0.0500 0.4947 0.0468
H19 H 0.0907 0.3911 0.1134
C16 C -0.10687(10) 0.3010(3) 0.25007(12)
C17 C -0.11140(11) 0.2345(4) 0.31119(13)
C18 C -0.16355(15) 0.0943(4) 0.30973(18)
H20 H -0.1685 0.0474 0.3496
C19 C -0.20721(15) 0.0248(4) 0.2515(2)
H21 H -0.2425 -0.0655 0.2518
C20 C -0.19940(13) 0.0871(5) 0.19273(19)
H22 H -0.2286 0.0349 0.1534
C21 C -0.14870(11) 0.2276(4) 0.18962(13)
C22 C -0.06275(15) 0.3109(5) 0.37672(14)
H23 H -0.0249 0.3866 0.3664
C23 C -0.0264(2) 0.1466(8) 0.4228(2)
H24 H -0.0621 0.0619 0.4305
H25 H 0.0020 0.1996 0.4643
H26 H 0.0039 0.0750 0.4026
C24 C -0.1027(2) 0.4471(7) 0.41026(19)
H27 H -0.1229 0.5517 0.3806
H28 H -0.0700 0.4982 0.4501
H29 H -0.1402 0.3774 0.4212
C25 C -0.13999(16) 0.2960(6) 0.12394(15)
H30 H -0.0965 0.3752 0.1338
C26 C -0.1294(3) 0.1217(9) 0.0819(2)
H31 H -0.0887 0.0476 0.1066
H32 H -0.1215 0.1674 0.0416
H33 H -0.1714 0.0414 0.0714
C27 C -0.2019(2) 0.4213(8) 0.0856(2)
H34 H -0.2459 0.3515 0.0790
H35 H -0.1958 0.4544 0.0433
H36 H -0.2032 0.5376 0.1103
loop_
_geom_bond_atom_site_label_1
_geom_bond_atom_site_label_2
_geom_bond_site_symmetry_1
_geom_bond_site_symmetry_2
S1 C1 1_555 1_555
N1 C1 1_555 1_555
N2 C1 1_555 1_555
C2 N1 1_555 1_555
H1 C2 1_555 1_555
C3 N2 1_555 1_555
H2 C3 1_555 1_555
C4 N1 1_555 1_555
C5 C4 1_555 1_555
C6 C5 1_555 1_555
H3 C6 1_555 1_555
C7 C6 1_555 1_555
H4 C7 1_555 1_555
C8 C7 1_555 1_555
H5 C8 1_555 1_555
C9 C4 1_555 1_555
C10 C5 1_555 1_555
H6 C10 1_555 1_555
C11 C10 1_555 1_555
H7 C11 1_555 1_555
H8 C11 1_555 1_555
H9 C11 1_555 1_555
C12 C10 1_555 1_555
H10 C12 1_555 1_555
H11 C12 1_555 1_555
H12 C12 1_555 1_555
C13 C9 1_555 1_555
H13 C13 1_555 1_555
C14 C13 1_555 1_555
H14 C14 1_555 1_555
H15 C14 1_555 1_555
H16 C14 1_555 1_555
C15 C13 1_555 1_555
H17 C15 1_555 1_555
H18 C15 1_555 1_555
H19 C15 1_555 1_555
C16 N2 1_555 1_555
C17 C16 1_555 1_555
C18 C17 1_555 1_555
H20 C18 1_555 1_555
C19 C18 1_555 1_555
H21 C19 1_555 1_555
C20 C19 1_555 1_555
H22 C20 1_555 1_555
C21 C16 1_555 1_555
C22 C17 1_555 1_555
H23 C22 1_555 1_555
C23 C22 1_555 1_555
H24 C23 1_555 1_555
H25 C23 1_555 1_555
H26 C23 1_555 1_555
C24 C22 1_555 1_555
H27 C24 1_555 1_555
H28 C24 1_555 1_555
H29 C24 1_555 1_555
C25 C21 1_555 1_555
H30 C25 1_555 1_555
C26 C25 1_555 1_555
H31 C26 1_555 1_555
H32 C26 1_555 1_555
H33 C26 1_555 1_555
C27 C25 1_555 1_555
H34 C27 1_555 1_555
H35 C27 1_555 1_555
H36 C27 1_555 1_555
C2 C3 1_555 1_555
C8 C9 1_555 1_555
C20 C21 1_555 1_555

#END
