
#######################################################################
#
#                 Cambridge Crystallographic Data Centre
#                                CCDC 
#
#######################################################################
#
# If this CIF has been generated from an entry in the Cambridge 
# Structural Database, then it will include bibliographic, chemical, 
# crystal, experimental, refinement or atomic coordinate data resulting 
# from the CCDC's data processing and validation procedures.
#
#######################################################################

data_QOTQAS
_chemical_formula_moiety         'C15 H13 N3 O1 S2'
_chemical_name_systematic        
2-(Benzo[d]thiazol-2-ylsulfanyl)-N-(6-methyl-2-pyridyl)acetamide
_symmetry_cell_setting           triclinic
_symmetry_space_group_name_H-M   'P -1'
_symmetry_Int_Tables_number      2
_space_group_name_Hall           '-P 1'
loop_
_symmetry_equiv_pos_site_id
_symmetry_equiv_pos_as_xyz
1 x,y,z
2 -x,-y,-z
_cell_length_a                   8.1919(16)
_cell_length_b                   9.0818(18)
_cell_length_c                   11.107(2)
_cell_angle_alpha                74.78(3)
_cell_angle_beta                 89.55(3)
_cell_angle_gamma                69.34(3)
_cell_volume                     742.773
_exptl_crystal_colour            colorless
_exptl_crystal_description       prism
_cell_formula_units_Z            2
_exptl_crystal_recrystallization_method chloroform/acetone
loop_
_atom_site_label
_atom_site_type_symbol
_atom_site_fract_x
_atom_site_fract_y
_atom_site_fract_z
S1 S 0.08893(5) 1.05001(5) 0.25028(4)
S2 S 0.20597(5) 1.15671(5) 0.45732(4)
N1 N 0.74042(17) 0.74849(16) 0.19582(13)
N2 N 0.45173(18) 0.88209(17) 0.12486(14)
N3 N 0.37052(17) 1.13818(15) 0.25715(13)
O1 O 0.24938(15) 0.82797(14) 0.02096(13)
C1 C 0.6056(2) 0.74785(18) 0.12785(15)
C2 C 0.6186(2) 0.62959(19) 0.06672(16)
H1 H 0.5203 0.6332 0.0196
C3 C 0.7803(2) 0.50655(19) 0.07723(16)
H2 H 0.7949 0.4229 0.0371
C4 C 0.9210(2) 0.50511(19) 0.14621(16)
H3 H 1.0329 0.4214 0.1533
C5 C 0.8961(2) 0.62787(19) 0.20491(16)
C6 C 1.0426(2) 0.6313(2) 0.28327(18)
H4 H 1.0281 0.7452 0.2761
H5 H 1.1550 0.5765 0.2538
H6 H 1.0403 0.5745 0.3711
C7 C 0.2879(2) 0.9140(2) 0.07486(16)
C8 C 0.1511(2) 1.06990(19) 0.09143(16)
H7 H 0.0453 1.1009 0.0339
H8 H 0.1975 1.1594 0.0676
C9 C 0.2379(2) 1.11504(18) 0.31235(16)
C10 C 0.4590(2) 1.19559(18) 0.32980(15)
C11 C 0.3900(2) 1.21228(18) 0.44347(16)
C12 C 0.4660(2) 1.26537(19) 0.52672(16)
H9 H 0.4194 1.2750 0.6041
C13 C 0.6122(2) 1.3037(2) 0.49261(17)
H10 H 0.6667 1.3405 0.5476
C14 C 0.6811(2) 1.2894(2) 0.37940(17)
H11 H 0.7806 1.3181 0.3583
C15 C 0.6076(2) 1.23436(19) 0.29716(16)
H12 H 0.6563 1.2231 0.2207
H13 H 0.463(2) 0.951(2) 0.1624(17)
loop_
_geom_bond_atom_site_label_1
_geom_bond_atom_site_label_2
_geom_bond_site_symmetry_1
_geom_bond_site_symmetry_2
S1 C8 1_555 1_555
S2 C9 1_555 1_555
N1 C1 1_555 1_555
N2 C1 1_555 1_555
N3 C9 1_555 1_555
O1 C7 1_555 1_555
C1 C2 1_555 1_555
C2 H1 1_555 1_555
C3 C2 1_555 1_555
H2 C3 1_555 1_555
C4 C3 1_555 1_555
H3 C4 1_555 1_555
C5 N1 1_555 1_555
C6 C5 1_555 1_555
H4 C6 1_555 1_555
H5 C6 1_555 1_555
H6 C6 1_555 1_555
C7 N2 1_555 1_555
C8 C7 1_555 1_555
H7 C8 1_555 1_555
H8 C8 1_555 1_555
C9 S1 1_555 1_555
C10 N3 1_555 1_555
C11 S2 1_555 1_555
C12 C11 1_555 1_555
H9 C12 1_555 1_555
C13 C12 1_555 1_555
H10 C13 1_555 1_555
C14 C13 1_555 1_555
H11 C14 1_555 1_555
C15 C10 1_555 1_555
H12 C15 1_555 1_555
H13 N2 1_555 1_555
C4 C5 1_555 1_555
C10 C11 1_555 1_555
C14 C15 1_555 1_555

#END
