
#######################################################################
#
#                 Cambridge Crystallographic Data Centre
#                                CCDC 
#
#######################################################################
#
# If this CIF has been generated from an entry in the Cambridge 
# Structural Database, then it will include bibliographic, chemical, 
# crystal, experimental, refinement or atomic coordinate data resulting 
# from the CCDC's data processing and validation procedures.
#
#######################################################################

data_QOTYIJ
_chemical_formula_moiety         'C18 H28 N2'
_chemical_name_systematic        
1-(2,6-diisopropylphenyl)-4-isopropyl-4,5-dihydro-1H-imidazole
_symmetry_cell_setting           orthorhombic
_symmetry_space_group_name_H-M   'P 21 21 21'
_symmetry_Int_Tables_number      19
_space_group_name_Hall           'P 2ac 2ab'
loop_
_symmetry_equiv_pos_site_id
_symmetry_equiv_pos_as_xyz
1 x,y,z
2 1/2-x,-y,1/2+z
3 1/2+x,1/2-y,-z
4 -x,1/2+y,1/2-z
_cell_length_a                   5.74988(7)
_cell_length_b                   15.0910(2)
_cell_length_c                   19.2474(2)
_cell_angle_alpha                90
_cell_angle_beta                 90
_cell_angle_gamma                90
_cell_volume                     1670.12
_exptl_crystal_colour            colorless
_exptl_crystal_description       block
_cell_formula_units_Z            4
loop_
_atom_site_label
_atom_site_type_symbol
_atom_site_fract_x
_atom_site_fract_y
_atom_site_fract_z
N1 N 0.4321(2) 0.49975(8) 0.28834(7)
C1 C 0.6596(3) 0.48367(10) 0.27129(8)
H1 H 0.7496 0.5265 0.2470
N2 N 0.7467(2) 0.40917(9) 0.28912(7)
C2 C 0.5590(3) 0.36016(10) 0.32543(8)
H2 H 0.5347 0.3022 0.3014
C3 C 0.3362(3) 0.41714(10) 0.31677(8)
H3 H 0.2251 0.3893 0.2841
H4 H 0.2581 0.4273 0.3619
C4 C 0.2867(3) 0.56535(9) 0.25675(8)
C5 C 0.2123(3) 0.55496(9) 0.18778(8)
C6 C 0.0673(3) 0.61986(10) 0.15932(8)
H5 H 0.0165 0.6143 0.1126
C7 C -0.0033(3) 0.69225(10) 0.19848(9)
H6 H -0.1032 0.7355 0.1786
C8 C 0.0713(3) 0.70159(10) 0.26618(9)
H7 H 0.0222 0.7515 0.2925
C9 C 0.2176(3) 0.63896(10) 0.29660(8)
C10 C 0.2876(3) 0.47637(10) 0.14369(8)
H8 H 0.3778 0.4350 0.1740
C11 C 0.4477(3) 0.50694(12) 0.08479(9)
H9 H 0.3618 0.5466 0.0537
H10 H 0.5022 0.4553 0.0586
H11 H 0.5814 0.5385 0.1044
C12 C 0.0778(3) 0.42580(11) 0.11492(9)
H12 H -0.0256 0.4091 0.1532
H13 H 0.1313 0.3723 0.0910
H14 H -0.0068 0.4636 0.0821
C13 C 0.3052(3) 0.65263(11) 0.37030(9)
H15 H 0.4016 0.6001 0.3835
C14 C 0.4603(4) 0.73567(16) 0.37407(11)
H16 H 0.5854 0.7309 0.3397
H17 H 0.5278 0.7405 0.4207
H18 H 0.3666 0.7884 0.3642
C15 C 0.1058(4) 0.66053(15) 0.42225(9)
H19 H 0.0133 0.7133 0.4115
H20 H 0.1692 0.6656 0.4694
H21 H 0.0070 0.6078 0.4192
C16 C 0.6268(3) 0.34202(10) 0.40134(8)
H22 H 0.7793 0.3102 0.4007
C17 C 0.4505(3) 0.28079(12) 0.43631(9)
H23 H 0.2970 0.3090 0.4361
H24 H 0.4986 0.2696 0.4844
H25 H 0.4430 0.2246 0.4109
C18 C 0.6611(4) 0.42690(12) 0.44296(9)
H26 H 0.7714 0.4655 0.4187
H27 H 0.7224 0.4123 0.4891
H28 H 0.5117 0.4575 0.4479
loop_
_geom_bond_atom_site_label_1
_geom_bond_atom_site_label_2
_geom_bond_site_symmetry_1
_geom_bond_site_symmetry_2
N1 C1 1_555 1_555
C1 H1 1_555 1_555
N2 C1 1_555 1_555
C2 N2 1_555 1_555
H2 C2 1_555 1_555
C3 N1 1_555 1_555
H3 C3 1_555 1_555
H4 C3 1_555 1_555
C4 N1 1_555 1_555
C5 C4 1_555 1_555
C6 C5 1_555 1_555
H5 C6 1_555 1_555
C7 C6 1_555 1_555
H6 C7 1_555 1_555
C8 C7 1_555 1_555
H7 C8 1_555 1_555
C9 C4 1_555 1_555
C10 C5 1_555 1_555
H8 C10 1_555 1_555
C11 C10 1_555 1_555
H9 C11 1_555 1_555
H10 C11 1_555 1_555
H11 C11 1_555 1_555
C12 C10 1_555 1_555
H12 C12 1_555 1_555
H13 C12 1_555 1_555
H14 C12 1_555 1_555
C13 C9 1_555 1_555
H15 C13 1_555 1_555
C14 C13 1_555 1_555
H16 C14 1_555 1_555
H17 C14 1_555 1_555
H18 C14 1_555 1_555
C15 C13 1_555 1_555
H19 C15 1_555 1_555
H20 C15 1_555 1_555
H21 C15 1_555 1_555
C16 C2 1_555 1_555
H22 C16 1_555 1_555
C17 C16 1_555 1_555
H23 C17 1_555 1_555
H24 C17 1_555 1_555
H25 C17 1_555 1_555
C18 C16 1_555 1_555
H26 C18 1_555 1_555
H27 C18 1_555 1_555
H28 C18 1_555 1_555
C2 C3 1_555 1_555
C8 C9 1_555 1_555

#END
