
#######################################################################
#
#                 Cambridge Crystallographic Data Centre
#                                CCDC 
#
#######################################################################
#
# If this CIF has been generated from an entry in the Cambridge 
# Structural Database, then it will include bibliographic, chemical, 
# crystal, experimental, refinement or atomic coordinate data resulting 
# from the CCDC's data processing and validation procedures.
#
#######################################################################

data_QOTYEF
_chemical_formula_moiety         
'C18 H29 N2 1+,0.25(H2 O1),Cl1 1-,0.25(C1 H2 Cl2)'
_chemical_name_systematic        
'1-(2,6-diisopropylphenyl)-4-isopropyl-4,5-dihydro-1H-imidazol-3-ium chloride dichloromethane solvate hydrate'
_symmetry_cell_setting           monoclinic
_symmetry_space_group_name_H-M   'P 21'
_symmetry_Int_Tables_number      4
_space_group_name_Hall           'P 2yb'
loop_
_symmetry_equiv_pos_site_id
_symmetry_equiv_pos_as_xyz
1 x,y,z
2 -x,1/2+y,-z
_cell_length_a                   10.9370(3)
_cell_length_b                   28.1640(7)
_cell_length_c                   13.5374(4)
_cell_angle_alpha                90
_cell_angle_beta                 109.866(4)
_cell_angle_gamma                90
_cell_volume                     3921.77
_exptl_crystal_colour            colorless
_exptl_crystal_description       block
_cell_formula_units_Z            8
loop_
_atom_site_label
_atom_site_type_symbol
_atom_site_fract_x
_atom_site_fract_y
_atom_site_fract_z
Cl1 Cl 0.46225(6) 0.53949(2) 0.15272(5)
Cl2 Cl 0.86197(6) 0.62549(2) 0.32058(5)
Cl3 Cl 0.22200(6) 0.78787(2) 0.92303(4)
Cl4 Cl -0.01826(5) 0.87709(2) 0.61934(4)
C1 C -0.1076(3) 0.82393(12) 0.8253(2)
H1 H -0.0889 0.8384 0.7654
H2 H -0.0240 0.8140 0.8780
Cl5 Cl -0.18301(7) 0.86658(3) 0.88210(6)
Cl6 Cl -0.20827(8) 0.77352(3) 0.78117(7)
O1 O 0.7118(3) 0.57443(13) 0.0954(3)
H3 H 0.659(5) 0.563(2) 0.122(5)
H4 H 0.757(5) 0.5928(19) 0.140(4)
N1 N 0.52141(19) 0.71553(7) 0.21435(16)
N2 N 0.4496(2) 0.64863(7) 0.13364(17)
H5 H 0.4526 0.6192 0.1129
C2 C 0.5481(2) 0.67143(9) 0.19696(19)
H6 H 0.6317 0.6576 0.2279
C3 C 0.3313(2) 0.67852(8) 0.10073(19)
H7 H 0.3019 0.6832 0.0229
C4 C 0.3832(2) 0.72638(8) 0.15602(19)
H8 H 0.3747 0.7521 0.1042
H9 H 0.3368 0.7357 0.2043
C5 C 0.6132(2) 0.75188(8) 0.26631(19)
C6 C 0.6776(2) 0.77594(9) 0.2082(2)
C7 C 0.7618(3) 0.81270(9) 0.2597(2)
H10 H 0.8076 0.8299 0.2229
C8 C 0.7795(2) 0.82443(9) 0.3630(2)
H11 H 0.8363 0.8497 0.3959
C9 C 0.7146(2) 0.79950(9) 0.4187(2)
H12 H 0.7286 0.8075 0.4899
C10 C 0.6291(2) 0.76278(8) 0.37112(19)
C11 C 0.6600(3) 0.76188(9) 0.0958(2)
H13 H 0.5830 0.7403 0.0709
C12 C 0.7783(3) 0.73413(11) 0.0914(2)
H14 H 0.8555 0.7545 0.1154
H15 H 0.7635 0.7239 0.0191
H16 H 0.7917 0.7062 0.1371
C13 C 0.6318(3) 0.80466(11) 0.0227(2)
H17 H 0.5524 0.8204 0.0237
H18 H 0.6202 0.7941 -0.0490
H19 H 0.7048 0.8270 0.0462
C14 C 0.5610(2) 0.73404(9) 0.4320(2)
H20 H 0.4887 0.7160 0.3801
C15 C 0.5023(3) 0.76466(12) 0.4973(3)
H21 H 0.5719 0.7814 0.5514
H22 H 0.4547 0.7444 0.5307
H23 H 0.4425 0.7878 0.4516
C16 C 0.6560(4) 0.69799(13) 0.5021(3)
H24 H 0.6899 0.6776 0.4587
H25 H 0.6108 0.6785 0.5388
H26 H 0.7282 0.7148 0.5536
C17 C 0.2213(3) 0.65543(9) 0.1300(2)
H27 H 0.1959 0.6258 0.0874
C18 C 0.2637(3) 0.64083(10) 0.2450(2)
H28 H 0.3307 0.6162 0.2588
H29 H 0.1887 0.6284 0.2609
H30 H 0.2989 0.6685 0.2895
C19 C 0.1025(3) 0.68785(10) 0.0977(2)
H31 H 0.1229 0.7171 0.1392
H32 H 0.0298 0.6716 0.1102
H33 H 0.0784 0.6956 0.0230
N3 N 0.22950(19) 0.93295(7) 0.99843(15)
N4 N 0.0972(2) 0.93045(7) 0.83572(16)
H34 H 0.0565 0.9184 0.7732
C20 C 0.1789(2) 0.90687(8) 0.91324(18)
H35 H 0.1997 0.8744 0.9088
C21 C 0.0814(2) 0.98001(9) 0.86572(19)
H36 H 0.1144 1.0025 0.8233
C22 C 0.1722(3) 0.98088(9) 0.9818(2)
H37 H 0.2402 1.0055 0.9934
H38 H 0.1224 0.9870 1.0295
C23 C 0.3101(2) 0.91509(8) 1.09928(18)
C24 C 0.4437(2) 0.92558(8) 1.13403(19)
C25 C 0.5193(2) 0.90737(9) 1.2310(2)
H39 H 0.6102 0.9134 1.2565
C26 C 0.4648(3) 0.88057(9) 1.2913(2)
H40 H 0.5186 0.8680 1.3567
C27 C 0.3323(3) 0.87209(9) 1.2564(2)
H41 H 0.2957 0.8544 1.2992
C28 C 0.2517(2) 0.88913(8) 1.15938(19)
C29 C 0.5015(2) 0.95771(9) 1.0717(2)
H42 H 0.4393 0.9588 0.9979
C30 C 0.6326(3) 0.94066(11) 1.0680(2)
H43 H 0.6969 0.9408 1.1391
H44 H 0.6615 0.9619 1.0229
H45 H 0.6235 0.9083 1.0395
C31 C 0.5157(3) 1.00856(9) 1.1158(2)
H46 H 0.4329 1.0188 1.1220
H47 H 0.5395 1.0300 1.0684
H48 H 0.5836 1.0092 1.1853
C32 C 0.1063(2) 0.88001(10) 1.1244(2)
H49 H 0.0667 0.8916 1.0505
C33 C 0.0452(3) 0.90808(12) 1.1932(3)
H50 H 0.0807 0.8967 1.2658
H51 H -0.0493 0.9036 1.1668
H52 H 0.0651 0.9419 1.1909
C34 C 0.0756(3) 0.82699(10) 1.1260(2)
H53 H 0.1170 0.8095 1.0832
H54 H -0.0187 0.8222 1.0975
H55 H 0.1090 0.8153 1.1985
C35 C -0.0602(3) 0.99159(11) 0.8516(2)
H56 H -0.0909 0.9689 0.8949
C36 C -0.1474(4) 0.98705(15) 0.7383(3)
H57 H -0.1244 1.0115 0.6961
H58 H -0.2382 0.9911 0.7334
H59 H -0.1361 0.9556 0.7118
C37 C -0.0680(4) 1.04185(13) 0.8910(3)
H60 H -0.0064 1.0452 0.9627
H61 H -0.1564 1.0479 0.8906
H62 H -0.0463 1.0647 0.8450
N5 N 0.08212(19) 0.69658(7) 0.66960(15)
N6 N 0.0276(2) 0.76745(7) 0.60408(16)
H63 H 0.0049 0.7975 0.6028
C38 C 0.0687(2) 0.74177(8) 0.68901(19)
H64 H 0.0870 0.7543 0.7577
C39 C 0.0236(2) 0.73996(8) 0.51013(18)
H65 H -0.0633 0.7433 0.4539
C40 C 0.0419(2) 0.68858(8) 0.55503(18)
H66 H -0.0403 0.6704 0.5291
H67 H 0.1099 0.6714 0.5363
C41 C 0.1309(2) 0.65971(8) 0.74691(19)
C42 C 0.0422(2) 0.63322(9) 0.77817(19)
C43 C 0.0925(3) 0.59655(9) 0.8510(2)
H68 H 0.0349 0.5775 0.8732
C44 C 0.2244(3) 0.58777(9) 0.8909(2)
H69 H 0.2568 0.5631 0.9408
C45 C 0.3096(2) 0.61481(9) 0.8587(2)
H70 H 0.4002 0.6085 0.8869
C46 C 0.2649(2) 0.65117(8) 0.78542(19)
C47 C -0.1036(2) 0.64209(9) 0.7359(2)
H71 H -0.1190 0.6730 0.6973
C48 C -0.1623(3) 0.64562(12) 0.8234(3)
H72 H -0.1544 0.6149 0.8590
H73 H -0.2543 0.6544 0.7931
H74 H -0.1157 0.6699 0.8741
C49 C -0.1717(3) 0.60306(10) 0.6578(3)
H75 H -0.1369 0.6025 0.5999
H76 H -0.2653 0.6094 0.6299
H77 H -0.1563 0.5722 0.6935
C50 C 0.3614(2) 0.67945(9) 0.7501(2)
H78 H 0.3122 0.7049 0.7011
C51 C 0.4252(3) 0.64740(11) 0.6896(3)
H79 H 0.4782 0.6232 0.7371
H80 H 0.4804 0.6667 0.6614
H81 H 0.3575 0.6319 0.6316
C52 C 0.4637(3) 0.70349(10) 0.8431(2)
H82 H 0.4206 0.7249 0.8781
H83 H 0.5236 0.7217 0.8180
H84 H 0.5123 0.6793 0.8930
C53 C 0.1321(2) 0.75520(9) 0.46853(19)
H85 H 0.2176 0.7471 0.5229
C54 C 0.1301(3) 0.80867(9) 0.4475(2)
H86 H 0.0508 0.8168 0.3893
H87 H 0.2063 0.8174 0.4290
H88 H 0.1317 0.8260 0.5106
C55 C 0.1205(3) 0.72758(11) 0.3691(2)
H89 H 0.1237 0.6935 0.3839
H90 H 0.1925 0.7362 0.3450
H91 H 0.0377 0.7353 0.3143
N7 N 0.71254(18) 0.46610(7) 0.41439(15)
N8 N 0.83966(19) 0.52400(7) 0.39908(16)
H92 H 0.8608 0.5518 0.3798
C56 C 0.7216(2) 0.50724(8) 0.37100(18)
H93 H 0.6487 0.5232 0.3236
C57 C 0.9332(2) 0.48979(8) 0.46790(19)
H94 H 0.9810 0.4735 0.4264
C58 C 0.8407(2) 0.45385(8) 0.49243(18)
H95 H 0.8654 0.4208 0.4830
H96 H 0.8405 0.4579 0.5650
C59 C 0.5934(2) 0.44514(8) 0.41760(18)
C60 C 0.5522(2) 0.40212(8) 0.36458(18)
C61 C 0.4377(2) 0.38217(9) 0.36987(19)
H97 H 0.4073 0.3530 0.3351
C62 C 0.3675(2) 0.40435(9) 0.4251(2)
H98 H 0.2895 0.3904 0.4275
C63 C 0.4111(2) 0.44683(9) 0.4770(2)
H99 H 0.3621 0.4618 0.5142
C64 C 0.5257(2) 0.46801(9) 0.47528(19)
C65 C 0.6209(2) 0.38009(9) 0.29516(18)
H100 H 0.7148 0.3891 0.3240
C66 C 0.5627(3) 0.40121(10) 0.1846(2)
H101 H 0.4691 0.3949 0.1570
H102 H 0.6044 0.3867 0.1383
H103 H 0.5776 0.4356 0.1877
C67 C 0.6119(3) 0.32578(9) 0.2893(2)
H104 H 0.6406 0.3126 0.3605
H105 H 0.6676 0.3137 0.2515
H106 H 0.5216 0.3163 0.2521
C68 C 0.5686(2) 0.51536(9) 0.5313(2)
H107 H 0.6594 0.5218 0.5336
C69 C 0.5692(3) 0.51358(11) 0.6445(2)
H108 H 0.4801 0.5095 0.6442
H109 H 0.6052 0.5433 0.6805
H110 H 0.6228 0.4868 0.6814
C70 C 0.4811(3) 0.55580(10) 0.4695(3)
H111 H 0.4855 0.5571 0.3985
H112 H 0.5110 0.5861 0.5053
H113 H 0.3912 0.5500 0.4654
C71 C 1.0315(2) 0.51192(9) 0.5657(2)
H114 H 0.9833 0.5261 0.6094
C72 C 1.1114(3) 0.55103(10) 0.5378(2)
H115 H 1.1646 0.5371 0.4997
H116 H 1.1682 0.5661 0.6023
H117 H 1.0527 0.5748 0.4934
C73 C 1.1208(3) 0.47302(11) 0.6293(2)
H118 H 1.0690 0.4491 0.6501
H119 H 1.1845 0.4869 0.6922
H120 H 1.1663 0.4580 0.5864
loop_
_geom_bond_atom_site_label_1
_geom_bond_atom_site_label_2
_geom_bond_site_symmetry_1
_geom_bond_site_symmetry_2
C1 H1 1_555 1_555
H2 C1 1_555 1_555
Cl5 C1 1_555 1_555
Cl6 C1 1_555 1_555
O1 H3 1_555 1_555
H4 O1 1_555 1_555
N1 C2 1_555 1_555
N2 H5 1_555 1_555
C2 N2 1_555 1_555
H6 C2 1_555 1_555
C3 N2 1_555 1_555
H7 C3 1_555 1_555
C4 N1 1_555 1_555
H8 C4 1_555 1_555
H9 C4 1_555 1_555
C5 N1 1_555 1_555
C6 C5 1_555 1_555
C7 C6 1_555 1_555
H10 C7 1_555 1_555
C8 C7 1_555 1_555
H11 C8 1_555 1_555
C9 C8 1_555 1_555
H12 C9 1_555 1_555
C10 C5 1_555 1_555
C11 C6 1_555 1_555
H13 C11 1_555 1_555
C12 C11 1_555 1_555
H14 C12 1_555 1_555
H15 C12 1_555 1_555
H16 C12 1_555 1_555
C13 C11 1_555 1_555
H17 C13 1_555 1_555
H18 C13 1_555 1_555
H19 C13 1_555 1_555
C14 C10 1_555 1_555
H20 C14 1_555 1_555
C15 C14 1_555 1_555
H21 C15 1_555 1_555
H22 C15 1_555 1_555
H23 C15 1_555 1_555
C16 C14 1_555 1_555
H24 C16 1_555 1_555
H25 C16 1_555 1_555
H26 C16 1_555 1_555
C17 C3 1_555 1_555
H27 C17 1_555 1_555
C18 C17 1_555 1_555
H28 C18 1_555 1_555
H29 C18 1_555 1_555
H30 C18 1_555 1_555
C19 C17 1_555 1_555
H31 C19 1_555 1_555
H32 C19 1_555 1_555
H33 C19 1_555 1_555
N3 C20 1_555 1_555
N4 H34 1_555 1_555
C20 N4 1_555 1_555
H35 C20 1_555 1_555
C21 N4 1_555 1_555
H36 C21 1_555 1_555
C22 N3 1_555 1_555
H37 C22 1_555 1_555
H38 C22 1_555 1_555
C23 N3 1_555 1_555
C24 C23 1_555 1_555
C25 C24 1_555 1_555
H39 C25 1_555 1_555
C26 C25 1_555 1_555
H40 C26 1_555 1_555
C27 C26 1_555 1_555
H41 C27 1_555 1_555
C28 C23 1_555 1_555
C29 C24 1_555 1_555
H42 C29 1_555 1_555
C30 C29 1_555 1_555
H43 C30 1_555 1_555
H44 C30 1_555 1_555
H45 C30 1_555 1_555
C31 C29 1_555 1_555
H46 C31 1_555 1_555
H47 C31 1_555 1_555
H48 C31 1_555 1_555
C32 C28 1_555 1_555
H49 C32 1_555 1_555
C33 C32 1_555 1_555
H50 C33 1_555 1_555
H51 C33 1_555 1_555
H52 C33 1_555 1_555
C34 C32 1_555 1_555
H53 C34 1_555 1_555
H54 C34 1_555 1_555
H55 C34 1_555 1_555
C35 C21 1_555 1_555
H56 C35 1_555 1_555
C36 C35 1_555 1_555
H57 C36 1_555 1_555
H58 C36 1_555 1_555
H59 C36 1_555 1_555
C37 C35 1_555 1_555
H60 C37 1_555 1_555
H61 C37 1_555 1_555
H62 C37 1_555 1_555
N5 C38 1_555 1_555
N6 H63 1_555 1_555
C38 N6 1_555 1_555
H64 C38 1_555 1_555
C39 N6 1_555 1_555
H65 C39 1_555 1_555
C40 N5 1_555 1_555
H66 C40 1_555 1_555
H67 C40 1_555 1_555
C41 N5 1_555 1_555
C42 C41 1_555 1_555
C43 C42 1_555 1_555
H68 C43 1_555 1_555
C44 C43 1_555 1_555
H69 C44 1_555 1_555
C45 C44 1_555 1_555
H70 C45 1_555 1_555
C46 C41 1_555 1_555
C47 C42 1_555 1_555
H71 C47 1_555 1_555
C48 C47 1_555 1_555
H72 C48 1_555 1_555
H73 C48 1_555 1_555
H74 C48 1_555 1_555
C49 C47 1_555 1_555
H75 C49 1_555 1_555
H76 C49 1_555 1_555
H77 C49 1_555 1_555
C50 C46 1_555 1_555
H78 C50 1_555 1_555
C51 C50 1_555 1_555
H79 C51 1_555 1_555
H80 C51 1_555 1_555
H81 C51 1_555 1_555
C52 C50 1_555 1_555
H82 C52 1_555 1_555
H83 C52 1_555 1_555
H84 C52 1_555 1_555
C53 C39 1_555 1_555
H85 C53 1_555 1_555
C54 C53 1_555 1_555
H86 C54 1_555 1_555
H87 C54 1_555 1_555
H88 C54 1_555 1_555
C55 C53 1_555 1_555
H89 C55 1_555 1_555
H90 C55 1_555 1_555
H91 C55 1_555 1_555
N7 C56 1_555 1_555
N8 H92 1_555 1_555
C56 N8 1_555 1_555
H93 C56 1_555 1_555
C57 N8 1_555 1_555
H94 C57 1_555 1_555
C58 N7 1_555 1_555
H95 C58 1_555 1_555
H96 C58 1_555 1_555
C59 N7 1_555 1_555
C60 C59 1_555 1_555
C61 C60 1_555 1_555
H97 C61 1_555 1_555
C62 C61 1_555 1_555
H98 C62 1_555 1_555
C63 C62 1_555 1_555
H99 C63 1_555 1_555
C64 C59 1_555 1_555
C65 C60 1_555 1_555
H100 C65 1_555 1_555
C66 C65 1_555 1_555
H101 C66 1_555 1_555
H102 C66 1_555 1_555
H103 C66 1_555 1_555
C67 C65 1_555 1_555
H104 C67 1_555 1_555
H105 C67 1_555 1_555
H106 C67 1_555 1_555
C68 C64 1_555 1_555
H107 C68 1_555 1_555
C69 C68 1_555 1_555
H108 C69 1_555 1_555
H109 C69 1_555 1_555
H110 C69 1_555 1_555
C70 C68 1_555 1_555
H111 C70 1_555 1_555
H112 C70 1_555 1_555
H113 C70 1_555 1_555
C71 C57 1_555 1_555
H114 C71 1_555 1_555
C72 C71 1_555 1_555
H115 C72 1_555 1_555
H116 C72 1_555 1_555
H117 C72 1_555 1_555
C73 C71 1_555 1_555
H118 C73 1_555 1_555
H119 C73 1_555 1_555
H120 C73 1_555 1_555
C3 C4 1_555 1_555
C9 C10 1_555 1_555
C21 C22 1_555 1_555
C27 C28 1_555 1_555
C39 C40 1_555 1_555
C45 C46 1_555 1_555
C57 C58 1_555 1_555
C63 C64 1_555 1_555

#END
