
#######################################################################
#
#                 Cambridge Crystallographic Data Centre
#                                CCDC 
#
#######################################################################
#
# If this CIF has been generated from an entry in the Cambridge 
# Structural Database, then it will include bibliographic, chemical, 
# crystal, experimental, refinement or atomic coordinate data resulting 
# from the CCDC's data processing and validation procedures.
#
#######################################################################

data_QOVDIQ
_chemical_name_common            6a,9a-Dihydroxycadinan-4-en-3-one
_chemical_formula_moiety         'C15 H22 O3'
_chemical_name_systematic        
4a,7-Dihydroxy-3,8-dimethyl-5-(prop-1-en-2-yl)-4a,5,6,7,8,8a-hexahydronaphthalen-2(1H)-one
_symmetry_cell_setting           orthorhombic
_symmetry_space_group_name_H-M   'P 21 21 21'
_symmetry_Int_Tables_number      19
_space_group_name_Hall           'P 2ac 2ab'
loop_
_symmetry_equiv_pos_site_id
_symmetry_equiv_pos_as_xyz
1 x,y,z
2 1/2+x,1/2-y,-z
3 -x,1/2+y,1/2-z
4 1/2-x,-y,1/2+z
_cell_length_a                   7.2841(3)
_cell_length_b                   7.6225(4)
_cell_length_c                   24.5648(11)
_cell_angle_alpha                90
_cell_angle_beta                 90
_cell_angle_gamma                90
_cell_volume                     1363.91
_exptl_crystal_colour            colorless
_exptl_crystal_description       block
_cell_formula_units_Z            4
loop_
_atom_site_label
_atom_site_type_symbol
_atom_site_fract_x
_atom_site_fract_y
_atom_site_fract_z
O1 O 0.89453(13) 0.65897(18) 0.04485(4)
H1 H 0.852(3) 0.682(3) 0.0157(8)
O2 O 0.26703(14) 0.73615(15) 0.05844(4)
H2 H 0.160(3) 0.718(3) 0.0595(7)
O3 O 0.3767(2) 0.9456(2) 0.26186(5)
C1 C 0.0498(3) 0.7597(3) 0.24240(7)
H3 H 0.0083 0.8763 0.2506
H4 H 0.0911 0.7038 0.2752
H5 H -0.0495 0.6934 0.2270
C2 C 0.2051(2) 0.7685(2) 0.20241(5)
C3 C 0.19819(19) 0.69623(18) 0.15300(5)
H6 H 0.0900 0.6388 0.1437
C4 C 0.34844(17) 0.69841(17) 0.11084(5)
C5 C 0.44700(18) 0.51823(17) 0.10941(5)
H7 H 0.5055 0.5039 0.1451
C6 C 0.60309(19) 0.5219(2) 0.06746(6)
H8 H 0.6636 0.4086 0.0666
H9 H 0.5529 0.5445 0.0316
C7 C 0.74133(18) 0.6629(2) 0.08166(5)
H10 H 0.7883 0.6371 0.1182
C8 C 0.3173(2) 0.36288(19) 0.10272(6)
C9 C 0.2615(3) 0.2755(2) 0.14692(7)
H11 H 0.1837 0.1794 0.1433
H12 H 0.3005 0.3107 0.1813
C10 C 0.2576(3) 0.3100(3) 0.04743(8)
H13 H 0.1727 0.2141 0.0501
H14 H 0.3625 0.2742 0.0266
H15 H 0.1989 0.4074 0.0298
C11 C 0.48532(19) 0.84760(19) 0.12222(5)
H16 H 0.4200 0.9574 0.1148
C12 C 0.65244(19) 0.8440(2) 0.08358(5)
H17 H 0.6060 0.8683 0.0469
C13 C 0.7915(3) 0.9879(2) 0.09689(7)
H18 H 0.8536 0.9596 0.1302
H19 H 0.7288 1.0979 0.1009
H20 H 0.8795 0.9966 0.0679
C14 C 0.5369(2) 0.8515(2) 0.18285(5)
H21 H 0.6058 0.7464 0.1916
H22 H 0.6159 0.9517 0.1896
C15 C 0.3733(2) 0.8627(2) 0.21951(6)
loop_
_geom_bond_atom_site_label_1
_geom_bond_atom_site_label_2
_geom_bond_site_symmetry_1
_geom_bond_site_symmetry_2
O1 H1 1_555 1_555
O2 H2 1_555 1_555
O3 C15 1_555 1_555
C1 H3 1_555 1_555
H4 C1 1_555 1_555
H5 C1 1_555 1_555
C2 C1 1_555 1_555
C3 C2 1_555 1_555
H6 C3 1_555 1_555
C4 O2 1_555 1_555
C5 C4 1_555 1_555
H7 C5 1_555 1_555
C6 C5 1_555 1_555
H8 C6 1_555 1_555
H9 C6 1_555 1_555
C7 O1 1_555 1_555
H10 C7 1_555 1_555
C8 C5 1_555 1_555
C9 C8 1_555 1_555
H11 C9 1_555 1_555
H12 C9 1_555 1_555
C10 C8 1_555 1_555
H13 C10 1_555 1_555
H14 C10 1_555 1_555
H15 C10 1_555 1_555
C11 C4 1_555 1_555
H16 C11 1_555 1_555
C12 C7 1_555 1_555
H17 C12 1_555 1_555
C13 C12 1_555 1_555
H18 C13 1_555 1_555
H19 C13 1_555 1_555
H20 C13 1_555 1_555
C14 C11 1_555 1_555
H21 C14 1_555 1_555
H22 C14 1_555 1_555
C15 C2 1_555 1_555
C3 C4 1_555 1_555
C6 C7 1_555 1_555
C11 C12 1_555 1_555
C14 C15 1_555 1_555

#END
