
#######################################################################
#
#                 Cambridge Crystallographic Data Centre
#                                CCDC 
#
#######################################################################
#
# If this CIF has been generated from an entry in the Cambridge 
# Structural Database, then it will include bibliographic, chemical, 
# crystal, experimental, refinement or atomic coordinate data resulting 
# from the CCDC's data processing and validation procedures.
#
#######################################################################

data_QOWVUV
_chemical_name_common            
'Carbon-bridged planar [28]hexaphyrin(1.1.1.1.1.1) dichloromethane hexane solvate'
_chemical_formula_moiety         'C74 H27 F30 N7,C6 H14,2(C1 H2 Cl2)'
_chemical_name_systematic        
'N-ethyl-N-((8,13,18,23,28,35-hexakis(pentafluorophenyl)-3,33,36,37,38,39-hexaazanonacyclo[24.7.1.1^4,32^.1^9,12^.1^14,17^.1^19,22^.1^24,27^.0^3,7^.0^29,33^]nonatriaconta-1(34),4,6,8,10,12,14(38),15,17,19,21,23,25,27(36),28,30,32(35)-heptadecaen-2-yl)methyl)ethanamine dichloromethane hexane solvate'
_symmetry_cell_setting           triclinic
_symmetry_space_group_name_H-M   'P -1'
_symmetry_Int_Tables_number      2
_space_group_name_Hall           '-P 1'
loop_
_symmetry_equiv_pos_site_id
_symmetry_equiv_pos_as_xyz
1 x,y,z
2 -x,-y,-z
_cell_length_a                   13.4102(10)
_cell_length_b                   17.9652(11)
_cell_length_c                   18.1977(14)
_cell_angle_alpha                116.078(3)
_cell_angle_beta                 103.025(4)
_cell_angle_gamma                91.596(3)
_cell_volume                     3795.93
_exptl_crystal_colour            green
_exptl_crystal_description       prism
_cell_formula_units_Z            2
loop_
_atom_site_label
_atom_site_type_symbol
_atom_site_fract_x
_atom_site_fract_y
_atom_site_fract_z
C1 C 0.7648(8) 0.3549(6) 0.2536(7)
C2 C 0.7710(7) 0.3922(6) 0.3402(8)
H1 H 0.7616 0.3624 0.3708
C3 C 0.7929(8) 0.4789(6) 0.3755(8)
H2 H 0.8026 0.5184 0.4332
C4 C 0.7976(7) 0.4957(6) 0.3076(7)
C5 C 0.8102(8) 0.5780(6) 0.3106(7)
C6 C 0.7997(8) 0.6003(5) 0.2458(9)
C7 C 0.7697(8) 0.5515(6) 0.1554(8)
H3 H 0.7537 0.4922 0.1252
C8 C 0.7680(7) 0.6048(6) 0.1200(9)
C9 C 0.7955(8) 0.6865(6) 0.1949(9)
C10 C 0.7981(7) 0.7671(6) 0.1890(9)
C11 C 0.8000(8) 0.7778(6) 0.1202(8)
C12 C 0.8063(8) 0.8599(6) 0.1213(8)
H4 H 0.7983 0.9113 0.1654
C13 C 0.8247(8) 0.8491(6) 0.0510(8)
H5 H 0.8326 0.8929 0.0360
C14 C 0.8319(9) 0.7644(6) -0.0012(8)
C15 C 0.8718(8) 0.7353(6) -0.0725(7)
C16 C 0.8960(8) 0.6550(5) -0.1183(7)
C17 C 0.9687(8) 0.6284(6) -0.1633(6)
H6 H 1.0146 0.6629 -0.1722
C18 C 0.9633(8) 0.5421(6) -0.1936(7)
H7 H 1.0061 0.5081 -0.2259
C19 C 0.8860(9) 0.5138(6) -0.1693(7)
C20 C 0.8545(8) 0.4258(6) -0.1935(7)
C21 C 0.8445(8) 0.4006(6) -0.1321(9)
C22 C 0.8761(8) 0.4432(6) -0.0380(8)
H8 H 0.9094 0.4992 -0.0030
C23 C 0.8499(8) 0.3892(6) -0.0105(6)
H9 H 0.8625 0.4024 0.0477
C24 C 0.8010(8) 0.3099(7) -0.0786(7)
C25 C 0.7549(8) 0.2362(6) -0.0870(7)
C26 C 0.7446(8) 0.2239(6) -0.0162(9)
C27 C 0.7164(8) 0.1380(6) -0.0278(9)
H10 H 0.7047 0.0869 -0.0786
C28 C 0.7112(8) 0.1479(6) 0.0481(7)
H11 H 0.6928 0.1051 0.0619
C29 C 0.7386(8) 0.2354(6) 0.1046(8)
C30 C 0.7409(8) 0.2690(6) 0.1912(8)
N1 N 0.7804(6) 0.4210(5) 0.2337(5)
H12 H 0.7795 0.4158 0.1831
N2 N 0.8142(6) 0.6860(5) 0.2671(6)
N3 N 0.8057(6) 0.7189(5) 0.0404(6)
N4 N 0.8451(6) 0.5825(5) -0.1217(6)
N5 N 0.7991(6) 0.3191(4) -0.1498(6)
H13 H 0.7725 0.2788 -0.2016
N6 N 0.7578(6) 0.2807(5) 0.0653(6)
C31 C 0.8415(7) 0.6491(4) 0.4024(4)
C32 C 0.7746(5) 0.7068(5) 0.4304(5)
C33 C 0.8042(6) 0.7732(4) 0.5118(5)
C34 C 0.9007(7) 0.7820(4) 0.5652(4)
C35 C 0.9676(6) 0.7243(5) 0.5372(5)
C36 C 0.9380(6) 0.6579(4) 0.4558(5)
F1 F 0.6829(5) 0.7001(3) 0.3824(4)
F2 F 0.7420(6) 0.8270(4) 0.5390(4)
F3 F 0.9303(6) 0.8432(3) 0.6453(4)
F4 F 1.0590(5) 0.7293(4) 0.5890(4)
F5 F 1.0051(5) 0.6052(3) 0.4317(4)
C37 C 0.8022(6) 0.8428(3) 0.2735(4)
C38 C 0.8878(5) 0.9050(4) 0.3149(5)
C39 C 0.8949(5) 0.9691(4) 0.3956(5)
C40 C 0.8166(7) 0.9709(4) 0.4347(4)
C41 C 0.7310(6) 0.9087(5) 0.3933(5)
C42 C 0.7239(5) 0.8446(4) 0.3127(5)
F6 F 0.9649(5) 0.9036(3) 0.2815(4)
F7 F 0.9758(5) 1.0304(3) 0.4358(4)
F8 F 0.8223(5) 1.0341(3) 0.5116(4)
F9 F 0.6563(5) 0.9149(3) 0.4318(4)
F10 F 0.6395(4) 0.7882(3) 0.2741(4)
C43 C 0.8932(8) 0.7983(4) -0.1024(6)
C44 C 0.8215(6) 0.8027(5) -0.1682(6)
C45 C 0.8418(9) 0.8625(6) -0.1940(5)
C46 C 0.9337(10) 0.9179(5) -0.1539(7)
C47 C 1.0054(7) 0.9136(4) -0.0881(7)
C48 C 0.9851(7) 0.8538(6) -0.0624(5)
F11 F 0.7316(5) 0.7496(4) -0.2057(4)
F12 F 0.7707(7) 0.8687(4) -0.2543(5)
F13 F 0.9519(6) 0.9761(4) -0.1791(4)
F14 F 1.0939(5) 0.9687(3) -0.0516(4)
F15 F 1.0554(5) 0.8561(3) 0.0034(4)
C49 C 0.8545(6) 0.3628(4) -0.2778(4)
C50 C 0.9144(6) 0.2987(4) -0.2889(5)
C51 C 0.9129(6) 0.2389(4) -0.3702(6)
C52 C 0.8514(7) 0.2430(4) -0.4404(5)
C53 C 0.7915(6) 0.3071(5) -0.4293(5)
C54 C 0.7930(6) 0.3669(4) -0.3480(6)
F16 F 0.9742(4) 0.2912(3) -0.2233(4)
F17 F 0.9729(5) 0.1788(3) -0.3821(4)
F18 F 0.8516(5) 0.1858(3) -0.5194(4)
F19 F 0.7375(5) 0.3129(4) -0.4977(4)
F20 F 0.7346(4) 0.4258(3) -0.3394(4)
C55 C 0.7221(6) 0.1629(3) -0.1726(3)
C56 C 0.6169(6) 0.1354(4) -0.2100(5)
C57 C 0.5832(5) 0.0647(5) -0.2882(5)
C58 C 0.6548(7) 0.0215(4) -0.3290(4)
C59 C 0.7601(7) 0.0490(4) -0.2916(4)
C60 C 0.7937(5) 0.1197(4) -0.2134(4)
F21 F 0.5465(5) 0.1742(3) -0.1716(4)
F22 F 0.4810(5) 0.0376(4) -0.3235(4)
F23 F 0.6220(5) -0.0461(3) -0.4059(4)
F24 F 0.8283(5) 0.0073(3) -0.3320(4)
F25 F 0.8942(5) 0.1450(3) -0.1801(4)
C61 C 0.7231(7) 0.2113(4) 0.2287(5)
C62 C 0.6334(6) 0.2065(5) 0.2534(5)
C63 C 0.6199(6) 0.1538(6) 0.2890(5)
C64 C 0.6962(8) 0.1060(5) 0.3000(5)
C65 C 0.7860(7) 0.1109(4) 0.2754(5)
C66 C 0.7995(6) 0.1635(5) 0.2397(5)
F26 F 0.5594(5) 0.2506(3) 0.2420(4)
F27 F 0.5320(6) 0.1479(4) 0.3099(5)
F28 F 0.6845(5) 0.0564(4) 0.3354(5)
F29 F 0.8569(5) 0.0644(3) 0.2877(4)
F30 F 0.8866(5) 0.1672(3) 0.2209(4)
C67 C 0.7448(8) 0.5847(7) 0.0340(8)
H14 H 0.7094 0.5298 -0.0039
C68 C 0.7651(8) 0.6311(6) -0.0023(8)
C69 C 0.7434(7) 0.5929(5) -0.0994(7)
H15 H 0.7152 0.6366 -0.1148
C70 C 0.6620(9) 0.5141(6) -0.1515(7)
H16 H 0.6614 0.4908 -0.2121
H17 H 0.6813 0.4713 -0.1326
N7 N 0.5604(10) 0.5316(7) -0.1428(9)
C71 C 0.4999(12) 0.4401(9) -0.1588(11)
H18 H 0.5012 0.4001 -0.2171
H19 H 0.4268 0.4489 -0.1624
C72 C 0.5222(8) 0.3824(6) -0.1026(6)
H20 H 0.5910 0.3654 -0.1017
H21 H 0.4697 0.3325 -0.1300
H22 H 0.5182 0.4169 -0.0443
C73 C 0.514(2) 0.5860(13) -0.1579(17)
H23 H 0.4501 0.5588 -0.2043
H24 H 0.5594 0.6163 -0.1753
C74 C 0.4865(19) 0.6525(13) -0.0691(11)
H25 H 0.4307 0.6821 -0.0829
H26 H 0.5480 0.6931 -0.0307
H27 H 0.4643 0.6214 -0.0414
C75 C 0.5759(9) 0.8587(9) -0.0470(7)
H28 H 0.6155 0.8139 -0.0443
H29 H 0.5030 0.8350 -0.0792
Cl1 Cl 0.5903(8) 0.9640(5) 0.0787(6)
Cl2 Cl 0.6309(4) 0.9147(3) -0.0843(4)
C76 C 0.0553(9) 0.4099(6) 0.3751(7)
H30 H 0.0279 0.3535 0.3289
H31 H 0.0178 0.4509 0.3627
H32 H 0.0466 0.4130 0.4284
C77 C 0.1629(14) 0.4281(9) 0.3830(9)
H33 H 0.1873 0.4864 0.4278
H34 H 0.1691 0.4263 0.3291
C78 C 0.2389(9) 0.3718(7) 0.4038(8)
H35 H 0.2249 0.3677 0.4532
H36 H 0.2183 0.3149 0.3553
C79 C 0.3364(13) 0.3884(12) 0.4200(12)
H37 H 0.3545 0.4495 0.4572
H38 H 0.3516 0.3778 0.3657
C80 C 0.4179(17) 0.3444(15) 0.4627(15)
H39 H 0.4175 0.3657 0.5229
H40 H 0.3940 0.2833 0.4338
C81 C 0.519(2) 0.3578(18) 0.4592(15)
H41 H 0.5640 0.3331 0.4901
H42 H 0.5423 0.4182 0.4852
H43 H 0.5216 0.3317 0.3999
C82 C 0.5444(11) 0.2037(8) 0.5743(8)
H44 H 0.4737 0.1743 0.5595
H45 H 0.5420 0.2361 0.5420
Cl3 Cl 0.5810(3) 0.2726(2) 0.6822(3)
Cl4 Cl 0.6256(3) 0.1313(2) 0.5445(3)
C83? C 0.510(4) 0.557(3) -0.215(3)
H46? H 0.4394 0.5635 -0.2074
H47? H 0.5453 0.6150 -0.1907
C84? C 0.496(2) 0.539(2) -0.278(2)
H48? H 0.5529 0.5657 -0.2882
H49? H 0.4311 0.5572 -0.2974
H50? H 0.4905 0.4784 -0.3093
C85? C 0.5571(18) 0.8536(12) 0.0384(17)
H51? H 0.6240 0.8561 0.0246
H52? H 0.5051 0.8504 -0.0114
Cl5? Cl 0.5373(7) 0.7388(5) 0.0185(7)
Cl6? Cl 0.5624(18) 0.9602(13) 0.1128(15)
loop_
_geom_bond_atom_site_label_1
_geom_bond_atom_site_label_2
_geom_bond_site_symmetry_1
_geom_bond_site_symmetry_2
C1 C2 1_555 1_555
C2 H1 1_555 1_555
C3 C2 1_555 1_555
H2 C3 1_555 1_555
C4 C3 1_555 1_555
C5 C4 1_555 1_555
C6 C5 1_555 1_555
C7 C6 1_555 1_555
H3 C7 1_555 1_555
C8 C7 1_555 1_555
C9 C8 1_555 1_555
C10 C9 1_555 1_555
C11 C10 1_555 1_555
C12 C11 1_555 1_555
H4 C12 1_555 1_555
C13 C12 1_555 1_555
H5 C13 1_555 1_555
C14 C13 1_555 1_555
C15 C14 1_555 1_555
C16 C15 1_555 1_555
C17 C16 1_555 1_555
H6 C17 1_555 1_555
C18 C17 1_555 1_555
H7 C18 1_555 1_555
C19 C18 1_555 1_555
C20 C19 1_555 1_555
C21 C20 1_555 1_555
C22 C21 1_555 1_555
H8 C22 1_555 1_555
C23 C22 1_555 1_555
H9 C23 1_555 1_555
C24 C23 1_555 1_555
C25 C24 1_555 1_555
C26 C25 1_555 1_555
C27 C26 1_555 1_555
H10 C27 1_555 1_555
C28 C27 1_555 1_555
H11 C28 1_555 1_555
C29 C28 1_555 1_555
C30 C1 1_555 1_555
N1 C1 1_555 1_555
H12 N1 1_555 1_555
N2 C6 1_555 1_555
N3 C11 1_555 1_555
N4 C16 1_555 1_555
N5 C21 1_555 1_555
H13 N5 1_555 1_555
N6 C26 1_555 1_555
C31 C5 1_555 1_555
C32 C31 1_555 1_555
C33 C32 1_555 1_555
C34 C33 1_555 1_555
C35 C34 1_555 1_555
C36 C31 1_555 1_555
F1 C32 1_555 1_555
F2 C33 1_555 1_555
F3 C34 1_555 1_555
F4 C35 1_555 1_555
F5 C36 1_555 1_555
C37 C10 1_555 1_555
C38 C37 1_555 1_555
C39 C38 1_555 1_555
C40 C39 1_555 1_555
C41 C40 1_555 1_555
C42 C37 1_555 1_555
F6 C38 1_555 1_555
F7 C39 1_555 1_555
F8 C40 1_555 1_555
F9 C41 1_555 1_555
F10 C42 1_555 1_555
C43 C15 1_555 1_555
C44 C43 1_555 1_555
C45 C44 1_555 1_555
C46 C45 1_555 1_555
C47 C46 1_555 1_555
C48 C43 1_555 1_555
F11 C44 1_555 1_555
F12 C45 1_555 1_555
F13 C46 1_555 1_555
F14 C47 1_555 1_555
F15 C48 1_555 1_555
C49 C20 1_555 1_555
C50 C49 1_555 1_555
C51 C50 1_555 1_555
C52 C51 1_555 1_555
C53 C52 1_555 1_555
C54 C49 1_555 1_555
F16 C50 1_555 1_555
F17 C51 1_555 1_555
F18 C52 1_555 1_555
F19 C53 1_555 1_555
F20 C54 1_555 1_555
C55 C25 1_555 1_555
C56 C55 1_555 1_555
C57 C56 1_555 1_555
C58 C57 1_555 1_555
C59 C58 1_555 1_555
C60 C55 1_555 1_555
F21 C56 1_555 1_555
F22 C57 1_555 1_555
F23 C58 1_555 1_555
F24 C59 1_555 1_555
F25 C60 1_555 1_555
C61 C30 1_555 1_555
C62 C61 1_555 1_555
C63 C62 1_555 1_555
C64 C63 1_555 1_555
C65 C64 1_555 1_555
C66 C61 1_555 1_555
F26 C62 1_555 1_555
F27 C63 1_555 1_555
F28 C64 1_555 1_555
F29 C65 1_555 1_555
F30 C66 1_555 1_555
C67 C8 1_555 1_555
H14 C67 1_555 1_555
C68 N3 1_555 1_555
C69 N4 1_555 1_555
H15 C69 1_555 1_555
C70 C69 1_555 1_555
H16 C70 1_555 1_555
H17 C70 1_555 1_555
N7 C70 1_555 1_555
C71 N7 1_555 1_555
H18 C71 1_555 1_555
H19 C71 1_555 1_555
C72 C71 1_555 1_555
H20 C72 1_555 1_555
H21 C72 1_555 1_555
H22 C72 1_555 1_555
C73 N7 1_555 1_555
H23 C73 1_555 1_555
H24 C73 1_555 1_555
C74 C73 1_555 1_555
H25 C74 1_555 1_555
H26 C74 1_555 1_555
H27 C74 1_555 1_555
C75 H28 1_555 1_555
H29 C75 1_555 1_555
Cl1 C75 1_555 1_555
Cl2 C75 1_555 1_555
C76 H30 1_555 1_555
H31 C76 1_555 1_555
H32 C76 1_555 1_555
C77 C76 1_555 1_555
H33 C77 1_555 1_555
H34 C77 1_555 1_555
C78 C77 1_555 1_555
H35 C78 1_555 1_555
H36 C78 1_555 1_555
C79 C78 1_555 1_555
H37 C79 1_555 1_555
H38 C79 1_555 1_555
C80 C79 1_555 1_555
H39 C80 1_555 1_555
H40 C80 1_555 1_555
C81 C80 1_555 1_555
H41 C81 1_555 1_555
H42 C81 1_555 1_555
H43 C81 1_555 1_555
C82 H44 1_555 1_555
H45 C82 1_555 1_555
Cl3 C82 1_555 1_555
Cl4 C82 1_555 1_555
C4 N1 1_555 1_555
C9 N2 1_555 1_555
C14 N3 1_555 1_555
C19 N4 1_555 1_555
C24 N5 1_555 1_555
C29 C30 1_555 1_555
C29 N6 1_555 1_555
C35 C36 1_555 1_555
C41 C42 1_555 1_555
C47 C48 1_555 1_555
C53 C54 1_555 1_555
C59 C60 1_555 1_555
C65 C66 1_555 1_555
C67 C68 1_555 1_555
C68 C69 1_555 1_555

#END
