
#######################################################################
#
#                 Cambridge Crystallographic Data Centre
#                                CCDC 
#
#######################################################################
#
# If this CIF has been generated from an entry in the Cambridge 
# Structural Database, then it will include bibliographic, chemical, 
# crystal, experimental, refinement or atomic coordinate data resulting 
# from the CCDC's data processing and validation procedures.
#
#######################################################################

data_QOWWUU
_chemical_formula_moiety         '2(C1 H6 N3 1+),C12 H8 O7 S2 2-,C7 H8'
_chemical_name_systematic        
"bis(Guanidinium) 4,4'-diphenyletherdisulfonate toluene clathrate"
_symmetry_cell_setting           triclinic
_symmetry_space_group_name_H-M   'P -1'
_symmetry_Int_Tables_number      2
_space_group_name_Hall           '-P 1'
loop_
_symmetry_equiv_pos_site_id
_symmetry_equiv_pos_as_xyz
1 x,y,z
2 -x,-y,-z
_cell_length_a                   7.5011(9)
_cell_length_b                   12.0916(18)
_cell_length_c                   29.989(4)
_cell_angle_alpha                84.585(11)
_cell_angle_beta                 86.477(9)
_cell_angle_gamma                89.229(10)
_cell_volume                     2702.68
_exptl_crystal_colour            colorless
_exptl_crystal_description       plate
_cell_formula_units_Z            4
loop_
_atom_site_label
_atom_site_type_symbol
_atom_site_fract_x
_atom_site_fract_y
_atom_site_fract_z
S1 S 0.51945(11) -0.04759(7) 0.92129(3)
O1 O 0.6884(3) -0.00496(17) 0.93362(7)
C1 C 0.4760(4) 0.0209(3) 0.86836(11)
S2 S 0.48018(11) 0.08322(8) 0.56559(3)
O2 O 0.5259(3) -0.16641(17) 0.91589(7)
C2 C 0.3753(4) -0.0307(3) 0.83939(11)
H5 H 0.3362 -0.1049 0.8470
O3 O 0.3701(3) -0.01899(17) 0.95167(7)
C3 C 0.3315(4) 0.0262(3) 0.79911(11)
H8 H 0.2644 -0.0089 0.7787
O4 O 0.4898(3) 0.18781(18) 0.53731(7)
C4 C 0.3866(4) 0.1342(3) 0.78922(11)
O5 O 0.6468(3) 0.01986(18) 0.56378(7)
C5 C 0.4865(4) 0.1870(3) 0.81783(11)
H13 H 0.5239 0.2615 0.8102
O6 O 0.3247(3) 0.01808(18) 0.55705(8)
C6 C 0.5317(4) 0.1300(3) 0.85797(11)
H16 H 0.6000 0.1652 0.8782
C7 C 0.3729(4) 0.1649(3) 0.70867(11)
C8 C 0.4859(4) 0.0770(3) 0.70019(12)
H21 H 0.5380 0.0333 0.7241
C9 C 0.5214(4) 0.0541(3) 0.65607(12)
H24 H 0.5992 -0.0058 0.6497
C10 C 0.4452(4) 0.1169(3) 0.62135(11)
C11 C 0.3341(5) 0.2057(3) 0.63063(12)
H29 H 0.2833 0.2504 0.6068
C12 C 0.2977(5) 0.2288(3) 0.67406(12)
H32 H 0.2204 0.2889 0.6804
O13 O 0.3346(3) 0.19881(19) 0.75108(8)
N1 N 1.0303(4) -0.1147(2) 0.93309(9)
H1 H 1.1323 -0.0802 0.9342
H2 H 0.9295 -0.0767 0.9327
N2 N 0.8745(3) -0.2755(2) 0.92955(8)
H3 H 0.7739 -0.2373 0.9285
H4 H 0.8735 -0.3481 0.9289
N3 N 1.1801(3) -0.2818(2) 0.93275(9)
H6 H 1.2826 -0.2479 0.9338
H7 H 1.1777 -0.3543 0.9321
C13 C 1.0287(4) -0.2233(3) 0.93211(11)
S3 S 0.01219(12) 0.45580(7) 0.42035(3)
S4 S -0.00128(11) 0.58017(7) 0.06345(3)
O7 O 0.1552(3) 0.48540(17) 0.44779(7)
O8 O 0.0101(3) 0.33768(17) 0.41439(7)
O9 O -0.1613(3) 0.49674(18) 0.43625(7)
O10 O -0.1712(3) 0.52159(18) 0.06770(7)
O11 O -0.0112(3) 0.68573(18) 0.03579(7)
O12 O 0.1489(3) 0.51112(17) 0.04950(7)
O14 O 0.1570(3) 0.70247(19) 0.24255(8)
C15 C 0.0606(4) 0.5255(3) 0.36668(11)
C16 C -0.0167(4) 0.4902(3) 0.32949(11)
H33 H -0.0924 0.4272 0.3331
C17 C 0.0153(4) 0.5455(3) 0.28730(11)
H34 H -0.0375 0.5208 0.2620
C18 C 0.1246(4) 0.6369(3) 0.28244(11)
C19 C 0.2016(5) 0.6728(3) 0.31878(12)
H35 H 0.2765 0.7361 0.3149
C20 C 0.1709(4) 0.6172(3) 0.36102(12)
H36 H 0.2253 0.6420 0.3860
C21 C 0.1121(4) 0.6667(3) 0.20236(11)
C22 C 0.1739(4) 0.5671(3) 0.18819(11)
H37 H 0.2394 0.5170 0.2075
C23 C 0.1396(4) 0.5408(3) 0.14549(11)
H38 H 0.1826 0.4728 0.1352
C24 C 0.0423(4) 0.6140(3) 0.11804(11)
C25 C -0.0186(4) 0.7144(3) 0.13261(11)
H39 H -0.0840 0.7648 0.1134
C26 C 0.0162(4) 0.7404(3) 0.17498(11)
H40 H -0.0254 0.8087 0.1853
N4 N 1.1415(3) 0.2861(2) 0.52427(8)
H9 H 1.1418 0.3591 0.5234
H10 H 1.2429 0.2488 0.5244
N5 N 0.8354(3) 0.2887(2) 0.52513(9)
H11 H 0.8354 0.3617 0.5242
H12 H 0.7336 0.2530 0.5259
N6 N 0.9880(4) 0.1224(2) 0.52587(9)
H14 H 1.0896 0.0852 0.5255
H15 H 0.8861 0.0869 0.5266
C14 C 0.9885(5) 0.2327(3) 0.52537(11)
N7 N 0.5054(4) 0.3854(2) 0.42842(10)
H17 H 0.6059 0.4225 0.4274
H18 H 0.4024 0.4210 0.4293
N8 N 0.3567(4) 0.2204(2) 0.42922(9)
H19 H 0.3579 0.1477 0.4287
H20 H 0.2543 0.2568 0.4301
N9 N 0.6633(4) 0.2217(2) 0.42726(9)
H22 H 0.6659 0.1491 0.4267
H23 H 0.7637 0.2587 0.4269
C27 C 0.5092(5) 0.2751(3) 0.42863(11)
N10 N 0.6448(3) 0.7876(2) 0.02864(9)
H25 H 0.6414 0.8603 0.0289
H26 H 0.7481 0.7522 0.0284
N11 N 0.3404(3) 0.7846(2) 0.02892(8)
H27 H 0.3369 0.8573 0.0292
H28 H 0.2406 0.7472 0.0289
N12 N 0.4998(4) 0.6222(2) 0.02741(9)
H30 H 0.6029 0.5867 0.0267
H31 H 0.3996 0.5852 0.0274
C28 C 0.4952(4) 0.7318(3) 0.02855(10)
C29 C -0.0312(6) 0.1213(5) 0.27976(16)
C30 C 0.0694(6) 0.0293(4) 0.26665(17)
H41 H 0.0928 -0.0311 0.2882
C31 C 0.1330(6) 0.0266(4) 0.22336(19)
H42 H 0.2013 -0.0357 0.2151
C32 C 0.1010(7) 0.1110(6) 0.19186(18)
H43 H 0.1478 0.1071 0.1619
C33 C 0.0050(7) 0.1993(5) 0.2023(2)
H44 H -0.0184 0.2574 0.1797
C34 C -0.0598(6) 0.2057(4) 0.2456(2)
H45 H -0.1265 0.2697 0.2527
C35 C -0.0979(7) 0.1261(6) 0.32654(18)
H46 H -0.0399 0.1872 0.3392
H47 H -0.0710 0.0559 0.3439
H48 H -0.2274 0.1386 0.3277
C36 C 0.4763(5) 0.3597(4) 0.26093(15)
C37 C 0.4577(6) 0.3055(3) 0.22361(18)
H49 H 0.3951 0.2372 0.2264
C38 C 0.5256(7) 0.3463(5) 0.18288(19)
H50 H 0.5095 0.3067 0.1575
C39 C 0.6161(7) 0.4425(6) 0.1777(2)
H51 H 0.6653 0.4700 0.1488
C40 C 0.6368(6) 0.5000(4) 0.2135(3)
H52 H 0.7005 0.5680 0.2098
C41 C 0.5659(6) 0.4604(4) 0.25542(19)
H53 H 0.5782 0.5018 0.2804
C42 C 0.4011(7) 0.3131(5) 0.30613(18)
H54 H 0.2715 0.3053 0.3054
H55 H 0.4275 0.3634 0.3286
H56 H 0.4552 0.2401 0.3139
loop_
_geom_bond_atom_site_label_1
_geom_bond_atom_site_label_2
_geom_bond_site_symmetry_1
_geom_bond_site_symmetry_2
S1 O1 1_555 1_555
N1 H1 1_555 1_555
H2 N1 1_555 1_555
C1 S1 1_555 1_555
S2 O4 1_555 1_555
O2 S1 1_555 1_555
N2 H3 1_555 1_555
H4 N2 1_555 1_555
C2 C1 1_555 1_555
H5 C2 1_555 1_555
S3 O7 1_555 1_555
O3 S1 1_555 1_555
N3 H6 1_555 1_555
H7 N3 1_555 1_555
C3 C2 1_555 1_555
H8 C3 1_555 1_555
S4 O10 1_555 1_555
N4 H9 1_555 1_555
H10 N4 1_555 1_555
C4 C3 1_555 1_555
O5 S2 1_555 1_555
N5 H11 1_555 1_555
H12 N5 1_555 1_555
C5 C4 1_555 1_555
H13 C5 1_555 1_555
O6 S2 1_555 1_555
N6 H14 1_555 1_555
H15 N6 1_555 1_555
C6 C1 1_555 1_555
H16 C6 1_555 1_555
N7 H17 1_555 1_555
H18 N7 1_555 1_555
C7 C8 1_555 1_555
O8 S3 1_555 1_555
N8 H19 1_555 1_555
H20 N8 1_555 1_555
C8 H21 1_555 1_555
O9 S3 1_555 1_555
N9 H22 1_555 1_555
H23 N9 1_555 1_555
C9 C8 1_555 1_555
H24 C9 1_555 1_555
N10 H25 1_555 1_555
H26 N10 1_555 1_555
C10 S2 1_555 1_555
O11 S4 1_555 1_555
N11 H27 1_555 1_555
H28 N11 1_555 1_555
C11 C10 1_555 1_555
H29 C11 1_555 1_555
O12 S4 1_555 1_555
N12 H30 1_555 1_555
H31 N12 1_555 1_555
C12 C7 1_555 1_555
H32 C12 1_555 1_555
O13 C4 1_555 1_555
C13 N1 1_555 1_555
O14 C18 1_555 1_555
C14 N4 1_555 1_555
C15 S3 1_555 1_555
C16 C15 1_555 1_555
H33 C16 1_555 1_555
C17 C16 1_555 1_555
H34 C17 1_555 1_555
C18 C17 1_555 1_555
C19 C18 1_555 1_555
H35 C19 1_555 1_555
C20 C15 1_555 1_555
H36 C20 1_555 1_555
C21 O14 1_555 1_555
C22 C21 1_555 1_555
H37 C22 1_555 1_555
C23 C22 1_555 1_555
H38 C23 1_555 1_555
C24 S4 1_555 1_555
C25 C24 1_555 1_555
H39 C25 1_555 1_555
C26 C21 1_555 1_555
H40 C26 1_555 1_555
C27 N7 1_555 1_555
C28 N10 1_555 1_555
C29 C30 1_555 1_555
C30 H41 1_555 1_555
C31 C30 1_555 1_555
H42 C31 1_555 1_555
C32 C31 1_555 1_555
H43 C32 1_555 1_555
C33 C32 1_555 1_555
H44 C33 1_555 1_555
C34 C29 1_555 1_555
H45 C34 1_555 1_555
C35 C29 1_555 1_555
H46 C35 1_555 1_555
H47 C35 1_555 1_555
H48 C35 1_555 1_555
C36 C37 1_555 1_555
C37 H49 1_555 1_555
C38 C37 1_555 1_555
H50 C38 1_555 1_555
C39 C38 1_555 1_555
H51 C39 1_555 1_555
C40 C39 1_555 1_555
H52 C40 1_555 1_555
C41 C36 1_555 1_555
H53 C41 1_555 1_555
C42 C36 1_555 1_555
H54 C42 1_555 1_555
H55 C42 1_555 1_555
H56 C42 1_555 1_555
N2 C13 1_555 1_555
N3 C13 1_555 1_555
N5 C14 1_555 1_555
C5 C6 1_555 1_555
N6 C14 1_555 1_555
C7 O13 1_555 1_555
N8 C27 1_555 1_555
N9 C27 1_555 1_555
C9 C10 1_555 1_555
N11 C28 1_555 1_555
C11 C12 1_555 1_555
N12 C28 1_555 1_555
C19 C20 1_555 1_555
C23 C24 1_555 1_555
C25 C26 1_555 1_555
C33 C34 1_555 1_555
C40 C41 1_555 1_555

#END
