
#######################################################################
#
#                 Cambridge Crystallographic Data Centre
#                                CCDC 
#
#######################################################################
#
# If this CIF has been generated from an entry in the Cambridge 
# Structural Database, then it will include bibliographic, chemical, 
# crystal, experimental, refinement or atomic coordinate data resulting 
# from the CCDC's data processing and validation procedures.
#
#######################################################################

data_QOWXIJ
_chemical_formula_moiety         
'2(C1 H6 N3 1+),C9 H10 O6 S2 2-,C3 H6 O1,C1 H4 O1'
_chemical_name_systematic        
'bis(Guanidinium) mesitylenedisulfonate acetone methanol clathrate'
_symmetry_cell_setting           orthorhombic
_symmetry_space_group_name_H-M   'C m c 21'
_symmetry_Int_Tables_number      36
_space_group_name_Hall           'C 2n -2'
loop_
_symmetry_equiv_pos_site_id
_symmetry_equiv_pos_as_xyz
1 x,y,z
2 -x,-y,1/2+z
3 -x,y,z
4 x,-y,1/2+z
5 1/2+x,1/2+y,z
6 1/2-x,1/2-y,1/2+z
7 1/2-x,1/2+y,z
8 1/2+x,1/2-y,1/2+z
_cell_length_a                   7.5013(10)
_cell_length_b                   20.576(3)
_cell_length_c                   15.796(2)
_cell_angle_alpha                90
_cell_angle_beta                 90
_cell_angle_gamma                90
_cell_volume                     2438.06
_exptl_crystal_colour            colorless
_exptl_crystal_description       needle
_cell_formula_units_Z            4
loop_
_atom_site_label
_atom_site_type_symbol
_atom_site_fract_x
_atom_site_fract_y
_atom_site_fract_z
S1 S 1.0000 0.96835(4) 0.32364(6)
O1 O 1.0000 1.27082(11) 0.16810(17)
C1 C 1.0000 1.15893(18) 0.2504(2)
S2 S 1.0000 1.20076(4) 0.15074(5)
O2 O 1.1616(2) 1.18112(8) 0.10737(11)
C2 C 1.0000 1.08961(16) 0.2493(2)
O3 O 1.1616(2) 0.94906(8) 0.27856(12)
C3 C 1.0000 1.05575(16) 0.3268(3)
O4 O 1.0000 0.94413(13) 0.41003(18)
C4 C 1.0000 1.0883(2) 0.4041(3)
C5 C 1.0000 1.1557(2) 0.4011(3)
H1 H 1.0000 1.1783 0.4536
C6 C 1.0000 1.19248(16) 0.3284(3)
C7 C 1.0000 1.05338(17) 0.1656(2)
H2 H 1.0617 1.0117 0.1725
C8 C 1.0000 1.0576(2) 0.4925(3)
H5 H 0.9178 1.0206 0.4934
C9 C 1.0000 1.26585(18) 0.3392(3)
H11 H 1.0932 1.2849 0.3035
O3B O 0.8384(2) 0.94906(8) 0.27856(12)
O2B O 0.8384(2) 1.18112(8) 0.10737(11)
H5B H 1.0822 1.0206 0.4934
H11B H 0.9068 1.2849 0.3035
H2B H 0.9383 1.0117 0.1725
N1 N 1.3475(3) 1.33344(10) 0.17103(15)
H8 H 1.3473 1.3718 0.1958
H9 H 1.2460 1.3142 0.1586
N2 N 1.5000 1.24871(15) 0.1112(2)
H13 H 1.6015 1.2307 0.0961
C11 C 1.5000 1.30480(15) 0.1525(3)
N1B N 1.6525(3) 1.33344(10) 0.17103(15)
H8B H 1.6527 1.3718 0.1958
H9B H 1.7540 1.3142 0.1586
H13B H 1.3985 1.2307 0.0961
C10 C 1.5000 0.91708(17) 0.4484(2)
N3 N 1.3469(3) 0.90731(11) 0.48768(15)
H14 H 1.3460 0.8941 0.5407
H15 H 1.2457 0.9140 0.4609
N4 N 1.5000 0.93680(16) 0.3682(2)
H16 H 1.6016 0.9433 0.3416
N3B N 1.6531(3) 0.90731(11) 0.48768(15)
H14B H 1.6540 0.8941 0.5407
H15B H 1.7543 0.9140 0.4609
H16B H 1.3984 0.9433 0.3416
O5 O 0.5000 1.10057(14) 0.1578(2)
C12 C 0.5000 1.0393(3) 0.1928(5)
H19 H 0.6117 1.0324 0.2237
H19B H 0.3883 1.0324 0.2237
O6 O 0.5000 1.1890(3) 0.2952(3)
C13 C 0.5000 1.2599(4) 0.4110(5)
H23 H 0.4053 1.2620 0.4537
C14 C 0.5000 1.1943(4) 0.3706(4)
C15 C 0.5000 1.1369(5) 0.4274(7)
H24 H 0.3773 1.1219 0.4357
H23B H 0.5947 1.2620 0.4537
H24B H 0.6227 1.1219 0.4357
H3? H 1.0615 1.0795 0.1227
H4? H 0.8768 1.0455 0.1476
H6? H 0.9617 1.0899 0.5342
H7? H 1.1205 1.0426 0.5064
H10? H 0.8837 1.2833 0.3225
H12? H 1.0231 1.2767 0.3986
H17? H 0.4547 1.1270 0.1922
H18? H 0.3992 1.0351 0.2319
H20? H 0.4892 1.0068 0.1478
H21? H 0.4791 1.2932 0.3678
H22? H 0.6156 1.2676 0.4382
H25? H 0.5517 1.1490 0.4821
H26? H 0.5710 1.1021 0.4018
loop_
_geom_bond_atom_site_label_1
_geom_bond_atom_site_label_2
_geom_bond_site_symmetry_1
_geom_bond_site_symmetry_2
S1 O3 1_555 1_555
O1 S2 1_555 1_555
C1 S2 1_555 1_555
S2 O2 1_555 1_555
C2 C1 1_555 1_555
C3 S1 1_555 1_555
O4 S1 1_555 1_555
C4 C3 1_555 1_555
C5 C4 1_555 1_555
H1 C5 1_555 1_555
C6 C1 1_555 1_555
C7 C2 1_555 1_555
H2 C7 1_555 1_555
C8 C4 1_555 1_555
H5 C8 1_555 1_555
N1 H8 1_555 1_555
H9 N1 1_555 1_555
C9 C6 1_555 1_555
H11 C9 1_555 1_555
N2 H13 1_555 1_555
C10 N3 1_555 1_555
N3 H14 1_555 1_555
H15 N3 1_555 1_555
C11 N1 1_555 1_555
N4 C10 1_555 1_555
H16 N4 1_555 1_555
O5 C12 1_555 1_555
C12 H19 1_555 1_555
O6 C14 1_555 1_555
C13 H23 1_555 1_555
C14 C13 1_555 1_555
C15 C14 1_555 1_555
H24 C15 1_555 1_555
O3B S1 1_555 1_555
O2B S2 1_555 1_555
H5B C8 1_555 1_555
H11B C9 1_555 1_555
H2B C7 1_555 1_555
N1B C11 1_555 1_555
H8B N1B 1_555 1_555
H9B N1B 1_555 1_555
H13B N2 1_555 1_555
N3B C10 1_555 1_555
H14B N3B 1_555 1_555
H15B N3B 1_555 1_555
H16B N4 1_555 1_555
H19B C12 1_555 1_555
H23B C13 1_555 1_555
H24B C15 1_555 1_555
C2 C3 1_555 1_555
C5 C6 1_555 1_555
N2 C11 1_555 1_555

#END
