
#######################################################################
#
#                 Cambridge Crystallographic Data Centre
#                                CCDC 
#
#######################################################################
#
# If this CIF has been generated from an entry in the Cambridge 
# Structural Database, then it will include bibliographic, chemical, 
# crystal, experimental, refinement or atomic coordinate data resulting 
# from the CCDC's data processing and validation procedures.
#
#######################################################################

data_QOYSAY01
_chemical_formula_moiety         'C18 H16 O2'
_chemical_name_systematic        (3.3)(1,3)Cyclophane-2,11-dione
_symmetry_cell_setting           monoclinic
_symmetry_space_group_name_H-M   'P 21/n'
_symmetry_Int_Tables_number      14
_space_group_name_Hall           '-P 2yn'
loop_
_symmetry_equiv_pos_site_id
_symmetry_equiv_pos_as_xyz
1 x,y,z
2 1/2+x,1/2-y,1/2+z
3 -x,-y,-z
4 1/2-x,1/2+y,1/2-z
_cell_length_a                   7.673(3)
_cell_length_b                   5.584(2)
_cell_length_c                   15.647(4)
_cell_angle_alpha                90
_cell_angle_beta                 94.22(3)
_cell_angle_gamma                90
_cell_volume                     668.594
_exptl_crystal_colour            colorless
_exptl_crystal_description       plates
_cell_formula_units_Z            2
loop_
_atom_site_label
_atom_site_type_symbol
_atom_site_fract_x
_atom_site_fract_y
_atom_site_fract_z
C1 C 0.4761(3) 0.2601(4) 0.32809(15)
H1 H 0.4894 0.2870 0.2677
H2 H 0.5089 0.0952 0.3403
C2 C 0.2851(3) 0.2868(4) 0.34262(14)
O1 O 0.1856(3) 0.1300(4) 0.31743(13)
C3 C 0.2195(3) 0.5026(4) 0.38795(13)
H3 H 0.0961 0.5252 0.3720
H4 H 0.2815 0.6443 0.3710
C4 C 0.2478(2) 0.4681(4) 0.48439(13)
C5 C 0.1797(3) 0.2698(4) 0.52286(14)
H5 H 0.1077 0.1647 0.4905
C6 C 0.2181(3) 0.2269(4) 0.60880(15)
H6 H 0.1703 0.0941 0.6343
C7 C 0.3263(3) 0.3782(4) 0.65741(14)
H7 H 0.3537 0.3443 0.7150
C8 C 0.6051(3) 0.4197(4) 0.37857(13)
C9 C 0.3500(2) 0.6256(4) 0.53463(13)
H8 H 0.3899 0.7651 0.5101
C8B C 0.3949(3) 0.5803(4) 0.62143(13)
C1B C 0.5239(3) 0.7399(4) 0.67191(15)
H1B H 0.5106 0.7130 0.7323
H2B H 0.4911 0.9048 0.6597
C2B C 0.7149(3) 0.7132(4) 0.65738(14)
O1B O 0.8144(3) 0.8700(4) 0.68257(13)
C3B C 0.7805(3) 0.4974(4) 0.61205(13)
H3B H 0.9039 0.4748 0.6280
H4B H 0.7185 0.3557 0.6290
C4B C 0.7522(2) 0.5319(4) 0.51561(13)
C5B C 0.8203(3) 0.7302(4) 0.47714(14)
H5B H 0.8923 0.8353 0.5095
C6B C 0.7819(3) 0.7731(4) 0.39120(15)
H6B H 0.8297 0.9059 0.3657
C7B C 0.6737(3) 0.6218(4) 0.34259(14)
H7B H 0.6463 0.6557 0.2850
C9B C 0.6500(2) 0.3744(4) 0.46537(13)
H8B H 0.6101 0.2349 0.4899
loop_
_geom_bond_atom_site_label_1
_geom_bond_atom_site_label_2
_geom_bond_site_symmetry_1
_geom_bond_site_symmetry_2
C1 H1 1_555 1_555
H2 C1 1_555 1_555
C2 C1 1_555 1_555
O1 C2 1_555 1_555
C3 C2 1_555 1_555
H3 C3 1_555 1_555
H4 C3 1_555 1_555
C4 C3 1_555 1_555
C5 C4 1_555 1_555
H5 C5 1_555 1_555
C6 C5 1_555 1_555
H6 C6 1_555 1_555
C7 C6 1_555 1_555
H7 C7 1_555 1_555
C8 C1 1_555 1_555
C9 C4 1_555 1_555
H8 C9 1_555 1_555
C8B C7 1_555 1_555
C1B C8B 1_555 1_555
H1B C1B 1_555 1_555
H2B C1B 1_555 1_555
C2B C1B 1_555 1_555
O1B C2B 1_555 1_555
C3B C2B 1_555 1_555
H3B C3B 1_555 1_555
H4B C3B 1_555 1_555
C4B C3B 1_555 1_555
C5B C4B 1_555 1_555
H5B C5B 1_555 1_555
C6B C5B 1_555 1_555
H6B C6B 1_555 1_555
C7B C8 1_555 1_555
H7B C7B 1_555 1_555
C9B C8 1_555 1_555
H8B C9B 1_555 1_555
C9 C8B 1_555 1_555
C4B C9B 1_555 1_555
C6B C7B 1_555 1_555

#END
