
#######################################################################
#
#                 Cambridge Crystallographic Data Centre
#                                CCDC 
#
#######################################################################
#
# If this CIF has been generated from an entry in the Cambridge 
# Structural Database, then it will include bibliographic, chemical, 
# crystal, experimental, refinement or atomic coordinate data resulting 
# from the CCDC's data processing and validation procedures.
#
#######################################################################

data_QOZXUA
_chemical_formula_moiety         'C11 H11 Cl1 N4 O1 S1'
_chemical_name_systematic        
2-(5-Chloropyridin-2-yl)-3-thioxohexahydro-1H-[1,2,4]triazolo[1,2-a]pyridazin-1-one
_symmetry_cell_setting           monoclinic
_symmetry_space_group_name_H-M   'P 21/n'
_symmetry_Int_Tables_number      14
_space_group_name_Hall           '-P 2yn'
loop_
_symmetry_equiv_pos_site_id
_symmetry_equiv_pos_as_xyz
1 x,y,z
2 1/2-x,1/2+y,1/2-z
3 -x,-y,-z
4 1/2+x,1/2-y,1/2+z
_cell_length_a                   12.002(2)
_cell_length_b                   8.8811(18)
_cell_length_c                   35.732(7)
_cell_angle_alpha                90
_cell_angle_beta                 97.10(3)
_cell_angle_gamma                90
_cell_volume                     3779.5
_exptl_crystal_colour            colorless
_exptl_crystal_description       block
_cell_formula_units_Z            12
_exptl_crystal_recrystallization_method dichloromethane/n-hexane
loop_
_atom_site_label
_atom_site_type_symbol
_atom_site_fract_x
_atom_site_fract_y
_atom_site_fract_z
Cl1 Cl 1.59252(8) 0.21260(14) 0.12869(3)
S1 S 1.18162(7) 0.18500(10) 0.23648(2)
O1 O 1.53355(17) -0.0624(3) 0.30022(6)
N1 N 1.5310(2) 0.1693(3) 0.23448(7)
N2 N 1.3854(2) 0.0629(3) 0.26291(6)
N3 N 1.3585(2) -0.0120(3) 0.31911(6)
N4 N 1.2597(2) 0.0507(3) 0.30161(7)
C1 C 1.3661(4) -0.0768(7) 0.35561(12)
H1 H 1.3912 -0.1801 0.3538
H2 H 1.4240 -0.0234 0.3718
C2 C 1.2693(3) -0.0776(7) 0.37332(11)
H3 H 1.2869 -0.0238 0.3969
H4 H 1.2556 -0.1815 0.3798
C3 C 1.1639(3) -0.0180(5) 0.35543(11)
H5 H 1.1383 0.0563 0.3724
H6 H 1.1098 -0.0995 0.3534
C4 C 1.1596(3) 0.0513(7) 0.31849(12)
H7 H 1.1021 0.0004 0.3016
H8 H 1.1359 0.1550 0.3206
C5 C 1.2747(3) 0.0982(3) 0.26698(8)
C6 C 1.4382(2) -0.0106(3) 0.29505(7)
C7 C 1.4366(2) 0.0900(3) 0.22961(8)
C8 C 1.3856(3) 0.0379(4) 0.19530(8)
H9 H 1.3208 -0.0202 0.1938
C9 C 1.4337(3) 0.0745(4) 0.16332(8)
H10 H 1.4012 0.0439 0.1396
C10 C 1.5313(3) 0.1578(4) 0.16773(9)
C11 C 1.5788(3) 0.2014(4) 0.20336(9)
H11 H 1.6460 0.2546 0.2058
Cl2 Cl 1.39734(7) 0.11015(10) -0.02993(2)
S2 S 0.95956(6) 0.24425(9) 0.06366(2)
O2 O 1.22300(19) -0.1416(3) 0.12959(6)
N5 N 1.2878(2) 0.1126(3) 0.07038(7)
N6 N 1.1192(2) 0.0398(3) 0.09197(6)
N7 N 1.0614(2) -0.0257(3) 0.14543(7)
N8 N 0.9809(2) 0.0666(3) 0.12511(7)
C12 C 1.0269(3) -0.1323(4) 0.17345(9)
H12 H 1.0915 -0.1598 0.1912
H13 H 0.9972 -0.2231 0.1609
C13 C 0.9386(3) -0.0610(4) 0.19424(10)
H14 H 0.9725 0.0181 0.2105
H15 H 0.9085 -0.1361 0.2100
C14 C 0.8438(3) 0.0045(4) 0.16706(10)
H16 H 0.8092 -0.0746 0.1509
H17 H 0.7870 0.0466 0.1811
C15 C 0.8881(3) 0.1259(4) 0.14322(9)
H18 H 0.8287 0.1600 0.1242
H19 H 0.9135 0.2113 0.1590
C16 C 1.0183(2) 0.1148(3) 0.09356(8)
C17 C 1.1441(3) -0.0542(3) 0.12328(8)
C18 C 1.1869(2) 0.0503(3) 0.06179(8)
C19 C 1.1445(3) -0.0008(3) 0.02645(8)
H20 H 1.0742 -0.0462 0.0222
C20 C 1.2097(3) 0.0174(3) -0.00246(8)
H21 H 1.1837 -0.0134 -0.0269
C21 C 1.3144(3) 0.0824(3) 0.00573(8)
C22 C 1.3518(3) 0.1269(4) 0.04232(9)
H22 H 1.4233 0.1678 0.0476
Cl3 Cl 0.62299(8) -0.23527(12) 0.22891(2)
S3 S 0.91135(7) -0.28526(10) 0.07818(2)
O3 O 0.54089(18) -0.5600(3) 0.06096(6)
N9 N 0.5990(2) -0.3009(3) 0.11851(7)
N10 N 0.7074(2) -0.4245(3) 0.07850(7)
N11 N 0.6734(2) -0.5119(3) 0.02072(7)
N12 N 0.7836(2) -0.4550(3) 0.02717(7)
C23 C 0.8456(3) -0.4349(3) -0.00496(8)
H23 H 0.9242 -0.4163 0.0037
H24 H 0.8162 -0.3490 -0.0198
C24 C 0.8337(3) -0.5772(4) -0.02905(9)
H25 H 0.8717 -0.6602 -0.0152
H26 H 0.8687 -0.5617 -0.0518
C25 C 0.7098(3) -0.6164(4) -0.03960(9)
H27 H 0.6721 -0.5348 -0.0541
H28 H 0.7032 -0.7064 -0.0551
C26 C 0.6541(3) -0.6427(4) -0.00429(9)
H29 H 0.5741 -0.6579 -0.0110
H30 H 0.6850 -0.7323 0.0086
C27 C 0.6287(2) -0.5054(3) 0.05432(8)
C28 C 0.8020(2) -0.3900(3) 0.06136(8)
C29 C 0.6902(2) -0.3827(3) 0.11609(8)
C30 C 0.7649(3) -0.4292(4) 0.14625(8)
H31 H 0.8265 -0.4886 0.1426
C31 C 0.7462(3) -0.3852(4) 0.18207(9)
H32 H 0.7951 -0.4128 0.2032
C32 C 0.6521(3) -0.2988(4) 0.18529(9)
C33 C 0.5804(3) -0.2617(4) 0.15341(9)
H33 H 0.5161 -0.2069 0.1563
loop_
_geom_bond_atom_site_label_1
_geom_bond_atom_site_label_2
_geom_bond_site_symmetry_1
_geom_bond_site_symmetry_2
Cl1 C10 1_555 1_555
S1 C5 1_555 1_555
O1 C6 1_555 1_555
N1 C7 1_555 1_555
N2 C5 1_555 1_555
N3 N4 1_555 1_555
N4 C4 1_555 1_555
C1 N3 1_555 1_555
H1 C1 1_555 1_555
H2 C1 1_555 1_555
C2 C1 1_555 1_555
H3 C2 1_555 1_555
H4 C2 1_555 1_555
C3 C2 1_555 1_555
H5 C3 1_555 1_555
H6 C3 1_555 1_555
C4 C3 1_555 1_555
H7 C4 1_555 1_555
H8 C4 1_555 1_555
C5 N4 1_555 1_555
C6 N2 1_555 1_555
C7 N2 1_555 1_555
C8 C7 1_555 1_555
H9 C8 1_555 1_555
C9 C8 1_555 1_555
H10 C9 1_555 1_555
C10 C9 1_555 1_555
C11 N1 1_555 1_555
H11 C11 1_555 1_555
Cl2 C21 1_555 1_555
S2 C16 1_555 1_555
O2 C17 1_555 1_555
N5 C18 1_555 1_555
N6 C16 1_555 1_555
N7 N8 1_555 1_555
N8 C15 1_555 1_555
C12 N7 1_555 1_555
H12 C12 1_555 1_555
H13 C12 1_555 1_555
C13 C12 1_555 1_555
H14 C13 1_555 1_555
H15 C13 1_555 1_555
C14 C13 1_555 1_555
H16 C14 1_555 1_555
H17 C14 1_555 1_555
C15 C14 1_555 1_555
H18 C15 1_555 1_555
H19 C15 1_555 1_555
C16 N8 1_555 1_555
C17 N6 1_555 1_555
C18 N6 1_555 1_555
C19 C18 1_555 1_555
H20 C19 1_555 1_555
C20 C19 1_555 1_555
H21 C20 1_555 1_555
C21 C20 1_555 1_555
C22 N5 1_555 1_555
H22 C22 1_555 1_555
Cl3 C32 1_555 1_555
S3 C28 1_555 1_555
O3 C27 1_555 1_555
N9 C29 1_555 1_555
N10 C27 1_555 1_555
N11 N12 1_555 1_555
N12 C23 1_555 1_555
C23 H23 1_555 1_555
H24 C23 1_555 1_555
C24 C23 1_555 1_555
H25 C24 1_555 1_555
H26 C24 1_555 1_555
C25 C24 1_555 1_555
H27 C25 1_555 1_555
H28 C25 1_555 1_555
C26 N11 1_555 1_555
H29 C26 1_555 1_555
H30 C26 1_555 1_555
C27 N11 1_555 1_555
C28 N10 1_555 1_555
C29 N10 1_555 1_555
C30 C29 1_555 1_555
H31 C30 1_555 1_555
C31 C30 1_555 1_555
H32 C31 1_555 1_555
C32 C31 1_555 1_555
C33 N9 1_555 1_555
H33 C33 1_555 1_555
N3 C6 1_555 1_555
C10 C11 1_555 1_555
N7 C17 1_555 1_555
C21 C22 1_555 1_555
N12 C28 1_555 1_555
C25 C26 1_555 1_555
C32 C33 1_555 1_555

#END
