
#######################################################################
#
#                 Cambridge Crystallographic Data Centre
#                                CCDC 
#
#######################################################################
#
# If this CIF has been generated from an entry in the Cambridge 
# Structural Database, then it will include bibliographic, chemical, 
# crystal, experimental, refinement or atomic coordinate data resulting 
# from the CCDC's data processing and validation procedures.
#
#######################################################################

data_QOZZIQ
_chemical_formula_moiety         'C26 H19 O1 P1'
_chemical_name_systematic        '1,2,3-Triphenyl-1H-phosphindole 1-oxide'
_symmetry_cell_setting           monoclinic
_symmetry_space_group_name_H-M   'P 21/c'
_symmetry_Int_Tables_number      14
_space_group_name_Hall           '-P 2ybc'
loop_
_symmetry_equiv_pos_site_id
_symmetry_equiv_pos_as_xyz
1 x,y,z
2 -x,1/2+y,1/2-z
3 -x,-y,-z
4 x,1/2-y,1/2+z
_cell_length_a                   9.5752(2)
_cell_length_b                   11.2633(2)
_cell_length_c                   18.7800(3)
_cell_angle_alpha                90
_cell_angle_beta                 101.375(2)
_cell_angle_gamma                90
_cell_volume                     1985.61
_exptl_crystal_colour            colorless
_exptl_crystal_description       block
_cell_formula_units_Z            4
loop_
_atom_site_label
_atom_site_type_symbol
_atom_site_fract_x
_atom_site_fract_y
_atom_site_fract_z
O1 O 0.7656(2) 0.42783(15) 0.60016(10)
P1 P 0.71897(11) 0.31320(7) 0.56571(5)
C1 C 0.5320(6) 0.2825(5) 0.5366(3)
C2 C 0.4299(7) 0.3445(4) 0.4877(3)
H1 H 0.4550 0.4110 0.4617
C3 C 0.2901(7) 0.3057(5) 0.4782(3)
H2 H 0.2180 0.3460 0.4450
C4 C 0.2538(6) 0.2095(6) 0.5163(4)
H3 H 0.1570 0.1855 0.5095
C5 C 0.3564(8) 0.1474(5) 0.5643(3)
H4 H 0.3307 0.0809 0.5900
C6 C 0.4971(7) 0.1837(5) 0.5740(3)
C7 C 0.6209(4) 0.1295(4) 0.62487(19)
C8 C 0.5924(5) 0.0277(4) 0.6708(2)
C9 C 0.5396(7) -0.0780(7) 0.6384(5)
H5 H 0.5317 -0.0864 0.5874
C10 C 0.4985(17) -0.1708(13) 0.6763(6)
H6 H 0.4757 -0.2455 0.6535
C11 C 0.4909(10) -0.1552(9) 0.7461(5)
H7 H 0.4476 -0.2148 0.7703
C12 C 0.5441(12) -0.0554(10) 0.7836(6)
H8 H 0.5379 -0.0457 0.8331
C13 C 0.6064(16) 0.0301(10) 0.7483(6)
H9 H 0.6595 0.0919 0.7756
C14 C 0.7450(6) 0.1851(3) 0.6253(2)
C15 C 0.8918(7) 0.1573(7) 0.6675(3)
C16 C 0.9273(8) 0.0472(8) 0.7016(4)
H10 H 0.8576 -0.0139 0.6970
C17 C 1.0636(10) 0.0268(7) 0.7421(4)
H11 H 1.0858 -0.0466 0.7667
C18 C 1.1646(7) 0.1130(7) 0.7461(3)
H12 H 1.2573 0.0990 0.7738
C19 C 1.1352(6) 0.2203(6) 0.7108(4)
H13 H 1.2075 0.2788 0.7135
C20 C 0.9984(8) 0.2421(5) 0.6712(3)
H14 H 0.9779 0.3156 0.6465
C21 C 0.8028(6) 0.2855(6) 0.4910(4)
C22 C 0.8523(12) 0.3812(8) 0.4583(5)
H15 H 0.8454 0.4586 0.4773
C23 C 0.9121(13) 0.3658(8) 0.3978(5)
H16 H 0.9504 0.4317 0.3766
C24 C 0.9159(11) 0.2550(8) 0.3688(5)
H17 H 0.9502 0.2454 0.3250
C25 C 0.8712(12) 0.1579(7) 0.4015(5)
H18 H 0.8784 0.0809 0.3818
C26 C 0.8149(9) 0.1725(7) 0.4640(4)
H19 H 0.7852 0.1055 0.4879
P2? P 0.8107(2) 0.29121(14) 0.59194(8)
C27? C 0.9450(13) 0.2116(10) 0.6535(5)
C28? C 1.0904(14) 0.2328(9) 0.6728(5)
H20? H 1.1322 0.2971 0.6518
C29? C 1.1747(12) 0.1583(13) 0.7235(6)
H21? H 1.2733 0.1739 0.7399
C30? C 1.1112(14) 0.0617(11) 0.7493(6)
H22? H 1.1680 0.0088 0.7824
C31? C 0.9650(15) 0.0397(14) 0.7279(7)
H23? H 0.9239 -0.0272 0.7468
C32? C 0.8821(13) 0.1133(11) 0.6806(6)
C33? C 0.7261(7) 0.1059(5) 0.6536(3)
C34? C 0.6488(9) 0.0118(8) 0.6852(5)
C35? C 0.616(2) 0.048(2) 0.7498(8)
H24? H 0.6217 0.1290 0.7649
C36? C 0.575(2) -0.0425(16) 0.7910(11)
H25? H 0.5841 -0.0328 0.8420
C37? C 0.5191(18) -0.1473(15) 0.7583(8)
H26? H 0.4836 -0.2065 0.7860
C38? C 0.516(3) -0.166(2) 0.6848(10)
H27? H 0.4619 -0.2291 0.6599
C39? C 0.5926(13) -0.0887(13) 0.6478(9)
H28? H 0.6054 -0.1049 0.5999
C40? C 0.6674(10) 0.1890(8) 0.6056(4)
C41? C 0.5224(15) 0.2157(13) 0.5684(9)
C42? C 0.4063(14) 0.1529(13) 0.5841(8)
H29? H 0.4237 0.0930 0.6203
C43? C 0.2663(14) 0.1741(12) 0.5491(8)
H30? H 0.1892 0.1287 0.5595
C44? C 0.2451(13) 0.2639(12) 0.4987(7)
H31? H 0.1509 0.2809 0.4737
C45? C 0.3573(16) 0.3304(12) 0.4833(7)
H32? H 0.3390 0.3955 0.4506
C46? C 0.4961(15) 0.3018(13) 0.5156(7)
H33? H 0.5733 0.3419 0.5012
C47? C 0.8446(11) 0.2638(9) 0.4998(6)
C48? C 0.8500(15) 0.1479(11) 0.4755(7)
H34? H 0.8287 0.0841 0.5047
C49? C 0.886(2) 0.1244(12) 0.4090(9)
H35? H 0.8898 0.0447 0.3930
C50? C 0.917(2) 0.2163(12) 0.3660(10)
H36? H 0.9476 0.2003 0.3217
C51? C 0.904(2) 0.3317(14) 0.3884(10)
H37? H 0.9160 0.3954 0.3570
C52? C 0.873(3) 0.3564(14) 0.4559(10)
H38? H 0.8714 0.4362 0.4721
loop_
_geom_bond_atom_site_label_1
_geom_bond_atom_site_label_2
_geom_bond_site_symmetry_1
_geom_bond_site_symmetry_2
O1 P1 1_555 1_555
P1 C1 1_555 1_555
C1 C2 1_555 1_555
C2 H1 1_555 1_555
C3 C2 1_555 1_555
H2 C3 1_555 1_555
C4 C3 1_555 1_555
H3 C4 1_555 1_555
C5 C4 1_555 1_555
H4 C5 1_555 1_555
C6 C1 1_555 1_555
C7 C6 1_555 1_555
C8 C7 1_555 1_555
C9 C8 1_555 1_555
H5 C9 1_555 1_555
C10 C9 1_555 1_555
H6 C10 1_555 1_555
C11 C10 1_555 1_555
H7 C11 1_555 1_555
C12 C11 1_555 1_555
H8 C12 1_555 1_555
C13 C8 1_555 1_555
H9 C13 1_555 1_555
C14 P1 1_555 1_555
C15 C14 1_555 1_555
C16 C15 1_555 1_555
H10 C16 1_555 1_555
C17 C16 1_555 1_555
H11 C17 1_555 1_555
C18 C17 1_555 1_555
H12 C18 1_555 1_555
C19 C18 1_555 1_555
H13 C19 1_555 1_555
C20 C15 1_555 1_555
H14 C20 1_555 1_555
C21 P1 1_555 1_555
C22 C21 1_555 1_555
H15 C22 1_555 1_555
C23 C22 1_555 1_555
H16 C23 1_555 1_555
C24 C23 1_555 1_555
H17 C24 1_555 1_555
C25 C24 1_555 1_555
H18 C25 1_555 1_555
C26 C21 1_555 1_555
H19 C26 1_555 1_555
C5 C6 1_555 1_555
C7 C14 1_555 1_555
C12 C13 1_555 1_555
C19 C20 1_555 1_555
C25 C26 1_555 1_555

#END
