
#######################################################################
#
#                 Cambridge Crystallographic Data Centre
#                                CCDC 
#
#######################################################################
#
# If this CIF has been generated from an entry in the Cambridge 
# Structural Database, then it will include bibliographic, chemical, 
# crystal, experimental, refinement or atomic coordinate data resulting 
# from the CCDC's data processing and validation procedures.
#
#######################################################################

data_QQQCIG23
_chemical_name_common            Rubrene
_chemical_formula_moiety         'C42 H28'
_chemical_name_systematic        5,6,11,12-Tetraphenyltetracene
_symmetry_cell_setting           orthorhombic
_symmetry_space_group_name_H-M   'C m c a'
_symmetry_Int_Tables_number      64
_space_group_name_Hall           '-C 2ac 2'
loop_
_symmetry_equiv_pos_site_id
_symmetry_equiv_pos_as_xyz
1 x,y,z
2 -x,1/2-y,1/2+z
3 x,-y,-z
4 -x,1/2+y,1/2-z
5 1/2+x,1/2+y,z
6 1/2+x,1/2-y,-z
7 1/2-x,y,1/2-z
8 1/2-x,-y,1/2+z
9 -x,-y,-z
10 x,1/2+y,1/2-z
11 -x,y,z
12 x,1/2-y,1/2+z
13 1/2-x,1/2-y,-z
14 1/2-x,1/2+y,z
15 1/2+x,-y,1/2+z
16 1/2+x,y,1/2-z
_cell_length_a                   26.7965(5)
_cell_length_b                   7.15990(10)
_cell_length_c                   14.1519(3)
_cell_angle_alpha                90
_cell_angle_beta                 90
_cell_angle_gamma                90
_cell_volume                     2715.19
_exptl_crystal_colour            orange
_exptl_crystal_description       Block
_cell_formula_units_Z            4
loop_
_atom_site_label
_atom_site_type_symbol
_atom_site_fract_x
_atom_site_fract_y
_atom_site_fract_z
C1 C 0.027363(4) 0.000 0.000
C2 C 0.053282(3) -0.144726(10) 0.049020(5)
C3 C 0.026881(3) -0.296465(9) 0.087609(5)
C4 C 0.052190(3) -0.448123(11) 0.134043(6)
C5 C 0.026565(3) -0.591212(11) 0.175632(6)
C6 C 0.107690(3) -0.135027(10) 0.072749(5)
C7 C 0.142988(3) -0.249463(11) 0.028385(6)
C8 C 0.192345(3) -0.252907(13) 0.059457(7)
C9 C 0.207491(3) -0.140269(14) 0.134836(7)
C10 C 0.172652(3) -0.025087(14) 0.179449(6)
C11 C 0.123090(3) -0.023814(12) 0.148752(6)
H1 H 0.092617 -0.449182 0.136482
H2 H 0.046525 -0.704803 0.209897
H3 H 0.132495 -0.337928 -0.030717
H4 H 0.218757 -0.344762 0.024493
H5 H 0.246207 -0.143906 0.157399
H6 H 0.1831 0.064191 0.238276
H7 H 0.09492 0.062681 0.181976
C1J C -0.027363(4) 0.000 0.000
C2J C -0.053282(3) -0.144726(10) 0.049020(5)
C3J C -0.026881(3) -0.296465(9) 0.087609(5)
C4J C -0.052190(3) -0.448123(11) 0.134043(6)
C5J C -0.026565(3) -0.591212(11) 0.175632(6)
C6J C -0.107690(3) -0.135027(10) 0.072749(5)
C7J C -0.142988(3) -0.249463(11) 0.028385(6)
C8J C -0.192345(3) -0.252907(13) 0.059457(7)
C9J C -0.207491(3) -0.140269(14) 0.134836(7)
C10J C -0.172652(3) -0.025087(14) 0.179449(6)
C11J C -0.123090(3) -0.023814(12) 0.148752(6)
H1J H -0.092617 -0.449182 0.136482
H2J H -0.046525 -0.704803 0.209897
H3J H -0.132495 -0.337928 -0.030717
H4J H -0.218757 -0.344762 0.024493
H5J H -0.246207 -0.143906 0.157399
H6J H -0.1831 0.064191 0.238276
H7J H -0.09492 0.062681 0.181976
C2H C -0.053282(3) 0.144726(10) -0.049020(5)
C3H C -0.026881(3) 0.296465(9) -0.087609(5)
C4H C -0.052190(3) 0.448123(11) -0.134043(6)
C5H C -0.026565(3) 0.591212(11) -0.175632(6)
C6H C -0.107690(3) 0.135027(10) -0.072749(5)
C7H C -0.142988(3) 0.249463(11) -0.028385(6)
C8H C -0.192345(3) 0.252907(13) -0.059457(7)
C9H C -0.207491(3) 0.140269(14) -0.134836(7)
C10H C -0.172652(3) 0.025087(14) -0.179449(6)
C11H C -0.123090(3) 0.023814(12) -0.148752(6)
H1H H -0.092617 0.449182 -0.136482
H2H H -0.046525 0.704803 -0.209897
H3H H -0.132495 0.337928 0.030717
H4H H -0.218757 0.344762 -0.024493
H5H H -0.246207 0.143906 -0.157399
H6H H -0.1831 -0.064191 -0.238276
H7H H -0.09492 -0.062681 -0.181976
C2B C 0.053282(3) 0.144726(10) -0.049020(5)
C3B C 0.026881(3) 0.296465(9) -0.087609(5)
C4B C 0.052190(3) 0.448123(11) -0.134043(6)
C5B C 0.026565(3) 0.591212(11) -0.175632(6)
C6B C 0.107690(3) 0.135027(10) -0.072749(5)
C7B C 0.142988(3) 0.249463(11) -0.028385(6)
C8B C 0.192345(3) 0.252907(13) -0.059457(7)
C9B C 0.207491(3) 0.140269(14) -0.134836(7)
C10B C 0.172652(3) 0.025087(14) -0.179449(6)
C11B C 0.123090(3) 0.023814(12) -0.148752(6)
H1B H 0.092617 0.449182 -0.136482
H2B H 0.046525 0.704803 -0.209897
H3B H 0.132495 0.337928 0.030717
H4B H 0.218757 0.344762 -0.024493
H5B H 0.246207 0.143906 -0.157399
H6B H 0.1831 -0.064191 -0.238276
H7B H 0.09492 -0.062681 -0.181976
loop_
_geom_bond_atom_site_label_1
_geom_bond_atom_site_label_2
_geom_bond_site_symmetry_1
_geom_bond_site_symmetry_2
C1 C2 1_555 1_555
C2 C3 1_555 1_555
C3 C4 1_555 1_555
C4 C5 1_555 1_555
C5 H2 1_555 1_555
C6 C2 1_555 1_555
C7 C6 1_555 1_555
C8 C7 1_555 1_555
C9 C8 1_555 1_555
C10 C9 1_555 1_555
C11 C6 1_555 1_555
H1 C4 1_555 1_555
H3 C7 1_555 1_555
H4 C8 1_555 1_555
H5 C9 1_555 1_555
H6 C10 1_555 1_555
H7 C11 1_555 1_555
C1J C1 1_555 1_555
C2J C1J 1_555 1_555
C3J C3 1_555 1_555
C4J C3J 1_555 1_555
C5J C5 1_555 1_555
C6J C2J 1_555 1_555
C7J C6J 1_555 1_555
C8J C7J 1_555 1_555
C9J C8J 1_555 1_555
C10J C9J 1_555 1_555
C11J C6J 1_555 1_555
H1J C4J 1_555 1_555
H2J C5J 1_555 1_555
H3J C7J 1_555 1_555
H4J C8J 1_555 1_555
H5J C9J 1_555 1_555
H6J C10J 1_555 1_555
H7J C11J 1_555 1_555
C2H C1J 1_555 1_555
C3H C2H 1_555 1_555
C4H C3H 1_555 1_555
C5H C4H 1_555 1_555
C6H C2H 1_555 1_555
C7H C6H 1_555 1_555
C8H C7H 1_555 1_555
C9H C8H 1_555 1_555
C10H C9H 1_555 1_555
C11H C6H 1_555 1_555
H1H C4H 1_555 1_555
H2H C5H 1_555 1_555
H3H C7H 1_555 1_555
H4H C8H 1_555 1_555
H5H C9H 1_555 1_555
H6H C10H 1_555 1_555
H7H C11H 1_555 1_555
C2B C1 1_555 1_555
C3B C3H 1_555 1_555
C4B C3B 1_555 1_555
C5B C5H 1_555 1_555
C6B C2B 1_555 1_555
C7B C6B 1_555 1_555
C8B C7B 1_555 1_555
C9B C8B 1_555 1_555
C10B C9B 1_555 1_555
C11B C6B 1_555 1_555
H1B C4B 1_555 1_555
H2B C5B 1_555 1_555
H3B C7B 1_555 1_555
H4B C8B 1_555 1_555
H5B C9B 1_555 1_555
H6B C10B 1_555 1_555
H7B C11B 1_555 1_555
C10 C11 1_555 1_555
C2J C3J 1_555 1_555
C4J C5J 1_555 1_555
C10J C11J 1_555 1_555
C10H C11H 1_555 1_555
C2B C3B 1_555 1_555
C4B C5B 1_555 1_555
C10B C11B 1_555 1_555

#END
