
#######################################################################
#
#                 Cambridge Crystallographic Data Centre
#                                CCDC 
#
#######################################################################
#
# If this CIF has been generated from an entry in the Cambridge 
# Structural Database, then it will include bibliographic, chemical, 
# crystal, experimental, refinement or atomic coordinate data resulting 
# from the CCDC's data processing and validation procedures.
#
#######################################################################

data_QUBFID
_chemical_formula_moiety         'C20 H16 N2 O3'
_chemical_name_systematic        
2'-(3-phenoxybenzylidene)-2-hydroxybenzohydrazide
_symmetry_cell_setting           monoclinic
_symmetry_space_group_name_H-M   'C c'
_symmetry_Int_Tables_number      9
_space_group_name_Hall           'C -2yc'
loop_
_symmetry_equiv_pos_site_id
_symmetry_equiv_pos_as_xyz
1 x,y,z
2 1/2+x,1/2+y,z
3 x,-y,1/2+z
4 1/2+x,1/2-y,1/2+z
_cell_length_a                   4.8217(11)
_cell_length_b                   32.212(7)
_cell_length_c                   10.992(3)
_cell_angle_alpha                90
_cell_angle_beta                 101.755(5)
_cell_angle_gamma                90
_cell_volume                     1671.44
_cell_formula_units_Z            4
loop_
_atom_site_label
_atom_site_type_symbol
_atom_site_fract_x
_atom_site_fract_y
_atom_site_fract_z
O1 O 0.2378(8) 0.2706(1) -0.0007(3)
O2 O 0.0716(8) 0.2574(1) 0.3533(3)
O3 O 1.2783(11) 0.0732(1) 0.3803(4)
N1 N 0.3447(9) 0.2358(1) 0.1825(4)
N2 N 0.5257(8) 0.2090(1) 0.1391(3)
C1 C 0.2059(10) 0.2661(1) 0.1091(4)
C2 C 0.0240(10) 0.2939(1) 0.1630(4)
C3 C 0.6436(10) 0.1834(2) 0.2195(5)
C4 C 0.8430(10) 0.1518(2) 0.1954(4)
C5 C 0.9175(10) 0.1468(2) 0.0824(4)
C6 C 1.1145(12) 0.1169(2) 0.0673(5)
C7 C 1.2370(11) 0.0915(2) 0.1626(5)
C8 C 1.1561(13) 0.0958(2) 0.2747(5)
C9 C 0.9619(12) 0.1252(2) 0.2923(5)
C10 C -0.0933(11) 0.3277(2) 0.0917(4)
C11 C -0.2703(13) 0.3549(2) 0.1318(5)
C12 C -0.3500(12) 0.3491(2) 0.2451(4)
C13 C -0.2327(10) 0.3162(2) 0.3176(4)
C14 C -0.0503(10) 0.2891(1) 0.2787(4)
C15 C 1.3584(17) 0.0319(2) 0.3695(7)
C16 C 1.5880(19) 0.0195(3) 0.4519(7)
C17 C 1.6720(20) -0.0216(3) 0.4489(9)
C18 C 1.5210(20) -0.0484(2) 0.3677(9)
C19 C 1.2915(19) -0.0356(2) 0.2860(8)
C20 C 1.2048(18) 0.0054(2) 0.2878(9)
loop_
_geom_bond_atom_site_label_1
_geom_bond_atom_site_label_2
_geom_bond_site_symmetry_1
_geom_bond_site_symmetry_2
O1 C1 1_555 1_555
O2 C14 1_555 1_555
O3 C8 1_555 1_555
N1 N2 1_555 1_555
N2 C3 1_555 1_555
C1 N1 1_555 1_555
C2 C1 1_555 1_555
C3 C4 1_555 1_555
C4 C5 1_555 1_555
C5 C6 1_555 1_555
C6 C7 1_555 1_555
C7 C8 1_555 1_555
C8 C9 1_555 1_555
C9 C4 1_555 1_555
C10 C2 1_555 1_555
C11 C10 1_555 1_555
C12 C11 1_555 1_555
C13 C12 1_555 1_555
C14 C2 1_555 1_555
C15 O3 1_555 1_555
C16 C15 1_555 1_555
C17 C16 1_555 1_555
C18 C17 1_555 1_555
C19 C18 1_555 1_555
C20 C15 1_555 1_555
C13 C14 1_555 1_555
C19 C20 1_555 1_555

#END
