
#######################################################################
#
#                 Cambridge Crystallographic Data Centre
#                                CCDC 
#
#######################################################################
#
# If this CIF has been generated from an entry in the Cambridge 
# Structural Database, then it will include bibliographic, chemical, 
# crystal, experimental, refinement or atomic coordinate data resulting 
# from the CCDC's data processing and validation procedures.
#
#######################################################################

data_QUCLAC
_chemical_formula_moiety         'C25 H31 N1 O3'
_chemical_name_systematic        
'(1R,3S)-Methyl 3-[(S)-2-(hydroxydiphenylmethyl)pyrrolidin-1-ylmethyl]-2,2-dimethylcyclopropanecarboxylate'
_symmetry_cell_setting           monoclinic
_symmetry_space_group_name_H-M   'C 2'
_symmetry_Int_Tables_number      5
_space_group_name_Hall           'C 2y'
loop_
_symmetry_equiv_pos_site_id
_symmetry_equiv_pos_as_xyz
1 x,y,z
2 -x,y,-z
3 1/2+x,1/2+y,z
4 1/2-x,1/2+y,-z
_cell_length_a                   34.736(7)
_cell_length_b                   17.729(4)
_cell_length_c                   11.013(2)
_cell_angle_alpha                90
_cell_angle_beta                 97.62(3)
_cell_angle_gamma                90
_cell_volume                     6722.29
_exptl_crystal_colour            colorless
_exptl_crystal_description       strip
_chemical_melting_point          '393 K'
_cell_formula_units_Z            12
loop_
_atom_site_label
_atom_site_type_symbol
_atom_site_fract_x
_atom_site_fract_y
_atom_site_fract_z
O1 O 0.61741(6) 0.71980(12) 0.0217(2)
H1 H 0.6068 0.7249 -0.0510
O5 O 0.55251(9) 1.02781(16) -0.2743(3)
O7 O 0.49276(7) 0.98742(15) -0.3403(3)
N2 N 0.58899(7) 0.84984(15) -0.0687(2)
C2 C 0.64291(8) 0.78108(16) 0.0535(3)
C4 C 0.67399(8) 0.78459(17) -0.0334(3)
C9 C 0.69694(8) 0.84829(19) -0.0430(3)
H6 H 0.6942 0.8907 0.0078
C11 C 0.72399(9) 0.8506(2) -0.1263(3)
H8 H 0.7395 0.8944 -0.1314
C13 C 0.72818(9) 0.7893(2) -0.2012(3)
H10 H 0.7461 0.7913 -0.2594
C17 C 0.70623(10) 0.7253(2) -0.1910(3)
H14 H 0.7094 0.6828 -0.2413
C21 C 0.67956(9) 0.72283(18) -0.1076(3)
H18 H 0.6648 0.6782 -0.1009
C23 C 0.66136(8) 0.76902(17) 0.1854(3)
C26 C 0.68768(10) 0.8206(2) 0.2450(3)
H20 H 0.6954 0.8631 0.2014
C28 C 0.70284(12) 0.8108(3) 0.3671(4)
H22 H 0.7209 0.8462 0.4061
C32 C 0.69168(12) 0.7497(3) 0.4321(4)
H26 H 0.7016 0.7435 0.5161
C36 C 0.66611(12) 0.6982(2) 0.3742(3)
H30 H 0.6586 0.6557 0.4182
C38 C 0.65107(10) 0.70757(19) 0.2516(3)
H32 H 0.6335 0.6712 0.2127
C40 C 0.61745(8) 0.85411(17) 0.0434(3)
H34 H 0.6343 0.8996 0.0402
C45 C 0.59243(9) 0.86225(18) 0.1472(3)
H41 H 0.5843 0.8123 0.1751
H42 H 0.6067 0.8895 0.2179
C47 C 0.55793(11) 0.9070(3) 0.0899(4)
H45 H 0.5639 0.9617 0.0899
H46 H 0.5351 0.8986 0.1333
C49 C 0.55103(9) 0.8763(3) -0.0387(3)
H49 H 0.5322 0.8341 -0.0437
H50 H 0.5405 0.9162 -0.0967
C54 C 0.60099(9) 0.88466(19) -0.1784(3)
H59 H 0.6284 0.8716 -0.1839
H60 H 0.5991 0.9402 -0.1722
C57 C 0.57583(10) 0.85798(19) -0.2918(3)
H63 H 0.5707 0.8025 -0.2913
C58 C 0.54190(10) 0.9032(2) -0.3598(3)
H64 H 0.5192 0.8715 -0.3944
C62 C 0.57894(12) 0.8878(3) -0.4164(3)
C66 C 0.60725(14) 0.9508(3) -0.4305(5)
H73 H 0.6291 0.9312 -0.4688
H74 H 0.6169 0.9716 -0.3496
H75 H 0.5941 0.9906 -0.4821
C69 C 0.57365(16) 0.8325(3) -0.5219(4)
H82 H 0.5984 0.8256 -0.5539
H83 H 0.5542 0.8521 -0.5870
H84 H 0.5648 0.7839 -0.4932
C71 C 0.53123(11) 0.9789(2) -0.3215(3)
C75 C 0.47831(16) 1.0591(3) -0.3037(6)
H91 H 0.4499 1.0596 -0.3208
H92 H 0.4890 1.0997 -0.3497
H93 H 0.4863 1.0666 -0.2158
O2 O 0.87641(7) 0.55390(12) -0.0018(2)
H2 H 0.8875 0.5614 0.0697
O6 O 0.95309(8) 0.84700(15) 0.3125(4)
O8 O 1.00025(7) 0.76433(16) 0.3560(2)
N1 N 0.90248(7) 0.68825(17) 0.0848(2)
C1 C 0.85125(8) 0.61510(16) -0.0382(3)
C6 C 0.82046(9) 0.62294(18) 0.0509(3)
C8 C 0.81643(10) 0.56596(19) 0.1355(3)
H5 H 0.8322 0.5221 0.1368
C12 C 0.78966(12) 0.5725(2) 0.2177(3)
H9 H 0.7874 0.5332 0.2749
C15 C 0.76616(11) 0.6356(3) 0.2178(3)
H12 H 0.7481 0.6401 0.2751
C16 C 0.76942(9) 0.6920(2) 0.1327(3)
H13 H 0.7532 0.7352 0.1304
C20 C 0.79635(9) 0.6857(2) 0.0507(3)
H17 H 0.7984 0.7250 -0.0068
C24 C 0.83178(9) 0.59895(17) -0.1678(3)
C25 C 0.80633(10) 0.6500(2) -0.2317(3)
H19 H 0.8003 0.6957 -0.1935
C30 C 0.78971(10) 0.6349(2) -0.3504(3)
H24 H 0.7722 0.6703 -0.3922
C31 C 0.79803(10) 0.5699(2) -0.4089(3)
H25 H 0.7867 0.5604 -0.4908
C35 C 0.82314(12) 0.5183(2) -0.3466(3)
H29 H 0.8290 0.4726 -0.3852
C37 C 0.83986(11) 0.53344(19) -0.2275(3)
H31 H 0.8573 0.4978 -0.1860
C41 C 0.87728(8) 0.68750(18) -0.0340(2)
H35 H 0.8607 0.7338 -0.0431
C43 C 0.90579(9) 0.6871(2) -0.1302(3)
H37 H 0.8987 0.6473 -0.1922
H38 H 0.9057 0.7365 -0.1722
C46 C 0.94574(10) 0.6712(3) -0.0572(3)
H43 H 0.9507 0.6163 -0.0487
H44 H 0.9668 0.6950 -0.0960
C50 C 0.94190(9) 0.7067(3) 0.0640(3)
H51 H 0.9611 0.6854 0.1295
H52 H 0.9456 0.7620 0.0608
C53 C 0.88879(9) 0.73210(18) 0.1836(3)
H57 H 0.8600 0.7333 0.1718
H58 H 0.8983 0.7846 0.1809
C56 C 0.90315(9) 0.69780(19) 0.3067(3)
H62 H 0.8992 0.6420 0.3097
C60 C 0.93935(9) 0.72480(19) 0.3894(3)
H66 H 0.9545 0.6838 0.4362
C61 C 0.89832(10) 0.7365(2) 0.4234(3)
C65 C 0.88819(16) 0.6850(4) 0.5251(4)
H70 H 0.8617 0.6958 0.5416
H71 H 0.9065 0.6938 0.5995
H72 H 0.8899 0.6323 0.4996
C67 C 0.87987(12) 0.8133(3) 0.4212(4)
H76 H 0.8538 0.8091 0.4457
H77 H 0.8779 0.8342 0.3382
H78 H 0.8958 0.8467 0.4783
C70 C 0.96302(9) 0.78642(19) 0.3501(3)
C73 C 1.02614(12) 0.8199(3) 0.3171(5)
H85 H 1.0525 0.7993 0.3246
H86 H 1.0260 0.8650 0.3686
H87 H 1.0176 0.8334 0.2314
O3 O 0.87006(7) 0.87326(12) 0.9332(2)
H3 H 0.8845 0.8878 0.9980
O4 O 0.95265(7) 1.17966(15) 1.1925(3)
O9 O 1.01025(8) 1.13285(18) 1.2684(4)
N3 N 0.90658(7) 0.99525(15) 1.0363(2)
C3 C 0.84952(8) 0.94225(16) 0.9081(3)
C5 C 0.82002(8) 0.95341(16) 0.9997(3)
C7 C 0.79781(9) 1.01844(19) 0.9986(3)
H4 H 0.8006 1.0566 0.9398
C10 C 0.77159(9) 1.0288(2) 1.0822(3)
H7 H 0.7565 1.0736 1.0796
C14 C 0.76748(10) 0.9744(2) 1.1686(3)
H11 H 0.7497 0.9815 1.2262
C18 C 0.78927(11) 0.9095(2) 1.1707(3)
H15 H 0.7865 0.8717 1.2300
C19 C 0.81547(9) 0.89896(18) 1.0864(3)
H16 H 0.8303 0.8539 1.0887
C22 C 0.82818(8) 0.93710(19) 0.7772(3)
C27 C 0.82172(10) 0.8679(2) 0.7206(3)
H21 H 0.8302 0.8230 0.7629
C29 C 0.80270(13) 0.8643(3) 0.6005(4)
H23 H 0.7983 0.8166 0.5619
C33 C 0.79036(12) 0.9281(3) 0.5377(4)
H27 H 0.7776 0.9249 0.4561
C34 C 0.79658(11) 0.9970(3) 0.5934(4)
H28 H 0.7880 1.0417 0.5504
C39 C 0.81537(10) 1.0015(2) 0.7127(3)
H33 H 0.8195 1.0495 0.7507
C42 C 0.88061(8) 1.00581(17) 0.9191(3)
H36 H 0.8678 1.0563 0.9176
C44 C 0.90755(9) 1.0015(2) 0.8189(3)
H39 H 0.8971 0.9659 0.7535
H40 H 0.9104 1.0518 0.7819
C48 C 0.94672(10) 0.9736(3) 0.8845(4)
H47 H 0.9478 0.9178 0.8882
H48 H 0.9687 0.9927 0.8446
C51 C 0.94646(9) 1.0081(3) 1.0113(4)
H53 H 0.9654 0.9826 1.0729
H54 H 0.9525 1.0627 1.0108
C52 C 0.89627(9) 1.04214(17) 1.1372(3)
H55 H 0.8685 1.0350 1.1452
H56 H 0.9004 1.0960 1.1187
C55 C 0.92066(10) 1.02140(18) 1.2559(3)
H61 H 0.9229 0.9658 1.2701
C59 C 0.95673(10) 1.0655(2) 1.3112(3)
H65 H 0.9778 1.0330 1.3547
C63 C 0.91957(12) 1.0658(2) 1.3705(3)
C64 C 0.89454(13) 1.1358(3) 1.3665(4)
H67 H 0.8720 1.1260 1.4089
H68 H 0.8857 1.1493 1.2810
H69 H 0.9097 1.1775 1.4069
C68 C 0.92173(17) 1.0215(3) 1.4887(4)
H79 H 0.8968 1.0248 1.5208
H80 H 0.9423 1.0424 1.5489
H81 H 0.9275 0.9685 1.4730
C72 C 0.97119(10) 1.1316(2) 1.2508(3)
C74 C 1.02795(15) 1.1948(3) 1.2119(7)
H88 H 1.0563 1.1912 1.2305
H89 H 1.0192 1.2426 1.2437
H90 H 1.0205 1.1929 1.1230
loop_
_geom_bond_atom_site_label_1
_geom_bond_atom_site_label_2
_geom_bond_site_symmetry_1
_geom_bond_site_symmetry_2
O1 H1 1_555 1_555
O2 H2 1_555 1_555
O3 H3 1_555 1_555
O4 C72 1_555 1_555
O5 C71 1_555 1_555
O6 C70 1_555 1_555
O7 C71 1_555 1_555
O8 C70 1_555 1_555
O9 C72 1_555 1_555
N1 C41 1_555 1_555
N2 C40 1_555 1_555
N3 C42 1_555 1_555
C1 O2 1_555 1_555
C2 O1 1_555 1_555
C3 O3 1_555 1_555
C4 C2 1_555 1_555
C5 C3 1_555 1_555
C6 C1 1_555 1_555
C7 C5 1_555 1_555
H4 C7 1_555 1_555
C8 C6 1_555 1_555
H5 C8 1_555 1_555
C9 C4 1_555 1_555
H6 C9 1_555 1_555
C10 C7 1_555 1_555
H7 C10 1_555 1_555
C11 C9 1_555 1_555
H8 C11 1_555 1_555
C12 C8 1_555 1_555
H9 C12 1_555 1_555
C13 C11 1_555 1_555
H10 C13 1_555 1_555
C14 C10 1_555 1_555
H11 C14 1_555 1_555
C15 C12 1_555 1_555
H12 C15 1_555 1_555
C16 C15 1_555 1_555
H13 C16 1_555 1_555
C17 C13 1_555 1_555
H14 C17 1_555 1_555
C18 C14 1_555 1_555
H15 C18 1_555 1_555
C19 C5 1_555 1_555
H16 C19 1_555 1_555
C20 C6 1_555 1_555
H17 C20 1_555 1_555
C21 C4 1_555 1_555
H18 C21 1_555 1_555
C22 C3 1_555 1_555
C23 C2 1_555 1_555
C24 C1 1_555 1_555
C25 C24 1_555 1_555
H19 C25 1_555 1_555
C26 C23 1_555 1_555
H20 C26 1_555 1_555
C27 C22 1_555 1_555
H21 C27 1_555 1_555
C28 C26 1_555 1_555
H22 C28 1_555 1_555
C29 C27 1_555 1_555
H23 C29 1_555 1_555
C30 C25 1_555 1_555
H24 C30 1_555 1_555
C31 C30 1_555 1_555
H25 C31 1_555 1_555
C32 C28 1_555 1_555
H26 C32 1_555 1_555
C33 C29 1_555 1_555
H27 C33 1_555 1_555
C34 C33 1_555 1_555
H28 C34 1_555 1_555
C35 C31 1_555 1_555
H29 C35 1_555 1_555
C36 C32 1_555 1_555
H30 C36 1_555 1_555
C37 C24 1_555 1_555
H31 C37 1_555 1_555
C38 C23 1_555 1_555
H32 C38 1_555 1_555
C39 C22 1_555 1_555
H33 C39 1_555 1_555
C40 C2 1_555 1_555
H34 C40 1_555 1_555
C41 C1 1_555 1_555
H35 C41 1_555 1_555
C42 C3 1_555 1_555
H36 C42 1_555 1_555
C43 C41 1_555 1_555
H37 C43 1_555 1_555
H38 C43 1_555 1_555
C44 C42 1_555 1_555
H39 C44 1_555 1_555
H40 C44 1_555 1_555
C45 C40 1_555 1_555
H41 C45 1_555 1_555
H42 C45 1_555 1_555
C46 C43 1_555 1_555
H43 C46 1_555 1_555
H44 C46 1_555 1_555
C47 C45 1_555 1_555
H45 C47 1_555 1_555
H46 C47 1_555 1_555
C48 C44 1_555 1_555
H47 C48 1_555 1_555
H48 C48 1_555 1_555
C49 N2 1_555 1_555
H49 C49 1_555 1_555
H50 C49 1_555 1_555
C50 N1 1_555 1_555
H51 C50 1_555 1_555
H52 C50 1_555 1_555
C51 N3 1_555 1_555
H53 C51 1_555 1_555
H54 C51 1_555 1_555
C52 N3 1_555 1_555
H55 C52 1_555 1_555
H56 C52 1_555 1_555
C53 N1 1_555 1_555
H57 C53 1_555 1_555
H58 C53 1_555 1_555
C54 N2 1_555 1_555
H59 C54 1_555 1_555
H60 C54 1_555 1_555
C55 C52 1_555 1_555
H61 C55 1_555 1_555
C56 C53 1_555 1_555
H62 C56 1_555 1_555
C57 C54 1_555 1_555
H63 C57 1_555 1_555
C58 C57 1_555 1_555
H64 C58 1_555 1_555
C59 C55 1_555 1_555
H65 C59 1_555 1_555
C60 C56 1_555 1_555
H66 C60 1_555 1_555
C61 C56 1_555 1_555
C62 C57 1_555 1_555
C63 C55 1_555 1_555
C64 C63 1_555 1_555
H67 C64 1_555 1_555
H68 C64 1_555 1_555
H69 C64 1_555 1_555
C65 C61 1_555 1_555
H70 C65 1_555 1_555
H71 C65 1_555 1_555
H72 C65 1_555 1_555
C66 C62 1_555 1_555
H73 C66 1_555 1_555
H74 C66 1_555 1_555
H75 C66 1_555 1_555
C67 C61 1_555 1_555
H76 C67 1_555 1_555
H77 C67 1_555 1_555
H78 C67 1_555 1_555
C68 C63 1_555 1_555
H79 C68 1_555 1_555
H80 C68 1_555 1_555
H81 C68 1_555 1_555
C69 C62 1_555 1_555
H82 C69 1_555 1_555
H83 C69 1_555 1_555
H84 C69 1_555 1_555
C70 C60 1_555 1_555
C71 C58 1_555 1_555
C72 C59 1_555 1_555
C73 O8 1_555 1_555
H85 C73 1_555 1_555
H86 C73 1_555 1_555
H87 C73 1_555 1_555
C74 O9 1_555 1_555
H88 C74 1_555 1_555
H89 C74 1_555 1_555
H90 C74 1_555 1_555
C75 O7 1_555 1_555
H91 C75 1_555 1_555
H92 C75 1_555 1_555
H93 C75 1_555 1_555
C16 C20 1_555 1_555
C17 C21 1_555 1_555
C18 C19 1_555 1_555
C34 C39 1_555 1_555
C35 C37 1_555 1_555
C36 C38 1_555 1_555
C46 C50 1_555 1_555
C47 C49 1_555 1_555
C48 C51 1_555 1_555
C58 C62 1_555 1_555
C59 C63 1_555 1_555
C60 C61 1_555 1_555

#END
