
#######################################################################
#
#                 Cambridge Crystallographic Data Centre
#                                CCDC 
#
#######################################################################
#
# If this CIF has been generated from an entry in the Cambridge 
# Structural Database, then it will include bibliographic, chemical, 
# crystal, experimental, refinement or atomic coordinate data resulting 
# from the CCDC's data processing and validation procedures.
#
#######################################################################

data_QUCRIR
_chemical_formula_moiety         'C22 H17 N1 O1'
_chemical_name_systematic        
9b-Benzyl-2-methyl-2,9b-dihydro-1H-indeno[1,2,3-cd]indol-1-one
_symmetry_cell_setting           monoclinic
_symmetry_space_group_name_H-M   'P 21/n'
_symmetry_Int_Tables_number      14
_space_group_name_Hall           '-P 2yn'
loop_
_symmetry_equiv_pos_site_id
_symmetry_equiv_pos_as_xyz
1 x,y,z
2 1/2-x,1/2+y,1/2-z
3 -x,-y,-z
4 1/2+x,1/2-y,1/2+z
_cell_length_a                   8.8912(13)
_cell_length_b                   16.859(3)
_cell_length_c                   11.2380(11)
_cell_angle_alpha                90
_cell_angle_beta                 108.555(8)
_cell_angle_gamma                90
_cell_volume                     1596.97
_exptl_crystal_colour            colorless
_exptl_crystal_description       prism
_cell_formula_units_Z            4
loop_
_atom_site_label
_atom_site_type_symbol
_atom_site_fract_x
_atom_site_fract_y
_atom_site_fract_z
O1 O 0.02874(11) 0.10014(5) 0.33998(8)
N1 N 0.24411(12) 0.01471(6) 0.40336(10)
C1 C 0.33573(13) 0.02329(7) 0.23863(11)
C2 C 0.22062(13) 0.08956(7) 0.21991(10)
C3 C 0.14326(14) 0.06927(7) 0.32197(11)
C4 C 0.34841(14) -0.02036(7) 0.34569(12)
C5 C 0.42650(15) -0.09354(7) 0.36032(14)
H1 H 0.4450 -0.1243 0.4345
C6 C 0.47630(15) -0.11941(8) 0.25946(15)
H2 H 0.5412 -0.1654 0.2712
C7 C 0.43515(15) -0.08094(8) 0.14260(14)
H3 H 0.4618 -0.1031 0.0742
C8 C 0.35300(14) -0.00843(7) 0.13023(12)
C9 C 0.23785(14) 0.03598(7) 0.02562(11)
C10 C 0.20349(16) 0.03128(8) -0.10447(12)
H4 H 0.2648 -0.0016 -0.1401
C11 C 0.07721(17) 0.07585(9) -0.18120(12)
H5 H 0.0549 0.0743 -0.2696
C12 C -0.01660(16) 0.12252(8) -0.13065(12)
H6 H -0.1044 0.1505 -0.1850
C13 C 0.01748(15) 0.12852(7) -0.00012(12)
H7 H -0.0451 0.1612 0.0345
C14 C 0.14447(14) 0.08577(7) 0.07733(11)
C15 C 0.29798(15) 0.17355(7) 0.25991(11)
H8 H 0.2124 0.2136 0.2437
H9 H 0.3545 0.1731 0.3514
C16 C 0.41304(14) 0.19852(7) 0.19259(11)
C17 C 0.57391(15) 0.17864(7) 0.24064(12)
H10 H 0.6105 0.1484 0.3157
C18 C 0.68176(15) 0.20242(8) 0.18046(12)
H11 H 0.7903 0.1878 0.2138
C19 C 0.62935(16) 0.24767(8) 0.07116(13)
H12 H 0.7025 0.2649 0.0307
C20 C 0.46935(16) 0.26754(7) 0.02151(12)
H13 H 0.4333 0.2980 -0.0534
C21 C 0.36204(15) 0.24286(7) 0.08143(12)
H14 H 0.2530 0.2563 0.0465
C22 C 0.21533(16) -0.01515(8) 0.51599(12)
H15 H 0.1462 0.0218 0.5414
H16 H 0.3165 -0.0201 0.5838
H17 H 0.1640 -0.0672 0.4984
loop_
_geom_bond_atom_site_label_1
_geom_bond_atom_site_label_2
_geom_bond_site_symmetry_1
_geom_bond_site_symmetry_2
O1 C3 1_555 1_555
N1 C3 1_555 1_555
C1 C2 1_555 1_555
C2 C3 1_555 1_555
C4 N1 1_555 1_555
C5 C4 1_555 1_555
H1 C5 1_555 1_555
C6 C5 1_555 1_555
H2 C6 1_555 1_555
C7 C6 1_555 1_555
H3 C7 1_555 1_555
C8 C1 1_555 1_555
C9 C8 1_555 1_555
C10 C9 1_555 1_555
H4 C10 1_555 1_555
C11 C10 1_555 1_555
H5 C11 1_555 1_555
C12 C11 1_555 1_555
H6 C12 1_555 1_555
C13 C12 1_555 1_555
H7 C13 1_555 1_555
C14 C2 1_555 1_555
C15 C2 1_555 1_555
H8 C15 1_555 1_555
H9 C15 1_555 1_555
C16 C15 1_555 1_555
C17 C16 1_555 1_555
H10 C17 1_555 1_555
C18 C17 1_555 1_555
H11 C18 1_555 1_555
C19 C18 1_555 1_555
H12 C19 1_555 1_555
C20 C19 1_555 1_555
H13 C20 1_555 1_555
C21 C16 1_555 1_555
H14 C21 1_555 1_555
C22 N1 1_555 1_555
H15 C22 1_555 1_555
H16 C22 1_555 1_555
H17 C22 1_555 1_555
C1 C4 1_555 1_555
C7 C8 1_555 1_555
C9 C14 1_555 1_555
C13 C14 1_555 1_555
C20 C21 1_555 1_555

#END
