
#######################################################################
#
#                 Cambridge Crystallographic Data Centre
#                                CCDC 
#
#######################################################################
#
# If this CIF has been generated from an entry in the Cambridge 
# Structural Database, then it will include bibliographic, chemical, 
# crystal, experimental, refinement or atomic coordinate data resulting 
# from the CCDC's data processing and validation procedures.
#
#######################################################################

data_QUCROX
_chemical_formula_moiety         'C22 H16 F1 N1 O1'
_chemical_name_systematic        
9b-(4-fluorobenzyl)-2-methyl-1-oxo-2,8,9b,9c-tetrahydro-1H-indeno[1,2,3-cd]indol-2-ium-8-ide
_symmetry_cell_setting           monoclinic
_symmetry_space_group_name_H-M   'P 21/n'
_symmetry_Int_Tables_number      14
_space_group_name_Hall           '-P 2yn'
loop_
_symmetry_equiv_pos_site_id
_symmetry_equiv_pos_as_xyz
1 x,y,z
2 1/2-x,1/2+y,1/2-z
3 -x,-y,-z
4 1/2+x,1/2-y,1/2+z
_cell_length_a                   8.9220(5)
_cell_length_b                   16.7585(7)
_cell_length_c                   11.2263(6)
_cell_angle_alpha                90
_cell_angle_beta                 108.038(6)
_cell_angle_gamma                90
_cell_volume                     1596.05
_exptl_crystal_colour            colorless
_exptl_crystal_description       prism
_cell_formula_units_Z            4
loop_
_atom_site_label
_atom_site_type_symbol
_atom_site_fract_x
_atom_site_fract_y
_atom_site_fract_z
F1 F 0.74815(11) 0.23323(6) 0.03068(9)
O1 O 0.02447(12) 0.40069(6) 0.33572(9)
N1 N 0.24103(14) 0.48431(7) 0.39998(11)
C1 C 0.33186(15) 0.47641(8) 0.23568(13)
C2 C 0.21748(16) 0.41025(8) 0.21661(12)
C3 C 0.13986(16) 0.43058(8) 0.31817(12)
C4 C 0.34504(16) 0.51936(8) 0.34256(13)
C5 C 0.42447(17) 0.59216(9) 0.35847(16)
H1 H 0.4439 0.6224 0.4333
C6 C 0.47417(18) 0.61836(9) 0.25804(17)
H2 H 0.5395 0.6643 0.2701
C7 C 0.43303(17) 0.58076(9) 0.14159(16)
H3 H 0.4599 0.6034 0.0734
C8 C 0.35055(16) 0.50829(8) 0.12838(14)
C9 C 0.23751(16) 0.46418(8) 0.02408(13)
C10 C 0.20520(18) 0.46943(9) -0.10481(14)
H4 H 0.2667 0.5028 -0.1399
C11 C 0.0815(2) 0.42508(10) -0.18124(14)
H5 H 0.0603 0.4271 -0.2695
C12 C -0.01234(19) 0.37772(9) -0.13155(14)
H6 H -0.0992 0.3496 -0.1860
C13 C 0.02018(17) 0.37123(8) -0.00239(14)
H7 H -0.0421 0.3378 0.0318
C14 C 0.14417(16) 0.41415(8) 0.07504(13)
C15 C 0.21359(19) 0.51324(10) 0.51298(14)
H8 H 0.1656 0.5664 0.4976
H9 H 0.3141 0.5163 0.5805
H10 H 0.1426 0.4766 0.5373
C16 C 0.29272(17) 0.32582(8) 0.25595(13)
H11 H 0.3435 0.3252 0.3478
H12 H 0.2076 0.2854 0.2357
C17 C 0.41307(16) 0.30240(7) 0.19325(12)
C18 C 0.57008(17) 0.32441(8) 0.24473(13)
H13 H 0.6001 0.3555 0.3191
C19 C 0.68460(17) 0.30229(9) 0.19079(14)
H14 H 0.7914 0.3183 0.2263
C20 C 0.63741(17) 0.25640(8) 0.08405(14)
C21 C 0.48359(18) 0.23356(9) 0.02854(13)
H15 H 0.4547 0.2023 -0.0457
C22 C 0.37147(17) 0.25727(8) 0.08368(13)
H16 H 0.2644 0.2425 0.0460
loop_
_geom_bond_atom_site_label_1
_geom_bond_atom_site_label_2
_geom_bond_site_symmetry_1
_geom_bond_site_symmetry_2
F1 C20 1_555 1_555
O1 C3 1_555 1_555
N1 C3 1_555 1_555
C1 C2 1_555 1_555
C2 C3 1_555 1_555
C4 N1 1_555 1_555
C5 C4 1_555 1_555
H1 C5 1_555 1_555
C6 C5 1_555 1_555
H2 C6 1_555 1_555
C7 C6 1_555 1_555
H3 C7 1_555 1_555
C8 C1 1_555 1_555
C9 C8 1_555 1_555
C10 C9 1_555 1_555
H4 C10 1_555 1_555
C11 C10 1_555 1_555
H5 C11 1_555 1_555
C12 C11 1_555 1_555
H6 C12 1_555 1_555
C13 C12 1_555 1_555
H7 C13 1_555 1_555
C14 C2 1_555 1_555
C15 N1 1_555 1_555
H8 C15 1_555 1_555
H9 C15 1_555 1_555
H10 C15 1_555 1_555
C16 C2 1_555 1_555
H11 C16 1_555 1_555
H12 C16 1_555 1_555
C17 C16 1_555 1_555
C18 C17 1_555 1_555
H13 C18 1_555 1_555
C19 C18 1_555 1_555
H14 C19 1_555 1_555
C20 C19 1_555 1_555
C21 C20 1_555 1_555
H15 C21 1_555 1_555
C22 C17 1_555 1_555
H16 C22 1_555 1_555
C1 C4 1_555 1_555
C7 C8 1_555 1_555
C9 C14 1_555 1_555
C13 C14 1_555 1_555
C21 C22 1_555 1_555

#END
