
#######################################################################
#
#                 Cambridge Crystallographic Data Centre
#                                CCDC 
#
#######################################################################
#
# If this CIF has been generated from an entry in the Cambridge 
# Structural Database, then it will include bibliographic, chemical, 
# crystal, experimental, refinement or atomic coordinate data resulting 
# from the CCDC's data processing and validation procedures.
#
#######################################################################

data_QUCZOF
_chemical_name_common            
'2,7,15,20,28,33-hexathia-40,41,44,45,48,49-hexaazadecacyclo[32.5.2.2$3,6!.2$8,14!.2$16,19!.2$21,27!.2$29,32!.0$9,13!.0$22,26!.0$35,39!]henpentaconta-1(39),3,5,8,13,16,18,21,26,29,31,34,40,42,44,46,48,50-octadecaene-4,17,30,42,46,50-hexacarboxylic acid dimethyl sulfoxide solvate'
_chemical_formula_moiety         'C45 H30 N6 O12 S6,3(C2 H6 O1 S1)'
_chemical_name_systematic        
'S6-corona[3]arene[3]pyridazine dimethyl sulfoxide solvate'
_symmetry_cell_setting           monoclinic
_symmetry_space_group_name_H-M   'P 21/m'
_symmetry_Int_Tables_number      11
_space_group_name_Hall           '-P 2yb'
loop_
_symmetry_equiv_pos_site_id
_symmetry_equiv_pos_as_xyz
1 x,y,z
2 -x,1/2+y,-z
3 -x,-y,-z
4 x,1/2-y,z
_cell_length_a                   12.359(5)
_cell_length_b                   22.685(10)
_cell_length_c                   12.811(5)
_cell_angle_alpha                90
_cell_angle_beta                 93.132(5)
_cell_angle_gamma                90
_cell_volume                     3586.38
_exptl_crystal_colour            colorless
_exptl_crystal_description       plate
_cell_formula_units_Z            2
loop_
_atom_site_label
_atom_site_type_symbol
_atom_site_fract_x
_atom_site_fract_y
_atom_site_fract_z
S2 S 0.1844(3) 0.2500 0.6727(3)
O2 O 0.2901(6) 0.2500 0.7403(6)
C3 C 0.1040(9) 0.1933(6) 0.7205(12)
H7 H 0.1387 0.1560 0.7105
H8 H 0.0343 0.1935 0.6835
H9 H 0.0950 0.1994 0.7937
C3C C 0.1040(9) 0.3067(6) 0.7205(12)
H7C H 0.1387 0.3440 0.7105
H8C H 0.0343 0.3065 0.6835
H9C H 0.0950 0.3006 0.7937
S3 S 0.58988(17) 0.11335(9) -0.06420(19)
S4 S 0.26159(15) 0.00702(10) 0.25191(17)
O3 O 0.2478(4) 0.1800(3) -0.0267(4)
O4 O 0.3697(5) 0.1585(3) -0.1443(4)
H10 H 0.3551 0.1817 -0.1921
O5 O 0.4547(4) -0.0332(3) 0.3236(5)
O6 O 0.6105(4) -0.0272(3) 0.2425(5)
H11 H 0.6361 -0.0425 0.2964
N1 N 0.5311(4) 0.2203(3) 0.0060(5)
N2 N 0.1152(13) 0.0995(7) 0.2154(12)
C4 C 0.7661(12) 0.2500 -0.2650(12)
H12 H 0.8418 0.2500 -0.2815
H13 H 0.7221 0.2500 -0.3301
C5 C 0.7410(7) 0.1949(4) -0.2005(7)
H14 H 0.7069 0.1643 -0.2438
H15 H 0.8058 0.1793 -0.1645
C6 C 0.6631(5) 0.2203(3) -0.1241(6)
C7 C 0.5939(5) 0.1909(3) -0.0591(6)
C8 C 0.4922(6) 0.0919(3) 0.0249(6)
C9 C 0.3814(6) 0.1078(3) 0.0195(6)
C10 C 0.3133(5) 0.0828(3) 0.0903(6)
H16 H 0.2407 0.0937 0.0874
C11 C 0.3500(5) 0.0420(3) 0.1651(6)
C12 C 0.4610(5) 0.0268(3) 0.1710(6)
C13 C 0.5292(5) 0.0526(3) 0.1013(6)
H17 H 0.6025 0.0431 0.1062
C14 C 0.3273(6) 0.1529(3) -0.0540(6)
C15 C 0.5072(6) -0.0142(3) 0.2537(6)
S5 S -0.1810(3) 0.1214(2) 0.0887(4)
N3 N 0.0208(10) 0.1243(6) 0.1822(12)
C16 C 0.129(2) 0.0409(12) 0.1996(16)
C17 C 0.0483(19) 0.0021(11) 0.1607(14)
C18 C 0.0547(17) -0.0663(10) 0.1303(16)
H18 H 0.1167 -0.0744 0.0894
H19 H 0.0577 -0.0912 0.1918
C19 C -0.0508(16) -0.0741(9) 0.0661(17)
H20 H -0.0856 -0.1106 0.0847
H21 H -0.0376 -0.0751 -0.0078
C20 C -0.1270(16) -0.0182(9) 0.0917(17)
H22 H -0.1692 -0.0057 0.0296
H23 H -0.1759 -0.0281 0.1458
C21 C -0.0483(14) 0.0292(9) 0.1287(16)
C22 C -0.0583(12) 0.0896(8) 0.1400(14)
O7 O -0.0180(10) 0.1886(7) -0.0507(10)
O8 O -0.3902(9) 0.3425(6) 0.2840(12)
C23 C -0.0087(13) 0.2192(9) 0.0243(14)
C24 C -0.3589(12) 0.2912(9) 0.2798(15)
C25 C -0.1744(11) 0.1966(4) 0.1250(12)
C26 C -0.0985(10) 0.2369(4) 0.0920(12)
C27 C -0.1049(13) 0.2957(6) 0.1215(13)
H24 H -0.0534 0.3221 0.0991
C28 C -0.1859(11) 0.3165(7) 0.1835(13)
C29 C -0.2590(17) 0.2741(8) 0.2166(19)
C30 C -0.2574(14) 0.2151(9) 0.1865(12)
H25 H -0.3102 0.1890 0.2068
O9 O -0.4017 0.2500 0.3232
H26 H -0.4589 0.2500 0.3528
O10 O 0.0863 0.2500 0.0523
H27 H 0.1334 0.2500 0.0096
S3C S 0.58988(17) 0.38665(9) -0.06420(19)
S4C S 0.26159(15) 0.49298(10) 0.25191(17)
O3C O 0.2478(4) 0.3200(3) -0.0267(4)
O4C O 0.3697(5) 0.3415(3) -0.1443(4)
H10C H 0.3551 0.3183 -0.1921
O5C O 0.4547(4) 0.5332(3) 0.3236(5)
O6C O 0.6105(4) 0.5272(3) 0.2425(5)
H11C H 0.6361 0.5425 0.2964
N1C N 0.5311(4) 0.2797(3) 0.0060(5)
N2C N 0.1152(13) 0.4005(7) 0.2154(12)
C5C C 0.7410(7) 0.3051(4) -0.2005(7)
H14C H 0.7069 0.3357 -0.2438
H15C H 0.8058 0.3207 -0.1645
C6C C 0.6631(5) 0.2797(3) -0.1241(6)
C7C C 0.5939(5) 0.3091(3) -0.0591(6)
C8C C 0.4922(6) 0.4081(3) 0.0249(6)
C9C C 0.3814(6) 0.3922(3) 0.0195(6)
C10C C 0.3133(5) 0.4172(3) 0.0903(6)
H16C H 0.2407 0.4063 0.0874
C11C C 0.3500(5) 0.4580(3) 0.1651(6)
C12C C 0.4610(5) 0.4732(3) 0.1710(6)
C13C C 0.5292(5) 0.4474(3) 0.1013(6)
H17C H 0.6025 0.4569 0.1062
C14C C 0.3273(6) 0.3471(3) -0.0540(6)
C15C C 0.5072(6) 0.5142(3) 0.2537(6)
S5C S -0.1810(3) 0.3786(2) 0.0887(4)
N3C N 0.0208(10) 0.3757(6) 0.1822(12)
C16C C 0.129(2) 0.4591(12) 0.1996(16)
C17C C 0.0483(19) 0.4979(11) 0.1607(14)
C18C C 0.0547(17) 0.5663(10) 0.1303(16)
H18C H 0.1167 0.5744 0.0894
H19C H 0.0577 0.5912 0.1918
C19C C -0.0508(16) 0.5741(9) 0.0661(17)
H20C H -0.0856 0.6106 0.0847
H21C H -0.0376 0.5751 -0.0078
C20C C -0.1270(16) 0.5182(9) 0.0917(17)
H22C H -0.1692 0.5057 0.0296
H23C H -0.1759 0.5281 0.1458
C21C C -0.0483(14) 0.4708(9) 0.1287(16)
C22C C -0.0583(12) 0.4104(8) 0.1400(14)
O7C O -0.0180(10) 0.3114(7) -0.0507(10)
O8C O -0.3902(9) 0.1575(6) 0.2840(12)
C23C C -0.0087(13) 0.2808(9) 0.0243(14)
C24C C -0.3589(12) 0.2088(9) 0.2798(15)
C25C C -0.1744(11) 0.3034(4) 0.1250(12)
C26C C -0.0985(10) 0.2631(4) 0.0920(12)
C27C C -0.1049(13) 0.2043(6) 0.1215(13)
H24C H -0.0534 0.1779 0.0991
C28C C -0.1859(11) 0.1835(7) 0.1835(13)
C29C C -0.2590(17) 0.2259(8) 0.2166(19)
C30C C -0.2574(14) 0.2849(9) 0.1865(12)
H25C H -0.3102 0.3110 0.2068
S1 S 0.36041(19) 0.14258(12) 0.54901(19)
O1 O 0.3069(5) 0.1028(3) 0.6260(5)
C1 C 0.4834(8) 0.1693(4) 0.6122(7)
H1 H 0.4678 0.1877 0.6771
H2 H 0.5162 0.1974 0.5678
H3 H 0.5323 0.1369 0.6256
C2 C 0.4276(10) 0.0939(5) 0.4596(8)
H4 H 0.4740 0.0671 0.4990
H5 H 0.4701 0.1170 0.4142
H6 H 0.3741 0.0721 0.4186
S6? S -0.1979(3) 0.1086(2) 0.2174(4)
N4? N 0.0192(11) 0.1141(7) 0.2464(13)
C31? C 0.133(2) 0.0341(11) 0.2297(15)
C32? C 0.049(2) 0.0006(11) 0.1975(16)
C33? C -0.0525(14) 0.0221(8) 0.1843(16)
C34? C -0.0644(12) 0.0808(8) 0.2173(15)
N5? N 0.1203(14) 0.0904(8) 0.2575(13)
C35? C 0.0402(17) -0.0620(10) 0.1716(17)
C36? C -0.0776(15) -0.0686(9) 0.1273(18)
C37? C -0.1365(17) -0.0205(10) 0.1501(19)
H28? H -0.1785 -0.0064 0.0889
H29? H 0.0535 -0.0863 0.2333
H30? H 0.0911 -0.0729 0.1198
H31? H -0.0783 -0.0738 0.0521
H32? H -0.1098 -0.1034 0.1571
H33? H -0.1849 -0.0287 0.2053
loop_
_geom_bond_atom_site_label_1
_geom_bond_atom_site_label_2
_geom_bond_site_symmetry_1
_geom_bond_site_symmetry_2
S1 O1 1_555 1_555
C1 S1 1_555 1_555
H1 C1 1_555 1_555
H2 C1 1_555 1_555
H3 C1 1_555 1_555
C2 S1 1_555 1_555
H4 C2 1_555 1_555
H5 C2 1_555 1_555
H6 C2 1_555 1_555
S2 O2 1_555 1_555
C3 S2 1_555 1_555
H7 C3 1_555 1_555
H8 C3 1_555 1_555
H9 C3 1_555 1_555
S3 C7 1_555 1_555
S4 C11 1_555 1_555
O3 C14 1_555 1_555
O4 H10 1_555 1_555
O5 C15 1_555 1_555
O6 H11 1_555 1_555
N1 C7 1_555 1_555
N2 N3 1_555 1_555
C4 H12 1_555 1_555
H13 C4 1_555 1_555
C5 C4 1_555 1_555
H14 C5 1_555 1_555
H15 C5 1_555 1_555
C6 C5 1_555 1_555
C7 C6 1_555 1_555
C8 S3 1_555 1_555
C9 C8 1_555 1_555
C10 C9 1_555 1_555
H16 C10 1_555 1_555
C11 C10 1_555 1_555
C12 C11 1_555 1_555
C13 C8 1_555 1_555
H17 C13 1_555 1_555
C14 O4 1_555 1_555
C15 O6 1_555 1_555
S5 C22 1_555 1_555
N3 C22 1_555 1_555
C16 S4 1_555 1_555
C17 C16 1_555 1_555
C18 C17 1_555 1_555
H18 C18 1_555 1_555
H19 C18 1_555 1_555
C19 C18 1_555 1_555
H20 C19 1_555 1_555
H21 C19 1_555 1_555
C20 C19 1_555 1_555
H22 C20 1_555 1_555
H23 C20 1_555 1_555
C21 C17 1_555 1_555
C22 C21 1_555 1_555
O7 C23 1_555 1_555
O8 C24 1_555 1_555
C23 O10 1_555 1_555
C24 C29 1_555 1_555
C25 S5 1_555 1_555
C26 C25 1_555 1_555
C27 C26 1_555 1_555
H24 C27 1_555 1_555
C28 C27 1_555 1_555
C29 C28 1_555 1_555
C30 C25 1_555 1_555
H25 C30 1_555 1_555
O9 C24 1_555 1_555
H26 O9 1_555 1_555
O10 H27 1_555 1_555
C3C S2 1_555 1_555
H7C C3C 1_555 1_555
H8C C3C 1_555 1_555
H9C C3C 1_555 1_555
S3C C7C 1_555 1_555
S4C C11C 1_555 1_555
O3C C14C 1_555 1_555
O4C H10C 1_555 1_555
O5C C15C 1_555 1_555
O6C H11C 1_555 1_555
N1C N1 1_555 1_555
N2C N3C 1_555 1_555
C5C C4 1_555 1_555
H14C C5C 1_555 1_555
H15C C5C 1_555 1_555
C6C C6 1_555 1_555
C7C N1C 1_555 1_555
C8C S3C 1_555 1_555
C9C C8C 1_555 1_555
C10C C9C 1_555 1_555
H16C C10C 1_555 1_555
C11C C10C 1_555 1_555
C12C C11C 1_555 1_555
C13C C8C 1_555 1_555
H17C C13C 1_555 1_555
C14C O4C 1_555 1_555
C15C O6C 1_555 1_555
S5C C27 1_555 1_555
N3C C22C 1_555 1_555
C16C S4C 1_555 1_555
C17C C16C 1_555 1_555
C18C C17C 1_555 1_555
H18C C18C 1_555 1_555
H19C C18C 1_555 1_555
C19C C18C 1_555 1_555
H20C C19C 1_555 1_555
H21C C19C 1_555 1_555
C20C C19C 1_555 1_555
H22C C20C 1_555 1_555
H23C C20C 1_555 1_555
C21C C17C 1_555 1_555
C22C S5C 1_555 1_555
O7C C23C 1_555 1_555
O8C C24C 1_555 1_555
C23C C23 1_555 1_555
C24C C30 1_555 1_555
C25C C27 1_555 1_555
C26C C26 1_555 1_555
C27C S5 1_555 1_555
H24C C27C 1_555 1_555
C28C S5 1_555 1_555
C29C C25 1_555 1_555
C30C C24 1_555 1_555
H25C C24 1_555 1_555
N2 C16 1_555 1_555
C9 C14 1_555 1_555
C12 C13 1_555 1_555
C12 C15 1_555 1_555
C20 C21 1_555 1_555
C23 C27C 1_555 1_555
C25 C27C 1_555 1_555
C25 C28C 1_555 1_555
C26 C27C 1_555 1_555
C27 C23C 1_555 1_555
C27 C26C 1_555 1_555
C28 S5C 1_555 1_555
C28 C25C 1_555 1_555
C28 C30C 1_555 1_555
C29 C30 1_555 1_555
C29 C25C 1_555 1_555
C29 C29C 1_555 1_555
C29 H25C 1_555 1_555
C30 C28C 1_555 1_555
C30 C30C 1_555 1_555
H25 C24C 1_555 1_555
H25 C29C 1_555 1_555
O9 C24C 1_555 1_555
O10 C23C 1_555 1_555
N2C C16C 1_555 1_555
C5C C6C 1_555 1_555
C6C C7C 1_555 1_555
C9C C14C 1_555 1_555
C12C C13C 1_555 1_555
C12C C15C 1_555 1_555
S5C C25C 1_555 1_555
C20C C21C 1_555 1_555
C21C C22C 1_555 1_555
C24C C29C 1_555 1_555
C25C C26C 1_555 1_555
C25C C30C 1_555 1_555
C26C C27C 1_555 1_555
C27C C28C 1_555 1_555
C28C C29C 1_555 1_555
C29C C30C 1_555 1_555
C30C H25C 1_555 1_555

#END
