
#######################################################################
#
#                 Cambridge Crystallographic Data Centre
#                                CCDC 
#
#######################################################################
#
# If this CIF has been generated from an entry in the Cambridge 
# Structural Database, then it will include bibliographic, chemical, 
# crystal, experimental, refinement or atomic coordinate data resulting 
# from the CCDC's data processing and validation procedures.
#
#######################################################################

data_QUDKOR
_chemical_formula_moiety         'C22 H34 Br4 O2'
_chemical_name_systematic        1,4-dibromo-2,5-bis((8-bromooctyl)oxy)benzene
_symmetry_cell_setting           triclinic
_symmetry_space_group_name_H-M   'P -1'
_symmetry_Int_Tables_number      2
_space_group_name_Hall           '-P 1'
loop_
_symmetry_equiv_pos_site_id
_symmetry_equiv_pos_as_xyz
1 x,y,z
2 -x,-y,-z
_cell_length_a                   8.4619(6)
_cell_length_b                   9.0000(5)
_cell_length_c                   9.5811(7)
_cell_angle_alpha                115.671(6)
_cell_angle_beta                 92.610(6)
_cell_angle_gamma                99.466(5)
_cell_volume                     643.072
_exptl_crystal_description       needle
_cell_formula_units_Z            1
loop_
_atom_site_label
_atom_site_type_symbol
_atom_site_fract_x
_atom_site_fract_y
_atom_site_fract_z
Br1 Br 0.45320(7) 0.23524(6) 1.36072(5)
Br2 Br 1.29158(8) 1.32720(6) 0.72094(7)
O1 O 0.6573(4) 0.1366(4) 0.8215(4)
C1 C 0.4787(5) 0.0981(5) 1.1518(5)
C2 C 0.5580(5) 0.1715(5) 1.0665(5)
H1 H 0.5965(5) 0.2874(5) 1.1125(5)
C3 C 0.5803(5) 0.0746(6) 0.9147(5)
C4 C 0.7868(6) 0.3577(6) 0.7659(6)
H2 H 0.8791(6) 0.3048(6) 0.7374(6)
H3 H 0.7092(6) 0.3151(6) 0.6728(6)
C5 C 0.9302(6) 0.5999(6) 0.7189(6)
H4 H 0.8578(6) 0.5623(6) 0.6233(6)
H5 H 1.0211(6) 0.5444(6) 0.6928(6)
C6 C 0.9910(6) 0.7896(6) 0.7883(6)
H6 H 0.8998(6) 0.8448(6) 0.8151(6)
H7 H 1.0633(6) 0.8267(6) 0.8838(6)
C7 C 0.7107(6) 0.3159(6) 0.8877(6)
H8 H 0.6198(6) 0.3707(6) 0.9182(6)
H9 H 0.7890(6) 0.3553(6) 0.9798(6)
C8 C 1.0795(6) 0.8440(6) 0.6779(6)
H10 H 1.1723(6) 0.7913(6) 0.6532(6)
H11 H 1.0082(6) 0.8046(6) 0.5813(6)
C9 C 0.8409(6) 0.5491(6) 0.8323(6)
H12 H 0.7469(6) 0.6003(6) 0.8545(6)
H13 H 0.9114(6) 0.5915(6) 0.9299(6)
C10 C 1.2341(7) 1.0838(6) 0.6384(6)
H14 H 1.1717(7) 1.0364(6) 0.5360(6)
H15 H 1.3318(7) 1.0386(6) 0.6268(6)
C11 C 1.1357(6) 1.0327(6) 0.7461(6)
H16 H 1.0424(6) 1.0852(6) 0.7640(6)
H17 H 1.2013(6) 1.0734(6) 0.8462(6)
Br1A Br 0.54680(7) -0.23524(6) 0.63928(5)
Br2A Br -0.29158(8) -1.32720(6) 1.27906(7)
O1A O 0.3427(4) -0.1366(4) 1.1785(4)
C1A C 0.5213(5) -0.0981(5) 0.8482(5)
C2A C 0.4420(5) -0.1715(5) 0.9335(5)
H1A H 0.4035(5) -0.2874(5) 0.8875(5)
C3A C 0.4197(5) -0.0746(6) 1.0853(5)
C4A C 0.2132(6) -0.3577(6) 1.2341(6)
H2A H 0.1209(6) -0.3048(6) 1.2626(6)
H3A H 0.2908(6) -0.3151(6) 1.3272(6)
C5A C 0.0698(6) -0.5999(6) 1.2811(6)
H4A H 0.1422(6) -0.5623(6) 1.3767(6)
H5A H -0.0211(6) -0.5444(6) 1.3072(6)
C6A C 0.0090(6) -0.7896(6) 1.2117(6)
H6A H 0.1002(6) -0.8448(6) 1.1849(6)
H7A H -0.0633(6) -0.8267(6) 1.1162(6)
C7A C 0.2893(6) -0.3159(6) 1.1123(6)
H8A H 0.3802(6) -0.3707(6) 1.0818(6)
H9A H 0.2110(6) -0.3553(6) 1.0202(6)
C8A C -0.0795(6) -0.8440(6) 1.3221(6)
H10A H -0.1723(6) -0.7913(6) 1.3468(6)
H11A H -0.0082(6) -0.8046(6) 1.4187(6)
C9A C 0.1591(6) -0.5491(6) 1.1677(6)
H12A H 0.2531(6) -0.6003(6) 1.1455(6)
H13A H 0.0886(6) -0.5915(6) 1.0701(6)
C10A C -0.2341(7) -1.0838(6) 1.3616(6)
H14A H -0.1717(7) -1.0364(6) 1.4640(6)
H15A H -0.3318(7) -1.0386(6) 1.3732(6)
C11A C -0.1357(6) -1.0327(6) 1.2539(6)
H16A H -0.0424(6) -1.0852(6) 1.2360(6)
H17A H -0.2013(6) -1.0734(6) 1.1538(6)
loop_
_geom_bond_atom_site_label_1
_geom_bond_atom_site_label_2
_geom_bond_site_symmetry_1
_geom_bond_site_symmetry_2
Br1 C1 1_555 1_555
Br2 C10 1_555 1_555
O1 C3 1_555 1_555
C1 C2 1_555 1_555
C2 H1 1_555 1_555
C3 C2 1_555 1_555
C4 H2 1_555 1_555
H3 C4 1_555 1_555
C5 H4 1_555 1_555
H5 C5 1_555 1_555
C6 C5 1_555 1_555
H6 C6 1_555 1_555
H7 C6 1_555 1_555
C7 O1 1_555 1_555
H8 C7 1_555 1_555
H9 C7 1_555 1_555
C8 C6 1_555 1_555
H10 C8 1_555 1_555
H11 C8 1_555 1_555
C9 C4 1_555 1_555
H12 C9 1_555 1_555
H13 C9 1_555 1_555
C10 H14 1_555 1_555
H15 C10 1_555 1_555
C11 C8 1_555 1_555
H16 C11 1_555 1_555
H17 C11 1_555 1_555
Br1A C1A 1_555 1_555
Br2A C10A 1_555 1_555
O1A C3A 1_555 1_555
C1A C3 1_555 1_555
C2A C1A 1_555 1_555
H1A C2A 1_555 1_555
C3A C1 1_555 1_555
C4A H2A 1_555 1_555
H3A C4A 1_555 1_555
C5A H4A 1_555 1_555
H5A C5A 1_555 1_555
C6A C5A 1_555 1_555
H6A C6A 1_555 1_555
H7A C6A 1_555 1_555
C7A O1A 1_555 1_555
H8A C7A 1_555 1_555
H9A C7A 1_555 1_555
C8A C6A 1_555 1_555
H10A C8A 1_555 1_555
H11A C8A 1_555 1_555
C9A C4A 1_555 1_555
H12A C9A 1_555 1_555
H13A C9A 1_555 1_555
C10A H14A 1_555 1_555
H15A C10A 1_555 1_555
C11A C8A 1_555 1_555
H16A C11A 1_555 1_555
H17A C11A 1_555 1_555
C4 C7 1_555 1_555
C5 C9 1_555 1_555
C10 C11 1_555 1_555
C2A C3A 1_555 1_555
C4A C7A 1_555 1_555
C5A C9A 1_555 1_555
C10A C11A 1_555 1_555

#END
