
#######################################################################
#
#                 Cambridge Crystallographic Data Centre
#                                CCDC 
#
#######################################################################
#
# If this CIF has been generated from an entry in the Cambridge 
# Structural Database, then it will include bibliographic, chemical, 
# crystal, experimental, refinement or atomic coordinate data resulting 
# from the CCDC's data processing and validation procedures.
#
#######################################################################

data_QUDLEI
_chemical_formula_moiety         'C17 H20 Cl1 F1 N1 O3 P1'
_chemical_name_systematic        
'diethyl (((4-chlorophenyl)amino)(4-fluorophenyl)methyl)phosphonate'
_symmetry_cell_setting           monoclinic
_symmetry_space_group_name_H-M   'P 21/n'
_symmetry_Int_Tables_number      14
_space_group_name_Hall           '-P 2yn'
loop_
_symmetry_equiv_pos_site_id
_symmetry_equiv_pos_as_xyz
1 x,y,z
2 1/2-x,1/2+y,1/2-z
3 -x,-y,-z
4 1/2+x,1/2-y,1/2+z
_cell_length_a                   13.4882(7)
_cell_length_b                   18.1802(8)
_cell_length_c                   16.1967(8)
_cell_angle_alpha                90
_cell_angle_beta                 98.244(2)
_cell_angle_gamma                90
_cell_volume                     3930.68
_cell_formula_units_Z            8
loop_
_atom_site_label
_atom_site_type_symbol
_atom_site_fract_x
_atom_site_fract_y
_atom_site_fract_z
P1 P 0.65235(11) 0.09733(7) 0.83714(9)
Cl1 Cl 0.61862(17) -0.35723(9) 0.93282(15)
F1 F 0.9313(2) -0.06789(18) 0.56339(17)
C1 C 0.6935(3) 0.0033(2) 0.8406(3)
H1 H 0.7366 -0.0043 0.8940
C2 C 0.6135(3) -0.1163(2) 0.8610(3)
C3 C 0.7556(3) -0.0145(2) 0.7711(3)
O1 O 0.5738(3) 0.1125(2) 0.7679(3)
C4 C 0.7006(4) -0.1484(3) 0.9030(3)
H2 H 0.7586 -0.1205 0.9154
O2 O 0.7520(3) 0.1415(2) 0.8407(3)
C5 C 0.6173(5) -0.2645(3) 0.9054(4)
C6 C 0.5279(4) -0.1605(3) 0.8417(3)
H3 H 0.4689 -0.1401 0.8144
C7 C 0.7006(5) -0.2220(3) 0.9263(4)
H4 H 0.7579 -0.2424 0.9564
O3 O 0.6232(4) 0.1131(3) 0.9262(3)
C8 C 0.5311(5) -0.2346(3) 0.8633(4)
H5 H 0.4748 -0.2639 0.8491
C9 C 0.8624(5) -0.0471(4) 0.6433(4)
C10 C 0.7087(4) -0.0244(3) 0.6910(3)
H6 H 0.6393 -0.0201 0.6802
C11 C 0.8572(4) -0.0214(3) 0.7866(4)
H7 H 0.8898 -0.0155 0.8408
C12 C 0.9126(4) -0.0369(3) 0.7239(5)
H8 H 0.9820 -0.0405 0.7349
C13 C 0.7605(5) -0.0402(4) 0.6262(4)
H9 H 0.7273 -0.0461 0.5722
C14 C 0.7761(8) 0.1958(6) 0.7875(7)
H10 H 0.8320 0.1785 0.7613
H11 H 0.7196 0.2021 0.7438
C15 C 0.799(3) 0.2595(8) 0.8195(12)
H12 H 0.8660 0.2580 0.8496
H13 H 0.7531 0.2725 0.8570
H14 H 0.7961 0.2955 0.7759
N1 N 0.6054(3) -0.0420(2) 0.8406(3)
C16 C 0.5390(13) 0.1148(10) 0.9401(11)
H15 H 0.5343 0.0993 0.9967
H16 H 0.4957 0.0841 0.9013
C17 C 0.5139(18) 0.1946(14) 0.9275(13)
H17 H 0.5665 0.2240 0.9572
H18 H 0.4521 0.2050 0.9482
H19 H 0.5069 0.2061 0.8691
P2 P 0.34854(10) -0.01765(7) 0.64463(9)
F2 F 0.06860(18) 0.13945(14) 0.91789(16)
O4 O 0.2512(3) -0.0641(2) 0.6414(3)
C18 C 0.2448(3) 0.0937(2) 0.7088(3)
C19 C 0.3900(4) 0.1972(3) 0.6219(3)
O5 O 0.4241(3) -0.0328(2) 0.7163(3)
O6 O 0.3830(4) -0.0291(2) 0.5567(3)
C20 C 0.4761(4) 0.2400(3) 0.6415(3)
H20 H 0.5344 0.2189 0.6691
C21 C 0.4752(5) 0.3142(3) 0.6197(4)
H21 H 0.5339 0.3415 0.6302
C22 C 0.1428(4) 0.0936(3) 0.6941(4)
H22 H 0.1095 0.0840 0.6409
C23 C 0.3033(5) 0.3055(3) 0.5661(4)
H23 H 0.2443 0.3282 0.5424
C24 C 0.3905(6) 0.3467(3) 0.5838(4)
C25 C 0.0889(4) 0.1080(3) 0.7596(5)
H24 H 0.0192 0.1081 0.7497
C26 C 0.3034(5) 0.2309(3) 0.5836(4)
H25 H 0.2453 0.2034 0.5695
C27 C 0.1362(5) 0.1217(3) 0.8367(4)
C28 C 0.2933(5) 0.1075(4) 0.7897(4)
H26 H 0.3630 0.1079 0.8001
C29 C 0.2393(5) 0.1205(4) 0.8540(4)
H27 H 0.2716 0.1283 0.9079
C30 C 0.2229(6) -0.1020(4) 0.7127(6)
H28 H 0.2719 -0.0924 0.7614
H29 H 0.1584 -0.0840 0.7240
C31 C 0.2170(17) -0.1792(6) 0.6968(10)
H30 H 0.1526 -0.1909 0.6661
H31 H 0.2257 -0.2054 0.7488
H32 H 0.2686 -0.1933 0.6648
N2 N 0.3974(3) 0.1223(2) 0.6395(3)
C32 C 0.3084(4) 0.0777(2) 0.6392(3)
H33 H 0.2658 0.0851 0.5855
Cl2 Cl 0.3879(2) 0.44021(9) 0.56178(16)
C33 C 0.4881(15) -0.1414(12) 0.5682(16)
H34 H 0.5269 -0.1625 0.5289
H35 H 0.4540 -0.1799 0.5935
H36 H 0.5316 -0.1155 0.6105
C34 C 0.4198(14) -0.0940(8) 0.5281(10)
H37 H 0.3609 -0.1238 0.5102
H38 H 0.4461 -0.0805 0.4776
loop_
_geom_bond_atom_site_label_1
_geom_bond_atom_site_label_2
_geom_bond_site_symmetry_1
_geom_bond_site_symmetry_2
P1 C1 1_555 1_555
Cl1 C5 1_555 1_555
F1 C9 1_555 1_555
C1 H1 1_555 1_555
C2 C4 1_555 1_555
C3 C1 1_555 1_555
O1 P1 1_555 1_555
C4 H2 1_555 1_555
O2 P1 1_555 1_555
C5 C7 1_555 1_555
C6 C2 1_555 1_555
H3 C6 1_555 1_555
C7 C4 1_555 1_555
H4 C7 1_555 1_555
O3 P1 1_555 1_555
C8 C5 1_555 1_555
H5 C8 1_555 1_555
C9 C12 1_555 1_555
C10 C3 1_555 1_555
H6 C10 1_555 1_555
C11 C3 1_555 1_555
H7 C11 1_555 1_555
C12 C11 1_555 1_555
H8 C12 1_555 1_555
C13 C9 1_555 1_555
H9 C13 1_555 1_555
C14 O2 1_555 1_555
H10 C14 1_555 1_555
H11 C14 1_555 1_555
C15 C14 1_555 1_555
H12 C15 1_555 1_555
H13 C15 1_555 1_555
H14 C15 1_555 1_555
N1 C1 1_555 1_555
C16 O3 1_555 1_555
H15 C16 1_555 1_555
H16 C16 1_555 1_555
C17 C16 1_555 1_555
H17 C17 1_555 1_555
H18 C17 1_555 1_555
H19 C17 1_555 1_555
P2 O4 1_555 1_555
F2 C27 1_555 1_555
O4 C30 1_555 1_555
C18 C22 1_555 1_555
C19 C20 1_555 1_555
O5 P2 1_555 1_555
O6 P2 1_555 1_555
C20 H20 1_555 1_555
C21 C20 1_555 1_555
H21 C21 1_555 1_555
C22 H22 1_555 1_555
C23 H23 1_555 1_555
C24 C21 1_555 1_555
C25 C22 1_555 1_555
H24 C25 1_555 1_555
C26 C19 1_555 1_555
H25 C26 1_555 1_555
C27 C25 1_555 1_555
C28 C18 1_555 1_555
H26 C28 1_555 1_555
C29 C27 1_555 1_555
H27 C29 1_555 1_555
C30 H28 1_555 1_555
H29 C30 1_555 1_555
C31 C30 1_555 1_555
H30 C31 1_555 1_555
H31 C31 1_555 1_555
H32 C31 1_555 1_555
N2 C19 1_555 1_555
C32 P2 1_555 1_555
H33 C32 1_555 1_555
Cl2 C24 1_555 1_555
C33 H34 1_555 1_555
H35 C33 1_555 1_555
H36 C33 1_555 1_555
C34 O6 1_555 1_555
H37 C34 1_555 1_555
H38 C34 1_555 1_555
C2 N1 1_555 1_555
C6 C8 1_555 1_555
C10 C13 1_555 1_555
C18 C32 1_555 1_555
C23 C24 1_555 1_555
C23 C26 1_555 1_555
C28 C29 1_555 1_555
N2 C32 1_555 1_555
C33 C34 1_555 1_555

#END
