
#######################################################################
#
#                 Cambridge Crystallographic Data Centre
#                                CCDC 
#
#######################################################################
#
# If this CIF has been generated from an entry in the Cambridge 
# Structural Database, then it will include bibliographic, chemical, 
# crystal, experimental, refinement or atomic coordinate data resulting 
# from the CCDC's data processing and validation procedures.
#
#######################################################################

data_QUDLOS
_chemical_formula_moiety         'C28 H36 Cl2 N2 O6 P2'
_chemical_name_systematic        
'tetraethyl (1,4-phenylenebis(((4-chlorophenyl)amino)methylene))bis(phosphonate)'
_symmetry_cell_setting           triclinic
_symmetry_space_group_name_H-M   'P -1'
_symmetry_Int_Tables_number      2
_space_group_name_Hall           '-P 1'
loop_
_symmetry_equiv_pos_site_id
_symmetry_equiv_pos_as_xyz
1 x,y,z
2 -x,-y,-z
_cell_length_a                   11.0444(4)
_cell_length_b                   12.6468(4)
_cell_length_c                   12.7657(4)
_cell_angle_alpha                81.177(2)
_cell_angle_beta                 67.634(2)
_cell_angle_gamma                84.082(2)
_cell_volume                     1627.46
_cell_formula_units_Z            2
loop_
_atom_site_label
_atom_site_type_symbol
_atom_site_fract_x
_atom_site_fract_y
_atom_site_fract_z
P1 P 0.85172(6) 0.78687(6) 1.06432(7)
C1 C 0.9975(2) 0.7335(2) 0.9572(2)
H1 H 1.0743 0.7571 0.9665
Cl1 Cl 1.45312(17) 0.7271(3) 0.42218(16)
C2 C 1.1059(3) 0.7627(2) 0.7478(3)
C3 C 1.0936(3) 0.7845(3) 0.6429(3)
H2 H 1.0128 0.8089 0.6391
C4 C 1.2287(3) 0.7255(3) 0.7505(3)
H3 H 1.2388 0.7079 0.8202
C5 C 1.3347(4) 0.7148(4) 0.6507(4)
H4 H 1.4164 0.6914 0.6529
C6 C 1.1991(5) 0.7708(5) 0.5442(4)
H5 H 1.1888 0.7834 0.4742
C7 C 1.3189(4) 0.7386(5) 0.5487(4)
O1 O 0.73150(19) 0.78237(18) 1.0427(2)
O2 O 0.8931(2) 0.90009(18) 1.0676(3)
O3 O 0.8508(3) 0.7228(2) 1.1801(2)
N1 N 0.9985(2) 0.78110(19) 0.8460(2)
C8 C 1.0014(2) 0.61148(19) 0.9770(2)
C9 C 1.0695(3) 0.5553(2) 1.0414(3)
H6 H 1.1167 0.5924 1.0695
C10 C 0.9318(3) 0.5550(2) 0.9355(3)
H7 H 0.8859 0.5914 0.8921
C11 C 0.8097(7) 0.9872(4) 1.0998(9)
H8 H 0.8656 1.0444 1.0926
H9 H 0.7739 1.0070 1.0405
C12 C 0.7882(9) 0.5844(7) 1.3362(7)
H10 H 0.8794 0.5634 1.3165
H11 H 0.7368 0.5224 1.3685
H12 H 0.7633 0.6348 1.3908
C13 C 0.7084(7) 0.9951(6) 1.1976(6)
H13 H 0.6539 0.9355 1.2142
H14 H 0.6582 1.0607 1.1911
H15 H 0.7399 0.9947 1.2582
C14 C 0.7660(5) 0.6329(5) 1.2360(4)
H16 H 0.6750 0.6582 1.2565
H17 H 0.7836 0.5802 1.1836
H18 H 0.932(4) 0.789(3) 0.834(3)
P1A P 1.14828(6) 0.21313(6) 0.93568(7)
C1A C 1.0025(2) 0.2665(2) 1.0428(2)
H1A H 0.9257 0.2429 1.0335
Cl1A Cl 0.54688(17) 0.2729(3) 1.57782(16)
C2A C 0.8941(3) 0.2373(2) 1.2522(3)
C3A C 0.9064(3) 0.2155(3) 1.3571(3)
H2A H 0.9872 0.1911 1.3609
C4A C 0.7713(3) 0.2745(3) 1.2495(3)
H3A H 0.7612 0.2921 1.1798
C5A C 0.6653(4) 0.2852(4) 1.3493(4)
H4A H 0.5836 0.3086 1.3471
C6A C 0.8009(5) 0.2292(5) 1.4558(4)
H5A H 0.8112 0.2166 1.5258
C7A C 0.6811(4) 0.2614(5) 1.4513(4)
O1A O 1.26850(19) 0.21763(18) 0.9573(2)
O2A O 1.1069(2) 0.09991(18) 0.9324(3)
O3A O 1.1492(3) 0.2772(2) 0.8199(2)
N1A N 1.0015(2) 0.21890(19) 1.1540(2)
C8A C 0.9986(2) 0.38852(19) 1.0230(2)
C9A C 0.9305(3) 0.4447(2) 0.9586(3)
H6A H 0.8833 0.4076 0.9305
C10A C 1.0682(3) 0.4450(2) 1.0645(3)
H7A H 1.1141 0.4086 1.1079
C11A C 1.1903(7) 0.0128(4) 0.9002(9)
H8A H 1.1344 -0.0444 0.9074
H9A H 1.2261 -0.0070 0.9595
C12A C 1.2118(9) 0.4156(7) 0.6638(7)
H10A H 1.1206 0.4366 0.6835
H11A H 1.2632 0.4776 0.6315
H12A H 1.2367 0.3652 0.6092
C13A C 1.2916(7) 0.0049(6) 0.8024(6)
H13A H 1.3461 0.0645 0.7858
H14A H 1.3418 -0.0607 0.8089
H15A H 1.2601 0.0053 0.7418
C14A C 1.2340(5) 0.3671(5) 0.7640(4)
H16A H 1.3250 0.3418 0.7435
H17A H 1.2164 0.4198 0.8164
H18A H 1.068(4) 0.211(3) 1.166(3)
P2 P 0.66260(7) 0.72905(6) 0.75635(7)
Cl2 Cl 0.04961(12) 0.93203(14) 1.33654(11)
N2 N 0.5162(2) 0.80272(18) 0.9509(2)
C15 C 0.5154(2) 0.7190(2) 0.8852(2)
H19 H 0.4398 0.7345 0.8619
C16 C 0.4060(2) 0.8262(2) 1.0447(2)
C17 C 0.1755(3) 0.8141(3) 1.1627(3)
H20 H 0.0952 0.7847 1.1804
C18 C 0.2853(3) 0.7823(3) 1.0729(3)
H21 H 0.2781 0.7310 1.0309
C19 C 0.4138(3) 0.9007(3) 1.1110(3)
H22 H 0.4942 0.9293 1.0950
C20 C 0.1867(3) 0.8893(3) 1.2249(3)
C21 C 0.3058(4) 0.9332(4) 1.1994(4)
H23 H 0.3126 0.9843 1.2419
O4 O 0.7821(2) 0.7383(2) 0.7776(2)
O5 O 0.6229(3) 0.8250(2) 0.6811(2)
C22 C 0.5057(2) 0.60547(19) 0.9465(2)
O6 O 0.6669(3) 0.6297(2) 0.6949(2)
C23 C 0.4371(3) 0.5305(2) 0.9247(3)
H24 H 0.3943 0.5511 0.8740
C24 C 0.5683(3) 0.5741(2) 1.0228(3)
H25 H 0.6140 0.6233 1.0387
C25 C 0.7179(6) 0.8662(5) 0.5703(4)
H26 H 0.7941 0.8885 0.5799
H27 H 0.7463 0.8101 0.5208
C26 C 0.6610(10) 0.9537(7) 0.5201(6)
H28 H 0.5865 0.9311 0.5095
H29 H 0.7242 0.9806 0.4475
H30 H 0.6334 1.0091 0.5691
C27 C 0.7490(7) 0.5337(5) 0.7039(7)
H31 H 0.8294 0.5576 0.7045
H32 H 0.7051 0.4948 0.7786
C28 C 0.780(3) 0.4717(16) 0.6393(16)
H33 H 0.7124 0.4213 0.6613
H34 H 0.8602 0.4344 0.6385
H35 H 0.7918 0.5079 0.5644
H36 H 0.576(4) 0.808(3) 0.958(3)
P2A P 0.33740(7) 0.27095(6) 1.24365(7)
Cl2A Cl 0.95039(12) 0.06797(14) 0.66346(11)
N2A N 0.4838(2) 0.19728(18) 1.0491(2)
C15A C 0.4846(2) 0.2810(2) 1.1148(2)
H19A H 0.5602 0.2655 1.1381
C16A C 0.5940(2) 0.1738(2) 0.9553(2)
C17A C 0.8245(3) 0.1859(3) 0.8373(3)
H20A H 0.9048 0.2153 0.8196
C18A C 0.7147(3) 0.2177(3) 0.9271(3)
H21A H 0.7219 0.2690 0.9691
C19A C 0.5862(3) 0.0993(3) 0.8890(3)
H22A H 0.5058 0.0707 0.9050
C20A C 0.8133(3) 0.1107(3) 0.7751(3)
C21A C 0.6942(4) 0.0668(4) 0.8006(4)
H23A H 0.6874 0.0157 0.7581
O4A O 0.2179(2) 0.2617(2) 1.2224(2)
O5A O 0.3771(3) 0.1750(2) 1.3189(2)
C22A C 0.4943(2) 0.39453(19) 1.0535(2)
O6A O 0.3331(3) 0.3703(2) 1.3051(2)
C23A C 0.5629(3) 0.4695(2) 1.0753(3)
H24A H 0.6057 0.4489 1.1260
C24A C 0.4317(3) 0.4259(2) 0.9772(3)
H25A H 0.3860 0.3767 0.9613
C25A C 0.2821(6) 0.1338(5) 1.4297(4)
H26A H 0.2059 0.1115 1.4201
H27A H 0.2537 0.1899 1.4792
C26A C 0.3390(10) 0.0463(7) 1.4799(6)
H28A H 0.4135 0.0689 1.4905
H29A H 0.2758 0.0194 1.5525
H30A H 0.3666 -0.0091 1.4309
C27A C 0.2510(7) 0.4663(5) 1.2961(7)
H31A H 0.1706 0.4424 1.2955
H32A H 0.2949 0.5052 1.2214
C28A C 0.220(3) 0.5283(16) 1.3607(16)
H33A H 0.2876 0.5787 1.3387
H34A H 0.1398 0.5656 1.3615
H35A H 0.2082 0.4921 1.4356
H36A H 0.424(4) 0.192(3) 1.042(3)
loop_
_geom_bond_atom_site_label_1
_geom_bond_atom_site_label_2
_geom_bond_site_symmetry_1
_geom_bond_site_symmetry_2
P1 C1 1_555 1_555
C1 H1 1_555 1_555
Cl1 C7 1_555 1_555
C2 C3 1_555 1_555
C3 H2 1_555 1_555
C4 C2 1_555 1_555
H3 C4 1_555 1_555
C5 C4 1_555 1_555
H4 C5 1_555 1_555
C6 C3 1_555 1_555
H5 C6 1_555 1_555
C7 C5 1_555 1_555
O1 P1 1_555 1_555
O2 P1 1_555 1_555
O3 P1 1_555 1_555
N1 C1 1_555 1_555
C8 C1 1_555 1_555
C9 C8 1_555 1_555
H6 C9 1_555 1_555
C10 C8 1_555 1_555
H7 C10 1_555 1_555
C11 O2 1_555 1_555
H8 C11 1_555 1_555
H9 C11 1_555 1_555
C12 H10 1_555 1_555
H11 C12 1_555 1_555
H12 C12 1_555 1_555
C13 C11 1_555 1_555
H13 C13 1_555 1_555
H14 C13 1_555 1_555
H15 C13 1_555 1_555
C14 O3 1_555 1_555
H16 C14 1_555 1_555
H17 C14 1_555 1_555
H18 N1 1_555 1_555
P2 C15 1_555 1_555
Cl2 C20 1_555 1_555
N2 C15 1_555 1_555
C15 H19 1_555 1_555
C16 N2 1_555 1_555
C17 H20 1_555 1_555
C18 C16 1_555 1_555
H21 C18 1_555 1_555
C19 C16 1_555 1_555
H22 C19 1_555 1_555
C20 C17 1_555 1_555
C21 C19 1_555 1_555
H23 C21 1_555 1_555
O4 P2 1_555 1_555
O5 P2 1_555 1_555
C22 C15 1_555 1_555
O6 P2 1_555 1_555
C23 C22 1_555 1_555
H24 C23 1_555 1_555
C24 C22 1_555 1_555
H25 C24 1_555 1_555
C25 O5 1_555 1_555
H26 C25 1_555 1_555
H27 C25 1_555 1_555
C26 C25 1_555 1_555
H28 C26 1_555 1_555
H29 C26 1_555 1_555
H30 C26 1_555 1_555
C27 O6 1_555 1_555
H31 C27 1_555 1_555
H32 C27 1_555 1_555
C28 C27 1_555 1_555
H33 C28 1_555 1_555
H34 C28 1_555 1_555
H35 C28 1_555 1_555
H36 N2 1_555 1_555
P1A C1A 1_555 1_555
C1A H1A 1_555 1_555
Cl1A C7A 1_555 1_555
C2A C3A 1_555 1_555
C3A H2A 1_555 1_555
C4A C2A 1_555 1_555
H3A C4A 1_555 1_555
C5A C4A 1_555 1_555
H4A C5A 1_555 1_555
C6A C3A 1_555 1_555
H5A C6A 1_555 1_555
C7A C5A 1_555 1_555
O1A P1A 1_555 1_555
O2A P1A 1_555 1_555
O3A P1A 1_555 1_555
N1A C1A 1_555 1_555
C8A C1A 1_555 1_555
C9A C10 1_555 1_555
H6A C9A 1_555 1_555
C10A C9 1_555 1_555
H7A C10A 1_555 1_555
C11A O2A 1_555 1_555
H8A C11A 1_555 1_555
H9A C11A 1_555 1_555
C12A H10A 1_555 1_555
H11A C12A 1_555 1_555
H12A C12A 1_555 1_555
C13A C11A 1_555 1_555
H13A C13A 1_555 1_555
H14A C13A 1_555 1_555
H15A C13A 1_555 1_555
C14A O3A 1_555 1_555
H16A C14A 1_555 1_555
H17A C14A 1_555 1_555
H18A N1A 1_555 1_555
P2A C15A 1_555 1_555
Cl2A C20A 1_555 1_555
N2A C15A 1_555 1_555
C15A H19A 1_555 1_555
C16A N2A 1_555 1_555
C17A H20A 1_555 1_555
C18A C16A 1_555 1_555
H21A C18A 1_555 1_555
C19A C16A 1_555 1_555
H22A C19A 1_555 1_555
C20A C17A 1_555 1_555
C21A C19A 1_555 1_555
H23A C21A 1_555 1_555
O4A P2A 1_555 1_555
O5A P2A 1_555 1_555
C22A C15A 1_555 1_555
O6A P2A 1_555 1_555
C23A C24 1_555 1_555
H24A C23A 1_555 1_555
C24A C23 1_555 1_555
H25A C24A 1_555 1_555
C25A O5A 1_555 1_555
H26A C25A 1_555 1_555
H27A C25A 1_555 1_555
C26A C25A 1_555 1_555
H28A C26A 1_555 1_555
H29A C26A 1_555 1_555
H30A C26A 1_555 1_555
C27A O6A 1_555 1_555
H31A C27A 1_555 1_555
H32A C27A 1_555 1_555
C28A C27A 1_555 1_555
H33A C28A 1_555 1_555
H34A C28A 1_555 1_555
H35A C28A 1_555 1_555
H36A N2A 1_555 1_555
C2 N1 1_555 1_555
C6 C7 1_555 1_555
C12 C14 1_555 1_555
C17 C18 1_555 1_555
C20 C21 1_555 1_555
C2A N1A 1_555 1_555
C6A C7A 1_555 1_555
C8A C9A 1_555 1_555
C8A C10A 1_555 1_555
C12A C14A 1_555 1_555
C17A C18A 1_555 1_555
C20A C21A 1_555 1_555
C22A C23A 1_555 1_555
C22A C24A 1_555 1_555

#END
