
#######################################################################
#
#                 Cambridge Crystallographic Data Centre
#                                CCDC 
#
#######################################################################
#
# If this CIF has been generated from an entry in the Cambridge 
# Structural Database, then it will include bibliographic, chemical, 
# crystal, experimental, refinement or atomic coordinate data resulting 
# from the CCDC's data processing and validation procedures.
#
#######################################################################

data_QUDXUK
_chemical_formula_moiety         'C12 H10 N2 O2 S1'
_chemical_name_systematic        4-((4-nitrobenzyl)sulfanyl)pyridine
_symmetry_cell_setting           monoclinic
_symmetry_space_group_name_H-M   'P 21/c'
_symmetry_Int_Tables_number      14
_space_group_name_Hall           '-P 2ybc'
loop_
_symmetry_equiv_pos_site_id
_symmetry_equiv_pos_as_xyz
1 x,y,z
2 -x,1/2+y,1/2-z
3 -x,-y,-z
4 x,1/2-y,1/2+z
_cell_length_a                   7.8041(3)
_cell_length_b                   20.7401(8)
_cell_length_c                   7.2625(3)
_cell_angle_alpha                90
_cell_angle_beta                 97.946(3)
_cell_angle_gamma                90
_cell_volume                     1164.21
_cell_formula_units_Z            4
loop_
_atom_site_label
_atom_site_type_symbol
_atom_site_fract_x
_atom_site_fract_y
_atom_site_fract_z
S1 S 0.05341(9) 0.37984(3) 0.18239(8)
N1 N -0.3486(3) 0.52291(11) 0.3273(4)
N2 N 0.7308(3) 0.19212(12) 0.2647(3)
O1 O 0.8537(2) 0.21946(10) 0.2140(3)
O2 O 0.7254(2) 0.13411(10) 0.2896(3)
C1 C -0.2707(3) 0.48287(12) 0.4558(4)
H1 H -0.3024 0.4850 0.5745
C2 C -0.1468(3) 0.43864(11) 0.4250(3)
H2 H -0.0954 0.4125 0.5213
C3 C -0.0995(3) 0.43345(10) 0.2483(3)
C4 C -0.1831(3) 0.47382(11) 0.1117(4)
H3 H -0.1583 0.4716 -0.0098
C5 C -0.3027(4) 0.51705(13) 0.1590(4)
H4 H -0.3555 0.5442 0.0663
C6 C 0.1453(3) 0.34223(11) 0.3974(3)
H5 H 0.1822 0.3748 0.4902
H6 H 0.0600 0.3149 0.4440
C7 C 0.2982(2) 0.30241(10) 0.3589(3)
C8 C 0.2889(3) 0.23587(10) 0.3532(3)
H7 H 0.1863 0.2154 0.3703
C9 C 0.4297(3) 0.19956(10) 0.3227(3)
H8 H 0.4236 0.1548 0.3204
C10 C 0.5791(3) 0.23066(11) 0.2958(3)
C11 C 0.5926(3) 0.29656(11) 0.2972(3)
H9 H 0.6945 0.3166 0.2759
C12 C 0.4517(3) 0.33229(10) 0.3309(3)
H10 H 0.4594 0.3770 0.3349
loop_
_geom_bond_atom_site_label_1
_geom_bond_atom_site_label_2
_geom_bond_site_symmetry_1
_geom_bond_site_symmetry_2
S1 C3 1_555 1_555
N1 C1 1_555 1_555
N2 O1 1_555 1_555
O2 N2 1_555 1_555
C1 H1 1_555 1_555
C2 C1 1_555 1_555
H2 C2 1_555 1_555
C3 C2 1_555 1_555
C4 C3 1_555 1_555
H3 C4 1_555 1_555
C5 N1 1_555 1_555
H4 C5 1_555 1_555
C6 S1 1_555 1_555
H5 C6 1_555 1_555
H6 C6 1_555 1_555
C7 C6 1_555 1_555
C8 C7 1_555 1_555
H7 C8 1_555 1_555
C9 C8 1_555 1_555
H8 C9 1_555 1_555
C10 N2 1_555 1_555
C11 C10 1_555 1_555
H9 C11 1_555 1_555
C12 C7 1_555 1_555
H10 C12 1_555 1_555
C4 C5 1_555 1_555
C9 C10 1_555 1_555
C11 C12 1_555 1_555

#END
