
#######################################################################
#
#                 Cambridge Crystallographic Data Centre
#                                CCDC 
#
#######################################################################
#
# If this CIF has been generated from an entry in the Cambridge 
# Structural Database, then it will include bibliographic, chemical, 
# crystal, experimental, refinement or atomic coordinate data resulting 
# from the CCDC's data processing and validation procedures.
#
#######################################################################

data_QUGJAF
_chemical_name_common            
1,8-oxybis(ethyleneethoxyethylenethio)anthracene-9,10-dione
_chemical_formula_moiety         'C22 H22 O6 S1'
_chemical_name_systematic        
6,9,15,18-tetraoxa-12-thiatetracyclo[21.3.1.0^5,26^.0^19,24^]heptacosa-1(26),2,4,19,21,23-hexaene-25,27-dione
_symmetry_cell_setting           monoclinic
_symmetry_space_group_name_H-M   'P 21/n'
_symmetry_Int_Tables_number      14
_space_group_name_Hall           '-P 2yn'
loop_
_symmetry_equiv_pos_site_id
_symmetry_equiv_pos_as_xyz
1 x,y,z
2 1/2-x,1/2+y,1/2-z
3 -x,-y,-z
4 1/2+x,1/2-y,1/2+z
_cell_length_a                   14.3298(15)
_cell_length_b                   8.1440(8)
_cell_length_c                   16.8072(17)
_cell_angle_alpha                90
_cell_angle_beta                 104.2090(10)
_cell_angle_gamma                90
_cell_volume                     1901.43
_exptl_crystal_colour            'pale yellow'
_exptl_crystal_description       block
_cell_formula_units_Z            4
loop_
_atom_site_label
_atom_site_type_symbol
_atom_site_fract_x
_atom_site_fract_y
_atom_site_fract_z
O1 O -0.13636(9) 0.20241(17) 0.04403(8)
O2 O 0.08960(10) 0.52044(18) 0.25545(8)
O3 O 0.01454(11) 0.2663(2) 0.16580(9)
O4 O 0.23408(11) 0.3614(2) -0.03853(10)
C1 C 0.07954(14) 0.2840(2) -0.02597(12)
C2 C -0.07451(14) 0.1979(2) -0.00520(12)
C3 C 0.05589(15) 0.2160(3) -0.10445(13)
H1 H 0.0984 0.2241 -0.1382
C4 C -0.09611(15) 0.1286(2) -0.08305(12)
H2 H -0.1549 0.0762 -0.1027
C5 C 0.13398(14) 0.4372(2) 0.13539(12)
C6 C 0.04926(14) 0.3246(2) 0.11299(12)
C7 C -0.22927(14) 0.1256(3) 0.01767(12)
H3 H -0.2222 0.0072 0.0174
H4 H -0.2608 0.1610 -0.0375
C8 C 0.01619(14) 0.2733(2) 0.02541(12)
C9 C -0.28828(15) 0.1750(3) 0.07661(13)
H5 H -0.2768 0.2903 0.0898
H6 H -0.3559 0.1628 0.0493
C10 C 0.17563(15) 0.3632(3) 0.00342(13)
C11 C -0.03106(15) 0.1365(3) -0.13164(13)
H7 H -0.0462 0.0877 -0.1832
C12 C 0.30616(15) 0.6132(3) 0.18386(14)
H8 H 0.3640 0.6698 0.2007
C13 C 0.15585(14) 0.5243(2) 0.21052(12)
C14 C -0.17707(15) 0.1124(3) 0.20488(12)
H9 H -0.1629 0.2289 0.2099
H10 H -0.1272 0.0578 0.1848
C15 C 0.19817(14) 0.4466(2) 0.08486(13)
C16 C 0.24192(15) 0.6113(3) 0.23323(13)
H11 H 0.2565 0.6691 0.2825
C17 C 0.28466(15) 0.5315(3) 0.10980(14)
H12 H 0.3279 0.5331 0.0766
O5 O -0.26927(11) 0.0842(2) 0.15119(9)
S1 S -0.0674(3) 0.0237(4) 0.3562(2)
C18 C -0.0509(4) 0.2171(7) 0.4082(3)
H13 H -0.1090 0.2452 0.4251
H14 H 0.0013 0.2082 0.4572
O6 O 0.0201(3) 0.4786(5) 0.4069(2)
C19 C -0.0285(4) 0.3510(5) 0.3543(3)
H15 H 0.0122 0.3091 0.3205
H16 H -0.0874 0.3928 0.3186
C20 C 0.0268(4) 0.6273(7) 0.3641(3)
H17 H 0.0329 0.7185 0.4022
H18 H -0.0322 0.6427 0.3219
C21 C -0.1836(4) 0.0416(8) 0.2860(3)
H19 H -0.2133 -0.0660 0.2771
H20 H -0.2242 0.1115 0.3100
C22 C 0.1104(7) 0.6300(11) 0.3251(4)
H21 H 0.1204 0.7406 0.3074
H22 H 0.1685 0.5950 0.3644
H23? H -0.1716 0.2258 0.2230
H24? H -0.1269 0.0904 0.1767
C23? C 0.1045(7) 0.5919(12) 0.3356(4)
H25? H 0.1065 0.7107 0.3321
H26? H 0.1649 0.5541 0.3707
C24? C -0.1663(4) -0.0032(7) 0.2790(3)
H27? H -0.1862 -0.1125 0.2589
H28? H -0.2099 0.0332 0.3114
C25? C 0.0218(4) 0.5391(7) 0.3699(4)
H29? H 0.0228 0.5996 0.4198
H30? H -0.0387 0.5618 0.3305
C26? C -0.0567(4) 0.3088(7) 0.4056(4)
H31? H -0.1107 0.3254 0.3586
H32? H -0.0690 0.3701 0.4515
S2? S -0.0462(2) -0.0156(4) 0.3454(2)
C27? C -0.0469(4) 0.1287(7) 0.4269(3)
H33? H -0.0993 0.0989 0.4512
H34? H 0.0125 0.1141 0.4688
O7? O 0.0300(2) 0.3671(5) 0.3871(2)
loop_
_geom_bond_atom_site_label_1
_geom_bond_atom_site_label_2
_geom_bond_site_symmetry_1
_geom_bond_site_symmetry_2
O1 C2 1_555 1_555
O2 C13 1_555 1_555
O3 C6 1_555 1_555
O4 C10 1_555 1_555
C1 C3 1_555 1_555
C2 C4 1_555 1_555
C3 H1 1_555 1_555
C4 H2 1_555 1_555
C5 C6 1_555 1_555
C6 C8 1_555 1_555
C7 O1 1_555 1_555
H3 C7 1_555 1_555
H4 C7 1_555 1_555
C8 C1 1_555 1_555
C9 C7 1_555 1_555
H5 C9 1_555 1_555
H6 C9 1_555 1_555
C10 C1 1_555 1_555
C11 C3 1_555 1_555
H7 C11 1_555 1_555
C12 H8 1_555 1_555
C13 C5 1_555 1_555
C14 H9 1_555 1_555
H10 C14 1_555 1_555
C15 C5 1_555 1_555
C16 C12 1_555 1_555
H11 C16 1_555 1_555
C17 C12 1_555 1_555
H12 C17 1_555 1_555
O5 C9 1_555 1_555
S1 C18 1_555 1_555
C18 H13 1_555 1_555
H14 C18 1_555 1_555
O6 C19 1_555 1_555
C19 C18 1_555 1_555
H15 C19 1_555 1_555
H16 C19 1_555 1_555
C20 O6 1_555 1_555
H17 C20 1_555 1_555
H18 C20 1_555 1_555
C21 C14 1_555 1_555
H19 C21 1_555 1_555
H20 C21 1_555 1_555
C22 O2 1_555 1_555
H21 C22 1_555 1_555
H22 C22 1_555 1_555
C2 C8 1_555 1_555
C4 C11 1_555 1_555
C10 C15 1_555 1_555
C13 C16 1_555 1_555
C14 O5 1_555 1_555
C15 C17 1_555 1_555
S1 C21 1_555 1_555
C20 C22 1_555 1_555

#END
