
#######################################################################
#
#                 Cambridge Crystallographic Data Centre
#                                CCDC 
#
#######################################################################
#
# If this CIF has been generated from an entry in the Cambridge 
# Structural Database, then it will include bibliographic, chemical, 
# crystal, experimental, refinement or atomic coordinate data resulting 
# from the CCDC's data processing and validation procedures.
#
#######################################################################

data_QUGKAG
_chemical_formula_moiety         'C40 H41 N3 O12'
_chemical_name_systematic        
"1'-benzyl 1,1''-di-t-butyl 4',5'-dimethyl 2,2''-dioxo-1'H-dispiro[indole-3,2'-pyrrolidine-3',3''-indole]-1,1',1'',4',5'(2H,2''H)-pentacarboxylate"
_symmetry_cell_setting           monoclinic
_symmetry_space_group_name_H-M   'P 21/c'
_symmetry_Int_Tables_number      14
_space_group_name_Hall           '-P 2ybc'
loop_
_symmetry_equiv_pos_site_id
_symmetry_equiv_pos_as_xyz
1 x,y,z
2 -x,1/2+y,1/2-z
3 -x,-y,-z
4 x,1/2-y,1/2+z
_cell_length_a                   10.8958(12)
_cell_length_b                   17.3981(19)
_cell_length_c                   19.868(2)
_cell_angle_alpha                90
_cell_angle_beta                 91.143(2)
_cell_angle_gamma                90
_cell_volume                     3765.55
_exptl_crystal_colour            colorless
_exptl_crystal_description       block
_cell_formula_units_Z            4
loop_
_atom_site_label
_atom_site_type_symbol
_atom_site_fract_x
_atom_site_fract_y
_atom_site_fract_z
O1 O 0.22171(9) 0.59324(5) 0.85636(5)
O2 O 0.22842(8) 0.94365(5) 1.01265(5)
C1 C 0.14162(13) 0.87194(8) 1.13717(7)
H1 H 0.2278 0.8664 1.1437
C2 C 0.06270(15) 0.81695(9) 1.16256(8)
H2 H 0.0946 0.7739 1.1866
C3 C 0.18573(16) 0.46118(9) 0.81530(8)
H3 H 0.2111 0.4782 0.7707
H4 H 0.1240 0.4205 0.8104
H5 H 0.2572 0.4414 0.8405
O3 O 0.36815(10) 0.52821(5) 0.91617(6)
O4 O 0.29553(8) 0.72835(5) 0.80608(4)
O5 O 0.39175(8) 0.81292(5) 1.05461(4)
O6 O 0.10069(9) 0.65526(6) 1.05660(5)
O7 O 0.29692(9) 0.67752(5) 1.09221(5)
O8 O 0.34201(9) 1.01246(5) 0.81848(5)
O9 O 0.54325(9) 1.03726(6) 0.83577(5)
O10 O 0.58510(9) 0.76789(5) 0.78726(5)
O11 O 0.67645(9) 0.87772(6) 0.82062(5)
O12 O 0.36301(9) 1.03588(5) 0.97929(5)
N1 N 0.38932(10) 0.65630(6) 0.89251(5)
N2 N 0.36442(10) 0.91450(6) 0.93593(5)
N3 N 0.21532(9) 0.75167(6) 1.01114(5)
C4 C 0.02567(15) 0.56474(10) 0.81342(9)
H6 H -0.0018 0.6112 0.8365
H7 H -0.0424 0.5281 0.8099
H8 H 0.0531 0.5782 0.7682
C5 C 0.13113(13) 0.52871(8) 0.85311(7)
C6 C 0.32702(12) 0.58512(7) 0.88946(6)
C7 C 0.35663(11) 0.72392(7) 0.85663(6)
C8 C 0.41826(11) 0.79129(6) 0.89464(6)
C9 C 0.31924(11) 0.83608(6) 0.93799(6)
C10 C 0.32240(11) 0.97103(7) 0.97720(6)
C11 C 0.18225(13) 0.98930(8) 1.06832(7)
H9 H 0.1393 1.0359 1.0516
H10 H 0.2498 1.0048 1.0995
C12 C 0.09488(12) 0.93548(8) 1.10206(6)
C13 C -0.06286(16) 0.82516(10) 1.15261(9)
H11 H -0.1168 0.7868 1.1688
C14 C 0.09278(14) 0.50859(8) 0.92375(7)
H12 H 0.1638 0.4888 0.9494
H13 H 0.0284 0.4692 0.9217
H14 H 0.0613 0.5547 0.9459
C15 C 0.49096(11) 0.67213(7) 0.93717(6)
C16 C 0.51490(11) 0.75113(7) 0.93722(6)
C17 C 0.18717(11) 0.82516(7) 0.91576(6)
C18 C 0.12086(12) 0.86119(7) 0.86467(6)
H15 H 0.1592 0.8970 0.8357
C19 C -0.00334(12) 0.84375(8) 0.85660(7)
H16 H -0.0504 0.8676 0.8217
C20 C -0.05874(12) 0.79153(9) 0.89946(7)
H17 H -0.1434 0.7801 0.8930
C21 C 0.00661(12) 0.75551(8) 0.95165(7)
H18 H -0.0318 0.7201 0.9809
C22 C 0.13013(11) 0.77372(7) 0.95897(6)
C23 C 0.31933(11) 0.80077(7) 1.01000(6)
C24 C 0.19591(12) 0.69032(7) 1.05581(6)
C25 C 0.30612(13) 0.60920(7) 1.13681(6)
C26 C 0.43810(14) 0.61490(9) 1.16254(7)
H19 H 0.4938 0.6109 1.1246
H20 H 0.4550 0.5731 1.1945
H21 H 0.4506 0.6644 1.1852
C27 C 0.21592(13) 0.61657(8) 1.19392(6)
H22 H 0.2316 0.6646 1.2184
H23 H 0.2261 0.5729 1.2247
H24 H 0.1319 0.6169 1.1754
C28 C 0.28631(16) 0.53618(8) 1.09577(7)
H25 H 0.1994 0.5318 1.0826
H26 H 0.3105 0.4915 1.1230
H27 H 0.3362 0.5383 1.0553
C29 C 0.46463(11) 0.92860(6) 0.88995(6)
H28 H 0.5443 0.9346 0.9153
C30 C 0.43959(11) 0.99827(7) 0.84495(6)
C31 C 0.53481(16) 1.10286(10) 0.79078(9)
H29 H 0.4798 1.0905 0.7527
H30 H 0.6166 1.1152 0.7742
H31 H 0.5023 1.1472 0.8151
C32 C 0.46429(11) 0.85462(7) 0.84760(6)
H32 H 0.4031 0.8609 0.8098
C33 C 0.58810(11) 0.83661(7) 0.81786(6)
C34 C 0.69710(14) 0.74621(10) 0.75394(9)
H33 H 0.7104 0.7806 0.7157
H34 H 0.6900 0.6932 0.7377
H35 H 0.7666 0.7502 0.7858
C35 C -0.03122(13) 0.94353(9) 1.09416(8)
H36 H -0.0640 0.9871 1.0713
C36 C -0.11006(14) 0.88805(10) 1.11964(9)
H37 H -0.1964 0.8938 1.1142
C37 C 0.61152(11) 0.78109(7) 0.97508(6)
H38 H 0.6278 0.8347 0.9751
C38 C 0.68458(12) 0.73069(8) 1.01320(7)
H39 H 0.7523 0.7499 1.0389
C39 C 0.65844(13) 0.65261(8) 1.01362(7)
H40 H 0.7082 0.6193 1.0404
C40 C 0.56109(12) 0.62164(7) 0.97578(7)
H41 H 0.5436 0.5681 0.9765
loop_
_geom_bond_atom_site_label_1
_geom_bond_atom_site_label_2
_geom_bond_site_symmetry_1
_geom_bond_site_symmetry_2
O1 C5 1_555 1_555
O2 C10 1_555 1_555
C1 H1 1_555 1_555
C2 C1 1_555 1_555
H2 C2 1_555 1_555
C3 H3 1_555 1_555
H4 C3 1_555 1_555
H5 C3 1_555 1_555
O3 C6 1_555 1_555
O4 C7 1_555 1_555
O5 C23 1_555 1_555
O6 C24 1_555 1_555
O7 C24 1_555 1_555
O8 C30 1_555 1_555
O9 C30 1_555 1_555
O10 C33 1_555 1_555
O11 C33 1_555 1_555
O12 C10 1_555 1_555
N1 C6 1_555 1_555
N2 C9 1_555 1_555
N3 C22 1_555 1_555
C4 H6 1_555 1_555
H7 C4 1_555 1_555
H8 C4 1_555 1_555
C5 C3 1_555 1_555
C6 O1 1_555 1_555
C7 N1 1_555 1_555
C8 C7 1_555 1_555
C9 C8 1_555 1_555
C10 N2 1_555 1_555
C11 O2 1_555 1_555
H9 C11 1_555 1_555
H10 C11 1_555 1_555
C12 C1 1_555 1_555
C13 C2 1_555 1_555
H11 C13 1_555 1_555
C14 C5 1_555 1_555
H12 C14 1_555 1_555
H13 C14 1_555 1_555
H14 C14 1_555 1_555
C15 N1 1_555 1_555
C16 C8 1_555 1_555
C17 C9 1_555 1_555
C18 C17 1_555 1_555
H15 C18 1_555 1_555
C19 C18 1_555 1_555
H16 C19 1_555 1_555
C20 C19 1_555 1_555
H17 C20 1_555 1_555
C21 C20 1_555 1_555
H18 C21 1_555 1_555
C22 C17 1_555 1_555
C23 N3 1_555 1_555
C24 N3 1_555 1_555
C25 O7 1_555 1_555
C26 C25 1_555 1_555
H19 C26 1_555 1_555
H20 C26 1_555 1_555
H21 C26 1_555 1_555
C27 C25 1_555 1_555
H22 C27 1_555 1_555
H23 C27 1_555 1_555
H24 C27 1_555 1_555
C28 C25 1_555 1_555
H25 C28 1_555 1_555
H26 C28 1_555 1_555
H27 C28 1_555 1_555
C29 N2 1_555 1_555
H28 C29 1_555 1_555
C30 C29 1_555 1_555
C31 O9 1_555 1_555
H29 C31 1_555 1_555
H30 C31 1_555 1_555
H31 C31 1_555 1_555
C32 C8 1_555 1_555
H32 C32 1_555 1_555
C33 C32 1_555 1_555
C34 O10 1_555 1_555
H33 C34 1_555 1_555
H34 C34 1_555 1_555
H35 C34 1_555 1_555
C35 C12 1_555 1_555
H36 C35 1_555 1_555
C36 C13 1_555 1_555
H37 C36 1_555 1_555
C37 C16 1_555 1_555
H38 C37 1_555 1_555
C38 C37 1_555 1_555
H39 C38 1_555 1_555
C39 C38 1_555 1_555
H40 C39 1_555 1_555
C40 C15 1_555 1_555
H41 C40 1_555 1_555
C4 C5 1_555 1_555
C9 C23 1_555 1_555
C11 C12 1_555 1_555
C15 C16 1_555 1_555
C21 C22 1_555 1_555
C29 C32 1_555 1_555
C35 C36 1_555 1_555
C39 C40 1_555 1_555

#END
