
#######################################################################
#
#                 Cambridge Crystallographic Data Centre
#                                CCDC 
#
#######################################################################
#
# If this CIF has been generated from an entry in the Cambridge 
# Structural Database, then it will include bibliographic, chemical, 
# crystal, experimental, refinement or atomic coordinate data resulting 
# from the CCDC's data processing and validation procedures.
#
#######################################################################

data_QUGKIO
_chemical_formula_moiety         'C22 H24 O5 Se1'
_chemical_name_systematic        
6,9,15,18-tetraoxa-12-selenatetracyclo[21.3.1.0^5,26^.0^19,24^]heptacosa-1(26),2,4,19,21,23-hexaen-27-one
_symmetry_cell_setting           monoclinic
_symmetry_space_group_name_H-M   'P 21/n'
_symmetry_Int_Tables_number      14
_space_group_name_Hall           '-P 2yn'
loop_
_symmetry_equiv_pos_site_id
_symmetry_equiv_pos_as_xyz
1 x,y,z
2 1/2-x,1/2+y,1/2-z
3 -x,-y,-z
4 1/2+x,1/2-y,1/2+z
_cell_length_a                   14.6414(8)
_cell_length_b                   8.0187(4)
_cell_length_c                   16.9048(9)
_cell_angle_alpha                90
_cell_angle_beta                 104.1850(10)
_cell_angle_gamma                90
_cell_volume                     1924.19
_exptl_crystal_colour            'pale yellow'
_exptl_crystal_description       needle
_cell_formula_units_Z            4
loop_
_atom_site_label
_atom_site_type_symbol
_atom_site_fract_x
_atom_site_fract_y
_atom_site_fract_z
Se1 Se 0.453503(13) 0.48767(2) 0.346837(11)
O1 O 0.58946(9) -0.00497(16) 0.25047(8)
O2 O 0.52517(9) 0.10098(16) 0.38795(8)
O3 O 0.23184(9) 0.37279(17) 0.15222(8)
O4 O 0.36813(9) 0.28445(16) 0.04355(7)
C1 C 0.78419(14) -0.0140(2) 0.10972(12)
H1 H 0.8276 -0.0118 0.0777
C2 C 0.51609(13) 0.2271(2) 0.02241(11)
C3 C 0.65657(13) -0.0145(2) 0.20707(11)
C4 C 0.80490(13) -0.0988(2) 0.18264(12)
H2 H 0.8617 -0.1557 0.1992
C5 C 0.53893(13) 0.1533(2) 0.10643(11)
H3 H 0.5365 0.2412 0.1453
H4 H 0.4905 0.0726 0.1094
C6 C 0.57999(13) 0.2292(2) -0.02646(11)
C7 C 0.67493(13) 0.1538(2) 0.00267(12)
C8 C 0.32445(13) 0.3612(2) 0.20415(11)
H5 H 0.3704 0.4043 0.1766
H6 H 0.3399 0.2459 0.2190
C9 C 0.63291(13) 0.0694(2) 0.13178(11)
C10 C 0.27446(12) 0.3522(2) 0.01955(11)
H7 H 0.2446 0.3198 -0.0361
H8 H 0.2767 0.4730 0.0224
C11 C 0.42654(13) 0.2987(2) -0.00800(11)
C12 C 0.40319(13) 0.3728(2) -0.08418(11)
H9 H 0.3444 0.4220 -0.1033
C13 C 0.74114(14) -0.1000(2) 0.23200(11)
H10 H 0.7553 -0.1578 0.2812
C14 C 0.60393(14) -0.0976(2) 0.32493(11)
H11 H 0.6612 -0.0614 0.3632
H12 H 0.6093 -0.2157 0.3145
C15 C 0.21937(13) 0.2846(2) 0.07717(11)
H13 H 0.1530 0.2859 0.0496
H14 H 0.2374 0.1692 0.0892
C16 C 0.55548(14) 0.3016(2) -0.10438(11)
H15 H 0.5981 0.3011 -0.1371
C17 C 0.52028(14) -0.0655(2) 0.35897(12)
H16 H 0.4626 -0.0819 0.3169
H17 H 0.5203 -0.1424 0.4033
C18 C 0.69758(13) 0.0693(2) 0.08350(11)
C19 C 0.46819(14) 0.3733(2) -0.13225(11)
H18 H 0.4523 0.4225 -0.1836
C20 C 0.44013(13) 0.1497(2) 0.40791(11)
H19 H 0.4296 0.0809 0.4520
H20 H 0.3874 0.1347 0.3610
C21 C 0.32512(13) 0.4633(2) 0.27905(12)
H21 H 0.2862 0.4094 0.3104
H22 H 0.2988 0.5726 0.2628
O5 O 0.73279(10) 0.1604(2) -0.03868(9)
C22 C 0.44758(13) 0.3301(2) 0.43339(11)
H23 H 0.5036 0.3439 0.4775
H24 H 0.3936 0.3579 0.4546
loop_
_geom_bond_atom_site_label_1
_geom_bond_atom_site_label_2
_geom_bond_site_symmetry_1
_geom_bond_site_symmetry_2
Se1 C21 1_555 1_555
O1 C3 1_555 1_555
O2 C17 1_555 1_555
O3 C8 1_555 1_555
O4 C10 1_555 1_555
C1 H1 1_555 1_555
C2 C5 1_555 1_555
C3 C9 1_555 1_555
C4 C1 1_555 1_555
H2 C4 1_555 1_555
C5 H3 1_555 1_555
H4 C5 1_555 1_555
C6 C2 1_555 1_555
C7 C6 1_555 1_555
C8 H5 1_555 1_555
H6 C8 1_555 1_555
C9 C5 1_555 1_555
C10 H7 1_555 1_555
H8 C10 1_555 1_555
C11 O4 1_555 1_555
C12 C11 1_555 1_555
H9 C12 1_555 1_555
C13 C3 1_555 1_555
H10 C13 1_555 1_555
C14 O1 1_555 1_555
H11 C14 1_555 1_555
H12 C14 1_555 1_555
C15 O3 1_555 1_555
H13 C15 1_555 1_555
H14 C15 1_555 1_555
C16 C6 1_555 1_555
H15 C16 1_555 1_555
C17 C14 1_555 1_555
H16 C17 1_555 1_555
H17 C17 1_555 1_555
C18 C1 1_555 1_555
C19 C12 1_555 1_555
H18 C19 1_555 1_555
C20 O2 1_555 1_555
H19 C20 1_555 1_555
H20 C20 1_555 1_555
C21 C8 1_555 1_555
H21 C21 1_555 1_555
H22 C21 1_555 1_555
O5 C7 1_555 1_555
C22 Se1 1_555 1_555
H23 C22 1_555 1_555
H24 C22 1_555 1_555
C2 C11 1_555 1_555
C4 C13 1_555 1_555
C7 C18 1_555 1_555
C9 C18 1_555 1_555
C10 C15 1_555 1_555
C16 C19 1_555 1_555
C20 C22 1_555 1_555

#END
