
#######################################################################
#
#                 Cambridge Crystallographic Data Centre
#                                CCDC 
#
#######################################################################
#
# If this CIF has been generated from an entry in the Cambridge 
# Structural Database, then it will include bibliographic, chemical, 
# crystal, experimental, refinement or atomic coordinate data resulting 
# from the CCDC's data processing and validation procedures.
#
#######################################################################

data_QUGSES
_chemical_formula_moiety         'C24 H19 Br1 Cl1 N1 O1'
_chemical_name_systematic        
(6aS,7R,13aS)-9-Bromo-7-(4-chlorophenyl)-6a,11,12,13a-tetrahydro-6H,7H-chromeno[4,3-b]pyrrolo[3,2,1-ij]quinoline
_symmetry_cell_setting           monoclinic
_symmetry_space_group_name_H-M   'P 21'
_symmetry_Int_Tables_number      4
_space_group_name_Hall           'P 2yb'
loop_
_symmetry_equiv_pos_site_id
_symmetry_equiv_pos_as_xyz
1 x,y,z
2 -x,1/2+y,-z
_cell_length_a                   6.7838(8)
_cell_length_b                   17.392(2)
_cell_length_c                   8.6359(10)
_cell_angle_alpha                90
_cell_angle_beta                 105.145(2)
_cell_angle_gamma                90
_cell_volume                     983.508
_exptl_crystal_colour            colorless
_exptl_crystal_description       lathe
_chemical_melting_point          '228-230 deg.C'
_cell_formula_units_Z            2
_exptl_crystal_recrystallization_method hexanes/dichloromethane
loop_
_atom_site_label
_atom_site_type_symbol
_atom_site_fract_x
_atom_site_fract_y
_atom_site_fract_z
Br1 Br 0.17174(4) -0.08722(2) 1.38442(3)
Cl1 Cl -0.08666(12) 0.36203(4) 1.27543(9)
O1 O 0.4471(3) 0.22861(10) 0.6404(2)
N1 N 0.5581(3) 0.02145(12) 0.8706(2)
C1 C 0.4327(4) 0.06754(13) 0.7372(3)
H1 H 0.3130 0.0360 0.6788
C2 C 0.3549(3) 0.13599(13) 0.8180(3)
H2 H 0.4737 0.1572 0.9013
C3 C 0.1941(3) 0.10957(13) 0.9037(3)
H3 H 0.0713 0.0914 0.8202
C4 C 0.2832(4) 0.04105(13) 1.0093(3)
C5 C 0.2011(4) 0.01318(14) 1.1313(3)
H4 H 0.0858 0.0377 1.1525
C6 C 0.2877(4) -0.05002(13) 1.2210(3)
C7 C 0.4560(3) -0.08892(18) 1.1952(2)
H5 H 0.5134 -0.1321 1.2583
C8 C 0.5357(4) -0.06188(14) 1.0738(3)
C9 C 0.4521(4) 0.00304(13) 0.9849(3)
C10 C 0.2790(4) 0.19840(14) 0.6941(3)
H6 H 0.1748 0.1769 0.6018
H7 H 0.2148 0.2402 0.7417
C11 C 0.5471(4) 0.09529(14) 0.6180(3)
C12 C 0.5525(4) 0.17364(14) 0.5807(3)
C13 C 0.6682(4) 0.20040(15) 0.4800(3)
H8 H 0.6767 0.2540 0.4616
C14 C 0.7703(4) 0.14888(17) 0.4068(3)
H9 H 0.8508 0.1671 0.3395
C15 C 0.7553(4) 0.07009(16) 0.4320(3)
H10 H 0.8202 0.0343 0.3783
C16 C 0.6443(4) 0.04455(15) 0.5361(3)
H11 H 0.6340 -0.0092 0.5524
C17 C 0.7068(4) -0.09105(18) 1.0082(3)
H12 H 0.7010 -0.1476 0.9953
H13 H 0.8419 -0.0763 1.0780
C18 C 0.6628(4) -0.04996(14) 0.8445(3)
H14 H 0.7910 -0.0384 0.8147
H15 H 0.5738 -0.0817 0.7591
C19 C 0.1273(3) 0.17337(13) 0.9975(3)
C20 C 0.2505(4) 0.19738(14) 1.1461(3)
H16 H 0.3795 0.1737 1.1886
C21 C 0.1859(4) 0.25558(14) 1.2325(3)
H17 H 0.2697 0.2716 1.3335
C22 C -0.0028(4) 0.28977(14) 1.1687(3)
C23 C -0.1273(4) 0.26731(15) 1.0218(3)
H18 H -0.2559 0.2913 0.9794
C24 C -0.0611(4) 0.20915(15) 0.9373(3)
H19 H -0.1460 0.1934 0.8365
loop_
_geom_bond_atom_site_label_1
_geom_bond_atom_site_label_2
_geom_bond_site_symmetry_1
_geom_bond_site_symmetry_2
Br1 C6 1_555 1_555
Cl1 C22 1_555 1_555
O1 C10 1_555 1_555
N1 C1 1_555 1_555
C1 H1 1_555 1_555
C2 C1 1_555 1_555
H2 C2 1_555 1_555
C3 C2 1_555 1_555
H3 C3 1_555 1_555
C4 C3 1_555 1_555
C5 C4 1_555 1_555
H4 C5 1_555 1_555
C6 C5 1_555 1_555
C7 C6 1_555 1_555
H5 C7 1_555 1_555
C8 C7 1_555 1_555
C9 N1 1_555 1_555
C10 C2 1_555 1_555
H6 C10 1_555 1_555
H7 C10 1_555 1_555
C11 C1 1_555 1_555
C12 O1 1_555 1_555
C13 C12 1_555 1_555
H8 C13 1_555 1_555
C14 C13 1_555 1_555
H9 C14 1_555 1_555
C15 C14 1_555 1_555
H10 C15 1_555 1_555
C16 C11 1_555 1_555
H11 C16 1_555 1_555
C17 C8 1_555 1_555
H12 C17 1_555 1_555
H13 C17 1_555 1_555
C18 N1 1_555 1_555
H14 C18 1_555 1_555
H15 C18 1_555 1_555
C19 C3 1_555 1_555
C20 C19 1_555 1_555
H16 C20 1_555 1_555
C21 C20 1_555 1_555
H17 C21 1_555 1_555
C22 C21 1_555 1_555
C23 C22 1_555 1_555
H18 C23 1_555 1_555
C24 C19 1_555 1_555
H19 C24 1_555 1_555
C4 C9 1_555 1_555
C8 C9 1_555 1_555
C11 C12 1_555 1_555
C15 C16 1_555 1_555
C17 C18 1_555 1_555
C23 C24 1_555 1_555

#END
