
#######################################################################
#
#                 Cambridge Crystallographic Data Centre
#                                CCDC 
#
#######################################################################
#
# If this CIF has been generated from an entry in the Cambridge 
# Structural Database, then it will include bibliographic, chemical, 
# crystal, experimental, refinement or atomic coordinate data resulting 
# from the CCDC's data processing and validation procedures.
#
#######################################################################

data_QUHLIQ
_chemical_formula_moiety         'C33 H58 O6 Si1'
_chemical_name_systematic        
'3-((t-butyl(dimethyl)silyl)oxy)-17-methoxy-4,4,8,10,14-pentamethylgonane-12,15-diyl diacetate'
_symmetry_cell_setting           monoclinic
_symmetry_space_group_name_H-M   'P 21'
_symmetry_Int_Tables_number      4
_space_group_name_Hall           'P 2yb'
loop_
_symmetry_equiv_pos_site_id
_symmetry_equiv_pos_as_xyz
1 x,y,z
2 -x,1/2+y,-z
_cell_length_a                   11.1824(8)
_cell_length_b                   12.1736(10)
_cell_length_c                   12.1396(9)
_cell_angle_alpha                90
_cell_angle_beta                 100.485(3)
_cell_angle_gamma                90
_cell_volume                     1624.97
_exptl_crystal_colour            colorless
_exptl_crystal_description       flake
_cell_formula_units_Z            2
_chemical_properties_physical    
'Air-sensitive, Heat-sensitive, Light-sensitive'
loop_
_atom_site_label
_atom_site_type_symbol
_atom_site_fract_x
_atom_site_fract_y
_atom_site_fract_z
C1 C -0.1477(5) 0.9309(5) 0.4430(4)
H1 H -0.1141 0.9991 0.4789
H2 H -0.1122 0.8679 0.4877
H3 H -0.2362 0.9305 0.4380
O1 O -0.1700(3) 0.7922(3) 0.1668(3)
O2 O -0.3599(3) 1.0712(4) 0.1433(3)
O3 O -0.2818(4) 0.6404(4) 0.1733(4)
O4 O 0.5549(3) 1.0025(3) 0.6736(3)
C2 C 0.0754(4) 0.8095(4) 0.3929(5)
H4 H 0.0467 0.7432 0.3485
H5 H 0.0436 0.8061 0.4637
C3 C 0.0244(4) 0.9122(5) 0.3271(5)
C4 C 0.2615(4) 0.9094(4) 0.4887(5)
H6 H 0.2150 0.9103 0.5516
C5 C -0.1170(4) 0.9232(5) 0.3238(4)
C6 C 0.4139(5) 0.7967(5) 0.6232(5)
H7 H 0.4089 0.7304 0.5768
H8 H 0.3495 0.7950 0.6682
H9 H 0.4934 0.7995 0.6729
C7 C 0.2258(4) 1.0180(5) 0.4239(4)
C8 C 0.0830(4) 1.0177(5) 0.3887(5)
H10 H 0.0516 1.0204 0.4607
C9 C 0.2154(4) 0.8088(5) 0.4198(5)
H11 H 0.2441 0.7414 0.4622
H12 H 0.2480 0.8086 0.3492
C10 C 0.3977(4) 0.8998(5) 0.5467(5)
C11 C -0.1662(4) 1.0249(5) 0.2552(5)
H13 H -0.1456 1.0156 0.1789
C12 C 0.0334(5) 1.1220(5) 0.3248(6)
H14 H 0.0616 1.1237 0.2521
H15 H 0.0675 1.1871 0.3684
C13 C 0.8503(5) 0.9739(5) 0.9301(5)
H16 H 0.9344 0.9509 0.9311
H17 H 0.8110 0.9221 0.9741
H18 H 0.8497 1.0476 0.9626
C14 C 0.2600(5) 1.1133(5) 0.5084(5)
H19 H 0.2446 1.1841 0.4682
H20 H 0.2069 1.1101 0.5653
C15 C 0.0558(5) 0.9042(6) 0.2086(5)
H21 H 0.1443 0.9033 0.2143
H22 H 0.0217 0.9677 0.1640
H23 H 0.0212 0.8365 0.1724
C16 C 0.4267(4) 1.0013(5) 0.6272(5)
H24 H 0.3802 0.9937 0.6897
C17 C 0.3931(5) 1.1094(5) 0.5678(5)
H25 H 0.4462 1.1215 0.5120
H26 H 0.4080 1.1699 0.6231
C18 C -0.2132(5) 0.6938(5) 0.1305(5)
C19 C 0.6081(5) 1.1636(5) 0.8515(6)
H27 H 0.6484 1.2121 0.8051
H28 H 0.6483 1.1701 0.9300
H29 H 0.5225 1.1849 0.8443
C20 C -0.3044(4) 1.0162(5) 0.2418(4)
H30 H -0.3318 1.0497 0.3082
C21 C 0.7808(5) 0.9758(5) 0.8090(5)
C22 C -0.3290(5) 0.8906(5) 0.2392(5)
H31 H -0.3806 0.8710 0.2945
H32 H -0.3714 0.8679 0.1639
C23 C 0.2912(5) 1.0388(5) 0.3224(5)
H33 H 0.2359 1.0777 0.2633
H34 H 0.3145 0.9684 0.2935
H35 H 0.3641 1.0835 0.3469
C24 C 0.5428(6) 0.9287(6) 0.8964(5)
H36 H 0.4579 0.9516 0.8913
H37 H 0.5856 0.9358 0.9740
H38 H 0.5455 0.8521 0.8724
C25 C -0.2042(4) 0.8327(5) 0.2687(5)
H39 H -0.2078 0.7711 0.3224
C26 C -0.4878(5) 1.0840(6) 0.1359(5)
H40 H -0.5247 1.0121 0.1440
H41 H -0.5230 1.1155 0.0629
H42 H -0.5036 1.1330 0.1957
C27 C 0.4899(4) 0.8905(5) 0.4692(5)
H43 H 0.4607 0.8374 0.4097
H44 H 0.5680 0.8657 0.5121
H45 H 0.5003 0.9624 0.4359
C28 C -0.1679(6) 0.6603(5) 0.0260(6)
H46 H -0.0799 0.6482 0.0438
H47 H -0.1859 0.7187 -0.0303
H48 H -0.2085 0.5924 -0.0037
C29 C 0.8445(5) 1.0562(6) 0.7425(6)
H49 H 0.8503 1.1282 0.7791
H50 H 0.7979 1.0628 0.6662
H51 H 0.9264 1.0290 0.7395
C30 C 0.7850(6) 0.8610(6) 0.7584(6)
H52 H 0.7439 0.8622 0.6798
H53 H 0.7438 0.8087 0.8002
H54 H 0.8698 0.8385 0.7627
Si1 Si 0.61785(12) 1.01788(13) 0.80387(12)
C31 C -0.1066(5) 1.1298(5) 0.3029(6)
O5 O -0.1509(6) 1.2358(6) 0.2600(8)
C32 C -0.1389(8) 1.2497(10) 0.1533(9)
C33 C -0.2053(18) 1.3484(13) 0.1035(15)
H55 H -0.1794 1.3664 0.0327
H56 H -0.1875 1.4103 0.1554
H57 H -0.2929 1.3336 0.0894
O6 O -0.0797(6) 1.1940(6) 0.1006(6)
H58 H -0.130(6) 1.139(6) 0.371(6)
O7? O -0.1445(8) 1.2038(8) 0.2029(9)
C34? C -0.1872(17) 1.3780(14) 0.1238(17)
H59? H -0.2066 1.4514 0.1486
H60? H -0.2616 1.3428 0.0842
H61? H -0.1283 1.3841 0.0734
C35? C -0.1351(9) 1.3115(10) 0.2214(9)
O8? O -0.0914(8) 1.3469(7) 0.3126(8)
loop_
_geom_bond_atom_site_label_1
_geom_bond_atom_site_label_2
_geom_bond_site_symmetry_1
_geom_bond_site_symmetry_2
C1 H1 1_555 1_555
H2 C1 1_555 1_555
H3 C1 1_555 1_555
O1 C18 1_555 1_555
O2 C20 1_555 1_555
O3 C18 1_555 1_555
O4 C16 1_555 1_555
C2 H4 1_555 1_555
H5 C2 1_555 1_555
C3 C2 1_555 1_555
C4 H6 1_555 1_555
C5 C1 1_555 1_555
C6 H7 1_555 1_555
H8 C6 1_555 1_555
H9 C6 1_555 1_555
C7 C4 1_555 1_555
C8 C3 1_555 1_555
H10 C8 1_555 1_555
C9 C2 1_555 1_555
H11 C9 1_555 1_555
H12 C9 1_555 1_555
C10 C4 1_555 1_555
C11 C5 1_555 1_555
H13 C11 1_555 1_555
C12 C8 1_555 1_555
H14 C12 1_555 1_555
H15 C12 1_555 1_555
C13 H16 1_555 1_555
H17 C13 1_555 1_555
H18 C13 1_555 1_555
C14 C7 1_555 1_555
H19 C14 1_555 1_555
H20 C14 1_555 1_555
C15 C3 1_555 1_555
H21 C15 1_555 1_555
H22 C15 1_555 1_555
H23 C15 1_555 1_555
C16 C10 1_555 1_555
H24 C16 1_555 1_555
C17 C14 1_555 1_555
H25 C17 1_555 1_555
H26 C17 1_555 1_555
C18 C28 1_555 1_555
C19 H27 1_555 1_555
H28 C19 1_555 1_555
H29 C19 1_555 1_555
C20 C11 1_555 1_555
H30 C20 1_555 1_555
C21 C13 1_555 1_555
C22 C20 1_555 1_555
H31 C22 1_555 1_555
H32 C22 1_555 1_555
C23 C7 1_555 1_555
H33 C23 1_555 1_555
H34 C23 1_555 1_555
H35 C23 1_555 1_555
C24 H36 1_555 1_555
H37 C24 1_555 1_555
H38 C24 1_555 1_555
C25 O1 1_555 1_555
H39 C25 1_555 1_555
C26 O2 1_555 1_555
H40 C26 1_555 1_555
H41 C26 1_555 1_555
H42 C26 1_555 1_555
C27 C10 1_555 1_555
H43 C27 1_555 1_555
H44 C27 1_555 1_555
H45 C27 1_555 1_555
C28 H46 1_555 1_555
H47 C28 1_555 1_555
H48 C28 1_555 1_555
C29 C21 1_555 1_555
H49 C29 1_555 1_555
H50 C29 1_555 1_555
H51 C29 1_555 1_555
C30 C21 1_555 1_555
H52 C30 1_555 1_555
H53 C30 1_555 1_555
H54 C30 1_555 1_555
Si1 O4 1_555 1_555
C31 C11 1_555 1_555
O5 C31 1_555 1_555
C32 O5 1_555 1_555
C33 C32 1_555 1_555
H55 C33 1_555 1_555
H56 C33 1_555 1_555
H57 C33 1_555 1_555
O6 C32 1_555 1_555
H58 C31 1_555 1_555
C3 C5 1_555 1_555
C4 C9 1_555 1_555
C5 C25 1_555 1_555
C6 C10 1_555 1_555
C7 C8 1_555 1_555
C12 C31 1_555 1_555
C16 C17 1_555 1_555
C19 Si1 1_555 1_555
C21 Si1 1_555 1_555
C22 C25 1_555 1_555
C24 Si1 1_555 1_555

#END
