
#######################################################################
#
#                 Cambridge Crystallographic Data Centre
#                                CCDC 
#
#######################################################################
#
# If this CIF has been generated from an entry in the Cambridge 
# Structural Database, then it will include bibliographic, chemical, 
# crystal, experimental, refinement or atomic coordinate data resulting 
# from the CCDC's data processing and validation procedures.
#
#######################################################################

data_QUHLOV
_chemical_formula_moiety         'C25 H22 Br4 P2 S2 Te1,C1 H2 Cl2'
_chemical_name_systematic        
'Tetrabromo-(bis(diphenylthiophosphinoyl)methane)-tellurium(iv) dichloromethane solvate'
_symmetry_cell_setting           triclinic
_symmetry_space_group_name_H-M   'P -1'
_symmetry_Int_Tables_number      2
_space_group_name_Hall           '-P 1'
loop_
_symmetry_equiv_pos_site_id
_symmetry_equiv_pos_as_xyz
1 x,y,z
2 -x,-y,-z
_cell_length_a                   12.1164(2)
_cell_length_b                   12.2314(3)
_cell_length_c                   12.9641(3)
_cell_angle_alpha                78.2680(10)
_cell_angle_beta                 82.135(2)
_cell_angle_gamma                61.4150(10)
_cell_volume                     1650.1
_exptl_crystal_colour            orange
_exptl_crystal_description       block
_cell_formula_units_Z            2
_exptl_crystal_recrystallization_method dichloromethane
loop_
_atom_site_label
_atom_site_type_symbol
_atom_site_fract_x
_atom_site_fract_y
_atom_site_fract_z
Te1 Te 0.22110(3) -0.25000(3) 0.27361(2)
Br1 Br 0.34394(4) -0.34720(4) 0.10309(4)
Br2 Br 0.09435(5) -0.15181(4) 0.44878(4)
Br3 Br 0.07498(5) -0.34690(5) 0.27290(4)
Br4 Br 0.38318(4) -0.44163(5) 0.39702(4)
S1 S 0.04485(12) -0.04763(11) 0.14828(10)
S2 S 0.37972(10) -0.13272(11) 0.21247(9)
P1 P 0.05109(10) 0.10952(11) 0.15961(9)
P2 P 0.29595(10) 0.02161(11) 0.27990(9)
C1 C -0.1074(4) 0.2320(4) 0.1778(3)
C2 C -0.1656(4) 0.3336(4) 0.0985(4)
H1 H -0.1238 0.3384 0.0314
C3 C -0.2858(4) 0.4278(5) 0.1190(4)
H2 H -0.3265 0.4972 0.0653
C4 C -0.3463(5) 0.4217(5) 0.2157(4)
H3 H -0.4276 0.4877 0.2291
C5 C -0.2889(5) 0.3191(5) 0.2943(4)
H4 H -0.3315 0.3147 0.3610
C6 C -0.1700(4) 0.2236(5) 0.2755(4)
H5 H -0.1312 0.1528 0.3286
C7 C 0.1259(4) 0.1647(4) 0.0463(3)
C8 C 0.1876(4) 0.0919(5) -0.0320(4)
H6 H 0.1912 0.0117 -0.0274
C9 C 0.2445(5) 0.1380(6) -0.1181(4)
H7 H 0.2865 0.0890 -0.1727
C10 C 0.2406(5) 0.2528(6) -0.1251(5)
H8 H 0.2803 0.2825 -0.1841
C11 C 0.1786(5) 0.3265(6) -0.0460(5)
H9 H 0.1757 0.4065 -0.0511
C12 C 0.1213(4) 0.2821(5) 0.0403(4)
H10 H 0.0791 0.3313 0.0948
C13 C 0.1248(4) 0.1015(4) 0.2762(3)
H11 H 0.0924 0.0600 0.3372
H12 H 0.0948 0.1891 0.2877
C14 C 0.3496(4) 0.1339(4) 0.2149(3)
C15 C 0.4354(4) 0.1069(4) 0.1281(3)
H13 H 0.4624 0.0311 0.1008
C16 C 0.4810(4) 0.1914(5) 0.0818(4)
H14 H 0.5399 0.1727 0.0233
C17 C 0.4410(4) 0.3027(4) 0.1206(4)
H15 H 0.4725 0.3601 0.0893
C18 C 0.3540(4) 0.3296(4) 0.2060(4)
H16 H 0.3259 0.4061 0.2324
C19 C 0.3084(4) 0.2469(4) 0.2527(4)
H17 H 0.2488 0.2667 0.3107
C20 C 0.3264(4) -0.0103(4) 0.4183(3)
C21 C 0.4354(5) -0.1166(5) 0.4538(4)
H18 H 0.4918 -0.1695 0.4055
C22 C 0.4622(5) -0.1461(5) 0.5592(4)
H19 H 0.5371 -0.2186 0.5833
C23 C 0.3789(5) -0.0687(5) 0.6296(4)
H20 H 0.3967 -0.0889 0.7022
C24 C 0.2701(5) 0.0375(5) 0.5947(4)
H21 H 0.2138 0.0902 0.6432
C25 C 0.2431(4) 0.0672(4) 0.4891(4)
H22 H 0.1684 0.1399 0.4650
Cl1 Cl 0.20973(15) 0.36470(14) 0.55749(13)
Cl2 Cl 0.04894(15) 0.55794(14) 0.68636(12)
C26 C 0.1417(8) 0.5246(6) 0.5719(6)
H23 H 0.2096 0.5479 0.5716
H24 H 0.0898 0.5771 0.5107
loop_
_geom_bond_atom_site_label_1
_geom_bond_atom_site_label_2
_geom_bond_site_symmetry_1
_geom_bond_site_symmetry_2
Te1 Br1 1_555 1_555
Br2 Te1 1_555 1_555
Br3 Te1 1_555 1_555
Br4 Te1 1_555 1_555
S1 Te1 1_555 1_555
S2 Te1 1_555 1_555
P1 S1 1_555 1_555
P2 S2 1_555 1_555
C1 P1 1_555 1_555
C2 C1 1_555 1_555
H1 C2 1_555 1_555
C3 C2 1_555 1_555
H2 C3 1_555 1_555
C4 C3 1_555 1_555
H3 C4 1_555 1_555
C5 C4 1_555 1_555
H4 C5 1_555 1_555
C6 C1 1_555 1_555
H5 C6 1_555 1_555
C7 P1 1_555 1_555
C8 C7 1_555 1_555
H6 C8 1_555 1_555
C9 C8 1_555 1_555
H7 C9 1_555 1_555
C10 C9 1_555 1_555
H8 C10 1_555 1_555
C11 C10 1_555 1_555
H9 C11 1_555 1_555
C12 C7 1_555 1_555
H10 C12 1_555 1_555
C13 P1 1_555 1_555
H11 C13 1_555 1_555
H12 C13 1_555 1_555
C14 P2 1_555 1_555
C15 C14 1_555 1_555
H13 C15 1_555 1_555
C16 C15 1_555 1_555
H14 C16 1_555 1_555
C17 C16 1_555 1_555
H15 C17 1_555 1_555
C18 C17 1_555 1_555
H16 C18 1_555 1_555
C19 C14 1_555 1_555
H17 C19 1_555 1_555
C20 P2 1_555 1_555
C21 C20 1_555 1_555
H18 C21 1_555 1_555
C22 C21 1_555 1_555
H19 C22 1_555 1_555
C23 C22 1_555 1_555
H20 C23 1_555 1_555
C24 C23 1_555 1_555
H21 C24 1_555 1_555
C25 C20 1_555 1_555
H22 C25 1_555 1_555
Cl1 C26 1_555 1_555
Cl2 C26 1_555 1_555
C26 H23 1_555 1_555
H24 C26 1_555 1_555
P2 C13 1_555 1_555
C5 C6 1_555 1_555
C11 C12 1_555 1_555
C18 C19 1_555 1_555
C24 C25 1_555 1_555

#END
