
#######################################################################
#
#                 Cambridge Crystallographic Data Centre
#                                CCDC 
#
#######################################################################
#
# If this CIF has been generated from an entry in the Cambridge 
# Structural Database, then it will include bibliographic, chemical, 
# crystal, experimental, refinement or atomic coordinate data resulting 
# from the CCDC's data processing and validation procedures.
#
#######################################################################

data_QUHQUH
_chemical_formula_moiety         'C18 H20 B1 N1 O4'
_chemical_name_systematic        
8-methyl-2,11-dioxo-9-phenyl-2,3,5a,8,9,9a-hexahydro-5H-9b,4-(epoxyethano)[1,2,3]oxaborazolo[2,3-a]isoindol-4-ium
_symmetry_cell_setting           monoclinic
_symmetry_space_group_name_H-M   'P 21/c'
_symmetry_Int_Tables_number      14
_space_group_name_Hall           '-P 2ybc'
loop_
_symmetry_equiv_pos_site_id
_symmetry_equiv_pos_as_xyz
1 x,y,z
2 -x,1/2+y,1/2-z
3 -x,-y,-z
4 x,1/2-y,1/2+z
_cell_length_a                   13.048(2)
_cell_length_b                   10.7891(19)
_cell_length_c                   12.787(2)
_cell_angle_alpha                90
_cell_angle_beta                 112.161(2)
_cell_angle_gamma                90
_cell_volume                     1667.13
_exptl_crystal_colour            colorless
_exptl_crystal_description       block
_cell_formula_units_Z            4
loop_
_atom_site_label
_atom_site_type_symbol
_atom_site_fract_x
_atom_site_fract_y
_atom_site_fract_z
B1 B 0.3734(2) 0.0467(3) 0.1992(2)
C1 C 0.5380(2) 0.0520(3) 0.3602(2)
C2 C 0.5232(2) 0.1852(3) 0.3200(2)
H1 H 0.5111 0.2382 0.3756
H2 H 0.5888 0.2138 0.3087
C3 C 0.4070(2) 0.0930(3) 0.0358(2)
C4 C 0.4527(2) 0.2044(3) 0.1096(2)
H3 H 0.5322 0.2094 0.1305
H4 H 0.4195 0.2798 0.0698
C5 C 0.3290(12) 0.2680(11) 0.2142(16)
H5 H 0.284(4) 0.280(5) 0.140(4)
H6 H 0.370(4) 0.346(5) 0.260(4)
C6 C 0.2780(4) 0.1913(4) 0.2784(4)
C7 C 0.1764(4) 0.2369(5) 0.2928(5)
H7 H 0.1690 0.3211 0.3039
C8 C 0.0964(4) 0.1600(5) 0.2901(5)
H8 H 0.0366 0.1931 0.3032
C9 C 0.0950(5) 0.0213(5) 0.2671(6)
H9 H 0.0802 -0.0210 0.3278
C10 C 0.2104(3) -0.0248(4) 0.2716(4)
H10 H 0.2589 -0.0238 0.3517
C11 C 0.2640(12) 0.0708(15) 0.2115(15)
C12 C -0.0010(4) -0.0076(5) 0.1573(5)
H11 H -0.0676 0.0289 0.1588
H12 H -0.0103 -0.0958 0.1486
H13 H 0.0141 0.0259 0.0950
C13 C 0.2056(9) -0.1568(11) 0.2358(8)
C14 C 0.1796(5) -0.1837(7) 0.1197(7)
H14 H 0.1695 -0.1187 0.0690
H15 H 0.337(5) 0.165(5) 0.362(5)
H16 H 0.203(5) 0.078(5) 0.135(5)
C15 C 0.1690(5) -0.3056(7) 0.0801(7)
H17 H 0.1467 -0.3223 0.0034
C16 C 0.1927(7) -0.4026(7) 0.1593(10)
H18 H 0.1854 -0.4842 0.1340
C17 C 0.2261(10) -0.3800(11) 0.2720(10)
H19 H 0.2450 -0.4453 0.3233
C18 C 0.2319(6) -0.2572(8) 0.3100(7)
H20 H 0.2539 -0.2423 0.3870
N1 N 0.42565(16) 0.18893(19) 0.21183(17)
O1 O 0.46005(14) -0.02094(16) 0.29016(15)
O2 O 0.61065(17) 0.0154(2) 0.44408(17)
O3 O 0.36918(14) 0.00766(16) 0.08723(14)
O4 O 0.40369(19) 0.0831(2) -0.05917(16)
C19? C 0.3385(19) 0.280(2) 0.214(3)
H21? H 0.3382 0.3547 0.1722
H22? H 0.3476 0.3017 0.2911
C20? C 0.2289(6) 0.1970(6) 0.1531(7)
H23? H 0.2169 0.1868 0.0732
C21? C 0.1258(6) 0.2481(7) 0.1628(8)
H24? H 0.1122 0.3329 0.1561
C22? C 0.0549(6) 0.1736(7) 0.1807(8)
H25? H -0.0092 0.2094 0.1826
C23? C 0.0668(8) 0.0366(8) 0.1985(10)
H26? H -0.0016 -0.0008 0.1457
C24? C 0.1623(5) -0.0148(7) 0.1669(6)
H27? H 0.1389 -0.0085 0.0847
C25? C 0.2502(18) 0.063(2) 0.214(2)
H28? H 0.2637 0.0740 0.2940
C26? C 0.0744(8) 0.0033(10) 0.3143(10)
H29? H 0.1445 0.0300 0.3685
H30? H 0.0678 -0.0849 0.3195
H31? H 0.0158 0.0434 0.3295
C27? C 0.1920(11) -0.1531(14) 0.1996(10)
C28? C 0.1499(8) -0.2331(11) 0.1124(9)
H32? H 0.1069 -0.2029 0.0412
C29? C 0.1700(9) -0.3605(12) 0.1274(11)
H33? H 0.1491 -0.4142 0.0660
C30? C 0.2219(13) -0.4042(14) 0.2369(13)
H34? H 0.2309 -0.4890 0.2498
C31? C 0.2612(8) -0.3213(10) 0.3286(9)
H35? H 0.2970 -0.3499 0.4020
C32? C 0.2444(7) -0.1946(10) 0.3054(9)
H36? H 0.2702 -0.1380 0.3644
loop_
_geom_bond_atom_site_label_1
_geom_bond_atom_site_label_2
_geom_bond_site_symmetry_1
_geom_bond_site_symmetry_2
B1 C11 1_555 1_555
C1 C2 1_555 1_555
C2 H1 1_555 1_555
H2 C2 1_555 1_555
C3 C4 1_555 1_555
C4 H3 1_555 1_555
H4 C4 1_555 1_555
C5 H5 1_555 1_555
H6 C5 1_555 1_555
C6 C5 1_555 1_555
C7 C6 1_555 1_555
H7 C7 1_555 1_555
C8 C7 1_555 1_555
H8 C8 1_555 1_555
C9 C8 1_555 1_555
H9 C9 1_555 1_555
C10 C9 1_555 1_555
H10 C10 1_555 1_555
C11 C6 1_555 1_555
C12 C9 1_555 1_555
H11 C12 1_555 1_555
H12 C12 1_555 1_555
H13 C12 1_555 1_555
C13 C10 1_555 1_555
C14 C13 1_555 1_555
H14 C14 1_555 1_555
H15 C6 1_555 1_555
H16 C11 1_555 1_555
C15 C14 1_555 1_555
H17 C15 1_555 1_555
C16 C15 1_555 1_555
H18 C16 1_555 1_555
C17 C16 1_555 1_555
H19 C17 1_555 1_555
C18 C13 1_555 1_555
H20 C18 1_555 1_555
N1 B1 1_555 1_555
O1 B1 1_555 1_555
O2 C1 1_555 1_555
O3 B1 1_555 1_555
O4 C3 1_555 1_555
C1 O1 1_555 1_555
C2 N1 1_555 1_555
C3 O3 1_555 1_555
C4 N1 1_555 1_555
C5 N1 1_555 1_555
C10 C11 1_555 1_555
C17 C18 1_555 1_555

#END
