
#######################################################################
#
#                 Cambridge Crystallographic Data Centre
#                                CCDC 
#
#######################################################################
#
# If this CIF has been generated from an entry in the Cambridge 
# Structural Database, then it will include bibliographic, chemical, 
# crystal, experimental, refinement or atomic coordinate data resulting 
# from the CCDC's data processing and validation procedures.
#
#######################################################################

data_QUJXUO
_chemical_formula_moiety         'C6 H10 B1 P1'
_chemical_name_systematic        Phenylphosphine-borane
_symmetry_cell_setting           monoclinic
_symmetry_space_group_name_H-M   'P 21/c'
_symmetry_Int_Tables_number      14
_space_group_name_Hall           '-P 2ybc'
loop_
_symmetry_equiv_pos_site_id
_symmetry_equiv_pos_as_xyz
1 x,y,z
2 x,1/2-y,1/2+z
3 -x,-y,-z
4 -x,1/2+y,1/2-z
_cell_length_a                   5.7037(2)
_cell_length_b                   7.4676(4)
_cell_length_c                   16.9791(6)
_cell_angle_alpha                90
_cell_angle_beta                 97.455(3)
_cell_angle_gamma                90
_cell_volume                     717.077
_exptl_crystal_description       block
_cell_formula_units_Z            4
loop_
_atom_site_label
_atom_site_type_symbol
_atom_site_fract_x
_atom_site_fract_y
_atom_site_fract_z
P1 P 0.37149(14) 0.24775(13) 0.42579(4)
H1 H 0.251(8) 0.384(6) 0.451(2)
H2 H 0.254(7) 0.106(5) 0.448(2)
C1 C 0.2995(5) 0.2535(5) 0.31913(17)
C2 C 0.0855(6) 0.3256(4) 0.28371(19)
H3 H -0.0232 0.3742 0.3159
C3 C 0.0313(6) 0.3264(5) 0.20164(19)
H4 H -0.1146 0.3752 0.1777
C4 C 0.1898(6) 0.2558(5) 0.15459(18)
H5 H 0.1522 0.2561 0.0984
C5 C 0.4030(6) 0.1849(5) 0.18924(19)
H6 H 0.5115 0.1374 0.1567
C6 C 0.4590(6) 0.1829(4) 0.27168(18)
H7 H 0.6050 0.1338 0.2954
B1 B 0.7012(6) 0.2512(6) 0.4682(2)
H8 H 0.772(7) 0.381(6) 0.448(2)
H9 H 0.777(7) 0.131(6) 0.443(2)
H10 H 0.697(7) 0.249(6) 0.534(2)
loop_
_geom_bond_atom_site_label_1
_geom_bond_atom_site_label_2
_geom_bond_site_symmetry_1
_geom_bond_site_symmetry_2
P1 H1 1_555 1_555
H2 P1 1_555 1_555
C1 P1 1_555 1_555
C2 C1 1_555 1_555
H3 C2 1_555 1_555
C3 C2 1_555 1_555
H4 C3 1_555 1_555
C4 C3 1_555 1_555
H5 C4 1_555 1_555
C5 C4 1_555 1_555
H6 C5 1_555 1_555
C6 C1 1_555 1_555
H7 C6 1_555 1_555
B1 P1 1_555 1_555
H8 B1 1_555 1_555
H9 B1 1_555 1_555
H10 B1 1_555 1_555
C5 C6 1_555 1_555

#END
