
#######################################################################
#
#                 Cambridge Crystallographic Data Centre
#                                CCDC 
#
#######################################################################
#
# If this CIF has been generated from an entry in the Cambridge 
# Structural Database, then it will include bibliographic, chemical, 
# crystal, experimental, refinement or atomic coordinate data resulting 
# from the CCDC's data processing and validation procedures.
#
#######################################################################

data_QULPUJ
_chemical_name_common            
(R)-2-(N-Pivalylamidoxy)-4-fluoro-N-isobutylbutanamide
_chemical_formula_moiety         'C13 H25 F1 N2 O3'
_chemical_name_systematic        
2-(((2,2-Dimethylpropanoyl)amino)oxy)-4-fluoro-N-isobutylbutanamide
_symmetry_cell_setting           orthorhombic
_symmetry_space_group_name_H-M   'P 21 21 21'
_symmetry_Int_Tables_number      19
_space_group_name_Hall           'P 2ac 2ab'
loop_
_symmetry_equiv_pos_site_id
_symmetry_equiv_pos_as_xyz
1 x,y,z
2 1/2-x,-y,1/2+z
3 1/2+x,1/2-y,-z
4 -x,1/2+y,1/2-z
_cell_length_a                   8.903(3)
_cell_length_b                   11.229(4)
_cell_length_c                   16.482(6)
_cell_angle_alpha                90
_cell_angle_beta                 90
_cell_angle_gamma                90
_cell_volume                     1647.73
_chemical_melting_point          '82.5 deg.C'
_cell_formula_units_Z            4
loop_
_atom_site_label
_atom_site_type_symbol
_atom_site_fract_x
_atom_site_fract_y
_atom_site_fract_z
F1 F 0.4017(12) 0.5085(7) 0.0217(5)
O1 O 0.5754(5) 0.9912(3) 0.1933(2)
O2 O 0.4934(4) 0.7891(3) 0.12638(18)
O3 O 0.8469(6) 0.6735(5) 0.0589(3)
N1 N 0.4900(5) 0.8962(3) 0.0843(2)
H1 H 0.4693 0.8984 0.0333
N2 N 0.7921(6) 0.8032(5) 0.1548(3)
H2 H 0.7264 0.8250 0.1900
C1 C 0.4869(7) 1.1135(4) 0.0830(3)
C2 C 0.4866(17) 1.1039(7) -0.0077(6)
H3 H 0.4645 1.1804 -0.0309
H4 H 0.4116 1.0475 -0.0243
H5 H 0.5835 1.0777 -0.0260
C3 C 0.352(2) 1.1586(14) 0.1131(12)
H6 H 0.3297 1.2330 0.0871
H7 H 0.3605 1.1709 0.1706
H8 H 0.2724 1.1030 0.1025
C4 C 0.6042(19) 1.1963(9) 0.1008(12)
H9 H 0.5832 1.2709 0.0748
H10 H 0.6981 1.1656 0.0813
H11 H 0.6102 1.2081 0.1584
C5 C 0.5200(5) 0.9959(4) 0.1257(3)
C6 C 0.5901(7) 0.7041(4) 0.0874(3)
H12 H 0.5691 0.7040 0.0291
C7 C 0.5463(8) 0.5862(5) 0.1220(3)
H13 H 0.6163 0.5268 0.1022
H14 H 0.5573 0.5900 0.1805
C8 C 0.3932(13) 0.5459(7) 0.1035(6)
H15 H 0.3640 0.4805 0.1386
H16 H 0.3215 0.6103 0.1097
C9 C 0.7527(7) 0.7298(5) 0.1002(3)
C10 C 0.9466(14) 0.8533(15) 0.1609(7)
H17 H 1.0145 0.8030 0.1302
H18 H 0.9474 0.9316 0.1360
C11 C 1.0013(15) 0.8634(17) 0.2418(13)
H19 H 0.9338 0.9044 0.2796
C12 C 1.1613(11) 0.8973(12) 0.2488(8)
H20 H 1.1715 0.9815 0.2403
H21 H 1.2187 0.8553 0.2086
H22 H 1.1975 0.8771 0.3019
C13 C 0.991(3) 0.737(2) 0.243(3)
H23 H 0.8869 0.7135 0.2396
H24 H 1.0339 0.7063 0.2917
H25 H 1.0437 0.7047 0.1968
loop_
_geom_bond_atom_site_label_1
_geom_bond_atom_site_label_2
_geom_bond_site_symmetry_1
_geom_bond_site_symmetry_2
F1 C8 1_555 1_555
O1 C5 1_555 1_555
O2 N1 1_555 1_555
O3 C9 1_555 1_555
N1 H1 1_555 1_555
N2 H2 1_555 1_555
C1 C2 1_555 1_555
C2 H3 1_555 1_555
H4 C2 1_555 1_555
H5 C2 1_555 1_555
C3 C1 1_555 1_555
H6 C3 1_555 1_555
H7 C3 1_555 1_555
H8 C3 1_555 1_555
C4 C1 1_555 1_555
H9 C4 1_555 1_555
H10 C4 1_555 1_555
H11 C4 1_555 1_555
C5 N1 1_555 1_555
C6 O2 1_555 1_555
H12 C6 1_555 1_555
C7 C6 1_555 1_555
H13 C7 1_555 1_555
H14 C7 1_555 1_555
C8 C7 1_555 1_555
H15 C8 1_555 1_555
H16 C8 1_555 1_555
C9 N2 1_555 1_555
C10 N2 1_555 1_555
H17 C10 1_555 1_555
H18 C10 1_555 1_555
C11 C10 1_555 1_555
H19 C11 1_555 1_555
C12 C11 1_555 1_555
H20 C12 1_555 1_555
H21 C12 1_555 1_555
H22 C12 1_555 1_555
C13 C11 1_555 1_555
H23 C13 1_555 1_555
H24 C13 1_555 1_555
H25 C13 1_555 1_555
C1 C5 1_555 1_555
C6 C9 1_555 1_555

#END
