
#######################################################################
#
#                 Cambridge Crystallographic Data Centre
#                                CCDC 
#
#######################################################################
#
# If this CIF has been generated from an entry in the Cambridge 
# Structural Database, then it will include bibliographic, chemical, 
# crystal, experimental, refinement or atomic coordinate data resulting 
# from the CCDC's data processing and validation procedures.
#
#######################################################################

data_QULPIY
_chemical_compound_source        'roots of Patrinia scabra'
_chemical_name_common            Isovillosol
_chemical_formula_moiety         'C10 H16 O4'
_chemical_name_systematic        
6,7-Dihydroxy-4,7-dimethylhexahydrocyclopenta[c]pyran-3(1H)-one
_symmetry_cell_setting           orthorhombic
_symmetry_space_group_name_H-M   'P 21 21 21'
_symmetry_Int_Tables_number      19
_space_group_name_Hall           'P 2ac 2ab'
loop_
_symmetry_equiv_pos_site_id
_symmetry_equiv_pos_as_xyz
1 x,y,z
2 1/2-x,-y,1/2+z
3 -x,1/2+y,1/2-z
4 1/2+x,1/2-y,-z
_cell_length_a                   6.946(11)
_cell_length_b                   11.515(18)
_cell_length_c                   12.102(19)
_cell_angle_alpha                90
_cell_angle_beta                 90
_cell_angle_gamma                90
_cell_volume                     967.957
_exptl_crystal_colour            colorless
_exptl_crystal_description       block
_chemical_melting_point          '68-70 deg.C'
_cell_formula_units_Z            4
loop_
_atom_site_label
_atom_site_type_symbol
_atom_site_fract_x
_atom_site_fract_y
_atom_site_fract_z
C1 C 0.2950(2) 0.77990(14) 0.68075(12)
H1 H 0.4136 0.7992 0.6408
C2 C 0.2735(3) 0.86382(14) 0.77878(14)
H2 H 0.3239 0.9400 0.7604
H3 H 0.1394 0.8716 0.8000
C3 C 0.3901(2) 0.80843(15) 0.87111(13)
H4 H 0.3437 0.8378 0.9423
C4 C 0.3377(2) 0.67899(14) 0.86103(13)
C5 C 0.3195(2) 0.65874(13) 0.73472(12)
H5 H 0.4412 0.6256 0.7084
C6 C 0.1582(3) 0.57690(15) 0.70146(16)
H6 H 0.1818 0.5490 0.6271
H7 H 0.1584 0.5103 0.7506
C7 C -0.0501(2) 0.73523(15) 0.65689(13)
C8 C 0.1251(2) 0.78207(14) 0.59827(13)
H8 H 0.1563 0.7278 0.5386
C9 C 0.4793(3) 0.59696(16) 0.91622(16)
H9 H 0.4833 0.6126 0.9941
H10 H 0.6051 0.6082 0.8851
H11 H 0.4391 0.5182 0.9043
C10 C 0.0925(3) 0.90021(17) 0.54586(16)
H12 H -0.0178 0.8968 0.4982
H13 H 0.2039 0.9217 0.5036
H14 H 0.0707 0.9569 0.6027
O1 O -0.20346(17) 0.78513(13) 0.66293(11)
O2 O -0.03012(18) 0.63217(11) 0.70537(10)
O3 O 0.15053(18) 0.66457(12) 0.90777(10)
H15 H 0.1572 0.6703 0.9752
O4 O 0.59199(16) 0.83189(13) 0.86179(10)
H16 H 0.6321 0.8065 0.8028
loop_
_geom_bond_atom_site_label_1
_geom_bond_atom_site_label_2
_geom_bond_site_symmetry_1
_geom_bond_site_symmetry_2
C1 H1 1_555 1_555
C2 C1 1_555 1_555
H2 C2 1_555 1_555
H3 C2 1_555 1_555
C3 C2 1_555 1_555
H4 C3 1_555 1_555
C4 C3 1_555 1_555
C5 C1 1_555 1_555
H5 C5 1_555 1_555
C6 C5 1_555 1_555
H6 C6 1_555 1_555
H7 C6 1_555 1_555
C7 C8 1_555 1_555
C8 C1 1_555 1_555
H8 C8 1_555 1_555
C9 C4 1_555 1_555
H9 C9 1_555 1_555
H10 C9 1_555 1_555
H11 C9 1_555 1_555
C10 C8 1_555 1_555
H12 C10 1_555 1_555
H13 C10 1_555 1_555
H14 C10 1_555 1_555
O1 C7 1_555 1_555
O2 C6 1_555 1_555
O3 C4 1_555 1_555
H15 O3 1_555 1_555
O4 C3 1_555 1_555
H16 O4 1_555 1_555
C4 C5 1_555 1_555
C7 O2 1_555 1_555

#END
