
#######################################################################
#
#                 Cambridge Crystallographic Data Centre
#                                CCDC 
#
#######################################################################
#
# If this CIF has been generated from an entry in the Cambridge 
# Structural Database, then it will include bibliographic, chemical, 
# crystal, experimental, refinement or atomic coordinate data resulting 
# from the CCDC's data processing and validation procedures.
#
#######################################################################

data_QULPUK
_chemical_compound_source        'leaves of Rhododendron micranthum'
_chemical_name_common            'Grayanotoxin IX'
_chemical_formula_moiety         'C22 H32 O5'
_chemical_name_systematic        
'3,5,6-Trihydroxygrayanotoxa-10,15-dien-14-yl acetate'
_symmetry_cell_setting           monoclinic
_symmetry_space_group_name_H-M   'P 21'
_symmetry_Int_Tables_number      4
_space_group_name_Hall           'P 2yb'
loop_
_symmetry_equiv_pos_site_id
_symmetry_equiv_pos_as_xyz
1 x,y,z
2 -x,1/2+y,-z
_cell_length_a                   12.685(3)
_cell_length_b                   13.536(3)
_cell_length_c                   13.411(3)
_cell_angle_alpha                90
_cell_angle_beta                 116.73(3)
_cell_angle_gamma                90
_cell_volume                     2056.65
_exptl_crystal_colour            colorless
_exptl_crystal_description       block
_cell_formula_units_Z            4
loop_
_atom_site_label
_atom_site_type_symbol
_atom_site_fract_x
_atom_site_fract_y
_atom_site_fract_z
C1 C 0.54364(18) 0.54121(15) 0.68625(17)
H1 H 0.6055 0.5022 0.7483
C2 C 0.63241(18) 0.21669(16) 0.85990(18)
C3 C 0.6104(2) 0.6092(2) 0.6404(2)
H2 H 0.5778 0.6770 0.6289
H3 H 0.6953 0.6121 0.6937
C4 C 0.6092(3) 0.10885(19) 0.8562(3)
H4 H 0.6711 0.0729 0.8466
H5 H 0.5323 0.0942 0.7935
H6 H 0.6089 0.0883 0.9261
C5 C 0.5938(2) 0.56501(18) 0.53015(19)
H7 H 0.6691 0.5684 0.5234
C6 C 0.55659(18) 0.45634(17) 0.53087(18)
C7 C 0.47501(16) 0.46610(14) 0.59037(16)
C8 C 0.45119(16) 0.37157(14) 0.64030(15)
H8 H 0.5300 0.3433 0.6916
C9 C 0.38429(16) 0.38658(15) 0.71032(16)
H9 H 0.3490 0.3224 0.7145
H10 H 0.3183 0.4328 0.6694
C10 C 0.45437(16) 0.42592(14) 0.83032(16)
C11 C 0.47504(18) 0.54150(15) 0.83876(17)
H11 H 0.4107 0.5715 0.8524
C12 C 0.46847(18) 0.58827(15) 0.73373(17)
C13 C 0.5940(2) 0.57023(18) 0.93943(19)
H12 H 0.6562 0.5687 0.9141
H13 H 0.5875 0.6393 0.9602
C14 C 0.63529(19) 0.50650(19) 1.04472(18)
H14 H 0.6043 0.5349 1.0943
H15 H 0.7226 0.5084 1.0852
C15 C 0.59447(19) 0.39752(17) 1.01900(17)
H16 H 0.6512 0.3506 1.0750
C16 C 0.57355(17) 0.37422(15) 0.90018(16)
H17 H 0.6380 0.3997 0.8837
C17 C 0.39358(18) 0.40350(15) 0.90354(17)
H18 H 0.3104 0.4011 0.8770
C18 C 0.47104(19) 0.38795(16) 1.00817(17)
C19 C 0.4519(3) 0.36939(19) 1.1089(2)
H19 H 0.4714 0.3005 1.1326
H20 H 0.3691 0.3821 1.0905
H21 H 0.5028 0.4134 1.1695
C20 C 0.6680(2) 0.3949(2) 0.6010(2)
H22 H 0.7217 0.3975 0.5667
H23 H 0.6455 0.3261 0.6042
H24 H 0.7077 0.4219 0.6768
C21 C 0.4964(2) 0.41237(19) 0.4139(2)
H25 H 0.4805 0.3422 0.4188
H26 H 0.5482 0.4195 0.3778
H27 H 0.4220 0.4471 0.3699
C22 C 0.3985(2) 0.66425(18) 0.6872(2)
H28 H 0.3937 0.6921 0.6203
H29 H 0.3529 0.6912 0.7207
O1 O 0.50143(16) 0.61499(13) 0.43890(15)
H30 H 0.5290 0.6651 0.4220
O2 O 0.36313(11) 0.50473(10) 0.51221(11)
H31 H 0.3735 0.5566 0.4833
O3 O 0.39202(12) 0.29878(10) 0.55571(12)
H32 H 0.3200 0.2979 0.5398
O4 O 0.70656(15) 0.25396(13) 0.83927(17)
O5 O 0.55691(12) 0.26785(10) 0.88379(12)
C23 C -0.01791(17) 0.51042(15) 0.29461(17)
H33 H -0.0788 0.4697 0.2337
C24 C -0.11599(19) 0.17560(17) 0.15256(19)
C25 C -0.0989(3) 0.0703(2) 0.1854(3)
H34 H -0.1244 0.0290 0.1185
H35 H -0.1458 0.0540 0.2246
H36 H -0.0153 0.0580 0.2348
C26 C -0.0846(2) 0.59135(18) 0.3248(2)
H37 H -0.0413 0.6548 0.3396
H38 H -0.1645 0.6011 0.2626
C27 C -0.0930(2) 0.55601(18) 0.4298(2)
H39 H -0.1763 0.5634 0.4179
C28 C -0.06047(18) 0.44523(17) 0.44160(19)
C29 C 0.03690(16) 0.44448(15) 0.39989(17)
C30 C 0.07253(17) 0.34217(14) 0.37576(16)
H40 H -0.0014 0.3042 0.3303
C31 C 0.14850(16) 0.34071(16) 0.31337(16)
H41 H 0.1824 0.2736 0.3215
H42 H 0.2153 0.3866 0.3526
C32 C 0.09219(17) 0.36717(15) 0.18884(17)
C33 C 0.0786(2) 0.48113(17) 0.16402(19)
H43 H 0.1512 0.5030 0.1587
C34 C 0.06948(18) 0.54418(15) 0.25347(17)
C35 C -0.0298(3) 0.5042(2) 0.0474(2)
H44 H -0.0994 0.5163 0.0608
H45 H -0.0127 0.5668 0.0194
C36 C -0.0644(2) 0.4288(2) -0.0443(2)
H46 H -0.0262 0.4458 -0.0921
H47 H -0.1509 0.4318 -0.0912
C37 C -0.02999(19) 0.32270(19) -0.00074(19)
H48 H -0.0840 0.2724 -0.0537
C38 C -0.02667(17) 0.31646(16) 0.11420(17)
H49 H -0.0947 0.3520 0.1164
C39 C 0.16515(18) 0.32718(17) 0.13327(19)
H50 H 0.2486 0.3201 0.1702
C40 C 0.0988(2) 0.30359(19) 0.02812(19)
C41 C 0.1336(3) 0.2708(2) -0.0603(2)
H51 H 0.2184 0.2567 -0.0258
H52 H 0.1155 0.3234 -0.1159
H53 H 0.0895 0.2111 -0.0968
C42 C -0.1725(2) 0.3872(2) 0.3627(2)
H54 H -0.2020 0.4130 0.2866
H55 H -0.2334 0.3949 0.3880
H56 H -0.1530 0.3171 0.3635
C43 C -0.0194(2) 0.4056(2) 0.5598(2)
H57 H -0.0198 0.3332 0.5582
H58 H -0.0728 0.4289 0.5895
H59 H 0.0608 0.4292 0.6075
C44 C 0.1367(2) 0.62342(19) 0.2924(2)
H60 H 0.1316 0.6623 0.3490
H61 H 0.1902 0.6414 0.2637
O6 O -0.01626(16) 0.61288(13) 0.52641(14)
H62 H -0.0373 0.6724 0.5167
O7 O 0.13397(11) 0.49428(11) 0.48674(11)
H63 H 0.1886 0.5010 0.4682
O8 O 0.13756(13) 0.28975(11) 0.47810(12)
H64 H 0.1461 0.3259 0.5321
O9 O -0.20164(17) 0.22093(16) 0.1358(3)
O10 O -0.02147(13) 0.21421(11) 0.14770(13)
loop_
_geom_bond_atom_site_label_1
_geom_bond_atom_site_label_2
_geom_bond_site_symmetry_1
_geom_bond_site_symmetry_2
C1 H1 1_555 1_555
C2 C4 1_555 1_555
C3 C1 1_555 1_555
H2 C3 1_555 1_555
H3 C3 1_555 1_555
C4 H4 1_555 1_555
H5 C4 1_555 1_555
H6 C4 1_555 1_555
C5 C3 1_555 1_555
H7 C5 1_555 1_555
C6 C5 1_555 1_555
C7 C1 1_555 1_555
C8 C7 1_555 1_555
H8 C8 1_555 1_555
C9 C8 1_555 1_555
H9 C9 1_555 1_555
H10 C9 1_555 1_555
C10 C9 1_555 1_555
C11 C10 1_555 1_555
H11 C11 1_555 1_555
C12 C1 1_555 1_555
C13 C11 1_555 1_555
H12 C13 1_555 1_555
H13 C13 1_555 1_555
C14 C13 1_555 1_555
H14 C14 1_555 1_555
H15 C14 1_555 1_555
C15 C14 1_555 1_555
H16 C15 1_555 1_555
C16 C10 1_555 1_555
H17 C16 1_555 1_555
C17 C10 1_555 1_555
H18 C17 1_555 1_555
C18 C15 1_555 1_555
C19 C18 1_555 1_555
H19 C19 1_555 1_555
H20 C19 1_555 1_555
H21 C19 1_555 1_555
C20 C6 1_555 1_555
H22 C20 1_555 1_555
H23 C20 1_555 1_555
H24 C20 1_555 1_555
C21 C6 1_555 1_555
H25 C21 1_555 1_555
H26 C21 1_555 1_555
H27 C21 1_555 1_555
C22 C12 1_555 1_555
H28 C22 1_555 1_555
H29 C22 1_555 1_555
O1 C5 1_555 1_555
H30 O1 1_555 1_555
O2 C7 1_555 1_555
H31 O2 1_555 1_555
O3 C8 1_555 1_555
H32 O3 1_555 1_555
O4 C2 1_555 1_555
O5 C2 1_555 1_555
C23 H33 1_555 1_555
C24 C25 1_555 1_555
C25 H34 1_555 1_555
H35 C25 1_555 1_555
H36 C25 1_555 1_555
C26 C23 1_555 1_555
H37 C26 1_555 1_555
H38 C26 1_555 1_555
C27 C26 1_555 1_555
H39 C27 1_555 1_555
C28 C27 1_555 1_555
C29 C23 1_555 1_555
C30 C29 1_555 1_555
H40 C30 1_555 1_555
C31 C30 1_555 1_555
H41 C31 1_555 1_555
H42 C31 1_555 1_555
C32 C31 1_555 1_555
C33 C32 1_555 1_555
H43 C33 1_555 1_555
C34 C23 1_555 1_555
C35 C33 1_555 1_555
H44 C35 1_555 1_555
H45 C35 1_555 1_555
C36 C35 1_555 1_555
H46 C36 1_555 1_555
H47 C36 1_555 1_555
C37 C36 1_555 1_555
H48 C37 1_555 1_555
C38 C32 1_555 1_555
H49 C38 1_555 1_555
C39 C32 1_555 1_555
H50 C39 1_555 1_555
C40 C37 1_555 1_555
C41 C40 1_555 1_555
H51 C41 1_555 1_555
H52 C41 1_555 1_555
H53 C41 1_555 1_555
C42 C28 1_555 1_555
H54 C42 1_555 1_555
H55 C42 1_555 1_555
H56 C42 1_555 1_555
C43 C28 1_555 1_555
H57 C43 1_555 1_555
H58 C43 1_555 1_555
H59 C43 1_555 1_555
C44 C34 1_555 1_555
H60 C44 1_555 1_555
H61 C44 1_555 1_555
O6 C27 1_555 1_555
H62 O6 1_555 1_555
O7 C29 1_555 1_555
H63 O7 1_555 1_555
O8 C30 1_555 1_555
H64 O8 1_555 1_555
O9 C24 1_555 1_555
O10 C24 1_555 1_555
C6 C7 1_555 1_555
C11 C12 1_555 1_555
C15 C16 1_555 1_555
C16 O5 1_555 1_555
C17 C18 1_555 1_555
C28 C29 1_555 1_555
C33 C34 1_555 1_555
C37 C38 1_555 1_555
C38 O10 1_555 1_555
C39 C40 1_555 1_555

#END
