
#######################################################################
#
#                 Cambridge Crystallographic Data Centre
#                                CCDC 
#
#######################################################################
#
# If this CIF has been generated from an entry in the Cambridge 
# Structural Database, then it will include bibliographic, chemical, 
# crystal, experimental, refinement or atomic coordinate data resulting 
# from the CCDC's data processing and validation procedures.
#
#######################################################################

data_QULSOG
_chemical_formula_moiety         'C14 H13 O3 1-,C8 H12 N1 1+'
_chemical_name_systematic        
'(S)-(-)-1-Phenylethanaminium 4-(bicyclo[3.1.0]hex-6-ylcarbonyl)benzoate'
_symmetry_cell_setting           orthorhombic
_symmetry_space_group_name_H-M   'P 21 21 21'
_symmetry_Int_Tables_number      19
_space_group_name_Hall           'P 2ac 2ab'
loop_
_symmetry_equiv_pos_site_id
_symmetry_equiv_pos_as_xyz
1 x,y,z
2 1/2-x,-y,1/2+z
3 -x,1/2+y,1/2-z
4 1/2+x,1/2-y,-z
_cell_length_a                   6.2779(5)
_cell_length_b                   13.7938(10)
_cell_length_c                   22.4758(18)
_cell_angle_alpha                90
_cell_angle_beta                 90
_cell_angle_gamma                90
_cell_volume                     1946.32
_exptl_crystal_colour            colorless
_exptl_crystal_description       block
_cell_formula_units_Z            4
loop_
_atom_site_label
_atom_site_type_symbol
_atom_site_fract_x
_atom_site_fract_y
_atom_site_fract_z
C1 C 0.0414(13) 0.5378(5) 0.9709(3)
H1 H 0.0335 0.5492 1.0130
H2 H 0.0461 0.4693 0.9634
H3 H -0.0817 0.5651 0.9518
C2 C 0.2414(10) 0.5852(4) 0.9461(2)
H4 H 0.364(8) 0.560(3) 0.968(2)
N1 N 0.2293(5) 0.6911(3) 0.95668(13)
H5 H 0.3382 0.7202 0.9387
H6 H 0.2351 0.7028 0.9956
H7 H 0.1074 0.7139 0.9421
C8 C 0.2783(9) 0.5638(3) 0.8812(2)
C10 C 0.1253(10) 0.5822(4) 0.8395(2)
H11 H -0.0053 0.6073 0.8514
C12 C 0.5084(13) 0.5082(5) 0.8015(4)
H13 H 0.6376 0.4830 0.7885
C14 C 0.4726(11) 0.5265(4) 0.8619(3)
H14 H 0.5794 0.5137 0.8894
C15 C 0.1617(13) 0.5638(4) 0.7796(3)
H15 H 0.0567 0.5760 0.7513
C21 C 0.3530(17) 0.5278(4) 0.7632(3)
H24 H 0.3773 0.5162 0.7230
C3 C 0.2675(8) 0.7047(3) 0.17560(16)
C4 C 0.5097(8) 0.6878(3) 0.2567(2)
H8 H 0.6454 0.6719 0.2702
C5 C 0.3577(9) 0.7138(3) 0.29742(19)
C6 C 0.4690(8) 0.6842(3) 0.1966(2)
H9 H 0.5773 0.6681 0.1701
O1 O 0.3637(7) 0.7097(3) 0.07487(14)
C7 C 0.1138(8) 0.7295(3) 0.2163(2)
H10 H -0.0234 0.7436 0.2032
O2 O 0.0227(7) 0.6952(3) 0.09654(15)
C9 C 0.2172(11) 0.7033(3) 0.1108(2)
C11 C 0.1601(9) 0.7339(3) 0.2764(2)
H12 H 0.0532 0.7511 0.3031
O3 O 0.5829(10) 0.6938(4) 0.37944(17)
C13 C 0.4109(12) 0.7200(4) 0.3629(2)
C16 C 0.2396(14) 0.7509(6) 0.4053(3)
H16 H 0.138(10) 0.699(5) 0.415(3)
C17 C 0.4670(14) 0.8842(5) 0.4564(3)
H17 H 0.4604 0.9301 0.4890
H18 H 0.5936 0.8447 0.4611
C18 C 0.1350(14) 0.8572(7) 0.4050(3)
H19 H -0.019(13) 0.864(5) 0.412(3)
C19 C 0.4736(14) 0.9361(5) 0.3991(3)
H20 H 0.5680 0.9031 0.3715
H21 H 0.5252 1.0017 0.4048
C20 C 0.2508(14) 0.9375(6) 0.3751(3)
H22 H 0.1831 0.9991 0.3837
H23 H 0.2516 0.9279 0.3323
C22 C 0.2749(15) 0.8226(5) 0.4559(3)
H25 H 0.206(10) 0.809(4) 0.494(3)
loop_
_geom_bond_atom_site_label_1
_geom_bond_atom_site_label_2
_geom_bond_site_symmetry_1
_geom_bond_site_symmetry_2
C1 H1 1_555 1_555
H2 C1 1_555 1_555
H3 C1 1_555 1_555
C2 C1 1_555 1_555
H4 C2 1_555 1_555
N1 C2 1_555 1_555
H5 N1 1_555 1_555
H6 N1 1_555 1_555
H7 N1 1_555 1_555
C3 C6 1_555 1_555
C4 H8 1_555 1_555
C5 C4 1_555 1_555
C6 C4 1_555 1_555
H9 C6 1_555 1_555
O1 C9 1_555 1_555
C7 C3 1_555 1_555
H10 C7 1_555 1_555
O2 C9 1_555 1_555
C8 C2 1_555 1_555
C9 C3 1_555 1_555
C10 C8 1_555 1_555
H11 C10 1_555 1_555
C11 C5 1_555 1_555
H12 C11 1_555 1_555
O3 C13 1_555 1_555
C12 H13 1_555 1_555
C13 C5 1_555 1_555
C14 C8 1_555 1_555
H14 C14 1_555 1_555
C15 C10 1_555 1_555
H15 C15 1_555 1_555
C16 C13 1_555 1_555
H16 C16 1_555 1_555
C17 H17 1_555 1_555
H18 C17 1_555 1_555
C18 C16 1_555 1_555
H19 C18 1_555 1_555
C19 C17 1_555 1_555
H20 C19 1_555 1_555
H21 C19 1_555 1_555
C20 C18 1_555 1_555
H22 C20 1_555 1_555
H23 C20 1_555 1_555
C21 C12 1_555 1_555
H24 C21 1_555 1_555
C22 C16 1_555 1_555
H25 C22 1_555 1_555
C7 C11 1_555 1_555
C12 C14 1_555 1_555
C15 C21 1_555 1_555
C17 C22 1_555 1_555
C18 C22 1_555 1_555
C19 C20 1_555 1_555

#END
