
#######################################################################
#
#                 Cambridge Crystallographic Data Centre
#                                CCDC 
#
#######################################################################
#
# If this CIF has been generated from an entry in the Cambridge 
# Structural Database, then it will include bibliographic, chemical, 
# crystal, experimental, refinement or atomic coordinate data resulting 
# from the CCDC's data processing and validation procedures.
#
#######################################################################

data_QULXEC
_chemical_formula_moiety         'C16 H8 F6'
_chemical_name_systematic        9-(hexafluoropropylidene)-9H-fluorene
_symmetry_cell_setting           monoclinic
_symmetry_space_group_name_H-M   'P 21/c'
_symmetry_Int_Tables_number      14
_space_group_name_Hall           '-P 2ybc'
loop_
_symmetry_equiv_pos_site_id
_symmetry_equiv_pos_as_xyz
1 x,y,z
2 -x,1/2+y,1/2-z
3 -x,-y,-z
4 x,1/2-y,1/2+z
_cell_length_a                   13.910(7)
_cell_length_b                   14.822(8)
_cell_length_c                   6.292(3)
_cell_angle_alpha                90
_cell_angle_beta                 100.310(9)
_cell_angle_gamma                90
_cell_volume                     1276.3
_exptl_crystal_colour            colorless
_exptl_crystal_description       prism
_cell_formula_units_Z            4
loop_
_atom_site_label
_atom_site_type_symbol
_atom_site_fract_x
_atom_site_fract_y
_atom_site_fract_z
F1 F 0.33203(11) 0.46224(12) 0.9983(3)
F2 F 0.14752(12) 0.38804(11) 1.2349(3)
F3 F 0.09447(11) 0.47903(11) 0.9656(3)
F4 F 0.09568(12) 0.30358(12) 0.8671(3)
F5 F 0.19285(13) 0.38114(13) 0.7062(3)
F6 F 0.25128(13) 0.29358(11) 0.9740(3)
C1 C 0.38163(18) 0.58413(17) 1.3540(4)
C2 C 0.46892(19) 0.57838(19) 1.2757(5)
H1 H 0.4716 0.5476 1.1444
C3 C 0.5521(2) 0.61858(19) 1.3933(5)
H2 H 0.6119 0.6155 1.3407
C4 C 0.5493(2) 0.66304(19) 1.5859(5)
H3 H 0.6073 0.6891 1.6647
C5 C 0.4617(2) 0.66996(19) 1.6657(5)
H4 H 0.4594 0.7009 1.7969
C6 C 0.37848(19) 0.63049(17) 1.5480(4)
C7 C 0.2779(2) 0.62914(17) 1.5918(4)
C8 C 0.2376(2) 0.67199(19) 1.7511(5)
H5 H 0.2778 0.7045 1.8633
C9 C 0.1369(2) 0.6666(2) 1.7441(5)
H6 H 0.1084 0.6948 1.8534
C10 C 0.0780(2) 0.61993(19) 1.5768(5)
H7 H 0.0093 0.6181 1.5717
C11 C 0.1179(2) 0.57611(19) 1.4180(5)
H8 H 0.0771 0.5440 1.3059
C12 C 0.21837(19) 0.57982(18) 1.4248(4)
C13 C 0.28304(18) 0.54456(17) 1.2772(4)
C14 C 0.26279(19) 0.48426(19) 1.1180(4)
C15 C 0.1725(2) 0.42796(19) 1.0540(5)
C16 C 0.1787(2) 0.3500(2) 0.8969(5)
loop_
_geom_bond_atom_site_label_1
_geom_bond_atom_site_label_2
_geom_bond_site_symmetry_1
_geom_bond_site_symmetry_2
F1 C14 1_555 1_555
F2 C15 1_555 1_555
F3 C15 1_555 1_555
F4 C16 1_555 1_555
F5 C16 1_555 1_555
F6 C16 1_555 1_555
C1 C2 1_555 1_555
C2 H1 1_555 1_555
C3 C2 1_555 1_555
H2 C3 1_555 1_555
C4 C3 1_555 1_555
H3 C4 1_555 1_555
C5 C4 1_555 1_555
H4 C5 1_555 1_555
C6 C1 1_555 1_555
C7 C6 1_555 1_555
C8 C7 1_555 1_555
H5 C8 1_555 1_555
C9 C8 1_555 1_555
H6 C9 1_555 1_555
C10 C9 1_555 1_555
H7 C10 1_555 1_555
C11 C10 1_555 1_555
H8 C11 1_555 1_555
C12 C7 1_555 1_555
C13 C1 1_555 1_555
C14 C13 1_555 1_555
C15 C14 1_555 1_555
C16 C15 1_555 1_555
C5 C6 1_555 1_555
C11 C12 1_555 1_555
C12 C13 1_555 1_555

#END
