
#######################################################################
#
#                 Cambridge Crystallographic Data Centre
#                                CCDC 
#
#######################################################################
#
# If this CIF has been generated from an entry in the Cambridge 
# Structural Database, then it will include bibliographic, chemical, 
# crystal, experimental, refinement or atomic coordinate data resulting 
# from the CCDC's data processing and validation procedures.
#
#######################################################################

data_QUMHIQ
_chemical_formula_moiety         'C44 H33 Cl4 N5 O8'
_chemical_name_systematic        
4,15,21,32-Tetrachloro-39,39,41,41-tetramethoxy-36-phenyl-38,40-dioxa-6,13,23,30,36-pentaazatridecacyclo[16.16.3.1^2,17^.1^4,15^.1^19,34^.1^21,32^.0^1,18^.0^3,16^.0^5,14^.0^7,12^.0^20,33^.0^22,31^.0^24,29^]hentetraconta-5(14),6,8,10,12,22,24(29),25,27,30-decaene-35,37-dione
_symmetry_cell_setting           tetragonal
_symmetry_space_group_name_H-M   'I -4 2 d'
_symmetry_Int_Tables_number      122
_space_group_name_Hall           'I -4 2bw'
loop_
_symmetry_equiv_pos_site_id
_symmetry_equiv_pos_as_xyz
1 x,y,z
2 -x,-y,z
3 y,-x,-z
4 -y,x,-z
5 1/2-x,y,3/4-z
6 1/2+x,-y,3/4-z
7 1/2-y,-x,3/4+z
8 1/2+y,x,3/4+z
9 1/2+x,1/2+y,1/2+z
10 1/2-x,1/2-y,1/2+z
11 1/2+y,1/2-x,1/2-z
12 1/2-y,1/2+x,1/2-z
13 -x,1/2+y,1/4-z
14 x,1/2-y,1/4-z
15 -y,1/2-x,1/4+z
16 y,1/2+x,1/4+z
_cell_length_a                   30.8823(17)
_cell_length_b                   30.8823(17)
_cell_length_c                   21.3738(17)
_cell_angle_alpha                90
_cell_angle_beta                 90
_cell_angle_gamma                90
_cell_volume                     20384.5
_chemical_melting_point          '355-356 deg.C'
_cell_formula_units_Z            16
loop_
_atom_site_label
_atom_site_type_symbol
_atom_site_fract_x
_atom_site_fract_y
_atom_site_fract_z
Cl1 Cl 0.03522(7) 0.30966(7) 0.72150(9)
Cl2 Cl -0.02562(5) 0.16244(5) 0.84792(8)
Cl3 Cl 0.03545(5) 0.45213(4) 1.07813(8)
Cl4 Cl -0.04598(4) 0.30923(4) 1.19062(7)
O1 O -0.04964(15) 0.24397(17) 0.7635(2)
O2 O 0.00831(19) 0.21198(18) 0.7127(2)
O3 O 0.05299(11) 0.27153(12) 0.91994(19)
O4 O -0.03172(15) 0.38746(13) 0.8907(2)
O5 O -0.08534(12) 0.26658(13) 0.9858(2)
O6 O 0.04887(11) 0.31501(11) 1.03156(18)
O7 O -0.00515(13) 0.41253(12) 1.2002(2)
O8 O -0.05808(12) 0.40116(11) 1.1259(2)
N1 N 0.10607(18) 0.2537(2) 0.7867(3)
N2 N 0.07582(16) 0.17728(16) 0.8494(3)
N3 N -0.06736(15) 0.32978(14) 0.9349(2)
N4 N 0.09742(16) 0.38292(15) 1.1339(3)
N5 N 0.05613(14) 0.30872(15) 1.1916(2)
C1 C 0.2071(3) 0.1950(4) 0.8145(5)
H1 H 0.2363 0.1979 0.8051
C2 C 0.1789(3) 0.2265(3) 0.7973(5)
H2 H 0.1896 0.2513 0.7779
C3 C 0.1337(2) 0.2229(2) 0.8082(3)
C4 C 0.1193(2) 0.1849(2) 0.8394(3)
C5 C 0.1486(2) 0.1528(2) 0.8584(4)
H3 H 0.1389 0.1281 0.8791
C6 C 0.1927(2) 0.1586(3) 0.8457(5)
H4 H 0.2125 0.1377 0.8585
C7 C 0.0657(2) 0.2441(2) 0.7976(3)
C8 C 0.0516(2) 0.20679(19) 0.8284(3)
C9 C 0.0262(2) 0.2710(2) 0.7796(3)
C10 C 0.00234(19) 0.21049(18) 0.8310(3)
C11 C -0.0062(2) 0.2332(2) 0.7650(3)
C12 C -0.0650(4) 0.2663(4) 0.7104(5)
H5 H -0.0912 0.2529 0.6960
H6 H -0.0436 0.2651 0.6779
H7 H -0.0707 0.2959 0.7212
C13 C -0.0121(4) 0.1730(3) 0.6944(5)
H8 H -0.0428 0.1775 0.6917
H9 H -0.0061 0.1509 0.7247
H10 H -0.0012 0.1642 0.6543
C14 C 0.0056(2) 0.29007(18) 0.8410(3)
H11 H -0.0184 0.3098 0.8313
C15 C -0.01127(19) 0.24816(17) 0.8753(3)
H12 H -0.0428 0.2490 0.8809
C16 C 0.03596(19) 0.30975(18) 0.8898(3)
H13 H 0.0581 0.3291 0.8724
C17 C 0.01230(17) 0.25200(16) 0.9381(3)
H14 H 0.0152 0.2246 0.9609
C18 C 0.00913(18) 0.32967(16) 0.9425(3)
C19 C -0.0307(2) 0.35386(18) 0.9188(3)
C20 C -0.05838(17) 0.29201(17) 0.9680(3)
C21 C -0.00991(16) 0.28906(16) 0.9760(2)
C22 C -0.1099(2) 0.3412(2) 0.9124(3)
C23 C -0.1303(3) 0.3749(3) 0.9344(4)
H15 H -0.1183 0.3916 0.9663
C24 C -0.1728(3) 0.3860(4) 0.9074(6)
H16 H -0.1874 0.4108 0.9203
C25 C -0.1899(4) 0.3601(5) 0.8644(7)
H17 H -0.2170 0.3665 0.8478
C26 C -0.1682(4) 0.3238(5) 0.8441(8)
H18 H -0.1799 0.3057 0.8138
C27 C -0.1289(3) 0.3154(4) 0.8701(6)
H19 H -0.1143 0.2905 0.8577
C28 C 0.03466(17) 0.35175(16) 0.9968(3)
H20 H 0.0581 0.3709 0.9828
C29 C 0.00730(16) 0.29556(16) 1.0426(2)
H21 H 0.0084 0.2690 1.0677
C30 C 0.00243(17) 0.37308(16) 1.0412(3)
H22 H -0.0192 0.3901 1.0185
C31 C 0.02112(18) 0.39845(15) 1.0969(3)
C32 C -0.01691(18) 0.39216(17) 1.1464(3)
C33 C -0.01134(16) 0.34127(16) 1.1431(3)
C34 C -0.01831(16) 0.33278(15) 1.0732(3)
H23 H -0.0492 0.3307 1.0633
C35 C -0.0344(3) 0.4073(3) 1.2536(4)
H24 H -0.0257 0.3825 1.2777
H25 H -0.0635 0.4031 1.2386
H26 H -0.0333 0.4327 1.2793
C36 C -0.0686(2) 0.4463(2) 1.1180(5)
H27 H -0.0633 0.4547 1.0754
H28 H -0.0509 0.4634 1.1455
H29 H -0.0986 0.4509 1.1278
C37 C 0.05575(17) 0.37399(17) 1.1297(3)
C38 C 0.03623(17) 0.33740(17) 1.1590(3)
C39 C 0.09981(19) 0.3162(2) 1.1971(3)
C40 C 0.1249(2) 0.2872(2) 1.2323(4)
H30 H 0.1125 0.2628 1.2506
C41 C 0.1683(3) 0.2959(4) 1.2386(6)
H31 H 0.1852 0.2763 1.2608
C42 C 0.1881(3) 0.3317(3) 1.2144(6)
H32 H 0.2171 0.3371 1.2225
C43 C 0.1642(2) 0.3598(3) 1.1774(4)
H33 H 0.1777 0.3832 1.1582
C44 C 0.12049(19) 0.3531(2) 1.1691(3)
loop_
_geom_bond_atom_site_label_1
_geom_bond_atom_site_label_2
_geom_bond_site_symmetry_1
_geom_bond_site_symmetry_2
Cl1 C9 1_555 1_555
Cl2 C10 1_555 1_555
Cl3 C31 1_555 1_555
Cl4 C33 1_555 1_555
O1 C11 1_555 1_555
O2 C11 1_555 1_555
O3 C16 1_555 1_555
O4 C19 1_555 1_555
O5 C20 1_555 1_555
O6 C28 1_555 1_555
O7 C32 1_555 1_555
O8 C32 1_555 1_555
N1 C3 1_555 1_555
N2 C4 1_555 1_555
N3 C19 1_555 1_555
N4 C37 1_555 1_555
N5 C38 1_555 1_555
C1 H1 1_555 1_555
C2 C1 1_555 1_555
H2 C2 1_555 1_555
C3 C2 1_555 1_555
C4 C3 1_555 1_555
C5 C4 1_555 1_555
H3 C5 1_555 1_555
C6 C1 1_555 1_555
H4 C6 1_555 1_555
C7 N1 1_555 1_555
C8 N2 1_555 1_555
C9 C7 1_555 1_555
C10 C8 1_555 1_555
C11 C9 1_555 1_555
C12 O1 1_555 1_555
H5 C12 1_555 1_555
H6 C12 1_555 1_555
H7 C12 1_555 1_555
C13 O2 1_555 1_555
H8 C13 1_555 1_555
H9 C13 1_555 1_555
H10 C13 1_555 1_555
C14 C9 1_555 1_555
H11 C14 1_555 1_555
C15 C10 1_555 1_555
H12 C15 1_555 1_555
C16 C14 1_555 1_555
H13 C16 1_555 1_555
C17 O3 1_555 1_555
H14 C17 1_555 1_555
C18 C16 1_555 1_555
C19 C18 1_555 1_555
C20 N3 1_555 1_555
C21 C17 1_555 1_555
C22 N3 1_555 1_555
C23 C22 1_555 1_555
H15 C23 1_555 1_555
C24 C23 1_555 1_555
H16 C24 1_555 1_555
C25 C24 1_555 1_555
H17 C25 1_555 1_555
C26 C25 1_555 1_555
H18 C26 1_555 1_555
C27 C22 1_555 1_555
H19 C27 1_555 1_555
C28 C18 1_555 1_555
H20 C28 1_555 1_555
C29 O6 1_555 1_555
H21 C29 1_555 1_555
C30 C28 1_555 1_555
H22 C30 1_555 1_555
C31 C30 1_555 1_555
C32 C31 1_555 1_555
C33 C32 1_555 1_555
C34 C29 1_555 1_555
H23 C34 1_555 1_555
C35 O7 1_555 1_555
H24 C35 1_555 1_555
H25 C35 1_555 1_555
H26 C35 1_555 1_555
C36 O8 1_555 1_555
H27 C36 1_555 1_555
H28 C36 1_555 1_555
H29 C36 1_555 1_555
C37 C31 1_555 1_555
C38 C33 1_555 1_555
C39 N5 1_555 1_555
C40 C39 1_555 1_555
H30 C40 1_555 1_555
C41 C40 1_555 1_555
H31 C41 1_555 1_555
C42 C41 1_555 1_555
H32 C42 1_555 1_555
C43 C42 1_555 1_555
H33 C43 1_555 1_555
C44 N4 1_555 1_555
C5 C6 1_555 1_555
C7 C8 1_555 1_555
C10 C11 1_555 1_555
C14 C15 1_555 1_555
C15 C17 1_555 1_555
C18 C21 1_555 1_555
C20 C21 1_555 1_555
C21 C29 1_555 1_555
C26 C27 1_555 1_555
C30 C34 1_555 1_555
C33 C34 1_555 1_555
C37 C38 1_555 1_555
C39 C44 1_555 1_555
C43 C44 1_555 1_555

#END
