
#######################################################################
#
#                 Cambridge Crystallographic Data Centre
#                                CCDC 
#
#######################################################################
#
# If this CIF has been generated from an entry in the Cambridge 
# Structural Database, then it will include bibliographic, chemical, 
# crystal, experimental, refinement or atomic coordinate data resulting 
# from the CCDC's data processing and validation procedures.
#
#######################################################################

data_QUMZUU
_chemical_formula_moiety         'C31 H27 N7 O4'
_chemical_name_systematic        
'Methyl 14,20,26-trimethyl-2,8-dioxa-14,20,26,31,32,33,34-heptaazahexacyclo[25.3.1.1^3,7^.1^9,13^.1^15,19^.1^21,25^]pentatriaconta-1(31),3(35),4,6,9(34),10,12,15(33),16,18,21(32),22,24,27,29-pentadecaene-5-carboxylate'
_symmetry_cell_setting           monoclinic
_symmetry_space_group_name_H-M   'P 21/n'
_symmetry_Int_Tables_number      14
_space_group_name_Hall           '-P 2yn'
loop_
_symmetry_equiv_pos_site_id
_symmetry_equiv_pos_as_xyz
1 x,y,z
2 1/2-x,1/2+y,1/2-z
3 -x,-y,-z
4 1/2+x,1/2-y,1/2+z
_cell_length_a                   15.985(3)
_cell_length_b                   9.3731(19)
_cell_length_c                   17.687(4)
_cell_angle_alpha                90
_cell_angle_beta                 95.04(3)
_cell_angle_gamma                90
_cell_volume                     2639.78
_exptl_crystal_colour            colorless
_exptl_crystal_description       block
_cell_formula_units_Z            4
loop_
_atom_site_label
_atom_site_type_symbol
_atom_site_fract_x
_atom_site_fract_y
_atom_site_fract_z
O1 O 0.39048(9) 0.72389(15) 0.51692(8)
O2 O 0.31858(9) 0.52359(15) 0.48630(8)
O3 O 0.62795(8) 0.75302(15) 0.36517(7)
O4 O 0.50795(8) 0.30357(13) 0.29208(8)
N1 N 0.22511(9) 0.26824(16) 0.19427(9)
N2 N 0.26740(9) 0.44209(15) 0.11413(8)
N3 N 0.32291(9) 0.61543(15) 0.03782(8)
N4 N 0.45642(9) 0.70219(15) 0.07476(8)
N5 N 0.58745(10) 0.80853(16) 0.10411(9)
N6 N 0.60817(9) 0.78211(15) 0.23464(8)
N7 N 0.36725(9) 0.28850(15) 0.24434(8)
C1 C 0.32933(15) 0.7625(3) 0.56829(13)
H1 H 0.3502 0.8438 0.5993
H2 H 0.3196 0.6813 0.6013
H3 H 0.2766 0.7888 0.5392
C2 C 0.11007(12) 0.56145(19) 0.09609(11)
H4 H 0.0553 0.6011 0.0888
C3 C 0.59200(13) 0.8929(2) 0.03554(11)
H5 H 0.5745 0.9910 0.0449
H6 H 0.5547 0.8515 -0.0057
H7 H 0.6498 0.8929 0.0212
C4 C 0.30978(12) 0.74863(19) -0.00524(11)
H8 H 0.3595 0.7693 -0.0320
H9 H 0.3003 0.8270 0.0297
H10 H 0.2607 0.7386 -0.0422
C5 C 0.64518(11) 0.82324(19) 0.30038(10)
C6 C 0.57149(11) 0.55157(19) 0.11884(10)
H11 H 0.6291 0.5423 0.1366
C7 C 0.62745(11) 0.85346(18) 0.17170(10)
C8 C 0.71967(12) 1.0086(2) 0.24675(12)
H12 H 0.7570 1.0876 0.2512
C9 C 0.68372(11) 0.96879(19) 0.17566(12)
H13 H 0.6967 1.0178 0.1312
C10 C 0.32729(12) 0.09386(19) 0.15997(11)
H14 H 0.2843 0.0454 0.1295
C11 C 0.56089(11) 0.52988(19) 0.32200(10)
H15 H 0.6019 0.5131 0.2873
C12 C 0.17087(12) 0.2101(2) 0.24849(11)
H16 H 0.1122 0.2161 0.2274
H17 H 0.1782 0.2648 0.2958
H18 H 0.1857 0.1100 0.2588
C13 C 0.46951(12) 0.11554(18) 0.21135(10)
H19 H 0.5262 0.0842 0.2168
C14 C 0.20484(11) 0.38845(17) 0.15150(10)
C15 C 0.56292(11) 0.6539(2) 0.36519(10)
C16 C 0.49809(11) 0.43139(18) 0.33055(10)
C17 C 0.37652(11) 0.60222(19) 0.47800(10)
C18 C 0.70196(11) 0.93532(19) 0.31094(11)
H20 H 0.7272 0.9600 0.3598
C19 C 0.25313(11) 0.55752(17) 0.06996(10)
C20 C 0.17369(11) 0.61931(19) 0.05768(11)
H21 H 0.1637 0.6980 0.0242
C21 C 0.51911(11) 0.43382(18) 0.11096(10)
H22 H 0.5407 0.3416 0.1236
C22 C 0.50424(11) 0.67869(18) 0.41625(10)
H23 H 0.5068 0.7632 0.4461
C23 C 0.12440(11) 0.44729(18) 0.14489(10)
H24 H 0.0812 0.4103 0.1728
C24 C 0.43739(11) 0.45352(18) 0.38046(10)
H25 H 0.3942 0.3854 0.3852
C25 C 0.40913(12) 0.04342(19) 0.16612(11)
H26 H 0.4233 -0.0399 0.1395
C26 C 0.30966(11) 0.21615(18) 0.19911(10)
C27 C 0.40642(11) 0.58753(17) 0.06746(10)
C28 C 0.53674(11) 0.68270(18) 0.09995(10)
C29 C 0.43588(11) 0.44960(18) 0.08487(10)
H27 H 0.3996 0.3694 0.0789
C30 C 0.44123(11) 0.57849(18) 0.42363(10)
C31 C 0.44390(11) 0.23673(17) 0.24890(10)
loop_
_geom_bond_atom_site_label_1
_geom_bond_atom_site_label_2
_geom_bond_site_symmetry_1
_geom_bond_site_symmetry_2
O1 C1 1_555 1_555
O2 C17 1_555 1_555
O3 C5 1_555 1_555
O4 C16 1_555 1_555
N1 C12 1_555 1_555
N2 C14 1_555 1_555
N3 C4 1_555 1_555
N4 C27 1_555 1_555
N5 C3 1_555 1_555
N6 C5 1_555 1_555
N7 C26 1_555 1_555
C1 H1 1_555 1_555
H2 C1 1_555 1_555
H3 C1 1_555 1_555
C2 H4 1_555 1_555
C3 H5 1_555 1_555
H6 C3 1_555 1_555
H7 C3 1_555 1_555
C4 H8 1_555 1_555
H9 C4 1_555 1_555
H10 C4 1_555 1_555
C5 C18 1_555 1_555
C6 H11 1_555 1_555
C7 N5 1_555 1_555
C8 H12 1_555 1_555
C9 C7 1_555 1_555
H13 C9 1_555 1_555
C10 H14 1_555 1_555
C11 H15 1_555 1_555
C12 H16 1_555 1_555
H17 C12 1_555 1_555
H18 C12 1_555 1_555
C13 H19 1_555 1_555
C14 N1 1_555 1_555
C15 O3 1_555 1_555
C16 C11 1_555 1_555
C17 O1 1_555 1_555
C18 C8 1_555 1_555
H20 C18 1_555 1_555
C19 N2 1_555 1_555
C20 C2 1_555 1_555
H21 C20 1_555 1_555
C21 C6 1_555 1_555
H22 C21 1_555 1_555
C22 C15 1_555 1_555
H23 C22 1_555 1_555
C23 C2 1_555 1_555
H24 C23 1_555 1_555
C24 C16 1_555 1_555
H25 C24 1_555 1_555
C25 C10 1_555 1_555
H26 C25 1_555 1_555
C26 N1 1_555 1_555
C27 N3 1_555 1_555
C28 N4 1_555 1_555
C29 C21 1_555 1_555
H27 C29 1_555 1_555
C30 C17 1_555 1_555
C31 O4 1_555 1_555
N3 C19 1_555 1_555
N5 C28 1_555 1_555
N6 C7 1_555 1_555
N7 C31 1_555 1_555
C6 C28 1_555 1_555
C8 C9 1_555 1_555
C10 C26 1_555 1_555
C11 C15 1_555 1_555
C13 C25 1_555 1_555
C13 C31 1_555 1_555
C14 C23 1_555 1_555
C19 C20 1_555 1_555
C22 C30 1_555 1_555
C24 C30 1_555 1_555
C27 C29 1_555 1_555

#END
