
#######################################################################
#
#                 Cambridge Crystallographic Data Centre
#                                CCDC 
#
#######################################################################
#
# If this CIF has been generated from an entry in the Cambridge 
# Structural Database, then it will include bibliographic, chemical, 
# crystal, experimental, refinement or atomic coordinate data resulting 
# from the CCDC's data processing and validation procedures.
#
#######################################################################

data_QUPMUK
_chemical_formula_moiety         'C44 H56 S4'
_chemical_name_systematic        
tetraspiro-(cycloheptane-1,5'-calix[4]thiophene-10'-1''-cycloheptane-15',1'''-cycloheptane-20',1''''-cycloheptane)
_symmetry_cell_setting           triclinic
_symmetry_space_group_name_H-M   'P -1'
_symmetry_Int_Tables_number      2
_space_group_name_Hall           '-P 1'
loop_
_symmetry_equiv_pos_site_id
_symmetry_equiv_pos_as_xyz
1 x,y,z
2 -x,-y,-z
_cell_length_a                   12.7221(6)
_cell_length_b                   12.9033(5)
_cell_length_c                   12.9605(5)
_cell_angle_alpha                114.1680(10)
_cell_angle_beta                 95.011(2)
_cell_angle_gamma                93.1000(10)
_cell_volume                     1924.19
_exptl_crystal_colour            colorless
_exptl_crystal_description       prism
_chemical_melting_point          '338-339 deg.C'
_cell_formula_units_Z            2
_exptl_crystal_recrystallization_method n-hexane/toluene
loop_
_atom_site_label
_atom_site_type_symbol
_atom_site_fract_x
_atom_site_fract_y
_atom_site_fract_z
C1 C -0.09854(18) 0.61761(19) 0.2236(2)
C2 C -0.0838(2) 0.6258(2) 0.1256(2)
H1 H -0.1375 0.6062 0.0654
C3 C 0.0208(2) 0.6670(2) 0.1222(2)
H2 H 0.0421 0.6770 0.0598
C4 C 0.08656(19) 0.69046(19) 0.2180(2)
C5 C 0.20379(19) 0.73150(19) 0.2496(2)
C6 C 0.2503(2) 0.7454(2) 0.1491(2)
H3 H 0.3262 0.7410 0.1580
H4 H 0.2208 0.6812 0.0792
C7 C 0.2313(3) 0.8553(2) 0.1350(3)
H5 H 0.1638 0.8796 0.1609
H6 H 0.2270 0.8397 0.0549
C8 C 0.3189(3) 0.9526(3) 0.2017(3)
H7 H 0.3868 0.9244 0.1816
H8 H 0.3100 1.0132 0.1768
C9 C 0.3235(3) 1.0034(3) 0.3302(3)
H9 H 0.2632 1.0473 0.3514
H10 H 0.3870 1.0563 0.3623
C10 C 0.3236(2) 0.9188(2) 0.3847(3)
H11 H 0.3793 0.8694 0.3579
H12 H 0.3397 0.9606 0.4666
C11 C 0.2184(2) 0.8454(2) 0.3584(2)
H13 H 0.1620 0.8909 0.3522
H14 H 0.2091 0.8277 0.4231
C12 C 0.25961(18) 0.64030(18) 0.2743(2)
C13 C 0.3141(2) 0.6447(2) 0.3696(2)
H15 H 0.3272 0.7109 0.4367
C14 C 0.3498(2) 0.5382(2) 0.3583(2)
H16 H 0.3888 0.5284 0.4173
C15 C 0.32171(18) 0.45273(19) 0.2539(2)
C16 C 0.33651(18) 0.32584(18) 0.20814(19)
C17 C 0.3861(2) 0.2903(2) 0.0950(2)
H17 H 0.3308 0.2839 0.0357
H18 H 0.4384 0.3517 0.1033
C18 C 0.4394(2) 0.1794(2) 0.0540(3)
H19 H 0.4328 0.1456 -0.0286
H20 H 0.4027 0.1262 0.0773
C19 C 0.5566(3) 0.1969(3) 0.1004(3)
H21 H 0.5881 0.1268 0.0597
H22 H 0.5911 0.2559 0.0833
C20 C 0.5806(2) 0.2293(3) 0.2262(3)
H23 H 0.6566 0.2482 0.2469
H24 H 0.5615 0.1629 0.2403
C21 C 0.5257(2) 0.3286(2) 0.3051(3)
H25 H 0.5384 0.3934 0.2865
H26 H 0.5568 0.3505 0.3830
C22 C 0.4064(2) 0.3007(2) 0.2969(2)
H27 H 0.3841 0.3434 0.3712
H28 H 0.3928 0.2202 0.2797
C23 C 0.22686(19) 0.26228(19) 0.18676(19)
C24 C 0.1683(2) 0.1901(3) 0.0904(2)
H29 H 0.1928 0.1652 0.0194
C25 C 0.0657(2) 0.1551(3) 0.1059(2)
H30 H 0.0166 0.1060 0.0458
C26 C 0.04518(18) 0.19874(19) 0.2150(2)
C27 C -0.05545(18) 0.19022(19) 0.26638(19)
C28 C -0.0300(2) 0.1698(2) 0.3743(2)
H31 H 0.0281 0.2250 0.4222
H32 H -0.0913 0.1844 0.4160
C29 C -0.0004(2) 0.0508(2) 0.3545(2)
H33 H 0.0310 0.0188 0.2839
H34 H 0.0525 0.0569 0.4159
C30 C -0.0946(3) -0.0296(2) 0.3485(3)
H35 H -0.0686 -0.0995 0.3469
H36 H -0.1277 0.0051 0.4178
C31 C -0.1784(3) -0.0603(2) 0.2478(3)
H37 H -0.2393 -0.1006 0.2599
H38 H -0.1507 -0.1131 0.1806
C32 C -0.2167(2) 0.0375(2) 0.2226(2)
H39 H -0.2364 0.0957 0.2920
H40 H -0.2797 0.0094 0.1674
C33 C -0.1340(2) 0.0915(2) 0.1765(2)
H41 H -0.1708 0.1205 0.1266
H42 H -0.0930 0.0320 0.1303
C34 C -0.10347(18) 0.30394(19) 0.29985(19)
C35 C -0.1331(2) 0.3747(2) 0.4001(2)
H43 H -0.1294 0.3587 0.4640
C36 C -0.1707(2) 0.4764(2) 0.3991(2)
H44 H -0.1944 0.5326 0.4621
C37 C -0.16861(18) 0.48358(19) 0.2988(2)
C38 C -0.19630(18) 0.57879(19) 0.2633(2)
C39 C -0.2251(2) 0.6830(2) 0.3673(2)
H45 H -0.1763 0.6926 0.4331
H46 H -0.2123 0.7504 0.3529
C40 C -0.3370(2) 0.6803(2) 0.3992(3)
H47 H -0.3628 0.6021 0.3813
H48 H -0.3352 0.7238 0.4807
C41 C -0.4134(2) 0.7285(3) 0.3380(3)
H49 H -0.4775 0.7413 0.3751
H50 H -0.3818 0.8021 0.3466
C42 C -0.4436(2) 0.6554(3) 0.2135(3)
H51 H -0.4875 0.6970 0.1819
H52 H -0.4869 0.5877 0.2057
C43 C -0.3519(2) 0.6172(3) 0.1418(3)
H53 H -0.3802 0.5839 0.0618
H54 H -0.3041 0.6839 0.1555
C44 C -0.2892(2) 0.5311(2) 0.1660(2)
H55 H -0.2610 0.4837 0.0967
H56 H -0.3381 0.4819 0.1835
S1 S 0.01840(5) 0.66143(6) 0.31415(5)
S2 S 0.25154(6) 0.50385(5) 0.16806(5)
S3 S 0.15437(6) 0.28650(7) 0.29899(6)
S4 S -0.12136(6) 0.36299(5) 0.20221(5)
loop_
_geom_bond_atom_site_label_1
_geom_bond_atom_site_label_2
_geom_bond_site_symmetry_1
_geom_bond_site_symmetry_2
C1 C2 1_555 1_555
C2 H1 1_555 1_555
C3 C2 1_555 1_555
H2 C3 1_555 1_555
C4 C3 1_555 1_555
C5 C4 1_555 1_555
C6 C5 1_555 1_555
H3 C6 1_555 1_555
H4 C6 1_555 1_555
C7 C6 1_555 1_555
H5 C7 1_555 1_555
H6 C7 1_555 1_555
C8 C7 1_555 1_555
H7 C8 1_555 1_555
H8 C8 1_555 1_555
C9 C8 1_555 1_555
H9 C9 1_555 1_555
H10 C9 1_555 1_555
C10 C9 1_555 1_555
H11 C10 1_555 1_555
H12 C10 1_555 1_555
C11 C5 1_555 1_555
H13 C11 1_555 1_555
H14 C11 1_555 1_555
C12 C5 1_555 1_555
C13 C12 1_555 1_555
H15 C13 1_555 1_555
C14 C13 1_555 1_555
H16 C14 1_555 1_555
C15 C14 1_555 1_555
C16 C15 1_555 1_555
C17 C16 1_555 1_555
H17 C17 1_555 1_555
H18 C17 1_555 1_555
C18 C17 1_555 1_555
H19 C18 1_555 1_555
H20 C18 1_555 1_555
C19 C18 1_555 1_555
H21 C19 1_555 1_555
H22 C19 1_555 1_555
C20 C19 1_555 1_555
H23 C20 1_555 1_555
H24 C20 1_555 1_555
C21 C20 1_555 1_555
H25 C21 1_555 1_555
H26 C21 1_555 1_555
C22 C16 1_555 1_555
H27 C22 1_555 1_555
H28 C22 1_555 1_555
C23 C16 1_555 1_555
C24 C23 1_555 1_555
H29 C24 1_555 1_555
C25 C24 1_555 1_555
H30 C25 1_555 1_555
C26 C25 1_555 1_555
C27 C26 1_555 1_555
C28 C27 1_555 1_555
H31 C28 1_555 1_555
H32 C28 1_555 1_555
C29 C28 1_555 1_555
H33 C29 1_555 1_555
H34 C29 1_555 1_555
C30 C29 1_555 1_555
H35 C30 1_555 1_555
H36 C30 1_555 1_555
C31 C30 1_555 1_555
H37 C31 1_555 1_555
H38 C31 1_555 1_555
C32 C31 1_555 1_555
H39 C32 1_555 1_555
H40 C32 1_555 1_555
C33 C27 1_555 1_555
H41 C33 1_555 1_555
H42 C33 1_555 1_555
C34 C27 1_555 1_555
C35 C34 1_555 1_555
H43 C35 1_555 1_555
C36 C35 1_555 1_555
H44 C36 1_555 1_555
C37 C36 1_555 1_555
C38 C1 1_555 1_555
C39 C38 1_555 1_555
H45 C39 1_555 1_555
H46 C39 1_555 1_555
C40 C39 1_555 1_555
H47 C40 1_555 1_555
H48 C40 1_555 1_555
C41 C40 1_555 1_555
H49 C41 1_555 1_555
H50 C41 1_555 1_555
C42 C41 1_555 1_555
H51 C42 1_555 1_555
H52 C42 1_555 1_555
C43 C42 1_555 1_555
H53 C43 1_555 1_555
H54 C43 1_555 1_555
C44 C38 1_555 1_555
H55 C44 1_555 1_555
H56 C44 1_555 1_555
S1 C1 1_555 1_555
S2 C12 1_555 1_555
S3 C23 1_555 1_555
S4 C34 1_555 1_555
C4 S1 1_555 1_555
C10 C11 1_555 1_555
C15 S2 1_555 1_555
C21 C22 1_555 1_555
C26 S3 1_555 1_555
C32 C33 1_555 1_555
C37 C38 1_555 1_555
C37 S4 1_555 1_555
C43 C44 1_555 1_555

#END
