
#######################################################################
#
#                 Cambridge Crystallographic Data Centre
#                                CCDC 
#
#######################################################################
#
# If this CIF has been generated from an entry in the Cambridge 
# Structural Database, then it will include bibliographic, chemical, 
# crystal, experimental, refinement or atomic coordinate data resulting 
# from the CCDC's data processing and validation procedures.
#
#######################################################################

data_QUQDAH
_chemical_formula_moiety         'C16 H19 Cl2 N1 O3'
_chemical_name_systematic        
(1R)-2\b-Carboxymethyl-3\a-(3,4-dichlorophenyl)-7\b-hydroxy-8-methyl-8-azabicyclo(3.2.1)octane
_chemical_properties_biological  
'less potent DAT inhibitor than the (1S) enantiomer.'
_symmetry_cell_setting           monoclinic
_symmetry_space_group_name_H-M   'P 21'
_symmetry_Int_Tables_number      4
_space_group_name_Hall           'P 2yb'
loop_
_symmetry_equiv_pos_site_id
_symmetry_equiv_pos_as_xyz
1 x,y,z
2 -x,1/2+y,-z
_cell_length_a                   5.980(1)
_cell_length_b                   7.349(1)
_cell_length_c                   18.135(1)
_cell_angle_alpha                90
_cell_angle_beta                 96.205(6)
_cell_angle_gamma                90
_cell_volume                     792.31
_exptl_crystal_colour            colorless
_exptl_crystal_description       plate
_chemical_melting_point          149-150deg.C
_cell_formula_units_Z            2
_exptl_crystal_recrystallization_method dichloromethane/heptane
loop_
_atom_site_label
_atom_site_type_symbol
_atom_site_fract_x
_atom_site_fract_y
_atom_site_fract_z
Cl1 Cl 0.09944(13) 0.32823(15) 0.01691(4)
C1 C 0.8863(4) 0.5290(5) 0.35139(15)
H1 H 0.8775 0.4767 0.4007
Cl2 Cl 0.33113(18) 0.01214(15) 0.11664(6)
O1 O 1.1977(3) 0.2716(4) 0.40007(11)
O2 O 1.3252(3) 0.2576(5) 0.28989(11)
C2 C 1.1803(5) 0.2990(4) 0.32686(15)
C3 C 0.9549(4) 0.3838(5) 0.29799(14)
H2 H 0.8411 0.2874 0.2953
C4 C 1.4134(6) 0.2042(7) 0.4331(2)
H3 H 1.4101 0.1904 0.4856
H4 H 1.5293 0.2890 0.4239
H5 H 1.4436 0.0886 0.4116
C5 C 0.7435(4) 0.4316(5) 0.16711(15)
C6 C 0.6455(5) 0.2601(5) 0.16284(16)
H6 H 0.7125 0.1660 0.1916
C7 C 0.4496(5) 0.2261(5) 0.11655(16)
C8 C 0.3493(5) 0.3640(5) 0.07275(16)
C9 C 0.4493(6) 0.5319(6) 0.07429(17)
H7 H 0.3861 0.6241 0.0437
C10 C 0.6445(5) 0.5657(5) 0.12126(16)
H8 H 0.7095 0.6808 0.1218
C11 C 0.9650(4) 0.4588(5) 0.21789(15)
H9 H 1.0773 0.3843 0.1963
C12 C 1.0608(5) 0.6535(5) 0.22204(16)
H10 H 1.2237 0.6459 0.2277
H11 H 1.0157 0.7139 0.1752
C13 C 0.9888(5) 0.7718(5) 0.28454(17)
H12 H 1.0616 0.8913 0.2845
C14 C 0.7310(5) 0.7934(5) 0.28303(18)
H13 H 0.6935 0.9018 0.3097
H14 H 0.6595 0.8003 0.2325
O3 O 0.5341(3) 0.6575(4) 0.38292(11)
H15 H 0.414(5) 0.644(9) 0.363(2)
C15 C 0.6588(4) 0.6200(5) 0.32198(16)
H16 H 0.5725 0.5400 0.2862
N1 N 1.0578(4) 0.6748(4) 0.35483(13)
C16 C 1.0466(5) 0.7891(6) 0.42116(19)
H17 H 1.1584 0.8831 0.4222
H18 H 1.0741 0.7153 0.4649
H19 H 0.9001 0.8433 0.4196
loop_
_geom_bond_atom_site_label_1
_geom_bond_atom_site_label_2
_geom_bond_site_symmetry_1
_geom_bond_site_symmetry_2
Cl1 C8 1_555 1_555
C1 H1 1_555 1_555
Cl2 C7 1_555 1_555
O1 C2 1_555 1_555
O2 C2 1_555 1_555
C2 C3 1_555 1_555
C3 C1 1_555 1_555
H2 C3 1_555 1_555
C4 O1 1_555 1_555
H3 C4 1_555 1_555
H4 C4 1_555 1_555
H5 C4 1_555 1_555
C5 C6 1_555 1_555
C6 H6 1_555 1_555
C7 C6 1_555 1_555
C8 C7 1_555 1_555
C9 C8 1_555 1_555
H7 C9 1_555 1_555
C10 C5 1_555 1_555
H8 C10 1_555 1_555
C11 C3 1_555 1_555
H9 C11 1_555 1_555
C12 C11 1_555 1_555
H10 C12 1_555 1_555
H11 C12 1_555 1_555
C13 C12 1_555 1_555
H12 C13 1_555 1_555
C14 C13 1_555 1_555
H13 C14 1_555 1_555
H14 C14 1_555 1_555
O3 H15 1_555 1_555
C15 C1 1_555 1_555
H16 C15 1_555 1_555
N1 C1 1_555 1_555
C16 N1 1_555 1_555
H17 C16 1_555 1_555
H18 C16 1_555 1_555
H19 C16 1_555 1_555
C5 C11 1_555 1_555
C9 C10 1_555 1_555
C13 N1 1_555 1_555
C14 C15 1_555 1_555
O3 C15 1_555 1_555

#END
