
#######################################################################
#
#                 Cambridge Crystallographic Data Centre
#                                CCDC 
#
#######################################################################
#
# If this CIF has been generated from an entry in the Cambridge 
# Structural Database, then it will include bibliographic, chemical, 
# crystal, experimental, refinement or atomic coordinate data resulting 
# from the CCDC's data processing and validation procedures.
#
#######################################################################

data_QURJUK
_chemical_name_common            
8-(m-(hydroxylmethane)phenyl)-4,4-difluoro-4-bora-3a,4a-diaza-s-indacene
_chemical_formula_moiety         'C16 H13 B1 F2 N2 O1'
_chemical_name_systematic        
(3-(5,5-difluoro-5H-6,5-dipyrrolo[1,2-c:2',1'-f][1,3,2]diazaborinin-10-yl)phenyl)methanol
_symmetry_cell_setting           triclinic
_symmetry_space_group_name_H-M   'P -1'
_symmetry_Int_Tables_number      2
_space_group_name_Hall           '-P 1'
loop_
_symmetry_equiv_pos_site_id
_symmetry_equiv_pos_as_xyz
1 x,y,z
2 -x,-y,-z
_cell_length_a                   7.897(3)
_cell_length_b                   10.355(3)
_cell_length_c                   18.723(6)
_cell_angle_alpha                100.933(7)
_cell_angle_beta                 94.814(7)
_cell_angle_gamma                109.680(8)
_cell_volume                     1397.24
_exptl_crystal_colour            orange
_exptl_crystal_description       needles
_cell_formula_units_Z            4
loop_
_atom_site_label
_atom_site_type_symbol
_atom_site_fract_x
_atom_site_fract_y
_atom_site_fract_z
B1 B 0.436(2) 0.2511(19) 0.0453(9)
F1 F 0.5630(12) 0.2028(10) 0.0132(5)
F2 F 0.3237(12) 0.2743(9) -0.0067(5)
O1 O 0.2405(15) 0.0249(12) 0.4643(5)
H1 H 0.1361 0.0244 0.4485
N1 N 0.5264(15) 0.3795(12) 0.1081(6)
N2 N 0.3166(15) 0.1340(11) 0.0799(6)
C1 C 0.6405(18) 0.5003(15) 0.1013(8)
H2 H 0.6693 0.5198 0.0564
C2 C 0.7139(17) 0.5962(15) 0.1689(8)
H3 H 0.7959 0.6883 0.1772
C3 C 0.6386(16) 0.5249(14) 0.2214(8)
H4 H 0.6631 0.5594 0.2722
C4 C 0.5175(17) 0.3897(14) 0.1822(7)
C5 C 0.4033(16) 0.2751(13) 0.2053(7)
C6 C 0.3003(17) 0.1515(14) 0.1568(7)
C7 C 0.1665(19) 0.0267(15) 0.1641(8)
H5 H 0.1264 0.0090 0.2078
C8 C 0.104(2) -0.0654(17) 0.0955(8)
H6 H 0.0155 -0.1555 0.0837
C9 C 0.204(2) 0.0071(16) 0.0479(8)
H7 H 0.1911 -0.0316 -0.0022
C10 C 0.3918(16) 0.2892(13) 0.2855(7)
C11 C 0.3997(15) 0.1830(14) 0.3206(7)
H8 H 0.4097 0.1017 0.2933
C12 C 0.3928(17) 0.1970(14) 0.3947(7)
C13 C 0.3649(19) 0.3166(15) 0.4335(8)
H9 H 0.3494 0.3245 0.4826
C14 C 0.3605(17) 0.4172(13) 0.4006(7)
H10 H 0.3509 0.4982 0.4285
C15 C 0.3693(16) 0.4083(13) 0.3279(6)
H11 H 0.3607 0.4800 0.3062
C16 C 0.403(2) 0.0806(15) 0.4321(8)
H12 H 0.4164 0.0052 0.3963
H13 H 0.5092 0.1180 0.4704
B2 B 1.177(2) 0.6914(18) 0.2861(10)
F3 F 1.3598(11) 0.7354(9) 0.3139(5)
F4 F 1.1381(13) 0.8062(9) 0.2754(5)
O2 O 0.9043(16) 0.0279(13) 0.4124(6)
H14 H 0.8600 0.0114 0.4509
N3 N 1.0603(14) 0.6110(11) 0.3347(6)
N4 N 1.1362(15) 0.5847(12) 0.2094(6)
C17 C 1.0339(19) 0.6719(14) 0.4015(7)
H15 H 1.0887 0.7671 0.4245
C18 C 0.912(2) 0.5702(15) 0.4309(8)
H16 H 0.8652 0.5842 0.4745
C19 C 0.8762(19) 0.4457(14) 0.3809(7)
H17 H 0.8053 0.3573 0.3866
C20 C 0.9619(16) 0.4707(13) 0.3200(7)
C21 C 0.9593(17) 0.3778(13) 0.2526(7)
C22 C 1.0423(18) 0.4375(15) 0.1988(7)
C23 C 1.053(2) 0.3764(17) 0.1233(8)
H18 H 1.0033 0.2816 0.0991
C24 C 1.149(2) 0.4848(18) 0.0955(9)
H19 H 1.1814 0.4763 0.0487
C25 C 1.192(2) 0.6128(18) 0.1479(9)
H20 H 1.2494 0.7023 0.1402
C26 C 0.8598(18) 0.2271(14) 0.2416(7)
C27 C 0.8835(18) 0.1559(14) 0.2935(8)
H21 H 0.9678 0.2051 0.3360
C28 C 0.7871(16) 0.0126(14) 0.2856(7)
C29 C 0.669(2) -0.0581(15) 0.2201(8)
H22 H 0.6021 -0.1538 0.2133
C30 C 0.647(2) 0.0054(15) 0.1668(8)
H23 H 0.5706 -0.0471 0.1229
C31 C 0.7394(18) 0.1511(14) 0.1758(7)
H24 H 0.7209 0.1961 0.1389
C32 C 0.812(2) -0.0633(16) 0.3441(8)
H25 H 0.6927 -0.1235 0.3508
H26 H 0.8788 -0.1233 0.3275
loop_
_geom_bond_atom_site_label_1
_geom_bond_atom_site_label_2
_geom_bond_site_symmetry_1
_geom_bond_site_symmetry_2
B1 F1 1_555 1_555
F2 B1 1_555 1_555
O1 H1 1_555 1_555
N1 B1 1_555 1_555
N2 B1 1_555 1_555
C1 N1 1_555 1_555
H2 C1 1_555 1_555
C2 C1 1_555 1_555
H3 C2 1_555 1_555
C3 C2 1_555 1_555
H4 C3 1_555 1_555
C4 N1 1_555 1_555
C5 C4 1_555 1_555
C6 N2 1_555 1_555
C7 C6 1_555 1_555
H5 C7 1_555 1_555
C8 C7 1_555 1_555
H6 C8 1_555 1_555
C9 N2 1_555 1_555
H7 C9 1_555 1_555
C10 C5 1_555 1_555
C11 C10 1_555 1_555
H8 C11 1_555 1_555
C12 C11 1_555 1_555
C13 C12 1_555 1_555
H9 C13 1_555 1_555
C14 C13 1_555 1_555
H10 C14 1_555 1_555
C15 C10 1_555 1_555
H11 C15 1_555 1_555
C16 O1 1_555 1_555
H12 C16 1_555 1_555
H13 C16 1_555 1_555
B2 F3 1_555 1_555
F4 B2 1_555 1_555
O2 H14 1_555 1_555
N3 B2 1_555 1_555
N4 B2 1_555 1_555
C17 N3 1_555 1_555
H15 C17 1_555 1_555
C18 C17 1_555 1_555
H16 C18 1_555 1_555
C19 C18 1_555 1_555
H17 C19 1_555 1_555
C20 N3 1_555 1_555
C21 C20 1_555 1_555
C22 N4 1_555 1_555
C23 C22 1_555 1_555
H18 C23 1_555 1_555
C24 C23 1_555 1_555
H19 C24 1_555 1_555
C25 N4 1_555 1_555
H20 C25 1_555 1_555
C26 C21 1_555 1_555
C27 C26 1_555 1_555
H21 C27 1_555 1_555
C28 C27 1_555 1_555
C29 C28 1_555 1_555
H22 C29 1_555 1_555
C30 C29 1_555 1_555
H23 C30 1_555 1_555
C31 C26 1_555 1_555
H24 C31 1_555 1_555
C32 O2 1_555 1_555
H25 C32 1_555 1_555
H26 C32 1_555 1_555
C3 C4 1_555 1_555
C5 C6 1_555 1_555
C8 C9 1_555 1_555
C12 C16 1_555 1_555
C14 C15 1_555 1_555
C19 C20 1_555 1_555
C21 C22 1_555 1_555
C24 C25 1_555 1_555
C28 C32 1_555 1_555
C30 C31 1_555 1_555

#END
