
#######################################################################
#
#                 Cambridge Crystallographic Data Centre
#                                CCDC 
#
#######################################################################
#
# If this CIF has been generated from an entry in the Cambridge 
# Structural Database, then it will include bibliographic, chemical, 
# crystal, experimental, refinement or atomic coordinate data resulting 
# from the CCDC's data processing and validation procedures.
#
#######################################################################

data_QURKOF
_chemical_name_common            
8-(o-methoxyphenyl)-4,4-difluoro-4-bora-3a,4a-diaza-s-indacene
_chemical_formula_moiety         'C16 H13 B1 F2 N2 O1'
_chemical_name_systematic        
5,5-difluoro-10-(2-methoxyphenyl)-5H-6,5-dipyrrolo[1,2-c:2',1'-f][1,3,2]diazaborinine
_symmetry_cell_setting           monoclinic
_symmetry_space_group_name_H-M   'P 21/c'
_symmetry_Int_Tables_number      14
_space_group_name_Hall           '-P 2ybc'
loop_
_symmetry_equiv_pos_site_id
_symmetry_equiv_pos_as_xyz
1 x,y,z
2 -x,1/2+y,1/2-z
3 -x,-y,-z
4 x,1/2-y,1/2+z
_cell_length_a                   13.3229(15)
_cell_length_b                   7.8292(9)
_cell_length_c                   15.1088(18)
_cell_angle_alpha                90
_cell_angle_beta                 113.9750(10)
_cell_angle_gamma                90
_cell_volume                     1439.99
_exptl_crystal_colour            green
_exptl_crystal_description       prism
_chemical_melting_point          '374 K'
_cell_formula_units_Z            4
loop_
_atom_site_label
_atom_site_type_symbol
_atom_site_fract_x
_atom_site_fract_y
_atom_site_fract_z
B1 B 0.5992(2) 1.0394(3) 0.40012(19)
F1 F 0.65809(13) 1.13393(19) 0.48275(10)
F2 F 0.48819(11) 1.07013(19) 0.37092(12)
N1 N 0.63650(14) 1.0858(2) 0.31917(13)
N2 N 0.62454(14) 0.8468(2) 0.42042(12)
O1 O 0.95201(13) 0.7774(3) 0.46384(13)
C1 C 0.6168(2) 1.2327(3) 0.26829(19)
H1 H 0.568(2) 1.317(4) 0.274(2)
C2 C 0.6750(2) 1.2360(3) 0.2098(2)
H2 H 0.671(2) 1.331(4) 0.163(2)
C3 C 0.7336(2) 1.0864(3) 0.22645(18)
H3 H 0.779(2) 1.047(3) 0.1966(18)
C4 C 0.70936(16) 0.9909(3) 0.29423(15)
C5 C 0.74172(16) 0.8288(3) 0.33284(15)
C6 C 0.69681(16) 0.7554(3) 0.39239(15)
C7 C 0.70185(19) 0.5875(3) 0.42741(17)
H4 H 0.745(2) 0.493(4) 0.416(2)
C8 C 0.6334(2) 0.5781(3) 0.47496(18)
H5 H 0.617(2) 0.478(4) 0.505(2)
C9 C 0.5876(2) 0.7401(3) 0.46958(17)
H6 H 0.533(2) 0.780(3) 0.4940(19)
C10 C 0.82132(17) 0.7302(3) 0.30668(16)
C11 C 0.92851(17) 0.7045(3) 0.37561(17)
C12 C 1.0025(2) 0.6117(4) 0.3512(2)
H7 H 1.077(2) 0.594(4) 0.396(2)
C13 C 0.9698(2) 0.5456(4) 0.2594(3)
H8 H 1.021(3) 0.485(4) 0.241(2)
C14 C 0.8662(3) 0.5726(5) 0.1902(3)
H9 H 0.845(3) 0.524(4) 0.124(3)
C15 C 0.7923(2) 0.6648(4) 0.2148(2)
H10 H 0.722(2) 0.684(4) 0.168(2)
C16 C 1.0617(2) 0.7723(6) 0.5350(3)
H11 H 1.117(3) 0.816(5) 0.508(3)
H12 H 1.085(3) 0.646(5) 0.548(2)
H13 H 1.058(3) 0.839(5) 0.588(3)
loop_
_geom_bond_atom_site_label_1
_geom_bond_atom_site_label_2
_geom_bond_site_symmetry_1
_geom_bond_site_symmetry_2
B1 F1 1_555 1_555
F2 B1 1_555 1_555
N1 B1 1_555 1_555
N2 B1 1_555 1_555
O1 C11 1_555 1_555
C1 N1 1_555 1_555
H1 C1 1_555 1_555
C2 C1 1_555 1_555
H2 C2 1_555 1_555
C3 C2 1_555 1_555
H3 C3 1_555 1_555
C4 N1 1_555 1_555
C5 C4 1_555 1_555
C6 N2 1_555 1_555
C7 C6 1_555 1_555
H4 C7 1_555 1_555
C8 C7 1_555 1_555
H5 C8 1_555 1_555
C9 N2 1_555 1_555
H6 C9 1_555 1_555
C10 C5 1_555 1_555
C11 C10 1_555 1_555
C12 C11 1_555 1_555
H7 C12 1_555 1_555
C13 C12 1_555 1_555
H8 C13 1_555 1_555
C14 C13 1_555 1_555
H9 C14 1_555 1_555
C15 C10 1_555 1_555
H10 C15 1_555 1_555
C16 O1 1_555 1_555
H11 C16 1_555 1_555
H12 C16 1_555 1_555
H13 C16 1_555 1_555
C3 C4 1_555 1_555
C5 C6 1_555 1_555
C8 C9 1_555 1_555
C14 C15 1_555 1_555

#END
