
#######################################################################
#
#                 Cambridge Crystallographic Data Centre
#                                CCDC 
#
#######################################################################
#
# If this CIF has been generated from an entry in the Cambridge 
# Structural Database, then it will include bibliographic, chemical, 
# crystal, experimental, refinement or atomic coordinate data resulting 
# from the CCDC's data processing and validation procedures.
#
#######################################################################

data_QURPUP
_chemical_formula_moiety         'C19 H13 N1 S1'
_chemical_name_systematic        2-(2-Phenylvinyl)naphtho[1,2-d][1,3]thiazole
_symmetry_cell_setting           orthorhombic
_symmetry_space_group_name_H-M   'P 21 21 21'
_symmetry_Int_Tables_number      19
_space_group_name_Hall           'P 2ac 2ab'
loop_
_symmetry_equiv_pos_site_id
_symmetry_equiv_pos_as_xyz
1 x,y,z
2 1/2-x,-y,1/2+z
3 -x,1/2+y,1/2-z
4 1/2+x,1/2-y,-z
_cell_length_a                   6.338(3)
_cell_length_b                   9.242(5)
_cell_length_c                   25.128(12)
_cell_angle_alpha                90
_cell_angle_beta                 90
_cell_angle_gamma                90
_cell_volume                     1471.89
_exptl_crystal_colour            yellow
_exptl_crystal_description       block
_cell_formula_units_Z            4
loop_
_atom_site_label
_atom_site_type_symbol
_atom_site_fract_x
_atom_site_fract_y
_atom_site_fract_z
S1 S 0.1805(3) 0.66312(19) 0.82093(7)
N1 N 0.0613(11) 0.8949(6) 0.8716(2)
C1 C 0.3362(13) 0.7244(7) 0.8747(2)
C2 C 0.5245(12) 0.6703(8) 0.8965(3)
H1 H 0.5849 0.5863 0.8830
C3 C 0.6173(12) 0.7414(8) 0.9372(3)
H2 H 0.7440 0.7071 0.9510
C4 C 0.5262(13) 0.8654(8) 0.9591(3)
C5 C 0.6295(13) 0.9354(9) 1.0012(3)
H3 H 0.7592 0.9026 1.0136
C6 C 0.5346(16) 1.0530(10) 1.0236(3)
H4 H 0.6002 1.0987 1.0520
C7 C 0.3433(18) 1.1069(8) 1.0053(3)
H5 H 0.2840 1.1873 1.0217
C8 C 0.2411(12) 1.0433(8) 0.9635(3)
H6 H 0.1141 1.0802 0.9508
C9 C 0.3334(13) 0.9210(7) 0.9403(2)
C10 C 0.2427(11) 0.8467(8) 0.8966(3)
C11 C 0.0114(11) 0.8133(8) 0.8326(3)
C12 C -0.1678(11) 0.8308(7) 0.7958(3)
H7 H -0.2664 0.9002 0.8057
C13 C -0.2107(12) 0.7612(6) 0.7496(3)
H8 H -0.1104 0.6941 0.7386
C14 C -0.3946(12) 0.7777(7) 0.7148(3)
C15 C -0.4179(13) 0.6879(8) 0.6703(3)
H9 H -0.3105 0.6231 0.6620
C16 C -0.5930(15) 0.6923(9) 0.6387(3)
H10 H -0.6037 0.6312 0.6094
C17 C -0.7499(14) 0.7854(8) 0.6500(3)
H11 H -0.8702 0.7870 0.6288
C18 C -0.7343(11) 0.8789(7) 0.6929(3)
H12 H -0.8426 0.9439 0.7001
C19 C -0.5573(13) 0.8751(8) 0.7249(3)
H13 H -0.5466 0.9384 0.7535
loop_
_geom_bond_atom_site_label_1
_geom_bond_atom_site_label_2
_geom_bond_site_symmetry_1
_geom_bond_site_symmetry_2
S1 C1 1_555 1_555
N1 C10 1_555 1_555
C1 C2 1_555 1_555
C2 H1 1_555 1_555
C3 C2 1_555 1_555
H2 C3 1_555 1_555
C4 C3 1_555 1_555
C5 C4 1_555 1_555
H3 C5 1_555 1_555
C6 C5 1_555 1_555
H4 C6 1_555 1_555
C7 C6 1_555 1_555
H5 C7 1_555 1_555
C8 C7 1_555 1_555
H6 C8 1_555 1_555
C9 C4 1_555 1_555
C10 C1 1_555 1_555
C11 S1 1_555 1_555
C12 C11 1_555 1_555
H7 C12 1_555 1_555
C13 C12 1_555 1_555
H8 C13 1_555 1_555
C14 C13 1_555 1_555
C15 C14 1_555 1_555
H9 C15 1_555 1_555
C16 C15 1_555 1_555
H10 C16 1_555 1_555
C17 C16 1_555 1_555
H11 C17 1_555 1_555
C18 C17 1_555 1_555
H12 C18 1_555 1_555
C19 C14 1_555 1_555
H13 C19 1_555 1_555
N1 C11 1_555 1_555
C8 C9 1_555 1_555
C9 C10 1_555 1_555
C18 C19 1_555 1_555

#END
