
#######################################################################
#
#                 Cambridge Crystallographic Data Centre
#                                CCDC 
#
#######################################################################
#
# If this CIF has been generated from an entry in the Cambridge 
# Structural Database, then it will include bibliographic, chemical, 
# crystal, experimental, refinement or atomic coordinate data resulting 
# from the CCDC's data processing and validation procedures.
#
#######################################################################

data_QUSBEN
_chemical_formula_moiety         'C21 H19 F1 N4 O3,H2 O1'
_chemical_name_systematic        
'6-amino-5-(2-(4-fluorobenzyl)-3-oxo-2,3-dihydro-1H-isoindol-1-yl)-1,3-dimethylpyrimidine-2,4(1H,3H)-dione monohydrate'
_symmetry_cell_setting           monoclinic
_symmetry_space_group_name_H-M   'P 21/c'
_symmetry_Int_Tables_number      14
_space_group_name_Hall           '-P 2ybc'
loop_
_symmetry_equiv_pos_site_id
_symmetry_equiv_pos_as_xyz
1 x,y,z
2 -x,1/2+y,1/2-z
3 -x,-y,-z
4 x,1/2-y,1/2+z
_cell_length_a                   11.293(2)
_cell_length_b                   12.118(2)
_cell_length_c                   14.030(3)
_cell_angle_alpha                90
_cell_angle_beta                 97.621(8)
_cell_angle_gamma                90
_cell_volume                     1903.03
_exptl_crystal_description       Hexagonal
_cell_formula_units_Z            4
loop_
_atom_site_label
_atom_site_type_symbol
_atom_site_fract_x
_atom_site_fract_y
_atom_site_fract_z
F1 F 0.60890(15) 0.13727(16) -0.02712(15)
O1 O 0.45729(15) 0.07643(13) 0.20995(12)
O2 O 0.08404(12) 0.17981(11) 0.08897(12)
O3 O 0.19640(16) 0.60428(14) -0.09235(12)
N1 N 0.16545(13) 0.44357(13) -0.01185(11)
C1 C 0.13827(14) 0.40666(14) 0.08311(13)
H1 H 0.0581 0.3741 0.0745
C2 C 0.22460(14) 0.32110(13) 0.12862(12)
N2 N 0.26768(14) 0.13003(12) 0.16150(12)
C3 C 0.5038(2) 0.1928(2) -0.04643(18)
C4 C 0.5066(2) 0.3052(2) -0.04496(17)
H2 H 0.5787 0.3431 -0.0329
C5 C 0.39961(19) 0.36143(17) -0.06189(15)
H3 H 0.3996 0.4382 -0.0619
C6 C 0.29226(18) 0.30490(16) -0.07881(13)
C7 C 0.17553(19) 0.36682(19) -0.09004(15)
H4 H 0.1673 0.4073 -0.1502
H5 H 0.1104 0.3141 -0.0935
C8 C 0.18468(15) 0.20967(14) 0.12361(13)
C9 C 0.38595(17) 0.15081(16) 0.18814(13)
C10 C 0.4013(2) 0.13331(19) -0.06641(18)
H6 H 0.4029 0.0567 -0.0693
C11 C 0.2948(2) 0.19066(18) -0.08220(16)
H7 H 0.2234 0.1519 -0.0954
C12 C 0.2293(2) 0.01454(16) 0.1634(2)
H8 H 0.2476 -0.0224 0.1066
H9 H 0.1448 0.0116 0.1656
H10 H 0.2705 -0.0212 0.2192
N3 N 0.42102(13) 0.25964(13) 0.18886(11)
C13 C 0.54937(17) 0.2824(2) 0.21217(17)
H11 H 0.5923 0.2140 0.2206
H12 H 0.5632 0.3247 0.2704
H13 H 0.5765 0.3233 0.1606
C14 C 0.34168(14) 0.34367(14) 0.16200(12)
N4 N 0.38704(14) 0.44639(13) 0.16551(12)
H14 H 0.4619 0.4567 0.1838
H15 H 0.3411 0.5018 0.1494
C15 C 0.13219(15) 0.51573(14) 0.13449(14)
C16 C 0.11345(19) 0.53703(18) 0.22805(16)
H16 H 0.0997 0.4800 0.2696
C17 C 0.1158(2) 0.6468(2) 0.25826(18)
H17 H 0.1043 0.6631 0.3212
C18 C 0.1348(2) 0.73150(19) 0.1964(2)
H18 H 0.1353 0.8040 0.2183
C19 C 0.15289(19) 0.71088(17) 0.10303(19)
H19 H 0.1652 0.7682 0.0614
C20 C 0.15213(15) 0.60133(15) 0.07298(15)
C21 C 0.17388(16) 0.55497(16) -0.02079(15)
O4 O 0.0557(6) 0.0185(6) 0.9458(4)
loop_
_geom_bond_atom_site_label_1
_geom_bond_atom_site_label_2
_geom_bond_site_symmetry_1
_geom_bond_site_symmetry_2
F1 C3 1_555 1_555
O1 C9 1_555 1_555
O2 C8 1_555 1_555
O3 C21 1_555 1_555
N1 C1 1_555 1_555
C1 H1 1_555 1_555
C2 C1 1_555 1_555
N2 C8 1_555 1_555
C3 C4 1_555 1_555
C4 H2 1_555 1_555
C5 C4 1_555 1_555
H3 C5 1_555 1_555
C6 C5 1_555 1_555
C7 N1 1_555 1_555
H4 C7 1_555 1_555
H5 C7 1_555 1_555
C8 C2 1_555 1_555
C9 N2 1_555 1_555
C10 C3 1_555 1_555
H6 C10 1_555 1_555
C11 C6 1_555 1_555
H7 C11 1_555 1_555
C12 N2 1_555 1_555
H8 C12 1_555 1_555
H9 C12 1_555 1_555
H10 C12 1_555 1_555
N3 C9 1_555 1_555
C13 N3 1_555 1_555
H11 C13 1_555 1_555
H12 C13 1_555 1_555
H13 C13 1_555 1_555
C14 C2 1_555 1_555
N4 C14 1_555 1_555
H14 N4 1_555 1_555
H15 N4 1_555 1_555
C15 C1 1_555 1_555
C16 C15 1_555 1_555
H16 C16 1_555 1_555
C17 C16 1_555 1_555
H17 C17 1_555 1_555
C18 C17 1_555 1_555
H18 C18 1_555 1_555
C19 C18 1_555 1_555
H19 C19 1_555 1_555
C20 C15 1_555 1_555
C21 N1 1_555 1_555
C6 C7 1_555 1_555
C10 C11 1_555 1_555
N3 C14 1_555 1_555
C19 C20 1_555 1_555
C20 C21 1_555 1_555

#END
