
#######################################################################
#
#                 Cambridge Crystallographic Data Centre
#                                CCDC 
#
#######################################################################
#
# If this CIF has been generated from an entry in the Cambridge 
# Structural Database, then it will include bibliographic, chemical, 
# crystal, experimental, refinement or atomic coordinate data resulting 
# from the CCDC's data processing and validation procedures.
#
#######################################################################

data_QUSMAU
_chemical_name_common            
4-chloro-7-(4-chloro-5-dodecyl-6-oxo-5,6-dihydro-7H-thieno[2,3-f]indol-7-ylidene)-5-dodecyl-5,7-dihydro-6H-thieno[2,3-f]indol-6-one
_chemical_formula_moiety         'C44 H56 Cl2 N2 O2 S2'
_chemical_name_systematic        
(E)-4,4'-dichloro-5,5'-didodecyl-[7,7'-bithieno[2,3-f]indolylidene]-6,6'(5H,5'H)-dione
_symmetry_cell_setting           monoclinic
_symmetry_space_group_name_H-M   'P 21/n'
_symmetry_Int_Tables_number      14
_space_group_name_Hall           '-P 2yn'
loop_
_symmetry_equiv_pos_site_id
_symmetry_equiv_pos_as_xyz
1 x,y,z
2 1/2-x,1/2+y,1/2-z
3 -x,-y,-z
4 1/2+x,1/2-y,1/2+z
_cell_length_a                   9.6299(10)
_cell_length_b                   4.8972(5)
_cell_length_c                   42.482(5)
_cell_angle_alpha                90
_cell_angle_beta                 95.129(3)
_cell_angle_gamma                90
_cell_volume                     1995.41
_exptl_crystal_colour            red
_exptl_crystal_description       block
_cell_formula_units_Z            2
_chemical_properties_physical    Oxygen-sensitive
_exptl_crystal_recrystallization_method chloroform/hexane
loop_
_atom_site_label
_atom_site_type_symbol
_atom_site_fract_x
_atom_site_fract_y
_atom_site_fract_z
C1 C 0.2284(3) 1.0875(7) 0.03537(8)
C2 C 0.3001(3) 1.2018(7) 0.06198(8)
C3 C 0.4377(4) 1.1126(7) 0.07062(8)
C4 C 0.4969(3) 0.9235(7) 0.05191(8)
C5 C 0.4198(3) 0.7975(7) 0.02544(8)
C6 C 0.2845(3) 0.8846(7) 0.01719(8)
H1 H 0.2310 0.8078 -0.0005
C7 C 0.0921(4) 1.4331(8) 0.06097(9)
H2 H 0.0247 1.5583 0.0674
C8 C 0.2192(4) 1.4008(8) 0.07668(9)
H3 H 0.2509 1.4987 0.0953
C9 C 0.6476(3) 0.6195(7) 0.03265(8)
C10 C 0.5112(3) 0.5921(7) 0.01234(8)
C11 C 0.7583(3) 0.9342(7) 0.07164(8)
H4 H 0.7399 1.1291 0.0759
H5 H 0.8343 0.9267 0.0574
C12 C 0.8084(3) 0.7976(7) 0.10257(8)
H6 H 0.8233 0.6004 0.0990
H7 H 0.7366 0.8165 0.1177
C13 C 0.9443(4) 0.9277(7) 0.11638(8)
H8 H 1.0119 0.9236 0.1002
H9 H 0.9262 1.1215 0.1212
C14 C 1.0096(4) 0.7916(8) 0.14596(9)
H10 H 1.0251 0.5963 0.1414
H11 H 0.9435 0.8015 0.1625
C15 C 1.1472(4) 0.9187(8) 0.15869(9)
H12 H 1.2148 0.9002 0.1426
H13 H 1.1327 1.1161 0.1622
C16 C 1.2090(4) 0.7910(8) 0.18930(9)
H14 H 1.1399 0.8044 0.2051
H15 H 1.2257 0.5947 0.1855
C17 C 1.3444(4) 0.9195(8) 0.20300(9)
H16 H 1.3288 1.1172 0.2060
H17 H 1.4148 0.8998 0.1875
C18 C 1.4026(4) 0.7970(8) 0.23428(9)
H18 H 1.3305 0.8080 0.2494
H19 H 1.4231 0.6014 0.2310
C19 C 1.5339(4) 0.9366(8) 0.24858(9)
H20 H 1.5125 1.1311 0.2522
H21 H 1.6048 0.9299 0.2331
C20 C 1.5960(4) 0.8126(8) 0.27951(9)
H22 H 1.5273 0.8270 0.2954
H23 H 1.6144 0.6163 0.2762
C21 C 1.7300(4) 0.9498(8) 0.29226(9)
H24 H 1.7111 1.1459 0.2956
H25 H 1.7980 0.9369 0.2762
C22 C 1.7954(4) 0.8294(9) 0.32303(10)
H26 H 1.7302 0.8463 0.3393
H27 H 1.8816 0.9281 0.3297
H28 H 1.8167 0.6362 0.3199
Cl1 Cl 0.52166(10) 1.2424(2) 0.10527(2)
N1 N 0.6326(3) 0.8153(6) 0.05510(7)
O1 O 0.7586(2) 0.5021(5) 0.03075(6)
S1 S 0.06366(9) 1.2275(2) 0.02845(2)
C1B C 0.7716(3) -0.0875(7) -0.03537(8)
C2B C 0.6999(3) -0.2018(7) -0.06198(8)
C3B C 0.5623(4) -0.1126(7) -0.07062(8)
C4B C 0.5031(3) 0.0765(7) -0.05191(8)
C5B C 0.5802(3) 0.2025(7) -0.02544(8)
C6B C 0.7155(3) 0.1154(7) -0.01719(8)
H1B H 0.7690 0.1922 0.0005
C7B C 0.9079(4) -0.4331(8) -0.06097(9)
H2B H 0.9753 -0.5583 -0.0674
C8B C 0.7808(4) -0.4008(8) -0.07668(9)
H3B H 0.7491 -0.4987 -0.0953
C9B C 0.3524(3) 0.3805(7) -0.03265(8)
C10B C 0.4888(3) 0.4079(7) -0.01234(8)
C11B C 0.2417(3) 0.0658(7) -0.07164(8)
H4B H 0.2601 -0.1291 -0.0759
H5B H 0.1657 0.0733 -0.0574
C12B C 0.1916(3) 0.2024(7) -0.10257(8)
H6B H 0.1767 0.3996 -0.0990
H7B H 0.2634 0.1835 -0.1177
C13B C 0.0557(4) 0.0723(7) -0.11638(8)
H8B H -0.0119 0.0764 -0.1002
H9B H 0.0738 -0.1215 -0.1212
C14B C -0.0096(4) 0.2084(8) -0.14596(9)
H10B H -0.0251 0.4037 -0.1414
H11B H 0.0565 0.1985 -0.1625
C15B C -0.1472(4) 0.0813(8) -0.15869(9)
H12B H -0.2148 0.0998 -0.1426
H13B H -0.1327 -0.1161 -0.1622
C16B C -0.2090(4) 0.2090(8) -0.18930(9)
H14B H -0.1399 0.1956 -0.2051
H15B H -0.2257 0.4053 -0.1855
C17B C -0.3444(4) 0.0805(8) -0.20300(9)
H16B H -0.3288 -0.1172 -0.2060
H17B H -0.4148 0.1002 -0.1875
C18B C -0.4026(4) 0.2030(8) -0.23428(9)
H18B H -0.3305 0.1920 -0.2494
H19B H -0.4231 0.3986 -0.2310
C19B C -0.5339(4) 0.0634(8) -0.24858(9)
H20B H -0.5125 -0.1311 -0.2522
H21B H -0.6048 0.0701 -0.2331
C20B C -0.5960(4) 0.1874(8) -0.27951(9)
H22B H -0.5273 0.1730 -0.2954
H23B H -0.6144 0.3837 -0.2762
C21B C -0.7300(4) 0.0502(8) -0.29226(9)
H24B H -0.7111 -0.1459 -0.2956
H25B H -0.7980 0.0631 -0.2762
C22B C -0.7954(4) 0.1706(9) -0.32303(10)
H26B H -0.7302 0.1537 -0.3393
H27B H -0.8816 0.0719 -0.3297
H28B H -0.8167 0.3638 -0.3199
Cl1B Cl 0.47834(10) -0.2424(2) -0.10527(2)
N1B N 0.3674(3) 0.1847(6) -0.05510(7)
O1B O 0.2414(2) 0.4979(5) -0.03075(6)
S1B S 0.93634(9) -0.2275(2) -0.02845(2)
loop_
_geom_bond_atom_site_label_1
_geom_bond_atom_site_label_2
_geom_bond_site_symmetry_1
_geom_bond_site_symmetry_2
C1 C2 1_555 1_555
C2 C3 1_555 1_555
C3 C4 1_555 1_555
C4 C5 1_555 1_555
C5 C6 1_555 1_555
C6 C1 1_555 1_555
H1 C6 1_555 1_555
C7 H2 1_555 1_555
C8 C2 1_555 1_555
H3 C8 1_555 1_555
C9 C10 1_555 1_555
C10 C5 1_555 1_555
C11 H4 1_555 1_555
H5 C11 1_555 1_555
C12 C11 1_555 1_555
H6 C12 1_555 1_555
H7 C12 1_555 1_555
C13 C12 1_555 1_555
H8 C13 1_555 1_555
H9 C13 1_555 1_555
C14 C13 1_555 1_555
H10 C14 1_555 1_555
H11 C14 1_555 1_555
C15 C14 1_555 1_555
H12 C15 1_555 1_555
H13 C15 1_555 1_555
C16 C15 1_555 1_555
H14 C16 1_555 1_555
H15 C16 1_555 1_555
C17 C16 1_555 1_555
H16 C17 1_555 1_555
H17 C17 1_555 1_555
C18 C17 1_555 1_555
H18 C18 1_555 1_555
H19 C18 1_555 1_555
C19 C18 1_555 1_555
H20 C19 1_555 1_555
H21 C19 1_555 1_555
C20 C19 1_555 1_555
H22 C20 1_555 1_555
H23 C20 1_555 1_555
C21 C20 1_555 1_555
H24 C21 1_555 1_555
H25 C21 1_555 1_555
C22 C21 1_555 1_555
H26 C22 1_555 1_555
H27 C22 1_555 1_555
H28 C22 1_555 1_555
Cl1 C3 1_555 1_555
N1 C4 1_555 1_555
O1 C9 1_555 1_555
S1 C1 1_555 1_555
C1B C2B 1_555 1_555
C2B C3B 1_555 1_555
C3B C4B 1_555 1_555
C4B C5B 1_555 1_555
C5B C6B 1_555 1_555
C6B C1B 1_555 1_555
H1B C6B 1_555 1_555
C7B H2B 1_555 1_555
C8B C2B 1_555 1_555
H3B C8B 1_555 1_555
C9B C10B 1_555 1_555
C10B C10 1_555 1_555
C11B H4B 1_555 1_555
H5B C11B 1_555 1_555
C12B C11B 1_555 1_555
H6B C12B 1_555 1_555
H7B C12B 1_555 1_555
C13B C12B 1_555 1_555
H8B C13B 1_555 1_555
H9B C13B 1_555 1_555
C14B C13B 1_555 1_555
H10B C14B 1_555 1_555
H11B C14B 1_555 1_555
C15B C14B 1_555 1_555
H12B C15B 1_555 1_555
H13B C15B 1_555 1_555
C16B C15B 1_555 1_555
H14B C16B 1_555 1_555
H15B C16B 1_555 1_555
C17B C16B 1_555 1_555
H16B C17B 1_555 1_555
H17B C17B 1_555 1_555
C18B C17B 1_555 1_555
H18B C18B 1_555 1_555
H19B C18B 1_555 1_555
C19B C18B 1_555 1_555
H20B C19B 1_555 1_555
H21B C19B 1_555 1_555
C20B C19B 1_555 1_555
H22B C20B 1_555 1_555
H23B C20B 1_555 1_555
C21B C20B 1_555 1_555
H24B C21B 1_555 1_555
H25B C21B 1_555 1_555
C22B C21B 1_555 1_555
H26B C22B 1_555 1_555
H27B C22B 1_555 1_555
H28B C22B 1_555 1_555
Cl1B C3B 1_555 1_555
N1B C4B 1_555 1_555
O1B C9B 1_555 1_555
S1B C1B 1_555 1_555
C7 C8 1_555 1_555
C7 S1 1_555 1_555
C9 N1 1_555 1_555
C11 N1 1_555 1_555
C5B C10B 1_555 1_555
C7B C8B 1_555 1_555
C7B S1B 1_555 1_555
C9B N1B 1_555 1_555
C11B N1B 1_555 1_555

#END
