
#######################################################################
#
#                 Cambridge Crystallographic Data Centre
#                                CCDC 
#
#######################################################################
#
# If this CIF has been generated from an entry in the Cambridge 
# Structural Database, then it will include bibliographic, chemical, 
# crystal, experimental, refinement or atomic coordinate data resulting 
# from the CCDC's data processing and validation procedures.
#
#######################################################################

data_QUSWUY
_chemical_formula_moiety         'C46 H48 B1 N3 O1,C1 H4 O1'
_chemical_name_systematic        
'1,2,4,5,7,8-hexaethyl-9c-methoxy-3,6,9-triphenyl-9cH-8b,9b,9d-triaza-9c-boratricyclopenta[cd,gh,kl]phenalene methanol solvate'
_symmetry_cell_setting           triclinic
_symmetry_space_group_name_H-M   'P -1'
_symmetry_Int_Tables_number      2
_space_group_name_Hall           '-P 1'
loop_
_symmetry_equiv_pos_site_id
_symmetry_equiv_pos_as_xyz
1 x,y,z
2 -x,-y,-z
_cell_length_a                   12.6638(6)
_cell_length_b                   13.4127(6)
_cell_length_c                   14.0487(5)
_cell_angle_alpha                64.404(4)
_cell_angle_beta                 66.875(4)
_cell_angle_gamma                83.700(4)
_cell_volume                     1973.98
_exptl_crystal_colour            colorless
_exptl_crystal_description       block
_cell_formula_units_Z            2
loop_
_atom_site_label
_atom_site_type_symbol
_atom_site_fract_x
_atom_site_fract_y
_atom_site_fract_z
N1 N 0.31221(11) 0.73144(10) 0.17919(10)
N2 N 0.22077(11) 0.55561(10) 0.24603(10)
N3 N 0.28617(11) 0.59256(10) 0.36450(11)
O1 O 0.42445(10) 0.56568(10) 0.19583(10)
C1 C 0.33541(13) 0.91564(13) 0.11161(13)
C2 C 0.28193(12) 0.77362(13) 0.08681(12)
C3 C 0.16451(13) 0.45804(12) 0.33275(13)
C4 C 0.17425(13) 0.42378(12) 0.43946(13)
C5 C 0.22730(13) 0.69994(13) 0.06815(13)
C6 C 0.19714(14) 0.74137(13) -0.03446(13)
C7 C 0.19223(13) 0.58925(13) 0.15345(13)
C8 C 0.31345(13) 0.66692(13) 0.39483(13)
C9 C 0.23027(13) 0.49722(12) 0.45615(13)
C10 C 0.30053(13) 0.89297(13) 0.04062(13)
C11 C 0.33753(12) 0.81120(12) 0.20412(13)
C12 C 0.34428(13) 0.77867(13) 0.31202(13)
C13 C 0.11754(13) 0.49833(13) 0.17873(14)
C14 C 0.12494(13) 0.31275(13) 0.53417(13)
C15 C 0.09866(13) 0.42007(13) 0.28894(14)
C16 C 0.28408(15) 0.60915(14) 0.51734(14)
C17 C 0.19603(15) 0.22541(14) 0.54694(15)
H1 H 0.2724 0.2370 0.4960
C18 C 0.07628(15) 0.48531(15) 0.09777(16)
H2 H 0.0449 0.5535 0.0602
H3 H 0.0151 0.4266 0.1407
C19 C 0.36640(15) 0.86357(13) 0.34545(13)
C20 C 0.36622(15) 1.02994(13) 0.09352(15)
H4 H 0.4145 1.0714 0.0135
H5 H 0.4115 1.0224 0.1379
C21 C 0.28196(17) 0.76360(16) -0.14168(15)
H6 H 0.3583 0.7535 -0.1496
C22 C 0.23198(14) 0.50611(14) 0.55505(13)
C23 C 0.08427(16) 0.75748(15) -0.02536(17)
H7 H 0.0262 0.7445 0.0455
C24 C 0.15435(19) 0.12174(15) 0.63434(18)
H8 H 0.2028 0.0640 0.6423
C25 C 0.2757(2) 0.91721(18) 0.39330(18)
H9 H 0.2012 0.9000 0.4049
C26 C 0.31043(18) 0.65066(17) 0.58964(16)
H10 H 0.2585 0.6115 0.6687
H11 H 0.2972 0.7288 0.5655
C27 C 0.02028(16) 0.31570(14) 0.35201(17)
H12 H -0.0173 0.3014 0.4320
H13 H -0.0391 0.3272 0.3216
C28 C 0.28127(17) 0.97863(14) -0.06254(14)
H14 H 0.3056 0.9511 -0.1209
H15 H 0.3298 1.0451 -0.0927
B1 B 0.31798(15) 0.61037(14) 0.24389(14)
C29 C 0.47656(18) 0.88893(17) 0.33107(16)
H16 H 0.5381 0.8524 0.3007
C30 C 0.18139(18) 0.42214(16) 0.67809(15)
H17 H 0.1124 0.3849 0.6907
H18 H 0.1591 0.4605 0.7271
C31 C 0.2644(2) 1.09668(18) 0.1259(2)
H19 H 0.2247 1.1135 0.0756
H20 H 0.2915 1.1644 0.1193
H21 H 0.2129 1.0543 0.2033
C32 C 0.01165(16) 0.29268(16) 0.61044(17)
H22 H -0.0374 0.3500 0.6031
C33 C 0.04196(19) 0.10324(16) 0.70962(17)
H23 H 0.0141 0.0333 0.7688
C34 C 0.1425(2) 0.81424(17) -0.2262(2)
H24 H 0.1242 0.8380 -0.2903
C35 C 0.2545(2) 0.80065(18) -0.23700(17)
H25 H 0.3125 0.8163 -0.3086
C36 C 0.1572(2) 1.00969(18) -0.0402(2)
H26 H 0.1079 0.9443 -0.0084
H27 H 0.1515 1.0615 -0.1108
H28 H 0.1341 1.0429 0.0126
C37 C 0.0820(2) 0.21543(18) 0.3433(3)
H29 H 0.1150 0.2268 0.2648
H30 H 0.0283 0.1513 0.3878
H31 H 0.1419 0.2043 0.3719
C38 C -0.02943(18) 0.18877(19) 0.69711(19)
H32 H -0.1060 0.1763 0.7476
C39 C 0.0570(2) 0.79278(17) -0.1209(2)
H33 H -0.0193 0.8019 -0.1137
C40 C 0.1726(2) 0.4580(2) 0.0076(2)
H34 H 0.2317 0.5176 -0.0376
H35 H 0.1425 0.4482 -0.0410
H36 H 0.2045 0.3910 0.0444
C41 C 0.2639(3) 0.3358(2) 0.7118(2)
H37 H 0.2784 0.2909 0.6708
H38 H 0.2305 0.2898 0.7925
H39 H 0.3351 0.3723 0.6934
C42 C 0.4949(2) 0.9686(2) 0.3619(2)
H40 H 0.5690 0.9857 0.3515
C43 C 0.2958(3) 0.9962(2) 0.4239(2)
H41 H 0.2345 1.0319 0.4560
C44 C 0.4048(3) 1.0225(2) 0.4075(2)
H42 H 0.4178 1.0766 0.4272
C45 C 0.4340(2) 0.6348(2) 0.5813(2)
H43 H 0.4487 0.5581 0.6015
H44 H 0.4457 0.6575 0.6328
H45 H 0.4857 0.6788 0.5045
C46 C 0.52892(17) 0.6215(2) 0.1618(2)
H46 H 0.5387 0.6904 0.0959
H47 H 0.5910 0.5766 0.1431
H48 H 0.5289 0.6360 0.2230
O2 O 0.4434(2) 0.34188(19) 0.2370(2)
C47 C 0.4180(3) 0.3359(3) 0.1544(4)
H49 H 0.3393 0.3521 0.1660
H50 H 0.4289 0.2626 0.1579
H51 H 0.4677 0.3887 0.0808
H52 H 0.447(4) 0.4176(17) 0.215(2)
loop_
_geom_bond_atom_site_label_1
_geom_bond_atom_site_label_2
_geom_bond_site_symmetry_1
_geom_bond_site_symmetry_2
N1 C2 1_555 1_555
N2 C3 1_555 1_555
N3 C8 1_555 1_555
O1 B1 1_555 1_555
C1 C10 1_555 1_555
C2 C5 1_555 1_555
C3 C4 1_555 1_555
C4 C9 1_555 1_555
C5 C6 1_555 1_555
C6 C21 1_555 1_555
C7 N2 1_555 1_555
C8 C12 1_555 1_555
C9 N3 1_555 1_555
C10 C2 1_555 1_555
C11 N1 1_555 1_555
C12 C11 1_555 1_555
C13 C7 1_555 1_555
C14 C4 1_555 1_555
C15 C3 1_555 1_555
C16 C8 1_555 1_555
C17 C14 1_555 1_555
H1 C17 1_555 1_555
C18 C13 1_555 1_555
H2 C18 1_555 1_555
H3 C18 1_555 1_555
C19 C12 1_555 1_555
C20 C1 1_555 1_555
H4 C20 1_555 1_555
H5 C20 1_555 1_555
C21 H6 1_555 1_555
C22 C9 1_555 1_555
C23 C6 1_555 1_555
H7 C23 1_555 1_555
C24 C17 1_555 1_555
H8 C24 1_555 1_555
C25 C19 1_555 1_555
H9 C25 1_555 1_555
C26 C16 1_555 1_555
H10 C26 1_555 1_555
H11 C26 1_555 1_555
C27 C15 1_555 1_555
H12 C27 1_555 1_555
H13 C27 1_555 1_555
C28 C10 1_555 1_555
H14 C28 1_555 1_555
H15 C28 1_555 1_555
B1 N1 1_555 1_555
C29 C19 1_555 1_555
H16 C29 1_555 1_555
C30 C22 1_555 1_555
H17 C30 1_555 1_555
H18 C30 1_555 1_555
C31 C20 1_555 1_555
H19 C31 1_555 1_555
H20 C31 1_555 1_555
H21 C31 1_555 1_555
C32 C14 1_555 1_555
H22 C32 1_555 1_555
C33 C24 1_555 1_555
H23 C33 1_555 1_555
C34 H24 1_555 1_555
C35 C21 1_555 1_555
H25 C35 1_555 1_555
C36 C28 1_555 1_555
H26 C36 1_555 1_555
H27 C36 1_555 1_555
H28 C36 1_555 1_555
C37 C27 1_555 1_555
H29 C37 1_555 1_555
H30 C37 1_555 1_555
H31 C37 1_555 1_555
C38 C32 1_555 1_555
H32 C38 1_555 1_555
C39 C23 1_555 1_555
H33 C39 1_555 1_555
C40 C18 1_555 1_555
H34 C40 1_555 1_555
H35 C40 1_555 1_555
H36 C40 1_555 1_555
C41 C30 1_555 1_555
H37 C41 1_555 1_555
H38 C41 1_555 1_555
H39 C41 1_555 1_555
C42 C29 1_555 1_555
H40 C42 1_555 1_555
C43 C25 1_555 1_555
H41 C43 1_555 1_555
C44 C42 1_555 1_555
H42 C44 1_555 1_555
C45 C26 1_555 1_555
H43 C45 1_555 1_555
H44 C45 1_555 1_555
H45 C45 1_555 1_555
C46 O1 1_555 1_555
H46 C46 1_555 1_555
H47 C46 1_555 1_555
H48 C46 1_555 1_555
O2 C47 1_555 1_555
C47 H49 1_555 1_555
H50 C47 1_555 1_555
H51 C47 1_555 1_555
H52 O2 1_555 1_555
N2 B1 1_555 1_555
N3 B1 1_555 1_555
C1 C11 1_555 1_555
C5 C7 1_555 1_555
C13 C15 1_555 1_555
C16 C22 1_555 1_555
C33 C38 1_555 1_555
C34 C35 1_555 1_555
C34 C39 1_555 1_555
C43 C44 1_555 1_555

#END
