
#######################################################################
#
#                 Cambridge Crystallographic Data Centre
#                                CCDC 
#
#######################################################################
#
# If this CIF has been generated from an entry in the Cambridge 
# Structural Database, then it will include bibliographic, chemical, 
# crystal, experimental, refinement or atomic coordinate data resulting 
# from the CCDC's data processing and validation procedures.
#
#######################################################################

data_QUTNIE
_chemical_formula_moiety         'C23 H20 N2 O1 S1'
_chemical_name_systematic        
4-(4-benzoyl-5-(piperidin-1-yl)-3-thienyl)benzonitrile
_symmetry_cell_setting           monoclinic
_symmetry_space_group_name_H-M   'P 21/n'
_symmetry_Int_Tables_number      14
_space_group_name_Hall           '-P 2yn'
loop_
_symmetry_equiv_pos_site_id
_symmetry_equiv_pos_as_xyz
1 x,y,z
2 1/2-x,1/2+y,1/2-z
3 -x,-y,-z
4 1/2+x,1/2-y,1/2+z
_cell_length_a                   7.7469(8)
_cell_length_b                   17.4348(19)
_cell_length_c                   14.3624(16)
_cell_angle_alpha                90
_cell_angle_beta                 92.609(2)
_cell_angle_gamma                90
_cell_volume                     1937.86
_exptl_crystal_colour            colorless
_exptl_crystal_description       prismatic
_cell_formula_units_Z            4
loop_
_atom_site_label
_atom_site_type_symbol
_atom_site_fract_x
_atom_site_fract_y
_atom_site_fract_z
S1 S 0.41902(8) 0.25175(3) 0.12170(5)
N1 N 0.1784(2) 0.21008(9) 0.24421(12)
N2 N 1.0669(3) -0.18888(13) 0.0492(2)
O1 O 0.3276(2) -0.01110(9) 0.21150(13)
C1 C 0.3223(3) 0.18841(11) 0.19746(14)
C2 C 0.4029(2) 0.11822(11) 0.19768(14)
C3 C 0.5419(2) 0.11561(12) 0.13430(14)
C4 C 0.5658(3) 0.18387(14) 0.09196(16)
H1 H 0.6531 0.1929 0.0509
C5 C 0.3487(3) 0.05009(11) 0.25109(16)
C6 C 0.3272(3) 0.05687(13) 0.35288(16)
C7 C 0.2485(4) -0.00307(17) 0.3983(2)
H2 H 0.2072 -0.0455 0.3650
C8 C 0.2323(6) 0.0012(3) 0.4939(3)
H3 H 0.1827 -0.0393 0.5253
C9 C 0.2890(7) 0.0646(3) 0.5419(2)
H4 H 0.2747 0.0675 0.6057
C10 C 0.3655(5) 0.1234(2) 0.4983(2)
H5 H 0.4043 0.1661 0.5320
C11 C 0.3856(4) 0.11956(15) 0.40337(16)
H6 H 0.4391 0.1597 0.3733
C12 C 0.6555(2) 0.04908(12) 0.11920(15)
C13 C 0.6937(3) 0.02910(13) 0.02845(15)
H7 H 0.6468 0.0574 -0.0215
C14 C 0.8001(3) -0.03214(13) 0.01212(16)
H8 H 0.8236 -0.0453 -0.0488
C15 C 0.8722(3) -0.07401(12) 0.08529(17)
C16 C 0.8376(3) -0.05414(13) 0.17650(17)
H9 H 0.8874 -0.0817 0.2263
C17 C 0.7289(3) 0.00667(12) 0.19248(15)
H10 H 0.7046 0.0194 0.2534
C18 C 0.9813(3) -0.13832(14) 0.06670(19)
C19 C 0.0234(3) 0.16271(13) 0.23287(18)
H11 H 0.0558 0.1090 0.2303
H12 H -0.0388 0.1757 0.1749
C20 C -0.0913(3) 0.17561(15) 0.3133(2)
H13 H -0.0317 0.1591 0.3706
H14 H -0.1954 0.1450 0.3043
C21 C -0.1398(3) 0.25909(15) 0.3213(2)
H15 H -0.2050 0.2668 0.3766
H16 H -0.2121 0.2742 0.2675
C22 C 0.0214(3) 0.30784(14) 0.3271(2)
H17 H -0.0112 0.3616 0.3258
H18 H 0.0841 0.2980 0.3859
C23 C 0.1375(3) 0.29170(12) 0.24819(18)
H19 H 0.0806 0.3075 0.1898
H20 H 0.2434 0.3210 0.2570
loop_
_geom_bond_atom_site_label_1
_geom_bond_atom_site_label_2
_geom_bond_site_symmetry_1
_geom_bond_site_symmetry_2
S1 C1 1_555 1_555
N1 C1 1_555 1_555
N2 C18 1_555 1_555
O1 C5 1_555 1_555
C1 C2 1_555 1_555
C2 C3 1_555 1_555
C3 C4 1_555 1_555
C4 S1 1_555 1_555
H1 C4 1_555 1_555
C5 C2 1_555 1_555
C6 C5 1_555 1_555
C7 C6 1_555 1_555
H2 C7 1_555 1_555
C8 C7 1_555 1_555
H3 C8 1_555 1_555
C9 C8 1_555 1_555
H4 C9 1_555 1_555
C10 C9 1_555 1_555
H5 C10 1_555 1_555
C11 C6 1_555 1_555
H6 C11 1_555 1_555
C12 C3 1_555 1_555
C13 C12 1_555 1_555
H7 C13 1_555 1_555
C14 C13 1_555 1_555
H8 C14 1_555 1_555
C15 C14 1_555 1_555
C16 C15 1_555 1_555
H9 C16 1_555 1_555
C17 C12 1_555 1_555
H10 C17 1_555 1_555
C18 C15 1_555 1_555
C19 N1 1_555 1_555
H11 C19 1_555 1_555
H12 C19 1_555 1_555
C20 C19 1_555 1_555
H13 C20 1_555 1_555
H14 C20 1_555 1_555
C21 C20 1_555 1_555
H15 C21 1_555 1_555
H16 C21 1_555 1_555
C22 C21 1_555 1_555
H17 C22 1_555 1_555
H18 C22 1_555 1_555
C23 N1 1_555 1_555
H19 C23 1_555 1_555
H20 C23 1_555 1_555
C10 C11 1_555 1_555
C16 C17 1_555 1_555
C22 C23 1_555 1_555

#END
