
#######################################################################
#
#                 Cambridge Crystallographic Data Centre
#                                CCDC 
#
#######################################################################
#
# If this CIF has been generated from an entry in the Cambridge 
# Structural Database, then it will include bibliographic, chemical, 
# crystal, experimental, refinement or atomic coordinate data resulting 
# from the CCDC's data processing and validation procedures.
#
#######################################################################

data_QUTQOL
_chemical_formula_moiety         'C28 H26 N4 O5'
_chemical_name_systematic        
1,7-bis(2-(N-Pyridinoylaniline))-1,4,7-trioxaheptane
_symmetry_cell_setting           triclinic
_symmetry_space_group_name_H-M   'P -1'
_symmetry_Int_Tables_number      2
_space_group_name_Hall           '-P 1'
loop_
_symmetry_equiv_pos_site_id
_symmetry_equiv_pos_as_xyz
1 x,y,z
2 -x,-y,-z
_cell_length_a                   9.089(2)
_cell_length_b                   11.402(2)
_cell_length_c                   12.5090(10)
_cell_angle_alpha                75.890(10)
_cell_angle_beta                 82.510(10)
_cell_angle_gamma                87.36(2)
_cell_volume                     1246.37
_exptl_crystal_colour            white
_chemical_melting_point          159-160deg.C
_cell_formula_units_Z            2
loop_
_atom_site_label
_atom_site_type_symbol
_atom_site_fract_x
_atom_site_fract_y
_atom_site_fract_z
O1 O 0.80710(14) 0.39763(14) 0.48342(12)
O2 O 0.47513(12) 0.49525(9) 0.78584(10)
O3 O 0.18465(12) 0.40632(10) 0.91469(9)
O4 O 0.26673(17) -0.19744(12) 0.90200(12)
O5 O 0.05707(13) 0.20367(9) 0.85194(10)
N1 N 0.43957(16) 0.29414(13) 0.55966(11)
N2 N 0.62750(14) 0.43410(11) 0.61606(10)
H1 H 0.5367 0.4175 0.6426
N3 N 0.16702(14) -0.01217(11) 0.90426(11)
H2 H 0.1588 0.0409 0.9432
N4 N 0.29645(15) -0.00433(12) 1.07950(11)
C1 C 0.3462(2) 0.22021(18) 0.53451(16)
H3 H 0.2505 0.2129 0.5720
C2 C 0.3852(3) 0.15427(18) 0.45575(18)
H4 H 0.3171 0.1033 0.4415
C3 C 0.5242(3) 0.16479(19) 0.39929(18)
H5 H 0.5525 0.1221 0.3452
C4 C 0.6219(2) 0.23972(17) 0.42389(16)
H6 H 0.7180 0.2482 0.3872
C5 C 0.57528(18) 0.30235(14) 0.50388(13)
C6 C 0.68207(19) 0.38312(15) 0.53253(14)
C7 C 0.69709(17) 0.51030(13) 0.66606(13)
C8 C 0.83815(18) 0.55662(15) 0.62990(15)
H7 H 0.8942 0.5363 0.5692
C9 C 0.89545(19) 0.63285(16) 0.68395(16)
H8 H 0.9899 0.6640 0.6590
C10 C 0.8150(2) 0.66300(17) 0.77378(16)
H9 H 0.8553 0.7140 0.8098
C11 C 0.6739(2) 0.61809(16) 0.81146(15)
H10 H 0.6193 0.6384 0.8728
C12 C 0.61478(18) 0.54293(14) 0.75720(13)
C13 C 0.37055(18) 0.55554(15) 0.85055(14)
H11 H 0.3807 0.6424 0.8238
H12 H 0.3889 0.5332 0.9276
C14 C 0.21821(18) 0.52001(14) 0.84128(14)
H13 H 0.1470 0.5804 0.8594
H14 H 0.2115 0.5156 0.7656
C15 C 0.03325(19) 0.37664(15) 0.92395(15)
H15 H -0.0267 0.4492 0.9241
H16 H 0.0071 0.3196 0.9947
C16 C -0.00454(19) 0.32318(14) 0.83327(15)
H17 H -0.1114 0.3209 0.8348
H18 H 0.0370 0.3713 0.7614
C17 C 0.03171(17) 0.13330(15) 0.78235(13)
C18 C -0.0450(2) 0.16966(17) 0.69164(15)
H19 H -0.0837 0.2479 0.6730
C19 C -0.0639(2) 0.0888(2) 0.62856(16)
H20 H -0.1157 0.1127 0.5672
C20 C -0.0073(2) -0.0259(2) 0.65563(17)
H21 H -0.0209 -0.0795 0.6125
C21 C 0.0700(2) -0.06355(17) 0.74641(15)
H22 H 0.1079 -0.1421 0.7643
C22 C 0.09085(17) 0.01573(14) 0.81039(13)
C23 C 0.25098(19) -0.10981(15) 0.94209(15)
C24 C 0.32650(18) -0.10212(14) 1.03968(13)
C25 C 0.4251(2) -0.19237(16) 1.08187(16)
H23 H 0.4419 -0.2600 1.0526
C26 C 0.4977(2) -0.17969(18) 1.16814(17)
H24 H 0.5667 -0.2377 1.1970
C27 C 0.4669(2) -0.08098(19) 1.21061(16)
H25 H 0.5133 -0.0712 1.2699
C28 C 0.3664(2) 0.00412(17) 1.16467(15)
H26 H 0.3461 0.0711 1.1945
loop_
_geom_bond_atom_site_label_1
_geom_bond_atom_site_label_2
_geom_bond_site_symmetry_1
_geom_bond_site_symmetry_2
O1 C6 1_555 1_555
O2 C12 1_555 1_555
O3 C14 1_555 1_555
O4 C23 1_555 1_555
O5 C16 1_555 1_555
N1 C1 1_555 1_555
N2 H1 1_555 1_555
N3 H2 1_555 1_555
N4 C24 1_555 1_555
C1 H3 1_555 1_555
C2 C1 1_555 1_555
H4 C2 1_555 1_555
C3 C2 1_555 1_555
H5 C3 1_555 1_555
C4 C3 1_555 1_555
H6 C4 1_555 1_555
C5 N1 1_555 1_555
C6 N2 1_555 1_555
C7 N2 1_555 1_555
C8 C7 1_555 1_555
H7 C8 1_555 1_555
C9 C8 1_555 1_555
H8 C9 1_555 1_555
C10 C9 1_555 1_555
H9 C10 1_555 1_555
C11 C10 1_555 1_555
H10 C11 1_555 1_555
C12 C7 1_555 1_555
C13 O2 1_555 1_555
H11 C13 1_555 1_555
H12 C13 1_555 1_555
C14 C13 1_555 1_555
H13 C14 1_555 1_555
H14 C14 1_555 1_555
C15 O3 1_555 1_555
H15 C15 1_555 1_555
H16 C15 1_555 1_555
C16 C15 1_555 1_555
H17 C16 1_555 1_555
H18 C16 1_555 1_555
C17 O5 1_555 1_555
C18 C17 1_555 1_555
H19 C18 1_555 1_555
C19 C18 1_555 1_555
H20 C19 1_555 1_555
C20 C19 1_555 1_555
H21 C20 1_555 1_555
C21 C20 1_555 1_555
H22 C21 1_555 1_555
C22 N3 1_555 1_555
C23 N3 1_555 1_555
C24 C23 1_555 1_555
C25 C24 1_555 1_555
H23 C25 1_555 1_555
C26 C25 1_555 1_555
H24 C26 1_555 1_555
C27 C26 1_555 1_555
H25 C27 1_555 1_555
C28 N4 1_555 1_555
H26 C28 1_555 1_555
C4 C5 1_555 1_555
C5 C6 1_555 1_555
C11 C12 1_555 1_555
C17 C22 1_555 1_555
C21 C22 1_555 1_555
C27 C28 1_555 1_555

#END
