
#######################################################################
#
#                 Cambridge Crystallographic Data Centre
#                                CCDC 
#
#######################################################################
#
# If this CIF has been generated from an entry in the Cambridge 
# Structural Database, then it will include bibliographic, chemical, 
# crystal, experimental, refinement or atomic coordinate data resulting 
# from the CCDC's data processing and validation procedures.
#
#######################################################################

data_QUWBOB
_chemical_compound_source        'Tolypocladium cylindrosporum'
_chemical_formula_moiety         'C21 H25 N1 O4,C1 H4 O1'
_chemical_name_systematic        
'5-(4-hydroxybenzylidene)-3-(1-hydroxy-2,4-dimethyloct-6-en-1-ylidene)pyrrolidine-2,4-dione methanol solvate'
_symmetry_cell_setting           triclinic
_symmetry_space_group_name_H-M   'P -1'
_symmetry_Int_Tables_number      2
_space_group_name_Hall           '-P 1'
loop_
_symmetry_equiv_pos_site_id
_symmetry_equiv_pos_as_xyz
1 x,y,z
2 -x,-y,-z
_cell_length_a                   6.6172(8)
_cell_length_b                   8.2674(7)
_cell_length_c                   19.926(3)
_cell_angle_alpha                83.781(9)
_cell_angle_beta                 84.273(10)
_cell_angle_gamma                85.292(8)
_cell_volume                     1075.47
_exptl_crystal_colour            yellow
_cell_formula_units_Z            2
_exptl_crystal_recrystallization_method methanol
_exptl_crystal_preparation       'racemic mixture'
loop_
_atom_site_label
_atom_site_type_symbol
_atom_site_fract_x
_atom_site_fract_y
_atom_site_fract_z
O1 O 0.3601(12) 0.0265(10) 0.1806(4)
O2 O 1.0392(11) -0.0699(10) 0.0863(4)
O3 O 0.9816(14) -0.1922(12) 0.2139(4)
H1 H 1.07(3) -0.15(2) 0.166(8)
O4 O 0.3425(14) 0.6337(11) -0.1906(4)
H2 H 0.2252 0.6502 -0.2011
N1 N 0.7509(12) 0.0786(10) 0.0478(4)
H3 H 0.8046 0.1178 0.0090
C1 C 0.5445(14) 0.1069(11) 0.0727(5)
C2 C 0.1815(17) 0.4810(13) -0.0937(5)
H4 H 0.0531 0.5273 -0.1030
C3 C 0.7268(17) -0.0542(13) 0.1571(5)
C4 C 0.7829(17) -0.1324(16) 0.2135(5)
C5 C 0.5424(16) 0.4524(14) -0.1204(5)
H5 H 0.6593 0.4778 -0.1482
C6 C 0.5179(15) 0.0276(12) 0.1428(5)
C7 C 0.3908(15) 0.3020(11) -0.0199(5)
C8 C 0.1994(17) 0.3686(14) -0.0374(5)
H6 H 0.0828 0.3369 -0.0109
C9 C 0.8540(17) -0.0223(12) 0.0960(5)
C10 C 0.3923(16) 0.1988(13) 0.0436(5)
H7 H 0.2662 0.1952 0.0687
C11 C 0.3472(18) 0.5256(12) -0.1358(5)
C12 C 0.5530(16) 0.3434(13) -0.0633(6)
H8 H 0.6803 0.2949 -0.0539
C13 C 0.658(2) -0.1678(17) 0.2787(6)
C14 C 0.627(7) -0.024(6) 0.317(2)
C15 C 0.519(5) -0.049(5) 0.3878(17)
C16 C 0.312(5) -0.102(5) 0.3840(16)
C17 C 0.205(5) -0.150(4) 0.4535(18)
C18 C 0.530(6) 0.113(4) 0.4187(17)
C19 C 0.026(5) -0.057(4) 0.4721(16)
C20 C 0.079(6) 0.121(3) 0.4531(17)
C21 C 0.714(9) -0.328(11) 0.313(4)
H9 H 0.7252 -0.4079 0.2807
H10 H 0.6108 -0.3560 0.3486
H11 H 0.8418 -0.3259 0.3312
H12 H 0.1949 0.1510 0.4730
H13 H 0.1043 0.1344 0.4046
H14 H -0.0386 0.1905 0.4667
H15 H -0.0976 -0.0949 0.4915
H16 H 0.6695 0.1357 0.4188
H17 H 0.4667 0.1035 0.4643
H18 H 0.4594 0.1991 0.3921
H19 H 0.5223 -0.1796 0.2648
H20 H 0.2560 -0.2360 0.4823
H21 H 0.3226 -0.1952 0.3576
H22 H 0.2316 -0.0147 0.3608
H23 H 0.5969 -0.1357 0.4142
H24 H 0.5494 0.0605 0.2909
H25 H 0.7593 0.0152 0.3204
O1A O -0.3601(12) -0.0265(10) 0.8194(4)
O2A O -1.0392(11) 0.0699(10) 0.9137(4)
O3A O -0.9816(14) 0.1922(12) 0.7861(4)
H1A H -1.07(3) 0.15(2) 0.834(8)
O4A O -0.3425(14) -0.6337(11) 1.1906(4)
H2A H -0.2252 -0.6502 1.2011
N1A N -0.7509(12) -0.0786(10) 0.9522(4)
H3A H -0.8046 -0.1178 0.9910
C1A C -0.5445(14) -0.1069(11) 0.9273(5)
C2A C -0.1815(17) -0.4810(13) 1.0937(5)
H4A H -0.0531 -0.5273 1.1030
C3A C -0.7268(17) 0.0542(13) 0.8429(5)
C4A C -0.7829(17) 0.1324(16) 0.7865(5)
C5A C -0.5424(16) -0.4524(14) 1.1204(5)
H5A H -0.6593 -0.4778 1.1482
C6A C -0.5179(15) -0.0276(12) 0.8572(5)
C7A C -0.3908(15) -0.3020(11) 1.0199(5)
C8A C -0.1994(17) -0.3686(14) 1.0374(5)
H6A H -0.0828 -0.3369 1.0109
C9A C -0.8540(17) 0.0223(12) 0.9040(5)
C10A C -0.3923(16) -0.1988(13) 0.9564(5)
H7A H -0.2662 -0.1952 0.9313
C11A C -0.3472(18) -0.5256(12) 1.1358(5)
C12A C -0.5530(16) -0.3434(13) 1.0633(6)
H8A H -0.6803 -0.2949 1.0539
C13A C -0.658(2) 0.1678(17) 0.7213(6)
C14A C -0.627(7) 0.024(6) 0.683(2)
C15A C -0.519(5) 0.049(5) 0.6122(17)
C16A C -0.312(5) 0.102(5) 0.6160(16)
C17A C -0.205(5) 0.150(4) 0.5465(18)
C18A C -0.530(6) -0.113(4) 0.5813(17)
C19A C -0.026(5) 0.057(4) 0.5279(16)
C20A C -0.079(6) -0.121(3) 0.5469(17)
C21A C -0.714(9) 0.328(11) 0.687(4)
H9A H -0.7252 0.4079 0.7193
H10A H -0.6108 0.3560 0.6514
H11A H -0.8418 0.3259 0.6688
H12A H -0.1949 -0.1510 0.5270
H13A H -0.1043 -0.1344 0.5954
H14A H 0.0386 -0.1905 0.5333
H15A H 0.0976 0.0949 0.5085
H16A H -0.6695 -0.1357 0.5812
H17A H -0.4667 -0.1035 0.5357
H18A H -0.4594 -0.1991 0.6079
H19A H -0.5223 0.1796 0.7352
H20A H -0.2560 0.2360 0.5177
H21A H -0.3226 0.1952 0.6424
H22A H -0.2316 0.0147 0.6392
H23A H -0.5969 0.1357 0.5858
H24A H -0.5494 -0.0605 0.7091
H25A H -0.7593 -0.0152 0.6796
O5 O 0.0477(16) 0.2538(14) 0.2083(5)
H26 H 0.1132 0.1680 0.2008
C22 C 0.117(3) 0.314(3) 0.2647(9)
H27 H 0.2405 0.3675 0.2507
H28 H 0.1436 0.2256 0.2987
H29 H 0.0155 0.3911 0.2830
H30? H 0.5152 -0.1408 0.2699
C23? C 0.673(9) -0.334(9) 0.308(3)
C24? C 0.542(5) -0.379(3) 0.3764(16)
C25? C 0.315(5) -0.336(4) 0.3704(13)
H31? H 0.2942 -0.2276 0.3474
H32? H 0.2624 -0.4127 0.3439
C26? C 0.202(5) -0.344(4) 0.4398(14)
H33? H 0.2625 -0.2995 0.4730
C27? C 0.710(6) -0.051(5) 0.3266(19)
C28? C 0.024(5) -0.408(3) 0.4592(15)
C29? C 0.039(6) -0.587(3) 0.4644(16)
C30? C 0.563(6) -0.568(3) 0.3966(15)
H34? H 0.8144 -0.3642 0.3153
H35? H 0.6360 -0.4023 0.2752
H36? H 0.5875 -0.3220 0.4122
H37? H -0.0973 -0.3455 0.4684
H38? H 0.4366 -0.6138 0.3920
H39? H 0.5951 -0.5897 0.4428
H40? H 0.6694 -0.6176 0.3675
H41? H 0.6211 -0.0628 0.3678
H42? H 0.6921 0.0592 0.3057
H43? H 0.8484 -0.0740 0.3368
H44? H -0.1604 -0.3716 0.5150
H45? H 0.0442 -0.6227 0.4199
H46? H -0.0777 -0.6275 0.4916
loop_
_geom_bond_atom_site_label_1
_geom_bond_atom_site_label_2
_geom_bond_site_symmetry_1
_geom_bond_site_symmetry_2
O1 C6 1_555 1_555
O2 C9 1_555 1_555
O3 H1 1_555 1_555
O4 H2 1_555 1_555
N1 H3 1_555 1_555
C1 N1 1_555 1_555
C2 H4 1_555 1_555
C3 C4 1_555 1_555
C4 O3 1_555 1_555
C5 H5 1_555 1_555
C6 C1 1_555 1_555
C7 C8 1_555 1_555
C8 C2 1_555 1_555
H6 C8 1_555 1_555
C9 N1 1_555 1_555
C10 C1 1_555 1_555
H7 C10 1_555 1_555
C11 O4 1_555 1_555
C12 C5 1_555 1_555
H8 C12 1_555 1_555
C13 C4 1_555 1_555
C14 C13 1_555 1_555
C15 C14 1_555 1_555
C16 C15 1_555 1_555
C17 C16 1_555 1_555
C18 C15 1_555 1_555
C19 C17 1_555 1_555
C20 C19 1_555 1_555
C21 C13 1_555 1_555
H9 C21 1_555 1_555
H10 C21 1_555 1_555
H11 C21 1_555 1_555
H12 C20 1_555 1_555
H13 C20 1_555 1_555
H14 C20 1_555 1_555
H15 C19 1_555 1_555
H16 C18 1_555 1_555
H17 C18 1_555 1_555
H18 C18 1_555 1_555
H19 C13 1_555 1_555
H20 C17 1_555 1_555
H21 C16 1_555 1_555
H22 C16 1_555 1_555
H23 C15 1_555 1_555
H24 C14 1_555 1_555
H25 C14 1_555 1_555
O5 H26 1_555 1_555
C22 O5 1_555 1_555
H27 C22 1_555 1_555
H28 C22 1_555 1_555
H29 C22 1_555 1_555
O1A C6A 1_555 1_555
O2A C9A 1_555 1_555
O3A H1A 1_555 1_555
O4A H2A 1_555 1_555
N1A H3A 1_555 1_555
C1A N1A 1_555 1_555
C2A H4A 1_555 1_555
C3A C4A 1_555 1_555
C4A O3A 1_555 1_555
C5A H5A 1_555 1_555
C6A C1A 1_555 1_555
C7A C8A 1_555 1_555
C8A C2A 1_555 1_555
H6A C8A 1_555 1_555
C9A N1A 1_555 1_555
C10A C1A 1_555 1_555
H7A C10A 1_555 1_555
C11A O4A 1_555 1_555
C12A C5A 1_555 1_555
H8A C12A 1_555 1_555
C13A C4A 1_555 1_555
C14A C13A 1_555 1_555
C15A C14A 1_555 1_555
C16A C15A 1_555 1_555
C17A C16A 1_555 1_555
C18A C15A 1_555 1_555
C19A C17A 1_555 1_555
C20A C19A 1_555 1_555
C21A C13A 1_555 1_555
H9A C21A 1_555 1_555
H10A C21A 1_555 1_555
H11A C21A 1_555 1_555
H12A C20A 1_555 1_555
H13A C20A 1_555 1_555
H14A C20A 1_555 1_555
H15A C19A 1_555 1_555
H16A C18A 1_555 1_555
H17A C18A 1_555 1_555
H18A C18A 1_555 1_555
H19A C13A 1_555 1_555
H20A C17A 1_555 1_555
H21A C16A 1_555 1_555
H22A C16A 1_555 1_555
H23A C15A 1_555 1_555
H24A C14A 1_555 1_555
H25A C14A 1_555 1_555
C2 C11 1_555 1_555
C3 C6 1_555 1_555
C3 C9 1_555 1_555
C5 C11 1_555 1_555
C7 C10 1_555 1_555
C7 C12 1_555 1_555
C2A C11A 1_555 1_555
C3A C6A 1_555 1_555
C3A C9A 1_555 1_555
C5A C11A 1_555 1_555
C7A C10A 1_555 1_555
C7A C12A 1_555 1_555

#END
