
#######################################################################
#
#                 Cambridge Crystallographic Data Centre
#                                CCDC 
#
#######################################################################
#
# If this CIF has been generated from an entry in the Cambridge 
# Structural Database, then it will include bibliographic, chemical, 
# crystal, experimental, refinement or atomic coordinate data resulting 
# from the CCDC's data processing and validation procedures.
#
#######################################################################

data_QUWCIW
_chemical_compound_source        'Mesua lepidota'
_chemical_formula_moiety         'C29 H32 O5'
_chemical_name_systematic        
8-(1-hydroxy-2-methylpropylidene)-6,6-bis(3-methylbut-2-en-1-yl)-4-phenyl-2H-chromene-2,5,7(6H,8H)-trione
_chemical_properties_biological  'anti-inflammatory activity'
_symmetry_cell_setting           orthorhombic
_symmetry_space_group_name_H-M   'P b c a'
_symmetry_Int_Tables_number      61
_space_group_name_Hall           '-P 2ac 2ab'
loop_
_symmetry_equiv_pos_site_id
_symmetry_equiv_pos_as_xyz
1 x,y,z
2 1/2-x,-y,1/2+z
3 1/2+x,1/2-y,-z
4 -x,1/2+y,1/2-z
5 -x,-y,-z
6 1/2+x,y,1/2-z
7 1/2-x,1/2+y,z
8 x,1/2-y,1/2+z
_cell_length_a                   24.274(2)
_cell_length_b                   16.262(1)
_cell_length_c                   12.626(2)
_cell_angle_alpha                90
_cell_angle_beta                 90
_cell_angle_gamma                90
_cell_volume                     4984.04
_exptl_crystal_colour            colorless
_exptl_crystal_description       prism
_cell_formula_units_Z            8
loop_
_atom_site_label
_atom_site_type_symbol
_atom_site_fract_x
_atom_site_fract_y
_atom_site_fract_z
C1 C 0.22006(10) 0.53207(17) 0.6830(2)
C2 C 0.23369(10) 0.59061(16) 0.7615(2)
H1 H 0.264 0.5803 0.8045
C3 C 0.20480(9) 0.66135(15) 0.77736(19)
C4 C 0.15624(8) 0.67675(14) 0.71210(18)
C5 C 0.14353(9) 0.62130(14) 0.63405(19)
C6 C 0.22631(8) 0.72122(15) 0.85614(19)
C7 C 0.24413(9) 0.69329(18) 0.9547(2)
H2 H 0.2401 0.6381 0.9724
C8 C 0.26777(9) 0.7473(2) 1.0266(2)
H3 H 0.2789 0.7284 1.0927
C9 C 0.27486(10) 0.8284(2) 1.0005(2)
H4 H 0.2912 0.8642 1.0486
C10 C 0.25766(10) 0.85719(18) 0.9024(2)
H5 H 0.2624 0.9123 0.8849
C11 C 0.23352(9) 0.80374(16) 0.8307(2)
H6 H 0.222 0.8232 0.765
C12 C 0.11665(8) 0.74357(15) 0.7333(2)
C13 C 0.07701(8) 0.76718(13) 0.64449(18)
C14 C 0.06019(9) 0.69448(14) 0.57762(18)
C15 C 0.09647(9) 0.62576(14) 0.56376(19)
C16 C 0.08437(9) 0.56940(14) 0.4811(2)
C17 C 0.12047(10) 0.50088(16) 0.4396(2)
H7 H 0.1589 0.5161 0.4527
C18 C 0.11306(14) 0.4904(3) 0.3199(3)
H8 H 0.0756 0.4756 0.3049
H9 H 0.1372 0.4479 0.2949
H10 H 0.1218 0.5412 0.2848
C19 C 0.10839(12) 0.42165(17) 0.5021(4)
H11 H 0.109 0.4334 0.5766
H12 H 0.1359 0.3811 0.486
H13 H 0.0727 0.401 0.4827
C20 C 0.02655(8) 0.81486(14) 0.68642(19)
H14 H 0.0393 0.8646 0.721
H15 H 0.0039 0.8312 0.6267
C21 C -0.00833(9) 0.76776(15) 0.76240(19)
H16 H 0.0104 0.742 0.8173
C22 C -0.06250(9) 0.75774(15) 0.7621(2)
C23 C -0.09061(11) 0.71142(17) 0.8500(2)
H17 H -0.0634 0.691 0.8986
H18 H -0.1109 0.6661 0.8208
H19 H -0.1154 0.7476 0.8867
C24 C -0.10020(11) 0.7913(2) 0.6795(3)
H20 H -0.1211 0.8361 0.7086
H21 H -0.1249 0.7489 0.6562
H22 H -0.0789 0.8106 0.6204
C25 C 0.11271(9) 0.82409(15) 0.57014(19)
H23 H 0.1292 0.8671 0.6129
H24 H 0.1424 0.7916 0.5403
C26 C 0.08147(10) 0.86321(15) 0.48166(19)
H25 H 0.0577 0.8286 0.4449
C27 C 0.08280(10) 0.93976(16) 0.4485(2)
C28 C 0.04937(14) 0.96815(18) 0.3555(2)
H26 H 0.0296 0.9224 0.3262
H27 H 0.0734 0.9907 0.3026
H28 H 0.0237 1.0095 0.3781
C29 C 0.11920(19) 1.0039(2) 0.4964(3)
H29 H 0.0969 1.0448 0.5307
H30 H 0.1409 1.0293 0.4419
H31 H 0.1432 0.9788 0.5475
O1 O 0.17407(6) 0.55198(10) 0.62070(13)
O2 O 0.24313(8) 0.46856(12) 0.66037(17)
O3 O 0.11641(6) 0.78186(10) 0.81681(14)
O4 O 0.03781(7) 0.57580(11) 0.43131(14)
O5 O 0.01472(6) 0.69913(10) 0.52894(13)
H32 H 0.0196(12) 0.631(2) 0.465(3)
loop_
_geom_bond_atom_site_label_1
_geom_bond_atom_site_label_2
_geom_bond_site_symmetry_1
_geom_bond_site_symmetry_2
C1 C2 1_555 1_555
C2 H1 1_555 1_555
C3 C2 1_555 1_555
C4 C3 1_555 1_555
C5 C4 1_555 1_555
C6 C3 1_555 1_555
C7 C6 1_555 1_555
H2 C7 1_555 1_555
C8 C7 1_555 1_555
H3 C8 1_555 1_555
C9 C8 1_555 1_555
H4 C9 1_555 1_555
C10 C9 1_555 1_555
H5 C10 1_555 1_555
C11 C6 1_555 1_555
H6 C11 1_555 1_555
C12 C4 1_555 1_555
C13 C12 1_555 1_555
C14 C13 1_555 1_555
C15 C5 1_555 1_555
C16 C15 1_555 1_555
C17 C16 1_555 1_555
H7 C17 1_555 1_555
C18 C17 1_555 1_555
H8 C18 1_555 1_555
H9 C18 1_555 1_555
H10 C18 1_555 1_555
C19 C17 1_555 1_555
H11 C19 1_555 1_555
H12 C19 1_555 1_555
H13 C19 1_555 1_555
C20 C13 1_555 1_555
H14 C20 1_555 1_555
H15 C20 1_555 1_555
C21 C20 1_555 1_555
H16 C21 1_555 1_555
C22 C21 1_555 1_555
C23 C22 1_555 1_555
H17 C23 1_555 1_555
H18 C23 1_555 1_555
H19 C23 1_555 1_555
C24 C22 1_555 1_555
H20 C24 1_555 1_555
H21 C24 1_555 1_555
H22 C24 1_555 1_555
C25 C13 1_555 1_555
H23 C25 1_555 1_555
H24 C25 1_555 1_555
C26 C25 1_555 1_555
H25 C26 1_555 1_555
C27 C26 1_555 1_555
C28 C27 1_555 1_555
H26 C28 1_555 1_555
H27 C28 1_555 1_555
H28 C28 1_555 1_555
C29 C27 1_555 1_555
H29 C29 1_555 1_555
H30 C29 1_555 1_555
H31 C29 1_555 1_555
O1 C1 1_555 1_555
O2 C1 1_555 1_555
O3 C12 1_555 1_555
O4 C16 1_555 1_555
O5 C14 1_555 1_555
H32 O4 1_555 1_555
C5 O1 1_555 1_555
C10 C11 1_555 1_555
C14 C15 1_555 1_555

#END
