
#######################################################################
#
#                 Cambridge Crystallographic Data Centre
#                                CCDC 
#
#######################################################################
#
# If this CIF has been generated from an entry in the Cambridge 
# Structural Database, then it will include bibliographic, chemical, 
# crystal, experimental, refinement or atomic coordinate data resulting 
# from the CCDC's data processing and validation procedures.
#
#######################################################################

data_QUWDET
_chemical_compound_source        'Myrtus communis'
_chemical_formula_moiety         'C48 H55 F3 O10'
_chemical_name_systematic        
'(S)-(12R,14R)-6-isobutyryl-12,14-diisopropyl-2,2,4,4,8,8,10,10-octamethyl-1,3,9,11-tetraoxo-2,3,4,8,10,11,12,14-octahydro-1H,9H-chromeno[3,2-b]xanthen-13-yl 3,3,3-trifluoro-2-methoxy-2-phenylpropanoate unknown solvate'
_symmetry_cell_setting           monoclinic
_symmetry_space_group_name_H-M   'P 21'
_symmetry_Int_Tables_number      4
_space_group_name_Hall           'P 2yb'
loop_
_symmetry_equiv_pos_site_id
_symmetry_equiv_pos_as_xyz
1 x,y,z
2 -x,1/2+y,-z
_cell_length_a                   6.4479(10)
_cell_length_b                   40.961(5)
_cell_length_c                   17.888(3)
_cell_angle_alpha                90
_cell_angle_beta                 91.687(8)
_cell_angle_gamma                90
_cell_volume                     4722.4
_exptl_crystal_colour            colorless
_exptl_crystal_description       block
_cell_formula_units_Z            4
loop_
_atom_site_label
_atom_site_type_symbol
_atom_site_fract_x
_atom_site_fract_y
_atom_site_fract_z
O1 O 0.3102(7) 0.64395(9) 0.6678(2)
O2 O 0.4179(9) 0.64158(11) 0.9273(3)
O3 O 0.5526(9) 0.73814(10) 0.7950(3)
O4 O 0.4409(7) 0.62684(9) 0.4154(2)
O5 O 0.4367(11) 0.59912(12) 0.1623(3)
O6 O 0.4246(8) 0.71036(10) 0.2359(2)
O7 O 0.4324(9) 0.58226(10) 0.5783(3)
O8 O 0.4923(7) 0.73643(8) 0.5155(2)
O9 O 0.1722(8) 0.74438(10) 0.4660(2)
O10 O 0.2644(9) 0.80728(10) 0.4283(3)
C1 C 0.3690(10) 0.63676(13) 0.5413(3)
C2 C 0.3624(10) 0.65839(13) 0.6003(3)
C3 C 0.3903(10) 0.69147(13) 0.5936(3)
C4 C 0.4462(10) 0.70246(13) 0.5240(3)
C5 C 0.4714(11) 0.68271(13) 0.4619(4)
C6 C 0.4290(10) 0.65010(13) 0.4730(3)
C7 C 0.3544(10) 0.71312(13) 0.6619(3)
H1 H 0.4551 0.7317 0.6605
C8 C 0.4043(10) 0.69313(14) 0.7315(3)
C9 C 0.3782(10) 0.66062(13) 0.7303(3)
C10 C 0.4102(11) 0.63724(14) 0.7951(3)
C11 C 0.4550(11) 0.65547(16) 0.8672(4)
C12 C 0.5541(11) 0.68899(14) 0.8683(3)
C13 C 0.5014(12) 0.70859(15) 0.7964(4)
C14 C 0.5469(11) 0.69422(15) 0.3879(3)
H2 H 0.4789 0.7156 0.3761
C15 C 0.4810(11) 0.67002(14) 0.3272(3)
C16 C 0.4431(10) 0.63922(15) 0.3430(3)
C17 C 0.3855(12) 0.61144(14) 0.2901(4)
C18 C 0.4260(11) 0.62101(16) 0.2097(4)
C19 C 0.4465(11) 0.65651(14) 0.1855(4)
C20 C 0.4486(11) 0.68135(15) 0.2497(3)
C21 C 0.3153(11) 0.60145(14) 0.5484(3)
C22 C 0.1028(13) 0.59143(16) 0.5211(5)
H3 H 0.0748 0.6031 0.4728
C23 C -0.0515(13) 0.60343(17) 0.5746(4)
H4 H -0.0231 0.5937 0.6239
H5 H -0.1913 0.5973 0.5568
H6 H -0.0421 0.6273 0.5784
C24 C 0.0872(15) 0.55449(16) 0.5044(5)
H7 H 0.1950 0.5483 0.4696
H8 H -0.0497 0.5496 0.4819
H9 H 0.1065 0.5422 0.5510
C25 C 0.1331(11) 0.72762(14) 0.6596(3)
H10 H 0.1223 0.7425 0.6153
C26 C 0.0883(13) 0.74814(17) 0.7289(4)
H11 H -0.0549 0.7562 0.7255
H12 H 0.1840 0.7667 0.7316
H13 H 0.1071 0.7347 0.7739
C27 C -0.0374(11) 0.70197(17) 0.6502(4)
H14 H -0.0330 0.6925 0.6000
H15 H -0.1729 0.7122 0.6570
H16 H -0.0158 0.6847 0.6876
C28 C 0.6005(13) 0.61529(16) 0.7776(4)
H17 H 0.7211 0.6291 0.7684
H18 H 0.5684 0.6020 0.7331
H19 H 0.6314 0.6009 0.8203
C29 C 0.2209(13) 0.61494(16) 0.8014(4)
H20 H 0.2398 0.6007 0.8451
H21 H 0.2054 0.6016 0.7562
H22 H 0.0962 0.6283 0.8071
C30 C 0.4789(14) 0.70829(16) 0.9371(4)
H23 H 0.5257 0.6972 0.9831
H24 H 0.3271 0.7095 0.9352
H25 H 0.5366 0.7304 0.9363
C31 C 0.7865(12) 0.68505(17) 0.8720(4)
H26 H 0.8248 0.6688 0.9103
H27 H 0.8513 0.7060 0.8849
H28 H 0.8345 0.6777 0.8233
C32 C 0.7845(11) 0.69991(14) 0.3942(3)
H29 H 0.8108 0.7171 0.4331
C33 C 0.8987(13) 0.66898(17) 0.4198(4)
H30 H 0.8505 0.6624 0.4691
H31 H 1.0483 0.6733 0.4231
H32 H 0.8706 0.6514 0.3838
C34 C 0.8756(12) 0.71242(17) 0.3195(4)
H33 H 0.8512 0.6961 0.2802
H34 H 1.0251 0.7161 0.3266
H35 H 0.8077 0.7330 0.3049
C35 C 0.5009(16) 0.58019(16) 0.3100(4)
H36 H 0.6505 0.5845 0.3121
H37 H 0.4695 0.5636 0.2719
H38 H 0.4571 0.5723 0.3588
C36 C 0.1499(13) 0.60489(19) 0.2929(4)
H39 H 0.1148 0.5981 0.3435
H40 H 0.1117 0.5875 0.2574
H41 H 0.0737 0.6249 0.2796
C37 C 0.6557(13) 0.65974(18) 0.1474(4)
H42 H 0.6626 0.6439 0.1065
H43 H 0.7686 0.6555 0.1840
H44 H 0.6696 0.6819 0.1273
C38 C 0.2712(13) 0.66437(17) 0.1284(4)
H45 H 0.2859 0.6507 0.0840
H46 H 0.2788 0.6874 0.1142
H47 H 0.1370 0.6600 0.1507
C39 C 0.3378(11) 0.75568(14) 0.4841(4)
C40 C 0.4028(12) 0.79148(15) 0.4781(4)
C41 C 0.6208(14) 0.79529(16) 0.4497(5)
F1 F 0.7731(8) 0.78654(10) 0.4985(3)
F2 F 0.6598(9) 0.82662(9) 0.4331(3)
F3 F 0.6493(8) 0.77777(9) 0.3877(2)
C42 C 0.3793(13) 0.80717(15) 0.5556(4)
C43 C 0.2104(14) 0.82850(16) 0.5647(4)
H48 H 0.1172 0.8326 0.5236
C44 C 0.1797(19) 0.8430(2) 0.6296(5)
H49 H 0.0692 0.8581 0.6348
C45 C 0.314(2) 0.8355(2) 0.6914(5)
H50 H 0.2932 0.8460 0.7379
C46 C 0.4727(18) 0.8138(2) 0.6855(5)
H51 H 0.5586 0.8082 0.7276
C47 C 0.5040(15) 0.80011(18) 0.6155(5)
H52 H 0.6162 0.7854 0.6096
C48 C 0.2397(18) 0.79613(18) 0.3508(4)
H53 H 0.3428 0.8069 0.3201
H54 H 0.1000 0.8016 0.3316
H55 H 0.2596 0.7724 0.3488
O11 O -0.0570(8) 0.85931(9) -0.0395(2)
O12 O 0.0002(9) 0.74542(10) -0.0271(3)
O13 O 0.0740(10) 0.80871(10) 0.1911(3)
O14 O 0.1189(7) 0.96930(9) -0.0752(2)
O15 O 0.0919(9) 1.08108(10) -0.1350(3)
O16 O 0.0835(11) 1.04859(11) 0.1143(3)
O17 O 0.1723(15) 0.8955(3) -0.1645(6)
O18 O 0.0155(9) 0.93088(10) 0.1755(3)
O19 O 0.3146(10) 0.90761(12) 0.2071(3)
O20 O 0.2494(11) 0.91512(12) 0.3512(3)
C49 C 0.0273(11) 0.91416(14) -0.0552(3)
C50 C -0.0154(11) 0.88981(13) -0.0063(4)
C51 C -0.0186(10) 0.89337(13) 0.0709(3)
C52 C 0.0408(10) 0.92412(14) 0.0976(3)
C53 C 0.0932(11) 0.95050(14) 0.0517(4)
C54 C 0.0829(11) 0.94415(14) -0.0247(4)
C55 C -0.0833(10) 0.86556(13) 0.1195(4)
H56 H -0.0009 0.8664 0.1677
C56 C -0.0287(10) 0.83386(13) 0.0778(3)
C57 C -0.0294(11) 0.83222(13) 0.0036(4)
C58 C 0.0067(11) 0.80266(13) -0.0438(4)
C59 C 0.0232(11) 0.77178(14) 0.0043(4)
C60 C 0.0848(11) 0.77239(13) 0.0867(4)
C61 C 0.0435(12) 0.80589(14) 0.1242(4)
C62 C 0.1779(10) 0.98259(14) 0.0808(4)
H57 H 0.1041 0.9880 0.1276
C63 C 0.1244(11) 1.00859(14) 0.0239(4)
C64 C 0.1136(11) 1.00128(14) -0.0499(4)
C65 C 0.0895(12) 1.02378(14) -0.1149(4)
C66 C 0.0734(11) 1.05958(15) -0.0881(4)
C67 C 0.0190(13) 1.06741(14) -0.0088(4)
C68 C 0.0843(12) 1.04223(14) 0.0475(4)
C69 C 0.0115(15) 0.90830(16) -0.1402(4)
C70 C -0.210(2) 0.9054(3) -0.1728(7)
H58 H -0.2785 0.8893 -0.1396
C71 C -0.213(3) 0.8891(3) -0.2488(7)
H59 H -0.1274 0.8693 -0.2463
H60 H -0.1567 0.9041 -0.2858
H61 H -0.3555 0.8832 -0.2636
C72 C -0.344(2) 0.9330(3) -0.1724(7)
H62 H -0.4399 0.9145 -0.1711
H63 H -0.3969 0.9493 -0.2080
H64 H -0.3299 0.9427 -0.1225
C73 C -0.3152(11) 0.86716(15) 0.1365(4)
H65 H -0.3384 0.8884 0.1624
C74 C -0.3831(14) 0.84004(17) 0.1905(4)
H66 H -0.5298 0.8430 0.2017
H67 H -0.2989 0.8412 0.2369
H68 H -0.3639 0.8187 0.1670
C75 C -0.4564(12) 0.86704(17) 0.0664(4)
H69 H -0.4396 0.8464 0.0395
H70 H -0.4190 0.8852 0.0339
H71 H -0.6011 0.8694 0.0807
C76 C 0.2104(12) 0.80687(17) -0.0867(4)
H72 H 0.2056 0.8275 -0.1146
H73 H 0.2257 0.7886 -0.1216
H74 H 0.3287 0.8072 -0.0510
C77 C -0.1786(12) 0.79947(16) -0.1011(4)
H75 H -0.3057 0.7947 -0.0744
H76 H -0.1510 0.7817 -0.1361
H77 H -0.1957 0.8200 -0.1287
C78 C -0.0431(13) 0.74697(16) 0.1260(5)
H78 H -0.0125 0.7253 0.1058
H79 H -0.1909 0.7518 0.1179
H80 H -0.0086 0.7473 0.1797
C79 C 0.3141(12) 0.76509(16) 0.0944(4)
H81 H 0.3393 0.7423 0.0803
H82 H 0.3613 0.7685 0.1464
H83 H 0.3906 0.7796 0.0616
C80 C 0.4142(11) 0.97951(17) 0.1015(4)
H84 H 0.4309 0.9613 0.1385
C81 C 0.5033(14) 1.01048(19) 0.1382(4)
H85 H 0.6520 1.0075 0.1490
H86 H 0.4323 1.0147 0.1850
H87 H 0.4825 1.0290 0.1042
C82 C 0.5380(12) 0.97071(19) 0.0339(5)
H88 H 0.5248 0.9882 -0.0034
H89 H 0.4851 0.9502 0.0123
H90 H 0.6844 0.9680 0.0490
C83 C -0.1020(14) 1.01558(17) -0.1649(4)
H91 H -0.0870 0.9936 -0.1856
H92 H -0.1142 1.0314 -0.2058
H93 H -0.2269 1.0165 -0.1350
C84 C 0.2826(15) 1.02144(19) -0.1617(5)
H94 H 0.4039 1.0287 -0.1319
H95 H 0.2655 1.0354 -0.2061
H96 H 0.3027 0.9988 -0.1774
C85 C -0.2276(13) 1.06752(18) -0.0098(5)
H97 H -0.2801 1.0807 -0.0521
H98 H -0.2757 1.0769 0.0370
H99 H -0.2789 1.0451 -0.0151
C86 C 0.0950(14) 1.10125(15) 0.0141(4)
H100 H 0.2458 1.1024 0.0093
H101 H 0.0597 1.1054 0.0662
H102 H 0.0284 1.1177 -0.0184
C87 C 0.1561(14) 0.92154(16) 0.2228(4)
C88 C 0.1054(14) 0.93159(15) 0.3041(4)
C89 C -0.1118(18) 0.9205(2) 0.3238(5)
C90 C 0.1570(12) 0.96815(15) 0.3124(4)
C91 C 0.3352(13) 0.97669(17) 0.3535(5)
H103 H 0.4177 0.9604 0.3779
C92 C 0.3906(16) 1.0097(2) 0.3583(5)
H104 H 0.5177 1.0158 0.3825
C93 C 0.2624(17) 1.03294(19) 0.3282(5)
H105 H 0.2964 1.0554 0.3342
C94 C 0.0853(17) 1.02417(18) 0.2896(4)
H106 H -0.0013 1.0406 0.2679
C95 C 0.0313(14) 0.99208(16) 0.2819(4)
H107 H -0.0932 0.9863 0.2555
C96 C 0.251(2) 0.8790(2) 0.3525(6)
H108 H 0.1590 0.8712 0.3914
H109 H 0.3923 0.8712 0.3632
H110 H 0.2020 0.8707 0.3037
F4 F -0.1410(13) 0.92693(16) 0.3968(3)
F5 F -0.1571(11) 0.89046(12) 0.3095(3)
F6 F -0.2641(10) 0.93835(14) 0.2863(3)
O21? O 0.1510(17) 0.9146(3) -0.1811(6)
C97? C -0.148(4) 0.9220(11) -0.1948(10)
H111? H -0.2040 0.8997 -0.2065
C98? C -0.050(6) 0.9243(9) -0.2699(14)
H112? H -0.0918 0.9056 -0.3007
H113? H 0.1018 0.9245 -0.2631
H114? H -0.0946 0.9445 -0.2949
loop_
_geom_bond_atom_site_label_1
_geom_bond_atom_site_label_2
_geom_bond_site_symmetry_1
_geom_bond_site_symmetry_2
O1 C2 1_555 1_555
O2 C11 1_555 1_555
O3 C13 1_555 1_555
O4 C6 1_555 1_555
O5 C18 1_555 1_555
O6 C20 1_555 1_555
O7 C21 1_555 1_555
O8 C4 1_555 1_555
O9 C39 1_555 1_555
O10 C40 1_555 1_555
C1 C2 1_555 1_555
C2 C3 1_555 1_555
C3 C4 1_555 1_555
C4 C5 1_555 1_555
C5 C6 1_555 1_555
C6 C1 1_555 1_555
C7 C3 1_555 1_555
H1 C7 1_555 1_555
C8 C7 1_555 1_555
C9 O1 1_555 1_555
C10 C9 1_555 1_555
C11 C10 1_555 1_555
C12 C11 1_555 1_555
C13 C8 1_555 1_555
C14 C5 1_555 1_555
H2 C14 1_555 1_555
C15 C14 1_555 1_555
C16 O4 1_555 1_555
C17 C16 1_555 1_555
C18 C17 1_555 1_555
C19 C18 1_555 1_555
C20 C15 1_555 1_555
C21 C1 1_555 1_555
C22 C21 1_555 1_555
H3 C22 1_555 1_555
C23 C22 1_555 1_555
H4 C23 1_555 1_555
H5 C23 1_555 1_555
H6 C23 1_555 1_555
C24 C22 1_555 1_555
H7 C24 1_555 1_555
H8 C24 1_555 1_555
H9 C24 1_555 1_555
C25 C7 1_555 1_555
H10 C25 1_555 1_555
C26 C25 1_555 1_555
H11 C26 1_555 1_555
H12 C26 1_555 1_555
H13 C26 1_555 1_555
C27 C25 1_555 1_555
H14 C27 1_555 1_555
H15 C27 1_555 1_555
H16 C27 1_555 1_555
C28 C10 1_555 1_555
H17 C28 1_555 1_555
H18 C28 1_555 1_555
H19 C28 1_555 1_555
C29 C10 1_555 1_555
H20 C29 1_555 1_555
H21 C29 1_555 1_555
H22 C29 1_555 1_555
C30 C12 1_555 1_555
H23 C30 1_555 1_555
H24 C30 1_555 1_555
H25 C30 1_555 1_555
C31 C12 1_555 1_555
H26 C31 1_555 1_555
H27 C31 1_555 1_555
H28 C31 1_555 1_555
C32 C14 1_555 1_555
H29 C32 1_555 1_555
C33 C32 1_555 1_555
H30 C33 1_555 1_555
H31 C33 1_555 1_555
H32 C33 1_555 1_555
C34 C32 1_555 1_555
H33 C34 1_555 1_555
H34 C34 1_555 1_555
H35 C34 1_555 1_555
C35 C17 1_555 1_555
H36 C35 1_555 1_555
H37 C35 1_555 1_555
H38 C35 1_555 1_555
C36 C17 1_555 1_555
H39 C36 1_555 1_555
H40 C36 1_555 1_555
H41 C36 1_555 1_555
C37 C19 1_555 1_555
H42 C37 1_555 1_555
H43 C37 1_555 1_555
H44 C37 1_555 1_555
C38 C19 1_555 1_555
H45 C38 1_555 1_555
H46 C38 1_555 1_555
H47 C38 1_555 1_555
C39 O8 1_555 1_555
C40 C39 1_555 1_555
C41 C40 1_555 1_555
F1 C41 1_555 1_555
F2 C41 1_555 1_555
F3 C41 1_555 1_555
C42 C40 1_555 1_555
C43 C42 1_555 1_555
H48 C43 1_555 1_555
C44 C43 1_555 1_555
H49 C44 1_555 1_555
C45 C44 1_555 1_555
H50 C45 1_555 1_555
C46 C45 1_555 1_555
H51 C46 1_555 1_555
C47 C42 1_555 1_555
H52 C47 1_555 1_555
C48 O10 1_555 1_555
H53 C48 1_555 1_555
H54 C48 1_555 1_555
H55 C48 1_555 1_555
O11 C50 1_555 1_555
O12 C59 1_555 1_555
O13 C61 1_555 1_555
O14 C54 1_555 1_555
O15 C66 1_555 1_555
O16 C68 1_555 1_555
O17 C69 1_555 1_555
O18 C52 1_555 1_555
O19 C87 1_555 1_555
O20 C88 1_555 1_555
C49 C50 1_555 1_555
C50 C51 1_555 1_555
C51 C52 1_555 1_555
C52 C53 1_555 1_555
C53 C54 1_555 1_555
C54 C49 1_555 1_555
C55 C51 1_555 1_555
H56 C55 1_555 1_555
C56 C55 1_555 1_555
C57 O11 1_555 1_555
C58 C57 1_555 1_555
C59 C58 1_555 1_555
C60 C59 1_555 1_555
C61 C56 1_555 1_555
C62 C53 1_555 1_555
H57 C62 1_555 1_555
C63 C62 1_555 1_555
C64 O14 1_555 1_555
C65 C64 1_555 1_555
C66 C65 1_555 1_555
C67 C66 1_555 1_555
C68 C63 1_555 1_555
C69 C49 1_555 1_555
C70 C69 1_555 1_555
H58 C70 1_555 1_555
C71 C70 1_555 1_555
H59 C71 1_555 1_555
H60 C71 1_555 1_555
H61 C71 1_555 1_555
C72 C70 1_555 1_555
H62 C72 1_555 1_555
H63 C72 1_555 1_555
H64 C72 1_555 1_555
C73 C55 1_555 1_555
H65 C73 1_555 1_555
C74 C73 1_555 1_555
H66 C74 1_555 1_555
H67 C74 1_555 1_555
H68 C74 1_555 1_555
C75 C73 1_555 1_555
H69 C75 1_555 1_555
H70 C75 1_555 1_555
H71 C75 1_555 1_555
C76 C58 1_555 1_555
H72 C76 1_555 1_555
H73 C76 1_555 1_555
H74 C76 1_555 1_555
C77 C58 1_555 1_555
H75 C77 1_555 1_555
H76 C77 1_555 1_555
H77 C77 1_555 1_555
C78 C60 1_555 1_555
H78 C78 1_555 1_555
H79 C78 1_555 1_555
H80 C78 1_555 1_555
C79 C60 1_555 1_555
H81 C79 1_555 1_555
H82 C79 1_555 1_555
H83 C79 1_555 1_555
C80 C62 1_555 1_555
H84 C80 1_555 1_555
C81 C80 1_555 1_555
H85 C81 1_555 1_555
H86 C81 1_555 1_555
H87 C81 1_555 1_555
C82 C80 1_555 1_555
H88 C82 1_555 1_555
H89 C82 1_555 1_555
H90 C82 1_555 1_555
C83 C65 1_555 1_555
H91 C83 1_555 1_555
H92 C83 1_555 1_555
H93 C83 1_555 1_555
C84 C65 1_555 1_555
H94 C84 1_555 1_555
H95 C84 1_555 1_555
H96 C84 1_555 1_555
C85 C67 1_555 1_555
H97 C85 1_555 1_555
H98 C85 1_555 1_555
H99 C85 1_555 1_555
C86 C67 1_555 1_555
H100 C86 1_555 1_555
H101 C86 1_555 1_555
H102 C86 1_555 1_555
C87 O18 1_555 1_555
C88 C87 1_555 1_555
C89 C88 1_555 1_555
C90 C88 1_555 1_555
C91 C90 1_555 1_555
H103 C91 1_555 1_555
C92 C91 1_555 1_555
H104 C92 1_555 1_555
C93 C92 1_555 1_555
H105 C93 1_555 1_555
C94 C93 1_555 1_555
H106 C94 1_555 1_555
C95 C90 1_555 1_555
H107 C95 1_555 1_555
C96 O20 1_555 1_555
H108 C96 1_555 1_555
H109 C96 1_555 1_555
H110 C96 1_555 1_555
F4 C89 1_555 1_555
F5 C89 1_555 1_555
F6 C89 1_555 1_555
C8 C9 1_555 1_555
C12 C13 1_555 1_555
C15 C16 1_555 1_555
C19 C20 1_555 1_555
C46 C47 1_555 1_555
C56 C57 1_555 1_555
C60 C61 1_555 1_555
C63 C64 1_555 1_555
C67 C68 1_555 1_555
C94 C95 1_555 1_555

#END
