
#######################################################################
#
#                 Cambridge Crystallographic Data Centre
#                                CCDC 
#
#######################################################################
#
# If this CIF has been generated from an entry in the Cambridge 
# Structural Database, then it will include bibliographic, chemical, 
# crystal, experimental, refinement or atomic coordinate data resulting 
# from the CCDC's data processing and validation procedures.
#
#######################################################################

data_QUWFIZ
_chemical_formula_moiety         'C27 H21 N1'
_chemical_name_systematic        1-methyl-6,7-diphenyl-7H-dibenzo[b,d]azepine
_symmetry_cell_setting           monoclinic
_symmetry_space_group_name_H-M   'P 21/c'
_symmetry_Int_Tables_number      14
_space_group_name_Hall           '-P 2ybc'
loop_
_symmetry_equiv_pos_site_id
_symmetry_equiv_pos_as_xyz
1 x,y,z
2 -x,1/2+y,1/2-z
3 -x,-y,-z
4 x,1/2-y,1/2+z
_cell_length_a                   8.116(2)
_cell_length_b                   24.896(7)
_cell_length_c                   10.082(3)
_cell_angle_alpha                90
_cell_angle_beta                 102.908(5)
_cell_angle_gamma                90
_cell_volume                     1985.65
_exptl_crystal_colour            colorless
_exptl_crystal_description       block
_cell_formula_units_Z            4
loop_
_atom_site_label
_atom_site_type_symbol
_atom_site_fract_x
_atom_site_fract_y
_atom_site_fract_z
N1 N 0.4496(3) 0.64099(9) 0.0483(2)
C1 C 0.1915(4) 0.64987(14) -0.1902(3)
H1 H 0.2928 0.6356 -0.2027
C2 C 0.0698(5) 0.66733(17) -0.3022(4)
H2 H 0.0897 0.6640 -0.3892
C3 C -0.0745(5) 0.68878(18) -0.2858(4)
H3 H -0.1543 0.7006 -0.3613
C4 C -0.1063(5) 0.69359(17) -0.1588(4)
H4 H -0.2071 0.7090 -0.1485
C5 C 0.0094(4) 0.67585(14) -0.0461(4)
H5 H -0.0143 0.6787 0.0397
C6 C 0.1622(4) 0.65365(11) -0.0602(3)
C7 C 0.2959(4) 0.63650(11) 0.0588(3)
C8 C 0.2438(4) 0.61324(11) 0.1836(3)
H6 H 0.1210 0.6171 0.1693
C9 C 0.3236(3) 0.64245(12) 0.3156(3)
C10 C 0.3339(4) 0.69809(12) 0.3183(3)
H7 H 0.2938 0.7174 0.2388
C11 C 0.4029(5) 0.72521(14) 0.4376(4)
H8 H 0.4086 0.7625 0.4375
C12 C 0.4625(4) 0.69751(17) 0.5553(4)
H9 H 0.5092 0.7158 0.6352
C13 C 0.4530(5) 0.64260(16) 0.5549(4)
H10 H 0.4941 0.6235 0.6348
C14 C 0.3825(4) 0.61534(14) 0.4360(3)
H11 H 0.3747 0.5781 0.4374
C15 C 0.2826(4) 0.55371(11) 0.1792(3)
C16 C 0.1510(4) 0.51674(13) 0.1576(3)
H12 H 0.0414 0.5283 0.1550
C17 C 0.1822(5) 0.46258(14) 0.1398(4)
H13 H 0.0943 0.4378 0.1285
C18 C 0.3430(5) 0.44570(14) 0.1390(4)
H14 H 0.3630 0.4098 0.1228
C19 C 0.4744(5) 0.48181(13) 0.1619(3)
H15 H 0.5827 0.4698 0.1612
C20 C 0.4496(4) 0.53621(12) 0.1863(3)
C21 C 0.5928(4) 0.57440(12) 0.2206(3)
C22 C 0.5844(4) 0.62457(12) 0.1551(3)
C23 C 0.7188(4) 0.66057(13) 0.1886(3)
H16 H 0.7149 0.6927 0.1410
C24 C 0.8566(4) 0.64916(15) 0.2911(4)
H17 H 0.9436 0.6740 0.3152
C25 C 0.8651(4) 0.60065(15) 0.3579(4)
H18 H 0.9594 0.5930 0.4265
C26 C 0.7365(4) 0.56299(13) 0.3252(3)
C27 C 0.7489(5) 0.51259(17) 0.4109(4)
H19 H 0.8009 0.4845 0.3693
H20 H 0.6376 0.5015 0.4175
H21 H 0.8159 0.5198 0.5003
loop_
_geom_bond_atom_site_label_1
_geom_bond_atom_site_label_2
_geom_bond_site_symmetry_1
_geom_bond_site_symmetry_2
N1 C7 1_555 1_555
C1 H1 1_555 1_555
C2 C1 1_555 1_555
H2 C2 1_555 1_555
C3 C2 1_555 1_555
H3 C3 1_555 1_555
C4 C3 1_555 1_555
H4 C4 1_555 1_555
C5 C4 1_555 1_555
H5 C5 1_555 1_555
C6 C1 1_555 1_555
C7 C6 1_555 1_555
C8 C7 1_555 1_555
H6 C8 1_555 1_555
C9 C8 1_555 1_555
C10 C9 1_555 1_555
H7 C10 1_555 1_555
C11 C10 1_555 1_555
H8 C11 1_555 1_555
C12 C11 1_555 1_555
H9 C12 1_555 1_555
C13 C12 1_555 1_555
H10 C13 1_555 1_555
C14 C9 1_555 1_555
H11 C14 1_555 1_555
C15 C8 1_555 1_555
C16 C15 1_555 1_555
H12 C16 1_555 1_555
C17 C16 1_555 1_555
H13 C17 1_555 1_555
C18 C17 1_555 1_555
H14 C18 1_555 1_555
C19 C18 1_555 1_555
H15 C19 1_555 1_555
C20 C15 1_555 1_555
C21 C20 1_555 1_555
C22 N1 1_555 1_555
C23 C22 1_555 1_555
H16 C23 1_555 1_555
C24 C23 1_555 1_555
H17 C24 1_555 1_555
C25 C24 1_555 1_555
H18 C25 1_555 1_555
C26 C21 1_555 1_555
C27 C26 1_555 1_555
H19 C27 1_555 1_555
H20 C27 1_555 1_555
H21 C27 1_555 1_555
C5 C6 1_555 1_555
C13 C14 1_555 1_555
C19 C20 1_555 1_555
C21 C22 1_555 1_555
C25 C26 1_555 1_555

#END
