
#######################################################################
#
#                 Cambridge Crystallographic Data Centre
#                                CCDC 
#
#######################################################################
#
# If this CIF has been generated from an entry in the Cambridge 
# Structural Database, then it will include bibliographic, chemical, 
# crystal, experimental, refinement or atomic coordinate data resulting 
# from the CCDC's data processing and validation procedures.
#
#######################################################################

data_QUWXEN
_chemical_formula_moiety         'C25 H12 B1 F18 N1'
_chemical_name_systematic        
2-methyl-8,8-bis(2,4,6-tris(trifluoromethyl)phenyl)-1-aza-8-borabicyclo[4.2.0]octa-1,3,5-triene
_symmetry_cell_setting           monoclinic
_symmetry_space_group_name_H-M   'P 21/n'
_symmetry_Int_Tables_number      14
_space_group_name_Hall           '-P 2yn'
loop_
_symmetry_equiv_pos_site_id
_symmetry_equiv_pos_as_xyz
1 x,y,z
2 1/2-x,1/2+y,1/2-z
3 -x,-y,-z
4 1/2+x,1/2-y,1/2+z
_cell_length_a                   16.439(3)
_cell_length_b                   9.2610(16)
_cell_length_c                   16.952(3)
_cell_angle_alpha                90
_cell_angle_beta                 98.127(3)
_cell_angle_gamma                90
_cell_volume                     2554.88
_exptl_crystal_colour            colorless
_exptl_crystal_description       prism
_cell_formula_units_Z            4
loop_
_atom_site_label
_atom_site_type_symbol
_atom_site_fract_x
_atom_site_fract_y
_atom_site_fract_z
B1 B 0.47669(11) 0.37141(19) 0.17638(10)
N1 N 0.50926(8) 0.20288(15) 0.19292(8)
F1 F 0.64388(6) 0.35909(12) 0.28133(7)
F2 F 0.65151(7) 0.58465(13) 0.24890(7)
F3 F 0.67755(7) 0.51818(15) 0.37090(7)
F4 F 0.38835(10) 0.67150(17) 0.51256(8)
F5 F 0.31789(6) 0.28359(12) 0.21705(7)
F6 F 0.26727(8) 0.37264(18) 0.31494(9)
F7 F 0.26574(7) 0.49655(16) 0.20793(10)
F8 F 0.50722(7) 0.65802(11) 0.14617(7)
F9 F 0.42240(9) 0.79543(12) 0.07474(8)
F10 F 0.39865(8) 0.73135(13) 0.19054(8)
F11 F 0.5139(3) 0.7137(9) 0.5269(2)
F12 F 0.4349(10) 0.8520(4) 0.4531(3)
F13 F 0.2246(6) 0.6152(11) -0.1333(5)
F14 F 0.1512(3) 0.4399(6) -0.1045(4)
F15 F 0.1478(4) 0.6297(8) -0.0427(5)
F16 F 0.35962(7) 0.08406(11) 0.12676(7)
F17 F 0.31109(8) 0.07392(13) 0.00376(8)
F18 F 0.43976(7) 0.11196(12) 0.03777(7)
C1 C 0.56943(10) 0.22217(18) 0.14710(10)
C2 C 0.62403(11) 0.1128(2) 0.13560(12)
H1 H 0.6650 0.1255 0.1018
C3 C 0.61623(12) -0.0158(2) 0.17556(13)
H2 H 0.6512 -0.0948 0.1681
C4 C 0.55796(12) -0.02968(19) 0.22613(11)
H3 H 0.5547 -0.1175 0.2545
C5 C 0.50383(10) 0.08183(18) 0.23653(10)
C6 C 0.55712(10) 0.37703(18) 0.12555(10)
H4 H 0.5423 0.3950 0.0677
H5 H 0.6023 0.4412 0.1492
C7 C 0.44500(13) 0.0722(2) 0.29555(12)
H6 H 0.4420 0.1658 0.3220
H7 H 0.4638 -0.0016 0.3354
H8 H 0.3905 0.0461 0.2681
C8 C 0.46998(10) 0.45207(17) 0.26297(9)
C9 C 0.53760(10) 0.51445(18) 0.31332(10)
C10 C 0.52832(12) 0.6014(2) 0.37869(11)
H9 H 0.5754 0.6440 0.4088
C11 C 0.45219(13) 0.6262(2) 0.39992(11)
C12 C 0.38500(12) 0.5586(2) 0.35777(12)
H10 H 0.3322 0.5713 0.3735
C13 C 0.39370(10) 0.47196(19) 0.29246(11)
C14 C 0.62679(11) 0.4935(2) 0.30253(11)
C15 C 0.44147(17) 0.7221(3) 0.46878(14)
C16 C 0.31204(11) 0.4057(2) 0.25736(13)
C17 C 0.39813(9) 0.40663(17) 0.10590(9)
C18 C 0.37949(10) 0.55410(18) 0.08695(10)
C19 C 0.31441(11) 0.5962(2) 0.02968(12)
H11 H 0.3020 0.6958 0.0218
C20 C 0.26805(11) 0.4940(2) -0.01549(12)
C21 C 0.28781(11) 0.3499(2) -0.00478(11)
H12 H 0.2583 0.2794 -0.0380
C22 C 0.35060(10) 0.30703(19) 0.05433(10)
C23 C 0.42728(12) 0.68287(19) 0.12515(12)
C24 C 0.19973(14) 0.5395(3) -0.07864(16)
C25 C 0.36566(11) 0.1453(2) 0.05675(10)
F19? F 0.4992(6) 0.792(3) 0.4988(13)
F20? F 0.3850(11) 0.8458(8) 0.4344(7)
F21? F 0.1850(12) 0.4317(11) -0.1364(9)
F22? F 0.1339(4) 0.565(2) -0.0576(7)
F23? F 0.2133(8) 0.6483(13) -0.1204(9)
loop_
_geom_bond_atom_site_label_1
_geom_bond_atom_site_label_2
_geom_bond_site_symmetry_1
_geom_bond_site_symmetry_2
B1 N1 1_555 1_555
N1 C1 1_555 1_555
F1 C14 1_555 1_555
F2 C14 1_555 1_555
F3 C14 1_555 1_555
F4 C15 1_555 1_555
F5 C16 1_555 1_555
F6 C16 1_555 1_555
F7 C16 1_555 1_555
F8 C23 1_555 1_555
F9 C23 1_555 1_555
F10 C23 1_555 1_555
F11 C15 1_555 1_555
F12 C15 1_555 1_555
F13 C24 1_555 1_555
F14 C24 1_555 1_555
F15 C24 1_555 1_555
F16 C25 1_555 1_555
F17 C25 1_555 1_555
F18 C25 1_555 1_555
C1 C2 1_555 1_555
C2 H1 1_555 1_555
C3 C2 1_555 1_555
H2 C3 1_555 1_555
C4 C3 1_555 1_555
H3 C4 1_555 1_555
C5 N1 1_555 1_555
C6 B1 1_555 1_555
H4 C6 1_555 1_555
H5 C6 1_555 1_555
C7 C5 1_555 1_555
H6 C7 1_555 1_555
H7 C7 1_555 1_555
H8 C7 1_555 1_555
C8 B1 1_555 1_555
C9 C8 1_555 1_555
C10 C9 1_555 1_555
H9 C10 1_555 1_555
C11 C10 1_555 1_555
C12 C11 1_555 1_555
H10 C12 1_555 1_555
C13 C8 1_555 1_555
C14 C9 1_555 1_555
C15 C11 1_555 1_555
C16 C13 1_555 1_555
C17 B1 1_555 1_555
C18 C17 1_555 1_555
C19 C18 1_555 1_555
H11 C19 1_555 1_555
C20 C19 1_555 1_555
C21 C20 1_555 1_555
H12 C21 1_555 1_555
C22 C17 1_555 1_555
C23 C18 1_555 1_555
C24 C20 1_555 1_555
C25 C22 1_555 1_555
C1 C6 1_555 1_555
C4 C5 1_555 1_555
C12 C13 1_555 1_555
C21 C22 1_555 1_555

#END
