
#######################################################################
#
#                 Cambridge Crystallographic Data Centre
#                                CCDC 
#
#######################################################################
#
# If this CIF has been generated from an entry in the Cambridge 
# Structural Database, then it will include bibliographic, chemical, 
# crystal, experimental, refinement or atomic coordinate data resulting 
# from the CCDC's data processing and validation procedures.
#
#######################################################################

data_QUWYAK
_chemical_name_common            
(2,6-dimethylpyridine)(hydrido)bis(2,4,6-tris(trifluoromethyl)phenyl)boron
_chemical_formula_moiety         'C25 H14 B1 F18 N1'
_chemical_name_systematic        
1-(bis(2,4,6-tris(trifluoromethyl)phenyl)boranyl)-2,6-dimethyl-1-pyridine
_symmetry_cell_setting           monoclinic
_symmetry_space_group_name_H-M   'P 21/n'
_symmetry_Int_Tables_number      14
_space_group_name_Hall           '-P 2yn'
loop_
_symmetry_equiv_pos_site_id
_symmetry_equiv_pos_as_xyz
1 x,y,z
2 1/2-x,1/2+y,1/2-z
3 -x,-y,-z
4 1/2+x,1/2-y,1/2+z
_cell_length_a                   13.187(2)
_cell_length_b                   12.091(2)
_cell_length_c                   17.222(3)
_cell_angle_alpha                90
_cell_angle_beta                 110.411(3)
_cell_angle_gamma                90
_cell_volume                     2573.54
_exptl_crystal_colour            colorless
_exptl_crystal_description       sheet
_cell_formula_units_Z            4
loop_
_atom_site_label
_atom_site_type_symbol
_atom_site_fract_x
_atom_site_fract_y
_atom_site_fract_z
B1 B 0.4652(2) 0.87416(18) 0.24034(14)
H1 H 0.3783(19) 0.8696(18) 0.2256(14)
N1 N 0.51213(14) 0.79910(14) 0.32488(10)
F1 F 0.41590(13) 0.70968(12) -0.13540(8)
F2 F 0.43800(13) 0.55033(11) -0.07858(9)
F3 F 0.57651(13) 0.64804(15) -0.07355(9)
F4 F 0.28551(14) 0.58151(13) 0.11955(9)
F5 F 0.24023(12) 0.74605(14) 0.13895(10)
F6 F 0.36175(12) 0.65862(12) 0.23620(8)
F7 F 0.68468(15) 0.95505(15) 0.09217(12)
F8 F 0.67750(12) 0.95678(12) 0.21403(10)
F9 F 0.55967(14) 1.04566(11) 0.11626(11)
F10 F 0.26447(15) 1.13274(13) 0.08553(11)
F11 F 0.32940(12) 0.97172(12) 0.08692(8)
F12 F 0.23183(12) 1.00696(15) 0.16095(10)
F13 F 0.4163(10) 1.4185(6) 0.2491(5)
F14 F 0.5007(11) 1.3923(8) 0.3744(7)
F15 F 0.5823(11) 1.4121(11) 0.2893(10)
F16 F 0.62947(18) 0.96639(16) 0.45162(10)
F17 F 0.70252(11) 0.91371(11) 0.36417(9)
F18 F 0.74668(15) 1.06798(15) 0.42610(15)
C1 C 0.4590(2) 0.80985(19) 0.38016(13)
C2 C 0.3708(2) 0.8936(2) 0.36726(16)
H2 H 0.3994 0.9677 0.3644
H3 H 0.3440 0.8902 0.4136
H4 H 0.3115 0.8775 0.3154
C3 C 0.4853(2) 0.7431(2) 0.44983(15)
H5 H 0.4475 0.7517 0.4874
C4 C 0.5656(2) 0.6643(2) 0.46527(16)
H6 H 0.5841 0.6189 0.5132
C5 C 0.6179(2) 0.65338(19) 0.40972(15)
H7 H 0.6729 0.5991 0.4189
C6 C 0.59185(17) 0.72050(17) 0.34011(13)
C7 C 0.65338(19) 0.70073(19) 0.28276(14)
H8 H 0.6104 0.6539 0.2366
H9 H 0.7220 0.6638 0.3130
H10 H 0.6680 0.7716 0.2612
C8 C 0.47874(16) 0.81592(16) 0.15764(12)
C9 C 0.41043(16) 0.72411(16) 0.12194(12)
C10 C 0.32600(19) 0.67855(19) 0.15519(13)
C11 C 0.41108(18) 0.67038(17) 0.05034(12)
H11 H 0.3650 0.6087 0.0296
C12 C 0.47808(17) 0.70638(17) 0.00983(12)
C13 C 0.47724(19) 0.65335(18) -0.06902(13)
C14 C 0.54347(18) 0.79713(17) 0.03979(13)
H12 H 0.5888 0.8234 0.0114
C15 C 0.54329(17) 0.85034(16) 0.11143(13)
C16 C 0.6161(2) 0.95077(18) 0.13396(15)
C17 C 0.48875(17) 1.00931(17) 0.25860(12)
C18 C 0.40878(18) 1.08365(17) 0.20825(13)
C19 C 0.31044(19) 1.04722(19) 0.13651(15)
C20 C 0.4114(2) 1.19767(17) 0.22268(14)
H13 H 0.3552 1.2435 0.1881
C21 C 0.4946(2) 1.24363(17) 0.28665(15)
C22 C 0.5002(2) 1.36616(19) 0.30240(17)
C23 C 0.5753(2) 1.17629(18) 0.33677(14)
H14 H 0.6335 1.2077 0.3808
C24 C 0.57224(18) 1.06214(18) 0.32337(14)
C25 C 0.6630(2) 1.0024(2) 0.38949(17)
F19? F 0.4054(8) 1.4127(10) 0.2814(19)
F20? F 0.550(2) 1.3876(10) 0.3866(8)
F21? F 0.5626(15) 1.4189(13) 0.2718(9)
loop_
_geom_bond_atom_site_label_1
_geom_bond_atom_site_label_2
_geom_bond_site_symmetry_1
_geom_bond_site_symmetry_2
B1 H1 1_555 1_555
N1 B1 1_555 1_555
F1 C13 1_555 1_555
F2 C13 1_555 1_555
F3 C13 1_555 1_555
F4 C10 1_555 1_555
F5 C10 1_555 1_555
F6 C10 1_555 1_555
F7 C16 1_555 1_555
F8 C16 1_555 1_555
F9 C16 1_555 1_555
F10 C19 1_555 1_555
F11 C19 1_555 1_555
F12 C19 1_555 1_555
F13 C22 1_555 1_555
F14 C22 1_555 1_555
F15 C22 1_555 1_555
F16 C25 1_555 1_555
F17 C25 1_555 1_555
F18 C25 1_555 1_555
C1 N1 1_555 1_555
C2 C1 1_555 1_555
H2 C2 1_555 1_555
H3 C2 1_555 1_555
H4 C2 1_555 1_555
C3 C1 1_555 1_555
H5 C3 1_555 1_555
C4 C3 1_555 1_555
H6 C4 1_555 1_555
C5 C4 1_555 1_555
H7 C5 1_555 1_555
C6 N1 1_555 1_555
C7 C6 1_555 1_555
H8 C7 1_555 1_555
H9 C7 1_555 1_555
H10 C7 1_555 1_555
C8 B1 1_555 1_555
C9 C8 1_555 1_555
C10 C9 1_555 1_555
C11 C9 1_555 1_555
H11 C11 1_555 1_555
C12 C11 1_555 1_555
C13 C12 1_555 1_555
C14 C12 1_555 1_555
H12 C14 1_555 1_555
C15 C8 1_555 1_555
C16 C15 1_555 1_555
C17 B1 1_555 1_555
C18 C17 1_555 1_555
C19 C18 1_555 1_555
C20 C18 1_555 1_555
H13 C20 1_555 1_555
C21 C20 1_555 1_555
C22 C21 1_555 1_555
C23 C21 1_555 1_555
H14 C23 1_555 1_555
C24 C17 1_555 1_555
C25 C24 1_555 1_555
C5 C6 1_555 1_555
C14 C15 1_555 1_555
C23 C24 1_555 1_555

#END
