
#######################################################################
#
#                 Cambridge Crystallographic Data Centre
#                                CCDC 
#
#######################################################################
#
# If this CIF has been generated from an entry in the Cambridge 
# Structural Database, then it will include bibliographic, chemical, 
# crystal, experimental, refinement or atomic coordinate data resulting 
# from the CCDC's data processing and validation procedures.
#
#######################################################################

data_QUYDUK
_chemical_formula_moiety         'C10 H13 N1 O2'
_chemical_name_systematic        2-Ethoxy-6-((methylimino)methyl)phenol
_symmetry_cell_setting           monoclinic
_symmetry_space_group_name_H-M   'P 21/c'
_symmetry_Int_Tables_number      14
_space_group_name_Hall           '-P 2ybc'
loop_
_symmetry_equiv_pos_site_id
_symmetry_equiv_pos_as_xyz
1 x,y,z
2 -x,1/2+y,1/2-z
3 -x,-y,-z
4 x,1/2-y,1/2+z
_cell_length_a                   9.2986(19)
_cell_length_b                   14.713(3)
_cell_length_c                   7.0551(15)
_cell_angle_alpha                90
_cell_angle_beta                 108.465(8)
_cell_angle_gamma                90
_cell_volume                     915.519
_exptl_crystal_colour            yellow
_exptl_crystal_description       block
_cell_formula_units_Z            4
loop_
_atom_site_label
_atom_site_type_symbol
_atom_site_fract_x
_atom_site_fract_y
_atom_site_fract_z
C1 C -0.0203(4) 0.1015(2) 0.8638(5)
C2 C -0.1745(4) 0.0879(2) 0.8267(5)
C3 C -0.2406(4) 0.1178(3) 0.9696(6)
H1 H -0.3434 0.1084 0.9482
C4 C -0.1544(5) 0.1603(3) 1.1393(6)
H2 H -0.2000 0.1813 1.2308
C5 C 0.0000(5) 0.1728(3) 1.1776(6)
H3 H 0.0577 0.2010 1.2952
C6 C 0.0682(4) 0.1432(2) 1.0401(5)
C7 C 0.3157(4) 0.1927(3) 1.2361(6)
H4 H 0.3057 0.1632 1.3542
H5 H 0.2889 0.2563 1.2391
C8 C 0.4756(5) 0.1841(4) 1.2314(7)
H6 H 0.4942 0.1223 1.2015
H7 H 0.5451 0.2007 1.3592
H8 H 0.4897 0.2236 1.1304
C9 C -0.2684(4) 0.0421(3) 0.6471(5)
H9 H -0.3714 0.0343 0.6271
C10 C -0.3148(3) -0.0314(2) 0.3564(4)
H10 H -0.3663 -0.0781 0.4052
H11 H -0.2616 -0.0583 0.2741
H12 H -0.3875 0.0116 0.2792
N1 N -0.2115(3) 0.0129(2) 0.5180(5)
O1 O 0.0527(3) 0.0762(2) 0.7326(4)
H13 H -0.0096 0.0596 0.6275
O2 O 0.2187(3) 0.15026(19) 1.0599(4)
loop_
_geom_bond_atom_site_label_1
_geom_bond_atom_site_label_2
_geom_bond_site_symmetry_1
_geom_bond_site_symmetry_2
C1 C2 1_555 1_555
C2 C3 1_555 1_555
C3 H1 1_555 1_555
C4 C3 1_555 1_555
H2 C4 1_555 1_555
C5 C4 1_555 1_555
H3 C5 1_555 1_555
C6 C1 1_555 1_555
C7 H4 1_555 1_555
H5 C7 1_555 1_555
C8 C7 1_555 1_555
H6 C8 1_555 1_555
H7 C8 1_555 1_555
H8 C8 1_555 1_555
C9 C2 1_555 1_555
H9 C9 1_555 1_555
C10 H10 1_555 1_555
H11 C10 1_555 1_555
H12 C10 1_555 1_555
N1 C9 1_555 1_555
O1 C1 1_555 1_555
H13 O1 1_555 1_555
O2 C6 1_555 1_555
C5 C6 1_555 1_555
C7 O2 1_555 1_555
C10 N1 1_555 1_555

#END
