
#######################################################################
#
#                 Cambridge Crystallographic Data Centre
#                                CCDC 
#
#######################################################################
#
# If this CIF has been generated from an entry in the Cambridge 
# Structural Database, then it will include bibliographic, chemical, 
# crystal, experimental, refinement or atomic coordinate data resulting 
# from the CCDC's data processing and validation procedures.
#
#######################################################################

data_QUYJOK
_chemical_formula_moiety         'C6 H6 N1 O2 1+,Br1 1-'
_chemical_name_systematic        '4-Carboxypyridinium bromide'
_symmetry_cell_setting           monoclinic
_symmetry_space_group_name_H-M   'P 21/n'
_symmetry_Int_Tables_number      14
_space_group_name_Hall           '-P 2yn'
loop_
_symmetry_equiv_pos_site_id
_symmetry_equiv_pos_as_xyz
1 x,y,z
2 1/2-x,1/2+y,1/2-z
3 -x,-y,-z
4 1/2+x,1/2-y,1/2+z
_cell_length_a                   7.3179(15)
_cell_length_b                   7.3433(15)
_cell_length_c                   13.532(3)
_cell_angle_alpha                90
_cell_angle_beta                 94.37(3)
_cell_angle_gamma                90
_cell_volume                     725.062
_exptl_crystal_colour            colorless
_exptl_crystal_description       prism
_cell_formula_units_Z            4
loop_
_atom_site_label
_atom_site_type_symbol
_atom_site_fract_x
_atom_site_fract_y
_atom_site_fract_z
Br1 Br 0.05149(7) 0.81361(5) 0.25911(3)
O1 O 0.7136(4) -0.0655(4) -0.06801(19)
H1 H 0.6581 -0.1279 -0.1107
C1 C 0.7434(6) 0.2225(5) 0.0056(3)
O2 O 0.5215(4) 0.1518(4) -0.1253(2)
N1 N 0.8996(5) 0.4472(5) 0.1454(3)
H2 H 0.9504 0.5186 0.1897
C2 C 0.7207(6) 0.4094(5) -0.0030(3)
H3 H 0.6524 0.4587 -0.0573
C3 C 0.7998(6) 0.5208(6) 0.0693(3)
H4 H 0.7840 0.6463 0.0653
C4 C 0.8476(6) 0.1523(5) 0.0853(3)
H5 H 0.8657 0.0273 0.0912
C5 C 0.6474(6) 0.0997(5) -0.0713(3)
C6 C 0.9248(7) 0.2683(6) 0.1562(3)
H6 H 0.9938 0.2226 0.2113
loop_
_geom_bond_atom_site_label_1
_geom_bond_atom_site_label_2
_geom_bond_site_symmetry_1
_geom_bond_site_symmetry_2
O1 H1 1_555 1_555
C1 C2 1_555 1_555
O2 C5 1_555 1_555
N1 H2 1_555 1_555
C2 H3 1_555 1_555
C3 N1 1_555 1_555
H4 C3 1_555 1_555
C4 C1 1_555 1_555
H5 C4 1_555 1_555
C5 O1 1_555 1_555
C6 N1 1_555 1_555
H6 C6 1_555 1_555
C1 C5 1_555 1_555
C2 C3 1_555 1_555
C4 C6 1_555 1_555

#END
