
#######################################################################
#
#                 Cambridge Crystallographic Data Centre
#                                CCDC 
#
#######################################################################
#
# If this CIF has been generated from an entry in the Cambridge 
# Structural Database, then it will include bibliographic, chemical, 
# crystal, experimental, refinement or atomic coordinate data resulting 
# from the CCDC's data processing and validation procedures.
#
#######################################################################

data_QUZBUJ
_chemical_formula_moiety         'C16 H18 N2 O2'
_chemical_name_systematic        
'Ethyl 3,4-dimethyl-5-((E)-(phenylimino)methyl)-1H-pyrrole-2-carboxylate'
_symmetry_cell_setting           monoclinic
_symmetry_space_group_name_H-M   'P 21/c'
_symmetry_Int_Tables_number      14
_space_group_name_Hall           '-P 2ybc'
loop_
_symmetry_equiv_pos_site_id
_symmetry_equiv_pos_as_xyz
1 x,y,z
2 -x,1/2+y,1/2-z
3 -x,-y,-z
4 x,1/2-y,1/2+z
_cell_length_a                   12.5463(7)
_cell_length_b                   14.6525(9)
_cell_length_c                   8.4490(5)
_cell_angle_alpha                90
_cell_angle_beta                 105.042(3)
_cell_angle_gamma                90
_cell_volume                     1500
_exptl_crystal_colour            yellow
_exptl_crystal_description       block
_cell_formula_units_Z            4
loop_
_atom_site_label
_atom_site_type_symbol
_atom_site_fract_x
_atom_site_fract_y
_atom_site_fract_z
N1 N 0.02009(11) 0.14614(9) 0.03549(16)
H1 H -0.0130 0.0983 -0.0125
O1 O 0.24807(9) 0.06709(8) 0.35169(14)
O2 O 0.12317(10) -0.01491(9) 0.17093(15)
C1 C 0.15990(13) 0.05888(12) 0.22476(19)
C2 C 0.11351(13) 0.14570(11) 0.16129(19)
N2 N -0.15004(12) 0.33049(10) -0.16873(18)
C3 C -0.01284(13) 0.23366(11) -0.0027(2)
C4 C 0.14228(13) 0.23604(11) 0.20337(19)
C5 C -0.25266(15) 0.33933(12) -0.2860(2)
C6 C -0.11212(14) 0.25067(12) -0.1305(2)
H2 H -0.1500 0.2012 -0.1874
C7 C 0.06264(13) 0.29161(11) 0.1002(2)
C8 C 0.05849(16) 0.39340(12) 0.1001(2)
H3 H 0.0308 0.4150 -0.0102
H4 H 0.1313 0.4172 0.1452
H5 H 0.0106 0.4135 0.1652
C9 C -0.26627(17) 0.41010(14) -0.3976(2)
H6 H -0.2072 0.4482 -0.3985
C10 C 0.24063(14) 0.26959(13) 0.3311(2)
H7 H 0.2367 0.3347 0.3399
H8 H 0.3067 0.2533 0.3006
H9 H 0.2416 0.2422 0.4347
C11 C -0.3674(2) 0.42436(17) -0.5076(3)
H10 H -0.3756 0.4714 -0.5838
C12 C 0.29547(16) -0.01538(14) 0.4354(2)
H11 H 0.3295 -0.0515 0.3656
H12 H 0.2388 -0.0519 0.4644
C13 C 0.37962(17) 0.01386(17) 0.5854(3)
H13 H 0.4327 0.0528 0.5553
H14 H 0.4163 -0.0389 0.6416
H15 H 0.3442 0.0465 0.6562
C14 C -0.34233(16) 0.28429(15) -0.2859(3)
H16 H -0.3348 0.2364 -0.2116
C15 C -0.4555(2) 0.37029(19) -0.5058(3)
H17 H -0.5238 0.3809 -0.5789
C16 C -0.44248(18) 0.30041(18) -0.3958(3)
H18 H -0.5023 0.2631 -0.3950
loop_
_geom_bond_atom_site_label_1
_geom_bond_atom_site_label_2
_geom_bond_site_symmetry_1
_geom_bond_site_symmetry_2
N1 H1 1_555 1_555
O1 C1 1_555 1_555
O2 C1 1_555 1_555
C1 C2 1_555 1_555
C2 N1 1_555 1_555
N2 C5 1_555 1_555
C3 N1 1_555 1_555
C4 C2 1_555 1_555
C5 C9 1_555 1_555
C6 N2 1_555 1_555
H2 C6 1_555 1_555
C7 C3 1_555 1_555
C8 C7 1_555 1_555
H3 C8 1_555 1_555
H4 C8 1_555 1_555
H5 C8 1_555 1_555
C9 H6 1_555 1_555
C10 C4 1_555 1_555
H7 C10 1_555 1_555
H8 C10 1_555 1_555
H9 C10 1_555 1_555
C11 C9 1_555 1_555
H10 C11 1_555 1_555
C12 O1 1_555 1_555
H11 C12 1_555 1_555
H12 C12 1_555 1_555
C13 C12 1_555 1_555
H13 C13 1_555 1_555
H14 C13 1_555 1_555
H15 C13 1_555 1_555
C14 C5 1_555 1_555
H16 C14 1_555 1_555
C15 C11 1_555 1_555
H17 C15 1_555 1_555
C16 C14 1_555 1_555
H18 C16 1_555 1_555
C3 C6 1_555 1_555
C4 C7 1_555 1_555
C15 C16 1_555 1_555

#END
