
#######################################################################
#
#                 Cambridge Crystallographic Data Centre
#                                CCDC 
#
#######################################################################
#
# If this CIF has been generated from an entry in the Cambridge 
# Structural Database, then it will include bibliographic, chemical, 
# crystal, experimental, refinement or atomic coordinate data resulting 
# from the CCDC's data processing and validation procedures.
#
#######################################################################

data_QUZGOI
_chemical_formula_moiety         'C10 H13 N1 O1'
_chemical_name_systematic        N-Methyl-N-(2-methylphenyl)acetamide
_symmetry_cell_setting           monoclinic
_symmetry_space_group_name_H-M   'P 21/n'
_symmetry_Int_Tables_number      14
_space_group_name_Hall           '-P 2yn'
loop_
_symmetry_equiv_pos_site_id
_symmetry_equiv_pos_as_xyz
1 x,y,z
2 1/2-x,1/2+y,1/2-z
3 -x,-y,-z
4 1/2+x,1/2-y,1/2+z
_cell_length_a                   11.288(2)
_cell_length_b                   6.900(1)
_cell_length_c                   12.234(2)
_cell_angle_alpha                90
_cell_angle_beta                 94.88(3)
_cell_angle_gamma                90
_cell_volume                     949.418
_exptl_crystal_colour            colorless
_exptl_crystal_description       block
_chemical_melting_point          '328 K'
_cell_formula_units_Z            4
_exptl_crystal_recrystallization_method 'ethyl acetate'
loop_
_atom_site_label
_atom_site_type_symbol
_atom_site_fract_x
_atom_site_fract_y
_atom_site_fract_z
N1 N 0.8267(3) 0.3421(5) -0.0762(2)
O1 O 0.9121(2) 0.5682(4) -0.1656(2)
C1 C 0.8287(3) 0.1854(5) 0.1029(3)
H1 H 0.9111 0.1976 0.1095
C2 C 0.7737(3) 0.0925(4) 0.1832(2)
H2 H 0.8181 0.0387 0.2432
C3 C 0.6508(3) 0.0794(4) 0.1741(2)
H3 H 0.6121 0.0177 0.2285
C4 C 0.5867(3) 0.1571(4) 0.0853(2)
H4 H 0.5043 0.1465 0.0801
C5 C 0.6408(2) 0.2526(4) 0.0015(2)
C6 C 0.7649(3) 0.2603(5) 0.0137(2)
C7 C 0.5689(3) 0.3319(5) -0.0977(2)
H5 H 0.5852 0.4676 -0.1048
H6 H 0.4858 0.3138 -0.0895
H7 H 0.5897 0.2648 -0.1621
C8 C 0.8631(3) 0.1932(7) -0.1620(3)
H8 H 0.9102 0.2565 -0.2132
H9 H 0.7930 0.1397 -0.2006
H10 H 0.9087 0.0911 -0.1255
C9 C 0.8569(3) 0.5129(7) -0.0876(3)
C10 C 0.8173(3) 0.6500(5) 0.0004(3)
H11 H 0.8712 0.6398 0.0652
H12 H 0.7386 0.6155 0.0177
H13 H 0.8171 0.7808 -0.0264
loop_
_geom_bond_atom_site_label_1
_geom_bond_atom_site_label_2
_geom_bond_site_symmetry_1
_geom_bond_site_symmetry_2
N1 C6 1_555 1_555
O1 C9 1_555 1_555
C1 H1 1_555 1_555
C2 C1 1_555 1_555
H2 C2 1_555 1_555
C3 C2 1_555 1_555
H3 C3 1_555 1_555
C4 C3 1_555 1_555
H4 C4 1_555 1_555
C5 C4 1_555 1_555
C6 C1 1_555 1_555
C7 C5 1_555 1_555
H5 C7 1_555 1_555
H6 C7 1_555 1_555
H7 C7 1_555 1_555
C8 N1 1_555 1_555
H8 C8 1_555 1_555
H9 C8 1_555 1_555
H10 C8 1_555 1_555
C9 N1 1_555 1_555
C10 C9 1_555 1_555
H11 C10 1_555 1_555
H12 C10 1_555 1_555
H13 C10 1_555 1_555
C5 C6 1_555 1_555

#END
