
#######################################################################
#
#                 Cambridge Crystallographic Data Centre
#                                CCDC 
#
#######################################################################
#
# If this CIF has been generated from an entry in the Cambridge 
# Structural Database, then it will include bibliographic, chemical, 
# crystal, experimental, refinement or atomic coordinate data resulting 
# from the CCDC's data processing and validation procedures.
#
#######################################################################

data_QUZNUV
_chemical_formula_moiety         'C9 H10 N2 O3'
_chemical_name_systematic        N-(4-Nitrophenethyl)formamide
_symmetry_cell_setting           monoclinic
_symmetry_space_group_name_H-M   'P 21/c'
_symmetry_Int_Tables_number      14
_space_group_name_Hall           '-P 2ybc'
loop_
_symmetry_equiv_pos_site_id
_symmetry_equiv_pos_as_xyz
1 x,y,z
2 -x,1/2+y,1/2-z
3 -x,-y,-z
4 x,1/2-y,1/2+z
_cell_length_a                   4.47540(10)
_cell_length_b                   17.6664(5)
_cell_length_c                   12.1548(4)
_cell_angle_alpha                90
_cell_angle_beta                 93.021(2)
_cell_angle_gamma                90
_cell_volume                     959.674
_exptl_crystal_colour            colorless
_exptl_crystal_description       block
_cell_formula_units_Z            4
_exptl_crystal_recrystallization_method 'ethyl acetate'
loop_
_atom_site_label
_atom_site_type_symbol
_atom_site_fract_x
_atom_site_fract_y
_atom_site_fract_z
O1 O 0.5315(4) 0.72237(8) 0.42543(13)
O2 O 0.4550(3) 0.60396(8) 0.40908(10)
O3 O 0.9148(2) 0.59710(8) 1.14237(8)
N1 N 0.5726(4) 0.65789(9) 0.45577(11)
N2 N 1.3195(3) 0.60193(8) 1.04270(10)
H1 H 1.490(4) 0.6035(9) 1.0442(13)
C1 C 0.7721(3) 0.64453(9) 0.55324(11)
C2 C 0.8835(4) 0.70538(9) 0.61230(13)
H2 H 0.822(4) 0.7538(11) 0.5958(13)
C3 C 1.0705(4) 0.69170(9) 0.70433(12)
H3 H 1.147(4) 0.7334(10) 0.7418(12)
C4 C 1.1450(3) 0.61872(8) 0.73625(10)
C5 C 1.0275(3) 0.55894(8) 0.67502(11)
H4 H 1.082(3) 0.5077(9) 0.6967(12)
C6 C 0.8387(3) 0.57117(9) 0.58309(11)
H5 H 0.757(3) 0.5311(9) 0.5390(13)
C7 C 1.3374(3) 0.60491(10) 0.84010(12)
H6 H 1.495(4) 0.6414(9) 0.8473(12)
H7 H 1.423(4) 0.5531(10) 0.8403(13)
C8 C 1.1484(3) 0.61015(11) 0.93831(12)
H8 H 1.046(4) 0.6620(10) 0.9389(14)
H9 H 0.986(4) 0.5736(10) 0.9354(14)
C9 C 1.1853(3) 0.59714(9) 1.13538(12)
H10 H 1.322(3) 0.5926(8) 1.1993(13)
loop_
_geom_bond_atom_site_label_1
_geom_bond_atom_site_label_2
_geom_bond_site_symmetry_1
_geom_bond_site_symmetry_2
O1 N1 1_555 1_555
O2 N1 1_555 1_555
O3 C9 1_555 1_555
N1 C1 1_555 1_555
N2 H1 1_555 1_555
C1 C2 1_555 1_555
C2 H2 1_555 1_555
C3 C2 1_555 1_555
H3 C3 1_555 1_555
C4 C3 1_555 1_555
C5 C4 1_555 1_555
H4 C5 1_555 1_555
C6 C1 1_555 1_555
H5 C6 1_555 1_555
C7 C4 1_555 1_555
H6 C7 1_555 1_555
H7 C7 1_555 1_555
C8 N2 1_555 1_555
H8 C8 1_555 1_555
H9 C8 1_555 1_555
C9 N2 1_555 1_555
H10 C9 1_555 1_555
C5 C6 1_555 1_555
C7 C8 1_555 1_555

#END
