
#######################################################################
#
#                 Cambridge Crystallographic Data Centre
#                                CCDC 
#
#######################################################################
#
# If this CIF has been generated from an entry in the Cambridge 
# Structural Database, then it will include bibliographic, chemical, 
# crystal, experimental, refinement or atomic coordinate data resulting 
# from the CCDC's data processing and validation procedures.
#
#######################################################################

data_RABVEX
_chemical_formula_moiety         'C27 H34 N2 O2'
_chemical_name_systematic        
2,4-Di-t-butyl-6-(((2-hydroxyphenyl)(pyridin-2-ylmethyl)amino)methyl)phenol
_symmetry_cell_setting           orthorhombic
_symmetry_space_group_name_H-M   'P b c a'
_symmetry_Int_Tables_number      61
_space_group_name_Hall           '-P 2ac 2ab'
loop_
_symmetry_equiv_pos_site_id
_symmetry_equiv_pos_as_xyz
1 x,y,z
2 1/2-x,-y,1/2+z
3 -x,1/2+y,1/2-z
4 1/2+x,1/2-y,-z
5 -x,-y,-z
6 1/2+x,y,1/2-z
7 x,1/2-y,1/2+z
8 1/2-x,1/2+y,z
_cell_length_a                   10.309(4)
_cell_length_b                   19.877(7)
_cell_length_c                   23.543(8)
_cell_angle_alpha                90
_cell_angle_beta                 90
_cell_angle_gamma                90
_cell_volume                     4824.24
_cell_formula_units_Z            8
loop_
_atom_site_label
_atom_site_type_symbol
_atom_site_fract_x
_atom_site_fract_y
_atom_site_fract_z
N1 N 0.1688(2) 0.15494(13) 0.03930(10)
O1 O 0.4068(2) 0.19841(13) 0.08346(11)
H1 H 0.3860 0.1901 0.0506
O2 O 0.2812(2) 0.02940(11) 0.00213(9)
H2 H 0.2605 0.0536 0.0289
C1 C 0.1881(3) 0.03325(15) -0.03950(12)
N2 N 0.3834(3) 0.18053(14) -0.03481(11)
C2 C 0.2632(4) 0.19932(16) -0.04913(13)
C3 C 0.2030(3) -0.00397(15) -0.08954(12)
C4 C 0.1741(3) 0.21265(16) -0.00008(13)
H3 H 0.2039 0.2522 0.0203
H4 H 0.0877 0.2219 -0.0143
C5 C 0.3158(3) -0.05371(16) -0.09700(14)
C6 C 0.1804(3) 0.17182(16) 0.09811(12)
C7 C 0.0617(3) 0.10881(17) 0.02516(13)
H5 H -0.0189 0.1339 0.0243
H6 H 0.0546 0.0750 0.0547
C8 C 0.0806(3) 0.07440(15) -0.03127(12)
C9 C 0.0020(3) 0.04791(16) -0.12520(13)
C10 C 0.3159(4) -0.10506(18) -0.04816(15)
H7 H 0.2349 -0.1289 -0.0478
H8 H 0.3272 -0.0820 -0.0127
H9 H 0.3857 -0.1364 -0.0535
C11 C -0.0108(3) 0.08136(17) -0.07394(14)
C12 C 0.2196(6) 0.1969(2) 0.21257(16)
H10 H 0.2330 0.2046 0.2511
C13 C 0.1084(3) 0.00552(15) -0.13104(12)
H11 H 0.1170 -0.0181 -0.1649
C14 C -0.0979(4) 0.05765(19) -0.17242(15)
C15 C 0.4450(3) -0.01593(19) -0.09780(16)
H12 H 0.4453 0.0157 -0.1287
H13 H 0.5147 -0.0474 -0.1027
H14 H 0.4561 0.0077 -0.0626
C16 C 0.4668(4) 0.16701(19) -0.07658(16)
H15 H 0.5506 0.1540 -0.0668
C17 C 0.2240(4) 0.20511(17) -0.10465(14)
H16 H 0.1400 0.2186 -0.1136
C18 C 0.3127(5) 0.1903(2) -0.14700(16)
H17 H 0.2885 0.1933 -0.1850
C19 C 0.3208(5) 0.20338(19) 0.17542(16)
H18 H 0.4023 0.2159 0.1886
C20 C 0.0795(4) 0.16647(18) 0.13652(14)
H19 H -0.0026 0.1541 0.1239
C21 C 0.4359(5) 0.1712(2) -0.13286(17)
H20 H 0.4969 0.1613 -0.1608
C22 C 0.3018(4) 0.19119(16) 0.11797(13)
C23 C 0.3059(4) -0.09361(18) -0.15241(15)
H21 H 0.3054 -0.0631 -0.1840
H22 H 0.2272 -0.1194 -0.1524
H23 H 0.3789 -0.1233 -0.1556
C24 C 0.0996(5) 0.1794(2) 0.19382(16)
H24 H 0.0310 0.1760 0.2193
C25 C -0.2201(8) 0.0220(7) -0.1562(4)
H25 H -0.2528 0.0404 -0.1213
H26 H -0.2023 -0.0251 -0.1512
H27 H -0.2835 0.0276 -0.1857
C26 C -0.0509(9) 0.0256(5) -0.2302(3)
H28 H 0.0293 0.0021 -0.2241
H29 H -0.0381 0.0605 -0.2578
H30 H -0.1153 -0.0054 -0.2437
C27 C -0.1179(15) 0.1301(4) -0.1839(5)
H31 H -0.1474 0.1520 -0.1499
H32 H -0.1816 0.1354 -0.2133
H33 H -0.0375 0.1499 -0.1959
H34 H -0.083(3) 0.1120(15) -0.0649(12)
C28? C -0.0345(14) 0.0966(11) -0.2190(5)
C29? C -0.1574(19) -0.0096(7) -0.1884(8)
C30? C -0.2176(11) 0.1014(7) -0.1515(5)
H35? H -0.0286 0.1431 -0.2082
H36? H -0.0851 0.0927 -0.2531
H37? H 0.0510 0.0791 -0.2256
H38? H -0.2184 -0.0229 -0.1597
H39? H -0.0903 -0.0429 -0.1913
H40? H -0.2012 -0.0056 -0.2242
H41? H -0.2086 0.1106 -0.1116
H42? H -0.2966 0.0770 -0.1579
H43? H -0.2199 0.1429 -0.1722
loop_
_geom_bond_atom_site_label_1
_geom_bond_atom_site_label_2
_geom_bond_site_symmetry_1
_geom_bond_site_symmetry_2
N1 C4 1_555 1_555
O1 H1 1_555 1_555
O2 H2 1_555 1_555
C1 O2 1_555 1_555
N2 C2 1_555 1_555
C2 C4 1_555 1_555
C3 C1 1_555 1_555
C4 H3 1_555 1_555
H4 C4 1_555 1_555
C5 C3 1_555 1_555
C6 N1 1_555 1_555
C7 N1 1_555 1_555
H5 C7 1_555 1_555
H6 C7 1_555 1_555
C8 C1 1_555 1_555
C9 C11 1_555 1_555
C10 C5 1_555 1_555
H7 C10 1_555 1_555
H8 C10 1_555 1_555
H9 C10 1_555 1_555
C11 C8 1_555 1_555
C12 H10 1_555 1_555
C13 C3 1_555 1_555
H11 C13 1_555 1_555
C14 C9 1_555 1_555
C15 C5 1_555 1_555
H12 C15 1_555 1_555
H13 C15 1_555 1_555
H14 C15 1_555 1_555
C16 N2 1_555 1_555
H15 C16 1_555 1_555
C17 C2 1_555 1_555
H16 C17 1_555 1_555
C18 C17 1_555 1_555
H17 C18 1_555 1_555
C19 C12 1_555 1_555
H18 C19 1_555 1_555
C20 C6 1_555 1_555
H19 C20 1_555 1_555
C21 C16 1_555 1_555
H20 C21 1_555 1_555
C22 O1 1_555 1_555
C23 C5 1_555 1_555
H21 C23 1_555 1_555
H22 C23 1_555 1_555
H23 C23 1_555 1_555
C24 C12 1_555 1_555
H24 C24 1_555 1_555
C25 C14 1_555 1_555
H25 C25 1_555 1_555
H26 C25 1_555 1_555
H27 C25 1_555 1_555
C26 C14 1_555 1_555
H28 C26 1_555 1_555
H29 C26 1_555 1_555
H30 C26 1_555 1_555
C27 C14 1_555 1_555
H31 C27 1_555 1_555
H32 C27 1_555 1_555
H33 C27 1_555 1_555
H34 C11 1_555 1_555
C6 C22 1_555 1_555
C7 C8 1_555 1_555
C9 C13 1_555 1_555
C18 C21 1_555 1_555
C19 C22 1_555 1_555
C20 C24 1_555 1_555

#END
