
#######################################################################
#
#                 Cambridge Crystallographic Data Centre
#                                CCDC 
#
#######################################################################
#
# If this CIF has been generated from an entry in the Cambridge 
# Structural Database, then it will include bibliographic, chemical, 
# crystal, experimental, refinement or atomic coordinate data resulting 
# from the CCDC's data processing and validation procedures.
#
#######################################################################

data_RACTUM
_chemical_name_common            
7-(2-Diacetylpyridinyl-3-ethylene)-4'-acetylpyrrolo-[1',5'-a]-1,8-naphthyridine
_chemical_formula_moiety         'C24 H20 N4 O3'
_chemical_name_systematic        
N-Acetyl-N-(3-(2-(7-acetylpyrrolo[1,2-a][1,8]naphthyridin-2-yl)vinyl)pyridin-2-yl)acetamide
_symmetry_cell_setting           monoclinic
_symmetry_space_group_name_H-M   'P 21/c'
_symmetry_Int_Tables_number      14
_space_group_name_Hall           '-P 2ybc'
loop_
_symmetry_equiv_pos_site_id
_symmetry_equiv_pos_as_xyz
1 x,y,z
2 -x,1/2+y,1/2-z
3 -x,-y,-z
4 x,1/2-y,1/2+z
_cell_length_a                   11.5987(18)
_cell_length_b                   22.941(4)
_cell_length_c                   7.9527(11)
_cell_angle_alpha                90
_cell_angle_beta                 105.636(7)
_cell_angle_gamma                90
_cell_volume                     2037.79
_exptl_crystal_colour            brown
_chemical_melting_point          '226-227 deg.C'
_cell_formula_units_Z            4
_exptl_crystal_recrystallization_method 'dichloromethane/diethyl ether'
loop_
_atom_site_label
_atom_site_type_symbol
_atom_site_fract_x
_atom_site_fract_y
_atom_site_fract_z
N1 N 0.11821(13) -0.00623(6) 0.19748(18)
N2 N 0.10721(13) -0.10720(6) 0.17055(18)
N3 N 0.49710(13) 0.10562(6) 0.22225(18)
N4 N 0.48494(15) 0.20487(7) 0.1603(2)
O1 O 0.01891(15) -0.28721(7) 0.1663(2)
O2 O 0.61571(15) 0.04453(7) 0.1136(2)
O3 O 0.49319(16) 0.11555(7) 0.50106(18)
C1 C 0.07000(16) 0.04432(8) 0.2298(2)
C2 C -0.04016(18) 0.04622(10) 0.2699(3)
H1 H -0.0734 0.0818 0.2878
C3 C -0.09854(18) -0.00462(10) 0.2828(3)
H2 H -0.1713 -0.0035 0.3110
C4 C -0.05054(16) -0.05785(9) 0.2544(2)
C5 C 0.05799(16) -0.05486(8) 0.2079(2)
C6 C 0.05572(16) -0.16135(8) 0.1827(2)
C7 C -0.05093(18) -0.16311(9) 0.2375(3)
H3 H -0.0857 -0.1988 0.2504
C8 C -0.10178(18) -0.11345(10) 0.2708(3)
H4 H -0.1722 -0.1153 0.3053
C9 C 0.21081(17) -0.11502(9) 0.1189(3)
H5 H 0.2612 -0.0857 0.0996
C10 C 0.22571(18) -0.17324(9) 0.1014(3)
H6 H 0.2891 -0.1905 0.0692
C11 C 0.12937(17) -0.20369(9) 0.1400(2)
C12 C 0.1107(2) -0.26647(9) 0.1417(3)
C13 C 0.2076(2) -0.30531(9) 0.1156(3)
H7 H 0.2766 -0.3021 0.2141
H8 H 0.2287 -0.2939 0.0115
H9 H 0.1800 -0.3449 0.1042
C14 C 0.13394(18) 0.09837(8) 0.2202(2)
H10 H 0.0966 0.1331 0.2358
C15 C 0.24096(17) 0.10212(8) 0.1910(2)
H11 H 0.2800 0.0674 0.1817
C16 C 0.42435(17) 0.15780(7) 0.1833(2)
C17 C 0.30277(17) 0.15621(7) 0.1723(2)
C18 C 0.24238(19) 0.20958(8) 0.1328(3)
H12 H 0.1609 0.2117 0.1240
C19 C 0.3028(2) 0.25835(9) 0.1071(3)
H13 H 0.2629 0.2937 0.0804
C20 C 0.4229(2) 0.25460(8) 0.1213(3)
H14 H 0.4632 0.2881 0.1030
C21 C 0.53621(18) 0.08004(9) 0.0865(2)
C22 C 0.4709(2) 0.09815(10) -0.0938(3)
H15 H 0.4992 0.0758 -0.1767
H16 H 0.4847 0.1388 -0.1090
H17 H 0.3867 0.0915 -0.1120
C23 C 0.53520(18) 0.08967(8) 0.3994(2)
C24 C 0.6231(2) 0.04173(9) 0.4590(3)
H18 H 0.6305 0.0335 0.5798
H19 H 0.6995 0.0533 0.4450
H20 H 0.5959 0.0074 0.3906
loop_
_geom_bond_atom_site_label_1
_geom_bond_atom_site_label_2
_geom_bond_site_symmetry_1
_geom_bond_site_symmetry_2
N1 C1 1_555 1_555
N2 C5 1_555 1_555
N3 C16 1_555 1_555
N4 C16 1_555 1_555
O1 C12 1_555 1_555
O2 C21 1_555 1_555
O3 C23 1_555 1_555
C1 C2 1_555 1_555
C2 H1 1_555 1_555
C3 C2 1_555 1_555
H2 C3 1_555 1_555
C4 C3 1_555 1_555
C5 N1 1_555 1_555
C6 N2 1_555 1_555
C7 C6 1_555 1_555
H3 C7 1_555 1_555
C8 C4 1_555 1_555
H4 C8 1_555 1_555
C9 N2 1_555 1_555
H5 C9 1_555 1_555
C10 C9 1_555 1_555
H6 C10 1_555 1_555
C11 C6 1_555 1_555
C12 C11 1_555 1_555
C13 C12 1_555 1_555
H7 C13 1_555 1_555
H8 C13 1_555 1_555
H9 C13 1_555 1_555
C14 C1 1_555 1_555
H10 C14 1_555 1_555
C15 C14 1_555 1_555
H11 C15 1_555 1_555
C16 C17 1_555 1_555
C17 C15 1_555 1_555
C18 C17 1_555 1_555
H12 C18 1_555 1_555
C19 C18 1_555 1_555
H13 C19 1_555 1_555
C20 N4 1_555 1_555
H14 C20 1_555 1_555
C21 N3 1_555 1_555
C22 C21 1_555 1_555
H15 C22 1_555 1_555
H16 C22 1_555 1_555
H17 C22 1_555 1_555
C23 N3 1_555 1_555
C24 C23 1_555 1_555
H18 C24 1_555 1_555
H19 C24 1_555 1_555
H20 C24 1_555 1_555
C4 C5 1_555 1_555
C7 C8 1_555 1_555
C10 C11 1_555 1_555
C19 C20 1_555 1_555

#END
