
#######################################################################
#
#                 Cambridge Crystallographic Data Centre
#                                CCDC 
#
#######################################################################
#
# If this CIF has been generated from an entry in the Cambridge 
# Structural Database, then it will include bibliographic, chemical, 
# crystal, experimental, refinement or atomic coordinate data resulting 
# from the CCDC's data processing and validation procedures.
#
#######################################################################

data_RADHIQ
_chemical_formula_moiety         'C54 H50 B2 F4 N4 O2'
_chemical_name_systematic        
"1,1'-[1,2-diphenylethene-1,2-diyl]bis(3-bis(1,3,5,7-tetramethyl-4,4-difluoroboradiazaindac-8-yl)-4-methoxybenzene) unknown solvate"
_symmetry_cell_setting           triclinic
_symmetry_space_group_name_H-M   'P -1'
_symmetry_Int_Tables_number      2
_space_group_name_Hall           '-P 1'
loop_
_symmetry_equiv_pos_site_id
_symmetry_equiv_pos_as_xyz
1 x,y,z
2 -x,-y,-z
_cell_length_a                   8.8045(15)
_cell_length_b                   10.7681(18)
_cell_length_c                   14.623(2)
_cell_angle_alpha                70.473(2)
_cell_angle_beta                 87.488(3)
_cell_angle_gamma                70.847(2)
_cell_volume                     1230.93
_cell_formula_units_Z            1
loop_
_atom_site_label
_atom_site_type_symbol
_atom_site_fract_x
_atom_site_fract_y
_atom_site_fract_z
B1 B 0.8020(4) 0.2317(3) 0.8585(2)
C1 C 0.4713(3) 0.9945(2) 0.54373(18)
C2 C 0.2964(4) 1.0554(3) 0.55719(19)
C3 C 0.2029(4) 0.9675(5) 0.5867(3)
H1 H 0.2501 0.8731 0.5949
C4 C 0.0444(6) 1.0167(8) 0.6038(4)
H2 H -0.0154 0.9565 0.6226
C5 C -0.0250(6) 1.1528(8) 0.5931(3)
H3 H -0.1328 1.1856 0.6053
C6 C 0.0599(6) 1.2440(6) 0.5647(3)
H4 H 0.0099 1.3378 0.5574
C7 C 0.2256(5) 1.1939(4) 0.5465(3)
H5 H 0.2849 1.2545 0.5275
C8 C 0.5763(3) 0.9136(2) 0.63640(17)
C9 C 0.6289(3) 0.9786(2) 0.68976(19)
H6 H 0.6014 1.0754 0.6661
C10 C 0.7209(3) 0.9037(3) 0.77706(19)
H7 H 0.7554 0.9500 0.8110
C11 C 0.7617(3) 0.7594(2) 0.81408(17)
C12 C 0.7088(3) 0.6915(2) 0.76283(16)
C13 C 0.6177(3) 0.7691(2) 0.67512(16)
H8 H 0.5831 0.7231 0.6411
C14 C 0.9297(4) 0.7358(4) 0.9472(2)
H9 H 1.0007 0.7744 0.9042
H10 H 0.9909 0.6650 1.0048
H11 H 0.8510 0.8085 0.9648
C15 C 0.7441(3) 0.5376(2) 0.79979(15)
C16 C 0.8944(3) 0.4492(2) 0.78807(16)
C17 C 1.0366(3) 0.4755(3) 0.75032(18)
C18 C 1.1499(3) 0.3466(3) 0.7606(2)
H12 H 1.2552 0.3313 0.7425
C19 C 1.0808(3) 0.2435(3) 0.80254(19)
C20 C 1.0660(4) 0.6121(3) 0.7087(2)
H13 H 1.1704 0.5971 0.6832
H14 H 1.0618 0.6521 0.7587
H15 H 0.9849 0.6746 0.6573
C21 C 1.1565(4) 0.0900(3) 0.8260(2)
H16 H 1.1633 0.0442 0.8951
H17 H 1.2627 0.0698 0.8031
H18 H 1.0921 0.0568 0.7947
C22 C 0.6221(3) 0.4860(2) 0.84183(16)
C23 C 0.4644(3) 0.5524(3) 0.86560(19)
C24 C 0.4000(4) 0.4469(3) 0.9059(2)
H19 H 0.2976 0.4585 0.9285
C25 C 0.5122(3) 0.3207(3) 0.9074(2)
C26 C 0.3809(4) 0.7022(3) 0.8546(2)
H20 H 0.3380 0.7538 0.7885
H21 H 0.4563 0.7399 0.8711
H22 H 0.2946 0.7093 0.8971
C27 C 0.4958(4) 0.1789(3) 0.9444(3)
H23 H 0.5083 0.1413 0.8924
H24 H 0.3912 0.1857 0.9684
H25 H 0.5774 0.1185 0.9960
N1 N 0.9264(3) 0.3045(2) 0.81894(14)
N2 N 0.6470(3) 0.3423(2) 0.86988(15)
O1 O 0.8503(2) 0.67602(19) 0.89965(12)
F1 F 0.7696(3) 0.1744(3) 0.7931(2)
F2 F 0.8592(3) 0.1297(2) 0.94719(18)
B1A B 0.1980(4) 1.7683(3) 0.1415(2)
C1A C 0.5287(3) 1.0055(2) 0.45627(18)
C2A C 0.7036(4) 0.9446(3) 0.44281(19)
C3A C 0.7971(4) 1.0325(5) 0.4133(3)
H1A H 0.7499 1.1269 0.4051
C4A C 0.9556(6) 0.9833(8) 0.3962(4)
H2A H 1.0154 1.0435 0.3774
C5A C 1.0250(6) 0.8472(8) 0.4069(3)
H3A H 1.1328 0.8144 0.3947
C6A C 0.9401(6) 0.7560(6) 0.4353(3)
H4A H 0.9901 0.6622 0.4426
C7A C 0.7744(5) 0.8061(4) 0.4535(3)
H5A H 0.7151 0.7455 0.4725
C8A C 0.4237(3) 1.0864(2) 0.36360(17)
C9A C 0.3711(3) 1.0214(2) 0.31024(19)
H6A H 0.3986 0.9246 0.3339
C10A C 0.2791(3) 1.0963(3) 0.22294(19)
H7A H 0.2446 1.0500 0.1890
C11A C 0.2383(3) 1.2406(2) 0.18592(17)
C12A C 0.2912(3) 1.3085(2) 0.23717(16)
C13A C 0.3823(3) 1.2309(2) 0.32488(16)
H8A H 0.4169 1.2769 0.3589
C14A C 0.0703(4) 1.2642(4) 0.0528(2)
H9A H -0.0007 1.2256 0.0958
H10A H 0.0091 1.3350 -0.0048
H11A H 0.1490 1.1915 0.0352
C15A C 0.2559(3) 1.4624(2) 0.20021(15)
C16A C 0.1056(3) 1.5508(2) 0.21193(16)
C17A C -0.0366(3) 1.5245(3) 0.24968(18)
C18A C -0.1499(3) 1.6534(3) 0.2394(2)
H12A H -0.2552 1.6687 0.2575
C19A C -0.0808(3) 1.7565(3) 0.19746(19)
C20A C -0.0660(4) 1.3879(3) 0.2913(2)
H13A H -0.1704 1.4029 0.3168
H14A H -0.0618 1.3479 0.2413
H15A H 0.0151 1.3254 0.3427
C21A C -0.1565(4) 1.9100(3) 0.1740(2)
H16A H -0.1633 1.9558 0.1049
H17A H -0.2627 1.9302 0.1969
H18A H -0.0921 1.9432 0.2053
C22A C 0.3779(3) 1.5140(2) 0.15817(16)
C23A C 0.5356(3) 1.4476(3) 0.13440(19)
C24A C 0.6000(4) 1.5531(3) 0.0941(2)
H19A H 0.7024 1.5415 0.0715
C25A C 0.4878(3) 1.6793(3) 0.0926(2)
C26A C 0.6191(4) 1.2978(3) 0.1454(2)
H20A H 0.6620 1.2462 0.2115
H21A H 0.5437 1.2601 0.1289
H22A H 0.7054 1.2907 0.1029
C27A C 0.5042(4) 1.8211(3) 0.0556(3)
H23A H 0.4917 1.8587 0.1076
H24A H 0.6088 1.8143 0.0316
H25A H 0.4226 1.8815 0.0040
N1A N 0.0736(3) 1.6955(2) 0.18106(14)
N2A N 0.3530(3) 1.6577(2) 0.13012(15)
O1A O 0.1497(2) 1.32398(19) 0.10035(12)
F1A F 0.2304(3) 1.8256(3) 0.2069(2)
F2A F 0.1408(3) 1.8703(2) 0.05281(18)
Cl1? Cl 0.359(2) 0.5183(17) 0.4277(14)
C28? C 0.560(3) 0.469(3) 0.4045(19)
C29? C 0.381(3) 0.532(3) 0.544(2)
Cl2? Cl 0.501(4) 0.587(3) 0.453(3)
Cl3? Cl 0.5319(8) 0.4509(7) 0.6101(4)
C30? C 0.4217(17) 0.6211(12) 0.5345(9)
loop_
_geom_bond_atom_site_label_1
_geom_bond_atom_site_label_2
_geom_bond_site_symmetry_1
_geom_bond_site_symmetry_2
B1 N1 1_555 1_555
C1 C2 1_555 1_555
C2 C3 1_555 1_555
C3 H1 1_555 1_555
C4 C3 1_555 1_555
H2 C4 1_555 1_555
C5 C4 1_555 1_555
H3 C5 1_555 1_555
C6 C5 1_555 1_555
H4 C6 1_555 1_555
C7 C2 1_555 1_555
H5 C7 1_555 1_555
C8 C1 1_555 1_555
C9 C8 1_555 1_555
H6 C9 1_555 1_555
C10 C9 1_555 1_555
H7 C10 1_555 1_555
C11 C10 1_555 1_555
C12 C11 1_555 1_555
C13 C8 1_555 1_555
H8 C13 1_555 1_555
C14 H9 1_555 1_555
H10 C14 1_555 1_555
H11 C14 1_555 1_555
C15 C12 1_555 1_555
C16 C15 1_555 1_555
C17 C16 1_555 1_555
C18 C17 1_555 1_555
H12 C18 1_555 1_555
C19 C18 1_555 1_555
C20 C17 1_555 1_555
H13 C20 1_555 1_555
H14 C20 1_555 1_555
H15 C20 1_555 1_555
C21 C19 1_555 1_555
H16 C21 1_555 1_555
H17 C21 1_555 1_555
H18 C21 1_555 1_555
C22 C15 1_555 1_555
C23 C22 1_555 1_555
C24 C23 1_555 1_555
H19 C24 1_555 1_555
C25 C24 1_555 1_555
C26 C23 1_555 1_555
H20 C26 1_555 1_555
H21 C26 1_555 1_555
H22 C26 1_555 1_555
C27 C25 1_555 1_555
H23 C27 1_555 1_555
H24 C27 1_555 1_555
H25 C27 1_555 1_555
N1 C16 1_555 1_555
N2 B1 1_555 1_555
O1 C11 1_555 1_555
F1 B1 1_555 1_555
F2 B1 1_555 1_555
B1A N1A 1_555 1_555
C1A C1 1_555 1_555
C2A C1A 1_555 1_555
C3A C2A 1_555 1_555
H1A C3A 1_555 1_555
C4A C3A 1_555 1_555
H2A C4A 1_555 1_555
C5A C4A 1_555 1_555
H3A C5A 1_555 1_555
C6A C5A 1_555 1_555
H4A C6A 1_555 1_555
C7A C2A 1_555 1_555
H5A C7A 1_555 1_555
C8A C1A 1_555 1_555
C9A C8A 1_555 1_555
H6A C9A 1_555 1_555
C10A C9A 1_555 1_555
H7A C10A 1_555 1_555
C11A C10A 1_555 1_555
C12A C11A 1_555 1_555
C13A C8A 1_555 1_555
H8A C13A 1_555 1_555
C14A H9A 1_555 1_555
H10A C14A 1_555 1_555
H11A C14A 1_555 1_555
C15A C12A 1_555 1_555
C16A C15A 1_555 1_555
C17A C16A 1_555 1_555
C18A C17A 1_555 1_555
H12A C18A 1_555 1_555
C19A C18A 1_555 1_555
C20A C17A 1_555 1_555
H13A C20A 1_555 1_555
H14A C20A 1_555 1_555
H15A C20A 1_555 1_555
C21A C19A 1_555 1_555
H16A C21A 1_555 1_555
H17A C21A 1_555 1_555
H18A C21A 1_555 1_555
C22A C15A 1_555 1_555
C23A C22A 1_555 1_555
C24A C23A 1_555 1_555
H19A C24A 1_555 1_555
C25A C24A 1_555 1_555
C26A C23A 1_555 1_555
H20A C26A 1_555 1_555
H21A C26A 1_555 1_555
H22A C26A 1_555 1_555
C27A C25A 1_555 1_555
H23A C27A 1_555 1_555
H24A C27A 1_555 1_555
H25A C27A 1_555 1_555
N1A C16A 1_555 1_555
N2A B1A 1_555 1_555
O1A C11A 1_555 1_555
F1A B1A 1_555 1_555
F2A B1A 1_555 1_555
C6 C7 1_555 1_555
C12 C13 1_555 1_555
C14 O1 1_555 1_555
C19 N1 1_555 1_555
C22 N2 1_555 1_555
C25 N2 1_555 1_555
C6A C7A 1_555 1_555
C12A C13A 1_555 1_555
C14A O1A 1_555 1_555
C19A N1A 1_555 1_555
C22A N2A 1_555 1_555
C25A N2A 1_555 1_555

#END
