
#######################################################################
#
#                 Cambridge Crystallographic Data Centre
#                                CCDC 
#
#######################################################################
#
# If this CIF has been generated from an entry in the Cambridge 
# Structural Database, then it will include bibliographic, chemical, 
# crystal, experimental, refinement or atomic coordinate data resulting 
# from the CCDC's data processing and validation procedures.
#
#######################################################################

data_RADJUC
_chemical_formula_moiety         'C27 H25 N1 O7'
_chemical_name_systematic        
5-(4-Cyanophenyl)-4-methoxycarbonyl-4-phenyl-2-(2,4,6-trimethoxyphenyl)-1,3-dioxolane
_symmetry_cell_setting           monoclinic
_symmetry_space_group_name_H-M   'P 21/c'
_symmetry_Int_Tables_number      14
_space_group_name_Hall           '-P 2ybc'
loop_
_symmetry_equiv_pos_site_id
_symmetry_equiv_pos_as_xyz
1 x,y,z
2 x,1/2-y,1/2+z
3 -x,-y,-z
4 -x,1/2+y,1/2-z
_cell_length_a                   14.663(3)
_cell_length_b                   10.387(1)
_cell_length_c                   16.994(3)
_cell_angle_alpha                90
_cell_angle_beta                 110.84(1)
_cell_angle_gamma                90
_cell_volume                     2418.93
_cell_formula_units_Z            4
loop_
_atom_site_label
_atom_site_type_symbol
_atom_site_fract_x
_atom_site_fract_y
_atom_site_fract_z
O1 O 0.75451(9) 0.50011(12) 0.65826(8)
O2 O 0.65597(9) 0.65474(13) 0.68118(8)
O3 O 0.74315(10) 0.64288(13) 0.46543(8)
O4 O 0.67214(10) 0.46602(14) 0.49151(9)
O5 O 0.60258(10) 0.33344(14) 0.76487(8)
O6 O 0.84869(10) 0.39951(14) 1.04078(8)
O7 O 0.83800(9) 0.65503(13) 0.80763(8)
N1 N 0.31324(16) 0.9591(2) 0.29348(14)
C1 C 0.89658(15) 0.7650(2) 0.61746(13)
H1 H 0.8486 0.8257 0.5916
C2 C 0.99378(17) 0.7987(3) 0.63962(14)
H2 H 1.0106 0.8817 0.6295
C3 C 1.06506(17) 0.7099(3) 0.67640(16)
H3 H 1.1305 0.7315 0.6902
C4 C 1.03914(17) 0.5877(3) 0.69289(16)
H4 H 1.0872 0.5272 0.7189
C5 C 0.94130(15) 0.5551(2) 0.67067(14)
H5 H 0.9243 0.4725 0.6815
C6 C 0.86946(14) 0.6437(2) 0.63296(11)
C7 C 0.76171(13) 0.60504(17) 0.60798(11)
C8 C 0.69506(13) 0.71245(19) 0.62452(11)
H6 H 0.7363 0.7852 0.6528
C9 C 0.68301(14) 0.52300(19) 0.69548(11)
H7 H 0.6258 0.4691 0.6675
C10 C 0.72064(14) 0.5602(2) 0.51540(12)
C11 C 0.69921(19) 0.6169(3) 0.37617(13)
H8 H 0.7290 0.5420 0.3625
H9 H 0.7089 0.6895 0.3450
H10 H 0.6306 0.6020 0.3617
C12 C 0.61327(13) 0.76231(18) 0.54801(11)
C13 C 0.62528(15) 0.87233(19) 0.50639(13)
H11 H 0.6851 0.9147 0.5249
C14 C 0.54989(16) 0.9198(2) 0.43802(14)
H12 H 0.5591 0.9934 0.4106
C15 C 0.46080(15) 0.8579(2) 0.41041(12)
C16 C 0.44822(14) 0.74593(19) 0.44992(12)
H13 H 0.3889 0.7026 0.4305
C17 C 0.52405(13) 0.69950(19) 0.51797(12)
H14 H 0.5153 0.6245 0.5443
C18 C 0.37861(18) 0.9132(2) 0.34353(14)
C19 C 0.72280(13) 0.49115(18) 0.78720(11)
C20 C 0.68341(13) 0.39260(18) 0.82020(12)
C21 C 0.72376(13) 0.35692(19) 0.90477(11)
H15 H 0.6972 0.2896 0.9256
C22 C 0.80377(14) 0.42364(19) 0.95667(12)
C23 C 0.84354(13) 0.52428(19) 0.92648(12)
H16 H 0.8967 0.5696 0.9625
C24 C 0.80401(13) 0.55688(18) 0.84285(12)
C25 C 0.54950(15) 0.2458(2) 0.79666(13)
H17 H 0.5908 0.1747 0.8233
H18 H 0.4938 0.2145 0.7511
H19 H 0.5281 0.2889 0.8370
C26 C 0.81899(17) 0.2908(3) 1.07517(13)
H20 H 0.7514 0.2993 1.0683
H21 H 0.8576 0.2843 1.1340
H22 H 0.8278 0.2147 1.0466
C27 C 0.92311(16) 0.7208(2) 0.85892(15)
H23 H 0.9107 0.7620 0.9047
H24 H 0.9406 0.7846 0.8259
H25 H 0.9756 0.6604 0.8809
loop_
_geom_bond_atom_site_label_1
_geom_bond_atom_site_label_2
_geom_bond_site_symmetry_1
_geom_bond_site_symmetry_2
O1 C7 1_555 1_555
O2 C8 1_555 1_555
O3 C10 1_555 1_555
O4 C10 1_555 1_555
O5 C20 1_555 1_555
O6 C22 1_555 1_555
O7 C24 1_555 1_555
N1 C18 1_555 1_555
C1 H1 1_555 1_555
C2 C1 1_555 1_555
H2 C2 1_555 1_555
C3 C2 1_555 1_555
H3 C3 1_555 1_555
C4 C3 1_555 1_555
H4 C4 1_555 1_555
C5 C4 1_555 1_555
H5 C5 1_555 1_555
C6 C1 1_555 1_555
C7 C6 1_555 1_555
C8 C7 1_555 1_555
H6 C8 1_555 1_555
C9 O1 1_555 1_555
H7 C9 1_555 1_555
C10 C7 1_555 1_555
C11 O3 1_555 1_555
H8 C11 1_555 1_555
H9 C11 1_555 1_555
H10 C11 1_555 1_555
C12 C8 1_555 1_555
C13 C12 1_555 1_555
H11 C13 1_555 1_555
C14 C13 1_555 1_555
H12 C14 1_555 1_555
C15 C14 1_555 1_555
C16 C15 1_555 1_555
H13 C16 1_555 1_555
C17 C12 1_555 1_555
H14 C17 1_555 1_555
C18 C15 1_555 1_555
C19 C9 1_555 1_555
C20 C19 1_555 1_555
C21 C20 1_555 1_555
H15 C21 1_555 1_555
C22 C21 1_555 1_555
C23 C22 1_555 1_555
H16 C23 1_555 1_555
C24 C19 1_555 1_555
C25 O5 1_555 1_555
H17 C25 1_555 1_555
H18 C25 1_555 1_555
H19 C25 1_555 1_555
C26 O6 1_555 1_555
H20 C26 1_555 1_555
H21 C26 1_555 1_555
H22 C26 1_555 1_555
C27 O7 1_555 1_555
H23 C27 1_555 1_555
H24 C27 1_555 1_555
H25 C27 1_555 1_555
O2 C9 1_555 1_555
C5 C6 1_555 1_555
C16 C17 1_555 1_555
C23 C24 1_555 1_555

#END
