
#######################################################################
#
#                 Cambridge Crystallographic Data Centre
#                                CCDC 
#
#######################################################################
#
# If this CIF has been generated from an entry in the Cambridge 
# Structural Database, then it will include bibliographic, chemical, 
# crystal, experimental, refinement or atomic coordinate data resulting 
# from the CCDC's data processing and validation procedures.
#
#######################################################################

data_RADPOC
_chemical_formula_moiety         'C24 H24 N2 O6'
_chemical_name_systematic        
N,N'-m-(4,6-Dimethoxy)phenylene-bis(2-methoxy)benzamide
_symmetry_cell_setting           monoclinic
_symmetry_space_group_name_H-M   'P 21/n'
_symmetry_Int_Tables_number      14
_space_group_name_Hall           '-P 2yn'
loop_
_symmetry_equiv_pos_site_id
_symmetry_equiv_pos_as_xyz
1 x,y,z
2 1/2+x,1/2-y,1/2+z
3 -x,-y,-z
4 1/2-x,1/2+y,1/2-z
_cell_length_a                   8.0914(9)
_cell_length_b                   13.6806(15)
_cell_length_c                   20.184(2)
_cell_angle_alpha                90
_cell_angle_beta                 96.903(3)
_cell_angle_gamma                90
_cell_volume                     2218.08
_exptl_crystal_colour            colorless
_exptl_crystal_description       needles
_chemical_melting_point          206-208deg.C
_cell_formula_units_Z            4
_exptl_crystal_recrystallization_method 'ethyl acetate'
loop_
_atom_site_label
_atom_site_type_symbol
_atom_site_fract_x
_atom_site_fract_y
_atom_site_fract_z
O1 O 0.1983(2) -0.00544(12) -0.08625(9)
O2 O 0.1573(2) -0.16259(11) 0.12742(8)
O3 O 0.4369(3) 0.25614(12) 0.04473(10)
O4 O 0.3433(2) 0.19185(13) -0.15528(9)
O5 O 0.5420(2) 0.08407(11) 0.21681(8)
O6 O 0.2776(2) -0.14882(11) 0.28469(8)
N1 N 0.3764(2) 0.13430(15) -0.02838(11)
N2 N 0.3440(2) -0.03137(14) 0.18888(10)
C1 C 0.3232(3) 0.06019(16) 0.01365(12)
C2 C 0.2287(3) -0.01500(18) -0.01846(13)
C3 C 0.1711(3) -0.08989(19) 0.01793(15)
C4 C 0.2103(3) -0.09170(16) 0.08596(14)
C5 C 0.3084(3) -0.01897(16) 0.11904(12)
C6 C 0.3649(3) 0.05687(17) 0.08212(13)
C7 C 0.4254(3) 0.2258(2) -0.01222(14)
C8 C 0.4706(3) 0.29066(19) -0.06763(13)
C9 C 0.5551(4) 0.3762(2) -0.04735(18)
C10 C 0.6021(4) 0.4421(3) -0.0932(2)
C11 C 0.5654(4) 0.4234(3) -0.1599(2)
C12 C 0.4803(4) 0.3411(3) -0.18221(19)
C13 C 0.4317(3) 0.2743(2) -0.13574(15)
C14 C 0.4576(3) 0.01450(16) 0.23240(12)
C15 C 0.4789(3) -0.02397(16) 0.30271(12)
C16 C 0.5970(3) 0.0228(2) 0.34688(15)
C17 C 0.6342(4) -0.0052(2) 0.41210(17)
C18 C 0.5475(4) -0.0814(3) 0.43516(17)
C19 C 0.4297(4) -0.1315(2) 0.39366(15)
C20 C 0.3944(3) -0.10219(17) 0.32805(13)
C21 C 0.1268(6) -0.0850(3) -0.1239(2)
C22 C 0.0582(6) -0.2412(3) 0.0978(2)
C23 C 0.2608(7) 0.1835(3) -0.2217(2)
C24 C 0.1970(6) -0.2357(3) 0.3044(2)
H1 H 0.111(2) -0.1412(11) -0.0036(9)
H2 H 0.433(2) 0.1061(12) 0.1036(9)
H3 H 0.579(3) 0.3855(17) 0.0032(13)
H4 H 0.651(4) 0.502(2) -0.0802(17)
H5 H 0.579(3) 0.4688(17) -0.1945(13)
H6 H 0.448(3) 0.3291(17) -0.2282(12)
H7 H 0.654(2) 0.0756(12) 0.3280(9)
H8 H 0.707(3) 0.0316(15) 0.4431(11)
H9 H 0.572(3) -0.0992(14) 0.4800(11)
H10 H 0.371(3) -0.1869(15) 0.4079(11)
H11 H 0.114(3) -0.0618(18) -0.1704(13)
H12 H 0.007(3) -0.1064(17) -0.1121(12)
H13 H 0.191(3) -0.1477(15) -0.1120(11)
H14 H -0.038(5) -0.214(2) 0.0713(18)
H15 H 0.121(4) -0.2724(19) 0.0674(14)
H16 H 0.042(3) -0.2783(17) 0.1385(13)
H17 H 0.207(3) 0.2442(16) -0.2335(11)
H18 H 0.350(4) 0.185(2) -0.2461(16)
H19 H 0.199(3) 0.1219(18) -0.2239(13)
H20 H 0.127(3) -0.2612(17) 0.2608(13)
H21 H 0.274(3) -0.2830(18) 0.3236(14)
H22 H 0.140(3) -0.2173(18) 0.3468(14)
H23 H 0.359(3) 0.1192(16) -0.0765(12)
H24 H 0.282(3) -0.0889(15) 0.2067(11)
loop_
_geom_bond_atom_site_label_1
_geom_bond_atom_site_label_2
_geom_bond_site_symmetry_1
_geom_bond_site_symmetry_2
O1 C2 1_555 1_555
O2 C4 1_555 1_555
O3 C7 1_555 1_555
O4 C13 1_555 1_555
O5 C14 1_555 1_555
O6 C20 1_555 1_555
N1 C1 1_555 1_555
N2 C5 1_555 1_555
C1 C2 1_555 1_555
C2 C3 1_555 1_555
C3 C4 1_555 1_555
C4 C5 1_555 1_555
C5 C6 1_555 1_555
C6 C1 1_555 1_555
C7 N1 1_555 1_555
C8 C7 1_555 1_555
C9 C8 1_555 1_555
C10 C9 1_555 1_555
C11 C10 1_555 1_555
C12 C11 1_555 1_555
C13 C8 1_555 1_555
C14 N2 1_555 1_555
C15 C14 1_555 1_555
C16 C15 1_555 1_555
C17 C16 1_555 1_555
C18 C17 1_555 1_555
C19 C18 1_555 1_555
C20 C15 1_555 1_555
C21 O1 1_555 1_555
C22 O2 1_555 1_555
C23 O4 1_555 1_555
C24 O6 1_555 1_555
H1 C3 1_555 1_555
H2 C6 1_555 1_555
H3 C9 1_555 1_555
H4 C10 1_555 1_555
H5 C11 1_555 1_555
H6 C12 1_555 1_555
H7 C16 1_555 1_555
H8 C17 1_555 1_555
H9 C18 1_555 1_555
H10 C19 1_555 1_555
H11 C21 1_555 1_555
H12 C21 1_555 1_555
H13 C21 1_555 1_555
H14 C22 1_555 1_555
H15 C22 1_555 1_555
H16 C22 1_555 1_555
H17 C23 1_555 1_555
H18 C23 1_555 1_555
H19 C23 1_555 1_555
H20 C24 1_555 1_555
H21 C24 1_555 1_555
H22 C24 1_555 1_555
H23 N1 1_555 1_555
H24 N2 1_555 1_555
C12 C13 1_555 1_555
C19 C20 1_555 1_555

#END
