
#######################################################################
#
#                 Cambridge Crystallographic Data Centre
#                                CCDC 
#
#######################################################################
#
# If this CIF has been generated from an entry in the Cambridge 
# Structural Database, then it will include bibliographic, chemical, 
# crystal, experimental, refinement or atomic coordinate data resulting 
# from the CCDC's data processing and validation procedures.
#
#######################################################################

data_RADWAX
_chemical_formula_moiety         'C30 H23 Cl1 F3 N1 O7,0.5(C6 H6)'
_chemical_name_systematic        
"ethyl 4-(2-chlorophenyl)-2-hydroxy-5-nitro-1',3'-dioxo-6-phenyl-2-(trifluoromethyl)-1',3'-dihydrospiro[cyclohexane-1,2'-indene]-3-carboxylate benzene solvate"
_symmetry_cell_setting           monoclinic
_symmetry_space_group_name_H-M   'P 21'
_symmetry_Int_Tables_number      4
_space_group_name_Hall           'P 2yb'
loop_
_symmetry_equiv_pos_site_id
_symmetry_equiv_pos_as_xyz
1 x,y,z
2 -x,1/2+y,-z
_cell_length_a                   11.7848(8)
_cell_length_b                   13.1600(12)
_cell_length_c                   21.7028(10)
_cell_angle_alpha                90
_cell_angle_beta                 103.653(9)
_cell_angle_gamma                90
_cell_volume                     3270.73
_exptl_crystal_colour            colorless
_exptl_crystal_description       needle
_cell_formula_units_Z            4
loop_
_atom_site_label
_atom_site_type_symbol
_atom_site_fract_x
_atom_site_fract_y
_atom_site_fract_z
C1 C 0.8303(2) 0.79718(18) 0.35468(13)
C2 C 0.71120(19) 0.84912(16) 0.36005(11)
C3 C 0.60681(19) 0.81156(16) 0.30760(11)
H1 H 0.6049 0.7374 0.3114
C4 C 0.6260(2) 0.83446(18) 0.24141(11)
H2 H 0.5987 0.9036 0.2293
C5 C 0.7550(2) 0.82533(18) 0.23741(12)
H3 H 0.7907 0.8916 0.2502
C6 C 0.8184(2) 0.74875(19) 0.28760(13)
H4 H 0.7771 0.6836 0.2839
C7 C 0.8709(2) 0.7132(2) 0.40468(15)
C8 C 0.7304(2) 0.96642(16) 0.36092(11)
C9 C 0.7455(2) 1.00183(17) 0.42712(11)
C10 C 0.7789(2) 1.09792(18) 0.45212(12)
H5 H 0.8018 1.1485 0.4277
C11 C 0.7765(2) 1.1148(2) 0.51472(13)
H6 H 0.7988 1.1780 0.5328
C12 C 0.7413(3) 1.0390(2) 0.55161(13)
H7 H 0.7393 1.0532 0.5933
C13 C 0.7092(2) 0.9430(2) 0.52686(13)
H8 H 0.6864 0.8924 0.5513
C14 C 0.7125(2) 0.92533(18) 0.46398(11)
C15 C 0.6830(2) 0.83171(18) 0.42618(11)
C16 C 0.48795(19) 0.85027(17) 0.31353(11)
C17 C 0.4526(2) 0.95085(19) 0.29948(12)
H9 H 0.5038 0.9969 0.2879
C18 C 0.3415(2) 0.9825(2) 0.30263(14)
H10 H 0.3189 1.0496 0.2935
C19 C 0.2641(2) 0.9139(2) 0.31942(15)
H11 H 0.1895 0.9349 0.3212
C20 C 0.2984(2) 0.8141(2) 0.33356(14)
H12 H 0.2466 0.7683 0.3448
C21 C 0.4101(2) 0.78199(19) 0.33102(12)
H13 H 0.4328 0.7151 0.3410
C22 C 0.7669(2) 0.8075(2) 0.17032(13)
C23 C 0.7721(3) 0.8891(2) 0.13037(15)
C24 C 0.7777(4) 0.8743(3) 0.06774(17)
H14 H 0.7810 0.9298 0.0417
C25 C 0.7785(4) 0.7760(4) 0.04437(18)
H15 H 0.7812 0.7656 0.0024
C26 C 0.7751(4) 0.6929(3) 0.08389(18)
H16 H 0.7777 0.6271 0.0687
C27 C 0.7677(3) 0.7090(2) 0.14579(16)
H17 H 0.7631 0.6535 0.1716
C28 C 0.9402(6) 0.7377(6) 0.2712(4)
C29 C 1.0705(5) 0.6193(5) 0.2429(4)
H18 H 1.1308 0.6326 0.2810
H19 H 1.0855 0.6611 0.2089
C30 C 1.0705(6) 0.5104(6) 0.2257(4)
H20 H 1.0543 0.4699 0.2594
H21 H 1.1455 0.4923 0.2190
H22 H 1.0115 0.4985 0.1875
Cl1 Cl 0.77139(8) 1.01371(6) 0.15754(4)
F1 F 0.79602(15) 0.63522(12) 0.39707(9)
F2 F 0.97429(15) 0.67544(15) 0.39851(11)
F3 F 0.88841(15) 0.74662(13) 0.46422(8)
N1 N 0.5521(2) 0.75948(18) 0.19505(11)
O1 O 0.91660(16) 0.87384(14) 0.36880(10)
H23 H 0.9696 0.8604 0.3515
O2 O 0.72613(16) 1.01898(13) 0.31458(8)
O3 O 0.64003(17) 0.75464(14) 0.44128(9)
O4 O 0.4895(2) 0.7946(2) 0.14712(11)
O5 O 0.56344(19) 0.66862(16) 0.20787(10)
O6 O 1.0177(11) 0.7990(9) 0.2849(6)
O7 O 0.9559(7) 0.6427(5) 0.2538(4)
C34 C 0.6640(2) 0.31200(18) 0.22256(12)
C35 C 0.5359(2) 0.30799(18) 0.17978(11)
C36 C 0.4564(3) 0.38833(19) 0.20049(12)
H30 H 0.4960 0.4540 0.2012
C37 C 0.4474(2) 0.36665(19) 0.26890(11)
H31 H 0.3907 0.3119 0.2681
C38 C 0.5654(2) 0.33508(18) 0.31325(11)
H32 H 0.5673 0.2607 0.3123
C39 C 0.6674(2) 0.37139(18) 0.28561(12)
H33 H 0.6597 0.4444 0.2768
C40 C 0.7518(3) 0.3650(2) 0.18983(14)
C41 C 0.4903(3) 0.19655(18) 0.18146(12)
C42 C 0.4933(3) 0.1481(2) 0.12058(12)
C43 C 0.4726(3) 0.0466(2) 0.10345(15)
H34 H 0.4546 -0.0008 0.1315
C44 C 0.4799(4) 0.0192(3) 0.04272(16)
H35 H 0.4674 -0.0481 0.0298
C45 C 0.5059(4) 0.0918(3) 0.00036(17)
H36 H 0.5114 0.0712 -0.0398
C46 C 0.5236(3) 0.1934(2) 0.01715(14)
H37 H 0.5386 0.2416 -0.0113
C47 C 0.5180(3) 0.2200(2) 0.07834(13)
C48 C 0.5316(3) 0.3215(2) 0.10833(12)
C49 C 0.3373(3) 0.4001(3) 0.15672(13)
C50 C 0.2530(3) 0.3235(3) 0.14845(17)
H38 H 0.2698 0.2622 0.1700
C51 C 0.1438(4) 0.3390(5) 0.1079(2)
H39 H 0.0872 0.2885 0.1025
C52 C 0.1198(5) 0.4310(5) 0.0754(2)
H40 H 0.0473 0.4411 0.0478
C53 C 0.2013(5) 0.5060(5) 0.0838(2)
H41 H 0.1837 0.5672 0.0622
C54 C 0.3109(4) 0.4923(3) 0.12432(17)
H42 H 0.3661 0.5441 0.1298
C55 C 0.5761(2) 0.36417(19) 0.38199(11)
C56 C 0.5491(2) 0.29508(19) 0.42566(11)
C57 C 0.5616(2) 0.3203(2) 0.48886(12)
H43 H 0.5466 0.2722 0.5173
C58 C 0.5968(3) 0.4178(3) 0.50947(13)
H44 H 0.6042 0.4355 0.5517
C59 C 0.6207(3) 0.4885(2) 0.46706(14)
H45 H 0.6426 0.5542 0.4806
C60 C 0.6120(3) 0.4615(2) 0.40443(13)
H46 H 0.6305 0.5091 0.3767
C61 C 0.7818(2) 0.35070(18) 0.33348(12)
C62 C 0.9542(3) 0.4208(2) 0.39859(18)
H47 H 1.0075 0.4750 0.3942
H48 H 0.9893 0.3567 0.3909
C63 C 0.9357(4) 0.4215(3) 0.46470(19)
H49 H 0.8934 0.4815 0.4708
H50 H 1.0100 0.4210 0.4947
H51 H 0.8919 0.3624 0.4709
Cl2 Cl 0.49614(6) 0.17443(4) 0.40060(3)
F4 F 0.7244(2) 0.46214(14) 0.17586(9)
F5 F 0.85967(18) 0.36401(17) 0.22803(10)
F6 F 0.75987(19) 0.31763(16) 0.13639(9)
N2 N 0.4014(2) 0.46277(18) 0.29293(11)
O10 O 0.7028(2) 0.21099(14) 0.23214(9)
H52 H 0.7395 0.2037 0.2690
O11 O 0.4540(2) 0.15996(14) 0.22405(9)
O12 O 0.5333(2) 0.40209(16) 0.08213(10)
O13 O 0.3203(2) 0.4532(2) 0.31945(12)
O14 O 0.4477(3) 0.54337(16) 0.28578(11)
O15 O 0.8114(2) 0.26575(14) 0.35201(10)
O16 O 0.84321(19) 0.43443(14) 0.35167(11)
C64 C 1.0638(4) 1.1026(3) 0.3741(2)
H53 H 1.0451 1.0595 0.4042
C65 C 0.9984(3) 1.1009(3) 0.3125(2)
H54 H 0.9361 1.0559 0.3009
C66 C 1.0248(3) 1.1653(3) 0.26828(17)
H55 H 0.9801 1.1640 0.2268
C67 C 1.1172(3) 1.2320(3) 0.28482(17)
H56 H 1.1344 1.2759 0.2547
C68 C 1.1839(3) 1.2334(3) 0.34620(18)
H57 H 1.2467 1.2778 0.3575
C69 C 1.1574(3) 1.1685(3) 0.39116(17)
H58 H 1.2024 1.1693 0.4326
H24? H 0.7702 0.6875 0.2848
C31? C 0.9392(5) 0.7180(5) 0.2827(3)
C32? C 1.0569(7) 0.5717(7) 0.2691(4)
H25? H 1.0593 0.5019 0.2838
H26? H 1.1214 0.6084 0.2960
C33? C 1.0667(10) 0.5747(12) 0.2026(5)
H27? H 1.0543 0.6430 0.1868
H28? H 1.0089 0.5308 0.1774
H29? H 1.1431 0.5524 0.2003
O8? O 1.0078(14) 0.7822(13) 0.2744(7)
O9? O 0.9473(5) 0.6182(5) 0.2723(3)
loop_
_geom_bond_atom_site_label_1
_geom_bond_atom_site_label_2
_geom_bond_site_symmetry_1
_geom_bond_site_symmetry_2
C1 C2 1_555 1_555
C2 C3 1_555 1_555
C3 H1 1_555 1_555
C4 C3 1_555 1_555
H2 C4 1_555 1_555
C5 C4 1_555 1_555
H3 C5 1_555 1_555
C6 C1 1_555 1_555
H4 C6 1_555 1_555
C7 C1 1_555 1_555
C8 C2 1_555 1_555
C9 C8 1_555 1_555
C10 C9 1_555 1_555
H5 C10 1_555 1_555
C11 C10 1_555 1_555
H6 C11 1_555 1_555
C12 C11 1_555 1_555
H7 C12 1_555 1_555
C13 C12 1_555 1_555
H8 C13 1_555 1_555
C14 C9 1_555 1_555
C15 C2 1_555 1_555
C16 C3 1_555 1_555
C17 C16 1_555 1_555
H9 C17 1_555 1_555
C18 C17 1_555 1_555
H10 C18 1_555 1_555
C19 C18 1_555 1_555
H11 C19 1_555 1_555
C20 C19 1_555 1_555
H12 C20 1_555 1_555
C21 C16 1_555 1_555
H13 C21 1_555 1_555
C22 C5 1_555 1_555
C23 C22 1_555 1_555
C24 C23 1_555 1_555
H14 C24 1_555 1_555
C25 C24 1_555 1_555
H15 C25 1_555 1_555
C26 C25 1_555 1_555
H16 C26 1_555 1_555
C27 C22 1_555 1_555
H17 C27 1_555 1_555
C28 C6 1_555 1_555
C29 H18 1_555 1_555
H19 C29 1_555 1_555
C30 C29 1_555 1_555
H20 C30 1_555 1_555
H21 C30 1_555 1_555
H22 C30 1_555 1_555
Cl1 C23 1_555 1_555
F1 C7 1_555 1_555
F2 C7 1_555 1_555
F3 C7 1_555 1_555
N1 C4 1_555 1_555
O1 C1 1_555 1_555
H23 O1 1_555 1_555
O2 C8 1_555 1_555
O3 C15 1_555 1_555
O4 N1 1_555 1_555
O5 N1 1_555 1_555
O6 C28 1_555 1_555
O7 C28 1_555 1_555
C34 C35 1_555 1_555
C35 C36 1_555 1_555
C36 H30 1_555 1_555
C37 C36 1_555 1_555
H31 C37 1_555 1_555
C38 C37 1_555 1_555
H32 C38 1_555 1_555
C39 C34 1_555 1_555
H33 C39 1_555 1_555
C40 C34 1_555 1_555
C41 C35 1_555 1_555
C42 C41 1_555 1_555
C43 C42 1_555 1_555
H34 C43 1_555 1_555
C44 C43 1_555 1_555
H35 C44 1_555 1_555
C45 C44 1_555 1_555
H36 C45 1_555 1_555
C46 C45 1_555 1_555
H37 C46 1_555 1_555
C47 C42 1_555 1_555
C48 C35 1_555 1_555
C49 C36 1_555 1_555
C50 C49 1_555 1_555
H38 C50 1_555 1_555
C51 C50 1_555 1_555
H39 C51 1_555 1_555
C52 C51 1_555 1_555
H40 C52 1_555 1_555
C53 C52 1_555 1_555
H41 C53 1_555 1_555
C54 C49 1_555 1_555
H42 C54 1_555 1_555
C55 C38 1_555 1_555
C56 C55 1_555 1_555
C57 C56 1_555 1_555
H43 C57 1_555 1_555
C58 C57 1_555 1_555
H44 C58 1_555 1_555
C59 C58 1_555 1_555
H45 C59 1_555 1_555
C60 C55 1_555 1_555
H46 C60 1_555 1_555
C61 C39 1_555 1_555
C62 H47 1_555 1_555
H48 C62 1_555 1_555
C63 C62 1_555 1_555
H49 C63 1_555 1_555
H50 C63 1_555 1_555
H51 C63 1_555 1_555
Cl2 C56 1_555 1_555
F4 C40 1_555 1_555
F5 C40 1_555 1_555
F6 C40 1_555 1_555
N2 C37 1_555 1_555
O10 C34 1_555 1_555
H52 O10 1_555 1_555
O11 C41 1_555 1_555
O12 C48 1_555 1_555
O13 N2 1_555 1_555
O14 N2 1_555 1_555
O15 C61 1_555 1_555
O16 C61 1_555 1_555
C64 H53 1_555 1_555
C65 C64 1_555 1_555
H54 C65 1_555 1_555
C66 C65 1_555 1_555
H55 C66 1_555 1_555
C67 C66 1_555 1_555
H56 C67 1_555 1_555
C68 C67 1_555 1_555
H57 C68 1_555 1_555
C69 C64 1_555 1_555
H58 C69 1_555 1_555
C5 C6 1_555 1_555
C13 C14 1_555 1_555
C14 C15 1_555 1_555
C20 C21 1_555 1_555
C26 C27 1_555 1_555
C29 O7 1_555 1_555
C38 C39 1_555 1_555
C46 C47 1_555 1_555
C47 C48 1_555 1_555
C53 C54 1_555 1_555
C59 C60 1_555 1_555
C62 O16 1_555 1_555
C68 C69 1_555 1_555

#END
