
#######################################################################
#
#                 Cambridge Crystallographic Data Centre
#                                CCDC 
#
#######################################################################
#
# If this CIF has been generated from an entry in the Cambridge 
# Structural Database, then it will include bibliographic, chemical, 
# crystal, experimental, refinement or atomic coordinate data resulting 
# from the CCDC's data processing and validation procedures.
#
#######################################################################

data_RAFGUB
_chemical_formula_moiety         'C22 H19 N1 O2'
_chemical_name_systematic        
trans-4-(N-(4-(Methoxycarbonyl)phenyl)amino)stilbene
_symmetry_cell_setting           monoclinic
_symmetry_space_group_name_H-M   'C c'
_symmetry_Int_Tables_number      9
_space_group_name_Hall           'C -2yc'
loop_
_symmetry_equiv_pos_site_id
_symmetry_equiv_pos_as_xyz
1 x,y,z
2 x,-y,1/2+z
3 1/2+x,1/2+y,z
4 1/2+x,1/2-y,1/2+z
_cell_length_a                   38.704(4)
_cell_length_b                   7.4399(8)
_cell_length_c                   5.9673(6)
_cell_angle_alpha                90
_cell_angle_beta                 92.970(2)
_cell_angle_gamma                90
_cell_volume                     1716
_exptl_crystal_colour            colorless
_exptl_crystal_description       columnar
_chemical_melting_point          '176-177 deg.C'
_cell_formula_units_Z            4
loop_
_atom_site_label
_atom_site_type_symbol
_atom_site_fract_x
_atom_site_fract_y
_atom_site_fract_z
O1 O 0.33172(6) 0.8053(4) 0.2437(4)
O2 O 0.35327(5) 0.6912(3) -0.0660(3)
N1 N 0.49257(6) 0.7480(3) 0.5375(3)
C1 C 0.70577(10) 0.6678(4) 0.0925(5)
C2 C 0.73833(8) 0.6740(4) 0.0099(5)
C3 C 0.74388(7) 0.7550(4) -0.1888(6)
C4 C 0.71645(8) 0.8315(4) -0.3091(4)
C5 C 0.68394(7) 0.8262(3) -0.2300(5)
C6 C 0.67770(8) 0.7465(3) -0.0259(5)
C7 C 0.63925(11) 0.7715(5) 0.0207(7)
C9 C 0.62777(10) 0.7246(5) 0.2149(8)
C11 C 0.59058(7) 0.7537(4) 0.2558(6)
C12 C 0.56172(7) 0.8272(4) 0.1411(4)
C13 C 0.52923(6) 0.8250(3) 0.2271(4)
C14 C 0.52452(6) 0.7455(3) 0.4355(3)
C15 C 0.55324(7) 0.6705(3) 0.5519(4)
C16 C 0.58494(8) 0.6752(3) 0.4653(6)
C17 C 0.45967(6) 0.7502(2) 0.4333(3)
C18 C 0.45248(6) 0.6743(3) 0.2200(4)
C19 C 0.41923(6) 0.6735(3) 0.1270(4)
C20 C 0.39198(6) 0.7462(3) 0.2422(4)
C21 C 0.39904(6) 0.8177(3) 0.4551(4)
C22 C 0.43217(6) 0.8219(3) 0.5486(4)
C23 C 0.35592(7) 0.7516(3) 0.1458(4)
C24 C 0.31893(10) 0.7048(5) -0.1769(7)
H1 H 0.4932 0.7493 0.6682
H2 H 0.7014 0.6097 0.2454
H3 H 0.7558 0.6037 0.0805
H4 H 0.7661 0.7591 -0.2213
H5 H 0.7208 0.8785 -0.4543
H6 H 0.6638 0.8815 -0.3119
H7 H 0.6219 0.8356 -0.0840
H8 H 0.6480 0.6418 0.2868
H9 H 0.5634 0.8893 0.0048
H10 H 0.5079 0.8766 0.1421
H11 H 0.5492 0.6067 0.6944
H12 H 0.6040 0.6259 0.5333
H13 H 0.4710 0.6277 0.1382
H14 H 0.4139 0.6205 -0.0150
H15 H 0.3798 0.8690 0.5295
H16 H 0.4351 0.8766 0.6900
H17 H 0.3096 0.8308 -0.1709
H18 H 0.3218 0.7077 -0.3402
H19 H 0.3120 0.6103 -0.1993
C8? C 0.65020(16) 0.7108(7) 0.1369(10)
C10? C 0.61949(14) 0.7898(8) 0.0945(9)
loop_
_geom_bond_atom_site_label_1
_geom_bond_atom_site_label_2
_geom_bond_site_symmetry_1
_geom_bond_site_symmetry_2
O1 C23 1_555 1_555
O2 C23 1_555 1_555
N1 C14 1_555 1_555
C1 C2 1_555 1_555
C2 C3 1_555 1_555
C3 C4 1_555 1_555
C4 C5 1_555 1_555
C5 C6 1_555 1_555
C6 C1 1_555 1_555
C7 C6 1_555 1_555
C9 C7 1_555 1_555
C11 C9 1_555 1_555
C12 C11 1_555 1_555
C13 C12 1_555 1_555
C14 C13 1_555 1_555
C15 C14 1_555 1_555
C16 C11 1_555 1_555
C17 N1 1_555 1_555
C18 C17 1_555 1_555
C19 C18 1_555 1_555
C20 C19 1_555 1_555
C21 C20 1_555 1_555
C22 C17 1_555 1_555
C23 C20 1_555 1_555
C24 O2 1_555 1_555
H1 N1 1_555 1_555
H2 C1 1_555 1_555
H3 C2 1_555 1_555
H4 C3 1_555 1_555
H5 C4 1_555 1_555
H6 C5 1_555 1_555
H7 C7 1_555 1_555
H8 C9 1_555 1_555
H9 C12 1_555 1_555
H10 C13 1_555 1_555
H11 C15 1_555 1_555
H12 C16 1_555 1_555
H13 C18 1_555 1_555
H14 C19 1_555 1_555
H15 C21 1_555 1_555
H16 C22 1_555 1_555
H17 C24 1_555 1_555
H18 C24 1_555 1_555
H19 C24 1_555 1_555
C15 C16 1_555 1_555
C21 C22 1_555 1_555

#END
