
#######################################################################
#
#                 Cambridge Crystallographic Data Centre
#                                CCDC 
#
#######################################################################
#
# If this CIF has been generated from an entry in the Cambridge 
# Structural Database, then it will include bibliographic, chemical, 
# crystal, experimental, refinement or atomic coordinate data resulting 
# from the CCDC's data processing and validation procedures.
#
#######################################################################

data_RAFJOZ
_chemical_formula_moiety         'C18 H11 Br1 N2 O4'
_chemical_name_systematic        
'Ethyl 9-bromo-5,12-dioxo-5,12-dihydroindolizino[2,3-g]quinoline-6-carboxylate'
_chemical_properties_biological  'antimicrobial activity'
_symmetry_cell_setting           monoclinic
_symmetry_space_group_name_H-M   'P 21/c'
_symmetry_Int_Tables_number      14
_space_group_name_Hall           '-P 2ybc'
loop_
_symmetry_equiv_pos_site_id
_symmetry_equiv_pos_as_xyz
1 x,y,z
2 -x,1/2+y,1/2-z
3 -x,-y,-z
4 x,1/2-y,1/2+z
_cell_length_a                   7.1719(3)
_cell_length_b                   12.1221(5)
_cell_length_c                   17.0506(8)
_cell_angle_alpha                90
_cell_angle_beta                 90.658(4)
_cell_angle_gamma                90
_cell_volume                     1482.26
_exptl_crystal_colour            orange
_exptl_crystal_description       block
_cell_formula_units_Z            4
loop_
_atom_site_label
_atom_site_type_symbol
_atom_site_fract_x
_atom_site_fract_y
_atom_site_fract_z
Br1 Br 0.49756(4) 0.54889(2) 0.146175(15)
O1 O 0.2488(3) 0.70904(15) -0.11310(11)
O2 O 0.3821(3) 1.12859(16) 0.15641(11)
N1 N 0.3262(3) 0.82783(17) 0.03280(11)
C1 C 0.2295(4) 1.3078(2) 0.09076(16)
H1 H 0.3594 1.3243 0.1020
H2 H 0.1599 1.3135 0.1390
O3 O 0.2109(3) 1.19839(15) 0.05754(11)
C2 C 0.4361(3) 0.6964(2) 0.12337(15)
O4 O 0.1317(4) 1.14990(16) -0.09045(11)
C3 C 0.1541(4) 1.0512(2) -0.09203(15)
C4 C 0.3718(3) 0.7198(2) 0.05004(14)
H3 H 0.3589 0.6646 0.0125
C5 C 0.1300(3) 0.8739(2) -0.17233(14)
C6 C 0.1036(3) 0.9879(2) -0.16494(14)
C7 C 0.4589(4) 0.7787(2) 0.18155(15)
H4 H 0.5031 0.7605 0.2314
C8 C 0.1522(4) 1.3863(2) 0.02983(17)
H5 H 0.2248 1.3813 -0.0170
H6 H 0.1576 1.4604 0.0497
H7 H 0.0250 1.3673 0.0180
C9 C 0.0227(4) 1.0447(2) -0.22771(15)
H8 H 0.0046 1.1206 -0.2252
N2 N 0.0779(3) 0.81627(18) -0.23602(12)
C10 C 0.2160(3) 0.8083(2) -0.10670(14)
C11 C 0.2289(3) 0.9846(2) -0.02555(14)
C12 C 0.3473(3) 0.9128(2) 0.08761(14)
C13 C 0.2882(3) 1.0114(2) 0.05189(14)
C14 C 0.2998(3) 1.1174(2) 0.09462(14)
C15 C 0.2546(3) 0.8712(2) -0.03648(14)
C16 C 0.4149(3) 0.8852(2) 0.16343(14)
H9 H 0.4295 0.9401 0.2011
C17 C -0.0010(4) 0.8722(2) -0.29512(14)
H10 H -0.0385 0.8332 -0.3396
C18 C -0.0302(4) 0.9858(2) -0.29380(15)
H11 H -0.0844 1.0214 -0.3367
loop_
_geom_bond_atom_site_label_1
_geom_bond_atom_site_label_2
_geom_bond_site_symmetry_1
_geom_bond_site_symmetry_2
Br1 C2 1_555 1_555
O1 C10 1_555 1_555
O2 C14 1_555 1_555
N1 C4 1_555 1_555
C1 H1 1_555 1_555
H2 C1 1_555 1_555
O3 C1 1_555 1_555
C2 C4 1_555 1_555
O4 C3 1_555 1_555
C3 C6 1_555 1_555
C4 H3 1_555 1_555
C5 C6 1_555 1_555
C6 C9 1_555 1_555
C7 C2 1_555 1_555
H4 C7 1_555 1_555
C8 C1 1_555 1_555
H5 C8 1_555 1_555
H6 C8 1_555 1_555
H7 C8 1_555 1_555
C9 H8 1_555 1_555
N2 C5 1_555 1_555
C10 C5 1_555 1_555
C11 C3 1_555 1_555
C12 N1 1_555 1_555
C13 C11 1_555 1_555
C14 O3 1_555 1_555
C15 N1 1_555 1_555
C16 C7 1_555 1_555
H9 C16 1_555 1_555
C17 N2 1_555 1_555
H10 C17 1_555 1_555
C18 C9 1_555 1_555
H11 C18 1_555 1_555
C10 C15 1_555 1_555
C11 C15 1_555 1_555
C12 C13 1_555 1_555
C12 C16 1_555 1_555
C13 C14 1_555 1_555
C17 C18 1_555 1_555

#END
