
#######################################################################
#
#                 Cambridge Crystallographic Data Centre
#                                CCDC 
#
#######################################################################
#
# If this CIF has been generated from an entry in the Cambridge 
# Structural Database, then it will include bibliographic, chemical, 
# crystal, experimental, refinement or atomic coordinate data resulting 
# from the CCDC's data processing and validation procedures.
#
#######################################################################

data_RAFNIY
_chemical_formula_moiety         'C82 H60 F10 N4 S4,6(C2 H1 F3 O2)'
_chemical_name_systematic        
'2,9,19,26-tetramesityl-14,31-bis(pentafluorophenyl)-4,7,21,24-tetrathia-35,36,39,40-tetraazanonacyclo[30.2.1.1^3,6^.1^5,8^.1^10,13^.1^15,18^.1^20,23^.1^22,25^.1^27,30^]dotetraconta-1,3(42),5,8(41),9,11,13,15,17,19,22(37),23(38),25,27,29,31,33-heptadecaene trifluoroacetic acid solvate'
_symmetry_cell_setting           triclinic
_symmetry_space_group_name_H-M   'P -1'
_symmetry_Int_Tables_number      2
_space_group_name_Hall           '-P 1'
loop_
_symmetry_equiv_pos_site_id
_symmetry_equiv_pos_as_xyz
1 x,y,z
2 -x,-y,-z
_cell_length_a                   12.0743(16)
_cell_length_b                   13.2209(18)
_cell_length_c                   17.073(2)
_cell_angle_alpha                71.182(3)
_cell_angle_beta                 73.445(3)
_cell_angle_gamma                83.504(3)
_cell_volume                     2472.12
_exptl_crystal_colour            blue
_exptl_crystal_description       block
_chemical_melting_point          '300 deg.C'
_cell_formula_units_Z            1
loop_
_atom_site_label
_atom_site_type_symbol
_atom_site_fract_x
_atom_site_fract_y
_atom_site_fract_z
C1 C -0.0128(2) 0.23840(19) 1.04020(14)
C2 C -0.1030(2) 0.3054(2) 1.06497(15)
C3 C -0.2132(2) 0.2700(2) 1.10844(17)
C4 C -0.2368(2) 0.1638(2) 1.12616(17)
C5 C -0.1497(2) 0.0950(2) 1.10204(16)
C6 C -0.0399(2) 0.13181(19) 1.06065(15)
C7 C 0.1052(2) 0.28075(19) 0.99606(14)
C8 C 0.1551(2) 0.27916(19) 0.91175(14)
C9 C 0.1044(2) 0.24359(19) 0.85911(15)
H1 H 0.0296 0.2191 0.8747
C10 C 0.1834(2) 0.25147(19) 0.78277(15)
H2 H 0.1728 0.2309 0.7382
C11 C 0.2861(2) 0.29694(19) 0.78251(15)
C12 C 0.3838(2) 0.32760(19) 0.71690(15)
C13 C 0.4045(2) 0.2882(2) 0.64077(15)
C14 C 0.3855(2) 0.3567(2) 0.56377(16)
C15 C 0.4051(2) 0.3168(2) 0.49451(17)
H3 H 0.3919 0.3616 0.4433
C16 C 0.4431(2) 0.2135(2) 0.49948(17)
C17 C 0.4604(2) 0.1474(2) 0.57604(18)
H4 H 0.4852 0.0771 0.5800
C18 C 0.4422(2) 0.1818(2) 0.64769(16)
C19 C 0.3415(3) 0.4697(2) 0.55633(17)
H5 H 0.3286 0.5030 0.5006
H6 H 0.3975 0.5091 0.5640
H7 H 0.2702 0.4690 0.5996
C20 C 0.4659(3) 0.1726(3) 0.4228(2)
H8 H 0.4518 0.2293 0.3746
H9 H 0.4155 0.1146 0.4364
H10 H 0.5448 0.1479 0.4089
C21 C 0.4655(3) 0.1069(2) 0.72923(19)
H11 H 0.5126 0.1416 0.7493
H12 H 0.5052 0.0437 0.7183
H13 H 0.3936 0.0877 0.7721
C22 C 0.4685(2) 0.3970(2) 0.71753(14)
C23 C 0.5907(2) 0.39297(19) 0.67863(14)
H14 H 0.6293 0.3492 0.6459
C24 C 0.6418(2) 0.4709(2) 0.70068(15)
C25 C 0.5659(2) 0.5274(2) 0.74955(14)
C26 C 0.6162(2) 0.59849(19) 0.77773(15)
H15 H 0.5769 0.6417 0.8108
C27 C 0.7405(2) 0.5893(2) 0.74431(15)
C28 C 0.8266(2) 0.6363(2) 0.76490(15)
C29 C 0.9365(2) 0.6753(2) 0.69847(15)
C30 C 1.0424(2) 0.6248(2) 0.70898(16)
C31 C 1.1430(2) 0.6644(2) 0.64617(18)
H16 H 1.2136 0.6319 0.6528
C32 C 1.1411(2) 0.7506(2) 0.57424(17)
C33 C 1.0369(2) 0.7984(2) 0.56538(16)
H17 H 1.0353 0.8570 0.5175
C34 C 0.9333(2) 0.7623(2) 0.62550(15)
C35 C 1.0488(3) 0.5250(2) 0.78318(19)
H18 H 1.0262 0.5427 0.8359
H19 H 1.1265 0.4965 0.7747
H20 H 0.9977 0.4726 0.7859
C36 C 1.2527(3) 0.7895(3) 0.5066(2)
H21 H 1.2416 0.8026 0.4506
H22 H 1.3127 0.7361 0.5149
H23 H 1.2744 0.8545 0.5113
C37 C 0.8212(3) 0.8180(3) 0.61201(17)
H24 H 0.8362 0.8898 0.5747
H25 H 0.7703 0.8198 0.6662
H26 H 0.7856 0.7801 0.5865
C38 C 0.8080(2) 0.6393(2) 0.84651(15)
C39 C 0.7270(2) 0.5815(2) 0.92438(15)
H27 H 0.6700 0.5374 0.9277
C40 C 0.7471(2) 0.6017(2) 0.99171(15)
H28 H 0.7071 0.5732 1.0490
C41 C 0.1585(2) 0.3250(2) 1.04046(14)
N1 N 0.26399(19) 0.31098(17) 0.86390(12)
N2 N 0.87652(19) 0.69315(18) 0.87317(12)
F1 F -0.08370(13) 0.41023(11) 1.04612(10)
F2 F -0.29770(14) 0.33794(13) 1.13139(12)
F3 F -0.34339(14) 0.12893(14) 1.16741(12)
F4 F -0.17301(14) -0.00820(12) 1.12015(10)
F5 F 0.04423(13) 0.06132(11) 1.04160(9)
S1 S 0.42566(6) 0.49451(6) 0.77019(4)
S2 S 0.78308(6) 0.50428(6) 0.68064(4)
H29 H 0.318(3) 0.313(2) 0.8865(19)
H30 H 0.920(2) 0.742(2) 0.8414(17)
C1A C 1.0128(2) 0.76160(19) 0.95980(14)
C2A C 1.1030(2) 0.6946(2) 0.93503(15)
C3A C 1.2132(2) 0.7300(2) 0.89156(17)
C4A C 1.2368(2) 0.8362(2) 0.87384(17)
C5A C 1.1497(2) 0.9050(2) 0.89796(16)
C6A C 1.0399(2) 0.86819(19) 0.93935(15)
C7A C 0.8948(2) 0.71925(19) 1.00394(14)
C8A C 0.8449(2) 0.72084(19) 1.08825(14)
C9A C 0.8956(2) 0.75641(19) 1.14089(15)
H1A H 0.9704 0.7809 1.1253
C10A C 0.8166(2) 0.74853(19) 1.21723(15)
H2A H 0.8272 0.7691 1.2618
C11A C 0.7139(2) 0.70306(19) 1.21749(15)
C12A C 0.6162(2) 0.67240(19) 1.28310(15)
C13A C 0.5955(2) 0.7118(2) 1.35923(15)
C14A C 0.6145(2) 0.6433(2) 1.43623(16)
C15A C 0.5949(2) 0.6832(2) 1.50549(17)
H3A H 0.6081 0.6384 1.5567
C16A C 0.5569(2) 0.7865(2) 1.50052(17)
C17A C 0.5396(2) 0.8526(2) 1.42396(18)
H4A H 0.5148 0.9229 1.4200
C18A C 0.5578(2) 0.8182(2) 1.35231(16)
C19A C 0.6585(3) 0.5303(2) 1.44367(17)
H5A H 0.6714 0.4970 1.4994
H6A H 0.6025 0.4909 1.4360
H7A H 0.7298 0.5310 1.4004
C20A C 0.5341(3) 0.8274(3) 1.5772(2)
H8A H 0.5482 0.7707 1.6254
H9A H 0.5845 0.8854 1.5636
H10A H 0.4552 0.8521 1.5911
C21A C 0.5345(3) 0.8931(2) 1.27077(19)
H11A H 0.4874 0.8584 1.2507
H12A H 0.4948 0.9563 1.2817
H13A H 0.6064 0.9123 1.2279
C22A C 0.5315(2) 0.6030(2) 1.28247(14)
C23A C 0.4093(2) 0.60703(19) 1.32137(14)
H14A H 0.3707 0.6508 1.3541
C24A C 0.3582(2) 0.5291(2) 1.29932(15)
C25A C 0.4341(2) 0.4726(2) 1.25045(14)
C26A C 0.3838(2) 0.40151(19) 1.22227(15)
H15A H 0.4231 0.3583 1.1892
C27A C 0.2595(2) 0.4107(2) 1.25569(15)
C28A C 0.1734(2) 0.3637(2) 1.23510(15)
C29A C 0.0635(2) 0.3247(2) 1.30153(15)
C30A C -0.0424(2) 0.3752(2) 1.29102(16)
C31A C -0.1430(2) 0.3356(2) 1.35383(18)
H16A H -0.2136 0.3681 1.3472
C32A C -0.1411(2) 0.2494(2) 1.42576(17)
C33A C -0.0369(2) 0.2016(2) 1.43462(16)
H17A H -0.0353 0.1430 1.4825
C34A C 0.0667(2) 0.2377(2) 1.37450(15)
C35A C -0.0488(3) 0.4750(2) 1.21682(19)
H18A H -0.0262 0.4573 1.1641
H19A H -0.1265 0.5035 1.2253
H20A H 0.0023 0.5274 1.2141
C36A C -0.2527(3) 0.2105(3) 1.4934(2)
H21A H -0.2416 0.1974 1.5494
H22A H -0.3127 0.2639 1.4851
H23A H -0.2744 0.1455 1.4887
C37A C 0.1788(3) 0.1820(3) 1.38799(17)
H24A H 0.1638 0.1102 1.4253
H25A H 0.2297 0.1802 1.3338
H26A H 0.2144 0.2199 1.4135
C38A C 0.1920(2) 0.3607(2) 1.15349(15)
C39A C 0.2730(2) 0.4185(2) 1.07562(15)
H27A H 0.3300 0.4626 1.0723
C40A C 0.2529(2) 0.3983(2) 1.00829(15)
H28A H 0.2929 0.4268 0.9510
C41A C 0.8415(2) 0.6750(2) 0.95954(14)
N1A N 0.73601(19) 0.68902(17) 1.13610(12)
N2A N 0.12348(19) 0.30685(18) 1.12683(12)
F1A F 1.08370(13) 0.58977(11) 0.95388(10)
F2A F 1.29770(14) 0.66206(13) 0.86861(12)
F3A F 1.34339(14) 0.87107(14) 0.83259(12)
F4A F 1.17301(14) 1.00820(12) 0.87985(10)
F5A F 0.95577(13) 0.93868(11) 0.95840(9)
S1A S 0.57434(6) 0.50549(6) 1.22981(4)
S2A S 0.21692(6) 0.49572(6) 1.31936(4)
H29A H 0.682(3) 0.687(2) 1.1135(19)
H30A H 0.080(2) 0.258(2) 1.1586(17)
C42 C -0.0103(3) 0.6752(3) 0.4014(2)
C43 C 0.0731(3) 0.7534(3) 0.3282(3)
O1 O 0.1690(2) 0.7618(3) 0.33749(18)
O2 O 0.0372(2) 0.8054(2) 0.26611(17)
F6 F 0.0387(2) 0.61848(18) 0.46147(14)
F7 F -0.04920(16) 0.60811(15) 0.37255(12)
F8 F -0.10041(18) 0.72922(18) 0.43517(14)
C44 C 0.8213(3) 0.0234(2) 0.34384(17)
C45 C 0.9446(2) 0.0651(2) 0.30110(16)
O3 O 1.01947(18) 0.00281(16) 0.33531(13)
H31 H 1.0848 0.0219 0.3064
O4 O 0.96015(17) 0.14471(15) 0.23972(11)
F9 F 0.80043(17) -0.01914(17) 0.42781(10)
F10 F 0.80394(17) -0.04980(16) 0.31075(13)
F11 F 0.74375(15) 0.10055(16) 0.32944(11)
C46 C 0.3727(17) 0.0928(17) 0.1219(11)
C47 C 0.2730(4) 0.0166(3) 0.1882(3)
O5 O 0.2156(2) 0.0617(2) 0.23753(18)
O6 O 0.2859(3) -0.0786(3) 0.1996(2)
F12 F 0.3251(6) 0.1297(6) 0.0474(4)
F13 F 0.4677(4) 0.0394(4) 0.0926(3)
F14 F 0.4022(6) 0.1682(7) 0.1358(5)
C48? C 0.3606(17) 0.0698(19) 0.1004(12)
O7? O 0.2096(8) -0.0673(7) 0.1677(5)
F15? F 0.3170(11) 0.0752(11) 0.0263(9)
F16? F 0.4364(7) -0.0053(7) 0.0875(5)
F17? F 0.3623(12) 0.1595(11) 0.0893(13)
loop_
_geom_bond_atom_site_label_1
_geom_bond_atom_site_label_2
_geom_bond_site_symmetry_1
_geom_bond_site_symmetry_2
C1 C2 1_555 1_555
C2 C3 1_555 1_555
C3 C4 1_555 1_555
C4 C5 1_555 1_555
C5 C6 1_555 1_555
C6 C1 1_555 1_555
C7 C1 1_555 1_555
C8 C7 1_555 1_555
C9 C8 1_555 1_555
H1 C9 1_555 1_555
C10 C9 1_555 1_555
H2 C10 1_555 1_555
C11 C10 1_555 1_555
C12 C11 1_555 1_555
C13 C12 1_555 1_555
C14 C13 1_555 1_555
C15 C14 1_555 1_555
H3 C15 1_555 1_555
C16 C15 1_555 1_555
C17 C16 1_555 1_555
H4 C17 1_555 1_555
C18 C13 1_555 1_555
C19 C14 1_555 1_555
H5 C19 1_555 1_555
H6 C19 1_555 1_555
H7 C19 1_555 1_555
C20 C16 1_555 1_555
H8 C20 1_555 1_555
H9 C20 1_555 1_555
H10 C20 1_555 1_555
C21 C18 1_555 1_555
H11 C21 1_555 1_555
H12 C21 1_555 1_555
H13 C21 1_555 1_555
C22 C12 1_555 1_555
C23 C22 1_555 1_555
H14 C23 1_555 1_555
C24 C23 1_555 1_555
C25 C24 1_555 1_555
C26 C25 1_555 1_555
H15 C26 1_555 1_555
C27 C26 1_555 1_555
C28 C27 1_555 1_555
C29 C28 1_555 1_555
C30 C29 1_555 1_555
C31 C30 1_555 1_555
H16 C31 1_555 1_555
C32 C31 1_555 1_555
C33 C32 1_555 1_555
H17 C33 1_555 1_555
C34 C29 1_555 1_555
C35 C30 1_555 1_555
H18 C35 1_555 1_555
H19 C35 1_555 1_555
H20 C35 1_555 1_555
C36 C32 1_555 1_555
H21 C36 1_555 1_555
H22 C36 1_555 1_555
H23 C36 1_555 1_555
C37 C34 1_555 1_555
H24 C37 1_555 1_555
H25 C37 1_555 1_555
H26 C37 1_555 1_555
C38 C28 1_555 1_555
C39 C38 1_555 1_555
H27 C39 1_555 1_555
C40 C39 1_555 1_555
H28 C40 1_555 1_555
C41 C7 1_555 1_555
N1 C8 1_555 1_555
N2 C38 1_555 1_555
F1 C2 1_555 1_555
F2 C3 1_555 1_555
F3 C4 1_555 1_555
F4 C5 1_555 1_555
F5 C6 1_555 1_555
S1 C22 1_555 1_555
S2 C24 1_555 1_555
H29 N1 1_555 1_555
H30 N2 1_555 1_555
C42 C43 1_555 1_555
C43 O1 1_555 1_555
O2 C43 1_555 1_555
F6 C42 1_555 1_555
F7 C42 1_555 1_555
F8 C42 1_555 1_555
C44 C45 1_555 1_555
C45 O3 1_555 1_555
O3 H31 1_555 1_555
O4 C45 1_555 1_555
F9 C44 1_555 1_555
F10 C44 1_555 1_555
F11 C44 1_555 1_555
C46 C47 1_555 1_555
C47 O5 1_555 1_555
O6 C47 1_555 1_555
F12 C46 1_555 1_555
F13 C46 1_555 1_555
F14 C46 1_555 1_555
C1A C2A 1_555 1_555
C2A C3A 1_555 1_555
C3A C4A 1_555 1_555
C4A C5A 1_555 1_555
C5A C6A 1_555 1_555
C6A C1A 1_555 1_555
C7A C1A 1_555 1_555
C8A C7A 1_555 1_555
C9A C8A 1_555 1_555
H1A C9A 1_555 1_555
C10A C9A 1_555 1_555
H2A C10A 1_555 1_555
C11A C10A 1_555 1_555
C12A C11A 1_555 1_555
C13A C12A 1_555 1_555
C14A C13A 1_555 1_555
C15A C14A 1_555 1_555
H3A C15A 1_555 1_555
C16A C15A 1_555 1_555
C17A C16A 1_555 1_555
H4A C17A 1_555 1_555
C18A C13A 1_555 1_555
C19A C14A 1_555 1_555
H5A C19A 1_555 1_555
H6A C19A 1_555 1_555
H7A C19A 1_555 1_555
C20A C16A 1_555 1_555
H8A C20A 1_555 1_555
H9A C20A 1_555 1_555
H10A C20A 1_555 1_555
C21A C18A 1_555 1_555
H11A C21A 1_555 1_555
H12A C21A 1_555 1_555
H13A C21A 1_555 1_555
C22A C12A 1_555 1_555
C23A C22A 1_555 1_555
H14A C23A 1_555 1_555
C24A C23A 1_555 1_555
C25A C24A 1_555 1_555
C26A C25A 1_555 1_555
H15A C26A 1_555 1_555
C27A C26A 1_555 1_555
C28A C27A 1_555 1_555
C29A C28A 1_555 1_555
C30A C29A 1_555 1_555
C31A C30A 1_555 1_555
H16A C31A 1_555 1_555
C32A C31A 1_555 1_555
C33A C32A 1_555 1_555
H17A C33A 1_555 1_555
C34A C29A 1_555 1_555
C35A C30A 1_555 1_555
H18A C35A 1_555 1_555
H19A C35A 1_555 1_555
H20A C35A 1_555 1_555
C36A C32A 1_555 1_555
H21A C36A 1_555 1_555
H22A C36A 1_555 1_555
H23A C36A 1_555 1_555
C37A C34A 1_555 1_555
H24A C37A 1_555 1_555
H25A C37A 1_555 1_555
H26A C37A 1_555 1_555
C38A C28A 1_555 1_555
C39A C38A 1_555 1_555
H27A C39A 1_555 1_555
C40A C41 1_555 1_555
H28A C40A 1_555 1_555
C41A C40 1_555 1_555
N1A C8A 1_555 1_555
N2A C41 1_555 1_555
F1A C2A 1_555 1_555
F2A C3A 1_555 1_555
F3A C4A 1_555 1_555
F4A C5A 1_555 1_555
F5A C6A 1_555 1_555
S1A C22A 1_555 1_555
S2A C24A 1_555 1_555
H29A N1A 1_555 1_555
H30A N2A 1_555 1_555
C11 N1 1_555 1_555
C17 C18 1_555 1_555
C25 S1 1_555 1_555
C27 S2 1_555 1_555
C33 C34 1_555 1_555
N2 C41A 1_555 1_555
C7A C41A 1_555 1_555
C11A N1A 1_555 1_555
C17A C18A 1_555 1_555
C25A S1A 1_555 1_555
C27A S2A 1_555 1_555
C33A C34A 1_555 1_555
C38A N2A 1_555 1_555
C39A C40A 1_555 1_555

#END
