
#######################################################################
#
#                 Cambridge Crystallographic Data Centre
#                                CCDC 
#
#######################################################################
#
# If this CIF has been generated from an entry in the Cambridge 
# Structural Database, then it will include bibliographic, chemical, 
# crystal, experimental, refinement or atomic coordinate data resulting 
# from the CCDC's data processing and validation procedures.
#
#######################################################################

data_RAGKAO
_chemical_formula_moiety         'C6 H7 N2 O2 1+,Br1 1-'
_chemical_name_systematic        '2-amino-5-carboxypyridinium bromide'
_symmetry_cell_setting           triclinic
_symmetry_space_group_name_H-M   'P -1'
_symmetry_Int_Tables_number      2
_space_group_name_Hall           '-P 1'
loop_
_symmetry_equiv_pos_site_id
_symmetry_equiv_pos_as_xyz
1 x,y,z
2 -x,-y,-z
_cell_length_a                   7.1935(14)
_cell_length_b                   8.7428(17)
_cell_length_c                   13.202(3)
_cell_angle_alpha                85.31(3)
_cell_angle_beta                 75.44(3)
_cell_angle_gamma                75.61(3)
_cell_volume                     778.249
_cell_formula_units_Z            4
loop_
_atom_site_label
_atom_site_type_symbol
_atom_site_fract_x
_atom_site_fract_y
_atom_site_fract_z
N1 N 0.457(3) 0.4807(17) 0.3716(14)
H1 H 0.3712 0.5684 0.3694
H2 H 0.5751 0.4814 0.3743
N2 N 0.218(2) 0.3580(15) 0.3668(11)
H3 H 0.1416 0.4498 0.3617
C1 C 0.267(2) 0.0793(17) 0.3750(12)
C2 C 0.534(2) 0.1937(18) 0.3775(12)
H4 H 0.6644 0.1825 0.3805
C3 C 0.460(3) 0.0673(19) 0.3791(12)
H5 H 0.5412 -0.0327 0.3832
C4 C 0.408(2) 0.3448(18) 0.3710(12)
O1 O -0.0001(17) -0.0319(14) 0.3733(10)
O2 O 0.281(2) -0.1916(14) 0.3987(13)
H6 H 0.3023 -0.1971 0.4573
C5 C 0.146(3) 0.2236(19) 0.3705(12)
H7 H 0.0148 0.2331 0.3699
C6 C 0.176(2) -0.0635(17) 0.3859(12)
O3 O 0.7784(16) 1.0262(13) 0.1262(11)
H8 H 0.7907 1.0599 0.1798
O4 O 0.4905(15) 1.1858(11) 0.1269(10)
N3 N 0.5628(16) 0.6346(12) 0.1233(9)
H9 H 0.6431 0.5432 0.1213
N4 N 0.311(2) 0.5101(15) 0.1240(11)
H10 H 0.3956 0.4208 0.1212
H11 H 0.1897 0.5132 0.1256
C7 C 0.368(2) 0.6433(16) 0.1259(11)
C8 C 0.632(2) 0.7651(16) 0.1235(13)
H12 H 0.7646 0.7538 0.1223
C9 C 0.512(2) 0.9116(17) 0.1255(13)
C10 C 0.314(2) 0.9300(15) 0.1291(12)
H13 H 0.2305 1.0301 0.1307
C11 C 0.243(2) 0.7949(16) 0.1303(13)
H14 H 0.1091 0.8059 0.1341
C12 C 0.590(2) 1.0557(16) 0.1267(12)
Br1 Br 0.9298(2) 0.33438(17) 0.12180(17)
Br2 Br 0.1422(2) 0.34471(19) 0.64645(15)
loop_
_geom_bond_atom_site_label_1
_geom_bond_atom_site_label_2
_geom_bond_site_symmetry_1
_geom_bond_site_symmetry_2
N1 H1 1_555 1_555
H2 N1 1_555 1_555
N2 H3 1_555 1_555
C1 C3 1_555 1_555
C2 H4 1_555 1_555
C3 C2 1_555 1_555
H5 C3 1_555 1_555
C4 N1 1_555 1_555
O1 C6 1_555 1_555
O2 H6 1_555 1_555
C5 N2 1_555 1_555
H7 C5 1_555 1_555
C6 C1 1_555 1_555
O3 H8 1_555 1_555
O4 C12 1_555 1_555
N3 H9 1_555 1_555
N4 H10 1_555 1_555
H11 N4 1_555 1_555
C7 N3 1_555 1_555
C8 N3 1_555 1_555
H12 C8 1_555 1_555
C9 C8 1_555 1_555
C10 C9 1_555 1_555
H13 C10 1_555 1_555
C11 C7 1_555 1_555
H14 C11 1_555 1_555
C12 O3 1_555 1_555
N2 C4 1_555 1_555
C1 C5 1_555 1_555
C2 C4 1_555 1_555
O2 C6 1_555 1_555
N4 C7 1_555 1_555
C9 C12 1_555 1_555
C10 C11 1_555 1_555

#END
