
#######################################################################
#
#                 Cambridge Crystallographic Data Centre
#                                CCDC 
#
#######################################################################
#
# If this CIF has been generated from an entry in the Cambridge 
# Structural Database, then it will include bibliographic, chemical, 
# crystal, experimental, refinement or atomic coordinate data resulting 
# from the CCDC's data processing and validation procedures.
#
#######################################################################

data_RAGWOL01
_chemical_name_common            
4-(N-Methylthiocarbamoyl)-4',5'-dimethyl-2,2'-bis(1,3-dithiolylidene)
_chemical_formula_moiety         'C10 H11 N1 S5'
_chemical_name_systematic        
4-(N-Methylthiocarbamoyl)-4',5'-dimethyl-tetrathiafulvalene
_symmetry_cell_setting           monoclinic
_symmetry_space_group_name_H-M   'P 21/c'
_symmetry_Int_Tables_number      14
_space_group_name_Hall           '-P 2ybc'
loop_
_symmetry_equiv_pos_site_id
_symmetry_equiv_pos_as_xyz
1 x,y,z
2 -x,1/2+y,1/2-z
3 -x,-y,-z
4 x,1/2-y,1/2+z
_cell_length_a                   13.199(1)
_cell_length_b                   9.534(1)
_cell_length_c                   10.509(1)
_cell_angle_alpha                90
_cell_angle_beta                 94.98(1)
_cell_angle_gamma                90
_cell_volume                     1317.45
_exptl_crystal_colour            'dark purple-black'
_exptl_crystal_description       plates
_chemical_melting_point          171-172deg.C
_cell_formula_units_Z            4
loop_
_atom_site_label
_atom_site_type_symbol
_atom_site_fract_x
_atom_site_fract_y
_atom_site_fract_z
S1 S 0.2454(1) 0.2243(1) 0.8836(1)
S2 S 0.1868(1) 0.4831(1) 0.7398(1)
S3 S 0.0140(1) 0.2070(1) 0.9764(1)
S4 S -0.0396(1) 0.4642(1) 0.8300(1)
S5 S 0.4624(1) 0.0923(1) 0.8693(1)
C1 C 0.1484(2) 0.3463(3) 0.8377(3)
C2 C 0.2953(2) 0.3973(4) 0.7013(3)
C3 C 0.3229(2) 0.2789(3) 0.7640(3)
C4 C 0.4155(2) 0.1975(3) 0.7505(3)
N1 N 0.4581(2) 0.2117(3) 0.6419(3)
C5 C 0.5550(3) 0.1482(5) 0.6176(4)
C6 C -0.1137(2) 0.2625(3) 0.9691(3)
C7 C -0.1839(3) 0.1762(4) 1.0430(3)
C8 C -0.1382(2) 0.3788(3) 0.9027(3)
C9 C -0.2403(3) 0.4477(4) 0.8839(3)
C10 C 0.0540(2) 0.3385(3) 0.8762(3)
H1 H 0.5503(7) 0.0461(5) 0.6261(25)
H2 H 0.6086(4) 0.1841(21) 0.6794(16)
H3 H 0.5712(10) 0.1718(24) 0.5309(10)
H4 H -0.1624(11) 0.0778(5) 1.0431(18)
H5 H -0.2535(4) 0.1840(19) 1.0030(13)
H6 H -0.1814(13) 0.2105(15) 1.1311(7)
H7 H -0.2641(10) 0.4464(28) 0.7930(5)
H8 H -0.2349(5) 0.5450(10) 0.9138(26)
H9 H -0.2886(6) 0.3969(19) 0.9325(23)
H10 H 0.3328(27) 0.4368(38) 0.6485(35)
H11 H 0.4349(30) 0.2621(43) 0.5819(39)
loop_
_geom_bond_atom_site_label_1
_geom_bond_atom_site_label_2
_geom_bond_site_symmetry_1
_geom_bond_site_symmetry_2
S1 C1 1_555 1_555
S2 C1 1_555 1_555
S3 C6 1_555 1_555
S4 C8 1_555 1_555
S5 C4 1_555 1_555
C1 C10 1_555 1_555
C2 S2 1_555 1_555
C3 S1 1_555 1_555
C4 C3 1_555 1_555
N1 C4 1_555 1_555
C5 N1 1_555 1_555
C6 C7 1_555 1_555
C7 H4 1_555 1_555
C8 C6 1_555 1_555
C9 C8 1_555 1_555
C10 S3 1_555 1_555
H1 C5 1_555 1_555
H2 C5 1_555 1_555
H3 C5 1_555 1_555
H5 C7 1_555 1_555
H6 C7 1_555 1_555
H7 C9 1_555 1_555
H8 C9 1_555 1_555
H9 C9 1_555 1_555
H10 C2 1_555 1_555
H11 N1 1_555 1_555
S4 C10 1_555 1_555
C2 C3 1_555 1_555

#END
