
#######################################################################
#
#                 Cambridge Crystallographic Data Centre
#                                CCDC 
#
#######################################################################
#
# If this CIF has been generated from an entry in the Cambridge 
# Structural Database, then it will include bibliographic, chemical, 
# crystal, experimental, refinement or atomic coordinate data resulting 
# from the CCDC's data processing and validation procedures.
#
#######################################################################

data_RAJGEO
_chemical_formula_moiety         'C15 H13 N1 O5,C1 H4 O1'
_chemical_name_systematic        
'3-(Benzo-1,3-dioxol-5-yl)-3,5,6,7-tetrahydrobenzofuran-4-one-2-oxime methanol solvate'
_symmetry_cell_setting           monoclinic
_symmetry_space_group_name_H-M   'P 21/n'
_symmetry_Int_Tables_number      14
_space_group_name_Hall           '-P 2yn'
loop_
_symmetry_equiv_pos_site_id
_symmetry_equiv_pos_as_xyz
1 x,y,z
2 1/2+x,1/2-y,1/2+z
3 -x,-y,-z
4 1/2-x,1/2+y,1/2-z
_cell_length_a                   10.4370(6)
_cell_length_b                   11.1112(6)
_cell_length_c                   13.9707(6)
_cell_angle_alpha                90
_cell_angle_beta                 108.346(3)
_cell_angle_gamma                90
_cell_volume                     1537.8
_exptl_crystal_colour            yellow
_exptl_crystal_description       'square plate'
_chemical_melting_point          169-173deg.C
_cell_formula_units_Z            4
loop_
_atom_site_label
_atom_site_type_symbol
_atom_site_fract_x
_atom_site_fract_y
_atom_site_fract_z
O1 O 0.59944(15) -0.04641(13) 0.10829(11)
O2 O 0.80964(16) 0.19932(14) 0.11608(12)
O3 O 0.44507(19) 0.12907(17) 0.34936(14)
O4 O 0.29579(17) 0.40271(14) -0.04218(12)
O5 O 0.35416(16) 0.57022(13) 0.06082(13)
N1 N 0.74834(19) 0.08703(17) 0.08480(14)
C1 C 0.6632(2) 0.06546(19) 0.13033(15)
C2 C 0.6156(2) 0.13341(18) 0.20675(15)
C3 C 0.4391(2) 0.0442(2) 0.29194(18)
C4 C 0.3535(3) -0.0652(3) 0.2913(2)
C5 C 0.3188(3) -0.1399(3) 0.1980(3)
C6 C 0.4363(3) -0.1671(2) 0.1602(2)
C7 C 0.5509(2) 0.25452(18) 0.16958(15)
C8 C 0.4517(2) 0.26215(18) 0.07487(15)
C9 C 0.3939(2) 0.37264(19) 0.04661(15)
C10 C 0.2632(2) 0.5261(2) -0.03120(18)
C11 C 0.4284(2) 0.47207(18) 0.10735(16)
C12 C 0.5241(2) 0.46699(19) 0.20068(17)
C13 C 0.5849(2) 0.35510(19) 0.23054(17)
C15 C 0.5185(2) 0.04081(18) 0.22407(15)
C16 C 0.5153(2) -0.05575(19) 0.16633(16)
H1 H 0.6889(2) 0.15918(18) 0.26871(15)
H2 H 0.4045(3) -0.1179(3) 0.3486(2)
H3 H 0.2679(3) -0.0376(3) 0.3021(2)
H4 H 0.2783(3) -0.2175(3) 0.2105(3)
H5 H 0.2506(3) -0.0941(3) 0.1437(3)
H6 H 0.4940(3) -0.2306(2) 0.2038(2)
H7 H 0.4037(3) -0.1958(2) 0.0887(2)
H8 H 0.87335(16) 0.20855(14) 0.06900(12)
H9 H 0.4249(2) 0.19036(18) 0.02981(15)
H10 H 0.2725(2) 0.5743(2) -0.08909(18)
H11 H 0.1683(2) 0.5320(2) -0.02944(18)
H12 H 0.5486(2) 0.53957(19) 0.24503(17)
H13 H 0.6557(2) 0.34715(19) 0.29782(17)
O6 O 0.4793(2) 0.2727(2) 0.51198(16)
C14 C 0.5932(4) 0.3458(3) 0.5265(3)
H14 H 0.4606(2) 0.2170(2) 0.45536(16)
H15 H 0.5994(4) 0.3899(3) 0.5957(3)
H16 H 0.6816(4) 0.3071(3) 0.5603(3)
H17 H 0.5732(4) 0.3996(3) 0.4676(3)
loop_
_geom_bond_atom_site_label_1
_geom_bond_atom_site_label_2
_geom_bond_site_symmetry_1
_geom_bond_site_symmetry_2
O1 C1 1_555 1_555
O2 N1 1_555 1_555
O3 C3 1_555 1_555
O4 C9 1_555 1_555
O5 C10 1_555 1_555
O6 C14 1_555 1_555
N1 C1 1_555 1_555
C1 C2 1_555 1_555
C2 C7 1_555 1_555
C3 C4 1_555 1_555
C4 C5 1_555 1_555
C5 C6 1_555 1_555
C6 C16 1_555 1_555
C7 C8 1_555 1_555
C8 C9 1_555 1_555
C9 C11 1_555 1_555
C10 O4 1_555 1_555
C11 O5 1_555 1_555
C12 C11 1_555 1_555
C13 C7 1_555 1_555
C14 H15 1_555 1_555
C15 C2 1_555 1_555
C16 O1 1_555 1_555
H1 C2 1_555 1_555
H2 C4 1_555 1_555
H3 C4 1_555 1_555
H4 C5 1_555 1_555
H5 C5 1_555 1_555
H6 C6 1_555 1_555
H7 C6 1_555 1_555
H8 O2 1_555 1_555
H9 C8 1_555 1_555
H10 C10 1_555 1_555
H11 C10 1_555 1_555
H12 C12 1_555 1_555
H13 C13 1_555 1_555
H14 O6 1_555 1_555
H16 C14 1_555 1_555
H17 C14 1_555 1_555
C3 C15 1_555 1_555
C12 C13 1_555 1_555
C15 C16 1_555 1_555

#END
