
#######################################################################
#
#                 Cambridge Crystallographic Data Centre
#                                CCDC 
#
#######################################################################
#
# If this CIF has been generated from an entry in the Cambridge 
# Structural Database, then it will include bibliographic, chemical, 
# crystal, experimental, refinement or atomic coordinate data resulting 
# from the CCDC's data processing and validation procedures.
#
#######################################################################

data_RAJGOY
_chemical_formula_moiety         'C24 H27 N1 O6 S1'
_chemical_name_systematic        
N-(2-(1,3-Benzodioxol-5-yl)-2-(6-(acetoxy)cyclohexenyl)ethyl)p-tolylsulfonamide
_symmetry_cell_setting           monoclinic
_symmetry_space_group_name_H-M   'P 21/c'
_symmetry_Int_Tables_number      14
_space_group_name_Hall           '-P 2ybc'
loop_
_symmetry_equiv_pos_site_id
_symmetry_equiv_pos_as_xyz
1 x,y,z
2 x,1/2-y,1/2+z
3 -x,-y,-z
4 -x,1/2+y,1/2-z
_cell_length_a                   9.51220(10)
_cell_length_b                   24.4129(3)
_cell_length_c                   9.93130(10)
_cell_angle_alpha                90
_cell_angle_beta                 99.5571(6)
_cell_angle_gamma                90
_cell_volume                     2274.24
_exptl_crystal_colour            colorless
_exptl_crystal_description       Prism
_chemical_melting_point          169-170deg.C
_cell_formula_units_Z            4
loop_
_atom_site_label
_atom_site_type_symbol
_atom_site_fract_x
_atom_site_fract_y
_atom_site_fract_z
S1 S 0.70204(8) 0.25199(3) 0.14053(7)
O1 O 0.8797(3) 0.07456(14) -0.0662(3)
O2 O 0.6897(2) 0.0444(1) 0.0180(2)
O3 O 0.6316(3) 0.3042(1) 0.1303(3)
O4 O 0.6897(3) 0.21690(11) 0.0223(2)
O5 O 0.2136(2) 0.1542(1) 0.5054(2)
O6 O 0.0364(2) 0.1149(1) 0.3480(2)
N1 N 0.6392(2) 0.2184(1) 0.2570(3)
C1 C 0.7577(4) 0.06000(14) -0.0844(4)
C2 C 0.6619(6) 0.0578(2) -0.2191(4)
C3 C 0.7716(3) 0.04815(14) 0.1560(3)
C4 C 0.6662(3) 0.06301(13) 0.2492(3)
C5 C 0.6508(4) 0.03209(15) 0.3535(4)
C6 C 0.5917(3) 0.11779(12) 0.2184(3)
C7 C 0.6900(3) 0.16245(12) 0.2926(3)
C8 C 0.8856(3) 0.26390(13) 0.1965(3)
C9 C 0.9881(3) 0.23141(14) 0.1520(3)
C10 C 1.1311(3) 0.24210(13) 0.1964(3)
C11 C 1.1738(3) 0.28512(14) 0.2869(3)
C12 C 1.3289(4) 0.29600(19) 0.3356(5)
C13 C 1.0691(3) 0.31673(14) 0.3316(3)
C14 C 0.9257(3) 0.30670(13) 0.2870(3)
C15 C 0.4415(3) 0.11796(12) 0.2523(3)
C16 C 0.4094(3) 0.13915(13) 0.3745(3)
C17 C 0.2698(3) 0.13623(12) 0.3943(3)
C18 C 0.0634(3) 0.15077(17) 0.4641(4)
C19 C 0.1643(3) 0.11257(12) 0.3000(3)
C20 C 0.1925(3) 0.09120(14) 0.1798(3)
C21 C 0.3337(3) 0.09474(13) 0.1581(3)
C23 C 0.7310(7) -0.0204(3) 0.3941(7)
C25 C 0.8698(6) -0.0206(2) 0.3374(6)
C27 C 0.8395(7) -0.0094(3) 0.1837(6)
H1 H 0.7152(6) 0.0697(2) -0.2928(4)
H2 H 0.6274(6) 0.0194(2) -0.2370(4)
H3 H 0.5786(6) 0.0827(2) -0.2178(4)
H4 H 0.8458(3) 0.07754(14) 0.1647(3)
H5 H 0.5822(4) 0.04525(15) 0.4125(4)
H6 H 0.5752(3) 0.12632(12) 0.1185(3)
H7 H 0.7869(3) 0.15819(12) 0.2673(3)
H8 H 0.6961(3) 0.15676(12) 0.3932(3)
H9 H 0.9587(3) 0.20077(14) 0.0866(3)
H10 H 1.2052(3) 0.21891(13) 0.1635(3)
H11 H 1.3376(4) 0.32788(19) 0.3996(5)
H12 H 1.3772(4) 0.30483(19) 0.2562(5)
H13 H 1.3748(4) 0.26311(19) 0.3844(5)
H14 H 1.0981(3) 0.34713(14) 0.3979(3)
H15 H 0.8513(3) 0.33024(13) 0.3182(3)
H16 H 0.4851(3) 0.15554(13) 0.4449(3)
H17 H 0.0224(3) 0.18782(17) 0.4389(4)
H18 H 0.0187(3) 0.13534(17) 0.5402(4)
H19 H 0.1158(3) 0.07397(14) 0.1119(3)
H20 H 0.3587(3) 0.08026(13) 0.0709(3)
H21 H 0.6423(2) 0.2385(1) 0.3283(3)
H24 H 0.9305(7) -0.0110(3) 0.1459(6)
H25 H 0.7719(7) -0.0377(3) 0.1381(6)
H28 H 0.9352(6) 0.0083(2) 0.3835(6)
H29 H 0.9162(6) -0.0573(2) 0.3539(6)
H32 H 0.7530(7) -0.0225(3) 0.4960(7)
H33 H 0.6713(7) -0.0525(3) 0.3579(7)
C22? C 0.7032(18) -0.0277(5) 0.3722(11)
C24? C 0.7746(14) -0.0447(4) 0.2499(12)
C26? C 0.8655(8) 0.0026(5) 0.2112(15)
H22? H 0.9324(8) 0.0150(5) 0.2941(15)
H23? H 0.9213(8) -0.0100(5) 0.1401(15)
H26? H 0.8363(14) -0.0775(4) 0.2753(12)
H27? H 0.6994(14) -0.0539(4) 0.1702(12)
H30? H 0.7735(18) -0.0311(5) 0.4586(11)
H31? H 0.6197(18) -0.0520(5) 0.3769(11)
loop_
_geom_bond_atom_site_label_1
_geom_bond_atom_site_label_2
_geom_bond_site_symmetry_1
_geom_bond_site_symmetry_2
S1 O3 1_555 1_555
O1 C1 1_555 1_555
O2 C1 1_555 1_555
O4 S1 1_555 1_555
O5 C17 1_555 1_555
O6 C18 1_555 1_555
N1 S1 1_555 1_555
C1 C2 1_555 1_555
C2 H1 1_555 1_555
C3 O2 1_555 1_555
C4 C3 1_555 1_555
C5 C4 1_555 1_555
C6 C4 1_555 1_555
C7 N1 1_555 1_555
C8 S1 1_555 1_555
C9 C8 1_555 1_555
C10 C9 1_555 1_555
C11 C10 1_555 1_555
C12 C11 1_555 1_555
C13 C11 1_555 1_555
C14 C8 1_555 1_555
C15 C6 1_555 1_555
C16 C15 1_555 1_555
C17 C16 1_555 1_555
C18 O5 1_555 1_555
C19 O6 1_555 1_555
C20 C19 1_555 1_555
C21 C15 1_555 1_555
C23 C5 1_555 1_555
C25 C23 1_555 1_555
C27 C3 1_555 1_555
H2 C2 1_555 1_555
H3 C2 1_555 1_555
H4 C3 1_555 1_555
H5 C5 1_555 1_555
H6 C6 1_555 1_555
H7 C7 1_555 1_555
H8 C7 1_555 1_555
H9 C9 1_555 1_555
H10 C10 1_555 1_555
H11 C12 1_555 1_555
H12 C12 1_555 1_555
H13 C12 1_555 1_555
H14 C13 1_555 1_555
H15 C14 1_555 1_555
H16 C16 1_555 1_555
H17 C18 1_555 1_555
H18 C18 1_555 1_555
H19 C20 1_555 1_555
H20 C21 1_555 1_555
H21 N1 1_555 1_555
H24 C27 1_555 1_555
H25 C27 1_555 1_555
H28 C25 1_555 1_555
H29 C25 1_555 1_555
H32 C23 1_555 1_555
H33 C23 1_555 1_555
C6 C7 1_555 1_555
C13 C14 1_555 1_555
C17 C19 1_555 1_555
C20 C21 1_555 1_555
C25 C27 1_555 1_555

#END
