
#######################################################################
#
#                 Cambridge Crystallographic Data Centre
#                                CCDC 
#
#######################################################################
#
# If this CIF has been generated from an entry in the Cambridge 
# Structural Database, then it will include bibliographic, chemical, 
# crystal, experimental, refinement or atomic coordinate data resulting 
# from the CCDC's data processing and validation procedures.
#
#######################################################################

data_RAJHUI
_chemical_formula_moiety         'C30 H20 O2 S2'
_chemical_name_systematic        
'2,3,5,6-tetraphenylthieno[3,2-b]thiophene 1,1-dioxide'
_symmetry_cell_setting           triclinic
_symmetry_space_group_name_H-M   'P -1'
_symmetry_Int_Tables_number      2
_space_group_name_Hall           '-P 1'
loop_
_symmetry_equiv_pos_site_id
_symmetry_equiv_pos_as_xyz
1 x,y,z
2 -x,-y,-z
_cell_length_a                   9.750(2)
_cell_length_b                   10.415(2)
_cell_length_c                   12.252(3)
_cell_angle_alpha                104.173(7)
_cell_angle_beta                 102.316(7)
_cell_angle_gamma                98.648(7)
_cell_volume                     1151.24
_exptl_crystal_description       block
_cell_formula_units_Z            2
loop_
_atom_site_label
_atom_site_type_symbol
_atom_site_fract_x
_atom_site_fract_y
_atom_site_fract_z
C1 C 0.1278(3) 0.7219(3) 0.2252(2)
C2 C 0.2002(3) 0.7855(3) 0.1651(2)
C3 C 0.1068(3) 0.7815(3) 0.0522(2)
C4 C -0.0327(3) 0.7203(3) 0.0283(2)
C5 C -0.1239(3) 0.7293(3) -0.0749(2)
C6 C -0.0437(3) 0.7964(3) -0.1326(2)
C7 C 0.1745(3) 0.6885(3) 0.3357(3)
C8 C 0.3125(3) 0.6631(3) 0.3689(3)
H1 H 0.3761 0.6675 0.3204
C9 C 0.3555(4) 0.6318(3) 0.4727(3)
H2 H 0.4493 0.6156 0.4956
C10 C 0.2631(4) 0.6238(3) 0.5434(3)
H3 H 0.2930 0.6012 0.6140
C11 C 0.1286(4) 0.6485(3) 0.5115(3)
H4 H 0.0657 0.6438 0.5605
C12 C 0.0839(4) 0.6801(3) 0.4082(3)
H5 H -0.0100 0.6964 0.3866
C13 C 0.3525(3) 0.8570(3) 0.2032(3)
C14 C 0.4415(3) 0.8334(3) 0.1294(3)
H6 H 0.4038 0.7721 0.0534
C15 C 0.5844(3) 0.8982(3) 0.1654(3)
H7 H 0.6448 0.8808 0.1145
C16 C 0.6399(4) 0.9884(3) 0.2753(3)
H8 H 0.7387 1.0321 0.3003
C17 C 0.5519(3) 1.0149(3) 0.3488(3)
H9 H 0.5898 1.0783 0.4238
C18 C 0.4096(3) 0.9499(3) 0.3139(3)
H10 H 0.3497 0.9682 0.3651
C19 C -0.2831(3) 0.6816(3) -0.1096(2)
C20 C -0.3708(3) 0.7668(3) -0.1405(2)
H11 H -0.3290 0.8538 -0.1439
C21 C -0.5184(3) 0.7267(3) -0.1666(3)
H12 H -0.5775 0.7866 -0.1861
C22 C -0.5804(3) 0.5987(3) -0.1642(3)
H13 H -0.6819 0.5704 -0.1827
C23 C -0.4939(3) 0.5131(3) -0.1348(2)
H14 H -0.5359 0.4252 -0.1336
C24 C -0.3462(3) 0.5544(3) -0.1069(2)
H15 H -0.2873 0.4949 -0.0858
C25 C -0.0876(3) 0.8202(3) -0.2469(3)
C26 C -0.0308(3) 0.9411(3) -0.2664(3)
H16 H 0.0350 1.0111 -0.2042
C27 C -0.0696(3) 0.9599(3) -0.3759(3)
H17 H -0.0294 1.0424 -0.3883
C28 C -0.1657(4) 0.8606(3) -0.4670(3)
H18 H -0.1935 0.8748 -0.5416
C29 C -0.2211(4) 0.7402(3) -0.4487(3)
H19 H -0.2867 0.6707 -0.5115
C30 C -0.1827(3) 0.7193(3) -0.3404(3)
H20 H -0.2213 0.6354 -0.3295
O1 O -0.0920(2) 0.5142(2) 0.11608(18)
O2 O -0.1499(2) 0.7309(2) 0.20451(18)
S1 S -0.05855(9) 0.65953(8) 0.14601(7)
S2 S 0.13680(9) 0.85069(8) -0.05545(7)
loop_
_geom_bond_atom_site_label_1
_geom_bond_atom_site_label_2
_geom_bond_site_symmetry_1
_geom_bond_site_symmetry_2
C1 C2 1_555 1_555
C2 C3 1_555 1_555
C3 C4 1_555 1_555
C4 C5 1_555 1_555
C5 C6 1_555 1_555
C6 C25 1_555 1_555
C7 C1 1_555 1_555
C8 C7 1_555 1_555
H1 C8 1_555 1_555
C9 C8 1_555 1_555
H2 C9 1_555 1_555
C10 C9 1_555 1_555
H3 C10 1_555 1_555
C11 C10 1_555 1_555
H4 C11 1_555 1_555
C12 C7 1_555 1_555
H5 C12 1_555 1_555
C13 C2 1_555 1_555
C14 C13 1_555 1_555
H6 C14 1_555 1_555
C15 C14 1_555 1_555
H7 C15 1_555 1_555
C16 C15 1_555 1_555
H8 C16 1_555 1_555
C17 C16 1_555 1_555
H9 C17 1_555 1_555
C18 C13 1_555 1_555
H10 C18 1_555 1_555
C19 C5 1_555 1_555
C20 C19 1_555 1_555
H11 C20 1_555 1_555
C21 C20 1_555 1_555
H12 C21 1_555 1_555
C22 C21 1_555 1_555
H13 C22 1_555 1_555
C23 C22 1_555 1_555
H14 C23 1_555 1_555
C24 C19 1_555 1_555
H15 C24 1_555 1_555
C25 C26 1_555 1_555
C26 H16 1_555 1_555
C27 C26 1_555 1_555
H17 C27 1_555 1_555
C28 C27 1_555 1_555
H18 C28 1_555 1_555
C29 C28 1_555 1_555
H19 C29 1_555 1_555
C30 C25 1_555 1_555
H20 C30 1_555 1_555
O1 S1 1_555 1_555
O2 S1 1_555 1_555
S1 C1 1_555 1_555
S2 C3 1_555 1_555
C4 S1 1_555 1_555
C6 S2 1_555 1_555
C11 C12 1_555 1_555
C17 C18 1_555 1_555
C23 C24 1_555 1_555
C29 C30 1_555 1_555

#END
