
#######################################################################
#
#                 Cambridge Crystallographic Data Centre
#                                CCDC 
#
#######################################################################
#
# If this CIF has been generated from an entry in the Cambridge 
# Structural Database, then it will include bibliographic, chemical, 
# crystal, experimental, refinement or atomic coordinate data resulting 
# from the CCDC's data processing and validation procedures.
#
#######################################################################

data_RAJJIY
_chemical_formula_moiety         'C34 H16 F12 O2 S2'
_chemical_name_systematic        
'2,3,5,6-tetrakis(4-(trifluoromethyl)phenyl)thieno[3,2-b]thiophene 1,1-dioxide'
_symmetry_cell_setting           triclinic
_symmetry_space_group_name_H-M   'P -1'
_symmetry_Int_Tables_number      2
_space_group_name_Hall           '-P 1'
loop_
_symmetry_equiv_pos_site_id
_symmetry_equiv_pos_as_xyz
1 x,y,z
2 -x,-y,-z
_cell_length_a                   10.9441(8)
_cell_length_b                   11.8177(10)
_cell_length_c                   14.1721(11)
_cell_angle_alpha                106.966(3)
_cell_angle_beta                 92.284(2)
_cell_angle_gamma                117.261(2)
_cell_volume                     1525.64
_exptl_crystal_description       plate
_cell_formula_units_Z            2
loop_
_atom_site_label
_atom_site_type_symbol
_atom_site_fract_x
_atom_site_fract_y
_atom_site_fract_z
C1 C 0.2741(4) 0.9216(5) 0.5262(3)
C2 C 0.2991(4) 0.8332(4) 0.5538(3)
C3 C 0.2186(4) 0.6946(4) 0.4789(3)
C4 C 0.1361(4) 0.6791(4) 0.3960(3)
C5 C 0.0566(4) 0.5442(4) 0.3261(3)
C6 C 0.0848(4) 0.4573(5) 0.3579(3)
C7 C 0.3374(5) 1.0705(5) 0.5708(3)
C8 C 0.4761(4) 1.1517(5) 0.6243(3)
H1 H 0.5311 1.1109 0.6326
C9 C 0.5337(5) 1.2911(5) 0.6653(3)
H2 H 0.6275 1.3458 0.7027
C10 C 0.4548(5) 1.3509(4) 0.6517(4)
C11 C 0.3182(5) 1.2727(5) 0.5987(4)
H3 H 0.2643 1.3144 0.5899
C12 C 0.2598(5) 1.1336(5) 0.5586(4)
H4 H 0.1654 1.0798 0.5222
C13 C 0.3954(4) 0.8618(4) 0.6446(3)
C14 C 0.4962(5) 0.8209(4) 0.6361(3)
H5 H 0.4986 0.7682 0.5719
C15 C 0.5929(5) 0.8559(5) 0.7197(3)
H6 H 0.6623 0.8286 0.7135
C16 C 0.5867(4) 0.9317(5) 0.8129(3)
C17 C 0.4850(5) 0.9697(5) 0.8234(4)
H7 H 0.4800 1.0185 0.8883
C18 C 0.3898(5) 0.9366(5) 0.7391(3)
H8 H 0.3210 0.9648 0.7457
C19 C -0.0425(4) 0.5087(5) 0.2335(3)
C20 C -0.1801(5) 0.4009(5) 0.2099(4)
H9 H -0.2114 0.3490 0.2527
C21 C -0.2704(5) 0.3704(6) 0.1238(4)
H10 H -0.3639 0.2972 0.1076
C22 C -0.2258(5) 0.4451(5) 0.0617(3)
C23 C -0.0902(6) 0.5528(5) 0.0845(4)
H11 H -0.0597 0.6051 0.0420
C24 C 0.0005(5) 0.5828(5) 0.1706(3)
H12 H 0.0941 0.6558 0.1865
C25 C 0.0373(4) 0.3113(5) 0.3072(4)
C26 C 0.0225(5) 0.2280(5) 0.3624(4)
H13 H 0.0442 0.2654 0.4340
C27 C -0.0232(5) 0.0915(5) 0.3150(4)
H14 H -0.0323 0.0356 0.3537
C28 C -0.0555(5) 0.0366(4) 0.2112(4)
C29 C -0.0367(5) 0.1185(5) 0.1555(4)
H15 H -0.0561 0.0806 0.0840
C30 C 0.0101(5) 0.2553(5) 0.2018(3)
H16 H 0.0239 0.3113 0.1625
O1 O 0.0196(3) 0.8356(3) 0.4219(3)
O2 O 0.2188(3) 0.8901(3) 0.3350(2)
S1 S 0.15080(12) 0.83714(12) 0.40853(9)
S2 S 0.20281(12) 0.54182(12) 0.47384(9)
C31 C 0.5199(9) 1.5030(8) 0.6865(7)
F1 F 0.6381(8) 1.5667(7) 0.7577(5)
F2 F 0.4360(8) 1.5460(6) 0.7263(7)
F3 F 0.5583(8) 1.5560(5) 0.6144(4)
C32 C 0.6883(9) 0.9685(10) 0.9053(7)
F4 F 0.7874(7) 0.9342(11) 0.8857(5)
F5 F 0.7578(12) 1.1036(6) 0.9546(7)
F6 F 0.6249(6) 0.9117(12) 0.9720(5)
C33 C -0.3293(12) 0.4017(13) -0.0316(9)
F7 F -0.3185(11) 0.3118(12) -0.1101(7)
F8 F -0.3075(14) 0.5066(10) -0.0608(9)
F9 F -0.4626(8) 0.3447(15) -0.0216(7)
C34 C -0.1153(10) -0.1130(9) 0.1596(7)
F10 F -0.1134(12) -0.1487(7) 0.0610(4)
F11 F -0.2470(11) -0.1816(6) 0.1720(10)
F12 F -0.0399(16) -0.1576(8) 0.1995(7)
C35? C 0.5086(15) 1.4995(12) 0.7056(11)
F13? F 0.6443(11) 1.5734(12) 0.7059(12)
F14? F 0.4390(15) 1.5461(11) 0.6648(10)
F15? F 0.4978(14) 1.5317(10) 0.8029(7)
C36? C 0.7015(15) 0.9833(15) 0.9011(10)
F16? F 0.7553(18) 0.8997(17) 0.8938(14)
F17? F 0.8071(13) 1.1076(12) 0.9154(12)
F18? F 0.6540(14) 0.992(2) 0.9876(8)
C37? C 0.6840(17) 0.9708(18) 0.9085(11)
F19? F 0.8156(14) 1.007(3) 0.8953(15)
F20? F 0.691(3) 1.075(2) 0.9838(11)
F21? F 0.645(3) 0.869(2) 0.9443(16)
C38? C -0.3146(14) 0.4185(14) -0.0342(9)
F22? F -0.4257(12) 0.4337(18) -0.0155(8)
F23? F -0.2471(11) 0.4975(12) -0.0870(8)
F24? F -0.3670(16) 0.2896(10) -0.0960(10)
C39? C -0.330(2) 0.4150(19) -0.0274(17)
F25? F -0.277(2) 0.412(4) -0.1110(11)
F26? F -0.369(3) 0.511(2) -0.0101(16)
F27? F -0.4465(19) 0.2948(18) -0.0500(19)
C40? C -0.1227(16) -0.1146(13) 0.1612(11)
F28? F -0.0746(16) -0.1505(14) 0.0780(10)
F29? F -0.2626(10) -0.1730(13) 0.1314(12)
F30? F -0.105(2) -0.1787(11) 0.2203(9)
C41? C -0.097(2) -0.112(4) 0.162(2)
F31? F -0.169(3) -0.162(2) 0.0671(17)
F32? F -0.192(4) -0.1908(16) 0.204(3)
F33? F 0.014(3) -0.132(2) 0.168(2)
loop_
_geom_bond_atom_site_label_1
_geom_bond_atom_site_label_2
_geom_bond_site_symmetry_1
_geom_bond_site_symmetry_2
C1 C2 1_555 1_555
C2 C3 1_555 1_555
C3 C4 1_555 1_555
C4 C5 1_555 1_555
C5 C6 1_555 1_555
C6 C25 1_555 1_555
C7 C1 1_555 1_555
C8 C7 1_555 1_555
H1 C8 1_555 1_555
C9 C8 1_555 1_555
H2 C9 1_555 1_555
C10 C9 1_555 1_555
C11 C10 1_555 1_555
H3 C11 1_555 1_555
C12 C7 1_555 1_555
H4 C12 1_555 1_555
C13 C2 1_555 1_555
C14 C13 1_555 1_555
H5 C14 1_555 1_555
C15 C14 1_555 1_555
H6 C15 1_555 1_555
C16 C15 1_555 1_555
C17 C16 1_555 1_555
H7 C17 1_555 1_555
C18 C13 1_555 1_555
H8 C18 1_555 1_555
C19 C5 1_555 1_555
C20 C19 1_555 1_555
H9 C20 1_555 1_555
C21 C20 1_555 1_555
H10 C21 1_555 1_555
C22 C21 1_555 1_555
C23 C22 1_555 1_555
H11 C23 1_555 1_555
C24 C19 1_555 1_555
H12 C24 1_555 1_555
C25 C26 1_555 1_555
C26 H13 1_555 1_555
C27 C26 1_555 1_555
H14 C27 1_555 1_555
C28 C27 1_555 1_555
C29 C28 1_555 1_555
H15 C29 1_555 1_555
C30 C25 1_555 1_555
H16 C30 1_555 1_555
O1 S1 1_555 1_555
O2 S1 1_555 1_555
S1 C1 1_555 1_555
S2 C3 1_555 1_555
C31 C10 1_555 1_555
F1 C31 1_555 1_555
F2 C31 1_555 1_555
F3 C31 1_555 1_555
C32 C16 1_555 1_555
F4 C32 1_555 1_555
F5 C32 1_555 1_555
F6 C32 1_555 1_555
C33 C22 1_555 1_555
F7 C33 1_555 1_555
F8 C33 1_555 1_555
F9 C33 1_555 1_555
C34 C28 1_555 1_555
F10 C34 1_555 1_555
F11 C34 1_555 1_555
F12 C34 1_555 1_555
C4 S1 1_555 1_555
C6 S2 1_555 1_555
C11 C12 1_555 1_555
C17 C18 1_555 1_555
C23 C24 1_555 1_555
C29 C30 1_555 1_555

#END
