
#######################################################################
#
#                 Cambridge Crystallographic Data Centre
#                                CCDC 
#
#######################################################################
#
# If this CIF has been generated from an entry in the Cambridge 
# Structural Database, then it will include bibliographic, chemical, 
# crystal, experimental, refinement or atomic coordinate data resulting 
# from the CCDC's data processing and validation procedures.
#
#######################################################################

data_RAJYEJ
_chemical_formula_moiety         'C20 H30 O2,H2 O1'
_chemical_name_systematic        
'pimara-7,9(11),15-triene-3,14-diol monohydrate'
_symmetry_cell_setting           orthorhombic
_symmetry_space_group_name_H-M   'P 21 21 21'
_symmetry_Int_Tables_number      19
_space_group_name_Hall           'P 2ac 2ab'
loop_
_symmetry_equiv_pos_site_id
_symmetry_equiv_pos_as_xyz
1 x,y,z
2 1/2-x,-y,1/2+z
3 -x,1/2+y,1/2-z
4 1/2+x,1/2-y,-z
_cell_length_a                   6.6729(5)
_cell_length_b                   11.9119(9)
_cell_length_c                   23.5741(18)
_cell_angle_alpha                90
_cell_angle_beta                 90
_cell_angle_gamma                90
_cell_volume                     1873.83
_cell_formula_units_Z            4
loop_
_atom_site_label
_atom_site_type_symbol
_atom_site_fract_x
_atom_site_fract_y
_atom_site_fract_z
O1 O 0.4103(11) 0.7760(6) 0.5798(3)
H1 H 0.5033 0.8199 0.5748
O2 O 0.2646(12) 0.4232(5) 0.9074(3)
H2 H 0.1775 0.3962 0.9277
C1 C 0.2313(19) 0.8129(8) 0.7305(4)
H3 H 0.1321 0.8632 0.7466
H4 H 0.3602 0.8320 0.7469
C2 C 0.2405(19) 0.8312(8) 0.6665(4)
H5 H 0.1091 0.8184 0.6501
H6 H 0.2789 0.9082 0.6587
C3 C 0.3902(18) 0.7522(9) 0.6401(4)
H7 H 0.5205 0.7656 0.6580
C4 C 0.3358(18) 0.6276(9) 0.6488(5)
C5 C 0.3136(17) 0.6094(8) 0.7141(4)
H8 H 0.4483 0.6218 0.7294
C6 C 0.262(2) 0.4872(8) 0.7297(4)
H9 H 0.1364 0.4663 0.7121
H10 H 0.3658 0.4377 0.7152
C7 C 0.2460(17) 0.4729(8) 0.7930(4)
H11 H 0.2488 0.4001 0.8072
C8 C 0.2282(18) 0.5551(9) 0.8295(4)
C9 C 0.2116(16) 0.6733(9) 0.8100(4)
C10 C 0.1780(17) 0.6915(9) 0.7470(4)
C11 C 0.2195(17) 0.7553(9) 0.8480(4)
H12 H 0.2054 0.8285 0.8348
C12 C 0.2495(19) 0.7394(8) 0.9106(4)
H13 H 0.1225 0.7511 0.9297
H14 H 0.3422 0.7960 0.9242
C13 C 0.331(2) 0.6226(10) 0.9267(4)
C14 C 0.2104(17) 0.5359(8) 0.8923(4)
H15 H 0.0689 0.5457 0.9023
C15 C 0.552(2) 0.6118(11) 0.9116(6)
H16 H 0.6140 0.5452 0.9222
C16 C 0.666(3) 0.6868(15) 0.8849(7)
H17 H 0.7912 0.7058 0.8997
H18 H 0.6217 0.7202 0.8516
C17 C 0.1505(19) 0.5943(10) 0.6138(5)
H19 H 0.1167 0.5174 0.6214
H20 H 0.1795 0.6029 0.5741
H21 H 0.0398 0.6417 0.6239
C18 C 0.5137(18) 0.5551(10) 0.6274(5)
H22 H 0.6304 0.5707 0.6499
H23 H 0.5408 0.5728 0.5885
H24 H 0.4800 0.4771 0.6307
C19 C -0.0512(17) 0.6711(10) 0.7370(5)
H25 H -0.0816 0.5933 0.7431
H26 H -0.0851 0.6912 0.6988
H27 H -0.1273 0.7163 0.7629
C20 C 0.301(2) 0.6028(10) 0.9908(4)
H28 H 0.3693 0.5351 1.0018
H29 H 0.1611 0.5958 0.9990
H30 H 0.3558 0.6651 1.0115
O3 O 0.5307(13) 0.6601(7) 0.4755(3)
H34 H 0.5067 0.6975 0.5055
H35 H 0.6424 0.6816 0.4620
H31? H 0.6069 0.6291 0.8765
C21? C 0.646(10) 0.575(6) 0.9585(18)
H32? H 0.7725 0.6027 0.9676
H33? H 0.5851 0.5222 0.9817
loop_
_geom_bond_atom_site_label_1
_geom_bond_atom_site_label_2
_geom_bond_site_symmetry_1
_geom_bond_site_symmetry_2
O1 H1 1_555 1_555
O2 H2 1_555 1_555
C1 H3 1_555 1_555
H4 C1 1_555 1_555
C2 C1 1_555 1_555
H5 C2 1_555 1_555
H6 C2 1_555 1_555
C3 O1 1_555 1_555
H7 C3 1_555 1_555
C4 C3 1_555 1_555
C5 C4 1_555 1_555
H8 C5 1_555 1_555
C6 C5 1_555 1_555
H9 C6 1_555 1_555
H10 C6 1_555 1_555
C7 C6 1_555 1_555
H11 C7 1_555 1_555
C8 C7 1_555 1_555
C9 C8 1_555 1_555
C10 C1 1_555 1_555
C11 C9 1_555 1_555
H12 C11 1_555 1_555
C12 C11 1_555 1_555
H13 C12 1_555 1_555
H14 C12 1_555 1_555
C13 C12 1_555 1_555
C14 O2 1_555 1_555
H15 C14 1_555 1_555
C15 C13 1_555 1_555
H16 C15 1_555 1_555
C16 C15 1_555 1_555
H17 C16 1_555 1_555
H18 C16 1_555 1_555
C17 C4 1_555 1_555
H19 C17 1_555 1_555
H20 C17 1_555 1_555
H21 C17 1_555 1_555
C18 C4 1_555 1_555
H22 C18 1_555 1_555
H23 C18 1_555 1_555
H24 C18 1_555 1_555
C19 C10 1_555 1_555
H25 C19 1_555 1_555
H26 C19 1_555 1_555
H27 C19 1_555 1_555
C20 C13 1_555 1_555
H28 C20 1_555 1_555
H29 C20 1_555 1_555
H30 C20 1_555 1_555
O3 H34 1_555 1_555
H35 O3 1_555 1_555
C2 C3 1_555 1_555
C5 C10 1_555 1_555
C8 C14 1_555 1_555
C9 C10 1_555 1_555
C13 C14 1_555 1_555

#END
