
#######################################################################
#
#                 Cambridge Crystallographic Data Centre
#                                CCDC 
#
#######################################################################
#
# If this CIF has been generated from an entry in the Cambridge 
# Structural Database, then it will include bibliographic, chemical, 
# crystal, experimental, refinement or atomic coordinate data resulting 
# from the CCDC's data processing and validation procedures.
#
#######################################################################

data_RAKHES
_chemical_formula_moiety         '2(C12 H4 N7 O12 1-),C2 H10 N2 2+'
_chemical_name_systematic        'Ethylenediammonium bis(dipicrylamide)'
_symmetry_cell_setting           monoclinic
_symmetry_space_group_name_H-M   'P 21/n'
_symmetry_Int_Tables_number      14
_space_group_name_Hall           '-P 2yn'
loop_
_symmetry_equiv_pos_site_id
_symmetry_equiv_pos_as_xyz
1 x,y,z
2 1/2-x,1/2+y,1/2-z
3 -x,-y,-z
4 1/2+x,1/2-y,1/2+z
_cell_length_a                   11.5630(10)
_cell_length_b                   12.9980(12)
_cell_length_c                   11.9190(11)
_cell_angle_alpha                90
_cell_angle_beta                 96.560(5)
_cell_angle_gamma                90
_cell_volume                     1779.65
_exptl_crystal_colour            red
_exptl_crystal_description       prism
_cell_formula_units_Z            2
loop_
_atom_site_label
_atom_site_type_symbol
_atom_site_fract_x
_atom_site_fract_y
_atom_site_fract_z
O1 O 0.59139(13) 0.25877(10) 0.61988(12)
O2 O 0.63812(12) 0.41935(10) 0.63549(12)
O3 O 0.26216(11) 0.36923(10) 0.28728(13)
O4 O 0.32967(12) 0.40444(12) 0.12908(13)
O5 O 0.73094(11) 0.46294(10) 0.12492(11)
O6 O 0.86015(11) 0.40732(10) 0.25877(11)
O7 O 0.73886(11) 0.18280(10) 0.29173(12)
O8 O 0.87992(12) 0.12228(10) 0.20671(11)
O9 O 1.26636(12) 0.12746(11) 0.37769(12)
O10 O 1.31684(11) 0.21782(10) 0.52823(12)
O11 O 0.96709(15) 0.35703(11) 0.71725(13)
O12 O 0.92398(13) 0.47983(10) 0.59752(13)
N1 N 0.78766(13) 0.33253(11) 0.46385(13)
N2 N 0.60776(13) 0.34341(11) 0.57930(13)
N3 N 0.34414(13) 0.38575(12) 0.23137(15)
N4 N 0.75710(13) 0.42060(11) 0.21705(13)
N5 N 0.84313(13) 0.17283(12) 0.28305(13)
N6 N 1.24413(13) 0.18698(12) 0.45232(14)
N7 N 0.95646(13) 0.39280(11) 0.62132(13)
C1 C 0.69111(15) 0.35579(13) 0.39805(15)
C2 C 0.58790(15) 0.35604(13) 0.45581(15)
C3 C 0.47709(15) 0.36495(13) 0.40691(16)
H1 H 0.4130 0.3600 0.4499
C4 C 0.46056(15) 0.38189(13) 0.28980(16)
C5 C 0.55283(15) 0.39826(13) 0.22947(15)
H2 H 0.5397 0.4161 0.1518
C6 C 0.66623(15) 0.38854(13) 0.28271(15)
C7 C 0.89192(15) 0.29456(13) 0.44743(15)
C8 C 0.92648(15) 0.22072(13) 0.36874(15)
C9 C 1.04072(15) 0.18622(13) 0.37003(15)
H3 H 1.0604 0.1381 0.3153
C10 C 1.12471(14) 0.22267(13) 0.45153(15)
C11 C 1.09776(15) 0.29142(13) 0.53524(16)
H4 H 1.1555 0.3148 0.5927
C12 C 0.98473(15) 0.32325(13) 0.53054(15)
N8 N 0.06160(14) 0.45838(13) 0.14526(14)
C13 C 0.04304(15) 0.45766(13) 0.01990(15)
H5 H 0.0121 0.3900 -0.0073
H6 H 0.1179 0.4694 -0.0109
H7 H -0.0020(19) 0.4448(15) 0.1731(18)
H8 H 0.0835(18) 0.5207(17) 0.1770(19)
H9 H 0.117(2) 0.414(2) 0.174(2)
N8B N -0.06160(14) 0.54162(13) -0.14526(14)
C13B C -0.04304(15) 0.54234(13) -0.01990(15)
H5B H -0.0121 0.6100 0.0073
H6B H -0.1179 0.5306 0.0109
H7B H 0.0020(19) 0.5552(15) -0.1731(18)
H8B H -0.0835(18) 0.4793(17) -0.1770(19)
H9B H -0.117(2) 0.586(2) -0.174(2)
loop_
_geom_bond_atom_site_label_1
_geom_bond_atom_site_label_2
_geom_bond_site_symmetry_1
_geom_bond_site_symmetry_2
O1 N2 1_555 1_555
O2 N2 1_555 1_555
O3 N3 1_555 1_555
O4 N3 1_555 1_555
O5 N4 1_555 1_555
O6 N4 1_555 1_555
O7 N5 1_555 1_555
O8 N5 1_555 1_555
O9 N6 1_555 1_555
O10 N6 1_555 1_555
O11 N7 1_555 1_555
O12 N7 1_555 1_555
N1 C1 1_555 1_555
N2 C2 1_555 1_555
N3 C4 1_555 1_555
N4 C6 1_555 1_555
N5 C8 1_555 1_555
N6 C10 1_555 1_555
N7 C12 1_555 1_555
N8 C13 1_555 1_555
C1 C2 1_555 1_555
C2 C3 1_555 1_555
C3 H1 1_555 1_555
C4 C3 1_555 1_555
C5 C4 1_555 1_555
H2 C5 1_555 1_555
C6 C1 1_555 1_555
C7 N1 1_555 1_555
C8 C7 1_555 1_555
C9 C8 1_555 1_555
H3 C9 1_555 1_555
C10 C9 1_555 1_555
C11 C10 1_555 1_555
H4 C11 1_555 1_555
C12 C7 1_555 1_555
C13 H5 1_555 1_555
H6 C13 1_555 1_555
H7 N8 1_555 1_555
H8 N8 1_555 1_555
H9 N8 1_555 1_555
N8B C13B 1_555 1_555
C13B C13 1_555 1_555
H5B C13B 1_555 1_555
H6B C13B 1_555 1_555
H7B N8B 1_555 1_555
H8B N8B 1_555 1_555
H9B N8B 1_555 1_555
C5 C6 1_555 1_555
C11 C12 1_555 1_555

#END
