
#######################################################################
#
#                 Cambridge Crystallographic Data Centre
#                                CCDC 
#
#######################################################################
#
# If this CIF has been generated from an entry in the Cambridge 
# Structural Database, then it will include bibliographic, chemical, 
# crystal, experimental, refinement or atomic coordinate data resulting 
# from the CCDC's data processing and validation procedures.
#
#######################################################################

data_RAKHIV
_chemical_formula_moiety         'C30 H23 N3 O5 S1,0.5(C5 H12)'
_chemical_name_systematic        
"2-Phenyl-14-phenylsulfonyl-3a,7,8,9,14,14b-hexahydro-1H-furo(3',2':8,9)pyrrolo(3',4':6,7)azonino(5,4-b)indole-1,3(2H)-dione pentane solvate"
_symmetry_cell_setting           monoclinic
_symmetry_space_group_name_H-M   'C 2/c'
_symmetry_Int_Tables_number      15
_space_group_name_Hall           '-C 2yn'
loop_
_symmetry_equiv_pos_site_id
_symmetry_equiv_pos_as_xyz
1 x,y,z
2 1/2+x,1/2+y,z
3 -x,y,1/2-z
4 1/2-x,1/2+y,1/2-z
5 -x,-y,-z
6 1/2-x,1/2-y,-z
7 x,-y,1/2+z
8 1/2+x,1/2-y,1/2+z
_cell_length_a                   27.7555(3)
_cell_length_b                   9.69760(10)
_cell_length_c                   23.6943(3)
_cell_angle_alpha                90
_cell_angle_beta                 124.9880(10)
_cell_angle_gamma                90
_cell_volume                     5224.99
_exptl_crystal_colour            orange-brown
_exptl_crystal_description       prism
_chemical_melting_point          '187-189 deg.C'
_cell_formula_units_Z            8
loop_
_atom_site_label
_atom_site_type_symbol
_atom_site_fract_x
_atom_site_fract_y
_atom_site_fract_z
C1 C 0.25264(10) 1.0040(2) 0.41870(12)
C2 C 0.29483(11) 1.0815(3) 0.47256(13)
C3 C 0.28383(12) 1.0810(3) 0.52494(13)
C4 C 0.31355(15) 1.1414(4) 0.58979(16)
H1 H 0.3473 1.1935 0.6062
C5 C 0.29223(17) 1.1229(4) 0.62925(17)
H2 H 0.3118 1.1628 0.6728
C6 C 0.24216(15) 1.0461(4) 0.60522(17)
H3 H 0.2286 1.0357 0.6329
C7 C 0.21136(13) 0.9836(3) 0.54059(15)
H4 H 0.1775 0.9322 0.5244
C8 C 0.23371(11) 1.0020(3) 0.50161(13)
C9 C 0.25007(9) 0.9730(2) 0.35551(12)
H5 H 0.2747 1.0437 0.3543
C10 C 0.19101(9) 0.9836(2) 0.28593(12)
C11 C 0.23628(10) 0.7876(2) 0.27903(13)
C12 C 0.27651(10) 0.8340(2) 0.35352(12)
H6 H 0.2738 0.7674 0.3827
C13 C 0.33994(10) 0.8447(2) 0.37769(13)
C14 C 0.36318(11) 0.8334(3) 0.33719(15)
H7 H 0.3424 0.8097 0.2908
C15 C 0.42053(11) 0.8636(3) 0.37900(16)
H8 H 0.4461 0.8652 0.3656
C16 C 0.38607(10) 0.8803(3) 0.44191(13)
C17 C 0.40237(12) 1.0472(3) 0.52793(14)
H9 H 0.4357 1.0850 0.5301
H10 H 0.4120 1.0479 0.5743
C18 C 0.34852(11) 1.1415(3) 0.48193(13)
H11 H 0.3562 1.2319 0.5030
H12 H 0.3420 1.1526 0.4373
C19 C 0.09730(10) 0.9335(3) 0.37230(13)
C20 C 0.05628(12) 0.8749(4) 0.38063(16)
H13 H 0.0615 0.7861 0.3981
C21 C 0.00716(12) 0.9519(4) 0.36225(17)
H14 H -0.0215 0.9128 0.3660
C22 C 0.00017(12) 1.0833(4) 0.33893(15)
H15 H -0.0327 1.1339 0.3278
C23 C 0.04157(12) 1.1420(3) 0.33172(16)
H16 H 0.0371 1.2325 0.3166
C24 C 0.08984(12) 1.0657(3) 0.34710(15)
H17 H 0.1171 1.1034 0.3405
C25 C 0.14182(10) 0.8652(2) 0.17260(12)
C26 C 0.11058(11) 0.7424(3) 0.14907(13)
H18 H 0.1204 0.6688 0.1790
C27 C 0.06447(11) 0.7318(3) 0.08012(14)
H19 H 0.0427 0.6507 0.0636
C28 C 0.05051(11) 0.8408(3) 0.03562(13)
H20 H 0.0198 0.8323 -0.0107
C29 C 0.08199(11) 0.9622(3) 0.05984(14)
H21 H 0.0724 1.0354 0.0298
C30 C 0.12768(10) 0.9754(3) 0.12862(13)
H22 H 0.1487 1.0575 0.1451
N1 N 0.21402(8) 0.9516(2) 0.43563(10)
N2 N 0.18946(8) 0.8800(2) 0.24390(10)
N3 N 0.39362(9) 0.9040(2) 0.50404(11)
H23 H 0.3634 0.8601 0.5042
O1 O 0.16937(8) 0.73517(19) 0.44321(11)
O2 O 0.15744(8) 0.79637(18) 0.33534(10)
O3 O 0.15350(7) 1.06934(17) 0.26769(8)
O4 O 0.24280(7) 0.68873(18) 0.25321(9)
O5 O 0.43623(7) 0.89182(19) 0.44386(10)
S1 S 0.16022(3) 0.83761(6) 0.39487(3)
C32 C 0.47293(16) 0.0547(4) 0.27321(18)
C34 C 0.5000 0.0028(13) 0.2500
C35 C 0.4266(6) -0.0141(14) 0.2356(7)
C32B C 0.52707(16) 0.0547(4) 0.22679(18)
C35B C 0.5734(6) -0.0141(14) 0.2644(7)
C31? C 0.45473(17) 0.0043(4) 0.27749(19)
C33? C 0.4586(3) 0.0889(7) 0.2238(3)
loop_
_geom_bond_atom_site_label_1
_geom_bond_atom_site_label_2
_geom_bond_site_symmetry_1
_geom_bond_site_symmetry_2
C1 C2 1_555 1_555
C2 C3 1_555 1_555
C3 C4 1_555 1_555
C4 H1 1_555 1_555
C5 C4 1_555 1_555
H2 C5 1_555 1_555
C6 C5 1_555 1_555
H3 C6 1_555 1_555
C7 C6 1_555 1_555
H4 C7 1_555 1_555
C8 C3 1_555 1_555
C9 C1 1_555 1_555
H5 C9 1_555 1_555
C10 C9 1_555 1_555
C11 C12 1_555 1_555
C12 C9 1_555 1_555
H6 C12 1_555 1_555
C13 C12 1_555 1_555
C14 C13 1_555 1_555
H7 C14 1_555 1_555
C15 C14 1_555 1_555
H8 C15 1_555 1_555
C16 C13 1_555 1_555
C17 H9 1_555 1_555
H10 C17 1_555 1_555
C18 C2 1_555 1_555
H11 C18 1_555 1_555
H12 C18 1_555 1_555
C19 C20 1_555 1_555
C20 H13 1_555 1_555
C21 C20 1_555 1_555
H14 C21 1_555 1_555
C22 C21 1_555 1_555
H15 C22 1_555 1_555
C23 C22 1_555 1_555
H16 C23 1_555 1_555
C24 C19 1_555 1_555
H17 C24 1_555 1_555
C25 C26 1_555 1_555
C26 H18 1_555 1_555
C27 C26 1_555 1_555
H19 C27 1_555 1_555
C28 C27 1_555 1_555
H20 C28 1_555 1_555
C29 C28 1_555 1_555
H21 C29 1_555 1_555
C30 C25 1_555 1_555
H22 C30 1_555 1_555
N1 C1 1_555 1_555
N2 C10 1_555 1_555
N3 C16 1_555 1_555
H23 N3 1_555 1_555
O1 S1 1_555 1_555
O2 S1 1_555 1_555
O3 C10 1_555 1_555
O4 C11 1_555 1_555
O5 C15 1_555 1_555
S1 C19 1_555 1_555
C32 C34 1_555 1_555
C34 C32B 1_555 1_555
C35 C32 1_555 1_555
C32B C35B 1_555 1_555
C7 C8 1_555 1_555
C8 N1 1_555 1_555
C11 N2 1_555 1_555
C16 O5 1_555 1_555
C17 C18 1_555 1_555
C17 N3 1_555 1_555
C23 C24 1_555 1_555
C25 N2 1_555 1_555
C29 C30 1_555 1_555
N1 S1 1_555 1_555

#END
