
#######################################################################
#
#                 Cambridge Crystallographic Data Centre
#                                CCDC 
#
#######################################################################
#
# If this CIF has been generated from an entry in the Cambridge 
# Structural Database, then it will include bibliographic, chemical, 
# crystal, experimental, refinement or atomic coordinate data resulting 
# from the CCDC's data processing and validation procedures.
#
#######################################################################

data_RAKQIF
_chemical_formula_moiety         'C10 H19 N1 O1,0.25(H2 O1)'
_chemical_name_systematic        '2-Azaspiro[5.5]undecan-7-ol hydrate'
_symmetry_cell_setting           monoclinic
_symmetry_space_group_name_H-M   'C 2'
_symmetry_Int_Tables_number      5
_space_group_name_Hall           'C 2y'
loop_
_symmetry_equiv_pos_site_id
_symmetry_equiv_pos_as_xyz
1 x,y,z
2 -x,y,-z
3 1/2+x,1/2+y,z
4 1/2-x,1/2+y,-z
_cell_length_a                   11.0145(14)
_cell_length_b                   8.5956(11)
_cell_length_c                   11.6496(15)
_cell_angle_alpha                90
_cell_angle_beta                 111.863(2)
_cell_angle_gamma                90
_cell_volume                     1023.61
_exptl_crystal_colour            colorless
_exptl_crystal_description       needle
_cell_formula_units_Z            4
loop_
_atom_site_label
_atom_site_type_symbol
_atom_site_fract_x
_atom_site_fract_y
_atom_site_fract_z
O1 O 0.93003(19) 0.7458(3) 0.6389(2)
H1 H 0.8983 0.7182 0.5663
C1 C 0.7131(3) 0.9656(4) 0.5939(3)
H2 H 0.7696 0.9615 0.5469
H3 H 0.6353 0.9055 0.5489
N1 N 0.6737(3) 1.1281(4) 0.5981(3)
H4 H 0.5954 1.1619 0.5605
C2 C 0.7823(4) 1.2255(5) 0.6732(3)
H5 H 0.7498 1.3290 0.6788
H6 H 0.8448 1.2344 0.6329
C3 C 0.8513(4) 1.1613(4) 0.8027(3)
H7 H 0.7926 1.1653 0.8474
H8 H 0.9271 1.2251 0.8467
C4 C 0.8948(3) 0.9933(4) 0.7979(3)
H9 H 0.9309 0.9523 0.8814
H10 H 0.9637 0.9925 0.7650
C5 C 0.7840(3) 0.8867(4) 0.7189(3)
C6 C 0.8347(3) 0.7278(4) 0.6948(3)
H11 H 0.7604 0.6698 0.6371
C7 C 0.8946(4) 0.6306(5) 0.8123(4)
H12 H 0.9227 0.5311 0.7916
H13 H 0.9711 0.6836 0.8692
C8 C 0.7976(4) 0.6032(6) 0.8753(4)
H14 H 0.7270 0.5375 0.8232
H15 H 0.8412 0.5494 0.9530
C9 C 0.7414(4) 0.7554(5) 0.8996(3)
H16 H 0.8096 0.8138 0.9622
H17 H 0.6732 0.7335 0.9311
C10 C 0.6852(3) 0.8530(5) 0.7829(3)
H18 H 0.6550 0.9512 0.8036
H19 H 0.6098 0.7995 0.7247
O2 O 0.5000 0.525(2) 0.5000
H20? H 0.513(4) 0.485(5) 0.530(3)
loop_
_geom_bond_atom_site_label_1
_geom_bond_atom_site_label_2
_geom_bond_site_symmetry_1
_geom_bond_site_symmetry_2
O1 H1 1_555 1_555
C1 H2 1_555 1_555
H3 C1 1_555 1_555
N1 C1 1_555 1_555
H4 N1 1_555 1_555
C2 N1 1_555 1_555
H5 C2 1_555 1_555
H6 C2 1_555 1_555
C3 C2 1_555 1_555
H7 C3 1_555 1_555
H8 C3 1_555 1_555
C4 C3 1_555 1_555
H9 C4 1_555 1_555
H10 C4 1_555 1_555
C5 C1 1_555 1_555
C6 O1 1_555 1_555
H11 C6 1_555 1_555
C7 C6 1_555 1_555
H12 C7 1_555 1_555
H13 C7 1_555 1_555
C8 C7 1_555 1_555
H14 C8 1_555 1_555
H15 C8 1_555 1_555
C9 C8 1_555 1_555
H16 C9 1_555 1_555
H17 C9 1_555 1_555
C10 C5 1_555 1_555
H18 C10 1_555 1_555
H19 C10 1_555 1_555
C4 C5 1_555 1_555
C5 C6 1_555 1_555
C9 C10 1_555 1_555

#END
