
#######################################################################
#
#                 Cambridge Crystallographic Data Centre
#                                CCDC 
#
#######################################################################
#
# If this CIF has been generated from an entry in the Cambridge 
# Structural Database, then it will include bibliographic, chemical, 
# crystal, experimental, refinement or atomic coordinate data resulting 
# from the CCDC's data processing and validation procedures.
#
#######################################################################

data_RAKYOR01
_chemical_formula_moiety         'C10 H6 O6 S2 2-,H12 Mg1 O6 2+'
_chemical_name_systematic        
'Hexa-aqua-magnesium(ii) 1,5-naphthalenedisulfonate'
_symmetry_cell_setting           monoclinic
_symmetry_space_group_name_H-M   'P 21/c'
_symmetry_Int_Tables_number      14
_space_group_name_Hall           '-P 2ybc'
loop_
_symmetry_equiv_pos_site_id
_symmetry_equiv_pos_as_xyz
1 x,y,z
2 -x,1/2+y,1/2-z
3 -x,-y,-z
4 x,1/2-y,1/2+z
_cell_length_a                   13.162(4)
_cell_length_b                   6.684(2)
_cell_length_c                   9.638(4)
_cell_angle_alpha                90
_cell_angle_beta                 92.346(3)
_cell_angle_gamma                90
_cell_volume                     847.191
_exptl_crystal_colour            colorless
_exptl_crystal_description       prism
_cell_formula_units_Z            2
loop_
_atom_site_label
_atom_site_type_symbol
_atom_site_fract_x
_atom_site_fract_y
_atom_site_fract_z
Mg1 Mg 0.5000 0.5000 0.5000
O1 O 0.41259(9) 0.64924(19) 0.64489(12)
H1 H 0.3778 0.7456 0.6051
H2 H 0.3702 0.5670 0.6820
O2 O 0.47286(10) 0.2319(2) 0.59700(14)
H3 H 0.4926 0.2393 0.6822
H4 H 0.4093 0.2066 0.5915
O3 O 0.62268(10) 0.53717(19) 0.63252(14)
H5 H 0.6702 0.4567 0.6110
H6 H 0.6445 0.6576 0.6276
O1B O 0.58741(9) 0.35076(19) 0.35511(12)
H1B H 0.6222 0.2544 0.3949
H2B H 0.6298 0.4330 0.3180
O2B O 0.52714(10) 0.7681(2) 0.40300(14)
H3B H 0.5074 0.7607 0.3178
H4B H 0.5907 0.7934 0.4085
O3B O 0.37732(10) 0.46283(19) 0.36748(14)
H5B H 0.3298 0.5433 0.3890
H6B H 0.3555 0.3424 0.3724
S1 S 0.75011(3) 0.03344(6) 0.58453(4)
C1 C 0.89641(14) -0.2407(3) 0.63955(19)
H7 H 0.8459 -0.3077 0.6857
C2 C 0.87454(13) -0.0651(3) 0.57256(18)
C3 C 0.94982(13) 0.0407(3) 0.49900(18)
C4 C 0.92995(14) 0.2221(3) 0.4265(2)
H8 H 0.8645 0.2749 0.4235
C5 C 1.00495(15) 0.3200(3) 0.3611(2)
H9 H 0.9907 0.4407 0.3165
O4 O 0.70051(10) 0.0185(2) 0.44711(15)
O5 O 0.76116(10) 0.2377(2) 0.63295(15)
O6 O 0.69965(10) -0.0918(2) 0.68542(14)
S1B S 1.24989(3) -0.03344(6) 0.41547(4)
C1B C 1.10359(14) 0.2407(3) 0.36045(19)
H7B H 1.1541 0.3077 0.3143
C2B C 1.12546(13) 0.0651(3) 0.42744(18)
C3B C 1.05018(13) -0.0407(3) 0.50100(18)
C4B C 1.07005(14) -0.2221(3) 0.5735(2)
H8B H 1.1355 -0.2749 0.5765
C5B C 0.99505(15) -0.3200(3) 0.6389(2)
H9B H 1.0093 -0.4407 0.6835
O4B O 1.29949(10) -0.0185(2) 0.55289(15)
O5B O 1.23884(10) -0.2377(2) 0.36705(15)
O6B O 1.30035(10) 0.0918(2) 0.31458(14)
loop_
_geom_bond_atom_site_label_1
_geom_bond_atom_site_label_2
_geom_bond_site_symmetry_1
_geom_bond_site_symmetry_2
Mg1 O1 1_555 1_555
O1 H1 1_555 1_555
H2 O1 1_555 1_555
O2 Mg1 1_555 1_555
H3 O2 1_555 1_555
H4 O2 1_555 1_555
O3 Mg1 1_555 1_555
H5 O3 1_555 1_555
H6 O3 1_555 1_555
S1 C2 1_555 1_555
C1 H7 1_555 1_555
C2 C1 1_555 1_555
C3 C2 1_555 1_555
C4 C3 1_555 1_555
H8 C4 1_555 1_555
C5 C4 1_555 1_555
H9 C5 1_555 1_555
O4 S1 1_555 1_555
O5 S1 1_555 1_555
O6 S1 1_555 1_555
O1B Mg1 1_555 1_555
H1B O1B 1_555 1_555
H2B O1B 1_555 1_555
O2B Mg1 1_555 1_555
H3B O2B 1_555 1_555
H4B O2B 1_555 1_555
O3B Mg1 1_555 1_555
H5B O3B 1_555 1_555
H6B O3B 1_555 1_555
S1B C2B 1_555 1_555
C1B C5 1_555 1_555
H7B C1B 1_555 1_555
C2B C1B 1_555 1_555
C3B C3 1_555 1_555
C4B C3B 1_555 1_555
H8B C4B 1_555 1_555
C5B C1 1_555 1_555
H9B C5B 1_555 1_555
O4B S1B 1_555 1_555
O5B S1B 1_555 1_555
O6B S1B 1_555 1_555
C2B C3B 1_555 1_555
C4B C5B 1_555 1_555

#END
