
#######################################################################
#
#                 Cambridge Crystallographic Data Centre
#                                CCDC 
#
#######################################################################
#
# If this CIF has been generated from an entry in the Cambridge 
# Structural Database, then it will include bibliographic, chemical, 
# crystal, experimental, refinement or atomic coordinate data resulting 
# from the CCDC's data processing and validation procedures.
#
#######################################################################

data_RAKZAG
_chemical_formula_moiety         'C44 H48 N6 O4,2(H2 O1)'
_chemical_name_systematic        
"3,4-bis((6'-Methoxycinchonan-9-yl)amino)cyclobut-3-ene-1,2-dione dihydrate"
_symmetry_cell_setting           monoclinic
_symmetry_space_group_name_H-M   'P 21'
_symmetry_Int_Tables_number      4
_space_group_name_Hall           'P 2yb'
loop_
_symmetry_equiv_pos_site_id
_symmetry_equiv_pos_as_xyz
1 x,y,z
2 -x,1/2+y,-z
_cell_length_a                   10.2837(2)
_cell_length_b                   16.8731(3)
_cell_length_c                   12.5611(2)
_cell_angle_alpha                90
_cell_angle_beta                 109.1920(10)
_cell_angle_gamma                90
_cell_volume                     2058.44
_exptl_crystal_colour            colorless
_exptl_crystal_description       block
_cell_formula_units_Z            2
loop_
_atom_site_label
_atom_site_type_symbol
_atom_site_fract_x
_atom_site_fract_y
_atom_site_fract_z
O1 O 0.22006(15) -0.45042(8) 0.01591(12)
O2 O -0.28470(17) -0.48523(9) -0.0851(2)
O3 O 0.52495(15) -0.42073(8) 0.20424(12)
O4 O 0.97451(18) -0.47045(9) 0.26030(17)
N1 N 0.21256(13) -0.26286(8) -0.05545(11)
H1 H 0.2269 -0.2126 -0.0484
N2 N -0.27653(17) -0.16332(9) -0.15388(13)
N3 N 0.23719(16) -0.33021(11) -0.25829(14)
N4 N 0.51138(14) -0.23663(8) 0.12010(11)
H2 H 0.4943 -0.1977 0.0733
N5 N 0.99057(18) -0.15753(10) 0.14488(15)
N6 N 0.46402(16) -0.19196(10) 0.32049(14)
C1 C 0.30035(16) -0.31167(9) 0.01469(13)
C2 C 0.29968(19) -0.39488(10) 0.04576(15)
C3 C 0.43971(18) -0.38134(10) 0.13228(15)
C4 C 0.43043(16) -0.29941(10) 0.09488(13)
C5 C 0.09129(15) -0.29240(10) -0.14499(13)
H3 H 0.0799 -0.3488 -0.1314
C6 C -0.03781(16) -0.24857(10) -0.14453(13)
C7 C -0.0473(2) -0.16837(12) -0.15854(17)
H4 H 0.0271 -0.1402 -0.1657
C8 C -0.1672(2) -0.12805(12) -0.16223(17)
H5 H -0.1694 -0.0733 -0.1711
C9 C -0.27124(17) -0.24338(10) -0.13754(14)
C10 C -0.38720(18) -0.28156(12) -0.12552(17)
H6 H -0.4646 -0.2517 -0.1290
C11 C -0.3886(2) -0.36046(13) -0.1090(2)
H7 H -0.4668 -0.3847 -0.1023
C12 C -0.2718(2) -0.40602(12) -0.1020(2)
C13 C -0.15688(19) -0.37190(11) -0.11247(17)
H8 H -0.0805 -0.4031 -0.1074
C14 C -0.15242(16) -0.28894(10) -0.13109(13)
C15 C -0.1765(3) -0.53589(15) -0.0945(4)
H9 H -0.1974 -0.5900 -0.0826
H10 H -0.0909 -0.5210 -0.0388
H11 H -0.1690 -0.5305 -0.1683
C16 C 0.11652(17) -0.28409(12) -0.25775(14)
H12 H 0.1375 -0.2282 -0.2658
C17 C -0.0107(2) -0.30558(14) -0.36001(15)
H13 H -0.0720 -0.3401 -0.3368
H14 H -0.0609 -0.2580 -0.3930
C18 C 0.0427(3) -0.34808(17) -0.44594(19)
H15 H -0.0323 -0.3550 -0.5175
C19 C 0.1594(3) -0.30068(17) -0.46442(17)
H16 H 0.1904 -0.3300 -0.5190
C20 C 0.2808(2) -0.29999(18) -0.35125(17)
H17 H 0.3552 -0.3326 -0.3584
H18 H 0.3150 -0.2463 -0.3343
C21 C 0.2022(3) -0.41431(15) -0.2793(2)
H19 H 0.1643 -0.4338 -0.2230
H20 H 0.2851 -0.4442 -0.2723
C22 C 0.0975(3) -0.42743(19) -0.3970(3)
H21 H 0.1413 -0.4538 -0.4449
H22 H 0.0227 -0.4606 -0.3920
C23 C 0.1131(3) -0.2214(2) -0.5139(2)
H23 H 0.0364 -0.2224 -0.5788
C24 C 0.1602(4) -0.1522(2) -0.4829(3)
H24 H 0.2369 -0.1457 -0.4187
H25 H 0.1180 -0.1081 -0.5244
C25 C 0.62838(15) -0.23024(10) 0.22367(13)
H26 H 0.6445 -0.2825 0.2597
C26 C 0.75552(16) -0.20730(9) 0.19549(13)
C27 C 0.7691(2) -0.13215(11) 0.16071(18)
H27 H 0.6996 -0.0952 0.1534
C28 C 0.8870(2) -0.11036(13) 0.1359(2)
H28 H 0.8921 -0.0588 0.1114
C29 C 0.97911(18) -0.23294(11) 0.17621(14)
C30 C 1.0905(2) -0.28479(13) 0.18635(17)
H29 H 1.1684 -0.2657 0.1727
C31 C 1.0862(2) -0.36116(14) 0.2153(2)
H30 H 1.1613 -0.3940 0.2229
C32 C 0.9680(2) -0.39171(12) 0.23430(17)
C33 C 0.85813(19) -0.34395(10) 0.22764(15)
H31 H 0.7812 -0.3647 0.2412
C34 C 0.86207(16) -0.26231(9) 0.19986(13)
C35 C 0.8622(3) -0.50423(13) 0.2838(3)
H32 H 0.8797 -0.5595 0.3006
H33 H 0.7806 -0.4985 0.2193
H34 H 0.8495 -0.4779 0.3473
C36 C 0.59503(18) -0.17214(11) 0.30442(14)
H35 H 0.5839 -0.1198 0.2688
C37 C 0.7120(2) -0.16536(16) 0.41781(17)
H36 H 0.7766 -0.2087 0.4261
H37 H 0.7612 -0.1159 0.4212
C38 C 0.6487(3) -0.16836(17) 0.51187(19)
H38 H 0.7200 -0.1596 0.5850
C39 C 0.5365(3) -0.10668(15) 0.4925(2)
H39 H 0.4938 -0.1137 0.5511
C40 C 0.4261(3) -0.12391(17) 0.3781(2)
H40 H 0.3392 -0.1350 0.3898
H41 H 0.4137 -0.0774 0.3305
C41 C 0.4772(2) -0.26068(14) 0.3928(2)
H42 H 0.5023 -0.3063 0.3568
H43 H 0.3888 -0.2716 0.4018
C42 C 0.5853(3) -0.24909(17) 0.5093(2)
H44 H 0.5424 -0.2529 0.5673
H45 H 0.6555 -0.2898 0.5231
C43 C 0.5882(6) -0.0238(3) 0.5005(5)
H46 H 0.6419 -0.0163 0.4544
C44 C 0.5809(8) 0.0319(3) 0.5458(8)
H47 H 0.5301 0.0328 0.5949
H48 H 0.6257 0.0774 0.5346
O5 O 0.37001(16) -0.11314(9) -0.03643(15)
H49 H 0.376(2) -0.0672(16) -0.010(2)
H50 H 0.414(4) -0.102(2) -0.095(3)
O6 O 0.53325(17) -0.58671(10) 0.20573(14)
H51 H 0.523(2) -0.5326(15) 0.2101(17)
H52 H 0.452(3) -0.6066(17) 0.184(2)
loop_
_geom_bond_atom_site_label_1
_geom_bond_atom_site_label_2
_geom_bond_site_symmetry_1
_geom_bond_site_symmetry_2
O1 C2 1_555 1_555
O2 C12 1_555 1_555
O3 C3 1_555 1_555
O4 C32 1_555 1_555
O5 H49 1_555 1_555
O6 H51 1_555 1_555
N1 H1 1_555 1_555
N2 C8 1_555 1_555
N3 C16 1_555 1_555
N4 H2 1_555 1_555
N5 C28 1_555 1_555
N6 C36 1_555 1_555
C1 N1 1_555 1_555
C2 C1 1_555 1_555
C3 C2 1_555 1_555
C4 N4 1_555 1_555
C5 N1 1_555 1_555
H3 C5 1_555 1_555
C6 C5 1_555 1_555
C7 C6 1_555 1_555
H4 C7 1_555 1_555
C8 C7 1_555 1_555
H5 C8 1_555 1_555
C9 N2 1_555 1_555
C10 C9 1_555 1_555
H6 C10 1_555 1_555
C11 C10 1_555 1_555
H7 C11 1_555 1_555
C12 C11 1_555 1_555
C13 C12 1_555 1_555
H8 C13 1_555 1_555
C14 C6 1_555 1_555
C15 O2 1_555 1_555
H9 C15 1_555 1_555
H10 C15 1_555 1_555
H11 C15 1_555 1_555
C16 C5 1_555 1_555
H12 C16 1_555 1_555
C17 C16 1_555 1_555
H13 C17 1_555 1_555
H14 C17 1_555 1_555
C18 C17 1_555 1_555
H15 C18 1_555 1_555
C19 C18 1_555 1_555
H16 C19 1_555 1_555
C20 N3 1_555 1_555
H17 C20 1_555 1_555
H18 C20 1_555 1_555
C21 N3 1_555 1_555
H19 C21 1_555 1_555
H20 C21 1_555 1_555
C22 C18 1_555 1_555
H21 C22 1_555 1_555
H22 C22 1_555 1_555
C23 C19 1_555 1_555
H23 C23 1_555 1_555
C24 C23 1_555 1_555
H24 C24 1_555 1_555
H25 C24 1_555 1_555
C25 N4 1_555 1_555
H26 C25 1_555 1_555
C26 C25 1_555 1_555
C27 C26 1_555 1_555
H27 C27 1_555 1_555
C28 C27 1_555 1_555
H28 C28 1_555 1_555
C29 N5 1_555 1_555
C30 C29 1_555 1_555
H29 C30 1_555 1_555
C31 C30 1_555 1_555
H30 C31 1_555 1_555
C32 C31 1_555 1_555
C33 C32 1_555 1_555
H31 C33 1_555 1_555
C34 C26 1_555 1_555
C35 O4 1_555 1_555
H32 C35 1_555 1_555
H33 C35 1_555 1_555
H34 C35 1_555 1_555
C36 C25 1_555 1_555
H35 C36 1_555 1_555
C37 C36 1_555 1_555
H36 C37 1_555 1_555
H37 C37 1_555 1_555
C38 C37 1_555 1_555
H38 C38 1_555 1_555
C39 C38 1_555 1_555
H39 C39 1_555 1_555
C40 N6 1_555 1_555
H40 C40 1_555 1_555
H41 C40 1_555 1_555
C41 N6 1_555 1_555
H42 C41 1_555 1_555
H43 C41 1_555 1_555
C42 C38 1_555 1_555
H44 C42 1_555 1_555
H45 C42 1_555 1_555
C43 C39 1_555 1_555
H46 C43 1_555 1_555
C44 C43 1_555 1_555
H47 C44 1_555 1_555
H48 C44 1_555 1_555
H50 O5 1_555 1_555
H52 O6 1_555 1_555
C1 C4 1_555 1_555
C3 C4 1_555 1_555
C9 C14 1_555 1_555
C13 C14 1_555 1_555
C19 C20 1_555 1_555
C21 C22 1_555 1_555
C29 C34 1_555 1_555
C33 C34 1_555 1_555
C39 C40 1_555 1_555
C41 C42 1_555 1_555

#END
