
#######################################################################
#
#                 Cambridge Crystallographic Data Centre
#                                CCDC 
#
#######################################################################
#
# If this CIF has been generated from an entry in the Cambridge 
# Structural Database, then it will include bibliographic, chemical, 
# crystal, experimental, refinement or atomic coordinate data resulting 
# from the CCDC's data processing and validation procedures.
#
#######################################################################

data_RALFIW
_chemical_formula_moiety         'C25 H29 N3'
_chemical_name_systematic        1,2,3-tris(2,4-dimethylphenyl)guanidine
_symmetry_cell_setting           monoclinic
_symmetry_space_group_name_H-M   'P 21/n'
_symmetry_Int_Tables_number      14
_space_group_name_Hall           '-P 2yn'
loop_
_symmetry_equiv_pos_site_id
_symmetry_equiv_pos_as_xyz
1 x,y,z
2 1/2-x,1/2+y,1/2-z
3 -x,-y,-z
4 1/2+x,1/2-y,1/2+z
_cell_length_a                   8.1769(16)
_cell_length_b                   17.851(4)
_cell_length_c                   15.551(3)
_cell_angle_alpha                90
_cell_angle_beta                 100.053(3)
_cell_angle_gamma                90
_cell_volume                     2235.06
_exptl_crystal_colour            colorless
_exptl_crystal_description       rectangular
_cell_formula_units_Z            4
loop_
_atom_site_label
_atom_site_type_symbol
_atom_site_fract_x
_atom_site_fract_y
_atom_site_fract_z
C1 C 0.6565(2) 0.47795(9) 0.12292(11)
C2 C 0.6727(2) 0.44676(10) 0.28113(11)
C3 C 0.5122(3) 0.46388(14) 0.28825(15)
H1 H 0.4456 0.4903 0.2438
C4 C 0.4490(3) 0.44205(16) 0.36118(18)
H2 H 0.3390 0.4527 0.3647
C5 C 0.5477(4) 0.40449(15) 0.42919(16)
C6 C 0.7078(3) 0.38997(12) 0.42140(14)
H3 H 0.7757 0.3657 0.4672
C7 C 0.7747(2) 0.40947(10) 0.34888(12)
C8 C 0.4750(5) 0.3795(2) 0.5083(2)
H4 H 0.3727 0.4056 0.5092
H5 H 0.5522 0.3905 0.5607
H6 H 0.4543 0.3265 0.5049
C9 C 0.9516(3) 0.39246(14) 0.34430(16)
H7 H 0.9992 0.3630 0.3940
H8 H 1.0124 0.4384 0.3442
H9 H 0.9570 0.3650 0.2918
C10 C 0.5269(2) 0.35428(10) 0.11142(11)
C11 C 0.6738(3) 0.31583(12) 0.11238(14)
H10 H 0.7694 0.3420 0.1061
C12 C 0.6801(4) 0.23854(14) 0.12257(15)
H11 H 0.7806 0.2136 0.1247
C13 C 0.5407(4) 0.19871(12) 0.12950(13)
C14 C 0.3941(3) 0.23766(11) 0.12790(13)
H12 H 0.2985 0.2109 0.1325
C15 C 0.3834(3) 0.31551(10) 0.11961(12)
C16 C 0.5459(5) 0.11359(13) 0.14079(18)
H13 H 0.4778 0.0993 0.1825
H14 H 0.6583 0.0979 0.1613
H15 H 0.5050 0.0901 0.0857
C17 C 0.2205(3) 0.35411(13) 0.11992(15)
H16 H 0.2384 0.3982 0.1557
H17 H 0.1467 0.3208 0.1430
H18 H 0.1723 0.3680 0.0613
C18 C 0.8330(2) 0.57573(10) 0.09908(10)
C19 C 0.9949(3) 0.55487(11) 0.09657(13)
H19 H 1.0169 0.5060 0.0815
C20 C 1.1241(3) 0.60479(13) 0.11593(14)
H20 H 1.2318 0.5894 0.1133
C21 C 1.0951(2) 0.67801(12) 0.13936(13)
C22 C 0.9344(2) 0.69752(11) 0.14374(13)
H21 H 0.9135 0.7460 0.1607
C23 C 0.8020(2) 0.64860(10) 0.12415(11)
C24 C 1.2346(3) 0.73443(15) 0.1591(2)
H22 H 1.1925 0.7803 0.1789
H23 H 1.2799 0.7438 0.1071
H24 H 1.3200 0.7150 0.2037
C25 C 0.6300(3) 0.67318(13) 0.13069(17)
H25 H 0.6330 0.7236 0.1525
H26 H 0.5852 0.6406 0.1699
H27 H 0.5613 0.6712 0.0740
N1 N 0.7411(2) 0.46875(9) 0.20741(10)
H28 H 0.8462 0.4773 0.2160
N2 N 0.52053(19) 0.43336(8) 0.09804(10)
H29 H 0.4286 0.4536 0.0736
N3 N 0.6992(2) 0.52543(8) 0.06960(9)
loop_
_geom_bond_atom_site_label_1
_geom_bond_atom_site_label_2
_geom_bond_site_symmetry_1
_geom_bond_site_symmetry_2
C1 N1 1_555 1_555
C2 C3 1_555 1_555
C3 H1 1_555 1_555
C4 C3 1_555 1_555
H2 C4 1_555 1_555
C5 C4 1_555 1_555
C6 C5 1_555 1_555
H3 C6 1_555 1_555
C7 C2 1_555 1_555
C8 C5 1_555 1_555
H4 C8 1_555 1_555
H5 C8 1_555 1_555
H6 C8 1_555 1_555
C9 C7 1_555 1_555
H7 C9 1_555 1_555
H8 C9 1_555 1_555
H9 C9 1_555 1_555
C10 C11 1_555 1_555
C11 H10 1_555 1_555
C12 C11 1_555 1_555
H11 C12 1_555 1_555
C13 C12 1_555 1_555
C14 C13 1_555 1_555
H12 C14 1_555 1_555
C15 C10 1_555 1_555
C16 C13 1_555 1_555
H13 C16 1_555 1_555
H14 C16 1_555 1_555
H15 C16 1_555 1_555
C17 C15 1_555 1_555
H16 C17 1_555 1_555
H17 C17 1_555 1_555
H18 C17 1_555 1_555
C18 C19 1_555 1_555
C19 H19 1_555 1_555
C20 C19 1_555 1_555
H20 C20 1_555 1_555
C21 C20 1_555 1_555
C22 C21 1_555 1_555
H21 C22 1_555 1_555
C23 C18 1_555 1_555
C24 C21 1_555 1_555
H22 C24 1_555 1_555
H23 C24 1_555 1_555
H24 C24 1_555 1_555
C25 C23 1_555 1_555
H25 C25 1_555 1_555
H26 C25 1_555 1_555
H27 C25 1_555 1_555
N1 C2 1_555 1_555
H28 N1 1_555 1_555
N2 C1 1_555 1_555
H29 N2 1_555 1_555
N3 C1 1_555 1_555
C6 C7 1_555 1_555
C10 N2 1_555 1_555
C14 C15 1_555 1_555
C18 N3 1_555 1_555
C22 C23 1_555 1_555

#END
