
#######################################################################
#
#                 Cambridge Crystallographic Data Centre
#                                CCDC 
#
#######################################################################
#
# If this CIF has been generated from an entry in the Cambridge 
# Structural Database, then it will include bibliographic, chemical, 
# crystal, experimental, refinement or atomic coordinate data resulting 
# from the CCDC's data processing and validation procedures.
#
#######################################################################

data_RALNOI
_chemical_formula_moiety         'C13 H18 O2 S5'
_chemical_name_systematic        
4,5-bis(Pivaloylsulfanyl)-1,3-dithiolane-2-thione
_symmetry_cell_setting           monoclinic
_symmetry_space_group_name_H-M   'C 2/c'
_symmetry_Int_Tables_number      15
_space_group_name_Hall           '-C 2yn'
loop_
_symmetry_equiv_pos_site_id
_symmetry_equiv_pos_as_xyz
1 x,y,z
2 1/2+x,1/2+y,z
3 -x,y,1/2-z
4 1/2-x,1/2+y,1/2-z
5 -x,-y,-z
6 1/2-x,1/2-y,-z
7 x,-y,1/2+z
8 1/2+x,1/2-y,1/2+z
_cell_length_a                   23.469(5)
_cell_length_b                   8.953(5)
_cell_length_c                   8.492(5)
_cell_angle_alpha                90
_cell_angle_beta                 95.879(5)
_cell_angle_gamma                90
_cell_volume                     1774.94
_exptl_crystal_colour            'pale yellow'
_exptl_crystal_description       prism
_cell_formula_units_Z            4
_exptl_crystal_recrystallization_method acetone
loop_
_atom_site_label
_atom_site_type_symbol
_atom_site_fract_x
_atom_site_fract_y
_atom_site_fract_z
C1 C 0.0000 0.1586(6) 0.2500
C2 C 0.02496(14) 0.4396(4) 0.2176(4)
C3 C 0.12931(17) 0.5834(5) 0.2417(6)
C4 C 0.16726(16) 0.7188(4) 0.2268(5)
C5 C 0.14658(19) 0.8195(5) 0.0896(6)
H1 H 0.1473 0.7658 -0.0080
H2 H 0.1712 0.9052 0.0892
H3 H 0.1081 0.8515 0.1005
C6 C 0.1672(2) 0.8023(7) 0.3840(6)
H4 H 0.1292 0.8373 0.3957
H5 H 0.1929 0.8859 0.3852
H6 H 0.1795 0.7362 0.4698
C7 C 0.2272(2) 0.6627(6) 0.2058(7)
H7 H 0.2266 0.6106 0.1069
H8 H 0.2398 0.5962 0.2910
H9 H 0.2530 0.7460 0.2063
S1 S 0.05302(4) 0.26497(11) 0.17973(16)
S2 S 0.05722(4) 0.60354(12) 0.15865(16)
O1 O 0.14523(17) 0.4707(5) 0.3048(8)
S3 S 0.0000 -0.0231(2) 0.2500
C2B C -0.02496(14) 0.4396(4) 0.2824(4)
C3B C -0.12931(17) 0.5834(5) 0.2583(6)
C4B C -0.16726(16) 0.7188(4) 0.2732(5)
C5B C -0.14658(19) 0.8195(5) 0.4104(6)
H1B H -0.1473 0.7658 0.5080
H2B H -0.1712 0.9052 0.4108
H3B H -0.1081 0.8515 0.3995
C6B C -0.1672(2) 0.8023(7) 0.1160(6)
H4B H -0.1292 0.8373 0.1043
H5B H -0.1929 0.8859 0.1148
H6B H -0.1795 0.7362 0.0302
C7B C -0.2272(2) 0.6627(6) 0.2942(7)
H7B H -0.2266 0.6106 0.3931
H8B H -0.2398 0.5962 0.2090
H9B H -0.2530 0.7460 0.2937
S1B S -0.05302(4) 0.26497(11) 0.32027(16)
S2B S -0.05722(4) 0.60354(12) 0.34135(16)
O1B O -0.14523(17) 0.4707(5) 0.1952(8)
loop_
_geom_bond_atom_site_label_1
_geom_bond_atom_site_label_2
_geom_bond_site_symmetry_1
_geom_bond_site_symmetry_2
C1 S1 1_555 1_555
C2 S1 1_555 1_555
C3 C4 1_555 1_555
C4 C5 1_555 1_555
C5 H1 1_555 1_555
H2 C5 1_555 1_555
H3 C5 1_555 1_555
C6 C4 1_555 1_555
H4 C6 1_555 1_555
H5 C6 1_555 1_555
H6 C6 1_555 1_555
C7 C4 1_555 1_555
H7 C7 1_555 1_555
H8 C7 1_555 1_555
H9 C7 1_555 1_555
S2 C2 1_555 1_555
O1 C3 1_555 1_555
S3 C1 1_555 1_555
C2B C2 1_555 1_555
C3B C4B 1_555 1_555
C4B C5B 1_555 1_555
C5B H1B 1_555 1_555
H2B C5B 1_555 1_555
H3B C5B 1_555 1_555
C6B C4B 1_555 1_555
H4B C6B 1_555 1_555
H5B C6B 1_555 1_555
H6B C6B 1_555 1_555
C7B C4B 1_555 1_555
H7B C7B 1_555 1_555
H8B C7B 1_555 1_555
H9B C7B 1_555 1_555
S1B C1 1_555 1_555
S2B C2B 1_555 1_555
O1B C3B 1_555 1_555
C3 S2 1_555 1_555
C2B S1B 1_555 1_555
C3B S2B 1_555 1_555

#END
