
#######################################################################
#
#                 Cambridge Crystallographic Data Centre
#                                CCDC 
#
#######################################################################
#
# If this CIF has been generated from an entry in the Cambridge 
# Structural Database, then it will include bibliographic, chemical, 
# crystal, experimental, refinement or atomic coordinate data resulting 
# from the CCDC's data processing and validation procedures.
#
#######################################################################

data_RALQAW
_chemical_formula_moiety         'C56 H48 O8,6(C5 H5 N1)'
_chemical_name_systematic        'Calix(8)arene pyridine clathrate'
_symmetry_cell_setting           triclinic
_symmetry_space_group_name_H-M   'P -1'
_symmetry_Int_Tables_number      2
_space_group_name_Hall           '-P 1'
loop_
_symmetry_equiv_pos_site_id
_symmetry_equiv_pos_as_xyz
1 x,y,z
2 -x,-y,-z
_cell_length_a                   10.426(2)
_cell_length_b                   13.589(3)
_cell_length_c                   13.739(3)
_cell_angle_alpha                68.699(4)
_cell_angle_beta                 78.249(5)
_cell_angle_gamma                85.159(5)
_cell_volume                     1775.43
_exptl_crystal_colour            colorless
_exptl_crystal_description       plate
_cell_formula_units_Z            1
loop_
_atom_site_label
_atom_site_type_symbol
_atom_site_fract_x
_atom_site_fract_y
_atom_site_fract_z
O1 O 0.6970(4) 0.3276(3) 0.3608(3)
O2 O 0.7919(4) 0.6808(3) 0.1767(3)
O3 O 1.0024(4) 0.7922(3) 0.0608(3)
O4 O 1.2082(4) 0.7319(3) -0.0469(3)
C1 C 0.7008(5) 0.7330(4) 0.2312(4)
C2 C 1.3274(6) 0.7771(4) -0.0548(4)
C3 C 0.6172(6) 0.6668(4) 0.3202(4)
C4 C 0.6905(6) 0.8446(4) 0.1990(4)
C5 C 1.0239(6) 0.8602(4) 0.1126(4)
C6 C 0.6340(6) 0.5462(4) 0.3540(4)
C7 C 0.5678(5) 0.3429(4) 0.2317(4)
C8 C 1.4188(6) 0.8016(4) -0.1504(4)
C9 C 0.5800(5) 0.4960(4) 0.2871(4)
C10 C 1.3487(6) 0.8018(4) 0.0321(4)
C11 C 1.1570(6) 0.9280(4) 0.1982(4)
C12 C 1.4664(6) 0.8519(4) 0.0206(5)
C13 C 1.5598(7) 0.8768(4) -0.0737(5)
C14 C 0.5018(6) 0.8234(5) 0.3460(5)
C15 C 1.2518(7) 0.7750(5) 0.1374(4)
C16 C 0.6145(5) 0.3902(4) 0.2941(4)
C18 C 1.1430(5) 0.8569(4) 0.1474(4)
C19 C 0.5156(6) 0.7120(5) 0.3782(5)
C21 C 0.9175(5) 0.9262(4) 0.1336(4)
C23 C 1.0555(6) 0.9983(4) 0.2154(4)
C24 C 0.4445(6) 0.5072(4) 0.1568(5)
C26 C 0.9362(6) 0.9952(4) 0.1839(4)
C27 C 0.4819(6) 0.4032(4) 0.1635(4)
C28 C 0.5881(6) 0.8872(5) 0.2586(5)
C29 C 1.5364(7) 0.8507(4) -0.1594(5)
C30 C 0.4938(6) 0.5527(5) 0.2177(4)
C32 C 0.7842(6) 0.9179(5) 0.1067(5)
C35 C 0.6099(6) 0.2290(4) 0.2415(5)
H1 H 0.870(4) 1.049(3) 0.193(3)
H2 H 0.794(4) 0.895(3) 0.043(3)
H3 H 0.415(5) 0.857(4) 0.393(4)
H4 H 0.738(5) 0.989(4) 0.093(4)
H6 H 0.558(5) 0.173(4) 0.320(4)
H7 H 0.595(5) 0.508(4) 0.437(4)
H8 H 1.061(5) 1.049(4) 0.258(4)
H13 H 0.447(6) 0.674(5) 0.445(5)
H16 H 1.229(5) 0.925(4) 0.234(4)
H21 H 0.446(5) 0.365(4) 0.118(4)
H22 H 1.491(5) 0.880(4) 0.073(4)
H23 H 0.591(6) 0.975(5) 0.234(4)
H25 H 1.611(6) 0.873(4) -0.235(5)
H27 H 0.394(5) 0.553(4) 0.100(4)
H28 H 1.297(5) 0.760(4) 0.204(4)
H29 H 1.657(6) 0.912(4) -0.086(4)
H30 H 0.732(5) 0.526(4) 0.355(4)
H31 H 1.207(6) 0.671(5) -0.033(5)
H34 H 1.213(5) 0.714(4) 0.155(4)
H35 H 0.725(6) 0.219(5) 0.238(5)
H36 H 0.728(6) 0.356(5) 0.408(5)
H37 H 0.469(5) 0.635(4) 0.209(4)
H38 H 0.853(8) 0.746(6) 0.121(6)
C35A C 1.3901(6) 0.7710(4) -0.2415(5)
C7A C 1.4322(5) 0.6571(4) -0.2317(4)
C16A C 1.3855(5) 0.6098(4) -0.2941(4)
O1A O 1.3030(4) 0.6724(3) -0.3608(3)
H36A H 1.272(6) 0.644(5) -0.408(5)
C9A C 1.4200(5) 0.5040(4) -0.2871(4)
C6A C 1.3660(6) 0.4538(4) -0.3540(4)
C3A C 1.3828(6) 0.3332(4) -0.3202(4)
C1A C 1.2992(5) 0.2670(4) -0.2312(4)
O2A O 1.2081(4) 0.3192(3) -0.1767(3)
H38A H 1.147(8) 0.254(6) -0.121(6)
C4A C 1.3095(6) 0.1554(4) -0.1990(4)
C28A C 1.4119(6) 0.1128(5) -0.2586(5)
C14A C 1.4982(6) 0.1766(5) -0.3460(5)
C19A C 1.4844(6) 0.2880(5) -0.3782(5)
H13A H 1.553(6) 0.326(5) -0.445(5)
H3A H 1.585(5) 0.143(4) -0.393(4)
H23A H 1.409(6) 0.025(5) -0.234(4)
C32A C 1.2158(6) 0.0821(5) -0.1067(5)
C21A C 1.0825(5) 0.0738(4) -0.1336(4)
C5A C 0.9761(6) 0.1398(4) -0.1126(4)
O3A O 0.9976(4) 0.2078(3) -0.0608(3)
C18A C 0.8570(5) 0.1431(4) -0.1474(4)
C11A C 0.8430(6) 0.0720(4) -0.1982(4)
C23A C 0.9445(6) 0.0017(4) -0.2154(4)
C26A C 1.0638(6) 0.0048(4) -0.1839(4)
H1A H 1.130(4) -0.049(3) -0.193(3)
H8A H 0.939(5) -0.049(4) -0.258(4)
H16A H 0.771(5) 0.075(4) -0.234(4)
C15A C 0.7482(7) 0.2250(5) -0.1374(4)
C10A C 0.6513(6) 0.1982(4) -0.0321(4)
C2A C 0.6726(6) 0.2229(4) 0.0548(4)
O4A O 0.7918(4) 0.2681(3) 0.0469(3)
H31A H 0.793(6) 0.329(5) 0.033(5)
C8A C 0.5812(6) 0.1984(4) 0.1504(4)
C29A C 0.4636(7) 0.1493(4) 0.1594(5)
C13A C 0.4402(7) 0.1232(4) 0.0737(5)
C12A C 0.5336(6) 0.1481(4) -0.0206(5)
H22A H 0.509(5) 0.120(4) -0.073(4)
H29A H 0.343(6) 0.088(4) 0.086(4)
H25A H 0.389(6) 0.127(4) 0.235(5)
H28A H 0.703(5) 0.240(4) -0.204(4)
H34A H 0.787(5) 0.286(4) -0.155(4)
H2A H 1.206(4) 0.105(3) -0.043(3)
H4A H 1.262(5) 0.011(4) -0.093(4)
H7A H 1.405(5) 0.492(4) -0.437(4)
H30A H 1.268(5) 0.474(4) -0.355(4)
C30A C 1.5062(6) 0.4473(5) -0.2177(4)
C24A C 1.5555(6) 0.4928(4) -0.1568(5)
C27A C 1.5181(6) 0.5968(4) -0.1635(4)
H21A H 1.554(5) 0.635(4) -0.118(4)
H27A H 1.606(5) 0.447(4) -0.100(4)
H37A H 1.531(5) 0.365(4) -0.209(4)
H6A H 1.442(5) 0.827(4) -0.320(4)
H35A H 1.275(6) 0.781(5) -0.238(5)
N1 N 0.8252(4) 0.3701(4) 0.5040(3)
C20 C 0.8113(6) 0.4354(5) 0.5607(4)
C22 C 1.0149(6) 0.2903(5) 0.5843(4)
C34 C 0.9972(6) 0.3587(5) 0.6407(5)
C36 C 0.9263(6) 0.2980(5) 0.5168(4)
C40 C 0.8945(6) 0.4334(5) 0.6295(5)
H5 H 0.869(6) 0.476(5) 0.677(5)
H12 H 0.731(5) 0.478(4) 0.559(4)
H15 H 0.937(7) 0.241(5) 0.469(6)
H24 H 1.054(6) 0.352(4) 0.687(5)
H26 H 1.091(6) 0.221(5) 0.588(5)
N2 N 0.1623(5) 0.5273(3) 0.0363(4)
C17 C 0.2156(7) 0.4432(6) 0.0092(5)
C25 C 0.1723(7) 0.3388(5) 0.0660(5)
C31 C 0.0591(6) 0.5065(5) 0.1206(5)
C37 C 0.0090(7) 0.4060(6) 0.1794(6)
C42 C 0.0664(7) 0.3194(5) 0.1517(5)
H17 H 0.012(4) 0.576(3) 0.138(3)
H18 H 0.287(5) 0.461(4) -0.046(4)
H20 H -0.063(9) 0.370(7) 0.243(8)
H32 H 0.014(9) 0.213(7) 0.218(7)
H33 H 0.218(6) 0.277(5) 0.030(5)
N3 N 0.1527(5) 0.1116(4) 0.3826(4)
C33 C 0.3207(7) 0.0446(5) 0.5309(5)
C38 C 0.2248(7) 0.1794(6) 0.3980(5)
C39 C 0.2486(7) -0.0279(6) 0.5170(5)
C41 C 0.3103(8) 0.1500(6) 0.4702(6)
C43 C 0.1667(7) 0.0100(5) 0.4419(5)
H9 H 0.352(6) 0.191(5) 0.475(5)
H10 H 0.222(5) 0.238(4) 0.357(4)
H11 H 0.252(6) -0.102(5) 0.552(5)
H14 H 0.121(6) -0.039(4) 0.421(5)
H19 H 0.385(6) 0.025(5) 0.573(5)
loop_
_geom_bond_atom_site_label_1
_geom_bond_atom_site_label_2
_geom_bond_site_symmetry_1
_geom_bond_site_symmetry_2
O1 C16 1_555 1_555
O2 C1 1_555 1_555
O3 C5 1_555 1_555
O4 C2 1_555 1_555
C1 C3 1_555 1_555
N1 C20 1_555 1_555
C2 C8 1_555 1_555
N2 C17 1_555 1_555
C3 C6 1_555 1_555
C4 C1 1_555 1_555
C5 C18 1_555 1_555
C6 C9 1_555 1_555
C7 C16 1_555 1_555
C8 C29 1_555 1_555
C9 C16 1_555 1_555
C10 C2 1_555 1_555
C11 C18 1_555 1_555
C12 C10 1_555 1_555
C13 C12 1_555 1_555
C14 C19 1_555 1_555
C15 C10 1_555 1_555
C17 C25 1_555 1_555
C18 C15 1_555 1_555
C19 C3 1_555 1_555
C20 C40 1_555 1_555
C21 C5 1_555 1_555
C22 C34 1_555 1_555
C23 C11 1_555 1_555
C24 C27 1_555 1_555
C25 C42 1_555 1_555
C26 C21 1_555 1_555
C27 C7 1_555 1_555
C28 C4 1_555 1_555
C29 C13 1_555 1_555
C30 C9 1_555 1_555
N3 C38 1_555 1_555
C31 N2 1_555 1_555
C32 C4 1_555 1_555
C33 C39 1_555 1_555
C34 C40 1_555 1_555
C35 C7 1_555 1_555
C36 N1 1_555 1_555
C37 C31 1_555 1_555
C38 C41 1_555 1_555
C39 C43 1_555 1_555
C40 H5 1_555 1_555
C41 C33 1_555 1_555
C42 C37 1_555 1_555
C43 N3 1_555 1_555
H1 C26 1_555 1_555
H2 C32 1_555 1_555
H3 C14 1_555 1_555
H4 C32 1_555 1_555
H6 C35 1_555 1_555
H7 C6 1_555 1_555
H8 C23 1_555 1_555
H9 C41 1_555 1_555
H10 C38 1_555 1_555
H11 C39 1_555 1_555
H12 C20 1_555 1_555
H13 C19 1_555 1_555
H14 C43 1_555 1_555
H15 C36 1_555 1_555
H16 C11 1_555 1_555
H17 C31 1_555 1_555
H18 C17 1_555 1_555
H19 C33 1_555 1_555
H20 C37 1_555 1_555
H21 C27 1_555 1_555
H22 C12 1_555 1_555
H23 C28 1_555 1_555
H24 C34 1_555 1_555
H25 C29 1_555 1_555
H26 C22 1_555 1_555
H27 C24 1_555 1_555
H28 C15 1_555 1_555
H29 C13 1_555 1_555
H30 C6 1_555 1_555
H31 O4 1_555 1_555
H32 C42 1_555 1_555
H33 C25 1_555 1_555
H34 C15 1_555 1_555
H35 C35 1_555 1_555
H36 O1 1_555 1_555
H37 C30 1_555 1_555
H38 O2 1_555 1_555
C35A C8 1_555 1_555
C7A C35A 1_555 1_555
C16A C7A 1_555 1_555
O1A C16A 1_555 1_555
H36A O1A 1_555 1_555
C9A C16A 1_555 1_555
C6A C9A 1_555 1_555
C3A C6A 1_555 1_555
C1A C3A 1_555 1_555
O2A C1A 1_555 1_555
H38A O2A 1_555 1_555
C4A C1A 1_555 1_555
C28A C4A 1_555 1_555
C14A C28A 1_555 1_555
C19A C3A 1_555 1_555
H13A C19A 1_555 1_555
H3A C14A 1_555 1_555
H23A C28A 1_555 1_555
C32A C4A 1_555 1_555
C21A C32A 1_555 1_555
C5A C21A 1_555 1_555
O3A C5A 1_555 1_555
C18A C5A 1_555 1_555
C11A C18A 1_555 1_555
C23A C11A 1_555 1_555
C26A C21A 1_555 1_555
H1A C26A 1_555 1_555
H8A C23A 1_555 1_555
H16A C11A 1_555 1_555
C15A C18A 1_555 1_555
C10A C15A 1_555 1_555
C2A C10A 1_555 1_555
O4A C2A 1_555 1_555
H31A O4A 1_555 1_555
C8A C35 1_555 1_555
C29A C8A 1_555 1_555
C13A C29A 1_555 1_555
C12A C10A 1_555 1_555
H22A C12A 1_555 1_555
H29A C13A 1_555 1_555
H25A C29A 1_555 1_555
H28A C15A 1_555 1_555
H34A C15A 1_555 1_555
H2A C32A 1_555 1_555
H4A C32A 1_555 1_555
H7A C6A 1_555 1_555
H30A C6A 1_555 1_555
C30A C9A 1_555 1_555
C24A C30A 1_555 1_555
C27A C7A 1_555 1_555
H21A C27A 1_555 1_555
H27A C24A 1_555 1_555
H37A C30A 1_555 1_555
H6A C35A 1_555 1_555
H35A C35A 1_555 1_555
C14 C28 1_555 1_555
C21 C32 1_555 1_555
C22 C36 1_555 1_555
C23 C26 1_555 1_555
C24 C30 1_555 1_555
C14A C19A 1_555 1_555
C23A C26A 1_555 1_555
C2A C8A 1_555 1_555
C13A C12A 1_555 1_555
C24A C27A 1_555 1_555

#END
