
#######################################################################
#
#                 Cambridge Crystallographic Data Centre
#                                CCDC 
#
#######################################################################
#
# If this CIF has been generated from an entry in the Cambridge 
# Structural Database, then it will include bibliographic, chemical, 
# crystal, experimental, refinement or atomic coordinate data resulting 
# from the CCDC's data processing and validation procedures.
#
#######################################################################

data_RAMQEE
_chemical_formula_moiety         'C33 H22 Cl2 O4 Se1'
_chemical_name_systematic        
'dimethyl 5-(4-chlorophenyl)-4-((4-chlorophenyl)ethynyl)-1,3-dihydro-2H-benzo[b]indeno[5,4-d]selenophene-2,2-dicarboxylate'
_symmetry_cell_setting           triclinic
_symmetry_space_group_name_H-M   'P -1'
_symmetry_Int_Tables_number      2
_space_group_name_Hall           '-P 1'
loop_
_symmetry_equiv_pos_site_id
_symmetry_equiv_pos_as_xyz
1 x,y,z
2 -x,-y,-z
_cell_length_a                   11.1578(10)
_cell_length_b                   11.3581(10)
_cell_length_c                   12.6856(11)
_cell_angle_alpha                86.3950(10)
_cell_angle_beta                 80.4640(10)
_cell_angle_gamma                64.0780(10)
_cell_volume                     1425.85
_exptl_crystal_colour            colorless
_exptl_crystal_description       block
_cell_formula_units_Z            2
loop_
_atom_site_label
_atom_site_type_symbol
_atom_site_fract_x
_atom_site_fract_y
_atom_site_fract_z
C1 C 0.1715(2) 0.22472(19) 0.39401(16)
C2 C 0.1565(2) 0.36641(19) 0.37325(16)
H1 H 0.2131 0.3710 0.3078
H2 H 0.0636 0.4271 0.3693
C3 C 0.2030(2) 0.39427(19) 0.47019(15)
C4 C 0.2416(2) 0.49100(18) 0.48733(15)
C5 C 0.2840(2) 0.50068(18) 0.58414(15)
C6 C 0.2755(2) 0.41608(19) 0.66822(15)
C7 C 0.2342(2) 0.3196(2) 0.65071(16)
C8 C 0.2026(2) 0.30725(19) 0.55083(16)
C9 C 0.1612(2) 0.2080(2) 0.51691(16)
H3 H 0.0698 0.2263 0.5496
H4 H 0.2216 0.1201 0.5355
C10 C 0.2214(2) 0.2338(2) 0.73501(16)
C11 C 0.2082(2) 0.1623(2) 0.80398(17)
C12 C 0.1963(2) 0.0752(2) 0.88714(16)
C13 C 0.1750(3) 0.1091(2) 0.99385(19)
H5 H 0.1671 0.1905 1.0121
C14 C 0.1652(3) 0.0240(3) 1.07330(19)
H6 H 0.1499 0.0479 1.1448
C15 C 0.1781(2) -0.0964(2) 1.04595(18)
C16 C 0.1995(3) -0.1328(2) 0.9416(2)
H7 H 0.2075 -0.2144 0.9240
C17 C 0.2093(2) -0.0473(2) 0.86257(18)
H8 H 0.2248 -0.0722 0.7913
C18 C 0.3051(2) 0.4232(2) 0.77793(15)
C19 C 0.4284(3) 0.3433(3) 0.80659(19)
H9 H 0.4969 0.2883 0.7554
C20 C 0.4530(3) 0.3427(3) 0.9105(2)
H10 H 0.5372 0.2883 0.9288
C21 C 0.3522(3) 0.4229(2) 0.98516(17)
C22 C 0.2287(3) 0.5035(3) 0.95927(19)
H11 H 0.1606 0.5581 1.0109
C23 C 0.2053(3) 0.5035(2) 0.85515(18)
H12 H 0.1210 0.5584 0.8373
C24 C 0.3311(2) 0.60335(18) 0.58209(15)
C25 C 0.3885(2) 0.6346(2) 0.65923(18)
H13 H 0.3985 0.5893 0.7233
C26 C 0.4307(2) 0.7331(2) 0.6407(2)
H14 H 0.4704 0.7519 0.6921
C27 C 0.4148(2) 0.8041(2) 0.5473(2)
H15 H 0.4423 0.8709 0.5370
C28 C 0.3583(2) 0.7760(2) 0.46956(18)
H16 H 0.3467 0.8237 0.4067
C29 C 0.3190(2) 0.67490(19) 0.48685(16)
C30 C 0.3091(2) 0.1273(2) 0.33863(18)
C31 C 0.4430(3) 0.0552(4) 0.1692(3)
H17 H 0.5114 0.0789 0.1837
H18 H 0.4345 0.0678 0.0948
H19 H 0.4675 -0.0351 0.1868
C32 C 0.0655(2) 0.1997(2) 0.35075(17)
C33 C -0.0309(3) 0.0499(3) 0.3580(2)
H20 H -0.1187 0.1134 0.3885
H21 H -0.0166 -0.0350 0.3859
H22 H -0.0248 0.0483 0.2817
Cl1 Cl 0.16659(8) -0.20413(7) 1.14634(6)
Cl2 Cl 0.38324(10) 0.42294(9) 1.11564(5)
O1 O 0.39985(18) 0.05471(19) 0.38219(17)
O2 O 0.31569(17) 0.13647(19) 0.23310(14)
O3 O -0.01030(18) 0.26942(18) 0.29430(16)
O4 O 0.07077(18) 0.08450(17) 0.38522(15)
Se1 Se 0.24858(2) 0.61704(2) 0.386322(16)
loop_
_geom_bond_atom_site_label_1
_geom_bond_atom_site_label_2
_geom_bond_site_symmetry_1
_geom_bond_site_symmetry_2
C1 C2 1_555 1_555
C2 H1 1_555 1_555
H2 C2 1_555 1_555
C3 C2 1_555 1_555
C4 C3 1_555 1_555
C5 C4 1_555 1_555
C6 C5 1_555 1_555
C7 C6 1_555 1_555
C8 C3 1_555 1_555
C9 C1 1_555 1_555
H3 C9 1_555 1_555
H4 C9 1_555 1_555
C10 C7 1_555 1_555
C11 C10 1_555 1_555
C12 C11 1_555 1_555
C13 C12 1_555 1_555
H5 C13 1_555 1_555
C14 C13 1_555 1_555
H6 C14 1_555 1_555
C15 C14 1_555 1_555
C16 C15 1_555 1_555
H7 C16 1_555 1_555
C17 C12 1_555 1_555
H8 C17 1_555 1_555
C18 C6 1_555 1_555
C19 C18 1_555 1_555
H9 C19 1_555 1_555
C20 C19 1_555 1_555
H10 C20 1_555 1_555
C21 C20 1_555 1_555
C22 C21 1_555 1_555
H11 C22 1_555 1_555
C23 C18 1_555 1_555
H12 C23 1_555 1_555
C24 C5 1_555 1_555
C25 C24 1_555 1_555
H13 C25 1_555 1_555
C26 C25 1_555 1_555
H14 C26 1_555 1_555
C27 C26 1_555 1_555
H15 C27 1_555 1_555
C28 C27 1_555 1_555
H16 C28 1_555 1_555
C29 C24 1_555 1_555
C30 C1 1_555 1_555
C31 H17 1_555 1_555
H18 C31 1_555 1_555
H19 C31 1_555 1_555
C32 C1 1_555 1_555
C33 H20 1_555 1_555
H21 C33 1_555 1_555
H22 C33 1_555 1_555
Cl1 C15 1_555 1_555
Cl2 C21 1_555 1_555
O1 C30 1_555 1_555
O2 C30 1_555 1_555
O3 C32 1_555 1_555
O4 C32 1_555 1_555
Se1 C4 1_555 1_555
C7 C8 1_555 1_555
C8 C9 1_555 1_555
C16 C17 1_555 1_555
C22 C23 1_555 1_555
C28 C29 1_555 1_555
C29 Se1 1_555 1_555
C31 O2 1_555 1_555
C33 O4 1_555 1_555

#END
