
#######################################################################
#
#                 Cambridge Crystallographic Data Centre
#                                CCDC 
#
#######################################################################
#
# If this CIF has been generated from an entry in the Cambridge 
# Structural Database, then it will include bibliographic, chemical, 
# crystal, experimental, refinement or atomic coordinate data resulting 
# from the CCDC's data processing and validation procedures.
#
#######################################################################

data_RAMQAY
_chemical_formula_moiety         '2(C36 H46 O12),3(C3 H6 O1),2.93(H2 O1)'
_chemical_name_systematic        
'2,5,8,11,14,16,19,22,25,28,30,32-Dodecaoxa-1,15(1,3,5),31(1,4)-tribenzenabicyclo(13.13.5)tritriacontaphane acetone solvate hydrate'
_symmetry_cell_setting           triclinic
_symmetry_space_group_name_H-M   'P -1'
_symmetry_Int_Tables_number      2
_space_group_name_Hall           '-P 1'
loop_
_symmetry_equiv_pos_site_id
_symmetry_equiv_pos_as_xyz
1 x,y,z
2 -x,-y,-z
_cell_length_a                   10.7938(13)
_cell_length_b                   20.2260(19)
_cell_length_c                   21.431(2)
_cell_angle_alpha                63.096(9)
_cell_angle_beta                 83.239(10)
_cell_angle_gamma                84.292(9)
_cell_volume                     4137.67
_exptl_crystal_colour            colorless
_exptl_crystal_description       plate
_cell_formula_units_Z            2
loop_
_atom_site_label
_atom_site_type_symbol
_atom_site_fract_x
_atom_site_fract_y
_atom_site_fract_z
O1 O -0.30315(18) 0.34851(10) 1.00197(9)
O2 O -0.22545(16) 0.49828(10) 0.92647(10)
O3 O -0.03208(16) 0.59191(10) 0.89752(9)
O4 O 0.21203(17) 0.52766(10) 0.88517(10)
O5 O 0.37619(18) 0.39606(10) 0.93814(10)
O6 O -0.22897(18) 0.12748(10) 0.97357(10)
O7 O -0.08390(19) 0.06361(11) 0.89193(11)
O8 O 0.14203(19) 0.05825(11) 0.80649(10)
O9 O 0.35662(19) 0.09325(11) 0.84686(11)
O10 O 0.4425(2) 0.17604(11) 0.90710(11)
O11 O -0.16738(16) 0.15842(10) 1.23470(10)
O12 O 0.34095(16) 0.19563(10) 1.18234(10)
C1 C -0.2796(2) 0.27359(14) 1.02756(14)
C2 C -0.2658(2) 0.23623(14) 0.98652(14)
H1 H -0.2736 0.2624 0.9374
C3 C -0.2404(2) 0.15950(15) 1.01836(14)
C4 C -0.2268(2) 0.12069(14) 1.08965(14)
H2 H -0.2077 0.0687 1.1107
C5 C -0.2415(2) 0.15941(14) 1.12997(14)
C6 C -0.2684(2) 0.23521(15) 1.09949(14)
H3 H -0.2792 0.2610 1.1276
C7 C 0.3943(2) 0.32071(14) 0.96301(15)
C8 C 0.4100(2) 0.28417(15) 0.92136(15)
H4 H 0.4087 0.3113 0.8718
C9 C 0.4277(2) 0.20709(15) 0.95283(15)
C10 C 0.4281(2) 0.16685(15) 1.02513(15)
H5 H 0.4377 0.1142 1.0463
C11 C 0.4143(2) 0.20458(15) 1.06643(14)
C12 C 0.3981(2) 0.28094(15) 1.03559(14)
H6 H 0.3895 0.3065 1.0638
C13 C -0.0412(2) 0.16744(14) 1.21603(13)
C14 C 0.0148(2) 0.20808(15) 1.24178(14)
H7 H -0.0341 0.2291 1.2689
C15 C 0.1413(2) 0.21783(14) 1.22795(14)
H8 H 0.1792 0.2461 1.2452
C16 C 0.2143(2) 0.18656(14) 1.18886(13)
C17 C 0.1578(2) 0.14873(15) 1.16108(14)
H9 H 0.2062 0.1293 1.1326
C18 C 0.0299(2) 0.13911(15) 1.17481(15)
H10 H -0.0088 0.1129 1.1557
C19 C -0.3027(3) 0.39125(14) 0.92748(14)
H11 H -0.3672 0.3746 0.9093
H12 H -0.2202 0.3853 0.9045
C20 C -0.3301(3) 0.47123(15) 0.91271(15)
H13 H -0.3481 0.5012 0.8630
H14 H -0.4044 0.4754 0.9428
C21 C -0.2495(2) 0.57203(14) 0.91838(15)
H15 H -0.3264 0.5747 0.9475
H16 H -0.2623 0.6062 0.8687
C22 C -0.1408(2) 0.59482(14) 0.94055(14)
H17 H -0.1573 0.6459 0.9358
H18 H -0.1283 0.5610 0.9904
C23 C 0.0751(2) 0.60918(15) 0.91894(15)
H19 H 0.0857 0.5745 0.9688
H20 H 0.0642 0.6603 0.9145
C24 C 0.1883(2) 0.60285(14) 0.87390(15)
H21 H 0.1750 0.6350 0.8239
H22 H 0.2615 0.6199 0.8853
C25 C 0.3288(3) 0.51797(15) 0.85125(15)
H23 H 0.3964 0.5337 0.8683
H24 H 0.3283 0.5494 0.8000
C26 C 0.3531(3) 0.43859(15) 0.86585(14)
H25 H 0.2799 0.4203 0.8556
H26 H 0.4264 0.4336 0.8356
C27 C -0.1857(3) 0.05118(16) 1.00130(16)
H27 H -0.2433 0.0202 1.0413
H28 H -0.1017 0.0448 1.0181
C28 C -0.1805(3) 0.02814(17) 0.94373(17)
H29 H -0.1655 -0.0264 0.9633
H30 H -0.2615 0.0416 0.9224
C29 C -0.0755(3) 0.04069(19) 0.83849(17)
H31 H -0.1572 0.0500 0.8185
H32 H -0.0532 -0.0132 0.8582
C30 C 0.0223(3) 0.0829(2) 0.78204(17)
H33 H 0.0163 0.0752 0.7401
H34 H 0.0085 0.1366 0.7685
C31 C 0.2377(3) 0.10163(18) 0.75769(16)
H35 H 0.2195 0.1547 0.7460
H36 H 0.2414 0.0962 0.7139
C32 C 0.3597(3) 0.07600(17) 0.78941(15)
H37 H 0.3739 0.0218 0.8058
H38 H 0.4286 0.1012 0.7540
C33 C 0.4710(3) 0.07514(17) 0.87811(17)
H39 H 0.5389 0.1019 0.8428
H40 H 0.4917 0.0212 0.8965
C34 C 0.4585(3) 0.09708(16) 0.93700(17)
H41 H 0.3855 0.0741 0.9700
H42 H 0.5342 0.0799 0.9632
C35 C -0.2281(2) 0.11740(15) 1.20834(14)
H43 H -0.3120 0.1054 1.2334
H44 H -0.1795 0.0700 1.2184
C36 C 0.4197(2) 0.16233(15) 1.14477(15)
H45 H 0.3945 0.1111 1.1605
H46 H 0.5070 0.1593 1.1562
O13 O 0.79497(18) 0.11269(10) 0.56798(10)
O14 O 0.66172(18) -0.01843(10) 0.61885(10)
O15 O 0.45528(18) -0.08709(11) 0.60613(10)
O16 O 0.23666(18) 0.00509(11) 0.57207(10)
O17 O 0.13142(19) 0.15267(11) 0.49543(10)
O18 O 0.73279(19) 0.34739(11) 0.57296(10)
O19 O 0.5693(5) 0.4424(3) 0.6076(3)
O20 O 0.3797(4) 0.3898(2) 0.7280(2)
O21 O 0.1647(4) 0.4106(2) 0.6340(2)
O25 O 0.0916(2) 0.38752(14) 0.50911(13)
O26 O 0.79039(17) 0.29475(11) 0.31595(10)
O27 O 0.29348(16) 0.34086(11) 0.26069(10)
C37 C 0.7911(2) 0.18878(15) 0.53631(14)
C38 C 0.7628(2) 0.23171(15) 0.57190(14)
H47 H 0.7448 0.2091 0.6214
C39 C 0.7613(3) 0.30911(16) 0.53343(15)
C40 C 0.7862(3) 0.34296(16) 0.46089(15)
H48 H 0.7837 0.3955 0.4351
C41 C 0.8150(2) 0.29809(16) 0.42682(14)
C42 C 0.8192(2) 0.22173(15) 0.46385(14)
H49 H 0.8412 0.1918 0.4401
C43 C 0.1337(2) 0.22786(16) 0.46837(14)
C44 C 0.1073(2) 0.26713(17) 0.50817(15)
H50 H 0.0856 0.2417 0.5573
C45 C 0.1133(3) 0.34361(18) 0.47501(16)
C46 C 0.1456(3) 0.38134(17) 0.40341(16)
H51 H 0.1496 0.4338 0.3813
C47 C 0.1720(2) 0.34169(16) 0.36444(14)
C48 C 0.1657(2) 0.26516(16) 0.39648(14)
H52 H 0.1831 0.2383 0.3695
C49 C 0.6629(2) 0.30657(15) 0.30877(13)
C50 C 0.6176(3) 0.27336(14) 0.27246(13)
H53 H 0.6717 0.2421 0.2578
C51 C 0.4936(2) 0.28563(15) 0.25750(14)
H54 H 0.4629 0.2634 0.2321
C52 C 0.4142(2) 0.33054(15) 0.27981(13)
C53 C 0.4581(3) 0.36155(16) 0.31776(14)
H55 H 0.4031 0.3912 0.3340
C54 C 0.5836(2) 0.34961(16) 0.33255(14)
H56 H 0.6139 0.3710 0.3588
C55 C 0.7405(3) 0.07559(16) 0.63872(15)
H57 H 0.6532 0.0947 0.6421
H58 H 0.7882 0.0845 0.6707
C56 C 0.7440(3) -0.00574(16) 0.65882(15)
H59 H 0.8301 -0.0233 0.6499
H60 H 0.7184 -0.0337 0.7095
C57 C 0.6651(3) -0.09494(15) 0.63374(16)
H61 H 0.6379 -0.1252 0.6838
H62 H 0.7518 -0.1118 0.6249
C58 C 0.5813(3) -0.10565(16) 0.58857(16)
H63 H 0.6054 -0.0735 0.5385
H64 H 0.5893 -0.1579 0.5963
C59 C 0.3719(3) -0.09155(16) 0.56181(15)
H65 H 0.3748 -0.1429 0.5670
H66 H 0.3968 -0.0580 0.5122
C60 C 0.2421(3) -0.06961(17) 0.58169(16)
H67 H 0.1827 -0.0743 0.5522
H68 H 0.2176 -0.1032 0.6314
C61 C 0.1138(3) 0.03050(18) 0.58611(16)
H69 H 0.0852 0.0007 0.6361
H70 H 0.0557 0.0243 0.5569
C62 C 0.1132(3) 0.11030(17) 0.57016(15)
H71 H 0.0325 0.1259 0.5880
H72 H 0.1810 0.1183 0.5930
C63 C 0.7233(4) 0.42690(17) 0.53542(17)
H73 H 0.6546 0.4429 0.5040
H74 H 0.8021 0.4454 0.5063
C64 C 0.6978(3) 0.45799(17) 0.58823(18)
C65 C 0.5251(6) 0.4786(3) 0.6517(3)
H75 H 0.5266 0.5332 0.6243
H76 H 0.5777 0.4623 0.6915
C67 C 0.3871(3) 0.4539(2) 0.6788(2)
C68 C 0.2546(6) 0.3678(4) 0.7461(3)
H79 H 0.2013 0.4090 0.7495
H80 H 0.2503 0.3248 0.7932
C69 C 0.2010(6) 0.3470(4) 0.6964(3)
H81 H 0.2638 0.3155 0.6831
H82 H 0.1272 0.3174 0.7206
C72 C 0.0515(3) 0.4152(3) 0.6051(2)
C73 C 0.0533(3) 0.3542(2) 0.58187(17)
H87 H 0.1127 0.3128 0.6080
H88 H -0.0308 0.3348 0.5904
C74 C 0.8438(3) 0.33322(17) 0.34780(15)
H89 H 0.8108 0.3855 0.3274
H90 H 0.9355 0.3331 0.3369
C75 C 0.2051(2) 0.38264(16) 0.28625(15)
H91 H 0.1280 0.3939 0.2616
H92 H 0.2404 0.4304 0.2753
O28 O 0.3534(7) 0.2350(4) 0.6203(2)
C76 C 0.4102(6) 0.2747(7) 0.5538(4)
C77 C 0.4473(4) 0.2279(4) 0.5167(3)
H93 H 0.3944 0.2423 0.4780
H94 H 0.4370 0.1756 0.5497
H95 H 0.5349 0.2350 0.4981
C78 C 0.4235(4) 0.3502(4) 0.5210(4)
H96 H 0.3484 0.3753 0.5324
H97 H 0.4353 0.3675 0.4700
H98 H 0.4964 0.3616 0.5370
O29 O -0.2717(3) 0.17001(17) 0.74567(15)
C79 C -0.3053(4) 0.2232(2) 0.7529(2)
C80 C -0.2316(13) 0.2586(4) 0.7778(5)
H99 H -0.1942 0.2215 0.8202
H100 H -0.2841 0.2949 0.7890
H101 H -0.1653 0.2841 0.7416
C81 C -0.4312(6) 0.2552(3) 0.7369(6)
H102 H -0.4270 0.3050 0.6975
H103 H -0.4756 0.2583 0.7781
H104 H -0.4760 0.2237 0.7242
C82 C -0.0596(4) 0.7208(3) 1.0365(3)
O30 O -0.0063(5) 0.7196(3) 1.1460(3)
C83 C -0.0958(10) 0.8303(6) 1.0676(8)
H105 H -0.0887 0.8428 1.1061
H106 H -0.1833 0.8373 1.0567
H107 H -0.0443 0.8626 1.0260
C84 C -0.0499(6) 0.7472(4) 1.0900(4)
O32 O 1.4110(2) 0.0340(2) 0.65160(17)
O33 O 0.0009(2) 0.47946(17) 0.84434(17)
O34 O -0.3449(5) 0.4313(3) 0.7726(3)
O22? O 0.5943(5) 0.4352(3) 0.6428(4)
O23? O 0.2628(4) 0.4612(3) 0.6640(2)
O24? O 0.0184(5) 0.3968(3) 0.6691(3)
C66? C 0.4754(6) 0.4644(4) 0.6207(4)
H77? H 0.4478 0.4397 0.5943
H78? H 0.4794 0.5180 0.5887
C70? C 0.1719(6) 0.4359(4) 0.7224(3)
H83? H 0.1755 0.4641 0.7498
H84? H 0.1901 0.3827 0.7534
C71? C 0.0431(7) 0.4466(4) 0.6972(4)
H85? H -0.0196 0.4400 0.7370
H86? H 0.0318 0.4983 0.6605
O31? O -0.0862(8) 0.8564(4) 0.9877(4)
C85? C -0.0832(8) 0.7962(7) 1.0356(6)
C86? C -0.0986(13) 0.7868(7) 1.1133(6)
H108? H -0.0168 0.7891 1.1277
H109? H -0.1332 0.7387 1.1447
H110? H -0.1552 0.8267 1.1157
O35? O -0.0907(5) 0.4231(3) 0.7658(3)
loop_
_geom_bond_atom_site_label_1
_geom_bond_atom_site_label_2
_geom_bond_site_symmetry_1
_geom_bond_site_symmetry_2
O1 C1 1_555 1_555
O2 C20 1_555 1_555
O3 C22 1_555 1_555
O4 C24 1_555 1_555
O5 C7 1_555 1_555
O6 C3 1_555 1_555
O7 C28 1_555 1_555
O8 C30 1_555 1_555
O9 C32 1_555 1_555
O10 C9 1_555 1_555
O11 C13 1_555 1_555
O12 C16 1_555 1_555
O13 C37 1_555 1_555
O14 C56 1_555 1_555
O15 C58 1_555 1_555
O16 C60 1_555 1_555
O17 C43 1_555 1_555
O18 C39 1_555 1_555
O19 C64 1_555 1_555
O20 C67 1_555 1_555
O21 C69 1_555 1_555
O25 C45 1_555 1_555
O26 C49 1_555 1_555
O27 C52 1_555 1_555
C1 C2 1_555 1_555
C2 H1 1_555 1_555
C3 C2 1_555 1_555
C4 C3 1_555 1_555
H2 C4 1_555 1_555
C5 C4 1_555 1_555
C6 C1 1_555 1_555
H3 C6 1_555 1_555
C7 C8 1_555 1_555
C8 H4 1_555 1_555
C9 C8 1_555 1_555
C10 C9 1_555 1_555
H5 C10 1_555 1_555
C11 C10 1_555 1_555
C12 C7 1_555 1_555
H6 C12 1_555 1_555
C13 C14 1_555 1_555
C14 H7 1_555 1_555
C15 C14 1_555 1_555
H8 C15 1_555 1_555
C16 C15 1_555 1_555
C17 C16 1_555 1_555
H9 C17 1_555 1_555
C18 C13 1_555 1_555
H10 C18 1_555 1_555
C19 O1 1_555 1_555
H11 C19 1_555 1_555
H12 C19 1_555 1_555
C20 C19 1_555 1_555
H13 C20 1_555 1_555
H14 C20 1_555 1_555
C21 O2 1_555 1_555
H15 C21 1_555 1_555
H16 C21 1_555 1_555
C22 C21 1_555 1_555
H17 C22 1_555 1_555
H18 C22 1_555 1_555
C23 O3 1_555 1_555
H19 C23 1_555 1_555
H20 C23 1_555 1_555
C24 C23 1_555 1_555
H21 C24 1_555 1_555
H22 C24 1_555 1_555
C25 O4 1_555 1_555
H23 C25 1_555 1_555
H24 C25 1_555 1_555
C26 O5 1_555 1_555
H25 C26 1_555 1_555
H26 C26 1_555 1_555
C27 O6 1_555 1_555
H27 C27 1_555 1_555
H28 C27 1_555 1_555
C28 C27 1_555 1_555
H29 C28 1_555 1_555
H30 C28 1_555 1_555
C29 O7 1_555 1_555
H31 C29 1_555 1_555
H32 C29 1_555 1_555
C30 C29 1_555 1_555
H33 C30 1_555 1_555
H34 C30 1_555 1_555
C31 O8 1_555 1_555
H35 C31 1_555 1_555
H36 C31 1_555 1_555
C32 C31 1_555 1_555
H37 C32 1_555 1_555
H38 C32 1_555 1_555
C33 O9 1_555 1_555
H39 C33 1_555 1_555
H40 C33 1_555 1_555
C34 O10 1_555 1_555
H41 C34 1_555 1_555
H42 C34 1_555 1_555
C35 O11 1_555 1_555
H43 C35 1_555 1_555
H44 C35 1_555 1_555
C36 O12 1_555 1_555
H45 C36 1_555 1_555
H46 C36 1_555 1_555
C37 C38 1_555 1_555
C38 H47 1_555 1_555
C39 C38 1_555 1_555
C40 C39 1_555 1_555
H48 C40 1_555 1_555
C41 C40 1_555 1_555
C42 C37 1_555 1_555
H49 C42 1_555 1_555
C43 C44 1_555 1_555
C44 H50 1_555 1_555
C45 C44 1_555 1_555
C46 C45 1_555 1_555
H51 C46 1_555 1_555
C47 C46 1_555 1_555
C48 C43 1_555 1_555
H52 C48 1_555 1_555
C49 C50 1_555 1_555
C50 H53 1_555 1_555
C51 C50 1_555 1_555
H54 C51 1_555 1_555
C52 C51 1_555 1_555
C53 C52 1_555 1_555
H55 C53 1_555 1_555
C54 C49 1_555 1_555
H56 C54 1_555 1_555
C55 O13 1_555 1_555
H57 C55 1_555 1_555
H58 C55 1_555 1_555
C56 C55 1_555 1_555
H59 C56 1_555 1_555
H60 C56 1_555 1_555
C57 O14 1_555 1_555
H61 C57 1_555 1_555
H62 C57 1_555 1_555
C58 C57 1_555 1_555
H63 C58 1_555 1_555
H64 C58 1_555 1_555
C59 O15 1_555 1_555
H65 C59 1_555 1_555
H66 C59 1_555 1_555
C60 C59 1_555 1_555
H67 C60 1_555 1_555
H68 C60 1_555 1_555
C61 O16 1_555 1_555
H69 C61 1_555 1_555
H70 C61 1_555 1_555
C62 O17 1_555 1_555
H71 C62 1_555 1_555
H72 C62 1_555 1_555
C63 O18 1_555 1_555
H73 C63 1_555 1_555
H74 C63 1_555 1_555
C64 C63 1_555 1_555
C65 O19 1_555 1_555
H75 C65 1_555 1_555
H76 C65 1_555 1_555
C67 C65 1_555 1_555
C68 O20 1_555 1_555
H79 C68 1_555 1_555
H80 C68 1_555 1_555
C69 C68 1_555 1_555
H81 C69 1_555 1_555
H82 C69 1_555 1_555
C72 O21 1_555 1_555
C73 O25 1_555 1_555
H87 C73 1_555 1_555
H88 C73 1_555 1_555
C74 O26 1_555 1_555
H89 C74 1_555 1_555
H90 C74 1_555 1_555
C75 O27 1_555 1_555
H91 C75 1_555 1_555
H92 C75 1_555 1_555
O28 C76 1_555 1_555
C76 C77 1_555 1_555
C77 H93 1_555 1_555
H94 C77 1_555 1_555
H95 C77 1_555 1_555
C78 C76 1_555 1_555
H96 C78 1_555 1_555
H97 C78 1_555 1_555
H98 C78 1_555 1_555
O29 C79 1_555 1_555
C79 C80 1_555 1_555
C80 H99 1_555 1_555
H100 C80 1_555 1_555
H101 C80 1_555 1_555
C81 C79 1_555 1_555
H102 C81 1_555 1_555
H103 C81 1_555 1_555
H104 C81 1_555 1_555
C82 C84 1_555 1_555
O30 C84 1_555 1_555
C83 H105 1_555 1_555
H106 C83 1_555 1_555
H107 C83 1_555 1_555
C84 C83 1_555 1_555
C5 C6 1_555 1_555
C5 C35 1_555 1_555
C11 C12 1_555 1_555
C11 C36 1_555 1_555
C17 C18 1_555 1_555
C25 C26 1_555 1_555
C33 C34 1_555 1_555
C41 C42 1_555 1_555
C41 C74 1_555 1_555
C47 C48 1_555 1_555
C47 C75 1_555 1_555
C53 C54 1_555 1_555
C61 C62 1_555 1_555
C72 C73 1_555 1_555

#END
