
#######################################################################
#
#                 Cambridge Crystallographic Data Centre
#                                CCDC 
#
#######################################################################
#
# If this CIF has been generated from an entry in the Cambridge 
# Structural Database, then it will include bibliographic, chemical, 
# crystal, experimental, refinement or atomic coordinate data resulting 
# from the CCDC's data processing and validation procedures.
#
#######################################################################

data_RANVIO
_chemical_formula_moiety         'C24 H8 Br2 F12 O2'
_chemical_name_systematic        
(2,5-dibromo-1,4-phenylene)bis((3,5-bis(trifluoromethyl)phenyl)methanone)
_symmetry_cell_setting           monoclinic
_symmetry_space_group_name_H-M   'P 21/c'
_symmetry_Int_Tables_number      14
_space_group_name_Hall           '-P 2ybc'
loop_
_symmetry_equiv_pos_site_id
_symmetry_equiv_pos_as_xyz
1 x,y,z
2 -x,1/2+y,1/2-z
3 -x,-y,-z
4 x,1/2-y,1/2+z
_cell_length_a                   16.615(7)
_cell_length_b                   7.938(3)
_cell_length_c                   9.357(4)
_cell_angle_alpha                90
_cell_angle_beta                 94.670(7)
_cell_angle_gamma                90
_cell_volume                     1230
_exptl_crystal_colour            colorless
_exptl_crystal_description       prism
_cell_formula_units_Z            2
_exptl_crystal_preparation       Luminescent
loop_
_atom_site_label
_atom_site_type_symbol
_atom_site_fract_x
_atom_site_fract_y
_atom_site_fract_z
Br1 Br 0.42825(3) 0.53393(7) 0.16600(5)
C1 C 0.2745(2) 0.5338(5) 0.5972(4)
H1 H 0.3197 0.6033 0.6070
C2 C 0.2743(2) 0.3942(5) 0.5103(4)
C3 C 0.4676(2) 0.5103(5) 0.3603(4)
C4 C 0.4229(2) 0.4342(5) 0.4609(5)
C5 C 0.5436(2) 0.5745(5) 0.3983(4)
H2 H 0.5728 0.6242 0.3287
C6 C 0.1405(3) 0.4678(6) 0.6573(5)
H3 H 0.0955 0.4929 0.7065
O1 O 0.3350(2) 0.2483(5) 0.3309(4)
C7 C 0.2076(3) 0.5709(6) 0.6701(5)
C8 C 0.2066(3) 0.2887(6) 0.4989(5)
H4 H 0.2063 0.1924 0.4423
C9 C 0.1407(3) 0.3281(6) 0.5716(5)
C10 C 0.3430(2) 0.3512(5) 0.4251(5)
F1 F 0.0745(3) 0.0885(7) 0.4771(6)
C11 C 0.2092(4) 0.7193(7) 0.7659(7)
C12 C 0.0689(3) 0.2134(8) 0.5622(6)
F2 F 0.1510(3) 0.7358(7) 0.8406(7)
F3 F 0.2767(3) 0.7202(8) 0.8543(6)
F4 F 0.0535(3) 0.1514(8) 0.6829(5)
F5 F 0.2234(4) 0.8601(6) 0.7023(6)
F6 F 0.0036(2) 0.2907(8) 0.5188(8)
Br1B Br 0.57175(3) 0.46607(7) 0.83400(5)
C1B C 0.7255(2) 0.4662(5) 0.4028(4)
H1B H 0.6803 0.3967 0.3930
C2B C 0.7257(2) 0.6058(5) 0.4897(4)
C3B C 0.5324(2) 0.4897(5) 0.6397(4)
C4B C 0.5771(2) 0.5658(5) 0.5391(5)
C5B C 0.4564(2) 0.4255(5) 0.6017(4)
H2B H 0.4272 0.3758 0.6713
C6B C 0.8595(3) 0.5322(6) 0.3427(5)
H3B H 0.9045 0.5071 0.2935
O1B O 0.6650(2) 0.7517(5) 0.6691(4)
C7B C 0.7924(3) 0.4291(6) 0.3299(5)
C8B C 0.7934(3) 0.7113(6) 0.5011(5)
H4B H 0.7937 0.8076 0.5577
C9B C 0.8593(3) 0.6719(6) 0.4284(5)
C10B C 0.6570(2) 0.6488(5) 0.5749(5)
F1B F 0.9255(3) 0.9115(7) 0.5229(6)
C11B C 0.7908(4) 0.2807(7) 0.2341(7)
C12B C 0.9311(3) 0.7866(8) 0.4378(6)
F2B F 0.8490(3) 0.2642(7) 0.1594(7)
F3B F 0.7233(3) 0.2798(8) 0.1457(6)
F4B F 0.9465(3) 0.8486(8) 0.3171(5)
F5B F 0.7766(4) 0.1399(6) 0.2977(6)
F6B F 0.9964(2) 0.7093(8) 0.4812(8)
loop_
_geom_bond_atom_site_label_1
_geom_bond_atom_site_label_2
_geom_bond_site_symmetry_1
_geom_bond_site_symmetry_2
Br1 C3 1_555 1_555
C1 H1 1_555 1_555
C2 C1 1_555 1_555
C3 C4 1_555 1_555
C4 C10 1_555 1_555
C5 C3 1_555 1_555
H2 C5 1_555 1_555
C6 H3 1_555 1_555
O1 C10 1_555 1_555
C7 C1 1_555 1_555
C8 C2 1_555 1_555
H4 C8 1_555 1_555
C9 C6 1_555 1_555
C10 C2 1_555 1_555
F1 C12 1_555 1_555
C11 C7 1_555 1_555
C12 C9 1_555 1_555
F2 C11 1_555 1_555
F3 C11 1_555 1_555
F4 C12 1_555 1_555
F5 C11 1_555 1_555
F6 C12 1_555 1_555
Br1B C3B 1_555 1_555
C1B H1B 1_555 1_555
C2B C1B 1_555 1_555
C3B C4B 1_555 1_555
C4B C5 1_555 1_555
C5B C4 1_555 1_555
H2B C5B 1_555 1_555
C6B H3B 1_555 1_555
O1B C10B 1_555 1_555
C7B C1B 1_555 1_555
C8B C2B 1_555 1_555
H4B C8B 1_555 1_555
C9B C6B 1_555 1_555
C10B C2B 1_555 1_555
F1B C12B 1_555 1_555
C11B C7B 1_555 1_555
C12B C9B 1_555 1_555
F2B C11B 1_555 1_555
F3B C11B 1_555 1_555
F4B C12B 1_555 1_555
F5B C11B 1_555 1_555
F6B C12B 1_555 1_555
C6 C7 1_555 1_555
C8 C9 1_555 1_555
C3B C5B 1_555 1_555
C4B C10B 1_555 1_555
C6B C7B 1_555 1_555
C8B C9B 1_555 1_555

#END
