
#######################################################################
#
#                 Cambridge Crystallographic Data Centre
#                                CCDC 
#
#######################################################################
#
# If this CIF has been generated from an entry in the Cambridge 
# Structural Database, then it will include bibliographic, chemical, 
# crystal, experimental, refinement or atomic coordinate data resulting 
# from the CCDC's data processing and validation procedures.
#
#######################################################################

data_RAPZIR
_chemical_formula_moiety         '2(C16 H12 S12 2+),C16 H12 S12,4(Cl1 O4 1-)'
_chemical_name_systematic        
'tris(trans,trans-2,5,7,10-Tetrathia-1,6(2,6)-ditetrathiafulvalenacyclodecaphane) tetraperchlorate'
_symmetry_cell_setting           monoclinic
_symmetry_space_group_name_H-M   'P 21/n'
_symmetry_Int_Tables_number      14
_space_group_name_Hall           '-P 2yn'
loop_
_symmetry_equiv_pos_site_id
_symmetry_equiv_pos_as_xyz
1 x,y,z
2 1/2-x,1/2+y,1/2-z
3 -x,-y,-z
4 1/2+x,1/2-y,1/2+z
_cell_length_a                   7.834(5)
_cell_length_b                   23.891(4)
_cell_length_c                   20.897(3)
_cell_angle_alpha                90
_cell_angle_beta                 99.08(2)
_cell_angle_gamma                90
_cell_volume                     3862.12
_exptl_crystal_colour            black
_cell_formula_units_Z            2
loop_
_atom_site_label
_atom_site_type_symbol
_atom_site_fract_x
_atom_site_fract_y
_atom_site_fract_z
Cl1 Cl 0.1209(5) 0.2238(2) 0.7425(3)
O1 O 0.047(2) 0.1728(5) 0.7396(10)
O2 O 0.021(5) 0.244(2) 0.685(2)
O3 O 0.064(2) 0.2659(7) 0.774(1)
O5 O 0.220(9) 0.215(2) 0.804(2)
Cl2 Cl -0.0880(5) 0.2470(1) 0.4833(2)
O6 O -0.084(4) 0.228(1) 0.540(1)
O7 O -0.198(2) 0.2069(7) 0.453(1)
O8 O -0.147(2) 0.2987(6) 0.486(1)
O9 O 0.076(2) 0.2454(5) 0.4718(9)
S1 S 0.3716(4) 0.0379(1) 0.5699(1)
S2 S 0.0841(4) 0.0996(1) 0.6083(2)
S3 S -0.1449(4) -0.0091(1) 0.6009(1)
S4 S 0.1301(4) -0.0766(1) 0.5592(1)
S5 S 0.4947(4) -0.0019(1) 0.7261(1)
S6 S 0.1987(4) 0.0544(1) 0.7663(1)
S7 S -0.0128(4) -0.0637(1) 0.7514(1)
S8 S 0.2883(4) -0.1166(1) 0.7127(2)
S9 S 0.5971(4) 0.1360(2) 0.5676(2)
S10 S 0.7065(4) 0.0993(1) 0.7250(2)
S11 S -0.3926(4) -0.1001(1) 0.5992(2)
S12 S -0.2280(4) -0.1677(1) 0.7348(1)
C1 C 0.162(1) 0.0353(4) 0.5841(5)
C2 C 0.264(2) 0.1379(5) 0.5990(6)
C3 C 0.399(2) 0.1098(5) 0.5822(5)
C4 C 0.062(1) -0.0102(5) 0.5825(5)
C5 C -0.063(1) -0.1103(5) 0.5648(5)
C6 C -0.188(1) -0.0799(4) 0.5848(5)
C7 C 0.290(1) -0.0083(5) 0.7449(5)
C8 C 0.376(1) 0.0940(5) 0.7609(5)
C9 C 0.512(1) 0.0696(5) 0.7403(5)
C10 C 0.198(1) -0.0565(5) 0.7393(5)
C11 C 0.112(2) -0.1586(5) 0.7137(6)
C12 C -0.032(2) -0.1333(5) 0.7307(5)
C13 C 0.659(2) 0.1876(5) 0.6339(6)
C14 C 0.636(2) 0.1703(5) 0.7024(6)
C15 C -0.388(2) -0.1759(5) 0.6030(5)
C16 C -0.260(2) -0.2032(5) 0.6551(5)
S13 S 0.7282(5) 0.0182(2) 0.8909(2)
S14 S 0.4180(5) 0.0697(2) 0.9265(2)
S15 S 0.2200(4) -0.0470(2) 0.9138(2)
S16 S 0.5210(5) -0.1046(2) 0.8786(2)
S17 S 0.9099(6) 0.1284(2) 0.8862(2)
S18 S 0.0025(6) -0.1511(2) 0.9044(2)
C17 C 0.518(1) 0.0094(6) 0.9050(5)
C18 C 0.580(2) 0.1148(7) 0.9134(7)
C19 C 0.726(2) 0.0901(6) 0.8978(6)
C20 C 0.431(2) -0.0419(6) 0.8990(5)
C21 C 0.343(2) -0.1455(6) 0.8853(7)
C22 C 0.204(2) -0.1193(6) 0.9006(6)
C23 C 0.954(3) 0.1644(9) 0.974(1)
C24 C -0.038(2) -0.1254(7) 0.9955(9)
C24B C 1.038(2) 0.1254(7) 1.0045(9)
S18B S 0.9975(6) 0.1511(2) 1.0956(2)
C22B C 0.796(2) 0.1193(6) 1.0994(6)
S15B S 0.7800(4) 0.0470(2) 1.0862(2)
C20B C 0.569(2) 0.0419(6) 1.1010(5)
S16B S 0.4790(5) 0.1046(2) 1.1214(2)
C21B C 0.657(2) 0.1455(6) 1.1147(7)
C17B C 0.482(1) -0.0094(6) 1.0950(5)
S13B S 0.2718(5) -0.0182(2) 1.1091(2)
C19B C 0.274(2) -0.0901(6) 1.1022(6)
S17B S 0.0901(6) -0.1284(2) 1.1138(2)
C23B C 0.046(3) -0.1644(9) 1.026(1)
C18B C 0.420(2) -0.1148(7) 1.0866(7)
S14B S 0.5820(5) -0.0697(2) 1.0735(2)
O4? O 0.277(2) 0.2279(6) 0.727(2)
loop_
_geom_bond_atom_site_label_1
_geom_bond_atom_site_label_2
_geom_bond_site_symmetry_1
_geom_bond_site_symmetry_2
Cl1 O1 1_555 1_555
Cl2 O6 1_555 1_555
S1 C1 1_555 1_555
S2 C1 1_555 1_555
S3 C4 1_555 1_555
S4 C4 1_555 1_555
S5 C7 1_555 1_555
S6 C7 1_555 1_555
S7 C10 1_555 1_555
S8 C10 1_555 1_555
S9 C3 1_555 1_555
S10 C9 1_555 1_555
S11 C6 1_555 1_555
S12 C12 1_555 1_555
S13 C17 1_555 1_555
S14 C17 1_555 1_555
S15 C20 1_555 1_555
S16 C20 1_555 1_555
S17 C19 1_555 1_555
S18 C22 1_555 1_555
O2 Cl1 1_555 1_555
O3 Cl1 1_555 1_555
O5 Cl1 1_555 1_555
O7 Cl2 1_555 1_555
O8 Cl2 1_555 1_555
O9 Cl2 1_555 1_555
C1 C4 1_555 1_555
C2 S2 1_555 1_555
C3 S1 1_555 1_555
C5 S4 1_555 1_555
C6 S3 1_555 1_555
C7 C10 1_555 1_555
C8 S6 1_555 1_555
C9 S5 1_555 1_555
C11 S8 1_555 1_555
C12 S7 1_555 1_555
C13 S9 1_555 1_555
C14 S10 1_555 1_555
C15 S11 1_555 1_555
C16 S12 1_555 1_555
C17 C20 1_555 1_555
C18 S14 1_555 1_555
C19 S13 1_555 1_555
C21 S16 1_555 1_555
C22 S15 1_555 1_555
C23 S17 1_555 1_555
C24 S18 1_555 1_555
C24B C23 1_555 1_555
S18B C24B 1_555 1_555
C22B S18B 1_555 1_555
S15B C22B 1_555 1_555
C20B S15B 1_555 1_555
S16B C20B 1_555 1_555
C21B C22B 1_555 1_555
C17B C20B 1_555 1_555
S13B C17B 1_555 1_555
C19B S13B 1_555 1_555
S17B C19B 1_555 1_555
C23B C24 1_555 1_555
C18B C19B 1_555 1_555
S14B C17B 1_555 1_555
C2 C3 1_555 1_555
C5 C6 1_555 1_555
C8 C9 1_555 1_555
C11 C12 1_555 1_555
C13 C14 1_555 1_555
C15 C16 1_555 1_555
C18 C19 1_555 1_555
C21 C22 1_555 1_555
S16B C21B 1_555 1_555
S17B C23B 1_555 1_555
C18B S14B 1_555 1_555

#END
