
#######################################################################
#
#                 Cambridge Crystallographic Data Centre
#                                CCDC 
#
#######################################################################
#
# If this CIF has been generated from an entry in the Cambridge 
# Structural Database, then it will include bibliographic, chemical, 
# crystal, experimental, refinement or atomic coordinate data resulting 
# from the CCDC's data processing and validation procedures.
#
#######################################################################

data_RAQCAQ
_chemical_formula_moiety         'C54 H41 N1 O6 S2,0.5(C2 H4 Cl2)'
_chemical_name_systematic        
"1'-((4-methylphenyl)sulfonyl)-2'-(((4-methylphenyl)sulfonyl)methyl)-8'-(1-oxo-1,2-dihydroaceanthrylen-2-yl)-1',5',6',7'-tetrahydro-1H,2'H-spiro[aceanthrylene-2,3'-indolizin]-1-one 1,2-dichloroethane solvate"
_symmetry_cell_setting           monoclinic
_symmetry_space_group_name_H-M   'C 2/c'
_symmetry_Int_Tables_number      15
_space_group_name_Hall           '-C 2yn'
loop_
_symmetry_equiv_pos_site_id
_symmetry_equiv_pos_as_xyz
1 x,y,z
2 -x,y,1/2-z
3 1/2+x,1/2+y,z
4 1/2-x,1/2+y,1/2-z
5 -x,-y,-z
6 x,-y,1/2+z
7 1/2-x,1/2-y,-z
8 1/2+x,1/2-y,1/2+z
_cell_length_a                   31.6875(19)
_cell_length_b                   12.3025(6)
_cell_length_c                   24.4541(14)
_cell_angle_alpha                90
_cell_angle_beta                 111.4230(10)
_cell_angle_gamma                90
_cell_volume                     8874.43
_exptl_crystal_colour            colorless
_exptl_crystal_description       Prism
_cell_formula_units_Z            8
loop_
_atom_site_label
_atom_site_type_symbol
_atom_site_fract_x
_atom_site_fract_y
_atom_site_fract_z
S1 S 0.236415(16) 0.06447(4) 0.018951(19)
S2 S 0.171917(14) 0.28090(4) 0.137196(19)
O1 O 0.25607(5) 0.12463(12) -0.01654(6)
O2 O 0.22388(5) -0.04687(12) 0.00380(7)
O3 O 0.21495(5) 0.29858(12) 0.13100(6)
O4 O 0.14580(5) 0.37439(11) 0.14121(6)
O5 O 0.05334(5) 0.36553(13) 0.16891(6)
O6 O 0.08257(5) 0.06349(13) -0.04623(6)
N1 N 0.10709(5) 0.03417(13) 0.08486(7)
C1 C 0.06849(8) -0.03747(18) 0.07729(11)
H1 H 0.0794 -0.1122 0.0897
H2 H 0.0484 -0.0396 0.0354
C2 C 0.04250(7) 0.00471(18) 0.11402(10)
H3 H 0.0626 0.0056 0.1559
H4 H 0.0167 -0.0444 0.1097
C3 C 0.02487(7) 0.11869(17) 0.09493(10)
H5 H -0.0027 0.1142 0.0589
H6 H 0.0162 0.1527 0.1260
C4 C 0.05969(6) 0.18955(16) 0.08308(8)
C5 C 0.09797(6) 0.14594(15) 0.08111(7)
C6 C 0.13808(6) 0.20067(15) 0.07393(8)
H7 H 0.1273 0.2484 0.0384
C7 C 0.16746(6) 0.10751(14) 0.06387(7)
H8 H 0.1930 0.0941 0.1020
C8 C 0.13541(6) 0.00741(14) 0.05119(8)
C9 C 0.15842(7) -0.10179(16) 0.06809(9)
C10 C 0.18627(8) -0.14216(18) 0.12073(10)
H9 H 0.1933 -0.1004 0.1556
C11 C 0.20485(9) -0.2492(2) 0.12249(13)
H10 H 0.2242 -0.2778 0.1591
C12 C 0.19557(9) -0.3106(2) 0.07351(14)
H11 H 0.2091 -0.3803 0.0763
C13 C 0.16566(8) -0.27180(18) 0.01777(12)
C14 C 0.15219(9) -0.32508(19) -0.03584(13)
H12 H 0.1644 -0.3949 -0.0378
C15 C 0.12116(9) -0.2789(2) -0.08710(12)
C16 C 0.10581(11) -0.3374(3) -0.14156(14)
H13 H 0.1170 -0.4086 -0.1428
C17 C 0.07596(11) -0.2938(3) -0.19077(14)
H14 H 0.0660 -0.3351 -0.2260
C18 C 0.05896(9) -0.1871(3) -0.19110(12)
H15 H 0.0385 -0.1570 -0.2267
C19 C 0.07201(7) -0.1269(3) -0.14018(10)
H16 H 0.0604 -0.0555 -0.1406
C20 C 0.10270(7) -0.1715(2) -0.08723(10)
C21 C 0.11713(6) -0.11671(17) -0.03292(9)
C22 C 0.14716(7) -0.16654(16) 0.01722(10)
C23 C 0.10733(6) -0.00712(16) -0.01623(8)
C24 C 0.18824(6) 0.14088(15) 0.01862(7)
H17 H 0.1972 0.2183 0.0252
H18 H 0.1644 0.1352 -0.0210
C25 C 0.27399(6) 0.06950(17) 0.09285(8)
C26 C 0.28502(7) -0.02606(19) 0.12562(10)
H19 H 0.2728 -0.0938 0.1085
C27 C 0.31441(8) -0.0201(2) 0.18408(10)
H20 H 0.3226 -0.0849 0.2067
C28 C 0.33192(7) 0.0784(2) 0.20980(9)
C29 C 0.31977(7) 0.1731(2) 0.17623(9)
H21 H 0.3313 0.2412 0.1937
C30 C 0.29107(6) 0.16933(18) 0.11752(8)
H22 H 0.2833 0.2339 0.0947
C31 C 0.36367(9) 0.0847(3) 0.27332(11)
H23 H 0.3687 0.1610 0.2854
H24 H 0.3927 0.0507 0.2776
H25 H 0.3502 0.0465 0.2981
C32 C 0.18056(6) 0.19717(15) 0.19860(8)
C33 C 0.21834(6) 0.12872(16) 0.21855(8)
H26 H 0.2397 0.1283 0.1996
C34 C 0.22433(6) 0.06106(16) 0.26648(8)
H27 H 0.2497 0.0137 0.2798
C35 C 0.19357(7) 0.06196(16) 0.29505(8)
C36 C 0.15609(7) 0.13153(18) 0.27398(9)
H28 H 0.1349 0.1327 0.2932
C37 C 0.14894(7) 0.19868(16) 0.22594(9)
H29 H 0.1231 0.2446 0.2120
C38 C 0.20027(8) -0.0083(2) 0.34804(10)
H30 H 0.2249 -0.0600 0.3529
H31 H 0.1722 -0.0481 0.3426
H32 H 0.2080 0.0376 0.3831
C39 C 0.04728(6) 0.30725(16) 0.07033(8)
H33 H 0.0738 0.3463 0.0667
C40 C 0.00664(6) 0.32342(16) 0.01369(8)
C41 C -0.00342(7) 0.28619(17) -0.04228(9)
H34 H 0.0168 0.2390 -0.0516
C42 C -0.04551(8) 0.32031(18) -0.08698(9)
H35 H -0.0526 0.2944 -0.1259
C43 C -0.07541(7) 0.38758(19) -0.07596(9)
H36 H -0.1028 0.4075 -0.1068
C44 C -0.06582(7) 0.42821(17) -0.01827(9)
C45 C -0.09209(7) 0.49979(17) 0.00062(10)
H37 H -0.1204 0.5238 -0.0268
C46 C -0.07794(7) 0.53691(17) 0.05857(10)
C47 C -0.10445(8) 0.61409(19) 0.07635(12)
H38 H -0.1323 0.6398 0.0485
C48 C -0.09015(9) 0.6506(2) 0.13250(13)
H39 H -0.1076 0.7035 0.1431
C49 C -0.04962(9) 0.6114(2) 0.17569(12)
H40 H -0.0405 0.6371 0.2149
C50 C -0.02361(8) 0.53697(19) 0.16121(10)
H41 H 0.0033 0.5105 0.1906
C51 C -0.03635(7) 0.49864(16) 0.10259(9)
C52 C -0.01056(6) 0.42484(16) 0.08383(8)
C53 C -0.02436(6) 0.39326(16) 0.02534(8)
C54 C 0.03261(6) 0.36773(16) 0.11632(8)
Cl1 Cl 0.06981(4) 0.87147(10) 0.25811(6)
C55 C 0.00926(17) 0.8754(3) 0.2276(2)
H42 H -0.0007 0.9416 0.2032
H43 H -0.0022 0.8114 0.2018
Cl1A Cl -0.06981(4) 0.87147(10) 0.24189(6)
C55A C -0.00926(17) 0.8754(3) 0.2724(2)
H42A H 0.0007 0.9416 0.2968
H43A H 0.0022 0.8114 0.2982
loop_
_geom_bond_atom_site_label_1
_geom_bond_atom_site_label_2
_geom_bond_site_symmetry_1
_geom_bond_site_symmetry_2
S1 O1 1_555 1_555
S2 O3 1_555 1_555
O2 S1 1_555 1_555
O4 S2 1_555 1_555
O5 C54 1_555 1_555
O6 C23 1_555 1_555
N1 C1 1_555 1_555
C1 H1 1_555 1_555
H2 C1 1_555 1_555
C2 C1 1_555 1_555
H3 C2 1_555 1_555
H4 C2 1_555 1_555
C3 C2 1_555 1_555
H5 C3 1_555 1_555
H6 C3 1_555 1_555
C4 C3 1_555 1_555
C5 N1 1_555 1_555
C6 S2 1_555 1_555
H7 C6 1_555 1_555
C7 C6 1_555 1_555
H8 C7 1_555 1_555
C8 N1 1_555 1_555
C9 C8 1_555 1_555
C10 C9 1_555 1_555
H9 C10 1_555 1_555
C11 C10 1_555 1_555
H10 C11 1_555 1_555
C12 C11 1_555 1_555
H11 C12 1_555 1_555
C13 C12 1_555 1_555
C14 C13 1_555 1_555
H12 C14 1_555 1_555
C15 C14 1_555 1_555
C16 C15 1_555 1_555
H13 C16 1_555 1_555
C17 C16 1_555 1_555
H14 C17 1_555 1_555
C18 C17 1_555 1_555
H15 C18 1_555 1_555
C19 C18 1_555 1_555
H16 C19 1_555 1_555
C20 C15 1_555 1_555
C21 C20 1_555 1_555
C22 C9 1_555 1_555
C23 C8 1_555 1_555
C24 S1 1_555 1_555
H17 C24 1_555 1_555
H18 C24 1_555 1_555
C25 S1 1_555 1_555
C26 C25 1_555 1_555
H19 C26 1_555 1_555
C27 C26 1_555 1_555
H20 C27 1_555 1_555
C28 C27 1_555 1_555
C29 C28 1_555 1_555
H21 C29 1_555 1_555
C30 C25 1_555 1_555
H22 C30 1_555 1_555
C31 C28 1_555 1_555
H23 C31 1_555 1_555
H24 C31 1_555 1_555
H25 C31 1_555 1_555
C32 S2 1_555 1_555
C33 C32 1_555 1_555
H26 C33 1_555 1_555
C34 C33 1_555 1_555
H27 C34 1_555 1_555
C35 C34 1_555 1_555
C36 C35 1_555 1_555
H28 C36 1_555 1_555
C37 C32 1_555 1_555
H29 C37 1_555 1_555
C38 C35 1_555 1_555
H30 C38 1_555 1_555
H31 C38 1_555 1_555
H32 C38 1_555 1_555
C39 C4 1_555 1_555
H33 C39 1_555 1_555
C40 C39 1_555 1_555
C41 C40 1_555 1_555
H34 C41 1_555 1_555
C42 C41 1_555 1_555
H35 C42 1_555 1_555
C43 C42 1_555 1_555
H36 C43 1_555 1_555
C44 C43 1_555 1_555
C45 C44 1_555 1_555
H37 C45 1_555 1_555
C46 C45 1_555 1_555
C47 C46 1_555 1_555
H38 C47 1_555 1_555
C48 C47 1_555 1_555
H39 C48 1_555 1_555
C49 C48 1_555 1_555
H40 C49 1_555 1_555
C50 C49 1_555 1_555
H41 C50 1_555 1_555
C51 C46 1_555 1_555
C52 C51 1_555 1_555
C53 C40 1_555 1_555
C54 C39 1_555 1_555
Cl1 C55 1_555 1_555
C55 H42 1_555 1_555
H43 C55 1_555 1_555
Cl1A C55A 1_555 1_555
C55A C55 1_555 1_555
H42A C55A 1_555 1_555
H43A C55A 1_555 1_555
C4 C5 1_555 1_555
C5 C6 1_555 1_555
C7 C8 1_555 1_555
C7 C24 1_555 1_555
C13 C22 1_555 1_555
C19 C20 1_555 1_555
C21 C22 1_555 1_555
C21 C23 1_555 1_555
C29 C30 1_555 1_555
C36 C37 1_555 1_555
C44 C53 1_555 1_555
C50 C51 1_555 1_555
C52 C53 1_555 1_555
C52 C54 1_555 1_555

#END
