
#######################################################################
#
#                 Cambridge Crystallographic Data Centre
#                                CCDC 
#
#######################################################################
#
# If this CIF has been generated from an entry in the Cambridge 
# Structural Database, then it will include bibliographic, chemical, 
# crystal, experimental, refinement or atomic coordinate data resulting 
# from the CCDC's data processing and validation procedures.
#
#######################################################################

data_RAQFAT
_chemical_formula_moiety         'C38 H25 B2 F20 N1 O2'
_chemical_name_systematic        
(2,2-bis(pentafluorophenyl)-3-(1-(2,2,6,6-tetramethylpiperidinium-1-ylidene)propan-2-yl)-1,4,2-dioxaborol-1-ium-5-yl)(hydrido)bis(pentafluorophenyl)borate
_symmetry_cell_setting           monoclinic
_symmetry_space_group_name_H-M   'P 21/n'
_symmetry_Int_Tables_number      14
_space_group_name_Hall           '-P 2yn'
loop_
_symmetry_equiv_pos_site_id
_symmetry_equiv_pos_as_xyz
1 x,y,z
2 1/2-x,1/2+y,1/2-z
3 -x,-y,-z
4 1/2+x,1/2-y,1/2+z
_cell_length_a                   14.4987(7)
_cell_length_b                   11.0883(4)
_cell_length_c                   23.6041(10)
_cell_angle_alpha                90
_cell_angle_beta                 106.5030(10)
_cell_angle_gamma                90
_cell_volume                     3638.41
_exptl_crystal_colour            colorless
_exptl_crystal_description       prism
_cell_formula_units_Z            4
loop_
_atom_site_label
_atom_site_type_symbol
_atom_site_fract_x
_atom_site_fract_y
_atom_site_fract_z
B1 B 0.23401(19) 0.4838(2) 0.66130(10)
C1 C 0.24409(16) 0.69594(18) 0.52642(9)
H1 H 0.2441 0.773 0.544
N1 N 0.28017(13) 0.69461(15) 0.48257(7)
O1 O 0.34661(11) 0.62892(12) 0.63870(6)
B2 B 0.50920(19) 0.5584(2) 0.70451(11)
H2 H 0.5338(16) 0.5011(19) 0.6739(9)
C2 C 0.20208(16) 0.59718(18) 0.55462(9)
H3 H 0.2181 0.5167 0.5408
O2 O 0.34307(11) 0.46928(12) 0.69234(6)
C3 C 0.09234(16) 0.6150(2) 0.53744(9)
H4 H 0.0778 0.6975 0.547
H5 H 0.0641 0.5577 0.5594
H6 H 0.0653 0.601 0.4949
C4 C 0.24076(16) 0.60628(18) 0.62242(9)
H7 H 0.2084 0.6749 0.6366
C5 C 0.39436(16) 0.55123(18) 0.67873(9)
C6 C 0.32196(17) 0.81331(18) 0.46612(9)
C7 C 0.41458(17) 0.78166(19) 0.45012(10)
H8 H 0.4424 0.8571 0.4397
H9 H 0.4614 0.7479 0.4856
C8 C 0.40301(18) 0.6921(2) 0.39927(10)
H10 H 0.3991 0.737 0.3624
H11 H 0.4603 0.6392 0.4076
C9 C 0.31294(18) 0.6144(2) 0.39034(10)
H12 H 0.3218 0.5395 0.3697
H13 H 0.2578 0.6584 0.3641
C10 C 0.28709(17) 0.57961(18) 0.44688(9)
C11 C 0.24473(18) 0.8751(2) 0.41671(10)
H14 H 0.2682 0.954 0.4083
H15 H 0.1863 0.8858 0.4292
H16 H 0.2302 0.8251 0.381
C12 C 0.35084(18) 0.89715(19) 0.51960(10)
H17 H 0.3892 0.8522 0.554
H18 H 0.2929 0.9287 0.5279
H19 H 0.3889 0.9643 0.5112
C13 C 0.18927(18) 0.5159(2) 0.42688(10)
H20 H 0.1899 0.4569 0.3961
H21 H 0.1386 0.5756 0.4111
H22 H 0.1768 0.4746 0.4607
C14 C 0.36604(18) 0.5013(2) 0.48626(10)
H23 H 0.3506 0.484 0.5233
H24 H 0.4276 0.5442 0.4949
H25 H 0.3706 0.4255 0.4659
C15 C 0.19765(16) 0.36265(17) 0.62140(9)
C16 C 0.25514(17) 0.30222(18) 0.59257(9)
F1 F 0.34579(9) 0.34154(10) 0.59779(5)
C17 C 0.22521(18) 0.20477(19) 0.55548(9)
F2 F 0.28292(10) 0.15666(11) 0.52609(6)
C18 C 0.13441(19) 0.15874(18) 0.54802(9)
F3 F 0.10434(11) 0.06254(11) 0.51289(6)
C19 C 0.07362(17) 0.2142(2) 0.57556(10)
F4 F -0.01680(10) 0.17361(12) 0.56712(6)
C20 C 0.10606(17) 0.31450(18) 0.61053(9)
F5 F 0.04059(10) 0.36812(11) 0.63340(6)
C21 C 0.18561(16) 0.50359(17) 0.71491(9)
C22 C 0.11528(16) 0.58835(18) 0.71522(9)
F6 F 0.07302(10) 0.65087(11) 0.66525(5)
C23 C 0.08281(17) 0.61313(19) 0.76365(10)
F7 F 0.01486(10) 0.69698(11) 0.76085(6)
C24 C 0.12029(17) 0.55019(19) 0.81507(9)
F8 F 0.08992(10) 0.57252(11) 0.86299(5)
C25 C 0.18837(17) 0.46256(18) 0.81708(9)
F9 F 0.22619(10) 0.40056(11) 0.86751(5)
C26 C 0.21836(17) 0.44001(18) 0.76769(9)
F10 F 0.28351(10) 0.35022(10) 0.77267(5)
C27 C 0.54242(16) 0.49092(18) 0.76862(9)
C28 C 0.49102(16) 0.49574(18) 0.81011(9)
F11 F 0.41689(9) 0.57453(10) 0.80243(5)
C29 C 0.50931(17) 0.42290(19) 0.85938(9)
F12 F 0.45253(10) 0.42691(11) 0.89578(5)
C30 C 0.58505(17) 0.34282(18) 0.87043(9)
F13 F 0.60332(10) 0.26922(11) 0.91773(5)
C31 C 0.64057(16) 0.33757(19) 0.83215(10)
F14 F 0.71424(10) 0.25788(11) 0.84244(6)
C32 C 0.61864(16) 0.41036(19) 0.78269(9)
F15 F 0.67467(9) 0.39674(11) 0.74573(5)
C33 C 0.54584(16) 0.69592(18) 0.70032(9)
C34 C 0.56956(16) 0.77931(19) 0.74597(9)
F16 F 0.56524(10) 0.74761(10) 0.80058(5)
C35 C 0.59842(17) 0.89620(19) 0.73988(9)
F17 F 0.61900(10) 0.97308(11) 0.78590(6)
C36 C 0.60625(17) 0.93466(19) 0.68585(10)
F18 F 0.63568(11) 1.04715(11) 0.67962(6)
C37 C 0.58367(17) 0.8554(2) 0.63923(10)
F19 F 0.59153(11) 0.89197(12) 0.58591(6)
C38 C 0.55382(16) 0.74093(19) 0.64701(9)
F20 F 0.53139(10) 0.66878(11) 0.59825(5)
loop_
_geom_bond_atom_site_label_1
_geom_bond_atom_site_label_2
_geom_bond_site_symmetry_1
_geom_bond_site_symmetry_2
B1 O2 1_555 1_555
C1 H1 1_555 1_555
N1 C1 1_555 1_555
O1 C4 1_555 1_555
B2 H2 1_555 1_555
C2 C1 1_555 1_555
H3 C2 1_555 1_555
O2 C5 1_555 1_555
C3 C2 1_555 1_555
H4 C3 1_555 1_555
H5 C3 1_555 1_555
H6 C3 1_555 1_555
C4 B1 1_555 1_555
H7 C4 1_555 1_555
C5 O1 1_555 1_555
C6 N1 1_555 1_555
C7 C6 1_555 1_555
H8 C7 1_555 1_555
H9 C7 1_555 1_555
C8 C7 1_555 1_555
H10 C8 1_555 1_555
H11 C8 1_555 1_555
C9 C8 1_555 1_555
H12 C9 1_555 1_555
H13 C9 1_555 1_555
C10 N1 1_555 1_555
C11 C6 1_555 1_555
H14 C11 1_555 1_555
H15 C11 1_555 1_555
H16 C11 1_555 1_555
C12 C6 1_555 1_555
H17 C12 1_555 1_555
H18 C12 1_555 1_555
H19 C12 1_555 1_555
C13 C10 1_555 1_555
H20 C13 1_555 1_555
H21 C13 1_555 1_555
H22 C13 1_555 1_555
C14 C10 1_555 1_555
H23 C14 1_555 1_555
H24 C14 1_555 1_555
H25 C14 1_555 1_555
C15 B1 1_555 1_555
C16 C15 1_555 1_555
F1 C16 1_555 1_555
C17 C16 1_555 1_555
F2 C17 1_555 1_555
C18 C17 1_555 1_555
F3 C18 1_555 1_555
C19 C18 1_555 1_555
F4 C19 1_555 1_555
C20 C15 1_555 1_555
F5 C20 1_555 1_555
C21 B1 1_555 1_555
C22 C21 1_555 1_555
F6 C22 1_555 1_555
C23 C22 1_555 1_555
F7 C23 1_555 1_555
C24 C23 1_555 1_555
F8 C24 1_555 1_555
C25 C24 1_555 1_555
F9 C25 1_555 1_555
C26 C21 1_555 1_555
F10 C26 1_555 1_555
C27 B2 1_555 1_555
C28 C27 1_555 1_555
F11 C28 1_555 1_555
C29 C28 1_555 1_555
F12 C29 1_555 1_555
C30 C29 1_555 1_555
F13 C30 1_555 1_555
C31 C30 1_555 1_555
F14 C31 1_555 1_555
C32 C27 1_555 1_555
F15 C32 1_555 1_555
C33 B2 1_555 1_555
C34 C33 1_555 1_555
F16 C34 1_555 1_555
C35 C34 1_555 1_555
F17 C35 1_555 1_555
C36 C35 1_555 1_555
F18 C36 1_555 1_555
C37 C36 1_555 1_555
F19 C37 1_555 1_555
C38 C33 1_555 1_555
F20 C38 1_555 1_555
B2 C5 1_555 1_555
C2 C4 1_555 1_555
C9 C10 1_555 1_555
C19 C20 1_555 1_555
C25 C26 1_555 1_555
C31 C32 1_555 1_555
C37 C38 1_555 1_555

#END
