
#######################################################################
#
#                 Cambridge Crystallographic Data Centre
#                                CCDC 
#
#######################################################################
#
# If this CIF has been generated from an entry in the Cambridge 
# Structural Database, then it will include bibliographic, chemical, 
# crystal, experimental, refinement or atomic coordinate data resulting 
# from the CCDC's data processing and validation procedures.
#
#######################################################################

data_RARBEU
_chemical_formula_moiety         '2(C9 H9 N4 O1 1+),O4 S1 2-,2(H2 O1)'
_chemical_name_systematic        
'bis(4-((4-hydroxybenzylidene)amino)-4H-1,2,4-triazol-1-ium) sulfate dihydrate'
_symmetry_cell_setting           monoclinic
_symmetry_space_group_name_H-M   'C c'
_symmetry_Int_Tables_number      9
_space_group_name_Hall           'C -2yc'
loop_
_symmetry_equiv_pos_site_id
_symmetry_equiv_pos_as_xyz
1 x,y,z
2 x,-y,1/2+z
3 1/2+x,1/2+y,z
4 1/2+x,1/2-y,1/2+z
_cell_length_a                   6.7700(14)
_cell_length_b                   20.084(4)
_cell_length_c                   16.848(3)
_cell_angle_alpha                90
_cell_angle_beta                 101.50(3)
_cell_angle_gamma                90
_cell_volume                     2244.81
_exptl_crystal_colour            yellow
_exptl_crystal_description       stick
_cell_formula_units_Z            4
loop_
_atom_site_label
_atom_site_type_symbol
_atom_site_fract_x
_atom_site_fract_y
_atom_site_fract_z
S1 S 0.1316(3) 0.12493(9) 0.78333(12)
O1 O -0.0166(12) 0.1724(3) 0.7460(5)
O2 O 0.2893(11) 0.1569(4) 0.8421(4)
O3 O 0.0241(12) 0.0788(3) 0.8219(5)
O4 O 0.2284(10) 0.0931(5) 0.7252(4)
O5 O 0.5833(8) 0.0129(3) 1.5558(3)
H1 H 0.6032 0.0383 1.5948
N1 N 0.3226(9) 0.1734(3) 0.9988(4)
H2 H 0.2968 0.1659 0.9476
C1 C 0.3509(10) 0.1275(5) 1.0528(4)
H3 H 0.3471 0.0819 1.0432
N2 N 0.3379(10) 0.2350(3) 1.0318(4)
C2 C 0.3744(11) 0.2233(4) 1.1098(5)
H4 H 0.3897 0.2562 1.1495
N3 N 0.3870(8) 0.1572(3) 1.1253(3)
C3 C 0.4632(10) 0.1518(3) 1.2622(4)
H5 H 0.4703 0.1980 1.2614
N4 N 0.4223(9) 0.1197(3) 1.1969(3)
C4 C 0.4991(10) 0.1165(4) 1.3385(4)
C5 C 0.5373(11) 0.1496(3) 1.4115(4)
H6 H 0.5444 0.1958 1.4110
C6 C 0.5656(11) 0.1179(4) 1.4850(4)
H7 H 0.5886 0.1421 1.5330
C7 C 0.5589(11) 0.0490(4) 1.4857(4)
C8 C 0.5241(12) 0.0127(3) 1.4141(5)
H8 H 0.5196 -0.0335 1.4152
C9 C 0.4967(11) 0.0459(4) 1.3422(4)
H9 H 0.4759 0.0216 1.2942
O6 O -0.1873(8) -0.2372(3) 0.5106(3)
H10 H -0.2120 -0.2165 0.4657
N5 N 0.1065(9) -0.0764(3) 1.0682(4)
H11 H 0.1316 -0.0834 1.1196
N6 N 0.0868(10) -0.0150(3) 1.0327(4)
N7 N 0.0457(8) -0.0933(3) 0.9407(3)
N8 N 0.0094(9) -0.1311(3) 0.8703(3)
C10 C 0.0818(11) -0.1232(5) 1.0128(4)
H12 H 0.0881 -0.1689 1.0221
C11 C 0.0495(12) -0.0266(4) 0.9562(4)
H13 H 0.0280 0.0063 0.9165
C12 C -0.0166(11) -0.0990(4) 0.8034(5)
H14 H -0.0106 -0.0528 0.8037
C13 C -0.0556(10) -0.1349(4) 0.7270(4)
C14 C -0.0637(11) -0.2034(3) 0.7253(4)
H15 H -0.0410 -0.2274 0.7735
C15 C -0.1054(11) -0.2363(4) 0.6522(5)
H16 H -0.1080 -0.2826 0.6514
C16 C -0.1435(11) -0.2014(4) 0.5796(4)
C17 C -0.1347(11) -0.1344(4) 0.5816(4)
H17 H -0.1573 -0.1106 0.5333
C18 C -0.0925(11) -0.1007(3) 0.6545(4)
H18 H -0.0890 -0.0544 0.6547
O7 O 0.6124(9) 0.0866(4) 1.6870(4)
H19 H 0.6048 0.1287 1.6825
H20 H 0.6282 0.0686 1.7335
O8 O -0.2950(10) 0.1643(4) 0.8778(3)
H21 H -0.1995 0.1481 0.8579
H22 H -0.3134 0.1380 0.9152
loop_
_geom_bond_atom_site_label_1
_geom_bond_atom_site_label_2
_geom_bond_site_symmetry_1
_geom_bond_site_symmetry_2
S1 O1 1_555 1_555
O2 S1 1_555 1_555
O3 S1 1_555 1_555
O4 S1 1_555 1_555
O5 H1 1_555 1_555
N1 H2 1_555 1_555
C1 N1 1_555 1_555
H3 C1 1_555 1_555
N2 N1 1_555 1_555
C2 N2 1_555 1_555
H4 C2 1_555 1_555
N3 C1 1_555 1_555
C3 H5 1_555 1_555
N4 N3 1_555 1_555
C4 C3 1_555 1_555
C5 C4 1_555 1_555
H6 C5 1_555 1_555
C6 C5 1_555 1_555
H7 C6 1_555 1_555
C7 O5 1_555 1_555
C8 C7 1_555 1_555
H8 C8 1_555 1_555
C9 C4 1_555 1_555
H9 C9 1_555 1_555
O6 H10 1_555 1_555
N5 H11 1_555 1_555
N6 N5 1_555 1_555
N7 N8 1_555 1_555
N8 C12 1_555 1_555
C10 N5 1_555 1_555
H12 C10 1_555 1_555
C11 N6 1_555 1_555
H13 C11 1_555 1_555
C12 H14 1_555 1_555
C13 C12 1_555 1_555
C14 C13 1_555 1_555
H15 C14 1_555 1_555
C15 C14 1_555 1_555
H16 C15 1_555 1_555
C16 O6 1_555 1_555
C17 C16 1_555 1_555
H17 C17 1_555 1_555
C18 C13 1_555 1_555
H18 C18 1_555 1_555
O7 H19 1_555 1_555
H20 O7 1_555 1_555
O8 H21 1_555 1_555
H22 O8 1_555 1_555
C2 N3 1_555 1_555
C3 N4 1_555 1_555
C6 C7 1_555 1_555
C8 C9 1_555 1_555
N7 C10 1_555 1_555
N7 C11 1_555 1_555
C15 C16 1_555 1_555
C17 C18 1_555 1_555

#END
