
#######################################################################
#
#                 Cambridge Crystallographic Data Centre
#                                CCDC 
#
#######################################################################
#
# If this CIF has been generated from an entry in the Cambridge 
# Structural Database, then it will include bibliographic, chemical, 
# crystal, experimental, refinement or atomic coordinate data resulting 
# from the CCDC's data processing and validation procedures.
#
#######################################################################

data_RARJEB
_chemical_formula_moiety         'C24 H19 N1 O2'
_chemical_name_systematic        
1-(4-Methylphenyl)-8-phenyl-3,4-dihydrofuro[2,3-h]quinolin-2(1H)-one
_symmetry_cell_setting           monoclinic
_symmetry_space_group_name_H-M   'P 21/n'
_symmetry_Int_Tables_number      14
_space_group_name_Hall           '-P 2yn'
loop_
_symmetry_equiv_pos_site_id
_symmetry_equiv_pos_as_xyz
1 x,y,z
2 1/2-x,1/2+y,1/2-z
3 -x,-y,-z
4 1/2+x,1/2-y,1/2+z
_cell_length_a                   11.316(4)
_cell_length_b                   5.8089(19)
_cell_length_c                   27.450(9)
_cell_angle_alpha                90
_cell_angle_beta                 92.831(4)
_cell_angle_gamma                90
_cell_volume                     1802.18
_exptl_crystal_colour            colorless
_exptl_crystal_description       rod
_chemical_melting_point          '202-204 deg.C'
_cell_formula_units_Z            4
loop_
_atom_site_label
_atom_site_type_symbol
_atom_site_fract_x
_atom_site_fract_y
_atom_site_fract_z
N1 N 0.98888(11) 0.7111(3) 0.16357(4)
O1 O 0.87934(10) 0.3062(2) 0.01784(4)
O2 O 1.05691(12) 0.9496(3) 0.22409(5)
C1 C 0.70391(15) 0.5037(3) -0.01278(6)
C2 C 0.68211(17) 0.3304(4) -0.04673(6)
H1 H 0.7292 0.1991 -0.0461
C3 C 0.5905(2) 0.3527(5) -0.08154(7)
H2 H 0.5770 0.2365 -0.1044
C4 C 0.5195(2) 0.5426(5) -0.08285(7)
H3 H 0.4573 0.5547 -0.1061
C5 C 0.54072(19) 0.7156(4) -0.04952(8)
H4 H 0.4934 0.8465 -0.0504
C6 C 0.63178(17) 0.6955(4) -0.01480(7)
H5 H 0.6451 0.8133 0.0078
C7 C 0.79974(15) 0.4825(3) 0.02461(6)
C8 C 0.82877(14) 0.6013(3) 0.06561(6)
H6 H 0.7877 0.7257 0.0777
C9 C 0.93498(13) 0.5002(3) 0.08719(5)
C10 C 0.96219(15) 0.3201(3) 0.05611(6)
C11 C 1.05910(17) 0.1782(3) 0.06190(6)
H7 H 1.0734 0.0593 0.0403
C12 C 1.13376(16) 0.2243(4) 0.10204(6)
H8 H 1.2016 0.1353 0.1072
C13 C 1.11136(15) 0.3992(3) 0.13515(6)
C14 C 1.01151(14) 0.5371(3) 0.12845(5)
C15 C 1.19343(16) 0.4466(4) 0.17827(7)
H9 H 1.2719 0.3900 0.1721
H10 H 1.1659 0.3673 0.2067
C16 C 1.19842(16) 0.7027(4) 0.18793(7)
H11 H 1.2476 0.7313 0.2172
H12 H 1.2346 0.7790 0.1610
C17 C 1.07809(15) 0.8024(4) 0.19402(6)
C18 C 0.86855(14) 0.7790(3) 0.17135(5)
C19 C 0.82691(16) 0.9924(3) 0.15716(6)
H13 H 0.8764 1.0963 0.1424
C20 C 0.71141(17) 1.0511(3) 0.16501(7)
H14 H 0.6835 1.1949 0.1550
C21 C 0.63593(15) 0.9018(4) 0.18739(6)
C22 C 0.67997(16) 0.6891(4) 0.20159(6)
H15 H 0.6310 0.5857 0.2168
C23 C 0.79501(15) 0.6269(3) 0.19372(6)
H16 H 0.8230 0.4827 0.2035
C24 C 0.51161(19) 0.9730(5) 0.19769(9)
H17 H 0.5139 1.0892 0.2226
H18 H 0.4685 0.8418 0.2086
H19 H 0.4731 1.0335 0.1685
loop_
_geom_bond_atom_site_label_1
_geom_bond_atom_site_label_2
_geom_bond_site_symmetry_1
_geom_bond_site_symmetry_2
N1 C14 1_555 1_555
O1 C7 1_555 1_555
O2 C17 1_555 1_555
C1 C2 1_555 1_555
C2 H1 1_555 1_555
C3 C2 1_555 1_555
H2 C3 1_555 1_555
C4 C3 1_555 1_555
H3 C4 1_555 1_555
C5 C4 1_555 1_555
H4 C5 1_555 1_555
C6 C1 1_555 1_555
H5 C6 1_555 1_555
C7 C1 1_555 1_555
C8 C7 1_555 1_555
H6 C8 1_555 1_555
C9 C8 1_555 1_555
C10 O1 1_555 1_555
C11 C10 1_555 1_555
H7 C11 1_555 1_555
C12 C11 1_555 1_555
H8 C12 1_555 1_555
C13 C12 1_555 1_555
C14 C9 1_555 1_555
C15 C13 1_555 1_555
H9 C15 1_555 1_555
H10 C15 1_555 1_555
C16 C15 1_555 1_555
H11 C16 1_555 1_555
H12 C16 1_555 1_555
C17 N1 1_555 1_555
C18 N1 1_555 1_555
C19 C18 1_555 1_555
H13 C19 1_555 1_555
C20 C19 1_555 1_555
H14 C20 1_555 1_555
C21 C20 1_555 1_555
C22 C21 1_555 1_555
H15 C22 1_555 1_555
C23 C18 1_555 1_555
H16 C23 1_555 1_555
C24 C21 1_555 1_555
H17 C24 1_555 1_555
H18 C24 1_555 1_555
H19 C24 1_555 1_555
C5 C6 1_555 1_555
C9 C10 1_555 1_555
C13 C14 1_555 1_555
C16 C17 1_555 1_555
C22 C23 1_555 1_555

#END
