
#######################################################################
#
#                 Cambridge Crystallographic Data Centre
#                                CCDC 
#
#######################################################################
#
# If this CIF has been generated from an entry in the Cambridge 
# Structural Database, then it will include bibliographic, chemical, 
# crystal, experimental, refinement or atomic coordinate data resulting 
# from the CCDC's data processing and validation procedures.
#
#######################################################################

data_RARNEF
_chemical_formula_moiety         'C29 H27 Br1 N2 O3'
_chemical_name_systematic        
'Ethyl 5-benzoyl-10-bromo-4-phenyl-1,4,5,7,8,12b-hexahydro[1,2]diazepino[7,1-a]isoquinoline-3-carboxylate'
_symmetry_cell_setting           monoclinic
_symmetry_space_group_name_H-M   'P 21/c'
_symmetry_Int_Tables_number      14
_space_group_name_Hall           '-P 2ybc'
loop_
_symmetry_equiv_pos_site_id
_symmetry_equiv_pos_as_xyz
1 x,y,z
2 -x,1/2+y,1/2-z
3 -x,-y,-z
4 x,1/2-y,1/2+z
_cell_length_a                   11.178(5)
_cell_length_b                   8.238(3)
_cell_length_c                   27.526(10)
_cell_angle_alpha                90
_cell_angle_beta                 106.200(6)
_cell_angle_gamma                90
_cell_volume                     2434.07
_exptl_crystal_colour            yellow
_exptl_crystal_description       block
_cell_formula_units_Z            4
loop_
_atom_site_label
_atom_site_type_symbol
_atom_site_fract_x
_atom_site_fract_y
_atom_site_fract_z
Br1 Br 0.84897(4) 1.48290(4) 0.075165(16)
O1 O 0.5627(2) 0.4777(3) 0.22215(9)
O2 O 0.3712(3) 0.3095(3) 0.02714(10)
O3 O 0.3019(2) 0.3139(3) 0.09609(9)
N1 N 0.5739(2) 0.8233(3) 0.15061(10)
N2 N 0.5290(2) 0.6727(3) 0.16207(10)
C1 C 0.4108(3) 0.5964(4) 0.13415(12)
H1 H 0.4059 0.4938 0.1529
C2 C 0.4115(3) 0.5423(4) 0.08142(12)
C3 C 0.4435(3) 0.6350(4) 0.04765(12)
H2 H 0.4373 0.5882 0.0155
C4 C 0.4886(3) 0.8070(4) 0.05576(12)
H3 H 0.4198 0.8763 0.0599
H4 H 0.5107 0.8445 0.0252
C5 C 0.6019(3) 0.8300(4) 0.10193(11)
H5 H 0.6625 0.7411 0.1015
C6 C 0.6653(3) 0.9906(3) 0.09774(12)
C7 C 0.7239(3) 1.0082(4) 0.05971(13)
H6 H 0.7263 0.9187 0.0382
C8 C 0.7788(3) 1.1528(4) 0.05234(13)
H7 H 0.8186 1.1636 0.0262
C9 C 0.7743(3) 1.2813(4) 0.08393(13)
C10 C 0.7179(3) 1.2671(4) 0.12202(13)
H8 H 0.7160 1.3573 0.1433
C11 C 0.6632(3) 1.1201(4) 0.12966(12)
C12 C 0.6057(3) 1.1042(4) 0.17272(13)
H9 H 0.5636 1.2071 0.1766
H10 H 0.6721 1.0844 0.2045
C13 C 0.5126(3) 0.9670(4) 0.16411(12)
H11 H 0.4870 0.9461 0.1952
H12 H 0.4375 0.9948 0.1364
C14 C 0.5971(3) 0.6024(4) 0.20593(12)
C15 C 0.7158(3) 0.6828(4) 0.23401(12)
C16 C 0.8235(3) 0.6611(4) 0.21947(14)
H13 H 0.8201 0.6052 0.1889
C17 C 0.9361(4) 0.7200(5) 0.24900(15)
H14 H 1.0104 0.7005 0.2396
C18 C 0.9402(4) 0.8071(5) 0.29223(14)
H15 H 1.0172 0.8496 0.3123
C19 C 0.8323(4) 0.8325(5) 0.30639(14)
H16 H 0.8349 0.8945 0.3358
C20 C 0.7216(3) 0.7682(4) 0.27801(13)
H17 H 0.6483 0.7823 0.2886
C21 C 0.2956(3) 0.6933(4) 0.13543(12)
C22 C 0.2854(3) 0.7505(4) 0.18174(13)
H18 H 0.3523 0.7341 0.2114
C23 C 0.1796(4) 0.8310(5) 0.18533(15)
H19 H 0.1755 0.8715 0.2171
C24 C 0.0807(4) 0.8525(4) 0.14322(16)
H20 H 0.0076 0.9067 0.1457
C25 C 0.0886(3) 0.7949(4) 0.09760(15)
H21 H 0.0200 0.8087 0.0684
C26 C 0.1955(3) 0.7166(4) 0.09333(13)
H22 H 0.1996 0.6788 0.0612
C27 C 0.3623(3) 0.3779(4) 0.06451(12)
C28 C 0.2314(3) 0.1662(4) 0.07913(14)
H23 H 0.2188 0.1072 0.1086
H24 H 0.2787 0.0948 0.0622
C29 C 0.1093(4) 0.2059(5) 0.04359(17)
H25 H 0.0621 0.1057 0.0329
H26 H 0.1220 0.2613 0.0139
H27 H 0.0629 0.2771 0.0604
loop_
_geom_bond_atom_site_label_1
_geom_bond_atom_site_label_2
_geom_bond_site_symmetry_1
_geom_bond_site_symmetry_2
Br1 C9 1_555 1_555
O1 C14 1_555 1_555
O2 C27 1_555 1_555
O3 C27 1_555 1_555
N1 N2 1_555 1_555
N2 C1 1_555 1_555
C1 H1 1_555 1_555
C2 C1 1_555 1_555
C3 C2 1_555 1_555
H2 C3 1_555 1_555
C4 C3 1_555 1_555
H3 C4 1_555 1_555
H4 C4 1_555 1_555
C5 N1 1_555 1_555
H5 C5 1_555 1_555
C6 C5 1_555 1_555
C7 C6 1_555 1_555
H6 C7 1_555 1_555
C8 C7 1_555 1_555
H7 C8 1_555 1_555
C9 C8 1_555 1_555
C10 C9 1_555 1_555
H8 C10 1_555 1_555
C11 C6 1_555 1_555
C12 C11 1_555 1_555
H9 C12 1_555 1_555
H10 C12 1_555 1_555
C13 N1 1_555 1_555
H11 C13 1_555 1_555
H12 C13 1_555 1_555
C14 N2 1_555 1_555
C15 C14 1_555 1_555
C16 C15 1_555 1_555
H13 C16 1_555 1_555
C17 C16 1_555 1_555
H14 C17 1_555 1_555
C18 C17 1_555 1_555
H15 C18 1_555 1_555
C19 C18 1_555 1_555
H16 C19 1_555 1_555
C20 C15 1_555 1_555
H17 C20 1_555 1_555
C21 C1 1_555 1_555
C22 C21 1_555 1_555
H18 C22 1_555 1_555
C23 C22 1_555 1_555
H19 C23 1_555 1_555
C24 C23 1_555 1_555
H20 C24 1_555 1_555
C25 C24 1_555 1_555
H21 C25 1_555 1_555
C26 C21 1_555 1_555
H22 C26 1_555 1_555
C27 C2 1_555 1_555
C28 O3 1_555 1_555
H23 C28 1_555 1_555
H24 C28 1_555 1_555
C29 C28 1_555 1_555
H25 C29 1_555 1_555
H26 C29 1_555 1_555
H27 C29 1_555 1_555
C4 C5 1_555 1_555
C10 C11 1_555 1_555
C12 C13 1_555 1_555
C19 C20 1_555 1_555
C25 C26 1_555 1_555

#END
