
#######################################################################
#
#                 Cambridge Crystallographic Data Centre
#                                CCDC 
#
#######################################################################
#
# If this CIF has been generated from an entry in the Cambridge 
# Structural Database, then it will include bibliographic, chemical, 
# crystal, experimental, refinement or atomic coordinate data resulting 
# from the CCDC's data processing and validation procedures.
#
#######################################################################

data_RARTAF
_chemical_formula_moiety         'C46 H60 O4 Si1,0.5(C7 H8)'
_chemical_name_systematic        
'27,28-Dimethylsilyl-p-t-butylcalix(4)arene toluene solvate'
_symmetry_cell_setting           triclinic
_symmetry_space_group_name_H-M   'P -1'
_symmetry_Int_Tables_number      2
_space_group_name_Hall           '-P 1'
loop_
_symmetry_equiv_pos_site_id
_symmetry_equiv_pos_as_xyz
1 x,y,z
2 -x,-y,-z
_cell_length_a                   9.368(2)
_cell_length_b                   13.559(2)
_cell_length_c                   18.919(4)
_cell_angle_alpha                71.01(1)
_cell_angle_beta                 78.31(2)
_cell_angle_gamma                81.30(4)
_cell_volume                     2215.72
_exptl_crystal_colour            colorless
_chemical_melting_point          195-197deg.C
_cell_formula_units_Z            2
loop_
_atom_site_label
_atom_site_type_symbol
_atom_site_fract_x
_atom_site_fract_y
_atom_site_fract_z
Si1 Si 0.1289(2) 0.8087(1) 0.6233(1)
O1 O 0.4242(4) 0.7689(2) 0.7915(2)
O2 O 0.1388(4) 0.7180(3) 0.8508(2)
O3 O 0.0179(3) 0.7207(2) 0.6781(2)
O4 O 0.2922(3) 0.7758(2) 0.6446(2)
C6 C 0.0616(5) 0.9321(3) 0.6432(3)
C7 C 0.1263(6) 0.8235(4) 0.5233(3)
C8 C 0.3927(5) 0.8715(3) 0.7511(3)
C9 C 0.4669(5) 0.9059(3) 0.6775(3)
C10 C 0.4402(5) 1.0094(4) 0.6366(3)
C11 C 0.3444(5) 1.0810(3) 0.6650(3)
C12 C 0.2743(5) 1.0421(4) 0.7381(3)
C13 C 0.2941(5) 0.9390(3) 0.7825(3)
C14 C 0.2055(5) 0.9025(4) 0.8608(3)
C15 C 0.0228(5) 0.7951(3) 0.8461(2)
C16 C 0.0525(5) 0.8862(3) 0.8565(2)
C17 C -0.0594(5) 0.9645(4) 0.8567(3)
C18 C -0.1982(5) 0.9568(4) 0.8449(3)
C19 C -0.2187(6) 0.8662(4) 0.8317(3)
C20 C -0.1127(5) 0.7844(4) 0.8324(3)
C21 C -0.1577(6) 0.6864(4) 0.8228(3)
C22 C 0.0451(5) 0.6269(3) 0.7322(3)
C23 C -0.0407(5) 0.6067(4) 0.8033(3)
C24 C -0.0152(6) 0.5106(4) 0.8568(3)
C25 C 0.0932(5) 0.4353(4) 0.8423(3)
C26 C 0.1763(5) 0.4587(4) 0.7713(3)
C27 C 0.1533(5) 0.5528(3) 0.7146(3)
C28 C 0.2476(5) 0.5729(4) 0.6379(3)
C29 C 0.4100(5) 0.7032(3) 0.6414(2)
C30 C 0.3937(5) 0.6059(3) 0.6366(2)
C31 C 0.5156(5) 0.5343(4) 0.6344(3)
C32 C 0.6544(5) 0.5561(3) 0.6373(3)
C33 C 0.6635(5) 0.6530(4) 0.6438(3)
C34 C 0.5457(5) 0.7288(3) 0.6449(3)
C35 C 0.5783(5) 0.8353(4) 0.6429(3)
C36 C 0.3174(6) 1.1933(3) 0.6171(3)
C37 C 0.2468(11) 1.2630(5) 0.6612(4)
C38 C 0.2200(10) 1.1988(5) 0.5621(4)
C39 C 0.4559(8) 1.2364(5) 0.5705(5)
C40 C -0.3213(6) 1.0440(4) 0.8446(4)
C41 C -0.3515(9) 1.0945(6) 0.7630(4)
C42 C -0.2899(8) 1.1240(6) 0.8752(6)
C43 C -0.4620(7) 0.9998(5) 0.8887(5)
C44 C 0.1169(6) 0.3324(4) 0.9047(3)
C45 C 0.1519(8) 0.3558(5) 0.9718(3)
C46 C -0.0201(8) 0.2766(5) 0.9295(4)
C47 C 0.2448(9) 0.2621(5) 0.8805(4)
C48 C 0.7858(5) 0.4750(4) 0.6368(3)
C49 C 0.8115(7) 0.4214(5) 0.7184(3)
C50 C 0.7653(6) 0.3940(5) 0.6015(4)
C51 C 0.9233(5) 0.5275(4) 0.5932(3)
H1 H -0.0353(5) 0.9535(3) 0.6311(3)
H2 H 0.1255(5) 0.9849(3) 0.6131(3)
H3 H 0.0592(5) 0.9228(3) 0.6960(3)
H4 H 0.0278(6) 0.8429(4) 0.5132(3)
H5 H 0.1620(6) 0.7584(4) 0.5133(3)
H6 H 0.1876(6) 0.8770(4) 0.4913(3)
H7 H 0.1574(11) 1.2363(5) 0.6915(4)
H8 H 0.2254(11) 1.3316(5) 0.6276(4)
H9 H 0.3110(11) 1.2668(5) 0.6937(4)
H10 H 0.2634(10) 1.1538(5) 0.5319(4)
H11 H 0.2078(10) 1.2696(5) 0.5297(4)
H12 H 0.1263(10) 1.1767(5) 0.5893(4)
H13 H 0.5038(8) 1.1914(5) 0.5410(5)
H14 H 0.5193(8) 1.2405(5) 0.6032(5)
H15 H 0.4335(8) 1.3051(5) 0.5372(5)
H16 H -0.3718(9) 1.0415(6) 0.7439(4)
H17 H -0.2672(9) 1.1277(6) 0.7317(4)
H18 H -0.4343(9) 1.1458(6) 0.7625(4)
H19 H -0.2002(8) 1.1526(6) 0.8472(6)
H20 H -0.2806(8) 1.0925(6) 0.9276(6)
H21 H -0.3685(8) 1.1789(6) 0.8706(6)
H22 H -0.4832(7) 0.9475(5) 0.8691(5)
H23 H -0.5402(7) 1.0549(5) 0.8841(5)
H24 H -0.4524(7) 0.9686(5) 0.9411(5)
H25 H 0.2393(8) 0.3915(5) 0.9567(3)
H26 H 0.1665(8) 0.2914(5) 0.9886(3)
H27 H 0.0720(8) 0.3993(5) 0.9901(3)
H28 H -0.1007(8) 0.3221(5) 0.9448(4)
H29 H -0.0071(8) 0.2148(5) 0.9714(4)
H30 H -0.0401(8) 0.2573(5) 0.8882(4)
H31 H 0.3315(9) 0.2985(5) 0.8648(4)
H32 H 0.2257(9) 0.2427(5) 0.8391(4)
H33 H 0.2585(9) 0.2002(5) 0.9223(4)
H34 H 0.8245(7) 0.4732(5) 0.7406(3)
H35 H 0.8975(7) 0.3729(5) 0.7187(3)
H36 H 0.7285(7) 0.3844(5) 0.7472(3)
H37 H 0.6787(6) 0.3599(5) 0.6283(4)
H38 H 0.8487(6) 0.3430(5) 0.6046(4)
H39 H 0.7553(6) 0.4276(5) 0.5494(4)
H40 H 0.9383(5) 0.5794(4) 0.6148(3)
H41 H 0.9125(5) 0.5603(4) 0.5411(3)
H42 H 1.0060(5) 0.4759(4) 0.5963(3)
H43 H 0.3447(49) 0.7463(34) 0.8153(25)
H44 H 0.1215(55) 0.6774(37) 0.8412(29)
H45 H 0.4888(47) 1.0311(32) 0.5882(25)
H46 H 0.2096(47) 1.0857(33) 0.7567(24)
H47 H 0.2568(47) 0.8395(35) 0.8901(25)
H48 H 0.1926(46) 0.9573(34) 0.8866(24)
H49 H -0.0345(45) 1.0242(33) 0.8649(23)
H50 H -0.3083(49) 0.8576(32) 0.8242(23)
H51 H -0.2168(48) 0.7135(33) 0.7813(26)
H52 H -0.2161(49) 0.6549(34) 0.8679(26)
H53 H -0.0828(47) 0.4985(31) 0.9029(25)
H54 H 0.2562(47) 0.4103(32) 0.7563(23)
H55 H 0.1976(47) 0.6241(34) 0.5999(25)
H56 H 0.2633(47) 0.5120(35) 0.6242(24)
H57 H 0.4960(45) 0.4727(33) 0.6297(23)
H58 H 0.7539(48) 0.6724(31) 0.6474(23)
H59 H 0.6120(46) 0.8769(33) 0.5871(26)
H60 H 0.6594(51) 0.8261(33) 0.6655(25)
C1 C 0.4703(20) 0.5242(4) 1.0282(2)
C2 C 0.4851(11) 0.5832(4) 0.9515(4)
C3 C 0.4792(17) 0.4677(10) 1.1043(3)
C4 C 0.4339(12) 0.5751(11) 1.0840(6)
C5 C 0.4453(17) 0.6339(6) 1.0073(7)
C1A C 0.5297(20) 0.4758(4) 0.9718(2)
C2A C 0.5149(11) 0.4168(4) 1.0485(4)
C3A C 0.5208(17) 0.5323(10) 0.8957(3)
C5A C 0.5547(17) 0.3661(6) 0.9927(7)
C4A C 0.5661(12) 0.4249(11) 0.9160(6)
loop_
_geom_bond_atom_site_label_1
_geom_bond_atom_site_label_2
_geom_bond_site_symmetry_1
_geom_bond_site_symmetry_2
C1 C2 1_555 1_555
C2 C5 1_555 1_555
C3 C1 1_555 1_555
C4 C1 1_555 1_555
C5 C1 1_555 1_555
Si1 O3 1_555 1_555
O1 C8 1_555 1_555
O2 C15 1_555 1_555
O3 C22 1_555 1_555
O4 Si1 1_555 1_555
C6 Si1 1_555 1_555
C7 Si1 1_555 1_555
C8 C9 1_555 1_555
C9 C10 1_555 1_555
C10 C11 1_555 1_555
C11 C12 1_555 1_555
C12 C13 1_555 1_555
C13 C8 1_555 1_555
C14 C13 1_555 1_555
C15 C16 1_555 1_555
C16 C14 1_555 1_555
C17 C16 1_555 1_555
C18 C17 1_555 1_555
C19 C18 1_555 1_555
C20 C15 1_555 1_555
C21 C20 1_555 1_555
C22 C23 1_555 1_555
C23 C21 1_555 1_555
C24 C23 1_555 1_555
C25 C24 1_555 1_555
C26 C25 1_555 1_555
C27 C22 1_555 1_555
C28 C27 1_555 1_555
C29 O4 1_555 1_555
C30 C28 1_555 1_555
C31 C30 1_555 1_555
C32 C31 1_555 1_555
C33 C32 1_555 1_555
C34 C29 1_555 1_555
C35 C9 1_555 1_555
C36 C11 1_555 1_555
C37 C36 1_555 1_555
C38 C36 1_555 1_555
C39 C36 1_555 1_555
C40 C18 1_555 1_555
C41 C40 1_555 1_555
C42 C40 1_555 1_555
C43 C40 1_555 1_555
C44 C25 1_555 1_555
C45 C44 1_555 1_555
C46 C44 1_555 1_555
C47 C44 1_555 1_555
C48 C32 1_555 1_555
C49 C48 1_555 1_555
C50 C48 1_555 1_555
C51 C48 1_555 1_555
H1 C6 1_555 1_555
H2 C6 1_555 1_555
H3 C6 1_555 1_555
H4 C7 1_555 1_555
H5 C7 1_555 1_555
H6 C7 1_555 1_555
H7 C37 1_555 1_555
H8 C37 1_555 1_555
H9 C37 1_555 1_555
H10 C38 1_555 1_555
H11 C38 1_555 1_555
H12 C38 1_555 1_555
H13 C39 1_555 1_555
H14 C39 1_555 1_555
H15 C39 1_555 1_555
H16 C41 1_555 1_555
H17 C41 1_555 1_555
H18 C41 1_555 1_555
H19 C42 1_555 1_555
H20 C42 1_555 1_555
H21 C42 1_555 1_555
H22 C43 1_555 1_555
H23 C43 1_555 1_555
H24 C43 1_555 1_555
H25 C45 1_555 1_555
H26 C45 1_555 1_555
H27 C45 1_555 1_555
H28 C46 1_555 1_555
H29 C46 1_555 1_555
H30 C46 1_555 1_555
H31 C47 1_555 1_555
H32 C47 1_555 1_555
H33 C47 1_555 1_555
H34 C49 1_555 1_555
H35 C49 1_555 1_555
H36 C49 1_555 1_555
H37 C50 1_555 1_555
H38 C50 1_555 1_555
H39 C50 1_555 1_555
H40 C51 1_555 1_555
H41 C51 1_555 1_555
H42 C51 1_555 1_555
H43 O1 1_555 1_555
H44 O2 1_555 1_555
H45 C10 1_555 1_555
H46 C12 1_555 1_555
H47 C14 1_555 1_555
H48 C14 1_555 1_555
H49 C17 1_555 1_555
H50 C19 1_555 1_555
H51 C21 1_555 1_555
H52 C21 1_555 1_555
H53 C24 1_555 1_555
H54 C26 1_555 1_555
H55 C28 1_555 1_555
H56 C28 1_555 1_555
H57 C31 1_555 1_555
H58 C33 1_555 1_555
H59 C35 1_555 1_555
H60 C35 1_555 1_555
C1A C1 1_555 1_555
C2A C1 1_555 1_555
C3A C2 1_555 1_555
C5A C1A 1_555 1_555
C4A C1A 1_555 1_555
C2 C1A 1_555 1_555
C3 C4 1_555 1_555
C3 C2A 1_555 1_555
C4 C5 1_555 1_555
C19 C20 1_555 1_555
C26 C27 1_555 1_555
C29 C30 1_555 1_555
C33 C34 1_555 1_555
C34 C35 1_555 1_555
C1A C2A 1_555 1_555
C1A C3A 1_555 1_555
C2A C5A 1_555 1_555
C3A C4A 1_555 1_555
C5A C4A 1_555 1_555

#END
