
#######################################################################
#
#                 Cambridge Crystallographic Data Centre
#                                CCDC 
#
#######################################################################
#
# If this CIF has been generated from an entry in the Cambridge 
# Structural Database, then it will include bibliographic, chemical, 
# crystal, experimental, refinement or atomic coordinate data resulting 
# from the CCDC's data processing and validation procedures.
#
#######################################################################

data_RARWIT01
_chemical_formula_moiety         
'6(C4 H12 N1 1+),H3 O1 1+,C3 H9 N1 O9 P3 3-,C3 H8 N1 O9 P3 4-,2(H2 O1)'
_chemical_name_systematic        
'hexakis(t-butylammonium) oxonium (trihydrogen (nitrilotris(methylene))tris(phosphonate)) (dihydrogen (nitrilotris(methylene))tris(phosphonate)) dihydrate'
_symmetry_cell_setting           triclinic
_symmetry_space_group_name_H-M   'P -1'
_symmetry_Int_Tables_number      2
_space_group_name_Hall           '-P 1'
loop_
_symmetry_equiv_pos_site_id
_symmetry_equiv_pos_as_xyz
1 x,y,z
2 -x,-y,-z
_cell_length_a                   11.420(7)
_cell_length_b                   11.647(7)
_cell_length_c                   11.790(7)
_cell_angle_alpha                104.083(8)
_cell_angle_beta                 99.682(5)
_cell_angle_gamma                103.120(8)
_cell_volume                     1439.31
_exptl_crystal_colour            colorless
_exptl_crystal_description       Prism
_cell_formula_units_Z            1
loop_
_atom_site_label
_atom_site_type_symbol
_atom_site_fract_x
_atom_site_fract_y
_atom_site_fract_z
O10 O 0.0000 0.5000 1.0000
O11 O 0.54742(19) 0.2697(2) 0.48938(19)
H9 H 0.523(3) 0.335(2) 0.525(3)
H10 H 0.6284(10) 0.302(3) 0.524(3)
C4 C 0.2947(2) 0.9992(2) 0.2016(2)
H11 H 0.3093 0.9574 0.1247
H12 H 0.3544 1.0810 0.2352
H13 H 0.2105 1.0079 0.1888
C5 C 0.31010(16) 0.92354(16) 0.28903(15)
C6 C 0.44086(18) 0.9092(2) 0.3118(2)
H14 H 0.4479 0.8578 0.3657
H15 H 0.5006 0.9906 0.3490
H16 H 0.4580 0.8702 0.2352
C7 C 0.2792(2) 0.98132(19) 0.40617(19)
H17 H 0.1957 0.9913 0.3892
H18 H 0.3391 1.0622 0.4465
H19 H 0.2830 0.9278 0.4585
N2 N 0.22066(13) 0.79698(13) 0.23305(13)
H20 H 0.1459 0.8039 0.2055
H21 H 0.2172 0.7567 0.2881
H22 H 0.2460 0.7556 0.1725
C8 C 0.6654(2) 0.3223(2) 0.2563(2)
H23 H 0.6229 0.3425 0.1876
H24 H 0.7261 0.3969 0.3116
H25 H 0.6048 0.2891 0.2983
C9 C 0.73132(17) 0.22632(17) 0.21180(16)
C10 C 0.6422(2) 0.1108(2) 0.1211(2)
H26 H 0.6880 0.0524 0.0923
H27 H 0.6005 0.1325 0.0530
H28 H 0.5804 0.0728 0.1595
C11 C 0.8029(2) 0.1965(2) 0.31642(18)
H29 H 0.8625 0.2721 0.3712
H30 H 0.8470 0.1372 0.2858
H31 H 0.7452 0.1608 0.3598
N3 N 0.82332(13) 0.28232(13) 0.14928(13)
H32 H 0.7837 0.3013 0.0878
H33 H 0.8770 0.3503 0.2008
H34 H 0.8637 0.2285 0.1221
C12 C 0.22463(18) 0.15384(17) 0.69395(17)
H35 H 0.1625 0.1088 0.7274
H36 H 0.3009 0.1957 0.7569
H37 H 0.2419 0.0959 0.6277
C13 C 0.17560(16) 0.24926(16) 0.64690(15)
C14 C 0.2715(2) 0.32601(18) 0.59945(18)
H38 H 0.3469 0.3672 0.6636
H39 H 0.2385 0.3881 0.5726
H40 H 0.2909 0.2722 0.5316
C15 C 0.0545(2) 0.1906(2) 0.55164(19)
H41 H 0.0232 0.2553 0.5284
H42 H -0.0064 0.1428 0.5843
H43 H 0.0686 0.1360 0.4809
N4 N 0.14923(13) 0.33476(13) 0.75154(12)
H44 H 0.1033 0.2907 0.7885
H45 H 0.2202 0.3807 0.8031
H46 H 0.1086 0.3834 0.7249
P1 P 0.35434(4) 0.56062(4) 0.05743(4)
P2 P 0.11467(4) 0.52116(4) 0.34649(4)
P3 P 0.06857(4) 0.18442(4) -0.00623(4)
O1 O 0.20862(12) 0.64573(11) 0.37549(11)
O2 O 0.09027(11) 0.48667(12) 0.46040(11)
O3 O -0.00612(11) 0.50829(11) 0.25860(11)
O4 O 0.26389(11) 0.63537(11) 0.04123(10)
O5 O 0.34714(10) 0.45896(11) -0.05396(10)
O6 O 0.48886(11) 0.65172(11) 0.10360(11)
H1 H 0.5410(16) 0.6127(18) 0.0881(19)
O7 O -0.01887(12) 0.14405(11) 0.06945(12)
O8 O 0.10929(13) 0.07303(11) -0.07635(12)
H2 H 0.076(2) 0.0038(12) -0.070(2)
O9 O 0.01807(11) 0.24750(11) -0.09361(11)
C1 C 0.17882(16) 0.39942(16) 0.27436(15)
H3 H 0.2541 0.4015 0.3314
H4 H 0.1178 0.3187 0.2592
C2 C 0.33245(15) 0.49916(16) 0.18245(15)
H5 H 0.3990 0.4603 0.2012
H6 H 0.3406 0.5683 0.2542
C3 C 0.21591(16) 0.28546(15) 0.08774(15)
H7 H 0.2495 0.2434 0.1437
H8 H 0.2743 0.2986 0.0357
N1 N 0.21142(13) 0.40741(13) 0.15918(12)
H47? H 0.0000 0.5000 0.5000
H48? H -0.017(4) 0.572(2) 1.020(5)
H49? H 0.007(5) 0.496(5) 0.926(2)
H50? H 0.0812(11) 0.529(4) 1.012(5)
loop_
_geom_bond_atom_site_label_1
_geom_bond_atom_site_label_2
_geom_bond_site_symmetry_1
_geom_bond_site_symmetry_2
P1 O4 1_555 1_555
P2 O1 1_555 1_555
P3 O7 1_555 1_555
O2 P2 1_555 1_555
O3 P2 1_555 1_555
O5 P1 1_555 1_555
O6 P1 1_555 1_555
H1 O6 1_555 1_555
O8 P3 1_555 1_555
H2 O8 1_555 1_555
O9 P3 1_555 1_555
C1 P2 1_555 1_555
H3 C1 1_555 1_555
H4 C1 1_555 1_555
C2 P1 1_555 1_555
H5 C2 1_555 1_555
H6 C2 1_555 1_555
C3 P3 1_555 1_555
H7 C3 1_555 1_555
H8 C3 1_555 1_555
N1 C1 1_555 1_555
O11 H9 1_555 1_555
H10 O11 1_555 1_555
C4 H11 1_555 1_555
H12 C4 1_555 1_555
H13 C4 1_555 1_555
C5 C4 1_555 1_555
C6 C5 1_555 1_555
H14 C6 1_555 1_555
H15 C6 1_555 1_555
H16 C6 1_555 1_555
C7 C5 1_555 1_555
H17 C7 1_555 1_555
H18 C7 1_555 1_555
H19 C7 1_555 1_555
N2 C5 1_555 1_555
H20 N2 1_555 1_555
H21 N2 1_555 1_555
H22 N2 1_555 1_555
C8 H23 1_555 1_555
H24 C8 1_555 1_555
H25 C8 1_555 1_555
C9 C8 1_555 1_555
C10 C9 1_555 1_555
H26 C10 1_555 1_555
H27 C10 1_555 1_555
H28 C10 1_555 1_555
C11 C9 1_555 1_555
H29 C11 1_555 1_555
H30 C11 1_555 1_555
H31 C11 1_555 1_555
N3 C9 1_555 1_555
H32 N3 1_555 1_555
H33 N3 1_555 1_555
H34 N3 1_555 1_555
C12 H35 1_555 1_555
H36 C12 1_555 1_555
H37 C12 1_555 1_555
C13 C12 1_555 1_555
C14 C13 1_555 1_555
H38 C14 1_555 1_555
H39 C14 1_555 1_555
H40 C14 1_555 1_555
C15 C13 1_555 1_555
H41 C15 1_555 1_555
H42 C15 1_555 1_555
H43 C15 1_555 1_555
N4 C13 1_555 1_555
H44 N4 1_555 1_555
H45 N4 1_555 1_555
H46 N4 1_555 1_555
C2 N1 1_555 1_555
C3 N1 1_555 1_555

#END
