
#######################################################################
#
#                 Cambridge Crystallographic Data Centre
#                                CCDC 
#
#######################################################################
#
# If this CIF has been generated from an entry in the Cambridge 
# Structural Database, then it will include bibliographic, chemical, 
# crystal, experimental, refinement or atomic coordinate data resulting 
# from the CCDC's data processing and validation procedures.
#
#######################################################################

data_RASHUR
_chemical_formula_moiety         'C24 H24 N4 O5,C2 H3 N1'
_chemical_name_systematic        
'ethyl 5-(((2-(2-hydroxyethyl)-1,3-dioxo-2,3-dihydro-1H-benzo[de]isoquinolin-6-yl)hydrazono)methyl)-2,4-dimethyl-1H-pyrrole-3-carboxylate acetonitrile solvate'
_symmetry_cell_setting           triclinic
_symmetry_space_group_name_H-M   'P -1'
_symmetry_Int_Tables_number      2
_space_group_name_Hall           '-P 1'
loop_
_symmetry_equiv_pos_site_id
_symmetry_equiv_pos_as_xyz
1 x,y,z
2 -x,-y,-z
_cell_length_a                   8.845(16)
_cell_length_b                   10.478(19)
_cell_length_c                   14.64(4)
_cell_angle_alpha                110.32(5)
_cell_angle_beta                 92.01(5)
_cell_angle_gamma                112.83(3)
_cell_volume                     1149.83
_exptl_crystal_colour            red
_exptl_crystal_description       plate
_cell_formula_units_Z            2
loop_
_atom_site_label
_atom_site_type_symbol
_atom_site_fract_x
_atom_site_fract_y
_atom_site_fract_z
C1 C 0.2449(8) -0.6034(7) 0.4108(5)
H1 H 0.3227 -0.6021 0.3656
H2 H 0.2478 -0.6699 0.4426
O1 O 0.0805(5) -0.6624(4) 0.3549(3)
H3 H 0.0134 -0.6677 0.3923
O2 O 0.0625(6) -0.3525(4) 0.4778(3)
N1 N 0.6902(6) 0.2616(5) 0.2625(4)
N2 N 0.3149(6) -0.3381(5) 0.4470(4)
N3 N 0.5415(6) 0.1837(5) 0.2849(4)
H4 H 0.4590 0.2064 0.2794
C2 C 0.3500(7) -0.1157(6) 0.3752(4)
C3 C 0.3691(8) -0.0020(6) 0.3412(5)
O3 O 1.2385(6) 0.7273(4) 0.0869(3)
O4 O 0.5695(6) -0.3210(5) 0.4184(4)
C4 C 0.2034(8) -0.1845(6) 0.4060(4)
C5 C 0.4836(7) -0.1550(6) 0.3838(4)
O5 O 1.0103(6) 0.7632(5) 0.0665(4)
C6 C 0.6293(8) -0.0819(6) 0.3584(5)
H5 H 0.7164 -0.1096 0.3628
C7 C 0.1862(8) -0.2950(6) 0.4458(5)
C8 C 0.5234(8) 0.0703(6) 0.3158(5)
N4 N 0.9823(6) 0.4431(5) 0.2151(4)
H6 H 1.0026 0.3873 0.2404
C9 C 0.2347(8) 0.0343(6) 0.3357(5)
H7 H 0.2435 0.1080 0.3120
C10 C 0.3004(8) -0.4510(6) 0.4870(5)
H8 H 0.2218 -0.4524 0.5316
H9 H 0.4083 -0.4220 0.5257
C11 C 0.8341(8) 0.4571(6) 0.2112(5)
C12 C 0.6511(8) 0.0323(6) 0.3263(5)
H10 H 0.7534 0.0832 0.3120
C13 C 1.0120(8) 0.5987(6) 0.1438(5)
C14 C 0.4638(8) -0.2740(6) 0.4164(5)
C15 C 0.0759(8) -0.1456(7) 0.3981(5)
H11 H -0.0236 -0.1945 0.4160
C16 C 0.6930(8) 0.3690(6) 0.2399(5)
H12 H 0.6000 0.3902 0.2424
C17 C 0.8513(8) 0.5554(6) 0.1673(5)
C18 C 1.0909(8) 0.5269(6) 0.1746(5)
C19 C 1.2547(8) 0.5260(7) 0.1685(5)
H13 H 1.2680 0.4630 0.1996
H14 H 1.3404 0.6267 0.2019
H15 H 1.2634 0.4877 0.1001
C20 C 1.3209(9) 0.8253(7) 0.0386(5)
H16 H 1.3259 0.9246 0.0737
H17 H 1.2614 0.7859 -0.0292
C21 C 1.0815(9) 0.7037(7) 0.0970(5)
C22 C 0.0906(9) -0.0348(7) 0.3640(5)
H18 H 0.0028 -0.0077 0.3604
C23 C 0.7202(9) 0.6053(7) 0.1470(6)
H19 H 0.6228 0.5585 0.1713
H20 H 0.6905 0.5765 0.0768
H21 H 0.7635 0.7127 0.1801
C24 C 1.4938(9) 0.8329(8) 0.0396(6)
H22 H 1.5541 0.8975 0.0075
H23 H 1.4868 0.7339 0.0049
H24 H 1.5512 0.8724 0.1070
C25 C 0.1175(12) 0.1327(8) 0.1410(6)
C26 C -0.0624(10) 0.0613(9) 0.1177(6)
H25 H -0.1010 0.0717 0.0597
H26 H -0.1051 0.1080 0.1727
H27 H -0.1011 -0.0436 0.1051
N5 N 0.2577(9) 0.1880(7) 0.1593(6)
loop_
_geom_bond_atom_site_label_1
_geom_bond_atom_site_label_2
_geom_bond_site_symmetry_1
_geom_bond_site_symmetry_2
C1 H1 1_555 1_555
H2 C1 1_555 1_555
O1 C1 1_555 1_555
H3 O1 1_555 1_555
O2 C7 1_555 1_555
N1 N3 1_555 1_555
N2 C7 1_555 1_555
N3 H4 1_555 1_555
C2 C3 1_555 1_555
C3 C8 1_555 1_555
O3 C20 1_555 1_555
O4 C14 1_555 1_555
C4 C2 1_555 1_555
C5 C2 1_555 1_555
O5 C21 1_555 1_555
C6 C5 1_555 1_555
H5 C6 1_555 1_555
C7 C4 1_555 1_555
C8 N3 1_555 1_555
N4 H6 1_555 1_555
C9 C3 1_555 1_555
H7 C9 1_555 1_555
C10 C1 1_555 1_555
H8 C10 1_555 1_555
H9 C10 1_555 1_555
C11 N4 1_555 1_555
C12 C6 1_555 1_555
H10 C12 1_555 1_555
C13 C17 1_555 1_555
C14 N2 1_555 1_555
C15 C4 1_555 1_555
H11 C15 1_555 1_555
C16 N1 1_555 1_555
H12 C16 1_555 1_555
C17 C11 1_555 1_555
C18 N4 1_555 1_555
C19 C18 1_555 1_555
H13 C19 1_555 1_555
H14 C19 1_555 1_555
H15 C19 1_555 1_555
C20 H16 1_555 1_555
H17 C20 1_555 1_555
C21 O3 1_555 1_555
C22 C9 1_555 1_555
H18 C22 1_555 1_555
C23 C17 1_555 1_555
H19 C23 1_555 1_555
H20 C23 1_555 1_555
H21 C23 1_555 1_555
C24 C20 1_555 1_555
H22 C24 1_555 1_555
H23 C24 1_555 1_555
H24 C24 1_555 1_555
C25 C26 1_555 1_555
C26 H25 1_555 1_555
H26 C26 1_555 1_555
H27 C26 1_555 1_555
N5 C25 1_555 1_555
N2 C10 1_555 1_555
C5 C14 1_555 1_555
C8 C12 1_555 1_555
C11 C16 1_555 1_555
C13 C18 1_555 1_555
C13 C21 1_555 1_555
C15 C22 1_555 1_555

#END
