
#######################################################################
#
#                 Cambridge Crystallographic Data Centre
#                                CCDC 
#
#######################################################################
#
# If this CIF has been generated from an entry in the Cambridge 
# Structural Database, then it will include bibliographic, chemical, 
# crystal, experimental, refinement or atomic coordinate data resulting 
# from the CCDC's data processing and validation procedures.
#
#######################################################################

data_RASJUT
_chemical_name_common            
'2-(acetylsulfanyl)-N,N,N-trimethylethanaminium 1,3,5(4,11)-tris(5,12-dimethoxytriptycena)cyclohexaphane  hexafluorophosphate unknown solvate'
_chemical_formula_moiety         'C69 H54 O6,C7 H16 N1 O1 S1 1+,F6 P1 1-'
_chemical_name_systematic        
'2-(acetylsulfanyl)-N,N,N-trimethylethanaminium dimethoxy-2,6-helic[6]arene  hexafluorophosphate unknown solvate'
_symmetry_cell_setting           monoclinic
_symmetry_space_group_name_H-M   'C 2/c'
_symmetry_Int_Tables_number      15
_space_group_name_Hall           '-C 2yn'
loop_
_symmetry_equiv_pos_site_id
_symmetry_equiv_pos_as_xyz
1 x,y,z
2 -x,y,1/2-z
3 1/2+x,1/2+y,z
4 1/2-x,1/2+y,1/2-z
5 -x,-y,-z
6 x,-y,1/2+z
7 1/2-x,1/2-y,-z
8 1/2+x,1/2-y,1/2+z
_cell_length_a                   42.204(8)
_cell_length_b                   14.938(3)
_cell_length_c                   25.555(5)
_cell_angle_alpha                90
_cell_angle_beta                 104.490(3)
_cell_angle_gamma                90
_cell_volume                     15598.5
_exptl_crystal_colour            colorless
_exptl_crystal_description       rod
_cell_formula_units_Z            8
loop_
_atom_site_label
_atom_site_type_symbol
_atom_site_fract_x
_atom_site_fract_y
_atom_site_fract_z
P1 P 0.63548(7) 0.85625(13) 0.34388(10)
F1 F 0.6630(2) 0.9102(6) 0.3393(4)
F2 F 0.64655(14) 0.7866(3) 0.3066(2)
F3 F 0.6141(3) 0.8973(9) 0.2969(3)
F4 F 0.6096(3) 0.7917(5) 0.3502(6)
F5 F 0.6581(2) 0.8183(7) 0.3953(3)
F6 F 0.62333(17) 0.9253(3) 0.3821(3)
O1 O 0.23511(7) 0.57728(18) 0.30390(11)
O2 O 0.41125(6) 0.49881(19) 0.16654(11)
O3 O 0.36135(7) 0.2098(2) 0.23354(12)
O4 O 0.46615(7) 0.6185(2) 0.47654(12)
O5 O 0.38128(7) 0.4001(2) 0.52800(12)
O6 O 0.31166(8) 0.85591(19) 0.29756(11)
C1 C 0.25009(9) 0.5876(3) 0.26216(14)
C2 C 0.26092(8) 0.6743(2) 0.25497(14)
C3 C 0.27645(9) 0.6896(2) 0.21296(14)
H1 H 0.2842 0.7477 0.2077
C4 C 0.28039(9) 0.6206(2) 0.17945(14)
C5 C 0.26859(8) 0.5352(2) 0.18608(15)
C6 C 0.25308(9) 0.5184(3) 0.22732(15)
H2 H 0.2447 0.4606 0.2315
C7 C 0.29765(9) 0.6251(3) 0.13309(14)
H3 H 0.3064 0.6859 0.1283
C8 C 0.32393(9) 0.5532(2) 0.14599(13)
C9 C 0.31170(9) 0.4678(2) 0.15212(14)
C10 C 0.27477(9) 0.4661(2) 0.14584(14)
H4 H 0.2659 0.4053 0.1505
C11 C 0.26023(9) 0.5075(3) 0.09004(15)
C12 C 0.27232(10) 0.5917(3) 0.08300(14)
C13 C 0.26183(11) 0.6359(3) 0.03469(16)
H5 H 0.2700 0.6939 0.0301
C14 C 0.23892(13) 0.5949(4) -0.00783(18)
H6 H 0.2320 0.6245 -0.0417
C15 C 0.22656(13) 0.5126(4) -0.00082(19)
H7 H 0.2107 0.4861 -0.0297
C16 C 0.23696(10) 0.4665(3) 0.04858(17)
H8 H 0.2284 0.4092 0.0535
C17 C 0.35734(9) 0.5662(3) 0.15150(14)
H9 H 0.3658 0.6244 0.1487
C18 C 0.37802(9) 0.4919(3) 0.16123(14)
C19 C 0.36634(9) 0.4051(2) 0.16633(13)
C20 C 0.33305(9) 0.3952(2) 0.16241(13)
H10 H 0.3247 0.3375 0.1669
C21 C 0.38881(10) 0.3262(3) 0.17338(14)
H11 H 0.4060 0.3377 0.1541
H12 H 0.3763 0.2730 0.1567
C22 C 0.40505(9) 0.3059(3) 0.23279(14)
C23 C 0.39034(9) 0.2472(3) 0.26215(16)
C24 C 0.40466(10) 0.2279(3) 0.31557(16)
H13 H 0.3949 0.1854 0.3344
C25 C 0.43307(9) 0.2706(3) 0.34138(15)
C26 C 0.44757(9) 0.3313(3) 0.31333(15)
C27 C 0.43417(9) 0.3492(3) 0.25929(15)
H14 H 0.4445 0.3901 0.2404
C28 C 0.45191(10) 0.2607(3) 0.40099(16)
H15 H 0.4413 0.2173 0.4212
C29 C 0.48648(10) 0.2339(3) 0.40066(15)
C30 C 0.50107(10) 0.2956(3) 0.37179(15)
C31 C 0.47913(9) 0.3726(3) 0.34887(15)
H16 H 0.4897 0.4160 0.3287
C32 C 0.46910(9) 0.4152(3) 0.39628(14)
C33 C 0.45425(9) 0.3557(3) 0.42488(15)
C34 C 0.53312(10) 0.2817(3) 0.36880(17)
H17 H 0.5432 0.3233 0.3499
C35 C 0.55009(12) 0.2093(4) 0.3926(2)
H18 H 0.5721 0.2007 0.3906
C36 C 0.53554(13) 0.1475(4) 0.4199(2)
H19 H 0.5475 0.0962 0.4357
C37 C 0.50349(12) 0.1599(3) 0.42439(18)
H20 H 0.4937 0.1181 0.4435
C38 C 0.47360(9) 0.5042(3) 0.41266(15)
H21 H 0.4837 0.5454 0.3936
C39 C 0.46282(9) 0.5323(3) 0.45827(16)
C40 C 0.44800(9) 0.4720(3) 0.48719(15)
C41 C 0.44350(9) 0.3841(3) 0.46866(16)
H22 H 0.4328 0.3428 0.4867
C42 C 0.43786(10) 0.5026(3) 0.53616(16)
H23 H 0.4539 0.5471 0.5556
H24 H 0.4384 0.4508 0.5605
C43 C 0.40386(10) 0.5442(3) 0.52387(15)
C44 C 0.37590(10) 0.4916(3) 0.52118(15)
C45 C 0.34449(10) 0.5282(3) 0.51086(15)
H25 H 0.3259 0.4916 0.5094
C46 C 0.34138(9) 0.6209(3) 0.50269(14)
C47 C 0.36866(9) 0.6738(3) 0.50360(14)
C48 C 0.39965(9) 0.6359(3) 0.51552(14)
H26 H 0.4182 0.6730 0.5180
C49 C 0.36025(9) 0.7724(3) 0.49213(15)
H27 H 0.3798 0.8106 0.4925
C50 C 0.34205(9) 0.8004(3) 0.53402(14)
C51 C 0.31462(9) 0.7467(3) 0.53324(14)
C52 C 0.30883(9) 0.6732(3) 0.49092(14)
H28 H 0.2893 0.6351 0.4905
C53 C 0.35103(10) 0.8679(3) 0.57103(15)
H29 H 0.3698 0.9034 0.5717
C54 C 0.33196(10) 0.8839(3) 0.60788(16)
H30 H 0.3378 0.9309 0.6335
C55 C 0.30485(10) 0.8320(3) 0.60718(15)
H31 H 0.2923 0.8432 0.6326
C56 C 0.29575(10) 0.7636(3) 0.56972(15)
H32 H 0.2768 0.7287 0.5690
C57 C 0.33466(9) 0.7729(3) 0.43762(14)
C58 C 0.30736(9) 0.7203(2) 0.43725(13)
C59 C 0.28248(9) 0.7121(3) 0.38982(14)
H33 H 0.2644 0.6742 0.3895
C60 C 0.28366(9) 0.7580(2) 0.34353(15)
C61 C 0.31153(10) 0.8112(3) 0.34534(15)
C62 C 0.33678(10) 0.8201(3) 0.39224(15)
H34 H 0.3550 0.8578 0.3929
C63 C 0.25645(10) 0.7504(3) 0.29246(15)
H35 H 0.2549 0.8076 0.2724
H36 H 0.2355 0.7414 0.3025
C64 C 0.23169(14) 0.4885(3) 0.3225(2)
H37 H 0.2155 0.4559 0.2949
H38 H 0.2244 0.4912 0.3560
H39 H 0.2528 0.4576 0.3293
C65 C 0.42497(11) 0.5854(3) 0.1659(2)
H40 H 0.4143 0.6157 0.1320
H41 H 0.4485 0.5801 0.1687
H42 H 0.4216 0.6203 0.1965
C66 C 0.34873(14) 0.1365(4) 0.2577(2)
H43 H 0.3277 0.1178 0.2342
H44 H 0.3456 0.1549 0.2929
H45 H 0.3642 0.0864 0.2626
C67 C 0.48050(13) 0.6826(3) 0.4494(2)
H46 H 0.4667 0.6909 0.4127
H47 H 0.5023 0.6620 0.4477
H48 H 0.4825 0.7396 0.4690
C68 C 0.35409(13) 0.3433(3) 0.5195(2)
H49 H 0.3400 0.3534 0.4833
H50 H 0.3418 0.3558 0.5466
H51 H 0.3615 0.2809 0.5229
C69 C 0.33911(16) 0.9110(4) 0.2980(2)
H52 H 0.3364 0.9391 0.2625
H53 H 0.3590 0.8745 0.3062
H54 H 0.3409 0.9575 0.3256
S1 S 0.30346(12) 0.3186(3) 0.3342(2)
O7 O 0.3563(3) 0.2513(8) 0.3962(5)
N1 N 0.36400(14) 0.5348(4) 0.3331(2)
C70 C 0.3942(4) 0.5089(10) 0.3142(7)
H55 H 0.4052 0.4582 0.3356
H56 H 0.4093 0.5600 0.3188
H57 H 0.3877 0.4920 0.2759
C71 C 0.3517(5) 0.6162(12) 0.2930(8)
H58 H 0.3317 0.6415 0.3001
H59 H 0.3470 0.5949 0.2556
H60 H 0.3687 0.6624 0.2987
C72 C 0.3776(2) 0.5989(6) 0.3803(4)
H61 H 0.3876 0.5642 0.4129
H62 H 0.3598 0.6357 0.3870
H63 H 0.3942 0.6377 0.3713
C73 C 0.3452(4) 0.4545(10) 0.3453(6)
H64 H 0.3255 0.4797 0.3543
H65 H 0.3589 0.4297 0.3795
C74 C 0.3327(2) 0.3706(7) 0.3088(5)
H66 H 0.3510 0.3290 0.3093
H67 H 0.3232 0.3895 0.2710
C75 C 0.3273(3) 0.2442(11) 0.3836(7)
C76 C 0.3055(4) 0.1676(10) 0.3943(7)
H68 H 0.3186 0.1260 0.4207
H69 H 0.2961 0.1357 0.3605
H70 H 0.2878 0.1921 0.4086
loop_
_geom_bond_atom_site_label_1
_geom_bond_atom_site_label_2
_geom_bond_site_symmetry_1
_geom_bond_site_symmetry_2
P1 F1 1_555 1_555
F2 P1 1_555 1_555
F3 P1 1_555 1_555
F4 P1 1_555 1_555
F5 P1 1_555 1_555
F6 P1 1_555 1_555
O1 C1 1_555 1_555
O2 C18 1_555 1_555
O3 C23 1_555 1_555
O4 C39 1_555 1_555
O5 C44 1_555 1_555
O6 C61 1_555 1_555
C1 C2 1_555 1_555
C2 C3 1_555 1_555
C3 H1 1_555 1_555
C4 C3 1_555 1_555
C5 C4 1_555 1_555
C6 C1 1_555 1_555
H2 C6 1_555 1_555
C7 C4 1_555 1_555
H3 C7 1_555 1_555
C8 C7 1_555 1_555
C9 C8 1_555 1_555
C10 C5 1_555 1_555
H4 C10 1_555 1_555
C11 C10 1_555 1_555
C12 C7 1_555 1_555
C13 C12 1_555 1_555
H5 C13 1_555 1_555
C14 C13 1_555 1_555
H6 C14 1_555 1_555
C15 C14 1_555 1_555
H7 C15 1_555 1_555
C16 C11 1_555 1_555
H8 C16 1_555 1_555
C17 C8 1_555 1_555
H9 C17 1_555 1_555
C18 C17 1_555 1_555
C19 C18 1_555 1_555
C20 C9 1_555 1_555
H10 C20 1_555 1_555
C21 C19 1_555 1_555
H11 C21 1_555 1_555
H12 C21 1_555 1_555
C22 C21 1_555 1_555
C23 C22 1_555 1_555
C24 C23 1_555 1_555
H13 C24 1_555 1_555
C25 C24 1_555 1_555
C26 C25 1_555 1_555
C27 C22 1_555 1_555
H14 C27 1_555 1_555
C28 C25 1_555 1_555
H15 C28 1_555 1_555
C29 C28 1_555 1_555
C30 C29 1_555 1_555
C31 C26 1_555 1_555
H16 C31 1_555 1_555
C32 C31 1_555 1_555
C33 C28 1_555 1_555
C34 C30 1_555 1_555
H17 C34 1_555 1_555
C35 C34 1_555 1_555
H18 C35 1_555 1_555
C36 C35 1_555 1_555
H19 C36 1_555 1_555
C37 C29 1_555 1_555
H20 C37 1_555 1_555
C38 C32 1_555 1_555
H21 C38 1_555 1_555
C39 C38 1_555 1_555
C40 C39 1_555 1_555
C41 C33 1_555 1_555
H22 C41 1_555 1_555
C42 C40 1_555 1_555
H23 C42 1_555 1_555
H24 C42 1_555 1_555
C43 C42 1_555 1_555
C44 C43 1_555 1_555
C45 C44 1_555 1_555
H25 C45 1_555 1_555
C46 C45 1_555 1_555
C47 C46 1_555 1_555
C48 C43 1_555 1_555
H26 C48 1_555 1_555
C49 C47 1_555 1_555
H27 C49 1_555 1_555
C50 C49 1_555 1_555
C51 C50 1_555 1_555
C52 C46 1_555 1_555
H28 C52 1_555 1_555
C53 C50 1_555 1_555
H29 C53 1_555 1_555
C54 C53 1_555 1_555
H30 C54 1_555 1_555
C55 C54 1_555 1_555
H31 C55 1_555 1_555
C56 C51 1_555 1_555
H32 C56 1_555 1_555
C57 C49 1_555 1_555
C58 C52 1_555 1_555
C59 C58 1_555 1_555
H33 C59 1_555 1_555
C60 C59 1_555 1_555
C61 C60 1_555 1_555
C62 C57 1_555 1_555
H34 C62 1_555 1_555
C63 C2 1_555 1_555
H35 C63 1_555 1_555
H36 C63 1_555 1_555
C64 O1 1_555 1_555
H37 C64 1_555 1_555
H38 C64 1_555 1_555
H39 C64 1_555 1_555
C65 O2 1_555 1_555
H40 C65 1_555 1_555
H41 C65 1_555 1_555
H42 C65 1_555 1_555
C66 O3 1_555 1_555
H43 C66 1_555 1_555
H44 C66 1_555 1_555
H45 C66 1_555 1_555
C67 O4 1_555 1_555
H46 C67 1_555 1_555
H47 C67 1_555 1_555
H48 C67 1_555 1_555
C68 O5 1_555 1_555
H49 C68 1_555 1_555
H50 C68 1_555 1_555
H51 C68 1_555 1_555
C69 O6 1_555 1_555
H52 C69 1_555 1_555
H53 C69 1_555 1_555
H54 C69 1_555 1_555
S1 C74 1_555 1_555
O7 C75 1_555 1_555
N1 C70 1_555 1_555
C70 H55 1_555 1_555
H56 C70 1_555 1_555
H57 C70 1_555 1_555
C71 N1 1_555 1_555
H58 C71 1_555 1_555
H59 C71 1_555 1_555
H60 C71 1_555 1_555
C72 N1 1_555 1_555
H61 C72 1_555 1_555
H62 C72 1_555 1_555
H63 C72 1_555 1_555
C73 N1 1_555 1_555
H64 C73 1_555 1_555
H65 C73 1_555 1_555
C74 C73 1_555 1_555
H66 C74 1_555 1_555
H67 C74 1_555 1_555
C75 S1 1_555 1_555
C76 C75 1_555 1_555
H68 C76 1_555 1_555
H69 C76 1_555 1_555
H70 C76 1_555 1_555
C5 C6 1_555 1_555
C9 C10 1_555 1_555
C11 C12 1_555 1_555
C15 C16 1_555 1_555
C19 C20 1_555 1_555
C26 C27 1_555 1_555
C30 C31 1_555 1_555
C32 C33 1_555 1_555
C36 C37 1_555 1_555
C40 C41 1_555 1_555
C47 C48 1_555 1_555
C51 C52 1_555 1_555
C55 C56 1_555 1_555
C57 C58 1_555 1_555
C60 C63 1_555 1_555
C61 C62 1_555 1_555

#END
