
#######################################################################
#
#                 Cambridge Crystallographic Data Centre
#                                CCDC 
#
#######################################################################
#
# If this CIF has been generated from an entry in the Cambridge 
# Structural Database, then it will include bibliographic, chemical, 
# crystal, experimental, refinement or atomic coordinate data resulting 
# from the CCDC's data processing and validation procedures.
#
#######################################################################

data_RASJON
_chemical_name_common            'dimethoxy-2,6-helic[6]arene unknown solvate'
_chemical_formula_moiety         'C69 H54 O6'
_chemical_name_systematic        
'1,3,5(4,11)-tris(5,12-dimethoxytriptycena)cyclohexaphane unknown solvate'
_symmetry_cell_setting           monoclinic
_symmetry_space_group_name_H-M   'P 21/n'
_symmetry_Int_Tables_number      14
_space_group_name_Hall           '-P 2yn'
loop_
_symmetry_equiv_pos_site_id
_symmetry_equiv_pos_as_xyz
1 x,y,z
2 1/2-x,1/2+y,1/2-z
3 -x,-y,-z
4 1/2+x,1/2-y,1/2+z
_cell_length_a                   20.925(4)
_cell_length_b                   12.251(3)
_cell_length_c                   25.897(5)
_cell_angle_alpha                90
_cell_angle_beta                 105.59(3)
_cell_angle_gamma                90
_cell_volume                     6394.51
_exptl_crystal_colour            colorless
_exptl_crystal_description       Plate
_cell_formula_units_Z            4
loop_
_atom_site_label
_atom_site_type_symbol
_atom_site_fract_x
_atom_site_fract_y
_atom_site_fract_z
O1 O 0.28427(10) -0.07322(16) -0.12371(8)
O2 O 0.29854(10) 0.04062(14) 0.22888(8)
O3 O 0.08944(10) -0.13909(15) 0.10243(8)
O4 O 0.21791(10) 0.55666(15) 0.10548(8)
O5 O 0.04533(10) 0.41967(16) -0.07675(8)
O6 O 0.47365(9) 0.19799(15) -0.01032(8)
C1 C 0.22434(17) -0.1303(3) -0.14390(14)
H1 H 0.2070 -0.1152 -0.1823
H2 H 0.1920 -0.1066 -0.1250
H3 H 0.2323 -0.2088 -0.1385
C2 C 0.31582(13) -0.0861(2) -0.07031(12)
C3 C 0.37256(14) -0.0231(2) -0.05031(12)
C4 C 0.40458(13) -0.0295(2) 0.00448(11)
H4 H 0.4423 0.0151 0.0188
C5 C 0.38293(14) -0.0991(2) 0.03853(12)
C6 C 0.32793(14) -0.1661(2) 0.01722(12)
C7 C 0.29358(14) -0.1594(2) -0.03737(12)
H5 H 0.2558 -0.2039 -0.0517
C8 C 0.41315(14) -0.1174(2) 0.09791(12)
H6 H 0.4523 -0.0694 0.1133
C9 C 0.43011(14) -0.2391(2) 0.10362(12)
C10 C 0.49202(16) -0.2836(3) 0.12764(13)
H7 H 0.5288 -0.2381 0.1435
C11 C 0.49875(19) -0.3974(3) 0.12789(14)
H8 H 0.5407 -0.4297 0.1440
C12 C 0.4449(2) -0.4631(3) 0.10496(15)
H9 H 0.4505 -0.5401 0.1050
C13 C 0.38353(17) -0.4189(2) 0.08215(13)
H10 H 0.3467 -0.4648 0.0669
C14 C 0.37589(15) -0.3065(2) 0.08158(12)
C15 C 0.31216(14) -0.2421(2) 0.05813(11)
H11 H 0.2729 -0.2899 0.0428
C16 C 0.30368(14) -0.1693(2) 0.10427(11)
C17 C 0.24971(14) -0.1678(2) 0.12631(11)
H12 H 0.2130 -0.2147 0.1121
C18 C 0.24892(14) -0.0991(2) 0.16856(12)
C19 C 0.30266(14) -0.0279(2) 0.18754(11)
C20 C 0.35674(14) -0.0291(2) 0.16599(12)
H13 H 0.3929 0.0192 0.1792
C21 C 0.35739(14) -0.1020(2) 0.12475(12)
C22 C 0.35540(18) 0.1083(3) 0.25158(15)
H14 H 0.3617 0.1598 0.2244
H15 H 0.3950 0.0623 0.2636
H16 H 0.3483 0.1488 0.2822
C23 C 0.19119(14) -0.1013(2) 0.19436(12)
H17 H 0.1701 -0.1743 0.1891
H18 H 0.2083 -0.0886 0.2334
C24 C 0.0419(2) -0.1633(3) 0.05369(15)
H19 H 0.0460 -0.1109 0.0262
H20 H -0.0027 -0.1584 0.0589
H21 H 0.0494 -0.2374 0.0422
C25 C 0.09055(14) -0.0339(2) 0.12237(12)
C26 C 0.13987(14) -0.0152(2) 0.17039(11)
C27 C 0.14142(14) 0.0870(2) 0.19414(11)
H22 H 0.1731 0.1007 0.2274
C28 C 0.09861(13) 0.1681(2) 0.17083(11)
C29 C 0.05131(13) 0.1496(2) 0.12203(11)
C30 C 0.04685(14) 0.0475(2) 0.09775(12)
H23 H 0.0144 0.0338 0.0649
C31 C 0.01105(14) 0.2519(2) 0.09894(11)
H24 H -0.0222 0.2389 0.0637
C32 C -0.01987(14) 0.2893(2) 0.14297(12)
C33 C -0.08657(15) 0.3084(2) 0.13728(13)
H25 H -0.1179 0.2967 0.1036
C34 C -0.10762(16) 0.3447(2) 0.18075(14)
H26 H -0.1533 0.3595 0.1766
C35 C -0.06170(16) 0.3595(2) 0.23076(14)
H27 H -0.0762 0.3817 0.2609
C36 C 0.00528(15) 0.3415(2) 0.23582(13)
H28 H 0.0368 0.3527 0.2694
C37 C 0.02629(14) 0.3075(2) 0.19260(12)
C38 C 0.09698(14) 0.2854(2) 0.19098(11)
H29 H 0.1302 0.2989 0.2261
C39 C 0.10918(13) 0.3551(2) 0.14535(11)
C40 C 0.06285(13) 0.3381(2) 0.09635(11)
C41 C 0.06742(14) 0.3984(2) 0.05220(12)
H30 H 0.0353 0.3877 0.0188
C42 C 0.11839(13) 0.4751(2) 0.05561(11)
C43 C 0.16636(14) 0.4855(2) 0.10460(11)
C44 C 0.16155(13) 0.4262(2) 0.14971(11)
H31 H 0.1941 0.4348 0.1830
C45 C 0.26836(14) 0.5632(2) 0.15522(12)
H32 H 0.3027 0.6149 0.1517
H33 H 0.2883 0.4910 0.1646
H34 H 0.2487 0.5882 0.1835
C46 C 0.11842(14) 0.5470(2) 0.00818(11)
H35 H 0.1429 0.6147 0.0219
H36 H 0.0720 0.5679 -0.0094
C47 C 0.00022(15) 0.3942(3) -0.12685(13)
H37 H 0.0069 0.4448 -0.1542
H38 H -0.0454 0.4010 -0.1240
H39 H 0.0079 0.3193 -0.1370
C48 C 0.11074(14) 0.4362(2) -0.07580(11)
C49 C 0.14817(13) 0.4992(2) -0.03425(11)
C50 C 0.21362(13) 0.5221(2) -0.03371(11)
H40 H 0.2400 0.5656 -0.0056
C51 C 0.24124(14) 0.4833(2) -0.07299(11)
C52 C 0.20297(14) 0.4158(2) -0.11328(11)
C53 C 0.13816(14) 0.3934(2) -0.11585(12)
H41 H 0.1120 0.3499 -0.1440
C54 C 0.24233(14) 0.3754(2) -0.15149(12)
H42 H 0.2156 0.3265 -0.1802
C55 C 0.26789(15) 0.4759(2) -0.17402(12)
C56 C 0.25876(17) 0.5031(3) -0.22748(13)
H43 H 0.2318 0.4588 -0.2549
C57 C 0.2894(2) 0.5961(3) -0.24077(17)
H44 H 0.2854 0.6131 -0.2773
C58 C 0.3259(2) 0.6639(3) -0.20050(16)
H45 H 0.3451 0.7287 -0.2098
C59 C 0.33459(17) 0.6380(3) -0.14660(15)
H46 H 0.3599 0.6844 -0.1193
C60 C 0.30584(14) 0.5437(2) -0.13333(12)
C61 C 0.31145(14) 0.5008(2) -0.07684(11)
H47 H 0.3383 0.5492 -0.0480
C62 C 0.33992(14) 0.3872(2) -0.07584(11)
C63 C 0.39770(13) 0.3497(2) -0.03963(11)
H48 H 0.4237 0.3967 -0.0129
C64 C 0.41640(13) 0.2413(2) -0.04361(11)
C65 C 0.37933(13) 0.1714(2) -0.08214(11)
C66 C 0.32201(14) 0.2112(2) -0.11888(11)
H49 H 0.2966 0.1646 -0.1460
C67 C 0.30240(14) 0.3185(2) -0.11572(11)
C68 C 0.52007(15) 0.2721(3) 0.02177(14)
H50 H 0.5304 0.3296 -0.0010
H51 H 0.5608 0.2328 0.0397
H52 H 0.5010 0.3049 0.0488
C69 C 0.39946(14) 0.0532(2) -0.08616(12)
H53 H 0.4485 0.0483 -0.0760
H54 H 0.3830 0.0288 -0.1238
loop_
_geom_bond_atom_site_label_1
_geom_bond_atom_site_label_2
_geom_bond_site_symmetry_1
_geom_bond_site_symmetry_2
O1 C1 1_555 1_555
O2 C19 1_555 1_555
O3 C24 1_555 1_555
O4 C43 1_555 1_555
O5 C47 1_555 1_555
O6 C64 1_555 1_555
C1 H1 1_555 1_555
H2 C1 1_555 1_555
H3 C1 1_555 1_555
C2 O1 1_555 1_555
C3 C2 1_555 1_555
C4 C3 1_555 1_555
H4 C4 1_555 1_555
C5 C4 1_555 1_555
C6 C5 1_555 1_555
C7 C2 1_555 1_555
H5 C7 1_555 1_555
C8 C5 1_555 1_555
H6 C8 1_555 1_555
C9 C8 1_555 1_555
C10 C9 1_555 1_555
H7 C10 1_555 1_555
C11 C10 1_555 1_555
H8 C11 1_555 1_555
C12 C11 1_555 1_555
H9 C12 1_555 1_555
C13 C12 1_555 1_555
H10 C13 1_555 1_555
C14 C9 1_555 1_555
C15 C6 1_555 1_555
H11 C15 1_555 1_555
C16 C15 1_555 1_555
C17 C16 1_555 1_555
H12 C17 1_555 1_555
C18 C17 1_555 1_555
C19 C18 1_555 1_555
C20 C19 1_555 1_555
H13 C20 1_555 1_555
C21 C8 1_555 1_555
C22 O2 1_555 1_555
H14 C22 1_555 1_555
H15 C22 1_555 1_555
H16 C22 1_555 1_555
C23 C18 1_555 1_555
H17 C23 1_555 1_555
H18 C23 1_555 1_555
C24 H19 1_555 1_555
H20 C24 1_555 1_555
H21 C24 1_555 1_555
C25 O3 1_555 1_555
C26 C23 1_555 1_555
C27 C26 1_555 1_555
H22 C27 1_555 1_555
C28 C27 1_555 1_555
C29 C28 1_555 1_555
C30 C25 1_555 1_555
H23 C30 1_555 1_555
C31 C29 1_555 1_555
H24 C31 1_555 1_555
C32 C31 1_555 1_555
C33 C32 1_555 1_555
H25 C33 1_555 1_555
C34 C33 1_555 1_555
H26 C34 1_555 1_555
C35 C34 1_555 1_555
H27 C35 1_555 1_555
C36 C35 1_555 1_555
H28 C36 1_555 1_555
C37 C32 1_555 1_555
C38 C28 1_555 1_555
H29 C38 1_555 1_555
C39 C38 1_555 1_555
C40 C31 1_555 1_555
C41 C40 1_555 1_555
H30 C41 1_555 1_555
C42 C41 1_555 1_555
C43 C42 1_555 1_555
C44 C39 1_555 1_555
H31 C44 1_555 1_555
C45 O4 1_555 1_555
H32 C45 1_555 1_555
H33 C45 1_555 1_555
H34 C45 1_555 1_555
C46 C42 1_555 1_555
H35 C46 1_555 1_555
H36 C46 1_555 1_555
C47 H37 1_555 1_555
H38 C47 1_555 1_555
H39 C47 1_555 1_555
C48 O5 1_555 1_555
C49 C46 1_555 1_555
C50 C49 1_555 1_555
H40 C50 1_555 1_555
C51 C50 1_555 1_555
C52 C51 1_555 1_555
C53 C48 1_555 1_555
H41 C53 1_555 1_555
C54 C52 1_555 1_555
H42 C54 1_555 1_555
C55 C54 1_555 1_555
C56 C55 1_555 1_555
H43 C56 1_555 1_555
C57 C56 1_555 1_555
H44 C57 1_555 1_555
C58 C57 1_555 1_555
H45 C58 1_555 1_555
C59 C58 1_555 1_555
H46 C59 1_555 1_555
C60 C55 1_555 1_555
C61 C51 1_555 1_555
H47 C61 1_555 1_555
C62 C61 1_555 1_555
C63 C62 1_555 1_555
H48 C63 1_555 1_555
C64 C63 1_555 1_555
C65 C64 1_555 1_555
C66 C65 1_555 1_555
H49 C66 1_555 1_555
C67 C54 1_555 1_555
C68 O6 1_555 1_555
H50 C68 1_555 1_555
H51 C68 1_555 1_555
H52 C68 1_555 1_555
C69 C3 1_555 1_555
H53 C69 1_555 1_555
H54 C69 1_555 1_555
C6 C7 1_555 1_555
C13 C14 1_555 1_555
C14 C15 1_555 1_555
C16 C21 1_555 1_555
C20 C21 1_555 1_555
C25 C26 1_555 1_555
C29 C30 1_555 1_555
C36 C37 1_555 1_555
C37 C38 1_555 1_555
C39 C40 1_555 1_555
C43 C44 1_555 1_555
C48 C49 1_555 1_555
C52 C53 1_555 1_555
C59 C60 1_555 1_555
C60 C61 1_555 1_555
C62 C67 1_555 1_555
C65 C69 1_555 1_555
C66 C67 1_555 1_555

#END
