
#######################################################################
#
#                 Cambridge Crystallographic Data Centre
#                                CCDC 
#
#######################################################################
#
# If this CIF has been generated from an entry in the Cambridge 
# Structural Database, then it will include bibliographic, chemical, 
# crystal, experimental, refinement or atomic coordinate data resulting 
# from the CCDC's data processing and validation procedures.
#
#######################################################################

data_RASPEG
_chemical_formula_moiety         
'C28 H40 Na1 O10 1+,C28 H40 Na1 O10 1+,C9 H2 N4 S4 2-'
_chemical_name_systematic        
'bis(2,3,5,6,8,9,11,12-Octahydro-1,4,7,10,13-pentaoxabenzo(b)cyclopentadecene)-sodium 1,1,7,7-tetracyano-3,5-dithiahepta-1,6-diene-2,6-dithiolate'
_symmetry_cell_setting           triclinic
_symmetry_space_group_name_H-M   'P -1'
_symmetry_Int_Tables_number      2
_space_group_name_Hall           '-P 1'
loop_
_symmetry_equiv_pos_site_id
_symmetry_equiv_pos_as_xyz
1 x,y,z
2 -x,-y,-z
_cell_length_a                   11.792(1)
_cell_length_b                   15.799(1)
_cell_length_c                   20.925(2)
_cell_angle_alpha                105.31(1)
_cell_angle_beta                 96.270(1)
_cell_angle_gamma                106.17(1)
_cell_volume                     3540.3
_exptl_crystal_colour            'light yellow'
_cell_formula_units_Z            2
loop_
_atom_site_label
_atom_site_type_symbol
_atom_site_fract_x
_atom_site_fract_y
_atom_site_fract_z
Na1 Na 0.3652(2) 0.22798(12) 0.44845(9)
O1 O 0.3025(3) 0.3675(2) 0.4428(2)
O2 O 0.3703(6) 0.3391(4) 0.5581(2)
O3 O 0.5349(3) 0.2497(2) 0.5361(2)
O4 O 0.5535(3) 0.2095(2) 0.4003(2)
O5 O 0.4550(3) 0.3321(2) 0.37231(14)
O6 O 0.0455(3) 0.1591(2) 0.52171(12)
O7 O 0.2285(3) 0.0988(2) 0.56553(15)
O8 O 0.3284(3) 0.0655(2) 0.4459(2)
O9 O 0.2264(2) 0.1136(2) 0.33624(13)
O10 O 0.0374(3) 0.1561(2) 0.39918(13)
C1 C 0.3773(4) 0.3694(3) 0.3451(2)
C2 C 0.3765(5) 0.3877(3) 0.2841(2)
H1 H 0.4296(5) 0.3730(3) 0.2567(2)
C3 C 0.2951(6) 0.4285(4) 0.2651(3)
H2 H 0.2942(6) 0.4419(4) 0.2244(3)
C4 C 0.2157(6) 0.4500(4) 0.3041(4)
H3 H 0.1613(6) 0.4773(4) 0.2900(4)
C5 C 0.2168(4) 0.4308(3) 0.3642(3)
H4 H 0.1624(4) 0.4445(3) 0.3910(3)
C6 C 0.2978(4) 0.3917(3) 0.3847(3)
C7 C 0.2907(5) 0.4274(4) 0.5021(3)
H5 H 0.2059(5) 0.4198(4) 0.5008(3)
H6 H 0.3305(5) 0.4906(4) 0.5034(3)
C8 C 0.3374(7) 0.4143(4) 0.5604(3)
H7 H 0.4075(7) 0.4680(4) 0.5832(3)
H8 H 0.2782(7) 0.4148(4) 0.5891(3)
C9 C 0.4339(7) 0.3226(5) 0.6100(3)
H9 H 0.3866(7) 0.2653(5) 0.6161(3)
H10 H 0.4446(7) 0.3722(5) 0.6514(3)
C10 C 0.5498(6) 0.3160(4) 0.5998(3)
H11 H 0.6029(6) 0.3758(4) 0.6009(3)
H12 H 0.5855(6) 0.2971(4) 0.6354(3)
C11 C 0.6463(5) 0.2465(4) 0.5184(3)
H13 H 0.6886(5) 0.2242(4) 0.5494(3)
H14 H 0.6963(5) 0.3080(4) 0.5210(3)
C12 C 0.6216(5) 0.1829(4) 0.4483(3)
H15 H 0.6975(5) 0.1818(4) 0.4349(3)
H16 H 0.5775(5) 0.1207(4) 0.4475(3)
C13 C 0.6234(4) 0.2830(3) 0.3813(2)
H17 H 0.6836(4) 0.2644(3) 0.3582(2)
H18 H 0.6645(4) 0.3357(3) 0.4210(2)
C14 C 0.5433(4) 0.3087(3) 0.3360(2)
H19 H 0.5888(4) 0.3611(3) 0.3235(2)
H20 H 0.5049(4) 0.2571(3) 0.2951(2)
C15 C 0.0038(4) 0.2256(3) 0.4385(2)
C16 C -0.0332(3) 0.2906(3) 0.4172(2)
H21 H -0.0413(3) 0.2876(3) 0.3718(2)
C17 C -0.0585(4) 0.3604(3) 0.4630(3)
H22 H -0.0820(4) 0.4050(3) 0.4487(3)
C18 C -0.0487(4) 0.3637(3) 0.5291(3)
H23 H -0.0648(4) 0.4111(3) 0.5600(3)
C19 C -0.0154(4) 0.2977(3) 0.5508(2)
H24 H -0.0106(4) 0.3001(3) 0.5959(2)
C20 C 0.0111(3) 0.2279(3) 0.5061(2)
C21 C 0.0798(4) 0.1676(3) 0.5912(2)
H25 H 0.0114(4) 0.1653(3) 0.6134(2)
H26 H 0.1431(4) 0.2259(3) 0.6142(2)
C22 C 0.1233(4) 0.0887(3) 0.5926(2)
H27 H 0.1402(4) 0.0874(3) 0.6386(2)
H28 H 0.0620(4) 0.0309(3) 0.5661(2)
C23 C 0.2507(5) 0.0156(3) 0.5375(3)
H29 H 0.1796(5) -0.0288(3) 0.5058(3)
H30 H 0.2700(5) -0.0102(3) 0.5729(3)
C24 C 0.3490(5) 0.0336(4) 0.5037(3)
H31 H 0.3698(5) -0.0227(4) 0.4888(3)
H32 H 0.4180(5) 0.0799(4) 0.5360(3)
C25 C 0.2581(4) -0.0031(3) 0.3857(3)
H33 H 0.1738(4) -0.0212(3) 0.3890(3)
H34 H 0.2839(4) -0.0575(3) 0.3778(3)
C26 C 0.2753(4) 0.0383(3) 0.3286(2)
H35 H 0.3605(4) 0.0607(3) 0.3281(2)
H36 H 0.2356(4) -0.0091(3) 0.2858(2)
C27 C 0.1021(4) 0.0828(3) 0.3048(2)
H37 H 0.0603(4) 0.0261(3) 0.3136(2)
H38 H 0.0945(4) 0.0698(3) 0.2563(2)
C28 C 0.0474(4) 0.1549(3) 0.3315(2)
H39 H 0.0977(4) 0.2148(3) 0.3311(2)
H40 H -0.0315(4) 0.1406(3) 0.3042(2)
Na2 Na 0.78780(15) 0.22662(13) 0.01737(9)
O11 O 0.6154(3) 0.0625(2) -0.06268(15)
O12 O 0.5735(3) 0.2276(2) -0.0211(2)
O13 O 0.6833(3) 0.2652(2) 0.1142(2)
O14 O 0.8654(3) 0.1836(2) 0.13086(14)
O15 O 0.7569(3) 0.0327(2) 0.02071(14)
O16 O 0.8369(3) 0.4223(2) 0.02568(14)
O17 O 0.9758(3) 0.3503(2) 0.09131(15)
O18 O 0.9847(4) 0.2052(3) -0.0187(2)
O19 O 0.8166(3) 0.1781(2) -0.1379(2)
O20 O 0.7756(3) 0.3463(2) -0.10062(14)
C29 C 0.7406(4) -0.0215(3) -0.0444(2)
C30 C 0.7959(4) -0.0878(3) -0.0657(2)
H41 H 0.8471(4) -0.0995(3) -0.0346(2)
C31 C 0.7745(5) -0.1361(4) -0.1332(3)
H42 H 0.8132(5) -0.1794(4) -0.1480(3)
C32 C 0.6971(5) -0.1209(4) -0.1782(3)
H43 H 0.6821(5) -0.1550(4) -0.2236(3)
C33 C 0.6397(4) -0.0556(4) -0.1581(2)
H44 H 0.5868(4) -0.0457(4) -0.1895(2)
C34 C 0.6624(4) -0.0055(3) -0.0904(2)
C35 C 0.5299(4) 0.0824(4) -0.1042(3)
H45 H 0.4665(4) 0.0258(4) -0.1306(3)
H46 H 0.5681(4) 0.1122(4) -0.1348(3)
C36 C 0.4800(4) 0.1448(4) -0.0586(3)
H47 H 0.4190(4) 0.1591(4) -0.0848(3)
H48 H 0.4425(4) 0.1145(4) -0.0280(3)
C37 C 0.5411(5) 0.2827(4) 0.0347(4)
H49 H 0.4569(5) 0.2772(4) 0.0229(4)
H50 H 0.5883(5) 0.3471(4) 0.0438(4)
C38 C 0.5598(5) 0.2562(4) 0.0969(3)
H51 H 0.5370(5) 0.2960(4) 0.1335(3)
H52 H 0.5103(5) 0.1927(4) 0.0893(3)
C39 C 0.7089(5) 0.2390(4) 0.1735(3)
H53 H 0.6588(5) 0.1761(4) 0.1671(3)
H54 H 0.6918(5) 0.2798(4) 0.2122(3)
C40 C 0.8386(5) 0.2461(3) 0.1857(2)
H55 H 0.8877(5) 0.3090(3) 0.1913(2)
H56 H 0.8585(5) 0.2321(3) 0.2271(2)
C41 C 0.8408(4) 0.0938(3) 0.1357(2)
H57 H 0.7611(4) 0.0731(3) 0.1455(2)
H58 H 0.8989(4) 0.0932(3) 0.1720(2)
C42 C 0.8478(4) 0.0313(3) 0.0706(2)
H59 H 0.9266(4) 0.0528(3) 0.0597(2)
H60 H 0.8341(4) -0.0311(3) 0.0731(2)
C43 C 0.7590(4) 0.4537(3) -0.0064(2)
C44 C 0.7168(4) 0.5235(3) 0.0257(2)
H61 H 0.7406(4) 0.5514(3) 0.0722(2)
C45 C 0.6392(4) 0.5512(3) -0.0116(3)
H62 H 0.6112(4) 0.5987(3) 0.0097(3)
C46 C 0.6034(4) 0.5103(3) -0.0787(3)
H63 H 0.5510(4) 0.5299(3) -0.1034(3)
C47 C 0.6439(4) 0.4387(3) -0.1120(2)
H64 H 0.6178(4) 0.4100(3) -0.1583(2)
C48 C 0.7229(4) 0.4110(3) -0.0755(2)
C49 C 0.7313(4) 0.2868(3) -0.1669(2)
H65 H 0.7292(4) 0.3223(3) -0.1981(2)
H66 H 0.6503(4) 0.2465(3) -0.1710(2)
C50 C 0.8131(5) 0.2313(4) -0.1824(3)
H67 H 0.7858(5) 0.1904(4) -0.2285(3)
H68 H 0.8936(5) 0.2723(4) -0.1785(3)
C51 C 0.9160(5) 0.1437(5) -0.1351(4)
H69 H 0.8863(5) 0.0805(5) -0.1340(4)
H70 H 0.9454(5) 0.1416(5) -0.1768(4)
C52 C 1.0123(6) 0.1916(6) -0.0821(3)
H71 H 1.0509(6) 0.2517(6) -0.0872(3)
H72 H 1.0704(6) 0.1584(6) -0.0852(3)
C53 C 1.0877(7) 0.2759(6) 0.0202(4)
H73 H 1.1541(7) 0.2511(6) 0.0227(4)
H74 H 1.1081(7) 0.3233(6) -0.0019(4)
C54 C 1.0748(5) 0.3162(5) 0.0856(4)
H75 H 1.1480(5) 0.3672(5) 0.1083(4)
H76 H 1.0675(5) 0.2708(5) 0.1095(4)
C55 C 1.0052(5) 0.4457(3) 0.1050(3)
H77 H 1.0603(5) 0.4661(3) 0.0768(3)
H78 H 1.0454(5) 0.4763(3) 0.1519(3)
C56 C 0.8981(5) 0.4715(3) 0.0923(2)
H79 H 0.8463(5) 0.4571(3) 0.1235(2)
H80 H 0.9204(5) 0.5376(3) 0.0989(2)
S1 S 1.37735(10) 0.24752(7) -0.23671(6)
S2 S 1.19534(11) 0.10005(8) -0.20046(6)
S3 S 1.35687(11) 0.48347(8) -0.23217(6)
S4 S 1.16410(10) 0.31839(7) -0.21990(5)
N1 N 1.5476(4) 0.1230(3) -0.3263(2)
N2 N 1.2986(5) -0.1009(3) -0.2801(2)
N3 N 1.1506(5) 0.5764(3) -0.3241(2)
N4 N 0.8967(5) 0.3557(4) -0.2826(2)
C57 C 1.3120(3) 0.1321(2) -0.2370(2)
C58 C 1.3681(3) 0.0720(3) -0.2712(2)
C59 C 1.4678(4) 0.1003(3) -0.3013(2)
C60 C 1.3275(4) -0.0243(4) -0.2767(2)
C61 C 1.2123(4) 0.4207(3) -0.2434(2)
C62 C 1.1170(4) 0.4427(3) -0.2730(2)
C63 C 1.1383(5) 0.5170(3) -0.3010(2)
C64 C 0.9960(5) 0.3936(4) -0.2779(2)
C65 C 1.3020(4) 0.3100(3) -0.1811(2)
H81 H 1.3569(27) 0.3694(19) -0.1627(16)
H82 H 1.2757(33) 0.2763(24) -0.1498(17)
loop_
_geom_bond_atom_site_label_1
_geom_bond_atom_site_label_2
_geom_bond_site_symmetry_1
_geom_bond_site_symmetry_2
Na1 O1 1_555 1_555
O1 C6 1_555 1_555
O2 Na1 1_555 1_555
O3 Na1 1_555 1_555
O4 Na1 1_555 1_555
O5 Na1 1_555 1_555
O6 C20 1_555 1_555
O7 C22 1_555 1_555
O8 Na1 1_555 1_555
O9 Na1 1_555 1_555
O10 C15 1_555 1_555
C1 O5 1_555 1_555
C2 C1 1_555 1_555
H1 C2 1_555 1_555
C3 C2 1_555 1_555
H2 C3 1_555 1_555
C4 C3 1_555 1_555
H3 C4 1_555 1_555
C5 C4 1_555 1_555
H4 C5 1_555 1_555
C6 C1 1_555 1_555
C7 O1 1_555 1_555
H5 C7 1_555 1_555
H6 C7 1_555 1_555
C8 O2 1_555 1_555
H7 C8 1_555 1_555
H8 C8 1_555 1_555
C9 O2 1_555 1_555
H9 C9 1_555 1_555
H10 C9 1_555 1_555
C10 O3 1_555 1_555
H11 C10 1_555 1_555
H12 C10 1_555 1_555
C11 O3 1_555 1_555
H13 C11 1_555 1_555
H14 C11 1_555 1_555
C12 O4 1_555 1_555
H15 C12 1_555 1_555
H16 C12 1_555 1_555
C13 O4 1_555 1_555
H17 C13 1_555 1_555
H18 C13 1_555 1_555
C14 O5 1_555 1_555
H19 C14 1_555 1_555
H20 C14 1_555 1_555
C15 C16 1_555 1_555
C16 H21 1_555 1_555
C17 C16 1_555 1_555
H22 C17 1_555 1_555
C18 C17 1_555 1_555
H23 C18 1_555 1_555
C19 C18 1_555 1_555
H24 C19 1_555 1_555
C20 C15 1_555 1_555
C21 O6 1_555 1_555
H25 C21 1_555 1_555
H26 C21 1_555 1_555
C22 C21 1_555 1_555
H27 C22 1_555 1_555
H28 C22 1_555 1_555
C23 O7 1_555 1_555
H29 C23 1_555 1_555
H30 C23 1_555 1_555
C24 O8 1_555 1_555
H31 C24 1_555 1_555
H32 C24 1_555 1_555
C25 O8 1_555 1_555
H33 C25 1_555 1_555
H34 C25 1_555 1_555
C26 O9 1_555 1_555
H35 C26 1_555 1_555
H36 C26 1_555 1_555
C27 O9 1_555 1_555
H37 C27 1_555 1_555
H38 C27 1_555 1_555
C28 O10 1_555 1_555
H39 C28 1_555 1_555
H40 C28 1_555 1_555
Na2 O11 1_555 1_555
O11 C34 1_555 1_555
O12 Na2 1_555 1_555
O13 Na2 1_555 1_555
O14 Na2 1_555 1_555
O15 Na2 1_555 1_555
O16 Na2 1_555 1_555
O17 Na2 1_555 1_555
O18 Na2 1_555 1_555
O19 C50 1_555 1_555
O20 C48 1_555 1_555
C29 O15 1_555 1_555
C30 C29 1_555 1_555
H41 C30 1_555 1_555
C31 C30 1_555 1_555
H42 C31 1_555 1_555
C32 C31 1_555 1_555
H43 C32 1_555 1_555
C33 C32 1_555 1_555
H44 C33 1_555 1_555
C34 C29 1_555 1_555
C35 O11 1_555 1_555
H45 C35 1_555 1_555
H46 C35 1_555 1_555
C36 O12 1_555 1_555
H47 C36 1_555 1_555
H48 C36 1_555 1_555
C37 O12 1_555 1_555
H49 C37 1_555 1_555
H50 C37 1_555 1_555
C38 O13 1_555 1_555
H51 C38 1_555 1_555
H52 C38 1_555 1_555
C39 O13 1_555 1_555
H53 C39 1_555 1_555
H54 C39 1_555 1_555
C40 O14 1_555 1_555
H55 C40 1_555 1_555
H56 C40 1_555 1_555
C41 O14 1_555 1_555
H57 C41 1_555 1_555
H58 C41 1_555 1_555
C42 O15 1_555 1_555
H59 C42 1_555 1_555
H60 C42 1_555 1_555
C43 O16 1_555 1_555
C44 C43 1_555 1_555
H61 C44 1_555 1_555
C45 C44 1_555 1_555
H62 C45 1_555 1_555
C46 C45 1_555 1_555
H63 C46 1_555 1_555
C47 C46 1_555 1_555
H64 C47 1_555 1_555
C48 C43 1_555 1_555
C49 O20 1_555 1_555
H65 C49 1_555 1_555
H66 C49 1_555 1_555
C50 C49 1_555 1_555
H67 C50 1_555 1_555
H68 C50 1_555 1_555
C51 O19 1_555 1_555
H69 C51 1_555 1_555
H70 C51 1_555 1_555
C52 O18 1_555 1_555
H71 C52 1_555 1_555
H72 C52 1_555 1_555
C53 O18 1_555 1_555
H73 C53 1_555 1_555
H74 C53 1_555 1_555
C54 O17 1_555 1_555
H75 C54 1_555 1_555
H76 C54 1_555 1_555
C55 O17 1_555 1_555
H77 C55 1_555 1_555
H78 C55 1_555 1_555
C56 O16 1_555 1_555
H79 C56 1_555 1_555
H80 C56 1_555 1_555
S1 C57 1_555 1_555
S2 C57 1_555 1_555
S3 C61 1_555 1_555
S4 C61 1_555 1_555
N1 C59 1_555 1_555
N2 C60 1_555 1_555
N3 C63 1_555 1_555
N4 C64 1_555 1_555
C57 C58 1_555 1_555
C58 C59 1_555 1_555
C60 C58 1_555 1_555
C61 C62 1_555 1_555
C62 C63 1_555 1_555
C64 C62 1_555 1_555
C65 S1 1_555 1_555
H81 C65 1_555 1_555
H82 C65 1_555 1_555
C5 C6 1_555 1_555
C7 C8 1_555 1_555
C9 C10 1_555 1_555
C11 C12 1_555 1_555
C13 C14 1_555 1_555
C19 C20 1_555 1_555
C23 C24 1_555 1_555
C25 C26 1_555 1_555
C27 C28 1_555 1_555
C33 C34 1_555 1_555
C35 C36 1_555 1_555
C37 C38 1_555 1_555
C39 C40 1_555 1_555
C41 C42 1_555 1_555
C47 C48 1_555 1_555
C51 C52 1_555 1_555
C53 C54 1_555 1_555
C55 C56 1_555 1_555
S4 C65 1_555 1_555

#END
