
#######################################################################
#
#                 Cambridge Crystallographic Data Centre
#                                CCDC 
#
#######################################################################
#
# If this CIF has been generated from an entry in the Cambridge 
# Structural Database, then it will include bibliographic, chemical, 
# crystal, experimental, refinement or atomic coordinate data resulting 
# from the CCDC's data processing and validation procedures.
#
#######################################################################

data_RATTAK
_chemical_formula_moiety         'C36 H38 O6'
_chemical_name_systematic        
'diisopropyl 2-ethyl-9-(4-ethylphenyl)-11-formyl-12-hydroxy-9,10-secogona-1(10),2,4,8(14),9,12-hexaen-6-yne-16,16-dicarboxylate'
_symmetry_cell_setting           monoclinic
_symmetry_space_group_name_H-M   'P 21/n'
_symmetry_Int_Tables_number      14
_space_group_name_Hall           '-P 2yn'
loop_
_symmetry_equiv_pos_site_id
_symmetry_equiv_pos_as_xyz
1 x,y,z
2 1/2-x,1/2+y,1/2-z
3 -x,-y,-z
4 1/2+x,1/2-y,1/2+z
_cell_length_a                   18.4940(18)
_cell_length_b                   8.7573(8)
_cell_length_c                   20.554(2)
_cell_angle_alpha                90
_cell_angle_beta                 99.5190(10)
_cell_angle_gamma                90
_cell_volume                     3283.04
_exptl_crystal_colour            colorless
_exptl_crystal_description       block
_cell_formula_units_Z            4
loop_
_atom_site_label
_atom_site_type_symbol
_atom_site_fract_x
_atom_site_fract_y
_atom_site_fract_z
C1 C 0.70668(14) 0.7702(3) 1.06056(12)
C2 C 0.68439(15) 0.7404(3) 0.98530(12)
H1 H 0.6542 0.8229 0.9642
H2 H 0.7274 0.7300 0.9643
C3 C 0.64191(13) 0.5936(3) 0.98148(12)
C4 C 0.61819(13) 0.5063(3) 0.92482(12)
C5 C 0.57905(14) 0.3712(3) 0.93116(12)
C6 C 0.56292(13) 0.3296(3) 0.99347(13)
C7 C 0.58728(13) 0.4212(3) 1.04917(13)
C8 C 0.62694(13) 0.5522(3) 1.04228(12)
C9 C 0.65645(16) 0.6657(3) 1.09483(13)
H3 H 0.6842 0.6150 1.1329
H4 H 0.6171 0.7238 1.1088
C10 C 0.78610(16) 0.7264(3) 1.08280(13)
C11 C 0.90953(18) 0.8046(5) 1.0817(2)
H5 H 0.9180 0.7100 1.1072
C12 C 0.9413(3) 0.7912(10) 1.0231(3)
H6 H 0.9388 0.8881 1.0010
H7 H 0.9148 0.7163 0.9945
H8 H 0.9916 0.7603 1.0346
C13 C 0.9358(3) 0.9311(10) 1.1226(5)
H9 H 0.9867 0.9160 1.1402
H10 H 0.9082 0.9391 1.1581
H11 H 0.9302 1.0232 1.0969
C14 C 0.69505(15) 0.9350(3) 1.07760(14)
C15 C 0.7095(2) 1.1137(4) 1.16640(17)
H12 H 0.6905 1.1850 1.1309
C16 C 0.6589(4) 1.0988(6) 1.2131(3)
H13 H 0.6134 1.0565 1.1911
H14 H 0.6500 1.1975 1.2305
H15 H 0.6797 1.0326 1.2485
C17 C 0.7821(4) 1.1628(7) 1.2006(4)
H16 H 0.8040 1.0818 1.2286
H17 H 0.7767 1.2515 1.2268
H18 H 0.8128 1.1869 1.1687
C18 C 0.63550(14) 0.5532(3) 0.86253(14)
C19 C 0.65042(15) 0.5902(3) 0.81075(14)
C20 C 0.66697(15) 0.6234(3) 0.74636(14)
C21 C 0.64625(19) 0.5233(4) 0.69514(16)
H19 H 0.6214 0.4343 0.7026
C22 C 0.6616(2) 0.5526(5) 0.63293(16)
H20 H 0.6463 0.4835 0.5991
C23 C 0.69872(19) 0.6805(5) 0.61985(16)
C24 C 0.7194(3) 0.7793(6) 0.6707(2)
H21 H 0.7447 0.8677 0.6632
C25 C 0.7037(2) 0.7512(5) 0.73309(17)
H22 H 0.7185 0.8212 0.7667
C26 C 0.7150(3) 0.7136(6) 0.5513(2)
H23 H 0.7662 0.7415 0.5548
H24 H 0.7073 0.6210 0.5252
C27 C 0.6705(4) 0.8345(8) 0.5171(3)
H25 H 0.6197 0.8063 0.5118
H26 H 0.6841 0.8501 0.4745
H27 H 0.6782 0.9271 0.5422
C28 C 0.55764(14) 0.2723(3) 0.87232(13)
C29 C 0.58573(19) 0.1270(3) 0.87021(15)
H28 H 0.6157 0.0876 0.9072
C30 C 0.5699(2) 0.0393(4) 0.81386(18)
H29 H 0.5900 -0.0580 0.8134
C31 C 0.5252(2) 0.0922(4) 0.75862(17)
C32 C 0.49591(18) 0.2358(4) 0.76154(15)
H30 H 0.4649 0.2738 0.7249
C33 C 0.51126(15) 0.3248(3) 0.81719(14)
H31 H 0.4902 0.4211 0.8177
C34 C 0.5090(3) -0.0004(5) 0.6959(2)
H32 H 0.5272 -0.1035 0.7047
H33 H 0.4563 -0.0064 0.6820
C35 C 0.5429(4) 0.0660(8) 0.6414(3)
H34 H 0.5274 0.1701 0.6342
H35 H 0.5280 0.0082 0.6018
H36 H 0.5954 0.0626 0.6531
C36 C 0.51803(16) 0.1963(3) 1.00138(16)
H37 H 0.5013 0.1377 0.9642
O1 O 0.80731(12) 0.6166(3) 1.11399(12)
O2 O 0.83078(10) 0.8270(2) 1.06120(11)
O3 O 0.66457(14) 1.0282(3) 1.04064(11)
O4 O 0.72112(12) 0.9625(2) 1.13996(9)
O5 O 0.50112(11) 0.1570(2) 1.05381(11)
O6 O 0.57239(11) 0.3858(2) 1.10956(9)
H38 H 0.5495 0.3053 1.1076
loop_
_geom_bond_atom_site_label_1
_geom_bond_atom_site_label_2
_geom_bond_site_symmetry_1
_geom_bond_site_symmetry_2
C1 C2 1_555 1_555
C2 H1 1_555 1_555
H2 C2 1_555 1_555
C3 C2 1_555 1_555
C4 C3 1_555 1_555
C5 C4 1_555 1_555
C6 C5 1_555 1_555
C7 C6 1_555 1_555
C8 C3 1_555 1_555
C9 C1 1_555 1_555
H3 C9 1_555 1_555
H4 C9 1_555 1_555
C10 C1 1_555 1_555
C11 H5 1_555 1_555
C12 C11 1_555 1_555
H6 C12 1_555 1_555
H7 C12 1_555 1_555
H8 C12 1_555 1_555
C13 C11 1_555 1_555
H9 C13 1_555 1_555
H10 C13 1_555 1_555
H11 C13 1_555 1_555
C14 C1 1_555 1_555
C15 H12 1_555 1_555
C16 C15 1_555 1_555
H13 C16 1_555 1_555
H14 C16 1_555 1_555
H15 C16 1_555 1_555
C17 C15 1_555 1_555
H16 C17 1_555 1_555
H17 C17 1_555 1_555
H18 C17 1_555 1_555
C18 C4 1_555 1_555
C19 C18 1_555 1_555
C20 C19 1_555 1_555
C21 C20 1_555 1_555
H19 C21 1_555 1_555
C22 C21 1_555 1_555
H20 C22 1_555 1_555
C23 C22 1_555 1_555
C24 C23 1_555 1_555
H21 C24 1_555 1_555
C25 C20 1_555 1_555
H22 C25 1_555 1_555
C26 C23 1_555 1_555
H23 C26 1_555 1_555
H24 C26 1_555 1_555
C27 C26 1_555 1_555
H25 C27 1_555 1_555
H26 C27 1_555 1_555
H27 C27 1_555 1_555
C28 C5 1_555 1_555
C29 C28 1_555 1_555
H28 C29 1_555 1_555
C30 C29 1_555 1_555
H29 C30 1_555 1_555
C31 C30 1_555 1_555
C32 C31 1_555 1_555
H30 C32 1_555 1_555
C33 C28 1_555 1_555
H31 C33 1_555 1_555
C34 C31 1_555 1_555
H32 C34 1_555 1_555
H33 C34 1_555 1_555
C35 C34 1_555 1_555
H34 C35 1_555 1_555
H35 C35 1_555 1_555
H36 C35 1_555 1_555
C36 C6 1_555 1_555
H37 C36 1_555 1_555
O1 C10 1_555 1_555
O2 C10 1_555 1_555
O3 C14 1_555 1_555
O4 C14 1_555 1_555
O5 C36 1_555 1_555
O6 C7 1_555 1_555
H38 O6 1_555 1_555
C7 C8 1_555 1_555
C8 C9 1_555 1_555
C11 O2 1_555 1_555
C15 O4 1_555 1_555
C24 C25 1_555 1_555
C32 C33 1_555 1_555

#END
