
#######################################################################
#
#                 Cambridge Crystallographic Data Centre
#                                CCDC 
#
#######################################################################
#
# If this CIF has been generated from an entry in the Cambridge 
# Structural Database, then it will include bibliographic, chemical, 
# crystal, experimental, refinement or atomic coordinate data resulting 
# from the CCDC's data processing and validation procedures.
#
#######################################################################

data_RATWIV
_chemical_formula_moiety         '2(H4 N1 1+),C8 H4 N8 2-'
_chemical_name_systematic        
"bis(ammonium) 5,5'-(1,4-phenylene)bis(tetrazol-1-ide)"
_symmetry_cell_setting           monoclinic
_symmetry_space_group_name_H-M   'P 21/n'
_symmetry_Int_Tables_number      14
_space_group_name_Hall           '-P 2yn'
loop_
_symmetry_equiv_pos_site_id
_symmetry_equiv_pos_as_xyz
1 x,y,z
2 1/2-x,1/2+y,1/2-z
3 -x,-y,-z
4 1/2+x,1/2-y,1/2+z
_cell_length_a                   6.9608(5)
_cell_length_b                   10.9395(8)
_cell_length_c                   7.9190(6)
_cell_angle_alpha                90
_cell_angle_beta                 111.902(2)
_cell_angle_gamma                90
_cell_volume                     559.49
_exptl_crystal_colour            colorless
_exptl_crystal_description       block
_cell_formula_units_Z            2
loop_
_atom_site_label
_atom_site_type_symbol
_atom_site_fract_x
_atom_site_fract_y
_atom_site_fract_z
C1 C 0.4970(3) 0.39249(15) 0.5934(2)
H1 H 0.4951 0.3205 0.6552
N1 N 0.8119(2) 0.43204(13) 1.16545(18)
N2 N 0.8610(2) 0.54815(13) 1.16430(18)
C2 C 0.3990(3) 0.39681(15) 0.4049(2)
H2 H 0.3313 0.3278 0.3418
N3 N 0.7927(2) 0.58929(12) 0.99199(18)
N4 N 0.7099(2) 0.39382(12) 0.99378(18)
C3 C 0.7002(2) 0.49251(14) 0.8906(2)
C4 C 0.5986(2) 0.49573(14) 0.6908(2)
C1B C 0.5030(3) 0.60751(15) 0.4066(2)
H1B H 0.5049 0.6795 0.3448
N1B N 0.1881(2) 0.56796(13) -0.16545(18)
N2B N 0.1390(2) 0.45185(13) -0.16430(18)
C2B C 0.6010(3) 0.60319(15) 0.5951(2)
H2B H 0.6687 0.6722 0.6582
N3B N 0.2073(2) 0.41071(12) 0.00801(18)
N4B N 0.2901(2) 0.60618(12) 0.00622(18)
C3B C 0.2998(2) 0.50749(14) 0.1094(2)
C4B C 0.4014(2) 0.50427(14) 0.3092(2)
N5 N 0.9448(2) 0.30582(13) 0.51076(18)
H3 H 0.997(2) 0.3518(13) 0.6024(16)
H4 H 0.900(2) 0.3480(13) 0.4130(15)
H5 H 1.0386(19) 0.2573(13) 0.504(2)
H6 H 0.847(2) 0.2633(14) 0.519(2)
loop_
_geom_bond_atom_site_label_1
_geom_bond_atom_site_label_2
_geom_bond_site_symmetry_1
_geom_bond_site_symmetry_2
C1 H1 1_555 1_555
N1 N2 1_555 1_555
N2 N3 1_555 1_555
C2 C1 1_555 1_555
H2 C2 1_555 1_555
N3 C3 1_555 1_555
N4 N1 1_555 1_555
C3 N4 1_555 1_555
C4 C1 1_555 1_555
N5 H3 1_555 1_555
H4 N5 1_555 1_555
H5 N5 1_555 1_555
H6 N5 1_555 1_555
C1B H1B 1_555 1_555
N1B N2B 1_555 1_555
N2B N3B 1_555 1_555
C2B C4 1_555 1_555
H2B C2B 1_555 1_555
N3B C3B 1_555 1_555
N4B N1B 1_555 1_555
C3B N4B 1_555 1_555
C4B C2 1_555 1_555
C3 C4 1_555 1_555
C1B C2B 1_555 1_555
C1B C4B 1_555 1_555
C3B C4B 1_555 1_555

#END
