
#######################################################################
#
#                 Cambridge Crystallographic Data Centre
#                                CCDC 
#
#######################################################################
#
# If this CIF has been generated from an entry in the Cambridge 
# Structural Database, then it will include bibliographic, chemical, 
# crystal, experimental, refinement or atomic coordinate data resulting 
# from the CCDC's data processing and validation procedures.
#
#######################################################################

data_RATZAQ
_chemical_name_common            
3,8-bis(5-(triisopropylsilyl)thiophen-2-yl)naphtho[1,2-b:5,6-b']dithiophene-2,7-dione
_chemical_formula_moiety         'C40 H50 O2 S4 Si2'
_chemical_name_systematic        
1,6-bis(5-(triisopropylsilyl)-2-thienyl)thieno[2',3':5,6]naphtho[1,2-b]thiophene-2,7-dione
_symmetry_cell_setting           monoclinic
_symmetry_space_group_name_H-M   'P 21/n'
_symmetry_Int_Tables_number      14
_space_group_name_Hall           '-P 2yn'
loop_
_symmetry_equiv_pos_site_id
_symmetry_equiv_pos_as_xyz
1 x,y,z
2 1/2-x,1/2+y,1/2-z
3 -x,-y,-z
4 1/2+x,1/2-y,1/2+z
_cell_length_a                   8.1369(4)
_cell_length_b                   20.2462(10)
_cell_length_c                   12.0373(6)
_cell_angle_alpha                90
_cell_angle_beta                 93.661(3)
_cell_angle_gamma                90
_cell_volume                     1978.99
_exptl_crystal_colour            brown
_exptl_crystal_description       needle
_chemical_melting_point          '265-268 deg.C (dec.)'
_cell_formula_units_Z            2
_exptl_crystal_recrystallization_method acetonitrile/toluene
loop_
_atom_site_label
_atom_site_type_symbol
_atom_site_fract_x
_atom_site_fract_y
_atom_site_fract_z
S1 S 0.5117(2) 0.19388(9) 0.01385(16)
S2 S 0.6822(2) -0.03468(9) -0.18872(16)
Si1 Si 0.2750(2) 0.31391(10) 0.05435(17)
O1 O 0.3938(7) 0.0215(2) -0.2325(5)
C1 C 0.8016(8) 0.0022(3) -0.0813(5)
C2 C 0.8057(9) 0.0903(3) 0.0588(6)
H1 H 0.7545 0.1260 0.0944
C3 C 0.7195(8) 0.0575(3) -0.0341(5)
C4 C 0.4534(8) 0.1239(3) -0.0598(5)
C5 C 0.5648(8) 0.0704(3) -0.0824(5)
C6 C 0.9583(9) 0.0707(3) 0.0956(6)
H2 H 1.0119 0.0936 0.1566
C7 C 0.9570(8) -0.0169(3) -0.0468(5)
C8 C 0.2173(9) 0.1883(4) -0.0622(6)
H3 H 0.1048 0.1986 -0.0803
C9 C 0.5196(9) 0.0228(4) -0.1741(7)
C10 C 0.3227(7) 0.2312(3) -0.0020(5)
C11 C 0.2895(8) 0.1281(3) -0.0945(6)
H4 H 0.2312 0.0944 -0.1355
C12 C 0.1240(8) 0.3523(3) -0.0485(6)
H5 H 0.0247 0.3231 -0.0506
C13 C 0.1785(9) 0.3011(4) 0.1899(6)
H6 H 0.1663 0.3456 0.2243
C14 C 0.4764(9) 0.3590(4) 0.0830(7)
H7 H 0.5521 0.3271 0.1239
C15 C 0.1756(10) 0.3555(4) -0.1700(6)
H8 H 0.2135 0.3119 -0.1926
H9 H 0.0811 0.3691 -0.2192
H10 H 0.2649 0.3876 -0.1750
C16 C 0.0054(9) 0.2705(5) 0.1757(7)
H11 H -0.0638 0.2972 0.1235
H12 H 0.0134 0.2254 0.1466
H13 H -0.0436 0.2692 0.2480
C17 C 0.2871(10) 0.2608(5) 0.2698(7)
H14 H 0.3968 0.2808 0.2780
H15 H 0.2392 0.2595 0.3424
H16 H 0.2961 0.2157 0.2411
C18 C 0.4667(11) 0.4187(4) 0.1574(8)
H17 H 0.4134 0.4064 0.2251
H18 H 0.5781 0.4350 0.1773
H19 H 0.4024 0.4534 0.1180
C19 C 0.0644(10) 0.4202(4) -0.0119(7)
H20 H 0.0320 0.4177 0.0650
H21 H 0.1534 0.4525 -0.0165
H22 H -0.0304 0.4339 -0.0608
C20 C 0.5611(11) 0.3779(5) -0.0250(8)
H23 H 0.5669 0.3389 -0.0729
H24 H 0.4969 0.4125 -0.0648
H25 H 0.6726 0.3942 -0.0054
S1B S 1.4883(2) -0.19388(9) -0.01385(16)
S2B S 1.3178(2) 0.03468(9) 0.18872(16)
Si1B Si 1.7250(2) -0.31391(10) -0.05435(17)
O1B O 1.6062(7) -0.0215(2) 0.2325(5)
C1B C 1.1984(8) -0.0022(3) 0.0813(5)
C2B C 1.1943(9) -0.0903(3) -0.0588(6)
H1B H 1.2455 -0.1260 -0.0944
C3B C 1.2805(8) -0.0575(3) 0.0341(5)
C4B C 1.5466(8) -0.1239(3) 0.0598(5)
C5B C 1.4352(8) -0.0704(3) 0.0824(5)
C6B C 1.0417(9) -0.0707(3) -0.0956(6)
H2B H 0.9881 -0.0936 -0.1566
C7B C 1.0430(8) 0.0169(3) 0.0468(5)
C8B C 1.7827(9) -0.1883(4) 0.0622(6)
H3B H 1.8952 -0.1986 0.0803
C9B C 1.4804(9) -0.0228(4) 0.1741(7)
C10B C 1.6773(7) -0.2312(3) 0.0020(5)
C11B C 1.7105(8) -0.1281(3) 0.0945(6)
H4B H 1.7688 -0.0944 0.1355
C12B C 1.8760(8) -0.3523(3) 0.0485(6)
H5B H 1.9753 -0.3231 0.0506
C13B C 1.8215(9) -0.3011(4) -0.1899(6)
H6B H 1.8337 -0.3456 -0.2243
C14B C 1.5236(9) -0.3590(4) -0.0830(7)
H7B H 1.4479 -0.3271 -0.1239
C15B C 1.8244(10) -0.3555(4) 0.1700(6)
H8B H 1.7865 -0.3119 0.1926
H9B H 1.9189 -0.3691 0.2192
H10B H 1.7351 -0.3876 0.1750
C16B C 1.9946(9) -0.2705(5) -0.1757(7)
H11B H 2.0638 -0.2972 -0.1235
H12B H 1.9866 -0.2254 -0.1466
H13B H 2.0436 -0.2692 -0.2480
C17B C 1.7129(10) -0.2608(5) -0.2698(7)
H14B H 1.6032 -0.2808 -0.2780
H15B H 1.7608 -0.2595 -0.3424
H16B H 1.7039 -0.2157 -0.2411
C18B C 1.5333(11) -0.4187(4) -0.1574(8)
H17B H 1.5866 -0.4064 -0.2251
H18B H 1.4219 -0.4350 -0.1773
H19B H 1.5976 -0.4534 -0.1180
C19B C 1.9356(10) -0.4202(4) 0.0119(7)
H20B H 1.9680 -0.4177 -0.0650
H21B H 1.8466 -0.4525 0.0165
H22B H 2.0304 -0.4339 0.0608
C20B C 1.4389(11) -0.3779(5) 0.0250(8)
H23B H 1.4331 -0.3389 0.0729
H24B H 1.5031 -0.4125 0.0648
H25B H 1.3274 -0.3942 0.0054
loop_
_geom_bond_atom_site_label_1
_geom_bond_atom_site_label_2
_geom_bond_site_symmetry_1
_geom_bond_site_symmetry_2
S1 C4 1_555 1_555
S2 C1 1_555 1_555
Si1 C10 1_555 1_555
O1 C9 1_555 1_555
C1 C3 1_555 1_555
C2 H1 1_555 1_555
C3 C2 1_555 1_555
C4 C5 1_555 1_555
C5 C3 1_555 1_555
C6 C2 1_555 1_555
H2 C6 1_555 1_555
C7 C1 1_555 1_555
C8 H3 1_555 1_555
C9 S2 1_555 1_555
C10 S1 1_555 1_555
C11 C4 1_555 1_555
H4 C11 1_555 1_555
C12 Si1 1_555 1_555
H5 C12 1_555 1_555
C13 Si1 1_555 1_555
H6 C13 1_555 1_555
C14 Si1 1_555 1_555
H7 C14 1_555 1_555
C15 C12 1_555 1_555
H8 C15 1_555 1_555
H9 C15 1_555 1_555
H10 C15 1_555 1_555
C16 C13 1_555 1_555
H11 C16 1_555 1_555
H12 C16 1_555 1_555
H13 C16 1_555 1_555
C17 C13 1_555 1_555
H14 C17 1_555 1_555
H15 C17 1_555 1_555
H16 C17 1_555 1_555
C18 C14 1_555 1_555
H17 C18 1_555 1_555
H18 C18 1_555 1_555
H19 C18 1_555 1_555
C19 C12 1_555 1_555
H20 C19 1_555 1_555
H21 C19 1_555 1_555
H22 C19 1_555 1_555
C20 C14 1_555 1_555
H23 C20 1_555 1_555
H24 C20 1_555 1_555
H25 C20 1_555 1_555
S1B C4B 1_555 1_555
S2B C1B 1_555 1_555
Si1B C10B 1_555 1_555
O1B C9B 1_555 1_555
C1B C3B 1_555 1_555
C2B H1B 1_555 1_555
C3B C2B 1_555 1_555
C4B C5B 1_555 1_555
C5B C3B 1_555 1_555
C6B C7 1_555 1_555
H2B C6B 1_555 1_555
C7B C6 1_555 1_555
C8B H3B 1_555 1_555
C9B S2B 1_555 1_555
C10B S1B 1_555 1_555
C11B C4B 1_555 1_555
H4B C11B 1_555 1_555
C12B Si1B 1_555 1_555
H5B C12B 1_555 1_555
C13B Si1B 1_555 1_555
H6B C13B 1_555 1_555
C14B Si1B 1_555 1_555
H7B C14B 1_555 1_555
C15B C12B 1_555 1_555
H8B C15B 1_555 1_555
H9B C15B 1_555 1_555
H10B C15B 1_555 1_555
C16B C13B 1_555 1_555
H11B C16B 1_555 1_555
H12B C16B 1_555 1_555
H13B C16B 1_555 1_555
C17B C13B 1_555 1_555
H14B C17B 1_555 1_555
H15B C17B 1_555 1_555
H16B C17B 1_555 1_555
C18B C14B 1_555 1_555
H17B C18B 1_555 1_555
H18B C18B 1_555 1_555
H19B C18B 1_555 1_555
C19B C12B 1_555 1_555
H20B C19B 1_555 1_555
H21B C19B 1_555 1_555
H22B C19B 1_555 1_555
C20B C14B 1_555 1_555
H23B C20B 1_555 1_555
H24B C20B 1_555 1_555
H25B C20B 1_555 1_555
C5 C9 1_555 1_555
C7 C7B 1_555 1_555
C8 C10 1_555 1_555
C8 C11 1_555 1_555
C1B C7B 1_555 1_555
C2B C6B 1_555 1_555
C5B C9B 1_555 1_555
C8B C10B 1_555 1_555
C8B C11B 1_555 1_555

#END
