
#######################################################################
#
#                 Cambridge Crystallographic Data Centre
#                                CCDC 
#
#######################################################################
#
# If this CIF has been generated from an entry in the Cambridge 
# Structural Database, then it will include bibliographic, chemical, 
# crystal, experimental, refinement or atomic coordinate data resulting 
# from the CCDC's data processing and validation procedures.
#
#######################################################################

data_RAVBIA
_chemical_compound_source        
'stems and twigs of the mangrove plant Ceriops tagal'
_chemical_formula_moiety         'C40 H60 O2'
_chemical_name_systematic        'Tagalsin I'
_chemical_properties_biological  
'various plant parts used in traditional Asian medicine for treatment of haemorrhage, malignant ulcer, malaria and in the scavenging of superoxide anions'
_symmetry_cell_setting           orthorhombic
_symmetry_space_group_name_H-M   'P 21 21 21'
_symmetry_Int_Tables_number      19
_space_group_name_Hall           'P 2ac 2ab'
loop_
_symmetry_equiv_pos_site_id
_symmetry_equiv_pos_as_xyz
1 x,y,z
2 1/2-x,-y,1/2+z
3 -x,1/2+y,1/2-z
4 1/2+x,1/2-y,-z
_cell_length_a                   7.6170(2)
_cell_length_b                   12.5840(5)
_cell_length_c                   35.8330(13)
_cell_angle_alpha                90
_cell_angle_beta                 90
_cell_angle_gamma                90
_cell_volume                     3434.68
_exptl_crystal_colour            colorless
_exptl_crystal_description       block
_chemical_melting_point          '163-164 deg.C'
_cell_formula_units_Z            4
loop_
_atom_site_label
_atom_site_type_symbol
_atom_site_fract_x
_atom_site_fract_y
_atom_site_fract_z
O1 O -0.0232(3) -0.4785(2) -0.03947(6)
O2 O -0.2306(5) -0.6753(3) 0.01128(8)
C1 C 0.2312(5) -0.6357(4) -0.11028(11)
H1 H 0.2781 -0.6983 -0.0980
H2 H 0.3229 -0.6075 -0.1262
C2 C 0.1407(5) -0.5042(3) 0.02903(11)
H3 H 0.2276 -0.5119 0.0486
H4 H 0.2011 -0.4797 0.0068
C3 C 0.1891(5) -0.5525(4) -0.08032(11)
H5 H 0.2629 -0.5656 -0.0587
H6 H 0.2185 -0.4827 -0.0899
C4 C 0.0615(6) -0.6131(3) 0.02094(12)
H7 H 0.1354 -0.6499 0.0031
H8 H 0.0604 -0.6545 0.0438
C5 C 0.0009(5) -0.5521(3) -0.06809(9)
C6 C -0.1214(6) -0.6070(3) 0.00580(10)
C7 C -0.1286(4) -0.6107(3) -0.08206(9)
C8 C -0.1659(5) -0.5032(3) -0.01440(9)
C9 C -0.0860(5) -0.7001(3) -0.11015(10)
C10 C -0.1671(4) -0.4145(3) 0.01629(9)
C11 C -0.2438(5) -0.7301(3) -0.13453(10)
H9 H -0.3468 -0.7357 -0.1187
H10 H -0.2227 -0.7995 -0.1454
C12 C -0.3343(5) -0.4290(3) 0.04029(10)
H11 H -0.4359 -0.4134 0.0249
H12 H -0.3421 -0.5030 0.0477
C13 C -0.2828(5) -0.6521(4) -0.16581(10)
H13 H -0.3821 -0.6771 -0.1803
H14 H -0.3128 -0.5833 -0.1554
C14 C -0.3430(5) -0.3593(4) 0.07566(10)
H15 H -0.4077 -0.2950 0.0699
H16 H -0.4080 -0.3973 0.0947
C15 C -0.1220(5) -0.6416(3) -0.19086(9)
H17 H -0.0899 -0.7141 -0.1981
C16 C -0.1632(5) -0.3283(3) 0.09151(9)
H18 H -0.1261 -0.2640 0.0782
C17 C 0.0369(5) -0.5969(3) -0.16928(10)
C18 C -0.0224(5) -0.4129(3) 0.08410(9)
C19 C 0.0756(5) -0.6704(3) -0.13522(10)
H19 H 0.1132 -0.7379 -0.1463
C20 C 0.0073(4) -0.4188(3) 0.04097(9)
H20 H 0.0667 -0.3517 0.0351
C21 C 0.1959(6) -0.6018(4) -0.19643(11)
H21 H 0.2973 -0.5704 -0.1844
H22 H 0.2232 -0.6757 -0.2016
C22 C 0.1496(5) -0.3726(4) 0.10212(10)
H23 H 0.1898 -0.3107 0.0885
H24 H 0.2385 -0.4273 0.0996
C23 C 0.1621(7) -0.5438(5) -0.23350(12)
H25 H 0.2634 -0.5530 -0.2496
H26 H 0.1495 -0.4684 -0.2285
C24 C 0.1329(6) -0.3433(4) 0.14342(11)
H27 H 0.2447 -0.3159 0.1521
H28 H 0.1069 -0.4070 0.1576
C25 C -0.0029(8) -0.5833(4) -0.25428(11)
C26 C -0.0096(6) -0.2606(4) 0.15110(11)
C27 C -0.1592(6) -0.5822(4) -0.22720(10)
H29 H -0.2598 -0.6143 -0.2393
H30 H -0.1891 -0.5091 -0.2214
C28 C -0.1811(5) -0.2978(3) 0.13275(10)
H31 H -0.2675 -0.2415 0.1349
H32 H -0.2253 -0.3588 0.1464
C29 C -0.0326(10) -0.5096(5) -0.28717(14)
H33 H 0.0627 -0.5034 -0.3033
C30 C -0.0375(7) -0.2573(5) 0.19326(12)
H34 H -0.0748 -0.3207 0.2039
C31 C -0.1657(16) -0.4550(6) -0.2963(2)
H35 H -0.2664 -0.4568 -0.2817
H36 H -0.1626 -0.4132 -0.3177
C32 C -0.0168(9) -0.1784(6) 0.21657(16)
H37 H 0.0203 -0.1124 0.2079
H38 H -0.0390 -0.1881 0.2419
C33 C 0.0267(8) -0.6965(4) -0.27007(12)
H39 H -0.0775 -0.7199 -0.2827
H40 H 0.0530 -0.7444 -0.2500
H41 H 0.1231 -0.6954 -0.2873
C34 C 0.0455(7) -0.1517(4) 0.13624(15)
H42 H -0.0467 -0.1013 0.1408
H43 H 0.0671 -0.1566 0.1099
H44 H 0.1505 -0.1290 0.1487
C35 C 0.0072(6) -0.4798(3) -0.15778(11)
H45 H -0.0919 -0.4754 -0.1413
H46 H -0.0149 -0.4377 -0.1796
H47 H 0.1098 -0.4535 -0.1453
C36 C -0.0715(6) -0.5208(3) 0.10167(11)
H48 H -0.0874 -0.5121 0.1281
H49 H 0.0208 -0.5710 0.0971
H50 H -0.1786 -0.5462 0.0907
C37 C -0.0406(6) -0.7996(3) -0.08672(11)
H51 H -0.1392 -0.8182 -0.0714
H52 H 0.0590 -0.7846 -0.0711
H53 H -0.0133 -0.8577 -0.1031
C38 C -0.1752(6) -0.3059(3) -0.00319(11)
H54 H -0.2798 -0.3018 -0.0180
H55 H -0.0742 -0.2975 -0.0190
H56 H -0.1765 -0.2505 0.0152
C39 C -0.3128(5) -0.5997(3) -0.06768(10)
H57 H -0.3501 -0.6673 -0.0574
H58 H -0.3899 -0.5829 -0.0884
C40 C -0.3330(5) -0.5131(4) -0.03747(10)
H59 H -0.3586 -0.4455 -0.0493
H60 H -0.4305 -0.5309 -0.0212
loop_
_geom_bond_atom_site_label_1
_geom_bond_atom_site_label_2
_geom_bond_site_symmetry_1
_geom_bond_site_symmetry_2
O1 C5 1_555 1_555
O2 C6 1_555 1_555
C1 H1 1_555 1_555
H2 C1 1_555 1_555
C2 H3 1_555 1_555
H4 C2 1_555 1_555
C3 C1 1_555 1_555
H5 C3 1_555 1_555
H6 C3 1_555 1_555
C4 C2 1_555 1_555
H7 C4 1_555 1_555
H8 C4 1_555 1_555
C5 C3 1_555 1_555
C6 C4 1_555 1_555
C7 C5 1_555 1_555
C8 O1 1_555 1_555
C9 C7 1_555 1_555
C10 C8 1_555 1_555
C11 C9 1_555 1_555
H9 C11 1_555 1_555
H10 C11 1_555 1_555
C12 C10 1_555 1_555
H11 C12 1_555 1_555
H12 C12 1_555 1_555
C13 C11 1_555 1_555
H13 C13 1_555 1_555
H14 C13 1_555 1_555
C14 C12 1_555 1_555
H15 C14 1_555 1_555
H16 C14 1_555 1_555
C15 C13 1_555 1_555
H17 C15 1_555 1_555
C16 C14 1_555 1_555
H18 C16 1_555 1_555
C17 C15 1_555 1_555
C18 C16 1_555 1_555
C19 C1 1_555 1_555
H19 C19 1_555 1_555
C20 C2 1_555 1_555
H20 C20 1_555 1_555
C21 C17 1_555 1_555
H21 C21 1_555 1_555
H22 C21 1_555 1_555
C22 C18 1_555 1_555
H23 C22 1_555 1_555
H24 C22 1_555 1_555
C23 C21 1_555 1_555
H25 C23 1_555 1_555
H26 C23 1_555 1_555
C24 C22 1_555 1_555
H27 C24 1_555 1_555
H28 C24 1_555 1_555
C25 C23 1_555 1_555
C26 C24 1_555 1_555
C27 C15 1_555 1_555
H29 C27 1_555 1_555
H30 C27 1_555 1_555
C28 C16 1_555 1_555
H31 C28 1_555 1_555
H32 C28 1_555 1_555
C29 C25 1_555 1_555
H33 C29 1_555 1_555
C30 C26 1_555 1_555
H34 C30 1_555 1_555
C31 C29 1_555 1_555
H35 C31 1_555 1_555
H36 C31 1_555 1_555
C32 C30 1_555 1_555
H37 C32 1_555 1_555
H38 C32 1_555 1_555
C33 C25 1_555 1_555
H39 C33 1_555 1_555
H40 C33 1_555 1_555
H41 C33 1_555 1_555
C34 C26 1_555 1_555
H42 C34 1_555 1_555
H43 C34 1_555 1_555
H44 C34 1_555 1_555
C35 C17 1_555 1_555
H45 C35 1_555 1_555
H46 C35 1_555 1_555
H47 C35 1_555 1_555
C36 C18 1_555 1_555
H48 C36 1_555 1_555
H49 C36 1_555 1_555
H50 C36 1_555 1_555
C37 C9 1_555 1_555
H51 C37 1_555 1_555
H52 C37 1_555 1_555
H53 C37 1_555 1_555
C38 C10 1_555 1_555
H54 C38 1_555 1_555
H55 C38 1_555 1_555
H56 C38 1_555 1_555
C39 C7 1_555 1_555
H57 C39 1_555 1_555
H58 C39 1_555 1_555
C40 C8 1_555 1_555
H59 C40 1_555 1_555
H60 C40 1_555 1_555
C6 C8 1_555 1_555
C9 C19 1_555 1_555
C10 C20 1_555 1_555
C17 C19 1_555 1_555
C18 C20 1_555 1_555
C25 C27 1_555 1_555
C26 C28 1_555 1_555
C39 C40 1_555 1_555

#END
