
#######################################################################
#
#                 Cambridge Crystallographic Data Centre
#                                CCDC 
#
#######################################################################
#
# If this CIF has been generated from an entry in the Cambridge 
# Structural Database, then it will include bibliographic, chemical, 
# crystal, experimental, refinement or atomic coordinate data resulting 
# from the CCDC's data processing and validation procedures.
#
#######################################################################

data_RAVMAD
_chemical_formula_moiety         'C16 H20 N2 2+,2(Cl1 O4 1-)'
_chemical_name_systematic        
'1-Ethyl-3-((E)-2-(1-ethylpyridinium-3-yl)-1-ethenyl)pyridinium diperchlorate'
_symmetry_cell_setting           monoclinic
_symmetry_space_group_name_H-M   'P 21/c'
_symmetry_Int_Tables_number      14
_space_group_name_Hall           '-P 2ybc'
loop_
_symmetry_equiv_pos_site_id
_symmetry_equiv_pos_as_xyz
1 x,y,z
2 -x,1/2+y,1/2-z
3 -x,-y,-z
4 x,1/2-y,1/2+z
_cell_length_a                   24.688(3)
_cell_length_b                   7.3712(8)
_cell_length_c                   16.372(2)
_cell_angle_alpha                90
_cell_angle_beta                 104.367(3)
_cell_angle_gamma                90
_cell_volume                     2886.2
_exptl_crystal_colour            colorless
_chemical_melting_point          '273-275deg. C'
_cell_formula_units_Z            6
_chemical_properties_physical    air-sensitive
_exptl_crystal_recrystallization_method acetonitrile
loop_
_atom_site_label
_atom_site_type_symbol
_atom_site_fract_x
_atom_site_fract_y
_atom_site_fract_z
Cl1 Cl 0.07813(3) 0.01835(13) 0.38496(6)
O1 O 0.05951(11) -0.0407(4) 0.45757(17)
O2 O 0.13287(10) 0.0909(4) 0.41128(19)
O3 O 0.07910(12) -0.1344(4) 0.3306(2)
O4 O 0.04081(12) 0.1556(5) 0.3407(2)
Cl2 Cl 0.41132(3) 0.01758(13) 0.38476(5)
O5 O 0.39287(11) -0.0427(5) 0.45739(16)
O6 O 0.46709(10) 0.0923(4) 0.41093(19)
O7 O 0.41138(11) -0.1345(4) 0.32909(19)
O8 O 0.37393(12) 0.1540(5) 0.33984(19)
Cl3 Cl 0.25288(3) 0.51824(13) 0.11591(5)
O9 O 0.27243(10) 0.4606(4) 0.04443(18)
O10 O 0.19677(10) 0.5933(4) 0.08933(19)
O11 O 0.29118(10) 0.6523(5) 0.1600(2)
O12 O 0.25227(11) 0.3669(5) 0.1704(2)
N1 N 0.41176(11) 0.2847(4) 0.13000(18)
C1 C 0.37165(14) 0.1843(5) 0.1505(2)
H1 H 0.3496 0.2343 0.1850
C2 C 0.36245(14) 0.0066(6) 0.1211(2)
H2 H 0.3342 -0.0658 0.1350
C3 C 0.39533(13) -0.0619(6) 0.0712(2)
H3 H 0.3882 -0.1807 0.0486
C4 C 0.43899(13) 0.0396(6) 0.0530(2)
C5 C 0.44519(13) 0.2176(5) 0.0830(2)
H4 H 0.4733 0.2927 0.0702
C6 C 0.47587(14) -0.0358(6) 0.0034(2)
C7 C 0.42143(13) 0.4730(6) 0.1639(2)
H5 H 0.3853 0.5276 0.1667
H6 H 0.4374 0.5477 0.1253
C8 C 0.46152(15) 0.4741(7) 0.2521(2)
H7 H 0.4672 0.5992 0.2728
H8 H 0.4975 0.4218 0.2493
H9 H 0.4455 0.4021 0.2906
H30 H 0.4684(17) -0.157(6) -0.019(3)
N1B N 0.58824(11) -0.2847(4) -0.13000(18)
C1B C 0.62835(14) -0.1843(5) -0.1505(2)
H1B H 0.6504 -0.2343 -0.1850
C2B C 0.63755(14) -0.0066(6) -0.1211(2)
H2B H 0.6658 0.0658 -0.1350
C3B C 0.60467(13) 0.0619(6) -0.0712(2)
H3B H 0.6118 0.1807 -0.0486
C4B C 0.56101(13) -0.0396(6) -0.0530(2)
C5B C 0.55481(13) -0.2176(5) -0.0830(2)
H4B H 0.5267 -0.2927 -0.0702
C6B C 0.52413(14) 0.0358(6) -0.0034(2)
C7B C 0.57857(13) -0.4730(6) -0.1639(2)
H5B H 0.6147 -0.5276 -0.1667
H6B H 0.5626 -0.5477 -0.1253
C8B C 0.53848(15) -0.4741(7) -0.2521(2)
H7B H 0.5328 -0.5992 -0.2728
H8B H 0.5025 -0.4218 -0.2493
H9B H 0.5545 -0.4021 -0.2906
H30B H 0.5316(17) 0.157(6) 0.019(3)
N2 N 0.07856(12) 0.2865(4) 0.1318(2)
N3 N 0.25234(10) -0.2830(4) -0.12949(18)
C9 C 0.03837(15) 0.1844(5) 0.1512(3)
H10 H 0.0159 0.2336 0.1851
C10 C 0.02965(14) 0.0076(6) 0.1218(2)
H11 H 0.0011 -0.0644 0.1352
C11 C 0.06290(13) -0.0627(5) 0.0729(2)
H12 H 0.0572 -0.1837 0.0526
C12 C 0.10468(13) 0.0423(5) 0.0531(2)
C13 C 0.11104(13) 0.2197(5) 0.0837(2)
H13 H 0.1388 0.2951 0.0703
C14 C 0.14118(13) -0.0372(5) 0.0041(2)
H14 H 0.1296 -0.1473 -0.0252
C15 C 0.08860(14) 0.4755(5) 0.1651(2)
H15 H 0.0525 0.5320 0.1669
H16 H 0.1054 0.5485 0.1269
C16 C 0.12697(15) 0.4745(6) 0.2518(2)
H17 H 0.1329 0.5992 0.2729
H18 H 0.1629 0.4207 0.2497
H19 H 0.1101 0.4030 0.2896
C17 C 0.29353(13) -0.1801(6) -0.1492(2)
H20 H 0.3161 -0.2289 -0.1831
C18 C 0.30178(13) -0.0075(6) -0.1196(2)
H21 H 0.3305 0.0642 -0.1325
C19 C 0.26829(14) 0.0655(5) -0.0703(2)
H22 H 0.2742 0.1861 -0.0496
C20 C 0.22573(12) -0.0414(5) -0.0518(2)
C21 C 0.21924(13) -0.2195(5) -0.0820(2)
H23 H 0.1915 -0.2956 -0.0689
C22 C 0.18935(13) 0.0348(5) -0.0020(2)
H24 H 0.2011 0.1437 0.0282
C23 C 0.24320(13) -0.4717(5) -0.1634(2)
H25 H 0.2270 -0.5468 -0.1253
H26 H 0.2795 -0.5258 -0.1657
C24 C 0.20402(15) -0.4712(6) -0.2512(2)
H27 H 0.1984 -0.5959 -0.2724
H28 H 0.2204 -0.3984 -0.2890
H29 H 0.1679 -0.4191 -0.2487
loop_
_geom_bond_atom_site_label_1
_geom_bond_atom_site_label_2
_geom_bond_site_symmetry_1
_geom_bond_site_symmetry_2
Cl1 O1 1_555 1_555
Cl2 O5 1_555 1_555
Cl3 O9 1_555 1_555
O2 Cl1 1_555 1_555
O3 Cl1 1_555 1_555
O4 Cl1 1_555 1_555
O6 Cl2 1_555 1_555
O7 Cl2 1_555 1_555
O8 Cl2 1_555 1_555
O10 Cl3 1_555 1_555
O11 Cl3 1_555 1_555
O12 Cl3 1_555 1_555
N1 C1 1_555 1_555
N2 C9 1_555 1_555
N3 C17 1_555 1_555
C1 H1 1_555 1_555
C2 C1 1_555 1_555
H2 C2 1_555 1_555
C3 C2 1_555 1_555
H3 C3 1_555 1_555
C4 C3 1_555 1_555
C5 N1 1_555 1_555
H4 C5 1_555 1_555
C6 C4 1_555 1_555
C7 N1 1_555 1_555
H5 C7 1_555 1_555
H6 C7 1_555 1_555
C8 C7 1_555 1_555
H7 C8 1_555 1_555
H8 C8 1_555 1_555
H9 C8 1_555 1_555
C9 H10 1_555 1_555
C10 C9 1_555 1_555
H11 C10 1_555 1_555
C11 C10 1_555 1_555
H12 C11 1_555 1_555
C12 C11 1_555 1_555
C13 N2 1_555 1_555
H13 C13 1_555 1_555
C14 C12 1_555 1_555
H14 C14 1_555 1_555
C15 N2 1_555 1_555
H15 C15 1_555 1_555
H16 C15 1_555 1_555
C16 C15 1_555 1_555
H17 C16 1_555 1_555
H18 C16 1_555 1_555
H19 C16 1_555 1_555
C17 H20 1_555 1_555
C18 C17 1_555 1_555
H21 C18 1_555 1_555
C19 C18 1_555 1_555
H22 C19 1_555 1_555
C20 C19 1_555 1_555
C21 N3 1_555 1_555
H23 C21 1_555 1_555
C22 C14 1_555 1_555
H24 C22 1_555 1_555
C23 N3 1_555 1_555
H25 C23 1_555 1_555
H26 C23 1_555 1_555
C24 C23 1_555 1_555
H27 C24 1_555 1_555
H28 C24 1_555 1_555
H29 C24 1_555 1_555
H30 C6 1_555 1_555
N1B C1B 1_555 1_555
C1B H1B 1_555 1_555
C2B C1B 1_555 1_555
H2B C2B 1_555 1_555
C3B C2B 1_555 1_555
H3B C3B 1_555 1_555
C4B C3B 1_555 1_555
C5B N1B 1_555 1_555
H4B C5B 1_555 1_555
C6B C6 1_555 1_555
C7B N1B 1_555 1_555
H5B C7B 1_555 1_555
H6B C7B 1_555 1_555
C8B C7B 1_555 1_555
H7B C8B 1_555 1_555
H8B C8B 1_555 1_555
H9B C8B 1_555 1_555
H30B C6B 1_555 1_555
C4 C5 1_555 1_555
C12 C13 1_555 1_555
C20 C21 1_555 1_555
C20 C22 1_555 1_555
C4B C5B 1_555 1_555
C4B C6B 1_555 1_555

#END
