
#######################################################################
#
#                 Cambridge Crystallographic Data Centre
#                                CCDC 
#
#######################################################################
#
# If this CIF has been generated from an entry in the Cambridge 
# Structural Database, then it will include bibliographic, chemical, 
# crystal, experimental, refinement or atomic coordinate data resulting 
# from the CCDC's data processing and validation procedures.
#
#######################################################################

data_RAVRUB
_chemical_formula_moiety         'C15 H15 N3 O3'
_chemical_name_systematic        
'3,4-Dimethoxybenzaldehyde isonicotinoylhydrazone'
_symmetry_cell_setting           monoclinic
_symmetry_space_group_name_H-M   'P 21/c'
_symmetry_Int_Tables_number      14
_space_group_name_Hall           '-P 2ybc'
loop_
_symmetry_equiv_pos_site_id
_symmetry_equiv_pos_as_xyz
1 x,y,z
2 -x,1/2+y,1/2-z
3 -x,-y,-z
4 x,1/2-y,1/2+z
_cell_length_a                   11.810(1)
_cell_length_b                   13.8044(7)
_cell_length_c                   8.925(1)
_cell_angle_alpha                90
_cell_angle_beta                 101.320(8)
_cell_angle_gamma                90
_cell_volume                     1426.74
_exptl_crystal_colour            'pale yellow'
_chemical_melting_point          385K
_cell_formula_units_Z            4
loop_
_atom_site_label
_atom_site_type_symbol
_atom_site_fract_x
_atom_site_fract_y
_atom_site_fract_z
O1 O 0.8408(1) 0.8301(1) 0.1389(2)
O2 O 0.3135(2) 1.0195(1) 0.1816(2)
O3 O 0.2164(2) 1.0080(1) 0.4124(2)
N1 N 1.1895(2) 0.6358(2) 0.3613(3)
N2 N 0.7854(2) 0.7587(1) 0.3416(2)
H1 H 0.8029(2) 0.7191(1) 0.4169(2)
N3 N 0.6792(2) 0.8056(1) 0.3150(2)
C1 C 1.1763(2) 0.7252(2) 0.3056(4)
H2 H 1.2418(2) 0.7580(2) 0.2903(4)
C2 C 1.0719(2) 0.7722(2) 0.2693(3)
H3 H 1.0674(2) 0.8348(2) 0.2303(3)
C3 C 0.9737(2) 0.7244(2) 0.2918(3)
C4 C 0.9856(2) 0.6311(2) 0.3477(3)
H4 H 0.9215(2) 0.5963(2) 0.3632(3)
C5 C 1.0941(3) 0.5903(2) 0.3800(4)
H5 H 1.1010(3) 0.5272(2) 0.4172(4)
C6 C 0.8605(2) 0.7752(2) 0.2497(3)
C7 C 0.6224(2) 0.7983(2) 0.4217(3)
H6 H 0.6518(2) 0.7599(2) 0.5061(3)
C8 C 0.5131(2) 0.8477(2) 0.4161(3)
C9 C 0.4583(2) 0.8415(2) 0.5385(3)
H7 H 0.4889(2) 0.8017(2) 0.6206(3)
C10 C 0.3582(2) 0.8937(2) 0.5414(3)
H8 H 0.3222(2) 0.8886(2) 0.6249(3)
C11 C 0.3125(2) 0.9525(2) 0.4215(3)
C12 C 0.3663(2) 0.9590(2) 0.2946(3)
C13 C 0.4649(2) 0.9069(2) 0.2922(3)
H9 H 0.5000(2) 0.9110(2) 0.2078(3)
C14 C 0.3689(2) 1.0317(2) 0.0550(3)
H10 H 0.3247(2) 1.0755(2) -0.0173(3)
H11 H 0.3745(2) 0.9701(2) 0.0069(3)
H12 H 0.4450(2) 1.0576(2) 0.0898(3)
C15 C 0.1577(2) 1.0033(2) 0.5379(4)
H13 H 0.0917(2) 1.0453(2) 0.5185(4)
H14 H 0.2091(2) 1.0235(2) 0.6296(4)
H15 H 0.1330(2) 0.9380(2) 0.5497(4)
loop_
_geom_bond_atom_site_label_1
_geom_bond_atom_site_label_2
_geom_bond_site_symmetry_1
_geom_bond_site_symmetry_2
O1 C6 1_555 1_555
O2 C12 1_555 1_555
O3 C11 1_555 1_555
N1 C1 1_555 1_555
N2 H1 1_555 1_555
N3 N2 1_555 1_555
C1 H2 1_555 1_555
C2 C1 1_555 1_555
H3 C2 1_555 1_555
C3 C2 1_555 1_555
C4 C3 1_555 1_555
H4 C4 1_555 1_555
C5 N1 1_555 1_555
H5 C5 1_555 1_555
C6 N2 1_555 1_555
C7 N3 1_555 1_555
H6 C7 1_555 1_555
C8 C7 1_555 1_555
C9 C8 1_555 1_555
H7 C9 1_555 1_555
C10 C9 1_555 1_555
H8 C10 1_555 1_555
C11 C10 1_555 1_555
C12 C11 1_555 1_555
C13 C8 1_555 1_555
H9 C13 1_555 1_555
C14 O2 1_555 1_555
H10 C14 1_555 1_555
H11 C14 1_555 1_555
H12 C14 1_555 1_555
C15 O3 1_555 1_555
H13 C15 1_555 1_555
H14 C15 1_555 1_555
H15 C15 1_555 1_555
C3 C6 1_555 1_555
C4 C5 1_555 1_555
C12 C13 1_555 1_555

#END
