
#######################################################################
#
#                 Cambridge Crystallographic Data Centre
#                                CCDC 
#
#######################################################################
#
# If this CIF has been generated from an entry in the Cambridge 
# Structural Database, then it will include bibliographic, chemical, 
# crystal, experimental, refinement or atomic coordinate data resulting 
# from the CCDC's data processing and validation procedures.
#
#######################################################################

data_RAVVOB
_chemical_formula_moiety         'C30 H31 N3 O2,H2 O1'
_chemical_name_systematic        
'10-Allyl-11-(1-allyl-2-oxo-1,2-dihydroquinolin-3-yl)-3,3-dimethyl-2,3,4,5,10,11-hexahydro-1H-dibenzo[b,e][1,4]diazepin-1-one monohydrate'
_symmetry_cell_setting           orthorhombic
_symmetry_space_group_name_H-M   'P b c a'
_symmetry_Int_Tables_number      61
_space_group_name_Hall           '-P 2ac 2ab'
loop_
_symmetry_equiv_pos_site_id
_symmetry_equiv_pos_as_xyz
1 x,y,z
2 1/2-x,-y,1/2+z
3 -x,1/2+y,1/2-z
4 1/2+x,1/2-y,-z
5 -x,-y,-z
6 1/2+x,y,1/2-z
7 x,1/2-y,1/2+z
8 1/2-x,1/2+y,z
_cell_length_a                   11.0044(5)
_cell_length_b                   14.5222(7)
_cell_length_c                   32.548(2)
_cell_angle_alpha                90
_cell_angle_beta                 90
_cell_angle_gamma                90
_cell_volume                     5201.43
_exptl_crystal_colour            'light yellow'
_exptl_crystal_description       block
_cell_formula_units_Z            8
loop_
_atom_site_label
_atom_site_type_symbol
_atom_site_fract_x
_atom_site_fract_y
_atom_site_fract_z
C1 C 0.7461(3) 0.0498(2) 0.06502(10)
C2 C 0.6320(3) 0.0689(2) 0.04070(11)
H1 H 0.5729 0.0213 0.0468
H2 H 0.6512 0.0650 0.0117
C3 C 0.5747(3) 0.1624(2) 0.04922(10)
C4 C 0.6744(2) 0.2352(2) 0.04519(10)
H3 H 0.6950 0.2419 0.0164
H4 H 0.6426 0.2938 0.0546
C5 C 0.7885(3) 0.21388(19) 0.06881(8)
N1 N 0.8516(2) 0.29061(18) 0.07979(8)
C6 C 0.9646(3) 0.3052(2) 0.09945(9)
C7 C 0.9819(3) 0.3907(2) 0.11775(11)
H5 H 0.9174 0.4319 0.1190
C8 C 1.0925(4) 0.4156(2) 0.13404(12)
H6 H 1.1024 0.4736 0.1457
C9 C 1.1883(3) 0.3549(3) 0.13302(11)
H7 H 1.2638 0.3718 0.1434
C10 C 1.1710(3) 0.2686(2) 0.11641(10)
H8 H 1.2351 0.2269 0.1165
C11 C 1.0599(2) 0.2418(2) 0.09939(9)
N2 N 1.0424(2) 0.15453(17) 0.08140(7)
C12 C 0.9397(2) 0.10088(19) 0.09864(9)
H9 H 0.9563 0.0362 0.0921
C13 C 0.8226(2) 0.12475(18) 0.07734(9)
O1 O 0.7726(2) -0.03140(14) 0.07338(8)
C14 C 0.5190(3) 0.1637(3) 0.09227(12)
H10 H 0.4908 0.2247 0.0985
H11 H 0.5794 0.1457 0.1120
H12 H 0.4520 0.1215 0.0933
C15 C 0.4749(3) 0.1819(3) 0.01751(13)
H13 H 0.5090 0.1799 -0.0096
H14 H 0.4409 0.2418 0.0224
H15 H 0.4123 0.1362 0.0199
C16 C 1.1515(3) 0.1021(2) 0.06980(10)
H16 H 1.1828 0.0700 0.0937
H17 H 1.2137 0.1442 0.0602
C17 C 1.1236(3) 0.0347(3) 0.03715(11)
H18 H 1.0928 0.0574 0.0126
C18 C 1.1387(4) -0.0542(3) 0.04007(14)
H19 H 1.1694 -0.0796 0.0642
H20 H 1.1189 -0.0921 0.0180
C19 C 0.9323(2) 0.1069(2) 0.14507(9)
C20 C 1.0212(3) 0.0523(3) 0.16805(11)
C21 C 0.9412(3) 0.1170(3) 0.23217(11)
N3 N 1.0232(3) 0.0633(3) 0.21050(9)
C22 C 0.9432(4) 0.1251(4) 0.27514(13)
H21 H 1.0026 0.0946 0.2902
C23 C 0.8600(5) 0.1764(4) 0.29448(14)
H22 H 0.8607 0.1795 0.3230
C24 C 0.7726(5) 0.2251(4) 0.27275(14)
H23 H 0.7163 0.2613 0.2867
C25 C 0.7693(4) 0.2198(3) 0.23104(12)
H24 H 0.7112 0.2532 0.2166
C26 C 0.8526(3) 0.1645(2) 0.20934(10)
C27 C 0.8530(3) 0.1584(2) 0.16575(10)
H25 H 0.7955 0.1919 0.1511
O2 O 1.0911(3) -0.0014(2) 0.15136(8)
C28 C 1.1210(5) 0.0152(4) 0.23381(16)
H26 H 1.1868 0.0000 0.2152
H27 H 1.1529 0.0565 0.2546
C29 C 1.0820(10) -0.0605(6) 0.2515(3)
H28 H 1.1397 -0.0875 0.2686
C30 C 0.9866(11) -0.1032(6) 0.2505(3)
H29 H 0.9227 -0.0822 0.2343
H30 H 0.9777 -0.1568 0.2658
H31 H 0.814(2) 0.338(2) 0.0767(8)
O3 O 0.6232(7) 0.3623(4) 0.1445(2)
loop_
_geom_bond_atom_site_label_1
_geom_bond_atom_site_label_2
_geom_bond_site_symmetry_1
_geom_bond_site_symmetry_2
C1 C2 1_555 1_555
C2 H1 1_555 1_555
H2 C2 1_555 1_555
C3 C2 1_555 1_555
C4 C3 1_555 1_555
H3 C4 1_555 1_555
H4 C4 1_555 1_555
C5 C4 1_555 1_555
N1 C5 1_555 1_555
C6 N1 1_555 1_555
C7 C6 1_555 1_555
H5 C7 1_555 1_555
C8 C7 1_555 1_555
H6 C8 1_555 1_555
C9 C8 1_555 1_555
H7 C9 1_555 1_555
C10 C9 1_555 1_555
H8 C10 1_555 1_555
C11 C6 1_555 1_555
N2 C11 1_555 1_555
C12 N2 1_555 1_555
H9 C12 1_555 1_555
C13 C1 1_555 1_555
O1 C1 1_555 1_555
C14 C3 1_555 1_555
H10 C14 1_555 1_555
H11 C14 1_555 1_555
H12 C14 1_555 1_555
C15 C3 1_555 1_555
H13 C15 1_555 1_555
H14 C15 1_555 1_555
H15 C15 1_555 1_555
C16 N2 1_555 1_555
H16 C16 1_555 1_555
H17 C16 1_555 1_555
C17 C16 1_555 1_555
H18 C17 1_555 1_555
C18 C17 1_555 1_555
H19 C18 1_555 1_555
H20 C18 1_555 1_555
C19 C12 1_555 1_555
C20 C19 1_555 1_555
C21 N3 1_555 1_555
N3 C20 1_555 1_555
C22 C21 1_555 1_555
H21 C22 1_555 1_555
C23 C22 1_555 1_555
H22 C23 1_555 1_555
C24 C23 1_555 1_555
H23 C24 1_555 1_555
C25 C24 1_555 1_555
H24 C25 1_555 1_555
C26 C21 1_555 1_555
C27 C19 1_555 1_555
H25 C27 1_555 1_555
O2 C20 1_555 1_555
C28 N3 1_555 1_555
H26 C28 1_555 1_555
H27 C28 1_555 1_555
C29 C28 1_555 1_555
H28 C29 1_555 1_555
C30 C29 1_555 1_555
H29 C30 1_555 1_555
H30 C30 1_555 1_555
H31 N1 1_555 1_555
C5 C13 1_555 1_555
C10 C11 1_555 1_555
C12 C13 1_555 1_555
C25 C26 1_555 1_555
C26 C27 1_555 1_555

#END
