
#######################################################################
#
#                 Cambridge Crystallographic Data Centre
#                                CCDC 
#
#######################################################################
#
# If this CIF has been generated from an entry in the Cambridge 
# Structural Database, then it will include bibliographic, chemical, 
# crystal, experimental, refinement or atomic coordinate data resulting 
# from the CCDC's data processing and validation procedures.
#
#######################################################################

data_RAWFUS
_chemical_formula_moiety         'C22 H18 O3'
_chemical_name_systematic        
3,8-Dimethoxy-10,11-dihydrobenzo[j]fluoranthen-12(9H)-one
_symmetry_cell_setting           triclinic
_symmetry_space_group_name_H-M   'P -1'
_symmetry_Int_Tables_number      2
_space_group_name_Hall           '-P 1'
loop_
_symmetry_equiv_pos_site_id
_symmetry_equiv_pos_as_xyz
1 x,y,z
2 -x,-y,-z
_cell_length_a                   8.0012(9)
_cell_length_b                   9.2072(10)
_cell_length_c                   11.4227(13)
_cell_angle_alpha                89.811(3)
_cell_angle_beta                 74.392(2)
_cell_angle_gamma                73.831(2)
_cell_volume                     776.069
_exptl_crystal_colour            yellow
_cell_formula_units_Z            2
loop_
_atom_site_label
_atom_site_type_symbol
_atom_site_fract_x
_atom_site_fract_y
_atom_site_fract_z
O1 O 0.71136(14) 0.97122(12) 1.32914(9)
O2 O 0.25701(14) 0.54598(11) 0.76077(9)
O3 O 0.86084(15) 0.80792(14) 0.74154(10)
C1 C 0.8545(2) 1.03954(17) 1.32018(13)
H1 H 0.9698 0.9694 1.2731
H2 H 0.8619 1.0622 1.4021
H3 H 0.8298 1.1337 1.2793
C2 C 0.69090(19) 0.92349(15) 1.22217(12)
C3 C 0.54551(19) 0.85859(15) 1.23483(12)
C4 C 0.52189(18) 0.80861(15) 1.12670(12)
C5 C 0.63178(19) 0.81603(15) 1.00709(12)
C6 C 0.55622(18) 0.74725(15) 0.92297(12)
C7 C 0.60023(18) 0.71962(15) 0.79451(12)
C8 C 0.75010(19) 0.76495(16) 0.70806(13)
C9 C 0.7606(2) 0.75659(18) 0.57475(13)
H4 H 0.8818 0.7606 0.5260
H5 H 0.6689 0.8449 0.5578
C10 C 0.7277(2) 0.61156(18) 0.53765(14)
H6 H 0.7389 0.6059 0.4492
H7 H 0.8188 0.5227 0.5545
C11 C 0.42385(19) 0.83869(15) 1.34553(13)
H8 H 0.4349 0.8707 1.4214
C12 C 0.29013(19) 0.77300(16) 1.34289(13)
H9 H 0.2095 0.7610 1.4178
C13 C 0.26832(19) 0.72267(16) 1.23250(13)
H10 H 0.1754 0.6769 1.2329
C14 C 0.38489(19) 0.74167(15) 1.12452(12)
C15 C 0.40677(19) 0.70427(15) 0.99534(12)
C16 C 0.30245(19) 0.63823(15) 0.94601(13)
H11 H 0.2017 0.6121 0.9972
C17 C 0.34800(19) 0.61122(15) 0.82083(13)
C18 C 0.1074(2) 0.50041(17) 0.83289(13)
H12 H 0.1486 0.4271 0.8889
H13 H 0.0562 0.4535 0.7795
H14 H 0.0145 0.5894 0.8799
C19 C 0.49701(19) 0.64964(15) 0.74438(12)
C20 C 0.5397(2) 0.61042(17) 0.60918(13)
H15 H 0.5262 0.5084 0.5966
H16 H 0.4501 0.6838 0.5767
C21 C 0.76981(19) 0.88055(16) 0.99990(13)
H17 H 0.8464 0.8898 0.9224
C22 C 0.7986(2) 0.93329(16) 1.10705(13)
H18 H 0.8951 0.9769 1.0996
loop_
_geom_bond_atom_site_label_1
_geom_bond_atom_site_label_2
_geom_bond_site_symmetry_1
_geom_bond_site_symmetry_2
O1 C1 1_555 1_555
O2 C17 1_555 1_555
O3 C8 1_555 1_555
C1 H1 1_555 1_555
H2 C1 1_555 1_555
H3 C1 1_555 1_555
C2 O1 1_555 1_555
C3 C2 1_555 1_555
C4 C3 1_555 1_555
C5 C4 1_555 1_555
C6 C5 1_555 1_555
C7 C6 1_555 1_555
C8 C7 1_555 1_555
C9 C8 1_555 1_555
H4 C9 1_555 1_555
H5 C9 1_555 1_555
C10 C9 1_555 1_555
H6 C10 1_555 1_555
H7 C10 1_555 1_555
C11 C3 1_555 1_555
H8 C11 1_555 1_555
C12 C11 1_555 1_555
H9 C12 1_555 1_555
C13 C12 1_555 1_555
H10 C13 1_555 1_555
C14 C4 1_555 1_555
C15 C6 1_555 1_555
C16 C15 1_555 1_555
H11 C16 1_555 1_555
C17 C16 1_555 1_555
C18 O2 1_555 1_555
H12 C18 1_555 1_555
H13 C18 1_555 1_555
H14 C18 1_555 1_555
C19 C7 1_555 1_555
C20 C10 1_555 1_555
H15 C20 1_555 1_555
H16 C20 1_555 1_555
C21 C5 1_555 1_555
H17 C21 1_555 1_555
C22 C2 1_555 1_555
H18 C22 1_555 1_555
C13 C14 1_555 1_555
C14 C15 1_555 1_555
C17 C19 1_555 1_555
C19 C20 1_555 1_555
C21 C22 1_555 1_555

#END
