
#######################################################################
#
#                 Cambridge Crystallographic Data Centre
#                                CCDC 
#
#######################################################################
#
# If this CIF has been generated from an entry in the Cambridge 
# Structural Database, then it will include bibliographic, chemical, 
# crystal, experimental, refinement or atomic coordinate data resulting 
# from the CCDC's data processing and validation procedures.
#
#######################################################################

data_RAWKIL
_chemical_formula_moiety         'C26 H39 N1 O7 S1'
_chemical_name_systematic        
N,4-Dimethyl-N-(3-(4,5,10,10-tetramethoxy-3-oxatetracyclo[4.4.1.1^1,4^.0^8,12^]dodec-12-yl)propyl)benzenesulfonamide
_symmetry_cell_setting           monoclinic
_symmetry_space_group_name_H-M   'P 21/c'
_symmetry_Int_Tables_number      14
_space_group_name_Hall           '-P 2ybc'
loop_
_symmetry_equiv_pos_site_id
_symmetry_equiv_pos_as_xyz
1 x,y,z
2 -x,1/2+y,1/2-z
3 -x,-y,-z
4 x,1/2-y,1/2+z
_cell_length_a                   11.447(3)
_cell_length_b                   11.392(3)
_cell_length_c                   19.820(5)
_cell_angle_alpha                90
_cell_angle_beta                 91.980(3)
_cell_angle_gamma                90
_cell_volume                     2583.07
_exptl_crystal_colour            colorless
_exptl_crystal_description       block
_chemical_melting_point          '155-157 deg.C'
_cell_formula_units_Z            4
loop_
_atom_site_label
_atom_site_type_symbol
_atom_site_fract_x
_atom_site_fract_y
_atom_site_fract_z
C1 C 0.8370(3) 0.4194(3) 0.85399(15)
C2 C 0.8963(3) 0.5208(3) 0.81614(16)
C3 C 0.8438(3) 0.6395(3) 0.83525(17)
H1 H 0.8935 0.6755 0.8708
C4 C 0.7230(3) 0.6180(3) 0.86256(17)
H2 H 0.6805 0.6922 0.8661
C5 C 0.6580(3) 0.5351(3) 0.81407(18)
H3 H 0.6504 0.5715 0.7699
H4 H 0.5800 0.5212 0.8300
C6 C 0.7237(3) 0.4148(3) 0.80793(16)
C7 C 0.6499(3) 0.3190(3) 0.84046(17)
C8 C 0.6794(3) 0.3381(3) 0.91636(17)
H5 H 0.7054 0.2650 0.9371
H6 H 0.6109 0.3652 0.9392
C9 C 0.7801(3) 0.4334(3) 0.92230(17)
H7 H 0.8359 0.4130 0.9591
C10 C 0.7349(4) 0.5589(3) 0.93155(17)
H8 H 0.6596 0.5570 0.9525
H9 H 0.7889 0.6027 0.9607
C11 C 0.7762(3) 0.4092(3) 0.73913(16)
H10 H 0.8060 0.3314 0.7298
H11 H 0.7197 0.4313 0.7038
C12 C 1.0774(3) 0.5992(3) 0.78200(19)
H12 H 1.0542 0.5836 0.7359
H13 H 1.1604 0.5886 0.7879
H14 H 1.0574 0.6785 0.7932
C13 C 0.8468(4) 0.8354(3) 0.7960(2)
H15 H 0.7840 0.8554 0.8248
H16 H 0.8414 0.8824 0.7558
H17 H 0.9202 0.8499 0.8193
C14 C 0.4860(4) 0.3226(4) 0.7623(2)
H18 H 0.5134 0.3893 0.7379
H19 H 0.4020 0.3217 0.7605
H20 H 0.5147 0.2519 0.7424
C15 C 0.6350(4) 0.1081(3) 0.8445(2)
H21 H 0.6676 0.0988 0.8894
H22 H 0.6523 0.0399 0.8182
H23 H 0.5518 0.1175 0.8462
C16 C 0.9155(3) 0.3083(3) 0.85272(16)
H24 H 0.8659 0.2402 0.8583
H25 H 0.9480 0.3027 0.8083
C17 C 1.0164(3) 0.3006(3) 0.90501(18)
H26 H 1.0700 0.3653 0.8985
H27 H 0.9861 0.3074 0.9499
C18 C 1.0815(3) 0.1857(3) 0.89918(18)
H28 H 1.0343 0.1227 0.9167
H29 H 1.0944 0.1694 0.8520
C19 C 1.2936(4) 0.2315(4) 0.8980(2)
H30 H 1.3036 0.1813 0.8597
H31 H 1.3636 0.2306 0.9261
H32 H 1.2781 0.3101 0.8828
C20 C 1.2549(3) -0.0417(3) 0.96098(16)
C21 C 1.1682(3) -0.1238(3) 0.94950(16)
H33 H 1.0909 -0.1052 0.9576
C22 C 1.1964(3) -0.2339(3) 0.92599(16)
H34 H 1.1376 -0.2892 0.9186
C23 C 1.3109(4) -0.2635(4) 0.91329(17)
C24 C 1.3965(3) -0.1791(4) 0.92342(18)
H35 H 1.4736 -0.1971 0.9143
C25 C 1.3698(3) -0.0692(4) 0.94670(17)
H36 H 1.4284 -0.0133 0.9529
C26 C 1.3432(4) -0.3868(4) 0.8913(2)
H37 H 1.2799 -0.4394 0.9000
H38 H 1.4121 -0.4121 0.9162
H39 H 1.3579 -0.3869 0.8440
N1 N 1.1951(2) 0.1891(2) 0.93682(14)
O1 O 0.8693(2) 0.49380(19) 0.74562(10)
O2 O 1.0184(2) 0.5199(2) 0.82528(11)
O3 O 0.8389(2) 0.7150(2) 0.77831(12)
O4 O 0.5271(2) 0.3298(2) 0.83100(13)
O5 O 0.6843(2) 0.2090(2) 0.81422(11)
O6 O 1.3263(2) 0.1352(2) 1.03166(12)
O7 O 1.1169(2) 0.0822(2) 1.03264(11)
S1 S 1.22204(9) 0.09636(8) 0.99661(5)
loop_
_geom_bond_atom_site_label_1
_geom_bond_atom_site_label_2
_geom_bond_site_symmetry_1
_geom_bond_site_symmetry_2
C1 C2 1_555 1_555
C2 C3 1_555 1_555
C3 H1 1_555 1_555
C4 C3 1_555 1_555
H2 C4 1_555 1_555
C5 C4 1_555 1_555
H3 C5 1_555 1_555
H4 C5 1_555 1_555
C6 C1 1_555 1_555
C7 C6 1_555 1_555
C8 C7 1_555 1_555
H5 C8 1_555 1_555
H6 C8 1_555 1_555
C9 C1 1_555 1_555
H7 C9 1_555 1_555
C10 C4 1_555 1_555
H8 C10 1_555 1_555
H9 C10 1_555 1_555
C11 C6 1_555 1_555
H10 C11 1_555 1_555
H11 C11 1_555 1_555
C12 H12 1_555 1_555
H13 C12 1_555 1_555
H14 C12 1_555 1_555
C13 H15 1_555 1_555
H16 C13 1_555 1_555
H17 C13 1_555 1_555
C14 H18 1_555 1_555
H19 C14 1_555 1_555
H20 C14 1_555 1_555
C15 H21 1_555 1_555
H22 C15 1_555 1_555
H23 C15 1_555 1_555
C16 C1 1_555 1_555
H24 C16 1_555 1_555
H25 C16 1_555 1_555
C17 C16 1_555 1_555
H26 C17 1_555 1_555
H27 C17 1_555 1_555
C18 C17 1_555 1_555
H28 C18 1_555 1_555
H29 C18 1_555 1_555
C19 H30 1_555 1_555
H31 C19 1_555 1_555
H32 C19 1_555 1_555
C20 C21 1_555 1_555
C21 H33 1_555 1_555
C22 C21 1_555 1_555
H34 C22 1_555 1_555
C23 C22 1_555 1_555
C24 C23 1_555 1_555
H35 C24 1_555 1_555
C25 C20 1_555 1_555
H36 C25 1_555 1_555
C26 C23 1_555 1_555
H37 C26 1_555 1_555
H38 C26 1_555 1_555
H39 C26 1_555 1_555
N1 C18 1_555 1_555
O1 C2 1_555 1_555
O2 C2 1_555 1_555
O3 C3 1_555 1_555
O4 C7 1_555 1_555
O5 C7 1_555 1_555
O6 S1 1_555 1_555
O7 S1 1_555 1_555
S1 C20 1_555 1_555
C5 C6 1_555 1_555
C8 C9 1_555 1_555
C9 C10 1_555 1_555
C11 O1 1_555 1_555
C12 O2 1_555 1_555
C13 O3 1_555 1_555
C14 O4 1_555 1_555
C15 O5 1_555 1_555
C19 N1 1_555 1_555
C24 C25 1_555 1_555
N1 S1 1_555 1_555

#END
