
#######################################################################
#
#                 Cambridge Crystallographic Data Centre
#                                CCDC 
#
#######################################################################
#
# If this CIF has been generated from an entry in the Cambridge 
# Structural Database, then it will include bibliographic, chemical, 
# crystal, experimental, refinement or atomic coordinate data resulting 
# from the CCDC's data processing and validation procedures.
#
#######################################################################

data_RAXSAL
_chemical_formula_moiety         'C17 H11 Cl2 N3 O2'
_chemical_name_systematic        
'(4E)-N-(4-Chlorophenyl)-5-(3-chlorophenyl)-2-diazo-3-oxopent-4-enoic acid amide'
_symmetry_cell_setting           monoclinic
_symmetry_space_group_name_H-M   'P 21/c'
_symmetry_Int_Tables_number      14
_space_group_name_Hall           '-P 2ybc'
loop_
_symmetry_equiv_pos_site_id
_symmetry_equiv_pos_as_xyz
1 x,y,z
2 -x,1/2+y,1/2-z
3 -x,-y,-z
4 x,1/2-y,1/2+z
_cell_length_a                   10.516(2)
_cell_length_b                   17.996(4)
_cell_length_c                   8.902(2)
_cell_angle_alpha                90
_cell_angle_beta                 105.36(3)
_cell_angle_gamma                90
_cell_volume                     1624.49
_exptl_crystal_colour            colorless
_exptl_crystal_description       block
_cell_formula_units_Z            4
_exptl_crystal_recrystallization_method 'ethyl acetate/petroleum ether'
loop_
_atom_site_label
_atom_site_type_symbol
_atom_site_fract_x
_atom_site_fract_y
_atom_site_fract_z
Cl1 Cl 0.53770(18) 0.08859(11) 0.3238(2)
Cl2 Cl 1.78833(16) 0.15757(11) -0.3221(2)
O1 O 1.2087(4) 0.2600(2) -0.1655(5)
O2 O 1.2045(4) 0.0660(2) 0.0948(5)
N1 N 1.3263(4) 0.1556(2) -0.0664(5)
H1 H 1.3258 0.1173 -0.0014
N2 N 1.0304(5) 0.2304(3) -0.0225(5)
N3 N 0.9574(6) 0.2766(3) -0.0368(8)
C1 C 1.4554(6) 0.2165(3) -0.2240(8)
H2 H 1.3948 0.2573 -0.2482
C2 C 1.5638(6) 0.2160(4) -0.2826(8)
H3 H 1.5788 0.2558 -0.3476
C3 C 1.6507(6) 0.1586(3) -0.2458(7)
C4 C 1.6337(6) 0.1014(3) -0.1528(8)
H4 H 1.6953 0.0610 -0.1284
C5 C 1.5253(5) 0.1030(3) -0.0947(6)
H5 H 1.5147 0.0644 -0.0246
C6 C 1.4350(5) 0.1600(3) -0.1298(6)
C7 C 1.2226(5) 0.2030(3) -0.0917(6)
C8 C 1.1221(5) 0.1787(3) -0.0122(6)
C9 C 1.1137(5) 0.1118(3) 0.0740(6)
C10 C 0.9998(6) 0.0989(3) 0.1362(6)
H6 H 0.9330 0.1364 0.1244
C11 C 0.9878(6) 0.0372(3) 0.2090(7)
H7 H 1.0573 0.0017 0.2160
C12 C 0.8830(5) 0.0158(3) 0.2799(6)
C13 C 0.8947(6) -0.0507(3) 0.3599(7)
H8 H 0.9706 -0.0816 0.3675
C14 C 0.7998(6) -0.0731(3) 0.4336(7)
H9 H 0.8098 -0.1190 0.4907
C15 C 0.6906(6) -0.0295(3) 0.4215(7)
H10 H 0.6241 -0.0446 0.4711
C16 C 0.6784(5) 0.0353(3) 0.3407(6)
C17 C 0.7716(5) 0.0582(3) 0.2693(6)
H11 H 0.7594 0.1038 0.2110
loop_
_geom_bond_atom_site_label_1
_geom_bond_atom_site_label_2
_geom_bond_site_symmetry_1
_geom_bond_site_symmetry_2
Cl1 C16 1_555 1_555
Cl2 C3 1_555 1_555
O1 C7 1_555 1_555
O2 C9 1_555 1_555
N1 H1 1_555 1_555
N2 N3 1_555 1_555
C1 H2 1_555 1_555
C2 C1 1_555 1_555
H3 C2 1_555 1_555
C3 C2 1_555 1_555
C4 C3 1_555 1_555
H4 C4 1_555 1_555
C5 C4 1_555 1_555
H5 C5 1_555 1_555
C6 N1 1_555 1_555
C7 N1 1_555 1_555
C8 N2 1_555 1_555
C9 C8 1_555 1_555
C10 C9 1_555 1_555
H6 C10 1_555 1_555
C11 C10 1_555 1_555
H7 C11 1_555 1_555
C12 C11 1_555 1_555
C13 C12 1_555 1_555
H8 C13 1_555 1_555
C14 C13 1_555 1_555
H9 C14 1_555 1_555
C15 C14 1_555 1_555
H10 C15 1_555 1_555
C16 C15 1_555 1_555
C17 C12 1_555 1_555
H11 C17 1_555 1_555
C1 C6 1_555 1_555
C5 C6 1_555 1_555
C7 C8 1_555 1_555
C16 C17 1_555 1_555

#END
