
#######################################################################
#
#                 Cambridge Crystallographic Data Centre
#                                CCDC 
#
#######################################################################
#
# If this CIF has been generated from an entry in the Cambridge 
# Structural Database, then it will include bibliographic, chemical, 
# crystal, experimental, refinement or atomic coordinate data resulting 
# from the CCDC's data processing and validation procedures.
#
#######################################################################

data_RAXXAS
_chemical_formula_moiety         'C48 H16 F8'
_chemical_name_systematic        
1,2,3,4,13,14,15,16-octafluorotrinaphtho[1,2,3,4-fgh:1',2',3',4'-pqr:1'',2'',3'',4''-za_1_b_1_]trinaphthylene
_symmetry_cell_setting           monoclinic
_symmetry_space_group_name_H-M   'P 21/c'
_symmetry_Int_Tables_number      14
_space_group_name_Hall           '-P 2ybc'
loop_
_symmetry_equiv_pos_site_id
_symmetry_equiv_pos_as_xyz
1 x,y,z
2 -x,1/2+y,1/2-z
3 -x,-y,-z
4 x,1/2-y,1/2+z
_cell_length_a                   12.104(4)
_cell_length_b                   8.399(2)
_cell_length_c                   14.421(4)
_cell_angle_alpha                90
_cell_angle_beta                 90.288(5)
_cell_angle_gamma                90
_cell_volume                     1466.04
_exptl_crystal_colour            orange
_exptl_crystal_description       PLATE
_cell_formula_units_Z            2
loop_
_atom_site_label
_atom_site_type_symbol
_atom_site_fract_x
_atom_site_fract_y
_atom_site_fract_z
F1 F 0.15083(11) 0.47345(17) 0.75919(10)
F2 F 0.19218(12) 0.57095(19) 0.92957(10)
F3 F 0.40091(12) 0.63757(17) 0.98661(9)
F4 F 0.56943(11) 0.59785(16) 0.87339(9)
C1 C 0.20181(16) 0.3811(2) 0.48958(14)
C2 C 0.10662(18) 0.3071(3) 0.45071(15)
H1 H 0.0884 0.3253 0.3874
C3 C 0.04034(17) 0.2093(3) 0.50321(16)
H2 H -0.0246 0.1642 0.4768
C4 C 0.06869(18) 0.1763(3) 0.59573(15)
H3 H 0.0240 0.1065 0.6313
C5 C 0.16118(17) 0.2448(3) 0.63508(15)
H4 H 0.1808 0.2190 0.6971
C6 C 0.22740(17) 0.3529(2) 0.58467(14)
C7 C 0.32681(16) 0.4220(2) 0.62445(14)
C8 C 0.34469(17) 0.4513(2) 0.72264(14)
C9 C 0.25817(17) 0.4813(3) 0.78546(14)
C10 C 0.27676(18) 0.5360(3) 0.87411(15)
C11 C 0.38373(19) 0.5690(3) 0.90387(14)
C12 C 0.47041(18) 0.5434(2) 0.84522(14)
C13 C 0.45519(16) 0.4800(2) 0.75534(14)
C14 C 0.54661(16) 0.4672(2) 0.69171(14)
C15 C 0.65894(17) 0.4338(2) 0.72010(14)
C16 C 0.68306(18) 0.3533(2) 0.80435(14)
H5 H 0.6246 0.3291 0.8457
C17 C 0.78947(19) 0.3097(3) 0.82743(15)
H6 H 0.8041 0.2582 0.8849
C18 C 0.87605(18) 0.3413(3) 0.76599(15)
H7 H 0.9494 0.3110 0.7816
C19 C 0.85465(17) 0.4168(3) 0.68254(15)
H8 H 0.9138 0.4358 0.6409
C20 C 0.74629(17) 0.4666(2) 0.65764(14)
C21 C 0.71999(16) 0.5337(2) 0.56739(13)
C22 C 0.61133(16) 0.5181(2) 0.53394(14)
C23 C 0.52310(16) 0.4837(2) 0.59706(14)
C24 C 0.41154(16) 0.4635(2) 0.56341(14)
F1B F 0.84917(11) 0.52655(17) 0.24081(10)
F2B F 0.80782(12) 0.42905(19) 0.07043(10)
F3B F 0.59909(12) 0.36243(17) 0.01339(9)
F4B F 0.43057(11) 0.40215(16) 0.12661(9)
C1B C 0.79819(16) 0.6189(2) 0.51042(14)
C2B C 0.89338(18) 0.6929(3) 0.54929(15)
H1B H 0.9116 0.6747 0.6126
C3B C 0.95966(17) 0.7907(3) 0.49679(16)
H2B H 1.0246 0.8358 0.5232
C4B C 0.93131(18) 0.8237(3) 0.40427(15)
H3B H 0.9760 0.8935 0.3687
C5B C 0.83882(17) 0.7552(3) 0.36492(15)
H4B H 0.8192 0.7810 0.3029
C6B C 0.77260(17) 0.6471(2) 0.41533(14)
C7B C 0.67319(16) 0.5780(2) 0.37555(14)
C8B C 0.65531(17) 0.5487(2) 0.27736(14)
C9B C 0.74183(17) 0.5187(3) 0.21454(14)
C10B C 0.72324(18) 0.4640(3) 0.12589(15)
C11B C 0.61627(19) 0.4310(3) 0.09613(14)
C12B C 0.52959(18) 0.4566(2) 0.15478(14)
C13B C 0.54481(16) 0.5200(2) 0.24466(14)
C14B C 0.45339(16) 0.5328(2) 0.30829(14)
C15B C 0.34106(17) 0.5662(2) 0.27990(14)
C16B C 0.31694(18) 0.6467(2) 0.19565(14)
H5B H 0.3754 0.6709 0.1543
C17B C 0.21053(19) 0.6903(3) 0.17257(15)
H6B H 0.1959 0.7418 0.1151
C18B C 0.12395(18) 0.6587(3) 0.23401(15)
H7B H 0.0506 0.6890 0.2184
C19B C 0.14535(17) 0.5832(3) 0.31746(15)
H8B H 0.0862 0.5642 0.3591
C20B C 0.25371(17) 0.5334(2) 0.34236(14)
C21B C 0.28001(16) 0.4663(2) 0.43261(13)
C22B C 0.38867(16) 0.4819(2) 0.46606(14)
C23B C 0.47690(16) 0.5163(2) 0.40294(14)
C24B C 0.58846(16) 0.5365(2) 0.43659(14)
loop_
_geom_bond_atom_site_label_1
_geom_bond_atom_site_label_2
_geom_bond_site_symmetry_1
_geom_bond_site_symmetry_2
F1 C9 1_555 1_555
F2 C10 1_555 1_555
F3 C11 1_555 1_555
F4 C12 1_555 1_555
C1 C2 1_555 1_555
C2 H1 1_555 1_555
C3 C2 1_555 1_555
H2 C3 1_555 1_555
C4 C3 1_555 1_555
H3 C4 1_555 1_555
C5 C4 1_555 1_555
H4 C5 1_555 1_555
C6 C1 1_555 1_555
C7 C6 1_555 1_555
C8 C7 1_555 1_555
C9 C8 1_555 1_555
C10 C9 1_555 1_555
C11 C10 1_555 1_555
C12 C11 1_555 1_555
C13 C8 1_555 1_555
C14 C13 1_555 1_555
C15 C14 1_555 1_555
C16 C15 1_555 1_555
H5 C16 1_555 1_555
C17 C16 1_555 1_555
H6 C17 1_555 1_555
C18 C17 1_555 1_555
H7 C18 1_555 1_555
C19 C18 1_555 1_555
H8 C19 1_555 1_555
C20 C15 1_555 1_555
C21 C20 1_555 1_555
C22 C21 1_555 1_555
C23 C14 1_555 1_555
C24 C7 1_555 1_555
F1B C9B 1_555 1_555
F2B C10B 1_555 1_555
F3B C11B 1_555 1_555
F4B C12B 1_555 1_555
C1B C21 1_555 1_555
C2B C1B 1_555 1_555
H1B C2B 1_555 1_555
C3B C2B 1_555 1_555
H2B C3B 1_555 1_555
C4B C3B 1_555 1_555
H3B C4B 1_555 1_555
C5B C4B 1_555 1_555
H4B C5B 1_555 1_555
C6B C1B 1_555 1_555
C7B C6B 1_555 1_555
C8B C7B 1_555 1_555
C9B C8B 1_555 1_555
C10B C9B 1_555 1_555
C11B C10B 1_555 1_555
C12B C11B 1_555 1_555
C13B C8B 1_555 1_555
C14B C13B 1_555 1_555
C15B C14B 1_555 1_555
C16B C15B 1_555 1_555
H5B C16B 1_555 1_555
C17B C16B 1_555 1_555
H6B C17B 1_555 1_555
C18B C17B 1_555 1_555
H7B C18B 1_555 1_555
C19B C18B 1_555 1_555
H8B C19B 1_555 1_555
C20B C15B 1_555 1_555
C21B C1 1_555 1_555
C22B C24 1_555 1_555
C23B C14B 1_555 1_555
C24B C22 1_555 1_555
C5 C6 1_555 1_555
C12 C13 1_555 1_555
C19 C20 1_555 1_555
C22 C23 1_555 1_555
C23 C24 1_555 1_555
C5B C6B 1_555 1_555
C7B C24B 1_555 1_555
C12B C13B 1_555 1_555
C19B C20B 1_555 1_555
C20B C21B 1_555 1_555
C21B C22B 1_555 1_555
C22B C23B 1_555 1_555
C23B C24B 1_555 1_555

#END
