
#######################################################################
#
#                 Cambridge Crystallographic Data Centre
#                                CCDC 
#
#######################################################################
#
# If this CIF has been generated from an entry in the Cambridge 
# Structural Database, then it will include bibliographic, chemical, 
# crystal, experimental, refinement or atomic coordinate data resulting 
# from the CCDC's data processing and validation procedures.
#
#######################################################################

data_RAYWOD
_chemical_formula_moiety         'C11 H12 Cl1 N1 O4'
_chemical_name_systematic        '(2R,3R)-3-(4-Chlorophenyl)glutamic acid'
_symmetry_cell_setting           monoclinic
_symmetry_space_group_name_H-M   'P 21'
_symmetry_Int_Tables_number      4
_space_group_name_Hall           'P 2yb'
loop_
_symmetry_equiv_pos_site_id
_symmetry_equiv_pos_as_xyz
1 x,y,z
2 -x,1/2+y,-z
_cell_length_a                   7.320(2)
_cell_length_b                   5.928(2)
_cell_length_c                   12.943(3)
_cell_angle_alpha                90
_cell_angle_beta                 104.84(2)
_cell_angle_gamma                90
_cell_volume                     542.902
_exptl_crystal_colour            colorless
_chemical_melting_point          184.2-185.2deg.C
_cell_formula_units_Z            2
loop_
_atom_site_label
_atom_site_type_symbol
_atom_site_fract_x
_atom_site_fract_y
_atom_site_fract_z
Cl1 Cl 0.0766(1) 0.7194(2) 0.94236(7)
O1 O 0.5083(3) 0.2522(5) 1.3905(2)
O2 O 0.7952(4) 0.0944(5) 1.4192(2)
O3 O 1.2703(3) 0.7671(5) 1.3672(2)
O4 O 1.1738(4) 0.4228(5) 1.3037(2)
N1 N 0.6672(4) 0.6672(6) 1.4401(2)
C1 C 0.6846(5) 0.2596(7) 1.4054(3)
C2 C 0.7771(5) 0.4909(7) 1.4010(3)
C3 C 0.7931(5) 0.5321(7) 1.2843(3)
C4 C 0.9428(4) 0.7131(8) 1.2787(3)
C5 C 1.1464(5) 0.6386(7) 1.3228(3)
C6 C 0.6051(5) 0.5795(7) 1.2049(3)
C7 C 0.5152(5) 0.7875(7) 1.1981(3)
C8 C 0.3489(5) 0.8311(8) 1.1196(3)
C9 C 0.2748(5) 0.6603(7) 1.0471(3)
C10 C 0.3579(5) 0.4528(8) 1.0525(3)
C11 C 0.5226(5) 0.4117(8) 1.1327(3)
H1 H 1.2853(4) 0.3905(5) 1.3289(2)
H2 H 0.7207(4) 0.8012(6) 1.4376(2)
H3 H 0.6656(4) 0.6367(6) 1.5072(2)
H4 H 0.5493(4) 0.6694(6) 1.3990(2)
H5 H 0.9049(5) 0.4871(7) 1.4486(3)
H6 H 0.8393(5) 0.3903(7) 1.2613(3)
H7 H 0.9253(4) 0.7575(8) 1.2047(3)
H8 H 0.9204(4) 0.8452(8) 1.3180(3)
H9 H 0.5669(5) 0.8999(7) 1.2470(3)
H10 H 0.2893(5) 0.9705(8) 1.1157(3)
H11 H 0.3056(5) 0.3407(8) 1.0036(3)
H12 H 0.5781(5) 0.2696(8) 1.1381(3)
loop_
_geom_bond_atom_site_label_1
_geom_bond_atom_site_label_2
_geom_bond_site_symmetry_1
_geom_bond_site_symmetry_2
Cl1 C9 1_555 1_555
O1 C1 1_555 1_555
O2 C1 1_555 1_555
O3 C5 1_555 1_555
O4 C5 1_555 1_555
N1 C2 1_555 1_555
C1 C2 1_555 1_555
C2 C3 1_555 1_555
C3 C4 1_555 1_555
C4 C5 1_555 1_555
C6 C3 1_555 1_555
C7 C6 1_555 1_555
C8 C7 1_555 1_555
C9 C8 1_555 1_555
C10 C9 1_555 1_555
C11 C6 1_555 1_555
H1 O4 1_555 1_555
H2 N1 1_555 1_555
H3 N1 1_555 1_555
H4 N1 1_555 1_555
H5 C2 1_555 1_555
H6 C3 1_555 1_555
H7 C4 1_555 1_555
H8 C4 1_555 1_555
H9 C7 1_555 1_555
H10 C8 1_555 1_555
H11 C10 1_555 1_555
H12 C11 1_555 1_555
C10 C11 1_555 1_555

#END
