
#######################################################################
#
#                 Cambridge Crystallographic Data Centre
#                                CCDC 
#
#######################################################################
#
# If this CIF has been generated from an entry in the Cambridge 
# Structural Database, then it will include bibliographic, chemical, 
# crystal, experimental, refinement or atomic coordinate data resulting 
# from the CCDC's data processing and validation procedures.
#
#######################################################################

data_RAYXOH
_chemical_name_common            'Emodin acetone solvate'
_chemical_formula_moiety         'C15 H10 O5,C3 H6 O1'
_chemical_name_systematic        
'1,3,8-trihydroxy-6-methyl-9,10-anthraquinone acetone solvate'
_symmetry_cell_setting           monoclinic
_symmetry_space_group_name_H-M   'P 21/c'
_symmetry_Int_Tables_number      14
_space_group_name_Hall           '-P 2ybc'
loop_
_symmetry_equiv_pos_site_id
_symmetry_equiv_pos_as_xyz
1 x,y,z
2 -x,1/2+y,1/2-z
3 -x,-y,-z
4 x,1/2-y,1/2+z
_cell_length_a                   16.6526(9)
_cell_length_b                   13.0136(6)
_cell_length_c                   7.1164(4)
_cell_angle_alpha                90
_cell_angle_beta                 101.118(3)
_cell_angle_gamma                90
_cell_volume                     1513.25
_exptl_crystal_colour            yellow
_exptl_crystal_description       needle
_cell_formula_units_Z            4
loop_
_atom_site_label
_atom_site_type_symbol
_atom_site_fract_x
_atom_site_fract_y
_atom_site_fract_z
C1 C 0.23526(10) 0.18331(13) 0.3147(2)
C2 C 0.39785(10) 0.15222(13) 0.5416(2)
C3 C 0.36846(10) 0.25314(13) 0.4971(2)
C4 C 0.26200(10) 0.08178(13) 0.3605(2)
C5 C 0.10780(10) 0.11343(14) 0.1336(2)
H1 H 0.0556 0.1235 0.0544
C6 C 0.34406(10) 0.06248(13) 0.4825(2)
C7 C 0.49923(10) 0.31827(14) 0.6674(2)
H2 H 0.5336 0.3749 0.7121
C8 C 0.21315(10) -0.00132(14) 0.2958(2)
H3 H 0.2318 -0.0692 0.3282
C9 C 0.47632(10) 0.13629(13) 0.6433(2)
H4 H 0.4954 0.0682 0.6714
C10 C 0.42046(10) 0.33629(13) 0.5643(2)
C11 C 0.28711(10) 0.27065(13) 0.3824(2)
C12 C 0.52822(10) 0.21966(13) 0.7056(2)
C13 C 0.15605(10) 0.19747(14) 0.2011(2)
C14 C 0.13552(10) 0.01519(14) 0.1816(2)
C15 C 0.61431(10) 0.20018(14) 0.8108(3)
H5 H 0.6483 0.1789 0.7194
H6 H 0.6140 0.1457 0.9057
H7 H 0.6367 0.2632 0.8758
O1 O 0.26248(7) 0.36121(9) 0.34044(17)
O2 O 0.12488(7) 0.29158(9) 0.15540(18)
H8 H 0.1591 0.3364 0.2034
O3 O 0.36494(7) -0.02494(9) 0.53447(17)
O4 O 0.39672(7) 0.43504(9) 0.53512(18)
H9 H 0.3477 0.4371 0.4775
O5 O 0.08537(8) -0.06424(10) 0.11414(18)
H10 H 0.1070 -0.1198 0.1578
C16 C 0.14499(11) 0.67125(15) 0.2251(3)
C17 C 0.06629(12) 0.63210(18) 0.1135(3)
H11 H 0.0301 0.6901 0.0690
H12 H 0.0402 0.5874 0.1950
H13 H 0.0767 0.5930 0.0029
C18 C 0.21119(12) 0.59651(16) 0.2941(3)
H14 H 0.2419 0.5832 0.1923
H15 H 0.1873 0.5322 0.3294
H16 H 0.2481 0.6248 0.4062
O6 O 0.15684(9) 0.76241(11) 0.2610(2)
loop_
_geom_bond_atom_site_label_1
_geom_bond_atom_site_label_2
_geom_bond_site_symmetry_1
_geom_bond_site_symmetry_2
C1 C4 1_555 1_555
C2 C3 1_555 1_555
C3 C10 1_555 1_555
C4 C6 1_555 1_555
C5 H1 1_555 1_555
C6 C2 1_555 1_555
C7 H2 1_555 1_555
C8 C4 1_555 1_555
H3 C8 1_555 1_555
C9 C2 1_555 1_555
H4 C9 1_555 1_555
C10 C7 1_555 1_555
C11 C1 1_555 1_555
C12 C7 1_555 1_555
C13 C1 1_555 1_555
C14 C5 1_555 1_555
C15 C12 1_555 1_555
H5 C15 1_555 1_555
H6 C15 1_555 1_555
H7 C15 1_555 1_555
O1 C11 1_555 1_555
O2 C13 1_555 1_555
H8 O2 1_555 1_555
O3 C6 1_555 1_555
O4 C10 1_555 1_555
H9 O4 1_555 1_555
O5 C14 1_555 1_555
H10 O5 1_555 1_555
C16 C17 1_555 1_555
C17 H11 1_555 1_555
H12 C17 1_555 1_555
H13 C17 1_555 1_555
C18 C16 1_555 1_555
H14 C18 1_555 1_555
H15 C18 1_555 1_555
H16 C18 1_555 1_555
O6 C16 1_555 1_555
C3 C11 1_555 1_555
C5 C13 1_555 1_555
C8 C14 1_555 1_555
C9 C12 1_555 1_555

#END
