
#######################################################################
#
#                 Cambridge Crystallographic Data Centre
#                                CCDC 
#
#######################################################################
#
# If this CIF has been generated from an entry in the Cambridge 
# Structural Database, then it will include bibliographic, chemical, 
# crystal, experimental, refinement or atomic coordinate data resulting 
# from the CCDC's data processing and validation procedures.
#
#######################################################################

data_RAZTER
_chemical_formula_moiety         'C8 H11 N8 1+,C7 H7 O3 S1 1-,2(H2 O1)'
_chemical_name_systematic        
'1,2-bis(3-Methyl-1,2,4-triazin-5-yl)hydrazine p-toluenesulfonate dihydrate'
_symmetry_cell_setting           triclinic
_symmetry_space_group_name_H-M   'P -1'
_symmetry_Int_Tables_number      2
_space_group_name_Hall           '-P 1'
loop_
_symmetry_equiv_pos_site_id
_symmetry_equiv_pos_as_xyz
1 x,y,z
2 -x,-y,-z
_cell_length_a                   7.9820(10)
_cell_length_b                   8.4010(10)
_cell_length_c                   16.1650(10)
_cell_angle_alpha                77.170
_cell_angle_beta                 82.980(10)
_cell_angle_gamma                72.190(10)
_cell_volume                     1004.54
_exptl_crystal_colour            yellow
_chemical_melting_point          'decomposes above 270 deg.C'
_cell_formula_units_Z            2
loop_
_atom_site_label
_atom_site_type_symbol
_atom_site_fract_x
_atom_site_fract_y
_atom_site_fract_z
S1 S 0.4592(2) 0.0617(1) 0.2954(1)
O1 O 0.2756(4) 0.0887(4) 0.3236(2)
O2 O 0.5528(4) -0.1164(4) 0.2954(2)
O3 O 0.4862(4) 0.1698(4) 0.2135(2)
C4 C 0.5577(6) 0.1225(5) 0.3705(2)
C7 C 0.7406(6) 0.0846(5) 0.3679(3)
C8 C 0.4579(7) 0.2120(5) 0.4308(3)
C9 C 0.7192(8) 0.2263(6) 0.4847(3)
C10 C 0.5400(8) 0.2615(6) 0.4867(3)
C13 C 0.8088(8) 0.2852(7) 0.5442(3)
C15 C 0.8173(7) 0.1366(6) 0.4237(3)
H8 H 0.8112 0.0201 0.3273
H9 H 0.3318 0.2389 0.4327
H10 H 0.4699 0.3200 0.5296
H12 H 0.7212 0.3457 0.5812
H13 H 0.8866 0.1874 0.5774
H14 H 0.8752 0.3589 0.5123
H18 H 0.9434 0.1110 0.4209
N1 N 0.8372(5) -0.2716(4) 0.1956(2)
N2 N 1.0867(4) -0.4872(4) 0.1678(2)
C1 C 1.5477(5) -0.6679(5) -0.1448(3)
N3 N 1.1913(4) -0.4599(4) 0.0234(2)
N4 N 1.6793(5) -0.9058(4) -0.0409(2)
N5 N 1.6655(5) -0.8181(4) -0.1217(2)
N6 N 1.3185(4) -0.6143(4) 0.0496(2)
N7 N 1.4289(4) -0.5934(4) -0.0900(2)
N8 N 0.8258(5) -0.1813(4) 0.1139(2)
C2 C 1.4351(5) -0.6790(5) -0.0083(3)
C3 C 1.0816(5) -0.4056(5) 0.0844(3)
C5 C 0.9450(6) -0.2472(5) 0.0613(3)
C6 C 1.5522(6) -0.5804(6) -0.2348(3)
C11 C 1.5683(6) -0.8358(5) 0.0153(3)
C12 C 0.9643(6) -0.4159(5) 0.2199(3)
C14 C 0.9590(7) -0.4957(7) 0.3120(3)
H1 H 0.7493 -0.2262 0.2407
H2 H 1.7510 -0.8683 -0.1621
H3 H 1.3245 -0.6737 0.1139
H4 H 0.9429 -0.1879 0.0031
H5 H 1.6441 -0.6491 -0.2669
H6 H 1.4407 -0.5619 -0.2576
H7 H 1.5737 -0.4727 -0.2383
H11 H 1.5762 -0.8921 0.0738
H15 H 1.0547 -0.5986 0.3222
H16 H 0.9712 -0.4169 0.3441
H17 H 0.8493 -0.5217 0.3291
O4 O 1.9080(4) -0.9842(4) -0.2235(2)
H19 H 1.9939 -1.0779 -0.1974
H21 H 1.8633 -1.0568 -0.2668
O5 O 2.1797(4) -1.2374(4) -0.1539(2)
H20 H 2.2023 -1.3522 -0.1067
H22 H 2.2915 -1.1975 -0.1502
loop_
_geom_bond_atom_site_label_1
_geom_bond_atom_site_label_2
_geom_bond_site_symmetry_1
_geom_bond_site_symmetry_2
S1 O1 1_555 1_555
O2 S1 1_555 1_555
N1 N8 1_555 1_555
N2 C3 1_555 1_555
C1 N5 1_555 1_555
O3 S1 1_555 1_555
N3 N6 1_555 1_555
N4 N5 1_555 1_555
N5 H2 1_555 1_555
N6 C2 1_555 1_555
N7 C1 1_555 1_555
N8 C5 1_555 1_555
C2 N7 1_555 1_555
C3 N3 1_555 1_555
C4 S1 1_555 1_555
C5 C3 1_555 1_555
C6 C1 1_555 1_555
C7 C4 1_555 1_555
C8 C4 1_555 1_555
C9 C10 1_555 1_555
C10 C8 1_555 1_555
C11 N4 1_555 1_555
C12 N1 1_555 1_555
C13 C9 1_555 1_555
C14 C12 1_555 1_555
C15 C7 1_555 1_555
O4 H19 1_555 1_555
O5 H20 1_555 1_555
H1 N1 1_555 1_555
H3 N6 1_555 1_555
H4 C5 1_555 1_555
H5 C6 1_555 1_555
H6 C6 1_555 1_555
H7 C6 1_555 1_555
H8 C7 1_555 1_555
H9 C8 1_555 1_555
H10 C10 1_555 1_555
H11 C11 1_555 1_555
H12 C13 1_555 1_555
H13 C13 1_555 1_555
H14 C13 1_555 1_555
H15 C14 1_555 1_555
H16 C14 1_555 1_555
H17 C14 1_555 1_555
H18 C15 1_555 1_555
H21 O4 1_555 1_555
H22 O5 1_555 1_555
N2 C12 1_555 1_555
C2 C11 1_555 1_555
C9 C15 1_555 1_555

#END
