
#######################################################################
#
#                 Cambridge Crystallographic Data Centre
#                                CCDC 
#
#######################################################################
#
# If this CIF has been generated from an entry in the Cambridge 
# Structural Database, then it will include bibliographic, chemical, 
# crystal, experimental, refinement or atomic coordinate data resulting 
# from the CCDC's data processing and validation procedures.
#
#######################################################################

data_RAZTIV
_chemical_formula_moiety         'C7 H10 N4 O3'
_chemical_name_systematic        1-(N-Morpholino)-4-nitroimidazole
_symmetry_cell_setting           orthorhombic
_symmetry_space_group_name_H-M   'P n a m'
_symmetry_Int_Tables_number      62
_space_group_name_Hall           '-P 2c 2n'
loop_
_symmetry_equiv_pos_site_id
_symmetry_equiv_pos_as_xyz
1 x,y,z
2 -x,-y,1/2+z
3 1/2+x,1/2-y,1/2-z
4 1/2-x,1/2+y,-z
5 -x,-y,-z
6 x,y,1/2-z
7 1/2-x,1/2+y,1/2+z
8 1/2+x,1/2-y,z
_cell_length_a                   18.9120(10)
_cell_length_b                   6.9190(10)
_cell_length_c                   6.6980(10)
_cell_angle_alpha                90
_cell_angle_beta                 90
_cell_angle_gamma                90
_cell_volume                     876.448
_exptl_crystal_colour            colorless
_chemical_melting_point          220-222deg.C
_cell_formula_units_Z            4
loop_
_atom_site_label
_atom_site_type_symbol
_atom_site_fract_x
_atom_site_fract_y
_atom_site_fract_z
N1 N 0.1496(2) 0.6173(5) 0.2500
C1 C 0.1508(2) 0.4967(5) 0.4304(5)
C2 C 0.2167(2) 0.3731(6) 0.4221(7)
O1 O 0.2175(3) 0.2558(6) 0.2500
C3 C -0.0009(3) 0.9177(6) 0.2500
C4 C 0.0691(6) 0.8938(16) 0.2500
N3 N -0.0382(4) 0.7410(11) 0.2500
O2 O -0.0076(4) 1.2398(10) 0.2500
O3 O -0.0968(3) 1.1208(9) 0.2500
N6 N -0.0426(5) 1.0899(17) 0.2500
N7 N 0.0794(7) 0.6977(16) 0.2500
C7 C 0.0131(4) 0.6150(15) 0.2500
H1 H 0.1099 0.4147 0.4355
H2 H 0.1507 0.5785 0.5461
H3 H 0.2182 0.2900 0.5368
H4 H 0.2575 0.4555 0.4253
H5 H 0.1049 0.9922 0.2500
H8 H 0.0040 0.4785 0.2500
C2E C 0.2167(2) 0.3731(6) 0.0779(7)
C1E C 0.1508(2) 0.4967(5) 0.0696(5)
H1E H 0.1099 0.4147 0.0645
H2E H 0.1507 0.5785 -0.0461
H3E H 0.2182 0.2900 -0.0368
H4E H 0.2575 0.4555 0.0747
N2? N 0.0973(7) 0.7650(15) 0.2500
N4? N 0.0531(4) 1.0588(11) 0.2500
O4? O -0.1163(3) 0.8490(11) 0.2500
C5? C 0.0259(6) 0.7373(15) 0.2500
N5? N -0.0743(5) 0.9775(13) 0.2500
C6? C 0.1114(5) 0.9553(14) 0.2500
H6? H 0.0002 0.6177 0.2500
H7? H 0.1584 1.0075 0.2500
loop_
_geom_bond_atom_site_label_1
_geom_bond_atom_site_label_2
_geom_bond_site_symmetry_1
_geom_bond_site_symmetry_2
N1 C1 1_555 1_555
C1 C2 1_555 1_555
C2 O1 1_555 1_555
O1 C2E 1_555 1_555
C3 C4 1_555 1_555
C4 N7 1_555 1_555
N3 C3 1_555 1_555
O2 N6 1_555 1_555
O3 N6 1_555 1_555
N6 C3 1_555 1_555
N7 N1 1_555 1_555
C7 N3 1_555 1_555
H1 C1 1_555 1_555
H2 C1 1_555 1_555
H3 C2 1_555 1_555
H4 C2 1_555 1_555
H5 C4 1_555 1_555
H8 C7 1_555 1_555
C2E C1E 1_555 1_555
C1E N1 1_555 1_555
H1E C1E 1_555 1_555
H2E C1E 1_555 1_555
H3E C2E 1_555 1_555
H4E C2E 1_555 1_555
N7 C7 1_555 1_555

#END
