
#######################################################################
#
#                 Cambridge Crystallographic Data Centre
#                                CCDC 
#
#######################################################################
#
# If this CIF has been generated from an entry in the Cambridge 
# Structural Database, then it will include bibliographic, chemical, 
# crystal, experimental, refinement or atomic coordinate data resulting 
# from the CCDC's data processing and validation procedures.
#
#######################################################################

data_RAZXEY
_chemical_formula_moiety         'C30 H28 B1 Br2 N1 S1'
_chemical_name_systematic        
3,7-dibromo-10-(dimesitylboryl)-10H-phenothiazine
_symmetry_cell_setting           triclinic
_symmetry_space_group_name_H-M   'P -1'
_symmetry_Int_Tables_number      2
_space_group_name_Hall           '-P 1'
loop_
_symmetry_equiv_pos_site_id
_symmetry_equiv_pos_as_xyz
1 x,y,z
2 -x,-y,-z
_cell_length_a                   8.9421(4)
_cell_length_b                   10.8804(7)
_cell_length_c                   15.3177(7)
_cell_angle_alpha                100.421(4)
_cell_angle_beta                 105.213(4)
_cell_angle_gamma                102.264(5)
_cell_volume                     1360.31
_exptl_crystal_colour            colorless
_exptl_crystal_description       block
_cell_formula_units_Z            2
loop_
_atom_site_label
_atom_site_type_symbol
_atom_site_fract_x
_atom_site_fract_y
_atom_site_fract_z
C1 C 0.4624(9) 1.2429(7) -0.3559(6)
H1 H 0.3788 1.2414 -0.3272
H2 H 0.4155 1.2217 -0.4226
H3 H 0.5366 1.3281 -0.3350
C2 C 0.9935(10) 0.6454(8) -0.6010(5)
H4 H 0.9540 0.5524 -0.6191
H5 H 1.1083 0.6704 -0.5877
H6 H 0.9444 0.6804 -0.6509
C3 C 0.7527(7) 0.7153(5) -0.0737(4)
C4 C 0.6754(7) 0.7183(6) -0.0061(4)
H7 H 0.6502 0.6462 0.0174
C5 C 0.6363(7) 0.8320(6) 0.0257(4)
C6 C 0.6787(7) 0.9401(6) -0.0048(4)
H8 H 0.6537 1.0156 0.0183
C7 C 0.7604(7) 0.9370(6) -0.0714(4)
H9 H 0.7907 1.0111 -0.0918
C8 C 0.7969(6) 0.8234(5) -0.1075(3)
C9 C 0.9919(7) 0.7437(5) -0.1695(4)
C10 C 1.1375(7) 0.7892(5) -0.1860(4)
H10 H 1.1619 0.8710 -0.1974
C11 C 1.2449(7) 0.7170(6) -0.1860(4)
H11 H 1.3389 0.7475 -0.2001
C12 C 1.2121(7) 0.5974(6) -0.1646(4)
C13 C 1.0769(7) 0.5532(6) -0.1403(4)
H12 H 1.0590 0.4751 -0.1230
C14 C 0.9656(7) 0.6278(5) -0.1418(4)
C15 C 0.7214(6) 0.9606(5) -0.2769(4)
C16 C 0.7892(7) 1.0956(5) -0.2362(4)
C17 C 0.7034(7) 1.1829(5) -0.2627(4)
H13 H 0.7497 1.2712 -0.2350
C18 C 0.5516(7) 1.1437(6) -0.3289(4)
C19 C 0.4850(7) 1.0116(6) -0.3662(4)
H14 H 0.3824 0.9825 -0.4097
C20 C 0.5651(6) 0.9200(5) -0.3414(4)
C21 C 0.9542(7) 1.1539(6) -0.1632(4)
H15 H 1.0183 1.2177 -0.1841
H16 H 1.0063 1.0865 -0.1542
H17 H 0.9422 1.1942 -0.1053
C22 C 0.4794(8) 0.7784(6) -0.3839(5)
H18 H 0.3663 0.7682 -0.4107
H19 H 0.4953 0.7314 -0.3364
H20 H 0.5220 0.7451 -0.4317
C23 C 0.8759(6) 0.7987(5) -0.3530(4)
C24 C 0.9777(7) 0.8783(5) -0.3887(4)
C25 C 1.0151(7) 0.8270(6) -0.4676(4)
H21 H 1.0845 0.8813 -0.4891
C26 C 0.9519(8) 0.6976(7) -0.5148(4)
C27 C 0.8526(8) 0.6197(6) -0.4815(4)
H22 H 0.8077 0.5327 -0.5135
C28 C 0.8150(7) 0.6660(5) -0.3998(4)
C29 C 0.7095(8) 0.5668(6) -0.3671(4)
H23 H 0.6189 0.5139 -0.4192
H24 H 0.6719 0.6112 -0.3206
H25 H 0.7712 0.5127 -0.3406
C30 C 1.0538(8) 1.0218(6) -0.3427(5)
H26 H 1.1195 1.0587 -0.3770
H27 H 1.1193 1.0328 -0.2796
H28 H 0.9707 1.0649 -0.3422
N1 N 0.8718(5) 0.8149(4) -0.1810(3)
S1 S 0.7899(2) 0.56616(14) -0.11529(12)
Br1 Br 0.52756(10) 0.83549(8) 0.11732(5)
Br2 Br 1.35068(8) 0.48882(7) -0.17254(6)
B1 B 0.8251(7) 0.8584(5) -0.2645(4)
loop_
_geom_bond_atom_site_label_1
_geom_bond_atom_site_label_2
_geom_bond_site_symmetry_1
_geom_bond_site_symmetry_2
C1 H1 1_555 1_555
H2 C1 1_555 1_555
H3 C1 1_555 1_555
C2 H4 1_555 1_555
H5 C2 1_555 1_555
H6 C2 1_555 1_555
C3 C4 1_555 1_555
C4 H7 1_555 1_555
C5 C4 1_555 1_555
C6 C5 1_555 1_555
H8 C6 1_555 1_555
C7 C6 1_555 1_555
H9 C7 1_555 1_555
C8 C3 1_555 1_555
C9 C10 1_555 1_555
C10 H10 1_555 1_555
C11 C10 1_555 1_555
H11 C11 1_555 1_555
C12 C11 1_555 1_555
C13 C12 1_555 1_555
H12 C13 1_555 1_555
C14 C9 1_555 1_555
C15 C16 1_555 1_555
C16 C17 1_555 1_555
C17 H13 1_555 1_555
C18 C1 1_555 1_555
C19 C18 1_555 1_555
H14 C19 1_555 1_555
C20 C15 1_555 1_555
C21 C16 1_555 1_555
H15 C21 1_555 1_555
H16 C21 1_555 1_555
H17 C21 1_555 1_555
C22 C20 1_555 1_555
H18 C22 1_555 1_555
H19 C22 1_555 1_555
H20 C22 1_555 1_555
C23 C24 1_555 1_555
C24 C25 1_555 1_555
C25 H21 1_555 1_555
C26 C2 1_555 1_555
C27 C26 1_555 1_555
H22 C27 1_555 1_555
C28 C23 1_555 1_555
C29 C28 1_555 1_555
H23 C29 1_555 1_555
H24 C29 1_555 1_555
H25 C29 1_555 1_555
C30 C24 1_555 1_555
H26 C30 1_555 1_555
H27 C30 1_555 1_555
H28 C30 1_555 1_555
N1 C8 1_555 1_555
S1 C3 1_555 1_555
Br1 C5 1_555 1_555
Br2 C12 1_555 1_555
B1 C15 1_555 1_555
C7 C8 1_555 1_555
C9 N1 1_555 1_555
C13 C14 1_555 1_555
C14 S1 1_555 1_555
C17 C18 1_555 1_555
C19 C20 1_555 1_555
C23 B1 1_555 1_555
C25 C26 1_555 1_555
C27 C28 1_555 1_555
N1 B1 1_555 1_555

#END
