
#######################################################################
#
#                 Cambridge Crystallographic Data Centre
#                                CCDC 
#
#######################################################################
#
# If this CIF has been generated from an entry in the Cambridge 
# Structural Database, then it will include bibliographic, chemical, 
# crystal, experimental, refinement or atomic coordinate data resulting 
# from the CCDC's data processing and validation procedures.
#
#######################################################################

data_RAZYIB
_chemical_formula_moiety         'C27 H16 Cl2 F6 N4 O2,H2 O1'
_chemical_name_systematic        
'4-((2,4-Dichlorophenyl)(5-hydroxy-1-phenyl-3-(trifluoromethyl)-1H-pyrazol-4-yl)methyl)-1-phenyl-3-(trifluoromethyl)-1H-pyrazol-5-ol monohydrate'
_symmetry_cell_setting           orthorhombic
_symmetry_space_group_name_H-M   'P b c a'
_symmetry_Int_Tables_number      61
_space_group_name_Hall           '-P 2ac 2ab'
loop_
_symmetry_equiv_pos_site_id
_symmetry_equiv_pos_as_xyz
1 x,y,z
2 1/2-x,-y,1/2+z
3 -x,1/2+y,1/2-z
4 1/2+x,1/2-y,-z
5 -x,-y,-z
6 1/2+x,y,1/2-z
7 x,1/2-y,1/2+z
8 1/2-x,1/2+y,z
_cell_length_a                   19.214(3)
_cell_length_b                   14.821(2)
_cell_length_c                   19.639(3)
_cell_angle_alpha                90
_cell_angle_beta                 90
_cell_angle_gamma                90
_cell_volume                     5592.61
_exptl_crystal_colour            colorless
_exptl_crystal_description       block
_cell_formula_units_Z            8
_exptl_crystal_recrystallization_method ethanol
loop_
_atom_site_label
_atom_site_type_symbol
_atom_site_fract_x
_atom_site_fract_y
_atom_site_fract_z
Cl1 Cl 0.43782(8) 0.80691(8) 0.69036(7)
Cl2 Cl 0.47839(6) 0.45098(8) 0.70143(7)
F1 F 0.3810(2) 0.1456(2) 0.7135(2)
F2 F 0.3500(2) 0.1972(3) 0.61772(16)
F3 F 0.43873(15) 0.2508(2) 0.6664(3)
F7 F 0.43392(13) 0.4391(2) 0.49788(14)
F8 F 0.38888(14) 0.3897(2) 0.40640(12)
F9 F 0.40004(15) 0.3038(2) 0.49191(16)
O1 O 0.21969(12) 0.47490(16) 0.73203(12)
H1 H 0.2319 0.5105 0.7617
O2 O 0.17292(14) 0.4702(2) 0.60349(15)
H2 H 0.185(2) 0.477(3) 0.642(2)
N1 N 0.25387(16) 0.33635(19) 0.78219(14)
N2 N 0.29661(16) 0.26542(19) 0.76845(15)
N3 N 0.20648(15) 0.4465(2) 0.49229(14)
N4 N 0.26261(16) 0.4240(2) 0.45368(14)
C1 C 0.2166(2) 0.3387(2) 0.84580(17)
C2 C 0.2506(2) 0.3098(3) 0.90335(19)
H3 H 0.2967 0.2909 0.9011
C3 C 0.2148(3) 0.3091(3) 0.9650(2)
H4 H 0.2369 0.2892 1.0044
C4 C 0.1474(3) 0.3377(3) 0.9677(2)
H5 H 0.1236 0.3369 1.0090
C5 C 0.1149(2) 0.3673(3) 0.9106(2)
H6 H 0.0690 0.3871 0.9131
C6 C 0.1493(2) 0.3681(3) 0.8487(2)
H7 H 0.1270 0.3885 0.8096
C7 C 0.26010(18) 0.4022(2) 0.73413(17)
C8 C 0.30911(18) 0.3744(2) 0.68736(17)
C9 C 0.32889(18) 0.2891(2) 0.71132(18)
C10 C 0.3751(2) 0.2212(2) 0.6784(2)
C11 C 0.33869(17) 0.4283(2) 0.62867(16)
H8 H 0.3817 0.3974 0.6154
C12 C 0.36031(18) 0.5238(2) 0.64957(16)
C13 C 0.3193(2) 0.5992(2) 0.63739(18)
H9 H 0.2752 0.5911 0.6188
C14 C 0.3415(2) 0.6855(3) 0.65190(18)
H10 H 0.3123 0.7345 0.6439
C15 C 0.4066(2) 0.6987(3) 0.67808(19)
C16 C 0.4484(2) 0.6267(3) 0.6930(2)
H11 H 0.4923 0.6357 0.7117
C17 C 0.42455(19) 0.5400(3) 0.67980(19)
C18 C 0.29313(18) 0.4288(2) 0.56575(17)
C19 C 0.22324(18) 0.4495(2) 0.55945(17)
C20 C 0.31368(19) 0.4140(2) 0.49830(17)
C21 C 0.14216(12) 0.4666(2) 0.46044(14)
C22 C 0.10802(16) 0.54774(18) 0.47243(15)
H12 H 0.1271 0.5897 0.5023
C23 C 0.04542(17) 0.5661(2) 0.43977(18)
H13 H 0.0226 0.6204 0.4478
C24 C 0.01697(13) 0.5034(3) 0.39513(17)
H14 H -0.0249 0.5157 0.3733
C25 C 0.05112(17) 0.4223(2) 0.38315(15)
H15 H 0.0321 0.3803 0.3533
C26 C 0.11372(16) 0.40385(18) 0.41580(16)
H16 H 0.1366 0.3496 0.4078
C33 C 0.3832(2) 0.3873(3) 0.4734(2)
O3 O 0.2460(2) 0.5942(2) 0.81243(16)
H22 H 0.231(2) 0.647(3) 0.800(2)
H23 H 0.239(3) 0.585(4) 0.853(3)
F4? F 0.3497(14) 0.1399(10) 0.6851(16)
F5? F 0.3879(18) 0.2357(19) 0.6139(6)
F6? F 0.4357(9) 0.2228(19) 0.7102(15)
C27? C 0.13739(13) 0.4455(2) 0.46265(14)
C28? C 0.12820(12) 0.5092(2) 0.41146(13)
H17? H 0.1653 0.5454 0.3980
C29? C 0.06361(16) 0.5188(2) 0.38042(12)
H18? H 0.0575 0.5614 0.3462
C30? C 0.00821(13) 0.4647(3) 0.40056(18)
H19? H -0.0350 0.4711 0.3798
C31? C 0.01739(16) 0.4010(3) 0.4517(2)
H20? H -0.0197 0.3649 0.4652
C32? C 0.08198(19) 0.3914(2) 0.48280(17)
H21? H 0.0881 0.3489 0.5170
loop_
_geom_bond_atom_site_label_1
_geom_bond_atom_site_label_2
_geom_bond_site_symmetry_1
_geom_bond_site_symmetry_2
Cl1 C15 1_555 1_555
Cl2 C17 1_555 1_555
F1 C10 1_555 1_555
F2 C10 1_555 1_555
F3 C10 1_555 1_555
F7 C33 1_555 1_555
F8 C33 1_555 1_555
F9 C33 1_555 1_555
O1 H1 1_555 1_555
O2 H2 1_555 1_555
N1 N2 1_555 1_555
N2 C9 1_555 1_555
N3 N4 1_555 1_555
N4 C20 1_555 1_555
C1 N1 1_555 1_555
C2 C1 1_555 1_555
H3 C2 1_555 1_555
C3 C2 1_555 1_555
H4 C3 1_555 1_555
C4 C3 1_555 1_555
H5 C4 1_555 1_555
C5 C4 1_555 1_555
H6 C5 1_555 1_555
C6 C1 1_555 1_555
H7 C6 1_555 1_555
C7 O1 1_555 1_555
C8 C7 1_555 1_555
C9 C8 1_555 1_555
C10 C9 1_555 1_555
C11 C8 1_555 1_555
H8 C11 1_555 1_555
C12 C11 1_555 1_555
C13 C12 1_555 1_555
H9 C13 1_555 1_555
C14 C13 1_555 1_555
H10 C14 1_555 1_555
C15 C14 1_555 1_555
C16 C15 1_555 1_555
H11 C16 1_555 1_555
C17 C12 1_555 1_555
C18 C11 1_555 1_555
C19 O2 1_555 1_555
C20 C18 1_555 1_555
C21 N3 1_555 1_555
C22 C21 1_555 1_555
H12 C22 1_555 1_555
C23 C22 1_555 1_555
H13 C23 1_555 1_555
C24 C23 1_555 1_555
H14 C24 1_555 1_555
C25 C24 1_555 1_555
H15 C25 1_555 1_555
C26 C21 1_555 1_555
H16 C26 1_555 1_555
C33 C20 1_555 1_555
O3 H22 1_555 1_555
H23 O3 1_555 1_555
N1 C7 1_555 1_555
N3 C19 1_555 1_555
C5 C6 1_555 1_555
C16 C17 1_555 1_555
C18 C19 1_555 1_555
C25 C26 1_555 1_555

#END
