
#######################################################################
#
#                 Cambridge Crystallographic Data Centre
#                                CCDC 
#
#######################################################################
#
# If this CIF has been generated from an entry in the Cambridge 
# Structural Database, then it will include bibliographic, chemical, 
# crystal, experimental, refinement or atomic coordinate data resulting 
# from the CCDC's data processing and validation procedures.
#
#######################################################################

data_REBKUG
_chemical_formula_moiety         'C14 H19 N1'
_chemical_name_systematic        1-(Adamantan-1-yl)-1H-pyrrole
_symmetry_cell_setting           monoclinic
_symmetry_space_group_name_H-M   'P 21/n'
_symmetry_Int_Tables_number      14
_space_group_name_Hall           '-P 2yn'
loop_
_symmetry_equiv_pos_site_id
_symmetry_equiv_pos_as_xyz
1 x,y,z
2 1/2-x,1/2+y,1/2-z
3 -x,-y,-z
4 1/2+x,1/2-y,1/2+z
_cell_length_a                   6.8853(12)
_cell_length_b                   7.3412(12)
_cell_length_c                   21.649(4)
_cell_angle_alpha                90
_cell_angle_beta                 97.930(3)
_cell_angle_gamma                90
_cell_volume                     1083.81
_exptl_crystal_colour            colorless
_cell_formula_units_Z            4
loop_
_atom_site_label
_atom_site_type_symbol
_atom_site_fract_x
_atom_site_fract_y
_atom_site_fract_z
N1 N 0.63161(14) 0.11275(14) 0.11696(4)
C1 C 0.48245(16) 0.25458(16) 0.12313(5)
C2 C 0.56046(18) 0.38604(17) 0.17608(6)
C3 C 0.43656(18) 0.36462(17) 0.06268(6)
C4 C 0.29315(18) 0.16319(16) 0.13772(6)
C5 C 0.27972(18) 0.50913(17) 0.07028(6)
C6 C 0.09220(18) 0.41649(17) 0.08507(6)
C7 C 0.13812(18) 0.30813(17) 0.14585(6)
C8 C 0.21813(19) 0.43646(18) 0.19915(6)
C9 C 0.35709(19) 0.63958(17) 0.12314(6)
C10 C 0.40461(19) 0.53106(17) 0.18389(6)
C11 C 0.71526(18) 0.00452(17) 0.16521(6)
C12 C 0.84272(18) -0.11427(17) 0.14307(6)
C13 C 0.70534(18) 0.06074(18) 0.06384(6)
C14 C 0.83630(18) -0.07884(18) 0.07863(6)
H1 H 0.240(2) 0.080(2) 0.1025(7)
H2 H 0.561(2) 0.422(2) 0.0530(7)
H3 H -0.011(2) 0.509(2) 0.0894(7)
H4 H 0.684(2) 0.444(2) 0.1651(7)
H5 H 0.017(2) 0.248(2) 0.1557(7)
H6 H 0.037(2) 0.330(2) 0.0505(7)
H7 H 0.114(2) 0.531(2) 0.2053(7)
H8 H 0.478(2) 0.703(2) 0.1133(7)
H9 H 0.321(2) 0.091(2) 0.1764(7)
H10 H 0.386(2) 0.281(2) 0.0277(7)
H11 H 0.664(2) 0.120(2) 0.0250(7)
H12 H 0.913(2) -0.137(2) 0.0501(7)
H13 H 0.248(2) 0.365(2) 0.2391(7)
H14 H 0.683(2) 0.018(2) 0.2071(7)
H15 H 0.254(2) 0.735(2) 0.1283(7)
H16 H 0.595(2) 0.316(2) 0.2153(7)
H17 H 0.921(2) -0.203(2) 0.1679(7)
H18 H 0.460(2) 0.614(2) 0.2190(7)
H19 H 0.249(2) 0.579(2) 0.0299(7)
loop_
_geom_bond_atom_site_label_1
_geom_bond_atom_site_label_2
_geom_bond_site_symmetry_1
_geom_bond_site_symmetry_2
N1 C1 1_555 1_555
C1 C2 1_555 1_555
C2 C10 1_555 1_555
C3 C1 1_555 1_555
C4 C1 1_555 1_555
C5 C3 1_555 1_555
C6 C5 1_555 1_555
C7 C4 1_555 1_555
C8 C7 1_555 1_555
C9 C5 1_555 1_555
C10 C8 1_555 1_555
C11 N1 1_555 1_555
C12 C11 1_555 1_555
C13 N1 1_555 1_555
C14 C12 1_555 1_555
H1 C4 1_555 1_555
H2 C3 1_555 1_555
H3 C6 1_555 1_555
H4 C2 1_555 1_555
H5 C7 1_555 1_555
H6 C6 1_555 1_555
H7 C8 1_555 1_555
H8 C9 1_555 1_555
H9 C4 1_555 1_555
H10 C3 1_555 1_555
H11 C13 1_555 1_555
H12 C14 1_555 1_555
H13 C8 1_555 1_555
H14 C11 1_555 1_555
H15 C9 1_555 1_555
H16 C2 1_555 1_555
H17 C12 1_555 1_555
H18 C10 1_555 1_555
H19 C5 1_555 1_555
C6 C7 1_555 1_555
C9 C10 1_555 1_555
C13 C14 1_555 1_555

#END
