
#######################################################################
#
#                 Cambridge Crystallographic Data Centre
#                                CCDC 
#
#######################################################################
#
# If this CIF has been generated from an entry in the Cambridge 
# Structural Database, then it will include bibliographic, chemical, 
# crystal, experimental, refinement or atomic coordinate data resulting 
# from the CCDC's data processing and validation procedures.
#
#######################################################################

data_RECDUY
_chemical_formula_moiety         'C16 H14 N2'
_chemical_name_systematic        
(+)-(2)(1,3)Benzeno(2)(3,5)pyridinophane-2-carbonitrile
_symmetry_cell_setting           orthorhombic
_symmetry_space_group_name_H-M   'P b c a'
_symmetry_Int_Tables_number      61
_space_group_name_Hall           '-P 2ac 2ab'
loop_
_symmetry_equiv_pos_site_id
_symmetry_equiv_pos_as_xyz
1 x,y,z
2 1/2-x,-y,1/2+z
3 -x,1/2+y,1/2-z
4 1/2+x,1/2-y,-z
5 -x,-y,-z
6 1/2+x,y,1/2-z
7 x,1/2-y,1/2+z
8 1/2-x,1/2+y,z
_cell_length_a                   12.120(1)
_cell_length_b                   13.464(1)
_cell_length_c                   15.084(1)
_cell_angle_alpha                90
_cell_angle_beta                 90
_cell_angle_gamma                90
_cell_volume                     2461.46
_exptl_crystal_colour            colorless
_chemical_melting_point          129-130deg.C
_cell_formula_units_Z            8
loop_
_atom_site_label
_atom_site_type_symbol
_atom_site_fract_x
_atom_site_fract_y
_atom_site_fract_z
N1 N 0.6600(2) 0.4755(2) 0.4147(2)
C1 C 0.5691(3) 0.4796(2) 0.3641(2)
C2 C 0.5260(3) 0.4003(2) 0.3158(2)
C3 C 0.4094(3) 0.3998(3) 0.2804(2)
H1 H 0.4056(3) 0.3582(3) 0.2271(2)
H2 H 0.3876(3) 0.4674(3) 0.2640(2)
C4 C 0.3287(3) 0.3584(2) 0.3526(2)
H3 H 0.3294(3) 0.4026(2) 0.4043(2)
H4 H 0.2535(3) 0.3572(2) 0.3289(2)
C5 C 0.3611(2) 0.2560(3) 0.3807(2)
C6 C 0.3204(3) 0.1721(3) 0.3385(2)
H5 H 0.2586(3) 0.1775(3) 0.3012(2)
C7 C 0.3697(3) 0.0811(3) 0.3508(2)
H6 H 0.3375(3) 0.0240(3) 0.3260(2)
C8 C 0.4670(3) 0.0725(3) 0.3997(2)
H7 H 0.5039(3) 0.0112(3) 0.4030(2)
C9 C 0.5090(3) 0.1552(2) 0.4434(2)
C10 C 0.6254(3) 0.1578(3) 0.4788(2)
H8 H 0.6481(3) 0.0906(3) 0.4958(2)
H9 H 0.6282(3) 0.1998(3) 0.5318(2)
C11 C 0.7070(3) 0.1995(3) 0.4072(2)
H10 H 0.7818(3) 0.2021(3) 0.4318(2)
H11 H 0.7079(3) 0.1552(3) 0.3557(2)
C12 C 0.6723(2) 0.3011(2) 0.3790(2)
C13 C 0.7067(3) 0.3863(3) 0.4234(2)
H12 H 0.7671(3) 0.3806(3) 0.4623(2)
C14 C 0.5855(3) 0.3125(2) 0.3191(2)
H13 H 0.5673(3) 0.2601(2) 0.2806(2)
C15 C 0.4497(2) 0.2434(2) 0.4387(2)
H14 H 0.4701(2) 0.2964(2) 0.4758(2)
C16 C 0.5136(3) 0.5757(3) 0.3624(2)
N2 N 0.4703(3) 0.6508(2) 0.3596(2)
loop_
_geom_bond_atom_site_label_1
_geom_bond_atom_site_label_2
_geom_bond_site_symmetry_1
_geom_bond_site_symmetry_2
N1 C1 1_555 1_555
C1 C2 1_555 1_555
C2 C3 1_555 1_555
C3 H1 1_555 1_555
H2 C3 1_555 1_555
C4 C3 1_555 1_555
H3 C4 1_555 1_555
H4 C4 1_555 1_555
C5 C4 1_555 1_555
C6 C5 1_555 1_555
H5 C6 1_555 1_555
C7 C6 1_555 1_555
H6 C7 1_555 1_555
C8 C7 1_555 1_555
H7 C8 1_555 1_555
C9 C8 1_555 1_555
C10 C9 1_555 1_555
H8 C10 1_555 1_555
H9 C10 1_555 1_555
C11 C10 1_555 1_555
H10 C11 1_555 1_555
H11 C11 1_555 1_555
C12 C11 1_555 1_555
C13 N1 1_555 1_555
H12 C13 1_555 1_555
C14 C2 1_555 1_555
H13 C14 1_555 1_555
C15 C5 1_555 1_555
H14 C15 1_555 1_555
C16 C1 1_555 1_555
N2 C16 1_555 1_555
C9 C15 1_555 1_555
C12 C13 1_555 1_555
C12 C14 1_555 1_555

#END
