
#######################################################################
#
#                 Cambridge Crystallographic Data Centre
#                                CCDC 
#
#######################################################################
#
# If this CIF has been generated from an entry in the Cambridge 
# Structural Database, then it will include bibliographic, chemical, 
# crystal, experimental, refinement or atomic coordinate data resulting 
# from the CCDC's data processing and validation procedures.
#
#######################################################################

data_RECZEF
_chemical_formula_moiety         '2(C70),5(C6 H6 O1)'
_chemical_name_systematic        'bis(C70fullerene) pentakis(phenol)'
_symmetry_cell_setting           monoclinic
_symmetry_space_group_name_H-M   'P 21/n'
_symmetry_Int_Tables_number      14
_space_group_name_Hall           '-P 2yn'
loop_
_symmetry_equiv_pos_site_id
_symmetry_equiv_pos_as_xyz
1 x,y,z
2 1/2-x,1/2+y,1/2-z
3 -x,-y,-z
4 1/2+x,1/2-y,1/2+z
_cell_length_a                   21.348(3)
_cell_length_b                   19.231(3)
_cell_length_c                   22.047(3)
_cell_angle_alpha                90
_cell_angle_beta                 105.139(3)
_cell_angle_gamma                90
_cell_volume                     8737.13
_exptl_crystal_colour            black
_exptl_crystal_description       plate
_cell_formula_units_Z            4
loop_
_atom_site_label
_atom_site_type_symbol
_atom_site_fract_x
_atom_site_fract_y
_atom_site_fract_z
O1 O 0.4187(3) 0.4145(3) 0.4298(3)
C1 C 0.3974(4) 0.3470(5) 0.4272(4)
C2 C 0.4227(5) 0.2994(5) 0.3921(4)
C3 C 0.4016(5) 0.2309(5) 0.3890(5)
C4 C 0.3564(5) 0.2081(5) 0.4203(5)
C5 C 0.3320(5) 0.2565(5) 0.4549(5)
C6 C 0.3520(5) 0.3248(5) 0.4582(5)
H6 H 0.446(4) 0.317(4) 0.363(4)
H9 H 0.415(4) 0.206(4) 0.363(4)
H11 H 0.342(4) 0.359(4) 0.485(4)
H12 H 0.302(4) 0.241(4) 0.474(4)
H19 H 0.345(4) 0.161(4) 0.418(4)
O2 O 0.3809(3) 0.4975(3) 0.5120(3)
C7 C 0.3214(4) 0.5319(5) 0.4989(4)
C8 C 0.3099(5) 0.5821(5) 0.5399(5)
C9 C 0.2493(5) 0.6141(5) 0.5267(5)
C10 C 0.2012(4) 0.5991(5) 0.4732(4)
C11 C 0.2142(4) 0.5495(5) 0.4333(4)
C12 C 0.2732(5) 0.5159(5) 0.4450(5)
H1 H 0.339(4) 0.586(4) 0.575(4)
H4 H 0.181(3) 0.536(4) 0.387(4)
H7 H 0.250(4) 0.645(4) 0.553(4)
H20 H 0.156(4) 0.632(4) 0.461(3)
H24 H 0.290(4) 0.486(4) 0.417(4)
O3 O 0.5226(3) 0.4569(3) 0.3921(3)
C13 C 0.5124(4) 0.4742(5) 0.3301(4)
C14 C 0.5618(5) 0.5074(5) 0.3085(5)
C15 C 0.5515(5) 0.5248(5) 0.2476(5)
C16 C 0.4940(4) 0.5118(5) 0.2039(5)
C17 C 0.4448(5) 0.4788(5) 0.2247(5)
C18 C 0.4536(5) 0.4603(5) 0.2847(5)
H14 H 0.409(4) 0.468(4) 0.194(4)
H15 H 0.582(4) 0.547(4) 0.232(4)
H17 H 0.428(4) 0.443(4) 0.310(4)
H21 H 0.484(4) 0.524(4) 0.158(4)
H22 H 0.594(4) 0.519(4) 0.342(4)
O4 O 0.0778(4) 0.0150(4) 0.4856(3)
C19 C 0.1404(5) 0.0405(5) 0.4937(5)
C20 C 0.1879(5) 0.0200(5) 0.5440(5)
C21 C 0.2500(5) 0.0463(5) 0.5544(5)
C22 C 0.2643(5) 0.0944(5) 0.5132(4)
C23 C 0.2162(5) 0.1138(5) 0.4608(5)
C24 C 0.1533(5) 0.0865(5) 0.4512(5)
H2 H 0.121(4) 0.103(4) 0.410(4)
H5 H 0.221(4) 0.146(4) 0.430(4)
H8 H 0.286(4) 0.029(4) 0.593(4)
H13 H 0.309(4) 0.117(4) 0.519(3)
H23 H 0.177(4) -0.001(4) 0.576(4)
O5 O 0.0414(3) 0.9249(4) 0.5639(3)
C25 C 0.0679(5) 0.8579(5) 0.5683(5)
C26 C 0.0482(5) 0.8103(6) 0.6068(5)
C27 C 0.0735(4) 0.7438(5) 0.6108(5)
C28 C 0.1161(4) 0.7239(5) 0.5765(4)
C29 C 0.1372(5) 0.7725(5) 0.5399(5)
C30 C 0.1116(5) 0.8385(5) 0.5352(5)
H3 H 0.121(4) 0.875(4) 0.506(4)
H10 H 0.133(4) 0.679(4) 0.585(4)
H16 H 0.163(4) 0.762(4) 0.510(4)
H18 H 0.064(4) 0.707(4) 0.638(4)
H25 H 0.022(4) 0.828(5) 0.630(4)
C31 C 0.4994(6) 0.2872(6) 0.7405(6)
C32 C 0.5600(6) 0.3185(6) 0.7758(6)
C33 C 0.5765(6) 0.3663(6) 0.7318(6)
C34 C 0.5317(6) 0.3633(6) 0.6737(7)
C35 C 0.4799(6) 0.3109(6) 0.6785(6)
C36 C 0.4538(5) 0.2678(7) 0.6295(6)
C37 C 0.4438(5) 0.1938(7) 0.6404(6)
C38 C 0.4617(5) 0.1708(6) 0.7027(6)
C39 C 0.4906(5) 0.2156(6) 0.7542(5)
C40 C 0.5406(5) 0.1768(6) 0.7977(5)
C41 C 0.5958(6) 0.2100(6) 0.8280(5)
C42 C 0.6073(6) 0.2824(6) 0.8166(5)
C43 C 0.6753(6) 0.2879(6) 0.8179(5)
C44 C 0.6920(6) 0.3341(6) 0.7780(6)
C45 C 0.6444(6) 0.3737(6) 0.7333(6)
C46 C 0.6601(6) 0.3785(5) 0.6745(6)
C47 C 0.6152(6) 0.3730(5) 0.6176(6)
C48 C 0.5461(6) 0.3653(6) 0.6163(6)
C49 C 0.5203(6) 0.3199(6) 0.5661(6)
C50 C 0.4738(5) 0.2717(7) 0.5722(6)
C51 C 0.4760(5) 0.2035(7) 0.5478(5)
C52 C 0.4575(5) 0.1561(7) 0.5899(5)
C53 C 0.4837(5) 0.0868(6) 0.6013(5)
C54 C 0.5029(5) 0.0613(6) 0.6653(6)
C55 C 0.4960(5) 0.1026(6) 0.7149(5)
C56 C 0.5435(5) 0.1080(6) 0.7743(5)
C57 C 0.6017(6) 0.0683(6) 0.7851(5)
C58 C 0.6613(5) 0.1033(6) 0.8187(5)
C59 C 0.6576(5) 0.1736(6) 0.8374(5)
C60 C 0.7060(5) 0.2233(7) 0.8292(5)
C61 C 0.7574(5) 0.2033(7) 0.8041(5)
C62 C 0.7766(5) 0.2507(6) 0.7608(5)
C63 C 0.7420(5) 0.3144(6) 0.7459(6)
C64 C 0.7232(5) 0.3412(6) 0.6846(6)
C65 C 0.7379(5) 0.3062(6) 0.6327(5)
C66 C 0.6896(5) 0.3015(6) 0.5728(5)
C67 C 0.6275(6) 0.3344(6) 0.5677(6)
C68 C 0.5700(6) 0.3006(6) 0.5357(5)
C69 C 0.5683(5) 0.2349(6) 0.5070(5)
C70 C 0.5212(5) 0.1816(7) 0.5134(5)
C71 C 0.5355(5) 0.1099(7) 0.5150(5)
C72 C 0.5178(5) 0.0648(6) 0.5570(5)
C73 C 0.5683(6) 0.0114(6) 0.5754(6)
C74 C 0.5871(6) -0.0145(5) 0.6347(6)
C75 C 0.5556(6) 0.0115(5) 0.6810(6)
C76 C 0.6023(6) 0.0168(5) 0.7402(6)
C77 C 0.6645(6) -0.0069(6) 0.7299(6)
C78 C 0.7207(6) 0.0239(6) 0.7625(6)
C79 C 0.7194(6) 0.0822(6) 0.8030(5)
C80 C 0.7672(5) 0.1322(7) 0.7963(5)
C81 C 0.7975(5) 0.1055(7) 0.7500(6)
C82 C 0.8154(5) 0.1516(7) 0.7092(6)
C83 C 0.8016(5) 0.2255(6) 0.7122(6)
C84 C 0.7844(5) 0.2519(6) 0.6499(6)
C85 C 0.7854(5) 0.1946(6) 0.6065(6)
C86 C 0.7393(5) 0.1899(6) 0.5518(5)
C87 C 0.6894(5) 0.2422(6) 0.5345(5)
C88 C 0.6306(5) 0.2093(6) 0.5024(5)
C89 C 0.6432(6) 0.1351(7) 0.4978(5)
C90 C 0.5983(6) 0.0880(7) 0.5056(5)
C91 C 0.6159(6) 0.0253(6) 0.5403(6)
C92 C 0.6812(6) 0.0136(6) 0.5707(6)
C93 C 0.7015(6) -0.0135(6) 0.6319(7)
C94 C 0.6551(6) -0.0278(5) 0.6674(6)
C95 C 0.7705(6) 0.0390(6) 0.7284(6)
C96 C 0.7618(6) 0.0203(6) 0.6684(6)
C97 C 0.7785(6) 0.0678(6) 0.6230(6)
C98 C 0.8065(5) 0.1328(7) 0.6455(6)
C99 C 0.7308(6) 0.0631(6) 0.5647(6)
C100 C 0.7112(6) 0.1226(6) 0.5283(5)
C101 C 0.1180(8) 0.1588(7) 0.7927(8)
C102 C 0.1175(8) 0.2119(8) 0.8350(7)
C103 C 0.0506(7) 0.2472(8) 0.8162(7)
C104 C 0.0173(7) 0.2094(8) 0.7680(8)
C105 C 0.0540(8) 0.1529(7) 0.7447(8)
C106 C 0.0490(8) 0.1387(7) 0.6886(9)
C107 C 0.1033(8) 0.1278(6) 0.6592(8)
C108 C 0.1662(8) 0.1282(6) 0.7057(8)
C109 C 0.1713(8) 0.1422(7) 0.7691(8)
C110 C 0.2290(7) 0.1877(8) 0.7933(7)
C111 C 0.2277(7) 0.2416(9) 0.8358(6)
C112 C 0.1689(8) 0.2526(9) 0.8558(6)
C113 C 0.1682(7) 0.3301(9) 0.8591(5)
C114 C 0.1039(7) 0.3596(8) 0.8448(6)
C115 C 0.0515(7) 0.3196(8) 0.8238(6)
C116 C 0.0021(6) 0.3536(7) 0.7711(7)
C117 C -0.0332(6) 0.3211(8) 0.7231(7)
C118 C -0.0283(6) 0.2435(8) 0.7147(8)
C119 C -0.0332(6) 0.2287(8) 0.6565(8)
C120 C 0.0046(7) 0.1798(7) 0.6326(8)
C121 C 0.0323(7) 0.1874(7) 0.5873(7)
C122 C 0.0987(7) 0.1573(6) 0.6015(7)
C123 C 0.1496(7) 0.1844(6) 0.5819(7)
C124 C 0.2145(7) 0.1887(6) 0.6254(7)
C125 C 0.2207(7) 0.1619(6) 0.6867(7)
C126 C 0.2584(6) 0.1962(7) 0.7436(7)
C127 C 0.2920(5) 0.2608(8) 0.7364(7)
C128 C 0.2898(5) 0.3168(8) 0.7826(6)
C129 C 0.2583(6) 0.3077(9) 0.8251(6)
C130 C 0.2163(7) 0.3632(9) 0.8418(5)
C131 C 0.2147(7) 0.4274(8) 0.8097(6)
C132 C 0.1451(7) 0.4569(7) 0.7953(6)
C133 C 0.0705(8) 0.4554(8) 0.5364(7)
C134 C 0.0972(7) 0.4236(7) 0.8081(6)
C135 C 0.0338(6) 0.4177(7) 0.7658(6)
C136 C 0.0219(6) 0.4513(7) 0.7073(7)
C137 C -0.0171(6) 0.4176(7) 0.6512(7)
C138 C -0.0431(5) 0.3476(8) 0.6596(7)
C139 C -0.0415(5) 0.2955(8) 0.6148(7)
C140 C -0.0182(6) 0.3029(9) 0.5652(6)
C141 C 0.0227(6) 0.2475(8) 0.5459(6)
C142 C 0.0695(7) 0.2629(8) 0.5215(5)
C143 C 0.1354(7) 0.2367(7) 0.5336(6)
C144 C 0.1817(7) 0.2837(8) 0.5289(6)
C145 C 0.2405(7) 0.2937(7) 0.5670(6)
C146 C 0.2599(6) 0.2449(7) 0.6221(7)
C147 C 0.2960(5) 0.2746(7) 0.6765(7)
C148 C 0.3046(6) 0.3516(8) 0.6576(7)
C149 C 0.2740(6) 0.3524(8) 0.5961(7)
C150 C 0.2350(7) 0.4168(8) 0.5669(7)
C151 C 0.1761(8) 0.4102(8) 0.5243(6)
C152 C 0.1444(7) 0.3500(9) 0.5031(5)
C153 C 0.0810(7) 0.3338(9) 0.5000(5)
C154 C 0.0395(7) 0.3878(9) 0.5136(6)
C155 C -0.0033(6) 0.3744(9) 0.5486(6)
C156 C -0.0057(6) 0.4283(8) 0.5942(7)
C157 C 0.0435(7) 0.4814(8) 0.5851(7)
C158 C 0.0773(8) 0.5147(6) 0.6386(8)
C159 C 0.0699(7) 0.4990(6) 0.6989(7)
C160 C 0.1358(7) 0.5010(6) 0.7438(7)
C161 C 0.1783(8) 0.5195(6) 0.7083(8)
C162 C 0.2443(7) 0.4859(7) 0.7207(8)
C163 C 0.2551(7) 0.4409(8) 0.7757(7)
C164 C 0.2951(6) 0.3866(8) 0.7571(7)
C165 C 0.3039(6) 0.3973(8) 0.7004(7)
C166 C 0.2670(7) 0.4680(7) 0.6712(8)
C167 C 0.2396(7) 0.4677(8) 0.6114(8)
C168 C 0.1722(8) 0.5048(7) 0.5937(8)
C169 C 0.1504(8) 0.5275(6) 0.6428(8)
C170 C 0.1357(8) 0.4679(8) 0.5408(7)
loop_
_geom_bond_atom_site_label_1
_geom_bond_atom_site_label_2
_geom_bond_site_symmetry_1
_geom_bond_site_symmetry_2
O1 C1 1_555 1_555
C1 C2 1_555 1_555
C2 C3 1_555 1_555
C3 C4 1_555 1_555
C4 C5 1_555 1_555
C5 C6 1_555 1_555
C6 C1 1_555 1_555
O2 C7 1_555 1_555
C7 C8 1_555 1_555
C8 C9 1_555 1_555
C9 C10 1_555 1_555
C10 C11 1_555 1_555
C11 C12 1_555 1_555
C12 C7 1_555 1_555
O3 C13 1_555 1_555
C13 C14 1_555 1_555
C14 C15 1_555 1_555
C15 C16 1_555 1_555
C16 C17 1_555 1_555
C17 C18 1_555 1_555
C18 C13 1_555 1_555
O4 C19 1_555 1_555
C19 C20 1_555 1_555
C20 C21 1_555 1_555
C21 C22 1_555 1_555
C22 C23 1_555 1_555
C23 C24 1_555 1_555
C24 C19 1_555 1_555
O5 C25 1_555 1_555
C25 C26 1_555 1_555
C26 C27 1_555 1_555
C27 C28 1_555 1_555
C28 C29 1_555 1_555
C29 C30 1_555 1_555
C30 C25 1_555 1_555
H1 C8 1_555 1_555
H2 C24 1_555 1_555
H3 C30 1_555 1_555
H4 C11 1_555 1_555
H5 C23 1_555 1_555
H6 C2 1_555 1_555
H7 C9 1_555 1_555
H8 C21 1_555 1_555
H9 C3 1_555 1_555
H10 C28 1_555 1_555
H11 C6 1_555 1_555
H12 C5 1_555 1_555
H13 C22 1_555 1_555
H14 C17 1_555 1_555
H15 C15 1_555 1_555
H16 C29 1_555 1_555
H17 C18 1_555 1_555
H18 C27 1_555 1_555
H19 C4 1_555 1_555
H20 C10 1_555 1_555
H21 C16 1_555 1_555
H22 C14 1_555 1_555
H23 C20 1_555 1_555
H24 C12 1_555 1_555
H25 C26 1_555 1_555
C31 C32 1_555 1_555
C32 C33 1_555 1_555
C33 C34 1_555 1_555
C34 C35 1_555 1_555
C35 C31 1_555 1_555
C36 C35 1_555 1_555
C37 C36 1_555 1_555
C38 C37 1_555 1_555
C39 C31 1_555 1_555
C40 C39 1_555 1_555
C41 C40 1_555 1_555
C42 C32 1_555 1_555
C43 C42 1_555 1_555
C44 C43 1_555 1_555
C45 C33 1_555 1_555
C46 C45 1_555 1_555
C47 C46 1_555 1_555
C48 C34 1_555 1_555
C49 C48 1_555 1_555
C50 C36 1_555 1_555
C51 C50 1_555 1_555
C52 C37 1_555 1_555
C53 C52 1_555 1_555
C54 C53 1_555 1_555
C55 C38 1_555 1_555
C56 C40 1_555 1_555
C57 C56 1_555 1_555
C58 C57 1_555 1_555
C59 C41 1_555 1_555
C60 C43 1_555 1_555
C61 C60 1_555 1_555
C62 C61 1_555 1_555
C63 C44 1_555 1_555
C64 C46 1_555 1_555
C65 C64 1_555 1_555
C66 C65 1_555 1_555
C67 C47 1_555 1_555
C68 C49 1_555 1_555
C69 C68 1_555 1_555
C70 C51 1_555 1_555
C71 C70 1_555 1_555
C72 C53 1_555 1_555
C73 C72 1_555 1_555
C74 C73 1_555 1_555
C75 C54 1_555 1_555
C76 C57 1_555 1_555
C77 C76 1_555 1_555
C78 C77 1_555 1_555
C79 C58 1_555 1_555
C80 C61 1_555 1_555
C81 C80 1_555 1_555
C82 C81 1_555 1_555
C83 C62 1_555 1_555
C84 C65 1_555 1_555
C85 C84 1_555 1_555
C86 C85 1_555 1_555
C87 C66 1_555 1_555
C88 C69 1_555 1_555
C89 C88 1_555 1_555
C90 C71 1_555 1_555
C91 C73 1_555 1_555
C92 C91 1_555 1_555
C93 C92 1_555 1_555
C94 C74 1_555 1_555
C95 C78 1_555 1_555
C96 C93 1_555 1_555
C97 C96 1_555 1_555
C98 C82 1_555 1_555
C99 C92 1_555 1_555
C100 C86 1_555 1_555
C101 C102 1_555 1_555
C102 C103 1_555 1_555
C103 C104 1_555 1_555
C104 C105 1_555 1_555
C105 C101 1_555 1_555
C106 C105 1_555 1_555
C107 C106 1_555 1_555
C108 C107 1_555 1_555
C109 C101 1_555 1_555
C110 C109 1_555 1_555
C111 C110 1_555 1_555
C112 C102 1_555 1_555
C113 C112 1_555 1_555
C114 C113 1_555 1_555
C115 C103 1_555 1_555
C116 C115 1_555 1_555
C117 C116 1_555 1_555
C118 C104 1_555 1_555
C119 C118 1_555 1_555
C120 C106 1_555 1_555
C121 C120 1_555 1_555
C122 C107 1_555 1_555
C123 C122 1_555 1_555
C124 C123 1_555 1_555
C125 C108 1_555 1_555
C126 C110 1_555 1_555
C127 C126 1_555 1_555
C128 C127 1_555 1_555
C129 C111 1_555 1_555
C130 C113 1_555 1_555
C131 C130 1_555 1_555
C132 C131 1_555 1_555
C133 C154 1_555 1_555
C134 C114 1_555 1_555
C135 C116 1_555 1_555
C136 C135 1_555 1_555
C137 C136 1_555 1_555
C138 C117 1_555 1_555
C139 C119 1_555 1_555
C140 C139 1_555 1_555
C141 C121 1_555 1_555
C142 C141 1_555 1_555
C143 C123 1_555 1_555
C144 C143 1_555 1_555
C145 C144 1_555 1_555
C146 C124 1_555 1_555
C147 C127 1_555 1_555
C148 C147 1_555 1_555
C149 C145 1_555 1_555
C150 C149 1_555 1_555
C151 C150 1_555 1_555
C152 C144 1_555 1_555
C153 C142 1_555 1_555
C154 C153 1_555 1_555
C155 C140 1_555 1_555
C156 C137 1_555 1_555
C157 C133 1_555 1_555
C158 C157 1_555 1_555
C159 C136 1_555 1_555
C160 C132 1_555 1_555
C161 C160 1_555 1_555
C162 C161 1_555 1_555
C163 C131 1_555 1_555
C164 C128 1_555 1_555
C165 C148 1_555 1_555
C166 C162 1_555 1_555
C167 C150 1_555 1_555
C168 C167 1_555 1_555
C169 C158 1_555 1_555
C170 C133 1_555 1_555
C38 C39 1_555 1_555
C41 C42 1_555 1_555
C44 C45 1_555 1_555
C47 C48 1_555 1_555
C49 C50 1_555 1_555
C51 C52 1_555 1_555
C54 C55 1_555 1_555
C55 C56 1_555 1_555
C58 C59 1_555 1_555
C59 C60 1_555 1_555
C62 C63 1_555 1_555
C63 C64 1_555 1_555
C66 C67 1_555 1_555
C67 C68 1_555 1_555
C69 C70 1_555 1_555
C71 C72 1_555 1_555
C74 C75 1_555 1_555
C75 C76 1_555 1_555
C77 C94 1_555 1_555
C78 C79 1_555 1_555
C79 C80 1_555 1_555
C81 C95 1_555 1_555
C82 C83 1_555 1_555
C83 C84 1_555 1_555
C85 C98 1_555 1_555
C86 C87 1_555 1_555
C87 C88 1_555 1_555
C89 C90 1_555 1_555
C89 C100 1_555 1_555
C90 C91 1_555 1_555
C93 C94 1_555 1_555
C95 C96 1_555 1_555
C97 C98 1_555 1_555
C97 C99 1_555 1_555
C99 C100 1_555 1_555
C108 C109 1_555 1_555
C111 C112 1_555 1_555
C114 C115 1_555 1_555
C117 C118 1_555 1_555
C119 C120 1_555 1_555
C121 C122 1_555 1_555
C124 C125 1_555 1_555
C125 C126 1_555 1_555
C128 C129 1_555 1_555
C129 C130 1_555 1_555
C132 C134 1_555 1_555
C134 C135 1_555 1_555
C137 C138 1_555 1_555
C138 C139 1_555 1_555
C140 C141 1_555 1_555
C142 C143 1_555 1_555
C145 C146 1_555 1_555
C146 C147 1_555 1_555
C148 C149 1_555 1_555
C151 C152 1_555 1_555
C151 C170 1_555 1_555
C152 C153 1_555 1_555
C154 C155 1_555 1_555
C155 C156 1_555 1_555
C156 C157 1_555 1_555
C158 C159 1_555 1_555
C159 C160 1_555 1_555
C161 C169 1_555 1_555
C162 C163 1_555 1_555
C163 C164 1_555 1_555
C164 C165 1_555 1_555
C165 C166 1_555 1_555
C166 C167 1_555 1_555
C168 C169 1_555 1_555
C168 C170 1_555 1_555

#END
