
#######################################################################
#
#                 Cambridge Crystallographic Data Centre
#                                CCDC 
#
#######################################################################
#
# If this CIF has been generated from an entry in the Cambridge 
# Structural Database, then it will include bibliographic, chemical, 
# crystal, experimental, refinement or atomic coordinate data resulting 
# from the CCDC's data processing and validation procedures.
#
#######################################################################

data_REDFEL01
_chemical_formula_moiety         'C34 H26'
_chemical_name_systematic        
1,1',1'',1'''-[1,4-phenylenebis(ethene-2,1,1-triyl)]tetrabenzene
_symmetry_cell_setting           triclinic
_symmetry_space_group_name_H-M   'P -1'
_symmetry_Int_Tables_number      2
_space_group_name_Hall           '-P 1'
loop_
_symmetry_equiv_pos_site_id
_symmetry_equiv_pos_as_xyz
1 x,y,z
2 -x,-y,-z
_cell_length_a                   9.1613(18)
_cell_length_b                   11.267(2)
_cell_length_c                   13.686(3)
_cell_angle_alpha                103.00(3)
_cell_angle_beta                 108.72(3)
_cell_angle_gamma                103.56(3)
_cell_volume                     1229.57
_exptl_crystal_colour            colorless
_exptl_crystal_description       block
_cell_formula_units_Z            2
loop_
_atom_site_label
_atom_site_type_symbol
_atom_site_fract_x
_atom_site_fract_y
_atom_site_fract_z
C1 C 1.10819(18) -0.06682(13) 1.00007(11)
H1 H 1.180910 -0.112033 0.999211
C2 C 1.05005(18) -0.02142(14) 0.91468(11)
H2 H 1.084869 -0.036171 0.857647
C3 C 0.94002(18) 0.04616(13) 0.91245(11)
C4 C 0.88276(19) 0.10292(14) 0.82674(11)
H3 H 0.864243 0.180208 0.849420
C5 C 0.85345(17) 0.05879(13) 0.72028(11)
C6 C 0.84439(18) -0.07375(13) 0.66383(11)
C7 C 0.9232(2) -0.09463(16) 0.59383(12)
H4 H 0.986421 -0.024277 0.584004
C8 C 0.9096(3) -0.2179(2) 0.53835(15)
H5 H 0.963235 -0.229936 0.491510
C9 C 0.8175(3) -0.32242(19) 0.55212(16)
H6 H 0.808151 -0.405536 0.514726
C10 C 0.7386(3) -0.30383(17) 0.62165(16)
H7 H 0.676714 -0.374726 0.631635
C11 C 0.7506(2) -0.18107(15) 0.67659(13)
H8 H 0.695568 -0.169862 0.722598
C12 C 0.81838(18) 0.14268(14) 0.65212(11)
C13 C 0.7077(2) 0.08988(16) 0.54362(12)
H9 H 0.661942 0.000620 0.511755
C14 C 0.6651(2) 0.16764(18) 0.48286(14)
H10 H 0.590376 0.130707 0.410679
C15 C 0.7323(3) 0.2996(2) 0.52834(16)
H11 H 0.701205 0.351969 0.487627
C16 C 0.8457(2) 0.35411(17) 0.63427(15)
H12 H 0.892868 0.443421 0.664793
C17 C 0.8898(2) 0.27628(14) 0.69540(13)
H13 H 0.968224 0.313799 0.766447
C1A C 0.89181(18) 0.06682(13) 0.99993(11)
H1A H 0.819090 0.112033 1.000789
C2A C 0.94995(18) 0.02142(14) 1.08532(11)
H2A H 0.915131 0.036171 1.142353
C3A C 1.05998(18) -0.04616(13) 1.08755(11)
C4A C 1.11724(19) -0.10292(14) 1.17326(11)
H3A H 1.135757 -0.180208 1.150580
C5A C 1.14655(17) -0.05879(13) 1.27972(11)
C6A C 1.15561(18) 0.07375(13) 1.33617(11)
C7A C 1.0768(2) 0.09463(16) 1.40617(12)
H4A H 1.013579 0.024277 1.415996
C8A C 1.0904(3) 0.2179(2) 1.46165(15)
H5A H 1.036765 0.229936 1.508490
C9A C 1.1825(3) 0.32242(19) 1.44788(16)
H6A H 1.191849 0.405536 1.485274
C10A C 1.2614(3) 0.30383(17) 1.37835(16)
H7A H 1.323286 0.374726 1.368365
C11A C 1.2494(2) 0.18107(15) 1.32341(13)
H8A H 1.304432 0.169862 1.277402
C12A C 1.18162(18) -0.14268(14) 1.34788(11)
C13A C 1.2923(2) -0.08988(16) 1.45638(12)
H9A H 1.338058 -0.000620 1.488245
C14A C 1.3349(2) -0.16764(18) 1.51714(14)
H10A H 1.409624 -0.130707 1.589321
C15A C 1.2677(3) -0.2996(2) 1.47166(16)
H11A H 1.298795 -0.351969 1.512373
C16A C 1.1543(2) -0.35411(17) 1.36573(15)
H12A H 1.107132 -0.443421 1.335207
C17A C 1.1102(2) -0.27628(14) 1.30460(13)
H13A H 1.031776 -0.313799 1.233553
C18 C -0.15093(18) 0.45660(14) 0.00416(13)
H14 H -0.252112 0.426673 0.007702
C19 C -0.02693(18) 0.41261(14) 0.05309(13)
H15 H -0.046733 0.353223 0.088708
C20 C 0.12647(18) 0.45472(14) 0.05048(12)
C21 C 0.25132(19) 0.39881(15) 0.09877(13)
H16 H 0.211143 0.313665 0.095823
C22 C 0.41459(18) 0.45346(14) 0.14631(12)
C23 C 0.49609(17) 0.59457(14) 0.17513(11)
C24 C 0.6181(2) 0.64182(16) 0.14176(14)
H17 H 0.651027 0.584643 0.100271
C25 C 0.6919(2) 0.77306(19) 0.1693(2)
H18 H 0.772902 0.803689 0.145323
C26 C 0.6464(3) 0.85852(19) 0.2317(2)
H19 H 0.697238 0.946944 0.250738
C27 C 0.5268(3) 0.8135(2) 0.26564(18)
H20 H 0.494545 0.871304 0.307162
C28 C 0.4531(2) 0.68252(17) 0.23866(14)
H21 H 0.372965 0.652780 0.263650
C29 C 0.52146(18) 0.37503(15) 0.17624(12)
C30 C 0.6750(2) 0.43155(17) 0.26112(14)
H22 H 0.711617 0.519365 0.299524
C31 C 0.7738(2) 0.35841(19) 0.28902(16)
H23 H 0.875803 0.397665 0.346456
C32 C 0.7242(3) 0.2299(2) 0.23375(17)
H24 H 0.792012 0.181785 0.252590
C33 C 0.5733(3) 0.1724(2) 0.15018(18)
H25 H 0.537930 0.084484 0.112561
C34 C 0.4731(2) 0.24397(17) 0.12121(16)
H26 H 0.371258 0.203500 0.063747
C18A C 0.15093(18) 0.54340(14) -0.00416(13)
H14A H 0.252112 0.573327 -0.007702
C19A C 0.02693(18) 0.58739(14) -0.05309(13)
H15A H 0.046733 0.646777 -0.088708
C20A C -0.12647(18) 0.54528(14) -0.05048(12)
C21A C -0.25132(19) 0.60119(15) -0.09877(13)
H16A H -0.211143 0.686335 -0.095823
C22A C -0.41459(18) 0.54654(14) -0.14631(12)
C23A C -0.49609(17) 0.40543(14) -0.17513(11)
C24A C -0.6181(2) 0.35818(16) -0.14176(14)
H17A H -0.651027 0.415357 -0.100271
C25A C -0.6919(2) 0.22694(19) -0.1693(2)
H18A H -0.772902 0.196311 -0.145323
C26A C -0.6464(3) 0.14148(19) -0.2317(2)
H19A H -0.697238 0.053056 -0.250738
C27A C -0.5268(3) 0.1865(2) -0.26564(18)
H20A H -0.494545 0.128696 -0.307162
C28A C -0.4531(2) 0.31748(17) -0.23866(14)
H21A H -0.372965 0.347220 -0.263650
C29A C -0.52146(18) 0.62497(15) -0.17624(12)
C30A C -0.6750(2) 0.56845(17) -0.26112(14)
H22A H -0.711617 0.480635 -0.299524
C31A C -0.7738(2) 0.64159(19) -0.28902(16)
H23A H -0.875803 0.602335 -0.346456
C32A C -0.7242(3) 0.7701(2) -0.23375(17)
H24A H -0.792012 0.818215 -0.252590
C33A C -0.5733(3) 0.8276(2) -0.15018(18)
H25A H -0.537930 0.915516 -0.112561
C34A C -0.4731(2) 0.75603(17) -0.12121(16)
H26A H -0.371258 0.796500 -0.063747
loop_
_geom_bond_atom_site_label_1
_geom_bond_atom_site_label_2
_geom_bond_site_symmetry_1
_geom_bond_site_symmetry_2
C1 H1 1_555 1_555
C2 C1 1_555 1_555
H2 C2 1_555 1_555
C3 C2 1_555 1_555
C4 C3 1_555 1_555
H3 C4 1_555 1_555
C5 C4 1_555 1_555
C6 C5 1_555 1_555
C7 C6 1_555 1_555
H4 C7 1_555 1_555
C8 C7 1_555 1_555
H5 C8 1_555 1_555
C9 C8 1_555 1_555
H6 C9 1_555 1_555
C10 C9 1_555 1_555
H7 C10 1_555 1_555
C11 C6 1_555 1_555
H8 C11 1_555 1_555
C12 C5 1_555 1_555
C13 C12 1_555 1_555
H9 C13 1_555 1_555
C14 C13 1_555 1_555
H10 C14 1_555 1_555
C15 C14 1_555 1_555
H11 C15 1_555 1_555
C16 C15 1_555 1_555
H12 C16 1_555 1_555
C17 C12 1_555 1_555
H13 C17 1_555 1_555
C18 H14 1_555 1_555
C19 C18 1_555 1_555
H15 C19 1_555 1_555
C20 C19 1_555 1_555
C21 C20 1_555 1_555
H16 C21 1_555 1_555
C22 C21 1_555 1_555
C23 C22 1_555 1_555
C24 C23 1_555 1_555
H17 C24 1_555 1_555
C25 C24 1_555 1_555
H18 C25 1_555 1_555
C26 C25 1_555 1_555
H19 C26 1_555 1_555
C27 C26 1_555 1_555
H20 C27 1_555 1_555
C28 C23 1_555 1_555
H21 C28 1_555 1_555
C29 C22 1_555 1_555
C30 C29 1_555 1_555
H22 C30 1_555 1_555
C31 C30 1_555 1_555
H23 C31 1_555 1_555
C32 C31 1_555 1_555
H24 C32 1_555 1_555
C33 C32 1_555 1_555
H25 C33 1_555 1_555
C34 C29 1_555 1_555
H26 C34 1_555 1_555
C1A C3 1_555 1_555
H1A C1A 1_555 1_555
C2A C1A 1_555 1_555
H2A C2A 1_555 1_555
C3A C1 1_555 1_555
C4A C3A 1_555 1_555
H3A C4A 1_555 1_555
C5A C4A 1_555 1_555
C6A C5A 1_555 1_555
C7A C6A 1_555 1_555
H4A C7A 1_555 1_555
C8A C7A 1_555 1_555
H5A C8A 1_555 1_555
C9A C8A 1_555 1_555
H6A C9A 1_555 1_555
C10A C9A 1_555 1_555
H7A C10A 1_555 1_555
C11A C6A 1_555 1_555
H8A C11A 1_555 1_555
C12A C5A 1_555 1_555
C13A C12A 1_555 1_555
H9A C13A 1_555 1_555
C14A C13A 1_555 1_555
H10A C14A 1_555 1_555
C15A C14A 1_555 1_555
H11A C15A 1_555 1_555
C16A C15A 1_555 1_555
H12A C16A 1_555 1_555
C17A C12A 1_555 1_555
H13A C17A 1_555 1_555
C18A C20 1_555 1_555
H14A C18A 1_555 1_555
C19A C18A 1_555 1_555
H15A C19A 1_555 1_555
C20A C18 1_555 1_555
C21A C20A 1_555 1_555
H16A C21A 1_555 1_555
C22A C21A 1_555 1_555
C23A C22A 1_555 1_555
C24A C23A 1_555 1_555
H17A C24A 1_555 1_555
C25A C24A 1_555 1_555
H18A C25A 1_555 1_555
C26A C25A 1_555 1_555
H19A C26A 1_555 1_555
C27A C26A 1_555 1_555
H20A C27A 1_555 1_555
C28A C23A 1_555 1_555
H21A C28A 1_555 1_555
C29A C22A 1_555 1_555
C30A C29A 1_555 1_555
H22A C30A 1_555 1_555
C31A C30A 1_555 1_555
H23A C31A 1_555 1_555
C32A C31A 1_555 1_555
H24A C32A 1_555 1_555
C33A C32A 1_555 1_555
H25A C33A 1_555 1_555
C34A C29A 1_555 1_555
H26A C34A 1_555 1_555
C10 C11 1_555 1_555
C16 C17 1_555 1_555
C27 C28 1_555 1_555
C33 C34 1_555 1_555
C2A C3A 1_555 1_555
C10A C11A 1_555 1_555
C16A C17A 1_555 1_555
C19A C20A 1_555 1_555
C27A C28A 1_555 1_555
C33A C34A 1_555 1_555

#END
