
#######################################################################
#
#                 Cambridge Crystallographic Data Centre
#                                CCDC 
#
#######################################################################
#
# If this CIF has been generated from an entry in the Cambridge 
# Structural Database, then it will include bibliographic, chemical, 
# crystal, experimental, refinement or atomic coordinate data resulting 
# from the CCDC's data processing and validation procedures.
#
#######################################################################

data_REDHIR03
_chemical_formula_moiety         'C24 H16 N2'
_chemical_name_systematic        
2,2'-(1,4-Phenylene)bis(3-phenylacrylonitrile)
_symmetry_cell_setting           monoclinic
_symmetry_space_group_name_H-M   'P 2/c'
_symmetry_Int_Tables_number      13
_space_group_name_Hall           '-P 2yc'
loop_
_symmetry_equiv_pos_site_id
_symmetry_equiv_pos_as_xyz
1 x,y,z
2 -x,y,1/2-z
3 -x,-y,-z
4 x,-y,1/2+z
_cell_length_a                   26.930(6)
_cell_length_b                   6.9117(14)
_cell_length_c                   9.772(2)
_cell_angle_alpha                90
_cell_angle_beta                 100.45(3)
_cell_angle_gamma                90
_cell_volume                     1788.71
_exptl_crystal_colour            yellow
_exptl_crystal_description       block
_chemical_melting_point          '257 deg.C'
_cell_formula_units_Z            4
loop_
_atom_site_label
_atom_site_type_symbol
_atom_site_fract_x
_atom_site_fract_y
_atom_site_fract_z
N1 N 0.4194(15) 0.476(7) 0.711(4)
C1 C 0.52254(17) 0.1429(7) 0.4353(5)
H1 H 0.5374 0.2417 0.3922
C2 C 0.48655(18) 0.1880(6) 0.5150(6)
H2 H 0.4778 0.3168 0.5244
C3 C 0.46326(15) 0.0461(7) 0.5811(5)
C4 C 0.42418(16) 0.1012(6) 0.6669(5)
C5 C 0.4164(2) 0.3010(8) 0.6788(7)
C6 C 0.39811(15) -0.0246(6) 0.7271(5)
H3 H 0.4064 -0.1523 0.7114
C7 C 0.35921(15) -0.0076(6) 0.8127(4)
C8 C 0.3439(2) 0.1685(8) 0.8627(6)
H4 H 0.3589 0.2834 0.8419
C9 C 0.3060(2) 0.1717(9) 0.9439(6)
H5 H 0.2958 0.2886 0.9770
C10 C 0.28396(18) 0.0000(9) 0.9747(6)
H6 H 0.2585 0.0018 1.0274
C11 C 0.2992(2) -0.1698(9) 0.9285(6)
H7 H 0.2846 -0.2848 0.9506
C12 C 0.33627(19) -0.1732(8) 0.8489(6)
H8 H 0.3463 -0.2919 0.8182
N1B N 0.5806(15) -0.476(7) 0.289(4)
C1B C 0.47746(17) -0.1429(7) 0.5647(5)
H1B H 0.4626 -0.2417 0.6078
C2B C 0.51345(18) -0.1880(6) 0.4850(6)
H2B H 0.5222 -0.3168 0.4756
C3B C 0.53674(15) -0.0461(7) 0.4189(5)
C4B C 0.57582(16) -0.1012(6) 0.3331(5)
C5B C 0.5836(2) -0.3010(8) 0.3212(7)
C6B C 0.60189(15) 0.0246(6) 0.2729(5)
H3B H 0.5936 0.1523 0.2886
C7B C 0.64079(15) 0.0076(6) 0.1873(4)
C8B C 0.6561(2) -0.1685(8) 0.1373(6)
H4B H 0.6411 -0.2834 0.1581
C9B C 0.6940(2) -0.1717(9) 0.0561(6)
H5B H 0.7042 -0.2886 0.0230
C10B C 0.71604(18) 0.0000(9) 0.0253(6)
H6B H 0.7415 -0.0018 -0.0274
C11B C 0.7008(2) 0.1698(9) 0.0715(6)
H7B H 0.7154 0.2848 0.0494
C12B C 0.66373(19) 0.1732(8) 0.1511(6)
H8B H 0.6537 0.2919 0.1818
N3 N 0.0955(19) 0.018(8) 0.254(5)
C13 C 0.02211(17) 0.6418(7) 0.0888(5)
H9 H 0.0369 0.7391 0.1482
C14 C 0.01365(17) 0.3100(6) 0.0255(5)
H10 H 0.0226 0.1809 0.0415
C15 C 0.03663(14) 0.4503(7) 0.1175(4)
C16 C 0.07526(15) 0.3944(6) 0.2406(5)
C17 C 0.0833(2) 0.1885(8) 0.2600(6)
C18 C 0.10190(16) 0.5185(6) 0.3289(5)
H11 H 0.0944 0.6475 0.3075
C19 C 0.14060(15) 0.4915(6) 0.4529(4)
C20 C 0.1538(2) 0.3156(8) 0.5158(6)
H12 H 0.1378 0.2027 0.4795
C21 C 0.1921(2) 0.3086(9) 0.6359(6)
H13 H 0.2011 0.1907 0.6791
C22 C 0.21592(18) 0.4766(10) 0.6894(6)
H14 H 0.2416 0.4713 0.7671
C23 C 0.2020(2) 0.6479(9) 0.6287(6)
H15 H 0.2176 0.7607 0.6662
C24 C 0.16505(18) 0.6581(8) 0.5129(5)
H16 H 0.1560 0.7780 0.4730
N3B N -0.0955(19) 0.982(8) -0.254(5)
C13B C -0.02211(17) 0.3582(7) -0.0888(5)
H9B H -0.0369 0.2609 -0.1482
C14B C -0.01365(17) 0.6900(6) -0.0255(5)
H10B H -0.0226 0.8191 -0.0415
C15B C -0.03663(14) 0.5497(7) -0.1175(4)
C16B C -0.07526(15) 0.6056(6) -0.2406(5)
C17B C -0.0833(2) 0.8115(8) -0.2600(6)
C18B C -0.10190(16) 0.4815(6) -0.3289(5)
H11B H -0.0944 0.3525 -0.3075
C19B C -0.14060(15) 0.5085(6) -0.4529(4)
C20B C -0.1538(2) 0.6844(8) -0.5158(6)
H12B H -0.1378 0.7973 -0.4795
C21B C -0.1921(2) 0.6914(9) -0.6359(6)
H13B H -0.2011 0.8093 -0.6791
C22B C -0.21592(18) 0.5234(10) -0.6894(6)
H14B H -0.2416 0.5287 -0.7671
C23B C -0.2020(2) 0.3521(9) -0.6287(6)
H15B H -0.2176 0.2393 -0.6662
C24B C -0.16505(18) 0.3419(8) -0.5129(5)
H16B H -0.1560 0.2220 -0.4730
N2? N 0.4032(15) 0.468(7) 0.662(4)
N4? N 0.0814(19) 0.027(8) 0.289(5)
loop_
_geom_bond_atom_site_label_1
_geom_bond_atom_site_label_2
_geom_bond_site_symmetry_1
_geom_bond_site_symmetry_2
N1 C5 1_555 1_555
C1 H1 1_555 1_555
C2 C1 1_555 1_555
H2 C2 1_555 1_555
C3 C2 1_555 1_555
C4 C3 1_555 1_555
C5 C4 1_555 1_555
C6 C4 1_555 1_555
H3 C6 1_555 1_555
C7 C6 1_555 1_555
C8 C7 1_555 1_555
H4 C8 1_555 1_555
C9 C8 1_555 1_555
H5 C9 1_555 1_555
C10 C9 1_555 1_555
H6 C10 1_555 1_555
C11 C10 1_555 1_555
H7 C11 1_555 1_555
C12 C7 1_555 1_555
H8 C12 1_555 1_555
N3 C17 1_555 1_555
C13 H9 1_555 1_555
C14 H10 1_555 1_555
C15 C13 1_555 1_555
C16 C15 1_555 1_555
C17 C16 1_555 1_555
C18 C16 1_555 1_555
H11 C18 1_555 1_555
C19 C18 1_555 1_555
C20 C19 1_555 1_555
H12 C20 1_555 1_555
C21 C20 1_555 1_555
H13 C21 1_555 1_555
C22 C21 1_555 1_555
H14 C22 1_555 1_555
C23 C22 1_555 1_555
H15 C23 1_555 1_555
C24 C19 1_555 1_555
H16 C24 1_555 1_555
N1B C5B 1_555 1_555
C1B C3 1_555 1_555
H1B C1B 1_555 1_555
C2B C1B 1_555 1_555
H2B C2B 1_555 1_555
C3B C1 1_555 1_555
C4B C3B 1_555 1_555
C5B C4B 1_555 1_555
C6B C4B 1_555 1_555
H3B C6B 1_555 1_555
C7B C6B 1_555 1_555
C8B C7B 1_555 1_555
H4B C8B 1_555 1_555
C9B C8B 1_555 1_555
H5B C9B 1_555 1_555
C10B C9B 1_555 1_555
H6B C10B 1_555 1_555
C11B C10B 1_555 1_555
H7B C11B 1_555 1_555
C12B C7B 1_555 1_555
H8B C12B 1_555 1_555
N3B C17B 1_555 1_555
C13B C14 1_555 1_555
H9B C13B 1_555 1_555
C14B C13 1_555 1_555
H10B C14B 1_555 1_555
C15B C13B 1_555 1_555
C16B C15B 1_555 1_555
C17B C16B 1_555 1_555
C18B C16B 1_555 1_555
H11B C18B 1_555 1_555
C19B C18B 1_555 1_555
C20B C19B 1_555 1_555
H12B C20B 1_555 1_555
C21B C20B 1_555 1_555
H13B C21B 1_555 1_555
C22B C21B 1_555 1_555
H14B C22B 1_555 1_555
C23B C22B 1_555 1_555
H15B C23B 1_555 1_555
C24B C19B 1_555 1_555
H16B C24B 1_555 1_555
C11 C12 1_555 1_555
C14 C15 1_555 1_555
C23 C24 1_555 1_555
C2B C3B 1_555 1_555
C11B C12B 1_555 1_555
C14B C15B 1_555 1_555
C23B C24B 1_555 1_555

#END
