
#######################################################################
#
#                 Cambridge Crystallographic Data Centre
#                                CCDC 
#
#######################################################################
#
# If this CIF has been generated from an entry in the Cambridge 
# Structural Database, then it will include bibliographic, chemical, 
# crystal, experimental, refinement or atomic coordinate data resulting 
# from the CCDC's data processing and validation procedures.
#
#######################################################################

data_REDHIR05
_chemical_formula_moiety         'C24 H16 N2'
_chemical_name_systematic        
2,2'-(1,4-phenylene)bis(3-phenylacrylonitrile)
_symmetry_cell_setting           orthorhombic
_symmetry_space_group_name_H-M   'P b c a'
_symmetry_Int_Tables_number      61
_space_group_name_Hall           '-P 2ac 2ab'
loop_
_symmetry_equiv_pos_site_id
_symmetry_equiv_pos_as_xyz
1 x,y,z
2 1/2-x,-y,1/2+z
3 1/2+x,1/2-y,-z
4 -x,1/2+y,1/2-z
5 -x,-y,-z
6 1/2+x,y,1/2-z
7 1/2-x,1/2+y,z
8 x,1/2-y,1/2+z
_cell_length_a                   6.8410(14)
_cell_length_b                   7.3130(15)
_cell_length_c                   35.529(7)
_cell_angle_alpha                90
_cell_angle_beta                 90
_cell_angle_gamma                90
_cell_volume                     1777.45
_exptl_crystal_colour            colorless
_exptl_crystal_description       block
_cell_formula_units_Z            4
loop_
_atom_site_label
_atom_site_type_symbol
_atom_site_fract_x
_atom_site_fract_y
_atom_site_fract_z
N1 N 0.0370(3) 0.3803(3) 0.59102(5)
C1 C 0.4063(2) 0.4020(3) 0.57689(5)
C2 C 0.4539(2) 0.4527(3) 0.53742(5)
C3 C 0.5157(2) 0.3119(3) 0.64264(5)
C4 C 0.5409(3) 0.3605(3) 0.60296(5)
H1 H 0.6697 0.3629 0.5946
C5 C 0.2013(3) 0.3912(3) 0.58563(5)
C6 C 0.3206(3) 0.4262(3) 0.50838(5)
H2 H 0.1984 0.3773 0.5138
C7 C 0.3673(3) 0.3787(3) 0.66567(5)
H3 H 0.2744 0.4583 0.6558
C8 C 0.3654(3) 0.4707(3) 0.47179(5)
H4 H 0.2741 0.4495 0.4529
C9 C 0.6544(3) 0.1973(3) 0.65875(6)
H5 H 0.7582 0.1555 0.6442
C10 C 0.4924(3) 0.2102(3) 0.71813(6)
H6 H 0.4836 0.1754 0.7433
C11 C 0.3573(3) 0.3274(3) 0.70304(6)
H7 H 0.2576 0.3730 0.7181
C12 C 0.6408(3) 0.1443(3) 0.69594(6)
H8 H 0.7324 0.0639 0.7060
N1D N 0.9630(3) 0.6197(3) 0.40898(5)
C1D C 0.5937(2) 0.5980(3) 0.42311(5)
C2D C 0.5461(2) 0.5473(3) 0.46258(5)
C3D C 0.4843(2) 0.6881(3) 0.35736(5)
C4D C 0.4591(3) 0.6395(3) 0.39704(5)
H1D H 0.3303 0.6371 0.4054
C5D C 0.7987(3) 0.6088(3) 0.41437(5)
C6D C 0.6794(3) 0.5738(3) 0.49162(5)
H2D H 0.8016 0.6227 0.4862
C7D C 0.6327(3) 0.6213(3) 0.33433(5)
H3D H 0.7256 0.5417 0.3442
C8D C 0.6346(3) 0.5293(3) 0.52821(5)
H4D H 0.7259 0.5505 0.5471
C9D C 0.3456(3) 0.8027(3) 0.34125(6)
H5D H 0.2418 0.8445 0.3558
C10D C 0.5076(3) 0.7898(3) 0.28187(6)
H6D H 0.5164 0.8246 0.2567
C11D C 0.6427(3) 0.6726(3) 0.29696(6)
H7D H 0.7424 0.6270 0.2819
C12D C 0.3592(3) 0.8557(3) 0.30406(6)
H8D H 0.2676 0.9361 0.2940
loop_
_geom_bond_atom_site_label_1
_geom_bond_atom_site_label_2
_geom_bond_site_symmetry_1
_geom_bond_site_symmetry_2
N1 C5 1_555 1_555
C1 C2 1_555 1_555
C2 C6 1_555 1_555
C3 C4 1_555 1_555
C4 C1 1_555 1_555
H1 C4 1_555 1_555
C5 C1 1_555 1_555
C6 H2 1_555 1_555
C7 C3 1_555 1_555
H3 C7 1_555 1_555
C8 C6 1_555 1_555
H4 C8 1_555 1_555
C9 C3 1_555 1_555
H5 C9 1_555 1_555
C10 H6 1_555 1_555
C11 C7 1_555 1_555
H7 C11 1_555 1_555
C12 C9 1_555 1_555
H8 C12 1_555 1_555
N1D C5D 1_555 1_555
C1D C2D 1_555 1_555
C2D C8 1_555 1_555
C3D C4D 1_555 1_555
C4D C1D 1_555 1_555
H1D C4D 1_555 1_555
C5D C1D 1_555 1_555
C6D C2D 1_555 1_555
H2D C6D 1_555 1_555
C7D C3D 1_555 1_555
H3D C7D 1_555 1_555
C8D C2 1_555 1_555
H4D C8D 1_555 1_555
C9D C3D 1_555 1_555
H5D C9D 1_555 1_555
C10D H6D 1_555 1_555
C11D C7D 1_555 1_555
H7D C11D 1_555 1_555
C12D C9D 1_555 1_555
H8D C12D 1_555 1_555
C10 C11 1_555 1_555
C10 C12 1_555 1_555
C6D C8D 1_555 1_555
C10D C11D 1_555 1_555
C10D C12D 1_555 1_555

#END
