
#######################################################################
#
#                 Cambridge Crystallographic Data Centre
#                                CCDC 
#
#######################################################################
#
# If this CIF has been generated from an entry in the Cambridge 
# Structural Database, then it will include bibliographic, chemical, 
# crystal, experimental, refinement or atomic coordinate data resulting 
# from the CCDC's data processing and validation procedures.
#
#######################################################################

data_REDPIZ
_chemical_formula_moiety         'C30 H34 N4 O1'
_chemical_name_systematic        15-t-Butyl-15-iso-5-oxophlorin
_symmetry_cell_setting           triclinic
_symmetry_space_group_name_H-M   'P -1'
_symmetry_Int_Tables_number      2
_space_group_name_Hall           '-P 1'
loop_
_symmetry_equiv_pos_site_id
_symmetry_equiv_pos_as_xyz
1 x,y,z
2 -x,-y,-z
_cell_length_a                   9.765(2)
_cell_length_b                   11.719(2)
_cell_length_c                   12.013(2)
_cell_angle_alpha                83.70(3)
_cell_angle_beta                 68.72(3)
_cell_angle_gamma                81.20(3)
_cell_volume                     1263.71
_exptl_crystal_colour            purple
_chemical_melting_point          280-285deg.C
_cell_formula_units_Z            2
loop_
_atom_site_label
_atom_site_type_symbol
_atom_site_fract_x
_atom_site_fract_y
_atom_site_fract_z
O1 O 0.4424(3) 0.2416(3) 0.1328(2)
N1 N 0.2398(3) 0.2827(3) 0.4416(3)
N2 N 0.5263(4) 0.1602(3) 0.3995(3)
N3 N 0.4945(3) 0.2067(3) 0.6490(3)
N4 N 0.2090(4) 0.3355(3) 0.6909(3)
C1 C 0.0884(4) 0.3206(3) 0.4878(3)
C2 C 0.0250(4) 0.3284(3) 0.3954(3)
C3 C -0.1368(4) 0.3604(4) 0.4147(4)
C4 C 0.1375(4) 0.2992(3) 0.2928(3)
C5 C 0.1263(5) 0.2991(4) 0.1713(3)
C6 C 0.1337(6) 0.1807(4) 0.1301(4)
C7 C 0.2697(4) 0.2696(3) 0.3260(3)
C8 C 0.4165(4) 0.2273(3) 0.2420(3)
C9 C 0.5305(4) 0.1616(3) 0.2845(3)
C10 C 0.6515(4) 0.0847(3) 0.2221(3)
C11 C 0.6966(5) 0.0568(4) 0.0938(4)
C12 C 0.8009(5) 0.1364(5) 0.0062(4)
C13 C 0.7199(4) 0.0362(3) 0.3023(4)
C14 C 0.8534(5) -0.0532(4) 0.2773(4)
C15 C 0.6412(4) 0.0851(3) 0.4132(4)
C16 C 0.6722(4) 0.0620(3) 0.5208(4)
C17 C 0.6090(4) 0.1138(3) 0.6254(3)
C18 C 0.6482(5) 0.0844(4) 0.7309(4)
C19 C 0.5640(5) 0.1576(4) 0.8138(4)
C20 C 0.4697(4) 0.2337(3) 0.7590(3)
C21 C 0.3606(4) 0.3331(3) 0.8211(3)
C22 C 0.4369(4) 0.4493(3) 0.7932(3)
C23 C 0.5719(5) 0.4293(4) 0.8313(4)
C24 C 0.4808(5) 0.4881(4) 0.6613(4)
C25 C 0.3258(5) 0.5430(5) 0.8687(4)
C26 C 0.2177(4) 0.3476(3) 0.7985(3)
C27 C 0.0756(4) 0.3776(3) 0.8780(4)
C28 C -0.0210(4) 0.3820(3) 0.8161(3)
C29 C 0.0636(4) 0.3558(3) 0.6979(3)
C30 C 0.0135(4) 0.3490(3) 0.6034(3)
H1 H 0.4578(58) 0.2019(45) 0.4553(47)
H2 H 0.2883(45) 0.3070(34) 0.6303(36)
H3 H -0.1741(8) 0.4302(14) 0.4600(21)
H4 H -0.1918(6) 0.2968(10) 0.4596(21)
H5 H -0.1498(5) 0.3752(23) 0.3371(4)
H6 H 0.2076(5) 0.3387(4) 0.1122(3)
H7 H 0.0317(5) 0.3447(4) 0.1724(3)
H8 H 0.1202(35) 0.1883(4) 0.0525(14)
H9 H 0.0553(22) 0.1398(11) 0.1889(14)
H10 H 0.2504(14) 0.1369(10) 0.1221(27)
H11 H 0.6066(5) 0.0616(4) 0.0729(4)
H12 H 0.7455(5) -0.0238(4) 0.0847(4)
H13 H 0.8286(28) 0.1117(17) -0.0753(5)
H14 H 0.8900(16) 0.1330(21) 0.0265(18)
H15 H 0.7512(13) 0.2160(6) 0.0108(20)
H16 H 0.8586(17) -0.0905(17) 0.3530(4)
H17 H 0.9429(5) -0.0159(5) 0.2346(22)
H18 H 0.8458(15) -0.1115(13) 0.2280(21)
H19 H 0.7490(4) 0.0009(3) 0.5187(4)
H20 H 0.7209(5) 0.0238(4) 0.7397(4)
H21 H 0.5652(5) 0.1597(4) 0.8923(4)
H22 H 0.3351(4) 0.3137(3) 0.9088(3)
H23 H 0.6457(13) 0.3710(18) 0.7824(17)
H24 H 0.5422(7) 0.4021(23) 0.9158(8)
H25 H 0.6147(19) 0.5020(7) 0.8201(23)
H26 H 0.5472(23) 0.4260(9) 0.6131(4)
H27 H 0.5316(26) 0.5572(13) 0.6459(6)
H28 H 0.3918(5) 0.5060(21) 0.6397(6)
H29 H 0.2929(23) 0.5154(10) 0.9532(5)
H30 H 0.2403(15) 0.5601(17) 0.8427(17)
H31 H 0.3731(11) 0.6132(8) 0.8586(19)
H32 H 0.0492(4) 0.3925(3) 0.9598(4)
H33 H -0.1256(4) 0.3996(3) 0.8482(3)
H34 H -0.0904(4) 0.3675(3) 0.6232(3)
loop_
_geom_bond_atom_site_label_1
_geom_bond_atom_site_label_2
_geom_bond_site_symmetry_1
_geom_bond_site_symmetry_2
O1 C8 1_555 1_555
N1 C1 1_555 1_555
N2 C9 1_555 1_555
N3 C17 1_555 1_555
N4 C26 1_555 1_555
C1 C2 1_555 1_555
C2 C3 1_555 1_555
C3 H3 1_555 1_555
C4 C2 1_555 1_555
C5 C4 1_555 1_555
C6 C5 1_555 1_555
C7 N1 1_555 1_555
C8 C7 1_555 1_555
C9 C8 1_555 1_555
C10 C9 1_555 1_555
C11 C10 1_555 1_555
C12 C11 1_555 1_555
C13 C10 1_555 1_555
C14 C13 1_555 1_555
C15 N2 1_555 1_555
C16 C15 1_555 1_555
C17 C16 1_555 1_555
C18 C17 1_555 1_555
C19 C18 1_555 1_555
C20 N3 1_555 1_555
C21 C20 1_555 1_555
C22 C21 1_555 1_555
C23 C22 1_555 1_555
C24 C22 1_555 1_555
C25 C22 1_555 1_555
C26 C21 1_555 1_555
C27 C26 1_555 1_555
C28 C27 1_555 1_555
C29 N4 1_555 1_555
C30 C1 1_555 1_555
H1 N2 1_555 1_555
H2 N4 1_555 1_555
H4 C3 1_555 1_555
H5 C3 1_555 1_555
H6 C5 1_555 1_555
H7 C5 1_555 1_555
H8 C6 1_555 1_555
H9 C6 1_555 1_555
H10 C6 1_555 1_555
H11 C11 1_555 1_555
H12 C11 1_555 1_555
H13 C12 1_555 1_555
H14 C12 1_555 1_555
H15 C12 1_555 1_555
H16 C14 1_555 1_555
H17 C14 1_555 1_555
H18 C14 1_555 1_555
H19 C16 1_555 1_555
H20 C18 1_555 1_555
H21 C19 1_555 1_555
H22 C21 1_555 1_555
H23 C23 1_555 1_555
H24 C23 1_555 1_555
H25 C23 1_555 1_555
H26 C24 1_555 1_555
H27 C24 1_555 1_555
H28 C24 1_555 1_555
H29 C25 1_555 1_555
H30 C25 1_555 1_555
H31 C25 1_555 1_555
H32 C27 1_555 1_555
H33 C28 1_555 1_555
H34 C30 1_555 1_555
C4 C7 1_555 1_555
C13 C15 1_555 1_555
C19 C20 1_555 1_555
C28 C29 1_555 1_555
C29 C30 1_555 1_555

#END
