
#######################################################################
#
#                 Cambridge Crystallographic Data Centre
#                                CCDC 
#
#######################################################################
#
# If this CIF has been generated from an entry in the Cambridge 
# Structural Database, then it will include bibliographic, chemical, 
# crystal, experimental, refinement or atomic coordinate data resulting 
# from the CCDC's data processing and validation procedures.
#
#######################################################################

data_REDQID
_chemical_formula_moiety         'C15 H9 B1 Cl1 F2 N1 O2'
_chemical_name_systematic        
3-(4-chlorophenyl)-1,1-difluoro-1H-10\l^5^,1\l^5^-[1,3,2]oxazaborinino[4,3-b][1,3]benzoxazole
_symmetry_cell_setting           monoclinic
_symmetry_space_group_name_H-M   'P 21/n'
_symmetry_Int_Tables_number      14
_space_group_name_Hall           '-P 2yn'
loop_
_symmetry_equiv_pos_site_id
_symmetry_equiv_pos_as_xyz
1 x,y,z
2 1/2-x,1/2+y,1/2-z
3 -x,-y,-z
4 1/2+x,1/2-y,1/2+z
_cell_length_a                   6.8180(4)
_cell_length_b                   14.9857(14)
_cell_length_c                   13.5916(11)
_cell_angle_alpha                90
_cell_angle_beta                 101.588(7)
_cell_angle_gamma                90
_cell_volume                     1360.38
_exptl_crystal_description       block
_cell_formula_units_Z            4
loop_
_atom_site_label
_atom_site_type_symbol
_atom_site_fract_x
_atom_site_fract_y
_atom_site_fract_z
Cl1 Cl 0.16901(13) 0.14591(6) 0.89875(7)
O1 O 0.2883(2) -0.46575(13) 0.87875(12)
N1 N 0.5760(3) -0.40393(16) 0.86407(14)
F1 F 0.8710(2) -0.32530(13) 0.94360(12)
C1 C 0.7675(4) -0.5490(2) 0.8582(2)
H1 H 0.8905 -0.5245 0.8533
O2 O 0.6072(2) -0.24204(14) 0.85328(14)
F2 F 0.8049(2) -0.33430(12) 0.77512(12)
C2 C 0.7382(4) -0.6398(2) 0.8592(2)
H2 H 0.8437 -0.6776 0.8540
C3 C 0.5556(4) -0.6764(2) 0.8678(2)
H3 H 0.5420 -0.7381 0.8678
C4 C 0.3939(4) -0.6241(2) 0.87632(19)
H4 H 0.2721 -0.6485 0.8835
C5 C 0.4243(4) -0.5339(2) 0.87351(18)
C6 C 0.6050(3) -0.4961(2) 0.86495(18)
C7 C 0.3890(3) -0.3893(2) 0.87257(18)
C8 C 0.3057(3) -0.3049(2) 0.87503(19)
H5 H 0.1736 -0.2981 0.8820
C9 C 0.4210(3) -0.2329(2) 0.86704(17)
C10 C 0.3562(4) -0.1399(2) 0.87187(18)
C11 C 0.4842(4) -0.0701(2) 0.86104(19)
H6 H 0.6108 -0.0830 0.8491
C12 C 0.4282(4) 0.0177(2) 0.8675(2)
H7 H 0.5157 0.0637 0.8602
C13 C 0.2399(4) 0.0359(2) 0.88489(19)
C14 C 0.1089(4) -0.0312(2) 0.8944(2)
H8 H -0.0186 -0.0178 0.9049
C15 C 0.1670(4) -0.1184(2) 0.8884(2)
H9 H 0.0782 -0.1640 0.8955
B1 B 0.7214(4) -0.3249(2) 0.8586(2)
loop_
_geom_bond_atom_site_label_1
_geom_bond_atom_site_label_2
_geom_bond_site_symmetry_1
_geom_bond_site_symmetry_2
Cl1 C13 1_555 1_555
O1 C5 1_555 1_555
N1 C6 1_555 1_555
F1 B1 1_555 1_555
C1 H1 1_555 1_555
O2 C9 1_555 1_555
F2 B1 1_555 1_555
C2 C1 1_555 1_555
H2 C2 1_555 1_555
C3 C2 1_555 1_555
H3 C3 1_555 1_555
C4 C3 1_555 1_555
H4 C4 1_555 1_555
C5 C4 1_555 1_555
C6 C1 1_555 1_555
C7 O1 1_555 1_555
C8 C7 1_555 1_555
H5 C8 1_555 1_555
C9 C8 1_555 1_555
C10 C9 1_555 1_555
C11 C10 1_555 1_555
H6 C11 1_555 1_555
C12 C11 1_555 1_555
H7 C12 1_555 1_555
C13 C12 1_555 1_555
C14 C13 1_555 1_555
H8 C14 1_555 1_555
C15 C10 1_555 1_555
H9 C15 1_555 1_555
B1 N1 1_555 1_555
N1 C7 1_555 1_555
O2 B1 1_555 1_555
C5 C6 1_555 1_555
C14 C15 1_555 1_555

#END
