
#######################################################################
#
#                 Cambridge Crystallographic Data Centre
#                                CCDC 
#
#######################################################################
#
# If this CIF has been generated from an entry in the Cambridge 
# Structural Database, then it will include bibliographic, chemical, 
# crystal, experimental, refinement or atomic coordinate data resulting 
# from the CCDC's data processing and validation procedures.
#
#######################################################################

data_REFNIA
_chemical_compound_source        'Duchesnea indica Focke'
_chemical_formula_moiety         'C13 H8 O8,5(C5 H5 N1)'
_chemical_name_systematic        'Brevifolin carboxylic acid pyridine solvate'
_chemical_properties_biological  'strong cytotoxic activity'
_symmetry_cell_setting           triclinic
_symmetry_space_group_name_H-M   'P -1'
_symmetry_Int_Tables_number      2
_space_group_name_Hall           '-P 1'
loop_
_symmetry_equiv_pos_site_id
_symmetry_equiv_pos_as_xyz
1 x,y,z
2 -x,-y,-z
_cell_length_a                   11.127(2)
_cell_length_b                   12.310(3)
_cell_length_c                   14.266(6)
_cell_angle_alpha                80.58(3)
_cell_angle_beta                 69.80(3)
_cell_angle_gamma                73.53(2)
_cell_volume                     1753.92
_exptl_crystal_colour            'pale yellow'
_exptl_crystal_description       prismatic
_cell_formula_units_Z            2
loop_
_atom_site_label
_atom_site_type_symbol
_atom_site_fract_x
_atom_site_fract_y
_atom_site_fract_z
C1 C 0.1474(3) 1.1215(3) -0.0066(2)
H1 H 0.2264 1.1307 -0.0542
C2 C 0.0369(3) 1.2102(3) 0.0074(2)
C3 C -0.0824(3) 1.1969(3) 0.0783(2)
C4 C -0.0884(3) 1.0942(2) 0.1356(2)
C5 C 0.0270(3) 0.8943(2) 0.17458(19)
C6 C 0.1398(3) 0.8142(3) 0.1559(2)
O1 O 0.2586(2) 0.82617(17) 0.08783(15)
C7 C 0.2641(3) 0.9289(3) 0.0315(2)
C8 C 0.0231(3) 1.0038(2) 0.12112(19)
C9 C 0.1427(3) 1.0190(2) 0.04890(19)
C10 C -0.0808(3) 0.8516(2) 0.2564(2)
H2 H -0.1549 0.8561 0.2325
C11 C -0.0140(3) 0.7263(3) 0.2791(2)
H3 H -0.0237 0.7113 0.3499
H4 H -0.0537 0.6758 0.2606
C12 C 0.1304(4) 0.7088(3) 0.2176(2)
O2 O 0.0331(2) 1.31210(17) -0.04613(17)
H5 H 0.1077 1.3139 -0.0834
O3 O -0.1951(2) 1.28004(18) 0.09608(17)
H6 H -0.1822 1.3360 0.0577
O4 O -0.20214(19) 1.07840(16) 0.20446(16)
H7 H -0.2543 1.1402 0.2179
O5 O 0.3709(2) 0.9359(2) -0.02621(17)
C13 C -0.1280(3) 0.9152(3) 0.3498(2)
O6 O -0.0579(2) 0.9554(2) 0.37381(16)
O7 O -0.2500(2) 0.9161(2) 0.40576(15)
H8 H -0.2825 0.8834 0.3786
O8 O 0.2176(3) 0.6246(2) 0.22079(19)
N1 N 0.2598(3) 1.3464(3) -0.1902(2)
C14 C 0.3775(5) 1.2807(4) -0.2180(4)
H9 H 0.3909 1.2071 -0.1882
C15 C 0.4853(5) 1.3130(5) -0.2895(4)
H10 H 0.5678 1.2622 -0.3082
C16 C 0.4662(6) 1.4203(6) -0.3311(4)
H11 H 0.5362 1.4460 -0.3781
C17 C 0.3448(6) 1.4896(5) -0.3036(4)
H12 H 0.3285 1.5633 -0.3328
C18 C 0.2451(4) 1.4500(4) -0.2316(3)
H13 H 0.1622 1.4999 -0.2111
N2 N -0.4181(3) 1.2338(2) 0.2987(2)
C19 C -0.5053(4) 1.2950(3) 0.2573(3)
H14 H -0.4812 1.3000 0.1877
C20 C -0.6281(5) 1.3514(4) 0.3079(5)
H15 H -0.6856 1.3956 0.2742
C21 C -0.6659(6) 1.3420(5) 0.4100(6)
H16 H -0.7508 1.3781 0.4472
C22 C -0.5790(6) 1.2799(5) 0.4565(4)
H17 H -0.6024 1.2727 0.5260
C23 C -0.4547(4) 1.2272(3) 0.3981(3)
H18 H -0.3937 1.1853 0.4297
N3 N 0.7498(3) 0.4846(2) 0.0068(2)
C24 C 0.8129(4) 0.5556(3) -0.0581(3)
H19 H 0.9032 0.5304 -0.0894
C25 C 0.7513(5) 0.6642(3) -0.0811(3)
H20 H 0.7995 0.7118 -0.1265
C26 C 0.6198(5) 0.7024(4) -0.0377(4)
H21 H 0.5762 0.7762 -0.0528
C27 C 0.5527(4) 0.6305(4) 0.0285(4)
H22 H 0.4621 0.6540 0.0598
C28 C 0.6214(4) 0.5228(3) 0.0479(3)
H23 H 0.5748 0.4737 0.0928
N4 N 0.3160(3) 0.0131(2) 0.41688(19)
C29 C 0.2246(4) 0.0139(3) 0.3771(3)
H24 H 0.1393 0.0153 0.4196
C30 C 0.2493(4) 0.0127(3) 0.2764(3)
H25 H 0.1829 0.0122 0.2511
C31 C 0.3747(4) 0.0123(3) 0.2138(3)
H26 H 0.3943 0.0131 0.1449
C32 C 0.4695(4) 0.0107(3) 0.2533(3)
H27 H 0.5553 0.0099 0.2123
C33 C 0.4364(3) 0.0105(3) 0.3546(2)
H28 H 0.5022 0.0083 0.3815
N5 N 0.0566(8) 0.5816(5) 0.5619(9)
C34 C 0.0056(5) 0.6178(8) 0.6512(8)
H29 H -0.0490 0.5782 0.7007
C35 C 0.0275(9) 0.7076(10) 0.6749(6)
H30 H -0.0068 0.7280 0.7406
C36 C 0.1004(9) 0.7700(6) 0.6024(12)
H31 H 0.1151 0.8359 0.6153
C37 C 0.1497(7) 0.7312(8) 0.5113(9)
H32 H 0.2005 0.7712 0.4591
C38 C 0.1292(9) 0.6403(9) 0.4937(5)
H33 H 0.1679 0.6155 0.4294
loop_
_geom_bond_atom_site_label_1
_geom_bond_atom_site_label_2
_geom_bond_site_symmetry_1
_geom_bond_site_symmetry_2
C1 H1 1_555 1_555
C2 C1 1_555 1_555
C3 C2 1_555 1_555
C4 C3 1_555 1_555
C5 C6 1_555 1_555
C6 O1 1_555 1_555
O1 C7 1_555 1_555
C7 C9 1_555 1_555
C8 C4 1_555 1_555
C9 C1 1_555 1_555
C10 C5 1_555 1_555
H2 C10 1_555 1_555
C11 C10 1_555 1_555
H3 C11 1_555 1_555
H4 C11 1_555 1_555
C12 C6 1_555 1_555
O2 C2 1_555 1_555
H5 O2 1_555 1_555
O3 C3 1_555 1_555
H6 O3 1_555 1_555
O4 C4 1_555 1_555
H7 O4 1_555 1_555
O5 C7 1_555 1_555
C13 C10 1_555 1_555
O6 C13 1_555 1_555
O7 C13 1_555 1_555
H8 O7 1_555 1_555
O8 C12 1_555 1_555
N1 C14 1_555 1_555
C14 H9 1_555 1_555
C15 C14 1_555 1_555
H10 C15 1_555 1_555
C16 C15 1_555 1_555
H11 C16 1_555 1_555
C17 C16 1_555 1_555
H12 C17 1_555 1_555
C18 N1 1_555 1_555
H13 C18 1_555 1_555
N2 C19 1_555 1_555
C19 H14 1_555 1_555
C20 C19 1_555 1_555
H15 C20 1_555 1_555
C21 C20 1_555 1_555
H16 C21 1_555 1_555
C22 C21 1_555 1_555
H17 C22 1_555 1_555
C23 N2 1_555 1_555
H18 C23 1_555 1_555
N3 C24 1_555 1_555
C24 H19 1_555 1_555
C25 C24 1_555 1_555
H20 C25 1_555 1_555
C26 C25 1_555 1_555
H21 C26 1_555 1_555
C27 C26 1_555 1_555
H22 C27 1_555 1_555
C28 N3 1_555 1_555
H23 C28 1_555 1_555
N4 C29 1_555 1_555
C29 H24 1_555 1_555
C30 C29 1_555 1_555
H25 C30 1_555 1_555
C31 C30 1_555 1_555
H26 C31 1_555 1_555
C32 C31 1_555 1_555
H27 C32 1_555 1_555
C33 N4 1_555 1_555
H28 C33 1_555 1_555
N5 C34 1_555 1_555
C34 H29 1_555 1_555
C35 C34 1_555 1_555
H30 C35 1_555 1_555
C36 C35 1_555 1_555
H31 C36 1_555 1_555
C37 C36 1_555 1_555
H32 C37 1_555 1_555
C38 N5 1_555 1_555
H33 C38 1_555 1_555
C5 C8 1_555 1_555
C8 C9 1_555 1_555
C11 C12 1_555 1_555
C17 C18 1_555 1_555
C22 C23 1_555 1_555
C27 C28 1_555 1_555
C32 C33 1_555 1_555
C37 C38 1_555 1_555

#END
