
#######################################################################
#
#                 Cambridge Crystallographic Data Centre
#                                CCDC 
#
#######################################################################
#
# If this CIF has been generated from an entry in the Cambridge 
# Structural Database, then it will include bibliographic, chemical, 
# crystal, experimental, refinement or atomic coordinate data resulting 
# from the CCDC's data processing and validation procedures.
#
#######################################################################

data_REFPEX
_chemical_formula_moiety         'C44 H38 N2 O8,C2 H3 N1'
_chemical_name_systematic        
'cis-25,26,27,28-Tetrahydroxy-5,11,17,23-tetramethyl-2,14-bis(4-nitrophenyl)calix(4)arene acetonitrile solvate'
_symmetry_cell_setting           monoclinic
_symmetry_space_group_name_H-M   'P 21/c'
_symmetry_Int_Tables_number      14
_space_group_name_Hall           '-P 2ybc'
loop_
_symmetry_equiv_pos_site_id
_symmetry_equiv_pos_as_xyz
1 x,y,z
2 -x,1/2+y,1/2-z
3 -x,-y,-z
4 x,1/2-y,1/2+z
_cell_length_a                   13.1598(12)
_cell_length_b                   14.0173(6)
_cell_length_c                   20.7809(15)
_cell_angle_alpha                90
_cell_angle_beta                 90.208(9)
_cell_angle_gamma                90
_cell_volume                     3833.32
_exptl_crystal_colour            'pale yellow'
_chemical_melting_point          '306deg.C (dec)'
_cell_formula_units_Z            4
loop_
_atom_site_label
_atom_site_type_symbol
_atom_site_fract_x
_atom_site_fract_y
_atom_site_fract_z
O1 O 0.72073(14) 0.43812(14) 0.04634(9)
O2 O 0.54701(13) 0.44365(12) 0.12047(9)
O3 O 0.43971(13) 0.40734(13) 0.00993(8)
O4 O 0.60627(14) 0.40682(12) -0.06287(9)
O5 O 0.0125(2) 0.3885(2) 0.35032(13)
O6 O -0.0801(2) 0.4206(2) 0.26817(13)
O7 O 1.1590(2) 0.3564(2) -0.27670(12)
O8 O 1.2503(2) 0.3829(2) -0.19308(12)
N1 N 0.0004(2) 0.4010(2) 0.2927(2)
N2 N 1.1690(2) 0.3671(2) -0.21918(14)
C1 C 0.7792(2) 0.3584(2) 0.05975(13)
C2 C 0.8291(2) 0.3123(2) 0.00951(13)
C3 C 0.8857(2) 0.2306(2) 0.02372(14)
C4 C 0.8941(2) 0.1961(2) 0.08566(15)
C5 C 0.8435(2) 0.2452(2) 0.13399(14)
C6 C 0.7856(2) 0.3253(2) 0.12267(13)
C7 C 0.7264(2) 0.3692(2) 0.17770(12)
C8 C 0.9531(3) 0.1064(3) 0.1003(2)
C9 C 0.5369(2) 0.3600(2) 0.15579(12)
C10 C 0.6229(2) 0.3228(2) 0.18512(12)
C11 C 0.6136(2) 0.2378(2) 0.21862(12)
C12 C 0.5218(2) 0.1890(2) 0.22296(12)
C13 C 0.4383(2) 0.2304(2) 0.19479(12)
C14 C 0.4422(2) 0.3165(2) 0.16132(12)
C15 C 0.3480(2) 0.3573(2) 0.12769(12)
C16 C 0.5172(2) 0.0938(2) 0.25646(14)
C17 C 0.3815(2) 0.3252(2) 0.00993(13)
C18 C 0.3307(2) 0.3002(2) 0.06600(12)
C19 C 0.2717(2) 0.2177(2) 0.06454(14)
C20 C 0.2619(2) 0.1623(2) 0.00929(15)
C21 C 0.3157(2) 0.1904(2) -0.04482(13)
C22 C 0.3766(2) 0.2713(2) -0.04585(12)
C23 C 0.4356(2) 0.2965(2) -0.10599(12)
C24 C 0.1946(3) 0.0753(3) 0.0079(2)
C25 C 0.6261(2) 0.3151(2) -0.08568(11)
C26 C 0.5444(2) 0.2599(2) -0.10641(12)
C27 C 0.5661(2) 0.1690(2) -0.12869(12)
C28 C 0.6640(2) 0.1323(2) -0.13083(12)
C29 C 0.7422(2) 0.1905(2) -0.11046(12)
C30 C 0.7260(2) 0.2827(2) -0.08786(12)
C31 C 0.8117(2) 0.3436(2) -0.06005(12)
C32 C 0.6832(2) 0.0332(2) -0.1556(2)
C33 C 0.2558(2) 0.3661(2) 0.17149(13)
C34 C 0.2667(2) 0.3744(2) 0.23758(13)
C35 C 0.1835(2) 0.3865(2) 0.27720(14)
C36 C 0.0900(2) 0.3917(2) 0.25042(15)
C37 C 0.0746(2) 0.3870(2) 0.1849(2)
C38 C 0.1586(2) 0.3746(2) 0.14611(14)
C39 C 0.9084(2) 0.3458(2) -0.10148(14)
C40 C 0.9019(2) 0.3398(2) -0.16776(14)
C41 C 0.9868(2) 0.3474(2) -0.20589(14)
C42 C 1.0786(2) 0.3625(2) -0.17799(14)
C43 C 1.0891(2) 0.3717(3) -0.1128(2)
C44 C 1.0028(2) 0.3630(3) -0.0752(2)
H1 H 0.9186 0.1986 -0.00945
H2 H 0.8490 0.2229 0.17601
H3 H 0.7646 0.3619 0.21739
H4 H 0.7176 0.4369 0.16980
H5 H 0.9133 0.0657 0.1276
H6 H 1.0154 0.1227 0.1218
H7 H 0.9680 0.0736 0.0609
H8 H 0.6707 0.2126 0.23891
H9 H 0.3760 0.1996 0.19821
H10 H 0.3657 0.4222 0.11433
H11 H 0.5624 0.0942 0.2928
H12 H 0.5373 0.0444 0.2271
H13 H 0.4491 0.0821 0.2708
H14 H 0.2378 0.1990 0.10166
H15 H 0.3108 0.1535 -0.08189
H16 H 0.4368 0.3654 -0.11052
H17 H 0.4001 0.2706 -0.14305
H18 H 0.1337 0.0894 -0.0158
H19 H 0.1774 0.0575 0.0511
H20 H 0.2300 0.0237 -0.0125
H21 H 0.5126 0.1309 -0.14283
H22 H 0.8084 0.1673 -0.11189
H23 H 0.7862 0.4092 -0.05834
H24 H 0.6581 0.0280 -0.1989
H25 H 0.6489 -0.0122 -0.1288
H26 H 0.7549 0.0205 -0.1550
H27 H 0.3314 0.3717 0.25569
H28 H 0.1918 0.3910 0.32156
H29 H 0.0097 0.3919 0.1673
H30 H 0.1497 0.3720 0.10173
H31 H 0.8387 0.3304 -0.18700
H32 H 0.9812 0.3422 -0.25038
H33 H 1.1522 0.3834 -0.0942
H34 H 1.0089 0.3689 -0.0308
H41 H 0.6641 0.4399 0.0705
H43 H 0.5118 0.4318 0.0841
H45 H 0.4956 0.4071 -0.0149
H47 H 0.6439 0.4172 -0.0274
N3 N 0.6559(3) 0.0201(3) 0.1257(2)
C45 C 0.6228(3) 0.0749(2) 0.0919(2)
C46 C 0.5858(3) 0.1471(3) 0.0487(2)
H35 H 0.5342 0.1839 0.0698
H36 H 0.5577 0.1173 0.0111
H37 H 0.6409 0.1881 0.0365
H38? H 0.5143 0.1381 0.0417
H39? H 0.6209 0.1423 0.0084
H40? H 0.5975 0.2089 0.0671
H42? H 0.6835 0.4278 0.0105
H44? H 0.6035 0.4418 0.0961
H46? H 0.4749 0.4193 0.0463
H48? H 0.5501 0.4072 -0.0383
H49? H 0.5919 0.4649 -0.0465
loop_
_geom_bond_atom_site_label_1
_geom_bond_atom_site_label_2
_geom_bond_site_symmetry_1
_geom_bond_site_symmetry_2
O1 C1 1_555 1_555
O2 C9 1_555 1_555
O3 C17 1_555 1_555
O4 C25 1_555 1_555
O5 N1 1_555 1_555
O6 N1 1_555 1_555
O7 N2 1_555 1_555
O8 N2 1_555 1_555
N1 C36 1_555 1_555
N2 C42 1_555 1_555
C1 C2 1_555 1_555
C2 C3 1_555 1_555
C3 C4 1_555 1_555
C4 C5 1_555 1_555
C5 C6 1_555 1_555
C6 C1 1_555 1_555
C7 C6 1_555 1_555
C8 C4 1_555 1_555
C9 C10 1_555 1_555
C10 C7 1_555 1_555
C11 C10 1_555 1_555
C12 C11 1_555 1_555
C13 C12 1_555 1_555
C14 C9 1_555 1_555
C15 C14 1_555 1_555
C16 C12 1_555 1_555
C17 C18 1_555 1_555
C18 C15 1_555 1_555
C19 C18 1_555 1_555
C20 C19 1_555 1_555
C21 C20 1_555 1_555
C22 C17 1_555 1_555
C23 C22 1_555 1_555
C24 C20 1_555 1_555
C25 C26 1_555 1_555
C26 C23 1_555 1_555
C27 C26 1_555 1_555
C28 C27 1_555 1_555
C29 C28 1_555 1_555
C30 C25 1_555 1_555
C31 C2 1_555 1_555
C32 C28 1_555 1_555
C33 C15 1_555 1_555
C34 C33 1_555 1_555
C35 C34 1_555 1_555
C36 C35 1_555 1_555
C37 C36 1_555 1_555
C38 C33 1_555 1_555
C39 C31 1_555 1_555
C40 C39 1_555 1_555
C41 C40 1_555 1_555
C42 C41 1_555 1_555
C43 C42 1_555 1_555
C44 C39 1_555 1_555
N3 C45 1_555 1_555
C45 C46 1_555 1_555
C46 H35 1_555 1_555
H1 C3 1_555 1_555
H2 C5 1_555 1_555
H3 C7 1_555 1_555
H4 C7 1_555 1_555
H5 C8 1_555 1_555
H6 C8 1_555 1_555
H7 C8 1_555 1_555
H8 C11 1_555 1_555
H9 C13 1_555 1_555
H10 C15 1_555 1_555
H11 C16 1_555 1_555
H12 C16 1_555 1_555
H13 C16 1_555 1_555
H14 C19 1_555 1_555
H15 C21 1_555 1_555
H16 C23 1_555 1_555
H17 C23 1_555 1_555
H18 C24 1_555 1_555
H19 C24 1_555 1_555
H20 C24 1_555 1_555
H21 C27 1_555 1_555
H22 C29 1_555 1_555
H23 C31 1_555 1_555
H24 C32 1_555 1_555
H25 C32 1_555 1_555
H26 C32 1_555 1_555
H27 C34 1_555 1_555
H28 C35 1_555 1_555
H29 C37 1_555 1_555
H30 C38 1_555 1_555
H31 C40 1_555 1_555
H32 C41 1_555 1_555
H33 C43 1_555 1_555
H34 C44 1_555 1_555
H36 C46 1_555 1_555
H37 C46 1_555 1_555
H41 O1 1_555 1_555
H43 O2 1_555 1_555
H45 O3 1_555 1_555
H47 O4 1_555 1_555
C13 C14 1_555 1_555
C21 C22 1_555 1_555
C29 C30 1_555 1_555
C30 C31 1_555 1_555
C37 C38 1_555 1_555
C43 C44 1_555 1_555

#END
