
#######################################################################
#
#                 Cambridge Crystallographic Data Centre
#                                CCDC 
#
#######################################################################
#
# If this CIF has been generated from an entry in the Cambridge 
# Structural Database, then it will include bibliographic, chemical, 
# crystal, experimental, refinement or atomic coordinate data resulting 
# from the CCDC's data processing and validation procedures.
#
#######################################################################

data_REFWUU
_chemical_formula_moiety         'C36 H40 N2 O8 S4'
_chemical_name_systematic        
7,9,25,27-tetrakis(Ethoxycarbonyl)-2,11,20,29-tetrathia(3.3)(2,6)pyridino(1,2)benzeno(3.3)(4,5)benzeno(2,6)pyridino(3)phane
_symmetry_cell_setting           monoclinic
_symmetry_space_group_name_H-M   'P 21/c'
_symmetry_Int_Tables_number      14
_space_group_name_Hall           '-P 2ybc'
loop_
_symmetry_equiv_pos_site_id
_symmetry_equiv_pos_as_xyz
1 x,y,z
2 -x,1/2+y,1/2-z
3 -x,-y,-z
4 x,1/2-y,1/2+z
_cell_length_a                   10.205(3)
_cell_length_b                   14.879(4)
_cell_length_c                   23.630(9)
_cell_angle_alpha                90
_cell_angle_beta                 100.88(3)
_cell_angle_gamma                90
_cell_volume                     3523.49
_exptl_crystal_colour            colorless
_chemical_melting_point          218-219deg.C
_cell_formula_units_Z            4
loop_
_atom_site_label
_atom_site_type_symbol
_atom_site_fract_x
_atom_site_fract_y
_atom_site_fract_z
C1 C 0.0563(13) 0.3028(8) 0.3158(4)
H1 H 0.0823(13) 0.2409(8) 0.3269(4)
H2 H -0.0337(13) 0.3007(8) 0.2923(4)
S1 S 0.0497(3) 0.3666(2) 0.38091(11)
C2 C -0.0590(12) 0.4601(8) 0.3549(5)
H3 H -0.1516(12) 0.4390(8) 0.3466(5)
H4 H -0.0518(12) 0.5058(8) 0.3852(5)
C3 C -0.0260(11) 0.5022(8) 0.3015(5)
C4 C 0.0898(12) 0.5555(8) 0.3020(5)
C5 C 0.1157(11) 0.5812(8) 0.2488(4)
H5 H 0.1911(11) 0.6166(8) 0.2471(4)
C6 C 0.0321(11) 0.5554(8) 0.1977(5)
C7 C -0.0777(11) 0.5013(7) 0.2024(5)
N1 N -0.1067(9) 0.4765(6) 0.2527(4)
C8 C -0.1680(12) 0.4577(8) 0.1505(5)
H6 H -0.1969(12) 0.5035(8) 0.1210(5)
H7 H -0.2477(12) 0.4334(8) 0.1626(5)
S2 S -0.0834(3) 0.3691(2) 0.12051(11)
C9 C -0.0099(12) 0.3030(8) 0.1831(5)
H8 H -0.0752(12) 0.2982(8) 0.2085(5)
H9 H 0.0065(12) 0.2422(8) 0.1702(5)
C10 C 0.1184(11) 0.3386(7) 0.2179(4)
C11 C 0.2172(11) 0.3698(7) 0.1888(4)
H10 H 0.1968(11) 0.3706(7) 0.1483(4)
C12 C 0.3417(11) 0.3993(8) 0.2150(4)
C13 C 0.3725(10) 0.4008(8) 0.2762(4)
C14 C 0.2759(11) 0.3693(7) 0.3058(4)
H11 H 0.2963(11) 0.3687(7) 0.3463(4)
C15 C 0.1513(11) 0.3390(7) 0.2788(4)
C16 C 0.4350(12) 0.4367(8) 0.1776(5)
H12 H 0.5252(12) 0.4400(8) 0.2008(5)
H13 H 0.4069(12) 0.4982(8) 0.1662(5)
S3 S 0.4412(3) 0.3721(2) 0.11300(12)
C17 C 0.5552(12) 0.2813(8) 0.1381(5)
H14 H 0.5513(12) 0.2364(8) 0.1075(5)
H15 H 0.6465(12) 0.3047(8) 0.1473(5)
C18 C 0.5201(12) 0.2375(8) 0.1910(5)
C19 C 0.4083(11) 0.1838(7) 0.1916(5)
C20 C 0.3785(12) 0.1582(7) 0.2444(5)
H16 H 0.3022(12) 0.1234(7) 0.2455(5)
C21 C 0.4606(11) 0.1838(7) 0.2953(5)
C22 C 0.5728(12) 0.2384(8) 0.2917(5)
N2 N 0.5993(9) 0.2639(6) 0.2402(4)
C23 C 0.6613(11) 0.2820(8) 0.3415(5)
H17 H 0.7392(11) 0.3073(8) 0.3285(5)
H18 H 0.6932(11) 0.2363(8) 0.3708(5)
S4 S 0.5770(3) 0.3707(2) 0.37378(12)
C24 C 0.5030(11) 0.4366(8) 0.3101(4)
H19 H 0.4881(11) 0.4980(8) 0.3226(4)
H20 H 0.5676(11) 0.4399(8) 0.2844(4)
C25 C 0.1833(13) 0.5844(8) 0.3529(5)
O1 O 0.3013(9) 0.5967(7) 0.3555(4)
O2 O 0.1275(8) 0.6010(6) 0.3994(3)
C26 C 0.2110(14) 0.6309(10) 0.4509(4)
H21 H 0.2514(14) 0.6890(10) 0.4446(4)
H22 H 0.2826(14) 0.5874(10) 0.4636(4)
C27 C 0.1259(16) 0.6397(13) 0.4945(5)
H23 H 0.1794(16) 0.6602(13) 0.5305(5)
H24 H 0.0866(16) 0.5819(13) 0.5003(5)
H25 H 0.0556(16) 0.6830(13) 0.4813(5)
C28 C 0.0755(13) 0.5818(8) 0.1431(5)
O3 O 0.1895(9) 0.5942(7) 0.1391(3)
O4 O -0.0288(8) 0.5962(6) 0.1005(3)
C29 C 0.0002(15) 0.6242(10) 0.0453(5)
H26 H 0.0498(15) 0.5771(10) 0.0294(5)
H27 H 0.0538(15) 0.6792(10) 0.0497(5)
C30 C -0.1307(17) 0.6403(13) 0.0067(6)
H28 H -0.1161(17) 0.6592(13) -0.0309(6)
H29 H -0.1787(17) 0.6869(13) 0.0230(6)
H30 H -0.1827(17) 0.5853(13) 0.0027(6)
C31 C 0.3107(13) 0.1539(8) 0.1399(5)
O5 O 0.1926(10) 0.1448(7) 0.1372(4)
O6 O 0.3729(9) 0.1389(6) 0.0949(4)
C32 C 0.2882(15) 0.1093(11) 0.0413(6)
H31 H 0.2120(15) 0.1500(11) 0.0306(6)
H32 H 0.2546(15) 0.0485(11) 0.0457(6)
C33 C 0.3741(17) 0.1107(12) -0.0035(6)
H33 H 0.3222(17) 0.0914(12) -0.0401(6)
H34 H 0.4491(17) 0.0703(12) 0.0079(6)
H35 H 0.4068(17) 0.1712(12) -0.0071(6)
C34 C 0.4215(14) 0.1574(8) 0.3504(5)
O7 O 0.3073(9) 0.1462(7) 0.3546(4)
O8 O 0.5248(9) 0.1452(6) 0.3922(3)
C35 C 0.4981(14) 0.1192(9) 0.4486(5)
H36 H 0.4507(14) 0.0616(9) 0.4459(5)
H37 H 0.4430(14) 0.1648(9) 0.4628(5)
C36 C 0.6306(16) 0.1113(13) 0.4882(6)
H38 H 0.6172(16) 0.0940(13) 0.5263(6)
H39 H 0.6763(16) 0.1687(13) 0.4905(6)
H40 H 0.6840(16) 0.0661(13) 0.4736(6)
loop_
_geom_bond_atom_site_label_1
_geom_bond_atom_site_label_2
_geom_bond_site_symmetry_1
_geom_bond_site_symmetry_2
C1 H1 1_555 1_555
H2 C1 1_555 1_555
S1 C1 1_555 1_555
C2 S1 1_555 1_555
H3 C2 1_555 1_555
H4 C2 1_555 1_555
C3 C2 1_555 1_555
C4 C3 1_555 1_555
C5 C4 1_555 1_555
H5 C5 1_555 1_555
C6 C5 1_555 1_555
C7 C6 1_555 1_555
N1 C3 1_555 1_555
C8 C7 1_555 1_555
H6 C8 1_555 1_555
H7 C8 1_555 1_555
S2 C8 1_555 1_555
C9 S2 1_555 1_555
H8 C9 1_555 1_555
H9 C9 1_555 1_555
C10 C9 1_555 1_555
C11 C10 1_555 1_555
H10 C11 1_555 1_555
C12 C11 1_555 1_555
C13 C12 1_555 1_555
C14 C13 1_555 1_555
H11 C14 1_555 1_555
C15 C1 1_555 1_555
C16 C12 1_555 1_555
H12 C16 1_555 1_555
H13 C16 1_555 1_555
S3 C16 1_555 1_555
C17 S3 1_555 1_555
H14 C17 1_555 1_555
H15 C17 1_555 1_555
C18 C17 1_555 1_555
C19 C18 1_555 1_555
C20 C19 1_555 1_555
H16 C20 1_555 1_555
C21 C20 1_555 1_555
C22 C21 1_555 1_555
N2 C18 1_555 1_555
C23 C22 1_555 1_555
H17 C23 1_555 1_555
H18 C23 1_555 1_555
S4 C23 1_555 1_555
C24 C13 1_555 1_555
H19 C24 1_555 1_555
H20 C24 1_555 1_555
C25 C4 1_555 1_555
O1 C25 1_555 1_555
O2 C25 1_555 1_555
C26 O2 1_555 1_555
H21 C26 1_555 1_555
H22 C26 1_555 1_555
C27 C26 1_555 1_555
H23 C27 1_555 1_555
H24 C27 1_555 1_555
H25 C27 1_555 1_555
C28 C6 1_555 1_555
O3 C28 1_555 1_555
O4 C28 1_555 1_555
C29 O4 1_555 1_555
H26 C29 1_555 1_555
H27 C29 1_555 1_555
C30 C29 1_555 1_555
H28 C30 1_555 1_555
H29 C30 1_555 1_555
H30 C30 1_555 1_555
C31 C19 1_555 1_555
O5 C31 1_555 1_555
O6 C31 1_555 1_555
C32 O6 1_555 1_555
H31 C32 1_555 1_555
H32 C32 1_555 1_555
C33 C32 1_555 1_555
H33 C33 1_555 1_555
H34 C33 1_555 1_555
H35 C33 1_555 1_555
C34 C21 1_555 1_555
O7 C34 1_555 1_555
O8 C34 1_555 1_555
C35 O8 1_555 1_555
H36 C35 1_555 1_555
H37 C35 1_555 1_555
C36 C35 1_555 1_555
H38 C36 1_555 1_555
H39 C36 1_555 1_555
H40 C36 1_555 1_555
C7 N1 1_555 1_555
C10 C15 1_555 1_555
C14 C15 1_555 1_555
C22 N2 1_555 1_555
S4 C24 1_555 1_555

#END
