
#######################################################################
#
#                 Cambridge Crystallographic Data Centre
#                                CCDC 
#
#######################################################################
#
# If this CIF has been generated from an entry in the Cambridge 
# Structural Database, then it will include bibliographic, chemical, 
# crystal, experimental, refinement or atomic coordinate data resulting 
# from the CCDC's data processing and validation procedures.
#
#######################################################################

data_REFXOQ
_chemical_name_common            
"5,5':11,11':17,17':23,23'-tetrakis(3-Oxymethylphenyl-C,O)-bis(C-heptyl-4,24:6,10:12,16:18,22-tetrakis(O,O'-methano)calix[4]resorcinarene) dimethylacetamide clathrate dichloromethane solvate"
_chemical_formula_moiety         'C148 H176 O20,C1 H2 Cl2,C4 H9 N1 O1'
_chemical_name_systematic        
"5,5':11,11':17,17':23,23'-tetrakis(3-Oxymethylphenyl-C,O)-bis(2,8,14,20-tetraheptyl-4,24:6,10:12,16:18,22-tetrakis(methylenedioxy)calix[4]arene) dimethylacetamide clathrate dichloromethane solvate"
_symmetry_cell_setting           triclinic
_symmetry_space_group_name_H-M   'P -1'
_symmetry_Int_Tables_number      2
_space_group_name_Hall           '-P 1'
loop_
_symmetry_equiv_pos_site_id
_symmetry_equiv_pos_as_xyz
1 x,y,z
2 -x,-y,-z
_cell_length_a                   13.4924(8)
_cell_length_b                   23.7915(14)
_cell_length_c                   23.8264(14)
_cell_angle_alpha                64.4370(10)
_cell_angle_beta                 73.8750(10)
_cell_angle_gamma                80.2390(10)
_cell_volume                     6617.34
_exptl_crystal_colour            colorless
_exptl_crystal_description       plate
_chemical_melting_point          'above 320deg.C(dec.)'
_cell_formula_units_Z            2
loop_
_atom_site_label
_atom_site_type_symbol
_atom_site_fract_x
_atom_site_fract_y
_atom_site_fract_z
C1 C 0.6389(4) 0.7645(2) 0.7450(2)
H1 H 0.6812 0.7477 0.7751
C2 C 0.6517(4) 0.8255(2) 0.6989(2)
C3 C 0.5893(4) 0.8488(2) 0.6549(2)
C4 C 0.5148(4) 0.8145(3) 0.6561(2)
C5 C 0.5070(4) 0.7526(3) 0.7026(3)
C6 C 0.5666(4) 0.7279(2) 0.7482(2)
C7 C 0.5536(4) 0.6614(2) 0.7978(2)
H2 H 0.4805 0.6519 0.8052
C8 C 0.4638(5) 0.6722(2) 0.6804(3)
H3 H 0.5267 0.6861 0.6459
H4 H 0.4096 0.6696 0.6611
C9 C 0.7236(4) 0.5989(2) 0.7780(2)
H5 H 0.7496 0.6140 0.8017
C10 C 0.6228(4) 0.6176(2) 0.7699(2)
C11 C 0.5879(4) 0.5964(3) 0.7327(3)
C12 C 0.6489(4) 0.5560(3) 0.7066(2)
C13 C 0.7498(5) 0.5388(3) 0.7164(3)
C14 C 0.7873(5) 0.5592(3) 0.7527(3)
C15 C 0.8987(4) 0.5425(3) 0.7590(2)
H6 H 0.9192 0.5016 0.7554
C16 C 0.8852(4) 0.5251(3) 0.6334(3)
H7 H 0.8937 0.5003 0.6079
H8 H 0.8594 0.5678 0.6085
C17 C 0.9898(4) 0.6450(3) 0.7028(3)
H9 H 0.9647 0.6518 0.7409
C18 C 0.9652(4) 0.5909(3) 0.7021(3)
C19 C 1.0000(4) 0.5839(3) 0.6447(3)
C20 C 1.0603(4) 0.6270(3) 0.5900(3)
C21 C 1.0817(4) 0.6807(3) 0.5940(3)
C22 C 1.0497(4) 0.6896(3) 0.6502(3)
C23 C 1.0790(4) 0.7476(2) 0.6528(3)
H10 H 1.1460 0.7601 0.6207
C24 C 1.1053(5) 0.7800(2) 0.5029(3)
H11 H 1.1450 0.7929 0.4580
H12 H 1.0334 0.7746 0.5043
C25 C 0.9103(4) 0.8105(2) 0.6701(3)
H13 H 0.9009 0.7864 0.7148
C26 C 0.9999(4) 0.8001(3) 0.6296(3)
C27 C 1.0140(4) 0.8378(3) 0.5638(3)
C28 C 0.9407(5) 0.8853(3) 0.5390(3)
C29 C 0.8490(4) 0.8913(2) 0.5817(3)
C30 C 0.8334(4) 0.8552(3) 0.6476(3)
C31 C 0.7348(4) 0.8664(3) 0.6922(2)
H14 H 0.7101 0.9108 0.6705
C32 C 0.6843(4) 0.9178(3) 0.5542(2)
H15 H 0.6617 0.9488 0.5155
H16 H 0.7013 0.8777 0.5494
C33 C 0.4896(4) 0.8580(3) 0.2527(3)
H17 H 0.5277 0.8576 0.2128
C34 C 0.4370(4) 0.8059(3) 0.2979(3)
C35 C 0.3860(4) 0.8061(3) 0.3570(3)
C36 C 0.3849(4) 0.8572(3) 0.3713(3)
C37 C 0.4364(4) 0.9096(3) 0.3239(3)
C38 C 0.4883(4) 0.9109(3) 0.2641(3)
C39 C 0.3810(4) 0.7028(3) 0.4413(2)
H18 H 0.4384 0.7172 0.4493
H19 H 0.3333 0.6818 0.4831
C40 C 0.4452(5) 0.7461(3) 0.2869(3)
H20 H 0.3821 0.7229 0.3151
C41 C 0.6331(5) 0.7070(3) 0.2717(3)
H21 H 0.6433 0.7344 0.2277
C42 C 0.7171(4) 0.6693(3) 0.2940(3)
C43 C 0.7007(4) 0.6311(3) 0.3588(3)
C44 C 0.6045(5) 0.6283(3) 0.4006(2)
C45 C 0.5225(4) 0.6657(3) 0.3761(3)
C46 C 0.5360(5) 0.7061(3) 0.3109(3)
C47 C 0.8541(5) 0.6152(3) 0.3976(3)
H22 H 0.8790 0.5824 0.4346
H23 H 0.8198 0.6497 0.4100
C48 C 0.8238(5) 0.6714(3) 0.2500(2)
H24 H 0.8597 0.6296 0.2693
C49 C 0.8839(4) 0.7812(3) 0.2104(3)
H25 H 0.8474 0.7946 0.1776
C50 C 0.9354(4) 0.8249(3) 0.2137(3)
C51 C 0.9872(5) 0.8041(3) 0.2635(3)
C52 C 0.9843(5) 0.7435(3) 0.3073(3)
C53 C 0.9337(5) 0.7000(3) 0.3019(3)
C54 C 0.8827(4) 0.7180(3) 0.2531(3)
C55 C 0.9943(5) 0.8813(3) 0.3011(3)
H26 H 0.9378 0.8575 0.3360
H27 H 1.0428 0.8895 0.3208
C56 C 0.9281(4) 0.8943(3) 0.1714(3)
H28 H 0.9929 0.9122 0.1675
C57 C 0.7396(4) 0.9323(3) 0.1972(3)
H29 H 0.7282 0.9203 0.1664
C58 C 0.6567(4) 0.9575(3) 0.2296(3)
C59 C 0.6729(5) 0.9734(3) 0.2759(3)
C60 C 0.7704(4) 0.9636(3) 0.2888(2)
C61 C 0.8538(4) 0.9408(3) 0.2535(3)
C62 C 0.8392(4) 0.9234(3) 0.2069(3)
C63 C 0.5498(4) 0.9674(3) 0.2159(2)
H30 H 0.5146 1.0044 0.2244
C64 C 0.5170(5) 0.9671(3) 0.3581(3)
H31 H 0.5474 0.9248 0.3803
H32 H 0.4918 0.9863 0.3893
C65 C 0.3698(5) 0.8165(3) 0.4829(2)
H33 H 0.4396 0.7995 0.4684
H34 H 0.3238 0.7813 0.5071
C66 C 0.3749(4) 0.8466(3) 0.5261(3)
C67 C 0.3153(5) 0.9009(3) 0.5252(3)
H35 H 0.2719 0.9208 0.4958
C68 C 0.3201(5) 0.9252(3) 0.5674(3)
H36 H 0.2788 0.9618 0.5674
C69 C 0.3839(4) 0.8976(3) 0.6097(3)
H37 H 0.3858 0.9151 0.6384
C70 C 0.4456(4) 0.8438(2) 0.6105(2)
C71 C 0.4399(4) 0.8190(3) 0.5683(2)
H38 H 0.4812 0.7824 0.5683
C72 C 0.5201(5) 0.5897(3) 0.5152(2)
H39 H 0.4532 0.5785 0.5144
H40 H 0.5123 0.6331 0.5118
C73 C 0.5508(4) 0.5460(3) 0.5763(2)
C74 C 0.5383(5) 0.4821(3) 0.6016(3)
H41 H 0.5127 0.4652 0.5792
C75 C 0.5630(5) 0.4437(3) 0.6589(3)
H42 H 0.5552 0.4002 0.6754
C76 C 0.5991(4) 0.4670(3) 0.6931(3)
H43 H 0.6162 0.4396 0.7325
C77 C 0.6103(4) 0.5313(2) 0.6693(2)
C78 C 0.5858(4) 0.5701(3) 0.6108(3)
H44 H 0.5931 0.6138 0.5942
C79 C 1.1277(5) 0.6895(3) 0.3536(3)
H45 H 1.1853 0.7178 0.3341
H46 H 1.1309 0.6678 0.3258
C80 C 1.1380(4) 0.6433(3) 0.4179(3)
C81 C 1.1973(5) 0.5879(3) 0.4250(3)
H47 H 1.2276 0.5786 0.3887
C82 C 1.2125(5) 0.5463(3) 0.4841(3)
H48 H 1.2540 0.5089 0.4881
C83 C 1.1678(5) 0.5584(3) 0.5376(3)
H49 H 1.1783 0.5293 0.5783
C84 C 1.1069(4) 0.6139(3) 0.5318(3)
C85 C 1.0927(4) 0.6550(3) 0.4726(3)
H50 H 1.0510 0.6923 0.4685
C86 C 0.8548(4) 1.0208(2) 0.3230(3)
H51 H 0.8172 1.0589 0.3272
H52 H 0.8938 1.0326 0.2781
C87 C 0.9293(5) 0.9949(3) 0.3666(3)
C88 C 1.0279(5) 1.0167(3) 0.3443(3)
H53 H 1.0488 1.0457 0.3013
C89 C 1.0960(5) 0.9969(3) 0.3838(3)
H54 H 1.1636 1.0117 0.3677
C90 C 1.0656(4) 0.9553(3) 0.4468(3)
H55 H 1.1116 0.9432 0.4743
C91 C 0.9685(5) 0.9310(3) 0.4703(3)
C92 C 0.9004(4) 0.9510(2) 0.4295(2)
H56 H 0.8340 0.9347 0.4447
C93 C 0.5704(5) 0.6520(3) 0.8632(2)
H57 H 0.6434 0.6586 0.8581
H58 H 0.5267 0.6837 0.8771
C94 C 0.5442(5) 0.5875(3) 0.9144(3)
H59 H 0.5766 0.5563 0.8966
H60 H 0.4684 0.5843 0.9253
C95 C 0.5793(6) 0.5710(3) 0.9757(3)
H61 H 0.5657 0.5267 1.0039
H62 H 0.6550 0.5746 0.9644
C96 C 0.5315(9) 0.6084(4) 1.0120(4)
H63 H 0.4554 0.6084 1.0207
H64 H 0.5519 0.6520 0.9868
C97 C 0.5666(15) 0.5809(6) 1.0769(5)
H65 H 0.5236 0.5453 1.1070
H66 H 0.6386 0.5636 1.0688
C98 C 0.5638(11) 0.6141(6) 1.1044(6)
H67 H 0.4913 0.6303 1.1135
H68 H 0.6049 0.6504 1.0737
C99 C 0.6006(7) 0.5886(5) 1.1667(4)
H69 H 0.5858 0.6202 1.1844
H70 H 0.6752 0.5782 1.1580
H71 H 0.5644 0.5510 1.1975
C100 C 0.7499(4) 0.8583(3) 0.7568(3)
H72 H 0.7629 0.8135 0.7826
H73 H 0.8116 0.8802 0.7493
C101 C 0.6569(5) 0.8837(3) 0.7943(3)
H74 H 0.6450 0.9287 0.7682
H75 H 0.5953 0.8625 0.8003
C102 C 0.6661(5) 0.8761(3) 0.8591(3)
H76 H 0.6067 0.8993 0.8763
H77 H 0.7298 0.8952 0.8535
C103 C 0.6691(6) 0.8090(3) 0.9076(3)
H78 H 0.6198 0.7860 0.9026
H79 H 0.7391 0.7896 0.8979
C104 C 0.6434(9) 0.8012(4) 0.9763(4)
H80 H 0.5695 0.8146 0.9867
H81 H 0.6496 0.7558 1.0029
C105 C 0.6958(9) 0.8297(4) 0.9969(4)
H82 H 0.6926 0.8748 0.9689
H83 H 0.7692 0.8147 0.9884
C106 C 0.6670(7) 0.8242(4) 1.0649(3)
H84 H 0.7164 0.8457 1.0710
H85 H 0.6686 0.7800 1.0943
H86 H 0.5974 0.8432 1.0736
C107 C 1.0989(4) 0.7340(3) 0.7181(2)
H87 H 1.0316 0.7302 0.7494
H88 H 1.1384 0.6933 0.7329
C108 C 1.1581(5) 0.7837(3) 0.7174(3)
H89 H 1.2211 0.7921 0.6823
H90 H 1.1145 0.8230 0.7096
C109 C 1.1883(5) 0.7622(3) 0.7808(3)
H91 H 1.1242 0.7567 0.8149
H92 H 1.2255 0.7207 0.7899
C110 C 1.2552(5) 0.8048(3) 0.7853(3)
H93 H 1.3183 0.8123 0.7502
H94 H 1.2168 0.8455 0.7795
C111 C 1.2861(5) 0.7776(3) 0.8483(3)
H95 H 1.3213 0.7360 0.8546
H96 H 1.2226 0.7715 0.8829
C112 C 1.3566(6) 0.8167(3) 0.8551(3)
H97 H 1.3248 0.8596 0.8450
H98 H 1.4234 0.8193 0.8236
C113 C 1.3767(6) 0.7902(3) 0.9217(3)
H99 H 1.4222 0.8171 0.9236
H100 H 1.4099 0.7481 0.9316
H101 H 1.3111 0.7883 0.9530
C114 C 0.9152(5) 0.5344(3) 0.8234(2)
H102 H 0.9901 0.5265 0.8223
H103 H 0.8929 0.5739 0.8288
C115 C 0.8574(5) 0.4815(3) 0.8813(3)
H104 H 0.7829 0.4878 0.8815
H105 H 0.8828 0.4414 0.8776
C116 C 0.8713(6) 0.4780(3) 0.9435(3)
H106 H 0.9450 0.4671 0.9449
H107 H 0.8540 0.5198 0.9443
C117 C 0.8074(7) 0.4321(4) 1.0018(3)
H108 H 0.8259 0.3892 1.0041
H109 H 0.7330 0.4418 1.0023
C118 C 0.8337(11) 0.4389(8) 1.0591(4)
H110 H 0.8998 0.4152 1.0669
H111 H 0.8435 0.4834 1.0467
C119 C 0.7571(11) 0.4177(7) 1.1163(5)
H112 H 0.7494 0.3726 1.1308
H113 H 0.6900 0.4402 1.1090
C120 C 0.7877(8) 0.4292(4) 1.1677(4)
H114 H 0.8262 0.4671 1.1476
H115 H 0.8312 0.3935 1.1899
H116 H 0.7253 0.4342 1.1985
C121 C 0.8242(5) 0.6811(3) 0.1818(3)
H117 H 0.7753 0.6532 0.1838
H118 H 0.8009 0.7247 0.1580
C122 C 0.9320(5) 0.6672(3) 0.1466(3)
H119 H 0.9827 0.6867 0.1547
H120 H 0.9476 0.6215 0.1649
C123 C 0.9473(5) 0.6898(3) 0.0745(3)
H121 H 0.9319 0.7355 0.0562
H122 H 1.0211 0.6820 0.0562
C124 C 0.8827(5) 0.6602(3) 0.0531(3)
H123 H 0.8088 0.6718 0.0667
H124 H 0.8926 0.6142 0.0742
C125 C 0.9112(6) 0.6806(3) -0.0193(3)
H125 H 0.9033 0.7267 -0.0400
H126 H 0.9849 0.6682 -0.0323
C126 C 0.8475(6) 0.6536(3) -0.0438(3)
H127 H 0.7739 0.6672 -0.0323
H128 H 0.8535 0.6075 -0.0223
C127 C 0.8795(6) 0.6729(3) -0.1154(3)
H129 H 0.8356 0.6539 -0.1283
H130 H 0.9519 0.6589 -0.1272
H131 H 0.8719 0.7185 -0.1371
C128 C 0.4476(5) 0.7559(3) 0.2183(3)
H132 H 0.4954 0.7890 0.1881
H133 H 0.4764 0.7169 0.2129
C129 C 0.3488(6) 0.7728(4) 0.2006(3)
H134 H 0.3236 0.8146 0.2000
H135 H 0.2980 0.7425 0.2331
C130 C 0.3561(6) 0.7738(4) 0.1335(3)
H136 H 0.3999 0.8078 0.1001
H137 H 0.3891 0.7338 0.1322
C131 C 0.2517(7) 0.7836(4) 0.1198(4)
H138 H 0.2181 0.8222 0.1247
H139 H 0.2610 0.7912 0.0745
C132 C 0.1798(6) 0.7328(4) 0.1594(4)
H140 H 0.1177 0.7434 0.1416
H141 H 0.1574 0.7320 0.2030
C133 C 0.2203(7) 0.6683(5) 0.1651(5)
H142 H 0.2807 0.6558 0.1847
H143 H 0.1663 0.6384 0.1931
C134 C 0.2511(9) 0.6664(6) 0.1010(6)
H144 H 0.2769 0.6240 0.1053
H145 H 0.3056 0.6954 0.0735
H146 H 0.1911 0.6785 0.0818
C135 C 0.5527(4) 0.9818(3) 0.1461(2)
H147 H 0.5899 0.9466 0.1357
H148 H 0.4811 0.9853 0.1412
C136 C 0.6055(5) 1.0421(3) 0.0986(3)
H149 H 0.5700 1.0768 0.1104
H150 H 0.6778 1.0378 0.1026
C137 C 0.6060(5) 1.0591(3) 0.0292(3)
H151 H 0.5358 1.0544 0.0270
H152 H 0.6209 1.1036 0.0042
C138 C 0.6824(6) 1.0211(3) -0.0022(3)
H153 H 0.6646 0.9769 0.0208
H154 H 0.7522 1.0235 0.0023
C139 C 0.6858(6) 1.0423(4) -0.0730(3)
H155 H 0.6185 1.0343 -0.0764
H156 H 0.6926 1.0880 -0.0941
C140 C 0.7690(7) 1.0131(4) -0.1097(3)
H157 H 0.7607 0.9675 -0.0897
H158 H 0.8363 1.0197 -0.1051
C141 C 0.7731(6) 1.0362(3) -0.1797(3)
H159 H 0.8298 1.0136 -0.1989
H160 H 0.7846 1.0809 -0.2008
H161 H 0.7076 1.0292 -0.1852
C142 C 0.9185(4) 0.9100(3) 0.1038(2)
H162 H 0.9022 0.9555 0.0829
H163 H 0.8596 0.8883 0.1067
C143 C 1.0148(5) 0.8923(3) 0.0614(3)
H164 H 1.0735 0.9153 0.0566
H165 H 1.0328 0.8471 0.0825
C144 C 0.9988(5) 0.9070(3) -0.0041(3)
H166 H 0.9777 0.9519 -0.0238
H167 H 0.9410 0.8831 0.0014
C145 C 1.0925(5) 0.8927(3) -0.0502(3)
H168 H 1.1177 0.8487 -0.0295
H169 H 1.1486 0.9196 -0.0594
C146 C 1.0684(5) 0.9032(3) -0.1133(3)
H170 H 1.0318 0.9447 -0.1301
H171 H 1.1341 0.9034 -0.1448
C147 C 1.0026(5) 0.8539(3) -0.1061(3)
H172 H 1.0416 0.8129 -0.0923
H173 H 0.9396 0.8514 -0.0719
C148 C 0.9709(5) 0.8657(3) -0.1661(3)
H174 H 0.9291 0.8319 -0.1580
H175 H 1.0327 0.8673 -0.2001
H176 H 0.9303 0.9055 -0.1794
O1 O 0.4861(3) 0.61114(16) 0.72606(17)
O2 O 0.4304(3) 0.71762(16) 0.70630(17)
O3 O 0.6014(3) 0.90983(16) 0.60810(16)
O4 O 0.7745(3) 0.93766(16) 0.55786(17)
O5 O 1.1049(3) 0.82821(16) 0.52311(16)
O6 O 1.1491(3) 0.72158(16) 0.54120(16)
O7 O 0.9822(3) 0.52820(17) 0.64294(17)
O8 O 0.8100(3) 0.49791(17) 0.69163(17)
O9 O 0.9406(3) 0.63804(17) 0.34519(17)
O10 O 0.7815(3) 0.59038(17) 0.38350(17)
O11 O 0.4221(3) 0.65856(17) 0.41442(16)
O12 O 0.3269(3) 0.75601(17) 0.40276(16)
O13 O 0.4322(3) 0.96153(17) 0.33711(18)
O14 O 0.5955(3) 1.00367(17) 0.30709(17)
O15 O 0.9523(3) 0.93879(17) 0.26187(17)
O16 O 1.0475(3) 0.84454(17) 0.26659(17)
O17 O 0.7815(3) 0.97517(17) 0.33906(16)
O18 O 1.0301(3) 0.72519(18) 0.35888(17)
O19 O 0.6000(3) 0.58447(17) 0.46239(16)
O20 O 0.3319(3) 0.86016(18) 0.42820(16)
C149 C 0.3111(7) 0.5284(5) 0.6888(4)
H177 H 0.3437 0.5308 0.7201
H178 H 0.3597 0.5038 0.6671
Cl1 Cl 0.29470(16) 0.60292(10) 0.63246(10)
Cl2 Cl 0.1993(2) 0.48859(11) 0.73012(12)
C150 C 0.6759(6) 0.7516(3) 0.4737(4)
C151 C 0.6864(6) 0.7846(3) 0.4022(4)
H179 H 0.6281 0.7756 0.3909
H180 H 0.7512 0.7699 0.3802
H181 H 0.6869 0.8297 0.3890
C152 C 0.8351(6) 0.7977(3) 0.4601(3)
H182 H 0.8291 0.8181 0.4155
H183 H 0.9002 0.7722 0.4627
H184 H 0.8340 0.8294 0.4762
C153 C 0.7478(6) 0.7233(4) 0.5659(4)
H185 H 0.6869 0.6983 0.5873
H186 H 0.7453 0.7525 0.5854
H187 H 0.8105 0.6957 0.5704
O21 O 0.6002(4) 0.7195(2) 0.5077(2)
N1 N 0.7486(4) 0.7579(3) 0.4987(3)
loop_
_geom_bond_atom_site_label_1
_geom_bond_atom_site_label_2
_geom_bond_site_symmetry_1
_geom_bond_site_symmetry_2
C1 H1 1_555 1_555
C2 C1 1_555 1_555
C3 C2 1_555 1_555
C4 C3 1_555 1_555
C5 C4 1_555 1_555
C6 C1 1_555 1_555
C7 C6 1_555 1_555
H2 C7 1_555 1_555
C8 H3 1_555 1_555
H4 C8 1_555 1_555
C9 H5 1_555 1_555
C10 C7 1_555 1_555
C11 C10 1_555 1_555
C12 C11 1_555 1_555
C13 C12 1_555 1_555
C14 C9 1_555 1_555
C15 C14 1_555 1_555
H6 C15 1_555 1_555
C16 H7 1_555 1_555
H8 C16 1_555 1_555
C17 H9 1_555 1_555
C18 C15 1_555 1_555
C19 C18 1_555 1_555
C20 C19 1_555 1_555
C21 C20 1_555 1_555
C22 C17 1_555 1_555
C23 C22 1_555 1_555
H10 C23 1_555 1_555
C24 H11 1_555 1_555
H12 C24 1_555 1_555
C25 H13 1_555 1_555
C26 C23 1_555 1_555
C27 C26 1_555 1_555
C28 C27 1_555 1_555
C29 C28 1_555 1_555
C30 C25 1_555 1_555
C31 C2 1_555 1_555
H14 C31 1_555 1_555
C32 H15 1_555 1_555
H16 C32 1_555 1_555
C33 H17 1_555 1_555
C34 C33 1_555 1_555
C35 C34 1_555 1_555
C36 C35 1_555 1_555
C37 C36 1_555 1_555
C38 C33 1_555 1_555
C39 H18 1_555 1_555
H19 C39 1_555 1_555
C40 C34 1_555 1_555
H20 C40 1_555 1_555
C41 H21 1_555 1_555
C42 C41 1_555 1_555
C43 C42 1_555 1_555
C44 C43 1_555 1_555
C45 C44 1_555 1_555
C46 C40 1_555 1_555
C47 H22 1_555 1_555
H23 C47 1_555 1_555
C48 C42 1_555 1_555
H24 C48 1_555 1_555
C49 H25 1_555 1_555
C50 C49 1_555 1_555
C51 C50 1_555 1_555
C52 C51 1_555 1_555
C53 C52 1_555 1_555
C54 C48 1_555 1_555
C55 H26 1_555 1_555
H27 C55 1_555 1_555
C56 C50 1_555 1_555
H28 C56 1_555 1_555
C57 H29 1_555 1_555
C58 C57 1_555 1_555
C59 C58 1_555 1_555
C60 C59 1_555 1_555
C61 C60 1_555 1_555
C62 C56 1_555 1_555
C63 C38 1_555 1_555
H30 C63 1_555 1_555
C64 H31 1_555 1_555
H32 C64 1_555 1_555
C65 H33 1_555 1_555
H34 C65 1_555 1_555
C66 C65 1_555 1_555
C67 C66 1_555 1_555
H35 C67 1_555 1_555
C68 C67 1_555 1_555
H36 C68 1_555 1_555
C69 C68 1_555 1_555
H37 C69 1_555 1_555
C70 C4 1_555 1_555
C71 C66 1_555 1_555
H38 C71 1_555 1_555
C72 H39 1_555 1_555
H40 C72 1_555 1_555
C73 C72 1_555 1_555
C74 C73 1_555 1_555
H41 C74 1_555 1_555
C75 C74 1_555 1_555
H42 C75 1_555 1_555
C76 C75 1_555 1_555
H43 C76 1_555 1_555
C77 C12 1_555 1_555
C78 C73 1_555 1_555
H44 C78 1_555 1_555
C79 H45 1_555 1_555
H46 C79 1_555 1_555
C80 C79 1_555 1_555
C81 C80 1_555 1_555
H47 C81 1_555 1_555
C82 C81 1_555 1_555
H48 C82 1_555 1_555
C83 C82 1_555 1_555
H49 C83 1_555 1_555
C84 C20 1_555 1_555
C85 C80 1_555 1_555
H50 C85 1_555 1_555
C86 H51 1_555 1_555
H52 C86 1_555 1_555
C87 C86 1_555 1_555
C88 C87 1_555 1_555
H53 C88 1_555 1_555
C89 C88 1_555 1_555
H54 C89 1_555 1_555
C90 C89 1_555 1_555
H55 C90 1_555 1_555
C91 C28 1_555 1_555
C92 C87 1_555 1_555
H56 C92 1_555 1_555
C93 C7 1_555 1_555
H57 C93 1_555 1_555
H58 C93 1_555 1_555
C94 C93 1_555 1_555
H59 C94 1_555 1_555
H60 C94 1_555 1_555
C95 C94 1_555 1_555
H61 C95 1_555 1_555
H62 C95 1_555 1_555
C96 C95 1_555 1_555
H63 C96 1_555 1_555
H64 C96 1_555 1_555
C97 C96 1_555 1_555
H65 C97 1_555 1_555
H66 C97 1_555 1_555
C98 C97 1_555 1_555
H67 C98 1_555 1_555
H68 C98 1_555 1_555
C99 C98 1_555 1_555
H69 C99 1_555 1_555
H70 C99 1_555 1_555
H71 C99 1_555 1_555
C100 C31 1_555 1_555
H72 C100 1_555 1_555
H73 C100 1_555 1_555
C101 C100 1_555 1_555
H74 C101 1_555 1_555
H75 C101 1_555 1_555
C102 C101 1_555 1_555
H76 C102 1_555 1_555
H77 C102 1_555 1_555
C103 C102 1_555 1_555
H78 C103 1_555 1_555
H79 C103 1_555 1_555
C104 C103 1_555 1_555
H80 C104 1_555 1_555
H81 C104 1_555 1_555
C105 C104 1_555 1_555
H82 C105 1_555 1_555
H83 C105 1_555 1_555
C106 C105 1_555 1_555
H84 C106 1_555 1_555
H85 C106 1_555 1_555
H86 C106 1_555 1_555
C107 C23 1_555 1_555
H87 C107 1_555 1_555
H88 C107 1_555 1_555
C108 C107 1_555 1_555
H89 C108 1_555 1_555
H90 C108 1_555 1_555
C109 C108 1_555 1_555
H91 C109 1_555 1_555
H92 C109 1_555 1_555
C110 C109 1_555 1_555
H93 C110 1_555 1_555
H94 C110 1_555 1_555
C111 C110 1_555 1_555
H95 C111 1_555 1_555
H96 C111 1_555 1_555
C112 C111 1_555 1_555
H97 C112 1_555 1_555
H98 C112 1_555 1_555
C113 C112 1_555 1_555
H99 C113 1_555 1_555
H100 C113 1_555 1_555
H101 C113 1_555 1_555
C114 C15 1_555 1_555
H102 C114 1_555 1_555
H103 C114 1_555 1_555
C115 C114 1_555 1_555
H104 C115 1_555 1_555
H105 C115 1_555 1_555
C116 C115 1_555 1_555
H106 C116 1_555 1_555
H107 C116 1_555 1_555
C117 C116 1_555 1_555
H108 C117 1_555 1_555
H109 C117 1_555 1_555
C118 C117 1_555 1_555
H110 C118 1_555 1_555
H111 C118 1_555 1_555
C119 C118 1_555 1_555
H112 C119 1_555 1_555
H113 C119 1_555 1_555
C120 C119 1_555 1_555
H114 C120 1_555 1_555
H115 C120 1_555 1_555
H116 C120 1_555 1_555
C121 C48 1_555 1_555
H117 C121 1_555 1_555
H118 C121 1_555 1_555
C122 C121 1_555 1_555
H119 C122 1_555 1_555
H120 C122 1_555 1_555
C123 C122 1_555 1_555
H121 C123 1_555 1_555
H122 C123 1_555 1_555
C124 C123 1_555 1_555
H123 C124 1_555 1_555
H124 C124 1_555 1_555
C125 C124 1_555 1_555
H125 C125 1_555 1_555
H126 C125 1_555 1_555
C126 C125 1_555 1_555
H127 C126 1_555 1_555
H128 C126 1_555 1_555
C127 C126 1_555 1_555
H129 C127 1_555 1_555
H130 C127 1_555 1_555
H131 C127 1_555 1_555
C128 C40 1_555 1_555
H132 C128 1_555 1_555
H133 C128 1_555 1_555
C129 C128 1_555 1_555
H134 C129 1_555 1_555
H135 C129 1_555 1_555
C130 C129 1_555 1_555
H136 C130 1_555 1_555
H137 C130 1_555 1_555
C131 C130 1_555 1_555
H138 C131 1_555 1_555
H139 C131 1_555 1_555
C132 C131 1_555 1_555
H140 C132 1_555 1_555
H141 C132 1_555 1_555
C133 C132 1_555 1_555
H142 C133 1_555 1_555
H143 C133 1_555 1_555
C134 C133 1_555 1_555
H144 C134 1_555 1_555
H145 C134 1_555 1_555
H146 C134 1_555 1_555
C135 C63 1_555 1_555
H147 C135 1_555 1_555
H148 C135 1_555 1_555
C136 C135 1_555 1_555
H149 C136 1_555 1_555
H150 C136 1_555 1_555
C137 C136 1_555 1_555
H151 C137 1_555 1_555
H152 C137 1_555 1_555
C138 C137 1_555 1_555
H153 C138 1_555 1_555
H154 C138 1_555 1_555
C139 C138 1_555 1_555
H155 C139 1_555 1_555
H156 C139 1_555 1_555
C140 C139 1_555 1_555
H157 C140 1_555 1_555
H158 C140 1_555 1_555
C141 C140 1_555 1_555
H159 C141 1_555 1_555
H160 C141 1_555 1_555
H161 C141 1_555 1_555
C142 C56 1_555 1_555
H162 C142 1_555 1_555
H163 C142 1_555 1_555
C143 C142 1_555 1_555
H164 C143 1_555 1_555
H165 C143 1_555 1_555
C144 C143 1_555 1_555
H166 C144 1_555 1_555
H167 C144 1_555 1_555
C145 C144 1_555 1_555
H168 C145 1_555 1_555
H169 C145 1_555 1_555
C146 C145 1_555 1_555
H170 C146 1_555 1_555
H171 C146 1_555 1_555
C147 C146 1_555 1_555
H172 C147 1_555 1_555
H173 C147 1_555 1_555
C148 C147 1_555 1_555
H174 C148 1_555 1_555
H175 C148 1_555 1_555
H176 C148 1_555 1_555
O1 C8 1_555 1_555
O2 C5 1_555 1_555
O3 C3 1_555 1_555
O4 C29 1_555 1_555
O5 C24 1_555 1_555
O6 C21 1_555 1_555
O7 C16 1_555 1_555
O8 C13 1_555 1_555
O9 C47 1_555 1_555
O10 C43 1_555 1_555
O11 C39 1_555 1_555
O12 C35 1_555 1_555
O13 C37 1_555 1_555
O14 C59 1_555 1_555
O15 C55 1_555 1_555
O16 C51 1_555 1_555
O17 C60 1_555 1_555
O18 C52 1_555 1_555
O19 C44 1_555 1_555
O20 C36 1_555 1_555
C149 H177 1_555 1_555
H178 C149 1_555 1_555
Cl1 C149 1_555 1_555
Cl2 C149 1_555 1_555
C150 C151 1_555 1_555
C151 H179 1_555 1_555
H180 C151 1_555 1_555
H181 C151 1_555 1_555
C152 H182 1_555 1_555
H183 C152 1_555 1_555
H184 C152 1_555 1_555
C153 H185 1_555 1_555
H186 C153 1_555 1_555
H187 C153 1_555 1_555
O21 C150 1_555 1_555
N1 C150 1_555 1_555
C5 C6 1_555 1_555
C8 O2 1_555 1_555
C9 C10 1_555 1_555
C11 O1 1_555 1_555
C13 C14 1_555 1_555
C16 O8 1_555 1_555
C17 C18 1_555 1_555
C19 O7 1_555 1_555
C21 C22 1_555 1_555
C24 O6 1_555 1_555
C25 C26 1_555 1_555
C27 O5 1_555 1_555
C29 C30 1_555 1_555
C30 C31 1_555 1_555
C32 O3 1_555 1_555
C32 O4 1_555 1_555
C37 C38 1_555 1_555
C39 O12 1_555 1_555
C41 C46 1_555 1_555
C45 C46 1_555 1_555
C45 O11 1_555 1_555
C47 O10 1_555 1_555
C49 C54 1_555 1_555
C53 C54 1_555 1_555
C53 O9 1_555 1_555
C55 O16 1_555 1_555
C57 C62 1_555 1_555
C58 C63 1_555 1_555
C61 C62 1_555 1_555
C61 O15 1_555 1_555
C64 O13 1_555 1_555
C64 O14 1_555 1_555
C65 O20 1_555 1_555
C69 C70 1_555 1_555
C70 C71 1_555 1_555
C72 O19 1_555 1_555
C76 C77 1_555 1_555
C77 C78 1_555 1_555
C79 O18 1_555 1_555
C83 C84 1_555 1_555
C84 C85 1_555 1_555
C86 O17 1_555 1_555
C90 C91 1_555 1_555
C91 C92 1_555 1_555
C152 N1 1_555 1_555
C153 N1 1_555 1_555

#END
