
#######################################################################
#
#                 Cambridge Crystallographic Data Centre
#                                CCDC 
#
#######################################################################
#
# If this CIF has been generated from an entry in the Cambridge 
# Structural Database, then it will include bibliographic, chemical, 
# crystal, experimental, refinement or atomic coordinate data resulting 
# from the CCDC's data processing and validation procedures.
#
#######################################################################

data_REFYIM
_chemical_formula_moiety         '0.5(C14 H18 N2 2+),C33 H37 N1 O12,F6 P1 1-'
_chemical_name_systematic        
"hemikis(4,4'-ethane-1,2-diylbis(1-methylpyridinium)) (5,8,11,14,21,24,27,30,34,42-decaoxa-44-azapentacyclo-[16.14.11.1^36,40^.0^4,31^.0^15,20^]tetratetraconta-1,3,15,17,19,31,36(44),37,39-nonaene-35,41-dione) hexafluorophosphate"
_symmetry_cell_setting           triclinic
_symmetry_space_group_name_H-M   'P -1'
_symmetry_Int_Tables_number      2
_space_group_name_Hall           '-P 1'
loop_
_symmetry_equiv_pos_site_id
_symmetry_equiv_pos_as_xyz
1 x,y,z
2 -x,-y,-z
_cell_length_a                   11.3553(4)
_cell_length_b                   11.5247(7)
_cell_length_c                   16.0897(7)
_cell_angle_alpha                79.948(4)
_cell_angle_beta                 84.340(3)
_cell_angle_gamma                88.912(4)
_cell_volume                     2063.17
_exptl_crystal_colour            yellow
_exptl_crystal_description       block
_cell_formula_units_Z            2
loop_
_atom_site_label
_atom_site_type_symbol
_atom_site_fract_x
_atom_site_fract_y
_atom_site_fract_z
P1 P 0.96100(4) 1.24777(4) 0.33792(3)
F1 F 1.02557(9) 1.18932(11) 0.41896(6)
F2 F 0.83578(8) 1.22516(9) 0.39273(6)
F3 F 0.89642(9) 1.30479(12) 0.25698(7)
F4 F 1.08645(8) 1.26892(10) 0.28316(7)
F5 F 0.95406(9) 1.12113(10) 0.31104(7)
F6 F 0.96718(9) 1.37341(10) 0.36550(8)
O1 O 0.86097(10) 1.28780(11) -0.02744(8)
O2 O 0.75348(10) 1.15678(11) 0.06876(7)
O3 O 0.35937(9) 1.00464(11) 0.34758(7)
O4 O 0.14674(10) 0.84706(11) 0.34871(7)
O5 O 0.18003(10) 0.63899(12) 0.29508(8)
O6 O 0.38493(9) 0.53940(11) 0.22242(7)
O7 O 0.85881(10) 0.67954(11) -0.01784(7)
O8 O 0.86515(9) 0.75491(11) 0.10163(7)
O9 O 0.58224(10) 0.96543(11) 0.37016(7)
O10 O 0.71317(11) 0.75336(12) 0.44664(8)
O11 O 0.62841(10) 0.51870(11) 0.47035(7)
O12 O 0.57019(10) 0.48534(12) 0.30142(7)
N1 N 0.85121(11) 0.97721(13) 0.00546(8)
C1 C 0.88386(13) 0.88471(15) -0.03218(10)
C2 C 0.93031(14) 0.89593(17) -0.11643(11)
H1 H 0.9497 0.8297 -0.1407
C3 C 0.94693(14) 1.00822(17) -0.16325(11)
H2 H 0.9789 1.0187 -0.2195
C4 C 0.91542(14) 1.10451(17) -0.12529(10)
H3 H 0.9265 1.1808 -0.1551
C5 C 0.86675(13) 1.08419(16) -0.04129(10)
C6 C 0.82872(14) 1.18832(16) 0.00002(10)
C7 C 0.71047(15) 1.25158(16) 0.11452(11)
H4 H 0.6794 1.3166 0.0760
H5 H 0.7740 1.2807 0.1414
C8 C 0.61502(14) 1.19773(16) 0.17962(11)
C9 C 0.64526(15) 1.11284(16) 0.24748(11)
H6 H 0.7246 1.0974 0.2548
C10 C 0.55913(14) 1.05178(15) 0.30372(10)
C11 C 0.43873(14) 1.07529(16) 0.29285(10)
C12 C 0.40943(15) 1.16421(17) 0.22869(11)
H7 H 0.3304 1.1841 0.2234
C13 C 0.49753(15) 1.22392(17) 0.17213(11)
H8 H 0.4767 1.2825 0.1285
C14 C 0.23606(14) 1.03317(17) 0.34164(11)
H9 H 0.2179 1.0401 0.2833
H10 H 0.2182 1.1078 0.3601
C15 C 0.16334(15) 0.93701(16) 0.39687(11)
H11 H 0.2036 0.9051 0.4463
H12 H 0.0873 0.9680 0.4159
C16 C 0.08896(15) 0.74581(17) 0.39739(11)
H13 H 0.0136 0.7680 0.4242
H14 H 0.1372 0.7097 0.4414
C17 C 0.06964(14) 0.66066(17) 0.33995(11)
H15 H 0.0376 0.5875 0.3729
H16 H 0.0136 0.6931 0.3003
C18 C 0.17562(15) 0.54773(18) 0.24639(12)
H17 H 0.1026 0.5532 0.2193
H18 H 0.1780 0.4714 0.2829
C19 C 0.27970(14) 0.56051(18) 0.18048(11)
H19 H 0.2739 0.5044 0.1426
H20 H 0.2813 0.6393 0.1471
C20 C 0.49033(14) 0.54856(15) 0.17235(10)
C21 C 0.59108(14) 0.51651(15) 0.21540(10)
C22 C 0.70161(14) 0.52154(16) 0.17069(10)
H21 H 0.7680 0.4993 0.1993
C23 C 0.71491(14) 0.55951(15) 0.08328(11)
C24 C 0.61603(15) 0.59168(16) 0.04169(11)
H22 H 0.6241 0.6175 -0.0167
C25 C 0.50389(15) 0.58606(16) 0.08605(11)
H23 H 0.4378 0.6078 0.0571
C26 C 0.83678(15) 0.56465(16) 0.03547(11)
H24 H 0.8960 0.5492 0.0756
H25 H 0.8436 0.5040 0.0004
C27 C 0.86886(13) 0.76762(16) 0.02563(11)
C28 C 0.70322(16) 0.95786(18) 0.39025(12)
H26 H 0.7287 1.0338 0.3999
H27 H 0.7538 0.9365 0.3431
C29 C 0.71353(17) 0.86789(18) 0.46742(12)
H28 H 0.7864 0.8800 0.4916
H29 H 0.6478 0.8759 0.5094
C30 C 0.73300(17) 0.66572(18) 0.51767(12)
H30 H 0.6686 0.6663 0.5619
H31 H 0.8059 0.6824 0.5401
C31 C 0.74096(15) 0.54837(18) 0.49168(13)
H32 H 0.7993 0.5502 0.4432
H33 H 0.7653 0.4898 0.5377
C32 C 0.62755(16) 0.41108(17) 0.43829(11)
H34 H 0.5485 0.3781 0.4495
H35 H 0.6806 0.3554 0.4682
C33 C 0.66429(16) 0.42633(19) 0.34517(11)
H36 H 0.7362 0.4727 0.3313
H37 H 0.6794 0.3501 0.3284
N2 N 0.47544(11) 0.78006(13) 0.27336(8)
C34 C 0.44903(15) 0.71771(16) 0.36122(10)
H38 H 0.4195 0.7729 0.3966
H39 H 0.5199 0.6815 0.3816
H40 H 0.3905 0.6582 0.3626
C35 C 0.58816(14) 0.79706(16) 0.23879(11)
H41 H 0.6499 0.7668 0.2700
C36 C 0.61265(14) 0.85846(16) 0.15826(10)
H42 H 0.6909 0.8707 0.1357
C37 C 0.52169(14) 0.90278(16) 0.10970(10)
C38 C 0.40665(14) 0.88342(16) 0.14785(10)
H43 H 0.3433 0.9121 0.1178
C39 C 0.38536(14) 0.82280(16) 0.22884(10)
H44 H 0.3079 0.8111 0.2533
C40 C 0.54999(14) 0.96638(17) 0.02073(11)
H45 H 0.5793 0.9092 -0.0140
H46 H 0.6138 1.0212 0.0206
N2A N 0.52456(11) 1.21994(13) -0.27336(8)
C34A C 0.55097(15) 1.28229(16) -0.36122(10)
H38A H 0.5805 1.2271 -0.3966
H39A H 0.4801 1.3185 -0.3816
H40A H 0.6095 1.3418 -0.3626
C35A C 0.41184(14) 1.20294(16) -0.23879(11)
H41A H 0.3501 1.2332 -0.2700
C36A C 0.38735(14) 1.14154(16) -0.15826(10)
H42A H 0.3091 1.1293 -0.1357
C37A C 0.47831(14) 1.09722(16) -0.10970(10)
C38A C 0.59335(14) 1.11658(16) -0.14785(10)
H43A H 0.6567 1.0879 -0.1178
C39A C 0.61464(14) 1.17720(16) -0.22884(10)
H44A H 0.6921 1.1889 -0.2533
C40A C 0.45001(14) 1.03362(17) -0.02073(11)
H45A H 0.4207 1.0908 0.0140
H46A H 0.3862 0.9788 -0.0206
loop_
_geom_bond_atom_site_label_1
_geom_bond_atom_site_label_2
_geom_bond_site_symmetry_1
_geom_bond_site_symmetry_2
P1 F1 1_555 1_555
F2 P1 1_555 1_555
F3 P1 1_555 1_555
F4 P1 1_555 1_555
F5 P1 1_555 1_555
F6 P1 1_555 1_555
O1 C6 1_555 1_555
O2 C6 1_555 1_555
O3 C11 1_555 1_555
O4 C15 1_555 1_555
O5 C17 1_555 1_555
O6 C19 1_555 1_555
O7 C26 1_555 1_555
O8 C27 1_555 1_555
O9 C10 1_555 1_555
O10 C29 1_555 1_555
O11 C31 1_555 1_555
O12 C21 1_555 1_555
N1 C1 1_555 1_555
C1 C2 1_555 1_555
C2 H1 1_555 1_555
C3 C2 1_555 1_555
H2 C3 1_555 1_555
C4 C3 1_555 1_555
H3 C4 1_555 1_555
C5 N1 1_555 1_555
C6 C5 1_555 1_555
C7 O2 1_555 1_555
H4 C7 1_555 1_555
H5 C7 1_555 1_555
C8 C7 1_555 1_555
C9 C8 1_555 1_555
H6 C9 1_555 1_555
C10 C9 1_555 1_555
C11 C10 1_555 1_555
C12 C11 1_555 1_555
H7 C12 1_555 1_555
C13 C8 1_555 1_555
H8 C13 1_555 1_555
C14 O3 1_555 1_555
H9 C14 1_555 1_555
H10 C14 1_555 1_555
C15 C14 1_555 1_555
H11 C15 1_555 1_555
H12 C15 1_555 1_555
C16 O4 1_555 1_555
H13 C16 1_555 1_555
H14 C16 1_555 1_555
C17 C16 1_555 1_555
H15 C17 1_555 1_555
H16 C17 1_555 1_555
C18 O5 1_555 1_555
H17 C18 1_555 1_555
H18 C18 1_555 1_555
C19 C18 1_555 1_555
H19 C19 1_555 1_555
H20 C19 1_555 1_555
C20 O6 1_555 1_555
C21 C20 1_555 1_555
C22 C21 1_555 1_555
H21 C22 1_555 1_555
C23 C22 1_555 1_555
C24 C23 1_555 1_555
H22 C24 1_555 1_555
C25 C20 1_555 1_555
H23 C25 1_555 1_555
C26 C23 1_555 1_555
H24 C26 1_555 1_555
H25 C26 1_555 1_555
C27 O7 1_555 1_555
C28 O9 1_555 1_555
H26 C28 1_555 1_555
H27 C28 1_555 1_555
C29 C28 1_555 1_555
H28 C29 1_555 1_555
H29 C29 1_555 1_555
C30 O10 1_555 1_555
H30 C30 1_555 1_555
H31 C30 1_555 1_555
C31 C30 1_555 1_555
H32 C31 1_555 1_555
H33 C31 1_555 1_555
C32 O11 1_555 1_555
H34 C32 1_555 1_555
H35 C32 1_555 1_555
C33 O12 1_555 1_555
H36 C33 1_555 1_555
H37 C33 1_555 1_555
N2 C34 1_555 1_555
C34 H38 1_555 1_555
H39 C34 1_555 1_555
H40 C34 1_555 1_555
C35 N2 1_555 1_555
H41 C35 1_555 1_555
C36 C35 1_555 1_555
H42 C36 1_555 1_555
C37 C36 1_555 1_555
C38 C37 1_555 1_555
H43 C38 1_555 1_555
C39 N2 1_555 1_555
H44 C39 1_555 1_555
C40 C37 1_555 1_555
H45 C40 1_555 1_555
H46 C40 1_555 1_555
N2A C34A 1_555 1_555
C34A H38A 1_555 1_555
H39A C34A 1_555 1_555
H40A C34A 1_555 1_555
C35A N2A 1_555 1_555
H41A C35A 1_555 1_555
C36A C35A 1_555 1_555
H42A C36A 1_555 1_555
C37A C36A 1_555 1_555
C38A C37A 1_555 1_555
H43A C38A 1_555 1_555
C39A N2A 1_555 1_555
H44A C39A 1_555 1_555
C40A C40 1_555 1_555
H45A C40A 1_555 1_555
H46A C40A 1_555 1_555
C1 C27 1_555 1_555
C4 C5 1_555 1_555
C12 C13 1_555 1_555
C24 C25 1_555 1_555
C32 C33 1_555 1_555
C38 C39 1_555 1_555
C37A C40A 1_555 1_555
C38A C39A 1_555 1_555

#END
