
#######################################################################
#
#                 Cambridge Crystallographic Data Centre
#                                CCDC 
#
#######################################################################
#
# If this CIF has been generated from an entry in the Cambridge 
# Structural Database, then it will include bibliographic, chemical, 
# crystal, experimental, refinement or atomic coordinate data resulting 
# from the CCDC's data processing and validation procedures.
#
#######################################################################

data_REGCUC
_chemical_formula_moiety         'C19 H16 F2 N2 O3'
_chemical_name_systematic        
5-(bis(4-Fluorophenyl)hydroxymethyl)-1,3-dimethyluracil
_symmetry_cell_setting           monoclinic
_symmetry_space_group_name_H-M   'P 21/c'
_symmetry_Int_Tables_number      14
_space_group_name_Hall           '-P 2ybc'
loop_
_symmetry_equiv_pos_site_id
_symmetry_equiv_pos_as_xyz
1 x,y,z
2 -x,1/2+y,1/2-z
3 -x,-y,-z
4 x,1/2-y,1/2+z
_cell_length_a                   5.6908(14)
_cell_length_b                   18.498(5)
_cell_length_c                   16.278(3)
_cell_angle_alpha                90
_cell_angle_beta                 95.961(6)
_cell_angle_gamma                90
_cell_volume                     1704.29
_exptl_crystal_colour            colorless
_exptl_crystal_description       needles
_chemical_melting_point          187-188deg.C
_cell_formula_units_Z            4
loop_
_atom_site_label
_atom_site_type_symbol
_atom_site_fract_x
_atom_site_fract_y
_atom_site_fract_z
F1 F 0.6120(4) 0.42091(12) -0.05439(11)
F2 F 0.8036(4) 0.42321(10) 0.51568(10)
O1 O 1.2019(3) 0.25563(11) 0.22572(10)
H1 H 1.242(5) 0.2252(14) 0.2645(14)
O2 O 1.1518(4) 0.14471(11) 0.32738(12)
O3 O 0.5774(4) -0.01572(12) 0.23399(14)
N1 N 0.8674(5) 0.06421(14) 0.28012(14)
N2 N 0.5552(4) 0.09894(12) 0.18335(13)
C1 C 0.8582(5) 0.30650(13) 0.15390(14)
C2 C 0.6557(5) 0.34683(15) 0.15167(16)
H2 H 0.5729 0.3484 0.1980
C3 C 0.5717(5) 0.38554(17) 0.08114(18)
H3 H 0.4344 0.4129 0.0800
C4 C 0.6944(7) 0.38234(19) 0.01435(18)
C5 C 0.8947(7) 0.3436(2) 0.01407(17)
H4 H 0.9766 0.3429 -0.0325
C6 C 0.9769(5) 0.30499(16) 0.08377(16)
H5 H 1.1139 0.2776 0.0836
C7 C 0.9115(4) 0.30352(14) 0.30973(14)
C8 C 1.0593(5) 0.36067(15) 0.33526(16)
H6 H 1.1848 0.3721 0.3053
C9 C 1.0233(6) 0.40111(16) 0.40461(17)
H7 H 1.1227 0.4394 0.4213
C10 C 0.8400(6) 0.38342(17) 0.44742(16)
C11 C 0.6914(5) 0.32805(18) 0.42505(16)
H8 H 0.5666 0.3173 0.4557
C12 C 0.7281(5) 0.28736(16) 0.35545(15)
H9 H 0.6278 0.2490 0.3398
C13 C 0.9523(4) 0.26242(14) 0.23000(14)
C14 C 0.8467(5) 0.18671(14) 0.22931(14)
C15 C 0.9663(6) 0.13236(17) 0.28218(16)
C16 C 0.6615(6) 0.04498(18) 0.23321(19)
C17 C 0.6507(5) 0.16680(14) 0.18229(14)
H10 H 0.5750 0.2010 0.1469
C18 C 0.9947(7) 0.00801(18) 0.3319(2)
H11 H 0.9001 -0.0350 0.3311
H12 H 1.0248 0.0253 0.3877
H13 H 1.1420 -0.0027 0.3107
C19 C 0.3403(5) 0.08034(16) 0.12945(18)
H14 H 0.2643 0.1238 0.1084
H15 H 0.2346 0.0538 0.1605
H16 H 0.3817 0.0512 0.0843
loop_
_geom_bond_atom_site_label_1
_geom_bond_atom_site_label_2
_geom_bond_site_symmetry_1
_geom_bond_site_symmetry_2
F1 C4 1_555 1_555
F2 C10 1_555 1_555
O1 H1 1_555 1_555
O2 C15 1_555 1_555
O3 C16 1_555 1_555
N1 C15 1_555 1_555
N2 C16 1_555 1_555
C1 C2 1_555 1_555
C2 H2 1_555 1_555
C3 C2 1_555 1_555
H3 C3 1_555 1_555
C4 C3 1_555 1_555
C5 C4 1_555 1_555
H4 C5 1_555 1_555
C6 C1 1_555 1_555
H5 C6 1_555 1_555
C7 C8 1_555 1_555
C8 H6 1_555 1_555
C9 C8 1_555 1_555
H7 C9 1_555 1_555
C10 C9 1_555 1_555
C11 C10 1_555 1_555
H8 C11 1_555 1_555
C12 C7 1_555 1_555
H9 C12 1_555 1_555
C13 O1 1_555 1_555
C14 C13 1_555 1_555
C15 C14 1_555 1_555
C16 N1 1_555 1_555
C17 N2 1_555 1_555
H10 C17 1_555 1_555
C18 N1 1_555 1_555
H11 C18 1_555 1_555
H12 C18 1_555 1_555
H13 C18 1_555 1_555
C19 N2 1_555 1_555
H14 C19 1_555 1_555
H15 C19 1_555 1_555
H16 C19 1_555 1_555
C1 C13 1_555 1_555
C5 C6 1_555 1_555
C7 C13 1_555 1_555
C11 C12 1_555 1_555
C14 C17 1_555 1_555

#END
