
#######################################################################
#
#                 Cambridge Crystallographic Data Centre
#                                CCDC 
#
#######################################################################
#
# If this CIF has been generated from an entry in the Cambridge 
# Structural Database, then it will include bibliographic, chemical, 
# crystal, experimental, refinement or atomic coordinate data resulting 
# from the CCDC's data processing and validation procedures.
#
#######################################################################

data_REGFAM
_chemical_formula_moiety         'C16 H19 Br1 N2 O3 S2'
_chemical_name_systematic        
4-(1-(4-Bromophenyl)-2-nitroethyl)-2-(ethylsulfanyl)-4-isopropyl-1,3-thiazol-5(4H)-one
_symmetry_cell_setting           monoclinic
_symmetry_space_group_name_H-M   'P 21'
_symmetry_Int_Tables_number      4
_space_group_name_Hall           'P 2yb'
loop_
_symmetry_equiv_pos_site_id
_symmetry_equiv_pos_as_xyz
1 x,y,z
2 -x,1/2+y,-z
_cell_length_a                   11.457(4)
_cell_length_b                   6.662(2)
_cell_length_c                   12.702(4)
_cell_angle_alpha                90
_cell_angle_beta                 95.754(3)
_cell_angle_gamma                90
_cell_volume                     964.615
_exptl_crystal_colour            colorless
_exptl_crystal_description       block
_cell_formula_units_Z            2
loop_
_atom_site_label
_atom_site_type_symbol
_atom_site_fract_x
_atom_site_fract_y
_atom_site_fract_z
Br1 Br 0.63901(4) 0.53446(11) 0.65698(3)
C1 C 0.6916(3) 0.3337(6) 0.3577(3)
H1 H 0.7174 0.2162 0.3281
C2 C 0.6868(4) 0.3432(7) 0.4651(3)
H2 H 0.7091 0.2331 0.5074
C3 C 0.6491(3) 0.5151(9) 0.5094(3)
C4 C 0.6170(4) 0.6759(8) 0.4483(4)
H3 H 0.5916 0.7929 0.4789
C5 C 0.6220(3) 0.6656(6) 0.3393(4)
H4 H 0.5999 0.7765 0.2975
C6 C 0.6591(2) 0.4943(5) 0.2926(3)
C7 C 0.6623(2) 0.4740(5) 0.1735(2)
H5 H 0.6753 0.3313 0.1601
C8 C 0.7654(2) 0.5880(5) 0.1294(3)
C9 C 0.7510(3) 0.8149(6) 0.1407(3)
C10 C 0.9310(3) 0.6720(6) 0.2361(3)
C11 C 1.0953(4) 0.3973(8) 0.3157(4)
H6 H 1.0566 0.3343 0.2527
H7 H 1.1790 0.3754 0.3156
C12 C 1.0548(5) 0.2984(9) 0.4105(5)
H8 H 1.0943 0.3570 0.4733
H9 H 1.0723 0.1575 0.4088
H10 H 0.9717 0.3167 0.4105
C13 C 0.7756(3) 0.5453(6) 0.0103(2)
H11 H 0.7041 0.5963 -0.0298
C14 C 0.7836(4) 0.3225(7) -0.0130(3)
H12 H 0.7948 0.3037 -0.0863
H13 H 0.7124 0.2574 0.0020
H14 H 0.8487 0.2656 0.0304
C15 C 0.8795(3) 0.6549(7) -0.0295(3)
H15 H 0.9507 0.6133 0.0110
H16 H 0.8696 0.7970 -0.0218
H17 H 0.8838 0.6233 -0.1028
C16 C 0.5427(2) 0.5269(7) 0.1130(3)
H18 H 0.5223 0.6647 0.1277
H19 H 0.5473 0.5139 0.0374
N1 N 0.4509(2) 0.3888(6) 0.1466(2)
N2 N 0.8733(2) 0.5267(5) 0.1923(2)
O1 O 0.4684(2) 0.2095(5) 0.1414(2)
O2 O 0.3626(2) 0.4627(5) 0.1746(3)
O3 O 0.6693(2) 0.9132(4) 0.1006(3)
S1 S 1.06672(10) 0.6638(2) 0.30914(11)
S2 S 0.87185(9) 0.91908(16) 0.22045(10)
loop_
_geom_bond_atom_site_label_1
_geom_bond_atom_site_label_2
_geom_bond_site_symmetry_1
_geom_bond_site_symmetry_2
Br1 C3 1_555 1_555
C1 H1 1_555 1_555
C2 C1 1_555 1_555
H2 C2 1_555 1_555
C3 C2 1_555 1_555
C4 C3 1_555 1_555
H3 C4 1_555 1_555
C5 C4 1_555 1_555
H4 C5 1_555 1_555
C6 C1 1_555 1_555
C7 C6 1_555 1_555
H5 C7 1_555 1_555
C8 C7 1_555 1_555
C9 C8 1_555 1_555
C10 N2 1_555 1_555
C11 H6 1_555 1_555
H7 C11 1_555 1_555
C12 C11 1_555 1_555
H8 C12 1_555 1_555
H9 C12 1_555 1_555
H10 C12 1_555 1_555
C13 C8 1_555 1_555
H11 C13 1_555 1_555
C14 C13 1_555 1_555
H12 C14 1_555 1_555
H13 C14 1_555 1_555
H14 C14 1_555 1_555
C15 C13 1_555 1_555
H15 C15 1_555 1_555
H16 C15 1_555 1_555
H17 C15 1_555 1_555
C16 C7 1_555 1_555
H18 C16 1_555 1_555
H19 C16 1_555 1_555
N1 C16 1_555 1_555
N2 C8 1_555 1_555
O1 N1 1_555 1_555
O2 N1 1_555 1_555
O3 C9 1_555 1_555
S1 C10 1_555 1_555
S2 C9 1_555 1_555
C5 C6 1_555 1_555
C10 S2 1_555 1_555
C11 S1 1_555 1_555

#END
