
#######################################################################
#
#                 Cambridge Crystallographic Data Centre
#                                CCDC 
#
#######################################################################
#
# If this CIF has been generated from an entry in the Cambridge 
# Structural Database, then it will include bibliographic, chemical, 
# crystal, experimental, refinement or atomic coordinate data resulting 
# from the CCDC's data processing and validation procedures.
#
#######################################################################

data_REGJIX
_chemical_formula_moiety         'C80 H46 O12,C7 H8'
_chemical_name_systematic        
'43,46,49,52,55-pentakis(t-butylperoxo)-60-hydroxy-52,60-homo-oxaC60fullerene toluene solvate'
_symmetry_cell_setting           monoclinic
_symmetry_space_group_name_H-M   'P 21/c'
_symmetry_Int_Tables_number      14
_space_group_name_Hall           '-P 2ybc'
loop_
_symmetry_equiv_pos_site_id
_symmetry_equiv_pos_as_xyz
1 x,y,z
2 -x,1/2+y,1/2-z
3 -x,-y,-z
4 x,1/2-y,1/2+z
_cell_length_a                   13.991(3)
_cell_length_b                   13.811(3)
_cell_length_c                   32.540(7)
_cell_angle_alpha                90
_cell_angle_beta                 102.17(3)
_cell_angle_gamma                90
_cell_volume                     6146.39
_exptl_crystal_colour            red
_exptl_crystal_description       Block
_cell_formula_units_Z            4
_exptl_crystal_recrystallization_method toluene
loop_
_atom_site_label
_atom_site_type_symbol
_atom_site_fract_x
_atom_site_fract_y
_atom_site_fract_z
O1 O 0.9994(2) 0.1193(2) 0.12799(9)
O2 O 1.0841(2) 0.1352(2) 0.07925(9)
H1 H 1.0595 0.0727 0.0661
O3 O 1.0773(2) -0.1377(2) 0.10442(10)
O4 O 1.0042(3) -0.0730(2) 0.07953(10)
O5 O 1.3492(3) -0.0410(3) 0.10094(12)
O6 O 1.4120(3) -0.1169(4) 0.10164(14)
O7 O 1.3932(2) 0.2521(2) 0.13830(9)
O8 O 1.4115(2) 0.1850(2) 0.10523(10)
O9 O 1.1124(2) 0.3542(2) 0.15835(9)
O10 O 1.1845(2) 0.3938(2) 0.13609(11)
O11 O 0.8758(2) 0.1185(2) 0.16076(9)
O12 O 0.8228(2) 0.0378(2) 0.13610(10)
C1 C 1.4663(3) -0.0133(3) 0.31692(15)
C2 C 1.4684(3) -0.0829(3) 0.28398(15)
C3 C 1.4015(4) -0.1587(3) 0.27664(16)
C4 C 1.3311(4) -0.1687(3) 0.30305(16)
C5 C 1.3311(4) -0.1006(4) 0.33552(15)
C6 C 1.3987(4) -0.0221(3) 0.34198(15)
C7 C 1.3492(4) 0.0629(4) 0.35315(14)
C8 C 1.3688(4) 0.1528(3) 0.33766(13)
C9 C 1.4386(4) 0.1621(3) 0.31178(14)
C10 C 1.4872(3) 0.0830(3) 0.30154(14)
C11 C 1.5026(3) 0.0694(3) 0.25895(15)
C12 C 1.4903(3) -0.0324(3) 0.24804(16)
C13 C 1.4456(3) -0.0577(3) 0.20766(15)
C14 C 1.3769(3) -0.1367(3) 0.20075(15)
C15 C 1.3561(3) -0.1860(3) 0.23507(16)
C16 C 1.2562(4) -0.2119(3) 0.23428(16)
C17 C 1.2428(4) -0.2021(3) 0.27747(16)
C18 C 1.1541(4) -0.1670(3) 0.28343(15)
C19 C 1.1516(4) -0.0985(3) 0.31650(15)
C20 C 1.2377(4) -0.0658(3) 0.34210(13)
C21 C 1.2495(4) 0.0351(4) 0.35307(14)
C22 C 1.1737(4) 0.1007(3) 0.33830(13)
C23 C 1.1951(4) 0.1936(3) 0.32200(14)
C24 C 1.2891(4) 0.2194(3) 0.32178(13)
C25 C 1.3115(3) 0.2691(3) 0.28606(13)
C26 C 1.4027(3) 0.2350(3) 0.27950(14)
C27 C 1.4174(3) 0.2223(3) 0.23976(14)
C28 C 1.4684(3) 0.1380(3) 0.22852(13)
C29 C 1.4251(3) 0.1105(3) 0.18642(13)
C30 C 1.4147(3) 0.0148(3) 0.17590(14)
C31 C 1.3298(3) -0.0261(3) 0.14251(14)
C32 C 1.3014(4) -0.1160(3) 0.16444(14)
C33 C 1.2064(3) -0.1395(3) 0.16425(14)
C34 C 1.1844(3) -0.1851(3) 0.20037(15)
C35 C 1.0925(3) -0.1477(3) 0.20709(15)
C36 C 1.0774(3) -0.1414(3) 0.24764(14)
C37 C 1.0262(3) -0.0597(3) 0.25883(15)
C38 C 1.0716(4) -0.0320(3) 0.30134(16)
C39 C 1.0845(4) 0.0651(3) 0.31240(14)
C40 C 1.0505(3) 0.1380(3) 0.28099(14)
C41 C 1.1172(3) 0.2153(3) 0.28537(14)
C42 C 1.1387(3) 0.2602(3) 0.25045(14)
C43 C 1.2388(3) 0.2894(3) 0.25084(15)
C44 C 1.2537(3) 0.2821(3) 0.20909(13)
C45 C 1.3426(3) 0.2504(3) 0.20367(13)
C46 C 1.3531(3) 0.1906(3) 0.16601(14)
C47 C 1.2582(3) 0.1471(3) 0.14685(13)
C48 C 1.2451(3) 0.0427(3) 0.13592(13)
C49 C 1.1520(3) 0.0173(3) 0.13144(13)
C50 C 1.1177(3) -0.0812(3) 0.14103(13)
C51 C 1.0563(3) -0.0772(3) 0.17468(14)
C52 C 1.0008(3) -0.0014(3) 0.18575(14)
C53 C 0.9931(3) 0.0092(3) 0.22871(14)
C54 C 1.0038(3) 0.1111(3) 0.23987(14)
C55 C 1.0200(3) 0.1638(3) 0.20303(13)
C56 C 1.0903(3) 0.2347(3) 0.20791(13)
C57 C 1.1555(3) 0.2672(3) 0.17714(13)
C58 C 1.1704(3) 0.1859(3) 0.14745(13)
C59 C 1.0956(3) 0.1138(3) 0.12276(13)
C60 C 0.9759(3) 0.0979(3) 0.16602(13)
C61 C 0.9278(4) -0.1346(4) 0.05477(17)
C62 C 0.8617(5) -0.0566(5) 0.0315(2)
H2 H 0.8953 -0.0224 0.0131
H3 H 0.8442 -0.0121 0.0513
H4 H 0.8036 -0.0858 0.0152
C63 C 0.8797(5) -0.1901(5) 0.0843(2)
H5 H 0.8535 -0.1458 0.1018
H6 H 0.9269 -0.2314 0.1016
H7 H 0.8277 -0.2289 0.0684
C64 C 0.9724(5) -0.1987(5) 0.02628(18)
H8 H 1.0011 -0.1592 0.0078
H9 H 0.9226 -0.2390 0.0100
H10 H 1.0220 -0.2386 0.0430
C65 C 1.3755(6) -0.1764(5) 0.0637(2)
C66 C 1.3885(6) -0.1198(5) 0.02737(19)
H11 H 1.4547 -0.0967 0.0319
H12 H 1.3445 -0.0656 0.0236
H13 H 1.3750 -0.1597 0.0027
C67 C 1.2827(7) -0.2189(7) 0.0624(3)
H14 H 1.2846 -0.2555 0.0876
H15 H 1.2665 -0.2611 0.0385
H16 H 1.2342 -0.1689 0.0602
C68 C 1.4609(7) -0.2515(7) 0.0724(3)
H17 H 1.5216 -0.2191 0.0724
H18 H 1.4498 -0.3002 0.0508
H19 H 1.4637 -0.2813 0.0992
C69 C 1.3896(4) 0.2383(4) 0.06553(15)
C70 C 1.4144(5) 0.1624(5) 0.03561(17)
H20 H 1.4830 0.1478 0.0431
H21 H 1.3985 0.1867 0.0074
H22 H 1.3774 0.1046 0.0375
C71 C 1.4551(5) 0.3247(5) 0.06812(18)
H23 H 1.5221 0.3040 0.0742
H24 H 1.4439 0.3670 0.0900
H25 H 1.4414 0.3585 0.0418
C72 C 1.2839(4) 0.2647(5) 0.05536(16)
H26 H 1.2717 0.3138 0.0745
H27 H 1.2452 0.2085 0.0580
H28 H 1.2668 0.2888 0.0271
C73 C 1.1924(4) 0.4980(3) 0.14386(19)
C74 C 1.2193(5) 0.5209(4) 0.1902(2)
H29 H 1.1652 0.5057 0.2030
H30 H 1.2346 0.5885 0.1940
H31 H 1.2751 0.4831 0.2032
C75 C 1.0974(5) 0.5462(4) 0.1231(2)
H32 H 1.0823 0.5304 0.0937
H33 H 1.1038 0.6151 0.1264
H34 H 1.0457 0.5237 0.1359
C76 C 1.2734(5) 0.5206(4) 0.1217(2)
H35 H 1.2529 0.5051 0.0924
H36 H 1.3300 0.4830 0.1338
H37 H 1.2891 0.5883 0.1248
C77 C 0.7218(3) 0.0453(3) 0.14127(16)
C78 C 0.7180(4) 0.0370(4) 0.18648(17)
H38 H 0.7453 -0.0240 0.1972
H39 H 0.6512 0.0408 0.1894
H40 H 0.7548 0.0888 0.2019
C79 C 0.6746(4) -0.0411(4) 0.11650(19)
H41 H 0.7040 -0.0995 0.1293
H42 H 0.6840 -0.0371 0.0882
H43 H 0.6059 -0.0416 0.1163
C80 C 0.6797(4) 0.1378(4) 0.12245(17)
H44 H 0.6842 0.1403 0.0934
H45 H 0.7153 0.1911 0.1373
H46 H 0.6123 0.1420 0.1244
C81 C 0.7481(5) 0.4376(5) 0.03504(17)
C82 C 0.8192(7) 0.4955(6) 0.0211(3)
H47 H 0.8148 0.5551 0.0075
C83 C 0.8934(6) 0.4366(7) 0.0341(3)
H48 H 0.9482 0.4669 0.0280
C84 C 0.9266(6) 0.3456(8) 0.0535(3)
H49 H 0.9879 0.3177 0.0555
C85 C 0.8519(8) 0.3096(6) 0.0681(2)
H50 H 0.8570 0.2543 0.0847
C86 C 0.7644(6) 0.3628(5) 0.05609(19)
H51 H 0.7110 0.3377 0.0654
C87 C 0.6613(7) 0.4870(8) 0.0287(3)
H52 H 0.6649 0.5428 0.0115
H53 H 0.6489 0.5074 0.0553
H54 H 0.6093 0.4455 0.0149
loop_
_geom_bond_atom_site_label_1
_geom_bond_atom_site_label_2
_geom_bond_site_symmetry_1
_geom_bond_site_symmetry_2
O1 C59 1_555 1_555
O2 H1 1_555 1_555
O3 O4 1_555 1_555
O4 C61 1_555 1_555
O5 O6 1_555 1_555
O6 C65 1_555 1_555
O7 O8 1_555 1_555
O8 C69 1_555 1_555
O9 O10 1_555 1_555
O10 C73 1_555 1_555
O11 O12 1_555 1_555
O12 C77 1_555 1_555
C1 C2 1_555 1_555
C2 C3 1_555 1_555
C3 C4 1_555 1_555
C4 C5 1_555 1_555
C5 C6 1_555 1_555
C6 C1 1_555 1_555
C7 C6 1_555 1_555
C8 C7 1_555 1_555
C9 C8 1_555 1_555
C10 C1 1_555 1_555
C11 C10 1_555 1_555
C12 C2 1_555 1_555
C13 C12 1_555 1_555
C14 C13 1_555 1_555
C15 C3 1_555 1_555
C16 C15 1_555 1_555
C17 C4 1_555 1_555
C18 C17 1_555 1_555
C19 C18 1_555 1_555
C20 C5 1_555 1_555
C21 C7 1_555 1_555
C22 C21 1_555 1_555
C23 C22 1_555 1_555
C24 C8 1_555 1_555
C25 C24 1_555 1_555
C26 C9 1_555 1_555
C27 C26 1_555 1_555
C28 C11 1_555 1_555
C29 C28 1_555 1_555
C30 C13 1_555 1_555
C31 O5 1_555 1_555
C32 C14 1_555 1_555
C33 C32 1_555 1_555
C34 C16 1_555 1_555
C35 C34 1_555 1_555
C36 C18 1_555 1_555
C37 C36 1_555 1_555
C38 C19 1_555 1_555
C39 C22 1_555 1_555
C40 C39 1_555 1_555
C41 C23 1_555 1_555
C42 C41 1_555 1_555
C43 C25 1_555 1_555
C44 C43 1_555 1_555
C45 C27 1_555 1_555
C46 O7 1_555 1_555
C47 C46 1_555 1_555
C48 C31 1_555 1_555
C49 C48 1_555 1_555
C50 O3 1_555 1_555
C51 C35 1_555 1_555
C52 C51 1_555 1_555
C53 C37 1_555 1_555
C54 C40 1_555 1_555
C55 C54 1_555 1_555
C56 C42 1_555 1_555
C57 O9 1_555 1_555
C58 C47 1_555 1_555
C59 O2 1_555 1_555
C60 O1 1_555 1_555
C61 C62 1_555 1_555
C62 H2 1_555 1_555
H3 C62 1_555 1_555
H4 C62 1_555 1_555
C63 C61 1_555 1_555
H5 C63 1_555 1_555
H6 C63 1_555 1_555
H7 C63 1_555 1_555
C64 C61 1_555 1_555
H8 C64 1_555 1_555
H9 C64 1_555 1_555
H10 C64 1_555 1_555
C65 C66 1_555 1_555
C66 H11 1_555 1_555
H12 C66 1_555 1_555
H13 C66 1_555 1_555
C67 C65 1_555 1_555
H14 C67 1_555 1_555
H15 C67 1_555 1_555
H16 C67 1_555 1_555
C68 C65 1_555 1_555
H17 C68 1_555 1_555
H18 C68 1_555 1_555
H19 C68 1_555 1_555
C69 C70 1_555 1_555
C70 H20 1_555 1_555
H21 C70 1_555 1_555
H22 C70 1_555 1_555
C71 C69 1_555 1_555
H23 C71 1_555 1_555
H24 C71 1_555 1_555
H25 C71 1_555 1_555
C72 C69 1_555 1_555
H26 C72 1_555 1_555
H27 C72 1_555 1_555
H28 C72 1_555 1_555
C73 C74 1_555 1_555
C74 H29 1_555 1_555
H30 C74 1_555 1_555
H31 C74 1_555 1_555
C75 C73 1_555 1_555
H32 C75 1_555 1_555
H33 C75 1_555 1_555
H34 C75 1_555 1_555
C76 C73 1_555 1_555
H35 C76 1_555 1_555
H36 C76 1_555 1_555
H37 C76 1_555 1_555
C77 C78 1_555 1_555
C78 H38 1_555 1_555
H39 C78 1_555 1_555
H40 C78 1_555 1_555
C79 C77 1_555 1_555
H41 C79 1_555 1_555
H42 C79 1_555 1_555
H43 C79 1_555 1_555
C80 C77 1_555 1_555
H44 C80 1_555 1_555
H45 C80 1_555 1_555
H46 C80 1_555 1_555
C81 C82 1_555 1_555
C82 H47 1_555 1_555
C83 C82 1_555 1_555
H48 C83 1_555 1_555
C84 C83 1_555 1_555
H49 C84 1_555 1_555
C85 C84 1_555 1_555
H50 C85 1_555 1_555
C86 C81 1_555 1_555
H51 C86 1_555 1_555
C87 C81 1_555 1_555
H52 C87 1_555 1_555
H53 C87 1_555 1_555
H54 C87 1_555 1_555
O11 C60 1_555 1_555
C9 C10 1_555 1_555
C11 C12 1_555 1_555
C14 C15 1_555 1_555
C16 C17 1_555 1_555
C19 C20 1_555 1_555
C20 C21 1_555 1_555
C23 C24 1_555 1_555
C25 C26 1_555 1_555
C27 C28 1_555 1_555
C29 C30 1_555 1_555
C29 C46 1_555 1_555
C30 C31 1_555 1_555
C31 C32 1_555 1_555
C33 C34 1_555 1_555
C33 C50 1_555 1_555
C35 C36 1_555 1_555
C37 C38 1_555 1_555
C38 C39 1_555 1_555
C40 C41 1_555 1_555
C42 C43 1_555 1_555
C44 C45 1_555 1_555
C44 C57 1_555 1_555
C45 C46 1_555 1_555
C47 C48 1_555 1_555
C49 C50 1_555 1_555
C49 C59 1_555 1_555
C50 C51 1_555 1_555
C52 C53 1_555 1_555
C52 C60 1_555 1_555
C53 C54 1_555 1_555
C55 C56 1_555 1_555
C55 C60 1_555 1_555
C56 C57 1_555 1_555
C57 C58 1_555 1_555
C58 C59 1_555 1_555
C85 C86 1_555 1_555

#END
