
#######################################################################
#
#                 Cambridge Crystallographic Data Centre
#                                CCDC 
#
#######################################################################
#
# If this CIF has been generated from an entry in the Cambridge 
# Structural Database, then it will include bibliographic, chemical, 
# crystal, experimental, refinement or atomic coordinate data resulting 
# from the CCDC's data processing and validation procedures.
#
#######################################################################

data_REGQIE
_chemical_formula_moiety         'C25 H27 N1 O5'
_chemical_name_systematic        
2-((E)-2-(2,3,5,6,8,9,11,12-Octahydro-1,4,7,10,13-pentaoxabenzocyclopentadecin-15-yl)ethen-1-yl)quinoline
_symmetry_cell_setting           monoclinic
_symmetry_space_group_name_H-M   'P 21/c'
_symmetry_Int_Tables_number      14
_space_group_name_Hall           '-P 2ybc'
loop_
_symmetry_equiv_pos_site_id
_symmetry_equiv_pos_as_xyz
1 x,y,z
2 -x,1/2+y,1/2-z
3 -x,-y,-z
4 x,1/2-y,1/2+z
_cell_length_a                   16.3962(14)
_cell_length_b                   33.194(3)
_cell_length_c                   7.8165(7)
_cell_angle_alpha                90
_cell_angle_beta                 91.798(5)
_cell_angle_gamma                90
_cell_volume                     4252.08
_chemical_melting_point          '119-121 deg.C'
_cell_formula_units_Z            8
_exptl_crystal_recrystallization_method acetonitrile
loop_
_atom_site_label
_atom_site_type_symbol
_atom_site_fract_x
_atom_site_fract_y
_atom_site_fract_z
O1 O -0.01725(17) 0.55349(8) 0.3064(4)
O2 O -0.09877(19) 0.55900(9) -0.0678(4)
O3 O -0.0962(2) 0.66149(9) 0.1053(4)
O4 O -0.0035(2) 0.69525(9) 0.3896(4)
O5 O 0.02652(18) 0.61335(8) 0.4979(4)
N1 N 0.2154(2) 0.36869(10) 0.3691(4)
C1 C -0.0349(3) 0.52247(13) 0.1817(6)
C2 C -0.1113(3) 0.53321(15) 0.0752(6)
C3 C -0.0711(3) 0.59890(14) -0.0284(6)
C4 C -0.1293(3) 0.62162(15) 0.0809(7)
C5 C -0.1336(3) 0.68268(16) 0.2409(7)
C6 C -0.0755(3) 0.71328(15) 0.3140(8)
C7 C -0.0113(3) 0.68021(14) 0.5589(6)
C8 C 0.0515(3) 0.64848(13) 0.5956(6)
C9 C 0.0759(2) 0.58030(12) 0.5109(5)
C10 C 0.1470(3) 0.57718(13) 0.6126(6)
C11 C 0.1923(3) 0.54153(14) 0.6124(6)
C12 C 0.1679(3) 0.50819(12) 0.5169(5)
C13 C 0.0974(3) 0.51188(12) 0.4105(5)
C14 C 0.0515(2) 0.54703(11) 0.4070(5)
C15 C 0.2141(3) 0.47054(13) 0.5324(5)
C16 C 0.1917(3) 0.43519(13) 0.4669(5)
C17 C 0.2414(3) 0.39780(12) 0.4739(5)
C18 C 0.3129(3) 0.39350(13) 0.5816(6)
C19 C 0.3597(3) 0.35959(13) 0.5731(6)
C20 C 0.3359(3) 0.32811(12) 0.4535(5)
C21 C 0.3828(3) 0.29294(13) 0.4268(6)
C22 C 0.3568(3) 0.26493(13) 0.3095(6)
C23 C 0.2824(3) 0.27023(12) 0.2152(6)
C24 C 0.2356(3) 0.30445(13) 0.2392(6)
C25 C 0.2619(3) 0.33435(12) 0.3568(5)
H1 H -0.042(3) 0.4958(15) 0.240(6)
H2 H 0.010(3) 0.5198(12) 0.091(6)
H3 H -0.125(3) 0.5060(14) 0.027(6)
H4 H -0.146(3) 0.5425(15) 0.157(6)
H5 H -0.069(3) 0.6128(13) -0.146(6)
H6 H -0.015(3) 0.5967(14) 0.029(6)
H7 H -0.184(4) 0.6226(17) 0.032(8)
H8 H -0.130(3) 0.6095(15) 0.199(7)
H9 H -0.138(3) 0.6658(16) 0.344(7)
H10 H -0.187(4) 0.6938(18) 0.182(8)
H11 H -0.047(3) 0.7342(16) 0.207(7)
H12 H -0.101(3) 0.7323(15) 0.400(7)
H13 H -0.060(3) 0.6716(12) 0.575(5)
H14 H 0.005(3) 0.7004(15) 0.645(7)
H15 H 0.105(3) 0.6579(13) 0.551(6)
H16 H 0.057(2) 0.6410(10) 0.722(5)
H17 H 0.162(2) 0.6017(12) 0.685(5)
H18 H 0.233(3) 0.5407(13) 0.672(6)
H19 H 0.081(3) 0.4926(14) 0.348(6)
H20 H 0.261(3) 0.4709(13) 0.606(6)
H21 H 0.141(2) 0.4326(10) 0.396(4)
H22 H 0.329(3) 0.4157(14) 0.660(6)
H23 H 0.402(3) 0.3546(12) 0.638(5)
H24 H 0.435(3) 0.2932(13) 0.497(6)
H25 H 0.388(3) 0.2429(17) 0.292(7)
H26 H 0.258(3) 0.2493(15) 0.125(6)
H27 H 0.181(3) 0.3087(16) 0.169(7)
O6 O 0.51572(17) 0.43678(8) 0.7767(4)
O7 O 0.59128(19) 0.44091(9) 0.4028(4)
O8 O 0.5781(2) 0.33296(9) 0.4931(4)
O9 O 0.5299(2) 0.29921(9) 0.8262(4)
O10 O 0.47765(18) 0.37467(8) 0.9529(4)
N2 N 0.2841(2) 0.62200(11) 0.9143(4)
C26 C 0.5334(3) 0.47036(13) 0.6662(6)
C27 C 0.6081(3) 0.46030(14) 0.5631(6)
C28 C 0.5584(3) 0.40085(13) 0.4121(6)
C29 C 0.6139(3) 0.37215(14) 0.5133(7)
C30 C 0.6209(4) 0.30222(15) 0.5883(7)
C31 C 0.6129(3) 0.30506(17) 0.7800(7)
C32 C 0.5191(3) 0.30694(15) 1.0043(6)
C33 C 0.4527(3) 0.33743(13) 1.0287(7)
C34 C 0.4302(3) 0.40790(12) 0.9782(5)
C35 C 0.3636(3) 0.40929(14) 1.0839(6)
C36 C 0.3211(3) 0.44512(14) 1.1005(6)
C37 C 0.3430(3) 0.48023(12) 1.0144(5)
C38 C 0.4087(2) 0.47789(12) 0.9014(5)
C39 C 0.4518(2) 0.44239(11) 0.8831(5)
C40 C 0.2989(3) 0.51786(13) 1.0486(5)
C41 C 0.3154(3) 0.55429(13) 0.9866(5)
C42 C 0.2660(3) 0.59091(12) 1.0143(5)
C43 C 0.2017(3) 0.59228(13) 1.1334(6)
C44 C 0.1538(3) 0.62606(14) 1.1404(6)
C45 C 0.1681(3) 0.65920(13) 1.0297(5)
C46 C 0.1195(3) 0.69438(14) 1.0241(6)
C47 C 0.1373(3) 0.72533(14) 0.9147(7)
C48 C 0.2063(3) 0.72258(13) 0.8085(6)
C49 C 0.2541(3) 0.68857(14) 0.8122(6)
C50 C 0.2356(3) 0.65576(12) 0.9208(5)
H28 H 0.544(3) 0.4956(13) 0.726(5)
H29 H 0.490(3) 0.4741(15) 0.581(7)
H30 H 0.636(3) 0.4868(14) 0.531(6)
H31 H 0.652(3) 0.4447(12) 0.642(5)
H32 H 0.550(3) 0.3942(15) 0.272(7)
H33 H 0.506(3) 0.4038(15) 0.458(7)
H34 H 0.676(4) 0.3752(18) 0.473(8)
H35 H 0.613(3) 0.3770(14) 0.636(7)
H36 H 0.687(3) 0.3021(15) 0.568(6)
H37 H 0.593(3) 0.2792(16) 0.542(7)
H38 H 0.650(4) 0.2852(18) 0.835(8)
H39 H 0.625(4) 0.335(2) 0.821(8)
H40 H 0.572(3) 0.3174(15) 1.060(7)
H41 H 0.507(3) 0.2834(16) 1.064(7)
H42 H 0.399(3) 0.3286(13) 0.976(6)
H43 H 0.446(2) 0.3396(11) 1.155(6)
H44 H 0.344(3) 0.3847(15) 1.143(6)
H45 H 0.278(3) 0.4470(11) 1.182(5)
H46 H 0.427(2) 0.5028(12) 0.853(5)
H47 H 0.245(3) 0.5159(15) 1.128(7)
H48 H 0.362(3) 0.5582(14) 0.912(6)
H49 H 0.193(4) 0.5675(18) 1.212(8)
H50 H 0.112(3) 0.6293(15) 1.210(6)
H51 H 0.072(3) 0.6965(12) 1.091(5)
H52 H 0.100(2) 0.7493(13) 0.918(5)
H53 H 0.216(3) 0.7445(14) 0.723(6)
H54 H 0.293(3) 0.6850(15) 0.727(7)
loop_
_geom_bond_atom_site_label_1
_geom_bond_atom_site_label_2
_geom_bond_site_symmetry_1
_geom_bond_site_symmetry_2
O1 C1 1_555 1_555
O2 C2 1_555 1_555
O3 C4 1_555 1_555
O4 C6 1_555 1_555
O5 C8 1_555 1_555
N1 C17 1_555 1_555
C1 C2 1_555 1_555
C2 H3 1_555 1_555
C3 O2 1_555 1_555
C4 C3 1_555 1_555
C5 O3 1_555 1_555
C6 C5 1_555 1_555
C7 O4 1_555 1_555
C8 C7 1_555 1_555
C9 O5 1_555 1_555
C10 C9 1_555 1_555
C11 C10 1_555 1_555
C12 C11 1_555 1_555
C13 C12 1_555 1_555
C14 O1 1_555 1_555
C15 C12 1_555 1_555
C16 C15 1_555 1_555
C17 C16 1_555 1_555
C18 C17 1_555 1_555
C19 C18 1_555 1_555
C20 C19 1_555 1_555
C21 C20 1_555 1_555
C22 C21 1_555 1_555
C23 C22 1_555 1_555
C24 C23 1_555 1_555
C25 N1 1_555 1_555
O6 C26 1_555 1_555
O7 C27 1_555 1_555
O8 C29 1_555 1_555
O9 C31 1_555 1_555
O10 C33 1_555 1_555
N2 C42 1_555 1_555
C26 C27 1_555 1_555
C27 H30 1_555 1_555
C28 O7 1_555 1_555
C29 C28 1_555 1_555
C30 O8 1_555 1_555
C31 C30 1_555 1_555
C32 O9 1_555 1_555
C33 C32 1_555 1_555
C34 O10 1_555 1_555
C35 C34 1_555 1_555
C36 C35 1_555 1_555
C37 C36 1_555 1_555
C38 C37 1_555 1_555
C39 O6 1_555 1_555
C40 C37 1_555 1_555
C41 C40 1_555 1_555
C42 C41 1_555 1_555
C43 C42 1_555 1_555
C44 C43 1_555 1_555
C45 C44 1_555 1_555
C46 C45 1_555 1_555
C47 C46 1_555 1_555
C48 C47 1_555 1_555
C49 C48 1_555 1_555
C50 N2 1_555 1_555
H1 C1 1_555 1_555
H2 C1 1_555 1_555
H4 C2 1_555 1_555
H5 C3 1_555 1_555
H6 C3 1_555 1_555
H7 C4 1_555 1_555
H8 C4 1_555 1_555
H9 C5 1_555 1_555
H10 C5 1_555 1_555
H11 C6 1_555 1_555
H12 C6 1_555 1_555
H13 C7 1_555 1_555
H14 C7 1_555 1_555
H15 C8 1_555 1_555
H16 C8 1_555 1_555
H17 C10 1_555 1_555
H18 C11 1_555 1_555
H19 C13 1_555 1_555
H20 C15 1_555 1_555
H21 C16 1_555 1_555
H22 C18 1_555 1_555
H23 C19 1_555 1_555
H24 C21 1_555 1_555
H25 C22 1_555 1_555
H26 C23 1_555 1_555
H27 C24 1_555 1_555
H28 C26 1_555 1_555
H29 C26 1_555 1_555
H31 C27 1_555 1_555
H32 C28 1_555 1_555
H33 C28 1_555 1_555
H34 C29 1_555 1_555
H35 C29 1_555 1_555
H36 C30 1_555 1_555
H37 C30 1_555 1_555
H38 C31 1_555 1_555
H39 C31 1_555 1_555
H40 C32 1_555 1_555
H41 C32 1_555 1_555
H42 C33 1_555 1_555
H43 C33 1_555 1_555
H44 C35 1_555 1_555
H45 C36 1_555 1_555
H46 C38 1_555 1_555
H47 C40 1_555 1_555
H48 C41 1_555 1_555
H49 C43 1_555 1_555
H50 C44 1_555 1_555
H51 C46 1_555 1_555
H52 C47 1_555 1_555
H53 C48 1_555 1_555
H54 C49 1_555 1_555
C9 C14 1_555 1_555
C13 C14 1_555 1_555
C20 C25 1_555 1_555
C24 C25 1_555 1_555
C34 C39 1_555 1_555
C38 C39 1_555 1_555
C45 C50 1_555 1_555
C49 C50 1_555 1_555

#END
