
#######################################################################
#
#                 Cambridge Crystallographic Data Centre
#                                CCDC 
#
#######################################################################
#
# If this CIF has been generated from an entry in the Cambridge 
# Structural Database, then it will include bibliographic, chemical, 
# crystal, experimental, refinement or atomic coordinate data resulting 
# from the CCDC's data processing and validation procedures.
#
#######################################################################

data_REHBEM
_chemical_formula_moiety         'C38 H30 O2'
_chemical_name_systematic        
rac-2,4-bis(1,3-Diphenylpropyn-3-yl)-1,5-dimethoxybenzene
_symmetry_cell_setting           monoclinic
_symmetry_space_group_name_H-M   'P 21/c'
_symmetry_Int_Tables_number      14
_space_group_name_Hall           '-P 2ybc'
loop_
_symmetry_equiv_pos_site_id
_symmetry_equiv_pos_as_xyz
1 x,y,z
2 -x,1/2+y,1/2-z
3 -x,-y,-z
4 x,1/2-y,1/2+z
_cell_length_a                   15.268(6)
_cell_length_b                   7.833(2)
_cell_length_c                   23.767(9)
_cell_angle_alpha                90.00
_cell_angle_beta                 93.213(7)
_cell_angle_gamma                90.00
_cell_volume                     2837.93
_exptl_crystal_colour            colorless
_exptl_crystal_description       needle
_chemical_melting_point          '158-159 deg.C'
_cell_formula_units_Z            4
_exptl_crystal_recrystallization_method 'petrol ether/methyl t-butyl ether'
loop_
_atom_site_label
_atom_site_type_symbol
_atom_site_fract_x
_atom_site_fract_y
_atom_site_fract_z
O1 O 0.00305(18) 0.2271(3) 0.34909(11)
O2 O -0.00853(18) 0.2597(3) 0.55246(11)
C1 C 0.00125(14) 0.2365(3) 0.45126(11)
H1 H 0.0568 0.1849 0.4555
C2 C -0.03751(17) 0.2640(3) 0.39771(9)
C3 C -0.11970(18) 0.3402(3) 0.39146(8)
C4 C -0.16312(14) 0.3889(3) 0.43876(11)
H2 H -0.2187 0.4405 0.4345
C5 C -0.12435(17) 0.3614(3) 0.49231(9)
C6 C -0.04217(18) 0.2852(3) 0.49856(8)
C7 C -0.14081(18) 0.5675(2) 0.31447(11)
C8 C -0.05421(16) 0.6102(3) 0.30588(11)
H3 H -0.0100 0.5270 0.3102
C9 C -0.03299(15) 0.7761(3) 0.29089(11)
H4 H 0.0256 0.8050 0.2851
C10 C -0.0984(2) 0.8991(2) 0.28448(11)
H5 H -0.0840 1.0113 0.2743
C11 C -0.18497(17) 0.8564(3) 0.29307(12)
H6 H -0.2292 0.9396 0.2887
C12 C -0.20619(15) 0.6906(3) 0.30806(12)
H7 H -0.2648 0.6617 0.3139
C13 C -0.43073(15) 0.3416(4) 0.31993(12)
C14 C -0.4777(2) 0.4361(4) 0.35750(11)
H8 H -0.4479 0.4986 0.3864
C15 C -0.5689(2) 0.4380(4) 0.35238(12)
H9 H -0.6007 0.5019 0.3778
C16 C -0.61300(15) 0.3455(4) 0.30969(15)
H10 H -0.6746 0.3469 0.3062
C17 C -0.5660(2) 0.2510(4) 0.27212(12)
H11 H -0.5958 0.1885 0.2432
C18 C -0.4749(2) 0.2491(3) 0.27724(11)
H12 H -0.4431 0.1852 0.2518
C19 C -0.20151(18) 0.3010(3) 0.58578(10)
C20 C -0.20155(19) 0.3432(3) 0.64259(11)
H13 H -0.1763 0.4464 0.6555
C21 C -0.2390(2) 0.2328(4) 0.68024(9)
H14 H -0.2390 0.2614 0.7187
C22 C -0.27632(19) 0.0802(3) 0.66109(12)
H15 H -0.3016 0.0056 0.6866
C23 C -0.27629(18) 0.0380(3) 0.60429(13)
H16 H -0.3016 -0.0651 0.5913
C24 C -0.23888(19) 0.1484(3) 0.56663(9)
H17 H -0.2389 0.1199 0.5282
C25 C -0.35978(19) 0.7462(3) 0.47839(12)
C26 C -0.4482(2) 0.7311(4) 0.48852(12)
H18 H -0.4659 0.6604 0.5178
C27 C -0.51056(17) 0.8205(4) 0.45539(15)
H19 H -0.5704 0.8103 0.4622
C28 C -0.4844(2) 0.9251(4) 0.41215(14)
H20 H -0.5266 0.9856 0.3897
C29 C -0.3960(3) 0.9402(4) 0.40202(12)
H21 H -0.3783 1.0109 0.3728
C30 C -0.33365(18) 0.8507(4) 0.43514(14)
H22 H -0.2738 0.8609 0.4283
C31 C -0.2935(3) 0.6448(5) 0.50866(17)
C32 C -0.1619(3) 0.3827(4) 0.33241(16)
H23 H -0.1356 0.3050 0.3052
C33 C -0.2366(3) 0.5558(5) 0.52857(17)
C34 C -0.3351(3) 0.3421(5) 0.32435(18)
C35 C -0.2572(3) 0.3511(5) 0.32891(17)
C36 C -0.1658(3) 0.4337(4) 0.54578(15)
H24 H -0.1195 0.4987 0.5673
C37 C 0.0777(3) 0.1895(5) 0.55983(17)
H25 H 0.0936 0.1780 0.5997
H26 H 0.1192 0.2646 0.5427
H27 H 0.0790 0.0781 0.5420
C38 C 0.0874(3) 0.1418(5) 0.35440(18)
H28 H 0.1089 0.1232 0.3172
H29 H 0.0810 0.0328 0.3731
H30 H 0.1288 0.2123 0.3764
loop_
_geom_bond_atom_site_label_1
_geom_bond_atom_site_label_2
_geom_bond_site_symmetry_1
_geom_bond_site_symmetry_2
O1 C2 1_555 1_555
O2 C6 1_555 1_555
C1 H1 1_555 1_555
C2 C1 1_555 1_555
C3 C2 1_555 1_555
C4 C3 1_555 1_555
H2 C4 1_555 1_555
C5 C4 1_555 1_555
C6 C1 1_555 1_555
C7 C8 1_555 1_555
C8 H3 1_555 1_555
C9 C8 1_555 1_555
H4 C9 1_555 1_555
C10 C9 1_555 1_555
H5 C10 1_555 1_555
C11 C10 1_555 1_555
H6 C11 1_555 1_555
C12 C7 1_555 1_555
H7 C12 1_555 1_555
C13 C14 1_555 1_555
C14 H8 1_555 1_555
C15 C14 1_555 1_555
H9 C15 1_555 1_555
C16 C15 1_555 1_555
H10 C16 1_555 1_555
C17 C16 1_555 1_555
H11 C17 1_555 1_555
C18 C13 1_555 1_555
H12 C18 1_555 1_555
C19 C20 1_555 1_555
C20 H13 1_555 1_555
C21 C20 1_555 1_555
H14 C21 1_555 1_555
C22 C21 1_555 1_555
H15 C22 1_555 1_555
C23 C22 1_555 1_555
H16 C23 1_555 1_555
C24 C19 1_555 1_555
H17 C24 1_555 1_555
C25 C26 1_555 1_555
C26 H18 1_555 1_555
C27 C26 1_555 1_555
H19 C27 1_555 1_555
C28 C27 1_555 1_555
H20 C28 1_555 1_555
C29 C28 1_555 1_555
H21 C29 1_555 1_555
C30 C25 1_555 1_555
H22 C30 1_555 1_555
C31 C25 1_555 1_555
C32 C3 1_555 1_555
H23 C32 1_555 1_555
C33 C31 1_555 1_555
C34 C13 1_555 1_555
C35 C32 1_555 1_555
C36 C5 1_555 1_555
H24 C36 1_555 1_555
C37 O2 1_555 1_555
H25 C37 1_555 1_555
H26 C37 1_555 1_555
H27 C37 1_555 1_555
C38 O1 1_555 1_555
H28 C38 1_555 1_555
H29 C38 1_555 1_555
H30 C38 1_555 1_555
C5 C6 1_555 1_555
C7 C32 1_555 1_555
C11 C12 1_555 1_555
C17 C18 1_555 1_555
C19 C36 1_555 1_555
C23 C24 1_555 1_555
C29 C30 1_555 1_555
C33 C36 1_555 1_555
C34 C35 1_555 1_555

#END
