
#######################################################################
#
#                 Cambridge Crystallographic Data Centre
#                                CCDC 
#
#######################################################################
#
# If this CIF has been generated from an entry in the Cambridge 
# Structural Database, then it will include bibliographic, chemical, 
# crystal, experimental, refinement or atomic coordinate data resulting 
# from the CCDC's data processing and validation procedures.
#
#######################################################################

data_REHBIS
_chemical_formula_moiety         'C22 H17 F6 N3 O4'
_chemical_name_systematic        
'methyl 5-{[3,5-bis(trifluoromethyl)benzene-1-carbonyl]amino}-1-ethyl-7-methyl-4-oxo-1,4-dihydro-1,8-naphthyridine-3-carboxylate'
_symmetry_cell_setting           triclinic
_symmetry_space_group_name_H-M   'P -1'
_symmetry_Int_Tables_number      2
_space_group_name_Hall           '-P 1'
loop_
_symmetry_equiv_pos_site_id
_symmetry_equiv_pos_as_xyz
1 x,y,z
2 -x,-y,-z
_cell_length_a                   12.648(2)
_cell_length_b                   13.680(3)
_cell_length_c                   20.397(4)
_cell_angle_alpha                92.247(8)
_cell_angle_beta                 93.482(8)
_cell_angle_gamma                116.993(7)
_cell_volume                     3130.06
_exptl_crystal_colour            colorless
_exptl_crystal_description       block
_cell_formula_units_Z            6
loop_
_atom_site_label
_atom_site_type_symbol
_atom_site_fract_x
_atom_site_fract_y
_atom_site_fract_z
C1 C 0.53027(15) 0.06201(13) 0.17950(8)
C2 C 0.57522(16) 0.01243(14) 0.22373(8)
H1 H 0.6162 0.0503 0.2646
C3 C 0.55940(16) -0.09374(14) 0.20728(9)
C4 C 0.60914(19) -0.14873(16) 0.25342(10)
H2 H 0.5548 -0.2277 0.2512
H3 H 0.6180 -0.1169 0.2985
H4 H 0.6871 -0.1374 0.2406
C5 C 0.45739(15) -0.10359(13) 0.10893(8)
C6 C 0.46532(15) 0.00187(13) 0.11959(8)
C7 C 0.41111(15) 0.04644(14) 0.07108(8)
C8 C 0.39692(19) -0.27406(15) 0.03562(9)
H5 H 0.4746 -0.2698 0.0512
H6 H 0.3847 -0.2916 -0.0126
C9 C 0.2995(2) -0.36479(18) 0.06781(13)
H7 H 0.3166 -0.3526 0.1158
H8 H 0.2952 -0.4357 0.0532
H9 H 0.2232 -0.3652 0.0554
C10 C 0.34799(16) -0.12709(14) 0.00638(8)
H10 H 0.3080 -0.1725 -0.0327
C11 C 0.34796(15) -0.02709(14) 0.01347(8)
C12 C 0.28343(16) -0.00379(15) -0.04225(8)
C13 C 0.2168(2) 0.11584(18) -0.08717(10)
H11 H 0.2608 0.1272 -0.1264
H12 H 0.2103 0.1826 -0.0745
H13 H 0.1369 0.0542 -0.0968
C14 C 0.61265(16) 0.24675(14) 0.23891(8)
C15 C 0.61803(15) 0.35740(14) 0.22983(8)
C16 C 0.64732(16) 0.43008(14) 0.28595(8)
H14 H 0.6617 0.4086 0.3279
C17 C 0.65520(16) 0.53393(15) 0.27973(9)
C18 C 0.67641(18) 0.60897(16) 0.34028(10)
C19 C 0.63955(17) 0.56889(15) 0.21851(9)
H15 H 0.6466 0.6406 0.2147
C20 C 0.61343(17) 0.49717(15) 0.16303(9)
C21 C 0.6034(2) 0.53622(17) 0.09629(10)
C22 C 0.60075(17) 0.39148(14) 0.16847(9)
H16 H 0.5802 0.3424 0.1302
F1 F 0.75592(16) 0.71233(12) 0.33317(9)
F2 F 0.57947(14) 0.61527(17) 0.35379(10)
F3 F 0.7175(3) 0.57975(17) 0.39215(8)
F4 F 0.54554(19) 0.59645(16) 0.09587(8)
F5 F 0.71043(16) 0.59923(15) 0.07567(8)
F6 F 0.54785(16) 0.45393(12) 0.05025(7)
N1 N 0.54491(14) 0.16855(12) 0.18958(7)
H17 H 0.5055 0.1883 0.1604
N2 N 0.50248(14) -0.15118(12) 0.15054(7)
N3 N 0.39998(14) -0.16590(12) 0.05014(7)
O1 O 0.66596(14) 0.23243(12) 0.28638(7)
O2 O 0.42030(13) 0.14136(11) 0.07970(6)
O3 O 0.23842(15) -0.06618(13) -0.09104(7)
O4 O 0.27937(13) 0.09140(11) -0.03371(7)
C23 C 0.39969(18) 0.70461(16) 0.42835(9)
C24 C 0.40080(18) 0.80513(16) 0.42032(9)
H18 H 0.4324 0.8611 0.4554
C25 C 0.35555(17) 0.82438(15) 0.36077(9)
C26 C 0.30952(17) 0.74129(16) 0.30961(9)
H19 H 0.2786 0.7534 0.2688
C27 C 0.30915(16) 0.64097(15) 0.31852(9)
C28 C 0.4501(2) 0.68603(18) 0.49282(10)
C29 C 0.35378(17) 0.62202(16) 0.37800(9)
H20 H 0.3527 0.5531 0.3840
C30 C 0.26561(19) 0.55294(17) 0.26356(10)
C31 C 0.36270(17) 0.93677(16) 0.35605(9)
C32 C 0.30291(16) 1.04424(15) 0.28117(9)
C33 C 0.34908(17) 1.14096(15) 0.32144(9)
H21 H 0.3910 1.1468 0.3628
C34 C 0.33323(17) 1.22966(15) 0.30038(9)
C35 C 0.3765(2) 1.33368(17) 0.34406(11)
C36 C 0.1655(2) 1.23608(16) 0.12677(11)
H22 H 0.1548 1.2733 0.1666
H23 H 0.0955 1.2160 0.0947
C37 C 0.2772(3) 1.3140(2) 0.09704(14)
H24 H 0.3457 1.3380 0.1298
H25 H 0.2688 1.3781 0.0834
H26 H 0.2895 1.2762 0.0586
C38 C 0.23277(16) 1.13402(14) 0.20369(9)
C39 C 0.12435(17) 1.04592(15) 0.10223(9)
H27 H 0.0852 1.0499 0.0619
C40 C 0.12792(16) 0.94885(14) 0.11317(8)
C41 C 0.18847(16) 0.93863(14) 0.17303(8)
C42 C 0.24160(15) 1.03815(14) 0.21882(8)
C43 C 0.06590(17) 0.86188(15) 0.05940(9)
C44 C 0.0170(2) 0.68753(19) 0.01243(11)
H28 H -0.0680 0.6675 0.0068
H29 H 0.0268 0.6220 0.0210
H30 H 0.0540 0.7179 -0.0278
F7 F 0.3810(5) 0.6791(5) 0.5423(2)
F8 F 0.5606(4) 0.7704(3) 0.5121(2)
F9 F 0.4613(2) 0.59503(16) 0.49084(9)
F10 F 0.35522(14) 0.54425(14) 0.23656(8)
F11 F 0.19527(15) 0.45349(11) 0.28360(7)
F12 F 0.20189(13) 0.57026(12) 0.21476(6)
N4 N 0.31149(15) 0.95083(13) 0.29835(8)
H31 H 0.2806 0.8942 0.2689
N5 N 0.27677(15) 1.22749(13) 0.24226(8)
N6 N 0.17248(15) 1.13501(13) 0.14466(8)
O5 O 0.41253(15) 1.00790(12) 0.40086(8)
O6 O 0.19532(13) 0.85313(11) 0.18619(7)
O7 O 0.01349(16) 0.87434(13) 0.01112(8)
O8 O 0.07310(14) 0.76855(11) 0.06711(7)
C45 C -0.0971(2) 0.43633(18) 0.13815(11)
C46 C -0.07653(17) 0.50811(15) 0.19979(9)
C47 C -0.06716(17) 0.61242(15) 0.19594(9)
H32 H -0.0772 0.6374 0.1543
C48 C -0.04286(16) 0.68081(14) 0.25327(8)
C49 C -0.02664(16) 0.64333(15) 0.31388(8)
H33 H -0.0076 0.6901 0.3531
C50 C -0.03843(17) 0.53750(15) 0.31687(9)
C51 C -0.06390(18) 0.46887(15) 0.26021(10)
H34 H -0.0726 0.3964 0.2625
C52 C -0.0280(2) 0.49665(18) 0.38296(11)
C53 C -0.04521(16) 0.78907(14) 0.24678(8)
C54 C 0.00904(15) 0.96229(13) 0.31484(8)
C55 C -0.03767(16) 1.01271(14) 0.27223(9)
H35 H -0.0704 0.9802 0.2291
C56 C -0.03577(17) 1.11179(15) 0.29375(9)
C57 C 0.05280(17) 1.11208(14) 0.39485(9)
C58 C 0.14903(19) 1.12536(16) 0.50058(9)
H36 H 0.1798 1.1648 0.5424
C59 C 0.16244(17) 1.03247(16) 0.48848(9)
C60 C 0.11422(16) 0.96790(14) 0.42629(9)
C61 C 0.05953(15) 1.01393(14) 0.37901(8)
C62 C 0.2245(2) 1.00492(18) 0.54359(10)
C63 C 0.2764(2) 0.8749(2) 0.58779(11)
H37 H 0.3618 0.9256 0.5935
H38 H 0.2648 0.7999 0.5773
H39 H 0.2403 0.8772 0.6286
C64 C 0.08038(19) 1.26302(16) 0.47849(10)
H40 H 0.0786 1.2677 0.5269
H41 H 0.0032 1.2544 0.4583
C65 C 0.1794(2) 1.36797(17) 0.45851(11)
H42 H 0.2564 1.3732 0.4748
H43 H 0.1714 1.4311 0.4774
H44 H 0.1746 1.3679 0.4104
C66 C -0.0820(2) 1.17003(18) 0.24848(10)
H45 H -0.1416 1.1843 0.2696
H46 H -0.1185 1.1239 0.2074
H47 H -0.0160 1.2399 0.2388
F17 F 0.00365(16) 0.45135(19) 0.11467(10)
F18 F -0.1613(2) 0.33023(12) 0.14602(8)
F19 F -0.15887(18) 0.45622(14) 0.08920(7)
F20 F -0.0234(2) 0.40197(15) 0.37896(9)
F21 F -0.1215(2) 0.4775(2) 0.41598(9)
F22 F 0.0670(2) 0.56719(16) 0.42010(9)
N7 N 0.01118(14) 0.86343(12) 0.29952(7)
H48 H 0.0548 0.8464 0.3276
N8 N 0.00764(15) 1.16082(13) 0.35421(8)
N9 N 0.09563(16) 1.16485(13) 0.45783(8)
O9 O -0.09696(13) 0.80404(11) 0.19873(7)
O10 O 0.11735(14) 0.87919(11) 0.41279(7)
O11 O 0.2717(2) 1.06567(18) 0.59226(9)
O12 O 0.22067(14) 0.90707(13) 0.53461(7)
F13? F 0.4168(6) 0.7188(5) 0.5457(3)
F14? F 0.3587(5) 0.6410(5) 0.5332(3)
F15? F 0.5731(5) 0.7467(5) 0.4994(3)
F16? F 0.5257(5) 0.7741(4) 0.5249(3)
loop_
_geom_bond_atom_site_label_1
_geom_bond_atom_site_label_2
_geom_bond_site_symmetry_1
_geom_bond_site_symmetry_2
C1 C2 1_555 1_555
C2 H1 1_555 1_555
C3 C2 1_555 1_555
C4 C3 1_555 1_555
H2 C4 1_555 1_555
H3 C4 1_555 1_555
H4 C4 1_555 1_555
C5 C6 1_555 1_555
C6 C1 1_555 1_555
C7 C6 1_555 1_555
C8 H5 1_555 1_555
H6 C8 1_555 1_555
C9 C8 1_555 1_555
H7 C9 1_555 1_555
H8 C9 1_555 1_555
H9 C9 1_555 1_555
C10 H10 1_555 1_555
C11 C7 1_555 1_555
C12 C11 1_555 1_555
C13 H11 1_555 1_555
H12 C13 1_555 1_555
H13 C13 1_555 1_555
C14 C15 1_555 1_555
C15 C16 1_555 1_555
C16 H14 1_555 1_555
C17 C16 1_555 1_555
C18 C17 1_555 1_555
C19 C17 1_555 1_555
H15 C19 1_555 1_555
C20 C19 1_555 1_555
C21 C20 1_555 1_555
C22 C15 1_555 1_555
H16 C22 1_555 1_555
F1 C18 1_555 1_555
F2 C18 1_555 1_555
F3 C18 1_555 1_555
F4 C21 1_555 1_555
F5 C21 1_555 1_555
F6 C21 1_555 1_555
N1 C1 1_555 1_555
H17 N1 1_555 1_555
N2 C3 1_555 1_555
N3 C5 1_555 1_555
O1 C14 1_555 1_555
O2 C7 1_555 1_555
O3 C12 1_555 1_555
O4 C12 1_555 1_555
C23 C24 1_555 1_555
C24 H18 1_555 1_555
C25 C24 1_555 1_555
C26 C25 1_555 1_555
H19 C26 1_555 1_555
C27 C26 1_555 1_555
C28 C23 1_555 1_555
C29 C23 1_555 1_555
H20 C29 1_555 1_555
C30 C27 1_555 1_555
C31 C25 1_555 1_555
C32 C33 1_555 1_555
C33 H21 1_555 1_555
C34 C33 1_555 1_555
C35 C34 1_555 1_555
C36 H22 1_555 1_555
H23 C36 1_555 1_555
C37 C36 1_555 1_555
H24 C37 1_555 1_555
H25 C37 1_555 1_555
H26 C37 1_555 1_555
C38 C42 1_555 1_555
C39 H27 1_555 1_555
C40 C39 1_555 1_555
C41 C40 1_555 1_555
C42 C32 1_555 1_555
C43 C40 1_555 1_555
C44 H28 1_555 1_555
H29 C44 1_555 1_555
H30 C44 1_555 1_555
F7 C28 1_555 1_555
F8 C28 1_555 1_555
F9 C28 1_555 1_555
F10 C30 1_555 1_555
F11 C30 1_555 1_555
F12 C30 1_555 1_555
N4 C31 1_555 1_555
H31 N4 1_555 1_555
N5 C34 1_555 1_555
N6 C36 1_555 1_555
O5 C31 1_555 1_555
O6 C41 1_555 1_555
O7 C43 1_555 1_555
O8 C43 1_555 1_555
C45 C46 1_555 1_555
C46 C47 1_555 1_555
C47 H32 1_555 1_555
C48 C47 1_555 1_555
C49 C48 1_555 1_555
H33 C49 1_555 1_555
C50 C49 1_555 1_555
C51 C46 1_555 1_555
H34 C51 1_555 1_555
C52 C50 1_555 1_555
C53 C48 1_555 1_555
C54 C55 1_555 1_555
C55 H35 1_555 1_555
C56 C55 1_555 1_555
C57 C61 1_555 1_555
C58 H36 1_555 1_555
C59 C58 1_555 1_555
C60 C59 1_555 1_555
C61 C54 1_555 1_555
C62 C59 1_555 1_555
C63 H37 1_555 1_555
H38 C63 1_555 1_555
H39 C63 1_555 1_555
C64 H40 1_555 1_555
H41 C64 1_555 1_555
C65 C64 1_555 1_555
H42 C65 1_555 1_555
H43 C65 1_555 1_555
H44 C65 1_555 1_555
C66 C56 1_555 1_555
H45 C66 1_555 1_555
H46 C66 1_555 1_555
H47 C66 1_555 1_555
F17 C45 1_555 1_555
F18 C45 1_555 1_555
F19 C45 1_555 1_555
F20 C52 1_555 1_555
F21 C52 1_555 1_555
F22 C52 1_555 1_555
N7 C53 1_555 1_555
H48 N7 1_555 1_555
N8 C56 1_555 1_555
N9 C57 1_555 1_555
O9 C53 1_555 1_555
O10 C60 1_555 1_555
O11 C62 1_555 1_555
O12 C62 1_555 1_555
C5 N2 1_555 1_555
C8 N3 1_555 1_555
C10 C11 1_555 1_555
C10 N3 1_555 1_555
C13 O4 1_555 1_555
C14 N1 1_555 1_555
C20 C22 1_555 1_555
C27 C29 1_555 1_555
C32 N4 1_555 1_555
C38 N5 1_555 1_555
C38 N6 1_555 1_555
C39 N6 1_555 1_555
C41 C42 1_555 1_555
C44 O8 1_555 1_555
C50 C51 1_555 1_555
C54 N7 1_555 1_555
C57 N8 1_555 1_555
C58 N9 1_555 1_555
C60 C61 1_555 1_555
C63 O12 1_555 1_555
C64 N9 1_555 1_555

#END
