
#######################################################################
#
#                 Cambridge Crystallographic Data Centre
#                                CCDC 
#
#######################################################################
#
# If this CIF has been generated from an entry in the Cambridge 
# Structural Database, then it will include bibliographic, chemical, 
# crystal, experimental, refinement or atomic coordinate data resulting 
# from the CCDC's data processing and validation procedures.
#
#######################################################################

data_REHCIR
_chemical_formula_moiety         'C6 H18 N2 2+,2(C7 H4 N1 O3 S1 1-)'
_chemical_name_systematic        'Hexamethylenediammonium bis(saccharinate)'
_symmetry_cell_setting           monoclinic
_symmetry_space_group_name_H-M   'P 21/c'
_symmetry_Int_Tables_number      14
_space_group_name_Hall           '-P 2ybc'
loop_
_symmetry_equiv_pos_site_id
_symmetry_equiv_pos_as_xyz
1 x,y,z
2 -x,1/2+y,1/2-z
3 -x,-y,-z
4 x,1/2-y,1/2+z
_cell_length_a                   11.4799(10)
_cell_length_b                   11.5301(10)
_cell_length_c                   16.9116(15)
_cell_angle_alpha                90
_cell_angle_beta                 96.499(2)
_cell_angle_gamma                90
_cell_volume                     2224.11
_exptl_crystal_colour            colorless
_exptl_crystal_description       irregular
_cell_formula_units_Z            4
loop_
_atom_site_label
_atom_site_type_symbol
_atom_site_fract_x
_atom_site_fract_y
_atom_site_fract_z
S1 S 0.28704(6) 0.22357(6) 0.17581(4)
C1 C 0.2751(2) 0.2410(2) 0.07138(15)
C2 C 0.3347(2) 0.1881(2) 0.01388(16)
H1 H 0.3923 0.1326 0.0272
C3 C 0.3039(3) 0.2221(3) -0.06386(18)
H2 H 0.3416 0.1884 -0.1040
C4 C 0.2181(3) 0.3052(3) -0.08382(17)
H3 H 0.1999 0.3266 -0.1368
C5 C 0.1593(2) 0.3567(2) -0.02559(15)
H4 H 0.1011 0.4117 -0.0388
C6 C 0.1901(2) 0.3237(2) 0.05273(14)
C7 C 0.1417(2) 0.3672(2) 0.12581(15)
N1 N 0.1905(2) 0.3163(2) 0.19324(13)
O1 O 0.25375(17) 0.10747(17) 0.19689(12)
O2 O 0.40253(17) 0.25549(17) 0.21210(12)
O3 O 0.06501(17) 0.44393(17) 0.12222(11)
S2 S 0.78835(6) 0.25518(6) 0.17968(4)
C8 C 0.7712(2) 0.2582(2) 0.07443(15)
C9 C 0.8287(2) 0.3213(2) 0.02082(16)
H5 H 0.8871 0.3746 0.0378
C10 C 0.7950(3) 0.3013(3) -0.05916(17)
H6 H 0.8305 0.3430 -0.0969
C11 C 0.7095(3) 0.2205(2) -0.08420(16)
H7 H 0.6890 0.2087 -0.1384
C12 C 0.6544(2) 0.1572(2) -0.02989(15)
H8 H 0.5973 0.1026 -0.0468
C13 C 0.6863(2) 0.1772(2) 0.05023(14)
C14 C 0.6419(2) 0.1190(2) 0.12024(14)
N2 N 0.6929(2) 0.1574(2) 0.19098(12)
O4 O 0.75719(16) 0.36500(17) 0.21238(11)
O5 O 0.90521(16) 0.21865(17) 0.20921(11)
O6 O 0.56570(17) 0.04207(16) 0.11148(11)
C15 C 0.5272(3) 1.0239(2) 0.31722(15)
H9 H 0.5145 1.1070 0.3130
H10 H 0.6110 1.0100 0.3242
C16 C 0.4733(2) 0.9778(3) 0.38790(15)
H11 H 0.3905 0.9970 0.3820
H12 H 0.4800 0.8939 0.3886
C17 C 0.5283(3) 1.0241(3) 0.46506(16)
H13 H 0.5217 1.1080 0.4648
H14 H 0.6111 1.0046 0.4715
N3 N 0.4750(2) 0.9674(2) 0.24465(12)
H15 H 0.4877 0.8913 0.2484
H16 H 0.5073 0.9954 0.2032
H17 H 0.3982 0.9809 0.2381
C15B C 0.4728(3) 0.9761(2) 0.68278(15)
H9B H 0.4855 0.8930 0.6870
H10B H 0.3890 0.9900 0.6758
C16B C 0.5267(2) 1.0222(3) 0.61210(15)
H11B H 0.6095 1.0030 0.6180
H12B H 0.5200 1.1061 0.6114
C17B C 0.4717(3) 0.9759(3) 0.53494(16)
H13B H 0.4783 0.8920 0.5352
H14B H 0.3889 0.9954 0.5285
N3B N 0.5250(2) 1.0326(2) 0.75535(12)
H15B H 0.5123 1.1087 0.7516
H16B H 0.4927 1.0046 0.7968
H17B H 0.6018 1.0191 0.7619
C18? C -0.0348(3) 0.9343(3) 0.16999(16)
N4? N 0.0226(2) 1.0030(2) 0.23799(14)
H18? H 0.0994 0.9896 0.2433
H19? H -0.0067 0.9823 0.2824
H20? H 0.0094 1.0781 0.2289
C19? C 0.0157(8) 0.9956(11) 0.0983(5)
C20? C -0.0119(7) 1.0490(8) 0.0559(5)
C21? C 0.0190(9) 0.9368(12) 0.0904(5)
C22? C -0.0416(6) 0.9336(8) 0.0262(4)
loop_
_geom_bond_atom_site_label_1
_geom_bond_atom_site_label_2
_geom_bond_site_symmetry_1
_geom_bond_site_symmetry_2
S1 C1 1_555 1_555
S2 C8 1_555 1_555
C1 C2 1_555 1_555
C2 H1 1_555 1_555
C3 C2 1_555 1_555
H2 C3 1_555 1_555
C4 C3 1_555 1_555
H3 C4 1_555 1_555
C5 C4 1_555 1_555
H4 C5 1_555 1_555
C6 C1 1_555 1_555
C7 C6 1_555 1_555
C8 C9 1_555 1_555
C9 H5 1_555 1_555
C10 C9 1_555 1_555
H6 C10 1_555 1_555
C11 C10 1_555 1_555
H7 C11 1_555 1_555
C12 C11 1_555 1_555
H8 C12 1_555 1_555
C13 C8 1_555 1_555
C14 C13 1_555 1_555
C15 H9 1_555 1_555
H10 C15 1_555 1_555
C16 C15 1_555 1_555
H11 C16 1_555 1_555
H12 C16 1_555 1_555
C17 C16 1_555 1_555
H13 C17 1_555 1_555
H14 C17 1_555 1_555
N1 S1 1_555 1_555
N2 S2 1_555 1_555
N3 C15 1_555 1_555
H15 N3 1_555 1_555
H16 N3 1_555 1_555
H17 N3 1_555 1_555
O1 S1 1_555 1_555
O2 S1 1_555 1_555
O3 C7 1_555 1_555
O4 S2 1_555 1_555
O5 S2 1_555 1_555
O6 C14 1_555 1_555
C15B H9B 1_555 1_555
H10B C15B 1_555 1_555
C16B C15B 1_555 1_555
H11B C16B 1_555 1_555
H12B C16B 1_555 1_555
C17B C17 1_555 1_555
H13B C17B 1_555 1_555
H14B C17B 1_555 1_555
N3B C15B 1_555 1_555
H15B N3B 1_555 1_555
H16B N3B 1_555 1_555
H17B N3B 1_555 1_555
C5 C6 1_555 1_555
C7 N1 1_555 1_555
C12 C13 1_555 1_555
C14 N2 1_555 1_555
C16B C17B 1_555 1_555

#END
