
#######################################################################
#
#                 Cambridge Crystallographic Data Centre
#                                CCDC 
#
#######################################################################
#
# If this CIF has been generated from an entry in the Cambridge 
# Structural Database, then it will include bibliographic, chemical, 
# crystal, experimental, refinement or atomic coordinate data resulting 
# from the CCDC's data processing and validation procedures.
#
#######################################################################

data_REHSOM
_chemical_formula_moiety         'C52 H62 Br2 Li4 N2 O4 P2,1.5(C7 H8)'
_chemical_name_systematic        
'bis(\m~3~-Bromo)-bis(\m~3~-iminotriphenylphosphorane)-tetrakis(tetrahydrofuran)-tetra-lithium toluene solvate'
_symmetry_cell_setting           triclinic
_symmetry_space_group_name_H-M   'P -1'
_symmetry_Int_Tables_number      2
_space_group_name_Hall           '-P 1'
loop_
_symmetry_equiv_pos_site_id
_symmetry_equiv_pos_as_xyz
1 x,y,z
2 -x,-y,-z
_cell_length_a                   10.575(1)
_cell_length_b                   13.882(1)
_cell_length_c                   22.398(1)
_cell_angle_alpha                100.61(1)
_cell_angle_beta                 91.33(1)
_cell_angle_gamma                109.81(1)
_cell_volume                     3027.54
_exptl_crystal_colour            colorless
_chemical_melting_point          439K
_cell_formula_units_Z            2
loop_
_atom_site_label
_atom_site_type_symbol
_atom_site_fract_x
_atom_site_fract_y
_atom_site_fract_z
Br1 Br 0.29739(8) 0.68811(6) 0.41551(3)
Br2 Br 0.13448(7) 0.62155(6) 0.23938(4)
P1 P 0.5867(2) 0.86982(14) 0.27813(8)
P2 P 0.3965(2) 0.41864(14) 0.26978(8)
Li1 Li 0.3044(12) 0.7704(9) 0.3197(6)
Li2 Li 0.2220(11) 0.5386(10) 0.3191(6)
Li3 Li 0.3972(11) 0.6314(10) 0.2342(5)
Li4 Li 0.4927(12) 0.6693(10) 0.3437(6)
O1 O 0.2366(5) 0.8855(4) 0.3441(3)
O2 O 0.0779(6) 0.4242(5) 0.3437(3)
O3 O 0.4272(6) 0.6101(5) 0.1480(2)
O4 O 0.6577(5) 0.6981(4) 0.3987(2)
N1 N 0.4794(5) 0.7708(4) 0.2915(3)
N2 N 0.3955(5) 0.5306(4) 0.2891(2)
C1 C 0.2533(10) 0.9785(8) 0.3218(5)
H1 H 0.2099(10) 0.9529(8) 0.2789(5)
H2 H 0.3480(10) 1.0225(8) 0.3213(5)
C2 C 0.2014(19) 1.0494(14) 0.3723(9)
H3 H 0.1644(19) 1.0938(14) 0.3535(9)
H4 H 0.2740(19) 1.0961(14) 0.4049(9)
C3 C 0.0916(22) 0.9605(16) 0.3946(10)
H5 H 0.0880(22) 0.9882(16) 0.4392(10)
H6 H 0.0029(22) 0.9434(16) 0.3724(10)
C6 C 0.1271(10) 0.8712(8) 0.3827(4)
H11 H 0.0427(10) 0.8198(8) 0.3590(4)
H12 H 0.1464(10) 0.8445(8) 0.4182(4)
C7 C -0.0534(10) 0.3928(11) 0.3148(5)
H13 H -0.0885(10) 0.3140(11) 0.3030(5)
H14 H -0.0547(10) 0.4198(11) 0.2773(5)
C8 C -0.1141(19) 0.4463(16) 0.3588(8)
H15 H -0.2126(19) 0.4135(16) 0.3510(8)
H16 H -0.0865(19) 0.5219(16) 0.3573(8)
C10 C -0.0666(13) 0.4263(12) 0.4196(6)
H19 H -0.1223(13) 0.3689(12) 0.4379(6)
H20 H -0.0546(13) 0.4961(12) 0.4480(6)
C11 C 0.0665(10) 0.4158(7) 0.4059(4)
H21 H 0.1398(10) 0.4748(7) 0.4333(4)
H22 H 0.0680(10) 0.3476(7) 0.4129(4)
C12 C 0.5450(9) 0.6021(7) 0.1221(4)
H23 H 0.5439(9) 0.5286(7) 0.1061(4)
H24 H 0.6257(9) 0.6430(7) 0.1514(4)
C13 C 0.5260(26) 0.5798(22) 0.0539(9)
H25 H 0.5776(26) 0.5541(22) 0.0252(9)
H26 H 0.6088(26) 0.6274(22) 0.0407(9)
C14 C 0.4021(21) 0.6092(20) 0.0425(9)
H27 H 0.3508(21) 0.5961(20) 0.0046(9)
H28 H 0.3684(21) 0.5319(20) 0.0357(9)
C15 C 0.3777(20) 0.6638(15) 0.1042(8)
H29 H 0.4357(20) 0.7385(15) 0.1115(8)
H30 H 0.2831(20) 0.6587(15) 0.1096(8)
C19 C 0.7480(8) 0.6397(7) 0.3948(4)
H37 H 0.8141(8) 0.6608(7) 0.3652(4)
H38 H 0.6989(8) 0.5621(7) 0.3813(4)
C20 C 0.8165(10) 0.6636(8) 0.4573(4)
H39 H 0.9088(10) 0.6630(8) 0.4560(4)
H40 H 0.7666(10) 0.6133(8) 0.4815(4)
C21 C 0.8146(8) 0.7718(7) 0.4856(4)
H41 H 0.7904(8) 0.7785(7) 0.5287(4)
H42 H 0.9039(8) 0.8255(7) 0.4856(4)
C22 C 0.7134(8) 0.7899(6) 0.4446(4)
H43 H 0.6427(8) 0.8049(6) 0.4692(4)
H44 H 0.7556(8) 0.8502(6) 0.4256(4)
C23 C 0.7288(6) 0.8490(5) 0.2386(3)
C24 C 0.7765(9) 0.8864(6) 0.1880(4)
H45 H 0.7370(9) 0.9278(6) 0.1708(4)
C25 C 0.8822(11) 0.8632(8) 0.1605(6)
H46 H 0.9122(11) 0.8854(8) 0.1242(6)
C26 C 0.9417(8) 0.8028(8) 0.1845(5)
H47 H 1.0144(8) 0.7868(8) 0.1663(5)
C27 C 0.8938(9) 0.7631(8) 0.2345(5)
H48 H 0.9338(9) 0.7214(8) 0.2512(5)
C28 C 0.7883(8) 0.7855(8) 0.2617(4)
H49 H 0.7569(8) 0.7605(8) 0.2971(4)
C29 C 0.6721(7) 0.9729(5) 0.3447(3)
C30 C 0.5989(8) 0.9868(6) 0.3950(3)
H50 H 0.5090(8) 0.9413(6) 0.3942(3)
C31 C 0.6561(8) 1.0657(6) 0.4456(3)
H51 H 0.6061(8) 1.0771(6) 0.4797(3)
C32 C 0.7871(9) 1.1323(6) 0.4479(3)
H52 H 0.8267(9) 1.1894(6) 0.4832(3)
C33 C 0.8632(8) 1.1181(6) 0.3993(4)
H53 H 0.9540(8) 1.1624(6) 0.4011(4)
C34 C 0.8060(7) 1.0401(5) 0.3483(3)
H54 H 0.8570(7) 1.0292(5) 0.3145(3)
C35 C 0.5273(7) 0.9434(6) 0.2305(3)
C36 C 0.4036(8) 0.8923(8) 0.1957(4)
H55 H 0.3561(8) 0.8209(8) 0.1972(4)
C37 C 0.3535(9) 0.9426(9) 0.1584(5)
H56 H 0.2711(9) 0.9030(9) 0.1336(5)
C38 C 0.4250(10) 1.0443(9) 0.1557(4)
H57 H 0.3889(10) 1.0766(9) 0.1299(4)
C39 C 0.5474(9) 1.0961(7) 0.1891(4)
H58 H 0.5946(9) 1.1674(7) 0.1874(4)
C40 C 0.5984(8) 1.0461(6) 0.2269(3)
H59 H 0.6812(8) 1.0857(6) 0.2513(3)
C41 C 0.4475(7) 0.3637(5) 0.3309(3)
C42 C 0.4916(8) 0.2783(6) 0.3194(3)
H60 H 0.4937(8) 0.2426(6) 0.2779(3)
C43 C 0.5340(9) 0.2417(7) 0.3664(4)
H61 H 0.5648(9) 0.1833(7) 0.3578(4)
C44 C 0.5343(8) 0.2886(6) 0.4259(4)
H62 H 0.5638(8) 0.2658(6) 0.4589(4)
C45 C 0.4917(8) 0.3729(6) 0.4387(3)
H63 H 0.4905(8) 0.4084(6) 0.4804(3)
C46 C 0.4473(7) 0.4101(6) 0.3911(3)
H64 H 0.4158(7) 0.4682(6) 0.4001(3)
C47 C 0.2341(6) 0.3173(6) 0.2347(3)
C48 C 0.1562(8) 0.3459(7) 0.1956(4)
H65 H 0.1863(8) 0.4148(7) 0.1877(4)
C49 C 0.0303(9) 0.2741(8) 0.1694(5)
H66 H -0.0221(9) 0.2925(8) 0.1422(5)
C50 C -0.0152(9) 0.1742(9) 0.1797(5)
H67 H -0.0987(9) 0.1235(9) 0.1603(5)
C51 C 0.0622(10) 0.1474(9) 0.2183(5)
H68 H 0.0315(10) 0.0784(9) 0.2261(5)
C52 C 0.1858(8) 0.2174(7) 0.2459(4)
H69 H 0.2377(8) 0.1979(7) 0.2729(4)
C53 C 0.5132(6) 0.4001(5) 0.2128(3)
C54 C 0.6499(7) 0.4617(6) 0.2253(3)
H70 H 0.6788(7) 0.5131(6) 0.2637(3)
C55 C 0.7427(8) 0.4524(7) 0.1838(4)
H71 H 0.8343(8) 0.4952(7) 0.1944(4)
C56 C 0.7018(8) 0.3824(6) 0.1298(4)
H72 H 0.7648(8) 0.3754(6) 0.1010(4)
C57 C 0.5665(8) 0.3205(6) 0.1158(3)
H73 H 0.5379(8) 0.2705(6) 0.0769(3)
C58 C 0.4741(7) 0.3294(6) 0.1577(3)
H74 H 0.3827(7) 0.2857(6) 0.1474(3)
C66 C 0.2344(10) 0.9377(7) -0.0018(5)
C67 C 0.3245(12) 1.0013(10) -0.0347(5)
H83 H 0.3783(17) 0.9732(13) -0.0616(8)
C68 C 0.3366(14) 1.1057(10) -0.0285(7)
H84 H 0.3988(19) 1.1496(12) -0.0512(9)
C69 C 0.2586(14) 1.1464(8) 0.0106(7)
H85 H 0.2670(19) 1.2184(8) 0.0149(9)
C70 C 0.1685(13) 1.0827(9) 0.0435(6)
H86 H 0.1146(18) 1.1108(12) 0.0704(8)
C71 C 0.1564(11) 0.9784(9) 0.0373(5)
H87 H 0.0941(15) 0.9345(11) 0.0600(7)
C72 C 0.2312(18) 0.8284(8) -0.0120(8)
H88 H 0.1667(20) 0.7902(8) 0.0123(9)
H89 H 0.2059(21) 0.7963(9) -0.0543(9)
H90 H 0.3190(20) 0.8280(11) -0.0005(10)
C4? C 0.1594(21) 1.0233(17) 0.3469(10)
H7? H 0.0710(21) 0.9935(17) 0.3224(10)
H8? H 0.1934(21) 1.1017(17) 0.3538(10)
C5? C 0.1454(18) 0.9858(13) 0.4153(8)
H9? H 0.2282(18) 1.0248(13) 0.4436(8)
H10? H 0.0669(18) 0.9920(13) 0.4366(8)
C9? C -0.1497(32) 0.3753(28) 0.3592(14)
H17? H -0.1941(32) 0.2994(28) 0.3590(14)
H18? H -0.2184(32) 0.4054(28) 0.3509(14)
C16? C 0.5440(19) 0.6555(17) 0.0693(9)
H31? H 0.6185(19) 0.6859(17) 0.0476(9)
H32? H 0.5623(19) 0.7305(17) 0.0862(9)
C17? C 0.4013(20) 0.6508(20) 0.0580(12)
H33? H 0.3683(20) 0.6851(20) 0.0316(12)
H34? H 0.3550(20) 0.6416(20) 0.0173(12)
C18? C 0.3197(17) 0.5773(15) 0.0992(8)
H35? H 0.2428(17) 0.5996(15) 0.1111(8)
H36? H 0.2878(17) 0.5016(15) 0.0809(8)
C59? C 0.0062(25) 0.5134(15) 0.0271(7)
C60? C 0.0074(33) 0.4955(19) -0.0360(7)
H75? H -0.0210(45) 0.5378(24) -0.0589(9)
C61? C 0.0497(27) 0.4163(17) -0.0659(6)
H76? H 0.0506(34) 0.4039(21) -0.1095(6)
C62? C 0.0908(15) 0.3551(12) -0.0327(7)
H77? H 0.1201(17) 0.3004(14) -0.0533(9)
C63? C 0.0896(15) 0.3730(12) 0.0304(7)
H78? H 0.1180(24) 0.3307(16) 0.0533(9)
C64? C 0.0472(15) 0.4521(13) 0.0602(6)
H79? H 0.0464(19) 0.4645(16) 0.1038(6)
C65? C -0.0395(34) 0.5988(20) 0.0593(10)
H80? H -0.0642(45) 0.6333(25) 0.0300(12)
H81? H -0.1161(30) 0.5693(25) 0.0808(11)
H82? H 0.0325(35) 0.6484(17) 0.0878(11)
C73? C 0.1824(19) 1.0320(13) 0.0270(9)
C74? C 0.1477(18) 0.9249(13) 0.0232(9)
H91? H 0.0766(24) 0.8889(18) 0.0456(12)
C75? C 0.2159(23) 0.8701(13) -0.0130(10)
H92? H 0.1920(33) 0.7961(13) -0.0157(15)
C76? C 0.3189(23) 0.9222(18) -0.0454(11)
H93? H 0.3660(32) 0.8843(24) -0.0704(15)
C77? C 0.3536(22) 1.0293(18) -0.0416(11)
H94? H 0.4247(29) 1.0653(24) -0.0640(16)
C78? C 0.2854(23) 1.0842(13) -0.0054(11)
H95? H 0.3093(34) 1.1581(13) -0.0027(17)
C79? C 0.1124(32) 1.0895(20) 0.0697(15)
H96? H 0.0448(33) 1.0405(25) 0.0877(15)
H97? H 0.1771(40) 1.1393(21) 0.1012(15)
H98? H 0.0706(37) 1.1253(24) 0.0475(19)
loop_
_geom_bond_atom_site_label_1
_geom_bond_atom_site_label_2
_geom_bond_site_symmetry_1
_geom_bond_site_symmetry_2
Br1 Li1 1_555 1_555
Br2 Li1 1_555 1_555
P1 N1 1_555 1_555
P2 N2 1_555 1_555
Li1 O1 1_555 1_555
Li2 Br1 1_555 1_555
Li3 Br2 1_555 1_555
Li4 Br1 1_555 1_555
O1 C1 1_555 1_555
O2 Li2 1_555 1_555
O3 Li3 1_555 1_555
O4 Li4 1_555 1_555
N1 Li1 1_555 1_555
N2 Li2 1_555 1_555
C1 H1 1_555 1_555
H2 C1 1_555 1_555
C2 C1 1_555 1_555
H3 C2 1_555 1_555
H4 C2 1_555 1_555
C3 C2 1_555 1_555
H5 C3 1_555 1_555
H6 C3 1_555 1_555
C6 O1 1_555 1_555
H11 C6 1_555 1_555
H12 C6 1_555 1_555
C7 O2 1_555 1_555
H13 C7 1_555 1_555
H14 C7 1_555 1_555
C8 C7 1_555 1_555
H15 C8 1_555 1_555
H16 C8 1_555 1_555
C10 C8 1_555 1_555
H19 C10 1_555 1_555
H20 C10 1_555 1_555
C11 O2 1_555 1_555
H21 C11 1_555 1_555
H22 C11 1_555 1_555
C12 O3 1_555 1_555
H23 C12 1_555 1_555
H24 C12 1_555 1_555
C13 C12 1_555 1_555
H25 C13 1_555 1_555
H26 C13 1_555 1_555
C14 C13 1_555 1_555
H27 C14 1_555 1_555
H28 C14 1_555 1_555
C15 O3 1_555 1_555
H29 C15 1_555 1_555
H30 C15 1_555 1_555
C19 O4 1_555 1_555
H37 C19 1_555 1_555
H38 C19 1_555 1_555
C20 C19 1_555 1_555
H39 C20 1_555 1_555
H40 C20 1_555 1_555
C21 C20 1_555 1_555
H41 C21 1_555 1_555
H42 C21 1_555 1_555
C22 O4 1_555 1_555
H43 C22 1_555 1_555
H44 C22 1_555 1_555
C23 P1 1_555 1_555
C24 C23 1_555 1_555
H45 C24 1_555 1_555
C25 C24 1_555 1_555
H46 C25 1_555 1_555
C26 C25 1_555 1_555
H47 C26 1_555 1_555
C27 C26 1_555 1_555
H48 C27 1_555 1_555
C28 C23 1_555 1_555
H49 C28 1_555 1_555
C29 P1 1_555 1_555
C30 C29 1_555 1_555
H50 C30 1_555 1_555
C31 C30 1_555 1_555
H51 C31 1_555 1_555
C32 C31 1_555 1_555
H52 C32 1_555 1_555
C33 C32 1_555 1_555
H53 C33 1_555 1_555
C34 C29 1_555 1_555
H54 C34 1_555 1_555
C35 P1 1_555 1_555
C36 C35 1_555 1_555
H55 C36 1_555 1_555
C37 C36 1_555 1_555
H56 C37 1_555 1_555
C38 C37 1_555 1_555
H57 C38 1_555 1_555
C39 C38 1_555 1_555
H58 C39 1_555 1_555
C40 C35 1_555 1_555
H59 C40 1_555 1_555
C41 P2 1_555 1_555
C42 C41 1_555 1_555
H60 C42 1_555 1_555
C43 C42 1_555 1_555
H61 C43 1_555 1_555
C44 C43 1_555 1_555
H62 C44 1_555 1_555
C45 C44 1_555 1_555
H63 C45 1_555 1_555
C46 C41 1_555 1_555
H64 C46 1_555 1_555
C47 P2 1_555 1_555
C48 C47 1_555 1_555
H65 C48 1_555 1_555
C49 C48 1_555 1_555
H66 C49 1_555 1_555
C50 C49 1_555 1_555
H67 C50 1_555 1_555
C51 C50 1_555 1_555
H68 C51 1_555 1_555
C52 C47 1_555 1_555
H69 C52 1_555 1_555
C53 P2 1_555 1_555
C54 C53 1_555 1_555
H70 C54 1_555 1_555
C55 C54 1_555 1_555
H71 C55 1_555 1_555
C56 C55 1_555 1_555
H72 C56 1_555 1_555
C57 C56 1_555 1_555
H73 C57 1_555 1_555
C58 C53 1_555 1_555
H74 C58 1_555 1_555
C66 C67 1_555 1_555
C67 H83 1_555 1_555
C68 C67 1_555 1_555
H84 C68 1_555 1_555
C69 C68 1_555 1_555
H85 C69 1_555 1_555
C70 C69 1_555 1_555
H86 C70 1_555 1_555
C71 C66 1_555 1_555
H87 C71 1_555 1_555
C72 C66 1_555 1_555
H88 C72 1_555 1_555
H89 C72 1_555 1_555
H90 C72 1_555 1_555
Br2 Li2 1_555 1_555
Li3 N1 1_555 1_555
Li3 N2 1_555 1_555
Li4 N1 1_555 1_555
Li4 N2 1_555 1_555
C3 C6 1_555 1_555
C10 C11 1_555 1_555
C14 C15 1_555 1_555
C21 C22 1_555 1_555
C27 C28 1_555 1_555
C33 C34 1_555 1_555
C39 C40 1_555 1_555
C45 C46 1_555 1_555
C51 C52 1_555 1_555
C57 C58 1_555 1_555
C70 C71 1_555 1_555

#END
