
#######################################################################
#
#                 Cambridge Crystallographic Data Centre
#                                CCDC 
#
#######################################################################
#
# If this CIF has been generated from an entry in the Cambridge 
# Structural Database, then it will include bibliographic, chemical, 
# crystal, experimental, refinement or atomic coordinate data resulting 
# from the CCDC's data processing and validation procedures.
#
#######################################################################

data_REHWOT
_chemical_formula_moiety         'C34 H37 N1 O11'
_chemical_name_systematic        
"diethyl 2-(2'-(ethoxycarbonyl)-2'-(2-ethoxy-2-oxoethyl)-4'-(3-methoxyphenyl)-1,3-dioxo-1,3-dihydro-1'H-spiro[indene-2,3'-pyrrolidin]-1'-yl)but-2-enedioate"
_symmetry_cell_setting           triclinic
_symmetry_space_group_name_H-M   'P -1'
_symmetry_Int_Tables_number      2
_space_group_name_Hall           '-P 1'
loop_
_symmetry_equiv_pos_site_id
_symmetry_equiv_pos_as_xyz
1 x,y,z
2 -x,-y,-z
_cell_length_a                   12.7194(18)
_cell_length_b                   16.405(2)
_cell_length_c                   18.073(3)
_cell_angle_alpha                95.052(4)
_cell_angle_beta                 109.267(4)
_cell_angle_gamma                105.426(4)
_cell_volume                     3367.01
_exptl_crystal_colour            colorless
_exptl_crystal_description       block
_cell_formula_units_Z            4
loop_
_atom_site_label
_atom_site_type_symbol
_atom_site_fract_x
_atom_site_fract_y
_atom_site_fract_z
C1 C 0.6257(3) 0.63829(19) 0.28044(17)
C2 C 0.5127(3) 0.6354(2) 0.28774(17)
C3 C 0.4375(3) 0.5712(2) 0.3073(2)
H1 H 0.4551 0.5213 0.3192
C4 C 0.3340(3) 0.5842(3) 0.3085(2)
H2 H 0.2824 0.5428 0.3229
C5 C 0.3071(3) 0.6564(3) 0.2890(2)
H3 H 0.2363 0.6624 0.2888
C6 C 0.3809(3) 0.7203(3) 0.2696(2)
H4 H 0.3617 0.7694 0.2564
C7 C 0.4857(3) 0.7094(2) 0.27013(18)
C8 C 0.5810(3) 0.7686(2) 0.25301(18)
C9 C 0.6657(2) 0.71884(19) 0.24658(17)
C10 C 0.6422(3) 0.6908(2) 0.15582(17)
H5 H 0.6499 0.7435 0.1335
C11 C 0.5223(3) 0.6298(2) 0.10653(17)
C12 C 0.4948(3) 0.5420(2) 0.10037(18)
H6 H 0.5522 0.5179 0.1259
C13 C 0.3796(3) 0.4885(2) 0.05537(18)
C14 C 0.4270(4) 0.3619(3) 0.0880(3)
H7 H 0.4936 0.3771 0.0722
H8 H 0.3918 0.3005 0.0754
H9 H 0.4519 0.3818 0.1445
C15 C 0.2952(3) 0.5229(2) 0.0163(2)
H10 H 0.2196 0.4871 -0.0142
C16 C 0.3227(3) 0.6110(3) 0.0222(2)
H11 H 0.2651 0.6345 -0.0041
C17 C 0.4350(3) 0.6649(2) 0.06690(19)
H12 H 0.4526 0.7243 0.0706
C18 C 0.7492(3) 0.6638(2) 0.15997(18)
H13 H 0.7398 0.6059 0.1706
H14 H 0.7640 0.6666 0.1108
C19 C 0.8001(2) 0.76805(18) 0.28244(16)
C20 C 0.8216(3) 0.8651(2) 0.2791(2)
C21 C 0.8162(5) 0.9675(3) 0.1955(3)
H15 H 0.8969 1.0038 0.2227
H16 H 0.7670 0.9897 0.2174
C22 C 0.7792(7) 0.9666(5) 0.1095(4)
H17 H 0.8227 0.9387 0.0874
H18 H 0.7936 1.0247 0.1005
H19 H 0.6969 0.9357 0.0840
C23 C 0.8633(3) 0.7596(2) 0.36856(18)
H20 H 0.8570 0.6995 0.3694
H21 H 0.9459 0.7917 0.3851
C24 C 0.8176(3) 0.7908(2) 0.4273(2)
C25 C 0.8702(6) 0.8509(6) 0.5643(3)
H22 H 0.7935 0.8132 0.5580
H23 H 0.9270 0.8491 0.6149
C26 C 0.8683(8) 0.9329(5) 0.5597(5)
H24 H 0.9465 0.9701 0.5713
H25 H 0.8382 0.9523 0.5978
H26 H 0.8189 0.9342 0.5069
C27 C 0.9552(3) 0.76008(19) 0.22880(19)
C28 C 0.9769(3) 0.7103(3) 0.1642(3)
C29 C 0.9904(7) 0.7091(5) 0.0380(4)
H27 H 0.9268 0.6569 0.0082
H28 H 1.0627 0.6949 0.0582
C30 C 1.0010(11) 0.7761(6) -0.0138(6)
H29 H 0.9275 0.7873 -0.0351
H30 H 1.0210 0.7551 -0.0570
H31 H 1.0611 0.8283 0.0176
C31 C 1.0427(3) 0.8283(2) 0.2809(2)
H32 H 1.0276 0.8595 0.3195
C32 C 1.1582(3) 0.8535(2) 0.2781(2)
C33 C 1.3479(4) 0.9579(3) 0.3363(4)
H33 H 1.3492 0.9667 0.2842
H34 H 1.3908 0.9182 0.3546
C34 C 1.4002(7) 1.0428(5) 0.3954(6)
H35 H 1.3466 1.0757 0.3834
H36 H 1.4729 1.0747 0.3917
H37 H 1.4144 1.0318 0.4486
N1 N 0.8440(2) 0.72809(15) 0.22729(14)
O1 O 0.67543(19) 0.58514(14) 0.29377(14)
O2 O 0.5895(2) 0.84130(16) 0.24271(16)
O3 O 0.3441(2) 0.40099(16) 0.04666(15)
O4 O 0.8530(2) 0.91959(15) 0.33752(16)
O5 O 0.8046(2) 0.87871(14) 0.20553(15)
O6 O 0.7174(2) 0.7831(2) 0.41499(15)
O7 O 0.9046(3) 0.8262(3) 0.49722(16)
O8 O 0.9946(3) 0.6431(2) 0.1683(3)
O9 O 0.9663(3) 0.7502(2) 0.10366(19)
O10 O 1.1930(2) 0.81914(19) 0.2346(2)
O11 O 1.2278(2) 0.92528(18) 0.33293(19)
C36 C 0.8510(3) 0.3870(2) 0.19914(18)
C37 C 0.9652(3) 0.3933(2) 0.19307(18)
C38 C 1.0258(3) 0.4497(2) 0.1574(2)
H43 H 0.9967 0.4914 0.1343
C39 C 1.1310(4) 0.4414(3) 0.1576(3)
H44 H 1.1733 0.4778 0.1334
C40 C 1.1747(4) 0.3797(3) 0.1933(3)
H45 H 1.2464 0.3761 0.1930
C41 C 1.1151(3) 0.3238(3) 0.2289(2)
H46 H 1.1445 0.2825 0.2528
C42 C 1.0082(3) 0.3323(2) 0.22753(19)
C43 C 0.9272(3) 0.2806(2) 0.25977(19)
C44 C 0.8276(2) 0.31993(19) 0.25091(16)
C45 C 0.8432(2) 0.3698(2) 0.33451(17)
H47 H 0.8528 0.3302 0.3720
C46 C 0.9491(3) 0.45147(19) 0.37072(18)
C47 C 1.0526(3) 0.4432(2) 0.41995(18)
H48 H 1.0557 0.3896 0.4318
C48 C 1.1516(3) 0.5138(2) 0.45164(19)
C49 C 1.2688(4) 0.4288(3) 0.5138(3)
H49 H 1.2175 0.4041 0.5404
H50 H 1.3483 0.4352 0.5466
H51 H 1.2476 0.3916 0.4636
C50 C 1.1500(3) 0.5945(2) 0.4379(2)
H52 H 1.2167 0.6423 0.4616
C51 C 1.0461(3) 0.6025(2) 0.3877(3)
H53 H 1.0436 0.6562 0.3761
C52 C 0.9454(3) 0.5318(2) 0.3543(2)
H54 H 0.8759 0.5383 0.3210
C53 C 0.7240(3) 0.3809(2) 0.31905(19)
H55 H 0.7088 0.3871 0.3681
H56 H 0.7176 0.4307 0.2948
C54 C 0.6993(2) 0.25615(18) 0.22072(16)
C55 C 0.6981(3) 0.1699(2) 0.2472(2)
C56 C 0.7329(5) 0.1015(3) 0.3592(3)
H57 H 0.7930 0.0824 0.3480
H58 H 0.6592 0.0550 0.3362
C57 C 0.7650(6) 0.1255(5) 0.4463(4)
H59 H 0.8263 0.1799 0.4664
H60 H 0.7920 0.0821 0.4719
H61 H 0.6976 0.1300 0.4572
C58 C 0.6343(3) 0.2405(2) 0.12989(17)
H62 H 0.5545 0.2036 0.1167
H63 H 0.6303 0.2952 0.1148
C59 C 0.6887(3) 0.2003(2) 0.08145(18)
C60 C 0.6566(4) 0.1137(4) -0.0396(3)
H64 H 0.6925 0.1590 -0.0630
H65 H 0.7157 0.0890 -0.0108
C61 C 0.5581(6) 0.0468(5) -0.1025(4)
H66 H 0.5125 0.0097 -0.0784
H67 H 0.5882 0.0134 -0.1318
H68 H 0.5096 0.0736 -0.1381
C62 C 0.5338(2) 0.26307(19) 0.26332(17)
C63 C 0.4994(3) 0.3172(2) 0.3182(2)
C64 C 0.4751(5) 0.3233(4) 0.4412(3)
H69 H 0.3951 0.3230 0.4145
H70 H 0.5239 0.3822 0.4661
C65 C 0.4806(6) 0.2683(6) 0.5017(3)
H71 H 0.4339 0.2100 0.4761
H72 H 0.4509 0.2885 0.5397
H73 H 0.5604 0.2706 0.5287
C66 C 0.4563(3) 0.1863(2) 0.2207(2)
H74 H 0.4785 0.1508 0.1898
C67 C 0.3385(3) 0.1581(2) 0.2223(2)
C68 C 0.1565(4) 0.0468(3) 0.1704(4)
H75 H 0.1138 0.0873 0.1545
H76 H 0.1543 0.0344 0.2214
C69 C 0.1055(7) -0.0352(5) 0.1074(6)
H77 H 0.0866 -0.0208 0.0552
H78 H 0.0357 -0.0710 0.1121
H79 H 0.1620 -0.0656 0.1150
N2 N 0.6429(2) 0.30023(15) 0.26347(14)
O12 O 0.7866(2) 0.42827(14) 0.17054(14)
O13 O 0.9373(2) 0.22080(19) 0.29167(18)
O14 O 1.2586(2) 0.51040(18) 0.50040(16)
O15 O 0.6769(2) 0.10528(15) 0.20174(16)
O16 O 0.7220(2) 0.17669(15) 0.32536(14)
O17 O 0.7915(2) 0.21454(18) 0.09740(15)
O18 O 0.6077(2) 0.14885(18) 0.01489(14)
O19 O 0.4660(2) 0.37679(17) 0.3014(2)
O20 O 0.5169(2) 0.28829(18) 0.38528(16)
O21 O 0.2967(2) 0.19608(18) 0.2584(2)
O22 O 0.2775(2) 0.08092(18) 0.17471(19)
H38? H 1.3742 1.0204 0.3475
H39? H 1.3522 0.9383 0.2855
C35? C 1.4251(17) 0.9243(14) 0.4025(12)
H40? H 1.4424 0.9588 0.4533
H41? H 1.4969 0.9275 0.3944
H42? H 1.3846 0.8655 0.4014
H80? H 0.1481 0.0683 0.2192
H81? H 0.1301 -0.0157 0.1602
C70? C 0.0894(16) 0.0812(14) 0.0997(11)
H82? H 0.1440 0.1194 0.0823
H83? H 0.0436 0.1120 0.1159
H84? H 0.0384 0.0339 0.0566
loop_
_geom_bond_atom_site_label_1
_geom_bond_atom_site_label_2
_geom_bond_site_symmetry_1
_geom_bond_site_symmetry_2
C1 C2 1_555 1_555
C2 C3 1_555 1_555
C3 H1 1_555 1_555
C4 C3 1_555 1_555
H2 C4 1_555 1_555
C5 C4 1_555 1_555
H3 C5 1_555 1_555
C6 C5 1_555 1_555
H4 C6 1_555 1_555
C7 C2 1_555 1_555
C8 C7 1_555 1_555
C9 C1 1_555 1_555
C10 C9 1_555 1_555
H5 C10 1_555 1_555
C11 C10 1_555 1_555
C12 C11 1_555 1_555
H6 C12 1_555 1_555
C13 C12 1_555 1_555
C14 H7 1_555 1_555
H8 C14 1_555 1_555
H9 C14 1_555 1_555
C15 C13 1_555 1_555
H10 C15 1_555 1_555
C16 C15 1_555 1_555
H11 C16 1_555 1_555
C17 C11 1_555 1_555
H12 C17 1_555 1_555
C18 C10 1_555 1_555
H13 C18 1_555 1_555
H14 C18 1_555 1_555
C19 C9 1_555 1_555
C20 C19 1_555 1_555
C21 H15 1_555 1_555
H16 C21 1_555 1_555
C22 C21 1_555 1_555
H17 C22 1_555 1_555
H18 C22 1_555 1_555
H19 C22 1_555 1_555
C23 C19 1_555 1_555
H20 C23 1_555 1_555
H21 C23 1_555 1_555
C24 C23 1_555 1_555
C25 H22 1_555 1_555
H23 C25 1_555 1_555
C26 C25 1_555 1_555
H24 C26 1_555 1_555
H25 C26 1_555 1_555
H26 C26 1_555 1_555
C27 C28 1_555 1_555
C28 O8 1_555 1_555
C29 H27 1_555 1_555
H28 C29 1_555 1_555
C30 C29 1_555 1_555
H29 C30 1_555 1_555
H30 C30 1_555 1_555
H31 C30 1_555 1_555
C31 C27 1_555 1_555
H32 C31 1_555 1_555
C32 C31 1_555 1_555
C33 H33 1_555 1_555
H34 C33 1_555 1_555
C34 C33 1_555 1_555
H35 C34 1_555 1_555
H36 C34 1_555 1_555
H37 C34 1_555 1_555
N1 C18 1_555 1_555
O1 C1 1_555 1_555
O2 C8 1_555 1_555
O3 C13 1_555 1_555
O4 C20 1_555 1_555
O5 C20 1_555 1_555
O6 C24 1_555 1_555
O7 C24 1_555 1_555
O9 C28 1_555 1_555
O10 C32 1_555 1_555
O11 C32 1_555 1_555
C36 C37 1_555 1_555
C37 C38 1_555 1_555
C38 H43 1_555 1_555
C39 C38 1_555 1_555
H44 C39 1_555 1_555
C40 C39 1_555 1_555
H45 C40 1_555 1_555
C41 C40 1_555 1_555
H46 C41 1_555 1_555
C42 C37 1_555 1_555
C43 C42 1_555 1_555
C44 C36 1_555 1_555
C45 C44 1_555 1_555
H47 C45 1_555 1_555
C46 C45 1_555 1_555
C47 C46 1_555 1_555
H48 C47 1_555 1_555
C48 C47 1_555 1_555
C49 H49 1_555 1_555
H50 C49 1_555 1_555
H51 C49 1_555 1_555
C50 C48 1_555 1_555
H52 C50 1_555 1_555
C51 C50 1_555 1_555
H53 C51 1_555 1_555
C52 C46 1_555 1_555
H54 C52 1_555 1_555
C53 C45 1_555 1_555
H55 C53 1_555 1_555
H56 C53 1_555 1_555
C54 C44 1_555 1_555
C55 C54 1_555 1_555
C56 H57 1_555 1_555
H58 C56 1_555 1_555
C57 C56 1_555 1_555
H59 C57 1_555 1_555
H60 C57 1_555 1_555
H61 C57 1_555 1_555
C58 C54 1_555 1_555
H62 C58 1_555 1_555
H63 C58 1_555 1_555
C59 C58 1_555 1_555
C60 H64 1_555 1_555
H65 C60 1_555 1_555
C61 C60 1_555 1_555
H66 C61 1_555 1_555
H67 C61 1_555 1_555
H68 C61 1_555 1_555
C62 C63 1_555 1_555
C63 O19 1_555 1_555
C64 H69 1_555 1_555
H70 C64 1_555 1_555
C65 C64 1_555 1_555
H71 C65 1_555 1_555
H72 C65 1_555 1_555
H73 C65 1_555 1_555
C66 C62 1_555 1_555
H74 C66 1_555 1_555
C67 C66 1_555 1_555
C68 H75 1_555 1_555
H76 C68 1_555 1_555
C69 C68 1_555 1_555
H77 C69 1_555 1_555
H78 C69 1_555 1_555
H79 C69 1_555 1_555
N2 C53 1_555 1_555
O12 C36 1_555 1_555
O13 C43 1_555 1_555
O14 C48 1_555 1_555
O15 C55 1_555 1_555
O16 C55 1_555 1_555
O17 C59 1_555 1_555
O18 C59 1_555 1_555
O20 C63 1_555 1_555
O21 C67 1_555 1_555
O22 C67 1_555 1_555
C6 C7 1_555 1_555
C8 C9 1_555 1_555
C14 O3 1_555 1_555
C16 C17 1_555 1_555
C19 N1 1_555 1_555
C21 O5 1_555 1_555
C25 O7 1_555 1_555
C27 N1 1_555 1_555
C29 O9 1_555 1_555
C33 O11 1_555 1_555
C41 C42 1_555 1_555
C43 C44 1_555 1_555
C49 O14 1_555 1_555
C51 C52 1_555 1_555
C54 N2 1_555 1_555
C56 O16 1_555 1_555
C60 O18 1_555 1_555
C62 N2 1_555 1_555
C64 O20 1_555 1_555
C68 O22 1_555 1_555

#END
