
#######################################################################
#
#                 Cambridge Crystallographic Data Centre
#                                CCDC 
#
#######################################################################
#
# If this CIF has been generated from an entry in the Cambridge 
# Structural Database, then it will include bibliographic, chemical, 
# crystal, experimental, refinement or atomic coordinate data resulting 
# from the CCDC's data processing and validation procedures.
#
#######################################################################

data_REHXUA
_chemical_formula_moiety         'C26 H22 N2 O1'
_chemical_name_systematic        
4-{[(4-methoxyphenyl)imino]methyl}-N,N-diphenylaniline
_symmetry_cell_setting           triclinic
_symmetry_space_group_name_H-M   'P -1'
_symmetry_Int_Tables_number      2
_space_group_name_Hall           '-P 1'
loop_
_symmetry_equiv_pos_site_id
_symmetry_equiv_pos_as_xyz
1 x,y,z
2 -x,-y,-z
_cell_length_a                   10.317(4)
_cell_length_b                   11.830(5)
_cell_length_c                   17.848(7)
_cell_angle_alpha                101.050(9)
_cell_angle_beta                 96.531(5)
_cell_angle_gamma                101.540(8)
_cell_volume                     2068.38
_exptl_crystal_colour            'light colorless'
_exptl_crystal_description       block
_cell_formula_units_Z            4
loop_
_atom_site_label
_atom_site_type_symbol
_atom_site_fract_x
_atom_site_fract_y
_atom_site_fract_z
O1 O 0.2196(11) 0.1311(9) 1.0134(5)
N1 N -0.1003(3) 0.7906(2) 0.63304(14)
N2 N 0.0410(3) 0.4364(2) 0.84348(14)
C1 C -0.1261(3) 0.9055(3) 0.64757(19)
C2 C -0.0963(4) 0.9794(3) 0.5977(2)
H1 H -0.0580 0.9540 0.5547
C3 C -0.1231(5) 1.0907(4) 0.6112(3)
H2 H -0.1035 1.1393 0.5768
C4 C -0.1779(5) 1.1298(4) 0.6743(3)
H3 H -0.1935 1.2056 0.6836
C5 C -0.2101(4) 1.0572(4) 0.7241(3)
H4 H -0.2487 1.0835 0.7668
C6 C -0.1850(3) 0.9441(3) 0.7107(2)
H5 H -0.2077 0.8947 0.7442
C7 C -0.1027(3) 0.7315(2) 0.55462(18)
C8 C 0.0073(3) 0.6887(3) 0.53413(19)
H6 H 0.0819 0.6982 0.5712
C9 C 0.0058(4) 0.6320(3) 0.4587(2)
H7 H 0.0793 0.6031 0.4452
C10 C -0.1037(4) 0.6182(3) 0.4035(2)
H8 H -0.1039 0.5808 0.3527
C11 C -0.2129(4) 0.6597(3) 0.4235(2)
H9 H -0.2872 0.6498 0.3861
C12 C -0.2133(3) 0.7161(3) 0.4989(2)
H10 H -0.2878 0.7436 0.5121
C13 C -0.0648(3) 0.7345(3) 0.69270(17)
C14 C 0.0090(3) 0.7951(3) 0.76391(19)
H11 H 0.0364 0.8771 0.7742
C15 C 0.0424(3) 0.7350(3) 0.81995(19)
H12 H 0.0897 0.7776 0.8679
C16 C 0.0065(3) 0.6120(3) 0.80605(17)
C17 C -0.0692(3) 0.5518(3) 0.73477(17)
H13 H -0.0965 0.4698 0.7244
C18 C -0.1042(3) 0.6112(3) 0.67978(17)
H14 H -0.1552 0.5688 0.6328
C19 C 0.0533(3) 0.5478(3) 0.86208(18)
H15 H 0.0925 0.5888 0.9119
C20 C 0.0883(3) 0.3712(3) 0.89491(18)
C21 C 0.1340(3) 0.4111(3) 0.97318(19)
H16 H 0.1376 0.4893 0.9964
C22 C 0.1747(4) 0.3373(4) 1.0179(2)
H17 H 0.2061 0.3661 1.0704
C23 C 0.1685(4) 0.2217(4) 0.9845(3)
C24 C 0.1240(5) 0.1810(4) 0.9069(3)
H18 H 0.1208 0.1028 0.8840
C25 C 0.0843(4) 0.2541(3) 0.8628(2)
H19 H 0.0539 0.2247 0.8102
C26 C 0.204(3) 0.118(3) 1.0859(19)
H20 H 0.1228 0.0602 1.0838
H21 H 0.1983 0.1925 1.1169
H22 H 0.2788 0.0927 1.1085
O2 O 0.6859(3) 0.1356(2) 1.02620(15)
N3 N 0.3990(3) 0.7905(2) 0.63011(14)
N4 N 0.5864(3) 0.4438(2) 0.83871(15)
C27 C 0.3708(3) 0.9010(2) 0.66207(17)
C28 C 0.4357(4) 0.9634(3) 0.7343(2)
H23 H 0.4980 0.9330 0.7614
C29 C 0.4099(5) 1.0707(3) 0.7671(2)
H24 H 0.4538 1.1113 0.8162
C30 C 0.3202(5) 1.1169(3) 0.7277(3)
H25 H 0.3039 1.1896 0.7495
C31 C 0.2542(4) 1.0563(3) 0.6560(3)
H26 H 0.1924 1.0877 0.6292
C32 C 0.2789(3) 0.9476(3) 0.6227(2)
H27 H 0.2336 0.9066 0.5740
C33 C 0.4133(3) 0.7571(3) 0.55148(17)
C34 C 0.3876(3) 0.6375(3) 0.51573(18)
H28 H 0.3606 0.5801 0.5433
C35 C 0.4025(3) 0.6046(3) 0.43924(19)
H29 H 0.3884 0.5247 0.4164
C36 C 0.4372(3) 0.6860(3) 0.3964(2)
H30 H 0.4430 0.6624 0.3443
C37 C 0.4634(4) 0.8035(3) 0.4315(2)
H31 H 0.4882 0.8601 0.4030
C38 C 0.4537(4) 0.8394(3) 0.5086(2)
H32 H 0.4745 0.9196 0.5318
C39 C 0.4201(3) 0.7134(2) 0.68028(17)
C40 C 0.3206(3) 0.6705(3) 0.71961(19)
H33 H 0.2395 0.6934 0.7144
C41 C 0.3407(3) 0.5935(3) 0.76680(19)
H34 H 0.2722 0.5644 0.7925
C42 C 0.4610(3) 0.5588(2) 0.77656(17)
C43 C 0.5613(3) 0.6034(3) 0.73712(17)
H35 H 0.6431 0.5818 0.7432
C44 C 0.5417(3) 0.6786(3) 0.68951(17)
H36 H 0.6096 0.7067 0.6632
C45 C 0.4786(3) 0.4771(3) 0.82654(18)
H37 H 0.4074 0.4482 0.8504
C46 C 0.6020(3) 0.3667(3) 0.88862(18)
C47 C 0.5210(4) 0.3419(3) 0.94295(19)
H38 H 0.4484 0.3769 0.9478
C48 C 0.5461(4) 0.2659(3) 0.9903(2)
H39 H 0.4910 0.2504 1.0266
C49 C 0.6538(4) 0.2133(3) 0.9830(2)
C50 C 0.7360(4) 0.2380(3) 0.9303(2)
H40 H 0.8089 0.2032 0.9259
C51 C 0.7113(3) 0.3138(3) 0.88402(19)
H41 H 0.7684 0.3304 0.8488
C52 C 0.6064(5) 0.1078(4) 1.0831(2)
H42 H 0.5144 0.0781 1.0593
H43 H 0.6142 0.1777 1.1224
H44 H 0.6369 0.0487 1.1059
O3? O 0.1945(15) 0.1666(11) 1.0477(8)
C53? C 0.1350(17) 0.0499(13) 1.0341(11)
H45? H 0.1501 0.0106 0.9847
H46? H 0.0405 0.0408 1.0342
H47? H 0.1723 0.0158 1.0738
C54? C 0.2593(12) 0.1732(13) 1.1020(7)
loop_
_geom_bond_atom_site_label_1
_geom_bond_atom_site_label_2
_geom_bond_site_symmetry_1
_geom_bond_site_symmetry_2
O1 C23 1_555 1_555
N1 C1 1_555 1_555
N2 C19 1_555 1_555
C1 C2 1_555 1_555
C2 H1 1_555 1_555
C3 C2 1_555 1_555
H2 C3 1_555 1_555
C4 C3 1_555 1_555
H3 C4 1_555 1_555
C5 C4 1_555 1_555
H4 C5 1_555 1_555
C6 C1 1_555 1_555
H5 C6 1_555 1_555
C7 N1 1_555 1_555
C8 C7 1_555 1_555
H6 C8 1_555 1_555
C9 C8 1_555 1_555
H7 C9 1_555 1_555
C10 C9 1_555 1_555
H8 C10 1_555 1_555
C11 C10 1_555 1_555
H9 C11 1_555 1_555
C12 C7 1_555 1_555
H10 C12 1_555 1_555
C13 N1 1_555 1_555
C14 C13 1_555 1_555
H11 C14 1_555 1_555
C15 C14 1_555 1_555
H12 C15 1_555 1_555
C16 C15 1_555 1_555
C17 C16 1_555 1_555
H13 C17 1_555 1_555
C18 C13 1_555 1_555
H14 C18 1_555 1_555
C19 C16 1_555 1_555
H15 C19 1_555 1_555
C20 N2 1_555 1_555
C21 C20 1_555 1_555
H16 C21 1_555 1_555
C22 C21 1_555 1_555
H17 C22 1_555 1_555
C23 C22 1_555 1_555
C24 C23 1_555 1_555
H18 C24 1_555 1_555
C25 C20 1_555 1_555
H19 C25 1_555 1_555
C26 O1 1_555 1_555
H20 C26 1_555 1_555
H21 C26 1_555 1_555
H22 C26 1_555 1_555
O2 C49 1_555 1_555
N3 C27 1_555 1_555
N4 C45 1_555 1_555
C27 C28 1_555 1_555
C28 H23 1_555 1_555
C29 C28 1_555 1_555
H24 C29 1_555 1_555
C30 C29 1_555 1_555
H25 C30 1_555 1_555
C31 C30 1_555 1_555
H26 C31 1_555 1_555
C32 C27 1_555 1_555
H27 C32 1_555 1_555
C33 N3 1_555 1_555
C34 C33 1_555 1_555
H28 C34 1_555 1_555
C35 C34 1_555 1_555
H29 C35 1_555 1_555
C36 C35 1_555 1_555
H30 C36 1_555 1_555
C37 C36 1_555 1_555
H31 C37 1_555 1_555
C38 C33 1_555 1_555
H32 C38 1_555 1_555
C39 N3 1_555 1_555
C40 C39 1_555 1_555
H33 C40 1_555 1_555
C41 C40 1_555 1_555
H34 C41 1_555 1_555
C42 C41 1_555 1_555
C43 C42 1_555 1_555
H35 C43 1_555 1_555
C44 C39 1_555 1_555
H36 C44 1_555 1_555
C45 C42 1_555 1_555
H37 C45 1_555 1_555
C46 N4 1_555 1_555
C47 C46 1_555 1_555
H38 C47 1_555 1_555
C48 C47 1_555 1_555
H39 C48 1_555 1_555
C49 C48 1_555 1_555
C50 C49 1_555 1_555
H40 C50 1_555 1_555
C51 C46 1_555 1_555
H41 C51 1_555 1_555
C52 O2 1_555 1_555
H42 C52 1_555 1_555
H43 C52 1_555 1_555
H44 C52 1_555 1_555
C5 C6 1_555 1_555
C11 C12 1_555 1_555
C17 C18 1_555 1_555
C24 C25 1_555 1_555
C31 C32 1_555 1_555
C37 C38 1_555 1_555
C43 C44 1_555 1_555
C50 C51 1_555 1_555

#END
