
#######################################################################
#
#                 Cambridge Crystallographic Data Centre
#                                CCDC 
#
#######################################################################
#
# If this CIF has been generated from an entry in the Cambridge 
# Structural Database, then it will include bibliographic, chemical, 
# crystal, experimental, refinement or atomic coordinate data resulting 
# from the CCDC's data processing and validation procedures.
#
#######################################################################

data_REJJUL
_chemical_formula_moiety         'C29 H30 F3 N1 O6 S1'
_chemical_name_systematic        
endo-4,12-Diphenyl-8-(3,6-ethano-5-trifluoromethylcyclohexen-4-yl)sulfonyl-3,5,11,13-tetraoxa-8-azatricyclo(7.4.0.0^2,7^)tridecane
_symmetry_cell_setting           orthorhombic
_symmetry_space_group_name_H-M   'P 21 21 21'
_symmetry_Int_Tables_number      19
_space_group_name_Hall           'P 2ac 2ab'
loop_
_symmetry_equiv_pos_site_id
_symmetry_equiv_pos_as_xyz
1 x,y,z
2 1/2-x,-y,1/2+z
3 1/2+x,1/2-y,-z
4 -x,1/2+y,1/2-z
_cell_length_a                   10.547(2)
_cell_length_b                   24.979(2)
_cell_length_c                   10.192(2)
_cell_angle_alpha                90
_cell_angle_beta                 90
_cell_angle_gamma                90
_cell_volume                     2685.12
_exptl_crystal_colour            colorless
_cell_formula_units_Z            4
loop_
_atom_site_label
_atom_site_type_symbol
_atom_site_fract_x
_atom_site_fract_y
_atom_site_fract_z
S1 S 0.2964(3) 0.0805(1) 0.3265(3)
N1 N 0.1887(8) 0.0770(3) 0.4376(8)
O1 O 0.3660(7) 0.0314(3) 0.3367(8)
O2 O 0.2365(7) 0.0946(3) 0.2041(7)
C1 C 0.004(1) 0.0866(4) 0.562(1)
C2 C 0.390(1) 0.1850(4) 0.285(1)
C3 C 0.069(1) 0.1086(4) 0.439(1)
C4 C 0.108(1) 0.0721(4) 0.652(1)
C5 C 0.205(1) 0.0461(4) 0.561(1)
C6 C 0.408(1) 0.1341(4) 0.371(1)
O3 O -0.0713(7) 0.0511(3) 0.3115(8)
O4 O 0.3692(6) 0.0984(3) 0.6745(7)
C7 C -0.017(1) 0.104(5) 0.320(1)
O5 O 0.1578(6) 0.1217(3) 0.7010(7)
O6 O -0.0591(7) 0.0361(3) 0.5344(7)
C8 C -0.139(1) 0.0393(5) 0.424(1)
C9 C 0.276(1) 0.1158(4) 0.764(1)
C10 C 0.333(1) 0.2310(5) 0.363(1)
C11 C 0.337(1) 0.0470(4) 0.625(1)
C12 C -0.205(1) -0.0138(4) 0.408(1)
C13 C 0.314(1) 0.1694(4) 0.817(1)
C14 C 0.517(1) 0.1993(5) 0.220(1)
C15 C 0.556(1) 0.1524(6) 0.131(1)
C16 C 0.546(1) 0.1142(4) 0.356(1)
C17 C 0.577(1) 0.1032(5) 0.210(1)
F1 F 0.3170(8) 0.2742(3) 0.2884(7)
F2 F 0.2179(7) 0.2188(3) 0.4057(8)
C18 C -0.316(1) -0.0230(4) 0.473(1)
F3 F 0.3990(8) 0.2461(3) 0.4663(8)
C19 C 0.447(1) 0.2470(5) 0.816(1)
C20 C 0.417(1) 0.1971(5) 0.768(1)
C21 C 0.614(1) 0.2046(5) 0.328(1)
C22 C 0.377(1) 0.2696(5) 0.916(1)
C23 C 0.276(2) 0.2416(6) 0.968(1)
C24 C 0.628(1) 0.1603(6) 0.402(1)
C25 C -0.221(2) -0.1008(5) 0.309(1)
C26 C -0.157(1) -0.0527(6) 0.330(1)
C27 C 0.245(1) 0.1918(5) 0.920(1)
C28 C -0.337(1) -0.1081(5) 0.371(1)
C29 C -0.384(1) -0.0708(6) 0.454(1)
H1 H -0.0542 0.1129 0.5957
H2 H 0.3300 0.1745 0.2163
H3 H 0.0898 0.1469 0.4549
H4 H 0.0787 0.0478 0.7211
H5 H 0.1801 0.0087 0.5425
H6 H 0.3950 0.1445 0.4645
H7 H -0.0829 0.1322 0.3234
H8 H 0.0322 0.1133 0.2407
H9 H -0.2070 0.0688 0.4377
H10 H 0.2701 0.0891 0.8364
H11 H 0.3407 0.0198 0.6944
H12 H 0.4007 0.0349 0.5604
H13 H 0.5151 0.2335 0.1725
H14 H 0.5610 0.1532 0.0364
H15 H 0.5584 0.0816 0.4102
H16 H 0.6069 0.0682 0.1788
H17 H -0.3516 0.0042 0.5317
H18 H 0.5233 0.2661 0.7699
H19 H 0.4677 0.1788 0.6963
H20 H 0.7020 0.2111 0.2952
H21 H 0.5990 0.2331 0.3895
H22 H 0.4062 0.3036 0.9494
H23 H 0.2272 0.2577 1.0407
H24 H 0.6053 0.1666 0.4948
H25 H 0.7151 0.1464 0.4065
H26 H -0.1859 -0.1318 0.2621
H27 H -0.0772 -0.0479 0.2755
H28 H 0.1766 0.1702 0.9566
H29 H -0.3904 -0.1408 0.3507
H30 H -0.4646 -0.0782 0.5038
loop_
_geom_bond_atom_site_label_1
_geom_bond_atom_site_label_2
_geom_bond_site_symmetry_1
_geom_bond_site_symmetry_2
S1 N1 1_555 1_555
N1 C3 1_555 1_555
O1 S1 1_555 1_555
O2 S1 1_555 1_555
C1 C3 1_555 1_555
C2 C6 1_555 1_555
C3 C7 1_555 1_555
C4 C1 1_555 1_555
C5 N1 1_555 1_555
C6 S1 1_555 1_555
O3 C7 1_555 1_555
O4 C9 1_555 1_555
C7 H7 1_555 1_555
O5 C4 1_555 1_555
O6 C1 1_555 1_555
C8 O3 1_555 1_555
C9 O5 1_555 1_555
C10 C2 1_555 1_555
C11 C5 1_555 1_555
C12 C8 1_555 1_555
C13 C9 1_555 1_555
C14 C2 1_555 1_555
C15 C14 1_555 1_555
C16 C6 1_555 1_555
C17 C15 1_555 1_555
F1 C10 1_555 1_555
F2 C10 1_555 1_555
C18 C12 1_555 1_555
F3 C10 1_555 1_555
C19 C20 1_555 1_555
C20 C13 1_555 1_555
C21 C14 1_555 1_555
C22 C19 1_555 1_555
C23 C22 1_555 1_555
C24 C16 1_555 1_555
C25 C26 1_555 1_555
C26 C12 1_555 1_555
C27 C13 1_555 1_555
C28 C25 1_555 1_555
C29 C18 1_555 1_555
H1 C1 1_555 1_555
H2 C2 1_555 1_555
H3 C3 1_555 1_555
H4 C4 1_555 1_555
H5 C5 1_555 1_555
H6 C6 1_555 1_555
H8 C7 1_555 1_555
H9 C8 1_555 1_555
H10 C9 1_555 1_555
H11 C11 1_555 1_555
H12 C11 1_555 1_555
H13 C14 1_555 1_555
H14 C15 1_555 1_555
H15 C16 1_555 1_555
H16 C17 1_555 1_555
H17 C18 1_555 1_555
H18 C19 1_555 1_555
H19 C20 1_555 1_555
H20 C21 1_555 1_555
H21 C21 1_555 1_555
H22 C22 1_555 1_555
H23 C23 1_555 1_555
H24 C24 1_555 1_555
H25 C24 1_555 1_555
H26 C25 1_555 1_555
H27 C26 1_555 1_555
H28 C27 1_555 1_555
H29 C28 1_555 1_555
H30 C29 1_555 1_555
C4 C5 1_555 1_555
O4 C11 1_555 1_555
O6 C8 1_555 1_555
C16 C17 1_555 1_555
C21 C24 1_555 1_555
C23 C27 1_555 1_555
C28 C29 1_555 1_555

#END
