
#######################################################################
#
#                 Cambridge Crystallographic Data Centre
#                                CCDC 
#
#######################################################################
#
# If this CIF has been generated from an entry in the Cambridge 
# Structural Database, then it will include bibliographic, chemical, 
# crystal, experimental, refinement or atomic coordinate data resulting 
# from the CCDC's data processing and validation procedures.
#
#######################################################################

data_REJQUV
_chemical_formula_moiety         'C19 H20 O2 S1'
_chemical_name_systematic        
(2S,3S)-2-(benzo[b]thiophen-2-yl)-2-methyl-3-phenylbutane-1,3-diol
_symmetry_cell_setting           monoclinic
_symmetry_space_group_name_H-M   'P 21'
_symmetry_Int_Tables_number      4
_space_group_name_Hall           'P 2yb'
loop_
_symmetry_equiv_pos_site_id
_symmetry_equiv_pos_as_xyz
1 x,y,z
2 -x,1/2+y,-z
_cell_length_a                   6.6120(6)
_cell_length_b                   7.8997(7)
_cell_length_c                   15.4119(13)
_cell_angle_alpha                90
_cell_angle_beta                 92.455(3)
_cell_angle_gamma                90
_cell_volume                     804.268
_exptl_crystal_colour            colorless
_exptl_crystal_description       block
_cell_formula_units_Z            2
loop_
_atom_site_label
_atom_site_type_symbol
_atom_site_fract_x
_atom_site_fract_y
_atom_site_fract_z
S1 S 0.0255(3) 0.2085(3) 0.72576(12)
O1 O 0.3499(7) 0.5300(6) 0.9675(3)
H1 H 0.4558 0.4723 0.9754
C1 C 0.3269(10) 0.3234(8) 0.8490(4)
O2 O 0.6426(7) 0.3204(6) 0.9443(3)
H2 H 0.6706 0.2268 0.9677
C2 C 0.2683(9) 0.2922(8) 0.7534(4)
C3 C 0.4302(10) 0.3259(9) 0.6766(4)
C4 C 0.0888(11) 0.1930(9) 0.6185(4)
C5 C 0.2813(12) 0.2479(8) 0.6019(4)
C6 C -0.0396(14) 0.1237(11) 0.5523(6)
H3 H -0.1729 0.0875 0.5638
C7 C 0.0341(15) 0.1103(11) 0.4708(5)
H4 H -0.0494 0.0616 0.4257
C8 C 0.3500(12) 0.2350(10) 0.5156(5)
H5 H 0.4806 0.2743 0.5020
C9 C 0.2224(15) 0.1642(11) 0.4524(5)
H6 H 0.2672 0.1529 0.3949
C10 C 0.2234(10) 0.1936(10) 0.9050(4)
H7 H 0.2710 0.0799 0.8906
H8 H 0.0765 0.1999 0.8939
H9 H 0.2560 0.2173 0.9664
C11 C 0.5584(10) 0.2927(9) 0.8579(4)
H10 H 0.5870 0.1748 0.8405
H11 H 0.6265 0.3689 0.8174
C12 C 0.2726(9) 0.5091(9) 0.8782(4)
C13 C 0.0473(10) 0.5386(11) 0.8836(5)
H12 H -0.0063 0.4648 0.9283
H13 H -0.0205 0.5129 0.8273
H14 H 0.0227 0.6571 0.8987
C14 C 0.3661(10) 0.6423(8) 0.8204(4)
C15 C 0.5581(10) 0.7079(10) 0.8413(4)
H15 H 0.6308 0.6691 0.8920
C16 C 0.6447(12) 0.8296(9) 0.7889(5)
H16 H 0.7757 0.8728 0.8038
C17 C 0.5399(14) 0.8870(10) 0.7155(5)
H17 H 0.5984 0.9707 0.6801
C18 C 0.3504(13) 0.8235(10) 0.6933(5)
H18 H 0.2787 0.8619 0.6423
C19 C 0.2659(11) 0.7033(10) 0.7458(4)
H19 H 0.1348 0.6610 0.7304
H20? H 0.4597 0.4474 0.6678
H21? H 0.5576 0.2610 0.6854
loop_
_geom_bond_atom_site_label_1
_geom_bond_atom_site_label_2
_geom_bond_site_symmetry_1
_geom_bond_site_symmetry_2
S1 C2 1_555 1_555
O1 H1 1_555 1_555
C1 C2 1_555 1_555
O2 H2 1_555 1_555
C2 C3 1_555 1_555
C3 C5 1_555 1_555
C4 S1 1_555 1_555
C5 C4 1_555 1_555
C6 C4 1_555 1_555
H3 C6 1_555 1_555
C7 C6 1_555 1_555
H4 C7 1_555 1_555
C8 C5 1_555 1_555
H5 C8 1_555 1_555
C9 C7 1_555 1_555
H6 C9 1_555 1_555
C10 C1 1_555 1_555
H7 C10 1_555 1_555
H8 C10 1_555 1_555
H9 C10 1_555 1_555
C11 C1 1_555 1_555
H10 C11 1_555 1_555
H11 C11 1_555 1_555
C12 O1 1_555 1_555
C13 C12 1_555 1_555
H12 C13 1_555 1_555
H13 C13 1_555 1_555
H14 C13 1_555 1_555
C14 C12 1_555 1_555
C15 C14 1_555 1_555
H15 C15 1_555 1_555
C16 C15 1_555 1_555
H16 C16 1_555 1_555
C17 C16 1_555 1_555
H17 C17 1_555 1_555
C18 C17 1_555 1_555
H18 C18 1_555 1_555
C19 C14 1_555 1_555
H19 C19 1_555 1_555
C1 C12 1_555 1_555
O2 C11 1_555 1_555
C8 C9 1_555 1_555
C18 C19 1_555 1_555

#END
