
#######################################################################
#
#                 Cambridge Crystallographic Data Centre
#                                CCDC 
#
#######################################################################
#
# If this CIF has been generated from an entry in the Cambridge 
# Structural Database, then it will include bibliographic, chemical, 
# crystal, experimental, refinement or atomic coordinate data resulting 
# from the CCDC's data processing and validation procedures.
#
#######################################################################

data_REKBOZ03
_chemical_formula_moiety         'C6 H10 N2 2+,O4 S1 2-,1.5(H2 O1)'
_chemical_name_systematic        
'Phenylene-1,2-diammonium sulfate sesquihydrate'
_symmetry_cell_setting           monoclinic
_symmetry_space_group_name_H-M   'P 21/c'
_symmetry_Int_Tables_number      14
_space_group_name_Hall           '-P 2ybc'
loop_
_symmetry_equiv_pos_site_id
_symmetry_equiv_pos_as_xyz
1 x,y,z
2 -x,1/2+y,1/2-z
3 -x,-y,-z
4 x,1/2-y,1/2+z
_cell_length_a                   27.0843(12)
_cell_length_b                   9.6042(5)
_cell_length_c                   7.5562(4)
_cell_angle_alpha                90
_cell_angle_beta                 92.993(4)
_cell_angle_gamma                90
_cell_volume                     1962.86
_exptl_crystal_colour            colorless
_exptl_crystal_description       block
_cell_formula_units_Z            8
loop_
_atom_site_label
_atom_site_type_symbol
_atom_site_fract_x
_atom_site_fract_y
_atom_site_fract_z
S1 S 0.44949(4) 0.57824(13) 0.19258(16)
O1 O 0.40997(13) 0.6497(4) 0.2865(5)
O2 O 0.47183(14) 0.4709(4) 0.3115(5)
O3 O 0.48764(13) 0.6811(4) 0.1551(5)
O4 O 0.42933(15) 0.5138(4) 0.0303(5)
N1 N 0.42562(16) 0.5751(5) -0.3472(6)
H1 H 0.4141 0.6580 -0.3166
H2 H 0.4349 0.5785 -0.4584
H3 H 0.4515 0.5528 -0.2754
N2 N 0.44287(15) 0.2842(5) -0.4290(6)
H4 H 0.4523 0.3382 -0.5168
H5 H 0.4405 0.1965 -0.4665
H6 H 0.4651 0.2894 -0.3382
C1 C 0.39501(18) 0.3310(5) -0.3725(6)
C2 C 0.3569(2) 0.2361(6) -0.3646(8)
H7 H 0.3619 0.1432 -0.3932
C3 C 0.38679(18) 0.4701(5) -0.3327(7)
C4 C 0.3407(2) 0.5121(6) -0.2820(8)
H8 H 0.3354 0.6046 -0.2520
C5 C 0.3028(2) 0.4174(7) -0.2760(9)
H9 H 0.2716 0.4468 -0.2461
C6 C 0.3106(2) 0.2806(7) -0.3135(10)
H10 H 0.2851 0.2166 -0.3051
S2 S 0.04960(4) 1.57641(13) -0.29355(16)
O5 O 0.09085(13) 1.6455(4) -0.1876(5)
O6 O 0.02704(13) 1.4722(4) -0.1785(5)
O7 O 0.01264(13) 1.6840(4) -0.3441(5)
O8 O 0.06846(15) 1.5098(4) -0.4474(5)
N3 N 0.07657(16) 0.9216(4) -0.3281(6)
H11 H 0.0891 0.8388 -0.2977
H12 H 0.0688 0.9228 -0.4440
H13 H 0.0495 0.9371 -0.2689
N4 N 0.05660(15) 1.2149(4) -0.4013(6)
H14 H 0.0333 1.2092 -0.3228
H15 H 0.0483 1.1614 -0.4944
H16 H 0.0594 1.3029 -0.4366
C7 C 0.11321(18) 1.0304(5) -0.2848(6)
C8 C 0.1389(2) 1.2682(6) -0.2718(8)
H17 H 0.1326 1.3619 -0.2942
C9 C 0.1935(2) 1.0874(7) -0.1620(9)
H18 H 0.2239 1.0603 -0.1108
C10 C 0.10387(18) 1.1677(5) -0.3193(6)
C11 C 0.1585(2) 0.9884(6) -0.2093(7)
H19 H 0.1651 0.8944 -0.1908
C12 C 0.1835(2) 1.2268(6) -0.1905(8)
H20 H 0.2069 1.2933 -0.1548
O9 O 0.24959(19) 0.7564(6) 0.0084(7)
H21 H 0.2337 0.8183 0.0628
H22 H 0.2677 0.7959 -0.0656
O10 O 0.30550(17) 0.6011(6) 0.2581(7)
H23 H 0.3384 0.6068 0.2730
H24 H 0.2934 0.6550 0.1768
O11 O 0.19339(17) 0.8971(5) 0.2610(7)
H25 H 0.1602 0.8907 0.2768
H26 H 0.2074 0.8754 0.3609
loop_
_geom_bond_atom_site_label_1
_geom_bond_atom_site_label_2
_geom_bond_site_symmetry_1
_geom_bond_site_symmetry_2
S1 O1 1_555 1_555
O2 S1 1_555 1_555
O3 S1 1_555 1_555
O4 S1 1_555 1_555
N1 H1 1_555 1_555
H2 N1 1_555 1_555
H3 N1 1_555 1_555
N2 H4 1_555 1_555
H5 N2 1_555 1_555
H6 N2 1_555 1_555
C1 N2 1_555 1_555
C2 C1 1_555 1_555
H7 C2 1_555 1_555
C3 N1 1_555 1_555
C4 C3 1_555 1_555
H8 C4 1_555 1_555
C5 C4 1_555 1_555
H9 C5 1_555 1_555
C6 C2 1_555 1_555
H10 C6 1_555 1_555
S2 O5 1_555 1_555
O6 S2 1_555 1_555
O7 S2 1_555 1_555
O8 S2 1_555 1_555
N3 H11 1_555 1_555
H12 N3 1_555 1_555
H13 N3 1_555 1_555
N4 H14 1_555 1_555
H15 N4 1_555 1_555
H16 N4 1_555 1_555
C7 N3 1_555 1_555
C8 H17 1_555 1_555
C9 H18 1_555 1_555
C10 N4 1_555 1_555
C11 C7 1_555 1_555
H19 C11 1_555 1_555
C12 C8 1_555 1_555
H20 C12 1_555 1_555
O9 H21 1_555 1_555
H22 O9 1_555 1_555
O10 H23 1_555 1_555
H24 O10 1_555 1_555
O11 H25 1_555 1_555
H26 O11 1_555 1_555
C1 C3 1_555 1_555
C5 C6 1_555 1_555
C7 C10 1_555 1_555
C8 C10 1_555 1_555
C9 C11 1_555 1_555
C9 C12 1_555 1_555

#END
