
#######################################################################
#
#                 Cambridge Crystallographic Data Centre
#                                CCDC 
#
#######################################################################
#
# If this CIF has been generated from an entry in the Cambridge 
# Structural Database, then it will include bibliographic, chemical, 
# crystal, experimental, refinement or atomic coordinate data resulting 
# from the CCDC's data processing and validation procedures.
#
#######################################################################

data_REKDIV01
_chemical_formula_moiety         'C24 H16 N2'
_chemical_name_systematic        2,3-diphenylbenzo[g]quinoxaline
_symmetry_cell_setting           monoclinic
_symmetry_space_group_name_H-M   'C 2/c'
_symmetry_Int_Tables_number      15
_space_group_name_Hall           '-C 2yn'
loop_
_symmetry_equiv_pos_site_id
_symmetry_equiv_pos_as_xyz
1 x,y,z
2 -x,y,1/2-z
3 1/2+x,1/2+y,z
4 1/2-x,1/2+y,1/2-z
5 -x,-y,-z
6 x,-y,1/2+z
7 1/2-x,1/2-y,-z
8 1/2+x,1/2-y,1/2+z
_cell_length_a                   25.127(2)
_cell_length_b                   7.7380(7)
_cell_length_c                   21.2747(19)
_cell_angle_alpha                90
_cell_angle_beta                 123.833(2)
_cell_angle_gamma                90
_cell_volume                     3436.04
_exptl_crystal_colour            yellow
_cell_formula_units_Z            8
loop_
_atom_site_label
_atom_site_type_symbol
_atom_site_fract_x
_atom_site_fract_y
_atom_site_fract_z
C1 C 0.37243(6) 0.17941(17) 0.78569(7)
C2 C 0.42259(6) 0.26604(18) 0.90977(7)
C3 C 0.47210(6) 0.24928(18) 0.98569(8)
H1 H 0.5054 0.1681 1.0000
C4 C 0.47359(6) 0.35060(18) 1.04130(7)
C5 C 0.52390(7) 0.3375(2) 1.11956(8)
H2 H 0.5573 0.2558 1.1354
C6 C 0.52454(8) 0.4412(2) 1.17180(8)
H3 H 0.5586 0.4320 1.2236
C7 C 0.47477(7) 0.5629(2) 1.14958(8)
H4 H 0.4759 0.6342 1.1866
C8 C 0.42572(7) 0.5782(2) 1.07600(8)
H5 H 0.3927 0.6598 1.0621
C9 C 0.42298(7) 0.47317(18) 1.01904(8)
C10 C 0.37370(6) 0.48979(19) 0.94296(7)
H6 H 0.3401 0.5702 0.9283
C11 C 0.37304(6) 0.38983(18) 0.88804(7)
C12 C 0.32610(6) 0.31919(17) 0.76289(7)
C13 C 0.36607(6) 0.05006(17) 0.73025(7)
C14 C 0.30741(6) -0.03112(18) 0.68073(7)
H7 H 0.2709 0.0008 0.6807
C15 C 0.30217(7) -0.15809(18) 0.63158(8)
H8 H 0.2624 -0.2148 0.5988
C16 C 0.35499(7) -0.20256(19) 0.63014(8)
H9 H 0.3512 -0.2884 0.5960
C17 C 0.41327(7) -0.12140(19) 0.67867(8)
H10 H 0.4493 -0.1508 0.6773
C18 C 0.41905(6) 0.00248(18) 0.72912(8)
H11 H 0.4594 0.0554 0.7632
C19 C 0.27784(6) 0.36156(17) 0.68209(7)
C20 C 0.21499(7) 0.39884(19) 0.65846(8)
H12 H 0.2030 0.3935 0.6936
C21 C 0.17000(8) 0.4437(2) 0.58388(8)
H13 H 0.1271 0.4674 0.5680
C22 C 0.18712(8) 0.4540(2) 0.53239(8)
H14 H 0.1561 0.4854 0.4814
C23 C 0.24945(8) 0.41856(19) 0.55518(8)
H15 H 0.2613 0.4265 0.5199
C24 C 0.29461(7) 0.37147(18) 0.62953(8)
H16 H 0.3372 0.3458 0.6449
N1 N 0.42002(5) 0.15781(15) 0.85659(6)
N2 N 0.32578(5) 0.41641(15) 0.81296(6)
loop_
_geom_bond_atom_site_label_1
_geom_bond_atom_site_label_2
_geom_bond_site_symmetry_1
_geom_bond_site_symmetry_2
C1 C12 1_555 1_555
C2 C3 1_555 1_555
C3 H1 1_555 1_555
C4 C3 1_555 1_555
C5 C4 1_555 1_555
H2 C5 1_555 1_555
C6 C5 1_555 1_555
H3 C6 1_555 1_555
C7 C6 1_555 1_555
H4 C7 1_555 1_555
C8 C7 1_555 1_555
H5 C8 1_555 1_555
C9 C4 1_555 1_555
C10 C9 1_555 1_555
H6 C10 1_555 1_555
C11 C2 1_555 1_555
C12 C19 1_555 1_555
C13 C1 1_555 1_555
C14 C13 1_555 1_555
H7 C14 1_555 1_555
C15 C14 1_555 1_555
H8 C15 1_555 1_555
C16 C15 1_555 1_555
H9 C16 1_555 1_555
C17 C16 1_555 1_555
H10 C17 1_555 1_555
C18 C13 1_555 1_555
H11 C18 1_555 1_555
C19 C20 1_555 1_555
C20 H12 1_555 1_555
C21 C20 1_555 1_555
H13 C21 1_555 1_555
C22 C21 1_555 1_555
H14 C22 1_555 1_555
C23 C22 1_555 1_555
H15 C23 1_555 1_555
C24 C19 1_555 1_555
H16 C24 1_555 1_555
N1 C1 1_555 1_555
N2 C11 1_555 1_555
C2 N1 1_555 1_555
C8 C9 1_555 1_555
C10 C11 1_555 1_555
C12 N2 1_555 1_555
C17 C18 1_555 1_555
C23 C24 1_555 1_555

#END
