
#######################################################################
#
#                 Cambridge Crystallographic Data Centre
#                                CCDC 
#
#######################################################################
#
# If this CIF has been generated from an entry in the Cambridge 
# Structural Database, then it will include bibliographic, chemical, 
# crystal, experimental, refinement or atomic coordinate data resulting 
# from the CCDC's data processing and validation procedures.
#
#######################################################################

data_REKGIA
_chemical_formula_moiety         'C20 H26 Si1'
_chemical_name_systematic        3,6-dimethyl-1,1-diphenylsilepane
_symmetry_cell_setting           triclinic
_symmetry_space_group_name_H-M   'P -1'
_symmetry_Int_Tables_number      2
_space_group_name_Hall           '-P 1'
loop_
_symmetry_equiv_pos_site_id
_symmetry_equiv_pos_as_xyz
1 x,y,z
2 -x,-y,-z
_cell_length_a                   10.7275(7)
_cell_length_b                   11.0879(8)
_cell_length_c                   17.4227(11)
_cell_angle_alpha                76.365(5)
_cell_angle_beta                 89.880(5)
_cell_angle_gamma                61.872(5)
_cell_volume                     1761.66
_exptl_crystal_colour            white
_exptl_crystal_description       Block
_cell_formula_units_Z            4
loop_
_atom_site_label
_atom_site_type_symbol
_atom_site_fract_x
_atom_site_fract_y
_atom_site_fract_z
Si1 Si 0.10399(13) 0.25526(14) 0.33281(7)
C1 C 0.0816(5) 0.2621(5) 0.2250(2)
H1 H 0.0783 0.3504 0.1930
H2 H 0.1674 0.1815 0.2146
C2 C -0.0500(5) 0.2573(5) 0.1951(3)
H3 H -0.0620 0.1844 0.2357
C3 C -0.0262(6) 0.2126(6) 0.1173(3)
H4 H -0.1082 0.2051 0.0994
H5 H 0.0602 0.1204 0.1262
H6 H -0.0153 0.2836 0.0766
C4 C -0.1859(5) 0.3992(6) 0.1820(3)
H7 H -0.1622 0.4744 0.1568
H8 H -0.2540 0.4016 0.1427
C5 C -0.2645(5) 0.4408(6) 0.2522(3)
H9 H -0.3566 0.5277 0.2307
H10 H -0.2864 0.3647 0.2784
C6 C -0.1930(5) 0.4679(5) 0.3161(3)
H11 H -0.1510 0.5278 0.2890
C7 C -0.3044(5) 0.5516(6) 0.3649(3)
H12 H -0.3804 0.6387 0.3293
H13 H -0.2593 0.5760 0.4032
H14 H -0.3448 0.4937 0.3936
C8 C -0.0723(4) 0.3317(5) 0.3714(3)
H15 H -0.1032 0.2587 0.3832
H16 H -0.0589 0.3516 0.4223
C9 C 0.2143(5) 0.0660(5) 0.3912(2)
C10 C 0.1564(5) -0.0254(6) 0.4073(3)
H17 H 0.0585 0.0115 0.3897
C11 C 0.2345(6) -0.1658(6) 0.4473(3)
H18 H 0.1907 -0.2241 0.4566
C12 C 0.3760(6) -0.2224(6) 0.4741(3)
H19 H 0.4306 -0.3199 0.5018
C13 C 0.4382(5) -0.1365(6) 0.4605(3)
H20 H 0.5361 -0.1748 0.4789
C14 C 0.3589(5) 0.0048(5) 0.4202(3)
H21 H 0.4034 0.0625 0.4119
C15 C 0.1980(5) 0.3570(5) 0.3440(3)
C16 C 0.2921(5) 0.3698(5) 0.2916(3)
H22 H 0.3087 0.3258 0.2492
C17 C 0.3613(5) 0.4440(6) 0.2994(3)
H23 H 0.4258 0.4496 0.2631
C18 C 0.3381(6) 0.5104(6) 0.3593(3)
H24 H 0.3852 0.5629 0.3643
C19 C 0.2464(6) 0.5002(6) 0.4121(3)
H25 H 0.2292 0.5460 0.4537
C20 C 0.1794(5) 0.4232(5) 0.4045(3)
H26 H 0.1179 0.4152 0.4423
Si2 Si 0.59659(14) 0.99413(15) 0.17364(7)
C21 C 0.7579(5) 0.9270(5) 0.1213(3)
H27 H 0.7289 0.9249 0.0679
H28 H 0.7946 0.9953 0.1134
C22 C 0.8762(6) 0.7834(6) 0.1627(3)
H29 H 0.8332 0.7250 0.1905
C23 C 0.9674(6) 0.7093(7) 0.1032(4)
H30 H 0.9107 0.6889 0.0694
H31 H 1.0504 0.6203 0.1322
H32 H 0.9996 0.7711 0.0699
C24 C 0.9724(6) 0.7893(7) 0.2254(3)
H33 H 1.0547 0.6929 0.2455
H34 H 1.0102 0.8518 0.1980
C25 C 0.9099(8) 0.8389(11) 0.2951(5)
H35 H 0.9452 0.7487 0.3373
H36 H 0.9664 0.8822 0.3084
C26 C 0.7932(8) 0.9129(13) 0.3136(4)
C27 C 0.8023(8) 0.9193(14) 0.4018(4)
H37 H 0.7975 0.8385 0.4367
H38 H 0.7225 1.0079 0.4075
H39 H 0.8924 0.9154 0.4166
C28 C 0.6461(5) 0.9718(6) 0.2813(3)
H40 H 0.5927 1.0665 0.2913
H41 H 0.6094 0.9116 0.3131
C29 C 0.4823(5) 1.1882(5) 0.1254(2)
C30 C 0.3482(5) 1.2463(5) 0.0825(2)
H42 H 0.3110 1.1855 0.0777
C31 C 0.2681(5) 1.3902(5) 0.0468(3)
H43 H 0.1760 1.4273 0.0193
C32 C 0.3217(5) 1.4802(5) 0.0511(3)
H44 H 0.2674 1.5787 0.0255
C33 C 0.4547(5) 1.4266(6) 0.0926(3)
H45 H 0.4921 1.4878 0.0962
C34 C 0.5318(5) 1.2837(5) 0.1285(3)
H46 H 0.6231 1.2479 0.1568
C35 C 0.4918(5) 0.9022(4) 0.1637(2)
C36 C 0.4938(6) 0.8503(5) 0.0977(3)
H47 H 0.5523 0.8592 0.0581
C37 C 0.4131(6) 0.7867(5) 0.0884(3)
H48 H 0.4172 0.7518 0.0431
C38 C 0.3267(5) 0.7735(5) 0.1446(3)
H49 H 0.2714 0.7294 0.1383
C39 C 0.3210(5) 0.8247(5) 0.2102(3)
H50 H 0.2609 0.8168 0.2489
C40 C 0.4026(5) 0.8874(5) 0.2196(3)
H51 H 0.3980 0.9216 0.2653
loop_
_geom_bond_atom_site_label_1
_geom_bond_atom_site_label_2
_geom_bond_site_symmetry_1
_geom_bond_site_symmetry_2
Si1 C1 1_555 1_555
C1 H1 1_555 1_555
H2 C1 1_555 1_555
C2 C1 1_555 1_555
H3 C2 1_555 1_555
C3 C2 1_555 1_555
H4 C3 1_555 1_555
H5 C3 1_555 1_555
H6 C3 1_555 1_555
C4 C2 1_555 1_555
H7 C4 1_555 1_555
H8 C4 1_555 1_555
C5 C4 1_555 1_555
H9 C5 1_555 1_555
H10 C5 1_555 1_555
C6 C5 1_555 1_555
H11 C6 1_555 1_555
C7 C6 1_555 1_555
H12 C7 1_555 1_555
H13 C7 1_555 1_555
H14 C7 1_555 1_555
C8 Si1 1_555 1_555
H15 C8 1_555 1_555
H16 C8 1_555 1_555
C9 Si1 1_555 1_555
C10 C9 1_555 1_555
H17 C10 1_555 1_555
C11 C10 1_555 1_555
H18 C11 1_555 1_555
C12 C11 1_555 1_555
H19 C12 1_555 1_555
C13 C12 1_555 1_555
H20 C13 1_555 1_555
C14 C9 1_555 1_555
H21 C14 1_555 1_555
C15 Si1 1_555 1_555
C16 C15 1_555 1_555
H22 C16 1_555 1_555
C17 C16 1_555 1_555
H23 C17 1_555 1_555
C18 C17 1_555 1_555
H24 C18 1_555 1_555
C19 C18 1_555 1_555
H25 C19 1_555 1_555
C20 C15 1_555 1_555
H26 C20 1_555 1_555
Si2 C21 1_555 1_555
C21 H27 1_555 1_555
H28 C21 1_555 1_555
C22 C21 1_555 1_555
H29 C22 1_555 1_555
C23 C22 1_555 1_555
H30 C23 1_555 1_555
H31 C23 1_555 1_555
H32 C23 1_555 1_555
C24 C22 1_555 1_555
H33 C24 1_555 1_555
H34 C24 1_555 1_555
C25 C24 1_555 1_555
H35 C25 1_555 1_555
H36 C25 1_555 1_555
C26 C25 1_555 1_555
C27 C26 1_555 1_555
H37 C27 1_555 1_555
H38 C27 1_555 1_555
H39 C27 1_555 1_555
C28 Si2 1_555 1_555
H40 C28 1_555 1_555
H41 C28 1_555 1_555
C29 Si2 1_555 1_555
C30 C29 1_555 1_555
H42 C30 1_555 1_555
C31 C30 1_555 1_555
H43 C31 1_555 1_555
C32 C31 1_555 1_555
H44 C32 1_555 1_555
C33 C32 1_555 1_555
H45 C33 1_555 1_555
C34 C29 1_555 1_555
H46 C34 1_555 1_555
C35 Si2 1_555 1_555
C36 C35 1_555 1_555
H47 C36 1_555 1_555
C37 C36 1_555 1_555
H48 C37 1_555 1_555
C38 C37 1_555 1_555
H49 C38 1_555 1_555
C39 C38 1_555 1_555
H50 C39 1_555 1_555
C40 C35 1_555 1_555
H51 C40 1_555 1_555
C6 C8 1_555 1_555
C13 C14 1_555 1_555
C19 C20 1_555 1_555
C26 C28 1_555 1_555
C33 C34 1_555 1_555
C39 C40 1_555 1_555

#END
