
#######################################################################
#
#                 Cambridge Crystallographic Data Centre
#                                CCDC 
#
#######################################################################
#
# If this CIF has been generated from an entry in the Cambridge 
# Structural Database, then it will include bibliographic, chemical, 
# crystal, experimental, refinement or atomic coordinate data resulting 
# from the CCDC's data processing and validation procedures.
#
#######################################################################

data_RELLUR
_chemical_formula_moiety         'C36 H16 F10 N6 O12,C1 H1 Cl3'
_chemical_name_systematic        
'Dimethyl 5,17-dimethoxy-25,27-bis(pentafluorophenoxy)-2,8,14,20-tetraoxa-4,6,16,18,26,28-hexa-azapentacyclo[19.3.1.1^3,7^.1^9,13^.1^15,19^]octacosa-1(25),3(28),4,6,9(27),10,12,15(26),16,18,21,23-dodecaene-11,23-dicarboxylate chloroform solvate'
_symmetry_cell_setting           monoclinic
_symmetry_space_group_name_H-M   'C 2/c'
_symmetry_Int_Tables_number      15
_space_group_name_Hall           '-C 2yn'
loop_
_symmetry_equiv_pos_site_id
_symmetry_equiv_pos_as_xyz
1 x,y,z
2 -x,y,1/2-z
3 1/2+x,1/2+y,z
4 1/2-x,1/2+y,1/2-z
5 -x,-y,-z
6 x,-y,1/2+z
7 1/2-x,1/2-y,-z
8 1/2+x,1/2-y,1/2+z
_cell_length_a                   32.062(9)
_cell_length_b                   12.597(3)
_cell_length_c                   26.339(8)
_cell_angle_alpha                90
_cell_angle_beta                 125.740(3)
_cell_angle_gamma                90
_cell_volume                     8634.55
_exptl_crystal_colour            colorless
_exptl_crystal_description       platelet
_cell_formula_units_Z            8
loop_
_atom_site_label
_atom_site_type_symbol
_atom_site_fract_x
_atom_site_fract_y
_atom_site_fract_z
Cl1 Cl 0.13688(7) 0.29964(15) 0.46317(9)
Cl2 Cl 0.11216(7) 0.47455(16) 0.50987(9)
Cl3 Cl 0.03331(7) 0.32582(19) 0.42791(9)
C37 C 0.0999(2) 0.3412(5) 0.4878(3)
H17 H 0.1091 0.2977 0.5247
F1 F 0.09470(15) 0.7381(3) 0.34712(18)
F2 F 0.02551(17) 0.8268(4) 0.3639(2)
F3 F 0.00495(15) 1.0366(4) 0.3444(2)
F4 F 0.05278(13) 1.1588(3) 0.30942(18)
F5 F 0.12004(11) 1.0703(2) 0.29147(15)
F6 F 0.20276(14) 1.1849(2) 0.18287(17)
F7 F 0.12808(18) 1.2638(3) 0.0696(2)
F8 F 0.03119(17) 1.1847(4) 0.0074(2)
F9 F 0.00895(13) 1.0279(4) 0.05944(17)
F10 F 0.08403(10) 0.9489(2) 0.17236(14)
O1 O 0.15022(13) 0.6607(2) 0.27490(15)
O2 O 0.21440(13) 0.9318(2) 0.43133(15)
O3 O 0.27006(12) 1.1237(2) 0.33312(15)
O4 O 0.18537(11) 0.8748(2) 0.16293(13)
O5 O 0.04639(11) 0.6704(3) 0.06490(15)
O6 O 0.35262(14) 0.6510(3) 0.52609(17)
O7 O 0.32399(15) 0.5344(3) 0.44797(17)
O8 O 0.14147(14) 0.8599(3) 0.30693(16)
O9 O 0.20795(14) 1.2850(3) 0.42899(18)
O10 O 0.18081(11) 1.0285(2) 0.23881(14)
O11 O 0.41175(13) 0.8913(3) 0.35763(19)
O12 O 0.37126(13) 0.8339(3) 0.2594(2)
N1 N 0.09588(13) 0.6668(3) 0.17153(17)
N2 N 0.17253(13) 0.7704(3) 0.22472(17)
N3 N 0.11642(13) 0.7718(3) 0.11356(17)
N4 N 0.21147(16) 1.1089(3) 0.43083(19)
N5 N 0.24021(14) 1.2076(3) 0.37955(18)
N6 N 0.24313(14) 1.0192(3) 0.38023(17)
C1 C 0.08651(15) 0.7029(3) 0.1184(2)
C2 C 0.13914(17) 0.7025(3) 0.2213(2)
C3 C 0.15689(15) 0.8012(3) 0.1679(2)
C4 C 0.19051(19) 0.7032(4) 0.3322(2)
C5 C 0.23382(19) 0.6434(4) 0.3706(2)
H1 H 0.2379 0.5770 0.3570
C6 C 0.27158(19) 0.6815(4) 0.4297(2)
C7 C 0.26505(19) 0.7800(4) 0.4491(2)
H2 H 0.2909 0.8063 0.4897
C8 C 0.2215(2) 0.8380(4) 0.4097(2)
C9 C 0.18378(19) 0.8005(4) 0.3506(2)
C10 C 0.22396(17) 1.0241(4) 0.4133(2)
C11 C 0.22082(19) 1.1985(4) 0.4130(2)
C12 C 0.25022(15) 1.1141(3) 0.36613(19)
C13 C 0.27227(17) 1.0337(3) 0.3035(2)
C14 C 0.22686(16) 0.9922(3) 0.2519(2)
C15 C 0.22965(16) 0.9138(3) 0.21718(19)
C16 C 0.27681(16) 0.8781(3) 0.2331(2)
H3 H 0.2783 0.8257 0.2083
C17 C 0.32170(16) 0.9189(3) 0.2854(2)
C18 C 0.31937(17) 0.9957(3) 0.3220(2)
H4 H 0.3500 1.0212 0.3592
C19 C 0.01030(19) 0.6012(4) 0.0637(3)
H5 H -0.0151 0.5766 0.0208
H6 H -0.0072 0.6398 0.0785
H7 H 0.0285 0.5401 0.0910
C20 C 0.3204(2) 0.6225(4) 0.4739(2)
C21 C 0.3699(3) 0.4709(5) 0.4887(3)
H8 H 0.3727 0.4176 0.4638
H9 H 0.3676 0.4353 0.5201
H10 H 0.4002 0.5170 0.5097
C22 C 0.1084(2) 0.9016(5) 0.3194(2)
C23 C 0.0843(2) 0.8398(5) 0.3374(3)
C24 C 0.0484(2) 0.8880(7) 0.3466(3)
C25 C 0.0387(2) 0.9939(7) 0.3358(3)
C26 C 0.0623(2) 1.0555(5) 0.3181(2)
C27 C 0.09748(18) 1.0100(4) 0.3095(2)
C28 C 0.2164(3) 1.3860(4) 0.4104(3)
H11 H 0.2089 1.4435 0.4291
H12 H 0.1937 1.3922 0.3648
H13 H 0.2523 1.3909 0.4249
C29 C 0.14460(18) 1.0653(4) 0.1797(2)
C30 C 0.1551(2) 1.1453(4) 0.1524(3)
C31 C 0.1171(3) 1.1853(5) 0.0945(3)
C32 C 0.0684(3) 1.1482(6) 0.0638(3)
C33 C 0.0570(2) 1.0676(6) 0.0898(3)
C34 C 0.0951(2) 1.0269(4) 0.1475(3)
C35 C 0.37321(18) 0.8817(4) 0.3058(3)
C36 C 0.4206(2) 0.7957(6) 0.2757(4)
H14 H 0.4153 0.7556 0.2405
H15 H 0.4364 0.7495 0.3125
H16 H 0.4432 0.8563 0.2852
loop_
_geom_bond_atom_site_label_1
_geom_bond_atom_site_label_2
_geom_bond_site_symmetry_1
_geom_bond_site_symmetry_2
Cl1 C37 1_555 1_555
Cl2 C37 1_555 1_555
Cl3 C37 1_555 1_555
F1 C23 1_555 1_555
F2 C24 1_555 1_555
F3 C25 1_555 1_555
F4 C26 1_555 1_555
F5 C27 1_555 1_555
F6 C30 1_555 1_555
F7 C31 1_555 1_555
F8 C32 1_555 1_555
F9 C33 1_555 1_555
F10 C34 1_555 1_555
O1 C2 1_555 1_555
O2 C8 1_555 1_555
O3 C12 1_555 1_555
O4 C3 1_555 1_555
O5 C1 1_555 1_555
O6 C20 1_555 1_555
O7 C20 1_555 1_555
O8 C9 1_555 1_555
O9 C11 1_555 1_555
O10 C14 1_555 1_555
O11 C35 1_555 1_555
O12 C35 1_555 1_555
N1 C1 1_555 1_555
N2 C2 1_555 1_555
N3 C1 1_555 1_555
N4 C10 1_555 1_555
N5 C11 1_555 1_555
N6 C10 1_555 1_555
C2 N1 1_555 1_555
C3 N2 1_555 1_555
C4 O1 1_555 1_555
C5 C4 1_555 1_555
H1 C5 1_555 1_555
C6 C5 1_555 1_555
C7 C6 1_555 1_555
H2 C7 1_555 1_555
C8 C7 1_555 1_555
C9 C4 1_555 1_555
C10 O2 1_555 1_555
C11 N4 1_555 1_555
C12 N5 1_555 1_555
C13 O3 1_555 1_555
C14 C13 1_555 1_555
C15 O4 1_555 1_555
C16 C15 1_555 1_555
H3 C16 1_555 1_555
C17 C16 1_555 1_555
C18 C13 1_555 1_555
H4 C18 1_555 1_555
C19 O5 1_555 1_555
H5 C19 1_555 1_555
H6 C19 1_555 1_555
H7 C19 1_555 1_555
C20 C6 1_555 1_555
C21 O7 1_555 1_555
H8 C21 1_555 1_555
H9 C21 1_555 1_555
H10 C21 1_555 1_555
C22 O8 1_555 1_555
C23 C22 1_555 1_555
C24 C23 1_555 1_555
C25 C24 1_555 1_555
C26 C25 1_555 1_555
C27 C22 1_555 1_555
C28 O9 1_555 1_555
H11 C28 1_555 1_555
H12 C28 1_555 1_555
H13 C28 1_555 1_555
C29 O10 1_555 1_555
C30 C29 1_555 1_555
C31 C30 1_555 1_555
C32 C31 1_555 1_555
C33 C32 1_555 1_555
C34 C29 1_555 1_555
C35 C17 1_555 1_555
C36 O12 1_555 1_555
H14 C36 1_555 1_555
H15 C36 1_555 1_555
H16 C36 1_555 1_555
C37 H17 1_555 1_555
N3 C3 1_555 1_555
N6 C12 1_555 1_555
C8 C9 1_555 1_555
C14 C15 1_555 1_555
C17 C18 1_555 1_555
C26 C27 1_555 1_555
C33 C34 1_555 1_555

#END
