
#######################################################################
#
#                 Cambridge Crystallographic Data Centre
#                                CCDC 
#
#######################################################################
#
# If this CIF has been generated from an entry in the Cambridge 
# Structural Database, then it will include bibliographic, chemical, 
# crystal, experimental, refinement or atomic coordinate data resulting 
# from the CCDC's data processing and validation procedures.
#
#######################################################################

data_RELNUR
_chemical_formula_moiety         'C32 H38 Cl2 N4 O6'
_chemical_name_systematic        
7,16-bis((5-Chloro-8-hydroxy-7-quinolinyl)methyl)-1,4,10,13-tetra-oxa-7,16-diazacyclo-octadecane
_symmetry_cell_setting           triclinic
_symmetry_space_group_name_H-M   'P -1'
_symmetry_Int_Tables_number      2
_space_group_name_Hall           '-P 1'
loop_
_symmetry_equiv_pos_site_id
_symmetry_equiv_pos_as_xyz
1 x,y,z
2 -x,-y,-z
_cell_length_a                   6.241(7)
_cell_length_b                   8.675(11)
_cell_length_c                   14.46(2)
_cell_angle_alpha                87.30(11)
_cell_angle_beta                 88.15(10)
_cell_angle_gamma                89.95(10)
_cell_volume                     781.597
_exptl_crystal_colour            colorless
_chemical_melting_point          140-141deg.C
_cell_formula_units_Z            1
loop_
_atom_site_label
_atom_site_type_symbol
_atom_site_fract_x
_atom_site_fract_y
_atom_site_fract_z
C1 C 0.2547(16) 0.5380(11) 0.6035(5)
C2 C 0.1258(16) 0.6496(11) 0.5653(6)
Cl1 Cl 0.2052(5) 0.7337(4) 0.4562(2)
C3 C -0.0647(15) 0.6954(10) 0.6083(6)
C4 C -0.2029(17) 0.8105(11) 0.5727(6)
C5 C -0.3822(18) 0.8484(11) 0.6224(8)
C6 C -0.4280(16) 0.7710(11) 0.7080(7)
N1 N -0.3050(12) 0.6635(9) 0.7447(5)
C7 C -0.1213(14) 0.6242(10) 0.6969(6)
C8 C 0.0140(15) 0.5094(10) 0.7357(6)
O1 O -0.0446(11) 0.4474(7) 0.8213(4)
C9 C 0.1999(14) 0.4691(10) 0.6916(6)
C10 C 0.3636(15) 0.3599(11) 0.7346(7)
N2 N 0.2661(12) 0.2431(8) 0.8021(5)
C11 C 0.4368(16) 0.1768(11) 0.8594(7)
C12 C 0.5073(16) 0.2835(11) 0.9317(7)
O2 O 0.6742(11) 0.2067(7) 0.9790(4)
C13 C 0.7869(17) 0.3004(11) 1.0382(7)
C14 C 0.9540(17) 0.2045(11) 1.0837(6)
O3 O 0.8480(10) 0.1032(7) 1.1519(4)
C15 C 0.9821(15) -0.0148(10) 1.1890(6)
C16 C 0.1526(17) 0.1261(11) 0.7515(7)
H1 H 0.3816 0.5058 0.5705
H2 H -0.1678 0.8638 0.5145
H3 H -0.4789 0.9245 0.5974
H4 H -0.5539 0.8005 0.7428
H5 H 0.0166 0.3600 0.8378
H6 H 0.4684 0.4186 0.7651
H7 H 0.4359 0.3073 0.6857
H8 H 0.5585 0.1533 0.8203
H9 H 0.3870 0.0822 0.8899
H10 H 0.3894 0.3049 0.9734
H11 H 0.5584 0.3789 0.9027
H12 H 0.6900 0.3398 1.0843
H13 H 0.8503 0.3861 1.0029
H14 H 1.0539 0.2690 1.1130
H15 H 1.0308 0.1460 1.0387
H16 H 1.0506 -0.0679 1.1394
H17 H 1.0892 0.0297 1.2258
H18 H 0.2572 0.0683 0.7175
H19 H 0.0625 0.1778 0.7074
C16A C 0.8474(17) -0.1261(11) 1.2485(7)
N2A N 0.7339(12) -0.2431(8) 1.1979(5)
C10A C 0.6364(15) -0.3599(11) 1.2654(7)
C9A C 0.8001(14) -0.4691(10) 1.3084(6)
C1A C 0.7453(16) -0.5380(11) 1.3965(5)
C2A C 0.8742(16) -0.6496(11) 1.4347(6)
Cl1A Cl 0.7948(5) -0.7337(4) 1.5438(2)
C3A C 1.0647(15) -0.6954(10) 1.3917(6)
C4A C 1.2029(17) -0.8105(11) 1.4273(6)
C5A C 1.3822(18) -0.8484(11) 1.3776(8)
C6A C 1.4280(16) -0.7710(11) 1.2920(7)
N1A N 1.3050(12) -0.6635(9) 1.2553(5)
C7A C 1.1213(14) -0.6242(10) 1.3031(6)
C8A C 0.9860(15) -0.5094(10) 1.2643(6)
O1A O 1.0446(11) -0.4474(7) 1.1787(4)
H5A H 0.9834 -0.3600 1.1622
H4A H 1.5539 -0.8005 1.2572
H3A H 1.4789 -0.9245 1.4026
H2A H 1.1678 -0.8638 1.4855
H1A H 0.6184 -0.5058 1.4295
H6A H 0.5316 -0.4186 1.2349
H7A H 0.5641 -0.3073 1.3143
C11A C 0.5632(16) -0.1768(11) 1.1406(7)
C12A C 0.4927(16) -0.2835(11) 1.0683(7)
O2A O 0.3258(11) -0.2067(7) 1.0210(4)
C13A C 0.2131(17) -0.3004(11) 0.9618(7)
C14A C 0.0460(17) -0.2045(11) 0.9163(6)
O3A O 0.1520(10) -0.1032(7) 0.8481(4)
C15A C 0.0179(15) 0.0148(10) 0.8110(6)
H16A H -0.0506 0.0679 0.8606
H17A H -0.0892 -0.0297 0.7742
H14A H -0.0539 -0.2690 0.8870
H15A H -0.0308 -0.1460 0.9613
H12A H 0.3100 -0.3398 0.9157
H13A H 0.1497 -0.3861 0.9971
H10A H 0.6106 -0.3049 1.0266
H11A H 0.4416 -0.3789 1.0973
H8A H 0.4415 -0.1533 1.1797
H9A H 0.6130 -0.0822 1.1101
H18A H 0.7428 -0.0683 1.2825
H19A H 0.9375 -0.1778 1.2926
loop_
_geom_bond_atom_site_label_1
_geom_bond_atom_site_label_2
_geom_bond_site_symmetry_1
_geom_bond_site_symmetry_2
C1 C2 1_555 1_555
C2 Cl1 1_555 1_555
C3 C2 1_555 1_555
C4 C3 1_555 1_555
C5 C4 1_555 1_555
C6 C5 1_555 1_555
N1 C6 1_555 1_555
C7 C3 1_555 1_555
C8 C7 1_555 1_555
O1 C8 1_555 1_555
C9 C1 1_555 1_555
C10 C9 1_555 1_555
N2 C10 1_555 1_555
C11 N2 1_555 1_555
C12 C11 1_555 1_555
O2 C12 1_555 1_555
C13 O2 1_555 1_555
C14 C13 1_555 1_555
O3 C14 1_555 1_555
C15 O3 1_555 1_555
C16 N2 1_555 1_555
H1 C1 1_555 1_555
H2 C4 1_555 1_555
H3 C5 1_555 1_555
H4 C6 1_555 1_555
H5 O1 1_555 1_555
H6 C10 1_555 1_555
H7 C10 1_555 1_555
H8 C11 1_555 1_555
H9 C11 1_555 1_555
H10 C12 1_555 1_555
H11 C12 1_555 1_555
H12 C13 1_555 1_555
H13 C13 1_555 1_555
H14 C14 1_555 1_555
H15 C14 1_555 1_555
H16 C15 1_555 1_555
H17 C15 1_555 1_555
H18 C16 1_555 1_555
H19 C16 1_555 1_555
C16A C15 1_555 1_555
N2A C16A 1_555 1_555
C10A N2A 1_555 1_555
C9A C10A 1_555 1_555
C1A C9A 1_555 1_555
C2A C1A 1_555 1_555
Cl1A C2A 1_555 1_555
C3A C2A 1_555 1_555
C4A C3A 1_555 1_555
C5A C4A 1_555 1_555
C6A C5A 1_555 1_555
N1A C6A 1_555 1_555
C7A C3A 1_555 1_555
C8A C9A 1_555 1_555
O1A C8A 1_555 1_555
H5A O1A 1_555 1_555
H4A C6A 1_555 1_555
H3A C5A 1_555 1_555
H2A C4A 1_555 1_555
H1A C1A 1_555 1_555
H6A C10A 1_555 1_555
H7A C10A 1_555 1_555
C11A N2A 1_555 1_555
C12A C11A 1_555 1_555
O2A C12A 1_555 1_555
C13A O2A 1_555 1_555
C14A C13A 1_555 1_555
O3A C14A 1_555 1_555
C15A C16 1_555 1_555
H16A C15A 1_555 1_555
H17A C15A 1_555 1_555
H14A C14A 1_555 1_555
H15A C14A 1_555 1_555
H12A C13A 1_555 1_555
H13A C13A 1_555 1_555
H10A C12A 1_555 1_555
H11A C12A 1_555 1_555
H8A C11A 1_555 1_555
H9A C11A 1_555 1_555
H18A C16A 1_555 1_555
H19A C16A 1_555 1_555
N1 C7 1_555 1_555
C8 C9 1_555 1_555
N1A C7A 1_555 1_555
C7A C8A 1_555 1_555
O3A C15A 1_555 1_555

#END
