
#######################################################################
#
#                 Cambridge Crystallographic Data Centre
#                                CCDC 
#
#######################################################################
#
# If this CIF has been generated from an entry in the Cambridge 
# Structural Database, then it will include bibliographic, chemical, 
# crystal, experimental, refinement or atomic coordinate data resulting 
# from the CCDC's data processing and validation procedures.
#
#######################################################################

data_REMBOB
_chemical_formula_moiety         'C6 H16 N2,C2 Br2 F4'
_chemical_name_systematic        
"1,2-dibromotetrafluoroethane N,N,N',N'-tetramethyl-1,2-diaminoethane"
_symmetry_cell_setting           triclinic
_symmetry_space_group_name_H-M   'P -1'
_symmetry_Int_Tables_number      2
_space_group_name_Hall           '-P 1'
loop_
_symmetry_equiv_pos_site_id
_symmetry_equiv_pos_as_xyz
1 x,y,z
2 -x,-y,-z
_cell_length_a                   6.1449(4)
_cell_length_b                   6.7680(4)
_cell_length_c                   9.3682(5)
_cell_angle_alpha                110.890(3)
_cell_angle_beta                 97.478(4)
_cell_angle_gamma                95.024(3)
_cell_volume                     357.11
_exptl_crystal_colour            colorless
_exptl_crystal_description       block
_chemical_melting_point          '335-337 K'
_cell_formula_units_Z            1
_exptl_crystal_recrystallization_method chloroform
loop_
_atom_site_label
_atom_site_type_symbol
_atom_site_fract_x
_atom_site_fract_y
_atom_site_fract_z
Br1 Br 0.2949(6) 0.7413(6) 0.6793(3)
C1 C 0.4348(16) 0.5543(16) 0.4646(11)
F1 F 0.2769(6) 0.4313(7) 0.3507(4)
F2 F 0.5716(9) 0.6801(6) 0.4173(6)
Br1A Br 0.7051(6) 0.2587(6) 0.3207(3)
C1A C 0.5652(16) 0.4457(16) 0.5354(11)
F1A F 0.7231(6) 0.5687(7) 0.6493(4)
F2A F 0.4284(9) 0.3199(6) 0.5827(6)
C2 C 0.2896(10) 1.2556(10) 0.9343(6)
H1 H 0.376(14) 1.205(14) 1.003(10)
H2 H 0.244(14) 1.388(14) 0.993(10)
H3 H 0.377(15) 1.277(13) 0.862(10)
C3 C -0.0321(11) 1.1679(10) 0.7386(7)
H4 H -0.150(13) 1.056(12) 0.676(9)
H5 H 0.063(13) 1.199(12) 0.674(9)
H6 H -0.093(12) 1.294(13) 0.793(9)
N1 N 0.0953(6) 1.0988(6) 0.8503(4)
C4 C -0.0506(7) 1.0611(7) 0.9535(5)
H7 H -0.191(9) 0.981(9) 0.892(6)
H8 H -0.079(9) 1.197(9) 1.024(6)
C2A C -0.2896(10) 0.7444(10) 1.0657(6)
H1A H -0.376(14) 0.795(14) 0.997(10)
H2A H -0.244(14) 0.612(14) 1.007(10)
H3A H -0.377(15) 0.723(13) 1.138(10)
C3A C 0.0321(11) 0.8321(10) 1.2614(7)
H4A H 0.150(13) 0.944(12) 1.324(9)
H5A H -0.063(13) 0.801(12) 1.326(9)
H6A H 0.093(12) 0.706(13) 1.207(9)
N1A N -0.0953(6) 0.9012(6) 1.1497(4)
C4A C 0.0506(7) 0.9389(7) 1.0465(5)
H7A H 0.191(9) 1.019(9) 1.108(6)
H8A H 0.079(9) 0.803(9) 0.976(6)
I1? I 0.2820(4) 0.7701(4) 0.6441(2)
loop_
_geom_bond_atom_site_label_1
_geom_bond_atom_site_label_2
_geom_bond_site_symmetry_1
_geom_bond_site_symmetry_2
Br1 C1 1_555 1_555
C1 F1 1_555 1_555
F2 C1 1_555 1_555
C2 H1 1_555 1_555
H2 C2 1_555 1_555
H3 C2 1_555 1_555
C3 H4 1_555 1_555
H5 C3 1_555 1_555
H6 C3 1_555 1_555
N1 C2 1_555 1_555
C4 N1 1_555 1_555
H7 C4 1_555 1_555
H8 C4 1_555 1_555
Br1A C1A 1_555 1_555
C1A C1 1_555 1_555
F1A C1A 1_555 1_555
F2A C1A 1_555 1_555
C2A H1A 1_555 1_555
H2A C2A 1_555 1_555
H3A C2A 1_555 1_555
C3A H4A 1_555 1_555
H5A C3A 1_555 1_555
H6A C3A 1_555 1_555
N1A C2A 1_555 1_555
C4A C4 1_555 1_555
H7A C4A 1_555 1_555
H8A C4A 1_555 1_555
C3 N1 1_555 1_555
C3A N1A 1_555 1_555
N1A C4A 1_555 1_555

#END
