
#######################################################################
#
#                 Cambridge Crystallographic Data Centre
#                                CCDC 
#
#######################################################################
#
# If this CIF has been generated from an entry in the Cambridge 
# Structural Database, then it will include bibliographic, chemical, 
# crystal, experimental, refinement or atomic coordinate data resulting 
# from the CCDC's data processing and validation procedures.
#
#######################################################################

data_REMDIY
_chemical_formula_moiety         'C30 H39 N1'
_chemical_name_systematic        
2',4'-bis(Cyclohex-1-en-1-yl)-7',8',9',10'-tetrahydro-5'H-spiro[cyclohexane-1,6'-phenanthridine]
_symmetry_cell_setting           orthorhombic
_symmetry_space_group_name_H-M   'P b c a'
_symmetry_Int_Tables_number      61
_space_group_name_Hall           '-P 2ac 2ab'
loop_
_symmetry_equiv_pos_site_id
_symmetry_equiv_pos_as_xyz
1 x,y,z
2 1/2-x,-y,1/2+z
3 -x,1/2+y,1/2-z
4 1/2+x,1/2-y,-z
5 -x,-y,-z
6 1/2+x,y,1/2-z
7 x,1/2-y,1/2+z
8 1/2-x,1/2+y,z
_cell_length_a                   9.7385(4)
_cell_length_b                   11.6917(6)
_cell_length_c                   41.5907(19)
_cell_angle_alpha                90
_cell_angle_beta                 90
_cell_angle_gamma                90
_cell_volume                     4735.5
_exptl_crystal_colour            colorless
_exptl_crystal_description       plate
_cell_formula_units_Z            8
loop_
_atom_site_label
_atom_site_type_symbol
_atom_site_fract_x
_atom_site_fract_y
_atom_site_fract_z
N1 N 0.3936(2) 0.82334(16) 0.40524(5)
H1 H 0.437(3) 0.846(2) 0.4232(6)
C1 C 0.2916(2) 0.90717(19) 0.39395(5)
C2 C 0.2159(2) 0.85560(19) 0.36545(5)
C3 C 0.2802(2) 0.78259(19) 0.34543(5)
C4 C 0.4226(2) 0.74640(18) 0.35216(5)
C5 C 0.5041(2) 0.68804(19) 0.32994(5)
H2 H 0.4666 0.6710 0.3094
C6 C 0.6381(2) 0.65373(19) 0.33665(5)
C7 C 0.6878(2) 0.67702(19) 0.36734(5)
H3 H 0.7785 0.6537 0.3726
C8 C 0.6103(2) 0.73308(19) 0.39061(5)
C9 C 0.4770(2) 0.76965(18) 0.38267(5)
C10 C 0.1968(2) 0.93343(19) 0.42265(5)
H4 H 0.1196 0.9818 0.4152
H5 H 0.1578 0.8609 0.4309
C11 C 0.2717(3) 0.9946(2) 0.44998(6)
H6 H 0.2055 1.0134 0.4673
H7 H 0.3424 0.9431 0.4591
C12 C 0.3399(3) 1.1042(2) 0.43806(6)
H8 H 0.2682 1.1593 0.4314
H9 H 0.3928 1.1392 0.4559
C13 C 0.4358(2) 1.0812(2) 0.40984(6)
H10 H 0.4726 1.1546 0.4017
H11 H 0.5142 1.0341 0.4172
C14 C 0.3605(2) 1.01935(19) 0.38290(6)
H12 H 0.4265 1.0018 0.3655
H13 H 0.2894 1.0708 0.3740
C15 C 0.0737(2) 0.9008(2) 0.35830(6)
H14 H 0.0706 0.9835 0.3633
H15 H 0.0064 0.8617 0.3724
C16 C 0.0331(3) 0.8824(2) 0.32314(7)
H16 H -0.0657 0.8994 0.3203
H17 H 0.0860 0.9353 0.3092
C17 C 0.0614(3) 0.7615(2) 0.31340(7)
H18 H 0.0293 0.7492 0.2911
H19 H 0.0100 0.7088 0.3276
C18 C 0.2135(2) 0.7354(2) 0.31554(5)
H20 H 0.2266 0.6515 0.3151
H21 H 0.2601 0.7678 0.2964
C19 C 0.6657(2) 0.7519(2) 0.42357(6)
C20 C 0.7673(3) 0.8315(2) 0.42919(6)
H22 H 0.8057 0.8726 0.4117
C21 C 0.8182(3) 0.8540(3) 0.46276(6)
H23 H 0.7691 0.9209 0.4717
H24 H 0.9172 0.8729 0.4619
C22 C 0.7973(3) 0.7525(3) 0.48474(6)
H25 H 0.8193 0.7746 0.5071
H26 H 0.8600 0.6898 0.4784
C23 C 0.6501(3) 0.7116(2) 0.48286(6)
H27 H 0.6386 0.6435 0.4967
H28 H 0.5883 0.7723 0.4910
C24 C 0.6110(3) 0.6818(2) 0.44900(6)
H29 H 0.6398 0.6019 0.4449
H30 H 0.5096 0.6840 0.4475
C25 C 0.7224(2) 0.59196(19) 0.31218(5)
C26 C 0.8277(2) 0.5152(2) 0.32265(6)
H31 H 0.7825 0.4507 0.3339
H32 H 0.8843 0.5559 0.3388
C27 C 0.9232(3) 0.4656(2) 0.29800(6)
H33 H 1.0002 0.5193 0.2943
H34 H 0.9620 0.3930 0.3063
C28 C 0.8517(5) 0.4434(5) 0.26696(8)
H35 H 0.9202 0.4196 0.2507
H36 H 0.7861 0.3796 0.2699
C29 C 0.7776(3) 0.5431(3) 0.25499(7)
H37 H 0.7147 0.5177 0.2377
H38 H 0.8448 0.5963 0.2452
C30 C 0.6966(3) 0.6069(2) 0.27922(6)
H39 H 0.6267 0.6581 0.2724
C31? C -0.007(4) 0.810(3) 0.3411(8)
C32? C 0.9026(16) 0.4986(17) 0.2642(3)
H40? H -0.0287 0.7483 0.3565
H41? H -0.0956 0.8441 0.3340
H42? H 0.9739 0.5557 0.2588
H43? H 0.9203 0.4302 0.2508
loop_
_geom_bond_atom_site_label_1
_geom_bond_atom_site_label_2
_geom_bond_site_symmetry_1
_geom_bond_site_symmetry_2
N1 H1 1_555 1_555
C1 N1 1_555 1_555
C2 C1 1_555 1_555
C3 C2 1_555 1_555
C4 C3 1_555 1_555
C5 C4 1_555 1_555
H2 C5 1_555 1_555
C6 C5 1_555 1_555
C7 C6 1_555 1_555
H3 C7 1_555 1_555
C8 C7 1_555 1_555
C9 N1 1_555 1_555
C10 C1 1_555 1_555
H4 C10 1_555 1_555
H5 C10 1_555 1_555
C11 C10 1_555 1_555
H6 C11 1_555 1_555
H7 C11 1_555 1_555
C12 C11 1_555 1_555
H8 C12 1_555 1_555
H9 C12 1_555 1_555
C13 C12 1_555 1_555
H10 C13 1_555 1_555
H11 C13 1_555 1_555
C14 C1 1_555 1_555
H12 C14 1_555 1_555
H13 C14 1_555 1_555
C15 C2 1_555 1_555
H14 C15 1_555 1_555
H15 C15 1_555 1_555
C16 C15 1_555 1_555
H16 C16 1_555 1_555
H17 C16 1_555 1_555
C17 C16 1_555 1_555
H18 C17 1_555 1_555
H19 C17 1_555 1_555
C18 C3 1_555 1_555
H20 C18 1_555 1_555
H21 C18 1_555 1_555
C19 C8 1_555 1_555
C20 C19 1_555 1_555
H22 C20 1_555 1_555
C21 C20 1_555 1_555
H23 C21 1_555 1_555
H24 C21 1_555 1_555
C22 C21 1_555 1_555
H25 C22 1_555 1_555
H26 C22 1_555 1_555
C23 C22 1_555 1_555
H27 C23 1_555 1_555
H28 C23 1_555 1_555
C24 C19 1_555 1_555
H29 C24 1_555 1_555
H30 C24 1_555 1_555
C25 C6 1_555 1_555
C26 C25 1_555 1_555
H31 C26 1_555 1_555
H32 C26 1_555 1_555
C27 C26 1_555 1_555
H33 C27 1_555 1_555
H34 C27 1_555 1_555
C28 C27 1_555 1_555
H35 C28 1_555 1_555
H36 C28 1_555 1_555
C29 C28 1_555 1_555
H37 C29 1_555 1_555
H38 C29 1_555 1_555
C30 C25 1_555 1_555
H39 C30 1_555 1_555
C4 C9 1_555 1_555
C8 C9 1_555 1_555
C13 C14 1_555 1_555
C17 C18 1_555 1_555
C23 C24 1_555 1_555
C29 C30 1_555 1_555

#END
