
#######################################################################
#
#                 Cambridge Crystallographic Data Centre
#                                CCDC 
#
#######################################################################
#
# If this CIF has been generated from an entry in the Cambridge 
# Structural Database, then it will include bibliographic, chemical, 
# crystal, experimental, refinement or atomic coordinate data resulting 
# from the CCDC's data processing and validation procedures.
#
#######################################################################

data_REMGAU
_chemical_formula_moiety         'C60 H58 B1 F2 N3 O8'
_chemical_name_systematic        
"6,16-di-tert-butyl-11,11-difluoro-2,3,4,18,19,20-hexamethyl-9,13-bis(4-methoxyphenyl)-11H-tetrabenzo[e,e',g,g'][1,3,5,2]triazaborinino[4,3-a:6,1-a']diisoindol-10-ium-11-ide unknown solvate"
_symmetry_cell_setting           triclinic
_symmetry_space_group_name_H-M   'P -1'
_symmetry_Int_Tables_number      2
_space_group_name_Hall           '-P 1'
loop_
_symmetry_equiv_pos_site_id
_symmetry_equiv_pos_as_xyz
1 x,y,z
2 -x,-y,-z
_cell_length_a                   12.386(2)
_cell_length_b                   14.229(3)
_cell_length_c                   16.434(3)
_cell_angle_alpha                104.736(2)
_cell_angle_beta                 98.092(3)
_cell_angle_gamma                97.797(3)
_cell_volume                     2728.35
_exptl_crystal_colour            red
_exptl_crystal_description       block
_cell_formula_units_Z            2
loop_
_atom_site_label
_atom_site_type_symbol
_atom_site_fract_x
_atom_site_fract_y
_atom_site_fract_z
B1 B 0.8396(3) 0.3212(4) 0.4762(3)
C1 C 0.7982(3) 0.2819(3) 0.6162(2)
C2 C 0.8471(3) 0.2363(3) 0.6751(2)
C3 C 0.9451(3) 0.2120(2) 0.6509(2)
C4 C 0.9516(3) 0.2393(2) 0.5741(2)
C5 C 1.0201(3) 0.2538(3) 0.4561(2)
C6 C 1.0938(3) 0.2472(3) 0.3964(2)
C7 C 1.0605(3) 0.2995(3) 0.3402(2)
C8 C 0.9640(3) 0.3354(3) 0.3639(2)
C9 C 0.6992(3) 0.3280(3) 0.6156(2)
C10 C 0.7049(3) 0.4200(3) 0.6688(3)
H1 H 0.7704 0.4514 0.7068
C11 C 0.6159(4) 0.4666(3) 0.6671(3)
H2 H 0.6217 0.5294 0.7038
C12 C 0.5174(3) 0.4222(3) 0.6117(3)
C13 C 0.5108(3) 0.3298(3) 0.5608(3)
H3 H 0.4446 0.2974 0.5241
C14 C 0.6011(3) 0.2834(3) 0.5627(2)
H4 H 0.5948 0.2199 0.5271
C15 C 0.3387(5) 0.4382(5) 0.5511(4)
H5 H 0.3575 0.4326 0.4955
H6 H 0.2868 0.4824 0.5606
H7 H 0.3061 0.3743 0.5541
C16 C 0.8116(3) 0.2087(3) 0.7467(2)
C17 C 0.7154(3) 0.2337(3) 0.7752(3)
H8 H 0.6740 0.2711 0.7488
C18 C 0.6816(4) 0.2036(4) 0.8416(3)
H9 H 0.6180 0.2219 0.8602
C19 C 0.7394(5) 0.1469(4) 0.8818(3)
C20 C 0.8341(4) 0.1244(3) 0.8538(3)
H10 H 0.8741 0.0868 0.8811
C21 C 0.8754(3) 0.1534(3) 0.7878(2)
C22 C 0.6980(6) 0.1114(5) 0.9528(4)
C23 C 0.7577(12) 0.0358(9) 0.9779(8)
H11 H 0.7206 0.0091 1.0167
H12 H 0.8325 0.0661 1.0054
H13 H 0.7585 -0.0163 0.9278
C24 C 0.5743(9) 0.0490(9) 0.9111(7)
H14 H 0.5775 -0.0028 0.8615
H15 H 0.5274 0.0921 0.8950
H16 H 0.5448 0.0208 0.9523
C25 C 0.6811(12) 0.1916(8) 1.0224(6)
H17 H 0.6443 0.1647 1.0613
H18 H 0.6364 0.2322 0.9995
H19 H 0.7516 0.2308 1.0523
C26 C 0.9810(3) 0.1326(3) 0.7636(2)
C27 C 1.0534(4) 0.0807(3) 0.8018(2)
C28 C 1.1582(4) 0.0766(3) 0.7836(2)
C29 C 1.1981(3) 0.1270(3) 0.7293(2)
C30 C 1.1263(3) 0.1684(3) 0.6838(2)
H20 H 1.1500 0.1964 0.6425
C31 C 1.0186(3) 0.1693(3) 0.6985(2)
C32 C 0.9799(5) -0.0626(4) 0.8322(4)
H21 H 0.9151 -0.0718 0.7895
H22 H 0.9600 -0.0870 0.8784
H23 H 1.0334 -0.0982 0.8074
C33 C 1.2626(6) -0.0507(4) 0.7734(4)
H24 H 1.2003 -0.0972 0.7370
H25 H 1.3040 -0.0829 0.8085
H26 H 1.3093 -0.0258 0.7388
C34 C 1.3573(4) 0.2033(3) 0.6893(3)
H27 H 1.3343 0.1820 0.6282
H28 H 1.4364 0.2109 0.7035
H29 H 1.3350 0.2654 0.7117
C35 C 1.2096(3) 0.1366(3) 0.4411(2)
H30 H 1.1627 0.1255 0.4785
C36 C 1.3005(3) 0.0929(3) 0.4376(2)
C37 C 1.3730(3) 0.1139(3) 0.3846(2)
C38 C 1.3485(3) 0.1703(3) 0.3308(2)
C39 C 1.2514(3) 0.2123(3) 0.3279(2)
C40 C 1.1860(3) 0.1976(3) 0.3896(2)
C41 C 1.2436(4) -0.0191(3) 0.5146(3)
H31 H 1.2186 0.0273 0.5582
H32 H 1.2714 -0.0682 0.5382
H33 H 1.1830 -0.0505 0.4682
C42 C 1.4659(5) -0.0180(4) 0.3471(4)
H34 H 1.4133 -0.0360 0.2944
H35 H 1.4429 -0.0575 0.3831
H36 H 1.5376 -0.0288 0.3351
C43 C 1.5137(4) 0.2543(5) 0.3125(4)
H37 H 1.4908 0.3153 0.3375
H38 H 1.5549 0.2625 0.2687
H39 H 1.5597 0.2359 0.3558
C44 C 1.2141(3) 0.2638(3) 0.2660(2)
C45 C 1.2657(3) 0.2687(3) 0.1962(2)
H40 H 1.3288 0.2406 0.1910
C46 C 1.2286(3) 0.3125(3) 0.1355(2)
C47 C 1.1336(3) 0.3529(3) 0.1426(2)
H41 H 1.1062 0.3824 0.1016
C48 C 1.0802(3) 0.3500(3) 0.2083(2)
H42 H 1.0165 0.3777 0.2115
C49 C 1.1175(3) 0.3067(3) 0.2716(2)
C50 C 1.2865(4) 0.3172(3) 0.0603(3)
C51 C 1.3936(4) 0.2750(4) 0.0658(4)
H43 H 1.3769 0.2069 0.0651
H44 H 1.4432 0.3116 0.1180
H45 H 1.4278 0.2802 0.0179
C52 C 1.3168(4) 0.4241(4) 0.0612(3)
H46 H 1.3521 0.4278 0.0135
H47 H 1.3666 0.4598 0.1135
H48 H 1.2509 0.4525 0.0573
C53 C 1.2089(5) 0.2617(5) -0.0223(3)
H49 H 1.2451 0.2652 -0.0697
H50 H 1.1435 0.2906 -0.0267
H51 H 1.1889 0.1938 -0.0231
C54 C 0.8960(3) 0.3948(3) 0.3249(2)
C55 C 0.9305(4) 0.4935(3) 0.3396(3)
H52 H 0.9984 0.5239 0.3747
C56 C 0.8675(4) 0.5481(3) 0.3038(3)
H53 H 0.8928 0.6156 0.3151
C57 C 0.7678(3) 0.5067(3) 0.2518(3)
C58 C 0.7316(3) 0.4085(3) 0.2360(3)
H54 H 0.6639 0.3784 0.2005
C59 C 0.7957(3) 0.3539(3) 0.2731(3)
H55 H 0.7700 0.2867 0.2625
C60 C 0.6067(4) 0.5290(4) 0.1684(4)
H56 H 0.6125 0.4790 0.1183
H57 H 0.5752 0.5807 0.1515
H58 H 0.5601 0.5005 0.2011
F1 F 0.74672(18) 0.2642(2) 0.42154(15)
F2 F 0.8311(2) 0.4174(2) 0.49996(17)
N1 N 0.8614(2) 0.2824(2) 0.55557(18)
N2 N 1.0260(2) 0.2230(2) 0.52445(18)
N3 N 0.9408(2) 0.3068(2) 0.43255(18)
O1 O 0.4357(3) 0.4753(3) 0.6144(2)
O2 O 1.0254(3) 0.0373(2) 0.86302(17)
O3 O 1.2246(3) 0.0287(2) 0.82624(19)
O4 O 1.3070(2) 0.1317(2) 0.72555(19)
O5 O 1.3292(2) 0.0311(2) 0.4843(2)
O6 O 1.4715(2) 0.0810(2) 0.38845(19)
O7 O 1.4202(2) 0.1803(2) 0.27663(18)
O8 O 0.7125(3) 0.5682(2) 0.2184(2)
C61? C 0.7997(15) 0.1589(18) 1.0314(9)
H59? H 0.8197 0.2282 1.0376
H60? H 0.8619 0.1272 1.0206
H61? H 0.7780 0.1495 1.0831
C62? C 0.689(2) 0.0042(11) 0.938(2)
H62? H 0.6264 -0.0292 0.8937
H63? H 0.6807 -0.0130 0.9895
H64? H 0.7555 -0.0154 0.9198
C63? C 0.6035(18) 0.1521(18) 0.9846(18)
H65? H 0.5374 0.1250 0.9422
H66? H 0.6179 0.2226 0.9961
H67? H 0.5937 0.1350 1.0363
loop_
_geom_bond_atom_site_label_1
_geom_bond_atom_site_label_2
_geom_bond_site_symmetry_1
_geom_bond_site_symmetry_2
B1 F1 1_555 1_555
C1 C2 1_555 1_555
C2 C3 1_555 1_555
C3 C4 1_555 1_555
C4 N1 1_555 1_555
C5 C6 1_555 1_555
C6 C7 1_555 1_555
C7 C8 1_555 1_555
C8 C54 1_555 1_555
C9 C1 1_555 1_555
C10 C9 1_555 1_555
H1 C10 1_555 1_555
C11 C10 1_555 1_555
H2 C11 1_555 1_555
C12 C11 1_555 1_555
C13 C12 1_555 1_555
H3 C13 1_555 1_555
C14 C9 1_555 1_555
H4 C14 1_555 1_555
C15 H5 1_555 1_555
H6 C15 1_555 1_555
H7 C15 1_555 1_555
C16 C2 1_555 1_555
C17 C16 1_555 1_555
H8 C17 1_555 1_555
C18 C17 1_555 1_555
H9 C18 1_555 1_555
C19 C18 1_555 1_555
C20 C19 1_555 1_555
H10 C20 1_555 1_555
C21 C16 1_555 1_555
C22 C19 1_555 1_555
C23 C22 1_555 1_555
H11 C23 1_555 1_555
H12 C23 1_555 1_555
H13 C23 1_555 1_555
C24 C22 1_555 1_555
H14 C24 1_555 1_555
H15 C24 1_555 1_555
H16 C24 1_555 1_555
C25 C22 1_555 1_555
H17 C25 1_555 1_555
H18 C25 1_555 1_555
H19 C25 1_555 1_555
C26 C21 1_555 1_555
C27 C26 1_555 1_555
C28 C27 1_555 1_555
C29 C28 1_555 1_555
C30 C29 1_555 1_555
H20 C30 1_555 1_555
C31 C3 1_555 1_555
C32 H21 1_555 1_555
H22 C32 1_555 1_555
H23 C32 1_555 1_555
C33 H24 1_555 1_555
H25 C33 1_555 1_555
H26 C33 1_555 1_555
C34 H27 1_555 1_555
H28 C34 1_555 1_555
H29 C34 1_555 1_555
C35 H30 1_555 1_555
C36 C35 1_555 1_555
C37 C36 1_555 1_555
C38 C37 1_555 1_555
C39 C38 1_555 1_555
C40 C6 1_555 1_555
C41 H31 1_555 1_555
H32 C41 1_555 1_555
H33 C41 1_555 1_555
C42 H34 1_555 1_555
H35 C42 1_555 1_555
H36 C42 1_555 1_555
C43 H37 1_555 1_555
H38 C43 1_555 1_555
H39 C43 1_555 1_555
C44 C39 1_555 1_555
C45 C44 1_555 1_555
H40 C45 1_555 1_555
C46 C45 1_555 1_555
C47 C46 1_555 1_555
H41 C47 1_555 1_555
C48 C47 1_555 1_555
H42 C48 1_555 1_555
C49 C7 1_555 1_555
C50 C46 1_555 1_555
C51 C50 1_555 1_555
H43 C51 1_555 1_555
H44 C51 1_555 1_555
H45 C51 1_555 1_555
C52 C50 1_555 1_555
H46 C52 1_555 1_555
H47 C52 1_555 1_555
H48 C52 1_555 1_555
C53 C50 1_555 1_555
H49 C53 1_555 1_555
H50 C53 1_555 1_555
H51 C53 1_555 1_555
C54 C55 1_555 1_555
C55 H52 1_555 1_555
C56 C55 1_555 1_555
H53 C56 1_555 1_555
C57 C56 1_555 1_555
C58 C57 1_555 1_555
H54 C58 1_555 1_555
C59 C54 1_555 1_555
H55 C59 1_555 1_555
C60 H56 1_555 1_555
H57 C60 1_555 1_555
H58 C60 1_555 1_555
F2 B1 1_555 1_555
N1 B1 1_555 1_555
N2 C4 1_555 1_555
N3 B1 1_555 1_555
O1 C12 1_555 1_555
O2 C27 1_555 1_555
O3 C28 1_555 1_555
O4 C29 1_555 1_555
O5 C36 1_555 1_555
O6 C37 1_555 1_555
O7 C38 1_555 1_555
O8 C57 1_555 1_555
C1 N1 1_555 1_555
C5 N2 1_555 1_555
C5 N3 1_555 1_555
C8 N3 1_555 1_555
C13 C14 1_555 1_555
C15 O1 1_555 1_555
C20 C21 1_555 1_555
C26 C31 1_555 1_555
C30 C31 1_555 1_555
C32 O2 1_555 1_555
C33 O3 1_555 1_555
C34 O4 1_555 1_555
C35 C40 1_555 1_555
C39 C40 1_555 1_555
C41 O5 1_555 1_555
C42 O6 1_555 1_555
C43 O7 1_555 1_555
C44 C49 1_555 1_555
C48 C49 1_555 1_555
C58 C59 1_555 1_555
C60 O8 1_555 1_555

#END
