
#######################################################################
#
#                 Cambridge Crystallographic Data Centre
#                                CCDC 
#
#######################################################################
#
# If this CIF has been generated from an entry in the Cambridge 
# Structural Database, then it will include bibliographic, chemical, 
# crystal, experimental, refinement or atomic coordinate data resulting 
# from the CCDC's data processing and validation procedures.
#
#######################################################################

data_REMPIK
_chemical_name_common            (+)-epi-p-methylstrobamine
_chemical_formula_moiety         'C18 H21 N1 O2'
_chemical_name_systematic        
(+)-12-methyl-5-(4-methylphenyl)-6-oxa-12-azatricyclo[7.2.1.0^2,7^]dodec-2(7)-en-3-one
_symmetry_cell_setting           orthorhombic
_symmetry_space_group_name_H-M   'P 21 21 2'
_symmetry_Int_Tables_number      18
_space_group_name_Hall           'P 2 2ab'
loop_
_symmetry_equiv_pos_site_id
_symmetry_equiv_pos_as_xyz
1 x,y,z
2 1/2+x,1/2-y,-z
3 1/2-x,1/2+y,-z
4 -x,-y,z
_cell_length_a                   11.2517(6)
_cell_length_b                   21.5455(12)
_cell_length_c                   6.5032(4)
_cell_angle_alpha                90
_cell_angle_beta                 90
_cell_angle_gamma                90
_cell_volume                     1576.53
_exptl_crystal_colour            brown
_exptl_crystal_description       prism
_chemical_melting_point          '390-391 K'
_cell_formula_units_Z            4
loop_
_atom_site_label
_atom_site_type_symbol
_atom_site_fract_x
_atom_site_fract_y
_atom_site_fract_z
O1 O 0.43570(10) 0.16658(6) 0.24344(19)
C1 C 0.41697(16) 0.11981(8) 0.0874(3)
H1 H 0.3692 0.1383 -0.0227
C2 C 0.53478(17) 0.09963(9) -0.0043(4)
H2 H 0.5816 0.0786 0.0999
H3 H 0.5205 0.0706 -0.1156
C3 C 0.60276(18) 0.15464(10) -0.0845(3)
C4 C 0.58616(15) 0.21168(8) 0.0299(3)
O2 O 0.6730(2) 0.15046(9) -0.2282(3)
C5 C 0.65836(15) 0.26950(9) -0.0157(3)
H4 H 0.7288 0.2595 -0.0980
N1 N 0.69131(13) 0.30324(7) 0.1719(2)
C6 C 0.7657(2) 0.26970(13) 0.3197(4)
H5 H 0.7820 0.2960 0.4355
H6 H 0.8391 0.2580 0.2551
H7 H 0.7247 0.2331 0.3653
C7 C 0.58269(19) 0.31919(9) -0.1215(3)
H8 H 0.5261 0.3006 -0.2158
H9 H 0.6320 0.3484 -0.1961
C8 C 0.51882(17) 0.35098(10) 0.0597(3)
H10 H 0.5311 0.3955 0.0563
H11 H 0.4341 0.3426 0.0559
C9 C 0.57557(16) 0.32248(9) 0.2515(3)
H12 H 0.5852 0.3539 0.3591
C10 C 0.50127(18) 0.26758(9) 0.3314(3)
H13 H 0.5295 0.2556 0.4666
H14 H 0.4189 0.2802 0.3444
C11 C 0.50944(15) 0.21321(8) 0.1889(3)
C12 C 0.34546(15) 0.06815(8) 0.1828(3)
C13 C 0.3647(2) 0.04775(11) 0.3838(3)
H15 H 0.4240 0.0660 0.4631
C14 C 0.2963(2) 0.00074(12) 0.4652(4)
H16 H 0.3108 -0.0125 0.5990
C15 C 0.20677(19) -0.02721(10) 0.3527(4)
C16 C 0.1296(3) -0.07766(14) 0.4464(5)
H17 H 0.1381 -0.0771 0.5933
H18 H 0.1540 -0.1174 0.3944
H19 H 0.0480 -0.0704 0.4108
C17 C 0.18959(19) -0.00717(10) 0.1525(4)
H20 H 0.1309 -0.0257 0.0726
C18 C 0.25757(17) 0.03951(9) 0.0696(3)
H21 H 0.2441 0.0520 -0.0653
loop_
_geom_bond_atom_site_label_1
_geom_bond_atom_site_label_2
_geom_bond_site_symmetry_1
_geom_bond_site_symmetry_2
O1 C1 1_555 1_555
C1 H1 1_555 1_555
C2 C1 1_555 1_555
H2 C2 1_555 1_555
H3 C2 1_555 1_555
C3 C2 1_555 1_555
C4 C3 1_555 1_555
O2 C3 1_555 1_555
C5 C4 1_555 1_555
H4 C5 1_555 1_555
N1 C5 1_555 1_555
C6 N1 1_555 1_555
H5 C6 1_555 1_555
H6 C6 1_555 1_555
H7 C6 1_555 1_555
C7 C5 1_555 1_555
H8 C7 1_555 1_555
H9 C7 1_555 1_555
C8 C7 1_555 1_555
H10 C8 1_555 1_555
H11 C8 1_555 1_555
C9 N1 1_555 1_555
H12 C9 1_555 1_555
C10 C9 1_555 1_555
H13 C10 1_555 1_555
H14 C10 1_555 1_555
C11 O1 1_555 1_555
C12 C1 1_555 1_555
C13 C12 1_555 1_555
H15 C13 1_555 1_555
C14 C13 1_555 1_555
H16 C14 1_555 1_555
C15 C14 1_555 1_555
C16 C15 1_555 1_555
H17 C16 1_555 1_555
H18 C16 1_555 1_555
H19 C16 1_555 1_555
C17 C15 1_555 1_555
H20 C17 1_555 1_555
C18 C12 1_555 1_555
H21 C18 1_555 1_555
C4 C11 1_555 1_555
C8 C9 1_555 1_555
C10 C11 1_555 1_555
C17 C18 1_555 1_555

#END
