
#######################################################################
#
#                 Cambridge Crystallographic Data Centre
#                                CCDC 
#
#######################################################################
#
# If this CIF has been generated from an entry in the Cambridge 
# Structural Database, then it will include bibliographic, chemical, 
# crystal, experimental, refinement or atomic coordinate data resulting 
# from the CCDC's data processing and validation procedures.
#
#######################################################################

data_REMQUY
_chemical_formula_moiety         'C16 H15 N1 O4 S1'
_chemical_name_systematic        
1-{3-[(4-methylphenyl)sulfonyl]prop-1-en-2-yl}-2-nitrobenzene
_symmetry_cell_setting           monoclinic
_symmetry_space_group_name_H-M   'P 21/c'
_symmetry_Int_Tables_number      14
_space_group_name_Hall           '-P 2ybc'
loop_
_symmetry_equiv_pos_site_id
_symmetry_equiv_pos_as_xyz
1 x,y,z
2 -x,1/2+y,1/2-z
3 -x,-y,-z
4 x,1/2-y,1/2+z
_cell_length_a                   8.8147(15)
_cell_length_b                   8.1358(14)
_cell_length_c                   20.421(4)
_cell_angle_alpha                90
_cell_angle_beta                 91.788(7)
_cell_angle_gamma                90
_cell_volume                     1463.77
_exptl_crystal_colour            colorless
_cell_formula_units_Z            4
loop_
_atom_site_label
_atom_site_type_symbol
_atom_site_fract_x
_atom_site_fract_y
_atom_site_fract_z
C1 C 0.7679(5) 0.9142(4) 0.51071(18)
H1 H 0.7216 1.0032 0.4837
H2 H 0.8485 0.9640 0.5392
C2 C 0.8395(4) 0.7908(4) 0.46597(18)
C3 C 0.7608(4) 0.7424(4) 0.40300(17)
C4 C 0.7322(4) 0.5768(5) 0.3930(2)
H3 H 0.7577 0.5011 0.4270
C5 C 0.6673(5) 0.5178(5) 0.3346(2)
H4 H 0.6511 0.4033 0.3287
C6 C 0.6264(5) 0.6266(6) 0.2853(2)
H5 H 0.5807 0.5870 0.2456
C7 C 0.6517(4) 0.7912(5) 0.2935(2)
H6 H 0.6231 0.8666 0.2598
C8 C 0.7194(4) 0.8467(5) 0.35144(19)
C9 C 0.7060(4) 0.6523(4) 0.59748(17)
C10 C 0.8253(5) 0.6667(5) 0.64348(18)
H7 H 0.8666 0.7713 0.6545
C11 C 0.8822(5) 0.5253(5) 0.67271(19)
H8 H 0.9649 0.5336 0.7034
C12 C 0.8213(4) 0.3712(5) 0.65828(17)
C13 C 0.7042(4) 0.3613(5) 0.61138(18)
H9 H 0.6618 0.2572 0.6004
C14 C 0.6487(4) 0.5006(4) 0.58050(17)
H10 H 0.5709 0.4917 0.5475
C15 C 0.8821(5) 0.2197(5) 0.6911(2)
H11 H 0.9779 0.2454 0.7145
H12 H 0.8997 0.1350 0.6581
H13 H 0.8085 0.1792 0.7223
N1 N 0.7604(4) 1.0226(4) 0.35238(15)
O1 O 0.4998(3) 0.7781(3) 0.51996(13)
O2 O 0.6010(3) 0.9476(3) 0.61147(13)
O3 O 0.6970(4) 1.1133(4) 0.31322(15)
O4 O 0.8612(4) 1.0675(4) 0.39075(15)
S1 S 0.62626(10) 0.82881(10) 0.56112(4)
C16 C 0.9692(4) 0.7170(5) 0.4841(2)
H14 H 1.0108 0.6345 0.4571
H15 H 1.0199 0.7470 0.5241
loop_
_geom_bond_atom_site_label_1
_geom_bond_atom_site_label_2
_geom_bond_site_symmetry_1
_geom_bond_site_symmetry_2
C1 H1 1_555 1_555
H2 C1 1_555 1_555
C2 C1 1_555 1_555
C3 C2 1_555 1_555
C4 C3 1_555 1_555
H3 C4 1_555 1_555
C5 C4 1_555 1_555
H4 C5 1_555 1_555
C6 C5 1_555 1_555
H5 C6 1_555 1_555
C7 C6 1_555 1_555
H6 C7 1_555 1_555
C8 C3 1_555 1_555
C9 C10 1_555 1_555
C10 H7 1_555 1_555
C11 C10 1_555 1_555
H8 C11 1_555 1_555
C12 C11 1_555 1_555
C13 C12 1_555 1_555
H9 C13 1_555 1_555
C14 C9 1_555 1_555
H10 C14 1_555 1_555
C15 C12 1_555 1_555
H11 C15 1_555 1_555
H12 C15 1_555 1_555
H13 C15 1_555 1_555
N1 C8 1_555 1_555
O1 S1 1_555 1_555
O2 S1 1_555 1_555
O3 N1 1_555 1_555
O4 N1 1_555 1_555
S1 C1 1_555 1_555
C16 C2 1_555 1_555
H14 C16 1_555 1_555
H15 C16 1_555 1_555
C7 C8 1_555 1_555
C9 S1 1_555 1_555
C13 C14 1_555 1_555

#END
