
#######################################################################
#
#                 Cambridge Crystallographic Data Centre
#                                CCDC 
#
#######################################################################
#
# If this CIF has been generated from an entry in the Cambridge 
# Structural Database, then it will include bibliographic, chemical, 
# crystal, experimental, refinement or atomic coordinate data resulting 
# from the CCDC's data processing and validation procedures.
#
#######################################################################

data_REMSOU
_chemical_formula_moiety         'C15 H16 O4 S1'
_chemical_name_systematic        
2-[(4-methylphenyl)sulfonyl]-1-phenylethane-1-peroxol
_symmetry_cell_setting           monoclinic
_symmetry_space_group_name_H-M   'P n'
_symmetry_Int_Tables_number      7
_space_group_name_Hall           'P -2yac'
loop_
_symmetry_equiv_pos_site_id
_symmetry_equiv_pos_as_xyz
1 x,y,z
2 1/2+x,-y,1/2+z
_cell_length_a                   9.4351(7)
_cell_length_b                   5.8009(3)
_cell_length_c                   13.4209(14)
_cell_angle_alpha                90
_cell_angle_beta                 103.224(10)
_cell_angle_gamma                90
_cell_volume                     715.076
_exptl_crystal_colour            colorless
_exptl_crystal_description       block
_cell_formula_units_Z            2
loop_
_atom_site_label
_atom_site_type_symbol
_atom_site_fract_x
_atom_site_fract_y
_atom_site_fract_z
S1 S -0.77268(16) -0.5171(2) -0.52303(12)
O1 O -1.0138(5) -0.7879(7) -0.7851(3)
O2 O -0.9169(5) -0.7031(10) -0.8494(4)
H1 H -0.968(11) -0.557(17) -0.874(9)
O3 O -0.8176(4) -0.2832(5) -0.5514(3)
O4 O -0.6193(4) -0.5644(6) -0.4879(3)
C1 C -1.1141(6) -0.9224(9) -0.5936(5)
H2 H -1.0405 -1.0295 -0.5928
C2 C -1.2237(6) -0.9745(10) -0.5460(5)
H3 H -1.2241 -1.1159 -0.5134
C3 C -1.3354(7) -0.8151(10) -0.5464(5)
H4 H -1.4092 -0.8470 -0.5129
C4 C -1.3329(7) -0.6066(10) -0.5984(5)
H5 H -1.4071 -0.4997 -0.6007
C5 C -1.2216(6) -0.5579(9) -0.6462(5)
H6 H -1.2218 -0.4189 -0.6808
C6 C -1.1102(6) -0.7128(9) -0.6433(4)
C7 C -0.9898(6) -0.6509(9) -0.6948(5)
H7 H -0.9987 -0.4878 -0.7142
C8 C -0.8340(6) -0.6969(9) -0.6319(4)
H8 H -0.7674 -0.6796 -0.6767
H9 H -0.8284 -0.8560 -0.6090
C9 C -0.8629(6) -0.6139(8) -0.4299(4)
C10 C -0.8255(6) -0.8231(9) -0.3813(4)
H10 H -0.7461 -0.9057 -0.3924
C11 C -0.9069(7) -0.9083(10) -0.3161(4)
H11 H -0.8806 -1.0466 -0.2818
C12 C -1.0275(7) -0.7890(10) -0.3014(4)
C13 C -1.0616(7) -0.5803(10) -0.3478(5)
H12 H -1.1402 -0.4971 -0.3357
C14 C -0.9797(6) -0.4905(9) -0.4133(4)
H13 H -1.0038 -0.3490 -0.4452
C15 C -1.1238(8) -0.8903(11) -0.2378(5)
H14 H -1.1665 -1.0306 -0.2688
H15 H -1.1994 -0.7825 -0.2336
H16 H -1.0670 -0.9224 -0.1702
loop_
_geom_bond_atom_site_label_1
_geom_bond_atom_site_label_2
_geom_bond_site_symmetry_1
_geom_bond_site_symmetry_2
S1 O3 1_555 1_555
O1 O2 1_555 1_555
O2 H1 1_555 1_555
O4 S1 1_555 1_555
C1 H2 1_555 1_555
C2 C1 1_555 1_555
H3 C2 1_555 1_555
C3 C2 1_555 1_555
H4 C3 1_555 1_555
C4 C3 1_555 1_555
H5 C4 1_555 1_555
C5 C4 1_555 1_555
H6 C5 1_555 1_555
C6 C1 1_555 1_555
C7 O1 1_555 1_555
H7 C7 1_555 1_555
C8 S1 1_555 1_555
H8 C8 1_555 1_555
H9 C8 1_555 1_555
C9 S1 1_555 1_555
C10 C9 1_555 1_555
H10 C10 1_555 1_555
C11 C10 1_555 1_555
H11 C11 1_555 1_555
C12 C11 1_555 1_555
C13 C12 1_555 1_555
H12 C13 1_555 1_555
C14 C9 1_555 1_555
H13 C14 1_555 1_555
C15 C12 1_555 1_555
H14 C15 1_555 1_555
H15 C15 1_555 1_555
H16 C15 1_555 1_555
C5 C6 1_555 1_555
C6 C7 1_555 1_555
C7 C8 1_555 1_555
C13 C14 1_555 1_555

#END
