
#######################################################################
#
#                 Cambridge Crystallographic Data Centre
#                                CCDC 
#
#######################################################################
#
# If this CIF has been generated from an entry in the Cambridge 
# Structural Database, then it will include bibliographic, chemical, 
# crystal, experimental, refinement or atomic coordinate data resulting 
# from the CCDC's data processing and validation procedures.
#
#######################################################################

data_RENFAU
_chemical_formula_moiety         'C19 H15 N3'
_chemical_name_systematic        
1-[(naphthalen-2-yl)methyl]-5-phenyl-1H-1,2,3-triazole
_symmetry_cell_setting           monoclinic
_symmetry_space_group_name_H-M   'P 21'
_symmetry_Int_Tables_number      4
_space_group_name_Hall           'P 2yb'
loop_
_symmetry_equiv_pos_site_id
_symmetry_equiv_pos_as_xyz
1 x,y,z
2 -x,1/2+y,-z
_cell_length_a                   8.1940(16)
_cell_length_b                   6.0730(12)
_cell_length_c                   15.178(3)
_cell_angle_alpha                90
_cell_angle_beta                 104.96(3)
_cell_angle_gamma                90
_cell_volume                     729.691
_exptl_crystal_description       rectangular
_cell_formula_units_Z            2
loop_
_atom_site_label
_atom_site_type_symbol
_atom_site_fract_x
_atom_site_fract_y
_atom_site_fract_z
N1 N 0.4393(2) 0.2514(4) 0.21963(11)
N2 N 0.5672(3) 0.1282(5) 0.20711(15)
C1 C 0.6229(2) 0.3381(3) 0.45995(12)
H1 H 0.5969 0.2004 0.4795
C2 C 0.8404(3) 0.3967(4) 0.60630(12)
H2 H 0.8173 0.2597 0.6276
C3 C 0.5420(2) 0.4086(3) 0.37425(12)
C4 C 0.4135(2) 0.2643(4) 0.31138(13)
H3 H 0.4195 0.1172 0.3370
H4 H 0.3013 0.3217 0.3074
C5 C 0.7805(2) 0.6838(3) 0.48974(13)
C6 C 0.7460(2) 0.4711(3) 0.51969(11)
C7 C 0.5765(3) 0.6225(4) 0.34539(14)
H5 H 0.5196 0.6721 0.2877
C8 C 0.9070(3) 0.8156(4) 0.54734(15)
H6 H 0.9274 0.9567 0.5289
C9 C 0.3646(3) 0.3687(4) 0.14330(12)
C10 C 0.6915(3) 0.7549(4) 0.40131(14)
H7 H 0.7124 0.8943 0.3813
C11 C 0.0732(3) 0.4564(5) 0.15806(15)
H8 H 0.0662 0.3180 0.1830
C12 C -0.0538(4) 0.8074(6) 0.10853(18)
H9 H -0.1442 0.9043 0.1012
C13 C 0.2202(3) 0.5180(4) 0.13341(13)
C14 C -0.0617(3) 0.6008(6) 0.14539(17)
H10 H -0.1588 0.5582 0.1619
C15 C 0.4543(3) 0.3066(6) 0.08195(16)
H11 H 0.4346 0.3571 0.0223
C16 C 0.2262(3) 0.7265(5) 0.09486(16)
H12 H 0.3221 0.7696 0.0774
C17 C 0.9989(3) 0.7381(5) 0.62925(15)
H13 H 1.0835 0.8247 0.6656
N3 N 0.5754(3) 0.1604(6) 0.12231(16)
C18 C 0.9660(3) 0.5262(5) 0.65909(13)
H14 H 1.0298 0.4737 0.7149
C19 C 0.0898(4) 0.8690(5) 0.08262(17)
H15 H 0.0949 1.0069 0.0568
loop_
_geom_bond_atom_site_label_1
_geom_bond_atom_site_label_2
_geom_bond_site_symmetry_1
_geom_bond_site_symmetry_2
N1 N2 1_555 1_555
N2 N3 1_555 1_555
C1 H1 1_555 1_555
C2 H2 1_555 1_555
C3 C1 1_555 1_555
C4 N1 1_555 1_555
H3 C4 1_555 1_555
H4 C4 1_555 1_555
C5 C6 1_555 1_555
C6 C1 1_555 1_555
C7 C3 1_555 1_555
H5 C7 1_555 1_555
C8 C5 1_555 1_555
H6 C8 1_555 1_555
C9 N1 1_555 1_555
C10 C5 1_555 1_555
H7 C10 1_555 1_555
C11 H8 1_555 1_555
C12 H9 1_555 1_555
C13 C9 1_555 1_555
C14 C11 1_555 1_555
H10 C14 1_555 1_555
C15 C9 1_555 1_555
H11 C15 1_555 1_555
C16 C13 1_555 1_555
H12 C16 1_555 1_555
C17 C8 1_555 1_555
H13 C17 1_555 1_555
N3 C15 1_555 1_555
C18 C2 1_555 1_555
H14 C18 1_555 1_555
C19 C12 1_555 1_555
H15 C19 1_555 1_555
C2 C6 1_555 1_555
C3 C4 1_555 1_555
C7 C10 1_555 1_555
C11 C13 1_555 1_555
C12 C14 1_555 1_555
C16 C19 1_555 1_555
C17 C18 1_555 1_555

#END
