
#######################################################################
#
#                 Cambridge Crystallographic Data Centre
#                                CCDC 
#
#######################################################################
#
# If this CIF has been generated from an entry in the Cambridge 
# Structural Database, then it will include bibliographic, chemical, 
# crystal, experimental, refinement or atomic coordinate data resulting 
# from the CCDC's data processing and validation procedures.
#
#######################################################################

data_RENJIF
_chemical_formula_moiety         'C25 H19 N1 O3'
_chemical_name_systematic        
'Ethyl 4-benzyl-5-oxo-4,5-dihydronaphtho[3,2,1-cd]indole-6-carboxylate'
_symmetry_cell_setting           monoclinic
_symmetry_space_group_name_H-M   'P 21/c'
_symmetry_Int_Tables_number      14
_space_group_name_Hall           '-P 2ybc'
loop_
_symmetry_equiv_pos_site_id
_symmetry_equiv_pos_as_xyz
1 x,y,z
2 -x,1/2+y,1/2-z
3 -x,-y,-z
4 x,1/2-y,1/2+z
_cell_length_a                   9.4777(11)
_cell_length_b                   24.893(3)
_cell_length_c                   8.2477(10)
_cell_angle_alpha                90
_cell_angle_beta                 100.390(1)
_cell_angle_gamma                90
_cell_volume                     1913.96
_chemical_melting_point          '182-183 deg.C'
_cell_formula_units_Z            4
loop_
_atom_site_label
_atom_site_type_symbol
_atom_site_fract_x
_atom_site_fract_y
_atom_site_fract_z
C1 C 0.38131(17) 0.66380(7) 0.4779(2)
C2 C 0.41001(18) 0.72018(7) 0.4576(2)
C3 C 0.5370(2) 0.73718(8) 0.4067(3)
H1 H 0.6029 0.7116 0.3856
C4 C 0.5650(3) 0.79016(10) 0.3879(3)
H2 H 0.6495 0.8004 0.3540
C5 C 0.4688(3) 0.82900(9) 0.4187(3)
H3 H 0.4894 0.8651 0.4060
C6 C 0.3439(2) 0.81470(8) 0.4677(3)
H4 H 0.2805 0.8413 0.4885
C7 C 0.30944(19) 0.76020(7) 0.4871(2)
C8 C 0.17742(18) 0.74421(7) 0.5376(2)
C9 C 0.0650(2) 0.77695(8) 0.5738(2)
H5 H 0.0707 0.8141 0.5658
C10 C -0.0522(2) 0.75375(8) 0.6206(3)
H6 H -0.1250 0.7761 0.6426
C11 C -0.0690(2) 0.69785(8) 0.6373(2)
H7 H -0.1505 0.6833 0.6684
C12 C 0.03988(17) 0.66624(7) 0.6055(2)
C13 C 0.15864(17) 0.68968(7) 0.5541(2)
C14 C 0.25641(17) 0.64962(6) 0.5264(2)
C15 C 0.19446(18) 0.59741(7) 0.5695(2)
C16 C -0.03211(19) 0.57105(7) 0.6673(2)
H8 H -0.0006 0.5352 0.6444
H9 H -0.1281 0.5760 0.6046
C17 C -0.03689(17) 0.57555(6) 0.8488(2)
C18 C 0.08249(19) 0.56358(7) 0.9666(2)
H10 H 0.1669 0.5527 0.9337
C19 C 0.0777(2) 0.56762(8) 1.1321(3)
H11 H 0.1583 0.5592 1.2103
C20 C -0.0461(2) 0.58400(9) 1.1817(3)
H12 H -0.0494 0.5866 1.2934
C21 C -0.1643(2) 0.59649(9) 1.0675(3)
H13 H -0.2477 0.6079 1.1015
C22 C -0.16037(19) 0.59217(7) 0.9008(2)
H14 H -0.2415 0.6005 0.8235
C23 C 0.49155(19) 0.62270(8) 0.4574(2)
C24 C 0.5418(2) 0.54486(9) 0.3140(3)
H15 H 0.6205 0.5572 0.2630
H16 H 0.5813 0.5295 0.4205
C25 C 0.4575(4) 0.50486(12) 0.2101(4)
H17 H 0.3772 0.4943 0.2590
H18 H 0.5162 0.4741 0.1999
H19 H 0.4235 0.5199 0.1030
N1 N 0.06351(15) 0.61029(6) 0.61318(17)
O1 O 0.24308(14) 0.55220(5) 0.56982(18)
O2 O 0.60742(15) 0.62032(7) 0.5449(2)
O3 O 0.44709(13) 0.58972(5) 0.33407(17)
loop_
_geom_bond_atom_site_label_1
_geom_bond_atom_site_label_2
_geom_bond_site_symmetry_1
_geom_bond_site_symmetry_2
C1 C2 1_555 1_555
C2 C3 1_555 1_555
C3 H1 1_555 1_555
C4 C3 1_555 1_555
H2 C4 1_555 1_555
C5 C4 1_555 1_555
H3 C5 1_555 1_555
C6 C5 1_555 1_555
H4 C6 1_555 1_555
C7 C2 1_555 1_555
C8 C7 1_555 1_555
C9 C8 1_555 1_555
H5 C9 1_555 1_555
C10 C9 1_555 1_555
H6 C10 1_555 1_555
C11 C10 1_555 1_555
H7 C11 1_555 1_555
C12 C11 1_555 1_555
C13 C8 1_555 1_555
C14 C1 1_555 1_555
C15 C14 1_555 1_555
C16 H8 1_555 1_555
H9 C16 1_555 1_555
C17 C16 1_555 1_555
C18 C17 1_555 1_555
H10 C18 1_555 1_555
C19 C18 1_555 1_555
H11 C19 1_555 1_555
C20 C19 1_555 1_555
H12 C20 1_555 1_555
C21 C20 1_555 1_555
H13 C21 1_555 1_555
C22 C17 1_555 1_555
H14 C22 1_555 1_555
C23 C1 1_555 1_555
C24 H15 1_555 1_555
H16 C24 1_555 1_555
C25 C24 1_555 1_555
H17 C25 1_555 1_555
H18 C25 1_555 1_555
H19 C25 1_555 1_555
N1 C12 1_555 1_555
O1 C15 1_555 1_555
O2 C23 1_555 1_555
O3 C23 1_555 1_555
C6 C7 1_555 1_555
C12 C13 1_555 1_555
C13 C14 1_555 1_555
C15 N1 1_555 1_555
C16 N1 1_555 1_555
C21 C22 1_555 1_555
C24 O3 1_555 1_555

#END
