
#######################################################################
#
#                 Cambridge Crystallographic Data Centre
#                                CCDC 
#
#######################################################################
#
# If this CIF has been generated from an entry in the Cambridge 
# Structural Database, then it will include bibliographic, chemical, 
# crystal, experimental, refinement or atomic coordinate data resulting 
# from the CCDC's data processing and validation procedures.
#
#######################################################################

data_RENSEJ
_chemical_formula_moiety         'C6 H11 N2 1+,C2 F6 N1 O4 S2 1-'
_chemical_name_systematic        
'1-Ethyl-3-methylimidazolium bis(trifluoromethanesulfonlyl)imide'
_symmetry_cell_setting           orthorhombic
_symmetry_space_group_name_H-M   'P c a 21'
_symmetry_Int_Tables_number      29
_space_group_name_Hall           'P 2c -2ac'
loop_
_symmetry_equiv_pos_site_id
_symmetry_equiv_pos_as_xyz
1 x,y,z
2 -x,-y,1/2+z
3 1/2-x,y,1/2+z
4 1/2+x,-y,z
_cell_length_a                   18.499(9)
_cell_length_b                   8.626(8)
_cell_length_c                   19.255(9)
_cell_angle_alpha                90
_cell_angle_beta                 90
_cell_angle_gamma                90
_cell_volume                     3072.57
_exptl_crystal_colour            colorless
_exptl_crystal_description       rod
_chemical_melting_point          '247.3 K'
_cell_formula_units_Z            8
loop_
_atom_site_label
_atom_site_type_symbol
_atom_site_fract_x
_atom_site_fract_y
_atom_site_fract_z
S1 S 0.7828(3) -0.0827(4) -0.2483(2)
S2 S 0.7275(4) 0.2157(5) -0.2720(3)
F1 F 0.7987(15) -0.0187(16) -0.1165(6)
F2 F 0.7182(10) -0.1824(18) -0.1366(7)
F3 F 0.8278(9) -0.2473(14) -0.1451(7)
F4 F 0.7040(10) 0.2728(14) -0.1425(7)
F5 F 0.8131(10) 0.2953(15) -0.1733(7)
F6 F 0.7385(9) 0.4649(13) -0.2007(9)
O1 O 0.7620(9) -0.2211(12) -0.2818(7)
O2 O 0.8521(11) -0.0235(14) -0.2615(7)
O3 O 0.7866(9) 0.2531(12) -0.3159(7)
O4 O 0.6578(9) 0.2691(12) -0.2903(8)
C7 C 0.7835(15) -0.132(3) -0.1615(11)
C8 C 0.7474(17) 0.315(2) -0.1902(11)
N5 N 0.7204(9) 0.0393(18) -0.2545(8)
N1 N 0.7301(11) -0.2964(16) -0.4390(6)
N2 N 0.7822(12) -0.0759(15) -0.4448(7)
C1 C 0.7932(11) -0.2285(16) -0.4423(8)
H1 H 0.8379 -0.2780 -0.4429
C2 C 0.7069(13) -0.054(2) -0.4445(8)
H2 H 0.6827 0.0410 -0.4448
C3 C 0.6773(13) -0.191(3) -0.4435(9)
H3 H 0.6280 -0.2120 -0.4456
C4 C 0.7218(13) -0.467(2) -0.4350(11)
H4 H 0.6766 -0.4923 -0.4120
H5 H 0.7609 -0.5105 -0.4075
C5 C 0.7227(14) -0.543(2) -0.5101(11)
H6 H 0.6879 -0.4921 -0.5391
H7 H 0.7107 -0.6514 -0.5066
H8 H 0.7699 -0.5326 -0.5301
C6 C 0.8378(12) 0.039(2) -0.4574(13)
H9 H 0.8845 -0.0088 -0.4553
H10 H 0.8348 0.1191 -0.4227
H11 H 0.8309 0.0844 -0.5025
N3 N 1.0213(9) 0.1967(13) -0.2839(7)
N4 N 0.9731(10) 0.4252(14) -0.2777(7)
C9 C 0.9618(12) 0.2714(19) -0.2856(8)
H12 H 0.9166 0.2260 -0.2914
C10 C 1.0457(14) 0.442(2) -0.2750(10)
H13 H 1.0705 0.5346 -0.2696
C11 C 1.0751(12) 0.3031(19) -0.2812(9)
H14 H 1.1244 0.2821 -0.2833
C12 C 1.0305(14) 0.0279(18) -0.2875(14)
H15 H 0.9927 -0.0154 -0.3165
H16 H 1.0765 0.0048 -0.3093
C13 C 1.0281(12) -0.046(2) -0.2199(12)
H17 H 1.0752 -0.0428 -0.1991
H18 H 1.0130 -0.1518 -0.2251
H19 H 0.9943 0.0079 -0.1907
C14 C 0.9198(13) 0.543(2) -0.2783(10)
H20 H 0.9190 0.5943 -0.2341
H21 H 0.8733 0.4980 -0.2874
H22 H 0.9310 0.6172 -0.3140
S3 S 0.9734(3) 0.2814(5) 0.0379(3)
S4 S 1.0279(3) 0.5830(4) 0.0237(2)
F7 F 0.9870(10) 0.0382(13) -0.0419(8)
F8 F 1.0588(11) 0.2202(15) -0.0659(7)
F9 F 0.9523(9) 0.2462(13) -0.0979(7)
F10 F 1.0498(10) 0.5331(15) -0.1076(6)
F11 F 0.9643(10) 0.6955(18) -0.0886(7)
F12 F 1.0711(8) 0.7627(12) -0.0750(6)
O5 O 1.0320(8) 0.2370(12) 0.0806(7)
O6 O 0.9045(8) 0.2235(12) 0.0548(8)
O7 O 1.1003(9) 0.5307(15) 0.0367(10)
O8 O 1.0031(9) 0.7204(14) 0.0588(7)
N6 N 0.9655(8) 0.4597(16) 0.0213(8)
C15 C 0.9908(14) 0.194(2) -0.0442(11)
C16 C 1.0249(14) 0.6405(18) -0.0678(10)
loop_
_geom_bond_atom_site_label_1
_geom_bond_atom_site_label_2
_geom_bond_site_symmetry_1
_geom_bond_site_symmetry_2
S1 O1 1_555 1_555
S2 O3 1_555 1_555
F1 C7 1_555 1_555
F2 C7 1_555 1_555
F3 C7 1_555 1_555
F4 C8 1_555 1_555
F5 C8 1_555 1_555
F6 C8 1_555 1_555
O2 S1 1_555 1_555
O4 S2 1_555 1_555
N1 C1 1_555 1_555
N2 C1 1_555 1_555
N3 C9 1_555 1_555
C1 H1 1_555 1_555
C2 N2 1_555 1_555
H2 C2 1_555 1_555
C3 N1 1_555 1_555
H3 C3 1_555 1_555
C4 N1 1_555 1_555
H4 C4 1_555 1_555
H5 C4 1_555 1_555
C5 C4 1_555 1_555
H6 C5 1_555 1_555
H7 C5 1_555 1_555
H8 C5 1_555 1_555
C6 N2 1_555 1_555
H9 C6 1_555 1_555
H10 C6 1_555 1_555
H11 C6 1_555 1_555
C7 S1 1_555 1_555
C8 S2 1_555 1_555
S3 O5 1_555 1_555
S4 O7 1_555 1_555
F7 C15 1_555 1_555
F8 C15 1_555 1_555
F9 C15 1_555 1_555
F10 C16 1_555 1_555
F11 C16 1_555 1_555
F12 C16 1_555 1_555
O6 S3 1_555 1_555
O8 S4 1_555 1_555
N4 C9 1_555 1_555
N5 S1 1_555 1_555
N6 S3 1_555 1_555
C9 H12 1_555 1_555
C10 N4 1_555 1_555
H13 C10 1_555 1_555
C11 N3 1_555 1_555
H14 C11 1_555 1_555
C12 N3 1_555 1_555
H15 C12 1_555 1_555
H16 C12 1_555 1_555
C13 C12 1_555 1_555
H17 C13 1_555 1_555
H18 C13 1_555 1_555
H19 C13 1_555 1_555
C14 N4 1_555 1_555
H20 C14 1_555 1_555
H21 C14 1_555 1_555
H22 C14 1_555 1_555
C15 S3 1_555 1_555
C16 S4 1_555 1_555
S2 N5 1_555 1_555
C2 C3 1_555 1_555
S4 N6 1_555 1_555
C10 C11 1_555 1_555

#END
