
#######################################################################
#
#                 Cambridge Crystallographic Data Centre
#                                CCDC 
#
#######################################################################
#
# If this CIF has been generated from an entry in the Cambridge 
# Structural Database, then it will include bibliographic, chemical, 
# crystal, experimental, refinement or atomic coordinate data resulting 
# from the CCDC's data processing and validation procedures.
#
#######################################################################

data_RENTUC
_chemical_formula_moiety         'C20 H22 N1 O4 1+,C2 H4 O2,Cl1 1-'
_chemical_name_systematic        
'9,10-dimethoxy-5,8,13,13a-tetrahydro-2H,6H-[1,3]dioxolo[4,5-g]isoquinolino[3,2-a]isoquinolin-7-ium chloride acetic acid solvate'
_symmetry_cell_setting           monoclinic
_symmetry_space_group_name_H-M   'P 21/c'
_symmetry_Int_Tables_number      14
_space_group_name_Hall           '-P 2ybc'
loop_
_symmetry_equiv_pos_site_id
_symmetry_equiv_pos_as_xyz
1 x,y,z
2 -x,1/2+y,1/2-z
3 -x,-y,-z
4 x,1/2-y,1/2+z
_cell_length_a                   35.9919(19)
_cell_length_b                   7.4630(5)
_cell_length_c                   16.1702(11)
_cell_angle_alpha                90
_cell_angle_beta                 90
_cell_angle_gamma                90
_cell_volume                     4343.44
_exptl_crystal_colour            yellow
_exptl_crystal_description       block
_cell_formula_units_Z            8
loop_
_atom_site_label
_atom_site_type_symbol
_atom_site_fract_x
_atom_site_fract_y
_atom_site_fract_z
O1 O 0.54629(19) 0.8516(11) 0.2037(5)
O2 O 0.49732(19) 0.9467(13) 0.2861(4)
O3 O 0.2306(2) 0.734(2) -0.0022(5)
O4 O 0.2901(2) 0.7508(14) -0.1044(5)
N1 N 0.3987(2) 0.7479(11) -0.0120(4)
C1 C 0.4433(2) 0.8565(11) 0.0981(6)
C2 C 0.4723(2) 0.7979(13) 0.0482(5)
C3 C 0.5083(3) 0.7908(15) 0.0804(6)
H1 H 0.5280 0.7481 0.0487
C4 C 0.4659(2) 0.7342(13) -0.0395(6)
H2 H 0.4673 0.6044 -0.0409
H3 H 0.4854 0.7808 -0.0748
C5 C 0.4286(2) 0.7934(14) -0.0730(6)
H4 H 0.4288 0.9217 -0.0828
H5 H 0.4237 0.7338 -0.1252
C6 C 0.4494(3) 0.9104(12) 0.1791(6)
H6 H 0.4299 0.9499 0.2122
C7 C 0.4030(3) 0.8586(12) 0.0664(6)
H7 H 0.3959 0.9826 0.0546
C8 C 0.3759(2) 0.7804(15) 0.1298(6)
H8 H 0.3845 0.6626 0.1464
H9 H 0.3757 0.8562 0.1786
C9 C 0.5139(2) 0.8481(13) 0.1592(6)
C10 C 0.4848(3) 0.9039(13) 0.2087(6)
C11 C 0.3305(3) 0.7627(16) 0.0112(6)
C12 C 0.3617(3) 0.7759(16) -0.0503(6)
H10 H 0.3581 0.6871 -0.0933
H11 H 0.3612 0.8933 -0.0760
C13 C 0.3366(3) 0.7649(17) 0.0963(6)
C14 C 0.3071(3) 0.761(2) 0.1488(7)
H12 H 0.3110 0.7693 0.2056
C15 C 0.2714(3) 0.746(2) 0.1189(8)
H13 H 0.2515 0.7421 0.1556
C16 C 0.2949(3) 0.750(2) -0.0197(7)
C17 C 0.2649(3) 0.736(2) 0.0346(8)
C18 C 0.5362(3) 0.9131(18) 0.2841(8)
H14 H 0.5425 0.8232 0.3250
H15 H 0.5497 1.0221 0.2971
C19 C 0.1989(3) 0.727(3) 0.0510(9)
H16 H 0.1969 0.8380 0.0809
H17 H 0.2015 0.6299 0.0893
H18 H 0.1769 0.7098 0.0184
C20 C 0.2745(7) 0.551(3) -0.1419(15)
H19 H 0.2716 0.5589 -0.2008
H20 H 0.2921 0.4585 -0.1289
H21 H 0.2510 0.5227 -0.1171
H22 H 0.402(2) 0.635(13) 0.014(5)
O5 O 0.2099(2) 0.2436(14) -0.1039(5)
O6 O 0.2694(2) 0.251(2) -0.0015(5)
O7 O -0.04653(18) 0.1518(11) 0.2044(5)
O8 O 0.0024(2) 0.0557(13) 0.2858(4)
N2 N 0.1012(2) 0.2451(10) -0.0111(5)
C21 C 0.0568(2) 0.1464(12) 0.0977(6)
C22 C 0.0713(2) 0.2052(13) -0.0726(6)
H23 H 0.0706 0.0775 -0.0836
H24 H 0.0765 0.2667 -0.1242
C23 C 0.1696(3) 0.2295(15) 0.0113(6)
C24 C 0.1630(3) 0.2261(15) 0.0968(6)
C25 C 0.0502(3) 0.0903(13) 0.1791(6)
H25 H 0.0697 0.0495 0.2120
C26 C 0.1385(2) 0.2195(14) -0.0504(6)
H26 H 0.1422 0.3109 -0.0922
H27 H 0.1392 0.1037 -0.0776
C27 C -0.0140(2) 0.1576(12) 0.1591(6)
C28 C 0.0281(2) 0.2017(11) 0.0480(5)
C29 C 0.0346(3) 0.2657(15) -0.0393(6)
H28 H 0.0149 0.2206 -0.0746
H29 H 0.0336 0.3955 -0.0405
C30 C 0.2054(3) 0.239(2) -0.0190(7)
C31 C 0.0148(3) 0.0963(14) 0.2094(6)
C32 C 0.2358(3) 0.241(2) 0.0347(8)
C33 C 0.1934(3) 0.229(2) 0.1489(7)
H30 H 0.1896 0.2225 0.2057
C34 C -0.0368(3) 0.0852(19) 0.2851(8)
H31 H -0.0436 0.1717 0.3272
H32 H -0.0499 -0.0259 0.2962
C35 C 0.2295(3) 0.240(3) 0.1193(8)
H33 H 0.2493 0.2458 0.1560
C36 C 0.1245(2) 0.2164(13) 0.1297(6)
H34 H 0.1165 0.3355 0.1458
H35 H 0.1243 0.1414 0.1787
C37 C 0.0971(2) 0.1401(13) 0.0661(6)
H36 H 0.1037 0.0151 0.0547
C38 C 0.3015(3) 0.252(3) 0.0512(9)
H37 H 0.3043 0.1359 0.0764
H38 H 0.2985 0.3408 0.0935
H39 H 0.3232 0.2786 0.0190
C39 C -0.0087(2) 0.2059(12) 0.0800(6)
H40 H -0.0285 0.2412 0.0470
C40 C 0.2287(6) 0.072(3) -0.1402(12)
H41 H 0.2143 -0.0315 -0.1254
H42 H 0.2533 0.0606 -0.1182
H43 H 0.2299 0.0817 -0.1993
H44 H 0.1008(19) 0.351(11) -0.001(4)
O9 O 0.1196(3) 0.9597(12) 0.3137(5)
O10 O 0.1292(3) 0.7080(11) 0.3816(5)
H45 H 0.1242 0.7689 0.4223
C41 C 0.1458(5) 0.716(2) 0.2426(9)
H46 H 0.1319 0.7514 0.1946
H47 H 0.1436 0.5892 0.2504
H48 H 0.1715 0.7471 0.2350
C42 C 0.1314(4) 0.809(2) 0.3149(7)
O11 O 0.3803(3) 0.0421(12) 0.3133(5)
O12 O 0.3713(3) 0.2937(12) 0.3820(5)
H49 H 0.3812 0.2365 0.4193
C43 C 0.3693(4) 0.192(2) 0.3146(7)
C44 C 0.3539(6) 0.290(3) 0.2429(9)
H50 H 0.3733 0.3122 0.2035
H51 H 0.3436 0.4018 0.2610
H52 H 0.3348 0.2190 0.2175
Cl1 Cl 0.09553(7) 0.6475(3) 0.03695(16)
Cl2 Cl 0.40483(7) 1.3500(3) 0.03679(17)
loop_
_geom_bond_atom_site_label_1
_geom_bond_atom_site_label_2
_geom_bond_site_symmetry_1
_geom_bond_site_symmetry_2
O1 C9 1_555 1_555
O2 C10 1_555 1_555
O3 C17 1_555 1_555
O4 C16 1_555 1_555
N1 C5 1_555 1_555
C1 C2 1_555 1_555
C2 C3 1_555 1_555
C3 H1 1_555 1_555
C4 C2 1_555 1_555
H2 C4 1_555 1_555
H3 C4 1_555 1_555
C5 C4 1_555 1_555
H4 C5 1_555 1_555
H5 C5 1_555 1_555
C6 C1 1_555 1_555
H6 C6 1_555 1_555
C7 N1 1_555 1_555
H7 C7 1_555 1_555
C8 C7 1_555 1_555
H8 C8 1_555 1_555
H9 C8 1_555 1_555
C9 C3 1_555 1_555
C10 C6 1_555 1_555
C11 C12 1_555 1_555
C12 N1 1_555 1_555
H10 C12 1_555 1_555
H11 C12 1_555 1_555
C13 C8 1_555 1_555
C14 C13 1_555 1_555
H12 C14 1_555 1_555
C15 C14 1_555 1_555
H13 C15 1_555 1_555
C16 C11 1_555 1_555
C17 C15 1_555 1_555
C18 O1 1_555 1_555
H14 C18 1_555 1_555
H15 C18 1_555 1_555
C19 O3 1_555 1_555
H16 C19 1_555 1_555
H17 C19 1_555 1_555
H18 C19 1_555 1_555
C20 O4 1_555 1_555
H19 C20 1_555 1_555
H20 C20 1_555 1_555
H21 C20 1_555 1_555
H22 N1 1_555 1_555
O5 C30 1_555 1_555
O6 C32 1_555 1_555
O7 C27 1_555 1_555
O8 C31 1_555 1_555
N2 C22 1_555 1_555
C21 C25 1_555 1_555
C22 H23 1_555 1_555
H24 C22 1_555 1_555
C23 C24 1_555 1_555
C24 C33 1_555 1_555
C25 H25 1_555 1_555
C26 N2 1_555 1_555
H26 C26 1_555 1_555
H27 C26 1_555 1_555
C27 C31 1_555 1_555
C28 C21 1_555 1_555
C29 C22 1_555 1_555
H28 C29 1_555 1_555
H29 C29 1_555 1_555
C30 C23 1_555 1_555
C31 C25 1_555 1_555
C32 C30 1_555 1_555
C33 H30 1_555 1_555
C34 O7 1_555 1_555
H31 C34 1_555 1_555
H32 C34 1_555 1_555
C35 C32 1_555 1_555
H33 C35 1_555 1_555
C36 C24 1_555 1_555
H34 C36 1_555 1_555
H35 C36 1_555 1_555
C37 N2 1_555 1_555
H36 C37 1_555 1_555
C38 O6 1_555 1_555
H37 C38 1_555 1_555
H38 C38 1_555 1_555
H39 C38 1_555 1_555
C39 C27 1_555 1_555
H40 C39 1_555 1_555
C40 O5 1_555 1_555
H41 C40 1_555 1_555
H42 C40 1_555 1_555
H43 C40 1_555 1_555
H44 N2 1_555 1_555
O9 C42 1_555 1_555
O10 H45 1_555 1_555
C41 H46 1_555 1_555
H47 C41 1_555 1_555
H48 C41 1_555 1_555
C42 O10 1_555 1_555
O11 C43 1_555 1_555
O12 H49 1_555 1_555
C43 O12 1_555 1_555
C44 C43 1_555 1_555
H50 C44 1_555 1_555
H51 C44 1_555 1_555
H52 C44 1_555 1_555
O2 C18 1_555 1_555
C1 C7 1_555 1_555
C9 C10 1_555 1_555
C11 C13 1_555 1_555
C16 C17 1_555 1_555
O8 C34 1_555 1_555
C21 C37 1_555 1_555
C23 C26 1_555 1_555
C28 C29 1_555 1_555
C28 C39 1_555 1_555
C33 C35 1_555 1_555
C36 C37 1_555 1_555
C41 C42 1_555 1_555

#END
