
#######################################################################
#
#                 Cambridge Crystallographic Data Centre
#                                CCDC 
#
#######################################################################
#
# If this CIF has been generated from an entry in the Cambridge 
# Structural Database, then it will include bibliographic, chemical, 
# crystal, experimental, refinement or atomic coordinate data resulting 
# from the CCDC's data processing and validation procedures.
#
#######################################################################

data_RENXOA
_chemical_formula_moiety         'C35 H23 N1'
_chemical_name_systematic        1,3,4-triphenyldibenzo[f,h]isoquinoline
_symmetry_cell_setting           monoclinic
_symmetry_space_group_name_H-M   'P 21/c'
_symmetry_Int_Tables_number      14
_space_group_name_Hall           '-P 2ybc'
loop_
_symmetry_equiv_pos_site_id
_symmetry_equiv_pos_as_xyz
1 x,y,z
2 -x,1/2+y,1/2-z
3 -x,-y,-z
4 x,1/2-y,1/2+z
_cell_length_a                   9.6484(9)
_cell_length_b                   14.1234(14)
_cell_length_c                   18.0080(17)
_cell_angle_alpha                90
_cell_angle_beta                 99.071(2)
_cell_angle_gamma                90
_cell_volume                     2423.23
_exptl_crystal_colour            colorless
_cell_formula_units_Z            4
loop_
_atom_site_label
_atom_site_type_symbol
_atom_site_fract_x
_atom_site_fract_y
_atom_site_fract_z
N1 N 0.77067(17) 0.38235(10) 0.65979(9)
C1 C 0.7394(2) 0.46905(13) 0.68064(10)
C2 C 0.7364(2) 0.54796(12) 0.63174(10)
C3 C 0.7260(2) 0.52816(13) 0.55423(10)
C4 C 0.7609(2) 0.43540(13) 0.53263(10)
C5 C 0.7926(2) 0.36758(12) 0.58872(10)
C6 C 0.6952(2) 0.47230(13) 0.75611(10)
C7 C 0.5704(2) 0.51570(14) 0.76552(12)
H1 H 0.5185 0.5482 0.7256
C8 C 0.5228(3) 0.51101(17) 0.83345(16)
H2 H 0.4380 0.5393 0.8390
C9 C 0.6002(4) 0.46467(19) 0.89319(15)
H3 H 0.5685 0.4628 0.9393
C10 C 0.7233(3) 0.42138(18) 0.88496(13)
H4 H 0.7753 0.3899 0.9254
C11 C 0.7708(3) 0.42443(15) 0.81646(11)
H5 H 0.8541 0.3941 0.8108
C12 C 0.7510(2) 0.64617(13) 0.65817(11)
C13 C 0.7281(2) 0.72032(13) 0.60567(12)
C14 C 0.7541(3) 0.81349(15) 0.63116(14)
H6 H 0.7379 0.8632 0.5970
C15 C 0.8027(3) 0.83268(17) 0.70476(15)
H7 H 0.8174 0.8951 0.7204
C16 C 0.8300(3) 0.76011(16) 0.75614(13)
H8 H 0.8652 0.7733 0.8062
C17 C 0.8050(2) 0.66858(14) 0.73311(12)
H9 H 0.8243 0.6199 0.7680
C18 C 0.6784(2) 0.60473(13) 0.50090(11)
C19 C 0.6798(2) 0.69914(13) 0.52656(12)
C20 C 0.6341(2) 0.77073(15) 0.47451(13)
H10 H 0.6347 0.8332 0.4909
C21 C 0.5885(3) 0.75129(16) 0.40034(14)
H11 H 0.5639 0.8004 0.3664
C22 C 0.5792(2) 0.65922(15) 0.37615(13)
H12 H 0.5446 0.6455 0.3262
C23 C 0.6210(2) 0.58755(14) 0.42564(11)
H13 H 0.6110 0.5253 0.4088
C24 C 0.7692(2) 0.40705(14) 0.45351(11)
C25 C 0.8689(3) 0.44654(19) 0.41509(12)
H14 H 0.9293 0.4931 0.4379
C26 C 0.8784(3) 0.4170(3) 0.34318(16)
H15 H 0.9455 0.4433 0.3175
C27 C 0.7892(4) 0.3488(3) 0.30950(17)
H16 H 0.7977 0.3277 0.2615
C28 C 0.6875(4) 0.31125(18) 0.34588(15)
H17 H 0.6250 0.2667 0.3218
C29 C 0.6780(3) 0.33958(14) 0.41818(12)
H18 H 0.6100 0.3132 0.4432
C30 C 0.8473(2) 0.27074(13) 0.57716(10)
C31 C 0.9638(2) 0.25442(15) 0.54302(12)
H19 H 1.0062 0.3046 0.5219
C32 C 1.0173(3) 0.16449(17) 0.54013(14)
H20 H 1.0958 0.1546 0.5171
C33 C 0.9567(3) 0.08949(17) 0.57058(13)
H21 H 0.9946 0.0291 0.5692
C34 C 0.8402(3) 0.10418(15) 0.60297(13)
H22 H 0.7968 0.0534 0.6228
C35 C 0.7866(3) 0.19381(14) 0.60644(11)
H23 H 0.7075 0.2028 0.6291
loop_
_geom_bond_atom_site_label_1
_geom_bond_atom_site_label_2
_geom_bond_site_symmetry_1
_geom_bond_site_symmetry_2
N1 C1 1_555 1_555
C1 C2 1_555 1_555
C2 C3 1_555 1_555
C3 C4 1_555 1_555
C4 C5 1_555 1_555
C5 N1 1_555 1_555
C6 C1 1_555 1_555
C7 C6 1_555 1_555
H1 C7 1_555 1_555
C8 C7 1_555 1_555
H2 C8 1_555 1_555
C9 C8 1_555 1_555
H3 C9 1_555 1_555
C10 C9 1_555 1_555
H4 C10 1_555 1_555
C11 C6 1_555 1_555
H5 C11 1_555 1_555
C12 C2 1_555 1_555
C13 C12 1_555 1_555
C14 C13 1_555 1_555
H6 C14 1_555 1_555
C15 C14 1_555 1_555
H7 C15 1_555 1_555
C16 C15 1_555 1_555
H8 C16 1_555 1_555
C17 C12 1_555 1_555
H9 C17 1_555 1_555
C18 C3 1_555 1_555
C19 C13 1_555 1_555
C20 C19 1_555 1_555
H10 C20 1_555 1_555
C21 C20 1_555 1_555
H11 C21 1_555 1_555
C22 C21 1_555 1_555
H12 C22 1_555 1_555
C23 C18 1_555 1_555
H13 C23 1_555 1_555
C24 C4 1_555 1_555
C25 C24 1_555 1_555
H14 C25 1_555 1_555
C26 C25 1_555 1_555
H15 C26 1_555 1_555
C27 C26 1_555 1_555
H16 C27 1_555 1_555
C28 C27 1_555 1_555
H17 C28 1_555 1_555
C29 C24 1_555 1_555
H18 C29 1_555 1_555
C30 C5 1_555 1_555
C31 C30 1_555 1_555
H19 C31 1_555 1_555
C32 C31 1_555 1_555
H20 C32 1_555 1_555
C33 C32 1_555 1_555
H21 C33 1_555 1_555
C34 C33 1_555 1_555
H22 C34 1_555 1_555
C35 C30 1_555 1_555
H23 C35 1_555 1_555
C10 C11 1_555 1_555
C16 C17 1_555 1_555
C18 C19 1_555 1_555
C22 C23 1_555 1_555
C28 C29 1_555 1_555
C34 C35 1_555 1_555

#END
