
#######################################################################
#
#                 Cambridge Crystallographic Data Centre
#                                CCDC 
#
#######################################################################
#
# If this CIF has been generated from an entry in the Cambridge 
# Structural Database, then it will include bibliographic, chemical, 
# crystal, experimental, refinement or atomic coordinate data resulting 
# from the CCDC's data processing and validation procedures.
#
#######################################################################

data_REPSEM
_chemical_formula_moiety         'C23 H21 N1 O5 S1'
_chemical_name_systematic        
2-((4-Methylphenyl)sulfonyl)-3-(3-oxobut-1-en-2-yl)-2,3,4,4a-tetrahydro-10H-chromeno[3,2-c]pyridin-10-one
_symmetry_cell_setting           triclinic
_symmetry_space_group_name_H-M   'P -1'
_symmetry_Int_Tables_number      2
_space_group_name_Hall           '-P 1'
loop_
_symmetry_equiv_pos_site_id
_symmetry_equiv_pos_as_xyz
1 x,y,z
2 -x,-y,-z
_cell_length_a                   7.8575(16)
_cell_length_b                   8.2529(17)
_cell_length_c                   17.024(3)
_cell_angle_alpha                100.47(3)
_cell_angle_beta                 92.60(3)
_cell_angle_gamma                108.88(3)
_cell_volume                     1020.71
_cell_formula_units_Z            2
loop_
_atom_site_label
_atom_site_type_symbol
_atom_site_fract_x
_atom_site_fract_y
_atom_site_fract_z
S1 S 0.83680(6) 0.83813(6) 0.29948(3)
O1 O 0.48618(18) 0.3458(2) 0.05068(9)
O2 O 0.09673(15) 0.45595(16) 0.17340(8)
O3 O 0.3447(2) 1.05382(18) 0.37638(9)
O4 O 0.86265(18) 1.00614(16) 0.34763(9)
O5 O 0.95705(16) 0.81434(16) 0.24144(8)
N1 N 0.63296(18) 0.77521(19) 0.24786(9)
C1 C 0.3720(2) 0.4028(2) 0.07973(11)
C2 C 0.1788(2) 0.3267(2) 0.04822(11)
C3 C 0.1205(3) 0.2197(3) -0.02796(12)
H1 H 0.2053 0.1975 -0.0608
C4 C -0.0603(3) 0.1466(3) -0.05514(13)
H2 H -0.0980 0.0762 -0.1063
C5 C -0.1860(3) 0.1783(3) -0.00591(13)
H3 H -0.3087 0.1281 -0.0240
C6 C -0.1322(3) 0.2826(3) 0.06902(13)
H4 H -0.2181 0.3029 0.1017
C7 C 0.0492(2) 0.3576(2) 0.09627(11)
C8 C 0.2622(2) 0.6024(2) 0.18293(11)
H5 H 0.2428 0.6904 0.1553
C9 C 0.3118(2) 0.6799(2) 0.27162(10)
H6 H 0.3227 0.5906 0.2996
H7 H 0.2167 0.7203 0.2927
C10 C 0.4906(2) 0.8329(2) 0.28668(11)
H8 H 0.5270 0.8681 0.3448
C11 C 0.5836(2) 0.6330(2) 0.18382(11)
H9 H 0.6744 0.5944 0.1631
C12 C 0.4140(2) 0.5481(2) 0.14996(10)
C13 C 0.5324(3) 1.0378(3) 0.19176(13)
H10 H 0.5162 1.1355 0.1771
H11 H 0.5929 0.9751 0.1602
C14 C 0.4696(2) 0.9883(2) 0.25743(11)
C15 C 0.3718(2) 1.0843(2) 0.31012(13)
C16 C 0.3096(3) 1.2197(3) 0.28120(14)
H12 H 0.2302 1.2530 0.3170
H13 H 0.2463 1.1719 0.2281
H14 H 0.4127 1.3207 0.2800
C17 C 0.8170(2) 0.6871(2) 0.36150(11)
C18 C 0.8376(2) 0.5282(2) 0.33106(11)
H15 H 0.8689 0.5048 0.2792
C19 C 0.8115(2) 0.4049(2) 0.37830(12)
H16 H 0.8260 0.2984 0.3578
C20 C 0.7640(3) 0.4357(3) 0.45554(12)
C21 C 0.7464(3) 0.5957(3) 0.48422(13)
H17 H 0.7162 0.6196 0.5362
C22 C 0.7720(3) 0.7216(3) 0.43873(13)
H18 H 0.7591 0.8286 0.4597
C23 C 0.7340(3) 0.2990(3) 0.50562(13)
H19 H 0.7667 0.2029 0.4781
H20 H 0.6088 0.2578 0.5144
H21 H 0.8076 0.3488 0.5564
loop_
_geom_bond_atom_site_label_1
_geom_bond_atom_site_label_2
_geom_bond_site_symmetry_1
_geom_bond_site_symmetry_2
S1 O4 1_555 1_555
O1 C1 1_555 1_555
O2 C7 1_555 1_555
O3 C15 1_555 1_555
O5 S1 1_555 1_555
N1 S1 1_555 1_555
C1 C2 1_555 1_555
C2 C3 1_555 1_555
C3 H1 1_555 1_555
C4 C3 1_555 1_555
H2 C4 1_555 1_555
C5 C4 1_555 1_555
H3 C5 1_555 1_555
C6 C5 1_555 1_555
H4 C6 1_555 1_555
C7 C2 1_555 1_555
C8 O2 1_555 1_555
H5 C8 1_555 1_555
C9 C8 1_555 1_555
H6 C9 1_555 1_555
H7 C9 1_555 1_555
C10 N1 1_555 1_555
H8 C10 1_555 1_555
C11 N1 1_555 1_555
H9 C11 1_555 1_555
C12 C1 1_555 1_555
C13 H10 1_555 1_555
H11 C13 1_555 1_555
C14 C10 1_555 1_555
C15 C14 1_555 1_555
C16 C15 1_555 1_555
H12 C16 1_555 1_555
H13 C16 1_555 1_555
H14 C16 1_555 1_555
C17 S1 1_555 1_555
C18 C17 1_555 1_555
H15 C18 1_555 1_555
C19 C18 1_555 1_555
H16 C19 1_555 1_555
C20 C19 1_555 1_555
C21 C20 1_555 1_555
H17 C21 1_555 1_555
C22 C17 1_555 1_555
H18 C22 1_555 1_555
C23 C20 1_555 1_555
H19 C23 1_555 1_555
H20 C23 1_555 1_555
H21 C23 1_555 1_555
C6 C7 1_555 1_555
C8 C12 1_555 1_555
C9 C10 1_555 1_555
C11 C12 1_555 1_555
C13 C14 1_555 1_555
C21 C22 1_555 1_555

#END
