
#######################################################################
#
#                 Cambridge Crystallographic Data Centre
#                                CCDC 
#
#######################################################################
#
# If this CIF has been generated from an entry in the Cambridge 
# Structural Database, then it will include bibliographic, chemical, 
# crystal, experimental, refinement or atomic coordinate data resulting 
# from the CCDC's data processing and validation procedures.
#
#######################################################################

data_REQFUQ
_chemical_formula_moiety         'C29 H30 N4 O2,0.25(C1 H4 O1)'
_chemical_name_systematic        
"3',6'-bis(Diethylamino)-3-oxospiro[isoindole-1,9'-xanthene]-2(3H)-carbonitrile methanol solvate"
_symmetry_cell_setting           triclinic
_symmetry_space_group_name_H-M   'P -1'
_symmetry_Int_Tables_number      2
_space_group_name_Hall           '-P 1'
loop_
_symmetry_equiv_pos_site_id
_symmetry_equiv_pos_as_xyz
1 x,y,z
2 -x,-y,-z
_cell_length_a                   11.2094(16)
_cell_length_b                   14.479(2)
_cell_length_c                   16.455(2)
_cell_angle_alpha                80.674(3)
_cell_angle_beta                 86.095(3)
_cell_angle_gamma                75.836(3)
_cell_volume                     2554.11
_exptl_crystal_colour            colorless
_exptl_crystal_description       plate
_cell_formula_units_Z            4
loop_
_atom_site_label
_atom_site_type_symbol
_atom_site_fract_x
_atom_site_fract_y
_atom_site_fract_z
O1 O 0.15415(12) 0.44201(10) 0.16477(8)
O2 O 0.30031(12) 0.85049(9) 0.12116(8)
N1 N 0.17867(14) 0.59892(11) 0.13817(10)
N2 N 0.14487(17) 0.62827(13) -0.01272(12)
N3 N -0.10929(15) 1.04098(12) 0.12217(10)
N4 N 0.70947(15) 0.69171(12) 0.05280(10)
C1 C 0.22669(18) 0.66862(14) 0.17924(12)
C2 C 0.23501(17) 0.61312(14) 0.26675(12)
C3 C 0.27261(17) 0.63961(15) 0.33583(12)
H1 H 0.2901 0.7009 0.3340
C4 C 0.28406(18) 0.57394(15) 0.40812(13)
H2 H 0.3092 0.5910 0.4565
C5 C 0.25949(19) 0.48388(15) 0.41113(13)
H3 H 0.2698 0.4398 0.4610
C6 C 0.22030(18) 0.45793(15) 0.34242(13)
H4 H 0.2018 0.3970 0.3442
C7 C 0.20878(17) 0.52374(14) 0.27072(12)
C8 C 0.17710(17) 0.51022(15) 0.18885(13)
C9 C 0.16048(18) 0.61398(14) 0.05685(14)
C10 C 0.13841(18) 0.76716(14) 0.16827(12)
C11 C 0.01189(18) 0.77984(14) 0.18462(12)
H5 H -0.0191 0.7249 0.2058
C12 C -0.06961(18) 0.86835(14) 0.17128(12)
H6 H -0.1547 0.8732 0.1837
C13 C -0.02866(19) 0.95227(15) 0.13929(12)
C14 C 0.09840(18) 0.94041(14) 0.12377(12)
H7 H 0.1304 0.9949 0.1030
C15 C 0.17770(18) 0.85005(14) 0.13836(12)
C16 C 0.38364(18) 0.76256(14) 0.11937(12)
C17 C 0.50023(18) 0.76968(14) 0.09006(12)
H8 H 0.5172 0.8314 0.0743
C18 C 0.59345(18) 0.68664(15) 0.08341(12)
C19 C 0.56198(18) 0.59722(15) 0.10716(12)
H9 H 0.6220 0.5392 0.1024
C20 C 0.44650(18) 0.59314(15) 0.13688(12)
H10 H 0.4291 0.5317 0.1535
C21 C 0.35279(18) 0.67540(14) 0.14387(12)
C22 C -0.23649(18) 1.05858(15) 0.15392(13)
H11 H -0.2601 1.1237 0.1701
H12 H -0.2416 1.0114 0.2040
C23 C -0.3274(2) 1.05131(17) 0.09285(14)
H13 H -0.3259 1.0998 0.0440
H14 H -0.4103 1.0625 0.1183
H15 H -0.3051 0.9869 0.0767
C24 C -0.06774(19) 1.12590(14) 0.08196(13)
H16 H -0.1379 1.1726 0.0537
H17 H -0.0037 1.1064 0.0395
C25 C -0.01579(19) 1.17532(15) 0.14138(12)
H18 H -0.0789 1.1956 0.1833
H19 H 0.0093 1.2319 0.1110
H20 H 0.0558 1.1303 0.1681
C26 C 0.80621(18) 0.60440(15) 0.04742(13)
H21 H 0.8717 0.6206 0.0082
H22 H 0.7713 0.5574 0.0252
C27 C 0.8630(2) 0.55770(16) 0.12960(14)
H23 H 0.9016 0.6025 0.1508
H24 H 0.9254 0.4988 0.1223
H25 H 0.7988 0.5416 0.1689
C28 C 0.74409(19) 0.78329(15) 0.03486(13)
H26 H 0.8343 0.7718 0.0396
H27 H 0.7042 0.8242 0.0765
C29 C 0.7080(2) 0.83706(16) -0.05053(13)
H28 H 0.7497 0.7981 -0.0922
H29 H 0.7324 0.8985 -0.0589
H30 H 0.6187 0.8492 -0.0555
O3 O 0.39504(13) 0.24250(10) 0.39729(9)
O4 O 0.92899(12) 0.33997(10) 0.35051(8)
N5 N 0.58355(14) 0.28258(12) 0.39449(10)
N6 N 0.61646(16) 0.23759(13) 0.54532(11)
N7 N 1.12584(15) 0.00961(12) 0.35515(10)
N8 N 0.77902(15) 0.67247(12) 0.36684(10)
C30 C 0.68215(18) 0.30938(14) 0.33336(12)
C31 C 0.61533(18) 0.31539(13) 0.25415(13)
C32 C 0.65712(19) 0.33735(13) 0.17425(12)
H31 H 0.7359 0.3508 0.1629
C33 C 0.58022(19) 0.33914(14) 0.11080(13)
H32 H 0.6075 0.3539 0.0553
C34 C 0.46432(19) 0.31984(15) 0.12652(13)
H33 H 0.4132 0.3228 0.0820
C35 C 0.42327(19) 0.29645(14) 0.20640(13)
H34 H 0.3448 0.2825 0.2179
C36 C 0.50095(18) 0.29409(14) 0.26958(12)
C37 C 0.47921(19) 0.26961(14) 0.35855(13)
C38 C 0.60126(18) 0.25827(15) 0.47589(14)
C39 C 0.79895(18) 0.23013(14) 0.34167(12)
C40 C 0.79784(19) 0.13425(15) 0.34085(12)
H35 H 0.7212 0.1186 0.3366
C41 C 0.90325(19) 0.06132(15) 0.34591(12)
H36 H 0.8980 -0.0031 0.3454
C42 C 1.01984(19) 0.08149(15) 0.35184(12)
C43 C 1.02142(18) 0.17740(14) 0.35336(12)
H37 H 1.0975 0.1938 0.3577
C44 C 0.91288(18) 0.24895(14) 0.34856(12)
C45 C 0.82564(18) 0.41491(14) 0.35147(12)
C46 C 0.85030(19) 0.50184(14) 0.35975(12)
H38 H 0.9330 0.5051 0.3650
C47 C 0.75590(19) 0.58487(15) 0.36056(12)
C48 C 0.63422(19) 0.57485(15) 0.35434(12)
H39 H 0.5668 0.6292 0.3558
C49 C 0.61300(19) 0.48743(15) 0.34631(12)
H40 H 0.5305 0.4834 0.3416
C50 C 0.70728(18) 0.40400(14) 0.34480(12)
C51 C 1.12297(19) -0.09033(14) 0.35471(13)
H41 H 1.2056 -0.1265 0.3383
H42 H 1.0644 -0.0927 0.3131
C52 C 1.08523(19) -0.13885(15) 0.43790(13)
H43 H 1.1374 -0.1307 0.4804
H44 H 1.0950 -0.2077 0.4363
H45 H 0.9990 -0.1095 0.4507
C53 C 1.24536(19) 0.02786(16) 0.36669(14)
H46 H 1.2987 -0.0310 0.3965
H47 H 1.2343 0.0797 0.4010
C54 C 1.3086(2) 0.05735(18) 0.28464(16)
H48 H 1.3209 0.0057 0.2509
H49 H 1.3885 0.0687 0.2950
H50 H 1.2570 0.1165 0.2555
C55 C 0.6784(2) 0.75584(16) 0.37769(14)
H51 H 0.7094 0.7997 0.4067
H52 H 0.6130 0.7335 0.4132
C56 C 0.6223(2) 0.81203(18) 0.29761(16)
H53 H 0.6846 0.8391 0.2638
H54 H 0.5528 0.8643 0.3098
H55 H 0.5935 0.7689 0.2676
C57 C 0.90273(19) 0.68037(15) 0.38219(12)
H56 H 0.9086 0.7477 0.3639
H57 H 0.9629 0.6389 0.3485
C58 C 0.9375(2) 0.65167(16) 0.47198(13)
H58 H 0.8792 0.6929 0.5058
H59 H 1.0208 0.6593 0.4780
H60 H 0.9350 0.5843 0.4901
O5 O 0.467(2) 0.0057(13) 0.5271(10)
C59 C 0.4102(14) -0.0019(12) 0.6086(9)
O6? O 0.4463(11) 0.0579(9) 0.5161(7)
C60? C 0.537(2) 0.0142(17) 0.4562(13)
loop_
_geom_bond_atom_site_label_1
_geom_bond_atom_site_label_2
_geom_bond_site_symmetry_1
_geom_bond_site_symmetry_2
O1 C8 1_555 1_555
O2 C15 1_555 1_555
N1 C1 1_555 1_555
N2 C9 1_555 1_555
N3 C13 1_555 1_555
N4 C18 1_555 1_555
C1 C2 1_555 1_555
C2 C3 1_555 1_555
C3 H1 1_555 1_555
C4 C3 1_555 1_555
H2 C4 1_555 1_555
C5 C4 1_555 1_555
H3 C5 1_555 1_555
C6 C5 1_555 1_555
H4 C6 1_555 1_555
C7 C2 1_555 1_555
C8 N1 1_555 1_555
C9 N1 1_555 1_555
C10 C1 1_555 1_555
C11 C10 1_555 1_555
H5 C11 1_555 1_555
C12 C11 1_555 1_555
H6 C12 1_555 1_555
C13 C12 1_555 1_555
C14 C13 1_555 1_555
H7 C14 1_555 1_555
C15 C10 1_555 1_555
C16 O2 1_555 1_555
C17 C16 1_555 1_555
H8 C17 1_555 1_555
C18 C17 1_555 1_555
C19 C18 1_555 1_555
H9 C19 1_555 1_555
C20 C19 1_555 1_555
H10 C20 1_555 1_555
C21 C1 1_555 1_555
C22 N3 1_555 1_555
H11 C22 1_555 1_555
H12 C22 1_555 1_555
C23 C22 1_555 1_555
H13 C23 1_555 1_555
H14 C23 1_555 1_555
H15 C23 1_555 1_555
C24 N3 1_555 1_555
H16 C24 1_555 1_555
H17 C24 1_555 1_555
C25 C24 1_555 1_555
H18 C25 1_555 1_555
H19 C25 1_555 1_555
H20 C25 1_555 1_555
C26 N4 1_555 1_555
H21 C26 1_555 1_555
H22 C26 1_555 1_555
C27 C26 1_555 1_555
H23 C27 1_555 1_555
H24 C27 1_555 1_555
H25 C27 1_555 1_555
C28 N4 1_555 1_555
H26 C28 1_555 1_555
H27 C28 1_555 1_555
C29 C28 1_555 1_555
H28 C29 1_555 1_555
H29 C29 1_555 1_555
H30 C29 1_555 1_555
O3 C37 1_555 1_555
O4 C44 1_555 1_555
N5 C30 1_555 1_555
N6 C38 1_555 1_555
N7 C42 1_555 1_555
N8 C47 1_555 1_555
C30 C31 1_555 1_555
C31 C32 1_555 1_555
C32 H31 1_555 1_555
C33 C32 1_555 1_555
H32 C33 1_555 1_555
C34 C33 1_555 1_555
H33 C34 1_555 1_555
C35 C34 1_555 1_555
H34 C35 1_555 1_555
C36 C31 1_555 1_555
C37 N5 1_555 1_555
C38 N5 1_555 1_555
C39 C30 1_555 1_555
C40 C39 1_555 1_555
H35 C40 1_555 1_555
C41 C40 1_555 1_555
H36 C41 1_555 1_555
C42 C41 1_555 1_555
C43 C42 1_555 1_555
H37 C43 1_555 1_555
C44 C39 1_555 1_555
C45 O4 1_555 1_555
C46 C45 1_555 1_555
H38 C46 1_555 1_555
C47 C46 1_555 1_555
C48 C47 1_555 1_555
H39 C48 1_555 1_555
C49 C48 1_555 1_555
H40 C49 1_555 1_555
C50 C30 1_555 1_555
C51 N7 1_555 1_555
H41 C51 1_555 1_555
H42 C51 1_555 1_555
C52 C51 1_555 1_555
H43 C52 1_555 1_555
H44 C52 1_555 1_555
H45 C52 1_555 1_555
C53 N7 1_555 1_555
H46 C53 1_555 1_555
H47 C53 1_555 1_555
C54 C53 1_555 1_555
H48 C54 1_555 1_555
H49 C54 1_555 1_555
H50 C54 1_555 1_555
C55 N8 1_555 1_555
H51 C55 1_555 1_555
H52 C55 1_555 1_555
C56 C55 1_555 1_555
H53 C56 1_555 1_555
H54 C56 1_555 1_555
H55 C56 1_555 1_555
C57 N8 1_555 1_555
H56 C57 1_555 1_555
H57 C57 1_555 1_555
C58 C57 1_555 1_555
H58 C58 1_555 1_555
H59 C58 1_555 1_555
H60 C58 1_555 1_555
O5 C59 1_555 1_555
C6 C7 1_555 1_555
C7 C8 1_555 1_555
C14 C15 1_555 1_555
C16 C21 1_555 1_555
C20 C21 1_555 1_555
C35 C36 1_555 1_555
C36 C37 1_555 1_555
C43 C44 1_555 1_555
C45 C50 1_555 1_555
C49 C50 1_555 1_555

#END
