
#######################################################################
#
#                 Cambridge Crystallographic Data Centre
#                                CCDC 
#
#######################################################################
#
# If this CIF has been generated from an entry in the Cambridge 
# Structural Database, then it will include bibliographic, chemical, 
# crystal, experimental, refinement or atomic coordinate data resulting 
# from the CCDC's data processing and validation procedures.
#
#######################################################################

data_REQLIL
_chemical_formula_moiety         'C34 H42 N4 O2 S2,C1 H2 Cl2,0.5(H2 O1)'
_chemical_name_systematic        
'N^1^,N^4^-bis{[2,6-bis(propan-2-yl)phenyl]carbamothioyl}benzene-1,4-dicarboxamide dichloromethane solvate hemihydrate'
_symmetry_cell_setting           monoclinic
_symmetry_space_group_name_H-M   'P 21/n'
_symmetry_Int_Tables_number      14
_space_group_name_Hall           '-P 2yn'
loop_
_symmetry_equiv_pos_site_id
_symmetry_equiv_pos_as_xyz
1 x,y,z
2 1/2-x,1/2+y,1/2-z
3 -x,-y,-z
4 1/2+x,1/2-y,1/2+z
_cell_length_a                   13.1765(16)
_cell_length_b                   35.230(4)
_cell_length_c                   15.9762(19)
_cell_angle_alpha                90
_cell_angle_beta                 90.651(7)
_cell_angle_gamma                90
_cell_volume                     7415.8
_exptl_crystal_colour            colorless
_exptl_crystal_description       block
_cell_formula_units_Z            8
loop_
_atom_site_label
_atom_site_type_symbol
_atom_site_fract_x
_atom_site_fract_y
_atom_site_fract_z
S1 S 0.33027(10) 0.37703(4) 0.67564(10)
S2 S 1.03838(10) 0.35861(3) 1.00889(8)
O1 O 0.4694(3) 0.49030(10) 0.7428(3)
O2 O 0.9113(2) 0.47700(9) 0.9797(2)
N1 N 0.4510(3) 0.42641(11) 0.7512(2)
H1 H 0.4776 0.4064 0.7729
N2 N 0.3135(3) 0.45212(11) 0.6817(2)
H2 H 0.3357 0.4732 0.7018
N3 N 0.9129(2) 0.41400(10) 0.9666(2)
H3 H 0.8791 0.3956 0.9446
N4 N 1.0512(3) 0.43155(10) 1.0481(2)
H4 H 1.0310 0.4545 1.0402
C1 C 0.3640(3) 0.42066(13) 0.7019(3)
C2 C 0.4987(3) 0.45942(14) 0.7690(3)
C3 C 1.0015(3) 0.40374(12) 1.0097(3)
C4 C 0.8731(3) 0.44932(12) 0.9548(3)
C5 C 0.5939(3) 0.45610(13) 0.8201(3)
C6 C 0.6075(3) 0.42880(13) 0.8810(3)
H5 H 0.5552 0.4120 0.8927
C7 C 0.6981(3) 0.42622(12) 0.9248(3)
H6 H 0.7070 0.4076 0.9655
C8 C 0.7750(3) 0.45120(12) 0.9080(3)
C9 C 0.7607(3) 0.47944(12) 0.8490(3)
H7 H 0.8123 0.4968 0.8391
C10 C 0.6711(3) 0.48194(13) 0.8049(3)
H8 H 0.6620 0.5009 0.7649
C11 C 0.2240(3) 0.45344(13) 0.6284(3)
C12 C 0.2357(4) 0.46514(13) 0.5463(3)
C13 C 0.1483(4) 0.46784(15) 0.4962(3)
H9 H 0.1530 0.4761 0.4410
C14 C 0.0554(4) 0.45832(16) 0.5286(4)
H10 H -0.0023 0.4596 0.4946
C15 C 0.0465(4) 0.44700(15) 0.6097(3)
H11 H -0.0172 0.4409 0.6303
C16 C 0.1315(3) 0.44441(13) 0.6627(3)
C17 C 0.1183(4) 0.43366(15) 0.7537(3)
H12 H 0.1863 0.4299 0.7779
C18 C 0.0694(5) 0.4655(2) 0.8012(4)
H13 H 0.0030 0.4703 0.7783
H14 H 0.1101 0.4879 0.7967
H15 H 0.0639 0.4585 0.8591
C19 C 0.0609(5) 0.39658(19) 0.7634(4)
H16 H 0.0646 0.3885 0.8207
H17 H 0.0907 0.3776 0.7282
H18 H -0.0088 0.4003 0.7473
C20 C 0.3384(4) 0.47524(17) 0.5104(3)
H19 H 0.3839 0.4807 0.5579
C21 C 0.3824(6) 0.4419(3) 0.4645(7)
H20 H 0.3431 0.4372 0.4146
H21 H 0.3808 0.4199 0.4998
H22 H 0.4513 0.4474 0.4498
C22 C 0.3368(6) 0.5100(3) 0.4558(5)
H23 H 0.4049 0.5166 0.4409
H24 H 0.3067 0.5307 0.4857
H25 H 0.2977 0.5049 0.4060
C23 C 1.1384(3) 0.42501(12) 1.1031(3)
C24 C 1.2344(4) 0.42381(13) 1.0687(3)
C25 C 1.3157(4) 0.41855(16) 1.1239(4)
H26 H 1.3813 0.4177 1.1031
C26 C 1.3011(5) 0.41466(19) 1.2073(4)
H27 H 1.3567 0.4114 1.2429
C27 C 1.2063(5) 0.41549(19) 1.2396(4)
H28 H 1.1977 0.4124 1.2969
C28 C 1.1215(4) 0.42089(14) 1.1877(3)
C29 C 1.0158(4) 0.42078(18) 1.2244(3)
H29 H 0.9708 0.4331 1.1833
C30 C 1.0084(6) 0.4433(2) 1.3049(4)
H30 H 1.0466 0.4307 1.3483
H31 H 0.9386 0.4451 1.3210
H32 H 1.0354 0.4683 1.2965
C31 C 0.9765(6) 0.3808(2) 1.2368(5)
H33 H 1.0260 0.3662 1.2675
H34 H 0.9643 0.3692 1.1833
H35 H 0.9144 0.3816 1.2675
C32 C 1.2534(4) 0.42753(16) 0.9760(3)
H36 H 1.1871 0.4302 0.9481
C33 C 1.3139(6) 0.46250(19) 0.9563(4)
H37 H 1.3796 0.4608 0.9826
H38 H 1.2791 0.4845 0.9768
H39 H 1.3217 0.4646 0.8968
C34 C 1.3034(5) 0.39265(18) 0.9409(4)
H40 H 1.3112 0.3955 0.8816
H41 H 1.2620 0.3708 0.9519
H42 H 1.3689 0.3893 0.9668
N5 N -0.0493(2) 0.31119(10) 0.8353(2)
H43 H -0.0394 0.3189 0.8858
N6 N -0.1672(2) 0.30371(10) 0.7277(2)
H44 H -0.1193 0.2926 0.7010
N7 N 0.4460(3) 0.30802(11) 1.0177(2)
H45 H 0.4407 0.3223 0.9742
N8 N 0.5454(3) 0.29324(11) 1.1345(2)
H46 H 0.5101 0.2727 1.1367
O3 O 0.0304(2) 0.28444(10) 0.72570(19)
O4 O 0.3824(2) 0.25458(10) 1.0757(2)
S3 S -0.22758(9) 0.34187(4) 0.86054(8)
S4 S 0.58108(11) 0.35925(4) 1.06179(10)
C35 C -0.1461(3) 0.31751(12) 0.8025(3)
C36 C 0.0316(3) 0.29454(12) 0.7984(3)
C37 C 0.5245(3) 0.31783(13) 1.0747(3)
C38 C 0.3776(3) 0.27911(13) 1.0222(3)
C39 C 0.1224(3) 0.28958(12) 0.8548(3)
C40 C 0.1133(3) 0.27364(13) 0.9340(3)
H47 H 0.0498 0.2663 0.9529
C41 C 0.1984(3) 0.26866(13) 0.9850(3)
H48 H 0.1920 0.2568 1.0367
C42 C 0.2918(3) 0.28107(12) 0.9596(3)
C43 C 0.3011(3) 0.29706(13) 0.8807(3)
H49 H 0.3640 0.3058 0.8632
C44 C 0.2174(3) 0.30008(13) 0.8277(3)
H50 H 0.2253 0.3092 0.7735
C45 C -0.2667(3) 0.30621(12) 0.6876(3)
C46 C -0.2866(3) 0.33639(13) 0.6336(3)
C47 C -0.3818(4) 0.33711(15) 0.5947(3)
H51 H -0.3977 0.3570 0.5585
C48 C -0.4523(4) 0.30944(16) 0.6083(3)
H52 H -0.5150 0.3104 0.5811
C49 C -0.4302(4) 0.28053(15) 0.6618(3)
H53 H -0.4788 0.2619 0.6705
C50 C -0.3373(3) 0.27783(13) 0.7043(3)
C51 C -0.3186(4) 0.24558(15) 0.7641(4)
H54 H -0.2500 0.2487 0.7873
C52 C -0.3224(7) 0.20738(17) 0.7213(5)
H55 H -0.3876 0.2040 0.6949
H56 H -0.3117 0.1877 0.7620
H57 H -0.2704 0.2061 0.6798
C53 C -0.3923(7) 0.2469(2) 0.8373(5)
H58 H -0.3850 0.2706 0.8662
H59 H -0.3775 0.2264 0.8751
H60 H -0.4606 0.2444 0.8165
C54 C -0.2128(4) 0.36838(15) 0.6193(3)
H61 H -0.1463 0.3610 0.6421
C55 C -0.2012(6) 0.3776(2) 0.5272(4)
H62 H -0.1780 0.3555 0.4980
H63 H -0.1528 0.3978 0.5210
H64 H -0.2656 0.3855 0.5043
C56 C -0.2484(5) 0.40413(17) 0.6646(4)
H65 H -0.3139 0.4115 0.6433
H66 H -0.2008 0.4243 0.6555
H67 H -0.2528 0.3991 0.7235
C57 C 0.6242(3) 0.29895(13) 1.1967(3)
C58 C 0.7224(3) 0.28779(14) 1.1770(3)
C59 C 0.7961(4) 0.29255(18) 1.2395(4)
H68 H 0.8631 0.2861 1.2283
C60 C 0.7721(5) 0.30661(17) 1.3172(4)
H69 H 0.8221 0.3086 1.3586
C61 C 0.6767(5) 0.31742(17) 1.3333(4)
H70 H 0.6620 0.3275 1.3855
C62 C 0.5992(4) 0.31392(15) 1.2741(3)
C63 C 0.4926(5) 0.3271(2) 1.2938(4)
H71 H 0.4579 0.3340 1.2413
C64 C 0.4908(7) 0.3618(2) 1.3539(5)
H72 H 0.4239 0.3727 1.3539
H73 H 0.5385 0.3805 1.3352
H74 H 0.5088 0.3538 1.4095
C65 C 0.4341(6) 0.2968(2) 1.3354(8)
H75 H 0.4330 0.2746 1.3007
H76 H 0.3658 0.3054 1.3442
H77 H 0.4654 0.2909 1.3883
C66 C 0.7487(4) 0.27101(19) 1.0937(3)
H78 H 0.6921 0.2757 1.0548
C67 C 0.8438(5) 0.2874(3) 1.0561(5)
H79 H 0.8407 0.3146 1.0580
H80 H 0.8492 0.2792 0.9991
H81 H 0.9019 0.2788 1.0875
C68 C 0.7622(6) 0.2283(2) 1.1025(5)
H82 H 0.8162 0.2231 1.1416
H83 H 0.7785 0.2176 1.0490
H84 H 0.7004 0.2172 1.1223
C69 C 0.6641(9) 0.4249(3) 0.2268(5)
H85 H 0.6688 0.3975 0.2217
H86 H 0.5938 0.4321 0.2179
Cl1 Cl 0.7379(3) 0.44584(9) 0.15236(17)
Cl2 Cl 0.7035(2) 0.43861(9) 0.32673(15)
C70 C 0.1247(8) 0.3590(3) 0.5160(6)
H87 H 0.0902 0.3831 0.5086
H88 H 0.1626 0.3601 0.5683
Cl3 Cl 0.2050(3) 0.35306(8) 0.43846(17)
Cl4 Cl 0.0316(3) 0.32201(12) 0.5227(2)
O5 O 0.5214(3) 0.35052(12) 0.8079(3)
H89 H 0.490(4) 0.342(2) 0.767(3)
H90 H 0.576(3) 0.339(2) 0.806(5)
loop_
_geom_bond_atom_site_label_1
_geom_bond_atom_site_label_2
_geom_bond_site_symmetry_1
_geom_bond_site_symmetry_2
S1 C1 1_555 1_555
S2 C3 1_555 1_555
O1 C2 1_555 1_555
O2 C4 1_555 1_555
N1 H1 1_555 1_555
N2 H2 1_555 1_555
N3 H3 1_555 1_555
N4 H4 1_555 1_555
C1 N1 1_555 1_555
C2 N1 1_555 1_555
C3 N3 1_555 1_555
C4 N3 1_555 1_555
C5 C2 1_555 1_555
C6 C5 1_555 1_555
H5 C6 1_555 1_555
C7 C6 1_555 1_555
H6 C7 1_555 1_555
C8 C4 1_555 1_555
C9 C8 1_555 1_555
H7 C9 1_555 1_555
C10 C5 1_555 1_555
H8 C10 1_555 1_555
C11 N2 1_555 1_555
C12 C11 1_555 1_555
C13 C12 1_555 1_555
H9 C13 1_555 1_555
C14 C13 1_555 1_555
H10 C14 1_555 1_555
C15 C14 1_555 1_555
H11 C15 1_555 1_555
C16 C11 1_555 1_555
C17 C16 1_555 1_555
H12 C17 1_555 1_555
C18 C17 1_555 1_555
H13 C18 1_555 1_555
H14 C18 1_555 1_555
H15 C18 1_555 1_555
C19 C17 1_555 1_555
H16 C19 1_555 1_555
H17 C19 1_555 1_555
H18 C19 1_555 1_555
C20 C12 1_555 1_555
H19 C20 1_555 1_555
C21 C20 1_555 1_555
H20 C21 1_555 1_555
H21 C21 1_555 1_555
H22 C21 1_555 1_555
C22 C20 1_555 1_555
H23 C22 1_555 1_555
H24 C22 1_555 1_555
H25 C22 1_555 1_555
C23 N4 1_555 1_555
C24 C23 1_555 1_555
C25 C24 1_555 1_555
H26 C25 1_555 1_555
C26 C25 1_555 1_555
H27 C26 1_555 1_555
C27 C26 1_555 1_555
H28 C27 1_555 1_555
C28 C23 1_555 1_555
C29 C28 1_555 1_555
H29 C29 1_555 1_555
C30 C29 1_555 1_555
H30 C30 1_555 1_555
H31 C30 1_555 1_555
H32 C30 1_555 1_555
C31 C29 1_555 1_555
H33 C31 1_555 1_555
H34 C31 1_555 1_555
H35 C31 1_555 1_555
C32 C24 1_555 1_555
H36 C32 1_555 1_555
C33 C32 1_555 1_555
H37 C33 1_555 1_555
H38 C33 1_555 1_555
H39 C33 1_555 1_555
C34 C32 1_555 1_555
H40 C34 1_555 1_555
H41 C34 1_555 1_555
H42 C34 1_555 1_555
N5 H43 1_555 1_555
N6 H44 1_555 1_555
N7 H45 1_555 1_555
N8 H46 1_555 1_555
O3 C36 1_555 1_555
O4 C38 1_555 1_555
S3 C35 1_555 1_555
S4 C37 1_555 1_555
C35 N5 1_555 1_555
C36 N5 1_555 1_555
C37 N7 1_555 1_555
C38 N7 1_555 1_555
C39 C36 1_555 1_555
C40 C39 1_555 1_555
H47 C40 1_555 1_555
C41 C40 1_555 1_555
H48 C41 1_555 1_555
C42 C38 1_555 1_555
C43 C42 1_555 1_555
H49 C43 1_555 1_555
C44 C39 1_555 1_555
H50 C44 1_555 1_555
C45 N6 1_555 1_555
C46 C45 1_555 1_555
C47 C46 1_555 1_555
H51 C47 1_555 1_555
C48 C47 1_555 1_555
H52 C48 1_555 1_555
C49 C48 1_555 1_555
H53 C49 1_555 1_555
C50 C45 1_555 1_555
C51 C50 1_555 1_555
H54 C51 1_555 1_555
C52 C51 1_555 1_555
H55 C52 1_555 1_555
H56 C52 1_555 1_555
H57 C52 1_555 1_555
C53 C51 1_555 1_555
H58 C53 1_555 1_555
H59 C53 1_555 1_555
H60 C53 1_555 1_555
C54 C46 1_555 1_555
H61 C54 1_555 1_555
C55 C54 1_555 1_555
H62 C55 1_555 1_555
H63 C55 1_555 1_555
H64 C55 1_555 1_555
C56 C54 1_555 1_555
H65 C56 1_555 1_555
H66 C56 1_555 1_555
H67 C56 1_555 1_555
C57 N8 1_555 1_555
C58 C57 1_555 1_555
C59 C58 1_555 1_555
H68 C59 1_555 1_555
C60 C59 1_555 1_555
H69 C60 1_555 1_555
C61 C60 1_555 1_555
H70 C61 1_555 1_555
C62 C57 1_555 1_555
C63 C62 1_555 1_555
H71 C63 1_555 1_555
C64 C63 1_555 1_555
H72 C64 1_555 1_555
H73 C64 1_555 1_555
H74 C64 1_555 1_555
C65 C63 1_555 1_555
H75 C65 1_555 1_555
H76 C65 1_555 1_555
H77 C65 1_555 1_555
C66 C58 1_555 1_555
H78 C66 1_555 1_555
C67 C66 1_555 1_555
H79 C67 1_555 1_555
H80 C67 1_555 1_555
H81 C67 1_555 1_555
C68 C66 1_555 1_555
H82 C68 1_555 1_555
H83 C68 1_555 1_555
H84 C68 1_555 1_555
C69 H85 1_555 1_555
H86 C69 1_555 1_555
Cl1 C69 1_555 1_555
Cl2 C69 1_555 1_555
C70 H87 1_555 1_555
H88 C70 1_555 1_555
Cl3 C70 1_555 1_555
Cl4 C70 1_555 1_555
O5 H89 1_555 1_555
H90 O5 1_555 1_555
N2 C1 1_555 1_555
N4 C3 1_555 1_555
C7 C8 1_555 1_555
C9 C10 1_555 1_555
C15 C16 1_555 1_555
C27 C28 1_555 1_555
N6 C35 1_555 1_555
N8 C37 1_555 1_555
C41 C42 1_555 1_555
C43 C44 1_555 1_555
C49 C50 1_555 1_555
C61 C62 1_555 1_555

#END
