
#######################################################################
#
#                 Cambridge Crystallographic Data Centre
#                                CCDC 
#
#######################################################################
#
# If this CIF has been generated from an entry in the Cambridge 
# Structural Database, then it will include bibliographic, chemical, 
# crystal, experimental, refinement or atomic coordinate data resulting 
# from the CCDC's data processing and validation procedures.
#
#######################################################################

data_REQWIW
_chemical_formula_moiety         'C54 H40 N4,C1 H2 Cl2'
_chemical_name_systematic        
"2,2',2'',2'''-{ethene-1,1,2,2-tetrayltetrakis[(4,1-phenylene)ethene-2,1-diyl]}tetrapyridine dichloromethane solvate"
_symmetry_cell_setting           triclinic
_symmetry_space_group_name_H-M   'P -1'
_symmetry_Int_Tables_number      2
_space_group_name_Hall           '-P 1'
loop_
_symmetry_equiv_pos_site_id
_symmetry_equiv_pos_as_xyz
1 x,y,z
2 -x,-y,-z
_cell_length_a                   11.78740(10)
_cell_length_b                   12.65580(10)
_cell_length_c                   17.19350(10)
_cell_angle_alpha                106.5530(10)
_cell_angle_beta                 103.2840(10)
_cell_angle_gamma                103.6410(10)
_cell_volume                     2264.59
_exptl_crystal_colour            yellow
_exptl_crystal_description       block
_cell_formula_units_Z            2
loop_
_atom_site_label
_atom_site_type_symbol
_atom_site_fract_x
_atom_site_fract_y
_atom_site_fract_z
N1 N 0.49545(18) 1.03568(19) 0.31865(13)
N2 N 1.1615(2) 0.0902(2) 0.69942(16)
N3 N 0.5574(2) 0.2860(2) -0.07046(14)
C1 C 0.68140(19) 0.63919(19) 0.50074(13)
C2 C 0.9324(2) 0.2524(2) 0.57633(13)
C3 C 0.70540(19) 0.7681(2) 0.42014(14)
H1 H 0.745530 0.797655 0.386452
C4 C 0.73957(19) 0.6853(2) 0.44996(14)
H2 H 0.802612 0.660065 0.435754
C5 C 0.61043(19) 0.80708(19) 0.44087(13)
C6 C 0.68689(19) 0.41719(18) 0.37863(13)
C7 C 0.5584(2) 0.7674(2) 0.49684(13)
H3 H 0.499582 0.796652 0.514562
C8 C 0.79907(19) 0.38185(19) 0.50702(13)
C9 C 0.5767(2) 0.4277(2) 0.33312(13)
H4 H 0.527596 0.456985 0.363007
C10 C 0.75316(19) 0.25954(19) 0.47634(13)
H5 H 0.678690 0.220609 0.432281
C11 C 0.98048(19) 0.3737(2) 0.60344(14)
H6 H 1.057437 0.412418 0.644873
C12 C 0.7555(2) 0.36999(19) 0.33060(14)
H7 H 0.827259 0.359527 0.358442
C13 C 0.73049(18) 0.45276(19) 0.47361(13)
C14 C 0.5937(2) 0.6849(2) 0.52625(13)
H8 H 0.558271 0.659805 0.563588
C15 C 0.71624(19) 0.5474(2) 0.52872(13)
C16 C 0.5400(2) 0.3953(2) 0.24479(14)
H9 H 0.466434 0.402405 0.216491
C17 C 0.8175(2) 0.1962(2) 0.51093(13)
H10 H 0.784427 0.115398 0.490773
C18 C 0.5675(2) 0.88539(19) 0.40104(13)
H11 H 0.622016 0.928669 0.381476
C19 C 0.4132(2) 0.97044(19) 0.34398(13)
C20 C 0.6117(2) 0.3523(2) 0.19750(14)
C21 C 0.91526(19) 0.43748(19) 0.56955(14)
H12 H 0.949228 0.518090 0.588646
C22 C 1.0525(2) 0.0214(2) 0.64208(14)
C23 C 0.74238(19) 0.5680(2) 0.62175(13)
C24 C 1.0034(2) 0.1902(2) 0.61573(14)
H13 H 1.077063 0.236034 0.659144
C25 C 0.70366(19) 0.4765(2) 0.65139(14)
H14 H 0.656808 0.402363 0.612052
C26 C 0.9752(2) 0.0755(2) 0.59679(14)
H15 H 0.903097 0.027165 0.552781
C27 C 0.4570(2) 0.8995(2) 0.39064(14)
H16 H 0.404423 0.862041 0.414447
C28 C 0.7192(2) 0.3383(2) 0.24228(14)
H17 H 0.767052 0.307191 0.212170
C29 C 0.7346(2) 0.4958(2) 0.73824(15)
H18 H 0.707319 0.434495 0.756233
C30 C 0.2911(2) 0.9682(2) 0.32577(16)
H19 H 0.236668 0.923340 0.344469
C31 C 0.8076(2) 0.6789(2) 0.68262(15)
H20 H 0.829618 0.741642 0.665047
C32 C 0.8058(2) 0.6054(2) 0.79910(15)
C33 C 0.5844(2) 0.3252(2) 0.10556(14)
H21 H 0.634944 0.291443 0.079903
C34 C 0.4792(2) 0.3279(2) -0.03602(15)
C35 C 1.0095(2) -0.0986(2) 0.62365(17)
H22 H 0.933355 -0.144230 0.582970
C36 C 0.4924(2) 0.3448(2) 0.05422(15)
H23 H 0.435038 0.369990 0.076973
C37 C 0.4554(2) 1.0981(2) 0.27499(17)
H24 H 0.511680 1.143438 0.257759
C38 C 0.8401(3) 0.6965(2) 0.76970(16)
H25 H 0.885868 0.770766 0.809258
C39 C 1.1961(2) -0.0769(3) 0.72719(18)
H26 H 1.246846 -0.107424 0.757843
C40 C 0.2514(2) 1.0338(3) 0.27937(18)
H27 H 0.169937 1.032638 0.266238
C41 C 0.3341(3) 1.1005(2) 0.25305(18)
H28 H 0.310393 1.145288 0.221942
C42 C 1.2313(2) 0.0397(3) 0.73983(19)
H29 H 1.308207 0.086730 0.778823
C43 C 0.8286(3) 0.5515(3) 0.92936(16)
H30 H 0.773562 0.477261 0.896270
C44 C 1.0823(3) -0.1482(2) 0.6671(2)
H31 H 1.055762 -0.227749 0.656403
C45 C 0.8485(3) 0.6276(3) 0.89108(16)
H32 H 0.894774 0.703956 0.926463
C46 C 0.3889(3) 0.3619(3) -0.08216(17)
H33 H 0.333510 0.388290 -0.057665
C47 C 0.4649(3) 0.3157(3) -0.19973(16)
H34 H 0.464157 0.312407 -0.254589
C48 C 0.8874(3) 0.5757(3) 1.02077(17)
C49 C 0.3837(3) 0.3556(3) -0.16472(18)
H35 H 0.324981 0.378523 -0.196067
C50 C 0.5496(3) 0.2798(3) -0.15086(16)
H36 H 0.603259 0.249977 -0.175356
C51 C 0.8618(3) 0.4924(4) 1.0567(2)
H37 H 0.801779 0.420554 1.024275
C52 C 0.9260(4) 0.5158(5) 1.1417(2)
H38 H 0.910219 0.459763 1.166398
N4 N 0.9689(5) 0.6811(3) 1.0671(2)
C53 C 1.0120(4) 0.6218(5) 1.1879(2)
H39 H 1.056177 0.640638 1.244998
C54 C 1.0317(7) 0.7007(4) 1.1471(3)
H40 H 1.093032 0.772207 1.177808
Cl1 Cl 1.1904(9) -0.1303(9) 0.9197(7)
Cl2 Cl 1.0938(10) 0.0521(8) 0.9145(6)
C55 C 1.1925(9) 0.0091(7) 1.0095(5)
H41 H 1.274175 0.064695 1.041372
H42 H 1.148278 -0.008585 1.047820
loop_
_geom_bond_atom_site_label_1
_geom_bond_atom_site_label_2
_geom_bond_site_symmetry_1
_geom_bond_site_symmetry_2
N1 C19 1_555 1_555
N2 C22 1_555 1_555
N3 C34 1_555 1_555
C1 C4 1_555 1_555
C2 C11 1_555 1_555
C3 H1 1_555 1_555
C4 C3 1_555 1_555
H2 C4 1_555 1_555
C5 C3 1_555 1_555
C6 C9 1_555 1_555
C7 C5 1_555 1_555
H3 C7 1_555 1_555
C8 C10 1_555 1_555
C9 H4 1_555 1_555
C10 H5 1_555 1_555
C11 H6 1_555 1_555
C12 C6 1_555 1_555
H7 C12 1_555 1_555
C13 C6 1_555 1_555
C14 C1 1_555 1_555
H8 C14 1_555 1_555
C15 C1 1_555 1_555
C16 C9 1_555 1_555
H9 C16 1_555 1_555
C17 C2 1_555 1_555
H10 C17 1_555 1_555
C18 C5 1_555 1_555
H11 C18 1_555 1_555
C19 C27 1_555 1_555
C20 C16 1_555 1_555
C21 C8 1_555 1_555
H12 C21 1_555 1_555
C22 C26 1_555 1_555
C23 C15 1_555 1_555
C24 C2 1_555 1_555
H13 C24 1_555 1_555
C25 C23 1_555 1_555
H14 C25 1_555 1_555
C26 C24 1_555 1_555
H15 C26 1_555 1_555
C27 C18 1_555 1_555
H16 C27 1_555 1_555
C28 C12 1_555 1_555
H17 C28 1_555 1_555
C29 C25 1_555 1_555
H18 C29 1_555 1_555
C30 C19 1_555 1_555
H19 C30 1_555 1_555
C31 C23 1_555 1_555
H20 C31 1_555 1_555
C32 C29 1_555 1_555
C33 C20 1_555 1_555
H21 C33 1_555 1_555
C34 C36 1_555 1_555
C35 C22 1_555 1_555
H22 C35 1_555 1_555
C36 C33 1_555 1_555
H23 C36 1_555 1_555
C37 N1 1_555 1_555
H24 C37 1_555 1_555
C38 C31 1_555 1_555
H25 C38 1_555 1_555
C39 H26 1_555 1_555
C40 C30 1_555 1_555
H27 C40 1_555 1_555
C41 C37 1_555 1_555
H28 C41 1_555 1_555
C42 N2 1_555 1_555
H29 C42 1_555 1_555
C43 H30 1_555 1_555
C44 C35 1_555 1_555
H31 C44 1_555 1_555
C45 C32 1_555 1_555
H32 C45 1_555 1_555
C46 C34 1_555 1_555
H33 C46 1_555 1_555
C47 H34 1_555 1_555
C48 C43 1_555 1_555
C49 C46 1_555 1_555
H35 C49 1_555 1_555
C50 N3 1_555 1_555
H36 C50 1_555 1_555
C51 C48 1_555 1_555
H37 C51 1_555 1_555
C52 C51 1_555 1_555
H38 C52 1_555 1_555
N4 C48 1_555 1_555
C53 C52 1_555 1_555
H39 C53 1_555 1_555
C54 N4 1_555 1_555
H40 C54 1_555 1_555
Cl1 C55 1_555 1_555
Cl2 C55 1_555 1_555
C55 H41 1_555 1_555
H42 C55 1_555 1_555
C7 C14 1_555 1_555
C8 C13 1_555 1_555
C10 C17 1_555 1_555
C11 C21 1_555 1_555
C13 C15 1_555 1_555
C20 C28 1_555 1_555
C32 C38 1_555 1_555
C39 C42 1_555 1_555
C39 C44 1_555 1_555
C40 C41 1_555 1_555
C43 C45 1_555 1_555
C47 C49 1_555 1_555
C47 C50 1_555 1_555
C53 C54 1_555 1_555

#END
