
#######################################################################
#
#                 Cambridge Crystallographic Data Centre
#                                CCDC 
#
#######################################################################
#
# If this CIF has been generated from an entry in the Cambridge 
# Structural Database, then it will include bibliographic, chemical, 
# crystal, experimental, refinement or atomic coordinate data resulting 
# from the CCDC's data processing and validation procedures.
#
#######################################################################

data_RERNAE
_chemical_name_common            
'2,7,12-Triiodo-5,5,10,10,15,15-hexaethyltruxene trihydrate'
_chemical_formula_moiety         'C39 H39 I3,3(H2 O1)'
_chemical_name_systematic        
"2,7,12-Triiodo-5,5,10,10,15,15-hexaethyl-10,15-dihydro-5H-diindeno[1,2-a:1',2'-c]fluorene trihydrate"
_symmetry_cell_setting           cubic
_symmetry_space_group_name_H-M   'P a -3'
_symmetry_Int_Tables_number      205
_space_group_name_Hall           '-P 2ac 2ab 3'
loop_
_symmetry_equiv_pos_site_id
_symmetry_equiv_pos_as_xyz
1 x,y,z
2 z,x,y
3 y,z,x
4 1/2-x,-y,1/2+z
5 1/2+x,1/2-y,-z
6 -x,1/2+y,1/2-z
7 1/2-z,-x,1/2+y
8 -y,1/2+z,1/2-x
9 1/2+z,1/2-x,-y
10 1/2-y,-z,1/2+x
11 -z,1/2+x,1/2-y
12 1/2+y,1/2-z,-x
13 -x,-y,-z
14 -z,-x,-y
15 -y,-z,-x
16 1/2+x,y,1/2-z
17 1/2-x,1/2+y,z
18 x,1/2-y,1/2+z
19 1/2+z,x,1/2-y
20 y,1/2-z,1/2+x
21 1/2-z,1/2+x,y
22 1/2+y,z,1/2-x
23 z,1/2-x,1/2+y
24 1/2-y,1/2+z,x
_cell_length_a                   19.844(5)
_cell_length_b                   19.844(5)
_cell_length_c                   19.844(5)
_cell_angle_alpha                90
_cell_angle_beta                 90
_cell_angle_gamma                90
_cell_volume                     7814.26
_exptl_crystal_colour            colorless
_exptl_crystal_description       plate
_cell_formula_units_Z            8
loop_
_atom_site_label
_atom_site_type_symbol
_atom_site_fract_x
_atom_site_fract_y
_atom_site_fract_z
C1 C 0.4589(5) 0.4341(5) 0.8100(6)
C2 C 0.4088(4) 0.4389(4) 0.8579(5)
H1 H 0.4107 0.4725 0.8906
C3 C 0.3558(4) 0.3938(4) 0.8571(4)
H2 H 0.3214 0.3976 0.8887
C4 C 0.3537(4) 0.3423(4) 0.8090(4)
C5 C 0.4576(5) 0.3848(5) 0.7616(5)
H3 H 0.4917 0.3820 0.7296
C6 C 0.4048(4) 0.3393(4) 0.7612(4)
C7 C 0.3064(4) 0.2853(4) 0.7956(4)
C8 C 0.3298(4) 0.2507(4) 0.7379(4)
C9 C 0.3947(4) 0.2828(4) 0.7117(4)
C10 C 0.3864(6) 0.3139(5) 0.6406(5)
H4 H 0.4286 0.3349 0.6278
H5 H 0.3776 0.2779 0.6087
C11 C 0.3313(9) 0.3651(7) 0.6347(6)
H6 H 0.3289 0.3811 0.5891
H7 H 0.3406 0.4022 0.6643
H8 H 0.2891 0.3449 0.6470
C12 C 0.4551(5) 0.2340(6) 0.7149(6)
H9 H 0.4491 0.1993 0.6810
H10 H 0.4958 0.2586 0.7039
C13 C 0.4641(7) 0.2005(9) 0.7832(8)
H11 H 0.5021 0.1706 0.7817
H12 H 0.4242 0.1753 0.7942
H13 H 0.4715 0.2344 0.8169
I1 I 0.53567(6) 0.49824(6) 0.81327(8)
C1I C 0.0659(5) 0.1900(6) 0.9589(5)
C1H C 0.3100(6) 0.0411(5) 0.5659(5)
C2I C 0.0611(4) 0.1421(5) 0.9088(4)
C2H C 0.3579(5) 0.0912(4) 0.5611(4)
H1I H 0.0275 0.1094 0.9107
H1H H 0.3906 0.0893 0.5275
C3I C 0.1062(4) 0.1429(4) 0.8558(4)
C3H C 0.3571(4) 0.1442(4) 0.6062(4)
H2I H 0.1024 0.1113 0.8214
H2H H 0.3887 0.1786 0.6024
C4I C 0.1577(4) 0.1910(4) 0.8537(4)
C4H C 0.3090(4) 0.1463(4) 0.6577(4)
C5I C 0.1152(5) 0.2384(5) 0.9576(5)
C5H C 0.2616(5) 0.0424(5) 0.6152(5)
H3I H 0.1180 0.2704 0.9917
H3H H 0.2296 0.0083 0.6180
C6I C 0.1607(4) 0.2388(4) 0.9048(4)
C6H C 0.2612(4) 0.0952(4) 0.6607(4)
C7I C 0.2147(4) 0.2044(4) 0.8064(4)
C7H C 0.2956(4) 0.1936(4) 0.7147(4)
C8I C 0.2493(4) 0.2621(4) 0.8298(4)
C8H C 0.2379(4) 0.1702(4) 0.7493(4)
C9I C 0.2172(4) 0.2883(4) 0.8947(4)
C9H C 0.2117(4) 0.1053(4) 0.7172(4)
C10I C 0.1861(5) 0.3594(5) 0.8864(6)
C10H C 0.1406(5) 0.1136(6) 0.6861(5)
H4I H 0.1651 0.3722 0.9286
H4H H 0.1278 0.0714 0.6651
H5I H 0.2221 0.3913 0.8776
H5H H 0.1087 0.1224 0.7221
C11I C 0.1349(7) 0.3653(6) 0.8313(9)
C11H C 0.1347(6) 0.1687(9) 0.6349(7)
H6I H 0.1189 0.4109 0.8289
H6H H 0.0891 0.1711 0.6189
H7I H 0.0978 0.3357 0.8406
H7H H 0.1643 0.1594 0.5978
H8I H 0.1551 0.3530 0.7891
H8H H 0.1470 0.2109 0.6551
C12I C 0.2660(6) 0.2851(6) 0.9551(5)
C12H C 0.2149(6) 0.0449(5) 0.7660(6)
H9I H 0.3007 0.3190 0.9491
H9H H 0.1810 0.0509 0.8007
H10I H 0.2414 0.2961 0.9958
H10H H 0.2039 0.0042 0.7414
C13I C 0.2995(9) 0.2168(8) 0.9641(7)
C13H C 0.2832(8) 0.0359(7) 0.7995(9)
H11I H 0.3294 0.2183 1.0021
H11H H 0.2817 -0.0021 0.8294
H12I H 0.3247 0.2058 0.9242
H12H H 0.2942 0.0758 0.8247
H13I H 0.2656 0.1831 0.9715
H13H H 0.3169 0.0285 0.7656
I1I I 0.00176(6) 0.18673(8) 1.03567(6)
I1H I 0.31327(8) -0.03567(6) 0.50176(6)
O1 O 0.5217(6) 0.5256(6) 0.6240(5)
H14 H 0.4985 0.4972 0.6012
H15 H 0.5500 0.5459 0.5958
I2? I 0.520(3) 0.494(4) 0.792(5)
loop_
_geom_bond_atom_site_label_1
_geom_bond_atom_site_label_2
_geom_bond_site_symmetry_1
_geom_bond_site_symmetry_2
C1 C2 1_555 1_555
C2 H1 1_555 1_555
C3 C2 1_555 1_555
H2 C3 1_555 1_555
C4 C3 1_555 1_555
C5 C1 1_555 1_555
H3 C5 1_555 1_555
C6 C4 1_555 1_555
C7 C4 1_555 1_555
C8 C7 1_555 1_555
C9 C6 1_555 1_555
C10 C9 1_555 1_555
H4 C10 1_555 1_555
H5 C10 1_555 1_555
C11 C10 1_555 1_555
H6 C11 1_555 1_555
H7 C11 1_555 1_555
H8 C11 1_555 1_555
C12 C9 1_555 1_555
H9 C12 1_555 1_555
H10 C12 1_555 1_555
C13 C12 1_555 1_555
H11 C13 1_555 1_555
H12 C13 1_555 1_555
H13 C13 1_555 1_555
I1 C1 1_555 1_555
O1 H14 1_555 1_555
H15 O1 1_555 1_555
C1I C2I 1_555 1_555
C1H C2H 1_555 1_555
C2I H1I 1_555 1_555
C2H H1H 1_555 1_555
C3I C2I 1_555 1_555
C3H C2H 1_555 1_555
H2I C3I 1_555 1_555
H2H C3H 1_555 1_555
C4I C3I 1_555 1_555
C4H C3H 1_555 1_555
C5I C1I 1_555 1_555
C5H C1H 1_555 1_555
H3I C5I 1_555 1_555
H3H C5H 1_555 1_555
C6I C4I 1_555 1_555
C6H C4H 1_555 1_555
C7I C4I 1_555 1_555
C7H C8 1_555 1_555
C8I C7 1_555 1_555
C8H C7I 1_555 1_555
C9I C6I 1_555 1_555
C9H C6H 1_555 1_555
C10I C9I 1_555 1_555
C10H C9H 1_555 1_555
H4I C10I 1_555 1_555
H4H C10H 1_555 1_555
H5I C10I 1_555 1_555
H5H C10H 1_555 1_555
C11I C10I 1_555 1_555
C11H C10H 1_555 1_555
H6I C11I 1_555 1_555
H6H C11H 1_555 1_555
H7I C11I 1_555 1_555
H7H C11H 1_555 1_555
H8I C11I 1_555 1_555
H8H C11H 1_555 1_555
C12I C9I 1_555 1_555
C12H C9H 1_555 1_555
H9I C12I 1_555 1_555
H9H C12H 1_555 1_555
H10I C12I 1_555 1_555
H10H C12H 1_555 1_555
C13I C12I 1_555 1_555
C13H C12H 1_555 1_555
H11I C13I 1_555 1_555
H11H C13H 1_555 1_555
H12I C13I 1_555 1_555
H12H C13H 1_555 1_555
H13I C13I 1_555 1_555
H13H C13H 1_555 1_555
I1I C1I 1_555 1_555
I1H C1H 1_555 1_555
C5 C6 1_555 1_555
C8 C9 1_555 1_555
C4H C7H 1_555 1_555
C5I C6I 1_555 1_555
C5H C6H 1_555 1_555
C7I C8I 1_555 1_555
C7H C8H 1_555 1_555
C8I C9I 1_555 1_555
C8H C9H 1_555 1_555

#END
