
#######################################################################
#
#                 Cambridge Crystallographic Data Centre
#                                CCDC 
#
#######################################################################
#
# If this CIF has been generated from an entry in the Cambridge 
# Structural Database, then it will include bibliographic, chemical, 
# crystal, experimental, refinement or atomic coordinate data resulting 
# from the CCDC's data processing and validation procedures.
#
#######################################################################

data_RERXUI
_chemical_formula_moiety         'C20 H24 N2 O2 S1'
_chemical_name_systematic        1-benzyl-3-methyl-2-p-tosyliminopiperidine
_symmetry_cell_setting           monoclinic
_symmetry_space_group_name_H-M   'P 21/n'
_symmetry_Int_Tables_number      14
_space_group_name_Hall           '-P 2yn'
loop_
_symmetry_equiv_pos_site_id
_symmetry_equiv_pos_as_xyz
1 x,y,z
2 1/2-x,1/2+y,1/2-z
3 -x,-y,-z
4 1/2+x,1/2-y,1/2+z
_cell_length_a                   13.1543(14)
_cell_length_b                   8.2699(9)
_cell_length_c                   17.976(2)
_cell_angle_alpha                90
_cell_angle_beta                 110.089(2)
_cell_angle_gamma                90
_cell_volume                     1836.54
_cell_formula_units_Z            4
_exptl_crystal_preparation       'magnetic properties'
loop_
_atom_site_label
_atom_site_type_symbol
_atom_site_fract_x
_atom_site_fract_y
_atom_site_fract_z
S1 S 0.46339(5) 0.62579(6) 0.15679(3)
O1 O 0.55665(13) 0.52258(15) 0.17492(10)
O2 O 0.37798(14) 0.59543(19) 0.08333(9)
C1 C 0.40948(15) 0.5981(2) 0.23335(12)
C2 C 0.4620(2) 0.6559(3) 0.30797(14)
H1 H 0.5247(16) 0.713(2) 0.3175(11)
C3 C 0.4232(2) 0.6214(3) 0.36797(16)
H2 H 0.4603(18) 0.659(3) 0.4186(15)
C4 C 0.33148(19) 0.5289(3) 0.35596(15)
C5 C 0.2786(2) 0.4752(3) 0.28028(17)
H3 H 0.2120(16) 0.415(2) 0.2726(12)
C6 C 0.31556(19) 0.5084(3) 0.21902(17)
H4 H 0.2859(17) 0.467(2) 0.1685(13)
C7 C 0.2924(4) 0.4891(7) 0.4228(3)
H5 H 0.348(3) 0.472(4) 0.466(2)
H6 H 0.241(3) 0.418(5) 0.414(2)
H7 H 0.260(3) 0.586(5) 0.432(3)
N1 N 0.49322(13) 0.81336(16) 0.16712(9)
C8 C 0.56968(15) 0.8858(2) 0.14833(10)
C9 C 0.64173(16) 0.8057(2) 0.10923(12)
H8 H 0.6584(13) 0.704(2) 0.1368(10)
C10 C 0.74541(18) 0.9007(3) 0.12063(16)
H9 H 0.7857(15) 0.852(2) 0.0882(11)
H10 H 0.7936(17) 0.897(2) 0.1794(13)
C11 C 0.7182(2) 1.0763(3) 0.09893(17)
H11 H 0.6663(18) 1.081(2) 0.0444(14)
H12 H 0.7841(16) 1.137(2) 0.1045(11)
C12 C 0.6669(2) 1.1484(2) 0.15444(15)
H13 H 0.6282(15) 1.253(2) 0.1331(11)
H14 H 0.7229(16) 1.167(2) 0.2106(13)
N2 N 0.58280(12) 1.04398(17) 0.16602(9)
C13 C 0.5780(3) 0.7697(4) 0.02227(15)
H15 H 0.5574(18) 0.866(3) -0.0063(14)
H16 H 0.6232(19) 0.712(3) -0.0005(14)
H17 H 0.509(2) 0.710(3) 0.0158(14)
C14 C 0.51772(18) 1.1205(2) 0.20719(12)
H18 H 0.4460(15) 1.082(2) 0.1841(10)
H19 H 0.5181(14) 1.235(2) 0.1960(10)
C15 C 0.55570(16) 1.0909(2) 0.29506(12)
C16 C 0.65048(18) 1.0093(2) 0.33559(13)
H20 H 0.6943(14) 0.966(2) 0.3070(11)
C17 C 0.6831(2) 0.9889(3) 0.41700(15)
H21 H 0.7472(17) 0.931(3) 0.4437(13)
C18 C 0.6217(3) 1.0493(3) 0.45784(18)
H22 H 0.6419(18) 1.036(3) 0.5124(15)
C19 C 0.5271(3) 1.1296(4) 0.41867(18)
H23 H 0.4826(17) 1.168(2) 0.4442(14)
C20 C 0.4957(2) 1.1500(3) 0.33789(16)
H24 H 0.4336(15) 1.196(2) 0.3135(11)
loop_
_geom_bond_atom_site_label_1
_geom_bond_atom_site_label_2
_geom_bond_site_symmetry_1
_geom_bond_site_symmetry_2
S1 O1 1_555 1_555
O2 S1 1_555 1_555
C1 S1 1_555 1_555
C2 C1 1_555 1_555
H1 C2 1_555 1_555
C3 C2 1_555 1_555
H2 C3 1_555 1_555
C4 C3 1_555 1_555
C5 C4 1_555 1_555
H3 C5 1_555 1_555
C6 C1 1_555 1_555
H4 C6 1_555 1_555
C7 C4 1_555 1_555
H5 C7 1_555 1_555
H6 C7 1_555 1_555
H7 C7 1_555 1_555
N1 S1 1_555 1_555
C8 N1 1_555 1_555
C9 C8 1_555 1_555
H8 C9 1_555 1_555
C10 C9 1_555 1_555
H9 C10 1_555 1_555
H10 C10 1_555 1_555
C11 C10 1_555 1_555
H11 C11 1_555 1_555
H12 C11 1_555 1_555
C12 C11 1_555 1_555
H13 C12 1_555 1_555
H14 C12 1_555 1_555
N2 C8 1_555 1_555
C13 C9 1_555 1_555
H15 C13 1_555 1_555
H16 C13 1_555 1_555
H17 C13 1_555 1_555
C14 N2 1_555 1_555
H18 C14 1_555 1_555
H19 C14 1_555 1_555
C15 C14 1_555 1_555
C16 C15 1_555 1_555
H20 C16 1_555 1_555
C17 C16 1_555 1_555
H21 C17 1_555 1_555
C18 C17 1_555 1_555
H22 C18 1_555 1_555
C19 C18 1_555 1_555
H23 C19 1_555 1_555
C20 C15 1_555 1_555
H24 C20 1_555 1_555
C5 C6 1_555 1_555
C12 N2 1_555 1_555
C19 C20 1_555 1_555

#END
