
#######################################################################
#
#                 Cambridge Crystallographic Data Centre
#                                CCDC 
#
#######################################################################
#
# If this CIF has been generated from an entry in the Cambridge 
# Structural Database, then it will include bibliographic, chemical, 
# crystal, experimental, refinement or atomic coordinate data resulting 
# from the CCDC's data processing and validation procedures.
#
#######################################################################

data_RERYEU
_chemical_formula_moiety         'C18 H18 O2'
_chemical_name_systematic        
3,4-Dimethyl-5,5-diphenyldihydrofuran-2(3H)-one
_symmetry_cell_setting           monoclinic
_symmetry_space_group_name_H-M   'P 21/n'
_symmetry_Int_Tables_number      14
_space_group_name_Hall           '-P 2yn'
loop_
_symmetry_equiv_pos_site_id
_symmetry_equiv_pos_as_xyz
1 x,y,z
2 1/2-x,1/2+y,1/2-z
3 -x,-y,-z
4 1/2+x,1/2-y,1/2+z
_cell_length_a                   8.517(6)
_cell_length_b                   10.598(7)
_cell_length_c                   16.662(11)
_cell_angle_alpha                90
_cell_angle_beta                 94.570(7)
_cell_angle_gamma                90
_cell_volume                     1499.18
_exptl_crystal_colour            colorless
_exptl_crystal_description       block
_cell_formula_units_Z            4
loop_
_atom_site_label
_atom_site_type_symbol
_atom_site_fract_x
_atom_site_fract_y
_atom_site_fract_z
C1 C 1.0964(2) 0.4041(2) 0.92319(13)
C2 C 1.0630(3) 0.2703(2) 0.94364(12)
H1 H 0.9638 0.2681 0.9696
C3 C 1.0354(2) 0.20904(18) 0.86170(12)
H2 H 1.1387 0.1870 0.8438
C4 C 0.9682(2) 0.31862(16) 0.80740(11)
C5 C 0.7904(2) 0.32864(17) 0.80400(11)
C6 C 0.7151(3) 0.3969(2) 0.86057(13)
H3 H 0.7740 0.4413 0.9006
C7 C 0.5516(3) 0.3992(2) 0.85755(16)
H4 H 0.5020 0.4442 0.8962
C8 C 0.4633(3) 0.3367(3) 0.79886(19)
H5 H 0.3539 0.3395 0.7970
C9 C 0.5364(3) 0.2694(2) 0.74248(15)
H6 H 0.4765 0.2265 0.7021
C10 C 0.6981(2) 0.2652(2) 0.74518(13)
H7 H 0.7463 0.2187 0.7067
C11 C 1.0266(2) 0.32379(19) 0.72366(11)
C12 C 1.0901(2) 0.2225(2) 0.68691(13)
H8 H 1.0992 0.1455 0.7137
C13 C 1.1414(3) 0.2332(3) 0.61000(15)
H9 H 1.1826 0.1633 0.5852
C14 C 1.1312(3) 0.3456(4) 0.57123(16)
H10 H 1.1675 0.3531 0.5203
C15 C 1.0681(3) 0.4475(3) 0.60647(16)
H11 H 1.0604 0.5244 0.5795
C16 C 1.0156(3) 0.4363(2) 0.68221(13)
H12 H 0.9719 0.5061 0.7059
C17 C 1.1904(3) 0.2127(3) 1.00108(16)
H13 H 1.1984 0.2593 1.0506
H14 H 1.2894 0.2158 0.9773
H15 H 1.1642 0.1265 1.0116
C18 C 0.9380(3) 0.0887(2) 0.86049(14)
H16 H 0.8387 0.1057 0.8818
H17 H 0.9935 0.0255 0.8928
H18 H 0.9201 0.0589 0.8061
O1 O 1.03635(15) 0.43086(12) 0.84808(8)
O2 O 1.16663(19) 0.48255(17) 0.96322(9)
loop_
_geom_bond_atom_site_label_1
_geom_bond_atom_site_label_2
_geom_bond_site_symmetry_1
_geom_bond_site_symmetry_2
C1 C2 1_555 1_555
C2 H1 1_555 1_555
C3 C2 1_555 1_555
H2 C3 1_555 1_555
C4 C3 1_555 1_555
C5 C4 1_555 1_555
C6 C5 1_555 1_555
H3 C6 1_555 1_555
C7 C6 1_555 1_555
H4 C7 1_555 1_555
C8 C7 1_555 1_555
H5 C8 1_555 1_555
C9 C8 1_555 1_555
H6 C9 1_555 1_555
C10 C5 1_555 1_555
H7 C10 1_555 1_555
C11 C4 1_555 1_555
C12 C11 1_555 1_555
H8 C12 1_555 1_555
C13 C12 1_555 1_555
H9 C13 1_555 1_555
C14 C13 1_555 1_555
H10 C14 1_555 1_555
C15 C14 1_555 1_555
H11 C15 1_555 1_555
C16 C11 1_555 1_555
H12 C16 1_555 1_555
C17 C2 1_555 1_555
H13 C17 1_555 1_555
H14 C17 1_555 1_555
H15 C17 1_555 1_555
C18 C3 1_555 1_555
H16 C18 1_555 1_555
H17 C18 1_555 1_555
H18 C18 1_555 1_555
O1 C1 1_555 1_555
O2 C1 1_555 1_555
C4 O1 1_555 1_555
C9 C10 1_555 1_555
C15 C16 1_555 1_555

#END
