
#######################################################################
#
#                 Cambridge Crystallographic Data Centre
#                                CCDC 
#
#######################################################################
#
# If this CIF has been generated from an entry in the Cambridge 
# Structural Database, then it will include bibliographic, chemical, 
# crystal, experimental, refinement or atomic coordinate data resulting 
# from the CCDC's data processing and validation procedures.
#
#######################################################################

data_RESFED
_chemical_formula_moiety         'C44 H48 N4 Na2 O2 P2 S2'
_chemical_name_systematic        
bis(\m-(diphenylphosphorothioyl)[(pyridin-2-yl)methyl]amido)-di-sodium(i)
_symmetry_cell_setting           triclinic
_symmetry_space_group_name_H-M   'P -1'
_symmetry_Int_Tables_number      2
_space_group_name_Hall           '-P 1'
loop_
_symmetry_equiv_pos_site_id
_symmetry_equiv_pos_as_xyz
1 x,y,z
2 -x,-y,-z
_cell_length_a                   9.2977(14)
_cell_length_b                   11.2732(17)
_cell_length_c                   11.628(2)
_cell_angle_alpha                68.168(16)
_cell_angle_beta                 69.547(16)
_cell_angle_gamma                74.059(14)
_cell_volume                     1045.28
_exptl_crystal_colour            colorless
_exptl_crystal_description       block
_cell_formula_units_Z            1
loop_
_atom_site_label
_atom_site_type_symbol
_atom_site_fract_x
_atom_site_fract_y
_atom_site_fract_z
Na1 Na 0.4495(4) 0.3673(4) 0.6245(4)
P1 P 0.2909(3) 0.6204(2) 0.7036(2)
S1 S 0.2433(3) 0.4553(2) 0.8429(2)
O1 O 0.3879(9) 0.1561(7) 0.7217(7)
N1 N 0.3220(9) 0.6268(8) 0.5577(8)
N2 N 0.3292(10) 0.6607(8) 0.3019(8)
C1 C 0.1829(12) 0.6155(12) 0.5321(10)
H1 H 0.0956 0.6752 0.5660
H2 H 0.1599 0.5286 0.5794
C2 C 0.3322(12) 0.6828(10) 0.1799(10)
H3 H 0.4251 0.6985 0.1163
C3 C 0.2078(14) 0.6837(12) 0.1424(11)
H4 H 0.2163 0.6986 0.0563
C4 C 0.0691(14) 0.6618(12) 0.2364(12)
H5 H -0.0177 0.6602 0.2150
C5 C 0.0616(13) 0.6426(11) 0.3616(11)
H6 H -0.0314 0.6298 0.4260
C6 C 0.1943(11) 0.6421(9) 0.3921(10)
C7 C 0.1349(11) 0.7538(10) 0.7414(10)
C8 C 0.1233(11) 0.8704(10) 0.6464(11)
H7 H 0.1905 0.8798 0.5638
C9 C 0.0103(13) 0.9751(10) 0.6737(12)
H8 H 0.0050 1.0547 0.6098
C10 C -0.0934(12) 0.9608(12) 0.7947(12)
H9 H -0.1688 1.0302 0.8128
C11 C -0.0835(12) 0.8425(12) 0.8884(12)
H10 H -0.1529 0.8331 0.9701
C12 C 0.0271(11) 0.7369(10) 0.8644(10)
H11 H 0.0299 0.6569 0.9280
C13 C 0.4634(10) 0.6662(9) 0.7094(9)
C14 C 0.5410(11) 0.7556(11) 0.6008(10)
H12 H 0.5071 0.7915 0.5267
C15 C 0.6714(13) 0.7894(12) 0.6069(12)
H13 H 0.7251 0.8486 0.5356
C16 C 0.7217(12) 0.7373(12) 0.7156(12)
H14 H 0.8102 0.7594 0.7170
C17 C 0.6405(13) 0.6515(11) 0.8236(11)
H15 H 0.6713 0.6185 0.8991
C18 C 0.5119(11) 0.6149(10) 0.8180(10)
H16 H 0.4590 0.5550 0.8892
C19 C 0.4998(19) 0.0669(15) 0.7844(18)
H17 H 0.5426 0.1105 0.8197
H18 H 0.5843 0.0299 0.7237
C20 C 0.4171(16) -0.0365(12) 0.8896(12)
H19 H 0.4833 -0.1207 0.8967
H20 H 0.3865 -0.0198 0.9716
C21 C 0.2785(18) -0.0321(14) 0.8522(13)
H21 H 0.2845 -0.1112 0.8346
H22 H 0.1838 -0.0201 0.9198
C22 C 0.2827(19) 0.0798(17) 0.7352(18)
H23 H 0.3144 0.0498 0.6604
H24 H 0.1796 0.1314 0.7404
Na1A Na 0.5505(4) 0.6327(4) 0.3755(4)
P1A P 0.7091(3) 0.3796(2) 0.2964(2)
S1A S 0.7567(3) 0.5447(2) 0.1571(2)
O1A O 0.6121(9) 0.8439(7) 0.2783(7)
N1A N 0.6780(9) 0.3732(8) 0.4423(8)
N2A N 0.6708(10) 0.3393(8) 0.6981(8)
C1A C 0.8171(12) 0.3845(12) 0.4679(10)
H1A H 0.9044 0.3248 0.4340
H2A H 0.8401 0.4714 0.4206
C2A C 0.6678(12) 0.3172(10) 0.8201(10)
H3A H 0.5749 0.3015 0.8837
C3A C 0.7922(14) 0.3163(12) 0.8576(11)
H4A H 0.7837 0.3014 0.9437
C4A C 0.9309(14) 0.3382(12) 0.7636(12)
H5A H 1.0177 0.3398 0.7850
C5A C 0.9384(13) 0.3574(11) 0.6384(11)
H6A H 1.0314 0.3702 0.5740
C6A C 0.8057(11) 0.3579(9) 0.6079(10)
C7A C 0.8651(11) 0.2462(10) 0.2586(10)
C8A C 0.8767(11) 0.1296(10) 0.3536(11)
H7A H 0.8095 0.1202 0.4362
C9A C 0.9897(13) 0.0249(10) 0.3263(12)
H8A H 0.9950 -0.0547 0.3902
C10A C 1.0934(12) 0.0392(12) 0.2053(12)
H9A H 1.1688 -0.0302 0.1872
C11A C 1.0835(12) 0.1575(12) 0.1116(12)
H10A H 1.1529 0.1669 0.0299
C12A C 0.9729(11) 0.2631(10) 0.1356(10)
H11A H 0.9701 0.3431 0.0720
C13A C 0.5366(10) 0.3338(9) 0.2906(9)
C14A C 0.4590(11) 0.2444(11) 0.3992(10)
H12A H 0.4929 0.2085 0.4733
C15A C 0.3286(13) 0.2106(12) 0.3931(12)
H13A H 0.2749 0.1514 0.4644
C16A C 0.2783(12) 0.2627(12) 0.2844(12)
H14A H 0.1898 0.2406 0.2830
C17A C 0.3595(13) 0.3485(11) 0.1764(11)
H15A H 0.3287 0.3815 0.1009
C18A C 0.4881(11) 0.3851(10) 0.1820(10)
H16A H 0.5410 0.4450 0.1108
C19A C 0.5002(19) 0.9331(15) 0.2156(18)
H17A H 0.4574 0.8895 0.1803
H18A H 0.4157 0.9701 0.2763
C20A C 0.5829(16) 1.0365(12) 0.1104(12)
H19A H 0.5167 1.1207 0.1033
H20A H 0.6135 1.0198 0.0284
C21A C 0.7215(18) 1.0321(14) 0.1478(13)
H21A H 0.7155 1.1112 0.1654
H22A H 0.8162 1.0201 0.0802
C22A C 0.7173(19) 0.9202(17) 0.2648(18)
H23A H 0.6856 0.9502 0.3396
H24A H 0.8204 0.8686 0.2596
loop_
_geom_bond_atom_site_label_1
_geom_bond_atom_site_label_2
_geom_bond_site_symmetry_1
_geom_bond_site_symmetry_2
Na1 S1 1_555 1_555
P1 S1 1_555 1_555
O1 Na1 1_555 1_555
N1 Na1 1_555 1_555
N2 C2 1_555 1_555
C1 N1 1_555 1_555
H1 C1 1_555 1_555
H2 C1 1_555 1_555
C2 H3 1_555 1_555
C3 C2 1_555 1_555
H4 C3 1_555 1_555
C4 C3 1_555 1_555
H5 C4 1_555 1_555
C5 C4 1_555 1_555
H6 C5 1_555 1_555
C6 N2 1_555 1_555
C7 P1 1_555 1_555
C8 C7 1_555 1_555
H7 C8 1_555 1_555
C9 C8 1_555 1_555
H8 C9 1_555 1_555
C10 C9 1_555 1_555
H9 C10 1_555 1_555
C11 C10 1_555 1_555
H10 C11 1_555 1_555
C12 C7 1_555 1_555
H11 C12 1_555 1_555
C13 P1 1_555 1_555
C14 C13 1_555 1_555
H12 C14 1_555 1_555
C15 C14 1_555 1_555
H13 C15 1_555 1_555
C16 C15 1_555 1_555
H14 C16 1_555 1_555
C17 C16 1_555 1_555
H15 C17 1_555 1_555
C18 C13 1_555 1_555
H16 C18 1_555 1_555
C19 O1 1_555 1_555
H17 C19 1_555 1_555
H18 C19 1_555 1_555
C20 C19 1_555 1_555
H19 C20 1_555 1_555
H20 C20 1_555 1_555
C21 C20 1_555 1_555
H21 C21 1_555 1_555
H22 C21 1_555 1_555
C22 O1 1_555 1_555
H23 C22 1_555 1_555
H24 C22 1_555 1_555
Na1A N1 1_555 1_555
P1A S1A 1_555 1_555
S1A Na1A 1_555 1_555
O1A Na1A 1_555 1_555
N1A Na1 1_555 1_555
N2A Na1 1_555 1_555
C1A N1A 1_555 1_555
H1A C1A 1_555 1_555
H2A C1A 1_555 1_555
C2A N2A 1_555 1_555
H3A C2A 1_555 1_555
C3A C2A 1_555 1_555
H4A C3A 1_555 1_555
C4A C3A 1_555 1_555
H5A C4A 1_555 1_555
C5A C4A 1_555 1_555
H6A C5A 1_555 1_555
C6A N2A 1_555 1_555
C7A P1A 1_555 1_555
C8A C7A 1_555 1_555
H7A C8A 1_555 1_555
C9A C8A 1_555 1_555
H8A C9A 1_555 1_555
C10A C9A 1_555 1_555
H9A C10A 1_555 1_555
C11A C10A 1_555 1_555
H10A C11A 1_555 1_555
C12A C7A 1_555 1_555
H11A C12A 1_555 1_555
C13A P1A 1_555 1_555
C14A C13A 1_555 1_555
H12A C14A 1_555 1_555
C15A C14A 1_555 1_555
H13A C15A 1_555 1_555
C16A C15A 1_555 1_555
H14A C16A 1_555 1_555
C17A C16A 1_555 1_555
H15A C17A 1_555 1_555
C18A C13A 1_555 1_555
H16A C18A 1_555 1_555
C19A O1A 1_555 1_555
H17A C19A 1_555 1_555
H18A C19A 1_555 1_555
C20A C19A 1_555 1_555
H19A C20A 1_555 1_555
H20A C20A 1_555 1_555
C21A C20A 1_555 1_555
H21A C21A 1_555 1_555
H22A C21A 1_555 1_555
C22A O1A 1_555 1_555
H23A C22A 1_555 1_555
H24A C22A 1_555 1_555
P1 N1 1_555 1_555
N2 Na1A 1_555 1_555
C1 C6 1_555 1_555
C5 C6 1_555 1_555
C11 C12 1_555 1_555
C17 C18 1_555 1_555
C21 C22 1_555 1_555
Na1A N1A 1_555 1_555
P1A N1A 1_555 1_555
C1A C6A 1_555 1_555
C5A C6A 1_555 1_555
C11A C12A 1_555 1_555
C17A C18A 1_555 1_555
C21A C22A 1_555 1_555

#END
