
#######################################################################
#
#                 Cambridge Crystallographic Data Centre
#                                CCDC 
#
#######################################################################
#
# If this CIF has been generated from an entry in the Cambridge 
# Structural Database, then it will include bibliographic, chemical, 
# crystal, experimental, refinement or atomic coordinate data resulting 
# from the CCDC's data processing and validation procedures.
#
#######################################################################

data_RESFUT
_chemical_formula_moiety         'C52 H64 K2 N4 O4 P2 Se2'
_chemical_name_systematic        
bis(\m-(diphenylphosphoroselenoyl)[(pyridin-2-yl)methyl]amido)-tetrakis(tetrahydrofuran)-di-potassium
_symmetry_cell_setting           monoclinic
_symmetry_space_group_name_H-M   'P 21/c'
_symmetry_Int_Tables_number      14
_space_group_name_Hall           '-P 2ybc'
loop_
_symmetry_equiv_pos_site_id
_symmetry_equiv_pos_as_xyz
1 x,y,z
2 -x,1/2+y,1/2-z
3 -x,-y,-z
4 x,1/2-y,1/2+z
_cell_length_a                   11.0390(4)
_cell_length_b                   16.9658(6)
_cell_length_c                   17.5503(7)
_cell_angle_alpha                90
_cell_angle_beta                 125.683(2)
_cell_angle_gamma                90
_cell_volume                     2669.82
_exptl_crystal_colour            colorless
_exptl_crystal_description       needle
_cell_formula_units_Z            2
loop_
_atom_site_label
_atom_site_type_symbol
_atom_site_fract_x
_atom_site_fract_y
_atom_site_fract_z
K1 K 0.13918(6) 0.98304(4) 0.61492(4)
Se1 Se 0.29956(3) 1.17181(2) 0.67426(2)
P1 P 0.19375(7) 1.17740(4) 0.52505(5)
O1 O 0.1790(2) 0.96443(13) 0.78545(16)
O2 O 0.4238(2) 0.92603(14) 0.71549(19)
N1 N 0.1490(2) 1.09612(13) 0.46842(16)
N2 N 0.1262(3) 0.92922(14) 0.43696(19)
C1 C 0.2373(3) 0.96999(16) 0.44548(19)
C2 C 0.3199(3) 0.94034(18) 0.4150(2)
H1 H 0.3959 0.9704 0.4215
C3 C 0.2891(4) 0.86658(19) 0.3753(2)
H2 H 0.3444 0.8458 0.3555
C4 C 0.1743(4) 0.82402(18) 0.3656(3)
H3 H 0.1498 0.7741 0.3385
C5 C 0.0962(4) 0.85735(19) 0.3970(3)
H4 H 0.0187 0.8285 0.3902
C6 C 0.2786(3) 1.04849(16) 0.4949(2)
H5 H 0.3390 1.0396 0.5621
H6 H 0.3386 1.0777 0.4806
C7 C 0.3151(3) 1.23696(16) 0.50784(19)
C8 C 0.2970(4) 1.23157(18) 0.4222(2)
H7 H 0.2213 1.2003 0.3744
C9 C 0.3911(4) 1.2724(2) 0.4078(3)
H8 H 0.3786 1.2682 0.3507
C10 C 0.5036(4) 1.31940(19) 0.4784(3)
H9 H 0.5675 1.3461 0.4690
C11 C 0.5210(3) 1.32658(17) 0.5626(2)
H10 H 0.5949 1.3593 0.6094
C12 C 0.4282(3) 1.28495(16) 0.5776(2)
H11 H 0.4418 1.2892 0.6349
C13 C 0.0206(3) 1.23350(16) 0.46537(19)
C14 C 0.0017(3) 1.29540(18) 0.5097(2)
H12 H 0.0786 1.3089 0.5709
C15 C -0.1316(4) 1.33708(19) 0.4627(3)
H13 H -0.1433 1.3783 0.4929
C16 C -0.2464(4) 1.31797(19) 0.3720(3)
H14 H -0.3356 1.3459 0.3410
C17 C -0.2282(3) 1.25700(18) 0.3273(2)
H15 H -0.3059 1.2437 0.2661
C18 C -0.0951(3) 1.21548(17) 0.3728(2)
H16 H -0.0830 1.1755 0.3415
C19 C 0.0622(4) 0.9376(2) 0.7919(3)
H17 H 0.0922 0.8899 0.8292
H18 H -0.0275 0.9267 0.7299
C20 C 0.0348(4) 1.0036(2) 0.8383(3)
H19 H -0.0365 1.0415 0.7926
H20 H -0.0007 0.9833 0.8737
C21 C 0.1884(5) 1.0394(3) 0.9022(3)
H21 H 0.1824 1.0947 0.9138
H22 H 0.2470 1.0118 0.9617
C22 C 0.2543(4) 1.0294(2) 0.8487(3)
H23 H 0.2406 1.0771 0.8140
H24 H 0.3603 1.0187 0.8914
C23 C 0.4959(4) 0.8789(2) 0.6845(2)
H25 H 0.4488 0.8871 0.6181
H26 H 0.4889 0.8234 0.6948
C24 C 0.6570(4) 0.9043(2) 0.7408(3)
H27 H 0.7224 0.8612 0.7793
H28 H 0.6839 0.9219 0.6999
C25 C 0.6672(6) 0.9690(4) 0.7993(5)
H29 H 0.7508 0.9603 0.8640
H30 H 0.6837 1.0182 0.7785
C26 C 0.5318(4) 0.9736(2) 0.7927(3)
H31 H 0.5481 0.9546 0.8501
H32 H 0.4976 1.0278 0.7829
K1B K -0.13918(6) 1.01696(4) 0.38508(4)
Se1B Se -0.29956(3) 0.82819(2) 0.32574(2)
P1B P -0.19375(7) 0.82260(4) 0.47495(5)
O1B O -0.1790(2) 1.03557(13) 0.21455(16)
O2B O -0.4238(2) 1.07397(14) 0.28451(19)
N1B N -0.1490(2) 0.90388(13) 0.53158(16)
N2B N -0.1262(3) 1.07078(14) 0.56304(19)
C1B C -0.2373(3) 1.03001(16) 0.55452(19)
C2B C -0.3199(3) 1.05966(18) 0.5850(2)
H1B H -0.3959 1.0296 0.5785
C3B C -0.2891(4) 1.13342(19) 0.6247(2)
H2B H -0.3444 1.1542 0.6445
C4B C -0.1743(4) 1.17598(18) 0.6344(3)
H3B H -0.1498 1.2259 0.6615
C5B C -0.0962(4) 1.14265(19) 0.6030(3)
H4B H -0.0187 1.1715 0.6098
C6B C -0.2786(3) 0.95151(16) 0.5051(2)
H5B H -0.3390 0.9604 0.4379
H6B H -0.3386 0.9223 0.5194
C7B C -0.3151(3) 0.76304(16) 0.49216(19)
C8B C -0.2970(4) 0.76843(18) 0.5778(2)
H7B H -0.2213 0.7997 0.6256
C9B C -0.3911(4) 0.7276(2) 0.5922(3)
H8B H -0.3786 0.7318 0.6493
C10B C -0.5036(4) 0.68060(19) 0.5216(3)
H9B H -0.5675 0.6539 0.5310
C11B C -0.5210(3) 0.67342(17) 0.4374(2)
H10B H -0.5949 0.6407 0.3906
C12B C -0.4282(3) 0.71505(16) 0.4224(2)
H11B H -0.4418 0.7108 0.3651
C13B C -0.0206(3) 0.76650(16) 0.53463(19)
C14B C -0.0017(3) 0.70460(18) 0.4903(2)
H12B H -0.0786 0.6911 0.4291
C15B C 0.1316(4) 0.66292(19) 0.5373(3)
H13B H 0.1433 0.6217 0.5071
C16B C 0.2464(4) 0.68203(19) 0.6280(3)
H14B H 0.3356 0.6541 0.6590
C17B C 0.2282(3) 0.74300(18) 0.6727(2)
H15B H 0.3059 0.7563 0.7339
C18B C 0.0951(3) 0.78452(17) 0.6272(2)
H16B H 0.0830 0.8245 0.6585
C19B C -0.0622(4) 1.0624(2) 0.2081(3)
H17B H -0.0922 1.1101 0.1708
H18B H 0.0275 1.0733 0.2701
C20B C -0.0348(4) 0.9964(2) 0.1617(3)
H19B H 0.0365 0.9585 0.2074
H20B H 0.0007 1.0167 0.1263
C21B C -0.1884(5) 0.9606(3) 0.0978(3)
H21B H -0.1824 0.9053 0.0862
H22B H -0.2470 0.9882 0.0383
C22B C -0.2543(4) 0.9706(2) 0.1513(3)
H23B H -0.2406 0.9229 0.1860
H24B H -0.3603 0.9813 0.1086
C23B C -0.4959(4) 1.1211(2) 0.3155(2)
H25B H -0.4488 1.1129 0.3819
H26B H -0.4889 1.1766 0.3052
C24B C -0.6570(4) 1.0957(2) 0.2592(3)
H27B H -0.7224 1.1388 0.2207
H28B H -0.6839 1.0781 0.3001
C25B C -0.6672(6) 1.0310(4) 0.2007(5)
H29B H -0.7508 1.0397 0.1360
H30B H -0.6837 0.9818 0.2215
C26B C -0.5318(4) 1.0264(2) 0.2073(3)
H31B H -0.5481 1.0454 0.1499
H32B H -0.4976 0.9722 0.2171
loop_
_geom_bond_atom_site_label_1
_geom_bond_atom_site_label_2
_geom_bond_site_symmetry_1
_geom_bond_site_symmetry_2
K1 Se1 1_555 1_555
Se1 P1 1_555 1_555
P1 N1 1_555 1_555
O1 K1 1_555 1_555
O2 K1 1_555 1_555
N1 K1 1_555 1_555
N2 K1 1_555 1_555
C1 N2 1_555 1_555
C2 C1 1_555 1_555
H1 C2 1_555 1_555
C3 C2 1_555 1_555
H2 C3 1_555 1_555
C4 C3 1_555 1_555
H3 C4 1_555 1_555
C5 N2 1_555 1_555
H4 C5 1_555 1_555
C6 N1 1_555 1_555
H5 C6 1_555 1_555
H6 C6 1_555 1_555
C7 P1 1_555 1_555
C8 C7 1_555 1_555
H7 C8 1_555 1_555
C9 C8 1_555 1_555
H8 C9 1_555 1_555
C10 C9 1_555 1_555
H9 C10 1_555 1_555
C11 C10 1_555 1_555
H10 C11 1_555 1_555
C12 C7 1_555 1_555
H11 C12 1_555 1_555
C13 P1 1_555 1_555
C14 C13 1_555 1_555
H12 C14 1_555 1_555
C15 C14 1_555 1_555
H13 C15 1_555 1_555
C16 C15 1_555 1_555
H14 C16 1_555 1_555
C17 C16 1_555 1_555
H15 C17 1_555 1_555
C18 C13 1_555 1_555
H16 C18 1_555 1_555
C19 O1 1_555 1_555
H17 C19 1_555 1_555
H18 C19 1_555 1_555
C20 C19 1_555 1_555
H19 C20 1_555 1_555
H20 C20 1_555 1_555
C21 C20 1_555 1_555
H21 C21 1_555 1_555
H22 C21 1_555 1_555
C22 O1 1_555 1_555
H23 C22 1_555 1_555
H24 C22 1_555 1_555
C23 O2 1_555 1_555
H25 C23 1_555 1_555
H26 C23 1_555 1_555
C24 C23 1_555 1_555
H27 C24 1_555 1_555
H28 C24 1_555 1_555
C25 C24 1_555 1_555
H29 C25 1_555 1_555
H30 C25 1_555 1_555
C26 O2 1_555 1_555
H31 C26 1_555 1_555
H32 C26 1_555 1_555
K1B N1 1_555 1_555
Se1B K1B 1_555 1_555
P1B Se1B 1_555 1_555
O1B K1B 1_555 1_555
O2B K1B 1_555 1_555
N1B K1 1_555 1_555
N2B K1 1_555 1_555
C1B N2B 1_555 1_555
C2B C1B 1_555 1_555
H1B C2B 1_555 1_555
C3B C2B 1_555 1_555
H2B C3B 1_555 1_555
C4B C3B 1_555 1_555
H3B C4B 1_555 1_555
C5B N2B 1_555 1_555
H4B C5B 1_555 1_555
C6B N1B 1_555 1_555
H5B C6B 1_555 1_555
H6B C6B 1_555 1_555
C7B P1B 1_555 1_555
C8B C7B 1_555 1_555
H7B C8B 1_555 1_555
C9B C8B 1_555 1_555
H8B C9B 1_555 1_555
C10B C9B 1_555 1_555
H9B C10B 1_555 1_555
C11B C10B 1_555 1_555
H10B C11B 1_555 1_555
C12B C7B 1_555 1_555
H11B C12B 1_555 1_555
C13B P1B 1_555 1_555
C14B C13B 1_555 1_555
H12B C14B 1_555 1_555
C15B C14B 1_555 1_555
H13B C15B 1_555 1_555
C16B C15B 1_555 1_555
H14B C16B 1_555 1_555
C17B C16B 1_555 1_555
H15B C17B 1_555 1_555
C18B C13B 1_555 1_555
H16B C18B 1_555 1_555
C19B O1B 1_555 1_555
H17B C19B 1_555 1_555
H18B C19B 1_555 1_555
C20B C19B 1_555 1_555
H19B C20B 1_555 1_555
H20B C20B 1_555 1_555
C21B C20B 1_555 1_555
H21B C21B 1_555 1_555
H22B C21B 1_555 1_555
C22B O1B 1_555 1_555
H23B C22B 1_555 1_555
H24B C22B 1_555 1_555
C23B O2B 1_555 1_555
H25B C23B 1_555 1_555
H26B C23B 1_555 1_555
C24B C23B 1_555 1_555
H27B C24B 1_555 1_555
H28B C24B 1_555 1_555
C25B C24B 1_555 1_555
H29B C25B 1_555 1_555
H30B C25B 1_555 1_555
C26B O2B 1_555 1_555
H31B C26B 1_555 1_555
H32B C26B 1_555 1_555
N2 K1B 1_555 1_555
C1 C6 1_555 1_555
C4 C5 1_555 1_555
C11 C12 1_555 1_555
C17 C18 1_555 1_555
C21 C22 1_555 1_555
C25 C26 1_555 1_555
K1B N1B 1_555 1_555
K1B N2B 1_555 1_555
P1B N1B 1_555 1_555
C1B C6B 1_555 1_555
C4B C5B 1_555 1_555
C11B C12B 1_555 1_555
C17B C18B 1_555 1_555
C21B C22B 1_555 1_555
C25B C26B 1_555 1_555

#END
