
#######################################################################
#
#                 Cambridge Crystallographic Data Centre
#                                CCDC 
#
#######################################################################
#
# If this CIF has been generated from an entry in the Cambridge 
# Structural Database, then it will include bibliographic, chemical, 
# crystal, experimental, refinement or atomic coordinate data resulting 
# from the CCDC's data processing and validation procedures.
#
#######################################################################

data_RESFON
_chemical_formula_moiety         'C44 H48 N4 Na2 O2 P2 Se2'
_chemical_name_systematic        
bis(\m-(diphenylphosphoroselenoyl)[(pyridin-2-yl)methyl]amido)-bis(tetrahydrofuran)-di-sodium
_symmetry_cell_setting           triclinic
_symmetry_space_group_name_H-M   'P -1'
_symmetry_Int_Tables_number      2
_space_group_name_Hall           '-P 1'
loop_
_symmetry_equiv_pos_site_id
_symmetry_equiv_pos_as_xyz
1 x,y,z
2 -x,-y,-z
_cell_length_a                   9.5538(12)
_cell_length_b                   10.9643(13)
_cell_length_c                   11.4786(14)
_cell_angle_alpha                97.092(10)
_cell_angle_beta                 109.249(11)
_cell_angle_gamma                104.063(11)
_cell_volume                     1073.6
_exptl_crystal_colour            colorless
_exptl_crystal_description       block
_cell_formula_units_Z            1
loop_
_atom_site_label
_atom_site_type_symbol
_atom_site_fract_x
_atom_site_fract_y
_atom_site_fract_z
Na1 Na 0.5625(5) -0.0695(4) 0.1292(4)
Se1 Se 0.79853(13) 0.14181(11) 0.34889(11)
P1 P 0.7261(3) 0.2319(2) 0.1923(2)
O1 O 0.6335(9) -0.2279(8) 0.2394(7)
N1 N 0.6818(10) 0.1504(8) 0.0523(8)
N2 N 0.6478(10) 0.0596(9) -0.1966(8)
C1 C 0.7889(13) 0.0803(11) -0.1070(10)
C2 C 0.9148(13) 0.0719(11) -0.1364(11)
H1 H 1.0126 0.0923 -0.0727
C3 C 0.8946(14) 0.0324(11) -0.2630(12)
H2 H 0.9772 0.0217 -0.2847
C4 C 0.7501(14) 0.0097(11) -0.3547(11)
H3 H 0.7336 -0.0152 -0.4398
C5 C 0.6312(13) 0.0242(10) -0.3192(10)
H4 H 0.5339 0.0091 -0.3821
C6 C 0.8111(13) 0.1202(13) 0.0313(10)
H5 H 0.8317 0.0509 0.0726
H6 H 0.9024 0.1951 0.0715
C7 C 0.8778(11) 0.3846(10) 0.2252(10)
C8 C 0.8802(13) 0.4469(11) 0.1253(11)
H7 H 0.8076 0.4092 0.0438
C9 C 0.9921(14) 0.5656(11) 0.1492(12)
H8 H 0.9912 0.6073 0.0832
C10 C 1.1015(14) 0.6210(11) 0.2660(12)
H9 H 1.1752 0.7000 0.2803
C11 C 1.1030(14) 0.5585(11) 0.3653(11)
H10 H 1.1791 0.5950 0.4457
C12 C 0.9914(12) 0.4426(10) 0.3438(10)
H11 H 0.9927 0.4025 0.4108
C13 C 0.5500(11) 0.2771(9) 0.1822(9)
C14 C 0.4669(13) 0.3086(10) 0.0702(10)
H12 H 0.5040 0.3102 0.0048
C15 C 0.3300(13) 0.3372(11) 0.0570(11)
H13 H 0.2748 0.3573 -0.0176
C16 C 0.2749(13) 0.3359(11) 0.1544(12)
H14 H 0.1828 0.3551 0.1454
C17 C 0.3576(14) 0.3060(12) 0.2652(12)
H15 H 0.3212 0.3056 0.3310
C18 C 0.4947(13) 0.2765(11) 0.2785(10)
H16 H 0.5495 0.2562 0.3531
C19 C 0.7781(14) -0.2289(13) 0.3348(12)
H17 H 0.8364 -0.1430 0.3869
H18 H 0.8422 -0.2598 0.2954
C20 C 0.7293(16) -0.3198(15) 0.4140(14)
H19 H 0.7898 -0.2841 0.5034
H20 H 0.7429 -0.4030 0.3908
C21 C 0.5567(15) -0.3324(13) 0.3836(12)
H21 H 0.5011 -0.4141 0.3947
H22 H 0.5434 -0.2622 0.4349
C22 C 0.5065(16) -0.3252(13) 0.2477(12)
H23 H 0.4883 -0.4077 0.1943
H24 H 0.4116 -0.3008 0.2217
Na1A Na 0.4375(5) 0.0695(4) -0.1292(4)
Se1A Se 0.20147(13) -0.14181(11) -0.34889(11)
P1A P 0.2739(3) -0.2319(2) -0.1923(2)
O1A O 0.3665(9) 0.2279(8) -0.2394(7)
N1A N 0.3182(10) -0.1504(8) -0.0523(8)
N2A N 0.3522(10) -0.0596(9) 0.1966(8)
C1A C 0.2111(13) -0.0803(11) 0.1070(10)
C2A C 0.0852(13) -0.0719(11) 0.1364(11)
H1A H -0.0126 -0.0923 0.0727
C3A C 0.1054(14) -0.0324(11) 0.2630(12)
H2A H 0.0228 -0.0217 0.2847
C4A C 0.2499(14) -0.0097(11) 0.3547(11)
H3A H 0.2664 0.0152 0.4398
C5A C 0.3688(13) -0.0242(10) 0.3192(10)
H4A H 0.4661 -0.0091 0.3821
C6A C 0.1889(13) -0.1202(13) -0.0313(10)
H5A H 0.1683 -0.0509 -0.0726
H6A H 0.0976 -0.1951 -0.0715
C7A C 0.1222(11) -0.3846(10) -0.2252(10)
C8A C 0.1198(13) -0.4469(11) -0.1253(11)
H7A H 0.1924 -0.4092 -0.0438
C9A C 0.0079(14) -0.5656(11) -0.1492(12)
H8A H 0.0088 -0.6073 -0.0832
C10A C -0.1015(14) -0.6210(11) -0.2660(12)
H9A H -0.1752 -0.7000 -0.2803
C11A C -0.1030(14) -0.5585(11) -0.3653(11)
H10A H -0.1791 -0.5950 -0.4457
C12A C 0.0086(12) -0.4426(10) -0.3438(10)
H11A H 0.0073 -0.4025 -0.4108
C13A C 0.4500(11) -0.2771(9) -0.1822(9)
C14A C 0.5331(13) -0.3086(10) -0.0702(10)
H12A H 0.4960 -0.3102 -0.0048
C15A C 0.6700(13) -0.3372(11) -0.0570(11)
H13A H 0.7252 -0.3573 0.0176
C16A C 0.7251(13) -0.3359(11) -0.1544(12)
H14A H 0.8172 -0.3551 -0.1454
C17A C 0.6424(14) -0.3060(12) -0.2652(12)
H15A H 0.6788 -0.3056 -0.3310
C18A C 0.5053(13) -0.2765(11) -0.2785(10)
H16A H 0.4505 -0.2562 -0.3531
C19A C 0.2219(14) 0.2289(13) -0.3348(12)
H17A H 0.1636 0.1430 -0.3869
H18A H 0.1578 0.2598 -0.2954
C20A C 0.2707(16) 0.3198(15) -0.4140(14)
H19A H 0.2102 0.2841 -0.5034
H20A H 0.2571 0.4030 -0.3908
C21A C 0.4433(15) 0.3324(13) -0.3836(12)
H21A H 0.4989 0.4141 -0.3947
H22A H 0.4566 0.2622 -0.4349
C22A C 0.4935(16) 0.3252(13) -0.2477(12)
H23A H 0.5117 0.4077 -0.1943
H24A H 0.5884 0.3008 -0.2217
loop_
_geom_bond_atom_site_label_1
_geom_bond_atom_site_label_2
_geom_bond_site_symmetry_1
_geom_bond_site_symmetry_2
Na1 Se1 1_555 1_555
Se1 P1 1_555 1_555
P1 N1 1_555 1_555
O1 Na1 1_555 1_555
N1 Na1 1_555 1_555
N2 C1 1_555 1_555
C1 C2 1_555 1_555
C2 H1 1_555 1_555
C3 C2 1_555 1_555
H2 C3 1_555 1_555
C4 C3 1_555 1_555
H3 C4 1_555 1_555
C5 N2 1_555 1_555
H4 C5 1_555 1_555
C6 N1 1_555 1_555
H5 C6 1_555 1_555
H6 C6 1_555 1_555
C7 P1 1_555 1_555
C8 C7 1_555 1_555
H7 C8 1_555 1_555
C9 C8 1_555 1_555
H8 C9 1_555 1_555
C10 C9 1_555 1_555
H9 C10 1_555 1_555
C11 C10 1_555 1_555
H10 C11 1_555 1_555
C12 C7 1_555 1_555
H11 C12 1_555 1_555
C13 P1 1_555 1_555
C14 C13 1_555 1_555
H12 C14 1_555 1_555
C15 C14 1_555 1_555
H13 C15 1_555 1_555
C16 C15 1_555 1_555
H14 C16 1_555 1_555
C17 C16 1_555 1_555
H15 C17 1_555 1_555
C18 C13 1_555 1_555
H16 C18 1_555 1_555
C19 O1 1_555 1_555
H17 C19 1_555 1_555
H18 C19 1_555 1_555
C20 C19 1_555 1_555
H19 C20 1_555 1_555
H20 C20 1_555 1_555
C21 C20 1_555 1_555
H21 C21 1_555 1_555
H22 C21 1_555 1_555
C22 O1 1_555 1_555
H23 C22 1_555 1_555
H24 C22 1_555 1_555
Na1A N1 1_555 1_555
Se1A Na1A 1_555 1_555
P1A Se1A 1_555 1_555
O1A Na1A 1_555 1_555
N1A Na1 1_555 1_555
N2A Na1 1_555 1_555
C1A N2A 1_555 1_555
C2A C1A 1_555 1_555
H1A C2A 1_555 1_555
C3A C2A 1_555 1_555
H2A C3A 1_555 1_555
C4A C3A 1_555 1_555
H3A C4A 1_555 1_555
C5A N2A 1_555 1_555
H4A C5A 1_555 1_555
C6A N1A 1_555 1_555
H5A C6A 1_555 1_555
H6A C6A 1_555 1_555
C7A P1A 1_555 1_555
C8A C7A 1_555 1_555
H7A C8A 1_555 1_555
C9A C8A 1_555 1_555
H8A C9A 1_555 1_555
C10A C9A 1_555 1_555
H9A C10A 1_555 1_555
C11A C10A 1_555 1_555
H10A C11A 1_555 1_555
C12A C7A 1_555 1_555
H11A C12A 1_555 1_555
C13A P1A 1_555 1_555
C14A C13A 1_555 1_555
H12A C14A 1_555 1_555
C15A C14A 1_555 1_555
H13A C15A 1_555 1_555
C16A C15A 1_555 1_555
H14A C16A 1_555 1_555
C17A C16A 1_555 1_555
H15A C17A 1_555 1_555
C18A C13A 1_555 1_555
H16A C18A 1_555 1_555
C19A O1A 1_555 1_555
H17A C19A 1_555 1_555
H18A C19A 1_555 1_555
C20A C19A 1_555 1_555
H19A C20A 1_555 1_555
H20A C20A 1_555 1_555
C21A C20A 1_555 1_555
H21A C21A 1_555 1_555
H22A C21A 1_555 1_555
C22A O1A 1_555 1_555
H23A C22A 1_555 1_555
H24A C22A 1_555 1_555
N2 Na1A 1_555 1_555
C1 C6 1_555 1_555
C4 C5 1_555 1_555
C11 C12 1_555 1_555
C17 C18 1_555 1_555
C21 C22 1_555 1_555
Na1A N1A 1_555 1_555
P1A N1A 1_555 1_555
C1A C6A 1_555 1_555
C4A C5A 1_555 1_555
C11A C12A 1_555 1_555
C17A C18A 1_555 1_555
C21A C22A 1_555 1_555

#END
