
#######################################################################
#
#                 Cambridge Crystallographic Data Centre
#                                CCDC 
#
#######################################################################
#
# If this CIF has been generated from an entry in the Cambridge 
# Structural Database, then it will include bibliographic, chemical, 
# crystal, experimental, refinement or atomic coordinate data resulting 
# from the CCDC's data processing and validation procedures.
#
#######################################################################

data_RESLEI
_chemical_formula_moiety         'C10 H16 O4'
_chemical_name_systematic        7,8-Dihydroxy-1-oxaspiro[5.5]undecan-2-one
_symmetry_cell_setting           monoclinic
_symmetry_space_group_name_H-M   'C c'
_symmetry_Int_Tables_number      9
_space_group_name_Hall           'C -2yc'
loop_
_symmetry_equiv_pos_site_id
_symmetry_equiv_pos_as_xyz
1 x,y,z
2 x,-y,1/2+z
3 1/2+x,1/2+y,z
4 1/2+x,1/2-y,1/2+z
_cell_length_a                   9.3155(11)
_cell_length_b                   19.012(2)
_cell_length_c                   6.3222(7)
_cell_angle_alpha                90
_cell_angle_beta                 118.966(2)
_cell_angle_gamma                90
_cell_volume                     979.635
_exptl_crystal_colour            colorless
_exptl_crystal_description       prism
_cell_formula_units_Z            4
loop_
_atom_site_label
_atom_site_type_symbol
_atom_site_fract_x
_atom_site_fract_y
_atom_site_fract_z
C1 C 0.5691(3) 0.09344(13) 0.5021(5)
C2 C 0.4790(4) 0.10556(16) 0.6402(5)
H1 H 0.4432 0.0595 0.6711
H2 H 0.3791 0.1333 0.5379
C3 C 0.5763(4) 0.14340(17) 0.8802(5)
H3 H 0.5233 0.1365 0.9818
H4 H 0.5795 0.1945 0.8523
C4 C 0.7501(3) 0.11369(17) 1.0081(5)
H5 H 0.7455 0.0626 1.0345
H6 H 0.8131 0.1364 1.1681
C5 C 0.8370(3) 0.12589(14) 0.8604(4)
C6 C 0.9854(3) 0.07769(14) 0.9372(5)
H7 H 0.9476 0.0277 0.9143
C7 C 1.0739(3) 0.09077(14) 0.7915(5)
H8 H 0.9949 0.0806 0.6180
C8 C 1.1274(4) 0.16690(14) 0.8085(5)
H9 H 1.1792 0.1742 0.7056
H10 H 1.2097 0.1779 0.9776
C9 C 0.9810(4) 0.21589(15) 0.7271(5)
H11 H 0.9057 0.2088 0.5524
H12 H 1.0196 0.2653 0.7511
C10 C 0.8884(3) 0.20287(15) 0.8671(5)
H13 H 0.7890 0.2328 0.7985
H14 H 0.9587 0.2171 1.0375
O1 O 0.5027(3) 0.07244(11) 0.2965(3)
O2 O 0.7304(2) 0.10701(10) 0.6037(3)
O3 O 1.0926(3) 0.08985(10) 1.1883(3)
H15 H 1.1755 0.0639 1.2365
O4 O 1.2099(2) 0.04371(10) 0.8662(3)
H16 H 1.1751 0.0025 0.8249
loop_
_geom_bond_atom_site_label_1
_geom_bond_atom_site_label_2
_geom_bond_site_symmetry_1
_geom_bond_site_symmetry_2
C1 C2 1_555 1_555
C2 H1 1_555 1_555
H2 C2 1_555 1_555
C3 C2 1_555 1_555
H3 C3 1_555 1_555
H4 C3 1_555 1_555
C4 C3 1_555 1_555
H5 C4 1_555 1_555
H6 C4 1_555 1_555
C5 C4 1_555 1_555
C6 C5 1_555 1_555
H7 C6 1_555 1_555
C7 C6 1_555 1_555
H8 C7 1_555 1_555
C8 C7 1_555 1_555
H9 C8 1_555 1_555
H10 C8 1_555 1_555
C9 C8 1_555 1_555
H11 C9 1_555 1_555
H12 C9 1_555 1_555
C10 C5 1_555 1_555
H13 C10 1_555 1_555
H14 C10 1_555 1_555
O1 C1 1_555 1_555
O2 C1 1_555 1_555
O3 C6 1_555 1_555
H15 O3 1_555 1_555
O4 C7 1_555 1_555
H16 O4 1_555 1_555
C5 O2 1_555 1_555
C9 C10 1_555 1_555

#END
