
#######################################################################
#
#                 Cambridge Crystallographic Data Centre
#                                CCDC 
#
#######################################################################
#
# If this CIF has been generated from an entry in the Cambridge 
# Structural Database, then it will include bibliographic, chemical, 
# crystal, experimental, refinement or atomic coordinate data resulting 
# from the CCDC's data processing and validation procedures.
#
#######################################################################

data_RESNEL
_chemical_formula_moiety         'C17 H22 O7'
_chemical_name_systematic        
'methyl 9-hydroxy-3a,4,7-trimethyl-2,10-dioxooctahydro-7H-6a,9-(epoxymethano)indeno[3a,4-b]furan-7-carboxylate'
_symmetry_cell_setting           orthorhombic
_symmetry_space_group_name_H-M   'P 21 21 21'
_symmetry_Int_Tables_number      19
_space_group_name_Hall           'P 2ac 2ab'
loop_
_symmetry_equiv_pos_site_id
_symmetry_equiv_pos_as_xyz
1 x,y,z
2 1/2-x,-y,1/2+z
3 1/2+x,1/2-y,-z
4 -x,1/2+y,1/2-z
_cell_length_a                   8.16871(17)
_cell_length_b                   8.25025(17)
_cell_length_c                   23.3395(4)
_cell_angle_alpha                90
_cell_angle_beta                 90
_cell_angle_gamma                90
_cell_volume                     1572.94
_exptl_crystal_colour            'light colorless'
_exptl_crystal_description       block
_cell_formula_units_Z            4
loop_
_atom_site_label
_atom_site_type_symbol
_atom_site_fract_x
_atom_site_fract_y
_atom_site_fract_z
O1 O -0.73396(16) -0.32315(15) -0.20963(5)
O2 O -0.5272(2) -0.23566(17) -0.26484(5)
O3 O -0.45735(18) -0.01484(16) -0.16774(5)
H1 H -0.4558 0.0658 -0.1883
O4 O -0.71162(15) -0.09791(15) -0.07738(5)
O5 O -0.6140(2) -0.0171(2) 0.00675(6)
O6 O -1.08598(19) -0.11155(19) -0.09137(7)
O7 O -1.0423(2) 0.11972(17) -0.13848(6)
C1 C -0.6040(2) -0.0957(2) -0.17502(7)
C2 C -0.6097(2) -0.2226(2) -0.22195(7)
C3 C -0.7582(2) 0.0087(2) -0.18728(7)
H2 H -0.7598 0.0447 -0.2268
H3 H -0.7614 0.1028 -0.1624
C4 C -0.9050(2) -0.1069(2) -0.17471(7)
C5 C -0.8134(2) -0.2647(2) -0.15596(6)
C6 C -0.9001(2) -0.4067(2) -0.12967(7)
H4 H -0.9774 -0.4517 -0.1569
H5 H -0.9604 -0.3717 -0.0961
C7 C -0.7754(3) -0.5354(2) -0.11279(8)
H6 H -0.7209 -0.5750 -0.1469
H7 H -0.8319 -0.6260 -0.0951
C8 C -0.6474(2) -0.4693(2) -0.07108(8)
H8 H -0.7068 -0.4251 -0.0381
C9 C -0.5437(2) -0.3283(2) -0.09685(7)
C10 C -0.6616(2) -0.2009(2) -0.12416(6)
C11 C -0.4698(2) -0.2266(2) -0.04829(7)
H9 H -0.4458 -0.2937 -0.0152
H10 H -0.3697 -0.1740 -0.0607
C12 C -0.5989(2) -0.1032(2) -0.03422(7)
C13 C -0.5406(3) -0.6080(3) -0.04886(11)
H11 H -0.4907 -0.6629 -0.0806
H12 H -0.6071 -0.6829 -0.0277
H13 H -0.4569 -0.5651 -0.0243
C14 C -1.0183(2) -0.0384(2) -0.12868(7)
C15 C -1.0169(3) -0.1367(3) -0.22696(8)
H14 H -0.9522 -0.1746 -0.2586
H15 H -1.0702 -0.0373 -0.2374
H16 H -1.0977 -0.2167 -0.2174
C16 C -0.4083(2) -0.3897(2) -0.13715(8)
H17 H -0.3606 -0.2996 -0.1571
H18 H -0.4544 -0.4640 -0.1644
H19 H -0.3255 -0.4438 -0.1152
C17 C -1.1634(3) 0.2004(3) -0.10461(11)
H20 H -1.2172 0.2812 -0.1274
H21 H -1.1117 0.2513 -0.0723
H22 H -1.2424 0.1229 -0.0913
loop_
_geom_bond_atom_site_label_1
_geom_bond_atom_site_label_2
_geom_bond_site_symmetry_1
_geom_bond_site_symmetry_2
O1 C2 1_555 1_555
O2 C2 1_555 1_555
O3 H1 1_555 1_555
O4 C10 1_555 1_555
O5 C12 1_555 1_555
O6 C14 1_555 1_555
O7 C14 1_555 1_555
C1 O3 1_555 1_555
C2 C1 1_555 1_555
C3 C1 1_555 1_555
H2 C3 1_555 1_555
H3 C3 1_555 1_555
C4 C3 1_555 1_555
C5 O1 1_555 1_555
C6 C5 1_555 1_555
H4 C6 1_555 1_555
H5 C6 1_555 1_555
C7 C6 1_555 1_555
H6 C7 1_555 1_555
H7 C7 1_555 1_555
C8 C7 1_555 1_555
H8 C8 1_555 1_555
C9 C8 1_555 1_555
C10 C1 1_555 1_555
C11 C9 1_555 1_555
H9 C11 1_555 1_555
H10 C11 1_555 1_555
C12 O4 1_555 1_555
C13 C8 1_555 1_555
H11 C13 1_555 1_555
H12 C13 1_555 1_555
H13 C13 1_555 1_555
C14 C4 1_555 1_555
C15 C4 1_555 1_555
H14 C15 1_555 1_555
H15 C15 1_555 1_555
H16 C15 1_555 1_555
C16 C9 1_555 1_555
H17 C16 1_555 1_555
H18 C16 1_555 1_555
H19 C16 1_555 1_555
C17 O7 1_555 1_555
H20 C17 1_555 1_555
H21 C17 1_555 1_555
H22 C17 1_555 1_555
C4 C5 1_555 1_555
C5 C10 1_555 1_555
C9 C10 1_555 1_555
C11 C12 1_555 1_555

#END
