
#######################################################################
#
#                 Cambridge Crystallographic Data Centre
#                                CCDC 
#
#######################################################################
#
# If this CIF has been generated from an entry in the Cambridge 
# Structural Database, then it will include bibliographic, chemical, 
# crystal, experimental, refinement or atomic coordinate data resulting 
# from the CCDC's data processing and validation procedures.
#
#######################################################################

data_RESRIR
_chemical_formula_moiety         'C13 H9 Cl3 N3 O4 S1 1-,Na1 1+,3(H2 O1)'
_chemical_name_systematic        
"Sodium N-(3-(aminosulfonyl)-4-chloro-2-hydroxyphenyl)-N'-(2,3-dichlorophenyl)urea trihydrate"
_symmetry_cell_setting           monoclinic
_symmetry_space_group_name_H-M   'P 21/c'
_symmetry_Int_Tables_number      14
_space_group_name_Hall           '-P 2ybc'
loop_
_symmetry_equiv_pos_site_id
_symmetry_equiv_pos_as_xyz
1 x,y,z
2 -x,1/2+y,1/2-z
3 -x,-y,-z
4 x,1/2-y,1/2+z
_cell_length_a                   20.110(8)
_cell_length_b                   6.863(3)
_cell_length_c                   13.555(3)
_cell_angle_alpha                90.00
_cell_angle_beta                 91.04(3)
_cell_angle_gamma                90.00
_cell_volume                     1870.48
_exptl_crystal_colour            beige
_exptl_crystal_description       needles
_chemical_melting_point          205deg.C
_cell_formula_units_Z            4
_exptl_crystal_recrystallization_method acetone/dichloromethane/water
loop_
_atom_site_label
_atom_site_type_symbol
_atom_site_fract_x
_atom_site_fract_y
_atom_site_fract_z
S1 S 0.39453(7) 0.5912(2) 0.28266(11)
Cl1 Cl 0.35502(9) 0.3554(2) 0.07041(12)
Cl2 Cl 0.15614(9) 1.6867(3) 0.33164(12)
Cl3 Cl 0.05980(9) 2.0323(2) 0.27757(13)
N1 N 0.3589(3) 0.6145(8) 0.3887(4)
H1 H 0.326(2) 0.532(7) 0.393(5)
H2 H 0.341(3) 0.731(4) 0.392(5)
N2 N 0.2278(2) 1.1068(8) 0.1785(4)
H3 H 0.237(3) 1.146(9) 0.2392(19)
N3 N 0.1677(3) 1.3861(7) 0.1797(4)
H4 H 0.183(3) 1.390(9) 0.2409(18)
O1 O 0.4520(2) 0.7189(6) 0.2835(3)
O2 O 0.4079(2) 0.3876(6) 0.2705(3)
O3 O 0.1768(2) 1.2117(7) 0.0353(3)
O4 O 0.3274(2) 0.9628(6) 0.2914(3)
C1 C 0.3371(3) 0.6768(9) 0.1923(4)
C2 C 0.3087(3) 0.8621(8) 0.2147(4)
C3 C 0.2580(3) 0.9323(9) 0.1479(4)
C4 C 0.2397(3) 0.8281(9) 0.0652(4)
H5 H 0.2056 0.8776 0.0226
C5 C 0.2700(3) 0.6512(9) 0.0425(4)
H6 H 0.2577 0.5829 -0.0160
C6 C 0.3181(3) 0.5764(9) 0.1057(5)
C7 C 0.1897(3) 1.2311(9) 0.1237(4)
C8 C 0.1255(3) 1.5384(9) 0.1503(4)
C9 C 0.1152(3) 1.6919(9) 0.2173(4)
C10 C 0.0739(3) 1.8463(9) 0.1932(5)
C11 C 0.0415(3) 1.8535(10) 0.1019(5)
H7 H 0.0128 1.9590 0.0855
C12 C 0.0518(3) 1.7051(10) 0.0360(5)
H8 H 0.0303 1.7103 -0.0269
C13 C 0.0926(3) 1.5486(9) 0.0584(5)
H9 H 0.0982 1.4476 0.0114
Na1 Na 0.56099(12) 0.5659(4) 0.2578(2)
O5 O 0.2602(2) 1.1992(7) -0.1291(3)
H10 H 0.234(3) 1.209(10) -0.081(3)
H11 H 0.285(3) 1.298(6) -0.125(5)
O6 O 0.4480(2) 0.5454(7) 0.5700(3)
H12 H 0.4153(4) 0.5718(8) 0.5336(5)
H13 H 0.4693(3) 0.6502(14) 0.5739(3)
O7 O 0.5210(3) 0.5985(11) 0.0851(5)
H14 H 0.5516(3) 0.6101(11) 0.0473(5)
H15 H 0.4892(3) 0.5314(11) 0.0575(5)
loop_
_geom_bond_atom_site_label_1
_geom_bond_atom_site_label_2
_geom_bond_site_symmetry_1
_geom_bond_site_symmetry_2
S1 N1 1_555 1_555
Cl1 C6 1_555 1_555
Cl2 C9 1_555 1_555
Cl3 C10 1_555 1_555
N1 H1 1_555 1_555
H2 N1 1_555 1_555
N2 H3 1_555 1_555
N3 H4 1_555 1_555
O1 S1 1_555 1_555
O2 S1 1_555 1_555
O3 C7 1_555 1_555
O4 C2 1_555 1_555
C1 S1 1_555 1_555
C2 C1 1_555 1_555
C3 N2 1_555 1_555
C4 C3 1_555 1_555
H5 C4 1_555 1_555
C5 C4 1_555 1_555
H6 C5 1_555 1_555
C6 C1 1_555 1_555
C7 N2 1_555 1_555
C8 N3 1_555 1_555
C9 C8 1_555 1_555
C10 C9 1_555 1_555
C11 C10 1_555 1_555
H7 C11 1_555 1_555
C12 C11 1_555 1_555
H8 C12 1_555 1_555
C13 C8 1_555 1_555
H9 C13 1_555 1_555
O5 H10 1_555 1_555
H11 O5 1_555 1_555
O6 H12 1_555 1_555
H13 O6 1_555 1_555
O7 H14 1_555 1_555
H15 O7 1_555 1_555
N3 C7 1_555 1_555
C2 C3 1_555 1_555
C5 C6 1_555 1_555
C12 C13 1_555 1_555

#END
