
#######################################################################
#
#                 Cambridge Crystallographic Data Centre
#                                CCDC 
#
#######################################################################
#
# If this CIF has been generated from an entry in the Cambridge 
# Structural Database, then it will include bibliographic, chemical, 
# crystal, experimental, refinement or atomic coordinate data resulting 
# from the CCDC's data processing and validation procedures.
#
#######################################################################

data_RESSIR
_chemical_formula_moiety         'C11 H15 N3 S2'
_chemical_name_systematic        
'S-Methyl \b-N-(4-(dimethylamino)benzylidene)dithiocarbazate'
_symmetry_cell_setting           monoclinic
_symmetry_space_group_name_H-M   'P 21/n'
_symmetry_Int_Tables_number      14
_space_group_name_Hall           '-P 2yn'
loop_
_symmetry_equiv_pos_site_id
_symmetry_equiv_pos_as_xyz
1 x,y,z
2 1/2-x,1/2+y,1/2-z
3 -x,-y,-z
4 1/2+x,1/2-y,1/2+z
_cell_length_a                   8.364(2)
_cell_length_b                   12.684(3)
_cell_length_c                   12.224(2)
_cell_angle_alpha                90
_cell_angle_beta                 92.36(3)
_cell_angle_gamma                90
_cell_volume                     1295.73
_exptl_crystal_colour            yellow
_cell_formula_units_Z            4
loop_
_atom_site_label
_atom_site_type_symbol
_atom_site_fract_x
_atom_site_fract_y
_atom_site_fract_z
S1 S 0.1123(1) 0.6544(1) 0.4652(1)
S2 S -0.0848(1) 0.8060(1) 0.5945(1)
N1 N -0.1564(3) 0.6103(3) 0.5567(3)
N2 N -0.2906(3) 0.6346(3) 0.6139(3)
N3 N -0.9723(4) 0.5896(3) 0.8383(3)
C1 C -0.0455(4) 0.6829(3) 0.5381(3)
C2 C -0.3909(4) 0.5589(3) 0.6213(3)
C3 C -0.5791(4) 0.6605(3) 0.7356(3)
C4 C -0.7220(4) 0.6670(3) 0.7876(3)
C5 C -0.8321(4) 0.5828(3) 0.7846(3)
C6 C -0.7923(4) 0.4927(3) 0.7258(3)
C7 C -0.6477(4) 0.4866(3) 0.6747(3)
C8 C -0.5392(4) 0.5696(3) 0.6780(3)
C9 C -1.0181(5) 0.6849(4) 0.8925(4)
C10 C -1.0812(5) 0.5008(4) 0.8417(4)
C11 C 0.0850(5) 0.8787(4) 0.5515(4)
H1 H -0.1433 0.5442 0.5318
H2 H -0.3684 0.4932 0.5861
H3 H -0.5065 0.7192 0.7386
H4 H -0.7465 0.7299 0.8273
H5 H -0.8659 0.4346 0.7211
H6 H -0.6220 0.4236 0.6357
H7 H -0.9377 0.7380 0.8841
H8 H -1.1186 0.7098 0.8618
H9 H -1.0283 0.6700 0.9689
H10 H -1.0374 0.4432 0.8016
H11 H -1.0934 0.4800 0.9164
H12 H -1.1836 0.5198 0.8093
H13 H 0.0793 0.9499 0.5778
H14 H 0.1807 0.8460 0.5816
H15 H 0.0865 0.8786 0.4734
loop_
_geom_bond_atom_site_label_1
_geom_bond_atom_site_label_2
_geom_bond_site_symmetry_1
_geom_bond_site_symmetry_2
S1 C1 1_555 1_555
S2 C1 1_555 1_555
N1 N2 1_555 1_555
N2 C2 1_555 1_555
N3 C5 1_555 1_555
C1 N1 1_555 1_555
C2 C8 1_555 1_555
C3 C4 1_555 1_555
C4 C5 1_555 1_555
C5 C6 1_555 1_555
C6 C7 1_555 1_555
C7 C8 1_555 1_555
C8 C3 1_555 1_555
C9 N3 1_555 1_555
C10 N3 1_555 1_555
C11 S2 1_555 1_555
H1 N1 1_555 1_555
H2 C2 1_555 1_555
H3 C3 1_555 1_555
H4 C4 1_555 1_555
H5 C6 1_555 1_555
H6 C7 1_555 1_555
H7 C9 1_555 1_555
H8 C9 1_555 1_555
H9 C9 1_555 1_555
H10 C10 1_555 1_555
H11 C10 1_555 1_555
H12 C10 1_555 1_555
H13 C11 1_555 1_555
H14 C11 1_555 1_555
H15 C11 1_555 1_555

#END
