
#######################################################################
#
#                 Cambridge Crystallographic Data Centre
#                                CCDC 
#
#######################################################################
#
# If this CIF has been generated from an entry in the Cambridge 
# Structural Database, then it will include bibliographic, chemical, 
# crystal, experimental, refinement or atomic coordinate data resulting 
# from the CCDC's data processing and validation procedures.
#
#######################################################################

data_RETVIY
_chemical_formula_moiety         'C36 H20 F2'
_chemical_name_systematic        
2-fluoro-9-(4-fluorophenyl)-10-phenylindeno[1,2,3-fg]tetracene
_symmetry_cell_setting           monoclinic
_symmetry_space_group_name_H-M   'C 2/c'
_symmetry_Int_Tables_number      15
_space_group_name_Hall           '-C 2yn'
loop_
_symmetry_equiv_pos_site_id
_symmetry_equiv_pos_as_xyz
1 x,y,z
2 -x,y,1/2-z
3 1/2+x,1/2+y,z
4 1/2-x,1/2+y,1/2-z
5 -x,-y,-z
6 x,-y,1/2+z
7 1/2-x,1/2-y,-z
8 1/2+x,1/2-y,1/2+z
_cell_length_a                   15.943
_cell_length_b                   20.012
_cell_length_c                   7.763
_cell_angle_alpha                90
_cell_angle_beta                 111.70
_cell_angle_gamma                90
_cell_volume                     2301.27
_exptl_crystal_colour            purple
_exptl_crystal_description       rectangle
_cell_formula_units_Z            4
loop_
_atom_site_label
_atom_site_type_symbol
_atom_site_fract_x
_atom_site_fract_y
_atom_site_fract_z
C1 C 0.40798(9) 0.91289(6) 0.85025(19)
F1 F 0.40874(11) 0.97743(8) 0.8814(3)
C2 C 0.47436(9) 0.87662(6) 0.98348(19)
H1 H 0.5159 0.8983 1.0897
C3 C 0.47967(8) 0.80817(6) 0.96036(16)
H2 H 0.5247 0.7829 1.0524
C4 C 0.41978(7) 0.77605(5) 0.80382(15)
C5 C 0.42551(7) 0.70229(5) 0.78041(14)
C6 C 0.5000 0.67101(7) 0.7500
C7 C 0.35275(8) 0.81408(6) 0.67191(17)
H3 H 0.3110 0.7928 0.5653
C8 C 0.34641(9) 0.88243(6) 0.69458(19)
H4 H 0.3006 0.9079 0.6048
C9 C 0.35578(7) 0.66263(6) 0.80022(15)
C10 C 0.35631(7) 0.59025(6) 0.78953(15)
C11 C 0.28283(8) 0.55380(6) 0.80937(17)
H5 H 0.2814 0.5065 0.7975
C12 C 0.21521(8) 0.58508(7) 0.84462(18)
H6 H 0.1676 0.5597 0.8578
C13 C 0.21565(8) 0.65566(7) 0.86176(18)
H7 H 0.1688 0.6773 0.8886
C14 C 0.28267(8) 0.69263(6) 0.84000(16)
H8 H 0.2813 0.7398 0.8514
C15 C 0.43053(7) 0.55973(5) 0.76739(14)
C16 C 0.5000 0.59976(8) 0.7500
C17 C 0.45766(8) 0.48959(5) 0.76099(15)
C18 C 0.41604(9) 0.42931(6) 0.77269(16)
H9 H 0.3597 0.4287 0.7884
C19 C 0.45915(10) 0.37021(6) 0.76080(17)
F2 F 0.41144(12) 0.31333(7) 0.7702(2)
C1A C 0.59202(9) 0.91289(6) 0.64975(19)
F1A F 0.59126(11) 0.97743(8) 0.6186(3)
C2A C 0.52564(9) 0.87662(6) 0.51652(19)
H1A H 0.4841 0.8983 0.4103
C3A C 0.52033(8) 0.80817(6) 0.53964(16)
H2A H 0.4753 0.7829 0.4476
C4A C 0.58022(7) 0.77605(5) 0.69618(15)
C5A C 0.57449(7) 0.70229(5) 0.71959(14)
C7A C 0.64725(8) 0.81408(6) 0.82809(17)
H3A H 0.6890 0.7928 0.9347
C8A C 0.65359(9) 0.88243(6) 0.80542(19)
H4A H 0.6994 0.9079 0.8952
C9A C 0.64422(7) 0.66263(6) 0.69978(15)
C10A C 0.64369(7) 0.59025(6) 0.71047(15)
C11A C 0.71717(8) 0.55380(6) 0.69063(17)
H5A H 0.7186 0.5065 0.7025
C12A C 0.78479(8) 0.58508(7) 0.65538(18)
H6A H 0.8324 0.5597 0.6422
C13A C 0.78435(8) 0.65566(7) 0.63824(18)
H7A H 0.8312 0.6773 0.6114
C14A C 0.71733(8) 0.69263(6) 0.66000(16)
H8A H 0.7187 0.7398 0.6486
C15A C 0.56947(7) 0.55973(5) 0.73261(14)
C17A C 0.54234(8) 0.48959(5) 0.73901(15)
C18A C 0.58396(9) 0.42931(6) 0.72731(16)
H9A H 0.6403 0.4287 0.7116
C19A C 0.54085(10) 0.37021(6) 0.73920(17)
F2A F 0.58856(12) 0.31333(7) 0.7298(2)
H10? H 0.4068(12) 0.969(5) 0.875(4)
H11? H 0.4321 0.3291 0.7675
loop_
_geom_bond_atom_site_label_1
_geom_bond_atom_site_label_2
_geom_bond_site_symmetry_1
_geom_bond_site_symmetry_2
C1 F1 1_555 1_555
C2 C1 1_555 1_555
H1 C2 1_555 1_555
C3 C2 1_555 1_555
H2 C3 1_555 1_555
C4 C3 1_555 1_555
C5 C4 1_555 1_555
C6 C5 1_555 1_555
C7 C4 1_555 1_555
H3 C7 1_555 1_555
C8 C1 1_555 1_555
H4 C8 1_555 1_555
C9 C5 1_555 1_555
C10 C9 1_555 1_555
C11 C10 1_555 1_555
H5 C11 1_555 1_555
C12 C11 1_555 1_555
H6 C12 1_555 1_555
C13 C12 1_555 1_555
H7 C13 1_555 1_555
C14 C9 1_555 1_555
H8 C14 1_555 1_555
C15 C10 1_555 1_555
C16 C6 1_555 1_555
C17 C15 1_555 1_555
C18 C17 1_555 1_555
H9 C18 1_555 1_555
C19 C18 1_555 1_555
F2 C19 1_555 1_555
C1A F1A 1_555 1_555
C2A C1A 1_555 1_555
H1A C2A 1_555 1_555
C3A C2A 1_555 1_555
H2A C3A 1_555 1_555
C4A C3A 1_555 1_555
C5A C6 1_555 1_555
C7A C4A 1_555 1_555
H3A C7A 1_555 1_555
C8A C1A 1_555 1_555
H4A C8A 1_555 1_555
C9A C5A 1_555 1_555
C10A C9A 1_555 1_555
C11A C10A 1_555 1_555
H5A C11A 1_555 1_555
C12A C11A 1_555 1_555
H6A C12A 1_555 1_555
C13A C12A 1_555 1_555
H7A C13A 1_555 1_555
C14A C9A 1_555 1_555
H8A C14A 1_555 1_555
C15A C16 1_555 1_555
C17A C17 1_555 1_555
C18A C17A 1_555 1_555
H9A C18A 1_555 1_555
C19A C19 1_555 1_555
F2A C19A 1_555 1_555
C7 C8 1_555 1_555
C13 C14 1_555 1_555
C15 C16 1_555 1_555
C4A C5A 1_555 1_555
C7A C8A 1_555 1_555
C10A C15A 1_555 1_555
C13A C14A 1_555 1_555
C15A C17A 1_555 1_555
C18A C19A 1_555 1_555

#END
