
#######################################################################
#
#                 Cambridge Crystallographic Data Centre
#                                CCDC 
#
#######################################################################
#
# If this CIF has been generated from an entry in the Cambridge 
# Structural Database, then it will include bibliographic, chemical, 
# crystal, experimental, refinement or atomic coordinate data resulting 
# from the CCDC's data processing and validation procedures.
#
#######################################################################

data_RETZIB
_chemical_formula_moiety         'C22 H13 O3 P1'
_chemical_name_systematic        
"11-Phenyl-11H-[1]benzofuro[2',3':4,5]phospholo[3,2-b][1]benzofuran 11-oxide"
_symmetry_cell_setting           orthorhombic
_symmetry_space_group_name_H-M   'P b c a'
_symmetry_Int_Tables_number      61
_space_group_name_Hall           '-P 2ac 2ab'
loop_
_symmetry_equiv_pos_site_id
_symmetry_equiv_pos_as_xyz
1 x,y,z
2 1/2-x,-y,1/2+z
3 1/2+x,1/2-y,-z
4 -x,1/2+y,1/2-z
5 -x,-y,-z
6 1/2+x,y,1/2-z
7 1/2-x,1/2+y,z
8 x,1/2-y,1/2+z
_cell_length_a                   7.544(1)
_cell_length_b                   17.023(1)
_cell_length_c                   26.006(2)
_cell_angle_alpha                90
_cell_angle_beta                 90
_cell_angle_gamma                90
_cell_volume                     3339.73
_exptl_crystal_colour            yellow
_exptl_crystal_description       prism
_cell_formula_units_Z            8
_exptl_crystal_recrystallization_method dichloromethane/pentane
loop_
_atom_site_label
_atom_site_type_symbol
_atom_site_fract_x
_atom_site_fract_y
_atom_site_fract_z
P1 P 0.64216(7) 0.12784(3) 0.163316(19)
O1 O 0.50699(18) 0.09578(8) 0.02098(5)
O2 O 0.88285(17) 0.02125(8) 0.05182(5)
O3 O 0.56349(19) 0.08806(8) 0.20818(5)
C1 C 0.5117(3) 0.13484(11) 0.10517(7)
C2 C 0.3489(2) 0.16334(11) 0.08289(8)
C3 C 0.2030(3) 0.20788(12) 0.09943(8)
H1 H 0.1957 0.2262 0.1331
C4 C 0.0707(3) 0.22372(13) 0.06427(9)
H2 H -0.0263 0.2535 0.0746
C5 C 0.0780(3) 0.19622(12) 0.01349(9)
H3 H -0.0142 0.2078 -0.0090
C6 C 0.2205(3) 0.15207(12) -0.00373(9)
H4 H 0.2266 0.1333 -0.0373
C7 C 0.3521(3) 0.13759(11) 0.03153(8)
C8 C 0.5961(3) 0.09681(11) 0.06645(8)
C9 C 0.7655(3) 0.06338(11) 0.08016(7)
C10 C 1.0187(3) 0.00395(11) 0.08654(7)
C11 C 1.1653(3) -0.04137(12) 0.07541(8)
H5 H 1.1850 -0.0620 0.0428
C12 C 1.2813(3) -0.05418(13) 0.11584(9)
H6 H 1.3819 -0.0846 0.1104
C13 C 1.2511(3) -0.02244(12) 0.16479(8)
H7 H 1.3325 -0.0321 0.1909
C14 C 1.1030(3) 0.02293(11) 0.17519(8)
H8 H 1.0840 0.0440 0.2077
C15 C 0.9830(3) 0.03600(11) 0.13519(7)
C16 C 0.8140(3) 0.07477(11) 0.12989(7)
C17 C 0.7227(2) 0.22471(11) 0.17772(7)
C18 C 0.8220(3) 0.23520(13) 0.22212(9)
H9 H 0.8509 0.1923 0.2426
C19 C 0.8783(3) 0.31009(14) 0.23590(11)
H10 H 0.9445 0.3171 0.2657
C20 C 0.8365(3) 0.37391(12) 0.20566(9)
H11 H 0.8732 0.4240 0.2152
C21 C 0.7409(3) 0.36331(12) 0.16146(9)
H12 H 0.7147 0.4063 0.1407
C22 C 0.6826(3) 0.28911(12) 0.14732(8)
H13 H 0.6165 0.2826 0.1174
loop_
_geom_bond_atom_site_label_1
_geom_bond_atom_site_label_2
_geom_bond_site_symmetry_1
_geom_bond_site_symmetry_2
P1 O3 1_555 1_555
O1 C7 1_555 1_555
O2 C9 1_555 1_555
C1 P1 1_555 1_555
C2 C1 1_555 1_555
C3 C2 1_555 1_555
H1 C3 1_555 1_555
C4 C3 1_555 1_555
H2 C4 1_555 1_555
C5 C4 1_555 1_555
H3 C5 1_555 1_555
C6 C5 1_555 1_555
H4 C6 1_555 1_555
C7 C2 1_555 1_555
C8 O1 1_555 1_555
C9 C8 1_555 1_555
C10 O2 1_555 1_555
C11 C10 1_555 1_555
H5 C11 1_555 1_555
C12 C11 1_555 1_555
H6 C12 1_555 1_555
C13 C12 1_555 1_555
H7 C13 1_555 1_555
C14 C13 1_555 1_555
H8 C14 1_555 1_555
C15 C10 1_555 1_555
C16 P1 1_555 1_555
C17 P1 1_555 1_555
C18 C17 1_555 1_555
H9 C18 1_555 1_555
C19 C18 1_555 1_555
H10 C19 1_555 1_555
C20 C19 1_555 1_555
H11 C20 1_555 1_555
C21 C20 1_555 1_555
H12 C21 1_555 1_555
C22 C17 1_555 1_555
H13 C22 1_555 1_555
C1 C8 1_555 1_555
C6 C7 1_555 1_555
C9 C16 1_555 1_555
C14 C15 1_555 1_555
C15 C16 1_555 1_555
C21 C22 1_555 1_555

#END
