
#######################################################################
#
#                 Cambridge Crystallographic Data Centre
#                                CCDC 
#
#######################################################################
#
# If this CIF has been generated from an entry in the Cambridge 
# Structural Database, then it will include bibliographic, chemical, 
# crystal, experimental, refinement or atomic coordinate data resulting 
# from the CCDC's data processing and validation procedures.
#
#######################################################################

data_REVDEE
_chemical_formula_moiety         'C23 H16 Br1 N3'
_chemical_name_systematic        
3-(4-bromophenyl)-5-methyl-2-phenyl-5H-pyrazino[2,3-b]indole
_symmetry_cell_setting           monoclinic
_symmetry_space_group_name_H-M   'P 21/c'
_symmetry_Int_Tables_number      14
_space_group_name_Hall           '-P 2ybc'
loop_
_symmetry_equiv_pos_site_id
_symmetry_equiv_pos_as_xyz
1 x,y,z
2 -x,1/2+y,1/2-z
3 -x,-y,-z
4 x,1/2-y,1/2+z
_cell_length_a                   13.1795(10)
_cell_length_b                   7.9817(6)
_cell_length_c                   18.5976(13)
_cell_angle_alpha                90
_cell_angle_beta                 105.361(4)
_cell_angle_gamma                90
_cell_volume                     1886.48
_exptl_crystal_description       block
_cell_formula_units_Z            4
loop_
_atom_site_label
_atom_site_type_symbol
_atom_site_fract_x
_atom_site_fract_y
_atom_site_fract_z
Br1 Br 0.01480(3) 0.32884(5) 0.26583(3)
C1 C 0.1335(2) 0.4729(4) 0.29604(18)
C2 C 0.2003(3) 0.4878(4) 0.25035(18)
H1 H 0.1877 0.4278 0.206
C3 C 0.2871(3) 0.5946(4) 0.27176(17)
H2 H 0.3325 0.6063 0.2413
C4 C 0.3061(2) 0.6834(3) 0.33837(16)
C5 C 0.2395(2) 0.6617(4) 0.38431(18)
H3 H 0.2532 0.7178 0.4297
C6 C 0.1524(2) 0.5568(4) 0.36305(19)
H4 H 0.1075 0.5434 0.3937
C7 C 0.4017(2) 0.7898(3) 0.36354(16)
C8 C 0.4366(2) 0.9032(4) 0.31679(16)
C9 C 0.3711(2) 0.9518(4) 0.24076(16)
C10 C 0.2664(3) 0.9990(4) 0.22912(18)
H5 H 0.2353 0.9973 0.2685
C11 C 0.2085(3) 1.0485(5) 0.1588(2)
H6 H 0.1389 1.0818 0.1514
C12 C 0.2534(3) 1.0486(5) 0.0996(2)
H7 H 0.2142 1.0816 0.0525
C13 C 0.3561(3) 0.9998(5) 0.1107(2)
H8 H 0.3861 0.9984 0.0707
C14 C 0.4158(3) 0.9524(4) 0.18097(17)
H9 H 0.4857 0.9211 0.188
C15 C 0.5486(2) 0.8403(4) 0.45446(16)
C16 C 0.5881(2) 0.9457(4) 0.40732(16)
C17 C 0.6930(2) 0.9946(4) 0.44828(16)
C18 C 0.7720(3) 1.0928(4) 0.43297(19)
H10 H 0.7605 1.1504 0.388
C19 C 0.8685(3) 1.1034(5) 0.4862(2)
H11 H 0.9218 1.169 0.4767
C20 C 0.8858(3) 1.0174(5) 0.5530(2)
H12 H 0.9518 1.0237 0.5869
C21 C 0.8082(3) 0.9223(4) 0.57097(19)
H13 H 0.8204 0.8675 0.6166
C22 C 0.7113(2) 0.9117(4) 0.51825(17)
C23 C 0.6088(3) 0.7193(4) 0.58275(19)
H14 H 0.5562 0.7684 0.6034
H15 H 0.6742 0.7123 0.6207
H16 H 0.5869 0.609 0.5645
N1 N 0.4574(2) 0.7603(3) 0.43451(13)
N2 N 0.53149(19) 0.9800(3) 0.33823(13)
N3 N 0.6226(2) 0.8226(3) 0.52175(14)
loop_
_geom_bond_atom_site_label_1
_geom_bond_atom_site_label_2
_geom_bond_site_symmetry_1
_geom_bond_site_symmetry_2
Br1 C1 1_555 1_555
C1 C2 1_555 1_555
C2 H1 1_555 1_555
C3 C2 1_555 1_555
H2 C3 1_555 1_555
C4 C3 1_555 1_555
C5 C4 1_555 1_555
H3 C5 1_555 1_555
C6 C1 1_555 1_555
H4 C6 1_555 1_555
C7 C4 1_555 1_555
C8 C7 1_555 1_555
C9 C8 1_555 1_555
C10 C9 1_555 1_555
H5 C10 1_555 1_555
C11 C10 1_555 1_555
H6 C11 1_555 1_555
C12 C11 1_555 1_555
H7 C12 1_555 1_555
C13 C12 1_555 1_555
H8 C13 1_555 1_555
C14 C9 1_555 1_555
H9 C14 1_555 1_555
C15 C16 1_555 1_555
C16 C17 1_555 1_555
C17 C18 1_555 1_555
C18 H10 1_555 1_555
C19 C18 1_555 1_555
H11 C19 1_555 1_555
C20 C19 1_555 1_555
H12 C20 1_555 1_555
C21 C20 1_555 1_555
H13 C21 1_555 1_555
C22 C17 1_555 1_555
C23 H14 1_555 1_555
H15 C23 1_555 1_555
H16 C23 1_555 1_555
N1 C7 1_555 1_555
N2 C8 1_555 1_555
N3 C15 1_555 1_555
C5 C6 1_555 1_555
C13 C14 1_555 1_555
C15 N1 1_555 1_555
C16 N2 1_555 1_555
C21 C22 1_555 1_555
C22 N3 1_555 1_555
C23 N3 1_555 1_555

#END
