
#######################################################################
#
#                 Cambridge Crystallographic Data Centre
#                                CCDC 
#
#######################################################################
#
# If this CIF has been generated from an entry in the Cambridge 
# Structural Database, then it will include bibliographic, chemical, 
# crystal, experimental, refinement or atomic coordinate data resulting 
# from the CCDC's data processing and validation procedures.
#
#######################################################################

data_REVJAE
_chemical_formula_moiety         'C27 H32 N4 O6 S1'
_chemical_name_systematic        
'Benzofuran-2-carboxylic acid (S)-3-methyl-1-(5-methyl-3-oxo-1-(pyridine-2-sulfonyl)azepan-4-yl)butylamide'
_chemical_properties_biological  'inhibitor of Cathepsin K'
_symmetry_cell_setting           hexagonal
_symmetry_space_group_name_H-M   'P 65'
_symmetry_Int_Tables_number      170
_space_group_name_Hall           'P 65'
loop_
_symmetry_equiv_pos_site_id
_symmetry_equiv_pos_as_xyz
1 x,y,z
2 x-y,x,5/6+z
3 -y,x-y,2/3+z
4 -x,-y,1/2+z
5 -x+y,-x,1/3+z
6 y,-x+y,1/6+z
_cell_length_a                   13.268(2)
_cell_length_b                   13.268(2)
_cell_length_c                   26.790(3)
_cell_angle_alpha                90
_cell_angle_beta                 90
_cell_angle_gamma                120
_cell_volume                     4084.27
_exptl_crystal_colour            colorless
_exptl_crystal_description       needle
_cell_formula_units_Z            6
_exptl_crystal_recrystallization_method ethanol/water
loop_
_atom_site_label
_atom_site_type_symbol
_atom_site_fract_x
_atom_site_fract_y
_atom_site_fract_z
S1 S -0.31972(16) -0.81554(16) -0.16364(6)
N1 N -0.3187(4) -0.9061(4) -0.20290(15)
N2 N -0.1553(5) -1.0869(5) -0.1424(2)
N3 N -0.0063(5) -1.1428(5) -0.05264(18)
N4 N -0.4645(5) -0.7942(5) -0.2236(2)
O1 O -0.2036(4) -0.7345(4) -0.14831(16)
O2 O -0.4062(4) -0.8822(4) -0.12641(14)
O3 O -0.3756(5) -1.1939(5) -0.1721(2)
O4 O -0.1874(4) -1.0788(4) -0.06042(14)
O5 O 0.1263(3) -1.0623(4) -0.11450(14)
O6 O 0.3030(4) -0.9749(4) -0.04763(14)
C1 C -0.3082(6) -0.8871(6) -0.2955(2)
C2 C -0.3892(5) -1.0310(5) -0.1962(2)
C3 C -0.3255(6) -1.0891(6) -0.1761(2)
C4 C -0.2000(5) -1.0130(5) -0.1599(2)
C5 C -0.1175(5) -0.9287(6) -0.2005(2)
C6 C -0.1696(6) -0.9256(6) -0.2486(2)
C7 C -0.2417(5) -0.8666(5) -0.2466(2)
C8 C -0.1528(6) -1.1138(6) -0.0945(2)
C9 C -0.1051(5) -1.1966(5) -0.08706(19)
C10 C -0.1974(5) -1.3144(5) -0.0680(2)
C11 C -0.1558(5) -1.4025(5) -0.0597(2)
C12 C -0.0853(6) -1.4057(6) -0.1036(3)
C13 C -0.2620(6) -1.5231(6) -0.0504(3)
C14 C 0.1014(6) -1.0855(6) -0.0694(2)
C15 C 0.1924(6) -1.0571(6) -0.0317(3)
C16 C 0.1952(5) -1.0950(5) 0.0117(2)
C17 C 0.3651(7) -1.0508(6) 0.0709(2)
C18 C 0.4828(7) -0.9852(7) 0.0743(3)
C19 C 0.5497(6) -0.9120(7) 0.0371(3)
C20 C 0.4986(7) -0.9019(6) -0.0064(2)
C21 C 0.3782(6) -0.9688(6) -0.0086(2)
C22 C 0.3122(5) -1.0435(5) 0.0290(2)
C23 C -0.3682(6) -0.7315(6) -0.1984(2)
C24 C -0.3043(7) -0.6135(7) -0.1949(3)
C25 C -0.3497(10) -0.5530(8) -0.2217(3)
C26 C -0.4491(9) -0.6151(9) -0.2483(3)
C27 C -0.5035(7) -0.7335(8) -0.2490(3)
H1 H -0.128(4) -1.109(5) -0.1628(18)
H2 H -0.018(5) -1.164(5) -0.017(2)
H3 H -0.3536 -0.8473 -0.2943
H4 H -0.3607 -0.9707 -0.3003
H5 H -0.2529 -0.8562 -0.3233
H6 H -0.4238 -1.0667 -0.2288
H7 H -0.4540 -1.0471 -0.1732
H8 H -0.1992 -0.9649 -0.1311
H9 H -0.0781 -0.8491 -0.1864
H10 H -0.0565 -0.9492 -0.2072
H11 H -0.2194 -1.0064 -0.2606
H12 H -0.1065 -0.8846 -0.2734
H13 H -0.1873 -0.7810 -0.2431
H14 H -0.0766 -1.2078 -0.1200
H15 H -0.2625 -1.3479 -0.0922
H16 H -0.2280 -1.3033 -0.0361
H17 H -0.1055 -1.3788 -0.0293
H18 H -0.0569 -1.4596 -0.0963
H19 H -0.0190 -1.3276 -0.1093
H20 H -0.1344 -1.4320 -0.1335
H21 H -0.2361 -1.5793 -0.0439
H22 H -0.3126 -1.5475 -0.0798
H23 H -0.3052 -1.5195 -0.0214
H24 H 0.1288 -1.1497 0.0299
H25 H 0.3208 -1.1009 0.0974
H26 H 0.5200 -0.9904 0.1037
H27 H 0.6318 -0.8677 0.0409
H28 H 0.5432 -0.8523 -0.0330
H29 H -0.2346 -0.5748 -0.1760
H30 H -0.3111 -0.4704 -0.2210
H31 H -0.4808 -0.5759 -0.2664
H32 H -0.5723 -0.7750 -0.2683
loop_
_geom_bond_atom_site_label_1
_geom_bond_atom_site_label_2
_geom_bond_site_symmetry_1
_geom_bond_site_symmetry_2
S1 N1 1_555 1_555
N1 C2 1_555 1_555
N2 C4 1_555 1_555
N3 C9 1_555 1_555
N4 C23 1_555 1_555
O1 S1 1_555 1_555
O2 S1 1_555 1_555
O3 C3 1_555 1_555
O4 C8 1_555 1_555
O5 C14 1_555 1_555
O6 C15 1_555 1_555
C1 C7 1_555 1_555
C2 C3 1_555 1_555
C3 C4 1_555 1_555
C4 C5 1_555 1_555
C5 C6 1_555 1_555
C6 C7 1_555 1_555
C7 N1 1_555 1_555
C8 N2 1_555 1_555
C9 C8 1_555 1_555
C10 C9 1_555 1_555
C11 C10 1_555 1_555
C12 C11 1_555 1_555
C13 C11 1_555 1_555
C14 N3 1_555 1_555
C15 C14 1_555 1_555
C16 C15 1_555 1_555
C17 C18 1_555 1_555
C18 C19 1_555 1_555
C19 C20 1_555 1_555
C20 C21 1_555 1_555
C21 O6 1_555 1_555
C22 C16 1_555 1_555
C23 S1 1_555 1_555
C24 C23 1_555 1_555
C25 C24 1_555 1_555
C26 C25 1_555 1_555
C27 N4 1_555 1_555
H1 N2 1_555 1_555
H2 N3 1_555 1_555
H3 C1 1_555 1_555
H4 C1 1_555 1_555
H5 C1 1_555 1_555
H6 C2 1_555 1_555
H7 C2 1_555 1_555
H8 C4 1_555 1_555
H9 C5 1_555 1_555
H10 C5 1_555 1_555
H11 C6 1_555 1_555
H12 C6 1_555 1_555
H13 C7 1_555 1_555
H14 C9 1_555 1_555
H15 C10 1_555 1_555
H16 C10 1_555 1_555
H17 C11 1_555 1_555
H18 C12 1_555 1_555
H19 C12 1_555 1_555
H20 C12 1_555 1_555
H21 C13 1_555 1_555
H22 C13 1_555 1_555
H23 C13 1_555 1_555
H24 C16 1_555 1_555
H25 C17 1_555 1_555
H26 C18 1_555 1_555
H27 C19 1_555 1_555
H28 C20 1_555 1_555
H29 C24 1_555 1_555
H30 C25 1_555 1_555
H31 C26 1_555 1_555
H32 C27 1_555 1_555
C17 C22 1_555 1_555
C21 C22 1_555 1_555
C26 C27 1_555 1_555

#END
