
#######################################################################
#
#                 Cambridge Crystallographic Data Centre
#                                CCDC 
#
#######################################################################
#
# If this CIF has been generated from an entry in the Cambridge 
# Structural Database, then it will include bibliographic, chemical, 
# crystal, experimental, refinement or atomic coordinate data resulting 
# from the CCDC's data processing and validation procedures.
#
#######################################################################

data_REVWAT
_chemical_formula_moiety         'C22 H20 B1 F10 N1'
_chemical_name_systematic        
6,10-dimethyl-1,1-bis(perfluorophenyl)-5-aza-1-boraspiro[4.5]decane
_symmetry_cell_setting           monoclinic
_symmetry_space_group_name_H-M   'P 21/c'
_symmetry_Int_Tables_number      14
_space_group_name_Hall           '-P 2ybc'
loop_
_symmetry_equiv_pos_site_id
_symmetry_equiv_pos_as_xyz
1 x,y,z
2 -x,1/2+y,1/2-z
3 -x,-y,-z
4 x,1/2-y,1/2+z
_cell_length_a                   8.5281(2)
_cell_length_b                   14.5562(3)
_cell_length_c                   16.9295(4)
_cell_angle_alpha                90
_cell_angle_beta                 91.468(1)
_cell_angle_gamma                90
_cell_volume                     2100.88
_exptl_crystal_colour            colorless
_exptl_crystal_description       prism
_cell_formula_units_Z            4
loop_
_atom_site_label
_atom_site_type_symbol
_atom_site_fract_x
_atom_site_fract_y
_atom_site_fract_z
C1 C 0.2000(2) 0.75777(16) 0.13336(15)
H1 H 0.2001 0.8156 0.1025
H2 H 0.1057 0.7221 0.1173
C2 C 0.1955(3) 0.77942(17) 0.22011(16)
H3 H 0.1411 0.7298 0.2486
H4 H 0.1388 0.8378 0.2286
C3 C 0.3654(3) 0.78763(16) 0.25014(13)
H5 H 0.3828 0.7476 0.2968
H6 H 0.3880 0.8518 0.2660
N1 N 0.34700(19) 0.70252(11) 0.11634(10)
C4 C 0.3182(3) 0.59945(14) 0.13005(14)
H7 H 0.4133 0.5669 0.1109
C5 C 0.1793(3) 0.56305(18) 0.08007(16)
H8 H 0.1709 0.4958 0.0878
H9 H 0.0814 0.5914 0.0988
C6 C 0.1942(4) 0.5829(2) -0.00740(17)
H10 H 0.0939 0.5679 -0.0352
H11 H 0.2767 0.5430 -0.0291
C7 C 0.2355(3) 0.6836(2) -0.02304(16)
H12 H 0.1438 0.7227 -0.0115
H13 H 0.2593 0.6913 -0.0796
C8 C 0.3769(3) 0.71522(17) 0.02781(13)
H14 H 0.3886 0.7827 0.0187
C9 C 0.3026(3) 0.57207(16) 0.21577(15)
H15 H 0.1995 0.5909 0.2342
H16 H 0.3848 0.6023 0.2478
H17 H 0.3135 0.5053 0.2208
C10 C 0.5258(3) 0.6704(2) 0.00035(15)
H18 H 0.5095 0.6040 -0.0045
H19 H 0.6111 0.6824 0.0389
H20 H 0.5534 0.6957 -0.0511
B1 B 0.4814(3) 0.75666(16) 0.17931(14)
C11 C 0.6315(2) 0.69900(15) 0.22024(12)
F1 F 0.66075(19) 0.83023(11) 0.30393(9)
C12 C 0.7056(3) 0.74463(18) 0.28369(14)
C13 C 0.8282(3) 0.7094(3) 0.32897(15)
F2 F 0.8888(2) 0.75857(19) 0.38948(11)
F3 F 1.00652(19) 0.58928(18) 0.35438(12)
C14 C 0.8876(3) 0.6249(3) 0.31135(17)
F4 F 0.88627(19) 0.49709(12) 0.22689(13)
C15 C 0.8264(3) 0.57888(19) 0.24783(18)
F5 F 0.65326(18) 0.56356(10) 0.14265(11)
C16 C 0.7014(3) 0.61592(16) 0.20457(15)
C17 C 0.5586(2) 0.84537(14) 0.13193(11)
F6 F 0.34014(15) 0.94413(9) 0.15228(8)
C18 C 0.4869(2) 0.93097(14) 0.12571(12)
F7 F 0.47543(16) 1.08842(9) 0.09045(8)
C19 C 0.5538(2) 1.00813(14) 0.09315(12)
F8 F 0.76531(16) 1.07691(10) 0.02937(9)
C20 C 0.7013(2) 1.00311(15) 0.06308(13)
F9 F 0.92421(15) 0.91375(10) 0.03830(9)
C21 C 0.7799(2) 0.92113(16) 0.06734(13)
F10 F 0.79874(14) 0.76882(9) 0.10174(8)
C22 C 0.7092(2) 0.84555(14) 0.10073(12)
loop_
_geom_bond_atom_site_label_1
_geom_bond_atom_site_label_2
_geom_bond_site_symmetry_1
_geom_bond_site_symmetry_2
C1 H1 1_555 1_555
H2 C1 1_555 1_555
C2 C1 1_555 1_555
H3 C2 1_555 1_555
H4 C2 1_555 1_555
C3 C2 1_555 1_555
H5 C3 1_555 1_555
H6 C3 1_555 1_555
N1 C1 1_555 1_555
C4 N1 1_555 1_555
H7 C4 1_555 1_555
C5 C4 1_555 1_555
H8 C5 1_555 1_555
H9 C5 1_555 1_555
C6 C5 1_555 1_555
H10 C6 1_555 1_555
H11 C6 1_555 1_555
C7 C6 1_555 1_555
H12 C7 1_555 1_555
H13 C7 1_555 1_555
C8 N1 1_555 1_555
H14 C8 1_555 1_555
C9 C4 1_555 1_555
H15 C9 1_555 1_555
H16 C9 1_555 1_555
H17 C9 1_555 1_555
C10 C8 1_555 1_555
H18 C10 1_555 1_555
H19 C10 1_555 1_555
H20 C10 1_555 1_555
B1 C3 1_555 1_555
C11 B1 1_555 1_555
F1 C12 1_555 1_555
C12 C11 1_555 1_555
C13 C12 1_555 1_555
F2 C13 1_555 1_555
F3 C14 1_555 1_555
C14 C13 1_555 1_555
F4 C15 1_555 1_555
C15 C14 1_555 1_555
F5 C16 1_555 1_555
C16 C11 1_555 1_555
C17 B1 1_555 1_555
F6 C18 1_555 1_555
C18 C17 1_555 1_555
F7 C19 1_555 1_555
C19 C18 1_555 1_555
F8 C20 1_555 1_555
C20 C19 1_555 1_555
F9 C21 1_555 1_555
C21 C20 1_555 1_555
F10 C22 1_555 1_555
C22 C17 1_555 1_555
N1 B1 1_555 1_555
C7 C8 1_555 1_555
C15 C16 1_555 1_555
C21 C22 1_555 1_555

#END
