
#######################################################################
#
#                 Cambridge Crystallographic Data Centre
#                                CCDC 
#
#######################################################################
#
# If this CIF has been generated from an entry in the Cambridge 
# Structural Database, then it will include bibliographic, chemical, 
# crystal, experimental, refinement or atomic coordinate data resulting 
# from the CCDC's data processing and validation procedures.
#
#######################################################################

data_REWBUQ
_chemical_formula_moiety         'C23 H29 N3 O6 S2'
_chemical_name_systematic        
'1,4-Dihydro-6-methyl-2-(methylthio)-4-(2-((5-hydroxypentyl)thio)-3-nitrophenyl)-3,5-pyrimidinedicarboxylic acid 3-t-butyl ester'
_symmetry_cell_setting           monoclinic
_symmetry_space_group_name_H-M   'C 2/c'
_symmetry_Int_Tables_number      15
_space_group_name_Hall           '-C 2yn'
loop_
_symmetry_equiv_pos_site_id
_symmetry_equiv_pos_as_xyz
1 x,y,z
2 -x,y,1/2-z
3 1/2+x,1/2+y,z
4 1/2-x,1/2+y,1/2-z
5 -x,-y,-z
6 x,-y,1/2+z
7 1/2-x,1/2-y,-z
8 1/2+x,1/2-y,1/2+z
_cell_length_a                   29.996(3)
_cell_length_b                   10.680(1)
_cell_length_c                   17.996(2)
_cell_angle_alpha                90
_cell_angle_beta                 121.21(1)
_cell_angle_gamma                90
_cell_volume                     4930.78
_cell_formula_units_Z            8
loop_
_atom_site_label
_atom_site_type_symbol
_atom_site_fract_x
_atom_site_fract_y
_atom_site_fract_z
N1 N 0.4502(1) 0.3151(3) 0.6160(2)
C1 C 0.4295(1) 0.2525(3) 0.6522(2)
N2 N 0.40666(9) 0.3122(3) 0.6935(2)
C2 C 0.3880(1) 0.4425(3) 0.6668(2)
C3 C 0.4261(1) 0.5114(3) 0.6501(2)
C4 C 0.4541(1) 0.4450(4) 0.6244(2)
C5 C 0.3323(1) 0.4409(3) 0.5887(2)
C6 C 0.2899(1) 0.4870(3) 0.5932(2)
C7 C 0.2403(1) 0.4728(4) 0.5198(2)
C8 C 0.2304(1) 0.4205(5) 0.4432(2)
C9 C 0.2727(2) 0.3777(5) 0.4388(2)
C10 C 0.3223(1) 0.3887(4) 0.5100(2)
S1 S 0.42991(3) 0.08904(9) 0.64836(6)
C11 C 0.4621(2) 0.0653(4) 0.5892(3)
C12 C 0.3950(1) 0.2474(3) 0.7488(2)
O1 O 0.3955(1) 0.1345(3) 0.7537(2)
O2 O 0.38365(8) 0.3258(2) 0.7935(1)
C13 C 0.3710(1) 0.2747(4) 0.8582(2)
C14 C 0.4158(2) 0.2020(5) 0.9267(2)
C15 C 0.3207(2) 0.2016(6) 0.8094(3)
C16 C 0.3633(2) 0.3933(5) 0.8968(2)
C17 C 0.4323(1) 0.6471(4) 0.6657(2)
O3 O 0.4479(1) 0.7215(3) 0.6338(2)
O4 O 0.41954(9) 0.6808(2) 0.7245(1)
C18 C 0.4257(2) 0.8107(4) 0.7487(3)
C19 C 0.4209(2) 0.8259(4) 0.8270(3)
C20 C 0.3744(2) 0.7649(5) 0.8242(3)
C21 C 0.3213(2) 0.7993(5) 0.7484(3)
C22 C 0.3016(2) 0.7250(4) 0.6653(3)
S2 S 0.29680(3) 0.56001(9) 0.68702(5)
N3 N 0.1950(1) 0.5134(4) 0.5244(2)
O5 O 0.1781(1) 0.4412(4) 0.5565(2)
O6 O 0.1762(1) 0.6140(4) 0.4942(2)
C23 C 0.4929(1) 0.4969(4) 0.6038(2)
H1 H 0.3868 0.4866 0.7116
H2 H 0.1959 0.4141 0.3944
H3 H 0.2673 0.3418 0.3868
H4 H 0.3509 0.3597 0.5059
H5 H 0.4647 -0.0215 0.5814
H6 H 0.4418 0.1038 0.5329
H7 H 0.4954 0.1021 0.6191
H8 H 0.4460 0.2522 0.9546
H9 H 0.4077 0.1717 0.9682
H10 H 0.4222 0.1312 0.9006
H11 H 0.3264 0.1279 0.7856
H12 H 0.3094 0.1786 0.8480
H13 H 0.2946 0.2512 0.7636
H14 H 0.3344 0.4382 0.8519
H15 H 0.3560 0.3703 0.9403
H16 H 0.3936 0.4420 0.9204
H17 H 0.3965 0.8581 0.6999
H18 H 0.4566 0.8441 0.7571
H19 H 0.4202 0.9126 0.8375
H20 H 0.4517 0.7896 0.8738
H21 H 0.3784 0.6768 0.8232
H22 H 0.3755 0.7877 0.8762
H23 H 0.2969 0.7885 0.7668
H24 H 0.3223 0.8848 0.7353
H25 H 0.3251 0.7333 0.6450
H26 H 0.2681 0.7546 0.6218
H27 H 0.5070 0.4310 0.5870
H28 H 0.4757 0.5551 0.5568
H29 H 0.5198 0.5384 0.6531
loop_
_geom_bond_atom_site_label_1
_geom_bond_atom_site_label_2
_geom_bond_site_symmetry_1
_geom_bond_site_symmetry_2
N1 C1 1_555 1_555
C1 N2 1_555 1_555
N2 C2 1_555 1_555
C2 C3 1_555 1_555
C3 C4 1_555 1_555
C4 N1 1_555 1_555
C5 C2 1_555 1_555
C6 C5 1_555 1_555
C7 C6 1_555 1_555
C8 C7 1_555 1_555
C9 C8 1_555 1_555
C10 C5 1_555 1_555
S1 C1 1_555 1_555
C11 S1 1_555 1_555
C12 N2 1_555 1_555
O1 C12 1_555 1_555
O2 C12 1_555 1_555
C13 O2 1_555 1_555
C14 C13 1_555 1_555
C15 C13 1_555 1_555
C16 C13 1_555 1_555
C17 C3 1_555 1_555
O3 C17 1_555 1_555
O4 C17 1_555 1_555
C18 O4 1_555 1_555
C19 C18 1_555 1_555
C20 C19 1_555 1_555
C21 C20 1_555 1_555
C22 C21 1_555 1_555
S2 C6 1_555 1_555
N3 C7 1_555 1_555
O5 N3 1_555 1_555
O6 N3 1_555 1_555
C23 C4 1_555 1_555
H1 C2 1_555 1_555
H2 C8 1_555 1_555
H3 C9 1_555 1_555
H4 C10 1_555 1_555
H5 C11 1_555 1_555
H6 C11 1_555 1_555
H7 C11 1_555 1_555
H8 C14 1_555 1_555
H9 C14 1_555 1_555
H10 C14 1_555 1_555
H11 C15 1_555 1_555
H12 C15 1_555 1_555
H13 C15 1_555 1_555
H14 C16 1_555 1_555
H15 C16 1_555 1_555
H16 C16 1_555 1_555
H17 C18 1_555 1_555
H18 C18 1_555 1_555
H19 C19 1_555 1_555
H20 C19 1_555 1_555
H21 C20 1_555 1_555
H22 C20 1_555 1_555
H23 C21 1_555 1_555
H24 C21 1_555 1_555
H25 C22 1_555 1_555
H26 C22 1_555 1_555
H27 C23 1_555 1_555
H28 C23 1_555 1_555
H29 C23 1_555 1_555
C9 C10 1_555 1_555
C22 S2 1_555 1_555

#END
