
#######################################################################
#
#                 Cambridge Crystallographic Data Centre
#                                CCDC 
#
#######################################################################
#
# If this CIF has been generated from an entry in the Cambridge 
# Structural Database, then it will include bibliographic, chemical, 
# crystal, experimental, refinement or atomic coordinate data resulting 
# from the CCDC's data processing and validation procedures.
#
#######################################################################

data_REWBIE
_chemical_formula_moiety         'C18 H22 N2 O2 S2,H1 Cl1'
_chemical_name_systematic        
'(S)-3,8,9,10,11,16b-Hexahydro-4-methyl-2-(methylthio)-5H,7H-(7,1)benzoxathiacyclododecino(10,9-d)pyrimidin-5-one hydrochloride'
_chemical_properties_biological  'calcium agonist activity'
_symmetry_cell_setting           monoclinic
_symmetry_space_group_name_H-M   'P 21'
_symmetry_Int_Tables_number      4
_space_group_name_Hall           'P 2yb'
loop_
_symmetry_equiv_pos_site_id
_symmetry_equiv_pos_as_xyz
1 x,y,z
2 -x,1/2+y,-z
_cell_length_a                   10.682(2)
_cell_length_b                   7.838(1)
_cell_length_c                   24.133(3)
_cell_angle_alpha                90
_cell_angle_beta                 102.76(1)
_cell_angle_gamma                90
_cell_volume                     1970.65
_cell_formula_units_Z            4
loop_
_atom_site_label
_atom_site_type_symbol
_atom_site_fract_x
_atom_site_fract_y
_atom_site_fract_z
Cl1 Cl 0.5809(2) 0.0075(3) 0.56432(9)
Cl2 Cl 1.3325(2) 0.2259(3) 0.89315(9)
S1 S 0.7280(2) 0.517 0.59363(8)
S2 S 0.3887(2) 1.0191(4) 0.6920(1)
O1 O 0.0826(7) 0.459(1) 0.5686(4)
O2 O 0.1387(5) 0.726(1) 0.5905(3)
N1 N 0.4912(5) 0.3808(8) 0.5830(2)
N2 N 0.5195(5) 0.6634(8) 0.6071(2)
C1 C 0.5658(6) 0.518(1) 0.5937(3)
C2 C 0.3937(7) 0.6748(9) 0.6231(3)
C3 C 0.3062(7) 0.540(1) 0.5911(3)
C4 C 0.3549(7) 0.3949(9) 0.5739(3)
C5 C 0.4132(6) 0.666(1) 0.6882(3)
C6 C 0.4175(8) 0.811(1) 0.7216(4)
C7 C 0.4434(9) 0.790(2) 0.7815(4)
C8 C 0.4653(9) 0.635(2) 0.8051(4)
C9 C 0.4595(9) 0.491(2) 0.7727(4)
C10 C 0.4337(8) 0.512(1) 0.7144(3)
C11 C 0.2876(8) 0.252(1) 0.5413(3)
C12 C 0.7409(8) 0.367(1) 0.5379(4)
C13 C 0.1638(8) 0.568(1) 0.5822(4)
C14 C 0.0043(9) 0.769(2) 0.5898(5)
C15 C -0.017(1) 0.947(2) 0.5941(6)
C16 C 0.087(1) 1.054(2) 0.6297(5)
C17 C 0.1294(8) 1.002(2) 0.6917(4)
C18 C 0.252(1) 1.084(2) 0.7201(5)
H1 H 0.5749 0.7811 0.6061
H2 H 0.3453 0.7979 0.6114
H3 H 0.4453 0.9030 0.8083
H4 H 0.4895 0.6269 0.8518
H5 H 0.4757 0.3652 0.7925
H6 H 0.4284 0.3955 0.6875
H7 H 0.3569 0.1549 0.5341
H8 H 0.2192 0.1946 0.5635
H9 H 0.2339 0.2988 0.4989
H10 H 0.8422 0.3573 0.5349
H11 H 0.7076 0.2404 0.5486
H12 H 0.6823 0.4104 0.4975
H13 H -0.0262 0.6995 0.6231
H14 H -0.0540 0.7271 0.5475
H15 H -0.0998 0.9570 0.6141
H16 H -0.0375 1.0004 0.5522
H17 H 0.0521 1.1850 0.6286
H18 H 0.1718 1.0470 0.6110
H19 H 0.1418 0.8622 0.6942
H20 H 0.0552 1.0397 0.7143
H21 H 0.2721 1.0461 0.7647
H22 H 0.2408 1.2136 0.7148
S3 S 1.3944(2) 0.7098(4) 0.94668(9)
S4 S 0.9189(3) 1.2009(4) 0.8994(1)
O3 O 0.8813(8) 0.643(1) 0.7276(3)
O4 O 0.8778(5) 0.9103(9) 0.7572(2)
N3 N 1.2087(6) 0.5875(9) 0.8681(3)
N4 N 1.1851(6) 0.8723(8) 0.8878(2)
C19 C 1.2496(7) 0.728(1) 0.8978(3)
C20 C 1.0478(7) 0.873(1) 0.8563(3)
C21 C 1.0331(7) 0.738(1) 0.8112(3)
C22 C 1.1064(7) 0.598(1) 0.8188(3)
C23 C 0.9618(7) 0.853(1) 0.8981(3)
C24 C 0.9005(8) 0.987(1) 0.9194(4)
C25 C 0.824(1) 0.955(2) 0.9590(5)
C26 C 0.810(1) 0.793(2) 0.9766(4)
C27 C 0.8695(9) 0.655(1) 0.9572(4)
C28 C 0.9434(7) 0.687(1) 0.9173(3)
C29 C 1.1074(9) 0.451(1) 0.7795(4)
C30 C 1.390(1) 0.880(1) 0.9946(4)
C31 C 0.9233(8) 0.756(1) 0.7615(3)
C32 C 0.7612(8) 0.949(2) 0.7138(4)
C33 C 0.7476(9) 1.137(2) 0.7076(4)
C34 C 0.7755(9) 1.232(2) 0.7632(5)
C35 C 0.7084(9) 1.161(1) 0.8075(4)
C36 C 0.752(1) 1.252(1) 0.8652(5)
H23 H 1.2317 0.9935 0.9022
H24 H 1.0175 0.9935 0.8350
H25 H 0.7738 1.0611 0.9747
H26 H 0.7519 0.7714 1.0080
H27 H 0.8564 0.5230 0.9718
H28 H 0.9880 0.5788 0.8999
H29 H 1.1796 0.3583 0.7990
H30 H 1.0112 0.3903 0.7705
H31 H 1.1273 0.4978 0.7393
H32 H 1.4787 0.8789 1.0280
H33 H 1.3820 1.0016 0.9716
H34 H 1.3068 0.8639 1.0141
H35 H 0.6766 0.8955 0.7272
H36 H 0.7677 0.8922 0.6729
H37 H 0.6489 1.1653 0.6859
H38 H 0.8148 1.1808 0.6825
H39 H 0.7464 1.3647 0.7545
H40 H 0.8801 1.2259 0.7808
H41 H 0.7280 1.0238 0.8132
H42 H 0.6035 1.1801 0.7926
H43 H 0.6898 1.2069 0.8930
H44 H 0.7429 1.3813 0.8581
loop_
_geom_bond_atom_site_label_1
_geom_bond_atom_site_label_2
_geom_bond_site_symmetry_1
_geom_bond_site_symmetry_2
S1 C1 1_555 1_555
S2 C6 1_555 1_555
S3 C19 1_555 1_555
S4 C24 1_555 1_555
O1 C13 1_555 1_555
O2 C13 1_555 1_555
O3 C31 1_555 1_555
O4 C31 1_555 1_555
N1 C1 1_555 1_555
N2 C1 1_555 1_555
N3 C19 1_555 1_555
N4 C19 1_555 1_555
C2 N2 1_555 1_555
C3 C2 1_555 1_555
C4 N1 1_555 1_555
C5 C2 1_555 1_555
C6 C5 1_555 1_555
C7 C6 1_555 1_555
C8 C7 1_555 1_555
C9 C8 1_555 1_555
C10 C5 1_555 1_555
C11 C4 1_555 1_555
C12 S1 1_555 1_555
C13 C3 1_555 1_555
C14 O2 1_555 1_555
C15 C14 1_555 1_555
C16 C15 1_555 1_555
C17 C16 1_555 1_555
C18 S2 1_555 1_555
C20 N4 1_555 1_555
C21 C20 1_555 1_555
C22 N3 1_555 1_555
C23 C20 1_555 1_555
C24 C23 1_555 1_555
C25 C24 1_555 1_555
C26 C25 1_555 1_555
C27 C26 1_555 1_555
C28 C23 1_555 1_555
C29 C22 1_555 1_555
C30 S3 1_555 1_555
C31 C21 1_555 1_555
C32 O4 1_555 1_555
C33 C32 1_555 1_555
C34 C33 1_555 1_555
C35 C34 1_555 1_555
C36 S4 1_555 1_555
H1 N2 1_555 1_555
H2 C2 1_555 1_555
H3 C7 1_555 1_555
H4 C8 1_555 1_555
H5 C9 1_555 1_555
H6 C10 1_555 1_555
H7 C11 1_555 1_555
H8 C11 1_555 1_555
H9 C11 1_555 1_555
H10 C12 1_555 1_555
H11 C12 1_555 1_555
H12 C12 1_555 1_555
H13 C14 1_555 1_555
H14 C14 1_555 1_555
H15 C15 1_555 1_555
H16 C15 1_555 1_555
H17 C16 1_555 1_555
H18 C16 1_555 1_555
H19 C17 1_555 1_555
H20 C17 1_555 1_555
H21 C18 1_555 1_555
H22 C18 1_555 1_555
H23 N4 1_555 1_555
H24 C20 1_555 1_555
H25 C25 1_555 1_555
H26 C26 1_555 1_555
H27 C27 1_555 1_555
H28 C28 1_555 1_555
H29 C29 1_555 1_555
H30 C29 1_555 1_555
H31 C29 1_555 1_555
H32 C30 1_555 1_555
H33 C30 1_555 1_555
H34 C30 1_555 1_555
H35 C32 1_555 1_555
H36 C32 1_555 1_555
H37 C33 1_555 1_555
H38 C33 1_555 1_555
H39 C34 1_555 1_555
H40 C34 1_555 1_555
H41 C35 1_555 1_555
H42 C35 1_555 1_555
H43 C36 1_555 1_555
H44 C36 1_555 1_555
C3 C4 1_555 1_555
C9 C10 1_555 1_555
C17 C18 1_555 1_555
C21 C22 1_555 1_555
C27 C28 1_555 1_555
C35 C36 1_555 1_555

#END
