
#######################################################################
#
#                 Cambridge Crystallographic Data Centre
#                                CCDC 
#
#######################################################################
#
# If this CIF has been generated from an entry in the Cambridge 
# Structural Database, then it will include bibliographic, chemical, 
# crystal, experimental, refinement or atomic coordinate data resulting 
# from the CCDC's data processing and validation procedures.
#
#######################################################################

data_REWCAX
_chemical_formula_moiety         'C18 H21 N3 O4 S2'
_chemical_name_systematic        
3,8,9,10,11,16b-Hexahydro-4-methyl-2-(methylthio)-13-nitro-5H,7H-(7,1)benzoxathiacyclododecino(10,9-d)pyrimidin-5-one
_chemical_properties_biological  'calcium antagonist and agonist activity'
_symmetry_cell_setting           monoclinic
_symmetry_space_group_name_H-M   'P 21/n'
_symmetry_Int_Tables_number      14
_space_group_name_Hall           '-P 2yn'
loop_
_symmetry_equiv_pos_site_id
_symmetry_equiv_pos_as_xyz
1 x,y,z
2 1/2-x,1/2+y,1/2-z
3 -x,-y,-z
4 1/2+x,1/2-y,1/2+z
_cell_length_a                   7.333(1)
_cell_length_b                   11.707(1)
_cell_length_c                   22.434(2)
_cell_angle_alpha                90
_cell_angle_beta                 96.99(1)
_cell_angle_gamma                90
_cell_volume                     1911.59
_chemical_melting_point          'above 280deg.C'
_cell_formula_units_Z            4
loop_
_atom_site_label
_atom_site_type_symbol
_atom_site_fract_x
_atom_site_fract_y
_atom_site_fract_z
S1 S 0.6657(2) 0.6337(2) 0.21998(7)
S2 S 0.9277(2) 0.2635(2) 0.07150(8)
O1 O 0.8027(8) 0.2326(6) -0.0894(3)
O2 O 0.8937(7) 0.3969(6) -0.0649(3)
O3 O 0.2713(6) 0.1136(4) 0.1980(2)
O4 O 0.4764(6) 0.1103(4) 0.1318(2)
N1 N 0.4200(7) 0.4682(4) 0.2157(2)
N2 N 0.6846(6) 0.4295(4) 0.1694(2)
N3 N 0.7944(7) 0.3155(5) -0.0611(2)
C1 C 0.5905(8) 0.4948(5) 0.1976(2)
C2 C 0.6056(7) 0.3189(5) 0.1476(2)
C3 C 0.4420(7) 0.2819(5) 0.1782(2)
C4 C 0.3519(8) 0.3586(5) 0.2091(3)
C5 C 0.5659(7) 0.3280(5) 0.0795(2)
C6 C 0.7030(7) 0.3073(5) 0.0419(2)
C7 C 0.6567(8) 0.3269(5) -0.0189(3)
C8 C 0.4845(9) 0.3584(6) -0.0445(3)
C9 C 0.3512(8) 0.3767(6) -0.0072(3)
C10 C 0.3928(7) 0.3619(5) 0.0536(3)
C11 C 0.8677(9) 0.6444(6) 0.1831(3)
C12 C 0.3834(8) 0.1629(5) 0.1718(3)
C13 C 0.453(1) -0.0109(6) 0.1212(3)
C14 C 0.634(1) -0.0705(7) 0.1352(4)
C16 C 0.812(2) 0.001(1) 0.1243(6)
C17 C 0.779(1) 0.0420(7) 0.0517(3)
C19 C 0.941(2) 0.117(1) 0.0433(6)
C20 C 0.1828(9) 0.3381(6) 0.2381(3)
H1 H 0.3508 0.5259 0.2327
H2 H 0.6910 0.2588 0.1577
H3 H 0.4576 0.3670 -0.0868
H4 H 0.2310 0.4000 -0.0235
H5 H 0.2997 0.3746 0.0789
H6 H 0.9201 0.7178 0.1899
H7 H 0.9535 0.5877 0.1987
H8 H 0.8360 0.6324 0.1412
H9 H 0.4071 -0.0235 0.0802
H10 H 0.3684 -0.0405 0.1460
H11 H 0.1437 0.2613 0.2313
H12 H 0.2073 0.3523 0.2797
H13 H 0.0879 0.3882 0.2208
C15? C 0.728(3) -0.070(2) 0.0715(8)
C18? C 0.898(2) 0.111(1) 0.0917(7)
loop_
_geom_bond_atom_site_label_1
_geom_bond_atom_site_label_2
_geom_bond_site_symmetry_1
_geom_bond_site_symmetry_2
S1 C1 1_555 1_555
S2 C6 1_555 1_555
O1 N3 1_555 1_555
O2 N3 1_555 1_555
O3 C12 1_555 1_555
O4 C12 1_555 1_555
N1 C1 1_555 1_555
N2 C1 1_555 1_555
N3 C7 1_555 1_555
C2 N2 1_555 1_555
C3 C2 1_555 1_555
C4 N1 1_555 1_555
C5 C2 1_555 1_555
C6 C5 1_555 1_555
C7 C6 1_555 1_555
C8 C7 1_555 1_555
C9 C8 1_555 1_555
C10 C5 1_555 1_555
C11 S1 1_555 1_555
C12 C3 1_555 1_555
C13 O4 1_555 1_555
C14 C13 1_555 1_555
C16 C14 1_555 1_555
C17 C16 1_555 1_555
C19 S2 1_555 1_555
C20 C4 1_555 1_555
H1 N1 1_555 1_555
H2 C2 1_555 1_555
H3 C8 1_555 1_555
H4 C9 1_555 1_555
H5 C10 1_555 1_555
H6 C11 1_555 1_555
H7 C11 1_555 1_555
H8 C11 1_555 1_555
H9 C13 1_555 1_555
H10 C13 1_555 1_555
H11 C20 1_555 1_555
H12 C20 1_555 1_555
H13 C20 1_555 1_555
C3 C4 1_555 1_555
C9 C10 1_555 1_555
C17 C19 1_555 1_555

#END
