
#######################################################################
#
#                 Cambridge Crystallographic Data Centre
#                                CCDC 
#
#######################################################################
#
# If this CIF has been generated from an entry in the Cambridge 
# Structural Database, then it will include bibliographic, chemical, 
# crystal, experimental, refinement or atomic coordinate data resulting 
# from the CCDC's data processing and validation procedures.
#
#######################################################################

data_REWDUU
_chemical_formula_moiety         'C16 H13 Cl2 F1 N2 O2'
_chemical_name_systematic        
'Methyl 4-(2-chloro-4-fluorophenyl)-2-(chloromethyl)-5-cyano-6-methyl-1,4-dihydropyridine-3-carboxylate'
_symmetry_cell_setting           monoclinic
_symmetry_space_group_name_H-M   'P 21'
_symmetry_Int_Tables_number      4
_space_group_name_Hall           'P 2yb'
loop_
_symmetry_equiv_pos_site_id
_symmetry_equiv_pos_as_xyz
1 x,y,z
2 -x,1/2+y,-z
_cell_length_a                   12.190(10)
_cell_length_b                   9.0150(10)
_cell_length_c                   15.5900(10)
_cell_angle_alpha                90
_cell_angle_beta                 106.94(10)
_cell_angle_gamma                90
_cell_volume                     1638.89
_cell_formula_units_Z            4
loop_
_atom_site_label
_atom_site_type_symbol
_atom_site_fract_x
_atom_site_fract_y
_atom_site_fract_z
N1 N 0.4274(3) 0.4001(4) 0.5821(2)
C1 C 0.3936(3) 0.5059(5) 0.6334(3)
C2 C 0.4687(3) 0.5553(5) 0.7081(3)
C3 C 0.5865(4) 0.4822(5) 0.7478(3)
C4 C 0.6220(3) 0.4027(5) 0.6734(3)
C5 C 0.5416(4) 0.3628(5) 0.5962(3)
C6 C 0.5791(3) 0.3756(5) 0.8213(3)
C7 C 0.6288(4) 0.4028(5) 0.9124(3)
C8 C 0.6171(4) 0.3047(6) 0.9784(3)
C9 C 0.5557(4) 0.1788(6) 0.9510(3)
C10 C 0.5046(4) 0.1451(5) 0.8629(4)
C11 C 0.5162(4) 0.2436(5) 0.7988(3)
C12 C 0.2700(4) 0.5539(6) 0.5975(3)
C13 C 0.4385(4) 0.6737(6) 0.7575(3)
N2 N 0.4164(4) 0.7687(6) 0.7985(3)
C14 C 0.7460(4) 0.3770(5) 0.6959(3)
O1 O 0.8139(3) 0.4217(5) 0.7645(2)
O2 O 0.7825(3) 0.2976(5) 0.6365(2)
C15 C 0.9044(4) 0.2683(9) 0.6586(4)
C16 C 0.5599(4) 0.2790(6) 0.5191(3)
Cl1 Cl 0.5814(2) 0.4059(2) 0.4383(1)
Cl2 Cl 0.7101(1) 0.5616(2) 0.9488(1)
F1 F 0.5458(3) 0.0811(4) 1.0144(2)
H1 H 0.3730(50) 0.3670(70) 0.5320(40)
H2 H 0.6436 0.5591 0.7738
H3 H 0.6502 0.3249 1.0390
H4 H 0.4629 0.0577 0.8468
H5 H 0.4814 0.2220 0.7387
H6 H 0.2534 0.6274 0.6366
H7 H 0.2204 0.4698 0.5944
H8 H 0.2572 0.5951 0.5387
H9 H 0.9200 0.2107 0.6117
H10 H 0.9287 0.2142 0.7140
H11 H 0.9457 0.3604 0.6649
H12 H 0.4932 0.2173 0.4922
H13 H 0.6268 0.2150 0.5398
N3 N 0.9009(3) 0.8573(4) 0.9055(2)
C17 C 0.8288(3) 0.8641(5) 0.8195(3)
C18 C 0.8602(3) 0.7982(5) 0.7539(3)
C19 C 0.9790(3) 0.7293(5) 0.7668(2)
C20 C 1.0316(3) 0.6948(5) 0.8659(3)
C21 C 0.9965(3) 0.7682(5) 0.9291(3)
C22 C 1.0550(3) 0.8317(5) 0.7306(3)
C23 C 1.0606(4) 0.8297(5) 0.6432(3)
C24 C 1.1268(4) 0.9274(6) 0.6121(3)
C25 C 1.1891(4) 1.0299(6) 0.6690(4)
C26 C 1.1901(4) 1.0366(6) 0.7568(4)
C27 C 1.1236(4) 0.9371(5) 0.7862(3)
C28 C 0.7184(4) 0.9454(7) 0.8097(3)
C29 C 0.7831(4) 0.8024(7) 0.6653(4)
N4 N 0.7233(4) 0.8062(9) 0.5937(3)
C30 C 1.1232(3) 0.5830(5) 0.8891(3)
O3 O 1.1679(3) 0.5323(3) 0.9636(2)
O4 O 1.1546(2) 0.5409(3) 0.8182(2)
C31 C 1.2419(5) 0.4284(6) 0.8323(4)
C32 C 1.0597(4) 0.7749(5) 1.0275(3)
Cl3 Cl 0.9778(1) 0.6888(1) 1.0918(1)
Cl4 Cl 0.9834(1) 0.6957(2) 0.5678(1)
F2 F 1.2534(3) 1.1290(4) 0.6382(3)
H14 H 0.8840(50) 0.8980(70) 0.9480(40)
H15 H 0.9691 0.6359 0.7333
H16 H 1.1287 0.9231 0.5530
H17 H 1.2347 1.1067 0.7956
H18 H 1.1244 0.9404 0.8460
H19 H 0.6731 0.9449 0.7479
H20 H 0.7351 1.0459 0.8296
H21 H 0.6761 0.8976 0.8453
H22 H 1.2575 0.4071 0.7766
H23 H 1.2154 0.3400 0.8544
H24 H 1.3112 0.4629 0.8752
H25 H 1.0743 0.8776 1.0458
H26 H 1.1336 0.7251 1.0386
loop_
_geom_bond_atom_site_label_1
_geom_bond_atom_site_label_2
_geom_bond_site_symmetry_1
_geom_bond_site_symmetry_2
N1 C1 1_555 1_555
C1 C2 1_555 1_555
C2 C3 1_555 1_555
C3 C4 1_555 1_555
C4 C5 1_555 1_555
C5 N1 1_555 1_555
C6 C3 1_555 1_555
C7 C6 1_555 1_555
C8 C7 1_555 1_555
C9 C8 1_555 1_555
C10 C9 1_555 1_555
C11 C6 1_555 1_555
C12 C1 1_555 1_555
C13 C2 1_555 1_555
N2 C13 1_555 1_555
C14 C4 1_555 1_555
O1 C14 1_555 1_555
O2 C14 1_555 1_555
C15 O2 1_555 1_555
C16 C5 1_555 1_555
Cl1 C16 1_555 1_555
Cl2 C7 1_555 1_555
F1 C9 1_555 1_555
H1 N1 1_555 1_555
H2 C3 1_555 1_555
H3 C8 1_555 1_555
H4 C10 1_555 1_555
H5 C11 1_555 1_555
H6 C12 1_555 1_555
H7 C12 1_555 1_555
H8 C12 1_555 1_555
H9 C15 1_555 1_555
H10 C15 1_555 1_555
H11 C15 1_555 1_555
H12 C16 1_555 1_555
H13 C16 1_555 1_555
N3 C17 1_555 1_555
C17 C18 1_555 1_555
C18 C19 1_555 1_555
C19 C20 1_555 1_555
C20 C21 1_555 1_555
C21 N3 1_555 1_555
C22 C19 1_555 1_555
C23 C22 1_555 1_555
C24 C23 1_555 1_555
C25 C24 1_555 1_555
C26 C25 1_555 1_555
C27 C22 1_555 1_555
C28 C17 1_555 1_555
C29 C18 1_555 1_555
N4 C29 1_555 1_555
C30 C20 1_555 1_555
O3 C30 1_555 1_555
O4 C30 1_555 1_555
C31 O4 1_555 1_555
C32 C21 1_555 1_555
Cl3 C32 1_555 1_555
Cl4 C23 1_555 1_555
F2 C25 1_555 1_555
H14 N3 1_555 1_555
H15 C19 1_555 1_555
H16 C24 1_555 1_555
H17 C26 1_555 1_555
H18 C27 1_555 1_555
H19 C28 1_555 1_555
H20 C28 1_555 1_555
H21 C28 1_555 1_555
H22 C31 1_555 1_555
H23 C31 1_555 1_555
H24 C31 1_555 1_555
H25 C32 1_555 1_555
H26 C32 1_555 1_555
C10 C11 1_555 1_555
C26 C27 1_555 1_555

#END
