
#######################################################################
#
#                 Cambridge Crystallographic Data Centre
#                                CCDC 
#
#######################################################################
#
# If this CIF has been generated from an entry in the Cambridge 
# Structural Database, then it will include bibliographic, chemical, 
# crystal, experimental, refinement or atomic coordinate data resulting 
# from the CCDC's data processing and validation procedures.
#
#######################################################################

data_REWFEE
_chemical_formula_moiety         'C18 H17 N5 O4,0.5(C6 H14)'
_chemical_name_systematic        
"Isopropyl 8-cyano-1,4-dihydro-2-methyl-4-(3'-nitrophenyl)imidazo(2,3-a)pyrimidine-3-carboxylate hexane solvate"
_symmetry_cell_setting           triclinic
_symmetry_space_group_name_H-M   'P -1'
_symmetry_Int_Tables_number      2
_space_group_name_Hall           '-P 1'
loop_
_symmetry_equiv_pos_site_id
_symmetry_equiv_pos_as_xyz
1 x,y,z
2 -x,-y,-z
_cell_length_a                   13.313(4)
_cell_length_b                   14.855(3)
_cell_length_c                   11.235(2)
_cell_angle_alpha                76.15(1)
_cell_angle_beta                 93.70(2)
_cell_angle_gamma                114.27(1)
_cell_volume                     1965.18
_cell_formula_units_Z            4
loop_
_atom_site_label
_atom_site_type_symbol
_atom_site_fract_x
_atom_site_fract_y
_atom_site_fract_z
N1 N 0.7810(4) 0.9302(4) 0.5220(5)
C1 C 0.7304(5) 0.9185(4) 0.4137(6)
N2 N 0.6416(4) 0.8341(4) 0.4110(5)
C2 C 0.5811(5) 0.7556(4) 0.5186(6)
C3 C 0.6604(5) 0.7642(4) 0.6235(6)
C4 C 0.7506(5) 0.8502(4) 0.6257(6)
C5 C 0.4780(5) 0.7682(4) 0.5500(6)
C6 C 0.3766(5) 0.6871(4) 0.5660(6)
C7 C 0.2884(5) 0.7018(5) 0.6013(6)
N3 N 0.1794(5) 0.6147(5) 0.6255(5)
O1 O 0.1769(4) 0.5291(4) 0.6431(6)
O2 O 0.0982(4) 0.6340(4) 0.6308(6)
C8 C 0.2959(6) 0.7943(5) 0.6183(6)
C9 C 0.3993(6) 0.8739(5) 0.6029(7)
C10 C 0.4895(5) 0.8606(4) 0.5702(6)
C11 C 0.7530(5) 0.9784(4) 0.2948(6)
C12 C 0.6690(6) 0.9197(5) 0.2272(6)
N4 N 0.6005(5) 0.8326(4) 0.2960(5)
C13 C 0.8406(6) 1.0750(5) 0.2517(6)
N5 N 0.9086(5) 1.1539(4) 0.2158(6)
C14 C 0.6300(5) 0.6741(5) 0.7278(7)
O3 O 0.6773(4) 0.6652(4) 0.8211(5)
O4 O 0.5382(4) 0.5992(3) 0.7019(4)
C15 C 0.4929(6) 0.5009(5) 0.7922(7)
C16 C 0.4498(6) 0.4236(5) 0.7148(8)
C17 C 0.4048(6) 0.5026(6) 0.8724(8)
C18 C 0.8264(6) 0.8718(5) 0.7300(7)
H3 H 0.8487 1.0056 0.5281
H4 H 0.3668 0.6135 0.5510
H5 H 0.2227 0.8033 0.6430
H6 H 0.4098 0.9484 0.6151
H7 H 0.5719 0.9231 0.5616
H8 H 0.6618 0.9446 0.1275
H9 H 0.5527 0.4829 0.8548
H10 H 0.4140 0.3464 0.7754
H11 H 0.3855 0.4364 0.6559
H12 H 0.5172 0.4297 0.6575
H13 H 0.8919 0.9482 0.7028
H14 H 0.7790 0.8659 0.8101
H15 H 0.8627 0.8154 0.7530
H36 H 0.5515 0.6791 0.5012
N6 N 0.0812(4) 0.3621(4) 0.2125(5)
C19 C 0.1339(5) 0.3732(4) 0.3191(6)
N7 N 0.2185(4) 0.4604(4) 0.3264(5)
C20 C 0.2553(5) 0.5556(4) 0.2316(6)
C21 C 0.2081(5) 0.5290(4) 0.1122(6)
C22 C 0.1241(5) 0.4387(4) 0.1069(6)
C23 C 0.2173(5) 0.6305(4) 0.2659(6)
C24 C 0.2922(5) 0.7293(4) 0.2614(6)
C25 C 0.2520(6) 0.7956(5) 0.2866(6)
N8 N 0.3294(5) 0.9020(4) 0.2796(6)
O5 O 0.2945(5) 0.9583(4) 0.3077(7)
O6 O 0.4237(5) 0.9275(4) 0.2483(7)
C26 C 0.1425(6) 0.7675(5) 0.3185(7)
C27 C 0.0708(6) 0.6677(5) 0.3240(8)
C28 C 0.1081(6) 0.5999(5) 0.2971(7)
C29 C 0.1216(5) 0.3079(4) 0.4343(6)
C30 C 0.2055(6) 0.3651(5) 0.5037(7)
N9 N 0.2646(5) 0.4578(4) 0.4403(5)
C31 C 0.0435(6) 0.2062(5) 0.4745(6)
N10 N -0.0189(5) 0.1245(4) 0.5090(6)
C32 C 0.2560(5) 0.6091(5) -0.0012(6)
O7 O 0.2157(4) 0.6163(4) -0.1000(4)
O8 O 0.3558(4) 0.6761(3) 0.0233(4)
C33 C 0.4141(6) 0.7659(5) -0.0742(7)
C34 C 0.5356(7) 0.7950(7) -0.0512(8)
C35 C 0.3752(8) 0.8468(6) -0.0688(9)
C36 C 0.0674(6) 0.4068(5) -0.0056(6)
H16 H 0.3453 0.5927 0.2223
H17 H 0.3799 0.7541 0.2386
H18 H 0.1145 0.8221 0.3384
H19 H -0.0164 0.6425 0.3493
H20 H 0.0504 0.5206 0.3025
H21 H 0.3968 0.7520 -0.1668
H22 H 0.5837 0.8624 -0.1225
H23 H 0.5528 0.8122 0.0393
H24 H 0.5565 0.7317 -0.0553
H25 H 0.4195 0.9142 -0.1422
H26 H 0.2869 0.8187 -0.0817
H27 H 0.3948 0.8660 0.0206
H28 H 0.0038 0.3296 0.0206
H29 H 0.0305 0.4596 -0.0505
H30 H 0.1290 0.4096 -0.0692
H37 H 0.2213 0.3356 0.5991
C37 C 0.051(1) 0.038(1) 0.966(1)
C38 C 0.150(1) 0.212(1) 0.852(2)
C39 C 0.049(1) 0.133(1) 0.920(2)
H1 H 0.0712 0.0090 0.8928
H2 H 0.1228 0.0448 1.0307
H31 H 0.1350 0.2813 0.8240
H32 H 0.2194 0.2231 0.9117
H33 H 0.1622 0.1879 0.7720
H34 H 0.0411 0.1607 0.9982
H35 H -0.0160 0.1255 0.8585
C37A C -0.051(1) -0.038(1) 1.034(1)
C39A C -0.049(1) -0.133(1) 1.080(2)
C38A C -0.150(1) -0.212(1) 1.148(2)
H31A H -0.1350 -0.2813 1.1760
H32A H -0.2194 -0.2231 1.0883
H33A H -0.1622 -0.1879 1.2280
H34A H -0.0411 -0.1607 1.0018
H35A H 0.0160 -0.1255 1.1415
H1A H -0.0712 -0.0090 1.1072
H2A H -0.1228 -0.0448 0.9693
loop_
_geom_bond_atom_site_label_1
_geom_bond_atom_site_label_2
_geom_bond_site_symmetry_1
_geom_bond_site_symmetry_2
N1 C1 1_555 1_555
C1 N2 1_555 1_555
N2 C2 1_555 1_555
C2 C3 1_555 1_555
C3 C4 1_555 1_555
C4 N1 1_555 1_555
C5 C2 1_555 1_555
C6 C5 1_555 1_555
C7 C6 1_555 1_555
N3 C7 1_555 1_555
O1 N3 1_555 1_555
O2 N3 1_555 1_555
C8 C7 1_555 1_555
C9 C8 1_555 1_555
C10 C5 1_555 1_555
C11 C1 1_555 1_555
C12 C11 1_555 1_555
N4 N2 1_555 1_555
C13 C11 1_555 1_555
N5 C13 1_555 1_555
C14 C3 1_555 1_555
O3 C14 1_555 1_555
O4 C14 1_555 1_555
C15 O4 1_555 1_555
C16 C15 1_555 1_555
C17 C15 1_555 1_555
C18 C4 1_555 1_555
N6 C19 1_555 1_555
C19 N7 1_555 1_555
N7 C20 1_555 1_555
C20 C21 1_555 1_555
C21 C22 1_555 1_555
C22 N6 1_555 1_555
C23 C20 1_555 1_555
C24 C23 1_555 1_555
C25 C24 1_555 1_555
N8 C25 1_555 1_555
O5 N8 1_555 1_555
O6 N8 1_555 1_555
C26 C25 1_555 1_555
C27 C26 1_555 1_555
C28 C23 1_555 1_555
C29 C19 1_555 1_555
C30 C29 1_555 1_555
N9 N7 1_555 1_555
C31 C29 1_555 1_555
N10 C31 1_555 1_555
C32 C21 1_555 1_555
O7 C32 1_555 1_555
O8 C32 1_555 1_555
C33 O8 1_555 1_555
C34 C33 1_555 1_555
C35 C33 1_555 1_555
C36 C22 1_555 1_555
C37 C39 1_555 1_555
C38 C39 1_555 1_555
C39 H34 1_555 1_555
H1 C37 1_555 1_555
H2 C37 1_555 1_555
H3 N1 1_555 1_555
H4 C6 1_555 1_555
H5 C8 1_555 1_555
H6 C9 1_555 1_555
H7 C10 1_555 1_555
H8 C12 1_555 1_555
H9 C15 1_555 1_555
H10 C16 1_555 1_555
H11 C16 1_555 1_555
H12 C16 1_555 1_555
H13 C18 1_555 1_555
H14 C18 1_555 1_555
H15 C18 1_555 1_555
H16 C20 1_555 1_555
H17 C24 1_555 1_555
H18 C26 1_555 1_555
H19 C27 1_555 1_555
H20 C28 1_555 1_555
H21 C33 1_555 1_555
H22 C34 1_555 1_555
H23 C34 1_555 1_555
H24 C34 1_555 1_555
H25 C35 1_555 1_555
H26 C35 1_555 1_555
H27 C35 1_555 1_555
H28 C36 1_555 1_555
H29 C36 1_555 1_555
H30 C36 1_555 1_555
H31 C38 1_555 1_555
H32 C38 1_555 1_555
H33 C38 1_555 1_555
H35 C39 1_555 1_555
H36 C2 1_555 1_555
H37 C30 1_555 1_555
C37A C37 1_555 1_555
C39A C37A 1_555 1_555
C38A C39A 1_555 1_555
H31A C38A 1_555 1_555
H32A C38A 1_555 1_555
H33A C38A 1_555 1_555
H34A C39A 1_555 1_555
H35A C39A 1_555 1_555
H1A C37A 1_555 1_555
H2A C37A 1_555 1_555
C9 C10 1_555 1_555
C12 N4 1_555 1_555
C27 C28 1_555 1_555
C30 N9 1_555 1_555

#END
