
#######################################################################
#
#                 Cambridge Crystallographic Data Centre
#                                CCDC 
#
#######################################################################
#
# If this CIF has been generated from an entry in the Cambridge 
# Structural Database, then it will include bibliographic, chemical, 
# crystal, experimental, refinement or atomic coordinate data resulting 
# from the CCDC's data processing and validation procedures.
#
#######################################################################

data_REWWUN
_chemical_formula_moiety         'C18 H16 O2'
_chemical_name_systematic        
'Methyl 2-(biphenyl-4-yl)bicyclo[1.1.0]butane-1-carboxylate'
_symmetry_cell_setting           monoclinic
_symmetry_space_group_name_H-M   'P 21'
_symmetry_Int_Tables_number      4
_space_group_name_Hall           'P 2yb'
loop_
_symmetry_equiv_pos_site_id
_symmetry_equiv_pos_as_xyz
1 x,y,z
2 -x,1/2+y,-z
_cell_length_a                   10.1737(19)
_cell_length_b                   5.6370(11)
_cell_length_c                   12.798(3)
_cell_angle_alpha                90
_cell_angle_beta                 110.394(14)
_cell_angle_gamma                90
_cell_volume                     687.949
_exptl_crystal_colour            colorless
_exptl_crystal_description       needle
_cell_formula_units_Z            2
loop_
_atom_site_label
_atom_site_type_symbol
_atom_site_fract_x
_atom_site_fract_y
_atom_site_fract_z
O1 O 0.7910(3) 0.8485(6) 0.5536(3)
O2 O 0.6572(3) 0.6628(7) 0.6352(3)
C1 C 0.8777(4) 0.5037(9) 0.6520(3)
C2 C 0.9194(4) 0.3435(9) 0.7530(4)
C3 C 1.0213(4) 0.5255(10) 0.7420(4)
C4 C 1.0088(5) 0.4814(10) 0.6248(4)
C5 C 0.7631(4) 0.6751(9) 0.6149(4)
C6 C 0.6787(5) 1.0205(11) 0.5097(4)
C7 C 0.8555(4) 0.3648(9) 0.8411(3)
C8 C 0.8806(4) 0.5551(8) 0.9138(4)
C9 C 0.8231(4) 0.5668(8) 0.9958(4)
C10 C 0.7389(4) 0.3905(8) 1.0128(3)
C11 C 0.7132(4) 0.1986(8) 0.9386(4)
C12 C 0.7699(4) 0.1879(9) 0.8553(4)
C13 C 0.6811(4) 0.3994(8) 1.1039(3)
C14 C 0.7108(5) 0.5863(9) 1.1789(4)
C15 C 0.6603(5) 0.5970(10) 1.2654(4)
C16 C 0.5748(4) 0.4213(9) 1.2797(4)
C17 C 0.5410(4) 0.2359(9) 1.2056(4)
C18 C 0.5923(4) 0.2255(9) 1.1190(4)
H1 H 0.937(4) 0.171(5) 0.735(4)
H2 H 1.058(5) 0.677(7) 0.788(4)
H3 H 1.021(4) 0.308(5) 0.604(4)
H4 H 1.040(5) 0.625(7) 0.589(4)
H5 H 0.66260 1.10280 0.57160
H6 H 0.59260 0.93860 0.46460
H7 H 0.70500 1.13620 0.46330
H8 H 0.93910 0.68070 0.90660
H9 H 0.84210 0.70220 1.04300
H10 H 0.65500 0.07250 0.94580
H11 H 0.74950 0.05510 0.80660
H12 H 0.76830 0.71200 1.17020
H13 H 0.68480 0.72710 1.31570
H14 H 0.53990 0.42780 1.33950
H15 H 0.48150 0.11310 1.21400
H16 H 0.56620 0.09610 1.06830
loop_
_geom_bond_atom_site_label_1
_geom_bond_atom_site_label_2
_geom_bond_site_symmetry_1
_geom_bond_site_symmetry_2
O1 C5 1_555 1_555
O2 C5 1_555 1_555
C1 C2 1_555 1_555
C2 C3 1_555 1_555
C3 C1 1_555 1_555
C4 C1 1_555 1_555
C5 C1 1_555 1_555
C6 O1 1_555 1_555
C7 C2 1_555 1_555
C8 C7 1_555 1_555
C9 C8 1_555 1_555
C10 C9 1_555 1_555
C11 C10 1_555 1_555
C12 C7 1_555 1_555
C13 C10 1_555 1_555
C14 C13 1_555 1_555
C15 C14 1_555 1_555
C16 C15 1_555 1_555
C17 C16 1_555 1_555
C18 C13 1_555 1_555
H1 C2 1_555 1_555
H2 C3 1_555 1_555
H3 C4 1_555 1_555
H4 C4 1_555 1_555
H5 C6 1_555 1_555
H6 C6 1_555 1_555
H7 C6 1_555 1_555
H8 C8 1_555 1_555
H9 C9 1_555 1_555
H10 C11 1_555 1_555
H11 C12 1_555 1_555
H12 C14 1_555 1_555
H13 C15 1_555 1_555
H14 C16 1_555 1_555
H15 C17 1_555 1_555
H16 C18 1_555 1_555
C3 C4 1_555 1_555
C11 C12 1_555 1_555
C17 C18 1_555 1_555

#END
