
#######################################################################
#
#                 Cambridge Crystallographic Data Centre
#                                CCDC 
#
#######################################################################
#
# If this CIF has been generated from an entry in the Cambridge 
# Structural Database, then it will include bibliographic, chemical, 
# crystal, experimental, refinement or atomic coordinate data resulting 
# from the CCDC's data processing and validation procedures.
#
#######################################################################

data_REXFIM01
_chemical_formula_moiety         'C19 H17 D7 O2'
_chemical_name_systematic        heptadeuteroandrosta-3,5-diene-7,17-dione
_symmetry_cell_setting           orthorhombic
_symmetry_space_group_name_H-M   'P 21 21 21'
_symmetry_Int_Tables_number      19
_space_group_name_Hall           'P 2ac 2ab'
loop_
_symmetry_equiv_pos_site_id
_symmetry_equiv_pos_as_xyz
1 x,y,z
2 1/2-x,-y,1/2+z
3 1/2+x,1/2-y,-z
4 -x,1/2+y,1/2-z
_cell_length_a                   8.3456(5)
_cell_length_b                   17.0404(10)
_cell_length_c                   32.546(3)
_cell_angle_alpha                90
_cell_angle_beta                 90
_cell_angle_gamma                90
_cell_volume                     4628.44
_exptl_crystal_colour            colorless
_exptl_crystal_description       prism
_cell_formula_units_Z            12
loop_
_atom_site_label
_atom_site_type_symbol
_atom_site_fract_x
_atom_site_fract_y
_atom_site_fract_z
C1 C 1.5889(5) 1.8153(3) 1.06047(14)
D1 D 1.5963 1.7967 1.0873
O1 O 1.5600(4) 1.6881(2) 1.03402(10)
C2 C 1.5811(5) 1.7579(3) 1.02709(14)
C3 C 1.5804(5) 1.9294(3) 1.01143(13)
C4 C 1.5026(5) 1.9013(3) 0.93630(13)
H1 H 1.4313 1.9463 0.9358
H2 H 1.6081 1.9190 0.9279
C5 C 1.7535(5) 1.9548(3) 1.00018(14)
H3 H 1.8178 1.9090 0.9953
H4 H 1.7986 1.9844 1.0224
H5 H 1.7512 1.9866 0.9759
C6 C 1.5862(5) 1.8931(3) 1.05457(13)
C7 C 1.5506(5) 1.7679(3) 0.90783(14)
C8 C 1.6006(5) 1.7894(3) 0.98376(13)
D2 D 1.7149 1.7992 0.9791
C9 C 1.4726(5) 2.0027(3) 1.01363(14)
H6 H 1.4686 2.0271 0.9867
H7 H 1.3646 1.9867 1.0208
C10 C 1.5314(5) 2.0629(3) 1.04501(14)
D3 D 1.6284 2.0876 1.0349
D4 D 1.4508 2.1034 1.0485
C11 C 1.4423(5) 1.8398(3) 0.90559(14)
H8 H 1.3330 1.8252 0.9122
H9 H 1.4439 1.8614 0.8780
C12 C 1.5119(5) 1.8692(3) 0.98066(12)
H10 H 1.4012 1.8592 0.9892
C13 C 1.5858(5) 1.9478(3) 1.08945(14)
D5 D 1.6015 1.9274 1.1157
C14 C 1.5645(5) 2.0246(3) 1.08568(15)
H11 H 1.5702 2.0559 1.1091
C15 C 1.5430(5) 1.7319(3) 0.95088(13)
H12 H 1.4295 1.7221 0.9566
C16 C 1.5560(6) 1.6235(3) 0.90349(15)
D6 D 1.6386 1.5966 0.8880
D7 D 1.4660 1.5881 0.9072
O2 O 1.4359(5) 1.7007(3) 0.84853(11)
C17 C 1.5034(6) 1.6977(3) 0.88151(15)
C18 C 1.7235(5) 1.7883(3) 0.89393(15)
H13 H 1.7734 1.8211 0.9142
H14 H 1.7199 1.8155 0.8681
H15 H 1.7843 1.7408 0.8909
C19 C 1.6216(5) 1.6512(3) 0.94549(15)
H16 H 1.5902 1.6156 0.9673
H17 H 1.7375 1.6554 0.9450
C20 C 1.9723(5) 1.2150(3) 1.15152(13)
D8 D 1.8628 1.1995 1.1442
C21 C 1.9625(5) 1.2748(3) 1.18603(15)
C22 C 2.0613(5) 1.1413(3) 1.16684(13)
H18 H 2.1681 1.1592 1.1751
C23 C 1.9520(5) 1.2453(3) 1.22779(14)
D9 D 1.9346 1.2814 1.2488
O3 O 1.9651(5) 1.3461(2) 1.17932(11)
C24 C 2.0885(5) 1.0808(3) 1.13262(13)
H19 H 2.1557 1.0389 1.1430
H20 H 1.9862 1.0582 1.1249
C25 C 1.9841(5) 1.1050(3) 1.20615(13)
C26 C 2.0718(5) 1.1848(3) 1.07902(13)
C27 C 2.0529(5) 1.2476(3) 1.11285(13)
H21 H 2.1621 1.2616 1.1212
O4 O 2.2413(4) 1.2107(2) 1.01942(10)
C28 C 1.9881(5) 1.3195(3) 1.08973(15)
H22 H 2.0095 1.3676 1.1047
H23 H 1.8737 1.3150 1.0850
C29 C 2.0920(6) 1.0398(3) 1.22360(14)
H24 H 2.0968 0.9970 1.2040
H25 H 2.1997 1.0602 1.2269
C30 C 1.9076(5) 1.1584(3) 1.06137(15)
H26 H 1.8554 1.2023 1.0487
H27 H 1.8417 1.1385 1.0832
H28 H 1.9241 1.1179 1.0413
C31 C 2.1675(6) 1.1164(3) 1.09458(14)
H29 H 2.2750 1.1336 1.1014
H30 H 2.1754 1.0768 1.0732
C32 C 1.9657(5) 1.1697(3) 1.23810(14)
C33 C 1.9609(6) 1.1447(4) 1.28145(15)
D10 D 1.9362 1.1820 1.3013
C34 C 2.0341(6) 1.0080(3) 1.26472(14)
D11 D 1.9418 0.9744 1.2602
D12 D 2.1181 0.9763 1.2769
C35 C 2.0825(6) 1.3172(3) 1.04865(15)
D13 D 2.0127 1.3296 1.0257
D14 D 2.1702 1.3545 1.0491
C36 C 2.1454(5) 1.2344(3) 1.04500(15)
C37 C 1.8157(5) 1.0714(3) 1.19722(15)
H31 H 1.8253 1.0259 1.1800
H32 H 1.7522 1.1104 1.1835
H33 H 1.7650 1.0571 1.2226
C38 C 1.9899(6) 1.0719(4) 1.29356(16)
H34 H 1.9822 1.0603 1.3214
O5 O 1.5040(4) 1.1812(2) 1.16029(10)
C39 C 1.4951(5) 1.4235(3) 1.13779(14)
C40 C 1.5195(5) 1.2850(3) 1.11356(14)
D15 D 1.5334 1.2502 1.0918
C41 C 1.4574(5) 1.3092(3) 1.18907(13)
D16 D 1.3412 1.3175 1.1890
C42 C 1.5031(5) 1.2786(3) 1.23163(13)
H35 H 1.6202 1.2741 1.2315
C43 C 1.5224(5) 1.3614(3) 1.10533(14)
C44 C 1.5374(5) 1.3896(3) 1.18111(13)
H36 H 1.6530 1.3794 1.1806
C45 C 1.4628(6) 1.3389(3) 1.26561(14)
C46 C 1.4409(6) 1.2005(3) 1.24888(14)
H37 H 1.4945 1.1562 1.2361
H38 H 1.3262 1.1954 1.2448
C47 C 1.4959(5) 1.2522(3) 1.15474(14)
C48 C 1.5106(6) 1.4480(3) 1.21606(14)
H39 H 1.3992 1.4642 1.2161
H40 H 1.5756 1.4943 1.2111
C49 C 1.5725(6) 1.4630(4) 1.05365(16)
H41 H 1.5876 1.4765 1.0262
C50 C 1.6026(6) 1.4946(3) 1.12787(16)
H42 H 1.5824 1.5357 1.1479
H43 H 1.7140 1.4792 1.1304
O6 O 1.5484(5) 1.3218(3) 1.33633(11)
C51 C 1.5736(6) 1.5271(3) 1.08485(16)
D17 D 1.4718 1.5545 1.0842
D18 D 1.6572 1.5645 1.0781
C52 C 1.3172(5) 1.4494(3) 1.13576(15)
H44 H 1.2500 1.4073 1.1451
H45 H 1.2899 1.4624 1.1079
H46 H 1.3015 1.4945 1.1530
C53 C 1.2794(5) 1.3521(3) 1.26984(15)
H47 H 1.2293 1.3042 1.2786
H48 H 1.2360 1.3676 1.2438
H49 H 1.2596 1.3925 1.2898
C54 C 1.5513(6) 1.3884(3) 1.06270(15)
D19 D 1.5547 1.3514 1.0417
C55 C 1.5526(6) 1.4142(3) 1.25840(15)
H50 H 1.6669 1.4044 1.2599
H51 H 1.5250 1.4519 1.2796
C56 C 1.4828(7) 1.2062(3) 1.29484(15)
D20 D 1.3970 1.1846 1.3114
D21 D 1.5805 1.1775 1.3007
C57 C 1.5051(6) 1.2934(4) 1.30409(16)
loop_
_geom_bond_atom_site_label_1
_geom_bond_atom_site_label_2
_geom_bond_site_symmetry_1
_geom_bond_site_symmetry_2
C1 D1 1_555 1_555
O1 C2 1_555 1_555
C2 C1 1_555 1_555
C3 C5 1_555 1_555
C4 H1 1_555 1_555
H2 C4 1_555 1_555
C5 H3 1_555 1_555
H4 C5 1_555 1_555
H5 C5 1_555 1_555
C6 C1 1_555 1_555
C7 C11 1_555 1_555
C8 C2 1_555 1_555
D2 C8 1_555 1_555
C9 C3 1_555 1_555
H6 C9 1_555 1_555
H7 C9 1_555 1_555
C10 C9 1_555 1_555
D3 C10 1_555 1_555
D4 C10 1_555 1_555
C11 C4 1_555 1_555
H8 C11 1_555 1_555
H9 C11 1_555 1_555
C12 C3 1_555 1_555
H10 C12 1_555 1_555
C13 C6 1_555 1_555
D5 C13 1_555 1_555
C14 C10 1_555 1_555
H11 C14 1_555 1_555
C15 C7 1_555 1_555
H12 C15 1_555 1_555
C16 D6 1_555 1_555
D7 C16 1_555 1_555
O2 C17 1_555 1_555
C17 C7 1_555 1_555
C18 C7 1_555 1_555
H13 C18 1_555 1_555
H14 C18 1_555 1_555
H15 C18 1_555 1_555
C19 C15 1_555 1_555
H16 C19 1_555 1_555
H17 C19 1_555 1_555
C20 D8 1_555 1_555
C21 C20 1_555 1_555
C22 C20 1_555 1_555
H18 C22 1_555 1_555
C23 C21 1_555 1_555
D9 C23 1_555 1_555
O3 C21 1_555 1_555
C24 C22 1_555 1_555
H19 C24 1_555 1_555
H20 C24 1_555 1_555
C25 C22 1_555 1_555
C26 C27 1_555 1_555
C27 C20 1_555 1_555
H21 C27 1_555 1_555
O4 C36 1_555 1_555
C28 C27 1_555 1_555
H22 C28 1_555 1_555
H23 C28 1_555 1_555
C29 C25 1_555 1_555
H24 C29 1_555 1_555
H25 C29 1_555 1_555
C30 C26 1_555 1_555
H26 C30 1_555 1_555
H27 C30 1_555 1_555
H28 C30 1_555 1_555
C31 C24 1_555 1_555
H29 C31 1_555 1_555
H30 C31 1_555 1_555
C32 C23 1_555 1_555
C33 C32 1_555 1_555
D10 C33 1_555 1_555
C34 C29 1_555 1_555
D11 C34 1_555 1_555
D12 C34 1_555 1_555
C35 C28 1_555 1_555
D13 C35 1_555 1_555
D14 C35 1_555 1_555
C36 C26 1_555 1_555
C37 C25 1_555 1_555
H31 C37 1_555 1_555
H32 C37 1_555 1_555
H33 C37 1_555 1_555
C38 C33 1_555 1_555
H34 C38 1_555 1_555
O5 C47 1_555 1_555
C39 C43 1_555 1_555
C40 D15 1_555 1_555
C41 D16 1_555 1_555
C42 C41 1_555 1_555
H35 C42 1_555 1_555
C43 C40 1_555 1_555
C44 C39 1_555 1_555
H36 C44 1_555 1_555
C45 C42 1_555 1_555
C46 C42 1_555 1_555
H37 C46 1_555 1_555
H38 C46 1_555 1_555
C47 C40 1_555 1_555
C48 C44 1_555 1_555
H39 C48 1_555 1_555
H40 C48 1_555 1_555
C49 H41 1_555 1_555
C50 C39 1_555 1_555
H42 C50 1_555 1_555
H43 C50 1_555 1_555
O6 C57 1_555 1_555
C51 C49 1_555 1_555
D17 C51 1_555 1_555
D18 C51 1_555 1_555
C52 C39 1_555 1_555
H44 C52 1_555 1_555
H45 C52 1_555 1_555
H46 C52 1_555 1_555
C53 C45 1_555 1_555
H47 C53 1_555 1_555
H48 C53 1_555 1_555
H49 C53 1_555 1_555
C54 C43 1_555 1_555
D19 C54 1_555 1_555
C55 C45 1_555 1_555
H50 C55 1_555 1_555
H51 C55 1_555 1_555
C56 C46 1_555 1_555
D20 C56 1_555 1_555
D21 C56 1_555 1_555
C57 C45 1_555 1_555
C3 C6 1_555 1_555
C4 C12 1_555 1_555
C8 C12 1_555 1_555
C8 C15 1_555 1_555
C13 C14 1_555 1_555
C16 C17 1_555 1_555
C16 C19 1_555 1_555
C25 C32 1_555 1_555
C26 C31 1_555 1_555
C34 C38 1_555 1_555
C35 C36 1_555 1_555
C41 C44 1_555 1_555
C41 C47 1_555 1_555
C48 C55 1_555 1_555
C49 C54 1_555 1_555
C50 C51 1_555 1_555
C56 C57 1_555 1_555

#END
