
#######################################################################
#
#                 Cambridge Crystallographic Data Centre
#                                CCDC 
#
#######################################################################
#
# If this CIF has been generated from an entry in the Cambridge 
# Structural Database, then it will include bibliographic, chemical, 
# crystal, experimental, refinement or atomic coordinate data resulting 
# from the CCDC's data processing and validation procedures.
#
#######################################################################

data_REXSEV
_chemical_formula_moiety         'C62 H56 N2 P4,2(C4 H8 O1)'
_chemical_name_systematic        
'6,12-bis[phenyl(triphenylphosphanylidene)methyl]-2,3,4,7,8,9,10,12-octahydro-1H,6H-[1,2,3]benzodiazaphospholo[2,1-a][1,2,3]benzodiazaphosphole tetrahydrofuran solvate'
_symmetry_cell_setting           monoclinic
_symmetry_space_group_name_H-M   'P 21/n'
_symmetry_Int_Tables_number      14
_space_group_name_Hall           '-P 2yn'
loop_
_symmetry_equiv_pos_site_id
_symmetry_equiv_pos_as_xyz
1 x,y,z
2 1/2-x,1/2+y,1/2-z
3 -x,-y,-z
4 1/2+x,1/2-y,1/2+z
_cell_length_a                   11.2546(8)
_cell_length_b                   16.9358(12)
_cell_length_c                   29.961(2)
_cell_angle_alpha                90
_cell_angle_beta                 96.2197(11)
_cell_angle_gamma                90
_cell_volume                     5677.12
_exptl_crystal_colour            brown
_exptl_crystal_description       prism
_cell_formula_units_Z            4
loop_
_atom_site_label
_atom_site_type_symbol
_atom_site_fract_x
_atom_site_fract_y
_atom_site_fract_z
P1 P 0.65510(4) 0.11123(2) 0.65586(2)
P2 P 0.41682(4) 0.14492(3) 0.53746(2)
P3 P 0.75785(4) 0.19707(2) 0.73592(2)
P4 P 0.35351(4) 0.24897(2) 0.46162(2)
N1 N 0.53489(12) 0.14887(8) 0.61997(4)
N2 N 0.55062(12) 0.14436(8) 0.57300(4)
C1 C 0.72173(14) 0.08320(9) 0.60597(5)
C2 C 0.65431(14) 0.10358(9) 0.56813(5)
C3 C 0.68752(15) 0.09051(11) 0.52179(5)
H1 H 0.7043 0.1420 0.5081
H2 H 0.6197 0.0657 0.5031
C4 C 0.79680(15) 0.03778(11) 0.52250(6)
H3 H 0.7725 -0.0179 0.5256
H4 H 0.8315 0.0431 0.4937
C5 C 0.89069(15) 0.05899(11) 0.56082(6)
H5 H 0.9146 0.1149 0.5580
H6 H 0.9624 0.0257 0.5593
C6 C 0.84255(15) 0.04666(10) 0.60584(5)
H7 H 0.8374 -0.0106 0.6120
H8 H 0.8982 0.0705 0.6300
C7 C 0.34011(15) 0.13727(10) 0.58702(5)
C8 C 0.41493(15) 0.14136(10) 0.62466(5)
C9 C 0.37744(16) 0.14737(12) 0.67085(6)
H9 H 0.4283 0.1863 0.6886
H10 H 0.3875 0.0956 0.6861
C10 C 0.24727(16) 0.17286(13) 0.66809(6)
H11 H 0.2180 0.1665 0.6979
H12 H 0.2407 0.2294 0.6598
C11 C 0.17041(17) 0.12406(13) 0.63358(6)
H13 H 0.0853 0.1386 0.6341
H14 H 0.1793 0.0673 0.6412
C12 C 0.20741(15) 0.13836(12) 0.58680(6)
H15 H 0.1718 0.0971 0.5661
H16 H 0.1762 0.1901 0.5756
C13 C 0.74415(15) 0.19034(9) 0.67881(5)
C14 C 0.80759(15) 0.24877(10) 0.65376(5)
C15 C 0.76050(16) 0.27314(10) 0.61116(6)
H17 H 0.6868 0.2516 0.5982
C16 C 0.81860(18) 0.32780(11) 0.58748(6)
H18 H 0.7838 0.3437 0.5586
C17 C 0.92625(18) 0.36008(12) 0.60478(6)
H19 H 0.9660 0.3975 0.5880
C18 C 0.97467(17) 0.33688(11) 0.64678(6)
H20 H 1.0491 0.3582 0.6592
C19 C 0.91612(16) 0.28299(10) 0.67093(6)
H21 H 0.9505 0.2686 0.7002
C20 C 0.74547(15) 0.29848(10) 0.75289(5)
C21 C 0.65600(16) 0.34250(10) 0.72880(6)
H22 H 0.6164 0.3221 0.7016
C22 C 0.62447(16) 0.41529(11) 0.74396(6)
H23 H 0.5626 0.4449 0.7276
C23 C 0.68323(18) 0.44512(11) 0.78315(6)
H24 H 0.6590 0.4942 0.7946
C24 C 0.77647(18) 0.40428(10) 0.80571(6)
H25 H 0.8196 0.4267 0.8317
C25 C 0.80776(16) 0.33101(10) 0.79090(6)
H26 H 0.8720 0.3028 0.8067
C26 C 0.89477(15) 0.15678(9) 0.76497(5)
C27 C 0.98022(15) 0.12672(10) 0.74008(6)
H27 H 0.9689 0.1302 0.7083
C28 C 1.08162(16) 0.09172(10) 0.76079(6)
H28 H 1.1401 0.0714 0.7433
C29 C 1.09875(16) 0.08604(11) 0.80682(6)
H29 H 1.1694 0.0624 0.8211
C30 C 1.01362(17) 0.11455(11) 0.83215(6)
H30 H 1.0249 0.1100 0.8639
C31 C 0.91168(16) 0.14983(10) 0.81150(6)
H31 H 0.8528 0.1694 0.8291
C32 C 0.64334(15) 0.14714(10) 0.76309(5)
C33 C 0.65679(17) 0.06794(11) 0.77392(6)
H32 H 0.7254 0.0403 0.7665
C34 C 0.57214(19) 0.02884(12) 0.79526(6)
H33 H 0.5817 -0.0258 0.8019
C35 C 0.4740(2) 0.06844(13) 0.80703(7)
H34 H 0.4161 0.0415 0.8222
C36 C 0.4593(2) 0.14735(14) 0.79687(8)
H35 H 0.3911 0.1748 0.8049
C37 C 0.54389(17) 0.18665(12) 0.77503(6)
H36 H 0.5336 0.2412 0.7682
C38 C 0.38327(14) 0.24299(10) 0.51851(5)
C39 C 0.34699(14) 0.30679(10) 0.54733(5)
C40 C 0.25050(15) 0.35735(10) 0.53489(6)
H37 H 0.2082 0.3523 0.5058
C41 C 0.21523(16) 0.41413(10) 0.56363(6)
H38 H 0.1505 0.4482 0.5540
C42 C 0.27330(16) 0.42178(11) 0.60634(6)
H39 H 0.2477 0.4599 0.6265
C43 C 0.36886(16) 0.37332(10) 0.61922(6)
H40 H 0.4097 0.3782 0.6485
C44 C 0.40623(15) 0.31777(10) 0.59019(6)
H41 H 0.4741 0.2862 0.5996
C45 C 0.36782(15) 0.34980(9) 0.44294(5)
C46 C 0.28328(16) 0.38611(10) 0.41261(6)
H42 H 0.2153 0.3573 0.4000
C47 C 0.29745(17) 0.46407(11) 0.40060(6)
H43 H 0.2382 0.4890 0.3804
C48 C 0.39686(17) 0.50578(11) 0.41782(6)
H44 H 0.4066 0.5592 0.4092
C49 C 0.48201(17) 0.47014(11) 0.44741(6)
H45 H 0.5516 0.4986 0.4587
C50 C 0.46702(15) 0.39322(10) 0.46089(6)
H46 H 0.5244 0.3698 0.4825
C51 C 0.45474(14) 0.18939(10) 0.43300(5)
C52 C 0.43142(15) 0.11006(10) 0.42442(5)
H47 H 0.3580 0.0878 0.4312
C53 C 0.51398(15) 0.06329(10) 0.40620(5)
H48 H 0.4980 0.0088 0.4011
C54 C 0.61919(16) 0.09533(11) 0.39543(6)
H49 H 0.6762 0.0630 0.3830
C55 C 0.64201(17) 0.17439(11) 0.40268(7)
H50 H 0.7141 0.1968 0.3946
C56 C 0.56078(16) 0.22110(11) 0.42157(6)
H51 H 0.5776 0.2755 0.4268
C57 C 0.20685(14) 0.21554(9) 0.43796(5)
C58 C 0.12493(15) 0.19480(10) 0.46716(6)
H52 H 0.1449 0.2003 0.4986
C59 C 0.01384(16) 0.16601(11) 0.45051(6)
H53 H -0.0423 0.1518 0.4706
C60 C -0.01573(16) 0.15780(11) 0.40501(6)
H54 H -0.0922 0.1381 0.3937
C61 C 0.06570(16) 0.17823(11) 0.37579(6)
H55 H 0.0454 0.1726 0.3443
C62 C 0.17642(15) 0.20673(10) 0.39217(6)
H56 H 0.2324 0.2205 0.3719
O1 O 0.7839(8) 0.1765(5) 0.3085(3)
C63 C 0.6673(11) 0.1981(9) 0.2891(7)
H57 H 0.6716 0.2392 0.2658
H58 H 0.6189 0.2183 0.3123
C64 C 0.6146(11) 0.1233(7) 0.2687(5)
H59 H 0.5549 0.1350 0.2429
H60 H 0.5757 0.0924 0.2912
C65 C 0.7191(8) 0.0788(6) 0.2539(3)
H61 H 0.7189 0.0809 0.2208
H62 H 0.7184 0.0229 0.2635
C66 C 0.8250(8) 0.1222(5) 0.2772(3)
H63 H 0.8816 0.0842 0.2931
H64 H 0.8673 0.1510 0.2549
O2 O 0.1140(2) 0.58193(17) 0.59443(8)
C67 C 0.2118(5) 0.6284(4) 0.58426(16)
H65 H 0.2864 0.5970 0.5884
H66 H 0.2212 0.6748 0.6044
C68 C 0.1878(6) 0.6550(4) 0.53606(18)
H67 H 0.2506 0.6356 0.5181
H68 H 0.1844 0.7134 0.5341
C69 C 0.0676(6) 0.6190(4) 0.51977(18)
H69 H 0.0177 0.6559 0.5002
H70 H 0.0769 0.5689 0.5034
C70 C 0.0159(4) 0.6050(4) 0.56355(16)
H71 H -0.0211 0.6539 0.5738
H72 H -0.0454 0.5629 0.5601
O3? O 0.7929(9) 0.1800(6) 0.3027(4)
C71? C 0.6727(9) 0.1966(7) 0.2855(5)
H73? H 0.6711 0.2285 0.2577
H74? H 0.6326 0.2270 0.3078
C72? C 0.6091(12) 0.1197(7) 0.2755(6)
H75? H 0.5482 0.1240 0.2492
H76? H 0.5706 0.1005 0.3017
C73? C 0.7109(8) 0.0671(6) 0.2658(3)
H77? H 0.7161 0.0643 0.2331
H78? H 0.6991 0.0131 0.2771
C74? C 0.8233(8) 0.1026(6) 0.2894(3)
H79? H 0.8527 0.0705 0.3159
H80? H 0.8865 0.1049 0.2689
O4? O 0.7991(19) 0.1610(10) 0.3144(7)
C75? C 0.7261(18) 0.2115(11) 0.2852(6)
H81? H 0.7759 0.2482 0.2695
H82? H 0.6720 0.2427 0.3022
C76? C 0.6555(15) 0.1578(11) 0.2521(7)
H83? H 0.6202 0.1862 0.2249
H84? H 0.5927 0.1282 0.2657
C77? C 0.7596(18) 0.1064(13) 0.2431(6)
H85? H 0.8199 0.1355 0.2278
H86? H 0.7340 0.0585 0.2257
C78? C 0.803(3) 0.0877(12) 0.2914(6)
H87? H 0.7506 0.0483 0.3038
H88? H 0.8858 0.0667 0.2940
O5? O 0.101(3) 0.639(3) 0.5202(14)
C79? C 0.027(6) 0.610(7) 0.5516(18)
H89? H 0.0038 0.5538 0.5459
H90? H -0.0453 0.6424 0.5534
C80? C 0.118(4) 0.619(5) 0.592(2)
H91? H 0.1107 0.6726 0.6050
H92? H 0.1033 0.5799 0.6152
C81? C 0.243(3) 0.609(3) 0.5788(13)
H93? H 0.2767 0.5569 0.5889
H94? H 0.2970 0.6512 0.5912
C82? C 0.222(4) 0.613(4) 0.5282(13)
H95? H 0.2770 0.6509 0.5161
H96? H 0.2316 0.5606 0.5144
O6? O 0.0077(4) 0.5682(3) 0.54106(12)
C83? C 0.0325(7) 0.6088(6) 0.5825(2)
H97? H 0.0182 0.5736 0.6078
H98? H -0.0201 0.6555 0.5833
C84? C 0.1616(6) 0.6342(5) 0.5866(2)
H99? H 0.2127 0.5970 0.6055
H100? H 0.1715 0.6879 0.5995
C85? C 0.1911(10) 0.6326(6) 0.5384(3)
H101? H 0.2141 0.6859 0.5288
H102? H 0.2580 0.5957 0.5352
C86? C 0.0786(9) 0.6049(6) 0.5107(3)
H103? H 0.0355 0.6503 0.4957
H104? H 0.0982 0.5669 0.4875
loop_
_geom_bond_atom_site_label_1
_geom_bond_atom_site_label_2
_geom_bond_site_symmetry_1
_geom_bond_site_symmetry_2
P1 N1 1_555 1_555
P2 N2 1_555 1_555
P3 C13 1_555 1_555
P4 C38 1_555 1_555
N1 N2 1_555 1_555
N2 C2 1_555 1_555
C1 P1 1_555 1_555
C2 C1 1_555 1_555
C3 C2 1_555 1_555
H1 C3 1_555 1_555
H2 C3 1_555 1_555
C4 C3 1_555 1_555
H3 C4 1_555 1_555
H4 C4 1_555 1_555
C5 C4 1_555 1_555
H5 C5 1_555 1_555
H6 C5 1_555 1_555
C6 C1 1_555 1_555
H7 C6 1_555 1_555
H8 C6 1_555 1_555
C7 P2 1_555 1_555
C8 N1 1_555 1_555
C9 C8 1_555 1_555
H9 C9 1_555 1_555
H10 C9 1_555 1_555
C10 C9 1_555 1_555
H11 C10 1_555 1_555
H12 C10 1_555 1_555
C11 C10 1_555 1_555
H13 C11 1_555 1_555
H14 C11 1_555 1_555
C12 C7 1_555 1_555
H15 C12 1_555 1_555
H16 C12 1_555 1_555
C13 P1 1_555 1_555
C14 C13 1_555 1_555
C15 C14 1_555 1_555
H17 C15 1_555 1_555
C16 C15 1_555 1_555
H18 C16 1_555 1_555
C17 C16 1_555 1_555
H19 C17 1_555 1_555
C18 C17 1_555 1_555
H20 C18 1_555 1_555
C19 C14 1_555 1_555
H21 C19 1_555 1_555
C20 P3 1_555 1_555
C21 C20 1_555 1_555
H22 C21 1_555 1_555
C22 C21 1_555 1_555
H23 C22 1_555 1_555
C23 C22 1_555 1_555
H24 C23 1_555 1_555
C24 C23 1_555 1_555
H25 C24 1_555 1_555
C25 C20 1_555 1_555
H26 C25 1_555 1_555
C26 P3 1_555 1_555
C27 C26 1_555 1_555
H27 C27 1_555 1_555
C28 C27 1_555 1_555
H28 C28 1_555 1_555
C29 C28 1_555 1_555
H29 C29 1_555 1_555
C30 C29 1_555 1_555
H30 C30 1_555 1_555
C31 C26 1_555 1_555
H31 C31 1_555 1_555
C32 P3 1_555 1_555
C33 C32 1_555 1_555
H32 C33 1_555 1_555
C34 C33 1_555 1_555
H33 C34 1_555 1_555
C35 C34 1_555 1_555
H34 C35 1_555 1_555
C36 C35 1_555 1_555
H35 C36 1_555 1_555
C37 C32 1_555 1_555
H36 C37 1_555 1_555
C38 P2 1_555 1_555
C39 C38 1_555 1_555
C40 C39 1_555 1_555
H37 C40 1_555 1_555
C41 C40 1_555 1_555
H38 C41 1_555 1_555
C42 C41 1_555 1_555
H39 C42 1_555 1_555
C43 C42 1_555 1_555
H40 C43 1_555 1_555
C44 C39 1_555 1_555
H41 C44 1_555 1_555
C45 P4 1_555 1_555
C46 C45 1_555 1_555
H42 C46 1_555 1_555
C47 C46 1_555 1_555
H43 C47 1_555 1_555
C48 C47 1_555 1_555
H44 C48 1_555 1_555
C49 C48 1_555 1_555
H45 C49 1_555 1_555
C50 C45 1_555 1_555
H46 C50 1_555 1_555
C51 P4 1_555 1_555
C52 C51 1_555 1_555
H47 C52 1_555 1_555
C53 C52 1_555 1_555
H48 C53 1_555 1_555
C54 C53 1_555 1_555
H49 C54 1_555 1_555
C55 C54 1_555 1_555
H50 C55 1_555 1_555
C56 C51 1_555 1_555
H51 C56 1_555 1_555
C57 P4 1_555 1_555
C58 C57 1_555 1_555
H52 C58 1_555 1_555
C59 C58 1_555 1_555
H53 C59 1_555 1_555
C60 C59 1_555 1_555
H54 C60 1_555 1_555
C61 C60 1_555 1_555
H55 C61 1_555 1_555
C62 C57 1_555 1_555
H56 C62 1_555 1_555
O1 C63 1_555 1_555
C63 H57 1_555 1_555
H58 C63 1_555 1_555
C64 C63 1_555 1_555
H59 C64 1_555 1_555
H60 C64 1_555 1_555
C65 C64 1_555 1_555
H61 C65 1_555 1_555
H62 C65 1_555 1_555
C66 O1 1_555 1_555
H63 C66 1_555 1_555
H64 C66 1_555 1_555
O2 C67 1_555 1_555
C67 H65 1_555 1_555
H66 C67 1_555 1_555
C68 C67 1_555 1_555
H67 C68 1_555 1_555
H68 C68 1_555 1_555
C69 C68 1_555 1_555
H69 C69 1_555 1_555
H70 C69 1_555 1_555
C70 O2 1_555 1_555
H71 C70 1_555 1_555
H72 C70 1_555 1_555
C5 C6 1_555 1_555
C7 C8 1_555 1_555
C11 C12 1_555 1_555
C18 C19 1_555 1_555
C24 C25 1_555 1_555
C30 C31 1_555 1_555
C36 C37 1_555 1_555
C43 C44 1_555 1_555
C49 C50 1_555 1_555
C55 C56 1_555 1_555
C61 C62 1_555 1_555
C65 C66 1_555 1_555
C69 C70 1_555 1_555

#END
