
#######################################################################
#
#                 Cambridge Crystallographic Data Centre
#                                CCDC 
#
#######################################################################
#
# If this CIF has been generated from an entry in the Cambridge 
# Structural Database, then it will include bibliographic, chemical, 
# crystal, experimental, refinement or atomic coordinate data resulting 
# from the CCDC's data processing and validation procedures.
#
#######################################################################

data_REYNEQ
_chemical_formula_moiety         'C10 H8 F4 O3'
_chemical_name_systematic        
2,4,4,4-Tetrafluoro-3,3-dihydroxy-1-phenylbutan-1-one
_symmetry_cell_setting           monoclinic
_symmetry_space_group_name_H-M   'P 21/c'
_symmetry_Int_Tables_number      14
_space_group_name_Hall           '-P 2ybc'
loop_
_symmetry_equiv_pos_site_id
_symmetry_equiv_pos_as_xyz
1 x,y,z
2 -x,1/2+y,1/2-z
3 -x,-y,-z
4 x,1/2-y,1/2+z
_cell_length_a                   7.8559(10)
_cell_length_b                   13.5226(17)
_cell_length_c                   9.7959(13)
_cell_angle_alpha                90
_cell_angle_beta                 93.674(3)
_cell_angle_gamma                90
_cell_volume                     1038.5
_exptl_crystal_colour            colorless
_exptl_crystal_description       prismatic
_cell_formula_units_Z            4
loop_
_atom_site_label
_atom_site_type_symbol
_atom_site_fract_x
_atom_site_fract_y
_atom_site_fract_z
O1 O -0.01500(15) 1.06173(9) 0.81699(12)
O2 O 0.27875(13) 0.98165(9) 1.01768(11)
H1 H 0.1900 0.9682 1.0534
O3 O 0.42665(14) 0.95264(10) 0.83113(12)
H2 H 0.5110 0.9657 0.8816
F1 F 0.00653(12) 0.87871(7) 0.88575(11)
F2 F 0.24019(17) 0.78088(10) 1.05167(15)
F3 F 0.50061(16) 0.82108(10) 1.03443(16)
F4 F 0.3602(2) 0.74939(10) 0.86786(17)
C1 C 0.08627(18) 1.01440(12) 0.75517(16)
C2 C 0.13815(19) 0.91255(12) 0.81088(16)
H3 H 0.1564 0.8671 0.7353
C3 C 0.29901(19) 0.91788(12) 0.90804(16)
C4 C 0.3493(3) 0.81538(15) 0.9655(2)
C5 C 0.15443(18) 1.05211(11) 0.62819(15)
C6 C 0.2485(2) 0.99445(13) 0.54355(17)
H4 H 0.2760 0.9297 0.5680
C7 C 0.3016(2) 1.03303(15) 0.42298(18)
H5 H 0.3641 0.9940 0.3661
C8 C 0.2625(2) 1.12877(15) 0.38663(19)
H6 H 0.2995 1.1547 0.3057
C9 C 0.1688(2) 1.18642(14) 0.4695(2)
H7 H 0.1420 1.2512 0.4445
C10 C 0.1146(2) 1.14857(13) 0.58930(19)
H8 H 0.0507 1.1878 0.6449
loop_
_geom_bond_atom_site_label_1
_geom_bond_atom_site_label_2
_geom_bond_site_symmetry_1
_geom_bond_site_symmetry_2
O1 C1 1_555 1_555
O2 H1 1_555 1_555
O3 H2 1_555 1_555
F1 C2 1_555 1_555
F2 C4 1_555 1_555
F3 C4 1_555 1_555
F4 C4 1_555 1_555
C1 C2 1_555 1_555
C2 H3 1_555 1_555
C3 O2 1_555 1_555
C4 C3 1_555 1_555
C5 C1 1_555 1_555
C6 C5 1_555 1_555
H4 C6 1_555 1_555
C7 C6 1_555 1_555
H5 C7 1_555 1_555
C8 C7 1_555 1_555
H6 C8 1_555 1_555
C9 C8 1_555 1_555
H7 C9 1_555 1_555
C10 C5 1_555 1_555
H8 C10 1_555 1_555
O3 C3 1_555 1_555
C2 C3 1_555 1_555
C9 C10 1_555 1_555

#END
