
#######################################################################
#
#                 Cambridge Crystallographic Data Centre
#                                CCDC 
#
#######################################################################
#
# If this CIF has been generated from an entry in the Cambridge 
# Structural Database, then it will include bibliographic, chemical, 
# crystal, experimental, refinement or atomic coordinate data resulting 
# from the CCDC's data processing and validation procedures.
#
#######################################################################

data_REYPOC
_chemical_formula_moiety         'C34 H28 N4 O2 S1'
_chemical_name_systematic        
1-Benzyl-5''-methyl-5'-(methylsulfanyl)-2'',3'-diphenyldispiro[indole-3,2'-pyrrole-4',4''-pyrazole]-2,3''(1H,2''H)-dione
_symmetry_cell_setting           orthorhombic
_symmetry_space_group_name_H-M   'P 21 21 21'
_symmetry_Int_Tables_number      19
_space_group_name_Hall           'P 2ac 2ab'
loop_
_symmetry_equiv_pos_site_id
_symmetry_equiv_pos_as_xyz
1 x,y,z
2 1/2-x,-y,1/2+z
3 1/2+x,1/2-y,-z
4 -x,1/2+y,1/2-z
_cell_length_a                   8.0892(3)
_cell_length_b                   18.1126(16)
_cell_length_c                   19.1621(7)
_cell_angle_alpha                90
_cell_angle_beta                 90
_cell_angle_gamma                90
_cell_volume                     2807.56
_exptl_crystal_colour            colorless
_exptl_crystal_description       block
_cell_formula_units_Z            4
loop_
_atom_site_label
_atom_site_type_symbol
_atom_site_fract_x
_atom_site_fract_y
_atom_site_fract_z
S1 S 1.07074(12) 0.46822(5) 0.78078(4)
O1 O 1.1966(3) 0.57141(14) 0.54326(11)
O2 O 0.7446(3) 0.62335(13) 0.78073(10)
N1 N 0.9802(3) 0.52376(15) 0.47958(11)
N2 N 0.9784(3) 0.48884(13) 0.64845(10)
N3 N 1.1648(3) 0.66689(15) 0.79025(13)
N4 N 0.9986(3) 0.67183(15) 0.81344(12)
C1 C 0.8141(4) 0.50476(17) 0.49224(13)
C2 C 0.7018(5) 0.4734(2) 0.44740(15)
H1 H 0.7286 0.4641 0.4010
C3 C 0.5469(5) 0.4559(2) 0.47391(18)
H2 H 0.4688 0.4344 0.4446
C4 C 0.5063(4) 0.4695(2) 0.54231(17)
H3 H 0.4020 0.4570 0.5589
C5 C 0.6217(4) 0.50210(18) 0.58681(15)
H4 H 0.5950 0.5119 0.6331
C6 C 0.7754(4) 0.51952(16) 0.56113(12)
C7 C 0.9281(4) 0.54665(16) 0.59859(13)
C8 C 1.0551(4) 0.54999(16) 0.53865(14)
C9 C 0.9107(4) 0.61940(16) 0.64211(12)
H5 H 0.7929 0.6218 0.6538
C10 C 0.9973(4) 0.60168(16) 0.71291(13)
C11 C 1.0073(3) 0.51795(16) 0.70772(13)
C12 C 1.1661(4) 0.62975(17) 0.73287(14)
C13 C 0.8933(4) 0.63185(17) 0.77302(14)
C14 C 1.0640(5) 0.5163(2) 0.41235(13)
H6 H 1.0368 0.4686 0.3923
H7 H 1.1825 0.5177 0.4198
C15 C 1.0165(4) 0.57655(19) 0.36093(14)
C16 C 1.0609(4) 0.6485(2) 0.37421(16)
H8 H 1.1177 0.6600 0.4150
C17 C 1.0218(5) 0.7037(2) 0.32749(17)
H9 H 1.0517 0.7523 0.3370
C18 C 0.9387(5) 0.6872(2) 0.26684(17)
H10 H 0.9146 0.7243 0.2349
C19 C 0.8918(5) 0.6164(2) 0.25370(16)
H11 H 0.8329 0.6055 0.2133
C20 C 0.9314(4) 0.5606(2) 0.30008(15)
H12 H 0.9008 0.5122 0.2903
C21 C 0.9449(4) 0.69183(17) 0.60538(13)
C22 C 1.0408(5) 0.74816(17) 0.63222(15)
H13 H 1.0948 0.7412 0.6746
C23 C 1.0585(5) 0.81465(19) 0.59757(16)
H14 H 1.1258 0.8513 0.6163
C24 C 0.9777(4) 0.82697(19) 0.53597(16)
H15 H 0.9880 0.8721 0.5133
C25 C 0.8815(5) 0.77211(19) 0.50803(16)
H16 H 0.8261 0.7800 0.4662
C26 C 0.8666(4) 0.70493(19) 0.54211(15)
H17 H 0.8028 0.6678 0.5222
C27 C 1.3233(4) 0.6114(2) 0.69734(17)
H18 H 1.3341 0.5588 0.6938
H19 H 1.4142 0.6309 0.7237
H20 H 1.3236 0.6327 0.6515
C28 C 1.1064(5) 0.37990(19) 0.74163(16)
H21 H 1.1824 0.3852 0.7035
H22 H 1.0037 0.3603 0.7247
H23 H 1.1521 0.3469 0.7757
C29 C 0.9625(5) 0.72364(18) 0.86703(14)
C30 C 1.0902(7) 0.7632(2) 0.89658(17)
H24 H 1.1990 0.7542 0.8834
C31 C 1.0544(9) 0.8169(3) 0.9463(2)
H25 H 1.1401 0.8436 0.9665
C32 C 0.8956(10) 0.8308(3) 0.9656(2)
H26 H 0.8725 0.8674 0.9981
C33 C 0.7709(8) 0.7907(3) 0.9369(2)
H27 H 0.6626 0.7998 0.9507
C34 C 0.8021(7) 0.7366(2) 0.88750(17)
H28 H 0.7157 0.7093 0.8684
loop_
_geom_bond_atom_site_label_1
_geom_bond_atom_site_label_2
_geom_bond_site_symmetry_1
_geom_bond_site_symmetry_2
S1 C11 1_555 1_555
O1 C8 1_555 1_555
O2 C13 1_555 1_555
N1 C1 1_555 1_555
N2 C7 1_555 1_555
N3 N4 1_555 1_555
N4 C13 1_555 1_555
C1 C2 1_555 1_555
C2 H1 1_555 1_555
C3 C2 1_555 1_555
H2 C3 1_555 1_555
C4 C3 1_555 1_555
H3 C4 1_555 1_555
C5 C4 1_555 1_555
H4 C5 1_555 1_555
C6 C1 1_555 1_555
C7 C6 1_555 1_555
C8 N1 1_555 1_555
C9 C7 1_555 1_555
H5 C9 1_555 1_555
C10 C9 1_555 1_555
C11 N2 1_555 1_555
C12 N3 1_555 1_555
C13 C10 1_555 1_555
C14 N1 1_555 1_555
H6 C14 1_555 1_555
H7 C14 1_555 1_555
C15 C14 1_555 1_555
C16 C15 1_555 1_555
H8 C16 1_555 1_555
C17 C16 1_555 1_555
H9 C17 1_555 1_555
C18 C17 1_555 1_555
H10 C18 1_555 1_555
C19 C18 1_555 1_555
H11 C19 1_555 1_555
C20 C15 1_555 1_555
H12 C20 1_555 1_555
C21 C9 1_555 1_555
C22 C21 1_555 1_555
H13 C22 1_555 1_555
C23 C22 1_555 1_555
H14 C23 1_555 1_555
C24 C23 1_555 1_555
H15 C24 1_555 1_555
C25 C24 1_555 1_555
H16 C25 1_555 1_555
C26 C21 1_555 1_555
H17 C26 1_555 1_555
C27 C12 1_555 1_555
H18 C27 1_555 1_555
H19 C27 1_555 1_555
H20 C27 1_555 1_555
C28 S1 1_555 1_555
H21 C28 1_555 1_555
H22 C28 1_555 1_555
H23 C28 1_555 1_555
C29 N4 1_555 1_555
C30 C29 1_555 1_555
H24 C30 1_555 1_555
C31 C30 1_555 1_555
H25 C31 1_555 1_555
C32 C31 1_555 1_555
H26 C32 1_555 1_555
C33 C32 1_555 1_555
H27 C33 1_555 1_555
C34 C29 1_555 1_555
H28 C34 1_555 1_555
C5 C6 1_555 1_555
C7 C8 1_555 1_555
C10 C11 1_555 1_555
C10 C12 1_555 1_555
C19 C20 1_555 1_555
C25 C26 1_555 1_555
C33 C34 1_555 1_555

#END
