
#######################################################################
#
#                 Cambridge Crystallographic Data Centre
#                                CCDC 
#
#######################################################################
#
# If this CIF has been generated from an entry in the Cambridge 
# Structural Database, then it will include bibliographic, chemical, 
# crystal, experimental, refinement or atomic coordinate data resulting 
# from the CCDC's data processing and validation procedures.
#
#######################################################################

data_REYPUJ
_chemical_formula_moiety         'C37 H48 O2'
_chemical_name_systematic        
2,6-di-t-butyl-4-[(3,5-di-t-butyl-4-hydroxyphenyl)(4-ethenylphenyl)methylidene]cyclohexa-2,5-dien-1-one
_symmetry_cell_setting           monoclinic
_symmetry_space_group_name_H-M   'P 21/c'
_symmetry_Int_Tables_number      14
_space_group_name_Hall           '-P 2ybc'
loop_
_symmetry_equiv_pos_site_id
_symmetry_equiv_pos_as_xyz
1 x,y,z
2 -x,1/2+y,1/2-z
3 -x,-y,-z
4 x,1/2-y,1/2+z
_cell_length_a                   14.0873(4)
_cell_length_b                   19.9719(4)
_cell_length_c                   11.9695(3)
_cell_angle_alpha                90
_cell_angle_beta                 107.5684(16)
_cell_angle_gamma                90
_cell_volume                     3210.55
_exptl_crystal_colour            red
_exptl_crystal_description       block
_cell_formula_units_Z            4
loop_
_atom_site_label
_atom_site_type_symbol
_atom_site_fract_x
_atom_site_fract_y
_atom_site_fract_z
C1 C 0.35628(9) 0.44853(6) 1.03482(10)
C2 C 0.36705(9) 0.38756(6) 0.98555(11)
C3 C 0.46015(9) 0.35136(6) 1.02402(10)
H1 H 0.512996 0.370272 1.085070
C4 C 0.47636(9) 0.29217(6) 0.97817(10)
C5 C 0.39345(10) 0.26108(6) 0.88601(11)
C6 C 0.29865(9) 0.29811(6) 0.84191(11)
C7 C 0.28849(9) 0.35742(6) 0.89171(11)
H2 H 0.226809 0.380422 0.863774
C8 C 0.27199(9) 0.49496(6) 0.98502(11)
C9 C 0.23742(9) 0.51030(6) 0.86609(11)
H3 H 0.267238 0.489037 0.814058
C10 C 0.16034(9) 0.55592(6) 0.82096(11)
C11 C 0.11899(9) 0.58669(6) 0.90145(12)
C12 C 0.15150(9) 0.57320(6) 1.02231(12)
C13 C 0.22853(9) 0.52739(6) 1.06113(11)
H4 H 0.252718 0.517646 1.142519
C14 C 0.43048(9) 0.47331(6) 1.14351(10)
C15 C 0.46342(9) 0.53967(6) 1.14895(11)
H5 H 0.438961 0.567851 1.082511
C16 C 0.53083(9) 0.56496(6) 1.24915(11)
H6 H 0.553485 0.609795 1.249606
C17 C 0.56612(9) 0.52591(6) 1.34945(11)
C18 C 0.53253(10) 0.45965(7) 1.34428(11)
H7 H 0.555819 0.431883 1.411457
C19 C 0.46627(10) 0.43372(6) 1.24371(11)
H8 H 0.444863 0.388556 1.242684
C20 C 0.65553(10) 0.29784(7) 1.10692(13)
H9 H 0.718370 0.272947 1.131849
H10 H 0.632952 0.307173 1.175186
H11 H 0.665649 0.340134 1.070590
C21 C 0.57700(9) 0.25617(6) 1.01830(11)
C22 C 0.56498(12) 0.18997(7) 1.07824(14)
H12 H 0.516511 0.161486 1.022460
H13 H 0.541469 0.199319 1.145810
H14 H 0.629313 0.166903 1.104660
C23 C 0.61578(12) 0.24265(9) 0.91358(14)
H15 H 0.568135 0.214343 0.856482
H16 H 0.680222 0.219776 0.940760
H17 H 0.623748 0.285210 0.876649
C24 C 0.21493(10) 0.26616(7) 0.74288(13)
C25 C 0.18464(17) 0.19875(11) 0.78338(18)
H18 H 0.134025 0.177520 0.718254
H19 H 0.157413 0.206120 0.848669
H20 H 0.243137 0.169571 0.809087
C26 C 0.24995(14) 0.25396(10) 0.63560(14)
H21 H 0.195979 0.233403 0.573297
H22 H 0.307677 0.223950 0.656791
H23 H 0.268641 0.296691 0.607909
C27 C 0.12360(14) 0.31060(13) 0.7057(2)
H24 H 0.141759 0.354181 0.680514
H25 H 0.097187 0.316872 0.771916
H26 H 0.072784 0.289496 0.640611
C28 C 0.12040(10) 0.57003(7) 0.68833(12)
C29 C 0.17932(11) 0.53169(9) 0.62102(13)
H27 H 0.174353 0.483528 0.633920
H28 H 0.249333 0.545401 0.648730
H29 H 0.152101 0.541508 0.537172
C30 C 0.01138(11) 0.54622(9) 0.64103(15)
H30 H -0.0344(16) 0.5693(11) 0.6778(18)
H31 H 0.0060(16) 0.4955(11) 0.6520(18)
H32 H -0.0139(16) 0.5557(10) 0.5553(19)
C31 C 0.12780(16) 0.64466(9) 0.65896(16)
H33 H 0.0871(18) 0.6760(12) 0.697(2)
H34 H 0.1020(17) 0.6479(12) 0.570(2)
H35 H 0.1993(19) 0.6598(12) 0.684(2)
C32 C 0.10270(10) 0.60610(7) 1.10764(13)
C33 C -0.00778(12) 0.58671(9) 1.07499(17)
H36 H -0.042853 0.604199 0.996934
H37 H -0.037112 0.605721 1.132495
H38 H -0.013886 0.537823 1.074704
C34 C 0.11395(13) 0.68268(7) 1.10686(16)
H39 H 0.080981 0.699812 1.027935
H40 H 0.184795 0.694368 1.129816
H41 H 0.083257 0.702655 1.162336
C35 C 0.15183(13) 0.58290(9) 1.23342(14)
H42 H 0.144880 0.534240 1.238047
H43 H 0.119509 0.604812 1.285597
H44 H 0.222625 0.594761 1.257359
C36 C 0.63461(11) 0.55566(7) 1.45611(12)
H45 H 0.655032 0.600482 1.449948
C37 C 0.67021(14) 0.52692(9) 1.55825(14)
H46 H 0.652166 0.482115 1.569203
H47 H 0.714141 0.550813 1.621606
O1 O 0.40284(9) 0.20484(6) 0.84824(12)
O2 O 0.04326(8) 0.63249(6) 0.86455(11)
H48 H 0.0250(17) 0.6364(12) 0.792(2)
loop_
_geom_bond_atom_site_label_1
_geom_bond_atom_site_label_2
_geom_bond_site_symmetry_1
_geom_bond_site_symmetry_2
C1 C2 1_555 1_555
C2 C3 1_555 1_555
C3 H1 1_555 1_555
C4 C3 1_555 1_555
C5 C4 1_555 1_555
C6 C5 1_555 1_555
C7 C2 1_555 1_555
H2 C7 1_555 1_555
C8 C1 1_555 1_555
C9 C8 1_555 1_555
H3 C9 1_555 1_555
C10 C9 1_555 1_555
C11 C10 1_555 1_555
C12 C11 1_555 1_555
C13 C8 1_555 1_555
H4 C13 1_555 1_555
C14 C1 1_555 1_555
C15 C14 1_555 1_555
H5 C15 1_555 1_555
C16 C15 1_555 1_555
H6 C16 1_555 1_555
C17 C16 1_555 1_555
C18 C17 1_555 1_555
H7 C18 1_555 1_555
C19 C14 1_555 1_555
H8 C19 1_555 1_555
C20 H9 1_555 1_555
H10 C20 1_555 1_555
H11 C20 1_555 1_555
C21 C4 1_555 1_555
C22 C21 1_555 1_555
H12 C22 1_555 1_555
H13 C22 1_555 1_555
H14 C22 1_555 1_555
C23 C21 1_555 1_555
H15 C23 1_555 1_555
H16 C23 1_555 1_555
H17 C23 1_555 1_555
C24 C6 1_555 1_555
C25 C24 1_555 1_555
H18 C25 1_555 1_555
H19 C25 1_555 1_555
H20 C25 1_555 1_555
C26 C24 1_555 1_555
H21 C26 1_555 1_555
H22 C26 1_555 1_555
H23 C26 1_555 1_555
C27 C24 1_555 1_555
H24 C27 1_555 1_555
H25 C27 1_555 1_555
H26 C27 1_555 1_555
C28 C10 1_555 1_555
C29 C28 1_555 1_555
H27 C29 1_555 1_555
H28 C29 1_555 1_555
H29 C29 1_555 1_555
C30 C28 1_555 1_555
H30 C30 1_555 1_555
H31 C30 1_555 1_555
H32 C30 1_555 1_555
C31 C28 1_555 1_555
H33 C31 1_555 1_555
H34 C31 1_555 1_555
H35 C31 1_555 1_555
C32 C12 1_555 1_555
C33 C32 1_555 1_555
H36 C33 1_555 1_555
H37 C33 1_555 1_555
H38 C33 1_555 1_555
C34 C32 1_555 1_555
H39 C34 1_555 1_555
H40 C34 1_555 1_555
H41 C34 1_555 1_555
C35 C32 1_555 1_555
H42 C35 1_555 1_555
H43 C35 1_555 1_555
H44 C35 1_555 1_555
C36 C17 1_555 1_555
H45 C36 1_555 1_555
C37 C36 1_555 1_555
H46 C37 1_555 1_555
H47 C37 1_555 1_555
O1 C5 1_555 1_555
O2 C11 1_555 1_555
H48 O2 1_555 1_555
C6 C7 1_555 1_555
C12 C13 1_555 1_555
C18 C19 1_555 1_555
C20 C21 1_555 1_555

#END
