
#######################################################################
#
#                 Cambridge Crystallographic Data Centre
#                                CCDC 
#
#######################################################################
#
# If this CIF has been generated from an entry in the Cambridge 
# Structural Database, then it will include bibliographic, chemical, 
# crystal, experimental, refinement or atomic coordinate data resulting 
# from the CCDC's data processing and validation procedures.
#
#######################################################################

data_REYSAR
_chemical_formula_moiety         'C15 H20 O2'
_chemical_name_systematic        
12,12-Dimethyl-10-methylenetricyclo[7.2.1.0^1,6^]dodecane-2,8-dione
_symmetry_cell_setting           orthorhombic
_symmetry_space_group_name_H-M   'P b c a'
_symmetry_Int_Tables_number      61
_space_group_name_Hall           '-P 2ac 2ab'
loop_
_symmetry_equiv_pos_site_id
_symmetry_equiv_pos_as_xyz
1 x,y,z
2 1/2-x,-y,1/2+z
3 1/2+x,1/2-y,-z
4 -x,1/2+y,1/2-z
5 -x,-y,-z
6 1/2+x,y,1/2-z
7 1/2-x,1/2+y,z
8 x,1/2-y,1/2+z
_cell_length_a                   13.4787(2)
_cell_length_b                   13.3407(2)
_cell_length_c                   14.2140(10)
_cell_angle_alpha                90
_cell_angle_beta                 90
_cell_angle_gamma                90
_cell_volume                     2555.89
_exptl_crystal_colour            colorless
_exptl_crystal_description       prism
_chemical_melting_point          '74.8-76.5 deg.C'
_cell_formula_units_Z            8
loop_
_atom_site_label
_atom_site_type_symbol
_atom_site_fract_x
_atom_site_fract_y
_atom_site_fract_z
O1 O -0.02404(9) 0.83041(10) 0.28061(10)
O2 O 0.31719(9) 0.54229(9) 0.12227(9)
C1 C 0.08372(10) 0.70967(10) 0.21006(9)
C2 C 0.08105(12) 0.65258(12) 0.30449(10)
H1 H 0.0622 0.6971 0.3554
H2 H 0.0340 0.5977 0.3017
C3 C 0.06024(11) 0.63384(11) 0.13013(10)
H3 H -0.0002 0.5991 0.1502
C4 C 0.01133(11) 0.79761(12) 0.20825(11)
C5 C 0.23754(10) 0.78563(12) 0.11422(10)
H4 H 0.2281 0.7355 0.0666
H5 H 0.3071 0.7988 0.1216
H6 H 0.2042 0.8462 0.0960
C6 C 0.18455(12) 0.61367(11) 0.31911(9)
C7 C 0.21192(12) 0.83011(11) 0.28101(11)
H7 H 0.1790 0.8905 0.2617
H8 H 0.2817 0.8427 0.2872
H9 H 0.1857 0.8085 0.3404
C8 C 0.19495(9) 0.74820(10) 0.20721(9)
C9 C 0.03445(12) 0.68139(15) 0.03500(11)
H10 H 0.0935 0.7115 0.0082
H11 H 0.0116 0.6297 -0.0078
C10 C 0.14068(12) 0.55124(11) 0.12312(11)
H12 H 0.1179 0.4935 0.1585
H13 H 0.1458 0.5309 0.0578
C11 C 0.24301(11) 0.57790(11) 0.15731(11)
C12 C -0.01460(12) 0.84157(15) 0.11465(14)
H14 H 0.0423 0.8775 0.0899
H15 H -0.0684 0.8892 0.1223
C13 C 0.24768(11) 0.65042(10) 0.23842(10)
H16 H 0.3162 0.6631 0.2582
C14 C 0.21788(16) 0.55981(13) 0.39101(12)
H17 H 0.1752 0.5422 0.4397
H18 H 0.2839 0.5397 0.3927
C15 C -0.04555(12) 0.76084(17) 0.04524(13)
H19 H -0.0584 0.7912 -0.0156
H20 H -0.1065 0.7297 0.0667
loop_
_geom_bond_atom_site_label_1
_geom_bond_atom_site_label_2
_geom_bond_site_symmetry_1
_geom_bond_site_symmetry_2
O1 C4 1_555 1_555
O2 C11 1_555 1_555
C1 C2 1_555 1_555
C2 H1 1_555 1_555
H2 C2 1_555 1_555
C3 C1 1_555 1_555
H3 C3 1_555 1_555
C4 C1 1_555 1_555
C5 H4 1_555 1_555
H5 C5 1_555 1_555
H6 C5 1_555 1_555
C6 C2 1_555 1_555
C7 H7 1_555 1_555
H8 C7 1_555 1_555
H9 C7 1_555 1_555
C8 C1 1_555 1_555
C9 C3 1_555 1_555
H10 C9 1_555 1_555
H11 C9 1_555 1_555
C10 C3 1_555 1_555
H12 C10 1_555 1_555
H13 C10 1_555 1_555
C11 C10 1_555 1_555
C12 C4 1_555 1_555
H14 C12 1_555 1_555
H15 C12 1_555 1_555
C13 C6 1_555 1_555
H16 C13 1_555 1_555
C14 C6 1_555 1_555
H17 C14 1_555 1_555
H18 C14 1_555 1_555
C15 C9 1_555 1_555
H19 C15 1_555 1_555
H20 C15 1_555 1_555
C5 C8 1_555 1_555
C7 C8 1_555 1_555
C8 C13 1_555 1_555
C11 C13 1_555 1_555
C12 C15 1_555 1_555

#END
