
#######################################################################
#
#                 Cambridge Crystallographic Data Centre
#                                CCDC 
#
#######################################################################
#
# If this CIF has been generated from an entry in the Cambridge 
# Structural Database, then it will include bibliographic, chemical, 
# crystal, experimental, refinement or atomic coordinate data resulting 
# from the CCDC's data processing and validation procedures.
#
#######################################################################

data_REZMOZ
_chemical_formula_moiety         'C104 H94 O11,C1 H4 O1,0.75(C4 H8 O1)'
_chemical_name_systematic        
'2-((2R,3S,4S,5S)-3,4-bis(Benzyloxy)-2,5-bis(trityloxymethyl)-tetrahydrofuran-2-yloxy)-3,4,5-tris(benzyloxy)-6-(trityloxymethyl)tetrahydropyran methanol 2-butanone solvate'
_symmetry_cell_setting           monoclinic
_symmetry_space_group_name_H-M   'P 21'
_symmetry_Int_Tables_number      4
_space_group_name_Hall           'P 2yb'
loop_
_symmetry_equiv_pos_site_id
_symmetry_equiv_pos_as_xyz
1 x,y,z
2 -x,1/2+y,-z
_cell_length_a                   12.9897(10)
_cell_length_b                   24.0016(15)
_cell_length_c                   15.9688(11)
_cell_angle_alpha                90
_cell_angle_beta                 112.322(2)
_cell_angle_gamma                90
_cell_volume                     4605.57
_exptl_crystal_colour            colorless
_exptl_crystal_description       prism
_cell_formula_units_Z            2
loop_
_atom_site_label
_atom_site_type_symbol
_atom_site_fract_x
_atom_site_fract_y
_atom_site_fract_z
O1 O 0.5002(2) 0.63591(11) 0.66825(16)
O2 O 0.5255(2) 0.73147(12) 0.77766(16)
O3 O 0.3092(2) 0.72397(12) 0.78154(17)
O4 O 0.1695(2) 0.64183(12) 0.65787(18)
O5 O 0.3602(2) 0.68224(11) 0.54750(16)
O6 O 0.1282(2) 0.69769(11) 0.44409(16)
O7 O 0.6649(2) 0.64245(11) 0.64083(15)
O8 O 0.6324(2) 0.73607(11) 0.52369(17)
O9 O 0.5665(2) 0.59845(12) 0.40838(16)
O10 O 0.4182(2) 0.56458(11) 0.51498(16)
O11 O 0.5573(2) 0.54253(11) 0.75304(16)
C1 C 0.4584(3) 0.68779(16) 0.6266(2)
H1 H 0.5169 0.7076 0.6116
C2 C 0.4295(3) 0.72146(16) 0.6962(2)
H2 H 0.3980 0.7582 0.6688
C3 C 0.3426(3) 0.69083(16) 0.7209(2)
H3 H 0.3742 0.6547 0.7507
C4 C 0.2410(3) 0.67958(16) 0.6357(2)
H4 H 0.2007 0.7152 0.6117
C5 C 0.2737(3) 0.65147(15) 0.5634(2)
H5 H 0.3036 0.6136 0.5861
C6 C 0.1794(3) 0.64439(16) 0.4728(2)
H6 H 0.2081 0.6297 0.4279
H7 H 0.1241 0.6177 0.4781
C14 C 0.6083(5) 0.7637(3) 0.7604(4)
H15 H 0.5756 0.7994 0.7313
H16 H 0.6348 0.7432 0.7187
C15 C 0.7043(4) 0.7750(3) 0.8480(3)
C16 C 0.7174(5) 0.8234(4) 0.8986(5)
H17 H 0.6625 0.8519 0.8791
C17 C 0.8108(6) 0.8303(4) 0.9778(5)
H18 H 0.8197 0.8635 1.0124
C18 C 0.8911(5) 0.7887(4) 1.0063(4)
H19 H 0.9549 0.7934 1.0604
C19 C 0.8780(5) 0.7402(3) 0.9557(5)
H20 H 0.9329 0.7118 0.9752
C20 C 0.7846(5) 0.7334(3) 0.8765(5)
H21 H 0.7757 0.7002 0.8419
C21 C 0.3482(5) 0.7028(2) 0.8713(3)
H22 H 0.4306 0.7021 0.8973
H23 H 0.3208 0.6643 0.8714
C22 C 0.3055(4) 0.74031(19) 0.9266(2)
C23 C 0.1929(4) 0.7457(2) 0.9050(3)
H24 H 0.1421 0.7247 0.8564
C24 C 0.1529(5) 0.7818(3) 0.9542(3)
H25 H 0.0750 0.7864 0.9379
C25 C 0.2271(5) 0.8110(2) 1.0268(3)
H26 H 0.2003 0.8360 1.0600
C26 C 0.3400(5) 0.8038(2) 1.0509(3)
H27 H 0.3911 0.8227 1.1021
C27 C 0.3786(4) 0.7688(2) 1.0002(3)
H28 H 0.4564 0.7644 1.0163
C28 C 0.0558(3) 0.65825(18) 0.6276(3)
H29 H 0.0304 0.6728 0.5650
H30 H 0.0463 0.6879 0.6672
C29 C -0.0105(3) 0.60764(19) 0.6309(3)
C30 C -0.0186(5) 0.5910(3) 0.7108(3)
H31 H 0.0152 0.6130 0.7637
C31 C -0.0749(5) 0.5429(3) 0.7155(4)
H32 H -0.0769 0.5313 0.7717
C32 C -0.1284(4) 0.5117(2) 0.6381(4)
H33 H -0.1677 0.4789 0.6408
C33 C -0.1240(4) 0.5289(2) 0.5570(4)
H34 H -0.1611 0.5080 0.5035
C34 C -0.0655(4) 0.5766(2) 0.5533(3)
H35 H -0.0631 0.5881 0.4971
C35 C 0.0528(3) 0.70332(17) 0.3506(2)
C36 C 0.0174(3) 0.76462(17) 0.3406(2)
C37 C 0.0598(4) 0.80196(18) 0.4116(3)
H36 H 0.1088 0.7892 0.4693
C38 C 0.0312(4) 0.8580(2) 0.3990(3)
H37 H 0.0607 0.8831 0.4484
C39 C -0.0395(4) 0.8778(2) 0.3158(4)
H38 H -0.0584 0.9162 0.3076
C40 C -0.0819(4) 0.8409(2) 0.2455(3)
H39 H -0.1307 0.8542 0.1881
C41 C -0.0554(4) 0.78455(19) 0.2562(3)
H40 H -0.0863 0.7597 0.2066
C42 C -0.0455(3) 0.66308(17) 0.3320(2)
C43 C -0.1458(3) 0.68060(19) 0.3359(2)
H41 H -0.1558 0.7188 0.3468
C44 C -0.2317(3) 0.6429(2) 0.3241(3)
H42 H -0.3002 0.6558 0.3254
C45 C -0.2187(4) 0.58662(19) 0.3105(3)
H43 H -0.2771 0.5610 0.3035
C46 C -0.1181(3) 0.56842(18) 0.3073(2)
H44 H -0.1077 0.5301 0.2980
C47 C -0.0329(3) 0.60646(17) 0.3179(2)
H45 H 0.0350 0.5936 0.3154
C48 C 0.1170(3) 0.69557(16) 0.2873(2)
C49 C 0.0660(4) 0.6752(2) 0.1995(3)
H46 H -0.0073 0.6606 0.1800
C50 C 0.1215(4) 0.6760(2) 0.1397(3)
H47 H 0.0853 0.6626 0.0796
C51 C 0.2288(4) 0.6961(2) 0.1680(3)
H48 H 0.2668 0.6964 0.1276
C52 C 0.2812(4) 0.7162(2) 0.2561(3)
H49 H 0.3550 0.7303 0.2757
C53 C 0.2251(3) 0.71561(18) 0.3153(3)
H50 H 0.2613 0.7290 0.3754
C54 C 0.6728(3) 0.63977(16) 0.5524(2)
H51 H 0.7280 0.6102 0.5544
C55 C 0.5579(3) 0.62040(16) 0.4890(2)
H52 H 0.5036 0.6520 0.4740
C56 C 0.5322(3) 0.57809(16) 0.5495(2)
H53 H 0.5757 0.5434 0.5515
C57 C 0.5800(3) 0.60618(16) 0.6446(2)
C58 C 0.7163(3) 0.69508(17) 0.5345(2)
H54 H 0.7856 0.7051 0.5857
H55 H 0.7327 0.6928 0.4789
C59 C 0.6383(3) 0.56817(17) 0.7255(2)
H56 H 0.6812 0.5392 0.7087
H57 H 0.6908 0.5902 0.7762
C60 C 0.4604(3) 0.58220(19) 0.3418(2)
H58 H 0.4051 0.6121 0.3342
H59 H 0.4338 0.5479 0.3616
C61 C 0.4739(3) 0.57177(18) 0.2529(2)
C62 C 0.4870(5) 0.5187(2) 0.2249(3)
H60 H 0.4871 0.4876 0.2618
C63 C 0.5000(5) 0.5101(2) 0.1427(3)
H61 H 0.5083 0.4734 0.1238
C64 C 0.5007(4) 0.5550(2) 0.0894(3)
H62 H 0.5089 0.5494 0.0333
C65 C 0.4897(4) 0.6072(2) 0.1169(3)
H63 H 0.4911 0.6382 0.0803
C66 C 0.4766(4) 0.61606(19) 0.1980(3)
H64 H 0.4693 0.6530 0.2162
C67 C 0.3917(3) 0.51746(17) 0.5588(2)
H65 H 0.4025 0.5274 0.6218
H66 H 0.4420 0.4861 0.5608
C68 C 0.2728(3) 0.50024(16) 0.5077(3)
C69 C 0.2310(4) 0.4924(2) 0.4141(3)
H67 H 0.2753 0.5015 0.3805
C70 C 0.1239(5) 0.4712(2) 0.3702(4)
H68 H 0.0958 0.4649 0.3067
C71 C 0.0584(4) 0.4594(2) 0.4195(5)
H69 H -0.0143 0.4446 0.3897
C72 C 0.0985(4) 0.4691(2) 0.5113(5)
H70 H 0.0526 0.4618 0.5443
C73 C 0.2050(4) 0.4892(2) 0.5556(4)
H71 H 0.2322 0.4956 0.6190
C74 C 0.6586(3) 0.79340(16) 0.5081(3)
C75 C 0.7755(4) 0.80729(18) 0.5754(3)
C76 C 0.7926(5) 0.8158(3) 0.6672(3)
H72 H 0.7304 0.8170 0.6845
C77 C 0.8985(5) 0.8223(3) 0.7322(4)
H73 H 0.9081 0.8288 0.7935
C78 C 0.9904(5) 0.8195(3) 0.7089(4)
H74 H 1.0632 0.8226 0.7541
C79 C 0.9757(4) 0.8122(2) 0.6196(4)
H75 H 1.0386 0.8115 0.6029
C80 C 0.8683(4) 0.80569(19) 0.5530(3)
H76 H 0.8594 0.8001 0.4917
C81 C 0.6468(3) 0.80045(17) 0.4087(2)
C82 C 0.6804(3) 0.85011(17) 0.3810(3)
H77 H 0.7108 0.8789 0.4241
C83 C 0.6709(4) 0.85842(18) 0.2935(3)
H78 H 0.6947 0.8926 0.2766
C84 C 0.6263(4) 0.81661(19) 0.2293(3)
H79 H 0.6209 0.8217 0.1688
C85 C 0.5897(4) 0.76744(19) 0.2546(3)
H80 H 0.5582 0.7389 0.2111
C86 C 0.5991(3) 0.75985(17) 0.3437(2)
H81 H 0.5725 0.7264 0.3602
C87 C 0.5654(4) 0.82761(17) 0.5195(3)
C88 C 0.5792(5) 0.8834(2) 0.5477(3)
H82 H 0.6494 0.9010 0.5624
C89 C 0.4919(5) 0.9129(2) 0.5544(4)
H83 H 0.5037 0.9502 0.5755
C90 C 0.3886(5) 0.8898(2) 0.5313(4)
H84 H 0.3292 0.9109 0.5361
C91 C 0.3718(4) 0.8355(2) 0.5010(3)
H85 H 0.3001 0.8192 0.4841
C92 C 0.4589(3) 0.80458(18) 0.4949(3)
H86 H 0.4462 0.7672 0.4738
C93 C 0.6001(3) 0.51067(17) 0.8358(2)
C94 C 0.6600(3) 0.54926(19) 0.9170(2)
C95 C 0.6295(4) 0.60510(19) 0.9115(3)
H87 H 0.5783 0.6199 0.8562
C96 C 0.6742(4) 0.6393(2) 0.9870(3)
H88 H 0.6527 0.6773 0.9834
C97 C 0.7505(5) 0.6179(3) 1.0683(3)
H89 H 0.7810 0.6413 1.1198
C98 C 0.7812(5) 0.5630(3) 1.0735(3)
H90 H 0.8335 0.5486 1.1286
C99 C 0.7367(4) 0.5285(2) 0.9993(3)
H91 H 0.7581 0.4904 1.0039
C100 C 0.6691(3) 0.46293(18) 0.8195(2)
C101 C 0.7859(4) 0.46325(19) 0.8489(3)
H92 H 0.8273 0.4923 0.8875
C102 C 0.8414(4) 0.4216(2) 0.8221(3)
H93 H 0.9204 0.4221 0.8436
C103 C 0.7826(4) 0.3794(2) 0.7644(3)
H94 H 0.8209 0.3514 0.7456
C104 C 0.6667(4) 0.3784(2) 0.7341(3)
H95 H 0.6258 0.3495 0.6948
C105 C 0.6117(4) 0.41960(18) 0.7615(3)
H96 H 0.5328 0.4185 0.7405
C106 C 0.4966(4) 0.49013(17) 0.8505(2)
C107 C 0.5040(4) 0.44600(19) 0.9099(3)
H97 H 0.5727 0.4269 0.9382
C108 C 0.4108(5) 0.4299(2) 0.9280(3)
H98 H 0.4168 0.3999 0.9686
C109 C 0.3118(5) 0.4566(2) 0.8880(3)
H99 H 0.2491 0.4452 0.9005
C110 C 0.3018(4) 0.5013(2) 0.8279(3)
H100 H 0.2326 0.5200 0.8000
C111 C 0.3938(4) 0.51772(19) 0.8099(3)
H101 H 0.3874 0.5479 0.7697
O12 O 0.2152(9) 0.9259(5) 0.6968(7)
C112 C 0.3719(10) 0.8650(5) 0.7659(8)
H102 H 0.3975 0.8793 0.7197
H103 H 0.3499 0.8259 0.7531
H104 H 0.4322 0.8679 0.8256
C113 C 0.2739(7) 0.8986(3) 0.7650(6)
C114 C 0.2489(7) 0.8981(5) 0.8494(6)
H105 H 0.3092 0.9180 0.8979
H106 H 0.2488 0.8591 0.8692
C115 C 0.1372(8) 0.9251(5) 0.8380(8)
H107 H 0.1238 0.9206 0.8940
H108 H 0.0772 0.9070 0.7880
H109 H 0.1393 0.9648 0.8248
O14 O 0.9169(8) -0.0196(4) 1.0494(6)
H118 H 0.8900 -0.0484 1.0189
C120 C 0.8752(15) 0.0273(7) 0.9935(13)
H119 H 0.9158 0.0606 1.0239
H120 H 0.7959 0.0318 0.9816
H121 H 0.8850 0.0220 0.9361
C7? C 0.5795(12) 0.7822(5) 0.7731(9)
H8? H 0.5275 0.8135 0.7675
H9? H 0.5966 0.7819 0.7177
C8? C 0.6836(9) 0.7925(5) 0.8522(9)
C9? C 0.7034(10) 0.8476(5) 0.8807(10)
H10? H 0.6521 0.8759 0.8491
C10? C 0.7983(11) 0.8614(6) 0.9553(9)
H11? H 0.8119 0.8990 0.9747
C11? C 0.8734(10) 0.8200(7) 1.0014(8)
H12? H 0.9383 0.8294 1.0524
C12? C 0.8536(11) 0.7649(6) 0.9729(9)
H13? H 0.9049 0.7367 1.0044
C13? C 0.7587(11) 0.7512(5) 0.8983(9)
H14? H 0.7452 0.7135 0.8789
C116? C 0.223(2) 0.9303(9) 0.8091(14)
H110? H 0.2557 0.9677 0.8199
H111? H 0.2581 0.9073 0.8633
H112? H 0.1429 0.9329 0.7954
O13? O 0.219(2) 0.9301(9) 0.6573(14)
C117? C 0.2417(11) 0.9040(7) 0.7303(11)
C118? C 0.2877(14) 0.8455(6) 0.7423(11)
H113? H 0.2861 0.8306 0.6840
H114? H 0.2437 0.8206 0.7653
C119? C 0.4100(14) 0.8503(10) 0.8122(15)
H115? H 0.4467 0.8139 0.8188
H116? H 0.4097 0.8621 0.8709
H117? H 0.4503 0.8777 0.7909
O15? O 0.8288(11) 0.0822(5) 1.0303(7)
H122? H 0.7995 0.0672 1.0633
C121? C 0.8056(14) 0.0492(6) 0.9491(9)
H123? H 0.8243 0.0708 0.9048
H124? H 0.7265 0.0394 0.9235
H125? H 0.8504 0.0151 0.9643
O16? O 0.966(2) -0.0412(13) 0.9074(19)
H126? H 0.9413 -0.0713 0.9192
C122? C 0.894(4) 0.0056(18) 0.901(4)
H127? H 0.9240 0.0277 0.9570
H128? H 0.8194 -0.0080 0.8936
H129? H 0.8884 0.0288 0.8495
loop_
_geom_bond_atom_site_label_1
_geom_bond_atom_site_label_2
_geom_bond_site_symmetry_1
_geom_bond_site_symmetry_2
O1 C1 1_555 1_555
O2 C2 1_555 1_555
O3 C3 1_555 1_555
O4 C4 1_555 1_555
O5 C1 1_555 1_555
O6 C6 1_555 1_555
O7 C54 1_555 1_555
O8 C58 1_555 1_555
O9 C55 1_555 1_555
O10 C56 1_555 1_555
O11 C59 1_555 1_555
C1 H1 1_555 1_555
C2 C1 1_555 1_555
H2 C2 1_555 1_555
C3 C2 1_555 1_555
H3 C3 1_555 1_555
C4 C3 1_555 1_555
H4 C4 1_555 1_555
C5 O5 1_555 1_555
H5 C5 1_555 1_555
C6 C5 1_555 1_555
H6 C6 1_555 1_555
H7 C6 1_555 1_555
C14 O2 1_555 1_555
H15 C14 1_555 1_555
H16 C14 1_555 1_555
C15 C14 1_555 1_555
C16 C15 1_555 1_555
H17 C16 1_555 1_555
C17 C16 1_555 1_555
H18 C17 1_555 1_555
C18 C17 1_555 1_555
H19 C18 1_555 1_555
C19 C18 1_555 1_555
H20 C19 1_555 1_555
C20 C15 1_555 1_555
H21 C20 1_555 1_555
C21 O3 1_555 1_555
H22 C21 1_555 1_555
H23 C21 1_555 1_555
C22 C21 1_555 1_555
C23 C22 1_555 1_555
H24 C23 1_555 1_555
C24 C23 1_555 1_555
H25 C24 1_555 1_555
C25 C24 1_555 1_555
H26 C25 1_555 1_555
C26 C25 1_555 1_555
H27 C26 1_555 1_555
C27 C22 1_555 1_555
H28 C27 1_555 1_555
C28 O4 1_555 1_555
H29 C28 1_555 1_555
H30 C28 1_555 1_555
C29 C28 1_555 1_555
C30 C29 1_555 1_555
H31 C30 1_555 1_555
C31 C30 1_555 1_555
H32 C31 1_555 1_555
C32 C31 1_555 1_555
H33 C32 1_555 1_555
C33 C32 1_555 1_555
H34 C33 1_555 1_555
C34 C29 1_555 1_555
H35 C34 1_555 1_555
C35 O6 1_555 1_555
C36 C35 1_555 1_555
C37 C36 1_555 1_555
H36 C37 1_555 1_555
C38 C37 1_555 1_555
H37 C38 1_555 1_555
C39 C38 1_555 1_555
H38 C39 1_555 1_555
C40 C39 1_555 1_555
H39 C40 1_555 1_555
C41 C36 1_555 1_555
H40 C41 1_555 1_555
C42 C35 1_555 1_555
C43 C42 1_555 1_555
H41 C43 1_555 1_555
C44 C43 1_555 1_555
H42 C44 1_555 1_555
C45 C44 1_555 1_555
H43 C45 1_555 1_555
C46 C45 1_555 1_555
H44 C46 1_555 1_555
C47 C42 1_555 1_555
H45 C47 1_555 1_555
C48 C35 1_555 1_555
C49 C48 1_555 1_555
H46 C49 1_555 1_555
C50 C49 1_555 1_555
H47 C50 1_555 1_555
C51 C50 1_555 1_555
H48 C51 1_555 1_555
C52 C51 1_555 1_555
H49 C52 1_555 1_555
C53 C48 1_555 1_555
H50 C53 1_555 1_555
C54 H51 1_555 1_555
C55 C54 1_555 1_555
H52 C55 1_555 1_555
C56 C55 1_555 1_555
H53 C56 1_555 1_555
C57 O1 1_555 1_555
C58 C54 1_555 1_555
H54 C58 1_555 1_555
H55 C58 1_555 1_555
C59 C57 1_555 1_555
H56 C59 1_555 1_555
H57 C59 1_555 1_555
C60 O9 1_555 1_555
H58 C60 1_555 1_555
H59 C60 1_555 1_555
C61 C60 1_555 1_555
C62 C61 1_555 1_555
H60 C62 1_555 1_555
C63 C62 1_555 1_555
H61 C63 1_555 1_555
C64 C63 1_555 1_555
H62 C64 1_555 1_555
C65 C64 1_555 1_555
H63 C65 1_555 1_555
C66 C61 1_555 1_555
H64 C66 1_555 1_555
C67 O10 1_555 1_555
H65 C67 1_555 1_555
H66 C67 1_555 1_555
C68 C67 1_555 1_555
C69 C68 1_555 1_555
H67 C69 1_555 1_555
C70 C69 1_555 1_555
H68 C70 1_555 1_555
C71 C70 1_555 1_555
H69 C71 1_555 1_555
C72 C71 1_555 1_555
H70 C72 1_555 1_555
C73 C68 1_555 1_555
H71 C73 1_555 1_555
C74 O8 1_555 1_555
C75 C74 1_555 1_555
C76 C75 1_555 1_555
H72 C76 1_555 1_555
C77 C76 1_555 1_555
H73 C77 1_555 1_555
C78 C77 1_555 1_555
H74 C78 1_555 1_555
C79 C78 1_555 1_555
H75 C79 1_555 1_555
C80 C75 1_555 1_555
H76 C80 1_555 1_555
C81 C74 1_555 1_555
C82 C81 1_555 1_555
H77 C82 1_555 1_555
C83 C82 1_555 1_555
H78 C83 1_555 1_555
C84 C83 1_555 1_555
H79 C84 1_555 1_555
C85 C84 1_555 1_555
H80 C85 1_555 1_555
C86 C81 1_555 1_555
H81 C86 1_555 1_555
C87 C74 1_555 1_555
C88 C87 1_555 1_555
H82 C88 1_555 1_555
C89 C88 1_555 1_555
H83 C89 1_555 1_555
C90 C89 1_555 1_555
H84 C90 1_555 1_555
C91 C90 1_555 1_555
H85 C91 1_555 1_555
C92 C87 1_555 1_555
H86 C92 1_555 1_555
C93 O11 1_555 1_555
C94 C93 1_555 1_555
C95 C94 1_555 1_555
H87 C95 1_555 1_555
C96 C95 1_555 1_555
H88 C96 1_555 1_555
C97 C96 1_555 1_555
H89 C97 1_555 1_555
C98 C97 1_555 1_555
H90 C98 1_555 1_555
C99 C94 1_555 1_555
H91 C99 1_555 1_555
C100 C93 1_555 1_555
C101 C100 1_555 1_555
H92 C101 1_555 1_555
C102 C101 1_555 1_555
H93 C102 1_555 1_555
C103 C102 1_555 1_555
H94 C103 1_555 1_555
C104 C103 1_555 1_555
H95 C104 1_555 1_555
C105 C100 1_555 1_555
H96 C105 1_555 1_555
C106 C93 1_555 1_555
C107 C106 1_555 1_555
H97 C107 1_555 1_555
C108 C107 1_555 1_555
H98 C108 1_555 1_555
C109 C108 1_555 1_555
H99 C109 1_555 1_555
C110 C109 1_555 1_555
H100 C110 1_555 1_555
C111 C106 1_555 1_555
H101 C111 1_555 1_555
O12 C113 1_555 1_555
C112 H102 1_555 1_555
H103 C112 1_555 1_555
H104 C112 1_555 1_555
C113 C112 1_555 1_555
C114 C113 1_555 1_555
H105 C114 1_555 1_555
H106 C114 1_555 1_555
C115 C114 1_555 1_555
H107 C115 1_555 1_555
H108 C115 1_555 1_555
H109 C115 1_555 1_555
O14 H118 1_555 1_555
C120 O14 1_555 1_555
H119 C120 1_555 1_555
H120 C120 1_555 1_555
H121 C120 1_555 1_555
O7 C57 1_555 1_555
C4 C5 1_555 1_555
C19 C20 1_555 1_555
C26 C27 1_555 1_555
C33 C34 1_555 1_555
C40 C41 1_555 1_555
C46 C47 1_555 1_555
C52 C53 1_555 1_555
C56 C57 1_555 1_555
C65 C66 1_555 1_555
C72 C73 1_555 1_555
C79 C80 1_555 1_555
C85 C86 1_555 1_555
C91 C92 1_555 1_555
C98 C99 1_555 1_555
C104 C105 1_555 1_555
C110 C111 1_555 1_555

#END
