
#######################################################################
#
#                 Cambridge Crystallographic Data Centre
#                                CCDC 
#
#######################################################################
#
# If this CIF has been generated from an entry in the Cambridge 
# Structural Database, then it will include bibliographic, chemical, 
# crystal, experimental, refinement or atomic coordinate data resulting 
# from the CCDC's data processing and validation procedures.
#
#######################################################################

data_REZRAP
_chemical_formula_moiety         'C9 H9 N2 1+,Cl1 1-'
_chemical_name_systematic        '8-Aminoquinolinium chloride'
_symmetry_cell_setting           monoclinic
_symmetry_space_group_name_H-M   'P 21/n'
_symmetry_Int_Tables_number      14
_space_group_name_Hall           '-P 2yn'
loop_
_symmetry_equiv_pos_site_id
_symmetry_equiv_pos_as_xyz
1 x,y,z
2 1/2-x,1/2+y,1/2-z
3 -x,-y,-z
4 1/2+x,1/2-y,1/2+z
_cell_length_a                   6.9650(17)
_cell_length_b                   8.2078(19)
_cell_length_c                   15.4031(32)
_cell_angle_alpha                90
_cell_angle_beta                 94.380(11)
_cell_angle_gamma                90
_cell_volume                     877.982
_exptl_crystal_colour            'dark red'
_chemical_melting_point          207-209deg.C
_cell_formula_units_Z            4
loop_
_atom_site_label
_atom_site_type_symbol
_atom_site_fract_x
_atom_site_fract_y
_atom_site_fract_z
Cl1 Cl 0.28603(19) 0.07645(13) -0.15286(6)
N1 N 0.2414(4) 0.4046(5) -0.0671(2)
N2 N 0.3620(6) 0.1623(5) 0.0574(3)
C1 C 0.1846(6) 0.5116(6) -0.1275(3)
C2 C 0.1524(6) 0.6713(6) -0.1043(3)
C3 C 0.1781(6) 0.7163(6) -0.0205(3)
C4 C 0.2431(5) 0.6035(5) 0.0451(2)
C5 C 0.2800(7) 0.6452(6) 0.1335(3)
C6 C 0.3470(6) 0.5298(7) 0.1913(3)
C7 C 0.3756(6) 0.3706(6) 0.1661(2)
C8 C 0.3390(5) 0.3202(5) 0.0804(2)
C9 C 0.2736(4) 0.4416(5) 0.0194(2)
H1 H 0.254(5) 0.306(5) -0.087(2)
H2 H 0.347(7) 0.137(6) 0.001(3)
H3 H 0.429(6) 0.106(5) 0.088(3)
H4 H 0.171(5) 0.469(5) -0.188(3)
H5 H 0.120(5) 0.741(5) -0.148(3)
H6 H 0.163(6) 0.822(5) -0.001(2)
H7 H 0.263(6) 0.754(6) 0.147(3)
H8 H 0.376(6) 0.561(5) 0.255(3)
H9 H 0.428(5) 0.293(5) 0.206(2)
loop_
_geom_bond_atom_site_label_1
_geom_bond_atom_site_label_2
_geom_bond_site_symmetry_1
_geom_bond_site_symmetry_2
N1 C1 1_555 1_555
N2 C8 1_555 1_555
C1 C2 1_555 1_555
C2 C3 1_555 1_555
C3 C4 1_555 1_555
C4 C5 1_555 1_555
C5 C6 1_555 1_555
C6 C7 1_555 1_555
C7 C8 1_555 1_555
C8 C9 1_555 1_555
C9 N1 1_555 1_555
H1 N1 1_555 1_555
H2 N2 1_555 1_555
H3 N2 1_555 1_555
H4 C1 1_555 1_555
H5 C2 1_555 1_555
H6 C3 1_555 1_555
H7 C5 1_555 1_555
H8 C6 1_555 1_555
H9 C7 1_555 1_555
C4 C9 1_555 1_555

#END
