
#######################################################################
#
#                 Cambridge Crystallographic Data Centre
#                                CCDC 
#
#######################################################################
#
# If this CIF has been generated from an entry in the Cambridge 
# Structural Database, then it will include bibliographic, chemical, 
# crystal, experimental, refinement or atomic coordinate data resulting 
# from the CCDC's data processing and validation procedures.
#
#######################################################################

data_REZSEV
_chemical_formula_moiety         'C25 H23 N3 O3 S1'
_chemical_name_systematic        
N-(2,6-Dimethylphenyl)-2-(2-(3-(4-(methylsulfanyl)phenyl)-1,2,4-oxadiazol-5-yl)phenoxy)acetamide
_symmetry_cell_setting           triclinic
_symmetry_space_group_name_H-M   'P -1'
_symmetry_Int_Tables_number      2
_space_group_name_Hall           '-P 1'
loop_
_symmetry_equiv_pos_site_id
_symmetry_equiv_pos_as_xyz
1 x,y,z
2 -x,-y,-z
_cell_length_a                   8.6160(17)
_cell_length_b                   9.2900(19)
_cell_length_c                   15.225(3)
_cell_angle_alpha                84.34(3)
_cell_angle_beta                 81.45(3)
_cell_angle_gamma                66.66(3)
_cell_volume                     1105.43
_exptl_crystal_colour            colorless
_exptl_crystal_description       block
_cell_formula_units_Z            2
_exptl_crystal_recrystallization_method 'ethyl acetate'
loop_
_atom_site_label
_atom_site_type_symbol
_atom_site_fract_x
_atom_site_fract_y
_atom_site_fract_z
S1 S 0.24585(11) 0.92146(11) 0.30585(6)
O1 O 1.1238(2) 0.2789(2) 0.45919(11)
O2 O 1.3611(2) 0.4011(2) 0.22920(12)
O3 O 1.2994(2) 0.6580(2) 0.04068(11)
N1 N 0.9451(3) 0.3610(3) 0.46337(14)
N2 N 1.0789(3) 0.4488(2) 0.34505(13)
N3 N 1.1196(3) 0.6052(2) 0.15283(13)
H1 H 1.1146 0.5665 0.2064
C1 C 0.2854(5) 1.0373(4) 0.2128(3)
H2 H 0.1792 1.1135 0.1963
H3 H 0.3453 0.9712 0.1639
H4 H 0.3532 1.0901 0.2276
C2 C 0.4489(3) 0.7899(3) 0.32825(17)
C3 C 0.5968(3) 0.8158(3) 0.30147(17)
H5 H 0.5918 0.9070 0.2685
C4 C 0.7507(3) 0.7081(3) 0.32309(17)
H6 H 0.8488 0.7272 0.3042
C5 C 0.7626(3) 0.5717(3) 0.37242(15)
C6 C 0.6135(3) 0.5455(3) 0.39978(17)
H7 H 0.6186 0.4543 0.4328
C7 C 0.4596(3) 0.6537(3) 0.37825(18)
H8 H 0.3611 0.6354 0.3974
C8 C 0.9273(3) 0.4585(3) 0.39470(16)
C9 C 1.1925(3) 0.3396(3) 0.38732(16)
C10 C 1.3789(3) 0.2758(3) 0.37010(16)
C11 C 1.4623(3) 0.3094(3) 0.28968(17)
C12 C 1.6372(3) 0.2481(3) 0.27461(19)
H9 H 1.6920 0.2706 0.2209
C13 C 1.7317(4) 0.1531(3) 0.3394(2)
H10 H 1.8499 0.1113 0.3288
C14 C 1.6526(4) 0.1198(3) 0.4190(2)
H11 H 1.7169 0.0568 0.4625
C15 C 1.4769(3) 0.1804(3) 0.43425(18)
H12 H 1.4234 0.1570 0.4882
C16 C 1.4225(3) 0.4819(3) 0.15757(17)
H13 H 1.5047 0.4074 0.1163
H14 H 1.4784 0.5409 0.1798
C17 C 1.2740(3) 0.5916(3) 0.11114(17)
C18 C 0.9835(4) 0.9425(3) 0.1178(2)
H15 H 0.9946 0.9302 0.1802
H16 H 0.9158 1.0501 0.1032
H17 H 1.0943 0.9130 0.0844
C19 C 0.9457(4) 0.4131(3) 0.12456(18)
H18 H 0.8875 0.3638 0.0968
H19 H 0.9273 0.3980 0.1879
H20 H 1.0654 0.3672 0.1047
C20 C 0.9638(3) 0.6794(3) 0.11427(15)
C21 C 0.8782(3) 0.5854(3) 0.09985(16)
C22 C 0.7278(4) 0.6563(4) 0.06171(17)
H21 H 0.6693 0.5960 0.0506
C23 C 0.6643(4) 0.8136(4) 0.04015(19)
H22 H 0.5642 0.8590 0.0138
C24 C 0.7477(4) 0.9050(3) 0.05720(19)
H23 H 0.7023 1.0121 0.0429
C25 C 0.8988(3) 0.8399(3) 0.09549(17)
loop_
_geom_bond_atom_site_label_1
_geom_bond_atom_site_label_2
_geom_bond_site_symmetry_1
_geom_bond_site_symmetry_2
S1 C1 1_555 1_555
O1 N1 1_555 1_555
O2 C11 1_555 1_555
O3 C17 1_555 1_555
N1 C8 1_555 1_555
N2 C8 1_555 1_555
N3 H1 1_555 1_555
C1 H2 1_555 1_555
H3 C1 1_555 1_555
H4 C1 1_555 1_555
C2 S1 1_555 1_555
C3 C2 1_555 1_555
H5 C3 1_555 1_555
C4 C3 1_555 1_555
H6 C4 1_555 1_555
C5 C4 1_555 1_555
C6 C5 1_555 1_555
H7 C6 1_555 1_555
C7 C2 1_555 1_555
H8 C7 1_555 1_555
C8 C5 1_555 1_555
C9 O1 1_555 1_555
C10 C9 1_555 1_555
C11 C10 1_555 1_555
C12 C11 1_555 1_555
H9 C12 1_555 1_555
C13 C12 1_555 1_555
H10 C13 1_555 1_555
C14 C13 1_555 1_555
H11 C14 1_555 1_555
C15 C10 1_555 1_555
H12 C15 1_555 1_555
C16 O2 1_555 1_555
H13 C16 1_555 1_555
H14 C16 1_555 1_555
C17 N3 1_555 1_555
C18 H15 1_555 1_555
H16 C18 1_555 1_555
H17 C18 1_555 1_555
C19 H18 1_555 1_555
H19 C19 1_555 1_555
H20 C19 1_555 1_555
C20 N3 1_555 1_555
C21 C19 1_555 1_555
C22 C21 1_555 1_555
H21 C22 1_555 1_555
C23 C22 1_555 1_555
H22 C23 1_555 1_555
C24 C23 1_555 1_555
H23 C24 1_555 1_555
C25 C18 1_555 1_555
N2 C9 1_555 1_555
C6 C7 1_555 1_555
C14 C15 1_555 1_555
C16 C17 1_555 1_555
C20 C21 1_555 1_555
C20 C25 1_555 1_555
C24 C25 1_555 1_555

#END
