
#######################################################################
#
#                 Cambridge Crystallographic Data Centre
#                                CCDC 
#
#######################################################################
#
# If this CIF has been generated from an entry in the Cambridge 
# Structural Database, then it will include bibliographic, chemical, 
# crystal, experimental, refinement or atomic coordinate data resulting 
# from the CCDC's data processing and validation procedures.
#
#######################################################################

data_RIBGEO
_chemical_formula_moiety         'C31 H32 O4'
_chemical_name_systematic        
R-2-Hydroxy-2'-((1R,3S,5R)-3-menthyl-carbonyloxy)-1,1'-binaphthyl
_symmetry_cell_setting           monoclinic
_symmetry_space_group_name_H-M   'P 21'
_symmetry_Int_Tables_number      4
_space_group_name_Hall           'P 2yb'
loop_
_symmetry_equiv_pos_site_id
_symmetry_equiv_pos_as_xyz
1 x,y,z
2 -x,1/2+y,-z
_cell_length_a                   9.121(4)
_cell_length_b                   12.562(4)
_cell_length_c                   11.733(4)
_cell_angle_alpha                90
_cell_angle_beta                 104.20(3)
_cell_angle_gamma                90
_cell_volume                     1303.27
_exptl_crystal_colour            colorless
_chemical_melting_point          188-189deg.C
_cell_formula_units_Z            2
loop_
_atom_site_label
_atom_site_type_symbol
_atom_site_fract_x
_atom_site_fract_y
_atom_site_fract_z
O1 O 0.4169(5) 0.4433 0.6220(4)
O2 O 0.6258(6) 0.3824(5) 0.7295(4)
O3 O 0.4075(5) 0.3329(6) 0.7737(4)
O4 O 0.2626(5) 0.4668(6) 0.9117(4)
C1 C 0.3146(7) 0.5900(7) 0.7693(6)
C2 C 0.3965(7) 0.6821(7) 0.7491(6)
C3 C 0.4936(8) 0.7344(7) 0.8469(7)
C4 C 0.5078(9) 0.6943(8) 0.9585(6)
C5 C 0.4332(8) 0.6105(8) 0.9816(6)
C6 C 0.3374(8) 0.5551(7) 0.8854(7)
C7 C 0.3817(7) 0.7228(7) 0.6355(6)
C8 C 0.4618(9) 0.8123(8) 0.6156(7)
C9 C 0.552(1) 0.8646(9) 0.7110(8)
C10 C 0.5717(9) 0.8283(8) 0.8199(7)
C11 C 0.2088(7) 0.5331(6) 0.6732(6)
C12 C 0.0501(8) 0.5544(7) 0.6431(6)
C13 C -0.0439(8) 0.5011(7) 0.5464(6)
C14 C 0.0154(9) 0.4281(7) 0.4835(6)
C15 C 0.1665(8) 0.4050(7) 0.5085(6)
C16 C 0.2598(8) 0.4628(7) 0.6031(6)
C17 C -0.011(1) 0.626(1) 0.7101(7)
C18 C -0.168(1) 0.6453(9) 0.6824(8)
C19 C -0.257(1) 0.5909(9) 0.5865(8)
C20 C -0.2033(9) 0.5254(8) 0.5191(7)
C21 C 0.4773(8) 0.3808(8) 0.7168(7)
C22 C 0.7197(8) 0.3331(7) 0.8371(7)
C23 C 0.8705(8) 0.3050(7) 0.8120(7)
C24 C 0.9732(9) 0.2637(8) 0.9298(8)
C25 C 0.984(1) 0.3399(9) 1.0287(8)
C26 C 0.8321(9) 0.3658(8) 1.0482(7)
C27 C 0.7285(8) 0.4093(7) 0.9364(6)
C28 C 0.8543(9) 0.2373(8) 0.7013(8)
C29 C 1.012(1) 0.2140(8) 0.6800(7)
C30 C 0.774(1) 0.130(1) 0.7056(8)
C31 C 0.844(1) 0.449(1) 1.1509(7)
H1 H 0.2642 0.4094 0.8534
H2 H 0.5684 0.7286 1.0307
H3 H 0.4330 0.5662 1.0541
H4 H 0.3106 0.6854 0.5669
H5 H 0.4281 0.8278 0.5380
H6 H 0.6042 0.9246 0.6895
H7 H 0.6372 0.8556 0.8911
H8 H -0.0627 0.4017 0.4183
H9 H 0.2183 0.3521 0.4612
H10 H 0.0467 0.6628 0.7839
H11 H -0.1963 0.6909 0.7402
H12 H -0.3747 0.6100 0.5665
H13 H -0.2676 0.4879 0.4456
H14 H 0.6589 0.2769 0.8419
H15 H 0.9225 0.3735 0.8008
H16 H 0.7884 0.3048 1.0786
H17 H 0.7707 0.2784 0.6290
H18 H 1.0874 0.2357 0.9105
H19 H 0.9286 0.1862 0.9406
H20 H 1.0309 0.4139 1.0249
H21 H 1.0466 0.3013 1.1050
H22 H 0.6311 0.4239 0.9458
H23 H 0.7784 0.4850 0.9184
H24 H 0.9894 0.1701 0.6051
H25 H 1.0554 0.1685 0.7367
H26 H 1.0723 0.2869 0.7075
H27 H 0.6617 0.1345 0.7255
H28 H 0.8070 0.0944 0.7713
H29 H 0.7674 0.0795 0.6379
H30 H 0.9007 0.5008 1.1430
H31 H 0.9142 0.4039 1.2023
H32 H 0.7342 0.4618 1.1570
loop_
_geom_bond_atom_site_label_1
_geom_bond_atom_site_label_2
_geom_bond_site_symmetry_1
_geom_bond_site_symmetry_2
O1 C16 1_555 1_555
O2 C21 1_555 1_555
O3 C21 1_555 1_555
O4 C6 1_555 1_555
C1 C2 1_555 1_555
C2 C3 1_555 1_555
C3 C4 1_555 1_555
C4 C5 1_555 1_555
C5 C6 1_555 1_555
C6 C1 1_555 1_555
C7 C2 1_555 1_555
C8 C7 1_555 1_555
C9 C8 1_555 1_555
C10 C3 1_555 1_555
C11 C1 1_555 1_555
C12 C11 1_555 1_555
C13 C12 1_555 1_555
C14 C13 1_555 1_555
C15 C14 1_555 1_555
C16 C11 1_555 1_555
C17 C12 1_555 1_555
C18 C17 1_555 1_555
C19 C18 1_555 1_555
C20 C13 1_555 1_555
C21 O1 1_555 1_555
C22 O2 1_555 1_555
C23 C22 1_555 1_555
C24 C23 1_555 1_555
C25 C24 1_555 1_555
C26 C25 1_555 1_555
C27 C22 1_555 1_555
C28 C23 1_555 1_555
C29 C28 1_555 1_555
C30 C28 1_555 1_555
C31 C26 1_555 1_555
H1 O4 1_555 1_555
H2 C4 1_555 1_555
H3 C5 1_555 1_555
H4 C7 1_555 1_555
H5 C8 1_555 1_555
H6 C9 1_555 1_555
H7 C10 1_555 1_555
H8 C14 1_555 1_555
H9 C15 1_555 1_555
H10 C17 1_555 1_555
H11 C18 1_555 1_555
H12 C19 1_555 1_555
H13 C20 1_555 1_555
H14 C22 1_555 1_555
H15 C23 1_555 1_555
H16 C26 1_555 1_555
H17 C28 1_555 1_555
H18 C24 1_555 1_555
H19 C24 1_555 1_555
H20 C25 1_555 1_555
H21 C25 1_555 1_555
H22 C27 1_555 1_555
H23 C27 1_555 1_555
H24 C29 1_555 1_555
H25 C29 1_555 1_555
H26 C29 1_555 1_555
H27 C30 1_555 1_555
H28 C30 1_555 1_555
H29 C30 1_555 1_555
H30 C31 1_555 1_555
H31 C31 1_555 1_555
H32 C31 1_555 1_555
C9 C10 1_555 1_555
C15 C16 1_555 1_555
C19 C20 1_555 1_555
C26 C27 1_555 1_555

#END
