
#######################################################################
#
#                 Cambridge Crystallographic Data Centre
#                                CCDC 
#
#######################################################################
#
# If this CIF has been generated from an entry in the Cambridge 
# Structural Database, then it will include bibliographic, chemical, 
# crystal, experimental, refinement or atomic coordinate data resulting 
# from the CCDC's data processing and validation procedures.
#
#######################################################################

data_RIBLIA
_chemical_formula_moiety         'C4 N6 O9 2-,2(C1 H6 N3 1+)'
_chemical_name_systematic        'bis(guanidinium) bis(dinitromethyl)furazan'
_symmetry_cell_setting           triclinic
_symmetry_space_group_name_H-M   'P -1'
_symmetry_Int_Tables_number      2
_space_group_name_Hall           '-P 1'
loop_
_symmetry_equiv_pos_site_id
_symmetry_equiv_pos_as_xyz
1 x,y,z
2 -x,-y,-z
_cell_length_a                   9.04(2)
_cell_length_b                   9.611(12)
_cell_length_c                   9.812(12)
_cell_angle_alpha                118.654(18)
_cell_angle_beta                 92.99(3)
_cell_angle_gamma                100.45(3)
_cell_volume                     726.063
_exptl_crystal_colour            yellow
_exptl_crystal_description       prism
_cell_formula_units_Z            2
loop_
_atom_site_label
_atom_site_type_symbol
_atom_site_fract_x
_atom_site_fract_y
_atom_site_fract_z
N1 N 0.2530(2) 0.5594(3) 0.8870(3)
N2 N 0.4445(2) 0.4435(3) 0.7475(2)
N3 N 0.3762(2) 0.2868(3) 0.9557(3)
N4 N 0.1591(2) 0.0938(3) 0.8620(2)
N5 N -0.1225(2) 0.1408(3) 0.7358(3)
N6 N 0.0460(3) 0.1873(3) 0.5774(2)
O1 O 0.1438(2) 0.5379(3) 0.9521(2)
O2 O 0.2847(3) 0.6806(3) 0.8739(3)
O3 O 0.4658(2) 0.5362(2) 0.6945(2)
O4 O 0.5209(2) 0.3432(3) 0.7194(3)
O5 O 0.2978(2) 0.1531(2) 0.9556(2)
O6 O -0.1374(2) 0.0936(3) 0.8311(3)
O7 O -0.2316(2) 0.1580(3) 0.6712(3)
O8 O -0.0541(3) 0.1885(3) 0.4896(3)
O9 O 0.1779(2) 0.1916(3) 0.5463(2)
C1 C 0.3337(3) 0.4446(3) 0.8377(3)
C2 C 0.2895(3) 0.3114(3) 0.8657(3)
C3 C 0.1522(3) 0.1888(3) 0.8063(3)
C4 C 0.0215(3) 0.1738(3) 0.7057(3)
N7 N 0.3209(3) 0.7611(3) 0.6281(3)
H1 H 0.2483 0.7477 0.5596
H2 H 0.3187 0.6900 0.6578
N8 N 0.5424(3) 0.9074(4) 0.7902(3)
H3 H 0.5395 0.8362 0.8198
H4 H 0.6175 0.9917 0.8293
N9 N 0.4357(3) 0.9939(3) 0.6410(3)
H5 H 0.3628 0.9800 0.5725
H6 H 0.5103 1.0786 0.6794
C5 C 0.4331(3) 0.8877(3) 0.6862(3)
N10 N 0.7729(3) 0.6449(4) 0.6417(3)
H7 H 0.7904 0.7170 0.6127
H8 H 0.6888 0.5713 0.6039
N11 N 0.8476(3) 0.5390(3) 0.7865(3)
H9 H 0.9144 0.5408 0.8535
H10 H 0.7636 0.4653 0.7489
N12 N 0.9998(3) 0.7573(3) 0.7995(3)
H11 H 1.0662 0.7586 0.8664
H12 H 1.0175 0.8295 0.7706
C6 C 0.8735(3) 0.6471(3) 0.7425(3)
loop_
_geom_bond_atom_site_label_1
_geom_bond_atom_site_label_2
_geom_bond_site_symmetry_1
_geom_bond_site_symmetry_2
N1 O1 1_555 1_555
N2 O3 1_555 1_555
N3 O5 1_555 1_555
N4 O5 1_555 1_555
N5 O6 1_555 1_555
N6 O8 1_555 1_555
O2 N1 1_555 1_555
O4 N2 1_555 1_555
O7 N5 1_555 1_555
O9 N6 1_555 1_555
C1 N1 1_555 1_555
C2 N3 1_555 1_555
C3 N4 1_555 1_555
C4 N5 1_555 1_555
N7 H1 1_555 1_555
H2 N7 1_555 1_555
N8 H3 1_555 1_555
H4 N8 1_555 1_555
N9 H5 1_555 1_555
H6 N9 1_555 1_555
C5 N7 1_555 1_555
N10 H7 1_555 1_555
H8 N10 1_555 1_555
N11 H9 1_555 1_555
H10 N11 1_555 1_555
N12 H11 1_555 1_555
H12 N12 1_555 1_555
C6 N10 1_555 1_555
N2 C1 1_555 1_555
N6 C4 1_555 1_555
C1 C2 1_555 1_555
C2 C3 1_555 1_555
C3 C4 1_555 1_555
N8 C5 1_555 1_555
N9 C5 1_555 1_555
N11 C6 1_555 1_555
N12 C6 1_555 1_555

#END
