
#######################################################################
#
#                 Cambridge Crystallographic Data Centre
#                                CCDC 
#
#######################################################################
#
# If this CIF has been generated from an entry in the Cambridge 
# Structural Database, then it will include bibliographic, chemical, 
# crystal, experimental, refinement or atomic coordinate data resulting 
# from the CCDC's data processing and validation procedures.
#
#######################################################################

data_RICCUC
_chemical_formula_moiety         'C21 H18 N4 O1'
_chemical_name_systematic        
1,5-Dimethyl-2-phenyl-4-((1E)-(2-quinolyl)methylideneamino)-1H-pyrazol-3(2H)-one
_symmetry_cell_setting           monoclinic
_symmetry_space_group_name_H-M   'P 21/n'
_symmetry_Int_Tables_number      14
_space_group_name_Hall           '-P 2yn'
loop_
_symmetry_equiv_pos_site_id
_symmetry_equiv_pos_as_xyz
1 x,y,z
2 1/2-x,1/2+y,1/2-z
3 -x,-y,-z
4 1/2+x,1/2-y,1/2+z
_cell_length_a                   12.935(3)
_cell_length_b                   7.1220(14)
_cell_length_c                   20.465(4)
_cell_angle_alpha                90
_cell_angle_beta                 105.88(3)
_cell_angle_gamma                90
_cell_volume                     1813.35
_exptl_crystal_colour            orange
_exptl_crystal_description       prismatic
_cell_formula_units_Z            4
_exptl_crystal_recrystallization_method ethanol
loop_
_atom_site_label
_atom_site_type_symbol
_atom_site_fract_x
_atom_site_fract_y
_atom_site_fract_z
O1 O 1.34005(14) 0.8905(2) 0.12424(9)
N1 N 1.39316(16) 1.3260(2) 0.20062(10)
N2 N 1.42553(15) 1.1592(2) 0.17535(10)
N3 N 1.13568(15) 1.1294(2) 0.12529(9)
N4 N 0.96369(15) 0.7576(2) 0.05078(10)
C1 C 1.33445(18) 1.0529(3) 0.14400(11)
C2 C 1.24482(18) 1.1698(3) 0.14559(11)
C3 C 1.28438(18) 1.3342(3) 0.17756(11)
C4 C 1.2224(2) 1.5018(3) 0.18759(13)
H1 H 1.2709 1.5964 0.2116
H2 H 1.1735 1.4675 0.2134
H3 H 1.1826 1.5500 0.1442
C5 C 1.4653(2) 1.4871(3) 0.20993(14)
H4 H 1.4338 1.5911 0.2273
H5 H 1.4770 1.5210 0.1671
H6 H 1.5328 1.4552 0.2415
C6 C 1.52433(18) 1.0716(3) 0.21057(11)
C7 C 1.56376(19) 1.0780(3) 0.28059(12)
H7 H 1.5284 1.1477 0.3063
C8 C 1.6556(2) 0.9801(4) 0.31174(14)
H8 H 1.6830 0.9846 0.3587
C9 C 1.7075(2) 0.8751(4) 0.27347(16)
H9 H 1.7691 0.8076 0.2948
C10 C 1.6680(2) 0.8704(4) 0.20377(16)
H10 H 1.7033 0.8002 0.1781
C11 C 1.5770(2) 0.9684(3) 0.17212(14)
H11 H 1.5508 0.9657 0.1250
C12 C 1.10228(18) 0.9729(3) 0.09698(11)
H12 H 1.1515 0.8871 0.0889
C13 C 0.98779(18) 0.9264(3) 0.07711(11)
C14 C 0.9095(2) 1.0564(3) 0.08537(13)
H13 H 0.9301 1.1739 0.1043
C15 C 0.8048(2) 1.0080(3) 0.06554(13)
H14 H 0.7526 1.0922 0.0708
C16 C 0.77453(19) 0.8293(3) 0.03683(11)
C17 C 0.85733(19) 0.7074(3) 0.03051(11)
C18 C 0.8308(2) 0.5280(3) 0.00129(12)
H15 H 0.8848 0.4478 -0.0038
C19 C 0.7264(2) 0.4724(4) -0.01941(13)
H16 H 0.7096 0.3532 -0.0378
C20 C 0.6438(2) 0.5923(4) -0.01339(14)
H17 H 0.5727 0.5526 -0.0282
C21 C 0.6669(2) 0.7667(4) 0.01404(14)
H18 H 0.6114 0.8453 0.0178
loop_
_geom_bond_atom_site_label_1
_geom_bond_atom_site_label_2
_geom_bond_site_symmetry_1
_geom_bond_site_symmetry_2
O1 C1 1_555 1_555
N1 N2 1_555 1_555
N2 C1 1_555 1_555
N3 C2 1_555 1_555
N4 C13 1_555 1_555
C1 C2 1_555 1_555
C2 C3 1_555 1_555
C3 N1 1_555 1_555
C4 C3 1_555 1_555
H1 C4 1_555 1_555
H2 C4 1_555 1_555
H3 C4 1_555 1_555
C5 N1 1_555 1_555
H4 C5 1_555 1_555
H5 C5 1_555 1_555
H6 C5 1_555 1_555
C6 N2 1_555 1_555
C7 C6 1_555 1_555
H7 C7 1_555 1_555
C8 C7 1_555 1_555
H8 C8 1_555 1_555
C9 C8 1_555 1_555
H9 C9 1_555 1_555
C10 C9 1_555 1_555
H10 C10 1_555 1_555
C11 C6 1_555 1_555
H11 C11 1_555 1_555
C12 N3 1_555 1_555
H12 C12 1_555 1_555
C13 C12 1_555 1_555
C14 C13 1_555 1_555
H13 C14 1_555 1_555
C15 C14 1_555 1_555
H14 C15 1_555 1_555
C16 C15 1_555 1_555
C17 N4 1_555 1_555
C18 C17 1_555 1_555
H15 C18 1_555 1_555
C19 C18 1_555 1_555
H16 C19 1_555 1_555
C20 C19 1_555 1_555
H17 C20 1_555 1_555
C21 C16 1_555 1_555
H18 C21 1_555 1_555
C10 C11 1_555 1_555
C16 C17 1_555 1_555
C20 C21 1_555 1_555

#END
