
#######################################################################
#
#                 Cambridge Crystallographic Data Centre
#                                CCDC 
#
#######################################################################
#
# If this CIF has been generated from an entry in the Cambridge 
# Structural Database, then it will include bibliographic, chemical, 
# crystal, experimental, refinement or atomic coordinate data resulting 
# from the CCDC's data processing and validation procedures.
#
#######################################################################

data_RICHIU
_chemical_compound_source        
'Metabolite of toxigenic fungus Memoniella echinata'
_chemical_formula_moiety         'C17 H18 O6,2(H2 O1)'
_chemical_name_systematic        'Epidechlorogriseofulvin dihydrate'
_symmetry_cell_setting           monoclinic
_symmetry_space_group_name_H-M   'P 21'
_symmetry_Int_Tables_number      4
_space_group_name_Hall           'P 2yb'
loop_
_symmetry_equiv_pos_site_id
_symmetry_equiv_pos_as_xyz
1 x,y,z
2 -x,1/2+y,-z
_cell_length_a                   10.5865(7)
_cell_length_b                   12.1024(9)
_cell_length_c                   13.5473(7)
_cell_angle_alpha                90
_cell_angle_beta                 109.809(5)
_cell_angle_gamma                90
_cell_volume                     1633
_exptl_crystal_colour            colorless
_chemical_melting_point          129-131deg.C
_cell_formula_units_Z            4
loop_
_atom_site_label
_atom_site_type_symbol
_atom_site_fract_x
_atom_site_fract_y
_atom_site_fract_z
O1 O 0.3447(2) 0.6798(2) 0.8293(1)
C1 C 0.2602(3) 0.7997(2) 0.6830(2)
C2 C 0.2200(3) 0.7253(2) 0.7559(2)
O2 O 0.0802(2) 0.3829(2) 0.6606(2)
C3 C 0.2664(3) 0.9098(2) 0.6923(2)
O3 O 0.0326(2) 0.6337(2) 0.6276(2)
C4 C 0.1404(3) 0.6238(2) 0.6982(2)
C5 C 0.2399(3) 0.9646(3) 0.7793(2)
O4 O 0.5218(2) 0.3224(2) 0.9168(2)
C6 C 0.1995(3) 0.4150(2) 0.7303(2)
C7 C 0.2105(3) 0.8944(2) 0.8598(2)
O5 O 0.2462(2) 1.0654(2) 0.7874(2)
C8 C 0.3004(3) 0.3436(2) 0.7878(2)
C9 C 0.1411(3) 0.7868(2) 0.8149(2)
O6 O 0.2922(2) 0.7384(2) 0.6124(2)
C10 C 0.4190(3) 0.3865(2) 0.8573(2)
C11 C 0.4426(3) 0.4999(2) 0.8731(2)
C12 C 0.3395(3) 0.5679(2) 0.8176(2)
C13 C 0.2198(3) 0.5294(2) 0.7452(2)
C14 C 0.1096(3) 0.7160(3) 0.8975(2)
C15 C 0.3412(4) 0.7938(3) 0.5388(3)
C16 C 0.0546(3) 0.2659(3) 0.6471(3)
C17 C 0.5012(3) 0.2055(2) 0.9153(2)
H1 H 0.2883(3) 0.9528(2) 0.6417(2)
H2 H 0.1528(3) 0.9365(2) 0.8907(2)
H3 H 0.2958(3) 0.8776(2) 0.9169(2)
H4 H 0.2883(3) 0.2659(2) 0.7797(2)
H5 H 0.0528(3) 0.8072(2) 0.7616(2)
H6 H 0.5250(3) 0.5282(2) 0.9196(2)
H7 H 0.1936(3) 0.6926(13) 0.9509(9)
H8 H 0.0582(17) 0.6507(9) 0.8637(4)
H9 H 0.0567(17) 0.7594(6) 0.9306(11)
H10 H 0.3610(21) 0.7392(3) 0.4927(11)
H11 H 0.4231(13) 0.8347(15) 0.5770(3)
H12 H 0.2728(9) 0.8454(13) 0.4967(12)
H13 H -0.0333(11) 0.2537(3) 0.5932(13)
H14 H 0.0551(23) 0.2336(4) 0.7136(6)
H15 H 0.1245(14) 0.2310(4) 0.6254(18)
H16 H 0.5820(7) 0.1696(3) 0.9627(11)
H17 H 0.4826(18) 0.1776(3) 0.8438(4)
H18 H 0.4248(12) 0.1891(2) 0.9382(14)
O7 O 0.3967(2) 0.5019(2) 0.3026(2)
C18 C 0.2116(2) 0.4012(3) 0.3173(2)
C19 C 0.2655(3) 0.4575(2) 0.2402(2)
O8 O 0.1202(2) 0.7997(2) 0.1567(2)
C20 C 0.2193(3) 0.2919(2) 0.3340(2)
O9 O 0.0672(2) 0.5515(2) 0.1263(2)
C21 C 0.1798(3) 0.5595(2) 0.1899(2)
C22 C 0.2812(3) 0.2197(3) 0.2782(2)
O10 O 0.5652(2) 0.8606(2) 0.4068(2)
C23 C 0.2416(3) 0.7690(2) 0.2226(2)
C24 C 0.3417(3) 0.2693(2) 0.2037(2)
O11 O 0.2864(2) 0.1191(2) 0.2930(2)
C25 C 0.3428(3) 0.8399(2) 0.2795(2)
C26 C 0.2762(3) 0.3777(2) 0.1564(2)
O12 O 0.1591(2) 0.4759(2) 0.3660(2)
C27 C 0.4642(3) 0.7961(2) 0.3456(2)
C28 C 0.4907(3) 0.6826(2) 0.3560(2)
C29 C 0.3882(3) 0.6156(2) 0.2995(2)
C30 C 0.2640(3) 0.6539(2) 0.2331(2)
C31 C 0.3458(3) 0.4286(3) 0.0855(3)
C32 C 0.1120(3) 0.4366(3) 0.4480(2)
C33 C 0.0911(3) 0.9164(3) 0.1450(3)
C34 C 0.5420(3) 0.9776(2) 0.4088(3)
H19 H 0.1835(3) 0.2612(2) 0.3834(2)
H20 H 0.3334(3) 0.2161(2) 0.1463(2)
H21 H 0.4385(3) 0.2822(2) 0.2410(2)
H22 H 0.3298(3) 0.9177(2) 0.2737(2)
H23 H 0.1824(3) 0.3598(2) 0.1108(2)
H24 H 0.5746(3) 0.6541(2) 0.3997(2)
H25 H 0.2954(12) 0.4936(10) 0.0501(12)
H26 H 0.3496(18) 0.3742(6) 0.0330(10)
H27 H 0.4372(8) 0.4507(15) 0.1279(3)
H28 H 0.0834(17) 0.4996(3) 0.4808(10)
H29 H 0.1848(6) 0.3973(14) 0.5010(8)
H30 H 0.0361(12) 0.3864(12) 0.4180(3)
H31 H -0.0012(8) 0.9274(3) 0.0974(14)
H32 H 0.1536(15) 0.9527(4) 0.1161(16)
H33 H 0.1010(22) 0.9484(5) 0.2137(4)
H34 H 0.6221(8) 1.0134(3) 0.4573(11)
H35 H 0.4654(13) 0.9909(2) 0.4323(15)
H36 H 0.5228(19) 1.0082(4) 0.3383(4)
O13 O 0.2240(2) 0.0422(2) 0.4668(2)
H37 H 0.1242(31) 0.0738(39) 0.4498(37)
H38 H 0.2541(42) 0.0796(33) 0.4034(26)
O14 O 0.1780(3) 0.1764(3) 0.9587(2)
H39 H 0.1936(45) 0.1438(38) 0.8911(27)
H40 H 0.0736(27) 0.1582(34) 0.9383(31)
loop_
_geom_bond_atom_site_label_1
_geom_bond_atom_site_label_2
_geom_bond_site_symmetry_1
_geom_bond_site_symmetry_2
O1 C2 1_555 1_555
C1 C2 1_555 1_555
C2 C4 1_555 1_555
O2 C6 1_555 1_555
C3 C1 1_555 1_555
O3 C4 1_555 1_555
C4 C13 1_555 1_555
C5 C3 1_555 1_555
O4 C10 1_555 1_555
C6 C8 1_555 1_555
C7 C5 1_555 1_555
O5 C5 1_555 1_555
C8 C10 1_555 1_555
C9 C2 1_555 1_555
O6 C1 1_555 1_555
C10 C11 1_555 1_555
C11 C12 1_555 1_555
C12 O1 1_555 1_555
C13 C6 1_555 1_555
C14 C9 1_555 1_555
C15 O6 1_555 1_555
C16 O2 1_555 1_555
C17 O4 1_555 1_555
O7 C19 1_555 1_555
C18 C19 1_555 1_555
C19 C21 1_555 1_555
O8 C23 1_555 1_555
C20 C18 1_555 1_555
O9 C21 1_555 1_555
C21 C30 1_555 1_555
C22 C20 1_555 1_555
O10 C27 1_555 1_555
C23 C25 1_555 1_555
C24 C22 1_555 1_555
O11 C22 1_555 1_555
C25 C27 1_555 1_555
C26 C19 1_555 1_555
O12 C18 1_555 1_555
C27 C28 1_555 1_555
C28 C29 1_555 1_555
C29 O7 1_555 1_555
C30 C23 1_555 1_555
C31 C26 1_555 1_555
C32 O12 1_555 1_555
C33 O8 1_555 1_555
C34 O10 1_555 1_555
O13 H37 1_555 1_555
O14 H39 1_555 1_555
H1 C3 1_555 1_555
H2 C7 1_555 1_555
H3 C7 1_555 1_555
H4 C8 1_555 1_555
H5 C9 1_555 1_555
H6 C11 1_555 1_555
H7 C14 1_555 1_555
H8 C14 1_555 1_555
H9 C14 1_555 1_555
H10 C15 1_555 1_555
H11 C15 1_555 1_555
H12 C15 1_555 1_555
H13 C16 1_555 1_555
H14 C16 1_555 1_555
H15 C16 1_555 1_555
H16 C17 1_555 1_555
H17 C17 1_555 1_555
H18 C17 1_555 1_555
H19 C20 1_555 1_555
H20 C24 1_555 1_555
H21 C24 1_555 1_555
H22 C25 1_555 1_555
H23 C26 1_555 1_555
H24 C28 1_555 1_555
H25 C31 1_555 1_555
H26 C31 1_555 1_555
H27 C31 1_555 1_555
H28 C32 1_555 1_555
H29 C32 1_555 1_555
H30 C32 1_555 1_555
H31 C33 1_555 1_555
H32 C33 1_555 1_555
H33 C33 1_555 1_555
H34 C34 1_555 1_555
H35 C34 1_555 1_555
H36 C34 1_555 1_555
H38 O13 1_555 1_555
H40 O14 1_555 1_555
C7 C9 1_555 1_555
C12 C13 1_555 1_555
C24 C26 1_555 1_555
C29 C30 1_555 1_555

#END
