
#######################################################################
#
#                 Cambridge Crystallographic Data Centre
#                                CCDC 
#
#######################################################################
#
# If this CIF has been generated from an entry in the Cambridge 
# Structural Database, then it will include bibliographic, chemical, 
# crystal, experimental, refinement or atomic coordinate data resulting 
# from the CCDC's data processing and validation procedures.
#
#######################################################################

data_RICNUM
_chemical_formula_moiety         'C17 H18 N2 O3'
_chemical_name_systematic        
N,N'-bis(2-Hydroxybenzylidene)-2-hydroxy-1,3-propanediamine
_symmetry_cell_setting           monoclinic
_symmetry_space_group_name_H-M   'P 21/c'
_symmetry_Int_Tables_number      14
_space_group_name_Hall           '-P 2ybc'
loop_
_symmetry_equiv_pos_site_id
_symmetry_equiv_pos_as_xyz
1 x,y,z
2 -x,1/2+y,1/2-z
3 -x,-y,-z
4 x,1/2-y,1/2+z
_cell_length_a                   17.830(4)
_cell_length_b                   5.641(1)
_cell_length_c                   16.319(4)
_cell_angle_alpha                90
_cell_angle_beta                 109.14(1)
_cell_angle_gamma                90
_cell_volume                     1550.62
_cell_formula_units_Z            4
loop_
_atom_site_label
_atom_site_type_symbol
_atom_site_fract_x
_atom_site_fract_y
_atom_site_fract_z
O1 O 0.4143(2) 0.4971(3) 0.5384(3)
O2 O 0.5586(3) -0.2731(3) 0.5775(3)
O3 O 0.8313(2) 0.4033(3) 0.7264(2)
N1 N 0.4996(2) 0.1555(3) 0.6311(3)
N2 N 0.7487(2) 0.0204(3) 0.6557(3)
C1 C 0.3565(2) 0.4013(3) 0.5695(2)
C2 C 0.2834(3) 0.5174(3) 0.5441(2)
C3 C 0.2211(2) 0.4281(3) 0.5689(2)
C4 C 0.2319(2) 0.2227(3) 0.6191(3)
C5 C 0.3050(2) 0.1066(3) 0.6445(3)
C6 C 0.3673(2) 0.1959(3) 0.6197(2)
C7 C 0.4436(2) 0.0464(3) 0.6504(3)
C8 C 0.5677(2) 0.0089(3) 0.6579(3)
C9 C 0.6095(2) -0.0654(3) 0.5961(5)
C10 C 0.6913(2) -0.1644(3) 0.6365(3)
C11 C 0.8011(2) 0.0093(3) 0.6164(3)
C12 C 0.8685(2) 0.1800(3) 0.6226(2)
C13 C 0.9182(2) 0.1334(3) 0.5739(3)
C14 C 0.9813(2) 0.2853(3) 0.5791(3)
C15 C 0.9947(3) 0.4839(3) 0.6329(2)
C16 C 0.9450(3) 0.5306(2) 0.6816(2)
C17 C 0.8819(2) 0.3786(3) 0.6764(2)
loop_
_geom_bond_atom_site_label_1
_geom_bond_atom_site_label_2
_geom_bond_site_symmetry_1
_geom_bond_site_symmetry_2
O1 C1 1_555 1_555
O2 C9 1_555 1_555
O3 C17 1_555 1_555
N1 C7 1_555 1_555
N2 C10 1_555 1_555
C1 C2 1_555 1_555
C2 C3 1_555 1_555
C3 C4 1_555 1_555
C4 C5 1_555 1_555
C5 C6 1_555 1_555
C6 C1 1_555 1_555
C7 C6 1_555 1_555
C8 N1 1_555 1_555
C9 C8 1_555 1_555
C10 C9 1_555 1_555
C11 N2 1_555 1_555
C12 C11 1_555 1_555
C13 C12 1_555 1_555
C14 C13 1_555 1_555
C15 C14 1_555 1_555
C16 C15 1_555 1_555
C17 C12 1_555 1_555
C16 C17 1_555 1_555

#END
