
#######################################################################
#
#                 Cambridge Crystallographic Data Centre
#                                CCDC 
#
#######################################################################
#
# If this CIF has been generated from an entry in the Cambridge 
# Structural Database, then it will include bibliographic, chemical, 
# crystal, experimental, refinement or atomic coordinate data resulting 
# from the CCDC's data processing and validation procedures.
#
#######################################################################

data_RICRUS
_chemical_formula_moiety         'C98 F42,1.33(C7 H8)'
_chemical_name_systematic        
'tetradecakis(trifluoromethyl)-C84(23)fullerene toluene solvate'
_symmetry_cell_setting           triclinic
_symmetry_space_group_name_H-M   'P -1'
_symmetry_Int_Tables_number      2
_space_group_name_Hall           '-P 1'
loop_
_symmetry_equiv_pos_site_id
_symmetry_equiv_pos_as_xyz
1 x,y,z
2 -x,-y,-z
_cell_length_a                   14.3890(10)
_cell_length_b                   15.2910(10)
_cell_length_c                   18.5770(10)
_cell_angle_alpha                93.660(10)
_cell_angle_beta                 90.060(10)
_cell_angle_gamma                98.910(10)
_cell_volume                     4029.55
_exptl_crystal_colour            yellow
_exptl_crystal_description       needle
_cell_formula_units_Z            2
loop_
_atom_site_label
_atom_site_type_symbol
_atom_site_fract_x
_atom_site_fract_y
_atom_site_fract_z
F1 F 0.4892(2) 0.0860(2) 0.54764(18)
F2 F 0.4328(2) 0.1991(2) 0.59127(17)
F3 F 0.3487(2) 0.0705(2) 0.58786(18)
F4 F 0.6043(2) 0.2347(2) 0.50294(18)
F5 F 0.7032(2) 0.2457(2) 0.4168(2)
F6 F 0.6482(2) 0.1177(2) 0.45367(18)
F7 F 0.7010(2) 0.0765(2) 0.32296(19)
F8 F 0.6329(2) -0.0233(2) 0.2444(2)
F9 F 0.7140(2) 0.0956(2) 0.20971(19)
F10 F 0.1365(2) 0.2805(2) 0.59205(18)
F11 F 0.2577(3) 0.2216(3) 0.61058(18)
F12 F 0.2723(3) 0.3601(2) 0.5933(2)
F13 F 0.6526(2) 0.4315(2) 0.41744(19)
F14 F 0.6673(2) 0.4972(2) 0.3178(2)
F15 F 0.7315(2) 0.3816(2) 0.3305(2)
F16 F 0.7140(2) 0.3961(2) 0.1852(2)
F17 F 0.6791(3) 0.3072(3) 0.0914(2)
F18 F 0.7435(2) 0.2619(2) 0.1838(2)
F19 F -0.0194(2) 0.2219(3) 0.53151(19)
F20 F -0.0902(3) 0.1153(2) 0.4636(2)
F21 F -0.1015(2) 0.2482(3) 0.4421(2)
F22 F 0.3998(3) 0.5751(2) 0.4390(2)
F23 F 0.4496(4) 0.6270(2) 0.3395(2)
F24 F 0.5372(3) 0.5602(2) 0.4032(2)
F25 F 0.3334(3) -0.0831(2) -0.03062(19)
F26 F 0.2525(2) -0.1638(2) 0.04534(19)
F27 F 0.4038(2) -0.1403(2) 0.05227(19)
F28 F -0.0873(2) -0.1126(2) 0.3218(2)
F29 F -0.0646(2) -0.0528(2) 0.4276(2)
F30 F -0.1470(2) 0.0035(2) 0.3515(2)
F31 F 0.3601(3) 0.0655(3) -0.08793(19)
F32 F 0.4342(2) 0.1993(3) -0.08227(19)
F33 F 0.2841(2) 0.1738(3) -0.09614(18)
F34 F -0.0710(2) -0.1128(2) 0.1189(2)
F35 F -0.1222(3) 0.0068(3) 0.0983(2)
F36 F -0.1392(2) -0.0441(3) 0.2019(2)
F37 F -0.0708(3) 0.4194(3) 0.2505(2)
F38 F -0.0875(3) 0.3681(2) 0.1403(2)
F39 F 0.0032(3) 0.4907(2) 0.1673(2)
F40 F -0.1347(2) 0.1810(3) 0.09559(19)
F41 F -0.0564(3) 0.2674(3) 0.0236(2)
F42 F -0.0660(2) 0.1282(3) 0.00381(19)
C1 C 0.4837(3) 0.0972(3) 0.3760(3)
C2 C 0.4063(4) 0.0722(3) 0.4179(3)
C3 C 0.3737(4) 0.1368(4) 0.4755(3)
C4 C 0.4005(3) 0.2301(4) 0.4526(3)
C5 C 0.4776(4) 0.2574(3) 0.4057(3)
C6 C 0.5442(4) 0.1881(4) 0.3841(3)
C7 C 0.5766(3) 0.1978(4) 0.3060(3)
C8 C 0.5642(3) 0.1067(4) 0.2630(3)
C9 C 0.4895(4) 0.0546(3) 0.3080(3)
C10 C 0.4154(4) -0.0076(3) 0.2792(3)
C11 C 0.3326(4) -0.0315(3) 0.3209(3)
C12 C 0.3335(4) 0.0085(3) 0.3919(3)
C13 C 0.2477(4) 0.0271(4) 0.4253(3)
C14 C 0.2653(4) 0.1090(3) 0.4667(3)
C15 C 0.1980(4) 0.1648(3) 0.4681(3)
C16 C 0.2322(4) 0.2611(4) 0.4906(3)
C17 C 0.3347(4) 0.2874(3) 0.4639(3)
C18 C 0.3431(4) 0.3657(3) 0.4297(3)
C19 C 0.4176(4) 0.3937(3) 0.3850(3)
C20 C 0.4870(4) 0.3367(3) 0.3736(3)
C21 C 0.5625(4) 0.3590(4) 0.3154(3)
C22 C 0.5837(3) 0.2729(4) 0.2753(3)
C23 C 0.5831(4) 0.2809(4) 0.1938(3)
C24 C 0.5381(3) 0.1944(4) 0.1548(3)
C25 C 0.5282(3) 0.1140(4) 0.1862(3)
C26 C 0.4643(4) 0.0422(3) 0.1574(3)
C27 C 0.4060(4) -0.0194(3) 0.2021(3)
C28 C 0.3221(4) -0.0491(3) 0.1685(3)
C29 C 0.2364(4) -0.0686(3) 0.2076(3)
C30 C 0.2424(4) -0.0610(3) 0.2845(3)
C31 C 0.1579(4) -0.0494(3) 0.3218(3)
C32 C 0.1635(4) 0.0004(4) 0.3914(3)
C33 C 0.0904(4) 0.0536(4) 0.3959(3)
C34 C 0.1089(4) 0.1361(3) 0.4325(3)
C35 C 0.0437(4) 0.2010(3) 0.4146(3)
C36 C 0.0965(4) 0.2960(3) 0.4141(3)
C37 C 0.1836(4) 0.3238(3) 0.4489(3)
C38 C 0.2470(4) 0.3898(4) 0.4212(3)
C39 C 0.2285(4) 0.4350(3) 0.3602(3)
C40 C 0.3053(4) 0.4723(3) 0.3202(3)
C41 C 0.4091(4) 0.4709(4) 0.3405(3)
C42 C 0.4492(4) 0.4540(3) 0.2652(3)
C43 C 0.5171(4) 0.4000(3) 0.2542(3)
C44 C 0.5212(4) 0.3535(4) 0.1878(3)
C45 C 0.4546(4) 0.3541(4) 0.1344(3)
C46 C 0.4379(4) 0.2783(4) 0.0824(3)
C47 C 0.4807(4) 0.1995(4) 0.0941(3)
C48 C 0.4226(4) 0.1257(4) 0.0612(3)
C49 C 0.4141(4) 0.0460(4) 0.0927(3)
C50 C 0.3241(4) -0.0217(4) 0.0900(3)
C51 C 0.2402(4) 0.0241(4) 0.0735(3)
C52 C 0.1570(4) -0.0053(4) 0.1089(3)
C53 C 0.1529(4) -0.0556(4) 0.1739(3)
C54 C 0.0735(4) -0.0361(3) 0.2133(3)
C55 C 0.0769(4) -0.0343(3) 0.2861(3)
C56 C 0.0194(4) 0.0227(3) 0.3340(3)
C57 C 0.0047(3) 0.1044(3) 0.2938(3)
C58 C 0.0134(3) 0.1851(3) 0.3348(3)
C59 C 0.0247(3) 0.2644(3) 0.3016(3)
C60 C 0.0760(4) 0.3347(3) 0.3525(3)
C61 C 0.1387(4) 0.4060(4) 0.3237(3)
C62 C 0.1306(4) 0.4153(3) 0.2496(3)
C63 C 0.2103(4) 0.4471(4) 0.2110(3)
C64 C 0.2965(4) 0.4744(4) 0.2459(3)
C65 C 0.3825(4) 0.4565(4) 0.2121(3)
C66 C 0.3791(4) 0.4049(4) 0.1451(3)
C67 C 0.2895(4) 0.3772(4) 0.1082(3)
C68 C 0.2766(4) 0.2999(4) 0.0600(3)
C69 C 0.3540(4) 0.2527(4) 0.0466(3)
C70 C 0.3431(4) 0.1552(4) 0.0192(3)
C71 C 0.2491(4) 0.1042(4) 0.0410(3)
C72 C 0.1729(4) 0.1523(4) 0.0450(3)
C73 C 0.0881(4) 0.1184(4) 0.0772(3)
C74 C 0.0797(4) 0.0412(4) 0.1087(3)
C75 C 0.0152(3) 0.0196(3) 0.1720(3)
C76 C 0.0067(3) 0.1067(4) 0.2173(3)
C77 C 0.0156(4) 0.1880(4) 0.1842(3)
C78 C 0.0255(4) 0.2691(4) 0.2269(3)
C79 C 0.0577(4) 0.3592(4) 0.1990(3)
C80 C 0.1156(4) 0.3496(4) 0.1306(3)
C81 C 0.2065(4) 0.4047(4) 0.1393(3)
C82 C 0.1073(4) 0.2744(4) 0.0892(3)
C83 C 0.1858(4) 0.2496(4) 0.0506(3)
C84 C 0.0336(4) 0.1930(4) 0.1019(3)
C85 C 0.4101(4) 0.1231(4) 0.5514(3)
C86 C 0.6255(4) 0.1962(4) 0.4393(3)
C87 C 0.6554(4) 0.0638(4) 0.2600(3)
C88 C 0.2259(4) 0.2818(4) 0.5724(3)
C89 C 0.6534(4) 0.4174(4) 0.3458(4)
C90 C 0.6812(4) 0.3118(4) 0.1629(3)
C91 C -0.0420(4) 0.1968(4) 0.4635(3)
C92 C 0.4498(4) 0.5601(4) 0.3805(4)
C93 C 0.3287(4) -0.1035(4) 0.0386(3)
C94 C -0.0714(4) -0.0338(4) 0.3592(3)
C95 C 0.3554(4) 0.1489(4) -0.0634(3)
C96 C -0.0797(4) -0.0327(4) 0.1484(3)
C97 C -0.0252(4) 0.4105(4) 0.1884(4)
C98 C -0.0582(4) 0.1924(4) 0.0560(3)
C99 C 0.227(3) -0.2850(13) 0.296(2)
C100 C 0.320(3) -0.2672(19) 0.267(3)
C101 C 0.361(3) -0.282(2) 0.204(2)
C102 C 0.284(3) -0.3125(18) 0.166(2)
C103 C 0.187(3) -0.3239(19) 0.177(3)
C104 C 0.162(3) -0.3178(19) 0.250(2)
C105 C 0.213(2) -0.269(2) 0.368(2)
C106? C 0.066(3) -0.498(2) 0.550(3)
C107? C 0.145(3) -0.362(2) 0.386(3)
C108? C 0.161(2) -0.398(2) 0.453(2)
C109? C 0.093(2) -0.452(2) 0.493(2)
C110? C 0.031(5) -0.471(2) 0.469(3)
C111? C 0.361(2) -0.408(2) 0.0793(16)
C112? C 0.670(4) 0.664(4) 0.204(3)
C113? C 0.697(3) 0.602(3) 0.138(2)
C114? C 0.605(3) 0.569(3) 0.110(2)
C115? C 0.805(4) 0.577(3) 0.083(3)
C116? C 0.799(4) 0.677(3) 0.202(3)
C117? C 0.031(3) -0.408(2) 0.3655(18)
C118? C -0.009(3) -0.455(2) 0.415(2)
C119? C 0.417(3) -0.435(2) 0.0127(19)
C120? C 0.322(3) -0.339(3) 0.070(2)
loop_
_geom_bond_atom_site_label_1
_geom_bond_atom_site_label_2
_geom_bond_site_symmetry_1
_geom_bond_site_symmetry_2
F1 C85 1_555 1_555
F2 C85 1_555 1_555
F3 C85 1_555 1_555
F4 C86 1_555 1_555
F5 C86 1_555 1_555
F6 C86 1_555 1_555
F7 C87 1_555 1_555
F8 C87 1_555 1_555
F9 C87 1_555 1_555
F10 C88 1_555 1_555
F11 C88 1_555 1_555
F12 C88 1_555 1_555
F13 C89 1_555 1_555
F14 C89 1_555 1_555
F15 C89 1_555 1_555
F16 C90 1_555 1_555
F17 C90 1_555 1_555
F18 C90 1_555 1_555
F19 C91 1_555 1_555
F20 C91 1_555 1_555
F21 C91 1_555 1_555
F22 C92 1_555 1_555
F23 C92 1_555 1_555
F24 C92 1_555 1_555
F25 C93 1_555 1_555
F26 C93 1_555 1_555
F27 C93 1_555 1_555
F28 C94 1_555 1_555
F29 C94 1_555 1_555
F30 C94 1_555 1_555
F31 C95 1_555 1_555
F32 C95 1_555 1_555
F33 C95 1_555 1_555
F34 C96 1_555 1_555
F35 C96 1_555 1_555
F36 C96 1_555 1_555
F37 C97 1_555 1_555
F38 C97 1_555 1_555
F39 C97 1_555 1_555
F40 C98 1_555 1_555
F41 C98 1_555 1_555
F42 C98 1_555 1_555
C1 C2 1_555 1_555
C2 C3 1_555 1_555
C3 C4 1_555 1_555
C4 C5 1_555 1_555
C5 C6 1_555 1_555
C6 C1 1_555 1_555
C7 C6 1_555 1_555
C8 C7 1_555 1_555
C9 C1 1_555 1_555
C10 C9 1_555 1_555
C11 C10 1_555 1_555
C12 C2 1_555 1_555
C13 C12 1_555 1_555
C14 C3 1_555 1_555
C15 C14 1_555 1_555
C16 C15 1_555 1_555
C17 C4 1_555 1_555
C18 C17 1_555 1_555
C19 C18 1_555 1_555
C20 C5 1_555 1_555
C21 C20 1_555 1_555
C22 C7 1_555 1_555
C23 C22 1_555 1_555
C24 C23 1_555 1_555
C25 C8 1_555 1_555
C26 C25 1_555 1_555
C27 C10 1_555 1_555
C28 C27 1_555 1_555
C29 C28 1_555 1_555
C30 C11 1_555 1_555
C31 C30 1_555 1_555
C32 C13 1_555 1_555
C33 C32 1_555 1_555
C34 C15 1_555 1_555
C35 C34 1_555 1_555
C36 C35 1_555 1_555
C37 C16 1_555 1_555
C38 C18 1_555 1_555
C39 C38 1_555 1_555
C40 C39 1_555 1_555
C41 C19 1_555 1_555
C42 C41 1_555 1_555
C43 C21 1_555 1_555
C44 C23 1_555 1_555
C45 C44 1_555 1_555
C46 C45 1_555 1_555
C47 C24 1_555 1_555
C48 C47 1_555 1_555
C49 C26 1_555 1_555
C50 C28 1_555 1_555
C51 C50 1_555 1_555
C52 C51 1_555 1_555
C53 C29 1_555 1_555
C54 C53 1_555 1_555
C55 C31 1_555 1_555
C56 C33 1_555 1_555
C57 C56 1_555 1_555
C58 C35 1_555 1_555
C59 C58 1_555 1_555
C60 C36 1_555 1_555
C61 C39 1_555 1_555
C62 C61 1_555 1_555
C63 C62 1_555 1_555
C64 C40 1_555 1_555
C65 C42 1_555 1_555
C66 C45 1_555 1_555
C67 C66 1_555 1_555
C68 C67 1_555 1_555
C69 C46 1_555 1_555
C70 C48 1_555 1_555
C71 C51 1_555 1_555
C72 C71 1_555 1_555
C73 C72 1_555 1_555
C74 C52 1_555 1_555
C75 C54 1_555 1_555
C76 C57 1_555 1_555
C77 C76 1_555 1_555
C78 C59 1_555 1_555
C79 C62 1_555 1_555
C80 C79 1_555 1_555
C81 C63 1_555 1_555
C82 C80 1_555 1_555
C83 C68 1_555 1_555
C84 C73 1_555 1_555
C85 C3 1_555 1_555
C86 C6 1_555 1_555
C87 C8 1_555 1_555
C88 C16 1_555 1_555
C89 C21 1_555 1_555
C90 C23 1_555 1_555
C91 C35 1_555 1_555
C92 C41 1_555 1_555
C93 C50 1_555 1_555
C94 C56 1_555 1_555
C95 C70 1_555 1_555
C96 C75 1_555 1_555
C97 C79 1_555 1_555
C98 C84 1_555 1_555
C99 C100 1_555 1_555
C100 C101 1_555 1_555
C101 C102 1_555 1_555
C102 C103 1_555 1_555
C103 C104 1_555 1_555
C104 C99 1_555 1_555
C105 C99 1_555 1_555
C8 C9 1_555 1_555
C11 C12 1_555 1_555
C13 C14 1_555 1_555
C16 C17 1_555 1_555
C19 C20 1_555 1_555
C21 C22 1_555 1_555
C24 C25 1_555 1_555
C26 C27 1_555 1_555
C29 C30 1_555 1_555
C31 C32 1_555 1_555
C33 C34 1_555 1_555
C36 C37 1_555 1_555
C37 C38 1_555 1_555
C40 C41 1_555 1_555
C42 C43 1_555 1_555
C43 C44 1_555 1_555
C46 C47 1_555 1_555
C48 C49 1_555 1_555
C49 C50 1_555 1_555
C52 C53 1_555 1_555
C54 C55 1_555 1_555
C55 C56 1_555 1_555
C57 C58 1_555 1_555
C59 C60 1_555 1_555
C60 C61 1_555 1_555
C63 C64 1_555 1_555
C64 C65 1_555 1_555
C65 C66 1_555 1_555
C67 C81 1_555 1_555
C68 C69 1_555 1_555
C69 C70 1_555 1_555
C70 C71 1_555 1_555
C72 C83 1_555 1_555
C73 C74 1_555 1_555
C74 C75 1_555 1_555
C75 C76 1_555 1_555
C77 C78 1_555 1_555
C77 C84 1_555 1_555
C78 C79 1_555 1_555
C80 C81 1_555 1_555
C82 C83 1_555 1_555
C82 C84 1_555 1_555

#END
