
#######################################################################
#
#                 Cambridge Crystallographic Data Centre
#                                CCDC 
#
#######################################################################
#
# If this CIF has been generated from an entry in the Cambridge 
# Structural Database, then it will include bibliographic, chemical, 
# crystal, experimental, refinement or atomic coordinate data resulting 
# from the CCDC's data processing and validation procedures.
#
#######################################################################

data_RICSED
_chemical_formula_moiety         'C92 F24'
_chemical_name_systematic        octakis(trifluoromethyl)-C84(23)fullerene
_symmetry_cell_setting           monoclinic
_symmetry_space_group_name_H-M   'C 2/c'
_symmetry_Int_Tables_number      15
_space_group_name_Hall           '-C 2yn'
loop_
_symmetry_equiv_pos_site_id
_symmetry_equiv_pos_as_xyz
1 x,y,z
2 -x,y,1/2-z
3 1/2+x,1/2+y,z
4 1/2-x,1/2+y,1/2-z
5 -x,-y,-z
6 x,-y,1/2+z
7 1/2-x,1/2-y,-z
8 1/2+x,1/2-y,1/2+z
_cell_length_a                   44.753(2)
_cell_length_b                   11.3429(4)
_cell_length_c                   24.1160(10)
_cell_angle_alpha                90
_cell_angle_beta                 119.748(7)
_cell_angle_gamma                90
_cell_volume                     10628.7
_exptl_crystal_colour            orange
_exptl_crystal_description       needle
_cell_formula_units_Z            8
loop_
_atom_site_label
_atom_site_type_symbol
_atom_site_fract_x
_atom_site_fract_y
_atom_site_fract_z
F1 F 0.16609(4) 0.29328(15) 0.00161(8)
F2 F 0.11313(4) 0.29881(15) -0.06823(8)
F3 F 0.14882(6) 0.41143(16) -0.07701(9)
F4 F 0.19977(5) 0.27315(13) 0.30519(8)
F5 F 0.22359(5) 0.40035(16) 0.37832(8)
F6 F 0.17415(5) 0.3366(2) 0.35477(11)
F7 F 0.06311(5) 0.28521(13) 0.19188(9)
F8 F 0.07721(5) 0.37289(13) 0.28080(9)
F9 F 0.11400(5) 0.26498(13) 0.27226(9)
F10 F 0.03016(4) 0.5920(2) -0.18410(8)
F11 F 0.01761(6) 0.4515(3) -0.14038(10)
F12 F 0.06391(5) 0.44437(18) -0.14700(8)
F13 F 0.25185(3) 0.58352(16) 0.09360(7)
F14 F 0.22495(4) 0.67001(14) 0.00227(7)
F15 F 0.21368(4) 0.48953(14) 0.01104(8)
F16 F 0.2546(3) 0.5949(7) 0.4180(3)
F17 F 0.22339(9) 0.6926(10) 0.44403(16)
F18 F 0.2587(2) 0.7811(9) 0.4223(4)
F19 F 0.02007(5) 0.9739(2) -0.15032(10)
F20 F 0.05830(5) 0.9237(2) -0.17445(9)
F21 F 0.01887(6) 0.8028(3) -0.18819(10)
F22 F 0.14664(4) 0.92914(15) 0.40554(8)
F23 F 0.16565(6) 1.07427(15) 0.37420(10)
F24 F 0.19930(5) 0.9327(2) 0.42759(8)
C1 C 0.15333(5) 0.40475(16) 0.11215(11)
C2 C 0.17076(5) 0.41722(17) 0.17707(10)
C3 C 0.15265(6) 0.41441(16) 0.21216(10)
C4 C 0.11752(5) 0.41350(16) 0.18064(10)
C5 C 0.09804(5) 0.40811(17) 0.11086(11)
C6 C 0.11688(6) 0.39473(16) 0.07860(11)
C7 C 0.10488(5) 0.43260(18) 0.01463(11)
C8 C 0.13496(5) 0.46300(18) 0.00380(10)
C9 C 0.16475(5) 0.46493(17) 0.07384(10)
C10 C 0.19064(5) 0.54634(17) 0.10086(10)
C11 C 0.20830(5) 0.56726(18) 0.16939(10)
C12 C 0.19928(5) 0.49497(18) 0.20661(10)
C13 C 0.20312(5) 0.52911(19) 0.26684(10)
C14 C 0.17673(5) 0.46613(18) 0.27934(10)
C15 C 0.15739(5) 0.55669(17) 0.29663(10)
C16 C 0.12240(5) 0.53875(17) 0.27084(10)
C17 C 0.09981(5) 0.45038(17) 0.21758(10)
C18 C 0.06784(5) 0.52430(18) 0.17673(11)
C19 C 0.04944(5) 0.52069(19) 0.10976(11)
C20 C 0.06417(5) 0.45841(19) 0.07530(11)
C21 C 0.05306(5) 0.4935(2) 0.01203(11)
C22 C 0.07356(5) 0.4823(2) -0.01786(11)
C23 C 0.06369(5) 0.5742(2) -0.07053(11)
C24 C 0.09581(5) 0.6395(2) -0.06089(10)
C25 C 0.12953(5) 0.58655(19) -0.02551(10)
C26 C 0.15843(5) 0.65799(19) -0.00267(10)
C27 C 0.19396(5) 0.63388(18) 0.05681(10)
C28 C 0.20327(5) 0.75690(19) 0.08651(10)
C29 C 0.21981(5) 0.77737(19) 0.15298(10)
C30 C 0.22348(5) 0.6807(2) 0.19612(10)
C31 C 0.22732(5) 0.7098(2) 0.25603(10)
C32 C 0.21673(5) 0.6351(2) 0.29082(10)
C33 C 0.20758(5) 0.7075(2) 0.33405(10)
C34 C 0.17196(5) 0.67079(19) 0.32226(9)
C35 C 0.15074(5) 0.76038(18) 0.32113(10)
C36 C 0.11500(5) 0.74148(17) 0.29262(10)
C37 C 0.10109(5) 0.63269(17) 0.26789(10)
C38 C 0.06775(5) 0.62462(18) 0.21037(10)
C39 C 0.04836(5) 0.72705(19) 0.17987(11)
C40 C 0.02571(5) 0.7161(2) 0.11371(11)
C41 C 0.02630(5) 0.6149(2) 0.07924(11)
C42 C 0.01805(5) 0.6540(2) 0.01658(11)
C43 C 0.03119(5) 0.5942(2) -0.01612(11)
C44 C 0.04088(5) 0.6571(2) -0.05604(11)
C45 C 0.04131(5) 0.7778(2) -0.05576(11)
C46 C 0.06257(6) 0.8394(3) -0.08047(12)
C47 C 0.09286(6) 0.7599(2) -0.07127(10)
C48 C 0.12261(6) 0.8307(2) -0.04553(11)
C49 C 0.15486(5) 0.78069(19) -0.01173(10)
C50 C 0.18208(5) 0.84154(19) 0.04289(11)
C51 C 0.17665(6) 0.95471(19) 0.06148(12)
C52 C 0.19759(6) 0.9822(2) 0.12671(12)
C53 C 0.21852(5) 0.8949(2) 0.17123(11)
C54 C 0.21931(5) 0.9200(2) 0.23074(12)
C55 C 0.22355(5) 0.8293(2) 0.27132(11)
C56 C 0.20603(5) 0.8326(2) 0.30729(10)
C57 C 0.18186(5) 0.91783(19) 0.29563(11)
C58 C 0.15659(5) 0.89441(18) 0.31921(11)
C59 C 0.12025(6) 0.93528(18) 0.27051(11)
C60 C 0.09632(5) 0.84804(17) 0.26140(11)
C61 C 0.06302(5) 0.84263(18) 0.20605(11)
C62 C 0.05419(6) 0.9395(2) 0.16464(12)
C63 C 0.03168(6) 0.9245(2) 0.09652(13)
C64 C 0.01781(5) 0.8170(2) 0.07206(12)
C65 C 0.01551(5) 0.7788(2) 0.01320(12)
C66 C 0.02979(6) 0.8449(2) -0.01807(12)
C67 C 0.04402(6) 0.9606(2) 0.00796(13)
C68 C 0.07122(7) 1.0094(2) -0.00239(13)
C69 C 0.08177(7) 0.9459(2) -0.03988(12)
C70 C 0.11598(6) 0.9441(2) -0.02576(12)
C71 C 0.14254(7) 1.0075(2) 0.02613(13)
C72 C 0.13140(7) 1.0850(2) 0.05800(14)
C73 C 0.15277(7) 1.10821(19) 0.12508(14)
C74 C 0.18477(7) 1.05931(19) 0.15864(13)
C75 C 0.19658(6) 1.0148(2) 0.22183(12)
C76 C 0.17511(6) 1.01108(19) 0.24947(12)
C77 C 0.14117(7) 1.06607(18) 0.21399(13)
C78 C 0.11324(6) 1.02279(18) 0.22417(12)
C79 C 0.07899(7) 1.02805(19) 0.17373(13)
C80 C 0.07076(7) 1.0699(2) 0.11129(14)
C81 C 0.04339(6) 0.9991(2) 0.06263(14)
C82 C 0.09647(8) 1.1123(2) 0.10204(14)
C83 C 0.09643(7) 1.0859(2) 0.04388(14)
C84 C 0.13151(7) 1.11664(18) 0.15435(14)
C85 C 0.14078(6) 0.3654(2) -0.03588(12)
C86 C 0.19350(6) 0.3674(2) 0.33031(12)
C87 C 0.08869(7) 0.34169(19) 0.24152(13)
C88 C 0.04359(6) 0.5138(3) -0.13639(13)
C89 C 0.22137(5) 0.5934(2) 0.04017(11)
C90 C 0.23600(6) 0.6981(3) 0.40515(11)
C91 C 0.03964(8) 0.8837(3) -0.14981(15)
C92 C 0.16748(7) 0.9584(2) 0.38280(13)
F25? F 0.0434(8) 0.382(3) -0.1294(15)
F26? F 0.0113(6) 0.527(2) -0.1613(12)
F27? F 0.0525(9) 0.527(3) -0.1776(16)
F28? F 0.2413(3) 0.5975(7) 0.4249(3)
F29? F 0.2268(2) 0.7662(15) 0.4412(3)
F30? F 0.2647(3) 0.7462(12) 0.4113(6)
loop_
_geom_bond_atom_site_label_1
_geom_bond_atom_site_label_2
_geom_bond_site_symmetry_1
_geom_bond_site_symmetry_2
F1 C85 1_555 1_555
F2 C85 1_555 1_555
F3 C85 1_555 1_555
F4 C86 1_555 1_555
F5 C86 1_555 1_555
F6 C86 1_555 1_555
F7 C87 1_555 1_555
F8 C87 1_555 1_555
F9 C87 1_555 1_555
F10 C88 1_555 1_555
F11 C88 1_555 1_555
F12 C88 1_555 1_555
F13 C89 1_555 1_555
F14 C89 1_555 1_555
F15 C89 1_555 1_555
F16 C90 1_555 1_555
F17 C90 1_555 1_555
F18 C90 1_555 1_555
F19 C91 1_555 1_555
F20 C91 1_555 1_555
F21 C91 1_555 1_555
F22 C92 1_555 1_555
F23 C92 1_555 1_555
F24 C92 1_555 1_555
C1 C2 1_555 1_555
C2 C3 1_555 1_555
C3 C4 1_555 1_555
C4 C5 1_555 1_555
C5 C6 1_555 1_555
C6 C1 1_555 1_555
C7 C6 1_555 1_555
C8 C7 1_555 1_555
C9 C1 1_555 1_555
C10 C9 1_555 1_555
C11 C10 1_555 1_555
C12 C2 1_555 1_555
C13 C12 1_555 1_555
C14 C3 1_555 1_555
C15 C14 1_555 1_555
C16 C15 1_555 1_555
C17 C4 1_555 1_555
C18 C17 1_555 1_555
C19 C18 1_555 1_555
C20 C5 1_555 1_555
C21 C20 1_555 1_555
C22 C7 1_555 1_555
C23 C22 1_555 1_555
C24 C23 1_555 1_555
C25 C8 1_555 1_555
C26 C25 1_555 1_555
C27 C10 1_555 1_555
C28 C27 1_555 1_555
C29 C28 1_555 1_555
C30 C11 1_555 1_555
C31 C30 1_555 1_555
C32 C13 1_555 1_555
C33 C32 1_555 1_555
C34 C15 1_555 1_555
C35 C34 1_555 1_555
C36 C35 1_555 1_555
C37 C16 1_555 1_555
C38 C18 1_555 1_555
C39 C38 1_555 1_555
C40 C39 1_555 1_555
C41 C19 1_555 1_555
C42 C41 1_555 1_555
C43 C21 1_555 1_555
C44 C23 1_555 1_555
C45 C44 1_555 1_555
C46 C45 1_555 1_555
C47 C24 1_555 1_555
C48 C47 1_555 1_555
C49 C26 1_555 1_555
C50 C28 1_555 1_555
C51 C50 1_555 1_555
C52 C51 1_555 1_555
C53 C29 1_555 1_555
C54 C53 1_555 1_555
C55 C31 1_555 1_555
C56 C33 1_555 1_555
C57 C56 1_555 1_555
C58 C35 1_555 1_555
C59 C58 1_555 1_555
C60 C36 1_555 1_555
C61 C39 1_555 1_555
C62 C61 1_555 1_555
C63 C62 1_555 1_555
C64 C40 1_555 1_555
C65 C42 1_555 1_555
C66 C45 1_555 1_555
C67 C66 1_555 1_555
C68 C67 1_555 1_555
C69 C46 1_555 1_555
C70 C48 1_555 1_555
C71 C51 1_555 1_555
C72 C71 1_555 1_555
C73 C72 1_555 1_555
C74 C52 1_555 1_555
C75 C54 1_555 1_555
C76 C57 1_555 1_555
C77 C76 1_555 1_555
C78 C59 1_555 1_555
C79 C62 1_555 1_555
C80 C79 1_555 1_555
C81 C63 1_555 1_555
C82 C80 1_555 1_555
C83 C68 1_555 1_555
C84 C73 1_555 1_555
C85 C8 1_555 1_555
C86 C14 1_555 1_555
C87 C17 1_555 1_555
C88 C23 1_555 1_555
C89 C27 1_555 1_555
C90 C33 1_555 1_555
C91 C46 1_555 1_555
C92 C58 1_555 1_555
C8 C9 1_555 1_555
C11 C12 1_555 1_555
C13 C14 1_555 1_555
C16 C17 1_555 1_555
C19 C20 1_555 1_555
C21 C22 1_555 1_555
C24 C25 1_555 1_555
C26 C27 1_555 1_555
C29 C30 1_555 1_555
C31 C32 1_555 1_555
C33 C34 1_555 1_555
C36 C37 1_555 1_555
C37 C38 1_555 1_555
C40 C41 1_555 1_555
C42 C43 1_555 1_555
C43 C44 1_555 1_555
C46 C47 1_555 1_555
C48 C49 1_555 1_555
C49 C50 1_555 1_555
C52 C53 1_555 1_555
C54 C55 1_555 1_555
C55 C56 1_555 1_555
C57 C58 1_555 1_555
C59 C60 1_555 1_555
C60 C61 1_555 1_555
C63 C64 1_555 1_555
C64 C65 1_555 1_555
C65 C66 1_555 1_555
C67 C81 1_555 1_555
C68 C69 1_555 1_555
C69 C70 1_555 1_555
C70 C71 1_555 1_555
C72 C83 1_555 1_555
C73 C74 1_555 1_555
C74 C75 1_555 1_555
C75 C76 1_555 1_555
C77 C78 1_555 1_555
C77 C84 1_555 1_555
C78 C79 1_555 1_555
C80 C81 1_555 1_555
C82 C83 1_555 1_555
C82 C84 1_555 1_555

#END
