
#######################################################################
#
#                 Cambridge Crystallographic Data Centre
#                                CCDC 
#
#######################################################################
#
# If this CIF has been generated from an entry in the Cambridge 
# Structural Database, then it will include bibliographic, chemical, 
# crystal, experimental, refinement or atomic coordinate data resulting 
# from the CCDC's data processing and validation procedures.
#
#######################################################################

data_RICVOP
_chemical_formula_moiety         'C19 H20 O3 S1'
_chemical_name_systematic        
'4-Formyl-5-(2-naphthyl)tetrahydrothiophen-3-ylacetic acid ethyl ester'
_symmetry_cell_setting           monoclinic
_symmetry_space_group_name_H-M   'P 21'
_symmetry_Int_Tables_number      4
_space_group_name_Hall           'P 2yb'
loop_
_symmetry_equiv_pos_site_id
_symmetry_equiv_pos_as_xyz
1 x,y,z
2 -x,1/2+y,-z
_cell_length_a                   9.5518(3)
_cell_length_b                   5.4857(2)
_cell_length_c                   16.4179(5)
_cell_angle_alpha                90
_cell_angle_beta                 97.103(2)
_cell_angle_gamma                90
_cell_volume                     853.668
_exptl_crystal_colour            colorless
_cell_formula_units_Z            2
loop_
_atom_site_label
_atom_site_type_symbol
_atom_site_fract_x
_atom_site_fract_y
_atom_site_fract_z
S1 S 0.72219(4) -0.14892(8) 0.22775(2)
O1 O 1.02372(17) 0.4110(3) 0.08624(10)
O2 O 0.64030(19) -0.2917(3) -0.06113(9)
O3 O 0.63976(14) 0.0266(2) -0.14447(7)
C1 C 1.09129(15) 0.0101(3) 0.32679(9)
H1 H 1.1303 -0.1322 0.3070
C2 C 1.16285(15) 0.1280(3) 0.39652(9)
C3 C 1.29074(17) 0.0371(3) 0.43853(10)
H2 H 1.3308 -0.1058 0.4199
C4 C 1.35604(19) 0.1555(4) 0.50570(11)
H3 H 1.4409 0.0935 0.5329
C5 C 1.29857(18) 0.3667(4) 0.53438(10)
H4 H 1.3445 0.4457 0.5810
C6 C 1.17607(19) 0.4604(3) 0.49536(10)
H5 H 1.1387 0.6042 0.5151
C7 C 1.10473(15) 0.3435(3) 0.42549(8)
C8 C 0.97575(18) 0.4323(3) 0.38366(10)
H6 H 0.9358 0.5756 0.4021
C9 C 0.90927(16) 0.3131(3) 0.31738(9)
H7 H 0.8236 0.3746 0.2910
C10 C 0.96664(15) 0.0977(3) 0.28727(9)
C11 C 0.89611(15) -0.0292(3) 0.21263(9)
H8 H 0.9564 -0.1674 0.1998
C12 C 0.86410(14) 0.1285(3) 0.13491(8)
H9 H 0.8090 0.2738 0.1473
C13 C 0.77383(14) -0.0361(3) 0.07331(9)
H10 H 0.8342 -0.1716 0.0584
C14 C 0.65758(15) -0.1449(4) 0.11889(9)
H11 H 0.6351 -0.3108 0.0994
H12 H 0.5718 -0.0457 0.1090
C15 C 0.99750(18) 0.2066(4) 0.10268(10)
H13 H 1.0645 0.0860 0.0950
C16 C 0.71599(16) 0.0957(3) -0.00534(9)
H14 H 0.6394 0.2047 0.0059
H15 H 0.7907 0.1955 -0.0242
C17 C 0.66176(17) -0.0803(3) -0.07160(10)
C18 C 0.5863(2) -0.1290(5) -0.21256(11)
H16 H 0.6424 -0.2789 -0.2116
H17 H 0.4881 -0.1735 -0.2084
C19 C 0.5954(3) 0.0034(5) -0.28873(12)
H18 H 0.5439 0.1556 -0.2879
H19 H 0.5548 -0.0946 -0.3349
H20 H 0.6935 0.0373 -0.2941
loop_
_geom_bond_atom_site_label_1
_geom_bond_atom_site_label_2
_geom_bond_site_symmetry_1
_geom_bond_site_symmetry_2
S1 C11 1_555 1_555
O1 C15 1_555 1_555
O2 C17 1_555 1_555
O3 C17 1_555 1_555
C1 H1 1_555 1_555
C2 C1 1_555 1_555
C3 C2 1_555 1_555
H2 C3 1_555 1_555
C4 C3 1_555 1_555
H3 C4 1_555 1_555
C5 C4 1_555 1_555
H4 C5 1_555 1_555
C6 C5 1_555 1_555
H5 C6 1_555 1_555
C7 C2 1_555 1_555
C8 C7 1_555 1_555
H6 C8 1_555 1_555
C9 C8 1_555 1_555
H7 C9 1_555 1_555
C10 C1 1_555 1_555
C11 C10 1_555 1_555
H8 C11 1_555 1_555
C12 C11 1_555 1_555
H9 C12 1_555 1_555
C13 C12 1_555 1_555
H10 C13 1_555 1_555
C14 S1 1_555 1_555
H11 C14 1_555 1_555
H12 C14 1_555 1_555
C15 C12 1_555 1_555
H13 C15 1_555 1_555
C16 C13 1_555 1_555
H14 C16 1_555 1_555
H15 C16 1_555 1_555
C17 C16 1_555 1_555
C18 O3 1_555 1_555
H16 C18 1_555 1_555
H17 C18 1_555 1_555
C19 C18 1_555 1_555
H18 C19 1_555 1_555
H19 C19 1_555 1_555
H20 C19 1_555 1_555
C6 C7 1_555 1_555
C9 C10 1_555 1_555
C13 C14 1_555 1_555

#END
