
#######################################################################
#
#                 Cambridge Crystallographic Data Centre
#                                CCDC 
#
#######################################################################
#
# If this CIF has been generated from an entry in the Cambridge 
# Structural Database, then it will include bibliographic, chemical, 
# crystal, experimental, refinement or atomic coordinate data resulting 
# from the CCDC's data processing and validation procedures.
#
#######################################################################

data_RIDGOC
_chemical_name_common            4-N-dansyl-2'-deoxycytidine
_chemical_formula_moiety         'C21 H24 N4 O6 S1'
_chemical_name_systematic        
5-(Dimethylamino)-N-(1-(4-hydroxy-5-(hydroxymethyl)tetrahydrofuran-2-yl)-2-oxo-1,2-dihydropyrimidin-4-yl)naphthalene-1-sulfonamide
_symmetry_cell_setting           monoclinic
_symmetry_space_group_name_H-M   'P 21'
_symmetry_Int_Tables_number      4
_space_group_name_Hall           'P 2yb'
loop_
_symmetry_equiv_pos_site_id
_symmetry_equiv_pos_as_xyz
1 x,y,z
2 -x,1/2+y,-z
_cell_length_a                   8.2280(16)
_cell_length_b                   8.3500(17)
_cell_length_c                   15.938(3)
_cell_angle_alpha                90
_cell_angle_beta                 99.90(3)
_cell_angle_gamma                90
_cell_volume                     1078.7
_exptl_crystal_colour            colorless
_exptl_crystal_description       plate
_cell_formula_units_Z            2
_exptl_crystal_recrystallization_method dichloromethane
loop_
_atom_site_label
_atom_site_type_symbol
_atom_site_fract_x
_atom_site_fract_y
_atom_site_fract_z
S1 S 0.60282(5) 0.91176(5) 0.22233(3)
O1 O 0.59909(18) 1.08480(17) 0.22507(9)
O2 O 0.76271(18) 0.83819(18) 0.23020(10)
O3 O 0.2254(2) 0.49733(19) 0.43226(10)
O4 O 0.17211(17) 0.20952(18) 0.32861(9)
O5 O 0.27308(19) -0.10354(18) 0.46898(10)
H1 H 0.2073 -0.1529 0.4946
O6 O -0.0501(2) 0.2905(2) 0.43968(12)
H2 H 0.0135 0.3561 0.4219
N1 N -0.0005(2) 0.8940(2) -0.10085(11)
N2 N 0.5020(2) 0.8535(2) 0.29549(11)
H3 H 0.4622 0.9247 0.3272
N3 N 0.3732(2) 0.6646(2) 0.36234(11)
N4 N 0.3930(2) 0.3879(2) 0.34562(10)
C1 C -0.1793(3) 0.8933(4) -0.12014(15)
H4 H -0.2226 0.8232 -0.0799
H5 H -0.2154 0.8540 -0.1783
H6 H -0.2207 1.0024 -0.1153
C2 C 0.0648(3) 1.0000(4) -0.16014(15)
H7 H 0.0221 1.1086 -0.1553
H8 H 0.0304 0.9610 -0.2185
H9 H 0.1855 1.0015 -0.1463
C3 C 0.0691(2) 0.9162(3) -0.01409(12)
C4 C -0.0194(2) 0.9775(3) 0.04450(13)
H10 H -0.1324 1.0043 0.0273
C5 C 0.0566(2) 1.0006(3) 0.12985(13)
H11 H -0.0071 1.0410 0.1695
C6 C 0.2190(2) 0.9666(2) 0.15703(13)
H12 H 0.2686 0.9889 0.2142
C7 C 0.3145(2) 0.8973(2) 0.09962(12)
C8 C 0.2373(2) 0.8671(2) 0.01375(13)
C9 C 0.3263(3) 0.7824(2) -0.04084(14)
H13 H 0.2730 0.7566 -0.0969
C10 C 0.4861(3) 0.7371(3) -0.01508(14)
H14 H 0.5423 0.6794 -0.0527
C11 C 0.5677(2) 0.7758(2) 0.06723(14)
H15 H 0.6806 0.7483 0.0843
C12 C 0.4844(2) 0.8537(2) 0.12332(13)
C13 C 0.4795(2) 0.7000(2) 0.30757(13)
C14 C 0.5488(3) 0.5647(2) 0.27138(14)
H16 H 0.6257 0.5790 0.2339
C15 C 0.5030(2) 0.4166(3) 0.29147(13)
H17 H 0.5491 0.3274 0.2670
C16 C 0.3241(3) 0.5143(2) 0.38372(12)
C17 C 0.3435(2) 0.2222(2) 0.35919(13)
H18 H 0.4031 0.1493 0.3250
C18 C 0.3742(3) 0.1654(3) 0.45136(14)
H19 H 0.3818 0.2575 0.4910
H20 H 0.4777 0.1028 0.4640
C19 C 0.2250(3) 0.0604(2) 0.45934(14)
H21 H 0.1752 0.0957 0.5092
C20 C 0.1025(3) 0.0899(2) 0.37589(13)
H22 H 0.0883 -0.0115 0.3421
C21 C -0.0648(3) 0.1507(3) 0.38776(16)
H23 H -0.1315 0.1756 0.3315
H24 H -0.1228 0.0661 0.4147
loop_
_geom_bond_atom_site_label_1
_geom_bond_atom_site_label_2
_geom_bond_site_symmetry_1
_geom_bond_site_symmetry_2
S1 O1 1_555 1_555
O2 S1 1_555 1_555
O3 C16 1_555 1_555
O4 C17 1_555 1_555
O5 H1 1_555 1_555
O6 H2 1_555 1_555
N1 C1 1_555 1_555
N2 S1 1_555 1_555
H3 N2 1_555 1_555
N3 C13 1_555 1_555
N4 C15 1_555 1_555
C1 H4 1_555 1_555
H5 C1 1_555 1_555
H6 C1 1_555 1_555
C2 N1 1_555 1_555
H7 C2 1_555 1_555
H8 C2 1_555 1_555
H9 C2 1_555 1_555
C3 N1 1_555 1_555
C4 C3 1_555 1_555
H10 C4 1_555 1_555
C5 C4 1_555 1_555
H11 C5 1_555 1_555
C6 C5 1_555 1_555
H12 C6 1_555 1_555
C7 C6 1_555 1_555
C8 C3 1_555 1_555
C9 C8 1_555 1_555
H13 C9 1_555 1_555
C10 C9 1_555 1_555
H14 C10 1_555 1_555
C11 C10 1_555 1_555
H15 C11 1_555 1_555
C12 S1 1_555 1_555
C13 N2 1_555 1_555
C14 C13 1_555 1_555
H16 C14 1_555 1_555
C15 C14 1_555 1_555
H17 C15 1_555 1_555
C16 N3 1_555 1_555
C17 N4 1_555 1_555
H18 C17 1_555 1_555
C18 C17 1_555 1_555
H19 C18 1_555 1_555
H20 C18 1_555 1_555
C19 O5 1_555 1_555
H21 C19 1_555 1_555
C20 O4 1_555 1_555
H22 C20 1_555 1_555
C21 O6 1_555 1_555
H23 C21 1_555 1_555
H24 C21 1_555 1_555
N4 C16 1_555 1_555
C7 C8 1_555 1_555
C7 C12 1_555 1_555
C11 C12 1_555 1_555
C18 C19 1_555 1_555
C19 C20 1_555 1_555
C20 C21 1_555 1_555

#END
