
#######################################################################
#
#                 Cambridge Crystallographic Data Centre
#                                CCDC 
#
#######################################################################
#
# If this CIF has been generated from an entry in the Cambridge 
# Structural Database, then it will include bibliographic, chemical, 
# crystal, experimental, refinement or atomic coordinate data resulting 
# from the CCDC's data processing and validation procedures.
#
#######################################################################

data_RIFTAE
_chemical_formula_moiety         'C30 H52 B2 N2 Si2'
_chemical_name_systematic        
1,3-bis[t-butyl(dimethyl)silyl]-2,4-bis(2,4,6-trimethylphenyl)-1,3,2,4-diazadiboretidine
_symmetry_cell_setting           monoclinic
_symmetry_space_group_name_H-M   'P 21/c'
_symmetry_Int_Tables_number      14
_space_group_name_Hall           '-P 2ybc'
loop_
_symmetry_equiv_pos_site_id
_symmetry_equiv_pos_as_xyz
1 x,y,z
2 -x,1/2+y,1/2-z
3 -x,-y,-z
4 x,1/2-y,1/2+z
_cell_length_a                   10.7079(8)
_cell_length_b                   15.5938(11)
_cell_length_c                   9.9606(7)
_cell_angle_alpha                90
_cell_angle_beta                 102.6590(10)
_cell_angle_gamma                90
_cell_volume                     1622.76
_exptl_crystal_colour            colorless
_exptl_crystal_description       block
_cell_formula_units_Z            2
_chemical_properties_physical    Air-sensitive,Moisture-sensitive
loop_
_atom_site_label
_atom_site_type_symbol
_atom_site_fract_x
_atom_site_fract_y
_atom_site_fract_z
Si1 Si 0.31613(3) 0.49208(2) 0.16619(3)
N1 N 0.42962(9) 0.49588(6) 0.06593(9)
C1 C 0.66844(10) 0.43229(7) 0.18735(10)
C2 C 0.69456(10) 0.34395(7) 0.18339(11)
C3 C 0.78599(11) 0.30721(8) 0.28949(12)
H1 H 0.8031 0.2475 0.2868
C4 C 0.85250(11) 0.35581(8) 0.39891(12)
C5 C 0.82833(11) 0.44334(8) 0.40010(11)
H2 H 0.8748 0.4774 0.4733
C6 C 0.73735(10) 0.48237(7) 0.29607(11)
C7 C 0.62292(12) 0.28843(7) 0.06752(12)
H3 H 0.5928 0.3238 -0.0145
H4 H 0.5494 0.2618 0.0950
H5 H 0.6801 0.2436 0.0469
C8 C 0.94932(12) 0.31486(10) 0.51465(14)
H6 H 0.9319 0.2533 0.5176
H7 H 0.9431 0.3412 0.6023
H8 H 1.0357 0.3236 0.4990
C9 C 0.71637(12) 0.57798(8) 0.30008(12)
H9 H 0.7833 0.6077 0.2651
H10 H 0.7197 0.5959 0.3951
H11 H 0.6324 0.5924 0.2427
C10 C 0.38338(13) 0.54639(9) 0.33311(13)
H12 H 0.3985 0.6070 0.3165
H13 H 0.4644 0.5190 0.3773
H14 H 0.3226 0.5417 0.3934
C11 C 0.17011(11) 0.55048(8) 0.07359(14)
H15 H 0.1937 0.6086 0.0511
H16 H 0.1080 0.5536 0.1325
H17 H 0.1320 0.5198 -0.0114
C12 C 0.27332(11) 0.37677(7) 0.19750(11)
C13 C 0.24939(12) 0.32689(8) 0.06127(13)
H18 H 0.1771 0.3525 -0.0039
H19 H 0.2297 0.2670 0.0780
H20 H 0.3261 0.3293 0.0229
C14 C 0.15118(12) 0.37350(9) 0.25515(14)
H21 H 0.0788 0.3960 0.1863
H22 H 0.1633 0.4084 0.3388
H23 H 0.1337 0.3140 0.2770
C15 C 0.38278(12) 0.33381(8) 0.30156(13)
H24 H 0.3630 0.2730 0.3102
H25 H 0.3925 0.3618 0.3913
H26 H 0.4627 0.3392 0.2695
B1 B 0.56397(11) 0.47447(7) 0.07143(12)
Si1B Si 0.68387(3) 0.50792(2) -0.16619(3)
N1B N 0.57038(9) 0.50412(6) -0.06593(9)
C1B C 0.33156(10) 0.56771(7) -0.18735(10)
C2B C 0.30544(10) 0.65605(7) -0.18339(11)
C3B C 0.21401(11) 0.69279(8) -0.28949(12)
H1B H 0.1969 0.7525 -0.2868
C4B C 0.14750(11) 0.64419(8) -0.39891(12)
C5B C 0.17167(11) 0.55666(8) -0.40010(11)
H2B H 0.1252 0.5226 -0.4733
C6B C 0.26265(10) 0.51763(7) -0.29607(11)
C7B C 0.37708(12) 0.71157(7) -0.06752(12)
H3B H 0.4072 0.6762 0.0145
H4B H 0.4506 0.7382 -0.0950
H5B H 0.3199 0.7564 -0.0469
C8B C 0.05068(12) 0.68514(10) -0.51465(14)
H6B H 0.0681 0.7467 -0.5176
H7B H 0.0569 0.6588 -0.6023
H8B H -0.0357 0.6764 -0.4990
C9B C 0.28363(12) 0.42202(8) -0.30008(12)
H9B H 0.2167 0.3923 -0.2651
H10B H 0.2803 0.4041 -0.3951
H11B H 0.3676 0.4076 -0.2427
C10B C 0.61662(13) 0.45361(9) -0.33311(13)
H12B H 0.6015 0.3930 -0.3165
H13B H 0.5356 0.4810 -0.3773
H14B H 0.6774 0.4583 -0.3934
C11B C 0.82989(11) 0.44952(8) -0.07359(14)
H15B H 0.8063 0.3914 -0.0511
H16B H 0.8920 0.4464 -0.1325
H17B H 0.8680 0.4802 0.0114
C12B C 0.72668(11) 0.62323(7) -0.19750(11)
C13B C 0.75061(12) 0.67311(8) -0.06127(13)
H18B H 0.8229 0.6475 0.0039
H19B H 0.7703 0.7330 -0.0780
H20B H 0.6739 0.6707 -0.0229
C14B C 0.84882(12) 0.62650(9) -0.25515(14)
H21B H 0.9212 0.6040 -0.1863
H22B H 0.8367 0.5916 -0.3388
H23B H 0.8663 0.6860 -0.2770
C15B C 0.61722(12) 0.66619(8) -0.30156(13)
H24B H 0.6370 0.7270 -0.3102
H25B H 0.6075 0.6382 -0.3913
H26B H 0.5373 0.6608 -0.2695
B1B B 0.43603(11) 0.52553(7) -0.07143(12)
loop_
_geom_bond_atom_site_label_1
_geom_bond_atom_site_label_2
_geom_bond_site_symmetry_1
_geom_bond_site_symmetry_2
Si1 N1 1_555 1_555
N1 B1 1_555 1_555
C1 C2 1_555 1_555
C2 C3 1_555 1_555
C3 H1 1_555 1_555
C4 C3 1_555 1_555
C5 C4 1_555 1_555
H2 C5 1_555 1_555
C6 C1 1_555 1_555
C7 C2 1_555 1_555
H3 C7 1_555 1_555
H4 C7 1_555 1_555
H5 C7 1_555 1_555
C8 C4 1_555 1_555
H6 C8 1_555 1_555
H7 C8 1_555 1_555
H8 C8 1_555 1_555
C9 C6 1_555 1_555
H9 C9 1_555 1_555
H10 C9 1_555 1_555
H11 C9 1_555 1_555
C10 Si1 1_555 1_555
H12 C10 1_555 1_555
H13 C10 1_555 1_555
H14 C10 1_555 1_555
C11 Si1 1_555 1_555
H15 C11 1_555 1_555
H16 C11 1_555 1_555
H17 C11 1_555 1_555
C12 Si1 1_555 1_555
C13 C12 1_555 1_555
H18 C13 1_555 1_555
H19 C13 1_555 1_555
H20 C13 1_555 1_555
C14 C12 1_555 1_555
H21 C14 1_555 1_555
H22 C14 1_555 1_555
H23 C14 1_555 1_555
C15 C12 1_555 1_555
H24 C15 1_555 1_555
H25 C15 1_555 1_555
H26 C15 1_555 1_555
B1 C1 1_555 1_555
Si1B N1B 1_555 1_555
N1B B1 1_555 1_555
C1B C2B 1_555 1_555
C2B C3B 1_555 1_555
C3B H1B 1_555 1_555
C4B C3B 1_555 1_555
C5B C4B 1_555 1_555
H2B C5B 1_555 1_555
C6B C1B 1_555 1_555
C7B C2B 1_555 1_555
H3B C7B 1_555 1_555
H4B C7B 1_555 1_555
H5B C7B 1_555 1_555
C8B C4B 1_555 1_555
H6B C8B 1_555 1_555
H7B C8B 1_555 1_555
H8B C8B 1_555 1_555
C9B C6B 1_555 1_555
H9B C9B 1_555 1_555
H10B C9B 1_555 1_555
H11B C9B 1_555 1_555
C10B Si1B 1_555 1_555
H12B C10B 1_555 1_555
H13B C10B 1_555 1_555
H14B C10B 1_555 1_555
C11B Si1B 1_555 1_555
H15B C11B 1_555 1_555
H16B C11B 1_555 1_555
H17B C11B 1_555 1_555
C12B Si1B 1_555 1_555
C13B C12B 1_555 1_555
H18B C13B 1_555 1_555
H19B C13B 1_555 1_555
H20B C13B 1_555 1_555
C14B C12B 1_555 1_555
H21B C14B 1_555 1_555
H22B C14B 1_555 1_555
H23B C14B 1_555 1_555
C15B C12B 1_555 1_555
H24B C15B 1_555 1_555
H25B C15B 1_555 1_555
H26B C15B 1_555 1_555
B1B N1 1_555 1_555
C5 C6 1_555 1_555
N1B B1B 1_555 1_555
C1B B1B 1_555 1_555
C5B C6B 1_555 1_555

#END
