
#######################################################################
#
#                 Cambridge Crystallographic Data Centre
#                                CCDC 
#
#######################################################################
#
# If this CIF has been generated from an entry in the Cambridge 
# Structural Database, then it will include bibliographic, chemical, 
# crystal, experimental, refinement or atomic coordinate data resulting 
# from the CCDC's data processing and validation procedures.
#
#######################################################################

data_RIFYUB
_chemical_formula_moiety         'C20 H14 N2 O1'
_chemical_name_systematic        2-((E)-2-Quinolin-2-ylethenyl)quinolin-8-ol
_symmetry_cell_setting           tetragonal
_symmetry_space_group_name_H-M   'I 41/a'
_symmetry_Int_Tables_number      88
_space_group_name_Hall           '-I 4ad'
loop_
_symmetry_equiv_pos_site_id
_symmetry_equiv_pos_as_xyz
1 x,y,z
2 3/4-y,1/4+x,1/4+z
3 1/2+x,1/2+y,1/2+z
4 1/4-y,3/4+x,3/4+z
5 1/4+y,1/4-x,1/4+z
6 1/2-x,-y,1/2+z
7 3/4+y,3/4-x,3/4+z
8 -x,1/2-y,z
9 -x,-y,-z
10 1/4+y,3/4-x,3/4-z
11 1/2-x,1/2-y,1/2-z
12 3/4+y,1/4-x,1/4-z
13 3/4-y,3/4+x,3/4-z
14 1/2+x,y,1/2-z
15 1/4-y,1/4+x,1/4-z
16 x,1/2+y,-z
_cell_length_a                   21.5111(7)
_cell_length_b                   21.5111(7)
_cell_length_c                   13.2377(9)
_cell_angle_alpha                90
_cell_angle_beta                 90
_cell_angle_gamma                90
_cell_volume                     6125.45
_exptl_crystal_colour            yellow
_exptl_crystal_description       prism
_chemical_melting_point          456-457K
_cell_formula_units_Z            16
loop_
_atom_site_label
_atom_site_type_symbol
_atom_site_fract_x
_atom_site_fract_y
_atom_site_fract_z
O1 O 0.98766(8) 0.43660(8) 0.22082(12)
H1 H 0.9615 0.4642 0.2251
N1 N 0.90921(8) 0.48603(8) 0.08379(12)
N2 N 0.74190(8) 0.65311(8) 0.12063(12)
C1 C 0.94769(9) 0.43967(9) 0.05313(15)
C2 C 0.98875(10) 0.41431(10) 0.12548(16)
C3 C 1.02810(11) 0.36736(11) 0.10049(18)
H2 H 1.0553 0.3514 0.1485
C4 C 1.02754(12) 0.34306(12) 0.00223(19)
H3 H 1.0544 0.3107 -0.0141
C5 C 0.98868(11) 0.36573(11) -0.06935(18)
H4 H 0.9889 0.3487 -0.1339
C6 C 0.94782(10) 0.41518(10) -0.04633(15)
C7 C 0.90691(11) 0.44311(12) -0.11538(16)
H5 H 0.9055 0.4293 -0.1819
C8 C 0.86941(12) 0.49024(12) -0.08526(17)
H6 H 0.8427 0.5089 -0.1313
C9 C 0.87084(10) 0.51109(10) 0.01616(15)
C10 C 0.82756(11) 0.55910(11) 0.05060(17)
H7 H 0.8035 0.5795 0.0025
C11 C 0.82074(11) 0.57513(11) 0.14698(17)
H8 H 0.8477 0.5573 0.1936
C12 C 0.77402(10) 0.61880(10) 0.18570(16)
C13 C 0.76375(11) 0.62140(11) 0.29078(17)
H9 H 0.7873 0.5967 0.3339
C14 C 0.71975(11) 0.65964(11) 0.32903(16)
H10 H 0.7129 0.6614 0.3983
C15 C 0.68429(10) 0.69691(10) 0.26286(15)
C16 C 0.63792(11) 0.73834(11) 0.29527(18)
H11 H 0.6288 0.7416 0.3637
C17 C 0.60639(11) 0.77350(12) 0.22773(18)
H12 H 0.5757 0.8007 0.2502
C18 C 0.61954(11) 0.76925(11) 0.12414(17)
H13 H 0.5979 0.7939 0.0785
C19 C 0.66387(10) 0.72916(10) 0.09005(16)
H14 H 0.6719 0.7263 0.0212
C20 C 0.69748(9) 0.69212(9) 0.15827(14)
loop_
_geom_bond_atom_site_label_1
_geom_bond_atom_site_label_2
_geom_bond_site_symmetry_1
_geom_bond_site_symmetry_2
O1 H1 1_555 1_555
N1 C1 1_555 1_555
N2 C12 1_555 1_555
C1 C2 1_555 1_555
C2 O1 1_555 1_555
C3 C2 1_555 1_555
H2 C3 1_555 1_555
C4 C3 1_555 1_555
H3 C4 1_555 1_555
C5 C4 1_555 1_555
H4 C5 1_555 1_555
C6 C1 1_555 1_555
C7 C6 1_555 1_555
H5 C7 1_555 1_555
C8 C7 1_555 1_555
H6 C8 1_555 1_555
C9 N1 1_555 1_555
C10 C9 1_555 1_555
H7 C10 1_555 1_555
C11 C10 1_555 1_555
H8 C11 1_555 1_555
C12 C11 1_555 1_555
C13 C12 1_555 1_555
H9 C13 1_555 1_555
C14 C13 1_555 1_555
H10 C14 1_555 1_555
C15 C14 1_555 1_555
C16 C15 1_555 1_555
H11 C16 1_555 1_555
C17 C16 1_555 1_555
H12 C17 1_555 1_555
C18 C17 1_555 1_555
H13 C18 1_555 1_555
C19 C18 1_555 1_555
H14 C19 1_555 1_555
C20 N2 1_555 1_555
C5 C6 1_555 1_555
C8 C9 1_555 1_555
C15 C20 1_555 1_555
C19 C20 1_555 1_555

#END
