
#######################################################################
#
#                 Cambridge Crystallographic Data Centre
#                                CCDC 
#
#######################################################################
#
# If this CIF has been generated from an entry in the Cambridge 
# Structural Database, then it will include bibliographic, chemical, 
# crystal, experimental, refinement or atomic coordinate data resulting 
# from the CCDC's data processing and validation procedures.
#
#######################################################################

data_RIFZAI
_chemical_formula_moiety         'C20 H14 N2 O1'
_chemical_name_systematic        2-((E)-2-Quinolin-4-ylethenyl)quinolin-8-ol
_symmetry_cell_setting           monoclinic
_symmetry_space_group_name_H-M   'P 21/n'
_symmetry_Int_Tables_number      14
_space_group_name_Hall           '-P 2yn'
loop_
_symmetry_equiv_pos_site_id
_symmetry_equiv_pos_as_xyz
1 x,y,z
2 1/2-x,1/2+y,1/2-z
3 -x,-y,-z
4 1/2+x,1/2-y,1/2+z
_cell_length_a                   10.7240(6)
_cell_length_b                   8.9019(5)
_cell_length_c                   16.1894(8)
_cell_angle_alpha                90
_cell_angle_beta                 102.039(4)
_cell_angle_gamma                90
_cell_volume                     1511.51
_exptl_crystal_colour            yellow
_exptl_crystal_description       block
_chemical_melting_point          461-462K
_cell_formula_units_Z            4
loop_
_atom_site_label
_atom_site_type_symbol
_atom_site_fract_x
_atom_site_fract_y
_atom_site_fract_z
O1 O 0.28263(10) 0.49707(12) 0.16643(7)
H1 H 0.3032 0.5676 0.1396
N1 N 0.50709(11) 0.55344(13) 0.11577(7)
N2 N 0.74000(12) 1.22073(14) -0.08230(7)
C1 C 0.49795(13) 0.42565(15) 0.16041(8)
C2 C 0.38159(14) 0.40009(16) 0.18676(9)
C3 C 0.36949(16) 0.27616(18) 0.23504(9)
H2 H 0.2938 0.2600 0.2531
C4 C 0.46986(18) 0.17414(18) 0.25717(10)
H3 H 0.4600 0.0912 0.2901
C5 C 0.58216(17) 0.19378(17) 0.23135(9)
H4 H 0.6474 0.1238 0.2459
C6 C 0.59899(14) 0.32088(15) 0.18237(9)
C7 C 0.71088(15) 0.35195(17) 0.15318(10)
H5 H 0.7789 0.2850 0.1642
C8 C 0.71976(14) 0.47981(16) 0.10877(10)
H6 H 0.7937 0.5004 0.0894
C9 C 0.61637(13) 0.58097(15) 0.09222(9)
C10 C 0.62348(14) 0.72455(16) 0.04910(9)
H7 H 0.5472 0.7652 0.0196
C11 C 0.72883(14) 0.80146(15) 0.04840(9)
H8 H 0.8056 0.7607 0.0771
C12 C 0.73372(13) 0.94639(15) 0.00569(8)
C13 C 0.64171(15) 0.98503(17) -0.06289(10)
H9 H 0.5743 0.9198 -0.0823
C14 C 0.64829(15) 1.12191(18) -0.10403(10)
H10 H 0.5832 1.1445 -0.1500
C15 C 0.83499(13) 1.18596(15) -0.01465(9)
C16 C 0.93575(15) 1.28937(16) 0.00899(10)
H11 H 0.9369 1.3767 -0.0224
C17 C 1.03098(15) 1.26297(18) 0.07688(11)
H12 H 1.0966 1.3323 0.0919
C18 C 1.03080(15) 1.13168(19) 0.12437(11)
H13 H 1.0961 1.1149 0.1712
C19 C 0.93615(14) 1.02835(17) 0.10280(10)
H14 H 0.9378 0.9416 0.1350
C20 C 0.83558(12) 1.05068(14) 0.03233(8)
loop_
_geom_bond_atom_site_label_1
_geom_bond_atom_site_label_2
_geom_bond_site_symmetry_1
_geom_bond_site_symmetry_2
O1 H1 1_555 1_555
N1 C1 1_555 1_555
N2 C14 1_555 1_555
C1 C2 1_555 1_555
C2 O1 1_555 1_555
C3 C2 1_555 1_555
H2 C3 1_555 1_555
C4 C3 1_555 1_555
H3 C4 1_555 1_555
C5 C4 1_555 1_555
H4 C5 1_555 1_555
C6 C1 1_555 1_555
C7 C6 1_555 1_555
H5 C7 1_555 1_555
C8 C7 1_555 1_555
H6 C8 1_555 1_555
C9 N1 1_555 1_555
C10 C9 1_555 1_555
H7 C10 1_555 1_555
C11 C10 1_555 1_555
H8 C11 1_555 1_555
C12 C11 1_555 1_555
C13 C12 1_555 1_555
H9 C13 1_555 1_555
C14 C13 1_555 1_555
H10 C14 1_555 1_555
C15 N2 1_555 1_555
C16 C15 1_555 1_555
H11 C16 1_555 1_555
C17 C16 1_555 1_555
H12 C17 1_555 1_555
C18 C17 1_555 1_555
H13 C18 1_555 1_555
C19 C18 1_555 1_555
H14 C19 1_555 1_555
C20 C12 1_555 1_555
C5 C6 1_555 1_555
C8 C9 1_555 1_555
C15 C20 1_555 1_555
C19 C20 1_555 1_555

#END
