
#######################################################################
#
#                 Cambridge Crystallographic Data Centre
#                                CCDC 
#
#######################################################################
#
# If this CIF has been generated from an entry in the Cambridge 
# Structural Database, then it will include bibliographic, chemical, 
# crystal, experimental, refinement or atomic coordinate data resulting 
# from the CCDC's data processing and validation procedures.
#
#######################################################################

data_RIGDIW02
_chemical_name_common            'Hydrogen acyclovir hydogen maleate'
_chemical_formula_moiety         'C8 H12 N5 O3 1+,C4 H3 O4 1-'
_chemical_name_systematic        
'2-amino-9-((2-hydroxyethoxy)methyl)-6-oxo-6,9-dihydro-1H-purin-7-ium 3-carboxyacrylate'
_symmetry_cell_setting           triclinic
_symmetry_space_group_name_H-M   'P -1'
_symmetry_Int_Tables_number      2
_space_group_name_Hall           '-P 1'
loop_
_symmetry_equiv_pos_site_id
_symmetry_equiv_pos_as_xyz
1 x,y,z
2 -x,-y,-z
_cell_length_a                   7.2845(6)
_cell_length_b                   8.7275(7)
_cell_length_c                   11.9737(10)
_cell_angle_alpha                104.655(7)
_cell_angle_beta                 98.875(7)
_cell_angle_gamma                92.869(7)
_cell_volume                     724.484
_exptl_crystal_colour            colorless
_exptl_crystal_description       prism
_cell_formula_units_Z            2
loop_
_atom_site_label
_atom_site_type_symbol
_atom_site_fract_x
_atom_site_fract_y
_atom_site_fract_z
C1 C 0.3613(5) 0.6154(4) 0.8663(3)
C2 C 0.2647(5) 0.6591(4) 0.6713(3)
C3 C 0.3050(5) 0.4974(4) 0.6313(3)
C4 C 0.3675(5) 0.4140(4) 0.7098(3)
C5 C 0.3353(7) 0.2588(5) 0.5291(3)
H1 H 0.3339 0.1702 0.4663
N1 N 0.4028(4) 0.4667(3) 0.8292(2)
N2 N 0.2953(4) 0.7060(3) 0.7934(2)
H2 H 0.2706 0.8006 0.8260
N3 N 0.3814(5) 0.6847(4) 0.9813(2)
H3 H 0.4212 0.6329 1.0311
H4 H 0.3545 0.7810 1.0055
N4 N 0.3862(5) 0.2620(4) 0.6430(3)
N5 N 0.2883(5) 0.3986(4) 0.5199(3)
H5 H 0.254(8) 0.433(7) 0.454(5)
O1 O 0.2102(5) 0.7482(3) 0.6126(2)
C6 C 0.4420(6) 0.1208(5) 0.6830(4)
H6 H 0.4554 0.1451 0.7676
H7 H 0.3460 0.0330 0.6494
O2 O 0.6105(4) 0.0776(3) 0.6485(3)
C7 C 0.7618(9) 0.1788(7) 0.7266(6)
H8 H 0.7933 0.1413 0.7962
H9 H 0.7256 0.2861 0.7504
C8 C 0.9263(11) 0.1790(8) 0.6671(7)
H10 H 0.8946 0.2205 0.5994
H11 H 1.0276 0.2497 0.7204
O3 O 0.9878(11) 0.0268(8) 0.6305(8)
H12 H 1.0175 -0.0079 0.6876
C11 C 0.2171(5) 0.0838(4) -0.0168(3)
C12 C 0.1464(6) 0.2446(4) 0.0088(3)
H20 H 0.1026 0.2784 -0.0572
C13 C 0.1356(6) 0.3475(4) 0.1100(3)
H21 H 0.0827 0.4402 0.1032
C14 C 0.1943(5) 0.3377(4) 0.2318(3)
O6 O 0.2834(5) 0.0256(3) 0.0671(2)
O7 O 0.2065(5) 0.0136(3) -0.1202(2)
O8 O 0.1678(5) 0.4509(3) 0.3118(2)
O9 O 0.2713(5) 0.2173(3) 0.2522(2)
H22 H 0.2795 0.1540 0.1900
H13? H 0.3669 0.0980 0.7381
H14? H 0.4360 0.0273 0.6178
O4? O 0.603(2) 0.169(2) 0.7302(16)
C9? C 0.787(3) 0.223(3) 0.711(3)
H15? H 0.7635 0.2843 0.6541
H16? H 0.8456 0.2975 0.7842
C10? C 0.928(4) 0.119(4) 0.6739(19)
H17? H 1.0471 0.1616 0.7231
H18? H 0.8966 0.0151 0.6849
O5? O 0.945(3) 0.101(3) 0.5527(16)
H19? H 0.8414 0.0926 0.5128
loop_
_geom_bond_atom_site_label_1
_geom_bond_atom_site_label_2
_geom_bond_site_symmetry_1
_geom_bond_site_symmetry_2
C1 N1 1_555 1_555
C2 C3 1_555 1_555
C3 C4 1_555 1_555
C4 N1 1_555 1_555
C5 H1 1_555 1_555
N2 C1 1_555 1_555
H2 N2 1_555 1_555
N3 C1 1_555 1_555
H3 N3 1_555 1_555
H4 N3 1_555 1_555
N4 C4 1_555 1_555
N5 C3 1_555 1_555
H5 N5 1_555 1_555
O1 C2 1_555 1_555
C6 N4 1_555 1_555
H6 C6 1_555 1_555
H7 C6 1_555 1_555
O2 C6 1_555 1_555
C7 O2 1_555 1_555
H8 C7 1_555 1_555
H9 C7 1_555 1_555
C8 C7 1_555 1_555
H10 C8 1_555 1_555
H11 C8 1_555 1_555
O3 C8 1_555 1_555
H12 O3 1_555 1_555
C11 C12 1_555 1_555
C12 H20 1_555 1_555
C13 C12 1_555 1_555
H21 C13 1_555 1_555
C14 C13 1_555 1_555
O6 C11 1_555 1_555
O7 C11 1_555 1_555
O8 C14 1_555 1_555
O9 C14 1_555 1_555
H22 O9 1_555 1_555
C2 N2 1_555 1_555
C5 N4 1_555 1_555
C5 N5 1_555 1_555

#END
