
#######################################################################
#
#                 Cambridge Crystallographic Data Centre
#                                CCDC 
#
#######################################################################
#
# If this CIF has been generated from an entry in the Cambridge 
# Structural Database, then it will include bibliographic, chemical, 
# crystal, experimental, refinement or atomic coordinate data resulting 
# from the CCDC's data processing and validation procedures.
#
#######################################################################

data_RIGJAT
_chemical_name_common            
'porphyrin-5$4!,10$4!,15$4!,20$4!-tetrabenzoic acid dimethylformamide solvate'
_chemical_formula_moiety         'C48 H30 N4 O8,4(C3 H7 N1 O1)'
_chemical_name_systematic        
'meso-5,10,15,20-tetrakis(4-carboxyphenyl)porphyrin dimethylformamide solvate'
_symmetry_cell_setting           orthorhombic
_symmetry_space_group_name_H-M   'C m c a'
_symmetry_Int_Tables_number      64
_space_group_name_Hall           '-C 2ac 2'
loop_
_symmetry_equiv_pos_site_id
_symmetry_equiv_pos_as_xyz
1 x,y,z
2 1/2+x,1/2+y,z
3 -x,1/2-y,1/2+z
4 x,-y,-z
5 1/2-x,y,1/2-z
6 1/2-x,-y,1/2+z
7 1/2+x,1/2-y,-z
8 -x,1/2+y,1/2-z
9 -x,-y,-z
10 1/2-x,1/2-y,-z
11 x,1/2+y,1/2-z
12 -x,y,z
13 1/2+x,-y,1/2+z
14 1/2+x,y,1/2-z
15 1/2-x,1/2+y,z
16 x,1/2-y,1/2+z
_cell_length_a                   31.0164(3)
_cell_length_b                   8.5897(11)
_cell_length_c                   15.1952(6)
_cell_angle_alpha                90
_cell_angle_beta                 90
_cell_angle_gamma                90
_cell_volume                     4048.33
_exptl_crystal_colour            red
_exptl_crystal_description       plate
_cell_formula_units_Z            4
loop_
_atom_site_label
_atom_site_type_symbol
_atom_site_fract_x
_atom_site_fract_y
_atom_site_fract_z
C1 C 0.02163(7) 0.2697(3) 0.26741(14)
H1 H 0.0399 0.3255 0.2284
C2 C 0.03508(7) 0.1680(3) 0.33848(14)
C3 C 0.07880(7) 0.1349(3) 0.35778(14)
C4 C 0.09344(7) 0.0586(3) 0.43355(14)
C5 C 0.13718(7) 0.0334(3) 0.45934(15)
H2 H 0.1620 0.0588 0.4256
N1 N 0.0000 0.1109(3) 0.38255(16)
N2 N 0.06792(8) 0.0000 0.5000
H4 H 0.0395 0.0000 0.5000
C6 C 0.11154(7) 0.1762(3) 0.28923(14)
C7 C 0.14847(7) 0.2645(3) 0.30741(15)
H5 H 0.1526 0.3065 0.3646
C8 C 0.17897(7) 0.2910(3) 0.24290(15)
H6 H 0.2038 0.3513 0.2561
C9 C 0.17356(7) 0.2299(3) 0.15842(15)
C10 C 0.13630(7) 0.1451(3) 0.13907(15)
H7 H 0.1320 0.1051 0.0815
C11 C 0.10583(7) 0.1195(3) 0.20345(15)
H8 H 0.0805 0.0624 0.1895
C12 C 0.20637(7) 0.2467(3) 0.08862(16)
O1 O 0.23890(5) 0.3403(2) 0.10779(11)
H9 H 0.2592(10) 0.329(4) 0.062(2)
O2 O 0.20328(5) 0.1781(2) 0.01805(11)
C1K C -0.02163(7) 0.2697(3) 0.26741(14)
C1H C -0.02163(7) -0.2697(3) 0.73259(14)
C1C C 0.02163(7) -0.2697(3) 0.73259(14)
H1K H -0.0399 0.3255 0.2284
H1C H 0.0399 -0.3255 0.7716
H1H H -0.0399 -0.3255 0.7716
C2K C -0.03508(7) 0.1680(3) 0.33848(14)
C2H C -0.03508(7) -0.1680(3) 0.66152(14)
C2C C 0.03508(7) -0.1680(3) 0.66152(14)
C3K C -0.07880(7) 0.1349(3) 0.35778(14)
C3H C -0.07880(7) -0.1349(3) 0.64222(14)
C3C C 0.07880(7) -0.1349(3) 0.64222(14)
C4K C -0.09344(7) 0.0586(3) 0.43355(14)
C4H C -0.09344(7) -0.0586(3) 0.56645(14)
C4C C 0.09344(7) -0.0586(3) 0.56645(14)
C5K C -0.13718(7) 0.0334(3) 0.45934(15)
C5H C -0.13718(7) -0.0334(3) 0.54066(15)
C5C C 0.13718(7) -0.0334(3) 0.54066(15)
H2C H 0.1620 -0.0588 0.5744
H2H H -0.1620 -0.0588 0.5744
H2K H -0.1620 0.0588 0.4256
N1H N 0.0000 -0.1109(3) 0.61745(16)
N2K N -0.06792(8) 0.0000 0.5000
H4K H -0.0395 0.0000 0.5000
C6C C 0.11154(7) -0.1762(3) 0.71077(14)
C6H C -0.11154(7) -0.1762(3) 0.71077(14)
C6K C -0.11154(7) 0.1762(3) 0.28923(14)
C7C C 0.14847(7) -0.2645(3) 0.69259(15)
C7H C -0.14847(7) -0.2645(3) 0.69259(15)
C7K C -0.14847(7) 0.2645(3) 0.30741(15)
H5C H 0.1526 -0.3065 0.6354
H5H H -0.1526 -0.3065 0.6354
H5K H -0.1526 0.3065 0.3646
C8C C 0.17897(7) -0.2910(3) 0.75710(15)
C8H C -0.17897(7) -0.2910(3) 0.75710(15)
C8K C -0.17897(7) 0.2910(3) 0.24290(15)
H6C H 0.2038 -0.3513 0.7439
H6H H -0.2038 -0.3513 0.7439
H6K H -0.2038 0.3513 0.2561
C9C C 0.17356(7) -0.2299(3) 0.84158(15)
C9H C -0.17356(7) -0.2299(3) 0.84158(15)
C9K C -0.17356(7) 0.2299(3) 0.15842(15)
C10C C 0.13630(7) -0.1451(3) 0.86093(15)
C10H C -0.13630(7) -0.1451(3) 0.86093(15)
C10K C -0.13630(7) 0.1451(3) 0.13907(15)
H7C H 0.1320 -0.1051 0.9185
H7H H -0.1320 -0.1051 0.9185
H7K H -0.1320 0.1051 0.0815
C11C C 0.10583(7) -0.1195(3) 0.79655(15)
C11H C -0.10583(7) -0.1195(3) 0.79655(15)
C11K C -0.10583(7) 0.1195(3) 0.20345(15)
H8C H 0.0805 -0.0624 0.8105
H8H H -0.0805 -0.0624 0.8105
H8K H -0.0805 0.0624 0.1895
C12C C 0.20637(7) -0.2467(3) 0.91138(16)
C12H C -0.20637(7) -0.2467(3) 0.91138(16)
C12K C -0.20637(7) 0.2467(3) 0.08862(16)
O1C O 0.23890(5) -0.3403(2) 0.89221(11)
O1H O -0.23890(5) -0.3403(2) 0.89221(11)
O1K O -0.23890(5) 0.3403(2) 0.10779(11)
H9C H 0.2592(10) -0.329(4) 0.938(2)
H9H H -0.2592(10) -0.329(4) 0.938(2)
H9K H -0.2592(10) 0.329(4) 0.062(2)
O2C O 0.20328(5) -0.1781(2) 0.98195(11)
O2H O -0.20328(5) -0.1781(2) 0.98195(11)
O2K O -0.20328(5) 0.1781(2) 0.01805(11)
H3? H 0.0000 0.0504 0.4293
loop_
_geom_bond_atom_site_label_1
_geom_bond_atom_site_label_2
_geom_bond_site_symmetry_1
_geom_bond_site_symmetry_2
C1 H1 1_555 1_555
C2 C1 1_555 1_555
C3 C2 1_555 1_555
C4 C3 1_555 1_555
C5 C4 1_555 1_555
H2 C5 1_555 1_555
N1 C2 1_555 1_555
N2 C4 1_555 1_555
H4 N2 1_555 1_555
C6 C3 1_555 1_555
C7 C6 1_555 1_555
H5 C7 1_555 1_555
C8 C7 1_555 1_555
H6 C8 1_555 1_555
C9 C8 1_555 1_555
C10 C9 1_555 1_555
H7 C10 1_555 1_555
C11 C6 1_555 1_555
H8 C11 1_555 1_555
C12 C9 1_555 1_555
O1 C12 1_555 1_555
H9 O1 1_555 1_555
O2 C12 1_555 1_555
C1K C1 1_555 1_555
C1H C1C 1_555 1_555
C1C H1C 1_555 1_555
H1K C1K 1_555 1_555
H1H C1H 1_555 1_555
C2K N1 1_555 1_555
C2H C1H 1_555 1_555
C2C C1C 1_555 1_555
C3K C2K 1_555 1_555
C3H C2H 1_555 1_555
C3C C2C 1_555 1_555
C4K C3K 1_555 1_555
C4H C3H 1_555 1_555
C4C N2 1_555 1_555
C5K C4K 1_555 1_555
C5H C4H 1_555 1_555
C5C C5 1_555 1_555
H2C C5C 1_555 1_555
H2H C5H 1_555 1_555
H2K C5K 1_555 1_555
N1H C2H 1_555 1_555
N2K C4K 1_555 1_555
H4K N2K 1_555 1_555
C6C C3C 1_555 1_555
C6H C3H 1_555 1_555
C6K C3K 1_555 1_555
C7C C6C 1_555 1_555
C7H C6H 1_555 1_555
C7K C6K 1_555 1_555
H5C C7C 1_555 1_555
H5H C7H 1_555 1_555
H5K C7K 1_555 1_555
C8C C7C 1_555 1_555
C8H C7H 1_555 1_555
C8K C7K 1_555 1_555
H6C C8C 1_555 1_555
H6H C8H 1_555 1_555
H6K C8K 1_555 1_555
C9C C8C 1_555 1_555
C9H C8H 1_555 1_555
C9K C8K 1_555 1_555
C10C C9C 1_555 1_555
C10H C9H 1_555 1_555
C10K C9K 1_555 1_555
H7C C10C 1_555 1_555
H7H C10H 1_555 1_555
H7K C10K 1_555 1_555
C11C C6C 1_555 1_555
C11H C6H 1_555 1_555
C11K C6K 1_555 1_555
H8C C11C 1_555 1_555
H8H C11H 1_555 1_555
H8K C11K 1_555 1_555
C12C C9C 1_555 1_555
C12H C9H 1_555 1_555
C12K C9K 1_555 1_555
O1C C12C 1_555 1_555
O1H C12H 1_555 1_555
O1K C12K 1_555 1_555
H9C O1C 1_555 1_555
H9H O1H 1_555 1_555
H9K O1K 1_555 1_555
O2C C12C 1_555 1_555
O2H C12H 1_555 1_555
O2K C12K 1_555 1_555
C10 C11 1_555 1_555
C1K C2K 1_555 1_555
C2C N1H 1_555 1_555
C3C C4C 1_555 1_555
C4H N2K 1_555 1_555
C4C C5C 1_555 1_555
C5K C5H 1_555 1_555
C10C C11C 1_555 1_555
C10H C11H 1_555 1_555
C10K C11K 1_555 1_555

#END
