
#######################################################################
#
#                 Cambridge Crystallographic Data Centre
#                                CCDC 
#
#######################################################################
#
# If this CIF has been generated from an entry in the Cambridge 
# Structural Database, then it will include bibliographic, chemical, 
# crystal, experimental, refinement or atomic coordinate data resulting 
# from the CCDC's data processing and validation procedures.
#
#######################################################################

data_RIGKIB
_chemical_formula_moiety         'C16 H21 F1 O1 Te1'
_chemical_name_systematic        
Fluoro-(7,7-dimethyl-2-hydroxybicyclo(2.2.1)heptanylmethyl)-phenyl-tellurium
_symmetry_cell_setting           monoclinic
_symmetry_space_group_name_H-M   'P 21'
_symmetry_Int_Tables_number      4
_space_group_name_Hall           'P 2yb'
loop_
_symmetry_equiv_pos_site_id
_symmetry_equiv_pos_as_xyz
1 x,y,z
2 -x,1/2+y,-z
_cell_length_a                   8.2316(6)
_cell_length_b                   7.582(1)
_cell_length_c                   12.6143(7)
_cell_angle_alpha                90
_cell_angle_beta                 102.742(5)
_cell_angle_gamma                90
_cell_volume                     767.895
_exptl_crystal_colour            colorless
_chemical_melting_point          137-140deg.C
_cell_formula_units_Z            2
loop_
_atom_site_label
_atom_site_type_symbol
_atom_site_fract_x
_atom_site_fract_y
_atom_site_fract_z
Te1 Te 0.05076(6) 0.0000 0.09492(4)
F1 F -0.0996(9) -0.129(1) -0.0344(5)
O1 O 0.1704(9) 0.089(1) 0.2404(6)
C1 C 0.104(2) -0.210(2) 0.3011(9)
C2 C 0.127(1) -0.013(3) 0.3258(8)
C3 C 0.269(2) -0.012(3) 0.4327(10)
C4 C 0.298(2) -0.208(2) 0.4583(10)
C5 C 0.145(2) -0.273(3) 0.490(1)
C6 C 0.013(2) -0.280(2) 0.3827(10)
C7 C 0.285(2) -0.287(2) 0.3437(10)
C8 C 0.413(2) -0.225(2) 0.285(1)
C9 C 0.285(2) -0.489(3) 0.341(1)
C10 C 0.027(1) -0.235(2) 0.1800(8)
C11 C -0.172(1) 0.124(1) 0.1163(8)
C12 C -0.166(2) 0.268(2) 0.180(1)
C13 C -0.307(2) 0.345(3) 0.197(1)
C14 C -0.461(2) 0.268(3) 0.153(1)
C15 C -0.468(1) 0.128(3) 0.087(1)
C16 C -0.323(2) 0.046(2) 0.072(1)
H1 H 0.0250 0.0330 0.3468
H2 H 0.3705 0.0432 0.4185
H3 H 0.2436 0.0522 0.4928
H4 H 0.4007 -0.2312 0.5099
H5 H 0.1613 -0.3819 0.5278
H6 H 0.1108 -0.1880 0.5432
H7 H -0.0878 -0.2087 0.3847
H8 H -0.0275 -0.3972 0.3647
H9 H 0.5254 -0.2562 0.3182
H10 H 0.3923 -0.2592 0.2099
H11 H 0.4165 -0.0908 0.2815
H12 H 0.2099 -0.5318 0.3817
H13 H 0.2664 -0.5340 0.2723
H14 H 0.3981 -0.5305 0.3812
H15 H -0.0962 -0.2618 0.1748
H16 H 0.0701 -0.3336 0.1534
H17 H -0.0558 0.3249 0.2125
H18 H -0.3022 0.4611 0.2383
H19 H -0.5625 0.3237 0.1701
H20 H -0.5768 0.0818 0.0540
H21 H -0.3280 -0.0589 0.0272
loop_
_geom_bond_atom_site_label_1
_geom_bond_atom_site_label_2
_geom_bond_site_symmetry_1
_geom_bond_site_symmetry_2
Te1 F1 1_555 1_555
O1 Te1 1_555 1_555
C1 C2 1_555 1_555
C2 O1 1_555 1_555
C3 C2 1_555 1_555
C4 C3 1_555 1_555
C5 C4 1_555 1_555
C6 C1 1_555 1_555
C7 C1 1_555 1_555
C8 C7 1_555 1_555
C9 C7 1_555 1_555
C10 Te1 1_555 1_555
C11 Te1 1_555 1_555
C12 C11 1_555 1_555
C13 C12 1_555 1_555
C14 C13 1_555 1_555
C15 C14 1_555 1_555
C16 C11 1_555 1_555
H1 C2 1_555 1_555
H2 C3 1_555 1_555
H3 C3 1_555 1_555
H4 C4 1_555 1_555
H5 C5 1_555 1_555
H6 C5 1_555 1_555
H7 C6 1_555 1_555
H8 C6 1_555 1_555
H9 C8 1_555 1_555
H10 C8 1_555 1_555
H11 C8 1_555 1_555
H12 C9 1_555 1_555
H13 C9 1_555 1_555
H14 C9 1_555 1_555
H15 C10 1_555 1_555
H16 C10 1_555 1_555
H17 C12 1_555 1_555
H18 C13 1_555 1_555
H19 C14 1_555 1_555
H20 C15 1_555 1_555
H21 C16 1_555 1_555
C1 C10 1_555 1_555
C4 C7 1_555 1_555
C5 C6 1_555 1_555
C15 C16 1_555 1_555

#END
