
#######################################################################
#
#                 Cambridge Crystallographic Data Centre
#                                CCDC 
#
#######################################################################
#
# If this CIF has been generated from an entry in the Cambridge 
# Structural Database, then it will include bibliographic, chemical, 
# crystal, experimental, refinement or atomic coordinate data resulting 
# from the CCDC's data processing and validation procedures.
#
#######################################################################

data_RIGYUE
_chemical_formula_moiety         'C10 H14 N2 O1'
_chemical_name_systematic        
2,6-dimethyl-5-(2-methylprop-2-en-1-yl)pyrimidin-4(3H)-one
_symmetry_cell_setting           triclinic
_symmetry_space_group_name_H-M   'P -1'
_symmetry_Int_Tables_number      2
_space_group_name_Hall           '-P 1'
loop_
_symmetry_equiv_pos_site_id
_symmetry_equiv_pos_as_xyz
1 x,y,z
2 -x,-y,-z
_cell_length_a                   5.1734(10)
_cell_length_b                   10.234(2)
_cell_length_c                   10.310(2)
_cell_angle_alpha                113.12(3)
_cell_angle_beta                 93.06(3)
_cell_angle_gamma                96.52(3)
_cell_volume                     495.896
_exptl_crystal_colour            colorless
_exptl_crystal_description       prism
_cell_formula_units_Z            2
loop_
_atom_site_label
_atom_site_type_symbol
_atom_site_fract_x
_atom_site_fract_y
_atom_site_fract_z
H1 H 1.400(3) 0.3943(17) 1.0207(17)
N1 N 1.2520(2) 0.35001(10) 0.96673(10)
C1 C 1.1339(3) 0.23197(13) 0.98045(12)
N2 N 0.9215(2) 0.15462(11) 0.90154(11)
C2 C 0.8172(2) 0.19803(13) 0.80220(12)
C3 C 0.9236(2) 0.31668(12) 0.78273(11)
C4 C 1.1595(2) 0.39972(12) 0.86977(11)
O1 O 1.28029(18) 0.50853(9) 0.86299(9)
C5 C 1.2615(4) 0.19302(18) 1.09050(17)
H2 H 1.1711 0.1037 1.0857
H3 H 1.2551 0.2670 1.1827
H4 H 1.4405 0.1832 1.0740
C6 C 0.5738(9) 0.1023(6) 0.7170(8)
H5 H 0.4938 0.1462 0.6613
H6 H 0.4539 0.0880 0.7797
H7 H 0.6177 0.0113 0.6552
C7 C 0.8068(3) 0.36667(15) 0.67666(13)
H8 H 0.613(3) 0.3626(17) 0.6824(16)
H9 H 0.869(4) 0.470(2) 0.7066(19)
C8 C 0.8522(2) 0.28791(15) 0.52436(13)
C9 C 0.9960(3) 0.1846(2) 0.48040(17)
H10 H 1.078(4) 0.150(2) 0.546(2)
H11 H 1.018(4) 0.137(2) 0.379(2)
C10 C 0.7131(4) 0.3365(2) 0.42368(18)
H12 H 0.7571 0.2853 0.3294
H13 H 0.7655 0.4377 0.4517
H14 H 0.5275 0.3176 0.4254
C11? C 0.5796(10) 0.1003(8) 0.7117(8)
H15? H 0.6049 0.0729 0.6135
H16? H 0.4296 0.1493 0.7320
H17? H 0.5522 0.0160 0.7318
loop_
_geom_bond_atom_site_label_1
_geom_bond_atom_site_label_2
_geom_bond_site_symmetry_1
_geom_bond_site_symmetry_2
H1 N1 1_555 1_555
N1 C1 1_555 1_555
C1 N2 1_555 1_555
N2 C2 1_555 1_555
C2 C3 1_555 1_555
C3 C4 1_555 1_555
C4 N1 1_555 1_555
O1 C4 1_555 1_555
C5 C1 1_555 1_555
H2 C5 1_555 1_555
H3 C5 1_555 1_555
H4 C5 1_555 1_555
C6 C2 1_555 1_555
H5 C6 1_555 1_555
H6 C6 1_555 1_555
H7 C6 1_555 1_555
C7 C3 1_555 1_555
H8 C7 1_555 1_555
H9 C7 1_555 1_555
C8 C7 1_555 1_555
C9 C8 1_555 1_555
H10 C9 1_555 1_555
H11 C9 1_555 1_555
C10 C8 1_555 1_555
H12 C10 1_555 1_555
H13 C10 1_555 1_555
H14 C10 1_555 1_555

#END
