
#######################################################################
#
#                 Cambridge Crystallographic Data Centre
#                                CCDC 
#
#######################################################################
#
# If this CIF has been generated from an entry in the Cambridge 
# Structural Database, then it will include bibliographic, chemical, 
# crystal, experimental, refinement or atomic coordinate data resulting 
# from the CCDC's data processing and validation procedures.
#
#######################################################################

data_RIHBEQ
_chemical_formula_moiety         'C35 H31 N3 O2,x(C2 H6 O1)'
_chemical_name_systematic        
"1''-Methyl-4',5'-diphenyl-5''-(phenylmethylidene)-3a,7a-dihydro-4''H-dispiro[indole-3,2'-pyrrolidine-3',3''-piperidine]-2,4''(1H)-dione ethanol solvate"
_symmetry_cell_setting           triclinic
_symmetry_space_group_name_H-M   'P -1'
_symmetry_Int_Tables_number      2
_space_group_name_Hall           '-P 1'
loop_
_symmetry_equiv_pos_site_id
_symmetry_equiv_pos_as_xyz
1 x,y,z
2 -x,-y,-z
_cell_length_a                   10.194(4)
_cell_length_b                   10.681(5)
_cell_length_c                   15.352(8)
_cell_angle_alpha                80.76(4)
_cell_angle_beta                 80.31(2)
_cell_angle_gamma                72.71(5)
_cell_volume                     1562.37
_exptl_crystal_colour            colorless
_exptl_crystal_description       block
_cell_formula_units_Z            2
loop_
_atom_site_label
_atom_site_type_symbol
_atom_site_fract_x
_atom_site_fract_y
_atom_site_fract_z
C1 C 0.7418(3) 0.2828(2) 0.35142(15)
C2 C 0.7663(3) 0.0554(2) 0.40313(16)
H1 H 0.6821 0.0705 0.4462
C3 C 0.7292(3) 0.0721(2) 0.30834(16)
H2 H 0.8171 0.0436 0.2699
C4 C 0.6756(3) 0.2245(2) 0.28475(16)
C5 C 0.5182(3) 0.2759(2) 0.29432(18)
H3 H 0.4825 0.2424 0.2509
H4 H 0.4789 0.2462 0.3533
C6 C 0.5102(3) 0.4660(3) 0.18724(19)
H5 H 0.4952 0.5609 0.1810
H6 H 0.4461 0.4484 0.1539
C7 C 0.6546(3) 0.4031(2) 0.14835(17)
C8 C 0.7281(3) 0.2684(2) 0.18842(17)
C9 C 0.7272(4) 0.4596(3) 0.08092(19)
H7 H 0.8160 0.4074 0.0640
C10 C 0.6297(3) 0.3648(2) 0.41871(18)
C11 C 0.7583(3) 0.5007(2) 0.34650(17)
C12 C 0.8105(4) 0.6082(3) 0.3224(2)
H8 H 0.7677 0.6873 0.3463
C13 C 0.9275(4) 0.5945(3) 0.2620(2)
H9 H 0.9637 0.6663 0.2439
C14 C 0.9937(4) 0.4764(4) 0.2270(2)
H10 H 1.0732 0.4696 0.1861
C15 C 0.9413(3) 0.3688(3) 0.25317(19)
H11 H 0.9869 0.2886 0.2314
C16 C 0.8218(3) 0.3812(2) 0.31119(16)
C17 C 0.6895(4) 0.5905(3) 0.02937(19)
C18 C 0.7963(5) 0.6480(4) -0.0052(2)
H12 H 0.8864 0.6036 0.0057
C19 C 0.7696(6) 0.7709(4) -0.0559(3)
H13 H 0.8415 0.8088 -0.0781
C20 C 0.6374(7) 0.8359(4) -0.0729(3)
H14 H 0.6196 0.9175 -0.1075
C21 C 0.5315(5) 0.7812(4) -0.0390(3)
H15 H 0.4417 0.8266 -0.0501
C22 C 0.5567(4) 0.6586(3) 0.0116(2)
H16 H 0.4838 0.6220 0.0336
C23 C 0.8664(3) -0.0761(2) 0.42894(17)
C24 C 0.8285(3) -0.1674(3) 0.4941(2)
H17 H 0.7399 -0.1471 0.5254
C25 C 0.9218(4) -0.2906(3) 0.5138(2)
H18 H 0.8946 -0.3513 0.5583
C26 C 1.0515(4) -0.3227(3) 0.4690(2)
H19 H 1.1123 -0.4057 0.4815
C27 C 1.0917(3) -0.2317(3) 0.4053(2)
H20 H 1.1811 -0.2519 0.3751
C28 C 0.9998(3) -0.1098(3) 0.3856(2)
H21 H 1.0286 -0.0489 0.3420
C29 C 0.6387(3) -0.0084(2) 0.29153(17)
C30 C 0.6614(3) -0.0580(3) 0.21036(19)
H22 H 0.7315 -0.0409 0.1671
C31 C 0.5803(4) -0.1329(3) 0.1932(2)
H23 H 0.5965 -0.1660 0.1388
C32 C 0.4765(4) -0.1580(3) 0.2564(3)
H24 H 0.4216 -0.2075 0.2447
C33 C 0.4539(4) -0.1109(3) 0.3358(2)
H25 H 0.3834 -0.1283 0.3787
C34 C 0.5342(3) -0.0373(3) 0.3538(2)
H26 H 0.5176 -0.0064 0.4090
C35 C 0.3367(3) 0.4792(3) 0.3149(2)
H27 H 0.3223 0.4527 0.3778
H28 H 0.2763 0.4508 0.2857
H29 H 0.3169 0.5736 0.3042
N1 N 0.4800(2) 0.41942(19) 0.28030(15)
N2 N 0.6481(2) 0.48676(19) 0.41089(14)
H30 H 0.5978 0.5482 0.4420
N3 N 0.8292(2) 0.16302(18) 0.39558(14)
H31 H 0.9061 0.1571 0.4142
O1 O 0.8263(2) 0.19800(18) 0.14694(12)
O2 O 0.5457(2) 0.32358(17) 0.47439(12)
loop_
_geom_bond_atom_site_label_1
_geom_bond_atom_site_label_2
_geom_bond_site_symmetry_1
_geom_bond_site_symmetry_2
C1 C4 1_555 1_555
C2 H1 1_555 1_555
C3 C2 1_555 1_555
H2 C3 1_555 1_555
C4 C3 1_555 1_555
C5 C4 1_555 1_555
H3 C5 1_555 1_555
H4 C5 1_555 1_555
C6 H5 1_555 1_555
H6 C6 1_555 1_555
C7 C6 1_555 1_555
C8 C4 1_555 1_555
C9 C7 1_555 1_555
H7 C9 1_555 1_555
C10 C1 1_555 1_555
C11 C12 1_555 1_555
C12 H8 1_555 1_555
C13 C12 1_555 1_555
H9 C13 1_555 1_555
C14 C13 1_555 1_555
H10 C14 1_555 1_555
C15 C14 1_555 1_555
H11 C15 1_555 1_555
C16 C1 1_555 1_555
C17 C9 1_555 1_555
C18 C17 1_555 1_555
H12 C18 1_555 1_555
C19 C18 1_555 1_555
H13 C19 1_555 1_555
C20 C19 1_555 1_555
H14 C20 1_555 1_555
C21 C20 1_555 1_555
H15 C21 1_555 1_555
C22 C17 1_555 1_555
H16 C22 1_555 1_555
C23 C2 1_555 1_555
C24 C23 1_555 1_555
H17 C24 1_555 1_555
C25 C24 1_555 1_555
H18 C25 1_555 1_555
C26 C25 1_555 1_555
H19 C26 1_555 1_555
C27 C26 1_555 1_555
H20 C27 1_555 1_555
C28 C23 1_555 1_555
H21 C28 1_555 1_555
C29 C3 1_555 1_555
C30 C29 1_555 1_555
H22 C30 1_555 1_555
C31 C30 1_555 1_555
H23 C31 1_555 1_555
C32 C31 1_555 1_555
H24 C32 1_555 1_555
C33 C32 1_555 1_555
H25 C33 1_555 1_555
C34 C29 1_555 1_555
H26 C34 1_555 1_555
C35 H27 1_555 1_555
H28 C35 1_555 1_555
H29 C35 1_555 1_555
N1 C5 1_555 1_555
N2 C10 1_555 1_555
H30 N2 1_555 1_555
N3 C1 1_555 1_555
H31 N3 1_555 1_555
O1 C8 1_555 1_555
O2 C10 1_555 1_555
C2 N3 1_555 1_555
C6 N1 1_555 1_555
C7 C8 1_555 1_555
C11 C16 1_555 1_555
C11 N2 1_555 1_555
C15 C16 1_555 1_555
C21 C22 1_555 1_555
C27 C28 1_555 1_555
C33 C34 1_555 1_555
C35 N1 1_555 1_555

#END
