
#######################################################################
#
#                 Cambridge Crystallographic Data Centre
#                                CCDC 
#
#######################################################################
#
# If this CIF has been generated from an entry in the Cambridge 
# Structural Database, then it will include bibliographic, chemical, 
# crystal, experimental, refinement or atomic coordinate data resulting 
# from the CCDC's data processing and validation procedures.
#
#######################################################################

data_RIHJEY
_chemical_formula_moiety         'C21 H26 O2'
_chemical_name_systematic        
17\b-Ethynyl-17\a-hydroxyandrosta-1,4-dien-3-one
_symmetry_cell_setting           orthorhombic
_symmetry_space_group_name_H-M   'P 21 21 21'
_symmetry_Int_Tables_number      19
_space_group_name_Hall           'P 2ac 2ab'
loop_
_symmetry_equiv_pos_site_id
_symmetry_equiv_pos_as_xyz
1 x,y,z
2 1/2-x,-y,1/2+z
3 1/2+x,1/2-y,-z
4 -x,1/2+y,1/2-z
_cell_length_a                   7.6330(12)
_cell_length_b                   9.9270(16)
_cell_length_c                   22.766(4)
_cell_angle_alpha                90
_cell_angle_beta                 90
_cell_angle_gamma                90
_cell_volume                     1725.04
_exptl_crystal_colour            colorless
_exptl_crystal_description       prismatic
_cell_formula_units_Z            4
_exptl_crystal_recrystallization_method THF/acetone/water
loop_
_atom_site_label
_atom_site_type_symbol
_atom_site_fract_x
_atom_site_fract_y
_atom_site_fract_z
O1 O 0.6274(3) 0.47116(19) 0.51210(7)
O2 O 0.8123(2) 0.41262(13) 0.12365(6)
H1 H 0.831(4) 0.441(3) 0.0890(8)
C1 C 0.8652(3) 0.2692(2) 0.41128(8)
H2 H 0.9811 0.2463 0.4036
C2 C 0.8345(3) 0.3541(2) 0.45511(8)
H3 H 0.9283 0.3884 0.4765
C3 C 0.6577(4) 0.3948(2) 0.47044(8)
C4 C 0.5186(3) 0.3404(2) 0.43490(8)
H4 H 0.4041 0.3667 0.4430
C5 C 0.5464(3) 0.25391(19) 0.39082(7)
C6 C 0.3995(3) 0.2021(3) 0.35403(9)
H5 H 0.2903 0.2422 0.3671
H6 H 0.3902 0.1053 0.3589
C7 C 0.4284(3) 0.2350(2) 0.28918(8)
H7 H 0.3407 0.1885 0.2659
H8 H 0.4127 0.3310 0.2833
C8 C 0.6100(2) 0.19447(18) 0.26764(7)
H9 H 0.6186 0.0960 0.2682
C9 C 0.7535(2) 0.25282(18) 0.30779(7)
H10 H 0.7372 0.3507 0.3073
C10 C 0.7275(2) 0.20800(18) 0.37358(7)
C11 C 0.9390(2) 0.2276(2) 0.28463(7)
H11 H 0.9649 0.1321 0.2870
H12 H 1.0225 0.2749 0.3093
C12 C 0.9606(3) 0.2750(2) 0.22076(8)
H13 H 0.9489 0.3722 0.2190
H14 H 1.0767 0.2514 0.2068
C13 C 0.8245(3) 0.21041(17) 0.18170(7)
C14 C 0.6409(2) 0.24326(19) 0.20510(7)
H15 H 0.6326 0.3417 0.2063
C15 C 0.5193(3) 0.1973(3) 0.15594(8)
H16 H 0.4122 0.2499 0.1556
H17 H 0.4896 0.1028 0.1603
C16 C 0.6269(4) 0.2214(3) 0.09910(9)
H18 H 0.6354 0.1389 0.0764
H19 H 0.5715 0.2898 0.0750
C17 C 0.8097(3) 0.26805(19) 0.11865(8)
C18 C 0.8571(3) 0.0579(2) 0.17697(9)
H20 H 0.9742 0.0423 0.1631
H21 H 0.7748 0.0192 0.1499
H22 H 0.8428 0.0172 0.2149
C19 C 0.7428(3) 0.0530(2) 0.38110(10)
H23 H 0.7185 0.0293 0.4212
H24 H 0.8593 0.0247 0.3711
H25 H 0.6602 0.0091 0.3557
C20 C 0.9552(4) 0.2267(2) 0.08065(9)
C21 C 1.0783(5) 0.1986(3) 0.05247(10)
H26 H 1.1761 0.1762 0.0301
loop_
_geom_bond_atom_site_label_1
_geom_bond_atom_site_label_2
_geom_bond_site_symmetry_1
_geom_bond_site_symmetry_2
O1 C3 1_555 1_555
O2 H1 1_555 1_555
C1 H2 1_555 1_555
C2 C1 1_555 1_555
H3 C2 1_555 1_555
C3 C2 1_555 1_555
C4 C3 1_555 1_555
H4 C4 1_555 1_555
C5 C4 1_555 1_555
C6 C5 1_555 1_555
H5 C6 1_555 1_555
H6 C6 1_555 1_555
C7 C6 1_555 1_555
H7 C7 1_555 1_555
H8 C7 1_555 1_555
C8 C7 1_555 1_555
H9 C8 1_555 1_555
C9 C8 1_555 1_555
H10 C9 1_555 1_555
C10 C1 1_555 1_555
C11 C9 1_555 1_555
H11 C11 1_555 1_555
H12 C11 1_555 1_555
C12 C11 1_555 1_555
H13 C12 1_555 1_555
H14 C12 1_555 1_555
C13 C12 1_555 1_555
C14 C8 1_555 1_555
H15 C14 1_555 1_555
C15 C14 1_555 1_555
H16 C15 1_555 1_555
H17 C15 1_555 1_555
C16 C15 1_555 1_555
H18 C16 1_555 1_555
H19 C16 1_555 1_555
C17 O2 1_555 1_555
C18 C13 1_555 1_555
H20 C18 1_555 1_555
H21 C18 1_555 1_555
H22 C18 1_555 1_555
C19 C10 1_555 1_555
H23 C19 1_555 1_555
H24 C19 1_555 1_555
H25 C19 1_555 1_555
C20 C17 1_555 1_555
C21 C20 1_555 1_555
H26 C21 1_555 1_555
C5 C10 1_555 1_555
C9 C10 1_555 1_555
C13 C14 1_555 1_555
C13 C17 1_555 1_555
C16 C17 1_555 1_555

#END
