
#######################################################################
#
#                 Cambridge Crystallographic Data Centre
#                                CCDC 
#
#######################################################################
#
# If this CIF has been generated from an entry in the Cambridge 
# Structural Database, then it will include bibliographic, chemical, 
# crystal, experimental, refinement or atomic coordinate data resulting 
# from the CCDC's data processing and validation procedures.
#
#######################################################################

data_RIHLUR
_chemical_formula_moiety         'C23 H25 F4 I1 O4'
_chemical_name_systematic        
'4-((10-(2,3,5,6-Tetrafluoro-4-iodophenoxy)decyl)oxy)benzoic acid'
_symmetry_cell_setting           monoclinic
_symmetry_space_group_name_H-M   'P 21/c'
_symmetry_Int_Tables_number      14
_space_group_name_Hall           '-P 2ybc'
loop_
_symmetry_equiv_pos_site_id
_symmetry_equiv_pos_as_xyz
1 x,y,z
2 -x,1/2+y,1/2-z
3 -x,-y,-z
4 x,1/2-y,1/2+z
_cell_length_a                   21.3480(4)
_cell_length_b                   5.14100(10)
_cell_length_c                   22.6333(4)
_cell_angle_alpha                90
_cell_angle_beta                 111.8120(10)
_cell_angle_gamma                90
_cell_volume                     2306.17
_exptl_crystal_colour            colorless
_exptl_crystal_description       plate
_cell_formula_units_Z            4
loop_
_atom_site_label
_atom_site_type_symbol
_atom_site_fract_x
_atom_site_fract_y
_atom_site_fract_z
C1 C 0.43348(12) 0.2132(4) 0.12284(11)
C2 C 0.44842(11) 0.0127(5) 0.16633(11)
C3 C 0.41511(11) -0.0150(4) 0.20775(10)
C4 C 0.36445(11) 0.1565(5) 0.20699(10)
C5 C 0.34957(11) 0.3588(5) 0.16322(10)
C6 C 0.38365(11) 0.3862(4) 0.12221(10)
C7 C 0.33072(13) 0.3002(5) 0.29160(12)
H1 H 0.3031 0.4524 0.2704
H2 H 0.3774 0.3595 0.3157
C8 C 0.30162(13) 0.1716(5) 0.33542(11)
H3 H 0.3294 0.0178 0.3553
H4 H 0.2555 0.1098 0.3102
C9 C 0.29881(11) 0.3530(5) 0.38749(10)
H5 H 0.2753 0.5154 0.3679
H6 H 0.3453 0.3991 0.4158
C10 C 0.26228(12) 0.2289(4) 0.42683(11)
H7 H 0.2867 0.0692 0.4472
H8 H 0.2164 0.1772 0.3981
C11 C 0.25665(11) 0.4094(4) 0.47834(10)
H9 H 0.3025 0.4439 0.5100
H10 H 0.2373 0.5775 0.4586
C12 C 0.21310(11) 0.2991(4) 0.51270(10)
H11 H 0.1679 0.2563 0.4810
H12 H 0.2337 0.1360 0.5346
C13 C 0.20538(11) 0.4884(4) 0.56131(10)
H13 H 0.2508 0.5325 0.5924
H14 H 0.1848 0.6508 0.5391
C14 C 0.16285(11) 0.3881(4) 0.59754(10)
H15 H 0.1806 0.2175 0.6168
H16 H 0.1158 0.3624 0.5675
C15 C 0.16338(11) 0.5766(4) 0.64970(10)
H17 H 0.2107 0.6084 0.6784
H18 H 0.1440 0.7448 0.6300
C16 C 0.12407(11) 0.4778(4) 0.68855(10)
H19 H 0.0757 0.4599 0.6616
H20 H 0.1414 0.3062 0.7074
C17 C 0.10621(10) 0.6221(4) 0.78233(9)
C18 C 0.12264(11) 0.8052(4) 0.83157(10)
H21 H 0.1509 0.9486 0.8320
C19 C 0.09789(12) 0.7777(4) 0.87935(10)
H22 H 0.1094 0.9020 0.9128
C20 C 0.05601(10) 0.5684(4) 0.87907(9)
C21 C 0.03095(11) 0.5389(4) 0.93140(9)
C22 C 0.03946(10) 0.3890(4) 0.82974(9)
H23 H 0.0108 0.2469 0.8292
C23 C 0.06406(10) 0.4138(4) 0.78128(9)
H24 H 0.0523 0.2901 0.7477
F1 F 0.49653(7) -0.1626(3) 0.16952(8)
F2 F 0.43130(8) -0.2127(3) 0.24945(7)
F3 F 0.30109(7) 0.5301(3) 0.16027(7)
F4 F 0.36604(7) 0.5840(3) 0.08016(6)
I1 I 0.484093(10) 0.25255(4) 0.061007(9)
O1 O 0.32996(9) 0.1053(3) 0.24512(8)
O2 O 0.13325(8) 0.6685(3) 0.73780(7)
O3 O 0.04667(10) 0.7043(4) 0.97543(9)
O4 O -0.00619(10) 0.3403(4) 0.92942(8)
H25 H -0.0200 0.3372 0.9643
loop_
_geom_bond_atom_site_label_1
_geom_bond_atom_site_label_2
_geom_bond_site_symmetry_1
_geom_bond_site_symmetry_2
C1 C2 1_555 1_555
C2 C3 1_555 1_555
C3 C4 1_555 1_555
C4 C5 1_555 1_555
C5 C6 1_555 1_555
C6 C1 1_555 1_555
C7 H1 1_555 1_555
H2 C7 1_555 1_555
C8 C7 1_555 1_555
H3 C8 1_555 1_555
H4 C8 1_555 1_555
C9 C8 1_555 1_555
H5 C9 1_555 1_555
H6 C9 1_555 1_555
C10 C9 1_555 1_555
H7 C10 1_555 1_555
H8 C10 1_555 1_555
C11 C10 1_555 1_555
H9 C11 1_555 1_555
H10 C11 1_555 1_555
C12 C11 1_555 1_555
H11 C12 1_555 1_555
H12 C12 1_555 1_555
C13 C12 1_555 1_555
H13 C13 1_555 1_555
H14 C13 1_555 1_555
C14 C13 1_555 1_555
H15 C14 1_555 1_555
H16 C14 1_555 1_555
C15 C14 1_555 1_555
H17 C15 1_555 1_555
H18 C15 1_555 1_555
C16 C15 1_555 1_555
H19 C16 1_555 1_555
H20 C16 1_555 1_555
C17 C18 1_555 1_555
C18 H21 1_555 1_555
C19 C18 1_555 1_555
H22 C19 1_555 1_555
C20 C19 1_555 1_555
C21 C20 1_555 1_555
C22 C20 1_555 1_555
H23 C22 1_555 1_555
C23 C17 1_555 1_555
H24 C23 1_555 1_555
F1 C2 1_555 1_555
F2 C3 1_555 1_555
F3 C5 1_555 1_555
F4 C6 1_555 1_555
I1 C1 1_555 1_555
O1 C4 1_555 1_555
O2 C16 1_555 1_555
O3 C21 1_555 1_555
O4 C21 1_555 1_555
H25 O4 1_555 1_555
C7 O1 1_555 1_555
C17 O2 1_555 1_555
C22 C23 1_555 1_555

#END
