
#######################################################################
#
#                 Cambridge Crystallographic Data Centre
#                                CCDC 
#
#######################################################################
#
# If this CIF has been generated from an entry in the Cambridge 
# Structural Database, then it will include bibliographic, chemical, 
# crystal, experimental, refinement or atomic coordinate data resulting 
# from the CCDC's data processing and validation procedures.
#
#######################################################################

data_RIHMAY
_chemical_formula_moiety         'C21 H21 F4 I1 O4'
_chemical_name_systematic        
'4-((8-(2,3,5,6-Tetrafluoro-4-iodophenoxy)octyl)oxy)benzoic acid'
_symmetry_cell_setting           monoclinic
_symmetry_space_group_name_H-M   'P 21/c'
_symmetry_Int_Tables_number      14
_space_group_name_Hall           '-P 2ybc'
loop_
_symmetry_equiv_pos_site_id
_symmetry_equiv_pos_as_xyz
1 x,y,z
2 -x,1/2+y,1/2-z
3 -x,-y,-z
4 x,1/2-y,1/2+z
_cell_length_a                   17.8302(6)
_cell_length_b                   5.3068(2)
_cell_length_c                   22.6886(7)
_cell_angle_alpha                90
_cell_angle_beta                 100.131(2)
_cell_angle_gamma                90
_cell_volume                     2113.35
_exptl_crystal_colour            colorless
_exptl_crystal_description       prism
_cell_formula_units_Z            4
loop_
_atom_site_label
_atom_site_type_symbol
_atom_site_fract_x
_atom_site_fract_y
_atom_site_fract_z
C1 C 0.42415(13) 0.1460(5) 0.14130(9)
C2 C 0.43869(12) -0.0520(5) 0.18149(10)
C3 C 0.39997(13) -0.0755(5) 0.22880(9)
C4 C 0.34428(12) 0.0977(4) 0.23746(9)
C5 C 0.32950(12) 0.2940(4) 0.19676(10)
C6 C 0.36875(13) 0.3178(5) 0.14962(9)
C7 C 0.32038(13) 0.2376(5) 0.33176(10)
H1 H 0.3066 0.4110 0.3178
H2 H 0.3753 0.2342 0.3493
C8 C 0.27362(13) 0.1573(4) 0.37757(9)
H3 H 0.2908 -0.0112 0.3932
H4 H 0.2195 0.1434 0.3581
C9 C 0.28013(12) 0.3423(4) 0.42958(9)
H5 H 0.2642 0.5116 0.4138
H6 H 0.3341 0.3531 0.4495
C10 C 0.23142(13) 0.2655(4) 0.47550(9)
H7 H 0.1788 0.2328 0.4545
H8 H 0.2517 0.1065 0.4949
C11 C 0.22922(12) 0.4641(4) 0.52366(9)
H9 H 0.2101 0.6242 0.5042
H10 H 0.2817 0.4940 0.5453
C12 C 0.17888(13) 0.3890(4) 0.56886(9)
H11 H 0.1260 0.3643 0.5476
H12 H 0.1971 0.2266 0.5876
C13 C 0.17933(13) 0.5863(4) 0.61748(9)
H13 H 0.2326 0.6210 0.6366
H14 H 0.1572 0.7449 0.5991
C14 C 0.13465(12) 0.5025(4) 0.66473(9)
H15 H 0.0803 0.4792 0.6468
H16 H 0.1548 0.3406 0.6825
C15 C 0.11468(11) 0.6494(4) 0.76066(9)
C16 C 0.07023(12) 0.4414(4) 0.76919(9)
H17 H 0.0580 0.3186 0.7385
C17 C 0.04398(12) 0.4153(4) 0.82311(9)
H18 H 0.0137 0.2734 0.8291
C18 C 0.06121(12) 0.5928(4) 0.86820(9)
C19 C 0.03387(12) 0.5556(4) 0.92552(9)
C20 C 0.10539(12) 0.8035(4) 0.85911(9)
H19 H 0.1171 0.9272 0.8896
C21 C 0.13177(12) 0.8307(4) 0.80572(9)
H20 H 0.1617 0.9734 0.7996
F1 F 0.49190(8) -0.2259(3) 0.17576(7)
F2 F 0.41638(8) -0.2689(3) 0.26718(6)
F3 F 0.27585(8) 0.4647(3) 0.20292(6)
F4 F 0.35104(8) 0.5113(3) 0.11130(6)
I1 I 0.484035(10) 0.18297(4) 0.071057(7)
O1 O 0.30409(9) 0.0607(3) 0.28203(7)
O2 O 0.14245(9) 0.6957(3) 0.70981(6)
O3 O -0.00349(10) 0.3632(3) 0.93347(7)
O4 O 0.05139(10) 0.7294(3) 0.96569(7)
H21 H 0.0340 0.6906 0.9966
loop_
_geom_bond_atom_site_label_1
_geom_bond_atom_site_label_2
_geom_bond_site_symmetry_1
_geom_bond_site_symmetry_2
C1 C2 1_555 1_555
C2 C3 1_555 1_555
C3 C4 1_555 1_555
C4 C5 1_555 1_555
C5 C6 1_555 1_555
C6 C1 1_555 1_555
C7 H1 1_555 1_555
H2 C7 1_555 1_555
C8 C7 1_555 1_555
H3 C8 1_555 1_555
H4 C8 1_555 1_555
C9 C8 1_555 1_555
H5 C9 1_555 1_555
H6 C9 1_555 1_555
C10 C9 1_555 1_555
H7 C10 1_555 1_555
H8 C10 1_555 1_555
C11 C10 1_555 1_555
H9 C11 1_555 1_555
H10 C11 1_555 1_555
C12 C11 1_555 1_555
H11 C12 1_555 1_555
H12 C12 1_555 1_555
C13 C12 1_555 1_555
H13 C13 1_555 1_555
H14 C13 1_555 1_555
C14 C13 1_555 1_555
H15 C14 1_555 1_555
H16 C14 1_555 1_555
C15 C16 1_555 1_555
C16 H17 1_555 1_555
C17 C16 1_555 1_555
H18 C17 1_555 1_555
C18 C17 1_555 1_555
C19 C18 1_555 1_555
C20 C18 1_555 1_555
H19 C20 1_555 1_555
C21 C15 1_555 1_555
H20 C21 1_555 1_555
F1 C2 1_555 1_555
F2 C3 1_555 1_555
F3 C5 1_555 1_555
F4 C6 1_555 1_555
I1 C1 1_555 1_555
O1 C4 1_555 1_555
O2 C14 1_555 1_555
O3 C19 1_555 1_555
O4 C19 1_555 1_555
H21 O4 1_555 1_555
C7 O1 1_555 1_555
C15 O2 1_555 1_555
C20 C21 1_555 1_555

#END
