
#######################################################################
#
#                 Cambridge Crystallographic Data Centre
#                                CCDC 
#
#######################################################################
#
# If this CIF has been generated from an entry in the Cambridge 
# Structural Database, then it will include bibliographic, chemical, 
# crystal, experimental, refinement or atomic coordinate data resulting 
# from the CCDC's data processing and validation procedures.
#
#######################################################################

data_RIHVUZ
_chemical_formula_moiety         'C44 H46 N4'
_chemical_name_systematic        
5,15-Diphenyl-2,8,12,18-tetraethyl-3,7,13,17-tetramethylporphyrin
_symmetry_cell_setting           monoclinic
_symmetry_space_group_name_H-M   'P 21/n'
_symmetry_Int_Tables_number      14
_space_group_name_Hall           '-P 2yn'
loop_
_symmetry_equiv_pos_site_id
_symmetry_equiv_pos_as_xyz
1 x,y,z
2 1/2-x,1/2+y,1/2-z
3 -x,-y,-z
4 1/2+x,1/2-y,1/2+z
_cell_length_a                   8.814(4)
_cell_length_b                   10.680(4)
_cell_length_c                   18.751(6)
_cell_angle_alpha                90
_cell_angle_beta                 100.24(3)
_cell_angle_gamma                90
_cell_volume                     1736.98
_exptl_crystal_colour            red
_cell_formula_units_Z            2
loop_
_atom_site_label
_atom_site_type_symbol
_atom_site_fract_x
_atom_site_fract_y
_atom_site_fract_z
N1 N 0.2320(3) 0.0173(2) 0.0563(1)
N2 N 0.0234(3) -0.1622(2) -0.0540(1)
C1 C 0.3040(3) 0.1019(3) 0.1067(2)
C2 C 0.4616(3) 0.0586(3) 0.1280(2)
C3 C 0.5912(3) 0.1182(3) 0.1799(2)
C4 C 0.4762(3) -0.0497(3) 0.0907(2)
C5 C 0.6170(3) -0.1309(3) 0.0958(2)
C6 C 0.6262(4) -0.2301(3) 0.1543(2)
C7 C 0.3296(3) -0.0779(3) 0.0457(2)
C8 C 0.2968(3) -0.1831(3) 0.0027(2)
C9 C 0.1616(3) -0.2237(3) -0.0409(2)
C10 C 0.1521(3) -0.3417(3) -0.0813(2)
C11 C 0.2761(3) -0.4395(3) -0.0744(2)
C12 C 0.2585(5) -0.5382(3) -0.0177(2)
C13 C 0.0083(3) -0.3495(3) -0.1201(2)
C14 C -0.0511(3) -0.4597(3) -0.1667(2)
C15 C -0.0726(3) -0.2362(3) -0.1027(2)
C16 C 0.2279(3) 0.2047(3) 0.1304(2)
C17 C 0.3136(3) 0.2805(3) 0.1918(2)
C18 C 0.4081(3) 0.3804(3) 0.1819(2)
C19 C 0.4825(3) 0.4497(3) 0.2399(2)
C20 C 0.4662(3) 0.4190(3) 0.3099(2)
C21 C 0.3744(3) 0.3183(3) 0.3202(2)
C22 C 0.2985(3) 0.2496(3) 0.2625(2)
H1 H 0.1334 0.0234 0.0336
H2 H 0.6821 0.0674 0.1834
H3 H 0.6115 0.1999 0.1624
H4 H 0.5629 0.1255 0.2268
H5 H 0.7074 -0.0792 0.1056
H6 H 0.6157 -0.1715 0.0500
H7 H 0.7174 -0.2799 0.1557
H8 H 0.6293 -0.1898 0.2003
H9 H 0.5368 -0.2829 0.1442
H10 H 0.3833 -0.2379 0.0032
H11 H 0.3751 -0.4000 -0.0620
H12 H 0.2716 -0.4805 -0.1203
H13 H 0.3394 -0.5992 -0.0150
H14 H 0.2648 -0.4976 0.0284
H15 H 0.1603 -0.5789 -0.0305
H16 H 0.0308 -0.5188 -0.1671
H17 H -0.1334 -0.4990 -0.1477
H18 H -0.0886 -0.4313 -0.2152
H19 H 0.4225 0.4008 0.1336
H20 H 0.5455 0.5197 0.2319
H21 H 0.5179 0.4666 0.3505
H22 H 0.3624 0.2958 0.3685
H23 H 0.2354 0.1796 0.2706
C16B C -0.2279(3) -0.2047(3) -0.1304(2)
C1B C -0.3040(3) -0.1019(3) -0.1067(2)
N1B N -0.2320(3) -0.0173(2) -0.0563(1)
C7B C -0.3296(3) 0.0779(3) -0.0457(2)
C4B C -0.4762(3) 0.0497(3) -0.0907(2)
C2B C -0.4616(3) -0.0586(3) -0.1280(2)
C3B C -0.5912(3) -0.1182(3) -0.1799(2)
H2B H -0.6821 -0.0674 -0.1834
H3B H -0.6115 -0.1999 -0.1624
H4B H -0.5629 -0.1255 -0.2268
C5B C -0.6170(3) 0.1309(3) -0.0958(2)
C6B C -0.6262(4) 0.2301(3) -0.1543(2)
H7B H -0.7174 0.2799 -0.1557
H8B H -0.6293 0.1898 -0.2003
H9B H -0.5368 0.2829 -0.1442
H5B H -0.7074 0.0792 -0.1056
H6B H -0.6157 0.1715 -0.0500
C8B C -0.2968(3) 0.1831(3) -0.0027(2)
C9B C -0.1616(3) 0.2237(3) 0.0409(2)
N2B N -0.0234(3) 0.1622(2) 0.0540(1)
C15B C 0.0726(3) 0.2362(3) 0.1027(2)
C13B C -0.0083(3) 0.3495(3) 0.1201(2)
C10B C -0.1521(3) 0.3417(3) 0.0813(2)
C11B C -0.2761(3) 0.4395(3) 0.0744(2)
C12B C -0.2585(5) 0.5382(3) 0.0177(2)
H13B H -0.3394 0.5992 0.0150
H14B H -0.2648 0.4976 -0.0284
H15B H -0.1603 0.5789 0.0305
H11B H -0.3751 0.4000 0.0620
H12B H -0.2716 0.4805 0.1203
C14B C 0.0511(3) 0.4597(3) 0.1667(2)
H16B H -0.0308 0.5188 0.1671
H17B H 0.1334 0.4990 0.1477
H18B H 0.0886 0.4313 0.2152
H10B H -0.3833 0.2379 -0.0032
H1B H -0.1334 -0.0234 -0.0336
C17B C -0.3136(3) -0.2805(3) -0.1918(2)
C18B C -0.4081(3) -0.3804(3) -0.1819(2)
C19B C -0.4825(3) -0.4497(3) -0.2399(2)
C20B C -0.4662(3) -0.4190(3) -0.3099(2)
C21B C -0.3744(3) -0.3183(3) -0.3202(2)
C22B C -0.2985(3) -0.2496(3) -0.2625(2)
H23B H -0.2354 -0.1796 -0.2706
H22B H -0.3624 -0.2958 -0.3685
H21B H -0.5179 -0.4666 -0.3505
H20B H -0.5455 -0.5197 -0.2319
H19B H -0.4225 -0.4008 -0.1336
loop_
_geom_bond_atom_site_label_1
_geom_bond_atom_site_label_2
_geom_bond_site_symmetry_1
_geom_bond_site_symmetry_2
N1 C1 1_555 1_555
N2 C9 1_555 1_555
C1 C2 1_555 1_555
C2 C3 1_555 1_555
C3 H2 1_555 1_555
C4 C2 1_555 1_555
C5 C4 1_555 1_555
C6 C5 1_555 1_555
C7 N1 1_555 1_555
C8 C7 1_555 1_555
C9 C8 1_555 1_555
C10 C9 1_555 1_555
C11 C10 1_555 1_555
C12 C11 1_555 1_555
C13 C10 1_555 1_555
C14 C13 1_555 1_555
C15 N2 1_555 1_555
C16 C1 1_555 1_555
C17 C16 1_555 1_555
C18 C17 1_555 1_555
C19 C18 1_555 1_555
C20 C19 1_555 1_555
C21 C20 1_555 1_555
C22 C17 1_555 1_555
H1 N1 1_555 1_555
H3 C3 1_555 1_555
H4 C3 1_555 1_555
H5 C5 1_555 1_555
H6 C5 1_555 1_555
H7 C6 1_555 1_555
H8 C6 1_555 1_555
H9 C6 1_555 1_555
H10 C8 1_555 1_555
H11 C11 1_555 1_555
H12 C11 1_555 1_555
H13 C12 1_555 1_555
H14 C12 1_555 1_555
H15 C12 1_555 1_555
H16 C14 1_555 1_555
H17 C14 1_555 1_555
H18 C14 1_555 1_555
H19 C18 1_555 1_555
H20 C19 1_555 1_555
H21 C20 1_555 1_555
H22 C21 1_555 1_555
H23 C22 1_555 1_555
C16B C15 1_555 1_555
C1B C16B 1_555 1_555
N1B C1B 1_555 1_555
C7B N1B 1_555 1_555
C4B C7B 1_555 1_555
C2B C1B 1_555 1_555
C3B C2B 1_555 1_555
H2B C3B 1_555 1_555
H3B C3B 1_555 1_555
H4B C3B 1_555 1_555
C5B C4B 1_555 1_555
C6B C5B 1_555 1_555
H7B C6B 1_555 1_555
H8B C6B 1_555 1_555
H9B C6B 1_555 1_555
H5B C5B 1_555 1_555
H6B C5B 1_555 1_555
C8B C7B 1_555 1_555
C9B C8B 1_555 1_555
N2B C9B 1_555 1_555
C15B C16 1_555 1_555
C13B C15B 1_555 1_555
C10B C9B 1_555 1_555
C11B C10B 1_555 1_555
C12B C11B 1_555 1_555
H13B C12B 1_555 1_555
H14B C12B 1_555 1_555
H15B C12B 1_555 1_555
H11B C11B 1_555 1_555
H12B C11B 1_555 1_555
C14B C13B 1_555 1_555
H16B C14B 1_555 1_555
H17B C14B 1_555 1_555
H18B C14B 1_555 1_555
H10B C8B 1_555 1_555
H1B N1B 1_555 1_555
C17B C16B 1_555 1_555
C18B C17B 1_555 1_555
C19B C18B 1_555 1_555
C20B C19B 1_555 1_555
C21B C20B 1_555 1_555
C22B C17B 1_555 1_555
H23B C22B 1_555 1_555
H22B C21B 1_555 1_555
H21B C20B 1_555 1_555
H20B C19B 1_555 1_555
H19B C18B 1_555 1_555
C4 C7 1_555 1_555
C13 C15 1_555 1_555
C21 C22 1_555 1_555
C4B C2B 1_555 1_555
N2B C15B 1_555 1_555
C13B C10B 1_555 1_555
C21B C22B 1_555 1_555

#END
