
#######################################################################
#
#                 Cambridge Crystallographic Data Centre
#                                CCDC 
#
#######################################################################
#
# If this CIF has been generated from an entry in the Cambridge 
# Structural Database, then it will include bibliographic, chemical, 
# crystal, experimental, refinement or atomic coordinate data resulting 
# from the CCDC's data processing and validation procedures.
#
#######################################################################

data_RIKKEE
_chemical_formula_moiety         'C11 H10 N3 1+,N1 O3 1-'
_chemical_name_systematic        '1-(4-cyanobenzyl)-1H-imidazol-3-ium nitrate'
_symmetry_cell_setting           monoclinic
_symmetry_space_group_name_H-M   'P 21/c'
_symmetry_Int_Tables_number      14
_space_group_name_Hall           '-P 2ybc'
loop_
_symmetry_equiv_pos_site_id
_symmetry_equiv_pos_as_xyz
1 x,y,z
2 -x,1/2+y,1/2-z
3 -x,-y,-z
4 x,1/2-y,1/2+z
_cell_length_a                   16.5428(3)
_cell_length_b                   6.8402(1)
_cell_length_c                   9.8154(2)
_cell_angle_alpha                90
_cell_angle_beta                 98.947(2)
_cell_angle_gamma                90
_cell_volume                     1097.16
_exptl_crystal_colour            colorless
_exptl_crystal_description       prism
_cell_formula_units_Z            4
loop_
_atom_site_label
_atom_site_type_symbol
_atom_site_fract_x
_atom_site_fract_y
_atom_site_fract_z
O1 O 0.58201(5) 0.60364(13) 0.58414(8)
O2 O 0.64181(6) 0.52783(14) 0.79112(9)
O3 O 0.70966(5) 0.51269(13) 0.61928(9)
N1 N 0.64518(6) 0.54744(14) 0.66616(10)
N2 N 0.44900(6) 0.57471(14) 0.72641(10)
H1 H 0.4842(11) 0.573(3) 0.6691(18)
N3 N 0.33780(6) 0.54616(14) 0.81282(9)
N4 N 0.00036(7) 0.49758(15) 0.20580(11)
C1 C 0.46649(7) 0.63519(16) 0.86153(11)
H2 H 0.5177 0.6812 0.9076
C2 C 0.39675(7) 0.61646(17) 0.91600(11)
H3 H 0.3897 0.6461 1.0080
C3 C 0.37094(7) 0.52083(17) 0.69877(11)
H4 H 0.3437 0.4728 0.6130
C4 C 0.25283(7) 0.50229(17) 0.83197(12)
H5 H 0.2340 0.6022 0.8930
H6 H 0.2512 0.3734 0.8774
C5 C 0.19594(7) 0.49979(16) 0.69623(12)
C6 C 0.17042(7) 0.32300(17) 0.63364(12)
H7 H 0.1885 0.2033 0.6772
C7 C 0.11860(7) 0.32061(17) 0.50780(12)
H8 H 0.1008 0.2000 0.4653
C8 C 0.09301(7) 0.49775(16) 0.44452(12)
C9 C 0.11711(7) 0.67640(17) 0.50784(12)
H9 H 0.0982 0.7962 0.4654
C10 C 0.16888(7) 0.67620(17) 0.63315(12)
H10 H 0.1861 0.7966 0.6764
C11 C 0.04074(7) 0.49727(16) 0.31241(13)
loop_
_geom_bond_atom_site_label_1
_geom_bond_atom_site_label_2
_geom_bond_site_symmetry_1
_geom_bond_site_symmetry_2
O1 N1 1_555 1_555
O2 N1 1_555 1_555
O3 N1 1_555 1_555
N2 H1 1_555 1_555
N3 C2 1_555 1_555
N4 C11 1_555 1_555
C1 N2 1_555 1_555
H2 C1 1_555 1_555
C2 C1 1_555 1_555
H3 C2 1_555 1_555
C3 N2 1_555 1_555
H4 C3 1_555 1_555
C4 N3 1_555 1_555
H5 C4 1_555 1_555
H6 C4 1_555 1_555
C5 C4 1_555 1_555
C6 C5 1_555 1_555
H7 C6 1_555 1_555
C7 C6 1_555 1_555
H8 C7 1_555 1_555
C8 C7 1_555 1_555
C9 C8 1_555 1_555
H9 C9 1_555 1_555
C10 C5 1_555 1_555
H10 C10 1_555 1_555
C11 C8 1_555 1_555
N3 C3 1_555 1_555
C9 C10 1_555 1_555

#END
