
#######################################################################
#
#                 Cambridge Crystallographic Data Centre
#                                CCDC 
#
#######################################################################
#
# If this CIF has been generated from an entry in the Cambridge 
# Structural Database, then it will include bibliographic, chemical, 
# crystal, experimental, refinement or atomic coordinate data resulting 
# from the CCDC's data processing and validation procedures.
#
#######################################################################

data_RIKSAI
_chemical_formula_moiety         'C2 H10 N8 2+,C2 H9 N8 1+,3(C2 H1 N4 O3 1-)'
_chemical_name_systematic        
"2,2'-(1,2-dihydro-1,2,4,5-tetrazine-3,6-diyl)dihydrazinium 2-(6-hydrazinyl-1,2-dihydro-1,2,4,5-tetrazin-3-yl)hydrazinium tris(3-nitro-5-oxo-4,5-dihydro-1,2,4-triazol-1-ide)"
_symmetry_cell_setting           triclinic
_symmetry_space_group_name_H-M   'P 1'
_symmetry_Int_Tables_number      1
_space_group_name_Hall           'P 1'
loop_
_symmetry_equiv_pos_site_id
_symmetry_equiv_pos_as_xyz
1 x,y,z
_cell_length_a                   6.8283(6)
_cell_length_b                   6.9278(6)
_cell_length_c                   14.3445(14)
_cell_angle_alpha                80.315(2)
_cell_angle_beta                 76.6020(10)
_cell_angle_gamma                82.666(2)
_cell_volume                     647.904
_cell_formula_units_Z            1
loop_
_atom_site_label
_atom_site_type_symbol
_atom_site_fract_x
_atom_site_fract_y
_atom_site_fract_z
N1 N 0.4870(8) 0.3630(8) 0.8817(4)
N2 N 0.4021(8) 0.4205(8) 0.7969(4)
N3 N 0.1125(8) 0.5374(7) 0.8971(3)
H1 H 0.0150 0.6268 0.9107
N4 N 0.1600(8) 0.3805(8) 0.9670(4)
H2 H 0.0658 0.3248 1.0099
N5 N 0.1682(9) 0.6437(7) 0.7320(4)
H3 H 0.0470 0.6997 0.7378
N6 N 0.3054(8) 0.6632(8) 0.6408(4)
H4 H 0.3303 0.7886 0.6225
H5 H 0.2516 0.6238 0.5971
H6 H 0.4204 0.5896 0.6455
N7 N 0.4171(8) 0.2192(7) 1.0422(4)
H7 H 0.3347 0.2011 1.0975
N8 N 0.6233(9) 0.1424(8) 1.0300(4)
H8 H 0.6305 0.0120 1.0445
H9 H 0.6816 0.1918 1.0691
H10 H 0.6868 0.1754 0.9688
C1 C 0.2287(9) 0.5376(8) 0.8087(4)
C2 C 0.3568(9) 0.3192(9) 0.9653(4)
N9 N 0.7918(8) 0.3957(7) 0.6655(3)
N10 N 0.7419(8) 0.4766(7) 0.5751(4)
N11 N 1.0782(8) 0.4581(8) 0.5022(4)
H11 H 1.1813 0.5168 0.4691
N12 N 1.0988(8) 0.2759(8) 0.5648(4)
H12 H 1.1788 0.1743 0.5496
N13 N 0.8428(9) 0.6573(8) 0.4239(4)
H13 H 0.9305 0.6784 0.3704
N14 N 0.6448(9) 0.7550(9) 0.4360(4)
H14 H 0.5692 0.7017 0.4913
H15 H 0.5914 0.7409 0.3868
N15 N 1.0391(8) 0.1849(7) 0.7315(4)
H16 H 1.1579 0.1232 0.7218
N16 N 0.9178(9) 0.1776(8) 0.8263(4)
H17 H 0.8032 0.2541 0.8248
H18 H 0.9842 0.2197 0.8644
H19 H 0.8898 0.0543 0.8493
C3 C 0.8870(10) 0.5324(9) 0.4984(4)
C4 C 0.9659(10) 0.2903(9) 0.6560(4)
N17 N 0.4656(8) 0.8451(8) 0.8947(4)
N18 N 0.4281(8) 0.9360(7) 0.8068(4)
N19 N 0.7572(8) 0.8002(7) 0.7894(4)
N20 N 0.6407(9) 0.9751(8) 0.6462(4)
O1 O 0.7412(7) 0.6722(6) 0.9545(3)
O2 O 0.5006(9) 1.0697(8) 0.6144(4)
O3 O 0.8125(8) 0.9335(7) 0.5975(3)
C5 C 0.6601(9) 0.7648(9) 0.8843(4)
C6 C 0.6070(10) 0.9018(8) 0.7496(5)
N21 N 0.4593(8) 0.5958(8) 0.1677(4)
N22 N 0.3483(9) 0.6982(8) 0.1044(4)
N23 N 0.1564(8) 0.6649(7) 0.2581(3)
N24 N 0.0072(9) 0.8412(7) 0.1240(4)
O4 O 0.4063(7) 0.4867(7) 0.3355(3)
O5 O 0.0408(8) 0.9114(7) 0.0371(3)
O6 O -0.1601(8) 0.8547(8) 0.1799(4)
C7 C 0.3462(10) 0.5741(9) 0.2607(4)
C8 C 0.1749(9) 0.7325(8) 0.1636(4)
N25 N -0.1991(8) 0.2872(8) 0.2979(4)
N26 N -0.0899(10) 0.1885(8) 0.3631(4)
N27 N 0.1026(7) 0.2110(7) 0.2088(3)
N28 N 0.2539(9) 0.0416(8) 0.3405(4)
O7 O -0.1487(7) 0.3910(7) 0.1299(3)
O8 O 0.2289(9) -0.0212(8) 0.4278(4)
O9 O 0.4140(8) 0.0156(7) 0.2829(4)
C9 C -0.0843(9) 0.3017(9) 0.2059(4)
C10 C 0.0856(10) 0.1492(9) 0.3045(4)
H20? H 0.5838 0.5508 0.1513
H21? H -0.3234 0.3337 0.3129
loop_
_geom_bond_atom_site_label_1
_geom_bond_atom_site_label_2
_geom_bond_site_symmetry_1
_geom_bond_site_symmetry_2
N1 N2 1_555 1_555
N2 C1 1_555 1_555
N3 H1 1_555 1_555
N4 N3 1_555 1_555
H2 N4 1_555 1_555
N5 H3 1_555 1_555
N6 N5 1_555 1_555
H4 N6 1_555 1_555
H5 N6 1_555 1_555
H6 N6 1_555 1_555
N7 H7 1_555 1_555
N8 N7 1_555 1_555
H8 N8 1_555 1_555
H9 N8 1_555 1_555
H10 N8 1_555 1_555
C1 N3 1_555 1_555
C2 N1 1_555 1_555
N9 N10 1_555 1_555
N10 C3 1_555 1_555
N11 H11 1_555 1_555
N12 N11 1_555 1_555
H12 N12 1_555 1_555
N13 H13 1_555 1_555
N14 N13 1_555 1_555
H14 N14 1_555 1_555
H15 N14 1_555 1_555
N15 H16 1_555 1_555
N16 N15 1_555 1_555
H17 N16 1_555 1_555
H18 N16 1_555 1_555
H19 N16 1_555 1_555
C3 N11 1_555 1_555
C4 N9 1_555 1_555
N17 N18 1_555 1_555
N18 C6 1_555 1_555
N19 C5 1_555 1_555
N20 O2 1_555 1_555
O1 C5 1_555 1_555
O3 N20 1_555 1_555
C5 N17 1_555 1_555
C6 N19 1_555 1_555
N21 N22 1_555 1_555
N22 C8 1_555 1_555
N23 C7 1_555 1_555
N24 O5 1_555 1_555
O4 C7 1_555 1_555
O6 N24 1_555 1_555
C7 N21 1_555 1_555
C8 N23 1_555 1_555
N25 N26 1_555 1_555
N26 C10 1_555 1_555
N27 C9 1_555 1_555
N28 O8 1_555 1_555
O7 C9 1_555 1_555
O9 N28 1_555 1_555
C9 N25 1_555 1_555
C10 N27 1_555 1_555
N4 C2 1_555 1_555
N5 C1 1_555 1_555
N7 C2 1_555 1_555
N12 C4 1_555 1_555
N13 C3 1_555 1_555
N15 C4 1_555 1_555
N20 C6 1_555 1_555
N24 C8 1_555 1_555
N28 C10 1_555 1_555

#END
