
#######################################################################
#
#                 Cambridge Crystallographic Data Centre
#                                CCDC 
#
#######################################################################
#
# If this CIF has been generated from an entry in the Cambridge 
# Structural Database, then it will include bibliographic, chemical, 
# crystal, experimental, refinement or atomic coordinate data resulting 
# from the CCDC's data processing and validation procedures.
#
#######################################################################

data_RILSIQ
_chemical_formula_moiety         'C12 H11 Cl1 N2'
_chemical_name_systematic        
3-Chloro-N-(1-(1H-pyrrol-2-yl)ethylidene)aniline
_symmetry_cell_setting           monoclinic
_symmetry_space_group_name_H-M   'C 2/c'
_symmetry_Int_Tables_number      15
_space_group_name_Hall           '-C 2yn'
loop_
_symmetry_equiv_pos_site_id
_symmetry_equiv_pos_as_xyz
1 x,y,z
2 -x,y,1/2-z
3 1/2+x,1/2+y,z
4 1/2-x,1/2+y,1/2-z
5 -x,-y,-z
6 x,-y,1/2+z
7 1/2-x,1/2-y,-z
8 1/2+x,1/2-y,1/2+z
_cell_length_a                   23.722(15)
_cell_length_b                   5.720(4)
_cell_length_c                   16.868(11)
_cell_angle_alpha                90
_cell_angle_beta                 98.404(10)
_cell_angle_gamma                90
_cell_volume                     2264.24
_exptl_crystal_colour            colorless
_exptl_crystal_description       block
_chemical_melting_point          '362.6 K'
_cell_formula_units_Z            8
loop_
_atom_site_label
_atom_site_type_symbol
_atom_site_fract_x
_atom_site_fract_y
_atom_site_fract_z
Cl1 Cl 0.47791(2) 0.67469(13) 0.35356(4)
N1 N 0.16869(6) 0.7513(3) 0.40993(10)
H1 H 0.1925(9) 0.813(4) 0.4468(11)
N2 N 0.27532(6) 0.5367(3) 0.41718(10)
C1 C 0.11410(8) 0.8304(4) 0.38903(13)
H2 H 0.0976 0.9554 0.4124
C2 C 0.08828(9) 0.6952(5) 0.32843(14)
H3 H 0.0511 0.7117 0.3027
C3 C 0.12771(9) 0.5252(4) 0.31127(13)
H4 H 0.1212 0.4086 0.2726
C4 C 0.17798(7) 0.5635(3) 0.36246(10)
C5 C 0.23386(7) 0.4508(3) 0.36766(10)
C6 C 0.23902(10) 0.2473(4) 0.31262(13)
H5 H 0.2657 0.2850 0.2769
H6 H 0.2025 0.2146 0.2820
H7 H 0.2522 0.1123 0.3438
C7 C 0.33193(7) 0.4440(3) 0.42002(10)
C8 C 0.34820(9) 0.2336(4) 0.45754(13)
H8 H 0.3215 0.1411 0.4781
C9 C 0.40503(10) 0.1618(4) 0.46411(14)
H9 H 0.4160 0.0225 0.4904
C10 C 0.44537(9) 0.2937(4) 0.43234(13)
H10 H 0.4830 0.2438 0.4366
C11 C 0.42814(8) 0.5022(4) 0.39403(11)
C12 C 0.37214(7) 0.5807(3) 0.38867(10)
H11 H 0.3616 0.7232 0.3644
H12? H 0.270(6) 0.61(2) 0.460(5)
H13? H 0.2145 0.1230 0.3249
H14? H 0.2778 0.1933 0.3198
H15? H 0.2281 0.2957 0.2580
loop_
_geom_bond_atom_site_label_1
_geom_bond_atom_site_label_2
_geom_bond_site_symmetry_1
_geom_bond_site_symmetry_2
Cl1 C11 1_555 1_555
N1 H1 1_555 1_555
N2 C5 1_555 1_555
C1 N1 1_555 1_555
H2 C1 1_555 1_555
C2 C1 1_555 1_555
H3 C2 1_555 1_555
C3 C2 1_555 1_555
H4 C3 1_555 1_555
C4 N1 1_555 1_555
C5 C4 1_555 1_555
C6 C5 1_555 1_555
H5 C6 1_555 1_555
H6 C6 1_555 1_555
H7 C6 1_555 1_555
C7 N2 1_555 1_555
C8 C7 1_555 1_555
H8 C8 1_555 1_555
C9 C8 1_555 1_555
H9 C9 1_555 1_555
C10 C9 1_555 1_555
H10 C10 1_555 1_555
C11 C10 1_555 1_555
C12 C7 1_555 1_555
H11 C12 1_555 1_555
C3 C4 1_555 1_555
C11 C12 1_555 1_555

#END
