
#######################################################################
#
#                 Cambridge Crystallographic Data Centre
#                                CCDC 
#
#######################################################################
#
# If this CIF has been generated from an entry in the Cambridge 
# Structural Database, then it will include bibliographic, chemical, 
# crystal, experimental, refinement or atomic coordinate data resulting 
# from the CCDC's data processing and validation procedures.
#
#######################################################################

data_RIMHOM
_chemical_compound_source        
'Chinese eaglewood from the tree Aquilaria sinensis Gilg (Thymelaeaceae)'
_chemical_name_common            'Aquilarabietic acid A'
_chemical_formula_moiety         'C20 H32 O5'
_chemical_name_systematic        '7,9,13-Trihydroxyabiet-8(14)-en-18-oic acid'
_symmetry_cell_setting           orthorhombic
_symmetry_space_group_name_H-M   'P 21 21 21'
_symmetry_Int_Tables_number      19
_space_group_name_Hall           'P 2ac 2ab'
loop_
_symmetry_equiv_pos_site_id
_symmetry_equiv_pos_as_xyz
1 x,y,z
2 1/2-x,-y,1/2+z
3 -x,1/2+y,1/2-z
4 1/2+x,1/2-y,-z
_cell_length_a                   7.3445(13)
_cell_length_b                   12.413(2)
_cell_length_c                   19.978(4)
_cell_angle_alpha                90
_cell_angle_beta                 90
_cell_angle_gamma                90
_cell_volume                     1821.34
_exptl_crystal_colour            colorless
_exptl_crystal_description       Prism
_cell_formula_units_Z            4
loop_
_atom_site_label
_atom_site_type_symbol
_atom_site_fract_x
_atom_site_fract_y
_atom_site_fract_z
O1 O 0.7870(2) 1.07968(13) 0.71231(7)
O2 O 1.0026(2) 1.10454(12) 0.63674(7)
O3 O 0.91895(19) 0.76364(11) 0.76942(6)
O4 O 0.55330(19) 0.73930(11) 0.73853(6)
O5 O 0.7576(2) 0.36738(11) 0.71344(7)
C1 C 0.4282(3) 0.83538(14) 0.61247(9)
H1 H 0.3456 0.7821 0.5916
H2 H 0.3799 0.8526 0.6575
C2 C 0.4303(3) 0.93807(15) 0.56995(9)
H3 H 0.4730 0.9207 0.5242
H4 H 0.3052 0.9672 0.5665
C3 C 0.5550(3) 1.02280(15) 0.60080(10)
H5 H 0.5072 1.0430 0.6454
H6 H 0.5535 1.0881 0.5723
C4 C 0.7535(3) 0.98342(15) 0.60843(9)
C5 C 0.7539(3) 0.87213(14) 0.64584(9)
H7 H 0.7130 0.8886 0.6925
C6 C 0.9462(3) 0.82559(14) 0.65328(9)
H8 H 0.9919 0.8035 0.6087
H9 H 1.0285 0.8821 0.6708
C7 C 0.9497(3) 0.72857(15) 0.70043(9)
H10 H 1.0711 0.6924 0.6973
C8 C 0.8018(3) 0.64774(15) 0.68452(9)
C9 C 0.6124(2) 0.69329(15) 0.67454(9)
C10 C 0.6188(2) 0.78530(15) 0.61972(9)
C11 C 0.4729(3) 0.60546(14) 0.65809(9)
H11 H 0.3508 0.6295 0.6727
H12 H 0.4690 0.5947 0.6090
C12 C 0.5180(3) 0.49846(15) 0.69192(10)
H13 H 0.5179 0.5085 0.7411
H14 H 0.4226 0.4451 0.6807
C13 C 0.7024(3) 0.45518(15) 0.67014(9)
C14 C 0.8413(3) 0.54292(15) 0.68200(9)
H15 H 0.9647 0.5221 0.6880
C15 C 0.7060(3) 0.41576(16) 0.59645(10)
H16 H 0.6705 0.4781 0.5675
C16 C 0.5679(4) 0.32573(17) 0.58408(12)
H17 H 0.5909 0.2663 0.6152
H18 H 0.5799 0.2997 0.5380
H19 H 0.4445 0.3535 0.5911
C17 C 0.8964(3) 0.37971(19) 0.57461(11)
H20 H 0.8941 0.3598 0.5272
H21 H 0.9342 0.3174 0.6014
H22 H 0.9829 0.4389 0.5813
C18 C 0.8472(3) 1.06102(15) 0.65791(9)
C19 C 0.8506(3) 0.98645(16) 0.54035(9)
H23 H 0.9715 0.9538 0.5446
H24 H 0.8632 1.0614 0.5256
H25 H 0.7790 0.9462 0.5074
C20 C 0.6787(3) 0.73557(16) 0.55243(9)
H26 H 0.7107 0.7932 0.5211
H27 H 0.5786 0.6928 0.5338
H28 H 0.7848 0.6891 0.5597
H29 H 1.042(4) 1.149(2) 0.6727(14)
H30 H 1.010(5) 0.806(3) 0.7794(16)
H31 H 0.662(4) 0.757(2) 0.7629(15)
H32 H 0.674(4) 0.329(2) 0.7220(14)
loop_
_geom_bond_atom_site_label_1
_geom_bond_atom_site_label_2
_geom_bond_site_symmetry_1
_geom_bond_site_symmetry_2
O1 C18 1_555 1_555
O2 C18 1_555 1_555
O3 C7 1_555 1_555
O4 C9 1_555 1_555
O5 C13 1_555 1_555
C1 H1 1_555 1_555
H2 C1 1_555 1_555
C2 C1 1_555 1_555
H3 C2 1_555 1_555
H4 C2 1_555 1_555
C3 C2 1_555 1_555
H5 C3 1_555 1_555
H6 C3 1_555 1_555
C4 C3 1_555 1_555
C5 C4 1_555 1_555
H7 C5 1_555 1_555
C6 C5 1_555 1_555
H8 C6 1_555 1_555
H9 C6 1_555 1_555
C7 C6 1_555 1_555
H10 C7 1_555 1_555
C8 C7 1_555 1_555
C9 C8 1_555 1_555
C10 C1 1_555 1_555
C11 C9 1_555 1_555
H11 C11 1_555 1_555
H12 C11 1_555 1_555
C12 C11 1_555 1_555
H13 C12 1_555 1_555
H14 C12 1_555 1_555
C13 C12 1_555 1_555
C14 C8 1_555 1_555
H15 C14 1_555 1_555
C15 C13 1_555 1_555
H16 C15 1_555 1_555
C16 C15 1_555 1_555
H17 C16 1_555 1_555
H18 C16 1_555 1_555
H19 C16 1_555 1_555
C17 C15 1_555 1_555
H20 C17 1_555 1_555
H21 C17 1_555 1_555
H22 C17 1_555 1_555
C18 C4 1_555 1_555
C19 C4 1_555 1_555
H23 C19 1_555 1_555
H24 C19 1_555 1_555
H25 C19 1_555 1_555
C20 C10 1_555 1_555
H26 C20 1_555 1_555
H27 C20 1_555 1_555
H28 C20 1_555 1_555
H29 O2 1_555 1_555
H30 O3 1_555 1_555
H31 O4 1_555 1_555
H32 O5 1_555 1_555
C5 C10 1_555 1_555
C9 C10 1_555 1_555
C13 C14 1_555 1_555

#END
