
#######################################################################
#
#                 Cambridge Crystallographic Data Centre
#                                CCDC 
#
#######################################################################
#
# If this CIF has been generated from an entry in the Cambridge 
# Structural Database, then it will include bibliographic, chemical, 
# crystal, experimental, refinement or atomic coordinate data resulting 
# from the CCDC's data processing and validation procedures.
#
#######################################################################

data_RIMHIG
_chemical_compound_source        
'Chinese eaglewood from the tree Aquilaria sinensis Gilg (Thymelaeaceae)'
_chemical_name_common            'Aquilarabietic acid F'
_chemical_formula_moiety         'C20 H28 O3'
_chemical_name_systematic        6,18:13,14-Diepoxyabiet-7-en-18-one
_symmetry_cell_setting           orthorhombic
_symmetry_space_group_name_H-M   'P 21 21 21'
_symmetry_Int_Tables_number      19
_space_group_name_Hall           'P 2ac 2ab'
loop_
_symmetry_equiv_pos_site_id
_symmetry_equiv_pos_as_xyz
1 x,y,z
2 1/2-x,-y,1/2+z
3 1/2+x,1/2-y,-z
4 -x,1/2+y,1/2-z
_cell_length_a                   11.102(4)
_cell_length_b                   11.339(5)
_cell_length_c                   13.543(4)
_cell_angle_alpha                90
_cell_angle_beta                 90
_cell_angle_gamma                90
_cell_volume                     1704.87
_exptl_crystal_colour            colorless
_exptl_crystal_description       block
_cell_formula_units_Z            4
loop_
_atom_site_label
_atom_site_type_symbol
_atom_site_fract_x
_atom_site_fract_y
_atom_site_fract_z
O1 O 1.15385(14) 0.90022(17) 1.26604(11)
O2 O 1.12578(12) 0.99201(14) 1.12150(11)
O3 O 0.96725(14) 1.00889(13) 0.70049(11)
C1 C 0.84997(19) 0.70538(18) 1.02422(17)
H1 H 0.7757 0.6804 0.9928
H2 H 0.9136 0.6535 1.0014
C2 C 0.8365(2) 0.6906(2) 1.13681(18)
H3 H 0.7654 0.7332 1.1583
H4 H 0.8239 0.6077 1.1514
C3 C 0.9456(2) 0.7346(2) 1.19658(16)
H5 H 0.9298 0.7266 1.2667
H6 H 1.0163 0.6881 1.1805
C4 C 0.96755(16) 0.86365(18) 1.17106(14)
C5 C 0.97851(15) 0.87238(15) 1.05948(14)
H7 H 1.0447 0.8182 1.0441
C6 C 1.03297(17) 0.99089(17) 1.04329(14)
H8 H 0.9728 1.0520 1.0570
C7 C 1.07605(16) 1.00294(16) 0.93950(14)
H9 H 1.1373 1.0558 0.9241
C8 C 1.02583(16) 0.93697(15) 0.86885(14)
C9 C 0.94005(15) 0.83370(15) 0.88705(14)
H10 H 0.9912 0.7632 0.8859
C10 C 0.87895(15) 0.83272(16) 0.99047(14)
C11 C 0.85297(18) 0.8184(2) 0.80022(16)
H11 H 0.7995 0.7527 0.8136
H12 H 0.8041 0.8890 0.7936
C12 C 0.9195(2) 0.7962(2) 0.70426(17)
H13 H 0.9600 0.7206 0.7081
H14 H 0.8617 0.7923 0.6506
C13 C 1.01103(18) 0.89077(17) 0.68176(14)
C14 C 1.06091(17) 0.95940(16) 0.76455(15)
H15 H 1.1423 0.9907 0.7546
C15 C 1.08522(19) 0.87919(19) 0.58812(15)
H16 H 1.1357 0.9498 0.5831
C16 C 1.1690(2) 0.7735(3) 0.5935(2)
H17 H 1.2150 0.7683 0.5337
H18 H 1.1224 0.7029 0.6018
H19 H 1.2227 0.7825 0.6486
C17 C 1.0068(3) 0.8749(3) 0.49681(17)
H20 H 1.0567 0.8679 0.4393
H21 H 0.9600 0.9460 0.4926
H22 H 0.9538 0.8082 0.5007
C18 C 1.09135(17) 0.91626(19) 1.19491(14)
C19 C 0.87519(19) 0.9440(2) 1.22277(17)
H23 H 0.7953 0.9151 1.2103
H24 H 0.8825 1.0228 1.1976
H25 H 0.8902 0.9441 1.2926
C20 C 0.76761(18) 0.9117(2) 0.99278(17)
H26 H 0.7889 0.9895 0.9711
H27 H 0.7368 0.9154 1.0589
H28 H 0.7071 0.8798 0.9498
loop_
_geom_bond_atom_site_label_1
_geom_bond_atom_site_label_2
_geom_bond_site_symmetry_1
_geom_bond_site_symmetry_2
O1 C18 1_555 1_555
O2 C6 1_555 1_555
O3 C13 1_555 1_555
C1 H1 1_555 1_555
H2 C1 1_555 1_555
C2 C1 1_555 1_555
H3 C2 1_555 1_555
H4 C2 1_555 1_555
C3 C2 1_555 1_555
H5 C3 1_555 1_555
H6 C3 1_555 1_555
C4 C3 1_555 1_555
C5 C4 1_555 1_555
H7 C5 1_555 1_555
C6 C5 1_555 1_555
H8 C6 1_555 1_555
C7 C6 1_555 1_555
H9 C7 1_555 1_555
C8 C7 1_555 1_555
C9 C8 1_555 1_555
H10 C9 1_555 1_555
C10 C1 1_555 1_555
C11 C9 1_555 1_555
H11 C11 1_555 1_555
H12 C11 1_555 1_555
C12 C11 1_555 1_555
H13 C12 1_555 1_555
H14 C12 1_555 1_555
C13 C12 1_555 1_555
C14 O3 1_555 1_555
H15 C14 1_555 1_555
C15 C13 1_555 1_555
H16 C15 1_555 1_555
C16 C15 1_555 1_555
H17 C16 1_555 1_555
H18 C16 1_555 1_555
H19 C16 1_555 1_555
C17 C15 1_555 1_555
H20 C17 1_555 1_555
H21 C17 1_555 1_555
H22 C17 1_555 1_555
C18 O2 1_555 1_555
C19 C4 1_555 1_555
H23 C19 1_555 1_555
H24 C19 1_555 1_555
H25 C19 1_555 1_555
C20 C10 1_555 1_555
H26 C20 1_555 1_555
H27 C20 1_555 1_555
H28 C20 1_555 1_555
C4 C18 1_555 1_555
C5 C10 1_555 1_555
C8 C14 1_555 1_555
C9 C10 1_555 1_555
C13 C14 1_555 1_555

#END
