
#######################################################################
#
#                 Cambridge Crystallographic Data Centre
#                                CCDC 
#
#######################################################################
#
# If this CIF has been generated from an entry in the Cambridge 
# Structural Database, then it will include bibliographic, chemical, 
# crystal, experimental, refinement or atomic coordinate data resulting 
# from the CCDC's data processing and validation procedures.
#
#######################################################################

data_RIMJEE
_chemical_compound_source        'Pedinophyllum interruptum'
_chemical_name_common            'Pedinophyllol D'
_chemical_formula_moiety         'C20 H30 O3'
_chemical_name_systematic        1,7-Dihydroxypimara-8,15-dien-14-one
_symmetry_cell_setting           orthorhombic
_symmetry_space_group_name_H-M   'P 21 21 21'
_symmetry_Int_Tables_number      19
_space_group_name_Hall           'P 2ac 2ab'
loop_
_symmetry_equiv_pos_site_id
_symmetry_equiv_pos_as_xyz
1 x,y,z
2 1/2-x,-y,1/2+z
3 1/2+x,1/2-y,-z
4 -x,1/2+y,1/2-z
_cell_length_a                   8.9471(5)
_cell_length_b                   19.6621(8)
_cell_length_c                   20.8630(8)
_cell_angle_alpha                90
_cell_angle_beta                 90
_cell_angle_gamma                90
_cell_volume                     3670.19
_exptl_crystal_colour            colorless
_exptl_crystal_description       prism
_cell_formula_units_Z            8
loop_
_atom_site_label
_atom_site_type_symbol
_atom_site_fract_x
_atom_site_fract_y
_atom_site_fract_z
C1 C 0.0921(11) 0.7989(4) 0.2811(4)
H1 H 0.1895 0.8145 0.2761
H2 H 0.0244 0.8237 0.3056
C2 C 0.0543(10) 0.7478(3) 0.2563(4)
H3 H -0.0454 0.7378 0.2649
C3 C 0.1241(7) 0.6950(2) 0.2149(2)
C4 C 0.0663(13) 0.7129(4) 0.1474(3)
H4 H -0.0407 0.7094 0.1466
H5 H 0.1083 0.6820 0.1167
H6 H 0.0952 0.7586 0.1368
C5 C 0.2837(9) 0.6881(3) 0.2153(7)
H7 H 0.3249 0.7337 0.2173
H8 H 0.3120 0.6695 0.1740
C6 C 0.3607(7) 0.6481(2) 0.2639(3)
H9 H 0.3634 0.6737 0.3037
H10 H 0.4630 0.6404 0.2503
C7 C 0.2863(6) 0.58018(19) 0.27597(18)
C8 C 0.1418(5) 0.57176(19) 0.26136(18)
C9 C 0.0500(7) 0.6278(2) 0.2343(2)
C10 C 0.0578(5) 0.50594(19) 0.27055(18)
H11 H -0.0392 0.5168 0.2897
C11 C 0.1402(5) 0.4582(2) 0.31637(17)
H12 H 0.1306 0.4747 0.3600
H13 H 0.0964 0.4131 0.3142
C12 C 0.3045(4) 0.45474(19) 0.29787(18)
H14 H 0.3030 0.4490 0.2512
C13 C 0.3804(5) 0.5249(2) 0.30809(16)
C14 C 0.3935(6) 0.5479(2) 0.37972(18)
H15 H 0.4321 0.5934 0.3816
H16 H 0.4598 0.5177 0.4021
H17 H 0.2965 0.5466 0.3994
C15 C 0.5390(5) 0.5218(2) 0.27907(17)
H18 H 0.5918 0.5640 0.2895
C16 C 0.6282(5) 0.4625(2) 0.3041(2)
H19 H 0.6480 0.4694 0.3493
H20 H 0.7236 0.4609 0.2820
C17 C 0.5490(6) 0.3954(2) 0.2952(2)
H21 H 0.6087 0.3601 0.3152
H22 H 0.5445 0.3856 0.2497
C18 C 0.3903(5) 0.3915(2) 0.32246(19)
C19 C 0.3155(7) 0.3272(2) 0.2947(3)
H23 H 0.2956 0.3339 0.2499
H24 H 0.2233 0.3188 0.3169
H25 H 0.3810 0.2890 0.3000
C20 C 0.3951(6) 0.3842(3) 0.3961(2)
H26 H 0.4369 0.3408 0.4072
H27 H 0.2956 0.3876 0.4130
H28 H 0.4559 0.4197 0.4139
O1 O -0.0856(5) 0.62077(18) 0.2277(2)
O2 O 0.0306(3) 0.47361(14) 0.21020(12)
H29 H 0.1048 0.4773 0.1874
O3 O 0.5190(3) 0.51813(19) 0.21116(11)
H30 H 0.5993 0.5094 0.1940
C21 C 0.3575(8) 0.2996(3) -0.0421(2)
H31 H 0.3017 0.3393 -0.0392
H32 H 0.3800 0.2814 -0.0821
C22 C 0.4043(7) 0.2694(2) 0.0097(2)
H33 H 0.4596 0.2299 0.0035
C23 C 0.3805(6) 0.2901(2) 0.07806(19)
C24 C 0.2880(7) 0.2345(2) 0.1123(2)
H34 H 0.1885 0.2339 0.0952
H35 H 0.2842 0.2442 0.1574
H36 H 0.3341 0.1910 0.1057
C25 C 0.5331(6) 0.2975(2) 0.1109(2)
H37 H 0.5183 0.3090 0.1557
H38 H 0.5856 0.2543 0.1091
C26 C 0.3046(6) 0.3587(2) 0.0814(2)
C27 C 0.3957(5) 0.4205(2) 0.07188(17)
C28 C 0.5471(5) 0.41704(19) 0.06677(16)
C29 C 0.6270(5) 0.3515(2) 0.0795(2)
H39 H 0.7125 0.3608 0.1067
H40 H 0.6645 0.3339 0.0392
C30 C 0.3112(5) 0.48606(19) 0.06458(17)
H41 H 0.2193 0.4758 0.0409
C31 C 0.3955(5) 0.5386(2) 0.02668(17)
H42 H 0.3459 0.5823 0.0306
H43 H 0.3960 0.5259 -0.0183
C32 C 0.5552(5) 0.5445(2) 0.05079(17)
H44 H 0.5446 0.5485 0.0974
C33 C 0.6401(5) 0.47649(19) 0.04121(16)
C34 C 0.6675(6) 0.4578(2) -0.03070(17)
H45 H 0.7331 0.4908 -0.0497
H46 H 0.5739 0.4577 -0.0532
H47 H 0.7122 0.4135 -0.0333
C35 C 0.7944(5) 0.4807(2) 0.07450(17)
H48 H 0.8525 0.4399 0.0641
C36 C 0.8813(5) 0.5432(2) 0.0540(2)
H49 H 0.9730 0.5457 0.0787
H50 H 0.9082 0.5387 0.0092
C37 C 0.7947(6) 0.6083(2) 0.0630(2)
H51 H 0.8539 0.6455 0.0461
H52 H 0.7823 0.6161 0.1086
C38 C 0.6392(6) 0.6104(2) 0.03111(19)
C39 C 0.6525(7) 0.6220(3) -0.0421(2)
H53 H 0.5548 0.6206 -0.0611
H54 H 0.7137 0.5870 -0.0605
H55 H 0.6971 0.6656 -0.0500
C40 C 0.5572(7) 0.6716(2) 0.0591(3)
H56 H 0.4598 0.6751 0.0400
H57 H 0.6130 0.7123 0.0502
H58 H 0.5472 0.6661 0.1046
O4 O 0.1689(5) 0.36288(18) 0.0882(2)
O5 O 0.2675(3) 0.51210(14) 0.12624(12)
H59 H 0.3410 0.5145 0.1496
O6 O 0.7666(3) 0.48255(15) 0.14208(12)
H60 H 0.8455 0.4887 0.1612
loop_
_geom_bond_atom_site_label_1
_geom_bond_atom_site_label_2
_geom_bond_site_symmetry_1
_geom_bond_site_symmetry_2
C1 H1 1_555 1_555
H2 C1 1_555 1_555
C2 C1 1_555 1_555
H3 C2 1_555 1_555
C3 C2 1_555 1_555
C4 C3 1_555 1_555
H4 C4 1_555 1_555
H5 C4 1_555 1_555
H6 C4 1_555 1_555
C5 C3 1_555 1_555
H7 C5 1_555 1_555
H8 C5 1_555 1_555
C6 C5 1_555 1_555
H9 C6 1_555 1_555
H10 C6 1_555 1_555
C7 C6 1_555 1_555
C8 C7 1_555 1_555
C9 C3 1_555 1_555
C10 C8 1_555 1_555
H11 C10 1_555 1_555
C11 C10 1_555 1_555
H12 C11 1_555 1_555
H13 C11 1_555 1_555
C12 C11 1_555 1_555
H14 C12 1_555 1_555
C13 C7 1_555 1_555
C14 C13 1_555 1_555
H15 C14 1_555 1_555
H16 C14 1_555 1_555
H17 C14 1_555 1_555
C15 C13 1_555 1_555
H18 C15 1_555 1_555
C16 C15 1_555 1_555
H19 C16 1_555 1_555
H20 C16 1_555 1_555
C17 C16 1_555 1_555
H21 C17 1_555 1_555
H22 C17 1_555 1_555
C18 C12 1_555 1_555
C19 C18 1_555 1_555
H23 C19 1_555 1_555
H24 C19 1_555 1_555
H25 C19 1_555 1_555
C20 C18 1_555 1_555
H26 C20 1_555 1_555
H27 C20 1_555 1_555
H28 C20 1_555 1_555
O1 C9 1_555 1_555
O2 C10 1_555 1_555
H29 O2 1_555 1_555
O3 C15 1_555 1_555
H30 O3 1_555 1_555
C21 H31 1_555 1_555
H32 C21 1_555 1_555
C22 C21 1_555 1_555
H33 C22 1_555 1_555
C23 C22 1_555 1_555
C24 C23 1_555 1_555
H34 C24 1_555 1_555
H35 C24 1_555 1_555
H36 C24 1_555 1_555
C25 C23 1_555 1_555
H37 C25 1_555 1_555
H38 C25 1_555 1_555
C26 C23 1_555 1_555
C27 C26 1_555 1_555
C28 C27 1_555 1_555
C29 C25 1_555 1_555
H39 C29 1_555 1_555
H40 C29 1_555 1_555
C30 C27 1_555 1_555
H41 C30 1_555 1_555
C31 C30 1_555 1_555
H42 C31 1_555 1_555
H43 C31 1_555 1_555
C32 C31 1_555 1_555
H44 C32 1_555 1_555
C33 C28 1_555 1_555
C34 C33 1_555 1_555
H45 C34 1_555 1_555
H46 C34 1_555 1_555
H47 C34 1_555 1_555
C35 C33 1_555 1_555
H48 C35 1_555 1_555
C36 C35 1_555 1_555
H49 C36 1_555 1_555
H50 C36 1_555 1_555
C37 C36 1_555 1_555
H51 C37 1_555 1_555
H52 C37 1_555 1_555
C38 C32 1_555 1_555
C39 C38 1_555 1_555
H53 C39 1_555 1_555
H54 C39 1_555 1_555
H55 C39 1_555 1_555
C40 C38 1_555 1_555
H56 C40 1_555 1_555
H57 C40 1_555 1_555
H58 C40 1_555 1_555
O4 C26 1_555 1_555
O5 C30 1_555 1_555
H59 O5 1_555 1_555
O6 C35 1_555 1_555
H60 O6 1_555 1_555
C8 C9 1_555 1_555
C12 C13 1_555 1_555
C17 C18 1_555 1_555
C28 C29 1_555 1_555
C32 C33 1_555 1_555
C37 C38 1_555 1_555

#END
