
#######################################################################
#
#                 Cambridge Crystallographic Data Centre
#                                CCDC 
#
#######################################################################
#
# If this CIF has been generated from an entry in the Cambridge 
# Structural Database, then it will include bibliographic, chemical, 
# crystal, experimental, refinement or atomic coordinate data resulting 
# from the CCDC's data processing and validation procedures.
#
#######################################################################

data_RIMKOP
_chemical_compound_source        'whole plants of Salvia cavaleriei'
_chemical_formula_moiety         'C24 H36 O7'
_chemical_name_systematic        
7\a,14\b-Dihydroxy-17\a-ethoxymethyl-3\b-acetoxy-ent-kaur-11,15-dione
_chemical_properties_biological  'cytotoxic activity'
_symmetry_cell_setting           monoclinic
_symmetry_space_group_name_H-M   'P 21'
_symmetry_Int_Tables_number      4
_space_group_name_Hall           'P 2yb'
loop_
_symmetry_equiv_pos_site_id
_symmetry_equiv_pos_as_xyz
1 x,y,z
2 -x,1/2+y,-z
_cell_length_a                   12.0609(2)
_cell_length_b                   6.82630(10)
_cell_length_c                   29.7481(5)
_cell_angle_alpha                90
_cell_angle_beta                 98.0820(10)
_cell_angle_gamma                90
_cell_volume                     2424.87
_chemical_melting_point          '198-200 deg.C'
_cell_formula_units_Z            4
loop_
_atom_site_label
_atom_site_type_symbol
_atom_site_fract_x
_atom_site_fract_y
_atom_site_fract_z
C1 C 0.48311(17) 0.3596(4) 0.41027(8)
H1 H 0.4540 0.2280 0.4125
H2 H 0.4558 0.4389 0.4334
C2 C 0.4388(2) 0.4433(4) 0.36373(9)
H3 H 0.3576 0.4428 0.3597
H4 H 0.4635 0.5780 0.3621
C3 C 0.4794(2) 0.3255(4) 0.32604(8)
H5 H 0.4524 0.3873 0.2968
C4 C 0.60662(19) 0.3031(4) 0.33074(7)
C5 C 0.65309(17) 0.2349(4) 0.37999(7)
H6 H 0.6235 0.1023 0.3825
C6 C 0.78029(17) 0.2120(4) 0.38880(7)
H7 H 0.8060 0.1490 0.3629
H8 H 0.8151 0.3401 0.3926
C7 C 0.81446(15) 0.0909(3) 0.43079(7)
H9 H 0.7804 -0.0389 0.4255
C8 C 0.77571(15) 0.1746(3) 0.47368(6)
C9 C 0.64777(15) 0.2265(3) 0.46388(7)
H10 H 0.6089 0.1008 0.4583
C10 C 0.61197(15) 0.3527(3) 0.41948(7)
C11 C 0.60322(16) 0.3153(3) 0.50526(7)
C12 C 0.68271(18) 0.4260(4) 0.54002(7)
H11 H 0.6550 0.4219 0.5691
H12 H 0.6855 0.5620 0.5308
C13 C 0.80076(17) 0.3394(4) 0.54530(7)
H13 H 0.8514 0.4120 0.5680
C14 C 0.84332(15) 0.3417(3) 0.49937(7)
H14 H 0.8294 0.4679 0.4839
C15 C 0.78901(15) 0.0194(3) 0.51165(7)
C16 C 0.79862(18) 0.1218(4) 0.55756(7)
H15 H 0.7301 0.0958 0.5708
C17 C 0.8975(2) 0.0431(5) 0.58971(8)
H16 H 0.9038 -0.0972 0.5856
H17 H 0.9661 0.1040 0.5831
C18 C 0.6356(2) 0.1483(6) 0.29685(8)
H18 H 0.6185 0.0203 0.3074
H19 H 0.7139 0.1558 0.2943
H20 H 0.5924 0.1719 0.2677
C19 C 0.6557(2) 0.4979(5) 0.31707(9)
H21 H 0.6307 0.5229 0.2855
H22 H 0.7360 0.4908 0.3221
H23 H 0.6312 0.6020 0.3350
C20 C 0.65632(18) 0.5627(3) 0.42491(8)
H24 H 0.6168 0.6439 0.4016
H25 H 0.7348 0.5639 0.4223
H26 H 0.6452 0.6121 0.4542
C21 C 0.2909(3) -0.1054(6) 0.30853(13)
H27 H 0.2286 -0.1316 0.2855
H28 H 0.2682 -0.1218 0.3380
H29 H 0.3507 -0.1949 0.3053
C22 C 0.3302(2) 0.0990(5) 0.30370(9)
C23 C 0.9657(12) -0.029(2) 0.6668(4)
H30 H 0.9446 -0.1664 0.6675
H31 H 1.0397 -0.0201 0.6578
C24 C 0.9634(12) 0.062(2) 0.7110(4)
H32 H 0.9902 0.1942 0.7102
H33 H 1.0105 -0.0105 0.7338
H34 H 0.8880 0.0626 0.7179
O1 O 0.8822(8) 0.0836(12) 0.63510(19)
O2 O 0.2791(2) 0.2224(4) 0.28145(9)
O3 O 0.43159(14) 0.1299(3) 0.32692(6)
O4 O 0.93404(11) 0.0666(3) 0.43548(5)
H35 H 0.955(2) -0.024(3) 0.4549(8)
O5 O 0.50614(12) 0.2949(3) 0.51006(5)
O6 O 0.96010(11) 0.2956(3) 0.50757(6)
H36 H 0.977(3) 0.254(5) 0.4826(6)
O7 O 0.79473(13) -0.1541(3) 0.50595(6)
C27 C 0.54323(18) 0.5559(4) 0.08770(8)
H44 H 0.5091 0.6846 0.0841
H45 H 0.5034 0.4706 0.0648
C28 C 0.5307(2) 0.4768(4) 0.13455(9)
H46 H 0.5609 0.3450 0.1377
H47 H 0.4519 0.4705 0.1378
C29 C 0.5917(2) 0.6063(4) 0.17193(8)
H48 H 0.5843 0.5480 0.2015
C30 C 0.7161(2) 0.6364(4) 0.16877(7)
C31 C 0.73059(17) 0.6958(3) 0.11897(7)
H49 H 0.6975 0.8269 0.1149
C32 C 0.85223(17) 0.7222(4) 0.11133(7)
H50 H 0.8932 0.7907 0.1370
H51 H 0.8866 0.5947 0.1092
C33 C 0.85953(15) 0.8362(3) 0.06859(7)
H52 H 0.8290 0.9671 0.0726
C34 C 0.79319(15) 0.7472(3) 0.02564(6)
C35 C 0.67164(15) 0.6926(3) 0.03504(6)
H53 H 0.6354 0.8179 0.0398
C36 C 0.66630(15) 0.5708(3) 0.07993(7)
C37 C 0.60011(16) 0.6002(3) -0.00638(7)
C38 C 0.65729(17) 0.4890(4) -0.04014(7)
H54 H 0.6101 0.4899 -0.0694
H55 H 0.6674 0.3539 -0.0303
C39 C 0.77177(17) 0.5778(3) -0.04539(7)
H56 H 0.8078 0.5044 -0.0677
C40 C 0.84458(15) 0.5786(3) 0.00088(7)
H57 H 0.8415 0.4533 0.0168
C41 C 0.78040(15) 0.8985(3) -0.01284(7)
C42 C 0.75986(17) 0.7945(4) -0.05835(7)
H58 H 0.6821 0.8183 -0.0718
C43 C 0.8364(2) 0.8718(5) -0.09102(8)
H59 H 0.8447 1.0128 -0.0881
H60 H 0.9099 0.8118 -0.0849
C44 C 0.7604(3) 0.8053(6) 0.20096(9)
H61 H 0.7370 0.7851 0.2301
H62 H 0.7310 0.9276 0.1885
H63 H 0.8407 0.8083 0.2042
C45 C 0.7789(2) 0.4496(5) 0.18538(9)
H64 H 0.8561 0.4614 0.1812
H65 H 0.7460 0.3395 0.1684
H66 H 0.7740 0.4306 0.2170
C46 C 0.71232(18) 0.3615(3) 0.07626(8)
H67 H 0.6935 0.2835 0.1009
H68 H 0.7923 0.3665 0.0776
H69 H 0.6799 0.3041 0.0480
C47 C 0.4038(3) 1.0227(6) 0.18623(12)
H70 H 0.3357 0.9991 0.1661
H71 H 0.4509 1.1093 0.1719
H72 H 0.3865 1.0815 0.2137
C48 C 0.4632(2) 0.8337(5) 0.19709(9)
O9 O 0.7819(4) 0.8220(9) -0.13503(15)
C49 C 0.8543(6) 0.8555(12) -0.16916(16)
H73 H 0.8306 0.7747 -0.1956
H74 H 0.9308 0.8207 -0.1572
C50 C 0.8485(9) 1.0651(15) -0.1822(3)
H75 H 0.7755 1.0939 -0.1981
H76 H 0.9041 1.0925 -0.2015
H77 H 0.8622 1.1447 -0.1554
O10 O 0.4487(3) 0.7266(5) 0.22697(9)
O11 O 0.53553(15) 0.7952(3) 0.16852(6)
O12 O 0.97627(11) 0.8586(3) 0.06467(5)
H78 H 0.978(2) 0.948(3) 0.0450(8)
O13 O 0.49953(12) 0.6217(3) -0.01191(5)
O14 O 0.95608(12) 0.6264(3) -0.00692(6)
H79 H 0.989(2) 0.683(4) 0.0171(7)
O15 O 0.78894(14) 1.0742(2) -0.00778(6)
H37? H 0.8865 -0.0936 0.5968
H38? H 0.9665 0.0560 0.5767
O8? O 0.8995(10) 0.1635(14) 0.6297(2)
C25? C 0.9919(10) 0.1028(18) 0.6637(3)
H39? H 1.0510 0.0426 0.6495
H40? H 0.9666 0.0102 0.6848
C26? C 1.0320(14) 0.287(2) 0.6874(6)
H41? H 1.0201 0.3953 0.6666
H42? H 1.1104 0.2763 0.6985
H43? H 0.9913 0.3097 0.7125
H80? H 0.8151 1.0048 -0.0999
H81? H 0.9132 0.8738 -0.0760
O16? O 0.8283(7) 0.7501(14) -0.1304(2)
C51? C 0.9240(12) 0.761(3) -0.1564(5)
H82? H 0.9227 0.8867 -0.1715
H83? H 0.9930 0.7527 -0.1354
C52? C 0.9241(15) 0.608(3) -0.1900(5)
H84? H 0.9224 0.4820 -0.1756
H85? H 0.9905 0.6179 -0.2042
H86? H 0.8593 0.6213 -0.2126
loop_
_geom_bond_atom_site_label_1
_geom_bond_atom_site_label_2
_geom_bond_site_symmetry_1
_geom_bond_site_symmetry_2
C1 H1 1_555 1_555
H2 C1 1_555 1_555
C2 C1 1_555 1_555
H3 C2 1_555 1_555
H4 C2 1_555 1_555
C3 C2 1_555 1_555
H5 C3 1_555 1_555
C4 C3 1_555 1_555
C5 C4 1_555 1_555
H6 C5 1_555 1_555
C6 C5 1_555 1_555
H7 C6 1_555 1_555
H8 C6 1_555 1_555
C7 C6 1_555 1_555
H9 C7 1_555 1_555
C8 C7 1_555 1_555
C9 C8 1_555 1_555
H10 C9 1_555 1_555
C10 C1 1_555 1_555
C11 C9 1_555 1_555
C12 C11 1_555 1_555
H11 C12 1_555 1_555
H12 C12 1_555 1_555
C13 C12 1_555 1_555
H13 C13 1_555 1_555
C14 C8 1_555 1_555
H14 C14 1_555 1_555
C15 C8 1_555 1_555
C16 C13 1_555 1_555
H15 C16 1_555 1_555
C17 C16 1_555 1_555
H16 C17 1_555 1_555
H17 C17 1_555 1_555
C18 C4 1_555 1_555
H18 C18 1_555 1_555
H19 C18 1_555 1_555
H20 C18 1_555 1_555
C19 C4 1_555 1_555
H21 C19 1_555 1_555
H22 C19 1_555 1_555
H23 C19 1_555 1_555
C20 C10 1_555 1_555
H24 C20 1_555 1_555
H25 C20 1_555 1_555
H26 C20 1_555 1_555
C21 H27 1_555 1_555
H28 C21 1_555 1_555
H29 C21 1_555 1_555
C22 C21 1_555 1_555
C23 H30 1_555 1_555
H31 C23 1_555 1_555
C24 C23 1_555 1_555
H32 C24 1_555 1_555
H33 C24 1_555 1_555
H34 C24 1_555 1_555
O1 C17 1_555 1_555
O2 C22 1_555 1_555
O3 C3 1_555 1_555
O4 C7 1_555 1_555
H35 O4 1_555 1_555
O5 C11 1_555 1_555
O6 C14 1_555 1_555
H36 O6 1_555 1_555
O7 C15 1_555 1_555
C27 H44 1_555 1_555
H45 C27 1_555 1_555
C28 C27 1_555 1_555
H46 C28 1_555 1_555
H47 C28 1_555 1_555
C29 C28 1_555 1_555
H48 C29 1_555 1_555
C30 C29 1_555 1_555
C31 C30 1_555 1_555
H49 C31 1_555 1_555
C32 C31 1_555 1_555
H50 C32 1_555 1_555
H51 C32 1_555 1_555
C33 C32 1_555 1_555
H52 C33 1_555 1_555
C34 C33 1_555 1_555
C35 C34 1_555 1_555
H53 C35 1_555 1_555
C36 C27 1_555 1_555
C37 C35 1_555 1_555
C38 C37 1_555 1_555
H54 C38 1_555 1_555
H55 C38 1_555 1_555
C39 C38 1_555 1_555
H56 C39 1_555 1_555
C40 C34 1_555 1_555
H57 C40 1_555 1_555
C41 C34 1_555 1_555
C42 C39 1_555 1_555
H58 C42 1_555 1_555
C43 C42 1_555 1_555
H59 C43 1_555 1_555
H60 C43 1_555 1_555
C44 C30 1_555 1_555
H61 C44 1_555 1_555
H62 C44 1_555 1_555
H63 C44 1_555 1_555
C45 C30 1_555 1_555
H64 C45 1_555 1_555
H65 C45 1_555 1_555
H66 C45 1_555 1_555
C46 C36 1_555 1_555
H67 C46 1_555 1_555
H68 C46 1_555 1_555
H69 C46 1_555 1_555
C47 H70 1_555 1_555
H71 C47 1_555 1_555
H72 C47 1_555 1_555
C48 C47 1_555 1_555
O9 C43 1_555 1_555
C49 O9 1_555 1_555
H73 C49 1_555 1_555
H74 C49 1_555 1_555
C50 C49 1_555 1_555
H75 C50 1_555 1_555
H76 C50 1_555 1_555
H77 C50 1_555 1_555
O10 C48 1_555 1_555
O11 C29 1_555 1_555
O12 C33 1_555 1_555
H78 O12 1_555 1_555
O13 C37 1_555 1_555
O14 C40 1_555 1_555
H79 O14 1_555 1_555
O15 C41 1_555 1_555
C5 C10 1_555 1_555
C9 C10 1_555 1_555
C13 C14 1_555 1_555
C15 C16 1_555 1_555
C22 O3 1_555 1_555
C23 O1 1_555 1_555
C31 C36 1_555 1_555
C35 C36 1_555 1_555
C39 C40 1_555 1_555
C41 C42 1_555 1_555
C48 O11 1_555 1_555

#END
