
#######################################################################
#
#                 Cambridge Crystallographic Data Centre
#                                CCDC 
#
#######################################################################
#
# If this CIF has been generated from an entry in the Cambridge 
# Structural Database, then it will include bibliographic, chemical, 
# crystal, experimental, refinement or atomic coordinate data resulting 
# from the CCDC's data processing and validation procedures.
#
#######################################################################

data_RIMLEG
_chemical_compound_source        'whole plants of Salvia cavaleriei'
_chemical_name_common            '3-Oxo-11alpha-hydroxyleukamenin E'
_chemical_formula_moiety         'C20 H28 O5'
_chemical_name_systematic        7,11,14-Trihydroxykaur-16-ene-3,15-dione
_chemical_properties_biological  'cytotoxic activity'
_symmetry_cell_setting           orthorhombic
_symmetry_space_group_name_H-M   'P 2 21 21'
_symmetry_Int_Tables_number      18
_space_group_name_Hall           'P 2bc 2'
loop_
_symmetry_equiv_pos_site_id
_symmetry_equiv_pos_as_xyz
1 x,y,z
2 -x,1/2-y,1/2+z
3 x,-y,-z
4 -x,1/2+y,1/2-z
_cell_length_a                   6.506
_cell_length_b                   13.700
_cell_length_c                   20.624
_cell_angle_alpha                90
_cell_angle_beta                 90
_cell_angle_gamma                90
_cell_volume                     1838.26
_chemical_melting_point          '256-258 deg.C'
_cell_formula_units_Z            4
loop_
_atom_site_label
_atom_site_type_symbol
_atom_site_fract_x
_atom_site_fract_y
_atom_site_fract_z
C1 C 0.7303(5) 0.86146(15) 0.12938(10)
H1 H 0.5871 0.8705 0.1410
H2 H 0.8112 0.9057 0.1558
C2 C 0.7577(8) 0.8895(2) 0.05847(12)
H3 H 0.6225 0.8985 0.0396
H4 H 0.8272 0.9521 0.0569
C3 C 0.8730(7) 0.82039(18) 0.01720(12)
C4 C 0.8133(6) 0.7132(2) 0.02160(11)
C5 C 0.7096(4) 0.69168(16) 0.08911(10)
H5 H 0.5655 0.7110 0.0840
C6 C 0.7039(4) 0.58219(16) 0.10377(10)
H6 H 0.6510 0.5472 0.0664
H7 H 0.8420 0.5589 0.1124
C7 C 0.5685(3) 0.56260(15) 0.16200(9)
H8 H 0.4344 0.5926 0.1535
C8 C 0.6590(3) 0.61194(13) 0.22212(9)
C9 C 0.6762(3) 0.72457(14) 0.20965(9)
H9 H 0.5342 0.7459 0.2025
C10 C 0.7931(4) 0.75532(15) 0.14599(9)
C11 C 0.7397(3) 0.77396(14) 0.27503(9)
H10 H 0.6178 0.7718 0.3029
C12 C 0.9099(3) 0.72141(16) 0.31213(10)
H11 H 0.9207 0.7489 0.3553
H12 H 1.0400 0.7318 0.2902
C13 C 0.8686(3) 0.61177(16) 0.31728(10)
H13 H 0.9703 0.5787 0.3446
C14 C 0.8620(3) 0.56942(15) 0.24831(10)
H14 H 0.9801 0.5909 0.2225
C15 C 0.5182(3) 0.59737(14) 0.28149(10)
C16 C 0.6515(3) 0.59326(16) 0.33992(10)
C17 C 0.5796(5) 0.5792(2) 0.39922(12)
H15 H 0.4392 0.5713 0.4058
H16 H 0.6695 0.5772 0.4343
C18 C 0.6497(9) 0.6981(3) -0.03207(13)
H17 H 0.7098 0.7112 -0.0737
H18 H 0.5366 0.7418 -0.0249
H19 H 0.6013 0.6319 -0.0309
C19 C 0.9974(7) 0.6496(2) 0.00574(14)
H20 H 1.0591 0.6716 -0.0339
H21 H 0.9536 0.5831 0.0009
H22 H 1.0961 0.6538 0.0402
C20 C 1.0278(4) 0.75168(19) 0.15155(12)
H23 H 1.0881 0.7838 0.1148
H24 H 1.0723 0.6849 0.1527
H25 H 1.0701 0.7841 0.1906
O1 O 0.3331(2) 0.59189(13) 0.27931(9)
O2 O 0.8464(2) 0.46516(10) 0.24995(9)
H26 H 0.9607 0.4411 0.2449
O3 O 0.7920(2) 0.87459(10) 0.26838(8)
H27 H 0.7003 0.9083 0.2840
O4 O 0.5358(3) 0.46003(11) 0.17103(8)
H28 H 0.6324 0.4368 0.1914
O5 O 0.9981(7) 0.84814(17) -0.02069(12)
loop_
_geom_bond_atom_site_label_1
_geom_bond_atom_site_label_2
_geom_bond_site_symmetry_1
_geom_bond_site_symmetry_2
C1 H1 1_555 1_555
H2 C1 1_555 1_555
C2 C1 1_555 1_555
H3 C2 1_555 1_555
H4 C2 1_555 1_555
C3 C2 1_555 1_555
C4 C3 1_555 1_555
C5 C4 1_555 1_555
H5 C5 1_555 1_555
C6 C5 1_555 1_555
H6 C6 1_555 1_555
H7 C6 1_555 1_555
C7 C6 1_555 1_555
H8 C7 1_555 1_555
C8 C7 1_555 1_555
C9 C8 1_555 1_555
H9 C9 1_555 1_555
C10 C1 1_555 1_555
C11 C9 1_555 1_555
H10 C11 1_555 1_555
C12 C11 1_555 1_555
H11 C12 1_555 1_555
H12 C12 1_555 1_555
C13 C12 1_555 1_555
H13 C13 1_555 1_555
C14 C8 1_555 1_555
H14 C14 1_555 1_555
C15 C8 1_555 1_555
C16 C13 1_555 1_555
C17 C16 1_555 1_555
H15 C17 1_555 1_555
H16 C17 1_555 1_555
C18 C4 1_555 1_555
H17 C18 1_555 1_555
H18 C18 1_555 1_555
H19 C18 1_555 1_555
C19 C4 1_555 1_555
H20 C19 1_555 1_555
H21 C19 1_555 1_555
H22 C19 1_555 1_555
C20 C10 1_555 1_555
H23 C20 1_555 1_555
H24 C20 1_555 1_555
H25 C20 1_555 1_555
O1 C15 1_555 1_555
O2 C14 1_555 1_555
H26 O2 1_555 1_555
O3 C11 1_555 1_555
H27 O3 1_555 1_555
O4 C7 1_555 1_555
H28 O4 1_555 1_555
O5 C3 1_555 1_555
C5 C10 1_555 1_555
C9 C10 1_555 1_555
C13 C14 1_555 1_555
C15 C16 1_555 1_555

#END
