
#######################################################################
#
#                 Cambridge Crystallographic Data Centre
#                                CCDC 
#
#######################################################################
#
# If this CIF has been generated from an entry in the Cambridge 
# Structural Database, then it will include bibliographic, chemical, 
# crystal, experimental, refinement or atomic coordinate data resulting 
# from the CCDC's data processing and validation procedures.
#
#######################################################################

data_RIMMOR
_chemical_name_common            
'13-Hydroxy-7-(6,12,13-trihydroxy-7-oxopodocarpa-5,8(14),9(11),12-tetraen-14-yl)podocarpa-7,9(11),13-triene-6,12-dione methanol solvate'
_chemical_formula_moiety         'C34 H38 O7,C1 H4 O1'
_chemical_name_systematic        '(M)-Bicelaphanol A methanol solvate'
_symmetry_cell_setting           monoclinic
_symmetry_space_group_name_H-M   'P 21'
_symmetry_Int_Tables_number      4
_space_group_name_Hall           'P 2yb'
loop_
_symmetry_equiv_pos_site_id
_symmetry_equiv_pos_as_xyz
1 x,y,z
2 -x,1/2+y,-z
_cell_length_a                   8.4324(2)
_cell_length_b                   16.6283(3)
_cell_length_c                   10.8816(2)
_cell_angle_alpha                90
_cell_angle_beta                 96.1740(10)
_cell_angle_gamma                90
_cell_volume                     1516.93
_exptl_crystal_colour            orange
_exptl_crystal_description       plate
_cell_formula_units_Z            2
loop_
_atom_site_label
_atom_site_type_symbol
_atom_site_fract_x
_atom_site_fract_y
_atom_site_fract_z
O1 O 0.07474(11) 0.26404(6) 0.74813(8)
O2 O -0.46328(12) 0.12045(7) 1.20967(8)
O3 O -0.52669(11) 0.03675(6) 1.00644(8)
H1 H -0.5668 0.0370 1.0738
O4 O 0.34095(12) -0.01274(6) 0.76267(9)
H2 H 0.3357 0.0113 0.8300
O5 O 0.13429(12) 0.08381(6) 0.84358(9)
O6 O -0.44843(11) 0.16491(5) 0.44568(8)
H3 H -0.4486 0.1523 0.3709
O7 O -0.39088(11) 0.21548(5) 0.68217(8)
H4 H -0.4708 0.2223 0.6302
C1 C 0.00609(19) 0.30929(10) 1.17676(12)
H5 H -0.0822 0.3318 1.2191
H6 H 0.0439 0.2597 1.2211
C2 C 0.1423(2) 0.37015(12) 1.18380(14)
H7 H 0.1032 0.4212 1.1448
H8 H 0.1798 0.3813 1.2715
C3 C 0.28069(19) 0.33859(11) 1.11863(14)
H9 H 0.3220 0.2887 1.1602
H10 H 0.3678 0.3788 1.1265
C4 C 0.23316(16) 0.32079(8) 0.98039(12)
C5 C 0.08670(15) 0.26334(7) 0.97150(10)
H11 H 0.1282 0.2123 1.0116
C6 C 0.02349(15) 0.23935(7) 0.84147(11)
C7 C -0.11236(15) 0.18086(7) 0.82957(11)
C8 C -0.20064(14) 0.16832(7) 0.92549(11)
C9 C -0.17206(15) 0.21546(7) 1.03966(11)
C10 C -0.05756(15) 0.28750(8) 1.04280(11)
C11 C -0.25642(16) 0.19828(8) 1.13523(11)
H12 H -0.2345 0.2272 1.2105
C12 C -0.37939(15) 0.13704(8) 1.12609(11)
C13 C -0.40897(15) 0.09233(8) 1.01025(11)
C14 C -0.32329(15) 0.10703(7) 0.91542(11)
H13 H -0.3434 0.0769 0.8412
C15 C 0.37274(16) 0.27622(11) 0.93223(13)
H14 H 0.3545 0.2721 0.8420
H15 H 0.3812 0.2222 0.9682
H16 H 0.4719 0.3058 0.9557
C16 C 0.20774(19) 0.40051(9) 0.90895(14)
H17 H 0.3105 0.4277 0.9070
H18 H 0.1355 0.4351 0.9502
H19 H 0.1610 0.3895 0.8243
C17 C -0.15738(17) 0.35771(8) 0.98234(14)
H20 H -0.1936 0.3442 0.8962
H21 H -0.0918 0.4065 0.9848
H22 H -0.2501 0.3670 1.0276
C18 C 0.07455(16) 0.02869(8) 0.34784(11)
H23 H -0.0135 0.0092 0.2877
H24 H 0.0741 0.0882 0.3443
C19 C 0.23238(18) -0.00173(8) 0.30825(13)
H25 H 0.2212 -0.0087 0.2174
H26 H 0.3163 0.0390 0.3299
C20 C 0.28369(18) -0.08126(9) 0.36949(13)
H27 H 0.3803 -0.1012 0.3351
H28 H 0.1980 -0.1215 0.3511
C21 C 0.31926(17) -0.07156(8) 0.51066(13)
C22 C 0.19576(15) -0.01639(7) 0.56243(12)
C23 C 0.21489(15) 0.00943(8) 0.68032(13)
C24 C 0.10346(15) 0.06371(7) 0.73422(12)
C25 C -0.03731(15) 0.09177(7) 0.65613(11)
C26 C -0.06459(15) 0.06403(7) 0.53440(11)
C27 C 0.04108(15) 0.00182(7) 0.48080(11)
C28 C -0.20184(16) 0.09018(7) 0.46219(11)
H29 H -0.2206 0.0732 0.3785
C29 C -0.31077(15) 0.14009(7) 0.50956(11)
C30 C -0.28534(15) 0.16669(7) 0.63385(11)
C31 C -0.14703(15) 0.14410(7) 0.70536(11)
C32 C 0.48832(18) -0.03547(10) 0.53583(16)
H30 H 0.5165 -0.0299 0.6252
H31 H 0.4906 0.0175 0.4966
H32 H 0.5652 -0.0711 0.5017
C33 C 0.31961(18) -0.15397(8) 0.57339(14)
H33 H 0.3444 -0.1474 0.6629
H34 H 0.4003 -0.1884 0.5416
H35 H 0.2143 -0.1789 0.5558
C34 C -0.05906(16) -0.07705(8) 0.47102(12)
H36 H -0.0780 -0.0949 0.5540
H37 H -0.0007 -0.1189 0.4310
H38 H -0.1615 -0.0670 0.4219
C35 C 0.22158(17) 0.22658(10) 0.48077(14)
H39 H 0.1105 0.2442 0.4794
H40 H 0.2270 0.1680 0.4897
H41 H 0.2628 0.2423 0.4034
O8 O 0.31441(12) 0.26294(7) 0.58135(9)
H42 H 0.2596 0.2676 0.6410
loop_
_geom_bond_atom_site_label_1
_geom_bond_atom_site_label_2
_geom_bond_site_symmetry_1
_geom_bond_site_symmetry_2
O1 C6 1_555 1_555
O2 C12 1_555 1_555
O3 H1 1_555 1_555
O4 H2 1_555 1_555
O5 C24 1_555 1_555
O6 H3 1_555 1_555
O7 H4 1_555 1_555
C1 H5 1_555 1_555
H6 C1 1_555 1_555
C2 C1 1_555 1_555
H7 C2 1_555 1_555
H8 C2 1_555 1_555
C3 C2 1_555 1_555
H9 C3 1_555 1_555
H10 C3 1_555 1_555
C4 C3 1_555 1_555
C5 C4 1_555 1_555
H11 C5 1_555 1_555
C6 C5 1_555 1_555
C7 C6 1_555 1_555
C8 C7 1_555 1_555
C9 C8 1_555 1_555
C10 C1 1_555 1_555
C11 C9 1_555 1_555
H12 C11 1_555 1_555
C12 C11 1_555 1_555
C13 O3 1_555 1_555
C14 C8 1_555 1_555
H13 C14 1_555 1_555
C15 C4 1_555 1_555
H14 C15 1_555 1_555
H15 C15 1_555 1_555
H16 C15 1_555 1_555
C16 C4 1_555 1_555
H17 C16 1_555 1_555
H18 C16 1_555 1_555
H19 C16 1_555 1_555
C17 C10 1_555 1_555
H20 C17 1_555 1_555
H21 C17 1_555 1_555
H22 C17 1_555 1_555
C18 H23 1_555 1_555
H24 C18 1_555 1_555
C19 C18 1_555 1_555
H25 C19 1_555 1_555
H26 C19 1_555 1_555
C20 C19 1_555 1_555
H27 C20 1_555 1_555
H28 C20 1_555 1_555
C21 C20 1_555 1_555
C22 C21 1_555 1_555
C23 O4 1_555 1_555
C24 C23 1_555 1_555
C25 C24 1_555 1_555
C26 C25 1_555 1_555
C27 C18 1_555 1_555
C28 C26 1_555 1_555
H29 C28 1_555 1_555
C29 O6 1_555 1_555
C30 O7 1_555 1_555
C31 C7 1_555 1_555
C32 C21 1_555 1_555
H30 C32 1_555 1_555
H31 C32 1_555 1_555
H32 C32 1_555 1_555
C33 C21 1_555 1_555
H33 C33 1_555 1_555
H34 C33 1_555 1_555
H35 C33 1_555 1_555
C34 C27 1_555 1_555
H36 C34 1_555 1_555
H37 C34 1_555 1_555
H38 C34 1_555 1_555
C35 H39 1_555 1_555
H40 C35 1_555 1_555
H41 C35 1_555 1_555
O8 C35 1_555 1_555
H42 O8 1_555 1_555
C5 C10 1_555 1_555
C9 C10 1_555 1_555
C12 C13 1_555 1_555
C13 C14 1_555 1_555
C22 C23 1_555 1_555
C22 C27 1_555 1_555
C25 C31 1_555 1_555
C26 C27 1_555 1_555
C28 C29 1_555 1_555
C29 C30 1_555 1_555
C30 C31 1_555 1_555

#END
