
#######################################################################
#
#                 Cambridge Crystallographic Data Centre
#                                CCDC 
#
#######################################################################
#
# If this CIF has been generated from an entry in the Cambridge 
# Structural Database, then it will include bibliographic, chemical, 
# crystal, experimental, refinement or atomic coordinate data resulting 
# from the CCDC's data processing and validation procedures.
#
#######################################################################

data_RIMMAD
_chemical_compound_source        'Withania coagulans'
_chemical_name_common            'Withacoagulin G'
_chemical_formula_moiety         'C28 H38 O6'
_chemical_name_systematic        
17,20,27-Trihydroxy-22,26-epoxyergosta-2,5,24-triene-1,26-dione
_symmetry_cell_setting           orthorhombic
_symmetry_space_group_name_H-M   'P 21 21 21'
_symmetry_Int_Tables_number      19
_space_group_name_Hall           'P 2ac 2ab'
loop_
_symmetry_equiv_pos_site_id
_symmetry_equiv_pos_as_xyz
1 x,y,z
2 1/2+x,1/2-y,-z
3 -x,1/2+y,1/2-z
4 1/2-x,-y,1/2+z
_cell_length_a                   5.9170(5)
_cell_length_b                   18.7995(14)
_cell_length_c                   22.8056(16)
_cell_angle_alpha                90
_cell_angle_beta                 90
_cell_angle_gamma                90
_cell_volume                     2536.82
_exptl_crystal_colour            white
_exptl_crystal_description       'flat plate'
_cell_formula_units_Z            4
loop_
_atom_site_label
_atom_site_type_symbol
_atom_site_fract_x
_atom_site_fract_y
_atom_site_fract_z
O1 O 0.0437(16) -0.2974(4) 0.7492(4)
O2 O 0.0019(10) 0.0235(3) 0.6483(3)
O3 O 0.5650(10) 0.0812(3) 0.5965(3)
O4 O 0.1505(11) 0.1559(4) 0.5705(3)
O5 O -0.0616(12) 0.2168(4) 0.5096(3)
O6 O 0.1174(14) 0.3860(4) 0.5255(4)
C1 C 0.1076(19) -0.3320(6) 0.7076(5)
C2 C 0.0805(18) -0.4100(6) 0.7075(5)
C3 C 0.091(2) -0.4475(6) 0.6596(5)
C4 C 0.139(3) -0.4175(6) 0.6008(5)
C5 C 0.1257(19) -0.3362(5) 0.6005(5)
C6 C 0.025(2) -0.3033(5) 0.5556(4)
C7 C 0.0060(17) -0.2249(5) 0.5500(4)
C8 C 0.1692(19) -0.1868(4) 0.5899(4)
C9 C 0.1608(15) -0.2165(5) 0.6516(4)
C10 C 0.2088(15) -0.2975(5) 0.6534(4)
C11 C 0.2992(18) -0.1721(5) 0.6944(4)
C12 C 0.2523(19) -0.0910(5) 0.6917(4)
C13 C 0.2877(15) -0.0631(5) 0.6297(4)
C14 C 0.1277(17) -0.1068(5) 0.5903(4)
C15 C 0.1183(19) -0.0671(5) 0.5323(4)
C16 C 0.1482(18) 0.0109(5) 0.5490(4)
C17 C 0.2099(14) 0.0143(5) 0.6150(4)
C18 C 0.5355(18) -0.0738(5) 0.6093(5)
C19 C 0.4685(19) -0.3123(5) 0.6577(5)
C20 C 0.3663(16) 0.0781(5) 0.6327(4)
C21 C 0.4586(17) 0.0707(5) 0.6956(4)
C22 C 0.2442(19) 0.1505(5) 0.6296(4)
C23 C 0.3809(18) 0.2144(5) 0.6442(4)
C24 C 0.2608(19) 0.2839(6) 0.6287(5)
C25 C 0.0945(15) 0.2830(6) 0.5883(4)
C26 C 0.0539(17) 0.2177(5) 0.5538(5)
C27 C -0.0210(18) 0.3491(5) 0.5668(5)
C28 C 0.344(3) 0.3471(6) 0.6608(6)
H1 H 0.0532 -0.4331 0.7428
H2 H 0.0705 -0.4964 0.6625
H3 H 0.2892 -0.4335 0.5901
H4 H 0.0295 -0.4385 0.5742
H5 H -0.0308 -0.3311 0.5251
H6 H 0.0279 -0.2116 0.5092
H7 H -0.1464 -0.2126 0.5619
H8 H 0.3218 -0.1950 0.5746
H9 H 0.0032 -0.2110 0.6640
H10 H 0.2711 -0.1898 0.7336
H11 H 0.4566 -0.1798 0.6842
H12 H 0.0966 -0.0828 0.7031
H13 H 0.3520 -0.0651 0.7179
H14 H -0.0223 -0.1010 0.6079
H15 H 0.2370 -0.0846 0.5068
H16 H -0.0275 -0.0750 0.5139
H17 H 0.2687 0.0315 0.5257
H18 H 0.0087 0.0365 0.5418
H19 H 0.5500 -0.0598 0.5690
H20 H 0.5766 -0.1229 0.6133
H21 H 0.6338 -0.0452 0.6331
H22 H 0.5432 -0.2961 0.6229
H23 H 0.4911 -0.3626 0.6620
H24 H 0.5301 -0.2881 0.6912
H25 H 0.5051 0.0224 0.7018
H26 H 0.5856 0.1018 0.7010
H27 H 0.3422 0.0828 0.7231
H28 H 0.1179 0.1491 0.6573
H29 H 0.5207 0.2110 0.6221
H30 H 0.4140 0.2120 0.6858
H31 H -0.1627 0.3383 0.5473
H32 H -0.0485 0.3831 0.5980
H33 H 0.4622 0.3338 0.6873
H34 H 0.2210 0.3678 0.6824
H35 H 0.4002 0.3812 0.6331
H36 H -0.0432 0.0641 0.6422
H37 H 0.5282 0.0890 0.5625
H38 H 0.1413 0.3595 0.4977
loop_
_geom_bond_atom_site_label_1
_geom_bond_atom_site_label_2
_geom_bond_site_symmetry_1
_geom_bond_site_symmetry_2
O1 C1 1_555 1_555
O2 C17 1_555 1_555
O3 C20 1_555 1_555
O4 C22 1_555 1_555
O5 C26 1_555 1_555
O6 C27 1_555 1_555
C1 C2 1_555 1_555
C2 C3 1_555 1_555
C3 C4 1_555 1_555
C4 C5 1_555 1_555
C5 C6 1_555 1_555
C6 C7 1_555 1_555
C7 C8 1_555 1_555
C8 C9 1_555 1_555
C9 C10 1_555 1_555
C10 C1 1_555 1_555
C11 C9 1_555 1_555
C12 C11 1_555 1_555
C13 C12 1_555 1_555
C14 C8 1_555 1_555
C15 C14 1_555 1_555
C16 C15 1_555 1_555
C17 C13 1_555 1_555
C18 C13 1_555 1_555
C19 C10 1_555 1_555
C20 C17 1_555 1_555
C21 C20 1_555 1_555
C22 C20 1_555 1_555
C23 C22 1_555 1_555
C24 C23 1_555 1_555
C25 C24 1_555 1_555
C26 O4 1_555 1_555
C27 C25 1_555 1_555
C28 C24 1_555 1_555
H1 C2 1_555 1_555
H2 C3 1_555 1_555
H3 C4 1_555 1_555
H4 C4 1_555 1_555
H5 C6 1_555 1_555
H6 C7 1_555 1_555
H7 C7 1_555 1_555
H8 C8 1_555 1_555
H9 C9 1_555 1_555
H10 C11 1_555 1_555
H11 C11 1_555 1_555
H12 C12 1_555 1_555
H13 C12 1_555 1_555
H14 C14 1_555 1_555
H15 C15 1_555 1_555
H16 C15 1_555 1_555
H17 C16 1_555 1_555
H18 C16 1_555 1_555
H19 C18 1_555 1_555
H20 C18 1_555 1_555
H21 C18 1_555 1_555
H22 C19 1_555 1_555
H23 C19 1_555 1_555
H24 C19 1_555 1_555
H25 C21 1_555 1_555
H26 C21 1_555 1_555
H27 C21 1_555 1_555
H28 C22 1_555 1_555
H29 C23 1_555 1_555
H30 C23 1_555 1_555
H31 C27 1_555 1_555
H32 C27 1_555 1_555
H33 C28 1_555 1_555
H34 C28 1_555 1_555
H35 C28 1_555 1_555
H36 O2 1_555 1_555
H37 O3 1_555 1_555
H38 O6 1_555 1_555
C5 C10 1_555 1_555
C13 C14 1_555 1_555
C16 C17 1_555 1_555
C25 C26 1_555 1_555

#END
