
#######################################################################
#
#                 Cambridge Crystallographic Data Centre
#                                CCDC 
#
#######################################################################
#
# If this CIF has been generated from an entry in the Cambridge 
# Structural Database, then it will include bibliographic, chemical, 
# crystal, experimental, refinement or atomic coordinate data resulting 
# from the CCDC's data processing and validation procedures.
#
#######################################################################

data_RINLUY
_chemical_formula_moiety         'C34 H55 B2 N2 Na1 O2'
_chemical_name_systematic        
"[1'-(9-borabicyclo[3.3.1]nonan-9-yl)-3',9-dihydro-1'H-spiro[9\l^5^-borabicyclo[3.3.1]nonane-9,2'-naphtho[1,8-de][1,3,2]diazaborinine]]-bis(diethyl ether)-sodium"
_symmetry_cell_setting           monoclinic
_symmetry_space_group_name_H-M   'C c'
_symmetry_Int_Tables_number      9
_space_group_name_Hall           'C -2yc'
loop_
_symmetry_equiv_pos_site_id
_symmetry_equiv_pos_as_xyz
1 x,y,z
2 x,-y,1/2+z
3 1/2+x,1/2+y,z
4 1/2+x,1/2-y,1/2+z
_cell_length_a                   17.2156(9)
_cell_length_b                   17.6135(9)
_cell_length_c                   10.7091(5)
_cell_angle_alpha                90
_cell_angle_beta                 91.2790(10)
_cell_angle_gamma                90
_cell_volume                     3246.48
_exptl_crystal_colour            colorless
_exptl_crystal_description       prism
_cell_formula_units_Z            4
loop_
_atom_site_label
_atom_site_type_symbol
_atom_site_fract_x
_atom_site_fract_y
_atom_site_fract_z
Na1 Na 0.54873(5) 0.23307(5) 0.60963(8)
O1 O 0.56096(10) 0.21018(9) 0.82689(14)
O2 O 0.60138(9) 0.12414(9) 0.52034(16)
N1 N 0.41378(11) 0.24583(10) 0.56364(16)
H1 H 0.3922(19) 0.2384(17) 0.631(3)
N2 N 0.47135(10) 0.32511(9) 0.39909(15)
C1 C 0.38811(12) 0.19199(12) 0.47731(19)
C2 C 0.35247(13) 0.12431(12) 0.5111(2)
H2 H 0.343530 0.114284 0.596788
C3 C 0.32955(13) 0.07072(12) 0.4207(2)
H3 H 0.307236 0.024090 0.446404
C4 C 0.33882(13) 0.08451(13) 0.2958(2)
H4 H 0.323527 0.047380 0.235790
C5 C 0.37133(12) 0.15440(12) 0.2565(2)
C6 C 0.37574(13) 0.17372(13) 0.1280(2)
H5 H 0.360298 0.137854 0.066051
C7 C 0.40204(13) 0.24348(14) 0.0931(2)
H6 H 0.401385 0.256968 0.007232
C8 C 0.43018(12) 0.29584(12) 0.18301(19)
H7 H 0.446847 0.344648 0.157013
C9 C 0.43385(11) 0.27716(11) 0.30805(18)
C10 C 0.39854(12) 0.20779(12) 0.34753(19)
C11 C 0.32939(11) 0.36142(12) 0.48086(18)
H8 H 0.309189 0.329824 0.409677
C12 C 0.33141(12) 0.44446(12) 0.43742(19)
H9 H 0.365072 0.448501 0.363963
H10 H 0.278342 0.460247 0.411078
C13 C 0.36163(13) 0.49823(12) 0.5393(2)
H11 H 0.322556 0.502009 0.605442
H12 H 0.368357 0.549472 0.503110
C14 C 0.43931(12) 0.47194(12) 0.5980(2)
H13 H 0.449669 0.502396 0.674268
H14 H 0.481029 0.483397 0.538708
C15 C 0.44477(12) 0.38683(12) 0.63343(18)
H15 H 0.500140 0.374857 0.655711
C16 C 0.39467(13) 0.36868(13) 0.74717(19)
H16 H 0.409840 0.403383 0.816237
H17 H 0.406292 0.316242 0.775114
C17 C 0.30632(12) 0.37584(13) 0.72262(19)
H18 H 0.291586 0.429785 0.732718
H19 H 0.279349 0.346503 0.787530
C18 C 0.27605(12) 0.34859(13) 0.5931(2)
H20 H 0.265116 0.293534 0.598867
H21 H 0.225999 0.374410 0.574853
C19 C 0.59796(12) 0.32475(11) 0.25688(18)
H22 H 0.566335 0.289080 0.203835
C20 C 0.67089(13) 0.28255(13) 0.3062(2)
H23 H 0.654087 0.236415 0.350964
H24 H 0.701379 0.265857 0.233873
C21 C 0.72384(13) 0.32855(13) 0.3934(2)
H25 H 0.751388 0.367264 0.344071
H26 H 0.763368 0.294391 0.431599
C22 C 0.67939(13) 0.36816(12) 0.4972(2)
H27 H 0.713205 0.408219 0.533821
H28 H 0.669710 0.330562 0.563820
C23 C 0.60100(12) 0.40464(12) 0.45822(18)
H29 H 0.572320 0.418338 0.535218
C24 C 0.61114(13) 0.47702(12) 0.3782(2)
H30 H 0.559375 0.500170 0.363078
H31 H 0.642950 0.513909 0.426750
C25 C 0.64928(14) 0.46433(13) 0.2516(2)
H32 H 0.705879 0.457609 0.265872
H33 H 0.641652 0.510450 0.199924
C26 C 0.61776(13) 0.39554(13) 0.17815(19)
H34 H 0.656739 0.380734 0.116084
H35 H 0.570256 0.411445 0.131344
C27 C 0.61681(16) 0.24752(16) 0.9073(2)
H36 H 0.659729 0.212105 0.928755
H37 H 0.591830 0.262900 0.985775
C28 C 0.64831(17) 0.31571(15) 0.8438(2)
H38 H 0.674962 0.300065 0.768071
H39 H 0.685128 0.341781 0.900182
H40 H 0.605568 0.350186 0.821233
C29 C 0.53669(15) 0.13969(14) 0.8811(2)
H41 H 0.523156 0.147802 0.969452
H42 H 0.579667 0.102413 0.878649
C30 C 0.46736(16) 0.10957(15) 0.8094(3)
H43 H 0.480194 0.104195 0.721157
H44 H 0.423773 0.144921 0.817224
H45 H 0.452848 0.059947 0.843072
C31 C 0.67786(14) 0.09612(14) 0.5479(2)
H46 H 0.708268 0.094406 0.470522
H47 H 0.674802 0.043983 0.581938
C32 C 0.71702(15) 0.14743(15) 0.6415(3)
H48 H 0.722086 0.198364 0.605715
H49 H 0.768703 0.127413 0.663069
H50 H 0.685869 0.150080 0.716829
C33 C 0.55778(14) 0.07513(13) 0.4368(2)
H51 H 0.501872 0.087355 0.442918
H52 H 0.565081 0.021889 0.464228
C34 C 0.58057(19) 0.0816(2) 0.3023(3)
H53 H 0.548595 0.047032 0.251055
H54 H 0.635475 0.068054 0.294662
H55 H 0.572455 0.133863 0.273486
B1 B 0.41703(13) 0.33147(12) 0.5181(2)
B2 B 0.54782(13) 0.34933(12) 0.3746(2)
loop_
_geom_bond_atom_site_label_1
_geom_bond_atom_site_label_2
_geom_bond_site_symmetry_1
_geom_bond_site_symmetry_2
Na1 O1 1_555 1_555
O1 C27 1_555 1_555
O2 Na1 1_555 1_555
N1 Na1 1_555 1_555
H1 N1 1_555 1_555
N2 C9 1_555 1_555
C1 N1 1_555 1_555
C2 C1 1_555 1_555
H2 C2 1_555 1_555
C3 C2 1_555 1_555
H3 C3 1_555 1_555
C4 C3 1_555 1_555
H4 C4 1_555 1_555
C5 C4 1_555 1_555
C6 C5 1_555 1_555
H5 C6 1_555 1_555
C7 C6 1_555 1_555
H6 C7 1_555 1_555
C8 C7 1_555 1_555
H7 C8 1_555 1_555
C9 C8 1_555 1_555
C10 C1 1_555 1_555
C11 H8 1_555 1_555
C12 C11 1_555 1_555
H9 C12 1_555 1_555
H10 C12 1_555 1_555
C13 C12 1_555 1_555
H11 C13 1_555 1_555
H12 C13 1_555 1_555
C14 C13 1_555 1_555
H13 C14 1_555 1_555
H14 C14 1_555 1_555
C15 C14 1_555 1_555
H15 C15 1_555 1_555
C16 C15 1_555 1_555
H16 C16 1_555 1_555
H17 C16 1_555 1_555
C17 C16 1_555 1_555
H18 C17 1_555 1_555
H19 C17 1_555 1_555
C18 C11 1_555 1_555
H20 C18 1_555 1_555
H21 C18 1_555 1_555
C19 H22 1_555 1_555
C20 C19 1_555 1_555
H23 C20 1_555 1_555
H24 C20 1_555 1_555
C21 C20 1_555 1_555
H25 C21 1_555 1_555
H26 C21 1_555 1_555
C22 C21 1_555 1_555
H27 C22 1_555 1_555
H28 C22 1_555 1_555
C23 C22 1_555 1_555
H29 C23 1_555 1_555
C24 C23 1_555 1_555
H30 C24 1_555 1_555
H31 C24 1_555 1_555
C25 C24 1_555 1_555
H32 C25 1_555 1_555
H33 C25 1_555 1_555
C26 C19 1_555 1_555
H34 C26 1_555 1_555
H35 C26 1_555 1_555
C27 H36 1_555 1_555
H37 C27 1_555 1_555
C28 C27 1_555 1_555
H38 C28 1_555 1_555
H39 C28 1_555 1_555
H40 C28 1_555 1_555
C29 O1 1_555 1_555
H41 C29 1_555 1_555
H42 C29 1_555 1_555
C30 C29 1_555 1_555
H43 C30 1_555 1_555
H44 C30 1_555 1_555
H45 C30 1_555 1_555
C31 O2 1_555 1_555
H46 C31 1_555 1_555
H47 C31 1_555 1_555
C32 C31 1_555 1_555
H48 C32 1_555 1_555
H49 C32 1_555 1_555
H50 C32 1_555 1_555
C33 O2 1_555 1_555
H51 C33 1_555 1_555
H52 C33 1_555 1_555
C34 C33 1_555 1_555
H53 C34 1_555 1_555
H54 C34 1_555 1_555
H55 C34 1_555 1_555
B1 N1 1_555 1_555
B2 N2 1_555 1_555
N2 B1 1_555 1_555
C5 C10 1_555 1_555
C9 C10 1_555 1_555
C11 B1 1_555 1_555
C15 B1 1_555 1_555
C17 C18 1_555 1_555
C19 B2 1_555 1_555
C23 B2 1_555 1_555
C25 C26 1_555 1_555

#END
