
#######################################################################
#
#                 Cambridge Crystallographic Data Centre
#                                CCDC 
#
#######################################################################
#
# If this CIF has been generated from an entry in the Cambridge 
# Structural Database, then it will include bibliographic, chemical, 
# crystal, experimental, refinement or atomic coordinate data resulting 
# from the CCDC's data processing and validation procedures.
#
#######################################################################

data_RINNUZ01
_chemical_formula_moiety         'C27 H39 N3 O6'
_chemical_name_systematic        'Benzene-1,3,5-triyl tris(cyclohexylcarbamate)'
_symmetry_cell_setting           triclinic
_symmetry_space_group_name_H-M   'P -1'
_symmetry_Int_Tables_number      2
_space_group_name_Hall           '-P 1'
loop_
_symmetry_equiv_pos_site_id
_symmetry_equiv_pos_as_xyz
1 x,y,z
2 -x,-y,-z
_cell_length_a                   9.8219(3)
_cell_length_b                   12.3012(4)
_cell_length_c                   12.6085(4)
_cell_angle_alpha                109.671(2)
_cell_angle_beta                 102.008(2)
_cell_angle_gamma                94.201(2)
_cell_volume                     1386
_exptl_crystal_colour            colorless
_exptl_crystal_description       plate
_cell_formula_units_Z            2
loop_
_atom_site_label
_atom_site_type_symbol
_atom_site_fract_x
_atom_site_fract_y
_atom_site_fract_z
O1 O 0.05739(17) 0.38525(14) 0.80065(14)
O2 O -0.0978(3) 0.24584(17) 0.65188(18)
O3 O 0.09833(15) 0.63566(15) 0.58179(13)
O4 O 0.32111(16) 0.64594(19) 0.68395(15)
O5 O -0.26806(15) 0.65438(16) 0.77084(14)
O6 O -0.20895(18) 0.68550(19) 0.96376(15)
N1 N 0.0386(2) 0.20370(19) 0.79661(19)
H1 H 0.1079 0.2312 0.8573
N2 N 0.27751(19) 0.6822(2) 0.51737(18)
H2 H 0.2119 0.6849 0.4617
N3 N -0.4301(2) 0.6901(2) 0.87092(17)
H3 H -0.4814 0.6871 0.8055
C1 C 0.0090(2) 0.47051(19) 0.75807(18)
C2 C 0.0811(2) 0.5061(2) 0.68975(19)
H4 H 0.1565 0.4710 0.6677
C3 C 0.0374(2) 0.59570(19) 0.65517(17)
C4 C -0.0758(2) 0.6478(2) 0.68544(18)
H5 H -0.1036 0.7083 0.6616
C5 C -0.1465(2) 0.6074(2) 0.75216(19)
C6 C -0.1046(2) 0.5193(2) 0.79069(19)
H6 H -0.1515 0.4939 0.8370
C7 C -0.0076(3) 0.2737(2) 0.7406(2)
C8 C -0.0270(4) 0.0791(3) 0.7567(3)
H7 H -0.1292 0.0747 0.7317
C9 C 0.0227(5) 0.0100(4) 0.6548(3)
H8 H 0.0102 0.0480 0.5981
H9 H -0.0339 -0.0670 0.6188
C10 C 0.1753(5) -0.0024(4) 0.6884(4)
H10 H 0.2028 -0.0501 0.6200
H11 H 0.2327 0.0741 0.7181
C11 C 0.2026(4) -0.0573(4) 0.7791(4)
H12 H 0.1517 -0.1364 0.7478
H13 H 0.3023 -0.0608 0.8013
C12 C 0.1557(5) 0.0131(4) 0.8830(3)
H14 H 0.2148 0.0890 0.9192
H15 H 0.1676 -0.0257 0.9390
C13 C 0.0031(4) 0.0299(3) 0.8524(3)
H16 H -0.0571 -0.0447 0.8281
H17 H -0.0195 0.0825 0.9211
C14 C 0.2425(2) 0.6542(2) 0.60115(18)
C15 C 0.4249(2) 0.7088(2) 0.5162(2)
H18 H 0.4830 0.6868 0.5766
C16 C 0.4675(4) 0.8337(4) 0.5450(6)
H19 H 0.4564 0.8766 0.6221
H20 H 0.4071 0.8597 0.4900
C17 C 0.6228(5) 0.8596(5) 0.5417(8)
H21 H 0.6461 0.9415 0.5535
H22 H 0.6841 0.8442 0.6042
C18 C 0.6472(5) 0.7855(8) 0.4274(6)
H23 H 0.5942 0.8076 0.3659
H24 H 0.7464 0.7996 0.4295
C19 C 0.6051(4) 0.6631(6) 0.4020(5)
H25 H 0.6642 0.6391 0.4593
H26 H 0.6183 0.6183 0.3262
C20 C 0.4517(4) 0.6375(4) 0.4030(4)
H27 H 0.3920 0.6544 0.3406
H28 H 0.4276 0.5552 0.3892
C21 C -0.2971(2) 0.6771(2) 0.87816(19)
C22 C -0.4945(2) 0.7092(3) 0.9688(2)
H29 H -0.4209 0.7169 1.0378
C23 C -0.6046(3) 0.6051(3) 0.9442(3)
H30 H -0.5603 0.5355 0.9329
H31 H -0.6749 0.5932 0.8731
C24 C -0.6765(5) 0.6233(4) 1.0440(3)
H32 H -0.7514 0.5583 1.0228
H33 H -0.6085 0.6242 1.1123
C25 C -0.7360(5) 0.7339(5) 1.0725(4)
H34 H -0.7720 0.7454 1.1409
H35 H -0.8143 0.7279 1.0085
C26 C -0.6291(5) 0.8378(4) 1.0948(4)
H36 H -0.5575 0.8509 1.1656
H37 H -0.6748 0.9067 1.1061
C27 C -0.5591(4) 0.8197(3) 0.9936(3)
H38 H -0.6288 0.8152 0.9248
H39 H -0.4866 0.8859 1.0127
loop_
_geom_bond_atom_site_label_1
_geom_bond_atom_site_label_2
_geom_bond_site_symmetry_1
_geom_bond_site_symmetry_2
O1 C1 1_555 1_555
O2 C7 1_555 1_555
O3 C3 1_555 1_555
O4 C14 1_555 1_555
O5 C5 1_555 1_555
O6 C21 1_555 1_555
N1 H1 1_555 1_555
N2 H2 1_555 1_555
N3 H3 1_555 1_555
C1 C2 1_555 1_555
C2 H4 1_555 1_555
C3 C2 1_555 1_555
C4 C3 1_555 1_555
H5 C4 1_555 1_555
C5 C4 1_555 1_555
C6 C1 1_555 1_555
H6 C6 1_555 1_555
C7 O1 1_555 1_555
C8 N1 1_555 1_555
H7 C8 1_555 1_555
C9 C8 1_555 1_555
H8 C9 1_555 1_555
H9 C9 1_555 1_555
C10 C9 1_555 1_555
H10 C10 1_555 1_555
H11 C10 1_555 1_555
C11 C10 1_555 1_555
H12 C11 1_555 1_555
H13 C11 1_555 1_555
C12 C11 1_555 1_555
H14 C12 1_555 1_555
H15 C12 1_555 1_555
C13 C8 1_555 1_555
H16 C13 1_555 1_555
H17 C13 1_555 1_555
C14 O3 1_555 1_555
C15 N2 1_555 1_555
H18 C15 1_555 1_555
C16 C15 1_555 1_555
H19 C16 1_555 1_555
H20 C16 1_555 1_555
C17 C16 1_555 1_555
H21 C17 1_555 1_555
H22 C17 1_555 1_555
C18 C17 1_555 1_555
H23 C18 1_555 1_555
H24 C18 1_555 1_555
C19 C18 1_555 1_555
H25 C19 1_555 1_555
H26 C19 1_555 1_555
C20 C15 1_555 1_555
H27 C20 1_555 1_555
H28 C20 1_555 1_555
C21 O5 1_555 1_555
C22 N3 1_555 1_555
H29 C22 1_555 1_555
C23 C22 1_555 1_555
H30 C23 1_555 1_555
H31 C23 1_555 1_555
C24 C23 1_555 1_555
H32 C24 1_555 1_555
H33 C24 1_555 1_555
C25 C24 1_555 1_555
H34 C25 1_555 1_555
H35 C25 1_555 1_555
C26 C25 1_555 1_555
H36 C26 1_555 1_555
H37 C26 1_555 1_555
C27 C22 1_555 1_555
H38 C27 1_555 1_555
H39 C27 1_555 1_555
N1 C7 1_555 1_555
N2 C14 1_555 1_555
N3 C21 1_555 1_555
C5 C6 1_555 1_555
C12 C13 1_555 1_555
C19 C20 1_555 1_555
C26 C27 1_555 1_555

#END
