
#######################################################################
#
#                 Cambridge Crystallographic Data Centre
#                                CCDC 
#
#######################################################################
#
# If this CIF has been generated from an entry in the Cambridge 
# Structural Database, then it will include bibliographic, chemical, 
# crystal, experimental, refinement or atomic coordinate data resulting 
# from the CCDC's data processing and validation procedures.
#
#######################################################################

data_RINPOV
_chemical_formula_moiety         'C27 H39 N3 O6,C5 H10'
_chemical_name_systematic        
'Benzene-1,3,5-triyl tris(cyclohexylcarbamate) cyclopentane clathrate'
_symmetry_cell_setting           triclinic
_symmetry_space_group_name_H-M   'P -1'
_symmetry_Int_Tables_number      2
_space_group_name_Hall           '-P 1'
loop_
_symmetry_equiv_pos_site_id
_symmetry_equiv_pos_as_xyz
1 x,y,z
2 -x,-y,-z
_cell_length_a                   10.0767(5)
_cell_length_b                   12.0867(5)
_cell_length_c                   14.5514(6)
_cell_angle_alpha                72.469(3)
_cell_angle_beta                 70.442(3)
_cell_angle_gamma                80.967(3)
_cell_volume                     1589.34
_exptl_crystal_colour            colorless
_exptl_crystal_description       prism
_cell_formula_units_Z            2
loop_
_atom_site_label
_atom_site_type_symbol
_atom_site_fract_x
_atom_site_fract_y
_atom_site_fract_z
O1 O 0.37821(14) 0.81109(12) 1.08540(10)
O2 O 0.44718(15) 0.68953(12) 1.21645(11)
O3 O 0.85172(13) 0.74170(12) 0.87496(12)
O4 O 0.82602(15) 0.93681(13) 0.85487(12)
O5 O 0.47982(13) 0.56165(11) 0.86459(11)
O6 O 0.27081(14) 0.66109(12) 0.85525(12)
N1 N 0.28697(17) 0.84122(14) 1.23715(12)
H1 H 0.2406 0.8984 1.2071
N2 N 1.03876(18) 0.83993(15) 0.84003(17)
H2 H 1.0835 0.7735 0.8383
N3 N 0.33535(16) 0.48728(14) 0.81770(13)
H3 H 0.4032 0.4347 0.8097
C1 C 0.47611(19) 0.75505(17) 1.01707(14)
C2 C 0.6158(2) 0.77917(18) 0.98360(16)
H4 H 0.6483 0.8267 1.0102
C3 C 0.70634(19) 0.73039(17) 0.90915(16)
C4 C 0.65829(19) 0.66128(17) 0.86804(15)
H5 H 0.7198 0.6307 0.8166
C5 C 0.51797(19) 0.63866(16) 0.90464(15)
C6 C 0.42466(19) 0.68344(16) 0.98058(15)
H6 H 0.3304 0.6660 1.0063
C7 C 0.37636(19) 0.77348(16) 1.18432(15)
C8 C 0.2654(2) 0.82108(17) 1.34475(15)
H7 H 0.3534 0.7854 1.3586
C9 C 0.1496(2) 0.7385(2) 1.40856(17)
H8 H 0.1741 0.6650 1.3911
H9 H 0.0620 0.7710 1.3944
C10 C 0.1293(3) 0.7179(2) 1.52163(18)
H10 H 0.0507 0.6693 1.5612
H11 H 0.2134 0.6773 1.5372
C11 C 0.1010(3) 0.8323(2) 1.55021(19)
H12 H 0.0102 0.8677 1.5433
H13 H 0.0964 0.8174 1.6205
C12 C 0.2141(3) 0.9158(2) 1.48456(17)
H14 H 0.3026 0.8848 1.4978
H15 H 0.1888 0.9894 1.5019
C13 C 0.2331(2) 0.93608(19) 1.37258(16)
H16 H 0.1477 0.9743 1.3577
H17 H 0.3098 0.9865 1.3325
C14 C 0.9008(2) 0.84913(17) 0.85665(15)
C15 C 1.1178(2) 0.93919(18) 0.82446(17)
H18 H 1.0550 1.0098 0.8173
C16 C 1.1676(2) 0.92518(19) 0.91431(17)
H19 H 1.2240 0.8525 0.9254
H20 H 1.0865 0.9218 0.9742
C17 C 1.2545(3) 1.0247(2) 0.8989(2)
H21 H 1.1955 1.0965 0.8944
H22 H 1.2882 1.0110 0.9567
C18 C 1.3765(3) 1.0369(3) 0.8056(2)
H23 H 1.4406 0.9682 0.8130
H24 H 1.4270 1.1035 0.7961
C19 C 1.2421(3) 0.9524(2) 0.72873(19)
H25 H 1.2080 0.9681 0.6708
H26 H 1.3006 0.8803 0.7320
C20 C 1.3311(3) 1.0519(3) 0.7151(2)
H27 H 1.4137 1.0547 0.6564
H28 H 1.2761 1.1253 0.7031
C21 C 0.35129(18) 0.57699(16) 0.84705(15)
C22 C 0.2057(2) 0.47557(17) 0.79866(18)
H29 H 0.1866 0.5536 0.7579
C23 C 0.2331(3) 0.4028(3) 0.7271(2)
H30 H 0.2737 0.3270 0.7549
H31 H 0.3009 0.4389 0.6636
C24 C 0.0983(3) 0.3877(3) 0.7075(2)
H32 H 0.0654 0.4622 0.6708
H33 H 0.1194 0.3348 0.6652
C25 C -0.0157(3) 0.3421(2) 0.8020(2)
H34 H 0.0158 0.2716 0.8447
H35 H -0.0985 0.3280 0.7883
C26 C -0.0351(5) 0.3869(10) 0.8894(7)
H36 H -0.0896 0.3339 0.9503
H37 H -0.0884 0.4615 0.8810
C27 C 0.1041(7) 0.4016(10) 0.9023(6)
H38 H 0.1500 0.3257 0.9232
H39 H 0.0864 0.4408 0.9549
C30 C 0.6289(3) 0.5673(3) 0.5682(2)
H44 H 0.5776 0.5055 0.6225
H45 H 0.6662 0.5412 0.5070
C31 C 0.5329(4) 0.6768(3) 0.5519(3)
H46 H 0.4351 0.6601 0.5884
H47 H 0.5423 0.7090 0.4806
C32 C 0.5809(3) 0.7618(3) 0.5926(3)
H48 H 0.5638 0.8417 0.5565
H49 H 0.5320 0.7515 0.6642
C33 C 0.7329(4) 0.7315(3) 0.5746(3)
H50 H 0.7669 0.7556 0.6201
H51 H 0.7859 0.7679 0.5054
C34 C 0.7459(3) 0.5995(3) 0.5954(3)
H52 H 0.8368 0.5743 0.5547
H53 H 0.7369 0.5632 0.6663
C28? C -0.0439(8) 0.4494(14) 0.8504(11)
H40? H -0.0614 0.5207 0.8019
H41? H -0.1262 0.4376 0.9100
C29? C 0.0859(12) 0.4586(14) 0.8793(8)
H42? H 0.0686 0.5226 0.9098
H43? H 0.1002 0.3878 0.9294
loop_
_geom_bond_atom_site_label_1
_geom_bond_atom_site_label_2
_geom_bond_site_symmetry_1
_geom_bond_site_symmetry_2
O1 C1 1_555 1_555
O2 C7 1_555 1_555
O3 C3 1_555 1_555
O4 C14 1_555 1_555
O5 C5 1_555 1_555
O6 C21 1_555 1_555
N1 H1 1_555 1_555
N2 H2 1_555 1_555
N3 H3 1_555 1_555
C1 C2 1_555 1_555
C2 H4 1_555 1_555
C3 C2 1_555 1_555
C4 C3 1_555 1_555
H5 C4 1_555 1_555
C5 C4 1_555 1_555
C6 C1 1_555 1_555
H6 C6 1_555 1_555
C7 O1 1_555 1_555
C8 N1 1_555 1_555
H7 C8 1_555 1_555
C9 C8 1_555 1_555
H8 C9 1_555 1_555
H9 C9 1_555 1_555
C10 C9 1_555 1_555
H10 C10 1_555 1_555
H11 C10 1_555 1_555
C11 C10 1_555 1_555
H12 C11 1_555 1_555
H13 C11 1_555 1_555
C12 C11 1_555 1_555
H14 C12 1_555 1_555
H15 C12 1_555 1_555
C13 C8 1_555 1_555
H16 C13 1_555 1_555
H17 C13 1_555 1_555
C14 O3 1_555 1_555
C15 N2 1_555 1_555
H18 C15 1_555 1_555
C16 C15 1_555 1_555
H19 C16 1_555 1_555
H20 C16 1_555 1_555
C17 C16 1_555 1_555
H21 C17 1_555 1_555
H22 C17 1_555 1_555
C18 C17 1_555 1_555
H23 C18 1_555 1_555
H24 C18 1_555 1_555
C19 C15 1_555 1_555
H25 C19 1_555 1_555
H26 C19 1_555 1_555
C20 C18 1_555 1_555
H27 C20 1_555 1_555
H28 C20 1_555 1_555
C21 O5 1_555 1_555
C22 N3 1_555 1_555
H29 C22 1_555 1_555
C23 C22 1_555 1_555
H30 C23 1_555 1_555
H31 C23 1_555 1_555
C24 C23 1_555 1_555
H32 C24 1_555 1_555
H33 C24 1_555 1_555
C25 C24 1_555 1_555
H34 C25 1_555 1_555
H35 C25 1_555 1_555
C26 C25 1_555 1_555
H36 C26 1_555 1_555
H37 C26 1_555 1_555
C27 C22 1_555 1_555
H38 C27 1_555 1_555
H39 C27 1_555 1_555
C30 H44 1_555 1_555
H45 C30 1_555 1_555
C31 C30 1_555 1_555
H46 C31 1_555 1_555
H47 C31 1_555 1_555
C32 C31 1_555 1_555
H48 C32 1_555 1_555
H49 C32 1_555 1_555
C33 C32 1_555 1_555
H50 C33 1_555 1_555
H51 C33 1_555 1_555
C34 C30 1_555 1_555
H52 C34 1_555 1_555
H53 C34 1_555 1_555
N1 C7 1_555 1_555
N2 C14 1_555 1_555
N3 C21 1_555 1_555
C5 C6 1_555 1_555
C12 C13 1_555 1_555
C19 C20 1_555 1_555
C26 C27 1_555 1_555
C33 C34 1_555 1_555

#END
