
#######################################################################
#
#                 Cambridge Crystallographic Data Centre
#                                CCDC 
#
#######################################################################
#
# If this CIF has been generated from an entry in the Cambridge 
# Structural Database, then it will include bibliographic, chemical, 
# crystal, experimental, refinement or atomic coordinate data resulting 
# from the CCDC's data processing and validation procedures.
#
#######################################################################

data_RINQEM
_chemical_formula_moiety         'C62 H82 Cl2 Mg5 O18'
_chemical_name_systematic        
(\m~5~-Oxo)-bis(\m~2~-chloro)-hexakis(\m~2~-4-methoxyphenoxo)-pentakis(tetrahydrofuran)-penta-magnesium
_symmetry_cell_setting           monoclinic
_symmetry_space_group_name_H-M   'P 21/c'
_symmetry_Int_Tables_number      14
_space_group_name_Hall           '-P 2ybc'
loop_
_symmetry_equiv_pos_site_id
_symmetry_equiv_pos_as_xyz
1 x,y,z
2 -x,1/2+y,1/2-z
3 -x,-y,-z
4 x,1/2-y,1/2+z
_cell_length_a                   14.4018(5)
_cell_length_b                   24.2154(8)
_cell_length_c                   19.5295(7)
_cell_angle_alpha                90
_cell_angle_beta                 104.5430(10)
_cell_angle_gamma                90
_cell_volume                     6592.6
_exptl_crystal_colour            colorless
_exptl_crystal_description       needle
_cell_formula_units_Z            4
loop_
_atom_site_label
_atom_site_type_symbol
_atom_site_fract_x
_atom_site_fract_y
_atom_site_fract_z
Cl1 Cl 0.135186(14) 0.607946(7) 0.135714(10)
Cl2 Cl 0.113955(14) 0.801134(7) 0.246632(9)
Mg1 Mg 0.132722(19) 0.672264(11) 0.040015(14)
Mg2 Mg -0.025369(18) 0.736935(11) 0.067461(14)
Mg3 Mg 0.115621(18) 0.820742(10) 0.125905(14)
Mg4 Mg 0.274950(18) 0.746498(11) 0.127134(14)
Mg5 Mg 0.125546(18) 0.702271(11) 0.197077(14)
O1 O 0.14105(5) 0.60718(2) -0.03141(3)
O2 O 0.00014(4) 0.69242(2) -0.01120(3)
O3 O -0.17617(4) 0.73587(3) 0.02840(3)
O4 O -0.01845(4) 0.81843(2) 0.06593(3)
O5 O 0.10596(4) 0.90644(2) 0.13816(3)
O6 O 0.24996(4) 0.82713(2) 0.11674(3)
O7 O 0.42495(4) 0.75799(3) 0.14972(3)
O8 O 0.26727(4) 0.69576(2) 0.04610(3)
O9 O 0.12722(4) 0.66732(2) 0.29520(3)
O10 O -0.01973(4) 0.69984(2) 0.15765(3)
O11 O 0.27045(4) 0.71052(2) 0.21614(3)
O12 O -0.27962(11) 0.58671(8) -0.21429(8)
O13 O -0.28850(4) 0.98038(3) 0.07135(4)
O14 O 0.46758(5) 1.01377(3) 0.21082(3)
O15 O 0.53738(5) 0.57122(3) -0.04279(4)
O16 O -0.26452(5) 0.59288(3) 0.29153(4)
O17 O 0.52711(5) 0.65523(3) 0.46819(4)
O18 O 0.12478(4) 0.73902(2) 0.10323(3)
C1 C 0.18829(9) 0.55521(5) -0.01170(6)
H1 H 0.1961 0.5476 0.0392
H2 H 0.2521 0.5547 -0.0221
C2 C 0.12160(13) 0.51389(7) -0.05689(9)
H3 H 0.0753 0.4993 -0.0316
H4 H 0.1581 0.4827 -0.0699
C3 C 0.06977(15) 0.54647(7) -0.12270(9)
H5 H 0.0841 0.5311 -0.1659
H6 H -0.0005 0.5461 -0.1285
C4 C 0.11024(11) 0.60493(6) -0.10766(7)
H7 H 0.1649 0.6109 -0.1291
H8 H 0.0603 0.6330 -0.1262
C5 C -0.06700(5) 0.66444(3) -0.05965(4)
C6 C -0.10741(6) 0.61608(4) -0.04207(4)
H9 H -0.0870 0.6021 0.0048
C7 C -0.17750(7) 0.58763(4) -0.09197(5)
H10 H -0.2048 0.5548 -0.0789
C8 C -0.20716(7) 0.60745(4) -0.16062(5)
C9 C -0.16677(6) 0.65571(4) -0.17918(4)
H11 H -0.1866 0.6693 -0.2262
C10 C -0.09761(6) 0.68393(3) -0.12906(4)
H12 H -0.0707 0.7169 -0.1421
C11 C -0.33251(16) 0.54267(12) -0.19420(11)
H13 H -0.3843 0.5316 -0.2348
H14 H -0.3599 0.5549 -0.1556
H15 H -0.2898 0.5112 -0.1784
C12 C -0.24620(6) 0.69963(5) 0.04731(5)
H16 H -0.2524 0.7081 0.0955
H17 H -0.2267 0.6605 0.0458
C13 C -0.34073(6) 0.71022(5) -0.00713(5)
H18 H -0.3777 0.6756 -0.0196
H19 H -0.3804 0.7374 0.0107
C14 C -0.30891(6) 0.73307(4) -0.07028(5)
H20 H -0.2904 0.7032 -0.0988
H21 H -0.3596 0.7560 -0.1010
C15 C -0.22325(6) 0.76752(4) -0.03353(5)
H22 H -0.1796 0.7734 -0.0648
H23 H -0.2440 0.8039 -0.0197
C16 C -0.08661(5) 0.85661(3) 0.06825(4)
C17 C -0.11950(6) 0.89288(3) 0.01167(5)
H24 H -0.0952 0.8899 -0.0291
C18 C -0.18724(6) 0.93331(3) 0.01419(5)
H25 H -0.2087 0.9577 -0.0247
C19 C -0.22363(5) 0.93813(3) 0.07351(5)
C20 C -0.19387(6) 0.90135(3) 0.12960(5)
H26 H -0.2198 0.9037 0.1697
C21 C -0.12559(6) 0.86102(3) 0.12653(4)
H27 H -0.1053 0.8361 0.1650
C22 C -0.32056(7) 0.98845(4) 0.13387(6)
H28 H -0.3661 1.0192 0.1268
H29 H -0.2655 0.9969 0.1735
H30 H -0.3521 0.9548 0.1444
C23 C 0.10662(6) 0.94594(3) 0.08254(5)
H31 H 0.0622 0.9341 0.0376
H32 H 0.1719 0.9494 0.0751
C24 C 0.07406(8) 1.00099(4) 0.10726(5)
H33 H 0.1293 1.0260 0.1249
H34 H 0.0270 1.0195 0.0683
C25 C 0.02820(7) 0.98478(4) 0.16664(5)
H35 H 0.0331 1.0149 0.2016
H36 H -0.0401 0.9746 0.1480
C26 C 0.08818(7) 0.93542(3) 0.19842(4)
H37 H 0.1491 0.9473 0.2311
H38 H 0.0529 0.9117 0.2246
C27 C 0.30747(5) 0.87080(3) 0.14178(4)
C28 C 0.34387(6) 0.90403(3) 0.09577(4)
H39 H 0.3319 0.8943 0.0472
C29 C 0.39728(6) 0.95109(3) 0.12048(4)
H40 H 0.4214 0.9733 0.0887
C30 C 0.41552(6) 0.96581(3) 0.19156(4)
C31 C 0.38193(6) 0.93257(4) 0.23814(4)
H41 H 0.3952 0.9419 0.2869
C32 C 0.32853(6) 0.88528(3) 0.21306(4)
H42 H 0.3062 0.8626 0.2452
C33 C 0.46908(7) 1.03553(4) 0.27904(5)
H43 H 0.5077 1.0693 0.2871
H44 H 0.4971 1.0082 0.3154
H45 H 0.4034 1.0440 0.2815
C34 C 0.47002(6) 0.77807(4) 0.09566(5)
H46 H 0.4254 0.8021 0.0615
H47 H 0.4896 0.7469 0.0697
C35 C 0.55667(8) 0.81043(5) 0.13531(6)
H48 H 0.5391 0.8485 0.1457
H49 H 0.6068 0.8119 0.1087
C36 C 0.58885(8) 0.77633(6) 0.20235(7)
H50 H 0.6302 0.7981 0.2411
H51 H 0.6236 0.7427 0.1941
C37 C 0.49273(7) 0.76194(5) 0.21841(5)
H52 H 0.4972 0.7264 0.2441
H53 H 0.4732 0.7912 0.2474
C38 C 0.33420(5) 0.66520(3) 0.02661(4)
C39 C 0.33659(6) 0.66257(3) -0.04445(4)
H54 H 0.2906 0.6827 -0.0788
C40 C 0.40509(6) 0.63105(4) -0.06564(5)
H55 H 0.4056 0.6298 -0.1142
C41 C 0.47282(6) 0.60138(3) -0.01609(5)
C42 C 0.47263(7) 0.60389(4) 0.05481(5)
H56 H 0.5195 0.5843 0.0890
C43 C 0.40306(6) 0.63545(4) 0.07580(5)
H57 H 0.4028 0.6366 0.1244
C44 C 0.61256(8) 0.54480(5) 0.00722(7)
H58 H 0.6536 0.5248 -0.0176
H59 H 0.5854 0.5187 0.0353
H60 H 0.6508 0.5726 0.0386
C45 C 0.13986(8) 0.60867(4) 0.31125(5)
H61 H 0.1900 0.5928 0.2904
H62 H 0.0792 0.5883 0.2925
C46 C 0.16960(19) 0.60539(8) 0.39068(9)
H63 H 0.2394 0.6114 0.4090
H64 H 0.1519 0.5694 0.4079
C47 C 0.11234(19) 0.65221(8) 0.41127(10)
H65 H 0.1400 0.6641 0.4607
H66 H 0.0444 0.6416 0.4055
C48 C 0.12231(9) 0.69713(4) 0.35874(5)
H67 H 0.0662 0.7222 0.3491
H68 H 0.1813 0.7191 0.3772
C49 C -0.07947(5) 0.67481(3) 0.19082(4)
C50 C -0.10033(6) 0.61830(3) 0.18103(4)
H69 H -0.0712 0.5973 0.1510
C51 C -0.16303(6) 0.59274(3) 0.21464(5)
H70 H -0.1773 0.5546 0.2069
C52 C -0.20524(6) 0.62279(3) 0.25975(4)
C53 C -0.18545(6) 0.67875(4) 0.27026(4)
H71 H -0.2142 0.6995 0.3007
C54 C -0.12284(6) 0.70424(3) 0.23562(4)
H72 H -0.1096 0.7425 0.2428
C55 C -0.31489(7) 0.62307(5) 0.33319(5)
H73 H -0.3545 0.5977 0.3529
H74 H -0.3561 0.6507 0.3036
H75 H -0.2689 0.6417 0.3718
C56 C 0.33239(5) 0.69554(3) 0.27685(4)
C57 C 0.35903(6) 0.73307(3) 0.33288(4)
H76 H 0.3323 0.7692 0.3278
C58 C 0.42378(6) 0.71840(4) 0.39562(5)
H77 H 0.4413 0.7445 0.4330
C59 C 0.46308(6) 0.66557(3) 0.40392(4)
C60 C 0.43777(5) 0.62761(3) 0.34923(4)
H78 H 0.4647 0.5916 0.3546
C61 C 0.37228(5) 0.64272(3) 0.28606(4)
H79 H 0.3547 0.6165 0.2488
C62 C 0.54869(7) 0.59908(4) 0.48560(5)
H80 H 0.5946 0.5968 0.5320
H81 H 0.5767 0.5822 0.4498
H82 H 0.4897 0.5794 0.4871
O19? O -0.2680(2) 0.57593(14) -0.21289(16)
C63? C 0.1521(6) 0.5469(2) -0.0061(3)
H83? H 0.2208 0.5366 0.0084
H84? H 0.1242 0.5419 0.0349
C64? C 0.1012(5) 0.5122(2) -0.0656(3)
H85? H 0.0475 0.4924 -0.0533
H86? H 0.1455 0.4847 -0.0777
C65? C 0.0640(5) 0.5510(3) -0.1268(3)
H87? H -0.0052 0.5584 -0.1328
H88? H 0.0734 0.5351 -0.1713
C66? C 0.1218(5) 0.6032(3) -0.1076(3)
H89? H 0.1825 0.6010 -0.1227
H90? H 0.0850 0.6357 -0.1305
C67? C -0.3072(3) 0.52599(19) -0.1917(2)
H91? H -0.3510 0.5090 -0.2330
H92? H -0.3424 0.5347 -0.1562
H93? H -0.2550 0.5002 -0.1716
H94? H 0.4431 0.8141 0.0763
H95? H 0.4636 0.7512 0.0565
C68? C 0.5800(4) 0.7839(3) 0.1407(3)
H96? H 0.6127 0.7477 0.1502
H97? H 0.6175 0.8090 0.1178
C69? C 0.5599(4) 0.8096(3) 0.2082(3)
H98? H 0.5267 0.8457 0.1992
H99? H 0.6182 0.8127 0.2477
H100? H 0.5288 0.7270 0.2308
H101? H 0.4598 0.7710 0.2558
H102? H 0.2047 0.5962 0.3095
H103? H 0.0913 0.5864 0.2776
C70? C 0.1262(3) 0.60422(13) 0.38737(16)
H104? H 0.0577 0.6050 0.3879
H105? H 0.1571 0.5708 0.4121
C71? C 0.1785(3) 0.65677(13) 0.41795(16)
H106? H 0.2478 0.6553 0.4201
H107? H 0.1690 0.6658 0.4652
H108? H 0.0552 0.7023 0.3615
H109? H 0.1543 0.7336 0.3615
loop_
_geom_bond_atom_site_label_1
_geom_bond_atom_site_label_2
_geom_bond_site_symmetry_1
_geom_bond_site_symmetry_2
Cl1 Mg1 1_555 1_555
Cl2 Mg3 1_555 1_555
Mg1 O1 1_555 1_555
Mg2 O2 1_555 1_555
Mg3 O4 1_555 1_555
Mg4 O6 1_555 1_555
Mg5 Cl1 1_555 1_555
O1 C1 1_555 1_555
O2 Mg1 1_555 1_555
O3 Mg2 1_555 1_555
O4 Mg2 1_555 1_555
O5 Mg3 1_555 1_555
O6 Mg3 1_555 1_555
O7 Mg4 1_555 1_555
O8 Mg1 1_555 1_555
O9 Mg5 1_555 1_555
O10 Mg2 1_555 1_555
O11 Mg4 1_555 1_555
O12 C8 1_555 1_555
O13 C19 1_555 1_555
O14 C30 1_555 1_555
O15 C41 1_555 1_555
O16 C52 1_555 1_555
O17 C59 1_555 1_555
O18 Mg1 1_555 1_555
C1 H1 1_555 1_555
H2 C1 1_555 1_555
C2 C1 1_555 1_555
H3 C2 1_555 1_555
H4 C2 1_555 1_555
C3 C2 1_555 1_555
H5 C3 1_555 1_555
H6 C3 1_555 1_555
C4 O1 1_555 1_555
H7 C4 1_555 1_555
H8 C4 1_555 1_555
C5 O2 1_555 1_555
C6 C5 1_555 1_555
H9 C6 1_555 1_555
C7 C6 1_555 1_555
H10 C7 1_555 1_555
C8 C7 1_555 1_555
C9 C8 1_555 1_555
H11 C9 1_555 1_555
C10 C5 1_555 1_555
H12 C10 1_555 1_555
C11 O12 1_555 1_555
H13 C11 1_555 1_555
H14 C11 1_555 1_555
H15 C11 1_555 1_555
C12 O3 1_555 1_555
H16 C12 1_555 1_555
H17 C12 1_555 1_555
C13 C12 1_555 1_555
H18 C13 1_555 1_555
H19 C13 1_555 1_555
C14 C13 1_555 1_555
H20 C14 1_555 1_555
H21 C14 1_555 1_555
C15 O3 1_555 1_555
H22 C15 1_555 1_555
H23 C15 1_555 1_555
C16 O4 1_555 1_555
C17 C16 1_555 1_555
H24 C17 1_555 1_555
C18 C17 1_555 1_555
H25 C18 1_555 1_555
C19 C18 1_555 1_555
C20 C19 1_555 1_555
H26 C20 1_555 1_555
C21 C16 1_555 1_555
H27 C21 1_555 1_555
C22 O13 1_555 1_555
H28 C22 1_555 1_555
H29 C22 1_555 1_555
H30 C22 1_555 1_555
C23 O5 1_555 1_555
H31 C23 1_555 1_555
H32 C23 1_555 1_555
C24 C23 1_555 1_555
H33 C24 1_555 1_555
H34 C24 1_555 1_555
C25 C24 1_555 1_555
H35 C25 1_555 1_555
H36 C25 1_555 1_555
C26 O5 1_555 1_555
H37 C26 1_555 1_555
H38 C26 1_555 1_555
C27 O6 1_555 1_555
C28 C27 1_555 1_555
H39 C28 1_555 1_555
C29 C28 1_555 1_555
H40 C29 1_555 1_555
C30 C29 1_555 1_555
C31 C30 1_555 1_555
H41 C31 1_555 1_555
C32 C27 1_555 1_555
H42 C32 1_555 1_555
C33 O14 1_555 1_555
H43 C33 1_555 1_555
H44 C33 1_555 1_555
H45 C33 1_555 1_555
C34 O7 1_555 1_555
H46 C34 1_555 1_555
H47 C34 1_555 1_555
C35 C34 1_555 1_555
H48 C35 1_555 1_555
H49 C35 1_555 1_555
C36 C35 1_555 1_555
H50 C36 1_555 1_555
H51 C36 1_555 1_555
C37 O7 1_555 1_555
H52 C37 1_555 1_555
H53 C37 1_555 1_555
C38 O8 1_555 1_555
C39 C38 1_555 1_555
H54 C39 1_555 1_555
C40 C39 1_555 1_555
H55 C40 1_555 1_555
C41 C40 1_555 1_555
C42 C41 1_555 1_555
H56 C42 1_555 1_555
C43 C38 1_555 1_555
H57 C43 1_555 1_555
C44 O15 1_555 1_555
H58 C44 1_555 1_555
H59 C44 1_555 1_555
H60 C44 1_555 1_555
C45 O9 1_555 1_555
H61 C45 1_555 1_555
H62 C45 1_555 1_555
C46 C45 1_555 1_555
H63 C46 1_555 1_555
H64 C46 1_555 1_555
C47 C46 1_555 1_555
H65 C47 1_555 1_555
H66 C47 1_555 1_555
C48 O9 1_555 1_555
H67 C48 1_555 1_555
H68 C48 1_555 1_555
C49 O10 1_555 1_555
C50 C49 1_555 1_555
H69 C50 1_555 1_555
C51 C50 1_555 1_555
H70 C51 1_555 1_555
C52 C51 1_555 1_555
C53 C52 1_555 1_555
H71 C53 1_555 1_555
C54 C49 1_555 1_555
H72 C54 1_555 1_555
C55 O16 1_555 1_555
H73 C55 1_555 1_555
H74 C55 1_555 1_555
H75 C55 1_555 1_555
C56 O11 1_555 1_555
C57 C56 1_555 1_555
H76 C57 1_555 1_555
C58 C57 1_555 1_555
H77 C58 1_555 1_555
C59 C58 1_555 1_555
C60 C59 1_555 1_555
H78 C60 1_555 1_555
C61 C56 1_555 1_555
H79 C61 1_555 1_555
C62 O17 1_555 1_555
H80 C62 1_555 1_555
H81 C62 1_555 1_555
H82 C62 1_555 1_555
Cl2 Mg5 1_555 1_555
Mg2 O18 1_555 1_555
Mg3 O18 1_555 1_555
Mg4 O8 1_555 1_555
Mg4 O18 1_555 1_555
Mg5 O10 1_555 1_555
Mg5 O11 1_555 1_555
Mg5 O18 1_555 1_555
C3 C4 1_555 1_555
C9 C10 1_555 1_555
C14 C15 1_555 1_555
C20 C21 1_555 1_555
C25 C26 1_555 1_555
C31 C32 1_555 1_555
C36 C37 1_555 1_555
C42 C43 1_555 1_555
C47 C48 1_555 1_555
C53 C54 1_555 1_555
C60 C61 1_555 1_555

#END
