
#######################################################################
#
#                 Cambridge Crystallographic Data Centre
#                                CCDC 
#
#######################################################################
#
# If this CIF has been generated from an entry in the Cambridge 
# Structural Database, then it will include bibliographic, chemical, 
# crystal, experimental, refinement or atomic coordinate data resulting 
# from the CCDC's data processing and validation procedures.
#
#######################################################################

data_RIPJAB
_chemical_formula_moiety         'C8 H8 Cl1 N3 S1'
_chemical_name_systematic        '2-Chlorobenzaldehyde thiosemicarbazone'
_symmetry_cell_setting           monoclinic
_symmetry_space_group_name_H-M   'P 21/c'
_symmetry_Int_Tables_number      14
_space_group_name_Hall           '-P 2ybc'
loop_
_symmetry_equiv_pos_site_id
_symmetry_equiv_pos_as_xyz
1 x,y,z
2 -x,1/2+y,1/2-z
3 -x,-y,-z
4 x,1/2-y,1/2+z
_cell_length_a                   12.964(4)
_cell_length_b                   5.131(5)
_cell_length_c                   14.970(1)
_cell_angle_alpha                90
_cell_angle_beta                 94.33(2)
_cell_angle_gamma                90
_cell_volume                     992.936
_exptl_crystal_colour            white
_cell_formula_units_Z            4
loop_
_atom_site_label
_atom_site_type_symbol
_atom_site_fract_x
_atom_site_fract_y
_atom_site_fract_z
Cl1 Cl 0.2248(1) -0.2485(2) 0.1658(1)
S1 S 0.5417(1) 0.8431(1) 0.3701(1)
N1 N 0.3982(2) 0.6907(4) 0.4764(1)
N2 N 0.4048(1) 0.4664(4) 0.3458(1)
N3 N 0.3243(1) 0.3145(4) 0.3692(1)
C1 C 0.4420(2) 0.6583(4) 0.4003(1)
C2 C 0.2947(2) 0.1392(5) 0.3131(2)
C3 C 0.1730(2) -0.2218(5) 0.2689(2)
C4 C 0.0946(2) -0.3940(6) 0.2862(2)
C5 C 0.0523(2) -0.3850(6) 0.3670(2)
C6 C 0.0873(2) -0.2068(7) 0.4308(2)
C7 C 0.1659(2) -0.0335(6) 0.4136(2)
C8 C 0.2106(2) -0.0375(4) 0.3311(1)
H1 H 0.4213 0.8159 0.5150
H2 H 0.3453 0.5876 0.4896
H3 H 0.4330 0.4376 0.2936
H4 H 0.3280 0.1228 0.2583
H5 H 0.0702 -0.5188 0.2417
H6 H -0.0021 -0.5037 0.3793
H7 H 0.0574 -0.2019 0.4875
H8 H 0.1898 0.0901 0.4586
loop_
_geom_bond_atom_site_label_1
_geom_bond_atom_site_label_2
_geom_bond_site_symmetry_1
_geom_bond_site_symmetry_2
Cl1 C3 1_555 1_555
S1 C1 1_555 1_555
N1 C1 1_555 1_555
N2 N3 1_555 1_555
N3 C2 1_555 1_555
C1 N2 1_555 1_555
C2 C8 1_555 1_555
C3 C4 1_555 1_555
C4 C5 1_555 1_555
C5 C6 1_555 1_555
C6 C7 1_555 1_555
C7 C8 1_555 1_555
C8 C3 1_555 1_555
H1 N1 1_555 1_555
H2 N1 1_555 1_555
H3 N2 1_555 1_555
H4 C2 1_555 1_555
H5 C4 1_555 1_555
H6 C5 1_555 1_555
H7 C6 1_555 1_555
H8 C7 1_555 1_555

#END
