
#######################################################################
#
#                 Cambridge Crystallographic Data Centre
#                                CCDC 
#
#######################################################################
#
# If this CIF has been generated from an entry in the Cambridge 
# Structural Database, then it will include bibliographic, chemical, 
# crystal, experimental, refinement or atomic coordinate data resulting 
# from the CCDC's data processing and validation procedures.
#
#######################################################################

data_RIPMAE
_chemical_formula_moiety         'C40 H46 N4 O10'
_chemical_name_systematic        
3,8,13,18-tetrakis(Methoxycarbonylethyl)-2,8,12,18-tetramethyl-7,17-dioxobacteriochlorin
_symmetry_cell_setting           monoclinic
_symmetry_space_group_name_H-M   'P 21/n'
_symmetry_Int_Tables_number      14
_space_group_name_Hall           '-P 2yn'
loop_
_symmetry_equiv_pos_site_id
_symmetry_equiv_pos_as_xyz
1 x,y,z
2 1/2-x,1/2+y,1/2-z
3 -x,-y,-z
4 1/2+x,1/2-y,1/2+z
_cell_length_a                   12.248(6)
_cell_length_b                   6.2720(10)
_cell_length_c                   24.113(5)
_cell_angle_alpha                90
_cell_angle_beta                 90.62(3)
_cell_angle_gamma                90
_cell_volume                     1852.24
_exptl_crystal_colour            black
_chemical_melting_point          229-230deg.C
_cell_formula_units_Z            2
loop_
_atom_site_label
_atom_site_type_symbol
_atom_site_fract_x
_atom_site_fract_y
_atom_site_fract_z
N1 N 0.0857(4) 0.2525(8) 0.0380(2)
N2 N -0.06564 -0.08678 0.07552
C1 C 0.1558(6) 0.3851(11) 0.0142(3)
C2 C 0.1744(6) 0.3913(11) -0.0426(3)
C3 C 0.2120(5) 0.5382(1) 0.0545(3)
C4 C 0.3353(6) 0.4934(11) 0.0611(3)
C5 C 0.3637(6) 0.2690(11) 0.0739(3)
C6 C 0.4817(7) 0.2192(14) 0.0812(3)
C7 C 0.6080(8) -0.0636(16) 0.0958(5)
C8 C 0.1961(7) 0.7662(10) 0.0399(3)
C9 C 0.1549(6) 0.4785(10) 0.1070(3)
C10 C 0.0830(6) 0.2982(10) 0.0930(3)
C11 C 0.0236(6) 0.1885(10) 0.1329(3)
C12 C -0.0410(6) 0.0125(11) 0.1272(3)
C13 C -0.0954(6) -0.1104(11) 0.1675(3)
C14 C -0.0894(8) -0.0569(12) 0.2283(3)
C15 C 0.0187(8) -0.1079(12) 0.2581(3)
C16 C 0.0430(10) -0.3353(13) 0.2668(3)
C17 C 0.1751(9) -0.5866(12) 0.2959(4)
C18 C -0.1487(6) -0.2748(11) 0.1419(3)
C19 C -0.2159(7) -0.4462(12) 0.1677(3)
C20 C 0.1319(6) 0.2614(11) -0.0836(3)
O1 O 0.5556(5) 0.3465(10) 0.0840(3)
O2 O 0.4984(5) 0.0091(9) 0.0853(3)
O3 O -0.0219(6) -0.4795(10) 0.2594(2)
O4 O 0.1443(6) -0.3676(8) 0.2862(2)
O5 O 0.1687(5) 0.5632(8) 0.1529(2)
H2 H 0.3652 0.5833 0.0897
H3 H 0.3697 0.5296 0.0268
H4 H 0.3343 0.1804 0.0450
H5 H 0.3273 0.2330 0.1077
H6 H 0.6129 -0.2162 0.0978
H7 H 0.6536 -0.0126 0.0665
H8 H 0.6319 -0.0028 0.1304
H9 H 0.1200 0.8004 0.0360
H10 H 0.2282 0.8533 0.0684
H11 H 0.2323 0.7925 0.0054
H12 H 0.0304 0.2436 0.1699
H13 H -0.1516 -0.0003 0.2471
H14 H 0.0143 -0.0401 0.2937
H15 H 0.0770 -0.0413 0.2382
H16 H 0.2491 -0.5879 0.3095
H17 H 0.1283 -0.6500 0.3230
H18 H 0.1705 -0.6665 0.2620
H19 H -0.2141 -0.4246 0.2071
H20 H -0.2899 -0.4373 0.1544
H21 H -0.1867 -0.5844 0.1593
N2B N 0.06564 0.08678 -0.07552
C12B C 0.0410(6) -0.0125(11) -0.1272(3)
C11B C -0.0236(6) -0.1885(10) -0.1329(3)
C10B C -0.0830(6) -0.2982(10) -0.0930(3)
N1B N -0.0857(4) -0.2525(8) -0.0380(2)
C1B C -0.1558(6) -0.3851(11) -0.0142(3)
C2B C -0.1744(6) -0.3913(11) 0.0426(3)
C20B C -0.1319(6) -0.2614(11) 0.0836(3)
C3B C -0.2120(5) -0.5382(1) -0.0545(3)
C4B C -0.3353(6) -0.4934(11) -0.0611(3)
C5B C -0.3637(6) -0.2690(11) -0.0739(3)
C6B C -0.4817(7) -0.2192(14) -0.0812(3)
O1B O -0.5556(5) -0.3465(10) -0.0840(3)
O2B O -0.4984(5) -0.0091(9) -0.0853(3)
C7B C -0.6080(8) 0.0636(16) -0.0958(5)
H6B H -0.6129 0.2162 -0.0978
H7B H -0.6536 0.0126 -0.0665
H8B H -0.6319 0.0028 -0.1304
H4B H -0.3343 -0.1804 -0.0450
H5B H -0.3273 -0.2330 -0.1077
H2B H -0.3652 -0.5833 -0.0897
H3B H -0.3697 -0.5296 -0.0268
C8B C -0.1961(7) -0.7662(10) -0.0399(3)
H9B H -0.1200 -0.8004 -0.0360
H10B H -0.2282 -0.8533 -0.0684
H11B H -0.2323 -0.7925 -0.0054
C9B C -0.1549(6) -0.4785(10) -0.1070(3)
O5B O -0.1687(5) -0.5632(8) -0.1529(2)
H12B H -0.0304 -0.2436 -0.1699
C13B C 0.0954(6) 0.1104(11) -0.1675(3)
C14B C 0.0894(8) 0.0569(12) -0.2283(3)
C15B C -0.0187(8) 0.1079(12) -0.2581(3)
C16B C -0.0430(10) 0.3353(13) -0.2668(3)
O3B O 0.0219(6) 0.4795(10) -0.2594(2)
O4B O -0.1443(6) 0.3676(8) -0.2862(2)
C17B C -0.1751(9) 0.5866(12) -0.2959(4)
H16B H -0.2491 0.5879 -0.3095
H17B H -0.1283 0.6500 -0.3230
H18B H -0.1705 0.6665 -0.2620
H14B H -0.0143 0.0401 -0.2937
H15B H -0.0770 0.0413 -0.2382
H13B H 0.1516 0.0003 -0.2471
C18B C 0.1487(6) 0.2748(11) -0.1419(3)
C19B C 0.2159(7) 0.4462(12) -0.1677(3)
H19B H 0.2141 0.4246 -0.2071
H20B H 0.2899 0.4373 -0.1544
H21B H 0.1867 0.5844 -0.1593
H1? H 0.0450 0.1522 0.0209
loop_
_geom_bond_atom_site_label_1
_geom_bond_atom_site_label_2
_geom_bond_site_symmetry_1
_geom_bond_site_symmetry_2
N1 C1 1_555 1_555
N2 C12 1_555 1_555
C1 C2 1_555 1_555
C2 C20 1_555 1_555
C3 C1 1_555 1_555
C4 C3 1_555 1_555
C5 C4 1_555 1_555
C6 C5 1_555 1_555
C7 O2 1_555 1_555
C8 C3 1_555 1_555
C9 C3 1_555 1_555
C10 N1 1_555 1_555
C11 C10 1_555 1_555
C12 C11 1_555 1_555
C13 C12 1_555 1_555
C14 C13 1_555 1_555
C15 C14 1_555 1_555
C16 C15 1_555 1_555
C17 O4 1_555 1_555
C18 C13 1_555 1_555
C19 C18 1_555 1_555
C20 N2B 1_555 1_555
O1 C6 1_555 1_555
O2 C6 1_555 1_555
O3 C16 1_555 1_555
O4 C16 1_555 1_555
O5 C9 1_555 1_555
H2 C4 1_555 1_555
H3 C4 1_555 1_555
H4 C5 1_555 1_555
H5 C5 1_555 1_555
H6 C7 1_555 1_555
H7 C7 1_555 1_555
H8 C7 1_555 1_555
H9 C8 1_555 1_555
H10 C8 1_555 1_555
H11 C8 1_555 1_555
H12 C11 1_555 1_555
H13 C14 1_555 1_555
H14 C15 1_555 1_555
H15 C15 1_555 1_555
H16 C17 1_555 1_555
H17 C17 1_555 1_555
H18 C17 1_555 1_555
H19 C19 1_555 1_555
H20 C19 1_555 1_555
H21 C19 1_555 1_555
N2B C12B 1_555 1_555
C12B C11B 1_555 1_555
C11B C10B 1_555 1_555
C10B N1B 1_555 1_555
N1B C1B 1_555 1_555
C1B C2B 1_555 1_555
C2B C20B 1_555 1_555
C20B N2 1_555 1_555
C3B C1B 1_555 1_555
C4B C3B 1_555 1_555
C5B C4B 1_555 1_555
C6B C5B 1_555 1_555
O1B C6B 1_555 1_555
O2B C6B 1_555 1_555
C7B O2B 1_555 1_555
H6B C7B 1_555 1_555
H7B C7B 1_555 1_555
H8B C7B 1_555 1_555
H4B C5B 1_555 1_555
H5B C5B 1_555 1_555
H2B C4B 1_555 1_555
H3B C4B 1_555 1_555
C8B C3B 1_555 1_555
H9B C8B 1_555 1_555
H10B C8B 1_555 1_555
H11B C8B 1_555 1_555
C9B C10B 1_555 1_555
O5B C9B 1_555 1_555
H12B C11B 1_555 1_555
C13B C12B 1_555 1_555
C14B C13B 1_555 1_555
C15B C14B 1_555 1_555
C16B C15B 1_555 1_555
O3B C16B 1_555 1_555
O4B C16B 1_555 1_555
C17B O4B 1_555 1_555
H16B C17B 1_555 1_555
H17B C17B 1_555 1_555
H18B C17B 1_555 1_555
H14B C15B 1_555 1_555
H15B C15B 1_555 1_555
H13B C14B 1_555 1_555
C18B C20 1_555 1_555
C19B C18B 1_555 1_555
H19B C19B 1_555 1_555
H20B C19B 1_555 1_555
H21B C19B 1_555 1_555
C9 C10 1_555 1_555
C18 C20B 1_555 1_555
C3B C9B 1_555 1_555
C13B C18B 1_555 1_555

#END
