
#######################################################################
#
#                 Cambridge Crystallographic Data Centre
#                                CCDC 
#
#######################################################################
#
# If this CIF has been generated from an entry in the Cambridge 
# Structural Database, then it will include bibliographic, chemical, 
# crystal, experimental, refinement or atomic coordinate data resulting 
# from the CCDC's data processing and validation procedures.
#
#######################################################################

data_RIQBUO
_chemical_compound_source        'Streptomyces cattleya'
_chemical_formula_moiety         'C4 H8 F1 N1 O3'
_chemical_name_systematic        (2S,3S)-4-Fluorothreonine
_symmetry_cell_setting           orthorhombic
_symmetry_space_group_name_H-M   'P 21 21 21'
_symmetry_Int_Tables_number      19
_space_group_name_Hall           'P 2ac 2ab'
loop_
_symmetry_equiv_pos_site_id
_symmetry_equiv_pos_as_xyz
1 x,y,z
2 1/2-x,-y,1/2+z
3 -x,1/2+y,1/2-z
4 1/2+x,1/2-y,-z
_cell_length_a                   5.231(2)
_cell_length_b                   7.870(2)
_cell_length_c                   13.603(2)
_cell_angle_alpha                90
_cell_angle_beta                 90
_cell_angle_gamma                90
_cell_volume                     560.008
_exptl_crystal_colour            colorless
_chemical_melting_point          182-183deg.C
_cell_formula_units_Z            4
loop_
_atom_site_label
_atom_site_type_symbol
_atom_site_fract_x
_atom_site_fract_y
_atom_site_fract_z
O1 O 0.2997(10) 0.4614(8) 0.3068(4)
O2 O 0.6950(9) 0.4674(6) 0.2475(4)
O3 O 0.2495(10) 0.3927(7) -0.0186(3)
H1 H 0.2240(10) 0.4584(7) -0.0643(3)
N1 N 0.1245(10) 0.2621(6) 0.1623(4)
H2 H 0.0227(30) 0.3222(22) 0.2015(22)
H3 H 0.1579(12) 0.1621(21) 0.1900(25)
H4 H 0.0475(36) 0.2457(41) 0.1047(5)
C1 C 0.4575(14) 0.4343(8) 0.2425(6)
C2 C 0.3664(13) 0.3557(8) 0.1466(5)
H5 H 0.4964(13) 0.2750(8) 0.1240(5)
C3 C 0.3233(14) 0.4862(9) 0.0661(5)
H6 H 0.1828(14) 0.5615(9) 0.0854(5)
C4 C 0.5586(17) 0.5932(13) 0.0427(7)
H7 H 0.5150(17) 0.6771(13) -0.0068(7)
H8 H 0.6125(17) 0.6531(13) 0.1015(7)
F1 F 0.7452(13) 0.5001(11) 0.0109(6)
H9? H 0.7071(17) 0.5194(13) 0.0430(7)
H10? H 0.5813(17) 0.6759(13) 0.0948(7)
F2? F 0.5511(27) 0.6708(18) -0.0388(10)
loop_
_geom_bond_atom_site_label_1
_geom_bond_atom_site_label_2
_geom_bond_site_symmetry_1
_geom_bond_site_symmetry_2
O1 C1 1_555 1_555
O2 C1 1_555 1_555
O3 H1 1_555 1_555
N1 H2 1_555 1_555
H3 N1 1_555 1_555
H4 N1 1_555 1_555
C1 C2 1_555 1_555
C2 N1 1_555 1_555
H5 C2 1_555 1_555
C3 O3 1_555 1_555
H6 C3 1_555 1_555
C4 C3 1_555 1_555
H7 C4 1_555 1_555
H8 C4 1_555 1_555
F1 C4 1_555 1_555
C2 C3 1_555 1_555

#END
