
#######################################################################
#
#                 Cambridge Crystallographic Data Centre
#                                CCDC 
#
#######################################################################
#
# If this CIF has been generated from an entry in the Cambridge 
# Structural Database, then it will include bibliographic, chemical, 
# crystal, experimental, refinement or atomic coordinate data resulting 
# from the CCDC's data processing and validation procedures.
#
#######################################################################

data_RIQCAV
_chemical_formula_moiety         'C17 H21 F1 N2 O3'
_chemical_name_systematic        
(2S,5S)-1-Benzoyl-2-t-butyl-3-methyl-5-(2'-fluoroacetyl)-4-imidazolidinone
_symmetry_cell_setting           orthorhombic
_symmetry_space_group_name_H-M   'P 21 21 2'
_symmetry_Int_Tables_number      18
_space_group_name_Hall           'P 2 2ab'
loop_
_symmetry_equiv_pos_site_id
_symmetry_equiv_pos_as_xyz
1 x,y,z
2 -x,-y,z
3 1/2-x,1/2+y,-z
4 1/2+x,1/2-y,-z
_cell_length_a                   13.294(1)
_cell_length_b                   21.437(2)
_cell_length_c                   6.037(1)
_cell_angle_alpha                90
_cell_angle_beta                 90
_cell_angle_gamma                90
_cell_volume                     1720.45
_exptl_crystal_colour            colorless
_chemical_melting_point          197deg.C
_cell_formula_units_Z            4
loop_
_atom_site_label
_atom_site_type_symbol
_atom_site_fract_x
_atom_site_fract_y
_atom_site_fract_z
O1 O 0.7070(2) 0.75615(9) 0.9571(4)
O2 O 0.87069(14) 0.64172(9) 0.6661(4)
O3 O 0.6858(2) 0.56915(8) 0.3102(3)
F1 F 0.96805(14) 0.66004(14) 1.0448(4)
N1 N 0.66079(14) 0.62317(8) 0.6290(3)
C1 C 0.5999(2) 0.67110(10) 0.5158(4)
H1 H 0.6191(2) 0.67325(10) 0.3592(4)
N2 N 0.6320(2) 0.72771(8) 0.6288(3)
C2 C 0.6809(2) 0.71756(10) 0.8199(4)
C3 C 0.7067(2) 0.64755(10) 0.8303(4)
H2 H 0.6783(2) 0.62791(10) 0.9628(4)
C4 C 0.8214(2) 0.64524(10) 0.8321(5)
C5 C 0.8666(2) 0.6499(2) 1.0588(6)
H3 H 0.8541(2) 0.6117(2) 1.1398(6)
H4 H 0.8353(2) 0.6840(2) 1.1390(6)
C6 C 0.6983(2) 0.57340(10) 0.5111(4)
C7 C 0.7495(2) 0.52261(10) 0.6390(4)
C8 C 0.7120(2) 0.50196(11) 0.8411(4)
H5 H 0.6567(2) 0.52169(11) 0.9040(4)
C9 C 0.7569(3) 0.45205(13) 0.9498(6)
H6 H 0.7305(3) 0.43775(13) 1.0832(6)
C10 C 0.8395(3) 0.42411(14) 0.8609(7)
H7 H 0.8697(3) 0.39097(14) 0.9348(7)
C11 C 0.8786(3) 0.44431(13) 0.6639(7)
H8 H 0.9358(3) 0.42540(13) 0.6063(7)
C12 C 0.8325(2) 0.49344(12) 0.5483(5)
H9 H 0.8577(2) 0.50622(12) 0.4119(5)
C13 C 0.4855(2) 0.65774(13) 0.5352(5)
C14 C 0.4262(3) 0.7070(2) 0.4017(8)
H10 H 0.4230(20) 0.7451(5) 0.4845(23)
H11 H 0.4595(13) 0.7144(11) 0.2631(23)
H12 H 0.3593(8) 0.6920(6) 0.3746(45)
C15 C 0.4529(3) 0.6598(2) 0.7768(6)
H13 H 0.4693(16) 0.6999(4) 0.8384(12)
H14 H 0.3816(4) 0.6532(11) 0.7863(7)
H15 H 0.4873(13) 0.6278(7) 0.8582(10)
C16 C 0.4622(3) 0.5934(2) 0.4375(6)
H16 H 0.3912(3) 0.5857(5) 0.4458(35)
H17 H 0.4833(16) 0.5922(4) 0.2855(13)
H18 H 0.4975(14) 0.5620(2) 0.5199(25)
C17 C 0.6170(3) 0.79071(11) 0.5400(6)
H19 H 0.6338(16) 0.7912(3) 0.3854(10)
H20 H 0.5478(5) 0.8026(4) 0.5584(33)
H21 H 0.6593(13) 0.8195(2) 0.6180(25)
loop_
_geom_bond_atom_site_label_1
_geom_bond_atom_site_label_2
_geom_bond_site_symmetry_1
_geom_bond_site_symmetry_2
O1 C2 1_555 1_555
O2 C4 1_555 1_555
O3 C6 1_555 1_555
F1 C5 1_555 1_555
N1 C1 1_555 1_555
C1 H1 1_555 1_555
N2 C1 1_555 1_555
C2 N2 1_555 1_555
C3 N1 1_555 1_555
H2 C3 1_555 1_555
C4 C3 1_555 1_555
C5 C4 1_555 1_555
H3 C5 1_555 1_555
H4 C5 1_555 1_555
C6 N1 1_555 1_555
C7 C6 1_555 1_555
C8 C7 1_555 1_555
H5 C8 1_555 1_555
C9 C8 1_555 1_555
H6 C9 1_555 1_555
C10 C9 1_555 1_555
H7 C10 1_555 1_555
C11 C10 1_555 1_555
H8 C11 1_555 1_555
C12 C7 1_555 1_555
H9 C12 1_555 1_555
C13 C1 1_555 1_555
C14 C13 1_555 1_555
H10 C14 1_555 1_555
H11 C14 1_555 1_555
H12 C14 1_555 1_555
C15 C13 1_555 1_555
H13 C15 1_555 1_555
H14 C15 1_555 1_555
H15 C15 1_555 1_555
C16 C13 1_555 1_555
H16 C16 1_555 1_555
H17 C16 1_555 1_555
H18 C16 1_555 1_555
C17 N2 1_555 1_555
H19 C17 1_555 1_555
H20 C17 1_555 1_555
H21 C17 1_555 1_555
C2 C3 1_555 1_555
C11 C12 1_555 1_555

#END
