
#######################################################################
#
#                 Cambridge Crystallographic Data Centre
#                                CCDC 
#
#######################################################################
#
# If this CIF has been generated from an entry in the Cambridge 
# Structural Database, then it will include bibliographic, chemical, 
# crystal, experimental, refinement or atomic coordinate data resulting 
# from the CCDC's data processing and validation procedures.
#
#######################################################################

data_RIQTET
_chemical_formula_moiety         'C29 H28 N2 O3'
_chemical_name_systematic        
'ethyl 2-[2-(5-benzyl-4-methyl-6-oxo-1,6-dihydropyrimidin-2-yl)phenyl]-3-phenylpropanoate'
_symmetry_cell_setting           monoclinic
_symmetry_space_group_name_H-M   'P c'
_symmetry_Int_Tables_number      7
_space_group_name_Hall           'P -2yc'
loop_
_symmetry_equiv_pos_site_id
_symmetry_equiv_pos_as_xyz
1 x,y,z
2 x,-y,1/2+z
_cell_length_a                   8.063(17)
_cell_length_b                   15.52(3)
_cell_length_c                   19.70(4)
_cell_angle_alpha                90
_cell_angle_beta                 99.82(3)
_cell_angle_gamma                90
_cell_volume                     2429.09
_exptl_crystal_colour            colorless
_exptl_crystal_description       block
_cell_formula_units_Z            4
loop_
_atom_site_label
_atom_site_type_symbol
_atom_site_fract_x
_atom_site_fract_y
_atom_site_fract_z
C1 C -0.1166(10) 0.1175(4) 0.9651(3)
C2 C -0.2737(11) 0.0821(5) 0.9700(4)
H1 H -0.288059 0.022954 0.964144
C3 C -0.4043(12) 0.1290(6) 0.9825(4)
H2 H -0.506215 0.102458 0.985531
C4 C -0.3872(12) 0.2171(6) 0.9911(5)
H3 H -0.478249 0.250997 0.997791
C5 C -0.2336(11) 0.2534(5) 0.9894(4)
H4 H -0.220610 0.312178 0.998072
C6 C -0.0968(10) 0.2076(4) 0.9757(3)
C7 C 0.0705(10) 0.2507(4) 0.9761(4)
H5 H 0.134222 0.216679 0.947479
C8 C 0.0605(11) 0.3430(4) 0.9499(4)
H6 H -0.026271 0.346822 0.909318
H7 H 0.028534 0.380421 0.984897
C9 C 0.2227(13) 0.3733(5) 0.9322(5)
C10 C 0.3360(13) 0.4193(5) 0.9780(5)
H8 H 0.307288 0.435940 1.019830
C11 C 0.4942(16) 0.4419(6) 0.9632(9)
H9 H 0.572173 0.469790 0.996114
C12 C 0.5326(15) 0.4231(9) 0.9011(10)
H10 H 0.635856 0.439822 0.890367
C13 C 0.422(2) 0.3802(8) 0.8547(7)
H11 H 0.450650 0.366659 0.812201
C14 C 0.2681(14) 0.3557(6) 0.8683(5)
H12 H 0.193028 0.327170 0.834740
C15 C 0.1637(10) 0.2485(5) 1.0494(4)
C16 C 0.3062(17) 0.1573(7) 1.1356(5)
H13 H 0.424076 0.173412 1.142336
H14 H 0.250867 0.191847 1.166183
C17 C 0.2901(18) 0.0679(8) 1.1504(7)
H15 H 0.340173 0.034140 1.118342
H16 H 0.173133 0.053324 1.146254
H17 H 0.346309 0.056065 1.196424
C18 C 0.0181(10) 0.0638(4) 0.9495(4)
C19 C 0.1830(11) -0.0603(4) 0.9826(4)
C20 C 0.2660(10) -0.0453(4) 0.9247(4)
C21 C 0.2222(11) 0.0251(5) 0.8856(4)
C22 C 0.4066(13) -0.1055(5) 0.9164(5)
H18 H 0.484911 -0.108329 0.959580
H19 H 0.466670 -0.082435 0.881778
C23 C 0.3485(9) -0.1942(3) 0.8960(3)
C24 C 0.3614(10) -0.2589(4) 0.9454(3)
H20 H 0.406152 -0.246588 0.991092
C25 C 0.3075(13) -0.3419(3) 0.9266(4)
H21 H 0.316123 -0.385196 0.959708
C26 C 0.2406(12) -0.3603(3) 0.8584(5)
H22 H 0.204554 -0.415865 0.845787
C27 C 0.2277(12) -0.2956(5) 0.8089(4)
H23 H 0.183015 -0.307926 0.763250
C28 C 0.2817(11) -0.2126(4) 0.8277(3)
H24 H 0.273043 -0.169317 0.794634
C29 C 0.2942(16) 0.0503(7) 0.8248(5)
H25 H 0.215614 0.037140 0.783744
H26 H 0.396956 0.019146 0.824383
H27 H 0.317166 0.111034 0.826435
N1 N 0.0946(9) 0.0803(4) 0.8975(3)
N2 N 0.0547(9) -0.0058(4) 0.9890(3)
H28 H -0.005677 -0.016714 1.019972
O1 O 0.2200(8) -0.1196(4) 1.0249(3)
O2 O 0.2279(8) 0.1719(3) 1.0641(3)
O3 O 0.1690(10) 0.3045(4) 1.0898(3)
C30 C 1.2211(12) 0.7059(5) 0.1578(4)
C31 C 1.3695(14) 0.7434(6) 0.1505(5)
H29 H 1.377774 0.803159 0.152373
C32 C 1.5080(14) 0.6962(7) 0.1406(5)
H30 H 1.609524 0.723083 0.137389
C33 C 1.4917(16) 0.6082(7) 0.1354(5)
H31 H 1.582141 0.574141 0.128423
C34 C 1.3424(15) 0.5722(6) 0.1408(5)
H32 H 1.333024 0.512626 0.136515
C35 C 1.2034(11) 0.6173(5) 0.1520(4)
C36 C 1.0368(12) 0.5730(4) 0.1501(4)
H33 H 0.973189 0.610147 0.176688
C37 C 1.0504(14) 0.4860(6) 0.1872(5)
H34 H 1.098242 0.444079 0.159481
H35 H 1.126323 0.491571 0.230776
C38 C 0.8818(13) 0.4533(5) 0.2004(5)
C39 C 0.7901(19) 0.4017(8) 0.1524(7)
H36 H 0.831635 0.389774 0.112186
C40 C 0.642(2) 0.3672(8) 0.1605(10)
H37 H 0.582146 0.333430 0.125598
C41 C 0.581(2) 0.3803(8) 0.2162(11)
H38 H 0.477849 0.355988 0.220800
C42 C 0.668(2) 0.4306(9) 0.2698(8)
H39 H 0.626179 0.438391 0.310615
C43 C 0.818(2) 0.4688(8) 0.2597(6)
H40 H 0.876326 0.504838 0.293300
C44 C 0.9432(11) 0.5735(5) 0.0809(4)
C45 C 0.812(2) 0.6509(8) -0.0148(6)
H41 H 0.870840 0.611614 -0.040692
H42 H 0.693802 0.634829 -0.022508
C46 C 0.829(3) 0.7365(11) -0.0377(8)
H43 H 0.935384 0.742590 -0.052907
H44 H 0.823678 0.775800 -0.000543
H45 H 0.739651 0.748985 -0.075252
C47 C 1.0805(10) 0.7627(4) 0.1693(4)
C48 C 0.9114(13) 0.8840(5) 0.1315(4)
C49 C 0.8238(10) 0.8701(5) 0.1860(4)
C50 C 0.8721(13) 0.8032(5) 0.2278(4)
C51 C 0.7931(15) 0.7789(6) 0.2895(4)
H46 H 0.675061 0.791997 0.280262
H47 H 0.845955 0.810891 0.329085
H48 H 0.808234 0.718315 0.298457
C52 C 0.6823(11) 0.9297(5) 0.1917(5)
H49 H 0.616660 0.938607 0.146233
H50 H 0.609540 0.902759 0.220027
C53 C 0.7383(10) 1.0157(4) 0.2223(4)
C54 C 0.7645(16) 1.0278(6) 0.2922(5)
H51 H 0.747667 0.982035 0.320743
C55 C 0.8136(18) 1.1041(7) 0.3204(6)
H52 H 0.825958 1.111269 0.367905
C56 C 0.8451(16) 1.1700(8) 0.2807(9)
H53 H 0.883517 1.222046 0.300915
C57 C 0.822(2) 1.1617(6) 0.2133(9)
H54 H 0.841838 1.208723 0.186547
C58 C 0.7687(14) 1.0842(6) 0.1809(5)
H55 H 0.753963 1.078647 0.133253
N3 N 1.0442(9) 0.8310(4) 0.1270(3)
H56 H 1.106215 0.841409 0.096528
N4 N 1.0016(10) 0.7491(4) 0.2210(3)
O4 O 0.8739(9) 0.9425(4) 0.0865(3)
O5 O 0.8826(10) 0.6446(4) 0.0599(4)
O6 O 0.9315(13) 0.5104(5) 0.0431(4)
loop_
_geom_bond_atom_site_label_1
_geom_bond_atom_site_label_2
_geom_bond_site_symmetry_1
_geom_bond_site_symmetry_2
C1 C2 1_555 1_555
C2 H1 1_555 1_555
C3 C2 1_555 1_555
H2 C3 1_555 1_555
C4 C3 1_555 1_555
H3 C4 1_555 1_555
C5 C4 1_555 1_555
H4 C5 1_555 1_555
C6 C1 1_555 1_555
C7 C6 1_555 1_555
H5 C7 1_555 1_555
C8 C7 1_555 1_555
H6 C8 1_555 1_555
H7 C8 1_555 1_555
C9 C8 1_555 1_555
C10 C9 1_555 1_555
H8 C10 1_555 1_555
C11 C10 1_555 1_555
H9 C11 1_555 1_555
C12 C11 1_555 1_555
H10 C12 1_555 1_555
C13 C12 1_555 1_555
H11 C13 1_555 1_555
C14 C9 1_555 1_555
H12 C14 1_555 1_555
C15 C7 1_555 1_555
C16 H13 1_555 1_555
H14 C16 1_555 1_555
C17 C16 1_555 1_555
H15 C17 1_555 1_555
H16 C17 1_555 1_555
H17 C17 1_555 1_555
C18 C1 1_555 1_555
C19 C20 1_555 1_555
C20 C21 1_555 1_555
C21 C29 1_555 1_555
C22 C20 1_555 1_555
H18 C22 1_555 1_555
H19 C22 1_555 1_555
C23 C22 1_555 1_555
C24 C23 1_555 1_555
H20 C24 1_555 1_555
C25 C24 1_555 1_555
H21 C25 1_555 1_555
C26 C25 1_555 1_555
H22 C26 1_555 1_555
C27 C26 1_555 1_555
H23 C27 1_555 1_555
C28 C23 1_555 1_555
H24 C28 1_555 1_555
C29 H25 1_555 1_555
H26 C29 1_555 1_555
H27 C29 1_555 1_555
N1 C18 1_555 1_555
N2 C18 1_555 1_555
H28 N2 1_555 1_555
O1 C19 1_555 1_555
O2 C15 1_555 1_555
O3 C15 1_555 1_555
C30 C31 1_555 1_555
C31 H29 1_555 1_555
C32 C31 1_555 1_555
H30 C32 1_555 1_555
C33 C32 1_555 1_555
H31 C33 1_555 1_555
C34 C33 1_555 1_555
H32 C34 1_555 1_555
C35 C30 1_555 1_555
C36 C35 1_555 1_555
H33 C36 1_555 1_555
C37 C36 1_555 1_555
H34 C37 1_555 1_555
H35 C37 1_555 1_555
C38 C37 1_555 1_555
C39 C38 1_555 1_555
H36 C39 1_555 1_555
C40 C39 1_555 1_555
H37 C40 1_555 1_555
C41 C40 1_555 1_555
H38 C41 1_555 1_555
C42 C41 1_555 1_555
H39 C42 1_555 1_555
C43 C38 1_555 1_555
H40 C43 1_555 1_555
C44 C36 1_555 1_555
C45 H41 1_555 1_555
H42 C45 1_555 1_555
C46 C45 1_555 1_555
H43 C46 1_555 1_555
H44 C46 1_555 1_555
H45 C46 1_555 1_555
C47 C30 1_555 1_555
C48 C49 1_555 1_555
C49 C50 1_555 1_555
C50 C51 1_555 1_555
C51 H46 1_555 1_555
H47 C51 1_555 1_555
H48 C51 1_555 1_555
C52 C49 1_555 1_555
H49 C52 1_555 1_555
H50 C52 1_555 1_555
C53 C52 1_555 1_555
C54 C53 1_555 1_555
H51 C54 1_555 1_555
C55 C54 1_555 1_555
H52 C55 1_555 1_555
C56 C55 1_555 1_555
H53 C56 1_555 1_555
C57 C56 1_555 1_555
H54 C57 1_555 1_555
C58 C53 1_555 1_555
H55 C58 1_555 1_555
N3 C47 1_555 1_555
H56 N3 1_555 1_555
N4 C47 1_555 1_555
O4 C48 1_555 1_555
O5 C44 1_555 1_555
O6 C44 1_555 1_555
C5 C6 1_555 1_555
C13 C14 1_555 1_555
C16 O2 1_555 1_555
C19 N2 1_555 1_555
C21 N1 1_555 1_555
C27 C28 1_555 1_555
C34 C35 1_555 1_555
C42 C43 1_555 1_555
C45 O5 1_555 1_555
C48 N3 1_555 1_555
C50 N4 1_555 1_555
C57 C58 1_555 1_555

#END
