
#######################################################################
#
#                 Cambridge Crystallographic Data Centre
#                                CCDC 
#
#######################################################################
#
# If this CIF has been generated from an entry in the Cambridge 
# Structural Database, then it will include bibliographic, chemical, 
# crystal, experimental, refinement or atomic coordinate data resulting 
# from the CCDC's data processing and validation procedures.
#
#######################################################################

data_RIQWEV
_chemical_formula_moiety         'C22 H17 Cl1 N2 O5 S2'
_chemical_name_systematic        
N-(1-Acetyl-4-chloro-1H-indol-3-yl)-N-(phenylsulfonyl)benzenesulfonamide
_symmetry_cell_setting           orthorhombic
_symmetry_space_group_name_H-M   'P b c a'
_symmetry_Int_Tables_number      61
_space_group_name_Hall           '-P 2ac 2ab'
loop_
_symmetry_equiv_pos_site_id
_symmetry_equiv_pos_as_xyz
1 x,y,z
2 1/2-x,-y,1/2+z
3 -x,1/2+y,1/2-z
4 1/2+x,1/2-y,-z
5 -x,-y,-z
6 1/2+x,y,1/2-z
7 x,1/2-y,1/2+z
8 1/2-x,1/2+y,z
_cell_length_a                   15.466(3)
_cell_length_b                   10.478(4)
_cell_length_c                   26.552(8)
_cell_angle_alpha                90
_cell_angle_beta                 90
_cell_angle_gamma                90
_cell_volume                     4302.82
_exptl_crystal_colour            colorless
_exptl_crystal_description       plate
_cell_formula_units_Z            8
loop_
_atom_site_label
_atom_site_type_symbol
_atom_site_fract_x
_atom_site_fract_y
_atom_site_fract_z
Cl1 Cl 0.19566(5) 0.49252(7) 0.36936(3)
S1 S 0.04688(5) 0.70517(6) 0.43666(3)
S2 S -0.00922(4) 0.73344(6) 0.32955(3)
O1 O -0.18707(14) 0.16345(18) 0.39443(9)
O2 O -0.08644(13) 0.68520(19) 0.30719(8)
O3 O -0.00471(14) 0.86338(18) 0.34500(8)
O4 O 0.10861(13) 0.80150(19) 0.42467(8)
O5 O 0.07175(14) 0.59579(19) 0.46516(8)
N1 N -0.11110(15) 0.3478(2) 0.38420(9)
N2 N 0.00884(15) 0.6441(2) 0.38148(9)
C1 C -0.10449(18) 0.4801(2) 0.38493(11)
H1 H -0.1517 0.5377 0.3875
C2 C -0.02023(18) 0.5141(2) 0.38134(11)
C3 C 0.03136(18) 0.3997(2) 0.37797(11)
C4 C -0.02682(18) 0.2964(3) 0.38030(11)
C5 C -0.0009(2) 0.1695(3) 0.37682(12)
H2 H -0.0417 0.1017 0.3779
C6 C 0.0864(2) 0.1466(3) 0.37177(12)
H3 H 0.1063 0.0610 0.3695
C7 C 0.14633(19) 0.2462(3) 0.36994(12)
H4 H 0.2062 0.2277 0.3669
C8 C 0.11905(18) 0.3712(3) 0.37258(11)
C9 C -0.18835(18) 0.2773(3) 0.38656(11)
C10 C -0.26939(18) 0.3500(3) 0.37660(12)
H5 H -0.2734 0.3694 0.3406
H6 H -0.2687 0.4297 0.3959
H7 H -0.3194 0.2986 0.3868
C11 C 0.07737(18) 0.6962(3) 0.28950(11)
C12 C 0.15274(19) 0.7675(3) 0.29205(12)
H8 H 0.1572 0.8386 0.3141
C13 C 0.2216(2) 0.7321(3) 0.26151(13)
H9 H 0.2738 0.7800 0.2623
C14 C 0.2147(2) 0.6282(4) 0.23002(13)
H10 H 0.2625 0.6036 0.2098
C15 C 0.1387(2) 0.5594(4) 0.22762(13)
H11 H 0.1342 0.4887 0.2054
C16 C 0.0692(2) 0.5931(3) 0.25751(12)
H12 H 0.0167 0.5462 0.2560
C17 C -0.04503(18) 0.7731(3) 0.46503(10)
C18 C -0.1047(2) 0.6927(3) 0.48814(11)
H13 H -0.0945 0.6034 0.4899
C19 C -0.1791(2) 0.7453(3) 0.50849(12)
H14 H -0.2214 0.6917 0.5236
C20 C -0.1918(2) 0.8764(4) 0.50682(13)
H15 H -0.2428 0.9120 0.5209
C21 C -0.1311(2) 0.9558(3) 0.48483(12)
H16 H -0.1398 1.0455 0.4847
C22 C -0.0571(2) 0.9041(3) 0.46300(11)
H17 H -0.0158 0.9576 0.4470
loop_
_geom_bond_atom_site_label_1
_geom_bond_atom_site_label_2
_geom_bond_site_symmetry_1
_geom_bond_site_symmetry_2
Cl1 C8 1_555 1_555
S1 O4 1_555 1_555
S2 O2 1_555 1_555
O1 C9 1_555 1_555
O3 S2 1_555 1_555
O5 S1 1_555 1_555
N1 C1 1_555 1_555
N2 S1 1_555 1_555
C1 H1 1_555 1_555
C2 N2 1_555 1_555
C3 C2 1_555 1_555
C4 N1 1_555 1_555
C5 C4 1_555 1_555
H2 C5 1_555 1_555
C6 C5 1_555 1_555
H3 C6 1_555 1_555
C7 C6 1_555 1_555
H4 C7 1_555 1_555
C8 C3 1_555 1_555
C9 N1 1_555 1_555
C10 C9 1_555 1_555
H5 C10 1_555 1_555
H6 C10 1_555 1_555
H7 C10 1_555 1_555
C11 S2 1_555 1_555
C12 C11 1_555 1_555
H8 C12 1_555 1_555
C13 C12 1_555 1_555
H9 C13 1_555 1_555
C14 C13 1_555 1_555
H10 C14 1_555 1_555
C15 C14 1_555 1_555
H11 C15 1_555 1_555
C16 C11 1_555 1_555
H12 C16 1_555 1_555
C17 S1 1_555 1_555
C18 C17 1_555 1_555
H13 C18 1_555 1_555
C19 C18 1_555 1_555
H14 C19 1_555 1_555
C20 C19 1_555 1_555
H15 C20 1_555 1_555
C21 C20 1_555 1_555
H16 C21 1_555 1_555
C22 C17 1_555 1_555
H17 C22 1_555 1_555
S2 N2 1_555 1_555
C1 C2 1_555 1_555
C3 C4 1_555 1_555
C7 C8 1_555 1_555
C15 C16 1_555 1_555
C21 C22 1_555 1_555

#END
