
#######################################################################
#
#                 Cambridge Crystallographic Data Centre
#                                CCDC 
#
#######################################################################
#
# If this CIF has been generated from an entry in the Cambridge 
# Structural Database, then it will include bibliographic, chemical, 
# crystal, experimental, refinement or atomic coordinate data resulting 
# from the CCDC's data processing and validation procedures.
#
#######################################################################

data_RIQWAR
_chemical_formula_moiety         'C24 H22 Cl1 N1 O3'
_chemical_name_systematic        
'(S)-1-((S)-3-Phenyl-3,4-dihydro-2H-benzo[b][1,4]oxazin-3-yl)propan-2-yl 4-chlorobenzoate'
_symmetry_cell_setting           monoclinic
_symmetry_space_group_name_H-M   'P 21'
_symmetry_Int_Tables_number      4
_space_group_name_Hall           'P 2yb'
loop_
_symmetry_equiv_pos_site_id
_symmetry_equiv_pos_as_xyz
1 x,y,z
2 -x,1/2+y,-z
_cell_length_a                   6.4384(6)
_cell_length_b                   15.7244(15)
_cell_length_c                   10.1859(10)
_cell_angle_alpha                90
_cell_angle_beta                 90.651(2)
_cell_angle_gamma                90
_cell_volume                     1031.15
_exptl_crystal_colour            colorless
_exptl_crystal_description       prismatic
_cell_formula_units_Z            2
_exptl_crystal_recrystallization_method dichloromethane/n-hexane
loop_
_atom_site_label
_atom_site_type_symbol
_atom_site_fract_x
_atom_site_fract_y
_atom_site_fract_z
Cl1 Cl 1.00703(12) 0.48804(5) -0.18959(6)
N1 N 0.7602(3) 0.69226(11) 0.62246(18)
O1 O 0.3862(3) 0.69911(11) 0.76165(16)
O2 O 0.9820(3) 0.73766(15) 0.34194(19)
O3 O 0.6492(2) 0.73491(9) 0.28138(13)
C1 C 0.5877(3) 0.79003(14) 0.3896(2)
H1 H 0.7120 0.8122 0.4342
C2 C 0.4674(5) 0.86260(16) 0.3288(3)
H2 H 0.5552 0.8932 0.2696
H3 H 0.4210 0.9002 0.3966
H4 H 0.3494 0.8406 0.2814
C3 C 0.4603(3) 0.73945(14) 0.4855(2)
H5 H 0.3406 0.7169 0.4386
H6 H 0.4088 0.7784 0.5515
C4 C 0.5686(3) 0.66517(13) 0.55701(19)
C5 C 0.4292(4) 0.63399(16) 0.6681(2)
H7 H 0.2993 0.6134 0.6309
H8 H 0.4965 0.5867 0.7126
C6 C 0.5564(4) 0.74409(14) 0.80462(19)
C7 C 0.7419(3) 0.74305(13) 0.73435(18)
C8 C 0.9061(4) 0.79028(15) 0.7822(2)
H9 H 1.0317 0.7894 0.7381
C9 C 0.8879(5) 0.83905(17) 0.8947(3)
H10 H 1.0005 0.8709 0.9248
C10 C 0.7053(6) 0.84054(18) 0.9615(2)
H11 H 0.6930 0.8736 1.0368
C11 C 0.5390(5) 0.79278(17) 0.9170(2)
H12 H 0.4148 0.7933 0.9628
C12 C 0.6084(3) 0.58827(13) 0.47020(19)
C13 C 0.4477(4) 0.55384(16) 0.3953(2)
H13 H 0.3171 0.5791 0.3962
C14 C 0.4801(4) 0.48261(18) 0.3196(2)
H14 H 0.3708 0.4601 0.2704
C15 C 0.6710(5) 0.44462(15) 0.3159(3)
H15 H 0.6924 0.3971 0.2634
C16 C 0.8303(4) 0.47736(16) 0.3905(2)
H16 H 0.9603 0.4517 0.3892
C17 C 0.7989(3) 0.54793(14) 0.4671(2)
H17 H 0.9081 0.5690 0.5179
C18 C 0.8475(3) 0.71461(14) 0.2679(2)
C19 C 0.8830(3) 0.65846(13) 0.15394(19)
C20 C 0.7227(3) 0.61709(16) 0.0899(2)
H18 H 0.5867 0.6256 0.1169
C21 C 0.7615(4) 0.5634(2) -0.0136(2)
H19 H 0.6532 0.5339 -0.0541
C22 C 0.9610(4) 0.55376(16) -0.05645(19)
C23 C 1.1203(4) 0.5940(2) 0.0042(3)
H20 H 1.2551 0.5867 -0.0257
C24 C 1.0829(4) 0.64580(19) 0.1106(3)
H21 H 1.1934 0.6724 0.1535
H22 H 0.852(3) 0.7121(13) 0.569(2)
loop_
_geom_bond_atom_site_label_1
_geom_bond_atom_site_label_2
_geom_bond_site_symmetry_1
_geom_bond_site_symmetry_2
Cl1 C22 1_555 1_555
N1 C4 1_555 1_555
O1 C5 1_555 1_555
O2 C18 1_555 1_555
O3 C1 1_555 1_555
C1 H1 1_555 1_555
C2 C1 1_555 1_555
H2 C2 1_555 1_555
H3 C2 1_555 1_555
H4 C2 1_555 1_555
C3 C1 1_555 1_555
H5 C3 1_555 1_555
H6 C3 1_555 1_555
C4 C3 1_555 1_555
C5 C4 1_555 1_555
H7 C5 1_555 1_555
H8 C5 1_555 1_555
C6 O1 1_555 1_555
C7 N1 1_555 1_555
C8 C7 1_555 1_555
H9 C8 1_555 1_555
C9 C8 1_555 1_555
H10 C9 1_555 1_555
C10 C9 1_555 1_555
H11 C10 1_555 1_555
C11 C6 1_555 1_555
H12 C11 1_555 1_555
C12 C4 1_555 1_555
C13 C12 1_555 1_555
H13 C13 1_555 1_555
C14 C13 1_555 1_555
H14 C14 1_555 1_555
C15 C14 1_555 1_555
H15 C15 1_555 1_555
C16 C15 1_555 1_555
H16 C16 1_555 1_555
C17 C12 1_555 1_555
H17 C17 1_555 1_555
C18 O3 1_555 1_555
C19 C18 1_555 1_555
C20 C19 1_555 1_555
H18 C20 1_555 1_555
C21 C20 1_555 1_555
H19 C21 1_555 1_555
C22 C21 1_555 1_555
C23 C22 1_555 1_555
H20 C23 1_555 1_555
C24 C19 1_555 1_555
H21 C24 1_555 1_555
H22 N1 1_555 1_555
C6 C7 1_555 1_555
C10 C11 1_555 1_555
C16 C17 1_555 1_555
C23 C24 1_555 1_555

#END
