
#######################################################################
#
#                 Cambridge Crystallographic Data Centre
#                                CCDC 
#
#######################################################################
#
# If this CIF has been generated from an entry in the Cambridge 
# Structural Database, then it will include bibliographic, chemical, 
# crystal, experimental, refinement or atomic coordinate data resulting 
# from the CCDC's data processing and validation procedures.
#
#######################################################################

data_RIRCAZ
_chemical_formula_moiety         'C10 H12 O3'
_chemical_name_systematic        'methyl 3-(2-hydroxyphenyl)propanoate'
_symmetry_cell_setting           orthorhombic
_symmetry_space_group_name_H-M   'P 21 21 21'
_symmetry_Int_Tables_number      19
_space_group_name_Hall           'P 2ac 2ab'
loop_
_symmetry_equiv_pos_site_id
_symmetry_equiv_pos_as_xyz
1 x,y,z
2 1/2-x,-y,1/2+z
3 -x,1/2+y,1/2-z
4 1/2+x,1/2-y,-z
_cell_length_a                   5.4774(6)
_cell_length_b                   11.1557(12)
_cell_length_c                   14.5610(17)
_cell_angle_alpha                90
_cell_angle_beta                 90
_cell_angle_gamma                90
_cell_volume                     889.739
_exptl_crystal_colour            colorless
_exptl_crystal_description       block
_cell_formula_units_Z            4
loop_
_atom_site_label
_atom_site_type_symbol
_atom_site_fract_x
_atom_site_fract_y
_atom_site_fract_z
O1 O 0.5468(3) 0.18977(17) 0.77139(13)
H1 H 0.642(6) 0.235(3) 0.740(2)
O2 O 0.1249(3) -0.19195(17) 0.84546(13)
O3 O -0.2348(3) -0.18421(16) 0.91771(11)
C1 C 0.3762(5) 0.2573(2) 0.81696(17)
C2 C 0.3865(5) 0.3815(2) 0.8200(2)
H2 H 0.515418 0.422762 0.789969
C3 C 0.2091(5) 0.4451(2) 0.86675(19)
H3 H 0.215294 0.530216 0.868476
C4 C 0.0235(6) 0.3849(2) 0.9108(2)
H4 H -0.097370 0.428212 0.943778
C5 C 0.0136(5) 0.2607(2) 0.90690(18)
H5 H -0.115233 0.219904 0.937426
C6 C 0.1866(4) 0.1949(2) 0.85970(16)
C7 C 0.1802(5) 0.0596(2) 0.85041(19)
H6 H 0.191282 0.038987 0.784403
H7 H 0.326584 0.026163 0.881019
C8 C -0.0424(5) -0.0006(2) 0.88985(19)
H8 H -0.055581 0.020109 0.955777
H9 H -0.189442 0.030922 0.858512
C9 C -0.0375(5) -0.1341(2) 0.88018(19)
C10 C -0.2421(5) -0.3137(2) 0.91727(19)
H10 H -0.393610 -0.341096 0.946253
H11 H -0.235700 -0.342708 0.853791
H12 H -0.101883 -0.345081 0.951474
loop_
_geom_bond_atom_site_label_1
_geom_bond_atom_site_label_2
_geom_bond_site_symmetry_1
_geom_bond_site_symmetry_2
O1 H1 1_555 1_555
O2 C9 1_555 1_555
O3 C9 1_555 1_555
C1 O1 1_555 1_555
C2 C1 1_555 1_555
H2 C2 1_555 1_555
C3 C2 1_555 1_555
H3 C3 1_555 1_555
C4 C3 1_555 1_555
H4 C4 1_555 1_555
C5 C4 1_555 1_555
H5 C5 1_555 1_555
C6 C1 1_555 1_555
C7 C6 1_555 1_555
H6 C7 1_555 1_555
H7 C7 1_555 1_555
C8 C7 1_555 1_555
H8 C8 1_555 1_555
H9 C8 1_555 1_555
C9 C8 1_555 1_555
C10 O3 1_555 1_555
H10 C10 1_555 1_555
H11 C10 1_555 1_555
H12 C10 1_555 1_555
C5 C6 1_555 1_555

#END
