
#######################################################################
#
#                 Cambridge Crystallographic Data Centre
#                                CCDC 
#
#######################################################################
#
# If this CIF has been generated from an entry in the Cambridge 
# Structural Database, then it will include bibliographic, chemical, 
# crystal, experimental, refinement or atomic coordinate data resulting 
# from the CCDC's data processing and validation procedures.
#
#######################################################################

data_RIRRAL
_chemical_formula_moiety         'C81 H99 N3 O24'
_chemical_name_systematic        
5,5,13,13,21,21,29,29,34,34,42,42-dodecakis(Ethoxycarbonyl)-45,47,48-triazaheptacyclo(15.15.11.1^3,31^.1^7,11^.1^15,19^.1^23,27^.1^36,40^)octatetraconta-1,3(44),7(45),8,10,15(46),16,18,23(47),24,26,31,36(48),37,39-pentadecaene
_symmetry_cell_setting           triclinic
_symmetry_space_group_name_H-M   'P -1'
_symmetry_Int_Tables_number      2
_space_group_name_Hall           '-P 1'
loop_
_symmetry_equiv_pos_site_id
_symmetry_equiv_pos_as_xyz
1 x,y,z
2 -x,-y,-z
_cell_length_a                   13.131(1)
_cell_length_b                   13.544(1)
_cell_length_c                   22.520(1)
_cell_angle_alpha                88.24(1)
_cell_angle_beta                 86.82(1)
_cell_angle_gamma                89.64(1)
_cell_volume                     3997
_exptl_crystal_colour            colorless
_chemical_melting_point          203deg.C
_cell_formula_units_Z            2
loop_
_atom_site_label
_atom_site_type_symbol
_atom_site_fract_x
_atom_site_fract_y
_atom_site_fract_z
C1 C 0.2550(3) 0.2355(3) 0.3678(2)
C2 C 0.2507(3) 0.1591(3) 0.3280(2)
H1 H 0.3057(3) 0.1159(3) 0.3233(2)
C3 C 0.1650(3) 0.1464(3) 0.29516(15)
C4 C 0.0857(3) 0.2145(3) 0.3003(2)
H2 H 0.0294(3) 0.2077(3) 0.2774(2)
C5 C 0.0885(3) 0.2924(3) 0.3387(2)
C6 C 0.1732(3) 0.3001(3) 0.3730(2)
H3 H 0.1747(3) 0.3503(3) 0.4002(2)
C7 C 0.3540(2) 0.2774(3) 0.19140(15)
C8 C 0.3924(2) 0.1816(3) 0.1861(2)
H4 H 0.4389(2) 0.1579(3) 0.2129(2)
C9 C 0.3624(3) 0.1209(3) 0.1417(2)
C10 C 0.2910(3) 0.1578(3) 0.1034(2)
H5 H 0.2731(3) 0.1193(3) 0.0722(2)
C11 C 0.2452(3) 0.2496(3) 0.1099(2)
C12 C 0.2789(2) 0.3083(3) 0.1541(2)
H6 H 0.2501(2) 0.3706(3) 0.1589(2)
C13 C 0.3454(3) 0.2557(3) 0.4043(2)
H7 H 0.3240(3) 0.3038(3) 0.4335(2)
H8 H 0.3976(3) 0.2867(3) 0.3779(2)
C14 C 0.3960(3) 0.1682(3) 0.4377(2)
C15 C 0.4769(3) 0.1109(3) 0.3995(2)
H9 H 0.5094(3) 0.0620(3) 0.4247(2)
H10 H 0.4433(3) 0.0761(3) 0.3691(2)
C16 C 0.5576(3) 0.1780(3) 0.3701(2)
C17 C 0.6427(3) 0.2046(3) 0.3997(2)
H11 H 0.6542(3) 0.1778(3) 0.4372(2)
C18 C 0.7099(3) 0.2714(4) 0.3722(2)
H12 H 0.7671(3) 0.2909(4) 0.3913(2)
C19 C 0.6918(3) 0.3090(3) 0.3163(2)
H13 H 0.7361(3) 0.3548(3) 0.2975(2)
C20 C 0.6067(3) 0.2777(3) 0.2886(2)
N1 N 0.5412(2) 0.2119(2) 0.31491(14)
C21 C 0.5859(3) 0.3154(3) 0.2271(2)
H14 H 0.5706(3) 0.2595(3) 0.2033(2)
H15 H 0.6477(3) 0.3456(3) 0.2095(2)
C22 C 0.4972(3) 0.3919(3) 0.2231(2)
C23 C 0.3906(3) 0.3455(3) 0.2378(2)
H16 H 0.3924(3) 0.3087(3) 0.2754(2)
H17 H 0.3412(3) 0.3985(3) 0.2432(2)
C24 C 0.4447(3) 0.2097(3) 0.4914(2)
O1 O 0.4505(3) 0.2950(2) 0.50217(14)
O2 O 0.4820(2) 0.1381(2) 0.52558(12)
C25 C 0.5198(4) 0.1690(4) 0.5821(2)
H18 H 0.5506(4) 0.2339(4) 0.5776(2)
H19 H 0.5704(4) 0.1225(4) 0.5961(2)
C26 C 0.4266(7) 0.1711(7) 0.6257(4)
H22 H 0.4469(7) 0.1910(7) 0.6639(4)
H23 H 0.3970(7) 0.1064(7) 0.6296(4)
H24 H 0.3773(7) 0.2172(7) 0.6112(4)
C28 C 0.3132(3) 0.0961(3) 0.4611(2)
O3 O 0.3081(2) 0.0107(2) 0.44927(15)
O4 O 0.2450(3) 0.1428(2) 0.49623(15)
C29 C 0.1534(5) 0.0876(5) 0.5172(3)
H28 H 0.1668(5) 0.0175(5) 0.5135(3)
H29 H 0.1389(5) 0.0999(5) 0.5591(3)
C30 C 0.0682(10) 0.1131(16) 0.4860(8)
H32 H 0.0108(10) 0.0750(16) 0.5015(8)
H33 H 0.0814(10) 0.0998(16) 0.4446(8)
H34 H 0.0536(10) 0.1822(16) 0.4902(8)
C32 C 0.5042(3) 0.4405(3) 0.1609(2)
O5 O 0.5712(2) 0.4288(3) 0.12370(14)
O6 O 0.4243(2) 0.5012(2) 0.15341(13)
C33 C 0.4226(4) 0.5541(4) 0.0959(2)
H38 H 0.4919(4) 0.5703(4) 0.0820(2)
H39 H 0.3851(4) 0.6155(4) 0.1009(2)
C34 C 0.3746(5) 0.4951(5) 0.0505(3)
H40 H 0.3751(5) 0.5324(5) 0.0135(3)
H41 H 0.3055(5) 0.4800(5) 0.0637(3)
H42 H 0.4123(5) 0.4348(5) 0.0448(3)
C35 C 0.5209(3) 0.4746(3) 0.2651(2)
O7 O 0.5791(3) 0.5402(2) 0.2510(2)
O8 O 0.4746(2) 0.4633(2) 0.31777(14)
C36 C 0.4991(5) 0.5351(5) 0.3618(3)
H43 H 0.5373(5) 0.5887(5) 0.3417(3)
H44 H 0.4360(5) 0.5626(5) 0.3787(3)
C37 C 0.5535(9) 0.4980(8) 0.4063(5)
H47 H 0.5666(9) 0.5493(8) 0.4333(5)
H48 H 0.6171(9) 0.4721(8) 0.3902(5)
H49 H 0.5157(9) 0.4460(8) 0.4272(5)
C39 C 0.1599(3) 0.0616(3) 0.2531(2)
H53 H 0.2283(3) 0.0474(3) 0.2369(2)
H54 H 0.1192(3) 0.0820(3) 0.2202(2)
C40 C 0.1140(3) -0.0346(3) 0.2825(2)
C41 C 0.1855(3) -0.0847(3) 0.3268(2)
H55 H 0.2083(3) -0.0354(3) 0.3533(2)
H56 H 0.1470(3) -0.1338(3) 0.3508(2)
C42 C 0.2772(3) -0.1337(3) 0.2975(2)
C43 C 0.2817(4) -0.2366(3) 0.2931(2)
H57 H 0.2288(4) -0.2762(3) 0.3090(2)
C44 C 0.3659(4) -0.2775(3) 0.2648(2)
H58 H 0.3712(4) -0.3457(3) 0.2618(2)
C45 C 0.4426(4) -0.2178(3) 0.2408(2)
H59 H 0.5002(4) -0.2450(3) 0.2217(2)
C46 C 0.4327(3) -0.1159(3) 0.2456(2)
N2 N 0.3517(2) -0.0743(2) 0.27463(14)
C47 C 0.5110(3) -0.0450(3) 0.2182(2)
H60 H 0.5784(3) -0.0722(3) 0.2239(2)
H61 H 0.5055(3) 0.0166(3) 0.2391(2)
C48 C 0.5005(3) -0.0229(3) 0.1511(2)
C49 C 0.3934(3) 0.0134(3) 0.1347(2)
H62 H 0.3859(3) -0.0021(3) 0.0934(2)
H63 H 0.3439(3) -0.0262(3) 0.1582(2)
C50 C 0.0911(3) -0.1111(3) 0.2369(2)
O9 O 0.0330(3) -0.1779(3) 0.2465(2)
O10 O 0.1457(2) -0.0980(2) 0.18651(15)
C51 C 0.1385(6) -0.1573(6) 0.1327(3)
H64 H 0.1549(6) -0.1168(6) 0.0972(3)
H65 H 0.0699(6) -0.1825(6) 0.1306(3)
C52 C 0.2132(6) -0.2412(6) 0.1372(4)
H66 H 0.2103(6) -0.2811(6) 0.1028(4)
H67 H 0.1962(6) -0.2807(6) 0.1724(4)
H68 H 0.2808(6) -0.2153(6) 0.1391(4)
C55 C 0.0132(4) -0.0106(3) 0.3155(3)
O11 O -0.0067(3) -0.0198(3) 0.3676(2)
O12 O -0.0523(2) 0.0257(3) 0.2766(2)
C56 C -0.1529(7) 0.0396(9) 0.3136(5)
H74 H -0.1756(7) -0.0209(9) 0.3344(5)
H75 H -0.1492(7) 0.0923(9) 0.3416(5)
C57 C -0.2171(8) 0.0670(10) 0.2628(5)
H76 H -0.2859(8) 0.0791(10) 0.2776(5)
H77 H -0.2163(8) 0.0138(10) 0.2355(5)
H78 H -0.1903(8) 0.1255(10) 0.2427(5)
C60 C 0.5803(3) 0.0527(3) 0.1281(2)
O13 O 0.6355(2) 0.0953(2) 0.15898(14)
O14 O 0.5788(2) 0.0652(2) 0.06922(14)
C61 C 0.6446(4) 0.1422(4) 0.0407(3)
H84 H 0.6624(4) 0.1254(4) -0.0001(3)
H85 H 0.7071(4) 0.1463(4) 0.0615(3)
C62 C 0.5917(6) 0.2380(4) 0.0418(3)
H86 H 0.6353(6) 0.2879(4) 0.0230(3)
H87 H 0.5749(6) 0.2549(4) 0.0823(3)
H88 H 0.5303(6) 0.2340(4) 0.0207(3)
C63 C 0.5213(3) -0.1192(3) 0.1177(2)
O15 O 0.4609(2) -0.1639(2) 0.0924(2)
O16 O 0.6170(2) -0.1503(2) 0.1234(2)
C64 C 0.6477(4) -0.2406(4) 0.0907(3)
H89 H 0.5874(4) -0.2749(4) 0.0794(3)
H90 H 0.6881(4) -0.2223(4) 0.0547(3)
C65 C 0.7052(7) -0.3033(5) 0.1275(4)
H91 H 0.7249(7) -0.3615(5) 0.1064(4)
H92 H 0.6646(7) -0.3216(5) 0.1628(4)
H93 H 0.7650(7) -0.2692(5) 0.1382(4)
C66 C -0.0002(3) 0.3638(3) 0.3453(2)
H94 H -0.0245(3) 0.3623(3) 0.3867(2)
H95 H -0.0549(3) 0.3396(3) 0.3225(2)
C67 C 0.0199(3) 0.4726(3) 0.3258(2)
C68 C 0.0560(3) 0.4847(3) 0.2597(2)
H96 H 0.0625(3) 0.5546(3) 0.2497(2)
H97 H 0.1233(3) 0.4552(3) 0.2543(2)
C69 C -0.0129(3) 0.4392(3) 0.2166(2)
C70 C -0.1078(3) 0.4786(4) 0.2044(2)
H98 H -0.1306(3) 0.5366(4) 0.2219(2)
C71 C -0.1676(3) 0.4307(4) 0.1663(2)
H99 H -0.2308(3) 0.4564(4) 0.1571(2)
C72 C -0.1325(3) 0.3441(4) 0.1418(2)
H100 H -0.1729(3) 0.3092(4) 0.1172(2)
C73 C -0.0359(3) 0.3096(3) 0.1544(2)
N3 N 0.0229(2) 0.3570(3) 0.19114(15)
C74 C 0.0087(3) 0.2159(3) 0.1294(2)
H101 H -0.0461(3) 0.1688(3) 0.1267(2)
H102 H 0.0556(3) 0.1882(3) 0.1573(2)
C75 C 0.0653(3) 0.2267(3) 0.0681(2)
C76 C 0.1640(3) 0.2888(3) 0.0694(2)
H103 H 0.1943(3) 0.2945(3) 0.0292(2)
H104 H 0.1450(3) 0.3548(3) 0.0815(2)
C77 C 0.1008(4) 0.5182(3) 0.3631(2)
O17 O 0.1818(3) 0.5480(2) 0.3438(2)
O18 O 0.0688(3) 0.5190(3) 0.4203(2)
C78 C 0.1359(6) 0.5611(6) 0.4633(4)
H105 H 0.1214(6) 0.5288(6) 0.5019(4)
H106 H 0.2061(6) 0.5460(6) 0.4511(4)
C79 C 0.1271(11) 0.6547(11) 0.4690(7)
H109 H 0.1731(11) 0.6760(11) 0.4976(7)
H110 H 0.0584(11) 0.6704(11) 0.4823(7)
H111 H 0.1433(11) 0.6876(11) 0.4313(7)
C81 C -0.0777(4) 0.5314(3) 0.3387(2)
O19 O -0.1577(2) 0.4971(2) 0.3563(2)
O20 O -0.0610(3) 0.6278(2) 0.3275(2)
C82 C -0.1444(5) 0.6974(5) 0.3418(4)
H115 H -0.1886(5) 0.6702(5) 0.3741(4)
H116 H -0.1168(5) 0.7591(5) 0.3544(4)
C83 C -0.2013(6) 0.7148(7) 0.2903(5)
H117 H -0.2559(6) 0.7602(7) 0.2994(5)
H118 H -0.2289(6) 0.6535(7) 0.2782(5)
H119 H -0.1573(6) 0.7422(7) 0.2586(5)
C84 C -0.0116(3) 0.2681(3) 0.0250(2)
O21 O -0.0838(2) 0.2229(2) 0.01161(15)
O22 O 0.0068(3) 0.3592(2) 0.0070(2)
C85 C -0.0849(6) 0.4105(5) -0.0260(3)
H120 H -0.1457(6) 0.3699(5) -0.0245(3)
H121 H -0.1014(6) 0.4757(5) -0.0115(3)
C86 C -0.0354(6) 0.4133(6) -0.0804(4)
H122 H -0.0787(6) 0.4431(6) -0.1090(4)
H123 H -0.0179(6) 0.3474(6) -0.0918(4)
H124 H 0.0257(6) 0.4516(6) -0.0790(4)
C87 C 0.0903(3) 0.1241(3) 0.0451(2)
O23 O 0.0801(2) 0.0484(2) 0.0741(2)
O24 O 0.1262(2) 0.1294(2) -0.01132(14)
C88 C 0.1554(4) 0.0372(4) -0.0398(3)
H125 H 0.1129(4) -0.0161(4) -0.0231(3)
H126 H 0.2258(4) 0.0213(4) -0.0324(3)
C89 C 0.1434(4) 0.0477(4) -0.1040(2)
H127 H 0.1627(4) -0.0129(4) -0.1226(2)
H128 H 0.1862(4) 0.1002(4) -0.1203(2)
H129 H 0.0735(4) 0.0628(4) -0.1111(2)
H20? H 0.5314(4) 0.1122(4) 0.6082(2)
H21? H 0.4715(4) 0.2130(4) 0.6021(2)
C27? C 0.6269(15) 0.2258(17) 0.5638(10)
H25? H 0.6563(15) 0.2484(17) 0.5990(10)
H26? H 0.6138(15) 0.2814(17) 0.5377(10)
H27? H 0.6733(15) 0.1812(17) 0.5438(10)
H30? H 0.1579(5) 0.0669(5) 0.5586(3)
H31? H 0.1461(5) 0.0294(5) 0.4938(3)
C31? C 0.0629(9) 0.1573(14) 0.5101(9)
H35? H 0.0010(9) 0.1241(14) 0.5234(9)
H36? H 0.0594(9) 0.1773(14) 0.4690(9)
H37? H 0.0712(9) 0.2146(14) 0.5334(9)
H45? H 0.5722(5) 0.5347(5) 0.3660(3)
H46? H 0.4798(5) 0.6005(5) 0.3476(3)
C38? C 0.4535(11) 0.5169(10) 0.4129(5)
H50? H 0.4719(11) 0.5658(10) 0.4402(5)
H51? H 0.4734(11) 0.4527(10) 0.4275(5)
H52? H 0.3810(11) 0.5185(10) 0.4091(5)
C53? C 0.1241(9) -0.1902(10) 0.1525(6)
H69? H 0.1251(9) -0.2494(10) 0.1778(6)
H70? H 0.0596(9) -0.1855(10) 0.1336(6)
C54? C 0.2137(9) -0.1861(11) 0.1077(6)
H71? H 0.2111(9) -0.2412(11) 0.0820(6)
H72? H 0.2760(9) -0.1889(11) 0.1281(6)
H73? H 0.2112(9) -0.1257(11) 0.0844(6)
C58? C -0.1509(7) 0.0760(8) 0.2904(6)
H79? H -0.1622(7) 0.1283(8) 0.2610(6)
H80? H -0.1513(7) 0.1048(8) 0.3294(6)
C59? C -0.2314(8) -0.0008(10) 0.2892(6)
H81? H -0.2970(8) 0.0287(10) 0.2980(6)
H82? H -0.2192(8) -0.0519(10) 0.3185(6)
H83? H -0.2300(8) -0.0285(10) 0.2505(6)
H107? H 0.1776(6) 0.6110(6) 0.4421(4)
H108? H 0.0927(6) 0.5949(6) 0.4926(4)
C80? C 0.1935(15) 0.5065(16) 0.4906(9)
H112? H 0.2318(15) 0.5449(16) 0.5166(9)
H113? H 0.2396(15) 0.4741(16) 0.4628(9)
H114? H 0.1543(15) 0.4579(16) 0.5136(9)
loop_
_geom_bond_atom_site_label_1
_geom_bond_atom_site_label_2
_geom_bond_site_symmetry_1
_geom_bond_site_symmetry_2
C1 C2 1_555 1_555
C2 H1 1_555 1_555
C3 C2 1_555 1_555
C4 C3 1_555 1_555
H2 C4 1_555 1_555
C5 C4 1_555 1_555
C6 C1 1_555 1_555
H3 C6 1_555 1_555
C7 C8 1_555 1_555
C8 H4 1_555 1_555
C9 C8 1_555 1_555
C10 C9 1_555 1_555
H5 C10 1_555 1_555
C11 C10 1_555 1_555
C12 C7 1_555 1_555
H6 C12 1_555 1_555
C13 C1 1_555 1_555
H7 C13 1_555 1_555
H8 C13 1_555 1_555
C14 C13 1_555 1_555
C15 C14 1_555 1_555
H9 C15 1_555 1_555
H10 C15 1_555 1_555
C16 C15 1_555 1_555
C17 C16 1_555 1_555
H11 C17 1_555 1_555
C18 C17 1_555 1_555
H12 C18 1_555 1_555
C19 C18 1_555 1_555
H13 C19 1_555 1_555
C20 C19 1_555 1_555
N1 C16 1_555 1_555
C21 C20 1_555 1_555
H14 C21 1_555 1_555
H15 C21 1_555 1_555
C22 C21 1_555 1_555
C23 C7 1_555 1_555
H16 C23 1_555 1_555
H17 C23 1_555 1_555
C24 C14 1_555 1_555
O1 C24 1_555 1_555
O2 C24 1_555 1_555
C25 O2 1_555 1_555
H18 C25 1_555 1_555
H19 C25 1_555 1_555
C26 C25 1_555 1_555
H22 C26 1_555 1_555
H23 C26 1_555 1_555
H24 C26 1_555 1_555
C28 C14 1_555 1_555
O3 C28 1_555 1_555
O4 C28 1_555 1_555
C29 O4 1_555 1_555
H28 C29 1_555 1_555
H29 C29 1_555 1_555
C30 C29 1_555 1_555
H32 C30 1_555 1_555
H33 C30 1_555 1_555
H34 C30 1_555 1_555
C32 C22 1_555 1_555
O5 C32 1_555 1_555
O6 C32 1_555 1_555
C33 O6 1_555 1_555
H38 C33 1_555 1_555
H39 C33 1_555 1_555
C34 C33 1_555 1_555
H40 C34 1_555 1_555
H41 C34 1_555 1_555
H42 C34 1_555 1_555
C35 C22 1_555 1_555
O7 C35 1_555 1_555
O8 C35 1_555 1_555
C36 O8 1_555 1_555
H43 C36 1_555 1_555
H44 C36 1_555 1_555
C37 C36 1_555 1_555
H47 C37 1_555 1_555
H48 C37 1_555 1_555
H49 C37 1_555 1_555
C39 C3 1_555 1_555
H53 C39 1_555 1_555
H54 C39 1_555 1_555
C40 C39 1_555 1_555
C41 C40 1_555 1_555
H55 C41 1_555 1_555
H56 C41 1_555 1_555
C42 C41 1_555 1_555
C43 C42 1_555 1_555
H57 C43 1_555 1_555
C44 C43 1_555 1_555
H58 C44 1_555 1_555
C45 C44 1_555 1_555
H59 C45 1_555 1_555
C46 C45 1_555 1_555
N2 C42 1_555 1_555
C47 C46 1_555 1_555
H60 C47 1_555 1_555
H61 C47 1_555 1_555
C48 C47 1_555 1_555
C49 C9 1_555 1_555
H62 C49 1_555 1_555
H63 C49 1_555 1_555
C50 C40 1_555 1_555
O9 C50 1_555 1_555
O10 C50 1_555 1_555
C51 O10 1_555 1_555
H64 C51 1_555 1_555
H65 C51 1_555 1_555
C52 C51 1_555 1_555
H66 C52 1_555 1_555
H67 C52 1_555 1_555
H68 C52 1_555 1_555
C55 C40 1_555 1_555
O11 C55 1_555 1_555
O12 C55 1_555 1_555
C56 O12 1_555 1_555
H74 C56 1_555 1_555
H75 C56 1_555 1_555
C57 C56 1_555 1_555
H76 C57 1_555 1_555
H77 C57 1_555 1_555
H78 C57 1_555 1_555
C60 C48 1_555 1_555
O13 C60 1_555 1_555
O14 C60 1_555 1_555
C61 O14 1_555 1_555
H84 C61 1_555 1_555
H85 C61 1_555 1_555
C62 C61 1_555 1_555
H86 C62 1_555 1_555
H87 C62 1_555 1_555
H88 C62 1_555 1_555
C63 C48 1_555 1_555
O15 C63 1_555 1_555
O16 C63 1_555 1_555
C64 O16 1_555 1_555
H89 C64 1_555 1_555
H90 C64 1_555 1_555
C65 C64 1_555 1_555
H91 C65 1_555 1_555
H92 C65 1_555 1_555
H93 C65 1_555 1_555
C66 C5 1_555 1_555
H94 C66 1_555 1_555
H95 C66 1_555 1_555
C67 C66 1_555 1_555
C68 C67 1_555 1_555
H96 C68 1_555 1_555
H97 C68 1_555 1_555
C69 C68 1_555 1_555
C70 C69 1_555 1_555
H98 C70 1_555 1_555
C71 C70 1_555 1_555
H99 C71 1_555 1_555
C72 C71 1_555 1_555
H100 C72 1_555 1_555
C73 C72 1_555 1_555
N3 C69 1_555 1_555
C74 C73 1_555 1_555
H101 C74 1_555 1_555
H102 C74 1_555 1_555
C75 C74 1_555 1_555
C76 C11 1_555 1_555
H103 C76 1_555 1_555
H104 C76 1_555 1_555
C77 C67 1_555 1_555
O17 C77 1_555 1_555
O18 C77 1_555 1_555
C78 O18 1_555 1_555
H105 C78 1_555 1_555
H106 C78 1_555 1_555
C79 C78 1_555 1_555
H109 C79 1_555 1_555
H110 C79 1_555 1_555
H111 C79 1_555 1_555
C81 C67 1_555 1_555
O19 C81 1_555 1_555
O20 C81 1_555 1_555
C82 O20 1_555 1_555
H115 C82 1_555 1_555
H116 C82 1_555 1_555
C83 C82 1_555 1_555
H117 C83 1_555 1_555
H118 C83 1_555 1_555
H119 C83 1_555 1_555
C84 C75 1_555 1_555
O21 C84 1_555 1_555
O22 C84 1_555 1_555
C85 O22 1_555 1_555
H120 C85 1_555 1_555
H121 C85 1_555 1_555
C86 C85 1_555 1_555
H122 C86 1_555 1_555
H123 C86 1_555 1_555
H124 C86 1_555 1_555
C87 C75 1_555 1_555
O23 C87 1_555 1_555
O24 C87 1_555 1_555
C88 O24 1_555 1_555
H125 C88 1_555 1_555
H126 C88 1_555 1_555
C89 C88 1_555 1_555
H127 C89 1_555 1_555
H128 C89 1_555 1_555
H129 C89 1_555 1_555
C5 C6 1_555 1_555
C11 C12 1_555 1_555
C20 N1 1_555 1_555
C22 C23 1_555 1_555
C46 N2 1_555 1_555
C48 C49 1_555 1_555
C73 N3 1_555 1_555
C75 C76 1_555 1_555

#END
