
#######################################################################
#
#                 Cambridge Crystallographic Data Centre
#                                CCDC 
#
#######################################################################
#
# If this CIF has been generated from an entry in the Cambridge 
# Structural Database, then it will include bibliographic, chemical, 
# crystal, experimental, refinement or atomic coordinate data resulting 
# from the CCDC's data processing and validation procedures.
#
#######################################################################

data_RISBUR
_chemical_formula_moiety         'C12 H12 N2 O2'
_chemical_name_systematic        
(S)-2,3,5,10,11,11a-Hexahydro-1H-pyrrolo(2,1-c)(1,4)benzodiazepine-3,11-dione
_symmetry_cell_setting           monoclinic
_symmetry_space_group_name_H-M   'C 2'
_symmetry_Int_Tables_number      5
_space_group_name_Hall           'C 2y'
loop_
_symmetry_equiv_pos_site_id
_symmetry_equiv_pos_as_xyz
1 x,y,z
2 -x,y,-z
3 1/2+x,1/2+y,z
4 1/2-x,1/2+y,-z
_cell_length_a                   16.280(2)
_cell_length_b                   6.2848(9)
_cell_length_c                   11.1016(15)
_cell_angle_alpha                90
_cell_angle_beta                 112.810(2)
_cell_angle_gamma                90
_cell_volume                     1047.05
_exptl_crystal_colour            colorless
_exptl_crystal_description       Block
_cell_formula_units_Z            4
_exptl_crystal_recrystallization_method 'ethyl acetate'
loop_
_atom_site_label
_atom_site_type_symbol
_atom_site_fract_x
_atom_site_fract_y
_atom_site_fract_z
C1 C 0.65320(15) 0.9090(4) 0.9102(2)
C2 C 0.61760(16) 0.7804(4) 0.9947(2)
H1 H 0.5689 0.8577 1.0083
H2 H 0.6654 0.7504 1.0809
C3 C 0.58320(16) 0.5751(4) 0.9194(2)
H3 H 0.5181 0.5825 0.8688
H4 H 0.5964 0.4517 0.9795
C4 C 0.63361(15) 0.5576(4) 0.8278(2)
H5 H 0.6886 0.4700 0.8700
C5 C 0.57841(15) 0.4697(4) 0.6922(2)
C6 C 0.71544(15) 0.4757(4) 0.6450(2)
C7 C 0.76369(16) 0.3207(4) 0.6119(2)
H6 H 0.7352 0.1945 0.5686
C8 C 0.85484(18) 0.3519(5) 0.6431(3)
H7 H 0.8885 0.2463 0.6212
C9 C 0.89569(16) 0.5354(5) 0.7053(3)
H8 H 0.9577 0.5556 0.7273
C10 C 0.84635(16) 0.6912(5) 0.7360(2)
H9 H 0.8749 0.8179 0.7783
C11 C 0.75563(15) 0.6642(4) 0.7055(2)
C12 C 0.70051(17) 0.8408(4) 0.7277(2)
H10 H 0.7392 0.9658 0.7643
H11 H 0.6540 0.8834 0.6428
N1 N 0.65789(13) 0.7786(3) 0.81665(19)
N2 N 0.62252(12) 0.4396(4) 0.61258(18)
H12 H 0.5911 0.3934 0.5331
O1 O 0.67442(13) 1.0953(3) 0.9227(2)
O2 O 0.49882(10) 0.4306(3) 0.65628(16)
loop_
_geom_bond_atom_site_label_1
_geom_bond_atom_site_label_2
_geom_bond_site_symmetry_1
_geom_bond_site_symmetry_2
C1 C2 1_555 1_555
C2 H1 1_555 1_555
H2 C2 1_555 1_555
C3 C2 1_555 1_555
H3 C3 1_555 1_555
H4 C3 1_555 1_555
C4 C3 1_555 1_555
H5 C4 1_555 1_555
C5 C4 1_555 1_555
C6 C7 1_555 1_555
C7 H6 1_555 1_555
C8 C7 1_555 1_555
H7 C8 1_555 1_555
C9 C8 1_555 1_555
H8 C9 1_555 1_555
C10 C9 1_555 1_555
H9 C10 1_555 1_555
C11 C6 1_555 1_555
C12 C11 1_555 1_555
H10 C12 1_555 1_555
H11 C12 1_555 1_555
N1 C1 1_555 1_555
N2 C5 1_555 1_555
H12 N2 1_555 1_555
O1 C1 1_555 1_555
O2 C5 1_555 1_555
C4 N1 1_555 1_555
C6 N2 1_555 1_555
C10 C11 1_555 1_555
C12 N1 1_555 1_555

#END
