
#######################################################################
#
#                 Cambridge Crystallographic Data Centre
#                                CCDC 
#
#######################################################################
#
# If this CIF has been generated from an entry in the Cambridge 
# Structural Database, then it will include bibliographic, chemical, 
# crystal, experimental, refinement or atomic coordinate data resulting 
# from the CCDC's data processing and validation procedures.
#
#######################################################################

data_RISHIM01
_chemical_formula_moiety         'C10 H16 N1 1+,B1 F4 1-'
_chemical_name_systematic        'N-Isopropylbenzylammonium tetrafluoroborate'
_symmetry_cell_setting           monoclinic
_symmetry_space_group_name_H-M   'C 2/m'
_symmetry_Int_Tables_number      12
_space_group_name_Hall           '-C 2y'
loop_
_symmetry_equiv_pos_site_id
_symmetry_equiv_pos_as_xyz
1 x,y,z
2 -x,y,-z
3 1/2+x,1/2+y,z
4 1/2-x,1/2+y,-z
5 -x,-y,-z
6 x,-y,z
7 1/2-x,1/2-y,-z
8 1/2+x,1/2-y,z
_cell_length_a                   18.493(4)
_cell_length_b                   7.7954(16)
_cell_length_c                   10.016(2)
_cell_angle_alpha                90
_cell_angle_beta                 119.35(3)
_cell_angle_gamma                90
_cell_volume                     1258.57
_cell_formula_units_Z            4
loop_
_atom_site_label
_atom_site_type_symbol
_atom_site_fract_x
_atom_site_fract_y
_atom_site_fract_z
F1 F 0.2294(2) 0.1384(3) 1.0843(3)
B1 B 0.2237(4) 0.0000 1.1609(7)
F2 F 0.2853(4) 0.0000 1.3056(5)
F3 F 0.1558(4) 0.0000 1.1674(8)
F1E F 0.2294(2) -0.1384(3) 1.0843(3)
N1 N 0.2822(2) 0.0000 0.8616(3)
H1 H 0.2741 0.0950 0.9071
C1 C 0.4295(3) 0.0000 1.0650(6)
C2 C 0.3698(3) 0.0000 0.8965(5)
H2 H 0.3799 0.1026 0.8498
C3 C 0.2173(3) 0.0000 0.6973(6)
C4 C 0.1339(3) 0.0000 0.6858(7)
H3 H 0.1340 -0.0788 0.7621
H4 H 0.0922 -0.0373 0.5830
H5 H 0.1206 0.1161 0.7046
C5 C 0.4581(3) 0.1517(9) 1.1404(6)
H6 H 0.4384 0.2569 1.0868
C6 C 0.2312(5) 0.0791(13) 0.5903(8)
C7 C 0.5420(6) 0.0000 1.3678(10)
H7 H 0.5803 0.0000 1.4746
C8 C 0.5160(4) 0.1528(14) 1.2953(8)
H8 H 0.5368 0.2577 1.3489
H9 H 0.1868 0.0655 0.4978
H10 H 0.2757 0.0319 0.5922
H11 H 0.2398 0.1911 0.6125
H12 H 0.2111 -0.1081 0.6668
H1E H 0.2741 -0.0950 0.9071
H2E H 0.3799 -0.1026 0.8498
H3E H 0.1340 0.0788 0.7621
H4E H 0.0922 0.0373 0.5830
H5E H 0.1206 -0.1161 0.7046
C5E C 0.4581(3) -0.1517(9) 1.1404(6)
H6E H 0.4384 -0.2569 1.0868
C6E C 0.2312(5) -0.0791(13) 0.5903(8)
C8E C 0.5160(4) -0.1528(14) 1.2953(8)
H8E H 0.5368 -0.2577 1.3489
H9E H 0.1868 -0.0655 0.4978
H10E H 0.2757 -0.0319 0.5922
H11E H 0.2398 -0.1911 0.6125
H12E H 0.2111 0.1081 0.6668
H13? H 0.2741 0.0950 0.9071
H14? H 0.3799 0.1026 0.8498
loop_
_geom_bond_atom_site_label_1
_geom_bond_atom_site_label_2
_geom_bond_site_symmetry_1
_geom_bond_site_symmetry_2
N1 H1 1_555 1_555
C1 C2 1_555 1_555
C2 N1 1_555 1_555
H2 C2 1_555 1_555
C3 N1 1_555 1_555
C4 C3 1_555 1_555
H3 C4 1_555 1_555
H4 C4 1_555 1_555
H5 C4 1_555 1_555
C5 C1 1_555 1_555
H6 C5 1_555 1_555
C6 C3 1_555 1_555
C7 H7 1_555 1_555
C8 C5 1_555 1_555
H8 C8 1_555 1_555
H9 C6 1_555 1_555
H10 C6 1_555 1_555
H11 C6 1_555 1_555
H12 C3 1_555 1_555
F1 B1 1_555 1_555
B1 F2 1_555 1_555
F3 B1 1_555 1_555
H1E N1 1_555 1_555
H2E C2 1_555 1_555
H3E C4 1_555 1_555
H4E C4 1_555 1_555
H5E C4 1_555 1_555
C5E C1 1_555 1_555
H6E C5E 1_555 1_555
C6E C3 1_555 1_555
C8E C7 1_555 1_555
H8E C8E 1_555 1_555
H9E C6E 1_555 1_555
H10E C6 1_555 1_555
H11E C6E 1_555 1_555
H12E C3 1_555 1_555
F1E B1 1_555 1_555
C6 C6E 1_555 1_555
C6 H12E 1_555 1_555
C7 C8 1_555 1_555
H10 C6E 1_555 1_555
H12 C6E 1_555 1_555
C5E C8E 1_555 1_555
C6E H10E 1_555 1_555

#END
