
#######################################################################
#
#                 Cambridge Crystallographic Data Centre
#                                CCDC 
#
#######################################################################
#
# If this CIF has been generated from an entry in the Cambridge 
# Structural Database, then it will include bibliographic, chemical, 
# crystal, experimental, refinement or atomic coordinate data resulting 
# from the CCDC's data processing and validation procedures.
#
#######################################################################

data_RITYAV
_chemical_formula_moiety         'C10 H8 N2 S2'
_chemical_name_systematic        bis(thiophen-3-ylmethylidene)hydrazine
_symmetry_cell_setting           monoclinic
_symmetry_space_group_name_H-M   'P 21/c'
_symmetry_Int_Tables_number      14
_space_group_name_Hall           '-P 2ybc'
loop_
_symmetry_equiv_pos_site_id
_symmetry_equiv_pos_as_xyz
1 x,y,z
2 -x,1/2+y,1/2-z
3 -x,-y,-z
4 x,1/2-y,1/2+z
_cell_length_a                   10.5374(12)
_cell_length_b                   5.1329(9)
_cell_length_c                   10.545(3)
_cell_angle_alpha                90
_cell_angle_beta                 116.13(2)
_cell_angle_gamma                90
_cell_volume                     512.06
_exptl_crystal_colour            yellow
_exptl_crystal_description       Block
_cell_formula_units_Z            2
_exptl_crystal_recrystallization_method dichloromethane/hexane
loop_
_atom_site_label
_atom_site_type_symbol
_atom_site_fract_x
_atom_site_fract_y
_atom_site_fract_z
S1 S 0.37540(7) 0.25062(11) 0.83612(6)
N1 N 0.05316(19) 0.9063(4) 0.51225(19)
C1 C 0.3716(3) 0.3116(5) 0.6746(2)
H1 H 0.418(2) 0.235(4) 0.656(2)
C2 C 0.2746(2) 0.4988(5) 0.6033(2)
H2 H 0.254(2) 0.554(5) 0.513(2)
C3 C 0.2002(2) 0.5944(4) 0.6800(2)
C4 C 0.2462(2) 0.4735(5) 0.8083(2)
H3 H 0.209(2) 0.494(5) 0.880(2)
C5 C 0.0920(3) 0.7934(5) 0.6316(3)
H4 H 0.048(3) 0.832(5) 0.692(3)
S1B S -0.37540(7) 1.74938(11) 0.16388(6)
N1B N -0.05316(19) 1.0937(4) 0.48775(19)
C1B C -0.3716(3) 1.6884(5) 0.3254(2)
H1B H -0.418(2) 1.765(4) 0.344(2)
C2B C -0.2746(2) 1.5012(5) 0.3967(2)
H2B H -0.254(2) 1.446(5) 0.487(2)
C3B C -0.2002(2) 1.4056(4) 0.3200(2)
C4B C -0.2462(2) 1.5265(5) 0.1917(2)
H3B H -0.209(2) 1.506(5) 0.120(2)
C5B C -0.0920(3) 1.2066(5) 0.3684(3)
H4B H -0.048(3) 1.168(5) 0.308(3)
loop_
_geom_bond_atom_site_label_1
_geom_bond_atom_site_label_2
_geom_bond_site_symmetry_1
_geom_bond_site_symmetry_2
S1 C1 1_555 1_555
N1 C5 1_555 1_555
C1 H1 1_555 1_555
C2 C1 1_555 1_555
H2 C2 1_555 1_555
C3 C2 1_555 1_555
C4 S1 1_555 1_555
H3 C4 1_555 1_555
C5 C3 1_555 1_555
H4 C5 1_555 1_555
S1B C1B 1_555 1_555
N1B N1 1_555 1_555
C1B H1B 1_555 1_555
C2B C1B 1_555 1_555
H2B C2B 1_555 1_555
C3B C2B 1_555 1_555
C4B S1B 1_555 1_555
H3B C4B 1_555 1_555
C5B N1B 1_555 1_555
H4B C5B 1_555 1_555
C3 C4 1_555 1_555
C3B C4B 1_555 1_555
C3B C5B 1_555 1_555

#END
