
#######################################################################
#
#                 Cambridge Crystallographic Data Centre
#                                CCDC 
#
#######################################################################
#
# If this CIF has been generated from an entry in the Cambridge 
# Structural Database, then it will include bibliographic, chemical, 
# crystal, experimental, refinement or atomic coordinate data resulting 
# from the CCDC's data processing and validation procedures.
#
#######################################################################

data_RIWXAZ
_chemical_formula_moiety         'C30 H30 N20 O10,2(Sr1 2+),4(Cl1 1-),16(H2 O1)'
_chemical_name_systematic        
'cucurbit(5)uril di-strontium tetrachloride hexadecahydrate'
_symmetry_cell_setting           hexagonal
_symmetry_space_group_name_H-M   'P 63/m c m'
_symmetry_Int_Tables_number      193
_space_group_name_Hall           "-P 6c 2'"
loop_
_symmetry_equiv_pos_site_id
_symmetry_equiv_pos_as_xyz
1 x,y,z
2 x-y,x,1/2+z
3 -y,x-y,z
4 -x,-y,1/2+z
5 -x+y,-x,z
6 y,-x+y,1/2+z
7 -y,-x,-z
8 x-y,-y,1/2-z
9 x,x-y,-z
10 y,x,1/2-z
11 -x+y,y,-z
12 -x,-x+y,1/2-z
13 -x,-y,-z
14 -x+y,-x,1/2-z
15 y,-x+y,-z
16 x,y,1/2-z
17 x-y,x,-z
18 -y,x-y,1/2-z
19 y,x,z
20 -x+y,y,1/2+z
21 -x,-x+y,z
22 -y,-x,1/2+z
23 x-y,-y,z
24 x,x-y,1/2+z
_cell_length_a                   18.9393(9)
_cell_length_b                   18.9393(9)
_cell_length_c                   27.249(3)
_cell_angle_alpha                90
_cell_angle_beta                 90
_cell_angle_gamma                120
_cell_volume                     8464.65
_exptl_crystal_colour            colorless
_cell_formula_units_Z            6
loop_
_atom_site_label
_atom_site_type_symbol
_atom_site_fract_x
_atom_site_fract_y
_atom_site_fract_z
Cl1 Cl 0.4237(5) 0.4237(5) 0.250000
Cl2 Cl 0.2041(8) 0.000000 0.1493(6)
Sr1 Sr 0.32398(13) 0.53218(13) 0.250000
O1 O 0.4696(7) 0.6535(6) 0.250000
O2 O 0.3728(5) 0.5535(4) 0.1581(3)
O3 O 0.2187(6) 0.3998(7) 0.1943(4)
N1 N 0.2651(6) 0.3398(6) 0.1397(4)
N2 N 0.1962(6) 0.2700(7) 0.2048(4)
N3 N 0.3862(6) 0.4607(6) 0.1116(3)
N4 N 0.4961(6) 0.5714(5) 0.1370(3)
N5 N 0.5686(6) 0.6431(5) 0.2102(3)
C1 C 0.5277(10) 0.6464(8) 0.250000
C2 C 0.5448(8) 0.6455(7) 0.1597(4)
H1 H 0.593314 0.677467 0.140120
C3 C 0.4142(8) 0.5299(7) 0.1378(4)
C4 C 0.2996(7) 0.4020(8) 0.1050(5)
H2 H 0.269806 0.431339 0.106100
H3 H 0.291752 0.377796 0.072653
C5 C 0.2263(8) 0.3433(10) 0.1815(5)
C6 C 0.1436(11) 0.2463(15) 0.250000
H4 H 0.514909 0.670710 0.160827
C7 C 0.2608(9) 0.2608(9) 0.1350(7)
H5 H 0.235016 0.236185 0.103830
C8 C 0.2135(9) 0.2135(9) 0.1821(8)
H6 H 0.163350 0.163018 0.173598
C9 C 0.4495(9) 0.4495(9) 0.0925(6)
H7 H 0.446470 0.446469 0.056627
C10 C 0.5256(10) 0.5256(10) 0.1086(6)
H8 H 0.557251 0.555862 0.080215
C11 C 0.6431(8) 0.6431(8) 0.2214(5)
O1I O 0.6535(6) 0.4696(7) 0.250000
O2I O 0.5535(4) 0.3728(5) 0.3419(3)
O3I O 0.3998(7) 0.2187(6) 0.3057(4)
N1I N 0.3398(6) 0.2651(6) 0.3603(4)
N2I N 0.2700(7) 0.1962(6) 0.2952(4)
N3I N 0.4607(6) 0.3862(6) 0.3884(3)
N4I N 0.5714(5) 0.4961(6) 0.3630(3)
N5I N 0.6431(5) 0.5686(6) 0.2898(3)
C1I C 0.6464(8) 0.5277(10) 0.250000
C2I C 0.6455(7) 0.5448(8) 0.3403(4)
H1I H 0.677467 0.593314 0.359880
C3I C 0.5299(7) 0.4142(8) 0.3622(4)
C4I C 0.4020(8) 0.2996(7) 0.3950(5)
H2I H 0.431339 0.269806 0.393900
H3I H 0.377796 0.291752 0.427347
C5I C 0.3433(10) 0.2263(8) 0.3185(5)
C6I C 0.2463(15) 0.1436(11) 0.250000
H4I H 0.670710 0.514909 0.339173
C7I C 0.2608(9) 0.2608(9) 0.3650(7)
H5I H 0.236185 0.235016 0.396170
C8I C 0.2135(9) 0.2135(9) 0.3179(8)
H6I H 0.163018 0.163350 0.326402
C9I C 0.4495(9) 0.4495(9) 0.4075(6)
H7I H 0.446469 0.446470 0.443373
C10I C 0.5256(10) 0.5256(10) 0.3914(6)
H8I H 0.555862 0.557251 0.419785
C11I C 0.6431(8) 0.6431(8) 0.2786(5)
O2O O 0.3728(5) 0.5535(4) 0.3419(3)
O3O O 0.2187(6) 0.3998(7) 0.3057(4)
N1O N 0.2651(6) 0.3398(6) 0.3603(4)
N2O N 0.1962(6) 0.2700(7) 0.2952(4)
N3O N 0.3862(6) 0.4607(6) 0.3884(3)
N4O N 0.4961(6) 0.5714(5) 0.3630(3)
N5O N 0.5686(6) 0.6431(5) 0.2898(3)
C2O C 0.5448(8) 0.6455(7) 0.3403(4)
H1O H 0.593314 0.677467 0.359880
C3O C 0.4142(8) 0.5299(7) 0.3622(4)
C4O C 0.2996(7) 0.4020(8) 0.3950(5)
H2O H 0.269806 0.431339 0.393900
H3O H 0.291752 0.377796 0.427347
C5O C 0.2263(8) 0.3433(10) 0.3185(5)
H4O H 0.514909 0.670710 0.339173
O2R O 0.5535(4) 0.3728(5) 0.1581(3)
O3R O 0.3998(7) 0.2187(6) 0.1943(4)
N1R N 0.3398(6) 0.2651(6) 0.1397(4)
N2R N 0.2700(7) 0.1962(6) 0.2048(4)
N3R N 0.4607(6) 0.3862(6) 0.1116(3)
N4R N 0.5714(5) 0.4961(6) 0.1370(3)
N5R N 0.6431(5) 0.5686(6) 0.2102(3)
C2R C 0.6455(7) 0.5448(8) 0.1597(4)
H1R H 0.677467 0.593314 0.140120
C3R C 0.5299(7) 0.4142(8) 0.1378(4)
C4R C 0.4020(8) 0.2996(7) 0.1050(5)
H2R H 0.431339 0.269806 0.106100
H3R H 0.377796 0.291752 0.072653
C5R C 0.3433(10) 0.2263(8) 0.1815(5)
H4R H 0.670710 0.514909 0.160827
Cl3? Cl 0.333333 0.666667 0.3031(5)
H9? H 0.689172 0.680290 0.205388
H10? H 0.593617 0.673694 0.140427
H11? H 0.514606 0.674483 0.160520
loop_
_geom_bond_atom_site_label_1
_geom_bond_atom_site_label_2
_geom_bond_site_symmetry_1
_geom_bond_site_symmetry_2
O1 C1 1_555 1_555
O2 C3 1_555 1_555
O3 C5 1_555 1_555
N1 C4 1_555 1_555
N2 C5 1_555 1_555
N3 C3 1_555 1_555
N4 C2 1_555 1_555
N5 C1 1_555 1_555
C1 N5O 1_555 1_555
C2 N5 1_555 1_555
H1 C2 1_555 1_555
C3 N4 1_555 1_555
C4 N3 1_555 1_555
H2 C4 1_555 1_555
H3 C4 1_555 1_555
C5 N1 1_555 1_555
C6 N2 1_555 1_555
H4 C2 1_555 1_555
C7 N1 1_555 1_555
H5 C7 1_555 1_555
C8 N2 1_555 1_555
H6 C8 1_555 1_555
C9 N3 1_555 1_555
H7 C9 1_555 1_555
C10 N4 1_555 1_555
H8 C10 1_555 1_555
C11 N5 1_555 1_555
O1I C1I 1_555 1_555
O2I C3I 1_555 1_555
O3I C5I 1_555 1_555
N1I C4I 1_555 1_555
N2I C5I 1_555 1_555
N3I C3I 1_555 1_555
N4I C2I 1_555 1_555
N5I C1I 1_555 1_555
C1I N5R 1_555 1_555
C2I N5I 1_555 1_555
H1I C2I 1_555 1_555
C3I N4I 1_555 1_555
C4I N3I 1_555 1_555
H2I C4I 1_555 1_555
H3I C4I 1_555 1_555
C5I N1I 1_555 1_555
C6I N2I 1_555 1_555
H4I C2I 1_555 1_555
C7I N1I 1_555 1_555
H5I C7I 1_555 1_555
C8I N2I 1_555 1_555
H6I C8I 1_555 1_555
C9I N3I 1_555 1_555
H7I C9I 1_555 1_555
C10I N4I 1_555 1_555
H8I C10I 1_555 1_555
C11I C11 1_555 1_555
O2O C3O 1_555 1_555
O3O C5O 1_555 1_555
N1O C7I 1_555 1_555
N2O C6 1_555 1_555
N3O C9I 1_555 1_555
N4O C10I 1_555 1_555
N5O C11I 1_555 1_555
C2O N4O 1_555 1_555
H1O C2O 1_555 1_555
C3O N3O 1_555 1_555
C4O N1O 1_555 1_555
H2O C4O 1_555 1_555
H3O C4O 1_555 1_555
C5O N1O 1_555 1_555
H4O C2O 1_555 1_555
O2R C3R 1_555 1_555
O3R C5R 1_555 1_555
N1R C7 1_555 1_555
N2R C8 1_555 1_555
N3R C9 1_555 1_555
N4R C10 1_555 1_555
N5R C11 1_555 1_555
C2R N4R 1_555 1_555
H1R C2R 1_555 1_555
C3R N3R 1_555 1_555
C4R N1R 1_555 1_555
H2R C4R 1_555 1_555
H3R C4R 1_555 1_555
C5R N1R 1_555 1_555
H4R C2R 1_555 1_555
C7 C8 1_555 1_555
C9 C10 1_555 1_555
N5I C11I 1_555 1_555
C6I N2R 1_555 1_555
C7I C8I 1_555 1_555
C8I N2O 1_555 1_555
C9I C10I 1_555 1_555
N2O C5O 1_555 1_555
N3O C4O 1_555 1_555
N4O C3O 1_555 1_555
N5O C2O 1_555 1_555
N2R C5R 1_555 1_555
N3R C4R 1_555 1_555
N4R C3R 1_555 1_555
N5R C2R 1_555 1_555

#END
