
#######################################################################
#
#                 Cambridge Crystallographic Data Centre
#                                CCDC 
#
#######################################################################
#
# If this CIF has been generated from an entry in the Cambridge 
# Structural Database, then it will include bibliographic, chemical, 
# crystal, experimental, refinement or atomic coordinate data resulting 
# from the CCDC's data processing and validation procedures.
#
#######################################################################

data_RIXMAO01
_chemical_formula_moiety         'C14 H16 B2 F4 N4'
_chemical_name_systematic        
5,5,12,12-Tetrafluoro-1,3,8,10-tetramethyl-5H,12H-pyrrolo[1,2-d]pyrrolo[1',2':4,5][1,2,4,3]triazaborinino[2,1-a][1,2,4,3]triazaborinine-4,11-diium-5,12-diide
_symmetry_cell_setting           monoclinic
_symmetry_space_group_name_H-M   'P 21/c'
_symmetry_Int_Tables_number      14
_space_group_name_Hall           '-P 2ybc'
loop_
_symmetry_equiv_pos_site_id
_symmetry_equiv_pos_as_xyz
1 x,y,z
2 -x,1/2+y,1/2-z
3 -x,-y,-z
4 x,1/2-y,1/2+z
_cell_length_a                   9.2147(9)
_cell_length_b                   12.1024(12)
_cell_length_c                   7.3238(8)
_cell_angle_alpha                90
_cell_angle_beta                 108.7720(10)
_cell_angle_gamma                90
_cell_volume                     773.304
_exptl_crystal_colour            colorless
_exptl_crystal_description       block
_cell_formula_units_Z            2
loop_
_atom_site_label
_atom_site_type_symbol
_atom_site_fract_x
_atom_site_fract_y
_atom_site_fract_z
B1 B 0.6921(2) 0.59927(16) 0.0451(3)
C1 C 0.15770(18) 0.42843(15) 0.1951(2)
C2 C 0.16887(19) 0.49893(16) 0.3496(2)
H1 H 0.1034 0.4990 0.4233
C3 C 0.29210(19) 0.56848(14) 0.3757(2)
C4 C 0.35764(18) 0.53813(13) 0.2326(2)
C5 C 0.0418(2) 0.34143(17) 0.1119(3)
H2 H -0.0058 0.3548 -0.0235
H3 H -0.0347 0.3427 0.1752
H4 H 0.0908 0.2704 0.1301
C6 C 0.3448(2) 0.65879(18) 0.5205(3)
H5 H 0.3095 0.7286 0.4602
H6 H 0.4547 0.6589 0.5704
H7 H 0.3040 0.6471 0.6242
C7 C 0.48575(18) 0.57823(13) 0.1964(2)
H8 H 0.5391 0.6351 0.2750
F1 F 0.80617(13) 0.58036(13) 0.21537(16)
F2 F 0.66445(14) 0.71111(9) 0.0200(2)
N1 N 0.27275(15) 0.45226(11) 0.12428(19)
N2 N 0.53961(14) 0.54278(11) 0.05930(18)
B1B B 0.3079(2) 0.40073(16) -0.0451(3)
C1B C 0.84230(18) 0.57157(15) -0.1951(2)
C2B C 0.83113(19) 0.50107(16) -0.3496(2)
H1B H 0.8966 0.5010 -0.4233
C3B C 0.70790(19) 0.43152(14) -0.3757(2)
C4B C 0.64236(18) 0.46187(13) -0.2326(2)
C5B C 0.9582(2) 0.65857(17) -0.1119(3)
H2B H 1.0058 0.6452 0.0235
H3B H 1.0347 0.6573 -0.1752
H4B H 0.9092 0.7296 -0.1301
C6B C 0.6552(2) 0.34121(18) -0.5205(3)
H5B H 0.6905 0.2714 -0.4602
H6B H 0.5453 0.3411 -0.5704
H7B H 0.6960 0.3529 -0.6242
C7B C 0.51425(18) 0.42177(13) -0.1964(2)
H8B H 0.4609 0.3649 -0.2750
F1B F 0.19383(13) 0.41964(13) -0.21537(16)
F2B F 0.33555(14) 0.28889(9) -0.0200(2)
N1B N 0.72725(15) 0.54774(11) -0.12428(19)
N2B N 0.46039(14) 0.45722(11) -0.05930(18)
loop_
_geom_bond_atom_site_label_1
_geom_bond_atom_site_label_2
_geom_bond_site_symmetry_1
_geom_bond_site_symmetry_2
B1 F1 1_555 1_555
C1 C2 1_555 1_555
C2 H1 1_555 1_555
C3 C2 1_555 1_555
C4 C3 1_555 1_555
C5 C1 1_555 1_555
H2 C5 1_555 1_555
H3 C5 1_555 1_555
H4 C5 1_555 1_555
C6 C3 1_555 1_555
H5 C6 1_555 1_555
H6 C6 1_555 1_555
H7 C6 1_555 1_555
C7 C4 1_555 1_555
H8 C7 1_555 1_555
F2 B1 1_555 1_555
N1 C1 1_555 1_555
N2 B1 1_555 1_555
B1B N1 1_555 1_555
C1B C2B 1_555 1_555
C2B H1B 1_555 1_555
C3B C2B 1_555 1_555
C4B C3B 1_555 1_555
C5B C1B 1_555 1_555
H2B C5B 1_555 1_555
H3B C5B 1_555 1_555
H4B C5B 1_555 1_555
C6B C3B 1_555 1_555
H5B C6B 1_555 1_555
H6B C6B 1_555 1_555
H7B C6B 1_555 1_555
C7B C4B 1_555 1_555
H8B C7B 1_555 1_555
F1B B1B 1_555 1_555
F2B B1B 1_555 1_555
N1B B1 1_555 1_555
N2B N2 1_555 1_555
C4 N1 1_555 1_555
C7 N2 1_555 1_555
B1B N2B 1_555 1_555
C1B N1B 1_555 1_555
C4B N1B 1_555 1_555
C7B N2B 1_555 1_555

#END
