
#######################################################################
#
#                 Cambridge Crystallographic Data Centre
#                                CCDC 
#
#######################################################################
#
# If this CIF has been generated from an entry in the Cambridge 
# Structural Database, then it will include bibliographic, chemical, 
# crystal, experimental, refinement or atomic coordinate data resulting 
# from the CCDC's data processing and validation procedures.
#
#######################################################################

data_RIXSIB
_chemical_formula_moiety         'C33 H36 N1 P1'
_chemical_name_systematic        
Triphenyl(2-(2,6-di-isopropylphenylimino)propanylidene)phosphine
_symmetry_cell_setting           monoclinic
_symmetry_space_group_name_H-M   'P 21/c'
_symmetry_Int_Tables_number      14
_space_group_name_Hall           '-P 2ybc'
loop_
_symmetry_equiv_pos_site_id
_symmetry_equiv_pos_as_xyz
1 x,y,z
2 -x,1/2+y,1/2-z
3 -x,-y,-z
4 x,1/2-y,1/2+z
_cell_length_a                   9.7040(6)
_cell_length_b                   15.4800(11)
_cell_length_c                   18.6280(14)
_cell_angle_alpha                90
_cell_angle_beta                 97.413(2)
_cell_angle_gamma                90
_cell_volume                     2774.87
_exptl_crystal_colour            yellow
_exptl_crystal_description       prism
_cell_formula_units_Z            4
loop_
_atom_site_label
_atom_site_type_symbol
_atom_site_fract_x
_atom_site_fract_y
_atom_site_fract_z
P1 P 0.47074(7) 0.18493(5) 0.28678(4)
N1 N 0.6741(2) 0.17668(15) 0.17763(12)
C1 C 0.5671(3) 0.27948(19) 0.32331(16)
C2 C 0.6557(3) 0.2789(2) 0.38772(18)
H1 H 0.6718 0.2252 0.4132
C3 C 0.7206(4) 0.3543(3) 0.4139(2)
H2 H 0.7840 0.3543 0.4579
C4 C 0.6971(4) 0.4303(3) 0.3764(2)
H3 H 0.7400 0.4828 0.3956
C5 C 0.6086(4) 0.4317(2) 0.3128(2)
H4 H 0.5918 0.4850 0.2869
C6 C 0.5440(3) 0.3565(2) 0.28578(18)
H5 H 0.4840 0.3568 0.2405
C7 C 0.3055(3) 0.18880(18) 0.32165(16)
C8 C 0.1841(3) 0.1626(3) 0.28090(19)
H6 H 0.1884 0.1438 0.2322
C9 C 0.0596(4) 0.1660(3) 0.3097(2)
H7 H -0.0247 0.1481 0.2810
C10 C 0.0570(4) 0.1923(3) 0.3794(3)
H8 H -0.0310 0.1949 0.3977
C11 C 0.1766(4) 0.2157(2) 0.4209(2)
H9 H 0.1729 0.2342 0.4698
C12 C 0.3002(3) 0.2148(2) 0.39189(18)
H10 H 0.3867 0.2289 0.4205
C13 C 0.5613(3) 0.09351(19) 0.33207(16)
C14 C 0.7031(3) 0.0807(2) 0.32941(18)
H11 H 0.7525 0.1213 0.3033
C15 C 0.7713(4) 0.0116(3) 0.3639(2)
H12 H 0.8689 0.0037 0.3622
C16 C 0.7033(5) -0.0462(3) 0.4016(2)
H13 H 0.7533 -0.0946 0.4241
C17 C 0.5629(4) -0.0356(3) 0.4040(2)
H14 H 0.5157 -0.0753 0.4320
C18 C 0.4933(4) 0.0338(2) 0.3695(2)
H15 H 0.3954 0.0406 0.3710
C19 C 0.4381(3) 0.18357(19) 0.19514(15)
H16 H 0.3437 0.1857 0.1723
C20 C 0.5443(3) 0.18191(18) 0.14988(15)
C21 C 0.4988(3) 0.1867(2) 0.06982(16)
H17 H 0.3993 0.1901 0.0608
H18 H 0.5298 0.1357 0.0473
H19 H 0.5386 0.2368 0.0501
C22 C 0.7833(3) 0.1681(2) 0.13569(15)
C23 C 0.8305(3) 0.0849(2) 0.11953(16)
C24 C 0.7517(4) 0.0040(2) 0.13711(18)
H20 H 0.6836 0.0225 0.1668
C25 C 0.8439(4) -0.0596(3) 0.1822(2)
H21 H 0.7912 -0.1094 0.1930
H22 H 0.8828 -0.0324 0.2266
H23 H 0.9174 -0.0771 0.1555
C26 C 0.6795(4) -0.0389(3) 0.0693(2)
H24 H 0.6293 -0.0890 0.0817
H25 H 0.7475 -0.0557 0.0388
H26 H 0.6161 0.0017 0.0440
C27 C 0.9509(3) 0.0772(2) 0.08679(18)
H27 H 0.9850 0.0210 0.0763
C28 C 1.0233(4) 0.1488(3) 0.0696(2)
H28 H 1.1075 0.1418 0.0482
C29 C 0.9741(3) 0.2291(2) 0.0826(2)
H29 H 1.0241 0.2791 0.0698
C30 C 0.8544(3) 0.2415(2) 0.11445(17)
C31 C 0.8039(4) 0.3324(2) 0.1289(2)
H30 H 0.7085 0.3264 0.1367
C32 C 0.8135(5) 0.3952(3) 0.0667(3)
H31 H 0.7806 0.4511 0.0790
H32 H 0.7576 0.3742 0.0240
H33 H 0.9085 0.3997 0.0577
C33 C 0.8790(5) 0.3657(3) 0.1974(3)
H34 H 0.8473 0.4229 0.2068
H35 H 0.9767 0.3672 0.1936
H36 H 0.8624 0.3281 0.2364
loop_
_geom_bond_atom_site_label_1
_geom_bond_atom_site_label_2
_geom_bond_site_symmetry_1
_geom_bond_site_symmetry_2
P1 C1 1_555 1_555
N1 C20 1_555 1_555
C1 C2 1_555 1_555
C2 H1 1_555 1_555
C3 C2 1_555 1_555
H2 C3 1_555 1_555
C4 C3 1_555 1_555
H3 C4 1_555 1_555
C5 C4 1_555 1_555
H4 C5 1_555 1_555
C6 C1 1_555 1_555
H5 C6 1_555 1_555
C7 P1 1_555 1_555
C8 C7 1_555 1_555
H6 C8 1_555 1_555
C9 C8 1_555 1_555
H7 C9 1_555 1_555
C10 C9 1_555 1_555
H8 C10 1_555 1_555
C11 C10 1_555 1_555
H9 C11 1_555 1_555
C12 C7 1_555 1_555
H10 C12 1_555 1_555
C13 P1 1_555 1_555
C14 C13 1_555 1_555
H11 C14 1_555 1_555
C15 C14 1_555 1_555
H12 C15 1_555 1_555
C16 C15 1_555 1_555
H13 C16 1_555 1_555
C17 C16 1_555 1_555
H14 C17 1_555 1_555
C18 C13 1_555 1_555
H15 C18 1_555 1_555
C19 P1 1_555 1_555
H16 C19 1_555 1_555
C20 C19 1_555 1_555
C21 C20 1_555 1_555
H17 C21 1_555 1_555
H18 C21 1_555 1_555
H19 C21 1_555 1_555
C22 N1 1_555 1_555
C23 C22 1_555 1_555
C24 C23 1_555 1_555
H20 C24 1_555 1_555
C25 C24 1_555 1_555
H21 C25 1_555 1_555
H22 C25 1_555 1_555
H23 C25 1_555 1_555
C26 C24 1_555 1_555
H24 C26 1_555 1_555
H25 C26 1_555 1_555
H26 C26 1_555 1_555
C27 C23 1_555 1_555
H27 C27 1_555 1_555
C28 C27 1_555 1_555
H28 C28 1_555 1_555
C29 C28 1_555 1_555
H29 C29 1_555 1_555
C30 C22 1_555 1_555
C31 C30 1_555 1_555
H30 C31 1_555 1_555
C32 C31 1_555 1_555
H31 C32 1_555 1_555
H32 C32 1_555 1_555
H33 C32 1_555 1_555
C33 C31 1_555 1_555
H34 C33 1_555 1_555
H35 C33 1_555 1_555
H36 C33 1_555 1_555
C5 C6 1_555 1_555
C11 C12 1_555 1_555
C17 C18 1_555 1_555
C29 C30 1_555 1_555

#END
