
#######################################################################
#
#                 Cambridge Crystallographic Data Centre
#                                CCDC 
#
#######################################################################
#
# If this CIF has been generated from an entry in the Cambridge 
# Structural Database, then it will include bibliographic, chemical, 
# crystal, experimental, refinement or atomic coordinate data resulting 
# from the CCDC's data processing and validation procedures.
#
#######################################################################

data_RIYDOU
_chemical_formula_moiety         'C52 H58 K1 N1 O8 P2,C4 H8 O1'
_chemical_name_systematic        
'(4,6-bis(diphenylphosphino)-10H-phenoxazin-10-yl)-(18-crown-6)-(tetrahydrofuran)-potassium tetrahydrofuran solvate'
_symmetry_cell_setting           monoclinic
_symmetry_space_group_name_H-M   'P 21/n'
_symmetry_Int_Tables_number      14
_space_group_name_Hall           '-P 2yn'
loop_
_symmetry_equiv_pos_site_id
_symmetry_equiv_pos_as_xyz
1 x,y,z
2 1/2-x,1/2+y,1/2-z
3 -x,-y,-z
4 1/2+x,1/2-y,1/2+z
_cell_length_a                   10.8453(7)
_cell_length_b                   18.1426(13)
_cell_length_c                   26.2160(17)
_cell_angle_alpha                90
_cell_angle_beta                 93.676(4)
_cell_angle_gamma                90
_cell_volume                     5147.7
_cell_formula_units_Z            4
loop_
_atom_site_label
_atom_site_type_symbol
_atom_site_fract_x
_atom_site_fract_y
_atom_site_fract_z
C1 C 0.50372(18) 0.50834(11) 0.30940(8)
C2 C 0.5601(2) 0.55069(12) 0.34935(8)
H1 H 0.5333 0.5469 0.3822
C3 C 0.6558(2) 0.59803(12) 0.33949(8)
H2 H 0.6911 0.6269 0.3659
C4 C 0.70042(19) 0.60346(12) 0.29097(8)
H3 H 0.7654 0.6354 0.2856
C5 C 0.64887(18) 0.56141(11) 0.24995(8)
C6 C 0.54713(18) 0.51643(11) 0.26102(8)
C7 C 0.50077(17) 0.41258(11) 0.14468(8)
C8 C 0.56166(19) 0.39993(12) 0.09945(8)
H4 H 0.5324 0.3643 0.0762
C9 C 0.66564(19) 0.44117(12) 0.09003(8)
H5 H 0.7063 0.4327 0.0604
C10 C 0.70986(18) 0.49494(12) 0.12419(8)
H6 H 0.7798 0.5215 0.1168
C11 C 0.65223(17) 0.51045(11) 0.16956(8)
C12 C 0.54669(17) 0.46675(11) 0.17795(7)
C13 C 0.24051(19) 0.48007(12) 0.29891(8)
C14 C 0.2268(2) 0.54949(15) 0.27818(11)
H7 H 0.2957 0.5792 0.2748
C15 C 0.1099(2) 0.57529(17) 0.26223(12)
H8 H 0.1016 0.6224 0.2485
C16 C 0.0059(2) 0.53238(17) 0.26643(10)
H9 H -0.0717 0.5499 0.2552
C17 C 0.0192(2) 0.46347(16) 0.28751(11)
H10 H -0.0501 0.4342 0.2910
C18 C 0.1352(2) 0.43715(14) 0.30358(10)
H11 H 0.1429 0.3902 0.3177
C19 C 0.3829(2) 0.43800(12) 0.38816(8)
C20 C 0.4546(2) 0.38677(15) 0.41581(10)
H12 H 0.5018 0.3531 0.3987
C21 C 0.4567(3) 0.38530(18) 0.46900(11)
H13 H 0.5056 0.3509 0.4872
C22 C 0.3868(3) 0.43448(18) 0.49458(10)
H14 H 0.3879 0.4331 0.5301
C23 C 0.3154(3) 0.48563(18) 0.46777(10)
H15 H 0.2683 0.5190 0.4852
C24 C 0.3131(2) 0.48781(16) 0.41478(9)
H16 H 0.2647 0.5227 0.3969
C25 C 0.24097(18) 0.41677(11) 0.12792(8)
C26 C 0.2449(2) 0.43851(12) 0.07697(8)
H17 H 0.3110 0.4242 0.0583
C27 C 0.1511(2) 0.48127(13) 0.05387(9)
H18 H 0.1536 0.4946 0.0197
C28 C 0.0532(2) 0.50423(13) 0.08182(9)
H19 H -0.0098 0.5328 0.0663
C29 C 0.0496(2) 0.48442(14) 0.13258(9)
H20 H -0.0151 0.5003 0.1514
C30 C 0.1430(2) 0.44063(13) 0.15557(9)
H21 H 0.1400 0.4272 0.1897
C31 C 0.37500(19) 0.27906(11) 0.12330(8)
C32 C 0.2879(2) 0.25630(13) 0.08529(10)
H22 H 0.2205 0.2863 0.0762
C33 C 0.3011(3) 0.18895(14) 0.06079(11)
H23 H 0.2423 0.1743 0.0354
C34 C 0.4004(3) 0.14367(13) 0.07377(11)
H24 H 0.4088 0.0989 0.0571
C35 C 0.4875(2) 0.16517(14) 0.11183(12)
H25 H 0.5546 0.1349 0.1208
C36 C 0.4742(2) 0.23205(14) 0.13645(10)
H26 H 0.5324 0.2459 0.1623
N1 N 0.69699(16) 0.56408(10) 0.20274(7)
O1 O 0.48188(13) 0.47981(8) 0.22117(5)
P1 P 0.38819(5) 0.43668(3) 0.31841(2)
P2 P 0.36279(5) 0.36234(3) 0.162311(19)
K1 K 0.61374(4) 0.71209(2) 0.179582(16)
O2 O 0.42900(14) 0.66138(9) 0.10400(6)
O3 O 0.67980(15) 0.66302(9) 0.08592(6)
O4 O 0.85229(14) 0.74673(9) 0.14767(6)
O5 O 0.78217(14) 0.78178(8) 0.24906(6)
O6 O 0.52620(14) 0.78683(9) 0.26535(6)
O7 O 0.36875(14) 0.69367(9) 0.20640(6)
O8 O 0.5961(2) 0.84626(12) 0.12267(10)
C37 C 0.4796(2) 0.61255(13) 0.06829(9)
H27 H 0.4175 0.6007 0.0413
H28 H 0.5055 0.5671 0.0853
C38 C 0.5880(2) 0.64872(14) 0.04611(9)
H29 H 0.6213 0.6167 0.0207
H30 H 0.5624 0.6945 0.0295
C39 C 0.7927(2) 0.68864(15) 0.06852(9)
H31 H 0.7816 0.7374 0.0537
H32 H 0.8206 0.6558 0.0424
C40 C 0.8868(2) 0.69135(15) 0.11303(10)
H33 H 0.8912 0.6439 0.1301
H34 H 0.9677 0.7024 0.1011
C41 C 0.9351(2) 0.75019(13) 0.19196(9)
H35 H 1.0175 0.7623 0.1823
H36 H 0.9384 0.7027 0.2090
C42 C 0.8908(2) 0.80813(13) 0.22730(9)
H37 H 0.9544 0.8184 0.2541
H38 H 0.8728 0.8534 0.2085
C43 C 0.7301(2) 0.83583(12) 0.28078(9)
H39 H 0.7057 0.8788 0.2606
H40 H 0.7910 0.8511 0.3074
C44 C 0.6197(2) 0.80370(13) 0.30429(8)
H41 H 0.6434 0.7592 0.3230
H42 H 0.5879 0.8387 0.3282
C45 C 0.4251(2) 0.74957(13) 0.28602(9)
H43 H 0.3950 0.7779 0.3140
H44 H 0.4516 0.7017 0.2991
C46 C 0.3242(2) 0.74026(13) 0.24483(9)
H45 H 0.2521 0.7183 0.2588
H46 H 0.3008 0.7878 0.2303
C47 C 0.2799(2) 0.68187(16) 0.16521(10)
H47 H 0.2616 0.7280 0.1476
H48 H 0.2040 0.6631 0.1780
C48 C 0.3309(2) 0.62714(15) 0.12907(10)
H49 H 0.3616 0.5841 0.1478
H50 H 0.2665 0.6115 0.1040
C49 C 0.5058(4) 0.8536(2) 0.08107(17)
H51 H 0.4247 0.8405 0.0917
H52 H 0.5255 0.8215 0.0531
C50 C 0.5079(4) 0.9313(2) 0.06488(17)
H53 H 0.4356 0.9568 0.0759
H54 H 0.5076 0.9344 0.0279
C51 C 0.6212(3) 0.9650(2) 0.08853(13)
H55 H 0.6016 1.0030 0.1127
H56 H 0.6708 0.9863 0.0628
C52 C 0.6880(3) 0.9015(2) 0.11541(18)
H57 H 0.7518 0.8824 0.0947
H58 H 0.7261 0.9174 0.1481
O9 O 0.6923(3) 0.7525(2) 0.44208(13)
C53 C 0.5791(6) 0.8023(5) 0.4418(3)
H59 H 0.6001 0.8522 0.4323
H60 H 0.5142 0.7842 0.4178
C54 C 0.5419(4) 0.8002(3) 0.49110(15)
H61 H 0.5089 0.7523 0.4996
H62 H 0.4815 0.8381 0.4971
C55 C 0.6587(5) 0.8145(3) 0.5184(2)
H63 H 0.6553 0.8025 0.5544
H64 H 0.6818 0.8659 0.5153
C56 C 0.7456(4) 0.7671(3) 0.49442(17)
H65 H 0.7567 0.7214 0.5133
H66 H 0.8251 0.7912 0.4933
C57? C 0.5601(7) 0.7598(6) 0.4386(3)
H67? H 0.5192 0.7122 0.4369
H68? H 0.5311 0.7896 0.4096
H69? H 0.4987 0.8464 0.4845
H70? H 0.4915 0.7697 0.5120
loop_
_geom_bond_atom_site_label_1
_geom_bond_atom_site_label_2
_geom_bond_site_symmetry_1
_geom_bond_site_symmetry_2
C1 C2 1_555 1_555
C2 H1 1_555 1_555
C3 C2 1_555 1_555
H2 C3 1_555 1_555
C4 C3 1_555 1_555
H3 C4 1_555 1_555
C5 C4 1_555 1_555
C6 C1 1_555 1_555
C7 C8 1_555 1_555
C8 H4 1_555 1_555
C9 C8 1_555 1_555
H5 C9 1_555 1_555
C10 C9 1_555 1_555
H6 C10 1_555 1_555
C11 C10 1_555 1_555
C12 C7 1_555 1_555
C13 C14 1_555 1_555
C14 H7 1_555 1_555
C15 C14 1_555 1_555
H8 C15 1_555 1_555
C16 C15 1_555 1_555
H9 C16 1_555 1_555
C17 C16 1_555 1_555
H10 C17 1_555 1_555
C18 C13 1_555 1_555
H11 C18 1_555 1_555
C19 C20 1_555 1_555
C20 H12 1_555 1_555
C21 C20 1_555 1_555
H13 C21 1_555 1_555
C22 C21 1_555 1_555
H14 C22 1_555 1_555
C23 C22 1_555 1_555
H15 C23 1_555 1_555
C24 C19 1_555 1_555
H16 C24 1_555 1_555
C25 C26 1_555 1_555
C26 H17 1_555 1_555
C27 C26 1_555 1_555
H18 C27 1_555 1_555
C28 C27 1_555 1_555
H19 C28 1_555 1_555
C29 C28 1_555 1_555
H20 C29 1_555 1_555
C30 C25 1_555 1_555
H21 C30 1_555 1_555
C31 C32 1_555 1_555
C32 H22 1_555 1_555
C33 C32 1_555 1_555
H23 C33 1_555 1_555
C34 C33 1_555 1_555
H24 C34 1_555 1_555
C35 C34 1_555 1_555
H25 C35 1_555 1_555
C36 C31 1_555 1_555
H26 C36 1_555 1_555
N1 C5 1_555 1_555
O1 C6 1_555 1_555
P1 C1 1_555 1_555
P2 C7 1_555 1_555
K1 N1 1_555 1_555
O2 K1 1_555 1_555
O3 K1 1_555 1_555
O4 K1 1_555 1_555
O5 K1 1_555 1_555
O6 K1 1_555 1_555
O7 K1 1_555 1_555
O8 K1 1_555 1_555
C37 O2 1_555 1_555
H27 C37 1_555 1_555
H28 C37 1_555 1_555
C38 O3 1_555 1_555
H29 C38 1_555 1_555
H30 C38 1_555 1_555
C39 O3 1_555 1_555
H31 C39 1_555 1_555
H32 C39 1_555 1_555
C40 O4 1_555 1_555
H33 C40 1_555 1_555
H34 C40 1_555 1_555
C41 O4 1_555 1_555
H35 C41 1_555 1_555
H36 C41 1_555 1_555
C42 O5 1_555 1_555
H37 C42 1_555 1_555
H38 C42 1_555 1_555
C43 O5 1_555 1_555
H39 C43 1_555 1_555
H40 C43 1_555 1_555
C44 O6 1_555 1_555
H41 C44 1_555 1_555
H42 C44 1_555 1_555
C45 O6 1_555 1_555
H43 C45 1_555 1_555
H44 C45 1_555 1_555
C46 O7 1_555 1_555
H45 C46 1_555 1_555
H46 C46 1_555 1_555
C47 O7 1_555 1_555
H47 C47 1_555 1_555
H48 C47 1_555 1_555
C48 O2 1_555 1_555
H49 C48 1_555 1_555
H50 C48 1_555 1_555
C49 O8 1_555 1_555
H51 C49 1_555 1_555
H52 C49 1_555 1_555
C50 C49 1_555 1_555
H53 C50 1_555 1_555
H54 C50 1_555 1_555
C51 C50 1_555 1_555
H55 C51 1_555 1_555
H56 C51 1_555 1_555
C52 O8 1_555 1_555
H57 C52 1_555 1_555
H58 C52 1_555 1_555
O9 C53 1_555 1_555
C53 H59 1_555 1_555
H60 C53 1_555 1_555
C54 C53 1_555 1_555
H61 C54 1_555 1_555
H62 C54 1_555 1_555
C55 C54 1_555 1_555
H63 C55 1_555 1_555
H64 C55 1_555 1_555
C56 O9 1_555 1_555
H65 C56 1_555 1_555
H66 C56 1_555 1_555
C5 C6 1_555 1_555
C11 C12 1_555 1_555
C11 N1 1_555 1_555
C12 O1 1_555 1_555
C13 P1 1_555 1_555
C17 C18 1_555 1_555
C19 P1 1_555 1_555
C23 C24 1_555 1_555
C25 P2 1_555 1_555
C29 C30 1_555 1_555
C31 P2 1_555 1_555
C35 C36 1_555 1_555
C37 C38 1_555 1_555
C39 C40 1_555 1_555
C41 C42 1_555 1_555
C43 C44 1_555 1_555
C45 C46 1_555 1_555
C47 C48 1_555 1_555
C51 C52 1_555 1_555
C55 C56 1_555 1_555

#END
