
#######################################################################
#
#                 Cambridge Crystallographic Data Centre
#                                CCDC 
#
#######################################################################
#
# If this CIF has been generated from an entry in the Cambridge 
# Structural Database, then it will include bibliographic, chemical, 
# crystal, experimental, refinement or atomic coordinate data resulting 
# from the CCDC's data processing and validation procedures.
#
#######################################################################

data_RIYWUT
_chemical_formula_moiety         'C21 H33 N2 O2 P1'
_chemical_name_systematic        
2,6-Di-t-butyl-N-mesityl-8\l^5^-[1,3,2]oxazaphospholo[2,3-b][1,3,2]oxazaphosphol-8-amine
_symmetry_cell_setting           monoclinic
_symmetry_space_group_name_H-M   'P 21/c'
_symmetry_Int_Tables_number      14
_space_group_name_Hall           '-P 2ybc'
loop_
_symmetry_equiv_pos_site_id
_symmetry_equiv_pos_as_xyz
1 x,y,z
2 -x,1/2+y,1/2-z
3 -x,-y,-z
4 x,1/2-y,1/2+z
_cell_length_a                   14.8761(19)
_cell_length_b                   17.428(2)
_cell_length_c                   8.2778(10)
_cell_angle_alpha                90
_cell_angle_beta                 99.402(2)
_cell_angle_gamma                90
_cell_volume                     2117.28
_exptl_crystal_colour            colorless
_exptl_crystal_description       block
_cell_formula_units_Z            4
loop_
_atom_site_label
_atom_site_type_symbol
_atom_site_fract_x
_atom_site_fract_y
_atom_site_fract_z
C1 C 0.15812(9) 0.57464(8) 0.59367(17)
C2 C 0.10507(10) 0.55892(9) 0.45289(18)
H1 H 0.0569 0.5894 0.4042
C3 C 0.10878(10) 0.46369(8) 0.22472(17)
H2 H 0.0635 0.4851 0.1470
C4 C 0.16041(9) 0.40464(8) 0.19712(16)
C5 C 0.16401(9) 0.35813(8) 0.04551(16)
C6 C 0.25579(11) 0.37178(11) -0.00946(19)
H3 H 0.2616 0.4251 -0.0348
H4 H 0.2594 0.3415 -0.1050
H5 H 0.3040 0.3573 0.0769
C7 C 0.15342(13) 0.27298(9) 0.0833(2)
H6 H 0.2017 0.2575 0.1685
H7 H 0.1561 0.2433 -0.0135
H8 H 0.0958 0.2648 0.1185
C8 C 0.08786(11) 0.38265(9) -0.09111(18)
H9 H 0.0300 0.3748 -0.0566
H10 H 0.0908 0.3526 -0.1873
H11 H 0.0949 0.4360 -0.1154
C9 C 0.15736(10) 0.64008(8) 0.71189(17)
C10 C 0.14560(12) 0.60875(10) 0.87942(18)
H12 H 0.0878 0.5833 0.8710
H13 H 0.1480 0.6503 0.9561
H14 H 0.1936 0.5729 0.9165
C11 C 0.24734(14) 0.68385(11) 0.7268(3)
H15 H 0.2967 0.6504 0.7702
H16 H 0.2460 0.7268 0.7989
H17 H 0.2558 0.7018 0.6207
C12 C 0.07786(14) 0.69363(10) 0.6501(2)
H18 H 0.0847 0.7135 0.5446
H19 H 0.0773 0.7353 0.7256
H20 H 0.0216 0.6657 0.6411
C13 C 0.38335(9) 0.54608(8) 0.51022(18)
C14 C 0.38142(10) 0.60952(9) 0.40661(19)
C15 C 0.43678(11) 0.67217(10) 0.4589(2)
H21 H 0.4351 0.7151 0.3917
C16 C 0.49436(10) 0.67222(10) 0.6085(2)
C17 C 0.49337(10) 0.60882(10) 0.70958(19)
H22 H 0.5304 0.6089 0.8116
C18 C 0.43881(10) 0.54511(9) 0.66320(18)
C19 C 0.43977(12) 0.47719(11) 0.7748(2)
H23 H 0.4939 0.4785 0.8557
H24 H 0.4389 0.4308 0.7120
H25 H 0.3871 0.4788 0.8281
C20 C 0.32236(13) 0.60991(11) 0.2414(2)
H26 H 0.3319 0.6567 0.1854
H27 H 0.2595 0.6063 0.2544
H28 H 0.3378 0.5670 0.1786
C21 C 0.55909(13) 0.73832(12) 0.6549(3)
H29 H 0.6150 0.7288 0.6147
H30 H 0.5713 0.7433 0.7720
H31 H 0.5320 0.7849 0.6076
N1 N 0.13168(8) 0.48975(7) 0.38717(15)
N2 N 0.33035(8) 0.47974(8) 0.45321(16)
H32 H 0.3505(14) 0.4563(11) 0.382(3)
O1 O 0.22435(7) 0.51941(6) 0.63630(11)
O2 O 0.22161(7) 0.38466(5) 0.33444(12)
P1 P 0.22908(2) 0.45294(2) 0.48714(4)
H33 H 0.2327(10) 0.3983(9) 0.5973(19)
loop_
_geom_bond_atom_site_label_1
_geom_bond_atom_site_label_2
_geom_bond_site_symmetry_1
_geom_bond_site_symmetry_2
C1 C2 1_555 1_555
C2 H1 1_555 1_555
C3 H2 1_555 1_555
C4 C3 1_555 1_555
C5 C4 1_555 1_555
C6 C5 1_555 1_555
H3 C6 1_555 1_555
H4 C6 1_555 1_555
H5 C6 1_555 1_555
C7 C5 1_555 1_555
H6 C7 1_555 1_555
H7 C7 1_555 1_555
H8 C7 1_555 1_555
C8 C5 1_555 1_555
H9 C8 1_555 1_555
H10 C8 1_555 1_555
H11 C8 1_555 1_555
C9 C1 1_555 1_555
C10 C9 1_555 1_555
H12 C10 1_555 1_555
H13 C10 1_555 1_555
H14 C10 1_555 1_555
C11 C9 1_555 1_555
H15 C11 1_555 1_555
H16 C11 1_555 1_555
H17 C11 1_555 1_555
C12 C9 1_555 1_555
H18 C12 1_555 1_555
H19 C12 1_555 1_555
H20 C12 1_555 1_555
C13 C14 1_555 1_555
C14 C15 1_555 1_555
C15 H21 1_555 1_555
C16 C15 1_555 1_555
C17 C16 1_555 1_555
H22 C17 1_555 1_555
C18 C13 1_555 1_555
C19 C18 1_555 1_555
H23 C19 1_555 1_555
H24 C19 1_555 1_555
H25 C19 1_555 1_555
C20 C14 1_555 1_555
H26 C20 1_555 1_555
H27 C20 1_555 1_555
H28 C20 1_555 1_555
C21 C16 1_555 1_555
H29 C21 1_555 1_555
H30 C21 1_555 1_555
H31 C21 1_555 1_555
N1 C2 1_555 1_555
N2 C13 1_555 1_555
H32 N2 1_555 1_555
O1 C1 1_555 1_555
O2 C4 1_555 1_555
P1 N1 1_555 1_555
H33 P1 1_555 1_555
C3 N1 1_555 1_555
C17 C18 1_555 1_555
N2 P1 1_555 1_555
O1 P1 1_555 1_555
O2 P1 1_555 1_555

#END
