
#######################################################################
#
#                 Cambridge Crystallographic Data Centre
#                                CCDC 
#
#######################################################################
#
# If this CIF has been generated from an entry in the Cambridge 
# Structural Database, then it will include bibliographic, chemical, 
# crystal, experimental, refinement or atomic coordinate data resulting 
# from the CCDC's data processing and validation procedures.
#
#######################################################################

data_RIZDUB
_chemical_formula_moiety         'C16 H19 N3 O1'
_chemical_name_systematic        
(4S*,7R*)-4-Isopropyl-3-phenyl-7-vinyl-6,7-dihydro-4H-[1,2,3]triazolo[5,1-c][1,4]oxazine
_symmetry_cell_setting           monoclinic
_symmetry_space_group_name_H-M   'P 21/c'
_symmetry_Int_Tables_number      14
_space_group_name_Hall           '-P 2ybc'
loop_
_symmetry_equiv_pos_site_id
_symmetry_equiv_pos_as_xyz
1 x,y,z
2 -x,1/2+y,1/2-z
3 -x,-y,-z
4 x,1/2-y,1/2+z
_cell_length_a                   6.6165(5)
_cell_length_b                   18.9916(11)
_cell_length_c                   11.2416(7)
_cell_angle_alpha                90
_cell_angle_beta                 93.587(4)
_cell_angle_gamma                90
_cell_volume                     1409.83
_exptl_crystal_colour            colorless
_exptl_crystal_description       Needle
_chemical_melting_point          '160-162 deg.C'
_cell_formula_units_Z            4
loop_
_atom_site_label
_atom_site_type_symbol
_atom_site_fract_x
_atom_site_fract_y
_atom_site_fract_z
O1 O 0.33540(17) 0.04908(5) 0.35994(9)
N1 N 0.01622(19) 0.12811(6) 0.27741(11)
N2 N -0.1425(2) 0.16266(6) 0.22242(11)
N3 N -0.08678(19) 0.18010(6) 0.11597(11)
C1 C -0.2406(3) 0.12593(10) 0.54603(16)
H1 H -0.299(4) 0.1579(14) 0.601(2)
H2 H -0.289(3) 0.0761(13) 0.5478(19)
C2 C -0.0985(3) 0.14827(8) 0.47830(14)
H3 H -0.057(3) 0.1965(12) 0.4808(18)
C3 C 0.0126(2) 0.10054(8) 0.39954(13)
H4 H -0.050(3) 0.0533(11) 0.3950(16)
C4 C 0.2360(3) 0.09208(8) 0.44138(14)
H5 H 0.247(3) 0.0678(10) 0.5192(18)
H6 H 0.303(3) 0.1383(10) 0.4487(16)
C5 C 0.3628(2) 0.08357(7) 0.24815(13)
H7 H 0.477(3) 0.1185(9) 0.2611(15)
C6 C 0.4170(2) 0.02679(7) 0.15821(13)
H8 H 0.445(3) 0.0520(9) 0.0821(16)
C7 C 0.2454(3) -0.02621(8) 0.13462(16)
H9 H 0.216(3) -0.0521(11) 0.2110(19)
H10 H 0.284(3) -0.0611(11) 0.0727(17)
H11 H 0.127(3) -0.0015(11) 0.1017(19)
C8 C 0.6137(3) -0.01016(8) 0.19993(16)
H12 H 0.595(3) -0.0359(11) 0.279(2)
H13 H 0.725(3) 0.0250(12) 0.2111(19)
H14 H 0.656(3) -0.0459(12) 0.1393(19)
C9 C 0.1733(2) 0.12306(7) 0.20717(13)
C10 C 0.1069(2) 0.15726(7) 0.10300(13)
C11 C 0.2103(2) 0.17369(7) -0.00555(13)
C12 C 0.0998(2) 0.17669(7) -0.11578(13)
H15 H -0.043(3) 0.1637(11) -0.1204(17)
C13 C 0.1932(3) 0.19583(8) -0.21785(14)
H16 H 0.116(3) 0.1970(12) -0.294(2)
C14 C 0.3977(3) 0.21263(8) -0.21171(15)
H17 H 0.464(3) 0.2283(11) -0.2875(19)
C15 C 0.5091(3) 0.20924(8) -0.10305(15)
H18 H 0.649(3) 0.2224(11) -0.0984(18)
C16 C 0.4173(2) 0.18944(7) -0.00068(14)
H19 H 0.496(3) 0.1877(9) 0.0731(17)
loop_
_geom_bond_atom_site_label_1
_geom_bond_atom_site_label_2
_geom_bond_site_symmetry_1
_geom_bond_site_symmetry_2
O1 C4 1_555 1_555
N1 N2 1_555 1_555
N2 N3 1_555 1_555
N3 C10 1_555 1_555
C1 H1 1_555 1_555
H2 C1 1_555 1_555
C2 C1 1_555 1_555
H3 C2 1_555 1_555
C3 N1 1_555 1_555
H4 C3 1_555 1_555
C4 C3 1_555 1_555
H5 C4 1_555 1_555
H6 C4 1_555 1_555
C5 O1 1_555 1_555
H7 C5 1_555 1_555
C6 C5 1_555 1_555
H8 C6 1_555 1_555
C7 C6 1_555 1_555
H9 C7 1_555 1_555
H10 C7 1_555 1_555
H11 C7 1_555 1_555
C8 C6 1_555 1_555
H12 C8 1_555 1_555
H13 C8 1_555 1_555
H14 C8 1_555 1_555
C9 N1 1_555 1_555
C10 C9 1_555 1_555
C11 C10 1_555 1_555
C12 C11 1_555 1_555
H15 C12 1_555 1_555
C13 C12 1_555 1_555
H16 C13 1_555 1_555
C14 C13 1_555 1_555
H17 C14 1_555 1_555
C15 C14 1_555 1_555
H18 C15 1_555 1_555
C16 C11 1_555 1_555
H19 C16 1_555 1_555
C2 C3 1_555 1_555
C5 C9 1_555 1_555
C15 C16 1_555 1_555

#END
