
#######################################################################
#
#                 Cambridge Crystallographic Data Centre
#                                CCDC 
#
#######################################################################
#
# If this CIF has been generated from an entry in the Cambridge 
# Structural Database, then it will include bibliographic, chemical, 
# crystal, experimental, refinement or atomic coordinate data resulting 
# from the CCDC's data processing and validation procedures.
#
#######################################################################

data_RIZFAJ
_chemical_formula_moiety         'C16 H19 N3 O1'
_chemical_name_systematic        
(4S*,7S*)-4-isopropyl-3-phenyl-7-vinyl-6,7-dihydro-4H-[1,2,3]triazolo[5,1-c][1,4]oxazine
_symmetry_cell_setting           monoclinic
_symmetry_space_group_name_H-M   'P 21/c'
_symmetry_Int_Tables_number      14
_space_group_name_Hall           '-P 2ybc'
loop_
_symmetry_equiv_pos_site_id
_symmetry_equiv_pos_as_xyz
1 x,y,z
2 -x,1/2+y,1/2-z
3 -x,-y,-z
4 x,1/2-y,1/2+z
_cell_length_a                   6.6140(3)
_cell_length_b                   18.9847(6)
_cell_length_c                   11.2005(4)
_cell_angle_alpha                90
_cell_angle_beta                 90.675(2)
_cell_angle_gamma                90
_cell_volume                     1406.29
_exptl_crystal_colour            colorless
_exptl_crystal_description       'Rectangular parallelepiped'
_chemical_melting_point          '154-156 deg.C'
_cell_formula_units_Z            4
loop_
_atom_site_label
_atom_site_type_symbol
_atom_site_fract_x
_atom_site_fract_y
_atom_site_fract_z
O1 O 0.32603(11) 0.07080(4) 0.35293(6)
N1 N 0.02945(14) 0.15429(4) 0.27188(8)
N2 N -0.12621(14) 0.18776(5) 0.21683(8)
N3 N -0.07491(14) 0.19553(4) 0.10437(8)
C1 C -0.2490(2) 0.09528(8) 0.51935(11)
H1 H -0.337(2) 0.0563(9) 0.5466(13)
H2 H -0.267(2) 0.1399(9) 0.5552(14)
C2 C -0.10932(18) 0.08542(6) 0.43894(10)
H3 H -0.090(2) 0.0390(8) 0.4009(12)
C3 C 0.03482(17) 0.14221(5) 0.40203(9)
H4 H 0.0005(19) 0.1870(7) 0.4403(11)
C4 C 0.25462(17) 0.12374(6) 0.43204(9)
H5 H 0.2595(18) 0.1043(6) 0.5124(11)
H6 H 0.3422(19) 0.1662(7) 0.4264(11)
C5 C 0.36388(16) 0.09928(5) 0.23661(9)
H7 H 0.4824(18) 0.1337(6) 0.2398(10)
C6 C 0.41391(16) 0.03776(5) 0.15304(9)
H8 H 0.4383(18) 0.0584(6) 0.0734(11)
C7 C 0.24120(19) -0.01542(6) 0.14348(10)
H9 H 0.212(2) -0.0386(7) 0.2210(13)
H10 H 0.273(2) -0.0528(7) 0.0851(12)
H11 H 0.119(2) 0.0069(8) 0.1151(13)
C8 C 0.61167(18) 0.00297(6) 0.19248(10)
H12 H 0.649(2) -0.0355(8) 0.1378(12)
H13 H 0.600(2) -0.0167(7) 0.2739(13)
H14 H 0.726(2) 0.0381(8) 0.1949(12)
C9 C 0.18032(16) 0.14009(5) 0.19536(9)
C10 C 0.11336(16) 0.16765(5) 0.08767(9)
C11 C 0.21591(17) 0.17399(5) -0.02780(9)
C12 C 0.10455(19) 0.16857(5) -0.13453(10)
H15 H -0.037(2) 0.1573(7) -0.1286(12)
C13 C 0.1969(2) 0.17893(6) -0.24340(10)
H16 H 0.117(2) 0.1751(8) -0.3166(13)
C14 C 0.4003(2) 0.19516(6) -0.24806(11)
H17 H 0.466(2) 0.2037(8) -0.3250(14)
C15 C 0.5134(2) 0.20003(6) -0.14285(11)
H18 H 0.652(2) 0.2128(7) -0.1447(12)
C16 C 0.42215(17) 0.18910(5) -0.03347(10)
H19 H 0.502(2) 0.1932(7) 0.0400(11)
loop_
_geom_bond_atom_site_label_1
_geom_bond_atom_site_label_2
_geom_bond_site_symmetry_1
_geom_bond_site_symmetry_2
O1 C4 1_555 1_555
N1 N2 1_555 1_555
N2 N3 1_555 1_555
N3 C10 1_555 1_555
C1 H1 1_555 1_555
H2 C1 1_555 1_555
C2 C1 1_555 1_555
H3 C2 1_555 1_555
C3 N1 1_555 1_555
H4 C3 1_555 1_555
C4 C3 1_555 1_555
H5 C4 1_555 1_555
H6 C4 1_555 1_555
C5 O1 1_555 1_555
H7 C5 1_555 1_555
C6 C5 1_555 1_555
H8 C6 1_555 1_555
C7 C6 1_555 1_555
H9 C7 1_555 1_555
H10 C7 1_555 1_555
H11 C7 1_555 1_555
C8 C6 1_555 1_555
H12 C8 1_555 1_555
H13 C8 1_555 1_555
H14 C8 1_555 1_555
C9 N1 1_555 1_555
C10 C9 1_555 1_555
C11 C10 1_555 1_555
C12 C11 1_555 1_555
H15 C12 1_555 1_555
C13 C12 1_555 1_555
H16 C13 1_555 1_555
C14 C13 1_555 1_555
H17 C14 1_555 1_555
C15 C14 1_555 1_555
H18 C15 1_555 1_555
C16 C11 1_555 1_555
H19 C16 1_555 1_555
C2 C3 1_555 1_555
C5 C9 1_555 1_555
C15 C16 1_555 1_555

#END
