
#######################################################################
#
#                 Cambridge Crystallographic Data Centre
#                                CCDC 
#
#######################################################################
#
# If this CIF has been generated from an entry in the Cambridge 
# Structural Database, then it will include bibliographic, chemical, 
# crystal, experimental, refinement or atomic coordinate data resulting 
# from the CCDC's data processing and validation procedures.
#
#######################################################################

data_RIZHEO
_chemical_formula_moiety         'C21 H28 N2 O5'
_chemical_name_systematic        
4-(2-(3,4-Dimethoxyphenethylamino)propoxy)-2-methoxybenzamide
_chemical_properties_biological  'alpha1-adrenoreceptor antagonist properties'
_symmetry_cell_setting           monoclinic
_symmetry_space_group_name_H-M   'P 21/c'
_symmetry_Int_Tables_number      14
_space_group_name_Hall           '-P 2ybc'
loop_
_symmetry_equiv_pos_site_id
_symmetry_equiv_pos_as_xyz
1 x,y,z
2 -x,1/2+y,1/2-z
3 -x,-y,-z
4 x,1/2-y,1/2+z
_cell_length_a                   7.7564(3)
_cell_length_b                   9.3509(4)
_cell_length_c                   29.9987(12)
_cell_angle_alpha                90
_cell_angle_beta                 95.370(3)
_cell_angle_gamma                90
_cell_volume                     2166.24
_exptl_crystal_colour            colorless
_exptl_crystal_description       block
_cell_formula_units_Z            4
loop_
_atom_site_label
_atom_site_type_symbol
_atom_site_fract_x
_atom_site_fract_y
_atom_site_fract_z
C1 C 1.0849(4) 0.9275(3) 0.68939(10)
C2 C 1.0775(4) 0.8967(3) 0.73403(10)
H1 H 1.0012 0.8264 0.7419
C3 C 1.1788(4) 0.9662(3) 0.76742(11)
C4 C 1.2923(4) 1.0728(3) 0.75616(13)
C5 C 1.3002(4) 1.1052(4) 0.71190(14)
H2 H 1.3752 1.1762 0.7038
C6 C 1.1968(5) 1.0324(4) 0.67897(12)
H3 H 1.2040 1.0558 0.6491
C7 C 0.2048(4) 0.3654(3) 0.58051(10)
H4 H 0.1768 0.2941 0.6002
C8 C 0.2697(4) 0.4909(4) 0.59783(10)
H5 H 0.2876 0.5034 0.6287
C9 C 0.3086(4) 0.5986(3) 0.56951(10)
C10 C 0.2844(3) 0.5786(3) 0.52359(9)
H6 H 0.3093 0.6521 0.5043
C11 C 0.2230(3) 0.4489(3) 0.50650(9)
C12 C 0.1785(3) 0.3388(3) 0.53488(9)
C13 C 1.0809(9) 0.8210(6) 0.82400(14)
H7 H 0.9600 0.8442 0.8191
H8 H 1.1095 0.7984 0.8550
H9 H 1.1054 0.7400 0.8059
C14 C 0.4230(4) 0.8365(3) 0.56233(10)
H10 H 0.3207 0.8859 0.5491
H11 H 0.4874 0.8014 0.5384
C15 C 0.5335(4) 0.9363(3) 0.59209(10)
H12 H 0.4726 0.9616 0.6182
C16 C 0.8086(4) 0.9358(3) 0.63960(10)
H13 H 0.7475 0.9578 0.6655
H14 H 0.8422 1.0254 0.6266
C17 C 0.9687(4) 0.8500(4) 0.65416(10)
H15 H 1.0321 0.8313 0.6284
H16 H 0.9348 0.7588 0.6660
C18 C 1.5228(7) 1.2293(6) 0.78212(16)
H17 H 1.5999 1.1812 0.7638
H18 H 1.5858 1.2594 0.8096
H19 H 1.4738 1.3113 0.7664
C19 C 0.5701(5) 1.0702(3) 0.56651(13)
H20 H 0.6320 1.1371 0.5863
H21 H 0.4628 1.1121 0.5544
H22 H 0.6388 1.0465 0.5425
C20 C 0.2483(4) 0.5301(3) 0.43139(9)
H23 H 0.1776 0.6133 0.4343
H24 H 0.2303 0.4945 0.4013
H25 H 0.3679 0.5551 0.4381
C21 C 0.1018(4) 0.1977(3) 0.52065(11)
N1 N 0.6938(3) 0.8582(2) 0.60697(8)
H26 H 0.662(4) 0.780(2) 0.6217(8)
N2 N 0.0991(3) 0.1560(3) 0.47879(8)
H27 H 0.0548 0.0747 0.4708
H28 H 0.1417 0.2102 0.4594
O1 O 0.3744(3) 0.7205(2) 0.58938(6)
O2 O 1.1798(4) 0.9383(3) 0.81226(8)
O3 O 1.3892(3) 1.1353(3) 0.79165(9)
O4 O 0.2023(3) 0.4228(2) 0.46171(6)
O5 O 0.0413(4) 0.1217(2) 0.54918(8)
loop_
_geom_bond_atom_site_label_1
_geom_bond_atom_site_label_2
_geom_bond_site_symmetry_1
_geom_bond_site_symmetry_2
C1 C2 1_555 1_555
C2 H1 1_555 1_555
C3 C2 1_555 1_555
C4 C3 1_555 1_555
C5 C4 1_555 1_555
H2 C5 1_555 1_555
C6 C1 1_555 1_555
H3 C6 1_555 1_555
C7 H4 1_555 1_555
C8 C7 1_555 1_555
H5 C8 1_555 1_555
C9 C8 1_555 1_555
C10 C9 1_555 1_555
H6 C10 1_555 1_555
C11 C10 1_555 1_555
C12 C7 1_555 1_555
C13 H7 1_555 1_555
H8 C13 1_555 1_555
H9 C13 1_555 1_555
C14 H10 1_555 1_555
H11 C14 1_555 1_555
C15 C14 1_555 1_555
H12 C15 1_555 1_555
C16 H13 1_555 1_555
H14 C16 1_555 1_555
C17 C1 1_555 1_555
H15 C17 1_555 1_555
H16 C17 1_555 1_555
C18 H17 1_555 1_555
H18 C18 1_555 1_555
H19 C18 1_555 1_555
C19 C15 1_555 1_555
H20 C19 1_555 1_555
H21 C19 1_555 1_555
H22 C19 1_555 1_555
C20 H23 1_555 1_555
H24 C20 1_555 1_555
H25 C20 1_555 1_555
C21 C12 1_555 1_555
N1 C15 1_555 1_555
H26 N1 1_555 1_555
N2 C21 1_555 1_555
H27 N2 1_555 1_555
H28 N2 1_555 1_555
O1 C9 1_555 1_555
O2 C3 1_555 1_555
O3 C4 1_555 1_555
O4 C11 1_555 1_555
O5 C21 1_555 1_555
C5 C6 1_555 1_555
C11 C12 1_555 1_555
C13 O2 1_555 1_555
C14 O1 1_555 1_555
C16 C17 1_555 1_555
C16 N1 1_555 1_555
C18 O3 1_555 1_555
C20 O4 1_555 1_555

#END
