
#######################################################################
#
#                 Cambridge Crystallographic Data Centre
#                                CCDC 
#
#######################################################################
#
# If this CIF has been generated from an entry in the Cambridge 
# Structural Database, then it will include bibliographic, chemical, 
# crystal, experimental, refinement or atomic coordinate data resulting 
# from the CCDC's data processing and validation procedures.
#
#######################################################################

data_RIZZAC
_chemical_formula_moiety         'C59 H94 N16 O16,7.5(H2 O1)'
_chemical_name_systematic        
'N^1^:N^3^-(1-Oxohex-4-ene-1,6-diyl)-glutaminyl-valyl-D-alanyl-arginyl-glutaminyl-leucyl-alanyl-glutamyl-isoleucyl-tyrosine amide hydrate'
_symmetry_cell_setting           monoclinic
_symmetry_space_group_name_H-M   'P 21'
_symmetry_Int_Tables_number      4
_space_group_name_Hall           'P 2yb'
loop_
_symmetry_equiv_pos_site_id
_symmetry_equiv_pos_as_xyz
1 x,y,z
2 -x,1/2+y,-z
_cell_length_a                   16.348
_cell_length_b                   10.707
_cell_length_c                   44.1
_cell_angle_alpha                90
_cell_angle_beta                 98.49
_cell_angle_gamma                90
_cell_volume                     7634.59
_cell_formula_units_Z            4
_exptl_crystal_recrystallization_method 'hanging drop vapour diffusion'
loop_
_atom_site_label
_atom_site_type_symbol
_atom_site_fract_x
_atom_site_fract_y
_atom_site_fract_z
C1 C 0.786186 0.135893 0.391295
C2 C 0.803008 0.134865 0.358899
C3 C 0.876672 0.092370 0.352182
C4 C 0.887911 0.080228 0.318823
C5 C 0.889034 -0.056599 0.308437
C6 C 0.826887 -0.129075 0.32272
O1 O 0.74941 -0.103484 0.317103
N1 N 0.853978 -0.216307 0.34512
C7 C 0.7915 -0.299244 0.356423
C8 C 0.834072 -0.411787 0.372999
C9 C 0.85898 -0.505091 0.349385
C10 C 0.78872 -0.564305 0.33102
O2 O 0.719509 -0.594565 0.338013
N2 N 0.806984 -0.576166 0.303164
C11 C 0.743175 -0.228449 0.377149
O3 O 0.668459 -0.244513 0.375544
N3 N 0.784968 -0.157654 0.398219
C12 C 0.740338 -0.106286 0.422384
C13 C 0.798563 -0.062483 0.452304
C14 C 0.749031 0.011488 0.473993
C15 C 0.842719 -0.178855 0.469018
C16 C 0.677002 -0.002709 0.410347
O4 O 0.606375 -0.014570 0.414245
N4 N 0.700022 0.090408 0.39274
C17 C 0.636957 0.182965 0.380153
C18 C 0.61311 0.266181 0.407046
C19 C 0.563265 0.111236 0.361926
O5 O 0.491664 0.14626 0.362613
N5 N 0.582075 0.023256 0.343424
C20 C 0.515472 -0.048100 0.323798
C21 C 0.555269 -0.145699 0.305158
C22 C 0.491551 -0.235641 0.288169
C23 C 0.533023 -0.321659 0.266824
N6 N 0.548992 -0.257402 0.239656
C24 C 0.49386 -0.244887 0.214276
N7 N 0.417671 -0.298403 0.211891
N8 N 0.51257 -0.189316 0.189538
C25 C 0.458485 -0.112543 0.342438
O6 O 0.383295 -0.114225 0.334115
N9 N 0.492416 -0.165219 0.368185
C26 C 0.438933 -0.233119 0.386251
C27 C 0.488965 -0.30821 0.412342
C28 C 0.444462 -0.415056 0.425158
C29 C 0.404002 -0.506118 0.402827
O7 O 0.43933 -0.536472 0.379877
N10 N 0.335928 -0.550482 0.40684
C30 C 0.383011 -0.140469 0.399732
O8 O 0.309028 -0.17101 0.400581
N11 N 0.413467 -0.032035 0.410462
C31 C 0.357006 0.056132 0.421054
C32 C 0.406191 0.168488 0.435498
C33 C 0.465969 0.138881 0.464249
C34 C 0.508305 0.260017 0.477776
C35 C 0.427973 0.071636 0.490019
C36 C 0.290383 0.096199 0.395239
O9 O 0.218035 0.109461 0.400191
N12 N 0.310614 0.111609 0.367405
C37 C 0.249437 0.148781 0.342208
C38 C 0.291482 0.180723 0.31355
C39 C 0.183832 0.044177 0.33384
O10 O 0.109345 0.072009 0.327283
N13 N 0.21058 -0.072570 0.334803
C40 C 0.153293 -0.174466 0.325357
C41 C 0.204391 -0.290932 0.31896
C42 C 0.239043 -0.278883 0.288788
C43 C 0.296662 -0.389559 0.282484
O11 O 0.320704 -0.460634 0.302912
O12 O 0.309491 -0.392454 0.254192
C44 C 0.100402 -0.203979 0.349362
O13 O 0.033264 -0.259177 0.34175
N14 N 0.12821 -0.179416 0.378318
C45 C 0.082707 -0.208089 0.404134
C46 C 0.13603 -0.252079 0.432495
C47 C 0.185595 -0.370599 0.426396
C48 C 0.133552 -0.490241 0.42259
C49 C 0.085559 -0.270011 0.459503
C50 C 0.027708 -0.093210 0.410256
O14 O -0.044046 -0.106566 0.412709
N15 N 0.069686 0.012889 0.415208
C51 C 0.032650 0.123564 0.428804
C52 C 0.093496 0.172784 0.455628
C53 C 0.110388 0.082189 0.481444
C54 C 0.186058 0.018960 0.488208
C55 C 0.199757 -0.064724 0.511845
C56 C 0.138056 -0.089007 0.529705
O15 O 0.154163 -0.177921 0.553091
C57 C 0.060826 -0.029327 0.523171
C58 C 0.04754 0.053984 0.49919
C59 C 0.012392 0.228916 0.406358
O16 O -0.038557 0.312226 0.411287
N16 N 0.051698 0.241058 0.381574
C60 C 0.209224 0.486598 0.109224
C61 C 0.197125 0.485011 0.142881
C62 C 0.125103 0.436911 0.15157
C63 C 0.111614 0.431214 0.184196
C64 C 0.103147 0.294387 0.193343
C65 C 0.169874 0.219016 0.181192
O17 O 0.242573 0.237789 0.190936
N17 N 0.143991 0.132157 0.158907
C66 C 0.207848 0.053984 0.147994
C67 C 0.166197 -0.062763 0.13112
C68 C 0.136906 -0.153918 0.154482
C69 C 0.209679 -0.218456 0.173626
O18 O 0.275222 -0.242365 0.16418
N18 N 0.198984 -0.248156 0.202056
C70 C 0.25496 0.127113 0.126374
O19 O 0.328859 0.115345 0.128231
N19 N 0.213728 0.194359 0.103332
C71 C 0.257395 0.2447 0.079052
C72 C 0.198354 0.286355 0.050004
C73 C 0.246811 0.354348 0.027306
C74 C 0.153181 0.164939 0.034574
C75 C 0.319999 0.349492 0.090791
O20 O 0.391459 0.340245 0.086985
N20 N 0.296984 0.446344 0.107642
C76 C 0.358515 0.546559 0.117914
C77 C 0.377955 0.619502 0.088865
C78 C 0.43458 0.479313 0.13488
O21 O 0.507688 0.51303 0.134444
N21 N 0.419512 0.398805 0.156018
C79 C 0.485113 0.336042 0.176813
C80 C 0.44871 0.260297 0.200749
C81 C 0.515098 0.193052 0.224134
C82 C 0.477773 0.143271 0.252357
N22 N 0.450844 0.247409 0.270745
C83 C 0.504173 0.318857 0.29037
N23 N 0.583808 0.286822 0.296492
N24 N 0.473912 0.414683 0.304081
C84 C 0.538302 0.258896 0.15893
O22 O 0.61451 0.252639 0.167505
N25 N 0.50273 0.193799 0.134283
C85 C 0.555521 0.123097 0.117088
C86 C 0.499048 0.053517 0.090493
C87 C 0.550596 -0.037546 0.074788
C88 C 0.58884 -0.141123 0.093244
O23 O 0.553621 -0.187354 0.115392
N26 N 0.656959 -0.189129 0.086733
C89 C 0.613485 0.21005 0.103515
O24 O 0.684656 0.176147 0.102209
N27 N 0.584818 0.319698 0.091593
C90 C 0.643182 0.401327 0.080405
C91 C 0.59608 0.514617 0.064585
C92 C 0.53292 0.479594 0.036867
C93 C 0.496659 0.600636 0.020932
C94 C 0.570425 0.40525 0.012014
C95 C 0.708379 0.451108 0.105097
O25 O 0.781107 0.460634 0.09987
N28 N 0.691126 0.468573 0.133802
C96 C 0.756259 0.50864 0.159411
C97 C 0.716053 0.533764 0.187772
C98 C 0.817081 0.400673 0.167596
O26 O 0.890915 0.428972 0.173282
N29 N 0.791413 0.282152 0.166427
C99 C 0.84444 0.176707 0.174085
C100 C 0.792314 0.060241 0.17867
C101 C 0.751087 0.061362 0.206618
C102 C 0.694992 -0.055945 0.207994
O27 O 0.674572 -0.118708 0.185296
O28 O 0.67096 -0.069114 0.234268
C103 C 0.896548 0.147754 0.149805
O29 O 0.96504 0.092743 0.156821
N30 N 0.869893 0.176334 0.121284
C104 C 0.915095 0.149902 0.095789
C105 C 0.860052 0.111423 0.066488
C106 C 0.812045 -0.010180 0.072197
C107 C 0.863574 -0.131503 0.074100
C108 C 0.911147 0.091249 0.039664
C109 C 0.968868 0.261979 0.089966
O30 O 1.04309 0.24993 0.088475
N31 N 0.92964 0.368825 0.084394
C110 C 0.968103 0.480434 0.071464
C111 C 0.908252 0.533764 0.044066
C112 C 0.890135 0.443262 0.018089
C113 C 0.813353 0.381994 0.011762
C114 C 0.79856 0.296162 -0.012472
C115 C 0.85982 0.270945 -0.030057
O31 O 0.844472 0.188102 -0.053535
C116 C 0.938131 0.329411 -0.023729
C117 C 0.953446 0.409266 0.000894
C118 C 0.988841 0.585039 0.094345
O32 O 1.0394 0.668442 0.090126
N32 N 0.94888 0.594565 0.118716
O33 O 0.066305 -0.544505 0.343309
O34 O 0.927733 -0.178575 0.154688
O35 O 0.592942 -0.460727 0.353351
O36 O 0.39163 -0.126646 0.137929
O37 O 0.239576 -0.554311 0.351081
O38 O 0.29308 0.351079 0.247084
O39 O 0.764217 -0.20566 0.142537
O40 O 0.684626 0.088821 0.277784
O41 O -0.054371 -0.37723 0.293901
O42 O 0.909849 0.306249 0.245067
O43 O 0.74172 0.309798 0.255269
O44 O 0.143621 -0.577007 0.268682
O45 O 1.00943 0.541703 0.241994
O46 O 0.045616 0.281125 0.293374
O47 O 0.05541 -0.182685 0.226909
loop_
_geom_bond_atom_site_label_1
_geom_bond_atom_site_label_2
_geom_bond_site_symmetry_1
_geom_bond_site_symmetry_2
C1 C2 1_555 1_555
C2 C3 1_555 1_555
C3 C4 1_555 1_555
C4 C5 1_555 1_555
C5 C6 1_555 1_555
C6 O1 1_555 1_555
N1 C6 1_555 1_555
C7 N1 1_555 1_555
C8 C7 1_555 1_555
C9 C8 1_555 1_555
C10 C9 1_555 1_555
O2 C10 1_555 1_555
N2 C10 1_555 1_555
C11 C7 1_555 1_555
O3 C11 1_555 1_555
N3 C11 1_555 1_555
C12 N3 1_555 1_555
C13 C12 1_555 1_555
C14 C13 1_555 1_555
C15 C13 1_555 1_555
C16 C12 1_555 1_555
O4 C16 1_555 1_555
N4 C1 1_555 1_555
C17 N4 1_555 1_555
C18 C17 1_555 1_555
C19 C17 1_555 1_555
O5 C19 1_555 1_555
N5 C19 1_555 1_555
C20 N5 1_555 1_555
C21 C20 1_555 1_555
C22 C21 1_555 1_555
C23 C22 1_555 1_555
N6 C23 1_555 1_555
C24 N6 1_555 1_555
N7 C24 1_555 1_555
N8 C24 1_555 1_555
C25 C20 1_555 1_555
O6 C25 1_555 1_555
N9 C25 1_555 1_555
C26 N9 1_555 1_555
C27 C26 1_555 1_555
C28 C27 1_555 1_555
C29 C28 1_555 1_555
O7 C29 1_555 1_555
N10 C29 1_555 1_555
C30 C26 1_555 1_555
O8 C30 1_555 1_555
N11 C30 1_555 1_555
C31 N11 1_555 1_555
C32 C31 1_555 1_555
C33 C32 1_555 1_555
C34 C33 1_555 1_555
C35 C33 1_555 1_555
C36 C31 1_555 1_555
O9 C36 1_555 1_555
N12 C36 1_555 1_555
C37 N12 1_555 1_555
C38 C37 1_555 1_555
C39 C37 1_555 1_555
O10 C39 1_555 1_555
N13 C39 1_555 1_555
C40 N13 1_555 1_555
C41 C40 1_555 1_555
C42 C41 1_555 1_555
C43 C42 1_555 1_555
O11 C43 1_555 1_555
O12 C43 1_555 1_555
C44 C40 1_555 1_555
O13 C44 1_555 1_555
N14 C44 1_555 1_555
C45 N14 1_555 1_555
C46 C45 1_555 1_555
C47 C46 1_555 1_555
C48 C47 1_555 1_555
C49 C46 1_555 1_555
C50 C45 1_555 1_555
O14 C50 1_555 1_555
N15 C50 1_555 1_555
C51 N15 1_555 1_555
C52 C51 1_555 1_555
C53 C52 1_555 1_555
C54 C53 1_555 1_555
C55 C54 1_555 1_555
C56 C55 1_555 1_555
O15 C56 1_555 1_555
C57 C56 1_555 1_555
C58 C53 1_555 1_555
C59 C51 1_555 1_555
O16 C59 1_555 1_555
N16 C59 1_555 1_555
C60 C61 1_555 1_555
C61 C62 1_555 1_555
C62 C63 1_555 1_555
C63 C64 1_555 1_555
C64 C65 1_555 1_555
C65 O17 1_555 1_555
N17 C65 1_555 1_555
C66 N17 1_555 1_555
C67 C66 1_555 1_555
C68 C67 1_555 1_555
C69 C68 1_555 1_555
O18 C69 1_555 1_555
N18 C69 1_555 1_555
C70 C66 1_555 1_555
O19 C70 1_555 1_555
N19 C70 1_555 1_555
C71 N19 1_555 1_555
C72 C71 1_555 1_555
C73 C72 1_555 1_555
C74 C72 1_555 1_555
C75 C71 1_555 1_555
O20 C75 1_555 1_555
N20 C60 1_555 1_555
C76 N20 1_555 1_555
C77 C76 1_555 1_555
C78 C76 1_555 1_555
O21 C78 1_555 1_555
N21 C78 1_555 1_555
C79 N21 1_555 1_555
C80 C79 1_555 1_555
C81 C80 1_555 1_555
C82 C81 1_555 1_555
N22 C82 1_555 1_555
C83 N22 1_555 1_555
N23 C83 1_555 1_555
N24 C83 1_555 1_555
C84 C79 1_555 1_555
O22 C84 1_555 1_555
N25 C84 1_555 1_555
C85 N25 1_555 1_555
C86 C85 1_555 1_555
C87 C86 1_555 1_555
C88 C87 1_555 1_555
O23 C88 1_555 1_555
N26 C88 1_555 1_555
C89 C85 1_555 1_555
O24 C89 1_555 1_555
N27 C89 1_555 1_555
C90 N27 1_555 1_555
C91 C90 1_555 1_555
C92 C91 1_555 1_555
C93 C92 1_555 1_555
C94 C92 1_555 1_555
C95 C90 1_555 1_555
O25 C95 1_555 1_555
N28 C95 1_555 1_555
C96 N28 1_555 1_555
C97 C96 1_555 1_555
C98 C96 1_555 1_555
O26 C98 1_555 1_555
N29 C98 1_555 1_555
C99 N29 1_555 1_555
C100 C99 1_555 1_555
C101 C100 1_555 1_555
C102 C101 1_555 1_555
O27 C102 1_555 1_555
O28 C102 1_555 1_555
C103 C99 1_555 1_555
O29 C103 1_555 1_555
N30 C103 1_555 1_555
C104 N30 1_555 1_555
C105 C104 1_555 1_555
C106 C105 1_555 1_555
C107 C106 1_555 1_555
C108 C105 1_555 1_555
C109 C104 1_555 1_555
O30 C109 1_555 1_555
N31 C109 1_555 1_555
C110 N31 1_555 1_555
C111 C110 1_555 1_555
C112 C111 1_555 1_555
C113 C112 1_555 1_555
C114 C113 1_555 1_555
C115 C114 1_555 1_555
O31 C115 1_555 1_555
C116 C115 1_555 1_555
C117 C112 1_555 1_555
C118 C110 1_555 1_555
O32 C118 1_555 1_555
N32 C118 1_555 1_555
C16 N4 1_555 1_555
C57 C58 1_555 1_555
C75 N20 1_555 1_555
C116 C117 1_555 1_555

#END
