
#######################################################################
#
#                 Cambridge Crystallographic Data Centre
#                                CCDC 
#
#######################################################################
#
# If this CIF has been generated from an entry in the Cambridge 
# Structural Database, then it will include bibliographic, chemical, 
# crystal, experimental, refinement or atomic coordinate data resulting 
# from the CCDC's data processing and validation procedures.
#
#######################################################################

data_RMNALA11
_chemical_formula_moiety         'C8 H14 N2 O2'
_chemical_name_systematic        1,3,4,6-tetramethylpiperazine-2,5-dione
_symmetry_cell_setting           monoclinic
_symmetry_space_group_name_H-M   'P 21/c'
_symmetry_Int_Tables_number      14
_space_group_name_Hall           '-P 2ybc'
loop_
_symmetry_equiv_pos_site_id
_symmetry_equiv_pos_as_xyz
1 x,y,z
2 -x,1/2+y,1/2-z
3 -x,-y,-z
4 x,1/2-y,1/2+z
_cell_length_a                   10.377(4)
_cell_length_b                   9.056(4)
_cell_length_c                   11.012(6)
_cell_angle_alpha                90
_cell_angle_beta                 118.053(9)
_cell_angle_gamma                90
_cell_volume                     913.262
_exptl_crystal_colour            colorless
_exptl_crystal_description       block
_cell_formula_units_Z            4
loop_
_atom_site_label
_atom_site_type_symbol
_atom_site_fract_x
_atom_site_fract_y
_atom_site_fract_z
C1 C 0.7675(3) -0.0743(2) 0.8565(2)
H1 H 0.8267 -0.1392 0.9342
C2 C 0.8294(2) 0.0785(3) 0.8950(2)
C3 C 0.7728(2) 0.1157(2) 0.6525(2)
H2 H 0.8412 0.1528 0.6217
C4 C 0.7668(2) -0.0494(3) 0.6341(2)
C5 C 0.7719(3) -0.2951(3) 0.7241(3)
H3 H 0.6733 -0.3305 0.6853
H4 H 0.8287 -0.3377 0.8136
H5 H 0.8131 -0.3226 0.6654
C6 C 0.6124(3) -0.0758(3) 0.8388(3)
H6 H 0.5512 -0.0130 0.7633
H7 H 0.6136 -0.0407 0.9216
H8 H 0.5749 -0.1748 0.8204
C7 C 0.8762(3) 0.3190(3) 0.8267(3)
H9 H 0.8045 0.3744 0.8394
H10 H 0.8874 0.3606 0.7520
H11 H 0.9679 0.3230 0.9095
C8 C 0.6251(3) 0.1844(3) 0.5581(2)
H12 H 0.5532 0.1477 0.5821
H13 H 0.5973 0.1589 0.4643
H14 H 0.6316 0.2898 0.5682
N1 N 0.7728(2) -0.1339(2) 0.73609(18)
N2 N 0.8284(2) 0.1644(2) 0.79512(18)
O1 O 0.87440(19) 0.12192(19) 1.01403(16)
O2 O 0.7557(2) -0.10018(19) 0.52602(16)
loop_
_geom_bond_atom_site_label_1
_geom_bond_atom_site_label_2
_geom_bond_site_symmetry_1
_geom_bond_site_symmetry_2
C1 H1 1_555 1_555
C2 C1 1_555 1_555
C3 H2 1_555 1_555
C4 C3 1_555 1_555
C5 H3 1_555 1_555
H4 C5 1_555 1_555
H5 C5 1_555 1_555
C6 C1 1_555 1_555
H6 C6 1_555 1_555
H7 C6 1_555 1_555
H8 C6 1_555 1_555
C7 H9 1_555 1_555
H10 C7 1_555 1_555
H11 C7 1_555 1_555
C8 C3 1_555 1_555
H12 C8 1_555 1_555
H13 C8 1_555 1_555
H14 C8 1_555 1_555
N1 C1 1_555 1_555
N2 C2 1_555 1_555
O1 C2 1_555 1_555
O2 C4 1_555 1_555
C3 N2 1_555 1_555
C4 N1 1_555 1_555
C5 N1 1_555 1_555
C7 N2 1_555 1_555

#END
