
#######################################################################
#
#                 Cambridge Crystallographic Data Centre
#                                CCDC 
#
#######################################################################
#
# If this CIF has been generated from an entry in the Cambridge 
# Structural Database, then it will include bibliographic, chemical, 
# crystal, experimental, refinement or atomic coordinate data resulting 
# from the CCDC's data processing and validation procedures.
#
#######################################################################

data_ROBDIX
_chemical_formula_moiety         'C18 H18 O3'
_chemical_name_systematic        
'Methyl 2-hydroxy-1-methyl-2-phenylindane-1-carboxylate'
_symmetry_cell_setting           monoclinic
_symmetry_space_group_name_H-M   'P 21/c'
_symmetry_Int_Tables_number      14
_space_group_name_Hall           '-P 2ybc'
loop_
_symmetry_equiv_pos_site_id
_symmetry_equiv_pos_as_xyz
1 x,y,z
2 -x,1/2+y,1/2-z
3 -x,-y,-z
4 x,1/2-y,1/2+z
_cell_length_a                   13.9757(10)
_cell_length_b                   14.2207(12)
_cell_length_c                   7.4940(6)
_cell_angle_alpha                90
_cell_angle_beta                 97.598(8)
_cell_angle_gamma                90
_cell_volume                     1476.31
_cell_formula_units_Z            4
loop_
_atom_site_label
_atom_site_type_symbol
_atom_site_fract_x
_atom_site_fract_y
_atom_site_fract_z
C1 C 0.70115(11) 0.54355(11) 0.6949(2)
C2 C 0.75644(12) 0.54786(12) 0.8865(2)
H1 H 0.8001 0.6029 0.9007
H2 H 0.7113 0.5515 0.9775
C3 C 0.81267(11) 0.45776(12) 0.9045(2)
C4 C 0.89441(12) 0.43606(14) 1.0223(2)
H3 H 0.9202 0.4798 1.1117
C5 C 0.93804(12) 0.34937(15) 1.0078(3)
H4 H 0.9950 0.3341 1.0862
C6 C 0.89958(12) 0.28540(14) 0.8807(3)
H5 H 0.9298 0.2260 0.8734
C7 C 0.81700(11) 0.30635(12) 0.7624(2)
H6 H 0.7903 0.2618 0.6751
C8 C 0.77474(11) 0.39349(11) 0.7751(2)
C9 C 0.68816(10) 0.43323(11) 0.6563(2)
C10 C 0.68189(12) 0.40630(12) 0.4587(2)
H7 H 0.7435 0.4202 0.4151
H8 H 0.6302 0.4424 0.3886
H9 H 0.6679 0.3390 0.4449
C11 C 0.59365(11) 0.40394(11) 0.7222(2)
C12 C 0.51440(14) 0.36127(18) 0.9682(3)
H10 H 0.4660 0.4110 0.9413
H11 H 0.5282 0.3528 1.0988
H12 H 0.4896 0.3023 0.9123
C13 C 0.75927(11) 0.58855(11) 0.5582(2)
C14 C 0.71496(12) 0.64686(12) 0.4236(2)
H13 H 0.6478 0.6591 0.4172
C15 C 0.76639(14) 0.68752(13) 0.2988(2)
H14 H 0.7344 0.7274 0.2082
C16 C 0.86345(14) 0.67071(13) 0.3044(3)
H15 H 0.8986 0.6984 0.2178
C17 C 0.90953(13) 0.61310(14) 0.4372(3)
H16 H 0.9767 0.6012 0.4423
C18 C 0.85811(12) 0.57267(12) 0.5629(3)
H17 H 0.8906 0.5334 0.6540
O1 O 0.61134(8) 0.58964(8) 0.69864(16)
H18 H 0.5771 0.5833 0.5985
O2 O 0.51818(8) 0.39566(10) 0.62591(18)
O3 O 0.60229(8) 0.38758(9) 0.89741(17)
loop_
_geom_bond_atom_site_label_1
_geom_bond_atom_site_label_2
_geom_bond_site_symmetry_1
_geom_bond_site_symmetry_2
C1 C2 1_555 1_555
C2 H1 1_555 1_555
H2 C2 1_555 1_555
C3 C2 1_555 1_555
C4 C3 1_555 1_555
H3 C4 1_555 1_555
C5 C4 1_555 1_555
H4 C5 1_555 1_555
C6 C5 1_555 1_555
H5 C6 1_555 1_555
C7 C6 1_555 1_555
H6 C7 1_555 1_555
C8 C3 1_555 1_555
C9 C1 1_555 1_555
C10 C9 1_555 1_555
H7 C10 1_555 1_555
H8 C10 1_555 1_555
H9 C10 1_555 1_555
C11 C9 1_555 1_555
C12 H10 1_555 1_555
H11 C12 1_555 1_555
H12 C12 1_555 1_555
C13 C1 1_555 1_555
C14 C13 1_555 1_555
H13 C14 1_555 1_555
C15 C14 1_555 1_555
H14 C15 1_555 1_555
C16 C15 1_555 1_555
H15 C16 1_555 1_555
C17 C16 1_555 1_555
H16 C17 1_555 1_555
C18 C13 1_555 1_555
H17 C18 1_555 1_555
O1 C1 1_555 1_555
H18 O1 1_555 1_555
O2 C11 1_555 1_555
O3 C11 1_555 1_555
C7 C8 1_555 1_555
C8 C9 1_555 1_555
C12 O3 1_555 1_555
C17 C18 1_555 1_555

#END
