
#######################################################################
#
#                 Cambridge Crystallographic Data Centre
#                                CCDC 
#
#######################################################################
#
# If this CIF has been generated from an entry in the Cambridge 
# Structural Database, then it will include bibliographic, chemical, 
# crystal, experimental, refinement or atomic coordinate data resulting 
# from the CCDC's data processing and validation procedures.
#
#######################################################################

data_ROBHAT01
_chemical_name_common            Tioconazole
_chemical_formula_moiety         'C16 H13 Cl3 N2 O1 S1'
_chemical_name_systematic        
1-(2-((2-chloro-3-thienyl)methoxy)-2-(2,4-dichlorophenyl)ethyl)-1H-imidazole
_symmetry_cell_setting           monoclinic
_symmetry_space_group_name_H-M   'P 21/c'
_symmetry_Int_Tables_number      14
_space_group_name_Hall           '-P 2ybc'
loop_
_symmetry_equiv_pos_site_id
_symmetry_equiv_pos_as_xyz
1 x,y,z
2 -x,1/2+y,1/2-z
3 -x,-y,-z
4 x,1/2-y,1/2+z
_cell_length_a                   10.0547(4)
_cell_length_b                   9.8289(3)
_cell_length_c                   16.6993(7)
_cell_angle_alpha                90
_cell_angle_beta                 90.659(2)
_cell_angle_gamma                90
_cell_volume                     1650.23
_exptl_crystal_colour            yellow
_exptl_crystal_description       block
_cell_formula_units_Z            4
loop_
_atom_site_label
_atom_site_type_symbol
_atom_site_fract_x
_atom_site_fract_y
_atom_site_fract_z
Cl1 Cl 0.87282(5) 0.19246(5) 0.30820(3)
Cl2 Cl 0.97874(6) 0.68441(6) -0.12387(3)
Cl3 Cl 0.86205(6) 0.96818(5) 0.14029(3)
S1 S 0.72304(5) 0.26430(5) 0.45475(3)
O1 O 0.68784(13) 0.58193(13) 0.23241(8)
N1 N 0.53654(16) 0.81119(17) 0.27763(9)
N2 N 0.42189(18) 0.7802(2) 0.38851(11)
C1 C 0.78390(18) 0.31059(19) 0.36263(11)
C2 C 0.75549(18) 0.44084(19) 0.34141(11)
C3 C 0.6799(2) 0.5052(2) 0.40282(12)
H1 H 0.6498 0.5966 0.3994
C4 C 0.6553(2) 0.4234(2) 0.46625(12)
H2 H 0.6063 0.4509 0.5118
C5 C 0.7990(2) 0.5110(2) 0.26657(12)
H3 H 0.8715 0.5760 0.2792
H4 H 0.8329 0.4434 0.2279
C6 C 0.71839(19) 0.71233(19) 0.20043(11)
H5 H 0.7801 0.7605 0.2383
C7 C 0.78285(18) 0.70491(19) 0.11842(11)
C8 C 0.77909(19) 0.5862(2) 0.07333(11)
H6 H 0.7340 0.5087 0.0935
C9 C 0.8402(2) 0.5786(2) -0.00078(11)
H7 H 0.8379 0.4964 -0.0307
C10 C 0.90406(19) 0.69161(19) -0.03040(11)
C11 C 0.91014(19) 0.81180(19) 0.01263(11)
H8 H 0.9547 0.8892 -0.0080
C12 C 0.84976(19) 0.81607(19) 0.08639(11)
C13 C 0.5862(2) 0.7891(2) 0.19690(11)
H9 H 0.5989 0.8778 0.1699
H10 H 0.5204 0.7359 0.1654
C14 C 0.5953(2) 0.8908(2) 0.33562(13)
H11 H 0.6706 0.9483 0.3299
C15 C 0.5234(2) 0.8701(2) 0.40281(13)
H12 H 0.5411 0.9122 0.4530
C16 C 0.4338(2) 0.7473(2) 0.31294(12)
H13 H 0.3764 0.6853 0.2859
loop_
_geom_bond_atom_site_label_1
_geom_bond_atom_site_label_2
_geom_bond_site_symmetry_1
_geom_bond_site_symmetry_2
Cl1 C1 1_555 1_555
Cl2 C10 1_555 1_555
Cl3 C12 1_555 1_555
S1 C1 1_555 1_555
O1 C5 1_555 1_555
N1 C13 1_555 1_555
N2 C15 1_555 1_555
C1 C2 1_555 1_555
C2 C3 1_555 1_555
C3 H1 1_555 1_555
C4 S1 1_555 1_555
H2 C4 1_555 1_555
C5 C2 1_555 1_555
H3 C5 1_555 1_555
H4 C5 1_555 1_555
C6 O1 1_555 1_555
H5 C6 1_555 1_555
C7 C6 1_555 1_555
C8 C7 1_555 1_555
H6 C8 1_555 1_555
C9 C8 1_555 1_555
H7 C9 1_555 1_555
C10 C9 1_555 1_555
C11 C10 1_555 1_555
H8 C11 1_555 1_555
C12 C7 1_555 1_555
C13 C6 1_555 1_555
H9 C13 1_555 1_555
H10 C13 1_555 1_555
C14 N1 1_555 1_555
H11 C14 1_555 1_555
C15 C14 1_555 1_555
H12 C15 1_555 1_555
C16 N1 1_555 1_555
H13 C16 1_555 1_555
N2 C16 1_555 1_555
C3 C4 1_555 1_555
C11 C12 1_555 1_555

#END
