
#######################################################################
#
#                 Cambridge Crystallographic Data Centre
#                                CCDC 
#
#######################################################################
#
# If this CIF has been generated from an entry in the Cambridge 
# Structural Database, then it will include bibliographic, chemical, 
# crystal, experimental, refinement or atomic coordinate data resulting 
# from the CCDC's data processing and validation procedures.
#
#######################################################################

data_ROCQIL
_chemical_formula_moiety         'C21 H17 N1 O4'
_chemical_name_systematic        
't-butyl 6,11-dioxo-6,11-dihydrobenzo[f]pyrido[1,2-a]indole-12-carboxylate'
_symmetry_cell_setting           monoclinic
_symmetry_space_group_name_H-M   'P 21/n'
_symmetry_Int_Tables_number      14
_space_group_name_Hall           '-P 2yn'
loop_
_symmetry_equiv_pos_site_id
_symmetry_equiv_pos_as_xyz
1 x,y,z
2 1/2-x,1/2+y,1/2-z
3 -x,-y,-z
4 1/2+x,1/2-y,1/2+z
_cell_length_a                   10.976(4)
_cell_length_b                   9.914(4)
_cell_length_c                   15.781(6)
_cell_angle_alpha                90
_cell_angle_beta                 103.620(5)
_cell_angle_gamma                90
_cell_volume                     1668.94
_exptl_crystal_colour            red
_exptl_crystal_description       block
_cell_formula_units_Z            4
loop_
_atom_site_label
_atom_site_type_symbol
_atom_site_fract_x
_atom_site_fract_y
_atom_site_fract_z
N1 N 0.7764(2) -0.0247(3) 0.09762(17)
O1 O 0.7623(3) 0.1795(3) -0.03724(17)
O2 O 0.4702(2) -0.0875(3) 0.24548(15)
C1 C 0.6792(3) 0.0656(3) 0.0674(2)
C2 C 0.5932(3) 0.0516(3) 0.11810(19)
C3 C 0.6770(3) 0.1642(3) 0.0003(2)
C4 C 0.5615(3) 0.2483(3) -0.0206(2)
C5 C 0.4798(3) 0.1369(3) 0.0984(2)
O3 O 0.3989(3) 0.1319(3) 0.13890(18)
O4 O 0.6602(3) -0.1510(4) 0.31862(19)
C6 C 0.7533(3) -0.0914(3) 0.1698(2)
C7 C 0.3611(4) 0.3126(4) 0.0021(2)
H1 H 0.2981 0.3031 0.0321
C8 C 0.4688(3) 0.2328(3) 0.0247(2)
C9 C 0.6394(3) -0.0464(3) 0.18338(19)
C10 C 0.4411(5) 0.4194(4) -0.1085(3)
H2 H 0.4319 0.4819 -0.1536
C11 C 0.9428(4) -0.2149(4) 0.1785(3)
H3 H 1.0012 -0.2785 0.2058
C12 C 0.5916(3) -0.1010(4) 0.2556(2)
C13 C 0.3478(4) 0.4053(4) -0.0645(3)
H4 H 0.2760 0.4582 -0.0795
C14 C 0.5474(4) 0.3426(4) -0.0868(2)
H5 H 0.6103 0.3537 -0.1167
C15 C 0.4035(3) -0.1339(4) 0.3110(2)
C16 C 0.8782(3) -0.0544(4) 0.0645(2)
H6 H 0.8898 -0.0103 0.0150
C17 C 0.8425(3) -0.1883(4) 0.2104(2)
H7 H 0.8316 -0.2340 0.2595
C18 C 0.9604(4) -0.1474(4) 0.1040(3)
H8 H 1.0298 -0.1675 0.0820
C19 C 0.4479(6) -0.0595(6) 0.3933(3)
H9 H 0.4340 0.0353 0.3829
H10 H 0.5358 -0.0759 0.4155
H11 H 0.4028 -0.0895 0.4351
C20 C 0.2691(5) -0.1065(7) 0.2664(4)
H12 H 0.2574 -0.0113 0.2564
H13 H 0.2157 -0.1374 0.3025
H14 H 0.2484 -0.1532 0.2116
C21 C 0.4239(5) -0.2826(5) 0.3270(4)
H15 H 0.5100 -0.2987 0.3558
H16 H 0.4042 -0.3298 0.2724
H17 H 0.3707 -0.3143 0.3632
loop_
_geom_bond_atom_site_label_1
_geom_bond_atom_site_label_2
_geom_bond_site_symmetry_1
_geom_bond_site_symmetry_2
N1 C1 1_555 1_555
O1 C3 1_555 1_555
O2 C12 1_555 1_555
C1 C2 1_555 1_555
C2 C5 1_555 1_555
C3 C1 1_555 1_555
C4 C3 1_555 1_555
C5 O3 1_555 1_555
O4 C12 1_555 1_555
C6 N1 1_555 1_555
C7 H1 1_555 1_555
C8 C4 1_555 1_555
C9 C2 1_555 1_555
C10 H2 1_555 1_555
C11 H3 1_555 1_555
C12 C9 1_555 1_555
C13 C7 1_555 1_555
H4 C13 1_555 1_555
C14 C4 1_555 1_555
H5 C14 1_555 1_555
C15 O2 1_555 1_555
C16 N1 1_555 1_555
H6 C16 1_555 1_555
C17 C6 1_555 1_555
H7 C17 1_555 1_555
C18 C11 1_555 1_555
H8 C18 1_555 1_555
C19 C15 1_555 1_555
H9 C19 1_555 1_555
H10 C19 1_555 1_555
H11 C19 1_555 1_555
C20 C15 1_555 1_555
H12 C20 1_555 1_555
H13 C20 1_555 1_555
H14 C20 1_555 1_555
C21 C15 1_555 1_555
H15 C21 1_555 1_555
H16 C21 1_555 1_555
H17 C21 1_555 1_555
C5 C8 1_555 1_555
C6 C9 1_555 1_555
C7 C8 1_555 1_555
C10 C13 1_555 1_555
C10 C14 1_555 1_555
C11 C17 1_555 1_555
C16 C18 1_555 1_555

#END
