
#######################################################################
#
#                 Cambridge Crystallographic Data Centre
#                                CCDC 
#
#######################################################################
#
# If this CIF has been generated from an entry in the Cambridge 
# Structural Database, then it will include bibliographic, chemical, 
# crystal, experimental, refinement or atomic coordinate data resulting 
# from the CCDC's data processing and validation procedures.
#
#######################################################################

data_RODDIY
_chemical_formula_moiety         'C25 H34 N1 O6 1+,I1 1-,C6 H6,H2 O1'
_chemical_name_systematic        
'4-((E)-2-(2,3,5,6,8,9,11,12,14,15-Decahydrobenzo-1,4,7,10,13,16-hexaoxacyclooctadecin-18-yl)ethenyl)-1-ethylpyridinium iodide benzene solvate monohydrate'
_symmetry_cell_setting           monoclinic
_symmetry_space_group_name_H-M   'P 21/n'
_symmetry_Int_Tables_number      14
_space_group_name_Hall           '-P 2yn'
loop_
_symmetry_equiv_pos_site_id
_symmetry_equiv_pos_as_xyz
1 x,y,z
2 1/2-x,1/2+y,1/2-z
3 -x,-y,-z
4 1/2+x,1/2-y,1/2+z
_cell_length_a                   10.0116(19)
_cell_length_b                   8.0191(16)
_cell_length_c                   38.651(8)
_cell_angle_alpha                90
_cell_angle_beta                 90.657(9)
_cell_angle_gamma                90
_cell_volume                     3102.85
_exptl_crystal_colour            yellow
_exptl_crystal_description       block
_cell_formula_units_Z            4
_chemical_properties_physical    light-sensitive
_exptl_crystal_recrystallization_method benzene/acetonitrile
loop_
_atom_site_label
_atom_site_type_symbol
_atom_site_fract_x
_atom_site_fract_y
_atom_site_fract_z
I1 I 0.83069(16) 0.8658(2) 0.94194(5)
O1 O 0.1768(15) 0.4372(19) 0.9205(3)
O2 O -0.0019(16) 0.3991(15) 0.8619(4)
O3 O 0.1375(17) 0.418(2) 0.7969(4)
O4 O 0.366(2) 0.616(3) 0.7898(4)
O5 O 0.5502(15) 0.5797(17) 0.8506(3)
O6 O 0.4309(13) 0.4951(16) 0.9151(3)
N1 N 0.7325(17) 1.149(2) 1.1075(5)
C1 C 0.806(2) 1.091(2) 1.0830(5)
H1 H 0.8993 1.1129 1.0833
C2 C 0.7513(17) 0.997(2) 1.0561(5)
H2 H 0.8050 0.9702 1.0368
C3 C 0.6183(19) 0.940(2) 1.0569(5)
C4 C 0.545(2) 0.997(3) 1.0839(5)
H3 H 0.4538 0.9664 1.0853
C5 C 0.5995(19) 1.100(2) 1.1096(5)
H4 H 0.5462 1.1357 1.1284
C6 C 0.560(2) 0.832(2) 1.0296(5)
H5 H 0.6189 0.7819 1.0135
C7 C 0.432(2) 0.801(2) 1.0262(5)
H6 H 0.3753 0.8453 1.0435
C8 C 0.367(3) 0.702(3) 0.9977(5)
C9 C 0.229(2) 0.676(2) 1.0010(5)
H7 H 0.1800 0.7215 1.0197
C10 C 0.167(2) 0.578(2) 0.9753(5)
H8 H 0.0751 0.5522 0.9779
C11 C 0.2316(19) 0.516(2) 0.9466(5)
C12 C 0.3731(19) 0.552(2) 0.9437(5)
C13 C 0.439(2) 0.647(2) 0.9699(5)
H9 H 0.5318 0.6712 0.9683
C14 C 0.038(2) 0.395(3) 0.9214(6)
H10 H 0.0202 0.3322 0.9430
H11 H -0.0153 0.4989 0.9221
C15 C -0.004(2) 0.298(3) 0.8928(7)
H12 H -0.0962 0.2567 0.8966
H13 H 0.0553 0.2010 0.8901
C16 C -0.040(2) 0.314(3) 0.8313(5)
H14 H -0.1369 0.2899 0.8317
H15 H 0.0085 0.2065 0.8300
C17 C -0.010(3) 0.413(3) 0.8017(7)
H16 H -0.0441 0.5280 0.8050
H17 H -0.0536 0.3653 0.7809
C18 C 0.175(3) 0.487(4) 0.7650(6)
H18 H 0.1336 0.5978 0.7617
H19 H 0.1468 0.4135 0.7457
C19 C 0.329(3) 0.502(4) 0.7665(8)
H20 H 0.3686 0.3927 0.7726
H21 H 0.3623 0.5346 0.7434
C20 C 0.506(3) 0.636(5) 0.7904(7)
H22 H 0.5254 0.7552 0.7952
H23 H 0.5400 0.6106 0.7671
C21 C 0.577(3) 0.536(3) 0.8154(5)
H24 H 0.5529 0.4174 0.8117
H25 H 0.6740 0.5473 0.8113
C22 C 0.615(2) 0.475(3) 0.8761(5)
H26 H 0.7128 0.4835 0.8741
H27 H 0.5883 0.3573 0.8726
C23 C 0.5716(18) 0.534(3) 0.9112(5)
H28 H 0.6247 0.4767 0.9294
H29 H 0.5861 0.6552 0.9134
C24 C 0.788(3) 1.259(3) 1.1362(6)
H30 H 0.7184 1.3363 1.1446
H31 H 0.8645 1.3254 1.1279
C25 C 0.835(3) 1.135(4) 1.1664(6)
H32 H 0.8742 1.2000 1.1855
H33 H 0.9017 1.0576 1.1575
H34 H 0.7578 1.0727 1.1748
O7 O 0.3135(18) 0.272(2) 0.8526(5)
H35 H 0.220(12) 0.26(5) 0.847(9)
H36 H 0.324(19) 0.376(16) 0.864(4)
C26 C 0.705(3) 0.949(4) 0.8447(9)
H37 H 0.6933 0.9247 0.8686
C27 C 0.811(4) 0.883(5) 0.8265(7)
H38 H 0.8774 0.8179 0.8382
C28 C 0.820(3) 0.911(3) 0.7913(5)
H39 H 0.8899 0.8591 0.7786
C29 C 0.729(4) 1.013(5) 0.7741(12)
H40 H 0.7421 1.0364 0.7502
C30 C 0.620(5) 1.082(6) 0.7909(9)
H41 H 0.5524 1.1441 0.7789
C31 C 0.616(3) 1.054(4) 0.8265(8)
H42 H 0.5492 1.1099 0.8394
loop_
_geom_bond_atom_site_label_1
_geom_bond_atom_site_label_2
_geom_bond_site_symmetry_1
_geom_bond_site_symmetry_2
O1 C11 1_555 1_555
O2 C15 1_555 1_555
O3 C17 1_555 1_555
O4 C19 1_555 1_555
O5 C21 1_555 1_555
O6 C12 1_555 1_555
N1 C1 1_555 1_555
C1 H1 1_555 1_555
C2 C1 1_555 1_555
H2 C2 1_555 1_555
C3 C2 1_555 1_555
C4 C3 1_555 1_555
H3 C4 1_555 1_555
C5 N1 1_555 1_555
H4 C5 1_555 1_555
C6 C3 1_555 1_555
H5 C6 1_555 1_555
C7 C6 1_555 1_555
H6 C7 1_555 1_555
C8 C7 1_555 1_555
C9 C8 1_555 1_555
H7 C9 1_555 1_555
C10 C9 1_555 1_555
H8 C10 1_555 1_555
C11 C10 1_555 1_555
C12 C11 1_555 1_555
C13 C8 1_555 1_555
H9 C13 1_555 1_555
C14 O1 1_555 1_555
H10 C14 1_555 1_555
H11 C14 1_555 1_555
C15 C14 1_555 1_555
H12 C15 1_555 1_555
H13 C15 1_555 1_555
C16 O2 1_555 1_555
H14 C16 1_555 1_555
H15 C16 1_555 1_555
C17 C16 1_555 1_555
H16 C17 1_555 1_555
H17 C17 1_555 1_555
C18 O3 1_555 1_555
H18 C18 1_555 1_555
H19 C18 1_555 1_555
C19 C18 1_555 1_555
H20 C19 1_555 1_555
H21 C19 1_555 1_555
C20 O4 1_555 1_555
H22 C20 1_555 1_555
H23 C20 1_555 1_555
C21 C20 1_555 1_555
H24 C21 1_555 1_555
H25 C21 1_555 1_555
C22 O5 1_555 1_555
H26 C22 1_555 1_555
H27 C22 1_555 1_555
C23 O6 1_555 1_555
H28 C23 1_555 1_555
H29 C23 1_555 1_555
C24 N1 1_555 1_555
H30 C24 1_555 1_555
H31 C24 1_555 1_555
C25 C24 1_555 1_555
H32 C25 1_555 1_555
H33 C25 1_555 1_555
H34 C25 1_555 1_555
O7 H35 1_555 1_555
H36 O7 1_555 1_555
C26 H37 1_555 1_555
C27 C26 1_555 1_555
H38 C27 1_555 1_555
C28 C27 1_555 1_555
H39 C28 1_555 1_555
C29 C28 1_555 1_555
H40 C29 1_555 1_555
C30 C29 1_555 1_555
H41 C30 1_555 1_555
C31 C26 1_555 1_555
H42 C31 1_555 1_555
C4 C5 1_555 1_555
C12 C13 1_555 1_555
C22 C23 1_555 1_555
C30 C31 1_555 1_555

#END
