
#######################################################################
#
#                 Cambridge Crystallographic Data Centre
#                                CCDC 
#
#######################################################################
#
# If this CIF has been generated from an entry in the Cambridge 
# Structural Database, then it will include bibliographic, chemical, 
# crystal, experimental, refinement or atomic coordinate data resulting 
# from the CCDC's data processing and validation procedures.
#
#######################################################################

data_RODGEX
_chemical_formula_moiety         'C16 H18 N1 S1 1+,Cl1 O4 1-'
_chemical_name_systematic        
'4-((E)-2-(4-(Methylsulfanyl)phenyl)ethenyl)-1-ethylpyridinium perchlorate'
_symmetry_cell_setting           monoclinic
_symmetry_space_group_name_H-M   'P 21/n'
_symmetry_Int_Tables_number      14
_space_group_name_Hall           '-P 2yn'
loop_
_symmetry_equiv_pos_site_id
_symmetry_equiv_pos_as_xyz
1 x,y,z
2 1/2-x,1/2+y,1/2-z
3 -x,-y,-z
4 1/2+x,1/2-y,1/2+z
_cell_length_a                   7.9144(3)
_cell_length_b                   11.1005(4)
_cell_length_c                   19.0056(7)
_cell_angle_alpha                90
_cell_angle_beta                 96.345(2)
_cell_angle_gamma                90
_cell_volume                     1659.49
_exptl_crystal_colour            yellow
_exptl_crystal_description       block
_chemical_melting_point          193-195deg.C
_cell_formula_units_Z            4
_chemical_properties_physical    light-sensitive
_exptl_crystal_recrystallization_method 'ethyl acetate/acetonitrile'
loop_
_atom_site_label
_atom_site_type_symbol
_atom_site_fract_x
_atom_site_fract_y
_atom_site_fract_z
Cl1 Cl 0.38715(8) 0.16908(5) 0.13073(3)
O1 O 0.3036(4) 0.1083(2) 0.18202(15)
O2 O 0.4128(4) 0.0903(2) 0.07415(14)
O3 O 0.2916(4) 0.2719(2) 0.10809(13)
O4 O 0.5475(3) 0.2091(3) 0.16198(19)
S1 S -0.07725(8) 0.88776(6) 0.17399(3)
N1 N 0.5324(2) 0.25929(18) -0.17673(10)
C1 C 0.4865(17) 0.1992(7) -0.1168(7)
H1 H 0.5045 0.1152 -0.1101
C2 C 0.4151(10) 0.2674(8) -0.0691(4)
H2 H 0.3871 0.2310 -0.0267
C3 C 0.3811(7) 0.3903(9) -0.0804(4)
C4 C 0.4350(12) 0.4393(8) -0.1415(5)
H3 H 0.4214 0.5232 -0.1503
C5 C 0.506(2) 0.3703(16) -0.1879(8)
H4 H 0.5361 0.4055 -0.2303
C6 C 0.2965(6) 0.4588(5) -0.0287(2)
H5 H 0.2577 0.4157 0.0096
C7 C 0.2695(7) 0.5785(6) -0.0314(3)
H6 H 0.3085 0.6204 -0.0701
C8 C 0.1869(10) 0.6499(8) 0.0188(4)
C9 C 0.1739(11) 0.7749(8) 0.0093(5)
H7 H 0.2196 0.8103 -0.0300
C10 C 0.0974(14) 0.8481(9) 0.0549(7)
H8 H 0.0944 0.9328 0.0476
C11 C 0.047(2) 0.6760(16) 0.1234(5)
H9 H 0.0124 0.6391 0.1645
C12 C 0.1211(12) 0.6041(8) 0.0778(5)
H10 H 0.1278 0.5199 0.0866
C25 C 0.0197(3) 0.7952(2) 0.11537(13)
C26 C -0.1304(4) 1.0192(3) 0.12124(18)
C27 C 0.5993(3) 0.1751(3) -0.22714(15)
C28 C 0.4606(5) 0.1367(4) -0.2824(2)
H21 H -0.198(4) 1.066(3) 0.1504(17)
H22 H -0.188(3) 1.003(3) 0.0771(15)
H23 H -0.028(4) 1.065(3) 0.1122(16)
H24 H 0.662(4) 0.118(3) -0.1974(16)
H25 H 0.702(4) 0.215(3) -0.2465(14)
H26 H 0.506(5) 0.086(4) -0.316(2)
H27 H 0.407(5) 0.201(4) -0.309(2)
H28 H 0.385(5) 0.091(3) -0.2624(19)
C13? C 0.4672(17) 0.2395(8) -0.1169(8)
H11? H 0.4726 0.1592 -0.0996
C14? C 0.3924(8) 0.3233(10) -0.0771(4)
H12? H 0.3449 0.2996 -0.0354
C15? C 0.3869(7) 0.4440(8) -0.0987(4)
C16? C 0.4564(12) 0.4718(7) -0.1597(5)
H13? H 0.4531 0.5530 -0.1757
C17? C 0.533(2) 0.3835(16) -0.1995(9)
H14? H 0.5835 0.4056 -0.2407
C18? C 0.3100(7) 0.5409(5) -0.0610(3)
H15? H 0.3128 0.6202 -0.0797
C19? C 0.2363(6) 0.5251(6) -0.0022(3)
H16? H 0.2349 0.4453 0.0158
C20? C 0.1574(11) 0.6180(8) 0.0375(5)
C21? C 0.1214(15) 0.7329(9) 0.0106(5)
H17? H 0.1490 0.7534 -0.0353
C22? C 0.0466(18) 0.8161(12) 0.0499(8)
H18? H 0.0130 0.8913 0.0290
C23? C 0.040(2) 0.6744(13) 0.1448(6)
H19? H 0.0036 0.6546 0.1893
C24? C 0.1154(16) 0.5894(11) 0.1045(5)
H20? H 0.1385 0.5109 0.1231
loop_
_geom_bond_atom_site_label_1
_geom_bond_atom_site_label_2
_geom_bond_site_symmetry_1
_geom_bond_site_symmetry_2
Cl1 O1 1_555 1_555
O2 Cl1 1_555 1_555
O3 Cl1 1_555 1_555
O4 Cl1 1_555 1_555
S1 C25 1_555 1_555
N1 C1 1_555 1_555
C1 H1 1_555 1_555
C2 C1 1_555 1_555
H2 C2 1_555 1_555
C3 C2 1_555 1_555
C4 C3 1_555 1_555
H3 C4 1_555 1_555
C5 N1 1_555 1_555
H4 C5 1_555 1_555
C6 C3 1_555 1_555
H5 C6 1_555 1_555
C7 C6 1_555 1_555
H6 C7 1_555 1_555
C8 C7 1_555 1_555
C9 C8 1_555 1_555
H7 C9 1_555 1_555
C10 C9 1_555 1_555
H8 C10 1_555 1_555
C11 H9 1_555 1_555
C12 C8 1_555 1_555
H10 C12 1_555 1_555
C25 C10 1_555 1_555
C26 S1 1_555 1_555
C27 N1 1_555 1_555
C28 C27 1_555 1_555
H21 C26 1_555 1_555
H22 C26 1_555 1_555
H23 C26 1_555 1_555
H24 C27 1_555 1_555
H25 C27 1_555 1_555
H26 C28 1_555 1_555
H27 C28 1_555 1_555
H28 C28 1_555 1_555
C4 C5 1_555 1_555
C11 C12 1_555 1_555
C11 C25 1_555 1_555

#END
