
#######################################################################
#
#                 Cambridge Crystallographic Data Centre
#                                CCDC 
#
#######################################################################
#
# If this CIF has been generated from an entry in the Cambridge 
# Structural Database, then it will include bibliographic, chemical, 
# crystal, experimental, refinement or atomic coordinate data resulting 
# from the CCDC's data processing and validation procedures.
#
#######################################################################

data_RODQOS
_chemical_formula_moiety         'C27 H24 Cl2 N4'
_chemical_name_systematic        
"3-chloro-5-((3'-chloro-3,5-dimethyl-1H,5'H-2,2'-bipyrrol-5'-ylidene)(phenyl)methyl)-3',5'-dimethyl-1H,1'H-2,2'-bipyrrole unknown solvate"
_symmetry_cell_setting           orthorhombic
_symmetry_space_group_name_H-M   'A b a 2'
_symmetry_Int_Tables_number      41
_space_group_name_Hall           'A 2 -2ab'
loop_
_symmetry_equiv_pos_site_id
_symmetry_equiv_pos_as_xyz
1 x,y,z
2 -x,-y,z
3 1/2+x,1/2-y,z
4 1/2-x,1/2+y,z
5 x,1/2+y,1/2+z
6 -x,1/2-y,1/2+z
7 1/2+x,-y,1/2+z
8 1/2-x,y,1/2+z
_cell_length_a                   26.511(2)
_cell_length_b                   27.724(2)
_cell_length_c                   7.4876(7)
_cell_angle_alpha                90
_cell_angle_beta                 90
_cell_angle_gamma                90
_cell_volume                     5503.32
_exptl_crystal_colour            'dark blue'
_exptl_crystal_description       block
_cell_formula_units_Z            8
loop_
_atom_site_label
_atom_site_type_symbol
_atom_site_fract_x
_atom_site_fract_y
_atom_site_fract_z
C1 C 1.04565(9) 0.26720(10) 0.7722(4)
Cl1 Cl 0.69091(2) 0.20073(2) 0.71422(11)
H1 H 0.9871(10) 0.2446(8) 0.602(4)
N1 N 1.01016(7) 0.23729(8) 0.7003(3)
C2 C 1.07597(9) 0.23913(11) 0.8754(4)
H2 H 1.1033 0.2502 0.9415
Cl2 Cl 1.05552(3) 0.08329(3) 0.58634(16)
N2 N 0.93437(6) 0.15668(6) 0.6956(3)
C3 C 1.05956(9) 0.19059(11) 0.8670(4)
N3 N 0.83845(6) 0.19051(6) 0.7113(3)
H3 H 0.8687 0.2004 0.7301
C4 C 1.01875(8) 0.19039(9) 0.7552(3)
H4 H 0.7255(10) 0.2794(9) 0.816(4)
N4 N 0.75355(9) 0.29015(8) 0.8419(4)
C5 C 1.04653(10) 0.31967(11) 0.7271(5)
H5 H 1.0747 0.3347 0.7850
H6 H 1.0158 0.3345 0.7672
H7 H 1.0496 0.3235 0.6002
C6 C 1.08060(12) 0.14877(11) 0.9682(5)
H8 H 1.0539 0.1268 0.9977
H9 H 1.0962 0.1601 1.0760
H10 H 1.1052 0.1325 0.8961
C7 C 0.98550(8) 0.15166(9) 0.6956(4)
C8 C 0.99644(9) 0.10613(9) 0.6264(4)
C9 C 0.95133(9) 0.08304(9) 0.5880(5)
H11 H 0.9476 0.0519 0.5434
C10 C 0.91260(8) 0.11509(8) 0.6284(4)
C11 C 0.85938(9) 0.10996(8) 0.6043(4)
C12 C 0.82542(8) 0.14606(8) 0.6456(4)
C13 C 0.77123(8) 0.14318(9) 0.6330(4)
H12 H 0.7523 0.1172 0.5922
C14 C 0.75360(8) 0.18569(8) 0.6923(4)
C15 C 0.79674(8) 0.21583(8) 0.7411(3)
C16 C 0.79721(8) 0.26323(8) 0.8140(3)
C17 C 0.83640(9) 0.29075(9) 0.8829(3)
C18 C 0.81548(10) 0.33373(9) 0.9471(4)
H13 H 0.8334 0.3589 0.9990
C19 C 0.76423(10) 0.33262(9) 0.9208(4)
C20 C 0.89096(9) 0.27692(10) 0.8942(4)
H14 H 0.8942 0.2474 0.9604
H15 H 0.9094 0.3020 0.9534
H16 H 0.9042 0.2724 0.7760
C21 C 0.72332(11) 0.36791(11) 0.9655(6)
H17 H 0.7041 0.3749 0.8600
H18 H 0.7381 0.3971 1.0103
H19 H 0.7016 0.3543 1.0548
C22 C 0.84138(10) 0.06351(9) 0.5284(5)
C23 C 0.84511(12) 0.02101(10) 0.6245(7)
H20 H 0.8594 0.0210 0.7379
C24 C 0.82700(19) -0.02221(13) 0.5491(9)
H21 H 0.8286 -0.0508 0.6135
C25 C 0.80702(19) -0.02185(17) 0.3811(11)
H22 H 0.7967 -0.0506 0.3284
C26 C 0.8023(2) 0.01972(17) 0.2921(10)
H23 H 0.7869 0.0199 0.1804
C27 C 0.81977(17) 0.06200(13) 0.3639(7)
H24 H 0.8168 0.0904 0.2984
loop_
_geom_bond_atom_site_label_1
_geom_bond_atom_site_label_2
_geom_bond_site_symmetry_1
_geom_bond_site_symmetry_2
C1 N1 1_555 1_555
Cl1 C14 1_555 1_555
H1 N1 1_555 1_555
N1 C4 1_555 1_555
C2 C1 1_555 1_555
H2 C2 1_555 1_555
Cl2 C8 1_555 1_555
N2 C7 1_555 1_555
C3 C2 1_555 1_555
N3 H3 1_555 1_555
C4 C3 1_555 1_555
H4 N4 1_555 1_555
N4 C16 1_555 1_555
C5 C1 1_555 1_555
H5 C5 1_555 1_555
H6 C5 1_555 1_555
H7 C5 1_555 1_555
C6 C3 1_555 1_555
H8 C6 1_555 1_555
H9 C6 1_555 1_555
H10 C6 1_555 1_555
C7 C4 1_555 1_555
C8 C7 1_555 1_555
C9 C8 1_555 1_555
H11 C9 1_555 1_555
C10 N2 1_555 1_555
C11 C10 1_555 1_555
C12 N3 1_555 1_555
C13 C12 1_555 1_555
H12 C13 1_555 1_555
C14 C13 1_555 1_555
C15 N3 1_555 1_555
C16 C15 1_555 1_555
C17 C16 1_555 1_555
C18 C17 1_555 1_555
H13 C18 1_555 1_555
C19 N4 1_555 1_555
C20 C17 1_555 1_555
H14 C20 1_555 1_555
H15 C20 1_555 1_555
H16 C20 1_555 1_555
C21 C19 1_555 1_555
H17 C21 1_555 1_555
H18 C21 1_555 1_555
H19 C21 1_555 1_555
C22 C11 1_555 1_555
C23 C22 1_555 1_555
H20 C23 1_555 1_555
C24 C23 1_555 1_555
H21 C24 1_555 1_555
C25 C24 1_555 1_555
H22 C25 1_555 1_555
C26 C25 1_555 1_555
H23 C26 1_555 1_555
C27 C22 1_555 1_555
H24 C27 1_555 1_555
C9 C10 1_555 1_555
C11 C12 1_555 1_555
C14 C15 1_555 1_555
C18 C19 1_555 1_555
C26 C27 1_555 1_555

#END
