
#######################################################################
#
#                 Cambridge Crystallographic Data Centre
#                                CCDC 
#
#######################################################################
#
# If this CIF has been generated from an entry in the Cambridge 
# Structural Database, then it will include bibliographic, chemical, 
# crystal, experimental, refinement or atomic coordinate data resulting 
# from the CCDC's data processing and validation procedures.
#
#######################################################################

data_ROFBOD
_chemical_formula_moiety         'C8 H22 B4 Si2'
_chemical_name_systematic        
closo-1,2-bis(Trimethylsilyl)-1,2-dicarbahexaborane
_symmetry_cell_setting           monoclinic
_symmetry_space_group_name_H-M   'P 21/c'
_symmetry_Int_Tables_number      14
_space_group_name_Hall           '-P 2ybc'
loop_
_symmetry_equiv_pos_site_id
_symmetry_equiv_pos_as_xyz
1 x,y,z
2 -x,1/2+y,1/2-z
3 -x,-y,-z
4 x,1/2-y,1/2+z
_cell_length_a                   9.7460(10)
_cell_length_b                   12.5000(10)
_cell_length_c                   11.9510(10)
_cell_angle_alpha                90
_cell_angle_beta                 91.550(10)
_cell_angle_gamma                90
_cell_volume                     1455.4
_exptl_crystal_colour            colorless
_chemical_melting_point          '278 K'
_cell_formula_units_Z            4
loop_
_atom_site_label
_atom_site_type_symbol
_atom_site_fract_x
_atom_site_fract_y
_atom_site_fract_z
Si1 Si 0.10769(3) 0.47374(2) 0.26148(3)
Si2 Si 0.50386(3) 0.59652(2) 0.21638(2)
C1 C 0.17793(11) 0.59409(9) 0.18927(9)
C2 C 0.32693(11) 0.64057(9) 0.17235(9)
C3 C -0.07837(12) 0.50281(10) 0.27562(11)
H1 H -0.1219(2) 0.5098(8) 0.20109(11)
H2 H -0.08943(12) 0.5697(4) 0.3172(7)
H3 H -0.1218(2) 0.4442(4) 0.3161(8)
C4 C 0.13352(13) 0.35312(10) 0.17274(10)
H4 H 0.0888(8) 0.3641(3) 0.0992(3)
H5 H 0.0934(8) 0.2905(2) 0.2089(4)
H6 H 0.23197(13) 0.3413(4) 0.1635(7)
C5 C 0.19198(13) 0.45890(10) 0.40222(10)
H7 H 0.2900(2) 0.4446(8) 0.39381(10)
H8 H 0.1499(7) 0.3993(5) 0.4420(3)
H9 H 0.1804(8) 0.5250(3) 0.4450(3)
C6 C 0.53674(13) 0.63060(11) 0.36617(10)
H10 H 0.5231(10) 0.7075(2) 0.3771(2)
H11 H 0.6313(3) 0.6115(7) 0.3877(2)
H12 H 0.4730(7) 0.5907(6) 0.41260(12)
C7 C 0.62196(12) 0.67263(10) 0.12563(10)
H13 H 0.6088(7) 0.6493(5) 0.0478(2)
H14 H 0.71717(12) 0.6594(6) 0.1503(5)
H15 H 0.6020(6) 0.74926(11) 0.1311(6)
C8 C 0.52052(12) 0.44967(9) 0.19361(11)
H16 H 0.4991(9) 0.43293(13) 0.1150(2)
H17 H 0.4565(7) 0.41165(10) 0.2414(6)
H18 H 0.6147(3) 0.4272(2) 0.2125(7)
B1 B 0.26579(14) 0.74412(11) 0.10092(11)
B2 B 0.10607(14) 0.69382(11) 0.11821(11)
B3 B 0.21321(13) 0.71368(10) 0.23424(11)
B4 B 0.23067(13) 0.61315(11) 0.06270(10)
H19 H 0.3219(15) 0.8110(13) 0.0666(12)
H20 H -0.0005(14) 0.7089(12) 0.1003(12)
H21 H 0.2115(15) 0.7467(12) 0.3166(12)
H22 H 0.2452(15) 0.5596(12) -0.0060(12)
loop_
_geom_bond_atom_site_label_1
_geom_bond_atom_site_label_2
_geom_bond_site_symmetry_1
_geom_bond_site_symmetry_2
Si1 C1 1_555 1_555
Si2 C2 1_555 1_555
C1 C2 1_555 1_555
C2 B1 1_555 1_555
C3 Si1 1_555 1_555
H1 C3 1_555 1_555
H2 C3 1_555 1_555
H3 C3 1_555 1_555
C4 Si1 1_555 1_555
H4 C4 1_555 1_555
H5 C4 1_555 1_555
H6 C4 1_555 1_555
C5 Si1 1_555 1_555
H7 C5 1_555 1_555
H8 C5 1_555 1_555
H9 C5 1_555 1_555
C6 Si2 1_555 1_555
H10 C6 1_555 1_555
H11 C6 1_555 1_555
H12 C6 1_555 1_555
C7 Si2 1_555 1_555
H13 C7 1_555 1_555
H14 C7 1_555 1_555
H15 C7 1_555 1_555
C8 Si2 1_555 1_555
H16 C8 1_555 1_555
H17 C8 1_555 1_555
H18 C8 1_555 1_555
B1 B2 1_555 1_555
B2 C1 1_555 1_555
B3 C1 1_555 1_555
B4 C1 1_555 1_555
H19 B1 1_555 1_555
H20 B2 1_555 1_555
H21 B3 1_555 1_555
H22 B4 1_555 1_555
C2 B3 1_555 1_555
C2 B4 1_555 1_555
B1 B3 1_555 1_555
B1 B4 1_555 1_555
B2 B3 1_555 1_555
B2 B4 1_555 1_555

#END
