
#######################################################################
#
#                 Cambridge Crystallographic Data Centre
#                                CCDC 
#
#######################################################################
#
# If this CIF has been generated from an entry in the Cambridge 
# Structural Database, then it will include bibliographic, chemical, 
# crystal, experimental, refinement or atomic coordinate data resulting 
# from the CCDC's data processing and validation procedures.
#
#######################################################################

data_ROFKON
_chemical_formula_moiety         'C20 H15 Br1 N4 O1,C2 H6 O1'
_chemical_name_systematic        
'4-(4-Bromophenyl)-3-methyl-6-oxo-1-phenyl-4,5,6,7-tetrahydro-1H-pyrazolo[3,4-b]pyridine-5-carbonitrile ethanol solvate'
_symmetry_cell_setting           monoclinic
_symmetry_space_group_name_H-M   'P 21/c'
_symmetry_Int_Tables_number      14
_space_group_name_Hall           '-P 2ybc'
loop_
_symmetry_equiv_pos_site_id
_symmetry_equiv_pos_as_xyz
1 x,y,z
2 -x,1/2+y,1/2-z
3 -x,-y,-z
4 x,1/2-y,1/2+z
_cell_length_a                   21.871(9)
_cell_length_b                   9.209(4)
_cell_length_c                   10.552(5)
_cell_angle_alpha                90
_cell_angle_beta                 90.370(5)
_cell_angle_gamma                90
_cell_volume                     2125.23
_exptl_crystal_colour            colorless
_exptl_crystal_description       block
_cell_formula_units_Z            4
_exptl_crystal_recrystallization_method ethanol
loop_
_atom_site_label
_atom_site_type_symbol
_atom_site_fract_x
_atom_site_fract_y
_atom_site_fract_z
Br1 Br 0.449857(19) 0.58567(7) 0.18723(5)
O1 O 0.77687(11) 0.8095(2) 0.2363(2)
N1 N 0.77906(13) 0.2474(3) 0.4696(2)
N2 N 0.80852(12) 0.3344(3) 0.3832(2)
N3 N 0.79796(12) 0.5800(3) 0.2978(2)
H1 H 0.8174 0.5606 0.2174
N4 N 0.67632(15) 0.9759(4) 0.4375(3)
C1 C 0.73512(15) 0.3303(4) 0.5195(3)
C2 C 0.73547(14) 0.4703(3) 0.4646(3)
C3 C 0.69597(14) 0.6023(3) 0.4808(3)
H2 H 0.6870 0.6128 0.5712
C4 C 0.73741(14) 0.7328(3) 0.4401(3)
H3 H 0.7688 0.7432 0.5061
C5 C 0.77157(14) 0.7129(4) 0.3138(3)
C6 C 0.78163(14) 0.4672(3) 0.3795(3)
C7 C 0.70350(16) 0.8703(4) 0.4370(3)
C8 C 0.69393(18) 0.2752(4) 0.6197(3)
H4 H 0.6546 0.2537 0.5833
H5 H 0.6895 0.3477 0.6843
H6 H 0.7110 0.1886 0.6561
C9 C 0.63578(14) 0.5971(3) 0.4089(3)
C10 C 0.58214(16) 0.6426(4) 0.4648(3)
H7 H 0.5830 0.6750 0.5482
C11 C 0.52737(17) 0.6412(5) 0.3997(4)
H8 H 0.4918 0.6721 0.4391
C12 C 0.52561(16) 0.5939(4) 0.2764(4)
C13 C 0.57776(16) 0.5502(4) 0.2179(3)
H9 H 0.5765 0.5189 0.1341
C14 C 0.63241(16) 0.5528(4) 0.2835(3)
H10 H 0.6680 0.5240 0.2427
C15 C 0.85626(15) 0.2756(4) 0.3081(3)
C16 C 0.84675(18) 0.1459(4) 0.2460(3)
H11 H 0.8097 0.0969 0.2529
C17 C 0.8936(2) 0.0902(5) 0.1732(4)
H12 H 0.8880 0.0026 0.1309
C18 C 0.9477(2) 0.1616(6) 0.1624(4)
H13 H 0.9786 0.1231 0.1125
C19 C 0.95680(19) 0.2899(6) 0.2249(4)
H14 H 0.9939 0.3384 0.2175
C20 C 0.91114(17) 0.3477(4) 0.2990(4)
H15 H 0.9174 0.4344 0.3423
O2 O 0.83439(11) 0.5202(3) 0.0508(2)
H16 H 0.8220 0.4430 0.0218
C21 C 0.89214(19) 0.5522(5) -0.0008(4)
H17 H 0.8879 0.5692 -0.0911
H18 H 0.9192 0.4699 0.0114
C22 C 0.9183(3) 0.6785(6) 0.0587(6)
H19 H 0.8972 0.7637 0.0298
H20 H 0.9607 0.6855 0.0371
H21 H 0.9144 0.6704 0.1490
loop_
_geom_bond_atom_site_label_1
_geom_bond_atom_site_label_2
_geom_bond_site_symmetry_1
_geom_bond_site_symmetry_2
Br1 C12 1_555 1_555
O1 C5 1_555 1_555
N1 N2 1_555 1_555
N2 C6 1_555 1_555
N3 H1 1_555 1_555
N4 C7 1_555 1_555
C1 N1 1_555 1_555
C2 C1 1_555 1_555
C3 C2 1_555 1_555
H2 C3 1_555 1_555
C4 C3 1_555 1_555
H3 C4 1_555 1_555
C5 N3 1_555 1_555
C6 N3 1_555 1_555
C7 C4 1_555 1_555
C8 C1 1_555 1_555
H4 C8 1_555 1_555
H5 C8 1_555 1_555
H6 C8 1_555 1_555
C9 C3 1_555 1_555
C10 C9 1_555 1_555
H7 C10 1_555 1_555
C11 C10 1_555 1_555
H8 C11 1_555 1_555
C12 C11 1_555 1_555
C13 C12 1_555 1_555
H9 C13 1_555 1_555
C14 C9 1_555 1_555
H10 C14 1_555 1_555
C15 N2 1_555 1_555
C16 C15 1_555 1_555
H11 C16 1_555 1_555
C17 C16 1_555 1_555
H12 C17 1_555 1_555
C18 C17 1_555 1_555
H13 C18 1_555 1_555
C19 C18 1_555 1_555
H14 C19 1_555 1_555
C20 C15 1_555 1_555
H15 C20 1_555 1_555
O2 H16 1_555 1_555
C21 O2 1_555 1_555
H17 C21 1_555 1_555
H18 C21 1_555 1_555
C22 C21 1_555 1_555
H19 C22 1_555 1_555
H20 C22 1_555 1_555
H21 C22 1_555 1_555
C2 C6 1_555 1_555
C4 C5 1_555 1_555
C13 C14 1_555 1_555
C19 C20 1_555 1_555

#END
