
#######################################################################
#
#                 Cambridge Crystallographic Data Centre
#                                CCDC 
#
#######################################################################
#
# If this CIF has been generated from an entry in the Cambridge 
# Structural Database, then it will include bibliographic, chemical, 
# crystal, experimental, refinement or atomic coordinate data resulting 
# from the CCDC's data processing and validation procedures.
#
#######################################################################

data_ROFWUF
_chemical_formula_moiety         'C26 H20 N2 O4,H2 O1'
_chemical_name_systematic        
'(1R,2R)-1,2-Diphenylethane-1,2-diyl diisonicotinate monohydrate'
_symmetry_cell_setting           monoclinic
_symmetry_space_group_name_H-M   'P 21'
_symmetry_Int_Tables_number      4
_space_group_name_Hall           'P 2yb'
loop_
_symmetry_equiv_pos_site_id
_symmetry_equiv_pos_as_xyz
1 x,y,z
2 -x,1/2+y,-z
_cell_length_a                   11.925(10)
_cell_length_b                   5.826(5)
_cell_length_c                   17.787(15)
_cell_angle_alpha                90
_cell_angle_beta                 105.629(10)
_cell_angle_gamma                90
_cell_volume                     1190.06
_exptl_crystal_colour            colorless
_exptl_crystal_description       acicular
_chemical_melting_point          '327 K'
_cell_formula_units_Z            2
_exptl_crystal_recrystallization_method ethanol
loop_
_atom_site_label
_atom_site_type_symbol
_atom_site_fract_x
_atom_site_fract_y
_atom_site_fract_z
C1 C 0.1366(3) 0.0950(8) 0.1997(2)
H1 H 0.1843 0.0198 0.2426
C2 C 0.0250(3) 0.0040(7) 0.1606(2)
H2 H 0.0002 -0.1319 0.1784
C3 C -0.0446(3) 0.1107(7) 0.0988(2)
H3 H -0.1171 0.0486 0.0744
C4 C -0.0107(3) 0.3060(7) 0.0718(2)
H4 H -0.0598 0.3783 0.0287
C5 C 0.1006(3) 0.4042(7) 0.1088(2)
H5 H 0.1237 0.5395 0.0895
C6 C 0.1729(3) 0.2994(6) 0.17230(19)
C7 C 0.2931(2) 0.3938(6) 0.20841(16)
H6 H 0.2980 0.5524 0.1912
C8 C 0.3874(3) 0.2465(7) 0.18741(17)
H7 H 0.3854 0.0892 0.2065
C9 C 0.3699(2) 0.2474(6) 0.10007(17)
C10 C 0.3172(3) 0.0645(7) 0.05519(19)
H8 H 0.2938 -0.0621 0.0790
C11 C 0.2988(3) 0.0677(7) -0.0256(2)
H9 H 0.2647 -0.0576 -0.0555
C12 C 0.3315(3) 0.2587(7) -0.06095(19)
H10 H 0.3165 0.2639 -0.1150
C13 C 0.3855(3) 0.4387(7) -0.01715(19)
H11 H 0.4093 0.5640 -0.0414
C14 C 0.4059(2) 0.4372(6) 0.06493(19)
H12 H 0.4427 0.5604 0.0949
C15 C 0.3427(3) 0.5843(7) 0.3341(2)
C16 C 0.3422(3) 0.5479(7) 0.4175(2)
C17 C 0.2955(3) 0.3621(7) 0.4423(2)
H13 H 0.2644 0.2469 0.4066
C18 C 0.2919(3) 0.3359(7) 0.5200(2)
H14 H 0.2595 0.2051 0.5356
C19 C 0.3806(3) 0.6880(6) 0.5480(2)
H15 H 0.4073 0.8048 0.5840
C20 C 0.3910(3) 0.7229(7) 0.4693(2)
H16 H 0.4270 0.8507 0.4548
C21 C 0.5955(3) 0.2419(6) 0.22411(18)
C22 C 0.7001(3) 0.3845(6) 0.25533(17)
C23 C 0.7001(3) 0.5913(7) 0.29022(18)
H17 H 0.6312 0.6513 0.2971
C24 C 0.8028(3) 0.7121(7) 0.3155(2)
H18 H 0.8009 0.8528 0.3398
C25 C 0.9004(3) 0.4385(8) 0.2745(2)
H19 H 0.9706 0.3818 0.2690
C26 C 0.8048(3) 0.2999(7) 0.2472(2)
H20 H 0.8101 0.1579 0.2245
N1 N 0.3370(3) 0.5066(6) 0.57225(18)
N2 N 0.9046(3) 0.6389(6) 0.30715(18)
O1 O 0.31042(17) 0.3875(4) 0.29344(11)
O2 O 0.36767(19) 0.7536(5) 0.30737(14)
O3 O 0.49642(18) 0.3587(4) 0.22757(12)
O4 O 0.59297(19) 0.0481(5) 0.19752(13)
O5 O 0.0848(2) 0.9233(6) 0.40864(18)
H21 H 0.059(4) 0.815(9) 0.424(3)
H22 H 0.047(3) 0.947(8) 0.362(3)
loop_
_geom_bond_atom_site_label_1
_geom_bond_atom_site_label_2
_geom_bond_site_symmetry_1
_geom_bond_site_symmetry_2
C1 H1 1_555 1_555
C2 C1 1_555 1_555
H2 C2 1_555 1_555
C3 C2 1_555 1_555
H3 C3 1_555 1_555
C4 C3 1_555 1_555
H4 C4 1_555 1_555
C5 C4 1_555 1_555
H5 C5 1_555 1_555
C6 C1 1_555 1_555
C7 C6 1_555 1_555
H6 C7 1_555 1_555
C8 C7 1_555 1_555
H7 C8 1_555 1_555
C9 C8 1_555 1_555
C10 C9 1_555 1_555
H8 C10 1_555 1_555
C11 C10 1_555 1_555
H9 C11 1_555 1_555
C12 C11 1_555 1_555
H10 C12 1_555 1_555
C13 C12 1_555 1_555
H11 C13 1_555 1_555
C14 C9 1_555 1_555
H12 C14 1_555 1_555
C15 C16 1_555 1_555
C16 C17 1_555 1_555
C17 H13 1_555 1_555
C18 C17 1_555 1_555
H14 C18 1_555 1_555
C19 H15 1_555 1_555
C20 C16 1_555 1_555
H16 C20 1_555 1_555
C21 C22 1_555 1_555
C22 C23 1_555 1_555
C23 H17 1_555 1_555
C24 C23 1_555 1_555
H18 C24 1_555 1_555
C25 H19 1_555 1_555
C26 C22 1_555 1_555
H20 C26 1_555 1_555
N1 C18 1_555 1_555
N2 C24 1_555 1_555
O1 C7 1_555 1_555
O2 C15 1_555 1_555
O3 C8 1_555 1_555
O4 C21 1_555 1_555
O5 H21 1_555 1_555
H22 O5 1_555 1_555
C5 C6 1_555 1_555
C13 C14 1_555 1_555
C15 O1 1_555 1_555
C19 C20 1_555 1_555
C19 N1 1_555 1_555
C21 O3 1_555 1_555
C25 C26 1_555 1_555
C25 N2 1_555 1_555

#END
