
#######################################################################
#
#                 Cambridge Crystallographic Data Centre
#                                CCDC 
#
#######################################################################
#
# If this CIF has been generated from an entry in the Cambridge 
# Structural Database, then it will include bibliographic, chemical, 
# crystal, experimental, refinement or atomic coordinate data resulting 
# from the CCDC's data processing and validation procedures.
#
#######################################################################

data_ROGCIA
_chemical_formula_moiety         'C14 H10 Br2 N2 O3,H2 O1'
_chemical_name_systematic        
"(E)-N'-(3,5-Dibromo-2-hydroxybenzylidene)-4-hydroxybenzohydrazide monohydrate"
_symmetry_cell_setting           monoclinic
_symmetry_space_group_name_H-M   'P 21/c'
_symmetry_Int_Tables_number      14
_space_group_name_Hall           '-P 2ybc'
loop_
_symmetry_equiv_pos_site_id
_symmetry_equiv_pos_as_xyz
1 x,y,z
2 -x,1/2+y,1/2-z
3 -x,-y,-z
4 x,1/2-y,1/2+z
_cell_length_a                   6.9840(16)
_cell_length_b                   12.678(3)
_cell_length_c                   17.722(4)
_cell_angle_alpha                90
_cell_angle_beta                 96.999(4)
_cell_angle_gamma                90
_cell_volume                     1557.47
_exptl_crystal_colour            colorless
_exptl_crystal_description       block
_cell_formula_units_Z            4
loop_
_atom_site_label
_atom_site_type_symbol
_atom_site_fract_x
_atom_site_fract_y
_atom_site_fract_z
Br1 Br 0.07183(8) 0.86697(4) -0.00493(3)
Br2 Br 0.05286(8) 0.71867(5) -0.30593(3)
O1 O 0.1871(5) 0.6446(2) 0.03203(16)
H1 H 0.2190 0.5834 0.0420
O2 O 0.3386(4) 0.4075(2) 0.14777(16)
O3 O 0.5946(6) -0.0702(2) 0.20309(16)
H2 H 0.6086 -0.0733 0.2497
N1 N 0.2698(5) 0.4520(3) 0.00247(19)
N2 N 0.3257(5) 0.3529(3) 0.02714(19)
C1 C 0.1784(6) 0.5746(3) -0.0955(2)
C2 C 0.1564(6) 0.6572(3) -0.0440(2)
C3 C 0.1013(6) 0.7560(3) -0.0737(3)
C4 C 0.0691(6) 0.7749(4) -0.1503(3)
H3 H 0.0323 0.8414 -0.1687
C5 C 0.0927(6) 0.6928(4) -0.1997(2)
C6 C 0.1470(6) 0.5942(4) -0.1731(2)
H4 H 0.1628 0.5401 -0.2073
C7 C 0.2368(6) 0.4704(3) -0.0687(2)
H5 H 0.2504 0.4166 -0.1033
C8 C 0.3580(6) 0.3355(3) 0.1033(2)
C9 C 0.4152(6) 0.2264(3) 0.1270(2)
C10 C 0.4475(7) 0.2041(3) 0.2037(2)
H6 H 0.4294 0.2573 0.2383
C11 C 0.5056(7) 0.1059(3) 0.2311(2)
H7 H 0.5262 0.0933 0.2832
C12 C 0.5325(7) 0.0275(3) 0.1807(2)
C13 C 0.4980(7) 0.0477(3) 0.1040(2)
H8 H 0.5146 -0.0059 0.0696
C14 C 0.4397(7) 0.1452(3) 0.0773(2)
H9 H 0.4163 0.1569 0.0252
H10 H 0.356(7) 0.307(3) -0.008(2)
O4 O 0.4571(5) 0.2539(3) 0.39995(18)
H11 H 0.436(6) 0.309(3) 0.373(3)
H12 H 0.5787(19) 0.245(4) 0.408(3)
loop_
_geom_bond_atom_site_label_1
_geom_bond_atom_site_label_2
_geom_bond_site_symmetry_1
_geom_bond_site_symmetry_2
Br1 C3 1_555 1_555
Br2 C5 1_555 1_555
O1 H1 1_555 1_555
O2 C8 1_555 1_555
O3 H2 1_555 1_555
O4 H11 1_555 1_555
N1 N2 1_555 1_555
N2 C8 1_555 1_555
C1 C2 1_555 1_555
C2 O1 1_555 1_555
C3 C2 1_555 1_555
C4 C3 1_555 1_555
H3 C4 1_555 1_555
C5 C4 1_555 1_555
C6 C1 1_555 1_555
H4 C6 1_555 1_555
C7 N1 1_555 1_555
H5 C7 1_555 1_555
C8 C9 1_555 1_555
C9 C10 1_555 1_555
C10 H6 1_555 1_555
C11 C10 1_555 1_555
H7 C11 1_555 1_555
C12 O3 1_555 1_555
C13 C12 1_555 1_555
H8 C13 1_555 1_555
C14 C9 1_555 1_555
H9 C14 1_555 1_555
H10 N2 1_555 1_555
H12 O4 1_555 1_555
C1 C7 1_555 1_555
C5 C6 1_555 1_555
C11 C12 1_555 1_555
C13 C14 1_555 1_555

#END
