
#######################################################################
#
#                 Cambridge Crystallographic Data Centre
#                                CCDC 
#
#######################################################################
#
# If this CIF has been generated from an entry in the Cambridge 
# Structural Database, then it will include bibliographic, chemical, 
# crystal, experimental, refinement or atomic coordinate data resulting 
# from the CCDC's data processing and validation procedures.
#
#######################################################################

data_ROGHOL
_chemical_formula_moiety         'C5 H6 O4 S3'
_chemical_name_systematic        '3,5-Dithia-4-thioxo-1,7-heptanedioic acid'
_symmetry_cell_setting           monoclinic
_symmetry_space_group_name_H-M   'C 2/c'
_symmetry_Int_Tables_number      15
_space_group_name_Hall           '-C 2yn'
loop_
_symmetry_equiv_pos_site_id
_symmetry_equiv_pos_as_xyz
1 x,y,z
2 1/2+x,1/2+y,z
3 -x,y,1/2-z
4 1/2-x,1/2+y,1/2-z
5 -x,-y,-z
6 1/2-x,1/2-y,-z
7 x,-y,1/2+z
8 1/2+x,1/2-y,1/2+z
_cell_length_a                   18.899(14)
_cell_length_b                   5.965(4)
_cell_length_c                   7.565(6)
_cell_angle_alpha                90
_cell_angle_beta                 92.992(2)
_cell_angle_gamma                90
_cell_volume                     851.659
_exptl_crystal_colour            colorless
_exptl_crystal_description       prism
_cell_formula_units_Z            4
loop_
_atom_site_label
_atom_site_type_symbol
_atom_site_fract_x
_atom_site_fract_y
_atom_site_fract_z
S1 S 0.5000 0.03720(12) 0.2500
S2 S 0.43050(3) 0.48194(8) 0.31113(7)
O1 O 0.29989(9) -0.0371(2) 0.2569(2)
H1 H 0.3130 -0.0788 0.3566
O2 O 0.32991(7) 0.2197(2) 0.06832(17)
C1 C 0.5000 0.3111(4) 0.2500
C2 C 0.36648(10) 0.2799(3) 0.3739(2)
H2 H 0.3895 0.1737 0.4552
H3 H 0.3300 0.3562 0.4365
C3 C 0.33171(9) 0.1520(3) 0.2204(2)
S2B S 0.56950(3) 0.48194(8) 0.18887(7)
O1B O 0.70011(9) -0.0371(2) 0.2431(2)
H1B H 0.6870 -0.0788 0.1434
O2B O 0.67009(7) 0.2197(2) 0.43168(17)
C2B C 0.63352(10) 0.2799(3) 0.1261(2)
H2B H 0.6105 0.1737 0.0448
H3B H 0.6700 0.3562 0.0635
C3B C 0.66829(9) 0.1520(3) 0.2796(2)
loop_
_geom_bond_atom_site_label_1
_geom_bond_atom_site_label_2
_geom_bond_site_symmetry_1
_geom_bond_site_symmetry_2
S1 C1 1_555 1_555
S2 C1 1_555 1_555
O1 H1 1_555 1_555
O2 C3 1_555 1_555
C1 S2B 1_555 1_555
C2 S2 1_555 1_555
H2 C2 1_555 1_555
H3 C2 1_555 1_555
C3 O1 1_555 1_555
S2B C2B 1_555 1_555
O1B H1B 1_555 1_555
O2B C3B 1_555 1_555
C2B H2B 1_555 1_555
H3B C2B 1_555 1_555
C3B O1B 1_555 1_555
C2 C3 1_555 1_555
C2B C3B 1_555 1_555

#END
