
#######################################################################
#
#                 Cambridge Crystallographic Data Centre
#                                CCDC 
#
#######################################################################
#
# If this CIF has been generated from an entry in the Cambridge 
# Structural Database, then it will include bibliographic, chemical, 
# crystal, experimental, refinement or atomic coordinate data resulting 
# from the CCDC's data processing and validation procedures.
#
#######################################################################

data_ROGLUV
_chemical_formula_moiety         'C16 H15 Cl1 N2 O2'
_chemical_name_systematic        
(2R,4S)-4-benzyl-2-(4-chlorophenyl)-3-nitroso-1,3-oxazolidine
_symmetry_cell_setting           orthorhombic
_symmetry_space_group_name_H-M   'P 21 21 21'
_symmetry_Int_Tables_number      19
_space_group_name_Hall           'P 2ac 2ab'
loop_
_symmetry_equiv_pos_site_id
_symmetry_equiv_pos_as_xyz
1 x,y,z
2 1/2-x,-y,1/2+z
3 -x,1/2+y,1/2-z
4 1/2+x,1/2-y,-z
_cell_length_a                   5.7523(14)
_cell_length_b                   9.054(2)
_cell_length_c                   28.648(7)
_cell_angle_alpha                90
_cell_angle_beta                 90
_cell_angle_gamma                90
_cell_volume                     1492.03
_cell_formula_units_Z            4
loop_
_atom_site_label
_atom_site_type_symbol
_atom_site_fract_x
_atom_site_fract_y
_atom_site_fract_z
C1 C 0.3934(7) 0.6706(4) 0.72784(11)
H1 H 0.5290 0.6244 0.7378
C2 C 0.2208(6) 0.7032(3) 0.75980(11)
C3 C 0.3665(8) 0.7059(4) 0.68102(12)
H2 H 0.4838 0.6830 0.6599
C4 C -0.0023(8) 0.8067(4) 0.69674(14)
H3 H -0.1368 0.8536 0.6865
C5 C 0.0232(8) 0.7704(4) 0.74356(13)
H4 H -0.0963 0.7921 0.7643
C6 C 0.1694(8) 0.7738(4) 0.66585(13)
H5 H 0.1522 0.7976 0.6345
C7 C 0.3727(7) 0.9166(3) 1.00232(10)
H6 H 0.2402 0.8611 1.0086
C8 C 0.4367(6) 0.9404(3) 0.95674(10)
C9 C 0.7676(7) 1.0767(3) 0.98432(12)
H7 H 0.9017 1.1309 0.9783
C10 C 0.6360(7) 1.0199(4) 0.94793(11)
H8 H 0.6829 1.0357 0.9173
C11 C 0.4991(7) 0.9727(4) 1.03889(11)
H9 H 0.4513 0.9573 1.0695
C12 C 0.6960(7) 1.0515(4) 1.02959(11)
N1 N 0.4184(5) 0.7847(3) 0.88434(8)
N2 N 0.6107(6) 0.7185(3) 0.89720(9)
O1 O 0.7209(4) 0.6619(3) 0.86429(8)
C13 C 0.2599(6) 0.6734(3) 0.81098(10)
H10 H 0.3736 0.5951 0.8145
H11 H 0.1156 0.6406 0.8251
Cl1 Cl 0.8582(2) 1.12275(10) 1.07568(3)
C14 C 0.2929(6) 0.8819(3) 0.91715(10)
H12 H 0.1566 0.8301 0.9295
C15 C 0.3459(6) 0.8119(3) 0.83591(9)
H13 H 0.4760 0.8546 0.8184
C16 C 0.1605(6) 0.9303(3) 0.84394(10)
H14 H 0.1619 1.0021 0.8188
H15 H 0.0072 0.8860 0.8456
O2 O 0.2199(4) 0.9991(2) 0.88753(7)
loop_
_geom_bond_atom_site_label_1
_geom_bond_atom_site_label_2
_geom_bond_site_symmetry_1
_geom_bond_site_symmetry_2
C1 H1 1_555 1_555
C2 C1 1_555 1_555
C3 C1 1_555 1_555
H2 C3 1_555 1_555
C4 H3 1_555 1_555
C5 C2 1_555 1_555
H4 C5 1_555 1_555
C6 C3 1_555 1_555
H5 C6 1_555 1_555
C7 H6 1_555 1_555
C8 C7 1_555 1_555
C9 H7 1_555 1_555
C10 C8 1_555 1_555
H8 C10 1_555 1_555
C11 C7 1_555 1_555
H9 C11 1_555 1_555
C12 C9 1_555 1_555
N1 N2 1_555 1_555
N2 O1 1_555 1_555
C13 C2 1_555 1_555
H10 C13 1_555 1_555
H11 C13 1_555 1_555
Cl1 C12 1_555 1_555
C14 C8 1_555 1_555
H12 C14 1_555 1_555
C15 N1 1_555 1_555
H13 C15 1_555 1_555
C16 C15 1_555 1_555
H14 C16 1_555 1_555
H15 C16 1_555 1_555
O2 C14 1_555 1_555
C4 C5 1_555 1_555
C4 C6 1_555 1_555
C9 C10 1_555 1_555
C11 C12 1_555 1_555
N1 C14 1_555 1_555
C13 C15 1_555 1_555
C16 O2 1_555 1_555

#END
