
#######################################################################
#
#                 Cambridge Crystallographic Data Centre
#                                CCDC 
#
#######################################################################
#
# If this CIF has been generated from an entry in the Cambridge 
# Structural Database, then it will include bibliographic, chemical, 
# crystal, experimental, refinement or atomic coordinate data resulting 
# from the CCDC's data processing and validation procedures.
#
#######################################################################

data_ROGRIQ
_chemical_formula_moiety         'C27 H26 O7'
_chemical_name_systematic        
(2-(1,3-Benzodioxol-5-yl)-3-(4-methoxyphenyl)cyclopropyl)(3,4,5-trimethoxyphenyl)methanone
_symmetry_cell_setting           triclinic
_symmetry_space_group_name_H-M   'P -1'
_symmetry_Int_Tables_number      2
_space_group_name_Hall           '-P 1'
loop_
_symmetry_equiv_pos_site_id
_symmetry_equiv_pos_as_xyz
1 x,y,z
2 -x,-y,-z
_cell_length_a                   9.8563(4)
_cell_length_b                   10.3346(4)
_cell_length_c                   11.6530(5)
_cell_angle_alpha                74.108(2)
_cell_angle_beta                 84.432(2)
_cell_angle_gamma                89.633(2)
_cell_volume                     1135.98
_exptl_crystal_colour            colorless
_exptl_crystal_description       Columnar
_cell_formula_units_Z            2
loop_
_atom_site_label
_atom_site_type_symbol
_atom_site_fract_x
_atom_site_fract_y
_atom_site_fract_z
O1 O 0.07421(15) 1.12990(16) 0.54068(15)
O2 O 0.42360(14) 1.16539(14) 1.23506(14)
O3 O 0.43702(15) 0.93541(14) 1.40533(13)
O4 O 0.34603(15) 1.17153(14) 1.01839(13)
O5 O 0.26461(17) 0.57491(15) 1.21746(14)
O6 O 0.32920(15) 0.46669(17) 0.53033(15)
O7 O 0.10081(17) 0.4743(2) 0.59861(17)
C1 C -0.0565(3) 1.1881(3) 0.5255(3)
H1 H -0.1258 1.1166 0.5383
H2 H -0.0565 1.2477 0.4441
H3 H -0.0773 1.2400 0.5837
C2 C 0.0887(2) 1.0346(2) 0.6472(2)
C3 C -0.0157(2) 0.9955(2) 0.7388(2)
H4 H -0.1013 1.0383 0.7320
C4 C 0.0058(2) 0.8934(2) 0.8405(2)
H5 H -0.0663 0.8668 0.9028
C5 C 0.1292(2) 0.8292(2) 0.8537(2)
C6 C 0.1455(2) 0.7212(2) 0.9652(2)
H6 H 0.0729 0.7198 1.0318
C7 C 0.2861(2) 0.6839(2) 1.00789(19)
H7 H 0.3660 0.7272 0.9510
C8 C 0.2948(2) 0.6765(2) 1.1365(2)
C9 C 0.3329(2) 0.8057(2) 1.16153(19)
C10 C 0.3690(2) 0.8038(2) 1.27487(19)
H8 H 0.3725 0.7210 1.3351
C11 C 0.3997(2) 0.9244(2) 1.29870(19)
C12 C 0.3916(2) 1.0469(2) 1.21062(19)
C13 C 0.3053(2) 1.2365(2) 1.2652(2)
H9 H 0.2505 1.2614 1.1970
H10 H 0.3343 1.3180 1.2845
H11 H 0.2506 1.1785 1.3348
C14 C 0.2057(2) 0.5826(2) 0.97044(19)
H12 H 0.1643 0.5069 1.0377
C15 C 0.4509(2) 0.8119(2) 1.4967(2)
H13 H 0.3622 0.7648 1.5195
H14 H 0.4835 0.8317 1.5670
H15 H 0.5165 0.7548 1.4660
C16 C 0.3547(2) 1.0474(2) 1.09761(19)
C17 C 0.3034(2) 1.1742(2) 0.9035(2)
H16 H 0.3692 1.1264 0.8624
H17 H 0.2983 1.2677 0.8552
H18 H 0.2134 1.1303 0.9144
C18 C 0.3270(2) 0.9269(2) 1.07273(19)
H19 H 0.3040 0.9270 0.9954
C19 C 0.2459(2) 0.5472(2) 0.85649(19)
C20 C 0.3820(2) 0.5385(2) 0.8144(2)
H20 H 0.4512 0.5529 0.8612
C21 C 0.4200(2) 0.5095(2) 0.7055(2)
H21 H 0.5131 0.5043 0.6774
C22 C 0.3165(2) 0.4888(2) 0.64098(19)
C23 C 0.1938(2) 0.4409(3) 0.5063(2)
H22 H 0.1820 0.3450 0.5089
H23 H 0.1756 0.4970 0.4259
C24 C 0.1808(2) 0.4946(2) 0.6825(2)
C25 C 0.1422(2) 0.5240(2) 0.7888(2)
H24 H 0.0486 0.5286 0.8159
C26 C 0.2351(2) 0.8732(2) 0.7615(2)
H25 H 0.3217 0.8326 0.7691
C27 C 0.2149(2) 0.9753(2) 0.6594(2)
H26 H 0.2875 1.0045 0.5979
loop_
_geom_bond_atom_site_label_1
_geom_bond_atom_site_label_2
_geom_bond_site_symmetry_1
_geom_bond_site_symmetry_2
O1 C1 1_555 1_555
O2 C12 1_555 1_555
O3 C11 1_555 1_555
O4 C16 1_555 1_555
O5 C8 1_555 1_555
O6 C22 1_555 1_555
O7 C23 1_555 1_555
C1 H1 1_555 1_555
H2 C1 1_555 1_555
H3 C1 1_555 1_555
C2 O1 1_555 1_555
C3 C2 1_555 1_555
H4 C3 1_555 1_555
C4 C3 1_555 1_555
H5 C4 1_555 1_555
C5 C4 1_555 1_555
C6 C5 1_555 1_555
H6 C6 1_555 1_555
C7 C6 1_555 1_555
H7 C7 1_555 1_555
C8 C7 1_555 1_555
C9 C8 1_555 1_555
C10 C9 1_555 1_555
H8 C10 1_555 1_555
C11 C10 1_555 1_555
C12 C11 1_555 1_555
C13 O2 1_555 1_555
H9 C13 1_555 1_555
H10 C13 1_555 1_555
H11 C13 1_555 1_555
C14 C6 1_555 1_555
H12 C14 1_555 1_555
C15 O3 1_555 1_555
H13 C15 1_555 1_555
H14 C15 1_555 1_555
H15 C15 1_555 1_555
C16 C12 1_555 1_555
C17 O4 1_555 1_555
H16 C17 1_555 1_555
H17 C17 1_555 1_555
H18 C17 1_555 1_555
C18 C9 1_555 1_555
H19 C18 1_555 1_555
C19 C14 1_555 1_555
C20 C19 1_555 1_555
H20 C20 1_555 1_555
C21 C20 1_555 1_555
H21 C21 1_555 1_555
C22 C21 1_555 1_555
C23 O6 1_555 1_555
H22 C23 1_555 1_555
H23 C23 1_555 1_555
C24 O7 1_555 1_555
C25 C19 1_555 1_555
H24 C25 1_555 1_555
C26 C5 1_555 1_555
H25 C26 1_555 1_555
C27 C2 1_555 1_555
H26 C27 1_555 1_555
C7 C14 1_555 1_555
C16 C18 1_555 1_555
C22 C24 1_555 1_555
C24 C25 1_555 1_555
C26 C27 1_555 1_555

#END
