
#######################################################################
#
#                 Cambridge Crystallographic Data Centre
#                                CCDC 
#
#######################################################################
#
# If this CIF has been generated from an entry in the Cambridge 
# Structural Database, then it will include bibliographic, chemical, 
# crystal, experimental, refinement or atomic coordinate data resulting 
# from the CCDC's data processing and validation procedures.
#
#######################################################################

data_ROGVUF
_chemical_formula_moiety         'C19 H30 N2 O3 S1'
_chemical_name_systematic        
'2,5-Di-t-butyl-3-(2-(4-methoxyphenyl)ethenyl)-1,2,5-thiadiazolidine 1,1-dioxide'
_symmetry_cell_setting           triclinic
_symmetry_space_group_name_H-M   'P -1'
_symmetry_Int_Tables_number      2
_space_group_name_Hall           '-P 1'
loop_
_symmetry_equiv_pos_site_id
_symmetry_equiv_pos_as_xyz
1 x,y,z
2 -x,-y,-z
_cell_length_a                   10.4868(4)
_cell_length_b                   13.8402(5)
_cell_length_c                   14.4617(5)
_cell_angle_alpha                88.875(2)
_cell_angle_beta                 89.530(2)
_cell_angle_gamma                73.891(2)
_cell_volume                     2016.15
_exptl_crystal_colour            colorless
_exptl_crystal_description       rod
_cell_formula_units_Z            4
loop_
_atom_site_label
_atom_site_type_symbol
_atom_site_fract_x
_atom_site_fract_y
_atom_site_fract_z
S1 S 0.75622(6) 0.26882(5) 0.12025(4)
O1 O 0.83462(16) 0.25911(14) 0.03710(12)
O2 O 0.61897(16) 0.27530(13) 0.10598(12)
O3 O 0.57755(17) 0.26277(14) 0.78599(12)
N1 N 0.82218(19) 0.18078(15) 0.19746(14)
N2 N 0.7700(2) 0.36203(16) 0.18563(15)
C1 C 0.8829(3) 0.2222(2) 0.27396(18)
H1 H 0.9741 0.1777 0.2869
C2 C 0.8908(3) 0.3235(2) 0.2404(2)
H2 H 0.8925 0.3679 0.2929
H3 H 0.9710 0.3175 0.2018
C3 C 0.7463(3) 0.4666(2) 0.1439(2)
C4 C 0.8655(3) 0.4775(3) 0.0864(3)
H4 H 0.9447 0.4620 0.1255
H5 H 0.8474 0.5466 0.0622
H6 H 0.8805 0.4307 0.0348
C5 C 0.7195(4) 0.5373(2) 0.2249(3)
H7 H 0.6431 0.5286 0.2602
H8 H 0.7004 0.6069 0.2020
H9 H 0.7977 0.5221 0.2651
C6 C 0.6244(3) 0.4909(2) 0.0823(2)
H10 H 0.5474 0.4852 0.1185
H11 H 0.6395 0.4436 0.0312
H12 H 0.6078 0.5597 0.0574
C7 C 0.8792(2) 0.07360(18) 0.16876(18)
C8 C 0.8919(3) 0.0079(2) 0.25595(19)
H13 H 0.8043 0.0181 0.2847
H14 H 0.9520 0.0262 0.2995
H15 H 0.9274 -0.0630 0.2397
C9 C 1.0149(2) 0.0579(2) 0.1224(2)
H16 H 1.0056 0.1004 0.0665
H17 H 1.0502 -0.0129 0.1059
H18 H 1.0760 0.0761 0.1653
C10 C 0.7821(2) 0.0455(2) 0.10289(18)
H19 H 0.7731 0.0872 0.0464
H20 H 0.6953 0.0570 0.1331
H21 H 0.8158 -0.0256 0.0870
C11 C 0.7976(3) 0.2321(2) 0.36116(18)
H22 H 0.7052 0.2642 0.3559
C12 C 0.8448(3) 0.1988(2) 0.44279(18)
H23 H 0.9361 0.1626 0.4450
C13 C 0.7732(2) 0.2106(2) 0.53126(17)
C14 C 0.8438(2) 0.1869(2) 0.61287(17)
H24 H 0.9374 0.1593 0.6096
C15 C 0.7839(2) 0.2018(2) 0.69917(17)
H25 H 0.8356 0.1846 0.7538
C16 C 0.6468(2) 0.24233(19) 0.70464(17)
C17 C 0.5722(2) 0.26294(19) 0.62360(17)
H26 H 0.4782 0.2871 0.6271
C18 C 0.6336(2) 0.24857(19) 0.53871(17)
H27 H 0.5816 0.2644 0.4841
C19 C 0.6523(3) 0.2497(2) 0.86970(17)
H28 H 0.5915 0.2662 0.9225
H29 H 0.7105 0.2943 0.8683
H30 H 0.7063 0.1797 0.8757
S2 S 0.25437(6) 0.26754(5) 0.37369(4)
O4 O 0.11758(16) 0.27287(13) 0.39032(12)
O5 O 0.33364(17) 0.25855(14) 0.45653(12)
O6 O 0.08074(17) 0.25784(14) -0.28916(12)
N3 N 0.2657(2) 0.36135(15) 0.30488(15)
N4 N 0.32114(19) 0.17955(15) 0.29903(14)
C20 C 0.3835(2) 0.2214(2) 0.22066(18)
H31 H 0.4752 0.1775 0.2090
C21 C 0.3885(3) 0.3242(2) 0.2513(2)
H32 H 0.4675 0.3191 0.2901
H33 H 0.3906 0.3689 0.1974
C22 C 0.2389(3) 0.4661(2) 0.3418(2)
C23 C 0.3574(3) 0.4806(3) 0.3952(3)
H34 H 0.3748 0.4350 0.4492
H35 H 0.3374 0.5503 0.4156
H36 H 0.4358 0.4657 0.3550
C24 C 0.2079(4) 0.5366(2) 0.2576(3)
H37 H 0.1312 0.5266 0.2249
H38 H 0.2849 0.5222 0.2160
H39 H 0.1878 0.6065 0.2777
C25 C 0.1178(3) 0.4885(2) 0.4047(2)
H40 H 0.1368 0.4438 0.4593
H41 H 0.0423 0.4775 0.3713
H42 H 0.0963 0.5586 0.4241
C26 C 0.3772(2) 0.07318(19) 0.33106(17)
C27 C 0.3906(3) 0.0071(2) 0.24563(19)
H43 H 0.3032 0.0171 0.2174
H44 H 0.4265 -0.0637 0.2641
H45 H 0.4507 0.0258 0.2009
C28 C 0.2811(3) 0.0443(2) 0.39885(18)
H46 H 0.1946 0.0547 0.3691
H47 H 0.2711 0.0862 0.4537
H48 H 0.3160 -0.0267 0.4172
C29 C 0.5142(3) 0.0572(2) 0.3753(2)
H49 H 0.5058 0.0995 0.4298
H50 H 0.5744 0.0756 0.3305
H51 H 0.5497 -0.0136 0.3938
C30 C 0.2997(3) 0.2308(2) 0.13396(18)
H52 H 0.2075 0.2640 0.1381
C31 C 0.3483(3) 0.1953(2) 0.05336(18)
H53 H 0.4394 0.1585 0.0521
C32 C 0.2762(2) 0.20662(19) -0.03506(17)
C33 C 0.3473(2) 0.18155(19) -0.11657(18)
H54 H 0.4407 0.1532 -0.1134
C34 C 0.2866(2) 0.19645(19) -0.20284(17)
H55 H 0.3382 0.1789 -0.2574
C35 C 0.1501(2) 0.23711(18) -0.20856(17)
C36 C 0.0754(2) 0.25817(19) -0.12757(17)
H56 H -0.0186 0.2823 -0.1311
C37 C 0.1365(2) 0.24429(19) -0.04253(18)
H57 H 0.0842 0.2602 0.0119
C38 C 0.1562(3) 0.2480(2) -0.37295(17)
H58 H 0.0958 0.2645 -0.4259
H59 H 0.2123 0.1786 -0.3779
H60 H 0.2123 0.2940 -0.3725
loop_
_geom_bond_atom_site_label_1
_geom_bond_atom_site_label_2
_geom_bond_site_symmetry_1
_geom_bond_site_symmetry_2
S1 O1 1_555 1_555
O2 S1 1_555 1_555
O3 C16 1_555 1_555
N1 S1 1_555 1_555
N2 S1 1_555 1_555
C1 N1 1_555 1_555
H1 C1 1_555 1_555
C2 N2 1_555 1_555
H2 C2 1_555 1_555
H3 C2 1_555 1_555
C3 N2 1_555 1_555
C4 C3 1_555 1_555
H4 C4 1_555 1_555
H5 C4 1_555 1_555
H6 C4 1_555 1_555
C5 C3 1_555 1_555
H7 C5 1_555 1_555
H8 C5 1_555 1_555
H9 C5 1_555 1_555
C6 C3 1_555 1_555
H10 C6 1_555 1_555
H11 C6 1_555 1_555
H12 C6 1_555 1_555
C7 N1 1_555 1_555
C8 C7 1_555 1_555
H13 C8 1_555 1_555
H14 C8 1_555 1_555
H15 C8 1_555 1_555
C9 C7 1_555 1_555
H16 C9 1_555 1_555
H17 C9 1_555 1_555
H18 C9 1_555 1_555
C10 C7 1_555 1_555
H19 C10 1_555 1_555
H20 C10 1_555 1_555
H21 C10 1_555 1_555
C11 C1 1_555 1_555
H22 C11 1_555 1_555
C12 C11 1_555 1_555
H23 C12 1_555 1_555
C13 C12 1_555 1_555
C14 C13 1_555 1_555
H24 C14 1_555 1_555
C15 C14 1_555 1_555
H25 C15 1_555 1_555
C16 C15 1_555 1_555
C17 C16 1_555 1_555
H26 C17 1_555 1_555
C18 C13 1_555 1_555
H27 C18 1_555 1_555
C19 O3 1_555 1_555
H28 C19 1_555 1_555
H29 C19 1_555 1_555
H30 C19 1_555 1_555
S2 O4 1_555 1_555
O5 S2 1_555 1_555
O6 C35 1_555 1_555
N3 S2 1_555 1_555
N4 S2 1_555 1_555
C20 N4 1_555 1_555
H31 C20 1_555 1_555
C21 N3 1_555 1_555
H32 C21 1_555 1_555
H33 C21 1_555 1_555
C22 N3 1_555 1_555
C23 C22 1_555 1_555
H34 C23 1_555 1_555
H35 C23 1_555 1_555
H36 C23 1_555 1_555
C24 C22 1_555 1_555
H37 C24 1_555 1_555
H38 C24 1_555 1_555
H39 C24 1_555 1_555
C25 C22 1_555 1_555
H40 C25 1_555 1_555
H41 C25 1_555 1_555
H42 C25 1_555 1_555
C26 N4 1_555 1_555
C27 C26 1_555 1_555
H43 C27 1_555 1_555
H44 C27 1_555 1_555
H45 C27 1_555 1_555
C28 C26 1_555 1_555
H46 C28 1_555 1_555
H47 C28 1_555 1_555
H48 C28 1_555 1_555
C29 C26 1_555 1_555
H49 C29 1_555 1_555
H50 C29 1_555 1_555
H51 C29 1_555 1_555
C30 C20 1_555 1_555
H52 C30 1_555 1_555
C31 C30 1_555 1_555
H53 C31 1_555 1_555
C32 C31 1_555 1_555
C33 C32 1_555 1_555
H54 C33 1_555 1_555
C34 C33 1_555 1_555
H55 C34 1_555 1_555
C35 C34 1_555 1_555
C36 C35 1_555 1_555
H56 C36 1_555 1_555
C37 C32 1_555 1_555
H57 C37 1_555 1_555
C38 O6 1_555 1_555
H58 C38 1_555 1_555
H59 C38 1_555 1_555
H60 C38 1_555 1_555
C1 C2 1_555 1_555
C17 C18 1_555 1_555
C20 C21 1_555 1_555
C36 C37 1_555 1_555

#END
