
#######################################################################
#
#                 Cambridge Crystallographic Data Centre
#                                CCDC 
#
#######################################################################
#
# If this CIF has been generated from an entry in the Cambridge 
# Structural Database, then it will include bibliographic, chemical, 
# crystal, experimental, refinement or atomic coordinate data resulting 
# from the CCDC's data processing and validation procedures.
#
#######################################################################

data_ROHYIY
_chemical_formula_moiety         'C42 H62 N2 2+,2(H1 N1 O3),2(N1 O3 1-)'
_chemical_name_systematic        
"5,5'-ethyne-1,2-diylbis(1-(2,6-diisopropylphenyl)-2,2,4,4-tetramethyl-3,4-dihydro-2H-pyrrolium) dinitrate nitric acid solvate"
_symmetry_cell_setting           monoclinic
_symmetry_space_group_name_H-M   'P 21/n'
_symmetry_Int_Tables_number      14
_space_group_name_Hall           '-P 2yn'
loop_
_symmetry_equiv_pos_site_id
_symmetry_equiv_pos_as_xyz
1 x,y,z
2 1/2-x,1/2+y,1/2-z
3 -x,-y,-z
4 1/2+x,1/2-y,1/2+z
_cell_length_a                   11.9521(2)
_cell_length_b                   15.2204(2)
_cell_length_c                   12.5879(2)
_cell_angle_alpha                90
_cell_angle_beta                 103.909(1)
_cell_angle_gamma                90
_cell_volume                     2222.79
_exptl_crystal_colour            orange
_exptl_crystal_description       rectangle
_cell_formula_units_Z            2
loop_
_atom_site_label
_atom_site_type_symbol
_atom_site_fract_x
_atom_site_fract_y
_atom_site_fract_z
O4 O 0.26516(5) 0.32146(4) 0.25329(5)
O5 O 0.10114(5) 0.28177(4) 0.28536(5)
O6 O 0.17078(6) 0.21201(5) 0.16657(6)
N2 N 0.17511(7) 0.26970(5) 0.23408(6)
H1 H 0.24950 0.37780 0.31649
N3 N 0.54798(5) 0.32709(4) 0.09914(5)
C1 C 0.47367(7) 0.37131(5) 0.02836(6)
C2 C 0.36847(7) 0.32122(5) -0.02941(6)
C3 C 0.38603(7) 0.23370(5) 0.03481(7)
C4 C 0.51049(7) 0.23090(5) 0.10585(6)
C5 C 0.25901(7) 0.36939(5) -0.01807(7)
C6 C 0.36859(7) 0.31071(5) -0.15068(6)
C7 C 0.58885(8) 0.17088(5) 0.05918(7)
C8 C 0.51630(7) 0.20645(5) 0.22430(7)
C9 C 0.65307(6) 0.36725(5) 0.16506(6)
C10 C 0.75337(7) 0.36672(5) 0.12517(6)
C11 C 0.85134(7) 0.40705(5) 0.19056(7)
C12 C 0.84837(7) 0.44699(5) 0.28899(7)
C13 C 0.74658(7) 0.44956(5) 0.32362(7)
C14 C 0.64575(7) 0.40985(5) 0.26254(6)
C15 C 0.76152(7) 0.32932(5) 0.01538(7)
C16 C 0.78115(8) 0.40268(6) -0.06222(7)
C17 C 0.85833(8) 0.26085(6) 0.02900(8)
C18 C 0.53657(7) 0.41916(5) 0.30368(7)
C19 C 0.49691(8) 0.51546(5) 0.29927(7)
C20 C 0.55462(8) 0.38446(6) 0.42119(7)
C21 C 0.49379(7) 0.46231(5) 0.00895(7)
H2 H 0.32504 0.22917 0.08692
H3 H 0.37086 0.17826 -0.02213
H4 H 0.26477 0.38349 0.06809
H5 H 0.18390 0.32807 -0.05037
H6 H 0.25054 0.43084 -0.06398
H7 H 0.45158 0.28443 -0.15739
H8 H 0.35434 0.37458 -0.19107
H9 H 0.29997 0.26566 -0.18978
H10 H 0.56047 0.10290 0.06143
H11 H 0.67733 0.17712 0.10784
H12 H 0.58487 0.18972 -0.02530
H13 H 0.45691 0.24784 0.25564
H14 H 0.60392 0.21648 0.27343
H15 H 0.49229 0.13761 0.22881
H16 H 0.93092 0.40711 0.16386
H17 H 0.92574 0.47643 0.33889
H18 H 0.74512 0.48269 0.39935
H19 H 0.67975 0.29696 -0.02174
H20 H 0.86215 0.43626 -0.02657
H21 H 0.71022 0.44966 -0.07442
H22 H 0.78493 0.37413 -0.14081
H23 H 0.84349 0.20869 0.08352
H24 H 0.94121 0.29210 0.06383
H25 H 0.85890 0.23295 -0.05074
H26 H 0.46847 0.38037 0.25054
H27 H 0.56280 0.55500 0.35359
H28 H 0.41640 0.51981 0.32544
H29 H 0.48337 0.53993 0.21565
H30 H 0.47431 0.39030 0.44744
H31 H 0.62177 0.42282 0.47570
H32 H 0.58062 0.31560 0.42389
N3B N 0.45202(5) 0.67291(4) -0.09914(5)
C1B C 0.52633(7) 0.62869(5) -0.02836(6)
C2B C 0.63153(7) 0.67878(5) 0.02941(6)
C3B C 0.61397(7) 0.76630(5) -0.03481(7)
C4B C 0.48951(7) 0.76910(5) -0.10585(6)
C5B C 0.74099(7) 0.63061(5) 0.01807(7)
C6B C 0.63141(7) 0.68929(5) 0.15068(6)
C7B C 0.41115(8) 0.82912(5) -0.05918(7)
C8B C 0.48370(7) 0.79355(5) -0.22430(7)
C9B C 0.34693(6) 0.63275(5) -0.16506(6)
C10B C 0.24663(7) 0.63328(5) -0.12517(6)
C11B C 0.14866(7) 0.59295(5) -0.19056(7)
C12B C 0.15163(7) 0.55301(5) -0.28899(7)
C13B C 0.25342(7) 0.55044(5) -0.32362(7)
C14B C 0.35425(7) 0.59015(5) -0.26254(6)
C15B C 0.23848(7) 0.67068(5) -0.01538(7)
C16B C 0.21885(8) 0.59732(6) 0.06222(7)
C17B C 0.14167(8) 0.73915(6) -0.02900(8)
C18B C 0.46343(7) 0.58084(5) -0.30368(7)
C19B C 0.50309(8) 0.48454(5) -0.29927(7)
C20B C 0.44538(8) 0.61554(6) -0.42119(7)
C21B C 0.50621(7) 0.53769(5) -0.00895(7)
H2B H 0.67496 0.77083 -0.08692
H3B H 0.62914 0.82174 0.02213
H4B H 0.73523 0.61651 -0.06809
H5B H 0.81610 0.67193 0.05037
H6B H 0.74946 0.56916 0.06398
H7B H 0.54842 0.71557 0.15739
H8B H 0.64566 0.62542 0.19107
H9B H 0.70003 0.73434 0.18978
H10B H 0.43953 0.89710 -0.06143
H11B H 0.32267 0.82288 -0.10784
H12B H 0.41513 0.81028 0.02530
H13B H 0.54309 0.75216 -0.25564
H14B H 0.39608 0.78352 -0.27343
H15B H 0.50771 0.86239 -0.22881
H16B H 0.06908 0.59289 -0.16386
H17B H 0.07426 0.52357 -0.33889
H18B H 0.25488 0.51731 -0.39935
H19B H 0.32025 0.70304 0.02174
H20B H 0.13785 0.56374 0.02657
H21B H 0.28978 0.55034 0.07442
H22B H 0.21507 0.62587 0.14081
H23B H 0.15651 0.79131 -0.08352
H24B H 0.05879 0.70790 -0.06383
H25B H 0.14110 0.76705 0.05074
H26B H 0.53153 0.61963 -0.25054
H27B H 0.43720 0.44500 -0.35359
H28B H 0.58360 0.48019 -0.32544
H29B H 0.51663 0.46007 -0.21565
H30B H 0.52569 0.60970 -0.44744
H31B H 0.37823 0.57718 -0.47570
H32B H 0.41938 0.68440 -0.42389
O1 O 0.12451(5) 0.52785(4) 0.41861(5)
O2 O 0.11958(6) 0.48746(4) 0.25330(5)
O3 O 0.24820(5) 0.43287(4) 0.39051(5)
N1 N 0.16071(6) 0.48472(4) 0.35218(6)
loop_
_geom_bond_atom_site_label_1
_geom_bond_atom_site_label_2
_geom_bond_site_symmetry_1
_geom_bond_site_symmetry_2
O1 N1 1_555 1_555
O2 N1 1_555 1_555
O3 N1 1_555 1_555
O4 N2 1_555 1_555
O5 N2 1_555 1_555
O6 N2 1_555 1_555
H1 O4 1_555 1_555
N3 C1 1_555 1_555
C1 C2 1_555 1_555
C2 C3 1_555 1_555
C3 C4 1_555 1_555
C4 N3 1_555 1_555
C5 C2 1_555 1_555
C6 C2 1_555 1_555
C7 C4 1_555 1_555
C8 C4 1_555 1_555
C9 N3 1_555 1_555
C10 C9 1_555 1_555
C11 C10 1_555 1_555
C12 C11 1_555 1_555
C13 C12 1_555 1_555
C14 C9 1_555 1_555
C15 C10 1_555 1_555
C16 C15 1_555 1_555
C17 C15 1_555 1_555
C18 C14 1_555 1_555
C19 C18 1_555 1_555
C20 C18 1_555 1_555
C21 C1 1_555 1_555
H2 C3 1_555 1_555
H3 C3 1_555 1_555
H4 C5 1_555 1_555
H5 C5 1_555 1_555
H6 C5 1_555 1_555
H7 C6 1_555 1_555
H8 C6 1_555 1_555
H9 C6 1_555 1_555
H10 C7 1_555 1_555
H11 C7 1_555 1_555
H12 C7 1_555 1_555
H13 C8 1_555 1_555
H14 C8 1_555 1_555
H15 C8 1_555 1_555
H16 C11 1_555 1_555
H17 C12 1_555 1_555
H18 C13 1_555 1_555
H19 C15 1_555 1_555
H20 C16 1_555 1_555
H21 C16 1_555 1_555
H22 C16 1_555 1_555
H23 C17 1_555 1_555
H24 C17 1_555 1_555
H25 C17 1_555 1_555
H26 C18 1_555 1_555
H27 C19 1_555 1_555
H28 C19 1_555 1_555
H29 C19 1_555 1_555
H30 C20 1_555 1_555
H31 C20 1_555 1_555
H32 C20 1_555 1_555
N3B C1B 1_555 1_555
C1B C2B 1_555 1_555
C2B C3B 1_555 1_555
C3B C4B 1_555 1_555
C4B N3B 1_555 1_555
C5B C2B 1_555 1_555
C6B C2B 1_555 1_555
C7B C4B 1_555 1_555
C8B C4B 1_555 1_555
C9B N3B 1_555 1_555
C10B C9B 1_555 1_555
C11B C10B 1_555 1_555
C12B C11B 1_555 1_555
C13B C12B 1_555 1_555
C14B C9B 1_555 1_555
C15B C10B 1_555 1_555
C16B C15B 1_555 1_555
C17B C15B 1_555 1_555
C18B C14B 1_555 1_555
C19B C18B 1_555 1_555
C20B C18B 1_555 1_555
C21B C21 1_555 1_555
H2B C3B 1_555 1_555
H3B C3B 1_555 1_555
H4B C5B 1_555 1_555
H5B C5B 1_555 1_555
H6B C5B 1_555 1_555
H7B C6B 1_555 1_555
H8B C6B 1_555 1_555
H9B C6B 1_555 1_555
H10B C7B 1_555 1_555
H11B C7B 1_555 1_555
H12B C7B 1_555 1_555
H13B C8B 1_555 1_555
H14B C8B 1_555 1_555
H15B C8B 1_555 1_555
H16B C11B 1_555 1_555
H17B C12B 1_555 1_555
H18B C13B 1_555 1_555
H19B C15B 1_555 1_555
H20B C16B 1_555 1_555
H21B C16B 1_555 1_555
H22B C16B 1_555 1_555
H23B C17B 1_555 1_555
H24B C17B 1_555 1_555
H25B C17B 1_555 1_555
H26B C18B 1_555 1_555
H27B C19B 1_555 1_555
H28B C19B 1_555 1_555
H29B C19B 1_555 1_555
H30B C20B 1_555 1_555
H31B C20B 1_555 1_555
H32B C20B 1_555 1_555
C13 C14 1_555 1_555
C1B C21B 1_555 1_555
C13B C14B 1_555 1_555

#END
