
#######################################################################
#
#                 Cambridge Crystallographic Data Centre
#                                CCDC 
#
#######################################################################
#
# If this CIF has been generated from an entry in the Cambridge 
# Structural Database, then it will include bibliographic, chemical, 
# crystal, experimental, refinement or atomic coordinate data resulting 
# from the CCDC's data processing and validation procedures.
#
#######################################################################

data_ROHYAQ
_chemical_formula_moiety         'C42 H62 N2 1+,C4 H8 O1,H2 O1,C1 F3 O3 S1 1-'
_chemical_name_systematic        
'1-(2,6-diisopropylphenyl)-5-(2-(1-(2,6-diisopropylphenyl)-3,3,5,5-tetramethylpyrrolidin-2-ylidene)vinyl)-2,2,4,4-tetramethyl-3,4-dihydro-2H-pyrrolium trifluoromethanesulfonate tetrahydrofuran solvate monohydrate'
_symmetry_cell_setting           monoclinic
_symmetry_space_group_name_H-M   'P 21/c'
_symmetry_Int_Tables_number      14
_space_group_name_Hall           '-P 2ybc'
loop_
_symmetry_equiv_pos_site_id
_symmetry_equiv_pos_as_xyz
1 x,y,z
2 -x,1/2+y,1/2-z
3 -x,-y,-z
4 x,1/2-y,1/2+z
_cell_length_a                   12.13(3)
_cell_length_b                   22.01(6)
_cell_length_c                   18.69(7)
_cell_angle_alpha                90
_cell_angle_beta                 104.6(2)
_cell_angle_gamma                90
_cell_volume                     4828.75
_exptl_crystal_colour            red
_exptl_crystal_description       plate
_cell_formula_units_Z            4
loop_
_atom_site_label
_atom_site_type_symbol
_atom_site_fract_x
_atom_site_fract_y
_atom_site_fract_z
N2 N 0.28595(13) 0.44086(8) 0.50703(9)
C22 C 0.39969(15) 0.43610(9) 0.52441(10)
C23 C 0.44085(17) 0.37680(10) 0.56380(12)
C24 C 0.3296(3) 0.35496(19) 0.5832(3)
H32 H 0.3222 0.3103 0.5776
H33 H 0.3319 0.3655 0.6350
C25 C 0.22817(17) 0.38623(11) 0.53063(12)
C26 C 0.5352(5) 0.3873(3) 0.6356(4)
H34 H 0.5527 0.3488 0.6624
H35 H 0.5088 0.4169 0.6667
H36 H 0.6038 0.4027 0.6232
C27 C 0.4801(5) 0.33525(19) 0.5110(3)
H37 H 0.4974 0.2951 0.5336
H38 H 0.5487 0.3522 0.4998
H39 H 0.4197 0.3315 0.4651
C28 C 0.1632(10) 0.3498(7) 0.4663(8)
H40 H 0.1229 0.3167 0.4841
H41 H 0.2162 0.3327 0.4398
H42 H 0.1079 0.3760 0.4329
C29 C 0.1414(4) 0.4079(2) 0.5741(3)
H43 H 0.1817 0.4307 0.6179
H44 H 0.1041 0.3725 0.5894
H45 H 0.0840 0.4340 0.5423
C30 C 0.22918(15) 0.49419(10) 0.46816(11)
C31 C 0.20127(16) 0.49553(11) 0.38931(11)
C32 C 0.14822(18) 0.54782(12) 0.35382(12)
H46 H 0.1270 0.5493 0.3013
C33 C 0.12619(19) 0.59716(12) 0.39362(13)
H47 H 0.0893 0.6321 0.3687
C34 C 0.15848(19) 0.59554(12) 0.47095(13)
H48 H 0.1441 0.6301 0.4976
C35 C 0.21129(16) 0.54473(11) 0.51050(11)
C36 C 0.23147(17) 0.44471(11) 0.34215(11)
H49 H 0.2613 0.4097 0.3755
C37 C 0.12708(18) 0.42213(12) 0.28221(12)
H50 H 0.0641 0.4136 0.3049
H51 H 0.1472 0.3849 0.2596
H52 H 0.1037 0.4535 0.2442
C38 C 0.32538(18) 0.46464(12) 0.30557(12)
H53 H 0.3923 0.4780 0.3437
H54 H 0.2975 0.4982 0.2714
H55 H 0.3465 0.4304 0.2782
C39 C 0.25093(19) 0.54776(11) 0.59573(12)
H56 H 0.2809 0.5068 0.6142
C40 C 0.1512(2) 0.56288(14) 0.62933(14)
H57 H 0.1207 0.6030 0.6122
H58 H 0.1780 0.5631 0.6834
H59 H 0.0913 0.5322 0.6139
C41 C 0.3471(2) 0.59388(13) 0.62117(13)
H60 H 0.3718 0.5940 0.6753
H61 H 0.3197 0.6344 0.6036
H62 H 0.4114 0.5828 0.6009
C42 C 0.46833(15) 0.48057(9) 0.50732(10)
N2B N 0.71405(13) 0.55914(8) 0.49297(9)
C22B C 0.60031(15) 0.56390(9) 0.47559(10)
C23B C 0.55915(17) 0.62320(10) 0.43620(12)
C24B C 0.6704(3) 0.64504(19) 0.4168(3)
H32B H 0.6778 0.6897 0.4224
H33B H 0.6681 0.6345 0.3650
C25B C 0.77183(17) 0.61377(11) 0.46937(12)
C26B C 0.4648(5) 0.6127(3) 0.3644(4)
H34B H 0.4473 0.6512 0.3376
H35B H 0.4912 0.5831 0.3333
H36B H 0.3962 0.5973 0.3768
C27B C 0.5199(5) 0.66475(19) 0.4890(3)
H37B H 0.5026 0.7049 0.4664
H38B H 0.4513 0.6478 0.5002
H39B H 0.5803 0.6685 0.5349
C28B C 0.8368(10) 0.6502(7) 0.5337(8)
H40B H 0.8771 0.6833 0.5159
H41B H 0.7838 0.6673 0.5602
H42B H 0.8921 0.6240 0.5671
C29B C 0.8586(4) 0.5921(2) 0.4259(3)
H43B H 0.8183 0.5693 0.3821
H44B H 0.8959 0.6275 0.4106
H45B H 0.9160 0.5660 0.4577
C30B C 0.77082(15) 0.50581(10) 0.53184(11)
C31B C 0.79873(16) 0.50447(11) 0.61069(11)
C32B C 0.85178(18) 0.45218(12) 0.64618(12)
H46B H 0.8730 0.4507 0.6987
C33B C 0.87381(19) 0.40284(12) 0.60638(13)
H47B H 0.9107 0.3679 0.6313
C34B C 0.84152(19) 0.40446(12) 0.52905(13)
H48B H 0.8559 0.3699 0.5024
C35B C 0.78871(16) 0.45527(11) 0.48950(11)
C36B C 0.76853(17) 0.55529(11) 0.65785(11)
H49B H 0.7387 0.5903 0.6245
C37B C 0.87292(18) 0.57787(12) 0.71779(12)
H50B H 0.9359 0.5864 0.6951
H51B H 0.8528 0.6151 0.7404
H52B H 0.8963 0.5465 0.7558
C38B C 0.67462(18) 0.53536(12) 0.69443(12)
H53B H 0.6077 0.5220 0.6563
H54B H 0.7025 0.5018 0.7286
H55B H 0.6535 0.5696 0.7218
C39B C 0.74907(19) 0.45224(11) 0.40427(12)
H56B H 0.7191 0.4932 0.3858
C40B C 0.8488(2) 0.43712(14) 0.37067(14)
H57B H 0.8793 0.3970 0.3878
H58B H 0.8220 0.4369 0.3166
H59B H 0.9087 0.4678 0.3861
C41B C 0.6529(2) 0.40612(13) 0.37883(13)
H60B H 0.6282 0.4060 0.3247
H61B H 0.6803 0.3656 0.3964
H62B H 0.5886 0.4172 0.3991
C42B C 0.53167(15) 0.51943(9) 0.49268(10)
C43 C 0.9771(16) 0.2313(9) 0.7791(8)
H63 H 1.0578 0.2443 0.7912
H64 H 0.9729 0.1872 0.7884
C44 C 0.9072(7) 0.2683(7) 0.8213(7)
H65 H 0.9191 0.3125 0.8172
H66 H 0.9238 0.2565 0.8740
C45 C 0.7866(8) 0.2487(11) 0.7784(7)
H67 H 0.7280 0.2777 0.7856
H68 H 0.7678 0.2075 0.7928
C46 C 0.7987(7) 0.2500(8) 0.6981(8)
H69 H 0.7594 0.2148 0.6697
H70 H 0.7662 0.2879 0.6728
O1 O 0.9183(9) 0.2471(8) 0.7050(8)
O2 O 0.0612(3) 0.25632(12) 0.61171(18)
H71 H 0.1281(15) 0.2561(15) 0.6462(14)
H72 H 0.022(2) 0.2503(13) 0.6464(14)
N1 N 0.29150(13) 0.43311(8) 0.00669(8)
C1 C 0.40555(15) 0.43344(9) 0.02507(10)
C2 C 0.45528(17) 0.37699(10) 0.06898(12)
C3 C 0.3501(2) 0.33459(16) 0.05361(19)
H1 H 0.3500 0.3101 0.0980
H2 H 0.3510 0.3066 0.0123
C4 C 0.24197(17) 0.37658(10) 0.03303(11)
C5 C 0.5038(5) 0.3924(4) 0.1510(3)
H3 H 0.5676 0.4207 0.1562
H4 H 0.5305 0.3551 0.1786
H5 H 0.4442 0.4111 0.1706
C6 C 0.5508(4) 0.3487(4) 0.0371(4)
H6 H 0.5206 0.3406 -0.0158
H7 H 0.5771 0.3106 0.0629
H8 H 0.6148 0.3772 0.0441
C7 C 0.1950(4) 0.3894(2) 0.0988(2)
H9 H 0.1607 0.3523 0.1127
H10 H 0.1370 0.4213 0.0862
H11 H 0.2568 0.4029 0.1404
C8 C 0.1478(5) 0.3481(5) -0.0306(3)
H12 H 0.1815 0.3350 -0.0705
H13 H 0.0884 0.3784 -0.0497
H14 H 0.1142 0.3130 -0.0117
C9 C 0.22779(15) 0.48348(10) -0.03493(11)
C10 C 0.20182(16) 0.53411(10) 0.00465(11)
C11 C 0.14484(17) 0.58261(11) -0.03754(12)
H15 H 0.1250 0.6170 -0.0128
C12 C 0.11610(18) 0.58210(11) -0.11498(12)
H16 H 0.0770 0.6156 -0.1419
C13 C 0.14493(17) 0.53248(11) -0.15218(11)
H17 H 0.1257 0.5324 -0.2047
C14 C 0.20186(16) 0.48254(10) -0.11367(11)
C15 C 0.23627(17) 0.53930(10) 0.08971(11)
H18 H 0.2691 0.4994 0.1102
C16 C 0.3276(2) 0.58812(12) 0.11577(13)
H19 H 0.2973 0.6278 0.0965
H20 H 0.3946 0.5784 0.0976
H21 H 0.3495 0.5894 0.1699
C17 C 0.1322(2) 0.55216(12) 0.11965(13)
H22 H 0.1001 0.5919 0.1018
H23 H 0.1551 0.5523 0.1738
H24 H 0.0747 0.5205 0.1025
C18 C 0.23557(17) 0.43095(11) -0.15841(11)
H25 H 0.2688 0.3975 -0.1234
C19 C 0.32667(19) 0.45181(12) -0.19693(12)
H26 H 0.2965 0.4852 -0.2309
H27 H 0.3475 0.4178 -0.2247
H28 H 0.3942 0.4658 -0.1598
C20 C 0.13227(19) 0.40506(13) -0.21645(13)
H29 H 0.1564 0.3697 -0.2406
H30 H 0.1017 0.4363 -0.2535
H31 H 0.0732 0.3927 -0.1920
C21 C 0.46892(15) 0.48006(9) 0.00713(11)
N1B N 0.70850(13) 0.56689(8) -0.00669(8)
C1B C 0.59445(15) 0.56656(9) -0.02507(10)
C2B C 0.54472(17) 0.62301(10) -0.06898(12)
C3B C 0.6499(2) 0.66541(16) -0.05361(19)
H1B H 0.6500 0.6899 -0.0980
H2B H 0.6490 0.6934 -0.0123
C4B C 0.75803(17) 0.62342(10) -0.03303(11)
C5B C 0.4962(5) 0.6076(4) -0.1510(3)
H3B H 0.4324 0.5793 -0.1562
H4B H 0.4695 0.6449 -0.1786
H5B H 0.5558 0.5889 -0.1706
C6B C 0.4492(4) 0.6513(4) -0.0371(4)
H6B H 0.4794 0.6594 0.0158
H7B H 0.4229 0.6894 -0.0629
H8B H 0.3852 0.6228 -0.0441
C7B C 0.8050(4) 0.6106(2) -0.0988(2)
H9B H 0.8393 0.6477 -0.1127
H10B H 0.8630 0.5787 -0.0862
H11B H 0.7432 0.5971 -0.1404
C8B C 0.8522(5) 0.6519(5) 0.0306(3)
H12B H 0.8185 0.6650 0.0705
H13B H 0.9116 0.6216 0.0497
H14B H 0.8858 0.6870 0.0117
C9B C 0.77221(15) 0.51652(10) 0.03493(11)
C10B C 0.79818(16) 0.46589(10) -0.00465(11)
C11B C 0.85516(17) 0.41739(11) 0.03754(12)
H15B H 0.8750 0.3830 0.0128
C12B C 0.88390(18) 0.41790(11) 0.11498(12)
H16B H 0.9230 0.3844 0.1419
C13B C 0.85507(17) 0.46752(11) 0.15218(11)
H17B H 0.8743 0.4676 0.2047
C14B C 0.79814(16) 0.51746(10) 0.11367(11)
C15B C 0.76373(17) 0.46070(10) -0.08971(11)
H18B H 0.7309 0.5006 -0.1102
C16B C 0.6724(2) 0.41188(12) -0.11577(13)
H19B H 0.7027 0.3722 -0.0965
H20B H 0.6054 0.4216 -0.0976
H21B H 0.6505 0.4106 -0.1699
C17B C 0.8678(2) 0.44784(12) -0.11965(13)
H22B H 0.8999 0.4081 -0.1018
H23B H 0.8449 0.4477 -0.1738
H24B H 0.9253 0.4795 -0.1025
C18B C 0.76443(17) 0.56905(11) 0.15841(11)
H25B H 0.7312 0.6025 0.1234
C19B C 0.67333(19) 0.54819(12) 0.19693(12)
H26B H 0.7035 0.5148 0.2309
H27B H 0.6525 0.5822 0.2247
H28B H 0.6058 0.5342 0.1598
C20B C 0.86773(19) 0.59494(13) 0.21645(13)
H29B H 0.8436 0.6303 0.2406
H30B H 0.8983 0.5637 0.2535
H31B H 0.9268 0.6073 0.1920
C21B C 0.53108(15) 0.51994(9) -0.00713(11)
C47? C 0.3443(7) 0.3501(7) 0.0855(9)
H73? H 0.3437 0.3053 0.0800
H74? H 0.3427 0.3598 0.1370
C48? C 0.5364(14) 0.3994(11) 0.1475(10)
H75? H 0.4964 0.4303 0.1692
H76? H 0.6068 0.4167 0.1396
H77? H 0.5551 0.3647 0.1813
C49? C 0.5148(16) 0.3413(13) 0.0283(12)
H78? H 0.4606 0.3235 -0.0144
H79? H 0.5559 0.3088 0.0599
H80? H 0.5693 0.3669 0.0113
C50? C 0.1780(16) 0.3406(16) -0.0304(10)
H81? H 0.1255 0.3672 -0.0650
H82? H 0.1347 0.3088 -0.0129
H83? H 0.2314 0.3219 -0.0554
C51? C 0.1503(12) 0.3990(8) 0.0793(9)
H84? H 0.1106 0.3636 0.0926
H85? H 0.0947 0.4266 0.0485
H86? H 0.1910 0.4201 0.1244
C52? C 0.3347(7) 0.3362(4) 0.5449(6)
H87? H 0.3328 0.3085 0.5863
H88? H 0.3316 0.3118 0.4999
C53? C 0.4933(13) 0.3881(10) 0.6477(12)
H89? H 0.5199 0.3494 0.6721
H90? H 0.4354 0.4056 0.6698
H91? H 0.5577 0.4162 0.6541
C54? C 0.5425(9) 0.3466(5) 0.5314(7)
H92? H 0.6087 0.3737 0.5417
H93? H 0.5148 0.3407 0.4779
H94? H 0.5646 0.3072 0.5554
C55? C 0.139(3) 0.3590(16) 0.458(2)
H95? H 0.1033 0.3224 0.4717
H96? H 0.1798 0.3489 0.4206
H97? H 0.0803 0.3894 0.4382
C56? C 0.1892(11) 0.3953(7) 0.5965(7)
H98? H 0.1424 0.4322 0.5910
H99? H 0.2550 0.3998 0.6391
H100? H 0.1437 0.3603 0.6041
C57? C 0.9748(6) 0.2419(6) 0.7860(5)
H101? H 1.0220 0.2784 0.7846
H102? H 1.0255 0.2088 0.8108
C58? C 0.8862(15) 0.2560(11) 0.8294(8)
H103? H 0.9146 0.2849 0.8706
H104? H 0.8554 0.2191 0.8475
C59? C 0.8019(10) 0.2854(6) 0.7628(7)
H105? H 0.8311 0.3241 0.7477
H106? H 0.7259 0.2920 0.7721
C60? C 0.8007(12) 0.2339(9) 0.7066(12)
H107? H 0.7641 0.1969 0.7199
H108? H 0.7601 0.2466 0.6560
O3? O 0.9185(8) 0.2239(5) 0.7120(6)
O4? O 0.894(2) 0.2462(7) 0.4891(11)
C61? C 0.4731(3) 0.23758(15) 0.30338(19)
S1? S 0.32637(11) 0.25606(9) 0.29567(11)
F1? F 0.4888(2) 0.17772(10) 0.30095(17)
F2? F 0.5089(3) 0.25991(16) 0.2470(2)
F3? F 0.5430(3) 0.2568(2) 0.3655(2)
O5? O 0.2685(3) 0.2307(2) 0.2242(2)
O6? O 0.3283(3) 0.32089(14) 0.2986(3)
O7? O 0.3042(3) 0.22549(17) 0.35851(16)
C62? C 0.4791(13) 0.2577(8) 0.3023(9)
S2? S 0.3330(13) 0.2477(8) 0.2990(8)
F4? F 0.5086(18) 0.2306(12) 0.2462(13)
F5? F 0.5069(16) 0.3161(9) 0.2986(13)
F6? F 0.5486(16) 0.2359(13) 0.3637(12)
O8? O 0.320(2) 0.1825(8) 0.3026(15)
O9? O 0.2760(15) 0.2744(10) 0.2276(9)
O10? O 0.3184(19) 0.2813(13) 0.3623(10)
C63? C 0.4588(13) 0.2269(6) 0.3238(8)
S3? S 0.3310(12) 0.2650(7) 0.2856(8)
F7? F 0.4431(14) 0.1740(6) 0.3559(10)
F8? F 0.5170(16) 0.2122(11) 0.2743(10)
F9? F 0.5324(15) 0.2577(8) 0.3768(10)
O11? O 0.2651(18) 0.2212(11) 0.2323(13)
O12? O 0.363(2) 0.3187(8) 0.2512(12)
O13? O 0.2830(18) 0.2765(12) 0.3477(11)
loop_
_geom_bond_atom_site_label_1
_geom_bond_atom_site_label_2
_geom_bond_site_symmetry_1
_geom_bond_site_symmetry_2
N1 C1 1_555 1_555
C1 C2 1_555 1_555
C2 C3 1_555 1_555
C3 H1 1_555 1_555
H2 C3 1_555 1_555
C4 N1 1_555 1_555
C5 C2 1_555 1_555
H3 C5 1_555 1_555
H4 C5 1_555 1_555
H5 C5 1_555 1_555
C6 C2 1_555 1_555
H6 C6 1_555 1_555
H7 C6 1_555 1_555
H8 C6 1_555 1_555
C7 C4 1_555 1_555
H9 C7 1_555 1_555
H10 C7 1_555 1_555
H11 C7 1_555 1_555
C8 C4 1_555 1_555
H12 C8 1_555 1_555
H13 C8 1_555 1_555
H14 C8 1_555 1_555
C9 N1 1_555 1_555
C10 C9 1_555 1_555
C11 C10 1_555 1_555
H15 C11 1_555 1_555
C12 C11 1_555 1_555
H16 C12 1_555 1_555
C13 C12 1_555 1_555
H17 C13 1_555 1_555
C14 C9 1_555 1_555
C15 C10 1_555 1_555
H18 C15 1_555 1_555
C16 C15 1_555 1_555
H19 C16 1_555 1_555
H20 C16 1_555 1_555
H21 C16 1_555 1_555
C17 C15 1_555 1_555
H22 C17 1_555 1_555
H23 C17 1_555 1_555
H24 C17 1_555 1_555
C18 C14 1_555 1_555
H25 C18 1_555 1_555
C19 C18 1_555 1_555
H26 C19 1_555 1_555
H27 C19 1_555 1_555
H28 C19 1_555 1_555
C20 C18 1_555 1_555
H29 C20 1_555 1_555
H30 C20 1_555 1_555
H31 C20 1_555 1_555
C21 C1 1_555 1_555
N2 C22 1_555 1_555
C22 C23 1_555 1_555
C23 C24 1_555 1_555
C24 H32 1_555 1_555
H33 C24 1_555 1_555
C25 N2 1_555 1_555
C26 C23 1_555 1_555
H34 C26 1_555 1_555
H35 C26 1_555 1_555
H36 C26 1_555 1_555
C27 C23 1_555 1_555
H37 C27 1_555 1_555
H38 C27 1_555 1_555
H39 C27 1_555 1_555
C28 C25 1_555 1_555
H40 C28 1_555 1_555
H41 C28 1_555 1_555
H42 C28 1_555 1_555
C29 C25 1_555 1_555
H43 C29 1_555 1_555
H44 C29 1_555 1_555
H45 C29 1_555 1_555
C30 N2 1_555 1_555
C31 C30 1_555 1_555
C32 C31 1_555 1_555
H46 C32 1_555 1_555
C33 C32 1_555 1_555
H47 C33 1_555 1_555
C34 C33 1_555 1_555
H48 C34 1_555 1_555
C35 C30 1_555 1_555
C36 C31 1_555 1_555
H49 C36 1_555 1_555
C37 C36 1_555 1_555
H50 C37 1_555 1_555
H51 C37 1_555 1_555
H52 C37 1_555 1_555
C38 C36 1_555 1_555
H53 C38 1_555 1_555
H54 C38 1_555 1_555
H55 C38 1_555 1_555
C39 C35 1_555 1_555
H56 C39 1_555 1_555
C40 C39 1_555 1_555
H57 C40 1_555 1_555
H58 C40 1_555 1_555
H59 C40 1_555 1_555
C41 C39 1_555 1_555
H60 C41 1_555 1_555
H61 C41 1_555 1_555
H62 C41 1_555 1_555
C42 C22 1_555 1_555
C43 H63 1_555 1_555
H64 C43 1_555 1_555
C44 C43 1_555 1_555
H65 C44 1_555 1_555
H66 C44 1_555 1_555
C45 C44 1_555 1_555
H67 C45 1_555 1_555
H68 C45 1_555 1_555
C46 C45 1_555 1_555
H69 C46 1_555 1_555
H70 C46 1_555 1_555
O1 C43 1_555 1_555
O2 H71 1_555 1_555
H72 O2 1_555 1_555
N1B C1B 1_555 1_555
C1B C2B 1_555 1_555
C2B C3B 1_555 1_555
C3B H1B 1_555 1_555
H2B C3B 1_555 1_555
C4B N1B 1_555 1_555
C5B C2B 1_555 1_555
H3B C5B 1_555 1_555
H4B C5B 1_555 1_555
H5B C5B 1_555 1_555
C6B C2B 1_555 1_555
H6B C6B 1_555 1_555
H7B C6B 1_555 1_555
H8B C6B 1_555 1_555
C7B C4B 1_555 1_555
H9B C7B 1_555 1_555
H10B C7B 1_555 1_555
H11B C7B 1_555 1_555
C8B C4B 1_555 1_555
H12B C8B 1_555 1_555
H13B C8B 1_555 1_555
H14B C8B 1_555 1_555
C9B N1B 1_555 1_555
C10B C9B 1_555 1_555
C11B C10B 1_555 1_555
H15B C11B 1_555 1_555
C12B C11B 1_555 1_555
H16B C12B 1_555 1_555
C13B C12B 1_555 1_555
H17B C13B 1_555 1_555
C14B C9B 1_555 1_555
C15B C10B 1_555 1_555
H18B C15B 1_555 1_555
C16B C15B 1_555 1_555
H19B C16B 1_555 1_555
H20B C16B 1_555 1_555
H21B C16B 1_555 1_555
C17B C15B 1_555 1_555
H22B C17B 1_555 1_555
H23B C17B 1_555 1_555
H24B C17B 1_555 1_555
C18B C14B 1_555 1_555
H25B C18B 1_555 1_555
C19B C18B 1_555 1_555
H26B C19B 1_555 1_555
H27B C19B 1_555 1_555
H28B C19B 1_555 1_555
C20B C18B 1_555 1_555
H29B C20B 1_555 1_555
H30B C20B 1_555 1_555
H31B C20B 1_555 1_555
C21B C21 1_555 1_555
N2B C22B 1_555 1_555
C22B C23B 1_555 1_555
C23B C24B 1_555 1_555
C24B H32B 1_555 1_555
H33B C24B 1_555 1_555
C25B N2B 1_555 1_555
C26B C23B 1_555 1_555
H34B C26B 1_555 1_555
H35B C26B 1_555 1_555
H36B C26B 1_555 1_555
C27B C23B 1_555 1_555
H37B C27B 1_555 1_555
H38B C27B 1_555 1_555
H39B C27B 1_555 1_555
C28B C25B 1_555 1_555
H40B C28B 1_555 1_555
H41B C28B 1_555 1_555
H42B C28B 1_555 1_555
C29B C25B 1_555 1_555
H43B C29B 1_555 1_555
H44B C29B 1_555 1_555
H45B C29B 1_555 1_555
C30B N2B 1_555 1_555
C31B C30B 1_555 1_555
C32B C31B 1_555 1_555
H46B C32B 1_555 1_555
C33B C32B 1_555 1_555
H47B C33B 1_555 1_555
C34B C33B 1_555 1_555
H48B C34B 1_555 1_555
C35B C30B 1_555 1_555
C36B C31B 1_555 1_555
H49B C36B 1_555 1_555
C37B C36B 1_555 1_555
H50B C37B 1_555 1_555
H51B C37B 1_555 1_555
H52B C37B 1_555 1_555
C38B C36B 1_555 1_555
H53B C38B 1_555 1_555
H54B C38B 1_555 1_555
H55B C38B 1_555 1_555
C39B C35B 1_555 1_555
H56B C39B 1_555 1_555
C40B C39B 1_555 1_555
H57B C40B 1_555 1_555
H58B C40B 1_555 1_555
H59B C40B 1_555 1_555
C41B C39B 1_555 1_555
H60B C41B 1_555 1_555
H61B C41B 1_555 1_555
H62B C41B 1_555 1_555
C42B C42 1_555 1_555
C3 C4 1_555 1_555
C13 C14 1_555 1_555
C24 C25 1_555 1_555
C34 C35 1_555 1_555
C46 O1 1_555 1_555
C1B C21B 1_555 1_555
C3B C4B 1_555 1_555
C13B C14B 1_555 1_555
C22B C42B 1_555 1_555
C24B C25B 1_555 1_555
C34B C35B 1_555 1_555

#END
