
#######################################################################
#
#                 Cambridge Crystallographic Data Centre
#                                CCDC 
#
#######################################################################
#
# If this CIF has been generated from an entry in the Cambridge 
# Structural Database, then it will include bibliographic, chemical, 
# crystal, experimental, refinement or atomic coordinate data resulting 
# from the CCDC's data processing and validation procedures.
#
#######################################################################

data_ROHZIZ
_chemical_formula_moiety         'C24 H19 N1'
_chemical_name_systematic        8-(2,3-diphenylprop-2-en-1-yl)quinoline
_symmetry_cell_setting           monoclinic
_symmetry_space_group_name_H-M   'P 21/c'
_symmetry_Int_Tables_number      14
_space_group_name_Hall           '-P 2ybc'
loop_
_symmetry_equiv_pos_site_id
_symmetry_equiv_pos_as_xyz
1 x,y,z
2 -x,1/2+y,1/2-z
3 -x,-y,-z
4 x,1/2-y,1/2+z
_cell_length_a                   16.812(10)
_cell_length_b                   7.062(4)
_cell_length_c                   15.877(9)
_cell_angle_alpha                90
_cell_angle_beta                 111.247(8)
_cell_angle_gamma                90
_cell_volume                     1756.89
_exptl_crystal_colour            colorless
_exptl_crystal_description       Prism
_cell_formula_units_Z            4
loop_
_atom_site_label
_atom_site_type_symbol
_atom_site_fract_x
_atom_site_fract_y
_atom_site_fract_z
N1 N 0.02388(7) 0.82411(16) 0.08921(7)
C1 C -0.04912(9) 0.7966(2) 0.02161(9)
H1 H -0.0698 0.8949 -0.0217
C2 C -0.09827(9) 0.6304(2) 0.00979(9)
H2 H -0.1504 0.6184 -0.0403
C3 C -0.07039(8) 0.4868(2) 0.07090(9)
H3 H -0.1026 0.3735 0.0638
C4 C 0.00712(8) 0.50898(19) 0.14497(9)
C5 C 0.03960(8) 0.3683(2) 0.21208(9)
H4 H 0.0107 0.2507 0.2067
C6 C 0.11256(9) 0.4015(2) 0.28466(9)
H5 H 0.1336 0.3080 0.3304
C7 C 0.15703(8) 0.5744(2) 0.29216(9)
H6 H 0.2072 0.5955 0.3437
C8 C 0.12984(8) 0.71297(19) 0.22711(9)
C9 C 0.05266(8) 0.68187(19) 0.15221(9)
C10 C 0.17880(8) 0.89599(19) 0.23718(9)
H7 H 0.2102 0.9186 0.3024
H8 H 0.1372 1.0004 0.2145
C11 C 0.24240(8) 0.90670(18) 0.18890(8)
C12 C 0.30827(8) 1.05753(19) 0.22534(8)
C13 C 0.28548(8) 1.24663(19) 0.22784(9)
H9 H 0.2270 1.2818 0.2041
C14 C 0.34718(9) 1.3838(2) 0.26460(9)
H10 H 0.3308 1.5125 0.2647
C15 C 0.43254(9) 1.3349(2) 0.30123(9)
H11 H 0.4747 1.4291 0.3271
C16 C 0.45597(9) 1.1471(2) 0.29988(9)
H12 H 0.5145 1.1124 0.3251
C17 C 0.39446(8) 1.0095(2) 0.26197(9)
H13 H 0.4113 0.8813 0.2610
C18 C 0.23989(8) 0.78947(19) 0.12176(9)
H14 H 0.1979 0.6925 0.1081
C19 C 0.29399(8) 0.7912(2) 0.06601(9)
C20 C 0.31207(8) 0.6196(2) 0.03252(9)
H15 H 0.2897 0.5051 0.0463
C21 C 0.36223(9) 0.6136(2) -0.02055(9)
H16 H 0.3741 0.4958 -0.0424
C22 C 0.39455(9) 0.7792(2) -0.04122(10)
H17 H 0.4296 0.7754 -0.0766
C23 C 0.37612(9) 0.9507(2) -0.01062(9)
H18 H 0.3979 1.0647 -0.0256
C24 C 0.32576(9) 0.9569(2) 0.04210(9)
H19 H 0.3128 1.0757 0.0621
loop_
_geom_bond_atom_site_label_1
_geom_bond_atom_site_label_2
_geom_bond_site_symmetry_1
_geom_bond_site_symmetry_2
N1 C1 1_555 1_555
C1 H1 1_555 1_555
C2 C1 1_555 1_555
H2 C2 1_555 1_555
C3 C2 1_555 1_555
H3 C3 1_555 1_555
C4 C3 1_555 1_555
C5 C4 1_555 1_555
H4 C5 1_555 1_555
C6 C5 1_555 1_555
H5 C6 1_555 1_555
C7 C6 1_555 1_555
H6 C7 1_555 1_555
C8 C7 1_555 1_555
C9 N1 1_555 1_555
C10 C8 1_555 1_555
H7 C10 1_555 1_555
H8 C10 1_555 1_555
C11 C10 1_555 1_555
C12 C11 1_555 1_555
C13 C12 1_555 1_555
H9 C13 1_555 1_555
C14 C13 1_555 1_555
H10 C14 1_555 1_555
C15 C14 1_555 1_555
H11 C15 1_555 1_555
C16 C15 1_555 1_555
H12 C16 1_555 1_555
C17 C12 1_555 1_555
H13 C17 1_555 1_555
C18 C11 1_555 1_555
H14 C18 1_555 1_555
C19 C18 1_555 1_555
C20 C19 1_555 1_555
H15 C20 1_555 1_555
C21 C20 1_555 1_555
H16 C21 1_555 1_555
C22 C21 1_555 1_555
H17 C22 1_555 1_555
C23 C22 1_555 1_555
H18 C23 1_555 1_555
C24 C19 1_555 1_555
H19 C24 1_555 1_555
C4 C9 1_555 1_555
C8 C9 1_555 1_555
C16 C17 1_555 1_555
C23 C24 1_555 1_555

#END
