
#######################################################################
#
#                 Cambridge Crystallographic Data Centre
#                                CCDC 
#
#######################################################################
#
# If this CIF has been generated from an entry in the Cambridge 
# Structural Database, then it will include bibliographic, chemical, 
# crystal, experimental, refinement or atomic coordinate data resulting 
# from the CCDC's data processing and validation procedures.
#
#######################################################################

data_ROKBUQ
_chemical_formula_moiety         'C16 H16 Cl1 N1 O2'
_chemical_name_systematic        
5-chloro-1-(5-phenoxypent-1-en-3-yl)pyridin-2(1H)-one
_symmetry_cell_setting           triclinic
_symmetry_space_group_name_H-M   'P 1'
_symmetry_Int_Tables_number      1
_space_group_name_Hall           'P 1'
loop_
_symmetry_equiv_pos_site_id
_symmetry_equiv_pos_as_xyz
1 x,y,z
_cell_length_a                   5.4602(2)
_cell_length_b                   11.4029(5)
_cell_length_c                   12.0574(5)
_cell_angle_alpha                103.410(2)
_cell_angle_beta                 94.113(2)
_cell_angle_gamma                92.040(3)
_cell_volume                     727.314
_exptl_crystal_colour            white
_exptl_crystal_description       plate
_cell_formula_units_Z            2
loop_
_atom_site_label
_atom_site_type_symbol
_atom_site_fract_x
_atom_site_fract_y
_atom_site_fract_z
C1 C 0.7392(5) 0.2549(3) -0.1325(2)
H1 H 0.6436 0.3197 -0.1440
C2 C 0.6843(5) 0.1430(3) -0.1979(2)
C3 C 0.8258(6) 0.0466(3) -0.1814(2)
H2 H 0.7864 -0.0328 -0.2264
C4 C 1.0180(6) 0.0679(3) -0.1010(3)
H3 H 1.1120 0.0023 -0.0904
C5 C 1.0853(5) 0.1868(3) -0.0309(2)
C6 C 1.1942(5) 0.4441(3) -0.1481(2)
H4 H 1.1846 0.3607 -0.1851
H5 H 1.2662 0.5014 -0.1838
C7 C 1.1074(5) 0.4805(3) -0.0471(2)
H6 H 1.1213 0.5647 -0.0137
C8 C 0.9888(5) 0.4015(2) 0.0202(2)
H7 H 1.1141 0.3952 0.0829
C9 C 0.7640(5) 0.4554(3) 0.0789(2)
H8 H 0.8006 0.5425 0.1128
H9 H 0.6230 0.4473 0.0208
C10 C 0.6941(5) 0.3943(3) 0.1712(2)
H10 H 0.5359 0.4229 0.1997
H11 H 0.6765 0.3057 0.1411
C11 C 0.8639(5) 0.3830(2) 0.3579(2)
C12 C 0.6640(5) 0.3118(3) 0.3748(2)
H12 H 0.5320 0.2881 0.3172
C13 C 0.6608(5) 0.2762(3) 0.4770(2)
H13 H 0.5243 0.2279 0.4889
C14 C 0.8505(5) 0.3091(3) 0.5620(2)
H14 H 0.8451 0.2837 0.6315
C15 C 1.0500(5) 0.3801(3) 0.5441(2)
H15 H 1.1822 0.4031 0.6017
C16 C 1.0569(5) 0.4172(3) 0.4432(2)
H16 H 1.1931 0.4660 0.4317
N1 N 0.9315(4) 0.27675(19) -0.04913(18)
O1 O 1.2620(4) 0.21101(19) 0.04243(18)
O2 O 0.8876(3) 0.42534(17) 0.26128(16)
Cl1 Cl 0.44109(12) 0.11770(7) -0.30302(6)
C17 C 0.5789(5) 0.8841(3) 0.3342(2)
H17 H 0.6677 0.9602 0.3517
C18 C 0.6433(5) 0.8001(3) 0.3921(2)
C19 C 0.5120(6) 0.6868(3) 0.3651(3)
H18 H 0.5599 0.6259 0.4030
C20 C 0.3192(6) 0.6652(3) 0.2859(3)
H19 H 0.2311 0.5889 0.2700
C21 C 0.2412(5) 0.7537(2) 0.2243(2)
C22 C 0.1516(5) 1.0719(3) 0.3614(3)
H20 H 0.1764 1.0085 0.3994
H21 H 0.0799 1.1435 0.3991
C23 C 0.2166(5) 1.0605(2) 0.2567(3)
H22 H 0.1879 1.1264 0.2225
C24 C 0.3319(5) 0.9537(2) 0.1855(2)
H23 H 0.2065 0.9152 0.1216
C25 C 0.5585(5) 0.9885(2) 0.1300(2)
H24 H 0.5203 1.0561 0.0939
H25 H 0.6948 1.0169 0.1900
C26 C 0.6409(5) 0.8845(3) 0.0406(2)
H26 H 0.8028 0.9056 0.0162
H27 H 0.6558 0.8118 0.0718
C27 C 0.5008(5) 0.7742(2) -0.1500(2)
C28 C 0.3318(5) 0.7631(3) -0.2436(2)
H28 H 0.1963 0.8135 -0.2393
C29 C 0.3615(5) 0.6779(3) -0.3438(3)
H29 H 0.2455 0.6699 -0.4081
C30 C 0.5588(5) 0.6045(3) -0.3508(2)
H30 H 0.5794 0.5466 -0.4196
C31 C 0.7251(5) 0.6163(3) -0.2571(2)
H31 H 0.8600 0.5655 -0.2619
C32 C 0.6999(5) 0.7009(3) -0.1557(2)
H32 H 0.8162 0.7085 -0.0916
N2 N 0.3877(4) 0.86140(19) 0.25068(18)
O3 O 0.0628(4) 0.73898(17) 0.15297(18)
O4 O 0.4579(3) 0.86193(18) -0.05459(16)
Cl2 Cl 0.88478(13) 0.83158(7) 0.49779(7)
loop_
_geom_bond_atom_site_label_1
_geom_bond_atom_site_label_2
_geom_bond_site_symmetry_1
_geom_bond_site_symmetry_2
C1 H1 1_555 1_555
C2 C1 1_555 1_555
C3 C2 1_555 1_555
H2 C3 1_555 1_555
C4 C3 1_555 1_555
H3 C4 1_555 1_555
C5 C4 1_555 1_555
C6 H4 1_555 1_555
H5 C6 1_555 1_555
C7 C6 1_555 1_555
H6 C7 1_555 1_555
C8 C7 1_555 1_555
H7 C8 1_555 1_555
C9 C8 1_555 1_555
H8 C9 1_555 1_555
H9 C9 1_555 1_555
C10 C9 1_555 1_555
H10 C10 1_555 1_555
H11 C10 1_555 1_555
C11 C12 1_555 1_555
C12 H12 1_555 1_555
C13 C12 1_555 1_555
H13 C13 1_555 1_555
C14 C13 1_555 1_555
H14 C14 1_555 1_555
C15 C14 1_555 1_555
H15 C15 1_555 1_555
C16 C11 1_555 1_555
H16 C16 1_555 1_555
N1 C1 1_555 1_555
O1 C5 1_555 1_555
O2 C10 1_555 1_555
Cl1 C2 1_555 1_555
C17 H17 1_555 1_555
C18 C17 1_555 1_555
C19 C18 1_555 1_555
H18 C19 1_555 1_555
C20 C19 1_555 1_555
H19 C20 1_555 1_555
C21 C20 1_555 1_555
C22 H20 1_555 1_555
H21 C22 1_555 1_555
C23 C22 1_555 1_555
H22 C23 1_555 1_555
C24 C23 1_555 1_555
H23 C24 1_555 1_555
C25 C24 1_555 1_555
H24 C25 1_555 1_555
H25 C25 1_555 1_555
C26 C25 1_555 1_555
H26 C26 1_555 1_555
H27 C26 1_555 1_555
C27 C28 1_555 1_555
C28 H28 1_555 1_555
C29 C28 1_555 1_555
H29 C29 1_555 1_555
C30 C29 1_555 1_555
H30 C30 1_555 1_555
C31 C30 1_555 1_555
H31 C31 1_555 1_555
C32 C27 1_555 1_555
H32 C32 1_555 1_555
N2 C17 1_555 1_555
O3 C21 1_555 1_555
O4 C26 1_555 1_555
Cl2 C18 1_555 1_555
C5 N1 1_555 1_555
C8 N1 1_555 1_555
C11 O2 1_555 1_555
C15 C16 1_555 1_555
C21 N2 1_555 1_555
C24 N2 1_555 1_555
C27 O4 1_555 1_555
C31 C32 1_555 1_555

#END
