
#######################################################################
#
#                 Cambridge Crystallographic Data Centre
#                                CCDC 
#
#######################################################################
#
# If this CIF has been generated from an entry in the Cambridge 
# Structural Database, then it will include bibliographic, chemical, 
# crystal, experimental, refinement or atomic coordinate data resulting 
# from the CCDC's data processing and validation procedures.
#
#######################################################################

data_ROKBIE
_chemical_name_common            
'O6-chaplet[3]arene[3]tetrazine acetone solvate hemihydrate'
_chemical_formula_moiety         'C24 H12 N12 O6,2(C3 H6 O1),0.5(H2 O1)'
_chemical_name_systematic        
'2,7,12,17,22,27-hexaoxa-4,5,14,15,24,25,33,34,37,38,41,42-dodecaazaheptacyclo[26.2.2.2^3,6^.2^8,11^.2^13,16^.2^18,21^.2^23,26^]dotetraconta-1(30),3,5,8,10,13,15,18,20,23,25,28,31,33,35,37,39,41-octadecaene acetone solvate hemihydrate'
_symmetry_cell_setting           monoclinic
_symmetry_space_group_name_H-M   'P 21/c'
_symmetry_Int_Tables_number      14
_space_group_name_Hall           '-P 2ybc'
loop_
_symmetry_equiv_pos_site_id
_symmetry_equiv_pos_as_xyz
1 x,y,z
2 -x,1/2+y,1/2-z
3 -x,-y,-z
4 x,1/2-y,1/2+z
_cell_length_a                   16.522(3)
_cell_length_b                   22.180(4)
_cell_length_c                   19.328(4)
_cell_angle_alpha                90
_cell_angle_beta                 112.90(3)
_cell_angle_gamma                90
_cell_volume                     6524.66
_exptl_crystal_colour            red
_exptl_crystal_description       block
_cell_formula_units_Z            8
loop_
_atom_site_label
_atom_site_type_symbol
_atom_site_fract_x
_atom_site_fract_y
_atom_site_fract_z
O1 O 0.22517(16) 0.57472(10) 0.60468(14)
O2 O 0.32544(15) 0.63329(10) 0.39053(13)
O3 O 0.48976(16) 0.46403(10) 0.27819(13)
O4 O 0.56902(15) 0.25195(10) 0.40190(14)
O5 O 0.43923(15) 0.18091(9) 0.61428(13)
O6 O 0.28420(16) 0.34137(10) 0.71656(13)
N1 N 0.22993(18) 0.64289(12) 0.52025(16)
N2 N 0.25548(18) 0.65756(12) 0.46560(16)
N3 N 0.34601(17) 0.57009(12) 0.49075(15)
N4 N 0.32005(18) 0.55518(12) 0.54623(15)
N5 N 0.56160(18) 0.37589(12) 0.29110(15)
N6 N 0.58165(18) 0.32201(13) 0.32275(16)
N7 N 0.49102(19) 0.34017(12) 0.39122(16)
N8 N 0.47080(19) 0.39447(12) 0.35929(16)
N9 N 0.38248(17) 0.20819(12) 0.69825(15)
N10 N 0.34233(17) 0.24901(12) 0.72370(15)
N11 N 0.34595(17) 0.31890(11) 0.63107(15)
N12 N 0.38543(17) 0.27753(11) 0.60511(15)
C1 C 0.2589(2) 0.58969(14) 0.55363(18)
C2 C 0.3075(2) 0.61774(14) 0.45033(18)
C3 C 0.3682(2) 0.58908(14) 0.36339(18)
C4 C 0.4560(2) 0.59409(16) 0.3805(2)
H1 H 0.4889 0.6261 0.4113
C5 C 0.4964(2) 0.55159(15) 0.3522(2)
H2 H 0.5577 0.5539 0.3638
C6 C 0.4472(2) 0.50634(15) 0.30761(18)
C7 C 0.3582(2) 0.50266(18) 0.2886(2)
H3 H 0.3248 0.4716 0.2562
C8 C 0.3179(2) 0.54469(17) 0.3172(2)
H4 H 0.2565 0.5429 0.3050
C9 C 0.5067(2) 0.40930(15) 0.31126(18)
C10 C 0.5449(2) 0.30718(14) 0.37140(18)
C11 C 0.5345(2) 0.23351(13) 0.4557(2)
C12 C 0.4491(2) 0.21256(14) 0.43108(19)
H5 H 0.4135 0.2102 0.3790
C13 C 0.4167(2) 0.19515(14) 0.48404(18)
H6 H 0.3580 0.1811 0.4691
C14 C 0.4713(2) 0.19855(13) 0.55916(18)
C15 C 0.5569(2) 0.21793(14) 0.5833(2)
H7 H 0.5934 0.2190 0.6353
C16 C 0.5888(2) 0.23587(14) 0.5300(2)
H8 H 0.6476 0.2496 0.5449
C17 C 0.4003(2) 0.22460(13) 0.63893(17)
C18 C 0.3250(2) 0.30228(14) 0.68758(18)
C19 C 0.2686(2) 0.40006(14) 0.68605(19)
C20 C 0.3140(2) 0.44647(15) 0.73191(19)
H9 H 0.3547 0.4386 0.7816
C21 C 0.2997(2) 0.50507(15) 0.70442(19)
H10 H 0.3302 0.5379 0.7351
C22 C 0.2409(2) 0.51471(15) 0.6326(2)
C23 C 0.1943(2) 0.46853(16) 0.5867(2)
H11 H 0.1534 0.4766 0.5371
C24 C 0.2082(2) 0.40997(16) 0.6141(2)
H12 H 0.1767 0.3773 0.5837
O7 O 0.31878(14) 0.72246(10) 0.24693(12)
O8 O 0.48431(13) 0.58356(10) 0.12774(13)
O9 O 0.29190(15) 0.42903(10) -0.10284(13)
O10 O -0.04966(16) 0.43661(11) -0.20546(14)
O11 O -0.22147(15) 0.60707(12) -0.10213(15)
O12 O -0.04208(15) 0.75426(11) 0.11222(14)
N13 N 0.44554(17) 0.68734(12) 0.24460(15)
N14 N 0.48718(17) 0.65171(12) 0.21504(16)
N15 N 0.35062(17) 0.61596(12) 0.12569(16)
N16 N 0.30790(17) 0.65212(12) 0.15576(16)
N17 N 0.1602(2) 0.38929(12) -0.17459(17)
N18 N 0.0738(2) 0.39136(13) -0.20033(17)
N19 N 0.08095(19) 0.47587(14) -0.12260(17)
N20 N 0.16903(19) 0.47405(13) -0.09658(17)
N21 N -0.21827(19) 0.68360(15) -0.02547(18)
N22 N -0.17330(19) 0.72117(15) 0.02944(18)
N23 N -0.04262(18) 0.66627(13) 0.04962(17)
N24 N -0.08855(18) 0.62865(13) -0.00609(17)
C25 C 0.3572(2) 0.68590(14) 0.21283(17)
C26 C 0.4371(2) 0.61804(14) 0.15625(18)
C27 C 0.43561(19) 0.54369(14) 0.06873(19)
C28 C 0.4175(2) 0.56100(14) -0.0038(2)
H13 H 0.4376 0.5987 -0.0142
C29 C 0.3696(2) 0.52264(15) -0.0617(2)
H14 H 0.3565 0.5333 -0.1125
C30 C 0.3413(2) 0.46867(14) -0.04395(18)
C31 C 0.3626(2) 0.45049(14) 0.02900(19)
H15 H 0.3446 0.4121 0.0396
C32 C 0.4105(2) 0.48889(14) 0.08669(19)
H16 H 0.4258 0.4776 0.1376
C33 C 0.2034(2) 0.43215(14) -0.12507(18)
C34 C 0.0381(2) 0.43618(15) -0.17492(18)
C35 C -0.0922(2) 0.48080(16) -0.17824(19)
C36 C -0.1295(3) 0.46311(18) -0.1299(2)
H17 H -0.1261 0.4222 -0.1143
C37 C -0.1726(3) 0.50537(19) -0.1037(2)
H18 H -0.1996 0.4939 -0.0704
C38 C -0.1755(2) 0.56374(17) -0.1266(2)
C39 C -0.1409(2) 0.58073(17) -0.1773(2)
H19 H -0.1463 0.6212 -0.1945
C40 C -0.0981(2) 0.53867(17) -0.2036(2)
H20 H -0.0732 0.5498 -0.2385
C41 C -0.1723(2) 0.64129(16) -0.0429(2)
C42 C -0.0863(2) 0.71266(16) 0.06072(19)
C43 C 0.0505(2) 0.74649(15) 0.14643(19)
C44 C 0.0857(2) 0.71876(15) 0.21521(19)
H21 H 0.0490 0.7053 0.2396
C45 C 0.1760(2) 0.71073(15) 0.24839(18)
H22 H 0.2022 0.6917 0.2960
C46 C 0.2268(2) 0.73072(14) 0.21130(18)
C47 C 0.1918(2) 0.76050(15) 0.1436(2)
H23 H 0.2287 0.7756 0.1202
C48 C 0.1017(3) 0.76801(15) 0.1104(2)
H24 H 0.0756 0.7878 0.0632
O13 O 0.14850(17) 0.53861(12) 0.40299(16)
H25 H 0.0934 0.5383 0.3819
H26 H 0.1563 0.5011 0.4054
O14 O -0.1822(2) 0.58316(14) -0.38145(18)
C49 C -0.3309(3) 0.59424(18) -0.4646(2)
H27 H -0.3461 0.6224 -0.5069
H28 H -0.3783 0.5935 -0.4461
H29 H -0.3230 0.5538 -0.4813
C50 C -0.2482(3) 0.61399(17) -0.4035(2)
C51 C -0.2487(3) 0.67430(19) -0.3699(3)
H30 H -0.2885 0.6736 -0.3433
H31 H -0.2688 0.7047 -0.4099
H32 H -0.1892 0.6843 -0.3346
O15 O -0.0869(2) 0.77025(15) -0.07293(18)
C52 C -0.1097(3) 0.76105(16) -0.2009(2)
H33 H -0.0670 0.7373 -0.2131
H34 H -0.1319 0.7940 -0.2371
H35 H -0.1587 0.7351 -0.2032
C53 C -0.0665(3) 0.78641(18) -0.1238(2)
C54 C 0.0022(3) 0.8333(2) -0.1121(2)
H36 H 0.0218 0.8490 -0.0608
H37 H -0.0222 0.8663 -0.1479
H38 H 0.0523 0.8155 -0.1199
O16 O 0.0441(2) 0.50024(14) -0.3050(2)
C55 C 0.0158(3) 0.5729(2) -0.4007(3)
H39 H -0.0157 0.5396 -0.4335
H40 H 0.0606 0.5886 -0.4175
H41 H -0.0258 0.6051 -0.4029
C56 C 0.0583(3) 0.5510(2) -0.3230(3)
C57 C 0.1200(4) 0.5918(2) -0.2657(3)
H42 H 0.0871 0.6251 -0.2558
H43 H 0.1630 0.6079 -0.2843
H44 H 0.1506 0.5692 -0.2192
O17 O 0.0503(3) 0.6675(2) -0.1486(3)
C58 C 0.1978(5) 0.6854(4) -0.0748(5)
H45 H 0.2159 0.7107 -0.0297
H46 H 0.1939 0.7102 -0.1180
H47 H 0.2410 0.6533 -0.0675
C59 C 0.1118(6) 0.6588(6) -0.0887(7)
C60 C 0.1092(5) 0.6143(3) -0.0331(4)
H48 H 0.0493 0.5987 -0.0482
H49 H 0.1272 0.6337 0.0162
H50 H 0.1494 0.5811 -0.0303
O18? O 0.0959(8) 0.7021(6) -0.1381(7)
C61? C 0.0913(13) 0.6431(8) -0.0366(11)
H51? H 0.1253 0.6087 -0.0081
H52? H 0.0296 0.6313 -0.0625
H53? H 0.0954 0.6765 -0.0022
C62? C 0.2189(11) 0.6421(9) -0.0819(13)
H54? H 0.2614 0.6567 -0.0335
H55? H 0.2335 0.6587 -0.1226
H56? H 0.2211 0.5980 -0.0831
C63? C 0.1263(14) 0.6623(14) -0.0920(16)
loop_
_geom_bond_atom_site_label_1
_geom_bond_atom_site_label_2
_geom_bond_site_symmetry_1
_geom_bond_site_symmetry_2
O1 C1 1_555 1_555
O2 C2 1_555 1_555
O3 C6 1_555 1_555
O4 C10 1_555 1_555
O5 C14 1_555 1_555
O6 C18 1_555 1_555
N1 N2 1_555 1_555
N2 C2 1_555 1_555
N3 N4 1_555 1_555
N4 C1 1_555 1_555
N5 N6 1_555 1_555
N6 C10 1_555 1_555
N7 N8 1_555 1_555
N8 C9 1_555 1_555
N9 N10 1_555 1_555
N10 C18 1_555 1_555
N11 N12 1_555 1_555
N12 C17 1_555 1_555
C1 N1 1_555 1_555
C2 N3 1_555 1_555
C3 O2 1_555 1_555
C4 C3 1_555 1_555
H1 C4 1_555 1_555
C5 C4 1_555 1_555
H2 C5 1_555 1_555
C6 C5 1_555 1_555
C7 C6 1_555 1_555
H3 C7 1_555 1_555
C8 C3 1_555 1_555
H4 C8 1_555 1_555
C9 O3 1_555 1_555
C10 N7 1_555 1_555
C11 O4 1_555 1_555
C12 C11 1_555 1_555
H5 C12 1_555 1_555
C13 C12 1_555 1_555
H6 C13 1_555 1_555
C14 C13 1_555 1_555
C15 C14 1_555 1_555
H7 C15 1_555 1_555
C16 C11 1_555 1_555
H8 C16 1_555 1_555
C17 O5 1_555 1_555
C18 N11 1_555 1_555
C19 O6 1_555 1_555
C20 C19 1_555 1_555
H9 C20 1_555 1_555
C21 C20 1_555 1_555
H10 C21 1_555 1_555
C22 O1 1_555 1_555
C23 C22 1_555 1_555
H11 C23 1_555 1_555
C24 C19 1_555 1_555
H12 C24 1_555 1_555
O7 C25 1_555 1_555
O8 C26 1_555 1_555
O9 C30 1_555 1_555
O10 C34 1_555 1_555
O11 C38 1_555 1_555
O12 C42 1_555 1_555
N13 N14 1_555 1_555
N14 C26 1_555 1_555
N15 N16 1_555 1_555
N16 C25 1_555 1_555
N17 N18 1_555 1_555
N18 C34 1_555 1_555
N19 N20 1_555 1_555
N20 C33 1_555 1_555
N21 N22 1_555 1_555
N22 C42 1_555 1_555
N23 N24 1_555 1_555
N24 C41 1_555 1_555
C25 N13 1_555 1_555
C26 N15 1_555 1_555
C27 O8 1_555 1_555
C28 C27 1_555 1_555
H13 C28 1_555 1_555
C29 C28 1_555 1_555
H14 C29 1_555 1_555
C30 C29 1_555 1_555
C31 C30 1_555 1_555
H15 C31 1_555 1_555
C32 C27 1_555 1_555
H16 C32 1_555 1_555
C33 O9 1_555 1_555
C34 N19 1_555 1_555
C35 O10 1_555 1_555
C36 C35 1_555 1_555
H17 C36 1_555 1_555
C37 C36 1_555 1_555
H18 C37 1_555 1_555
C38 C37 1_555 1_555
C39 C38 1_555 1_555
H19 C39 1_555 1_555
C40 C35 1_555 1_555
H20 C40 1_555 1_555
C41 O11 1_555 1_555
C42 N23 1_555 1_555
C43 O12 1_555 1_555
C44 C43 1_555 1_555
H21 C44 1_555 1_555
C45 C44 1_555 1_555
H22 C45 1_555 1_555
C46 O7 1_555 1_555
C47 C46 1_555 1_555
H23 C47 1_555 1_555
C48 C43 1_555 1_555
H24 C48 1_555 1_555
O13 H25 1_555 1_555
H26 O13 1_555 1_555
O14 C50 1_555 1_555
C49 H27 1_555 1_555
H28 C49 1_555 1_555
H29 C49 1_555 1_555
C50 C49 1_555 1_555
C51 C50 1_555 1_555
H30 C51 1_555 1_555
H31 C51 1_555 1_555
H32 C51 1_555 1_555
O15 C53 1_555 1_555
C52 H33 1_555 1_555
H34 C52 1_555 1_555
H35 C52 1_555 1_555
C53 C52 1_555 1_555
C54 C53 1_555 1_555
H36 C54 1_555 1_555
H37 C54 1_555 1_555
H38 C54 1_555 1_555
O16 C56 1_555 1_555
C55 H39 1_555 1_555
H40 C55 1_555 1_555
H41 C55 1_555 1_555
C56 C55 1_555 1_555
C57 C56 1_555 1_555
H42 C57 1_555 1_555
H43 C57 1_555 1_555
H44 C57 1_555 1_555
O17 C59 1_555 1_555
C58 H45 1_555 1_555
H46 C58 1_555 1_555
H47 C58 1_555 1_555
C59 C58 1_555 1_555
C60 C59 1_555 1_555
H48 C60 1_555 1_555
H49 C60 1_555 1_555
H50 C60 1_555 1_555
N5 C9 1_555 1_555
N9 C17 1_555 1_555
C7 C8 1_555 1_555
C15 C16 1_555 1_555
C21 C22 1_555 1_555
C23 C24 1_555 1_555
N17 C33 1_555 1_555
N21 C41 1_555 1_555
C31 C32 1_555 1_555
C39 C40 1_555 1_555
C45 C46 1_555 1_555
C47 C48 1_555 1_555

#END
