
#######################################################################
#
#                 Cambridge Crystallographic Data Centre
#                                CCDC 
#
#######################################################################
#
# If this CIF has been generated from an entry in the Cambridge 
# Structural Database, then it will include bibliographic, chemical, 
# crystal, experimental, refinement or atomic coordinate data resulting 
# from the CCDC's data processing and validation procedures.
#
#######################################################################

data_ROKKIN
_chemical_formula_moiety         'C30 H36 N2 O2 Si1'
_chemical_name_systematic        
3',7'-bis(diethylamino)-5',5'-dimethyl-3H,5'H-spiro[2-benzofuran-1,10'-dibenzo[b,e]silin]-3-one
_symmetry_cell_setting           orthorhombic
_symmetry_space_group_name_H-M   'P n a 21'
_symmetry_Int_Tables_number      33
_space_group_name_Hall           'P 2c -2n'
loop_
_symmetry_equiv_pos_site_id
_symmetry_equiv_pos_as_xyz
1 x,y,z
2 -x,-y,1/2+z
3 1/2+x,1/2-y,z
4 1/2-x,1/2+y,1/2+z
_cell_length_a                   22.481(5)
_cell_length_b                   12.174(2)
_cell_length_c                   20.069(4)
_cell_angle_alpha                90
_cell_angle_beta                 90
_cell_angle_gamma                90
_cell_volume                     5492.56
_exptl_crystal_colour            colorless
_exptl_crystal_description       block
_cell_formula_units_Z            8
loop_
_atom_site_label
_atom_site_type_symbol
_atom_site_fract_x
_atom_site_fract_y
_atom_site_fract_z
C1 C 0.63683(14) 0.2585(3) 0.5793(2)
H1 H 0.6280 0.2569 0.6271
H2 H 0.6465 0.1841 0.5640
H3 H 0.6020 0.2856 0.5549
C2 C 0.71477(16) 0.3582(3) 0.47336(16)
H4 H 0.6797 0.3883 0.4509
H5 H 0.7232 0.2845 0.4560
H6 H 0.7490 0.4061 0.4652
C3 C 0.69001(13) 0.4889(3) 0.60057(16)
C4 C 0.65849(14) 0.5702(3) 0.56670(18)
H7 H 0.6410 0.5521 0.5250
C5 C 0.65132(16) 0.6769(3) 0.59096(19)
C6 C 0.67695(16) 0.6989(3) 0.6519(2)
H8 H 0.6736 0.7707 0.6701
C7 C 0.70730(15) 0.6196(3) 0.68730(17)
H9 H 0.7230 0.6376 0.7298
C8 C 0.71557(13) 0.5142(3) 0.66259(16)
C9 C 0.6107(3) 0.8658(5) 0.5880(3)
H10 H 0.5754 0.9009 0.5676
H11 H 0.6029 0.8566 0.6362
C10 C 0.6629(5) 0.9362(5) 0.5784(4)
H12 H 0.6970 0.9046 0.6021
H13 H 0.6546 1.0097 0.5961
H14 H 0.6721 0.9414 0.5308
C11 C 0.5936(3) 0.7367(4) 0.4916(3)
H15 H 0.5939 0.8053 0.4651
H16 H 0.6172 0.6809 0.4673
C12 C 0.5328(4) 0.6983(7) 0.4992(4)
H17 H 0.5327 0.6278 0.5228
H18 H 0.5147 0.6888 0.4551
H19 H 0.5099 0.7523 0.5247
C13 C 0.74623(14) 0.4272(3) 0.70510(15)
C14 C 0.78529(13) 0.3449(2) 0.66922(14)
C15 C 0.83722(14) 0.3059(3) 0.69845(15)
H20 H 0.8501 0.3369 0.7394
C16 C 0.87052(14) 0.2234(3) 0.66974(16)
H21 H 0.9062 0.2000 0.6908
C17 C 0.85293(15) 0.1736(3) 0.61040(18)
C18 C 0.80137(14) 0.2152(3) 0.58115(15)
H22 H 0.7888 0.1847 0.5399
C19 C 0.76743(13) 0.2986(2) 0.60879(15)
C20 C 0.93949(18) 0.0459(3) 0.6120(2)
H23 H 0.9369 0.0500 0.6612
H24 H 0.9448 -0.0321 0.5995
C21 C 0.99033(18) 0.1083(4) 0.5897(3)
H25 H 0.9956 0.0979 0.5416
H26 H 1.0260 0.0829 0.6131
H27 H 0.9839 0.1864 0.5991
C22 C 0.8624(2) 0.0287(4) 0.5235(2)
H28 H 0.8777 -0.0476 0.5241
H29 H 0.8184 0.0252 0.5248
C23 C 0.8808(2) 0.0814(5) 0.4631(3)
H30 H 0.8649 0.1563 0.4618
H31 H 0.8658 0.0398 0.4248
H32 H 0.9244 0.0841 0.4614
C24 C 0.77512(13) 0.4766(3) 0.76634(17)
C25 C 0.82294(14) 0.5469(3) 0.7708(2)
H33 H 0.8436 0.5708 0.7322
C26 C 0.83969(18) 0.5813(3) 0.8336(3)
H34 H 0.8717 0.6316 0.8381
C27 C 0.8110(2) 0.5443(4) 0.8897(2)
H35 H 0.8241 0.5684 0.9322
C28 C 0.7637(2) 0.4733(4) 0.88563(19)
H36 H 0.7441 0.4473 0.9245
C29 C 0.74548(16) 0.4405(3) 0.82190(17)
C30 C 0.69744(16) 0.3681(3) 0.80308(18)
N1 N 0.88395(13) 0.0871(3) 0.58297(16)
N2 N 0.62081(17) 0.7572(3) 0.5571(2)
O1 O 0.69679(8) 0.36064(16) 0.73593(11)
O2 O 0.66147(11) 0.3203(2) 0.83675(12)
Si1 Si 0.70053(4) 0.34987(7) 0.56393(5)
C31 C 0.04787(17) 0.3478(3) 0.71689(19)
H37 H 0.0678 0.3724 0.6761
H38 H 0.0131 0.3032 0.7052
H39 H 0.0755 0.3038 0.7436
C32 C -0.02013(15) 0.4196(3) 0.83842(18)
H40 H -0.0537 0.3752 0.8228
H41 H -0.0351 0.4827 0.8636
H42 H 0.0054 0.3748 0.8672
C33 C 0.08812(13) 0.5552(2) 0.79077(14)
C34 C 0.14412(13) 0.5093(2) 0.79882(15)
H43 H 0.1482 0.4319 0.7945
C35 C 0.19473(15) 0.5716(3) 0.81301(15)
C36 C 0.18571(14) 0.6836(3) 0.82245(16)
H44 H 0.2185 0.7290 0.8340
C37 C 0.12979(14) 0.7302(2) 0.81534(14)
H45 H 0.1250 0.8066 0.8232
C38 C 0.08077(13) 0.6684(2) 0.79713(14)
C39 C 0.30208(17) 0.5909(3) 0.7975(2)
H46 H 0.3385 0.5578 0.8167
H47 H 0.2983 0.6660 0.8159
C40 C 0.3092(2) 0.5984(5) 0.7239(3)
H48 H 0.3467 0.5637 0.7107
H49 H 0.3095 0.6758 0.7104
H50 H 0.2760 0.5606 0.7021
C41 C 0.25741(17) 0.4062(3) 0.8141(2)
H51 H 0.2198 0.3718 0.8290
H52 H 0.2634 0.3861 0.7668
C42 C 0.3061(2) 0.3601(4) 0.8532(3)
H53 H 0.3435 0.3958 0.8404
H54 H 0.3089 0.2810 0.8447
H55 H 0.2985 0.3726 0.9007
C43 C 0.02083(13) 0.7232(2) 0.78595(14)
C44 C -0.01326(13) 0.6809(3) 0.72564(14)
C45 C -0.01725(13) 0.5684(2) 0.71131(15)
C46 C -0.04762(14) 0.5339(3) 0.65559(16)
H56 H -0.0491 0.4574 0.6464
C47 C -0.07636(15) 0.6053(3) 0.61200(17)
C48 C -0.07440(16) 0.7154(3) 0.62856(17)
H57 H -0.0948 0.7671 0.6015
C49 C -0.04322(15) 0.7519(3) 0.68407(17)
H58 H -0.0425 0.8283 0.6937
C50 C -0.1286(2) 0.6490(4) 0.5047(2)
H59 H -0.1028 0.7150 0.5030
H60 H -0.1279 0.6142 0.4601
C51 C -0.1888(2) 0.6822(5) 0.5201(3)
H61 H -0.2141 0.6170 0.5237
H62 H -0.2038 0.7300 0.4846
H63 H -0.1892 0.7221 0.5625
C52 C -0.1066(2) 0.4551(3) 0.53714(19)
H64 H -0.1422 0.4422 0.5092
H65 H -0.1111 0.4112 0.5784
C53 C -0.0527(3) 0.4161(4) 0.5002(3)
H66 H -0.0536 0.4446 0.4546
H67 H -0.0524 0.3356 0.4991
H68 H -0.0168 0.4425 0.5228
C54 C 0.02260(13) 0.8466(3) 0.78961(16)
C55 C 0.05197(15) 0.9224(3) 0.75041(18)
H69 H 0.0758 0.8990 0.7140
C56 C 0.04627(17) 1.0324(3) 0.7648(2)
H70 H 0.0667 1.0852 0.7385
C57 C 0.0115(2) 1.0662(4) 0.8167(3)
H71 H 0.0083 1.1426 0.8258
C58 C -0.01881(18) 0.9929(4) 0.8559(2)
H72 H -0.0437 1.0168 0.8913
C59 C -0.01138(15) 0.8819(3) 0.84153(18)
C60 C -0.03628(16) 0.7872(3) 0.87588(18)
N3 N 0.25091(13) 0.5265(2) 0.81861(15)
N4 N -0.10409(14) 0.5704(3) 0.55471(15)
O3 O -0.01673(8) 0.69468(18) 0.84545(10)
O4 O -0.06840(12) 0.7822(2) 0.92360(14)
Si2 Si 0.02355(4) 0.46896(7) 0.76564(5)
loop_
_geom_bond_atom_site_label_1
_geom_bond_atom_site_label_2
_geom_bond_site_symmetry_1
_geom_bond_site_symmetry_2
C1 H1 1_555 1_555
H2 C1 1_555 1_555
H3 C1 1_555 1_555
C2 H4 1_555 1_555
H5 C2 1_555 1_555
H6 C2 1_555 1_555
C3 C4 1_555 1_555
C4 H7 1_555 1_555
C5 C4 1_555 1_555
C6 C5 1_555 1_555
H8 C6 1_555 1_555
C7 C6 1_555 1_555
H9 C7 1_555 1_555
C8 C3 1_555 1_555
C9 H10 1_555 1_555
H11 C9 1_555 1_555
C10 C9 1_555 1_555
H12 C10 1_555 1_555
H13 C10 1_555 1_555
H14 C10 1_555 1_555
C11 H15 1_555 1_555
H16 C11 1_555 1_555
C12 C11 1_555 1_555
H17 C12 1_555 1_555
H18 C12 1_555 1_555
H19 C12 1_555 1_555
C13 C8 1_555 1_555
C14 C13 1_555 1_555
C15 C14 1_555 1_555
H20 C15 1_555 1_555
C16 C15 1_555 1_555
H21 C16 1_555 1_555
C17 C16 1_555 1_555
C18 C17 1_555 1_555
H22 C18 1_555 1_555
C19 C14 1_555 1_555
C20 H23 1_555 1_555
H24 C20 1_555 1_555
C21 C20 1_555 1_555
H25 C21 1_555 1_555
H26 C21 1_555 1_555
H27 C21 1_555 1_555
C22 H28 1_555 1_555
H29 C22 1_555 1_555
C23 C22 1_555 1_555
H30 C23 1_555 1_555
H31 C23 1_555 1_555
H32 C23 1_555 1_555
C24 C13 1_555 1_555
C25 C24 1_555 1_555
H33 C25 1_555 1_555
C26 C25 1_555 1_555
H34 C26 1_555 1_555
C27 C26 1_555 1_555
H35 C27 1_555 1_555
C28 C27 1_555 1_555
H36 C28 1_555 1_555
C29 C24 1_555 1_555
C30 C29 1_555 1_555
N1 C17 1_555 1_555
N2 C5 1_555 1_555
O1 C13 1_555 1_555
O2 C30 1_555 1_555
Si1 C1 1_555 1_555
C31 H37 1_555 1_555
H38 C31 1_555 1_555
H39 C31 1_555 1_555
C32 H40 1_555 1_555
H41 C32 1_555 1_555
H42 C32 1_555 1_555
C33 C34 1_555 1_555
C34 H43 1_555 1_555
C35 C34 1_555 1_555
C36 C35 1_555 1_555
H44 C36 1_555 1_555
C37 C36 1_555 1_555
H45 C37 1_555 1_555
C38 C33 1_555 1_555
C39 H46 1_555 1_555
H47 C39 1_555 1_555
C40 C39 1_555 1_555
H48 C40 1_555 1_555
H49 C40 1_555 1_555
H50 C40 1_555 1_555
C41 H51 1_555 1_555
H52 C41 1_555 1_555
C42 C41 1_555 1_555
H53 C42 1_555 1_555
H54 C42 1_555 1_555
H55 C42 1_555 1_555
C43 C38 1_555 1_555
C44 C43 1_555 1_555
C45 C44 1_555 1_555
C46 C45 1_555 1_555
H56 C46 1_555 1_555
C47 C46 1_555 1_555
C48 C47 1_555 1_555
H57 C48 1_555 1_555
C49 C44 1_555 1_555
H58 C49 1_555 1_555
C50 H59 1_555 1_555
H60 C50 1_555 1_555
C51 C50 1_555 1_555
H61 C51 1_555 1_555
H62 C51 1_555 1_555
H63 C51 1_555 1_555
C52 H64 1_555 1_555
H65 C52 1_555 1_555
C53 C52 1_555 1_555
H66 C53 1_555 1_555
H67 C53 1_555 1_555
H68 C53 1_555 1_555
C54 C43 1_555 1_555
C55 C54 1_555 1_555
H69 C55 1_555 1_555
C56 C55 1_555 1_555
H70 C56 1_555 1_555
C57 C56 1_555 1_555
H71 C57 1_555 1_555
C58 C57 1_555 1_555
H72 C58 1_555 1_555
C59 C54 1_555 1_555
C60 C59 1_555 1_555
N3 C35 1_555 1_555
N4 C47 1_555 1_555
O3 C43 1_555 1_555
O4 C60 1_555 1_555
Si2 C31 1_555 1_555
C2 Si1 1_555 1_555
C3 Si1 1_555 1_555
C7 C8 1_555 1_555
C9 N2 1_555 1_555
C11 N2 1_555 1_555
C18 C19 1_555 1_555
C19 Si1 1_555 1_555
C20 N1 1_555 1_555
C22 N1 1_555 1_555
C28 C29 1_555 1_555
C30 O1 1_555 1_555
C32 Si2 1_555 1_555
C33 Si2 1_555 1_555
C37 C38 1_555 1_555
C39 N3 1_555 1_555
C41 N3 1_555 1_555
C45 Si2 1_555 1_555
C48 C49 1_555 1_555
C50 N4 1_555 1_555
C52 N4 1_555 1_555
C58 C59 1_555 1_555
C60 O3 1_555 1_555

#END
