
#######################################################################
#
#                 Cambridge Crystallographic Data Centre
#                                CCDC 
#
#######################################################################
#
# If this CIF has been generated from an entry in the Cambridge 
# Structural Database, then it will include bibliographic, chemical, 
# crystal, experimental, refinement or atomic coordinate data resulting 
# from the CCDC's data processing and validation procedures.
#
#######################################################################

data_ROKREO
_chemical_name_common            (4-Diethylaminophenyl)(2-nitrophenyl)diazene
_chemical_formula_moiety         'C16 H18 N4 O2'
_chemical_name_systematic        2-Nitro-4'-(N,N-diethylamino)azobenzene
_symmetry_cell_setting           orthorhombic
_symmetry_space_group_name_H-M   'P b c n'
_symmetry_Int_Tables_number      60
_space_group_name_Hall           '-P 2n 2ab'
loop_
_symmetry_equiv_pos_site_id
_symmetry_equiv_pos_as_xyz
1 x,y,z
2 1/2-x,1/2-y,1/2+z
3 -x,y,1/2-z
4 1/2+x,1/2-y,-z
5 -x,-y,-z
6 1/2+x,1/2+y,1/2-z
7 x,-y,1/2+z
8 1/2-x,1/2+y,z
_cell_length_a                   17.366(3)
_cell_length_b                   8.196(2)
_cell_length_c                   20.999(4)
_cell_angle_alpha                90
_cell_angle_beta                 90
_cell_angle_gamma                90
_cell_volume                     2988.82
_exptl_crystal_colour            red
_exptl_crystal_description       'hexagonal prism'
_chemical_melting_point          378-379K
_cell_formula_units_Z            8
loop_
_atom_site_label
_atom_site_type_symbol
_atom_site_fract_x
_atom_site_fract_y
_atom_site_fract_z
O1 O 0.14512(11) 0.2480(2) 0.77972(9)
O2 O 0.18483(9) 0.1372(2) 0.69308(8)
N1 N 0.15280(10) 0.1300(3) 0.74511(9)
N2 N 0.02542(10) 0.1017(2) 0.83292(8)
N3 N 0.01142(10) 0.0995(2) 0.89220(8)
N4 N -0.16169(10) 0.6094(2) 0.99597(8)
C1 C 0.12420(12) -0.0287(3) 0.76636(9)
C2 C 0.15914(14) -0.1649(3) 0.74143(11)
C3 C 0.13673(14) -0.3174(4) 0.76144(11)
C4 C 0.07897(15) -0.3322(3) 0.80658(11)
C5 C 0.04417(14) -0.1953(3) 0.83114(11)
C6 C 0.06596(12) -0.0394(3) 0.81224(9)
C7 C -0.03219(12) 0.2328(2) 0.91454(9)
C8 C -0.04541(13) 0.2377(3) 0.97953(10)
C9 C -0.08743(13) 0.3617(3) 1.00651(11)
C10 C -0.11888(12) 0.4876(3) 0.96965(10)
C11 C -0.10452(14) 0.4796(3) 0.90359(10)
C12 C -0.06237(13) 0.3569(3) 0.87702(11)
C13 C -0.16515(14) 0.6346(3) 1.06465(11)
C14 C -0.2336(2) 0.5544(4) 1.09579(15)
C15 C -0.20296(15) 0.7297(3) 0.95741(13)
C16 C -0.1553(2) 0.8789(4) 0.9433(2)
H1 H 0.2002(11) -0.1497(22) 0.7101(9)
H2 H 0.1636(12) -0.4119(25) 0.7462(9)
H3 H 0.0615(12) -0.4405(25) 0.8224(9)
H4 H 0.0059(13) -0.2020(25) 0.8660(11)
H5 H -0.0224(11) 0.1549(23) 1.0064(9)
H6 H -0.0951(10) 0.3608(21) 1.0517(9)
H7 H -0.1233(12) 0.5635(25) 0.8793(9)
H8 H -0.0556(11) 0.3552(21) 0.8331(9)
H9 H -0.1671(11) 0.7545(26) 1.0697(8)
H10 H -0.1142(13) 0.5962(24) 1.0837(9)
H11 H -0.2282(15) 0.4294(35) 1.0903(11)
H12 H -0.2324(13) 0.5834(27) 1.1389(11)
H13 H -0.2824(17) 0.5849(32) 1.0738(12)
H14 H -0.2209(11) 0.6798(25) 0.9159(9)
H15 H -0.2510(13) 0.7627(25) 0.9824(9)
H16 H -0.1083(16) 0.8504(30) 0.9196(12)
H17 H -0.1384(15) 0.9328(31) 0.9854(13)
H18 H -0.1882(20) 0.9575(42) 0.9190(15)
loop_
_geom_bond_atom_site_label_1
_geom_bond_atom_site_label_2
_geom_bond_site_symmetry_1
_geom_bond_site_symmetry_2
O1 N1 1_555 1_555
O2 N1 1_555 1_555
N1 C1 1_555 1_555
N2 N3 1_555 1_555
N3 C7 1_555 1_555
N4 C10 1_555 1_555
C1 C2 1_555 1_555
C2 C3 1_555 1_555
C3 C4 1_555 1_555
C4 C5 1_555 1_555
C5 C6 1_555 1_555
C6 N2 1_555 1_555
C7 C8 1_555 1_555
C8 C9 1_555 1_555
C9 C10 1_555 1_555
C10 C11 1_555 1_555
C11 C12 1_555 1_555
C12 C7 1_555 1_555
C13 N4 1_555 1_555
C14 C13 1_555 1_555
C15 N4 1_555 1_555
C16 C15 1_555 1_555
H1 C2 1_555 1_555
H2 C3 1_555 1_555
H3 C4 1_555 1_555
H4 C5 1_555 1_555
H5 C8 1_555 1_555
H6 C9 1_555 1_555
H7 C11 1_555 1_555
H8 C12 1_555 1_555
H9 C13 1_555 1_555
H10 C13 1_555 1_555
H11 C14 1_555 1_555
H12 C14 1_555 1_555
H13 C14 1_555 1_555
H14 C15 1_555 1_555
H15 C15 1_555 1_555
H16 C16 1_555 1_555
H17 C16 1_555 1_555
H18 C16 1_555 1_555
C1 C6 1_555 1_555

#END
