
#######################################################################
#
#                 Cambridge Crystallographic Data Centre
#                                CCDC 
#
#######################################################################
#
# If this CIF has been generated from an entry in the Cambridge 
# Structural Database, then it will include bibliographic, chemical, 
# crystal, experimental, refinement or atomic coordinate data resulting 
# from the CCDC's data processing and validation procedures.
#
#######################################################################

data_ROKYIA
_chemical_formula_moiety         'C10 H16 N1 O2 1+,Cl1 1-'
_chemical_name_systematic        
'N-Phenyl-N,N-bis(2-hydroxyethyl)ammonium chloride'
_symmetry_cell_setting           monoclinic
_symmetry_space_group_name_H-M   'P 21/c'
_symmetry_Int_Tables_number      14
_space_group_name_Hall           '-P 2ybc'
loop_
_symmetry_equiv_pos_site_id
_symmetry_equiv_pos_as_xyz
1 x,y,z
2 -x,1/2+y,1/2-z
3 -x,-y,-z
4 x,1/2-y,1/2+z
_cell_length_a                   11.2779(9)
_cell_length_b                   9.1011(7)
_cell_length_c                   11.2614(8)
_cell_angle_alpha                90
_cell_angle_beta                 108.768(1)
_cell_angle_gamma                90
_cell_volume                     1094.43
_exptl_crystal_colour            'light green'
_exptl_crystal_description       block
_cell_formula_units_Z            4
loop_
_atom_site_label
_atom_site_type_symbol
_atom_site_fract_x
_atom_site_fract_y
_atom_site_fract_z
Cl1 Cl 0.18910(3) 0.02348(3) 0.42445(2)
O1 O 0.87276(8) -0.23119(10) 0.39587(9)
O2 O 0.87891(9) 0.33242(10) 0.50989(8)
N1 N 0.80556(8) 0.10527(10) 0.30863(9)
C1 C 0.80743(11) -0.17080(13) 0.27601(11)
C2 C 0.85760(11) -0.02325(12) 0.25365(11)
C3 C 0.88365(11) 0.24055(12) 0.30839(11)
C4 C 0.85354(12) 0.36628(13) 0.38131(11)
C5 C 0.66990(10) 0.12638(12) 0.24139(10)
C6 C 0.63177(11) 0.17949(14) 0.11981(11)
C7 C 0.50399(12) 0.19112(16) 0.05640(12)
C8 C 0.41749(12) 0.14928(15) 0.11361(13)
C9 C 0.45741(11) 0.09697(14) 0.23528(12)
C10 C 0.58488(11) 0.08514(13) 0.30065(11)
H1 H 0.8529(17) -0.184(2) 0.4497(18)
H2 H 0.9471(17) 0.3067(19) 0.5362(16)
H3 H 0.8136(14) 0.0826(17) 0.3879(15)
H4 H 0.9697(13) 0.2081(15) 0.3441(12)
H5 H 0.9474(14) -0.0198(15) 0.2920(13)
H6 H 0.8402(14) -0.0034(15) 0.1684(14)
H7 H 0.8707(13) 0.2702(16) 0.2248(14)
H8 H 0.6136(14) 0.0518(16) 0.3832(15)
H9 H 0.3985(15) 0.0678(17) 0.2747(14)
H10 H 0.9015(14) 0.4522(17) 0.3672(14)
H11 H 0.8187(13) -0.2371(17) 0.2160(14)
H12 H 0.7180(14) -0.1646(16) 0.2634(14)
H13 H 0.7656(15) 0.3903(17) 0.3460(14)
H14 H 0.6911(14) 0.2052(17) 0.0808(14)
H15 H 0.3321(15) 0.1570(17) 0.0689(14)
H16 H 0.4802(16) 0.229(2) -0.0300(17)
loop_
_geom_bond_atom_site_label_1
_geom_bond_atom_site_label_2
_geom_bond_site_symmetry_1
_geom_bond_site_symmetry_2
O1 C1 1_555 1_555
O2 C4 1_555 1_555
N1 C2 1_555 1_555
C1 C2 1_555 1_555
C2 H5 1_555 1_555
C3 N1 1_555 1_555
C4 C3 1_555 1_555
C5 N1 1_555 1_555
C6 C5 1_555 1_555
C7 C6 1_555 1_555
C8 C7 1_555 1_555
C9 C8 1_555 1_555
C10 C5 1_555 1_555
H1 O1 1_555 1_555
H2 O2 1_555 1_555
H3 N1 1_555 1_555
H4 C3 1_555 1_555
H6 C2 1_555 1_555
H7 C3 1_555 1_555
H8 C10 1_555 1_555
H9 C9 1_555 1_555
H10 C4 1_555 1_555
H11 C1 1_555 1_555
H12 C1 1_555 1_555
H13 C4 1_555 1_555
H14 C6 1_555 1_555
H15 C8 1_555 1_555
H16 C7 1_555 1_555
C9 C10 1_555 1_555

#END
