
#######################################################################
#
#                 Cambridge Crystallographic Data Centre
#                                CCDC 
#
#######################################################################
#
# If this CIF has been generated from an entry in the Cambridge 
# Structural Database, then it will include bibliographic, chemical, 
# crystal, experimental, refinement or atomic coordinate data resulting 
# from the CCDC's data processing and validation procedures.
#
#######################################################################

data_ROLRIV
_chemical_formula_moiety         'C15 H10 Cl1 N1 O3'
_chemical_name_systematic        
6-(4-Chlorophenoxy)-1-methyl-1H-indole-2,3-dione
_symmetry_cell_setting           monoclinic
_symmetry_space_group_name_H-M   'P 21/c'
_symmetry_Int_Tables_number      14
_space_group_name_Hall           '-P 2ybc'
loop_
_symmetry_equiv_pos_site_id
_symmetry_equiv_pos_as_xyz
1 x,y,z
2 -x,1/2+y,1/2-z
3 -x,-y,-z
4 x,1/2-y,1/2+z
_cell_length_a                   9.2054(10)
_cell_length_b                   19.095(2)
_cell_length_c                   7.5002(8)
_cell_angle_alpha                90
_cell_angle_beta                 97.724(5)
_cell_angle_gamma                90
_cell_volume                     1306.4
_exptl_crystal_colour            colorless
_exptl_crystal_description       Prism
_cell_formula_units_Z            4
loop_
_atom_site_label
_atom_site_type_symbol
_atom_site_fract_x
_atom_site_fract_y
_atom_site_fract_z
Cl1 Cl 0.36870(4) 0.679322(18) 0.40888(5)
O1 O 1.08401(11) 1.18442(5) -0.04796(14)
O2 O 0.91160(11) 1.09045(6) -0.30478(13)
O3 O 0.66901(11) 0.94911(5) 0.39161(13)
N1 N 0.98005(11) 1.11751(6) 0.15744(14)
C1 C 1.00520(14) 1.13767(7) -0.00978(18)
C2 C 0.91173(14) 1.08760(7) -0.14386(18)
C3 C 0.83450(14) 1.04241(7) -0.03179(17)
C4 C 0.87847(13) 1.06240(7) 0.14693(17)
C5 C 0.82429(14) 1.03010(7) 0.28810(18)
H1 H 0.8547 1.0436 0.4093
C6 C 0.72294(14) 0.97678(7) 0.24496(18)
C7 C 0.67599(14) 0.95571(7) 0.06865(18)
H2 H 0.6061 0.9192 0.0443
C8 C 0.73339(14) 0.98922(7) -0.07078(18)
H3 H 0.7033 0.9757 -0.1920
C9 C 1.04205(17) 1.15164(8) 0.3237(2)
H4 H 1.1084 1.1891 0.2966
H5 H 1.0966 1.1173 0.4035
H6 H 0.9629 1.1715 0.3831
C10 C 0.59588(15) 0.88471(7) 0.37886(17)
C11 C 0.66535(15) 0.82459(7) 0.33433(19)
H7 H 0.7604 0.8268 0.2987
C12 C 0.59455(14) 0.76074(7) 0.34228(18)
H8 H 0.6406 0.7186 0.3128
C13 C 0.45581(14) 0.75949(7) 0.39383(18)
C14 C 0.38623(15) 0.81982(7) 0.4364(2)
H9 H 0.2906 0.8178 0.4704
C15 C 0.45716(15) 0.88356(7) 0.42902(19)
H10 H 0.4110 0.9258 0.4580
loop_
_geom_bond_atom_site_label_1
_geom_bond_atom_site_label_2
_geom_bond_site_symmetry_1
_geom_bond_site_symmetry_2
Cl1 C13 1_555 1_555
O1 C1 1_555 1_555
O2 C2 1_555 1_555
O3 C6 1_555 1_555
N1 C1 1_555 1_555
C1 C2 1_555 1_555
C2 C3 1_555 1_555
C3 C4 1_555 1_555
C4 N1 1_555 1_555
C5 C4 1_555 1_555
H1 C5 1_555 1_555
C6 C5 1_555 1_555
C7 C6 1_555 1_555
H2 C7 1_555 1_555
C8 C3 1_555 1_555
H3 C8 1_555 1_555
C9 N1 1_555 1_555
H4 C9 1_555 1_555
H5 C9 1_555 1_555
H6 C9 1_555 1_555
C10 O3 1_555 1_555
C11 C10 1_555 1_555
H7 C11 1_555 1_555
C12 C11 1_555 1_555
H8 C12 1_555 1_555
C13 C12 1_555 1_555
C14 C13 1_555 1_555
H9 C14 1_555 1_555
C15 C10 1_555 1_555
H10 C15 1_555 1_555
C7 C8 1_555 1_555
C14 C15 1_555 1_555

#END
