
#######################################################################
#
#                 Cambridge Crystallographic Data Centre
#                                CCDC 
#
#######################################################################
#
# If this CIF has been generated from an entry in the Cambridge 
# Structural Database, then it will include bibliographic, chemical, 
# crystal, experimental, refinement or atomic coordinate data resulting 
# from the CCDC's data processing and validation procedures.
#
#######################################################################

data_ROMBIF
_chemical_formula_moiety         'C19 H26 O3'
_chemical_name_systematic        
3,3,6,6,9,9-Hexamethyl-2,3,4,5,6,7,8,9-octahydro-1H-xanthene-1,8-dione
_symmetry_cell_setting           monoclinic
_symmetry_space_group_name_H-M   'P 21/c'
_symmetry_Int_Tables_number      14
_space_group_name_Hall           '-P 2ybc'
loop_
_symmetry_equiv_pos_site_id
_symmetry_equiv_pos_as_xyz
1 x,y,z
2 -x,1/2+y,1/2-z
3 -x,-y,-z
4 x,1/2-y,1/2+z
_cell_length_a                   12.1688(19)
_cell_length_b                   11.7055(18)
_cell_length_c                   24.365(4)
_cell_angle_alpha                90
_cell_angle_beta                 103.595(2)
_cell_angle_gamma                90
_cell_volume                     3373.36
_exptl_crystal_colour            colorless
_exptl_crystal_description       block
_cell_formula_units_Z            8
_exptl_crystal_recrystallization_method ethanol
loop_
_atom_site_label
_atom_site_type_symbol
_atom_site_fract_x
_atom_site_fract_y
_atom_site_fract_z
C1 C 0.46830(19) 0.7292(2) 0.14266(11)
C2 C 0.4840(2) 0.8027(2) 0.09431(11)
H1 H 0.4396 0.8718 0.0935
H2 H 0.4545 0.7621 0.0593
C3 C 0.60593(19) 0.83619(19) 0.09702(9)
C4 C 0.64836(19) 0.89530(18) 0.15383(9)
H3 H 0.7297 0.9045 0.1609
H4 H 0.6151 0.9709 0.1521
C5 C 0.76147(19) 0.8708(2) 0.34933(9)
H5 H 0.7522 0.9529 0.3454
H6 H 0.8388 0.8527 0.3483
C6 C 0.74147(19) 0.8344(2) 0.40666(9)
C7 C 0.7276(2) 0.7050(2) 0.40465(10)
H7 H 0.7977 0.6705 0.4006
H8 H 0.7135 0.6790 0.4402
C8 C 0.6324(2) 0.6646(2) 0.35692(11)
C9 C 0.53208(17) 0.67934(18) 0.25027(10)
C10 C 0.54395(17) 0.74911(18) 0.19899(9)
C11 C 0.62087(17) 0.83152(17) 0.20159(9)
C12 C 0.68309(17) 0.81411(18) 0.30053(9)
C13 C 0.61809(17) 0.72250(17) 0.30206(9)
C14 C 0.41224(19) 0.6936(2) 0.26027(12)
H9 H 0.3957 0.7734 0.2626
H10 H 0.4084 0.6566 0.2949
H11 H 0.3580 0.6597 0.2295
C15 C 0.5559(2) 0.55184(19) 0.23925(12)
H12 H 0.5040 0.5265 0.2054
H13 H 0.5463 0.5063 0.2706
H14 H 0.6320 0.5440 0.2350
C16 C 0.8430(2) 0.8683(2) 0.45361(10)
H15 H 0.8306 0.8446 0.4894
H16 H 0.8525 0.9497 0.4536
H17 H 0.9098 0.8320 0.4474
C17 C 0.6351(2) 0.8909(2) 0.41695(10)
H18 H 0.5718 0.8723 0.3865
H19 H 0.6453 0.9723 0.4189
H20 H 0.6213 0.8637 0.4519
C18 C 0.6127(2) 0.9184(2) 0.04973(10)
H21 H 0.5837 0.8820 0.0140
H22 H 0.6900 0.9400 0.0529
H23 H 0.5686 0.9853 0.0525
C19 C 0.6760(2) 0.7294(2) 0.09236(11)
H24 H 0.6739 0.6784 0.1229
H25 H 0.7528 0.7512 0.0941
H26 H 0.6452 0.6918 0.0571
O1 O 0.68792(12) 0.86994(12) 0.25180(6)
O2 O 0.57242(17) 0.58530(16) 0.36467(8)
O3 O 0.39140(15) 0.65934(16) 0.13512(8)
C20 C 0.0368(2) 0.67067(19) 0.14075(11)
C21 C 0.0876(2) 0.7132(2) 0.09394(10)
H27 H 0.0415 0.6872 0.0581
H28 H 0.1624 0.6804 0.0984
C22 C 0.0969(2) 0.84297(19) 0.09278(9)
C23 C 0.16921(19) 0.87919(19) 0.15058(9)
H29 H 0.2480 0.8635 0.1518
H30 H 0.1614 0.9609 0.1550
C24 C 0.23595(19) 0.89884(18) 0.34621(9)
H31 H 0.2042 0.9745 0.3475
H32 H 0.3116 0.9077 0.3404
C25 C 0.24293(19) 0.83916(18) 0.40265(9)
C26 C 0.1227(2) 0.8058(2) 0.40333(10)
H33 H 0.1236 0.7665 0.4385
H34 H 0.0782 0.8748 0.4026
C27 C 0.06587(19) 0.7305(2) 0.35496(10)
C28 C 0.03382(17) 0.68151(17) 0.24750(10)
C29 C 0.07195(17) 0.72731(17) 0.19632(9)
C30 C 0.13723(17) 0.81928(17) 0.19853(9)
C31 C 0.16534(17) 0.83464(17) 0.29759(9)
C32 C 0.09154(17) 0.75143(17) 0.29926(9)
C33 C -0.09545(18) 0.6935(2) 0.23688(11)
H35 H -0.1209 0.6584 0.2673
H36 H -0.1306 0.6566 0.2020
H37 H -0.1154 0.7730 0.2347
C34 C 0.0699(2) 0.55488(18) 0.25848(11)
H38 H 0.1502 0.5485 0.2630
H39 H 0.0320 0.5090 0.2270
H40 H 0.0499 0.5287 0.2922
C35 C 0.2903(3) 0.9214(2) 0.45098(10)
H41 H 0.2427 0.9877 0.4476
H42 H 0.3653 0.9442 0.4493
H43 H 0.2928 0.8842 0.4864
C36 C 0.3184(2) 0.7331(2) 0.40887(11)
H44 H 0.3189 0.6961 0.4441
H45 H 0.3939 0.7554 0.4081
H46 H 0.2895 0.6814 0.3783
C37 C 0.1548(3) 0.8809(3) 0.04655(10)
H47 H 0.2246 0.8400 0.0504
H48 H 0.1700 0.9614 0.0500
H49 H 0.1063 0.8651 0.0102
C38 C -0.0209(2) 0.8958(2) 0.08221(11)
H50 H -0.0663 0.8680 0.0471
H51 H -0.0150 0.9775 0.0805
H52 H -0.0555 0.8753 0.1124
O4 O 0.18654(12) 0.87463(11) 0.24804(6)
O5 O -0.00287(15) 0.65889(16) 0.36175(8)
O6 O -0.02878(17) 0.58965(16) 0.13253(8)
loop_
_geom_bond_atom_site_label_1
_geom_bond_atom_site_label_2
_geom_bond_site_symmetry_1
_geom_bond_site_symmetry_2
C1 C2 1_555 1_555
C2 H1 1_555 1_555
H2 C2 1_555 1_555
C3 C2 1_555 1_555
C4 C3 1_555 1_555
H3 C4 1_555 1_555
H4 C4 1_555 1_555
C5 H5 1_555 1_555
H6 C5 1_555 1_555
C6 C5 1_555 1_555
C7 C6 1_555 1_555
H7 C7 1_555 1_555
H8 C7 1_555 1_555
C8 C7 1_555 1_555
C9 C10 1_555 1_555
C10 C1 1_555 1_555
C11 C4 1_555 1_555
C12 C5 1_555 1_555
C13 C8 1_555 1_555
C14 C9 1_555 1_555
H9 C14 1_555 1_555
H10 C14 1_555 1_555
H11 C14 1_555 1_555
C15 C9 1_555 1_555
H12 C15 1_555 1_555
H13 C15 1_555 1_555
H14 C15 1_555 1_555
C16 C6 1_555 1_555
H15 C16 1_555 1_555
H16 C16 1_555 1_555
H17 C16 1_555 1_555
C17 C6 1_555 1_555
H18 C17 1_555 1_555
H19 C17 1_555 1_555
H20 C17 1_555 1_555
C18 C3 1_555 1_555
H21 C18 1_555 1_555
H22 C18 1_555 1_555
H23 C18 1_555 1_555
C19 C3 1_555 1_555
H24 C19 1_555 1_555
H25 C19 1_555 1_555
H26 C19 1_555 1_555
C20 C21 1_555 1_555
C21 H27 1_555 1_555
H28 C21 1_555 1_555
C22 C21 1_555 1_555
C23 C22 1_555 1_555
H29 C23 1_555 1_555
H30 C23 1_555 1_555
C24 H31 1_555 1_555
H32 C24 1_555 1_555
C25 C24 1_555 1_555
C26 C25 1_555 1_555
H33 C26 1_555 1_555
H34 C26 1_555 1_555
C27 C26 1_555 1_555
C28 C29 1_555 1_555
C29 C20 1_555 1_555
C30 C23 1_555 1_555
C31 C24 1_555 1_555
C32 C27 1_555 1_555
C33 C28 1_555 1_555
H35 C33 1_555 1_555
H36 C33 1_555 1_555
H37 C33 1_555 1_555
C34 C28 1_555 1_555
H38 C34 1_555 1_555
H39 C34 1_555 1_555
H40 C34 1_555 1_555
C35 C25 1_555 1_555
H41 C35 1_555 1_555
H42 C35 1_555 1_555
H43 C35 1_555 1_555
C36 C25 1_555 1_555
H44 C36 1_555 1_555
H45 C36 1_555 1_555
H46 C36 1_555 1_555
C37 C22 1_555 1_555
H47 C37 1_555 1_555
H48 C37 1_555 1_555
H49 C37 1_555 1_555
C38 C22 1_555 1_555
H50 C38 1_555 1_555
H51 C38 1_555 1_555
H52 C38 1_555 1_555
O1 C11 1_555 1_555
O2 C8 1_555 1_555
O3 C1 1_555 1_555
O4 C30 1_555 1_555
O5 C27 1_555 1_555
O6 C20 1_555 1_555
C9 C13 1_555 1_555
C10 C11 1_555 1_555
C12 C13 1_555 1_555
C12 O1 1_555 1_555
C28 C32 1_555 1_555
C29 C30 1_555 1_555
C31 C32 1_555 1_555
C31 O4 1_555 1_555

#END
