
#######################################################################
#
#                 Cambridge Crystallographic Data Centre
#                                CCDC 
#
#######################################################################
#
# If this CIF has been generated from an entry in the Cambridge 
# Structural Database, then it will include bibliographic, chemical, 
# crystal, experimental, refinement or atomic coordinate data resulting 
# from the CCDC's data processing and validation procedures.
#
#######################################################################

data_ROMDOO
_chemical_formula_moiety         'C21 H23 N1 O7'
_chemical_name_systematic        
'triethyl (5-benzoyl-1H-pyrrol-2-yl)methanetricarboxylate'
_symmetry_cell_setting           triclinic
_symmetry_space_group_name_H-M   'P -1'
_symmetry_Int_Tables_number      2
_space_group_name_Hall           '-P 1'
loop_
_symmetry_equiv_pos_site_id
_symmetry_equiv_pos_as_xyz
1 x,y,z
2 -x,-y,-z
_cell_length_a                   8.3690(17)
_cell_length_b                   10.984(2)
_cell_length_c                   11.900(2)
_cell_angle_alpha                84.12(3)
_cell_angle_beta                 72.05(3)
_cell_angle_gamma                79.81(3)
_cell_volume                     1022.91
_exptl_crystal_colour            colorless
_exptl_crystal_description       block
_cell_formula_units_Z            2
_exptl_crystal_recrystallization_method methanol
loop_
_atom_site_label
_atom_site_type_symbol
_atom_site_fract_x
_atom_site_fract_y
_atom_site_fract_z
N1 N -0.1351(2) 0.19491(19) 0.45918(17)
H1 H -0.0482 0.1388 0.4356
O1 O 0.1656(2) 0.3317(2) 0.46267(16)
C1 C 0.0008(3) 0.3623(2) 0.3241(2)
O2 O 0.3009(2) 0.32719(17) 0.26843(15)
C2 C 0.1652(3) 0.3371(2) 0.3621(2)
O3 O 0.0417(3) 0.18740(18) 0.20387(16)
C3 C 0.4649(3) 0.3256(3) 0.2882(3)
H2 H 0.5112 0.2418 0.3084
H3 H 0.4517 0.3773 0.3529
O4 O 0.0670(2) 0.37604(17) 0.11498(15)
C4 C 0.5800(4) 0.3733(4) 0.1782(4)
H4 H 0.6895 0.3723 0.1886
H5 H 0.5339 0.4566 0.1596
H6 H 0.5915 0.3220 0.1146
O5 O -0.1760(2) 0.55084(17) 0.28337(17)
C5 C 0.0382(3) 0.2962(2) 0.2071(2)
O6 O 0.0823(2) 0.56117(17) 0.29761(17)
C6 C 0.1195(4) 0.3243(3) -0.0024(2)
H7 H 0.0840 0.3857 -0.0581
H8 H 0.0640 0.2529 0.0017
O7 O -0.1795(3) -0.0251(2) 0.5972(2)
C7 C 0.3049(5) 0.2873(4) -0.0445(3)
H9 H 0.3360 0.2536 -0.1209
H10 H 0.3400 0.2259 0.0101
H11 H 0.3598 0.3584 -0.0501
C8 C -0.0440(3) 0.5030(2) 0.2998(2)
C9 C 0.0614(4) 0.6948(3) 0.2730(3)
H12 H -0.0430 0.7221 0.2521
H13 H 0.0535 0.7361 0.3431
C10 C 0.2043(5) 0.7277(4) 0.1767(3)
H14 H 0.1893 0.8158 0.1613
H15 H 0.2109 0.6875 0.1071
H16 H 0.3073 0.7014 0.1979
C11 C -0.1454(3) 0.3150(2) 0.4184(2)
C12 C -0.3025(3) 0.3760(2) 0.4795(2)
H17 H -0.3426 0.4598 0.4705
C13 C -0.3907(3) 0.2892(2) 0.5573(2)
H18 H -0.5003 0.3045 0.6087
C14 C -0.2841(3) 0.1762(2) 0.5436(2)
C15 C -0.3010(3) 0.0578(3) 0.6080(2)
C16 C -0.4703(3) 0.0369(2) 0.6912(2)
C17 C -0.6172(3) 0.0611(3) 0.6575(3)
H19 H -0.6153 0.0994 0.5837
C18 C -0.7666(4) 0.0286(3) 0.7333(4)
H20 H -0.8640 0.0400 0.7090
C19 C -0.7709(5) -0.0207(3) 0.8445(4)
H21 H -0.8726 -0.0397 0.8966
C20 C -0.6268(5) -0.0421(3) 0.8795(3)
H22 H -0.6316 -0.0742 0.9556
C21 C -0.4752(4) -0.0163(3) 0.8026(2)
H23 H -0.3763 -0.0344 0.8252
loop_
_geom_bond_atom_site_label_1
_geom_bond_atom_site_label_2
_geom_bond_site_symmetry_1
_geom_bond_site_symmetry_2
N1 H1 1_555 1_555
O1 C2 1_555 1_555
C1 C2 1_555 1_555
O2 C2 1_555 1_555
O3 C5 1_555 1_555
C3 O2 1_555 1_555
H2 C3 1_555 1_555
H3 C3 1_555 1_555
O4 C5 1_555 1_555
C4 C3 1_555 1_555
H4 C4 1_555 1_555
H5 C4 1_555 1_555
H6 C4 1_555 1_555
O5 C8 1_555 1_555
C5 C1 1_555 1_555
O6 C8 1_555 1_555
C6 O4 1_555 1_555
H7 C6 1_555 1_555
H8 C6 1_555 1_555
O7 C15 1_555 1_555
C7 C6 1_555 1_555
H9 C7 1_555 1_555
H10 C7 1_555 1_555
H11 C7 1_555 1_555
C8 C1 1_555 1_555
C9 O6 1_555 1_555
H12 C9 1_555 1_555
H13 C9 1_555 1_555
C10 C9 1_555 1_555
H14 C10 1_555 1_555
H15 C10 1_555 1_555
H16 C10 1_555 1_555
C11 N1 1_555 1_555
C12 C11 1_555 1_555
H17 C12 1_555 1_555
C13 C12 1_555 1_555
H18 C13 1_555 1_555
C14 N1 1_555 1_555
C15 C14 1_555 1_555
C16 C15 1_555 1_555
C17 C16 1_555 1_555
H19 C17 1_555 1_555
C18 C17 1_555 1_555
H20 C18 1_555 1_555
C19 C18 1_555 1_555
H21 C19 1_555 1_555
C20 C19 1_555 1_555
H22 C20 1_555 1_555
C21 C16 1_555 1_555
H23 C21 1_555 1_555
C1 C11 1_555 1_555
C13 C14 1_555 1_555
C20 C21 1_555 1_555

#END
