
#######################################################################
#
#                 Cambridge Crystallographic Data Centre
#                                CCDC 
#
#######################################################################
#
# If this CIF has been generated from an entry in the Cambridge 
# Structural Database, then it will include bibliographic, chemical, 
# crystal, experimental, refinement or atomic coordinate data resulting 
# from the CCDC's data processing and validation procedures.
#
#######################################################################

data_ROMFAB
_chemical_formula_moiety         'C25 H26 O2'
_chemical_name_systematic        2,2-Dimethyl-5-triphenylmethyl-1,3-dioxane
_symmetry_cell_setting           triclinic
_symmetry_space_group_name_H-M   'P -1'
_symmetry_Int_Tables_number      2
_space_group_name_Hall           '-P 1'
loop_
_symmetry_equiv_pos_site_id
_symmetry_equiv_pos_as_xyz
1 x,y,z
2 -x,-y,-z
_cell_length_a                   10.7252(18)
_cell_length_b                   11.6933(19)
_cell_length_c                   15.840(3)
_cell_angle_alpha                89.574(3)
_cell_angle_beta                 88.906(3)
_cell_angle_gamma                86.427(3)
_cell_volume                     1982.28
_exptl_crystal_colour            colorless
_exptl_crystal_description       prism
_cell_formula_units_Z            4
_exptl_crystal_recrystallization_method ethanol
loop_
_atom_site_label
_atom_site_type_symbol
_atom_site_fract_x
_atom_site_fract_y
_atom_site_fract_z
O1 O 0.35990(12) 0.60731(12) 0.01269(8)
O2 O 0.14384(12) 0.63492(12) 0.01747(9)
C1 C 0.23664(16) 0.38835(15) 0.17018(10)
C2 C 0.24344(15) 0.49994(15) 0.11561(10)
H1 H 0.2502 0.5634 0.1550
C3 C 0.11404(16) 0.39031(15) 0.22318(10)
C4 C 0.34210(17) 0.37887(16) 0.23626(11)
C5 C 0.24895(18) 0.28587(15) 0.10870(11)
C6 C 0.35745(17) 0.49994(17) 0.05630(12)
H2 H 0.4330 0.4868 0.0886
H3 H 0.3543 0.4385 0.0158
C7 C 0.1479(2) 0.25685(17) 0.06129(12)
H4 H 0.0701 0.2948 0.0705
C8 C 0.12987(17) 0.53031(17) 0.06175(12)
H5 H 0.1196 0.4694 0.0217
H6 H 0.0555 0.5374 0.0976
C9 C -0.1020(2) 0.39266(19) 0.32589(12)
H7 H -0.1744 0.3936 0.3592
C10 C 0.06172(19) 0.49044(17) 0.25835(12)
H8 H 0.0995 0.5588 0.2481
C11 C 0.3626(2) 0.22658(18) 0.09322(12)
H9 H 0.4319 0.2440 0.1240
C12 C 0.3606(2) 0.27827(19) 0.28297(13)
H10 H 0.3095 0.2182 0.2740
C13 C 0.0561(2) 0.29087(17) 0.24326(12)
H11 H 0.0897 0.2213 0.2223
C14 C 0.2745(3) 0.1148(2) -0.01380(14)
H12 H 0.2831 0.0581 -0.0547
C15 C -0.0505(2) 0.29260(19) 0.29377(13)
H13 H -0.0876 0.2244 0.3059
C16 C 0.1616(3) 0.1723(2) 0.00074(13)
H14 H 0.0930 0.1543 -0.0305
C17 C -0.0455(2) 0.49138(19) 0.30843(13)
H15 H -0.0793 0.5603 0.3304
C18 C 0.3750(3) 0.1417(2) 0.03269(14)
H16 H 0.4521 0.1025 0.0235
C19 C 0.4528(2) 0.2656(2) 0.34232(14)
H17 H 0.4639 0.1970 0.3722
C20 C 0.4159(2) 0.4675(2) 0.25485(13)
H18 H 0.4030 0.5374 0.2271
C21 C 0.5097(3) 0.4537(3) 0.31478(16)
H19 H 0.5600 0.5138 0.3255
C22 C 0.5278(2) 0.3528(3) 0.35755(15)
H20 H 0.5909 0.3434 0.3969
C46 C 0.25244(18) 0.63539(18) -0.03605(12)
C48 C 0.2614(2) 0.7575(2) -0.06423(17)
H44 H 0.2701 0.8051 -0.0158
H45 H 0.1871 0.7825 -0.0937
H46 H 0.3328 0.7630 -0.1012
C49 C 0.2427(3) 0.5554(2) -0.11037(13)
H47 H 0.3168 0.5573 -0.1452
H48 H 0.1712 0.5796 -0.1430
H49 H 0.2339 0.4788 -0.0900
O3 O 0.83700(13) 1.13075(11) 0.47955(8)
C23 C 0.77111(16) 0.88371(15) 0.33012(11)
C24 C 0.88286(16) 0.89755(15) 0.26818(11)
O4 O 0.62945(13) 1.09080(13) 0.49852(9)
C25 C 0.65934(17) 0.86683(15) 0.27145(11)
C26 C 0.74962(16) 0.99479(16) 0.38537(11)
H21 H 0.7237 1.0581 0.3474
C27 C 0.88986(19) 0.99737(17) 0.22169(12)
H22 H 0.8285 1.0562 0.2297
C28 C 0.79058(18) 0.78071(16) 0.39142(11)
C29 C 0.86490(18) 1.02937(16) 0.43135(12)
H23 H 0.8942 0.9675 0.4686
H24 H 0.9311 1.0427 0.3905
C30 C 0.64654(18) 0.98545(19) 0.45268(13)
H25 H 0.5690 0.9690 0.4260
H26 H 0.6690 0.9231 0.4913
C31 C 0.5612(2) 0.7445(2) 0.17364(13)
H27 H 0.5618 0.6753 0.1450
C32 C 0.6577(2) 0.76446(17) 0.22676(12)
H28 H 0.7228 0.7089 0.2329
C33 C 0.9023(2) 0.75861(18) 0.43297(12)
H29 H 0.9696 0.8023 0.4196
C34 C 0.9728(2) 0.81094(18) 0.25085(13)
H30 H 0.9691 0.7411 0.2789
C35 C 0.9853(2) 1.01248(18) 0.16365(13)
H31 H 0.9877 1.0810 0.1337
C36 C 1.0682(2) 0.8258(2) 0.19260(14)
H32 H 1.1276 0.7660 0.1823
C37 C 1.0762(2) 0.92683(19) 0.15016(13)
H33 H 1.1424 0.9375 0.1127
C38 C 0.5633(2) 0.94808(19) 0.25808(12)
H34 H 0.5631 1.0182 0.2854
C39 C 0.6930(2) 0.71336(18) 0.41398(12)
H35 H 0.6164 0.7263 0.3880
C40 C 0.4666(2) 0.9269(2) 0.20438(14)
H36 H 0.4021 0.9827 0.1968
C41 C 0.4647(2) 0.8250(2) 0.16248(14)
H37 H 0.3992 0.8108 0.1272
C42 C 0.8190(3) 0.6071(2) 0.51405(15)
H38 H 0.8289 0.5491 0.5543
C43 C 0.9166(3) 0.6740(2) 0.49340(14)
H39 H 0.9925 0.6618 0.5205
C44 C 0.7070(3) 0.6273(2) 0.47431(14)
H40 H 0.6403 0.5830 0.4879
C45 C 0.73853(19) 1.12060(19) 0.54019(13)
C47 C 0.7751(2) 1.0359(2) 0.60968(14)
H41 H 0.7059 1.0295 0.6484
H42 H 0.8451 1.0622 0.6393
H43 H 0.7975 0.9623 0.5854
C50 C 0.7094(2) 1.2394(2) 0.57462(16)
H50 H 0.6878 1.2911 0.5291
H51 H 0.7814 1.2647 0.6025
H52 H 0.6405 1.2382 0.6142
loop_
_geom_bond_atom_site_label_1
_geom_bond_atom_site_label_2
_geom_bond_site_symmetry_1
_geom_bond_site_symmetry_2
O1 C6 1_555 1_555
O2 C8 1_555 1_555
C1 C2 1_555 1_555
C2 H1 1_555 1_555
C3 C1 1_555 1_555
C4 C1 1_555 1_555
C5 C1 1_555 1_555
C6 C2 1_555 1_555
H2 C6 1_555 1_555
H3 C6 1_555 1_555
C7 C5 1_555 1_555
H4 C7 1_555 1_555
C8 C2 1_555 1_555
H5 C8 1_555 1_555
H6 C8 1_555 1_555
C9 H7 1_555 1_555
C10 C3 1_555 1_555
H8 C10 1_555 1_555
C11 C5 1_555 1_555
H9 C11 1_555 1_555
C12 C4 1_555 1_555
H10 C12 1_555 1_555
C13 C3 1_555 1_555
H11 C13 1_555 1_555
C14 H12 1_555 1_555
C15 C9 1_555 1_555
H13 C15 1_555 1_555
C16 C7 1_555 1_555
H14 C16 1_555 1_555
C17 C9 1_555 1_555
H15 C17 1_555 1_555
C18 C11 1_555 1_555
H16 C18 1_555 1_555
C19 C12 1_555 1_555
H17 C19 1_555 1_555
C20 C4 1_555 1_555
H18 C20 1_555 1_555
C21 C20 1_555 1_555
H19 C21 1_555 1_555
C22 C19 1_555 1_555
H20 C22 1_555 1_555
O3 C29 1_555 1_555
C23 C24 1_555 1_555
C24 C27 1_555 1_555
O4 C30 1_555 1_555
C25 C23 1_555 1_555
C26 C23 1_555 1_555
H21 C26 1_555 1_555
C27 H22 1_555 1_555
C28 C23 1_555 1_555
C29 C26 1_555 1_555
H23 C29 1_555 1_555
H24 C29 1_555 1_555
C30 C26 1_555 1_555
H25 C30 1_555 1_555
H26 C30 1_555 1_555
C31 H27 1_555 1_555
C32 C25 1_555 1_555
H28 C32 1_555 1_555
C33 C28 1_555 1_555
H29 C33 1_555 1_555
C34 C24 1_555 1_555
H30 C34 1_555 1_555
C35 C27 1_555 1_555
H31 C35 1_555 1_555
C36 C34 1_555 1_555
H32 C36 1_555 1_555
C37 C35 1_555 1_555
H33 C37 1_555 1_555
C38 C25 1_555 1_555
H34 C38 1_555 1_555
C39 C28 1_555 1_555
H35 C39 1_555 1_555
C40 C38 1_555 1_555
H36 C40 1_555 1_555
C41 C31 1_555 1_555
H37 C41 1_555 1_555
C42 H38 1_555 1_555
C43 C33 1_555 1_555
H39 C43 1_555 1_555
C44 C39 1_555 1_555
H40 C44 1_555 1_555
C45 O3 1_555 1_555
C46 O1 1_555 1_555
C47 C45 1_555 1_555
H41 C47 1_555 1_555
H42 C47 1_555 1_555
H43 C47 1_555 1_555
C48 C46 1_555 1_555
H44 C48 1_555 1_555
H45 C48 1_555 1_555
H46 C48 1_555 1_555
C49 C46 1_555 1_555
H47 C49 1_555 1_555
H48 C49 1_555 1_555
H49 C49 1_555 1_555
C50 C45 1_555 1_555
H50 C50 1_555 1_555
H51 C50 1_555 1_555
H52 C50 1_555 1_555
O2 C46 1_555 1_555
C10 C17 1_555 1_555
C13 C15 1_555 1_555
C14 C16 1_555 1_555
C14 C18 1_555 1_555
C21 C22 1_555 1_555
O4 C45 1_555 1_555
C31 C32 1_555 1_555
C36 C37 1_555 1_555
C40 C41 1_555 1_555
C42 C43 1_555 1_555
C42 C44 1_555 1_555

#END
