
#######################################################################
#
#                 Cambridge Crystallographic Data Centre
#                                CCDC 
#
#######################################################################
#
# If this CIF has been generated from an entry in the Cambridge 
# Structural Database, then it will include bibliographic, chemical, 
# crystal, experimental, refinement or atomic coordinate data resulting 
# from the CCDC's data processing and validation procedures.
#
#######################################################################

data_ROMNEN
_chemical_formula_moiety         'C17 H12 N4 O1 2+,2(Cl1 1-),H2 O1'
_chemical_name_systematic        
'2-(2-Furyl)-1H-imidazo(4,5-f)(1,10)phenanthroline-3,7-diium dichloride monohydrate'
_symmetry_cell_setting           monoclinic
_symmetry_space_group_name_H-M   'P 21/n'
_symmetry_Int_Tables_number      14
_space_group_name_Hall           '-P 2yn'
loop_
_symmetry_equiv_pos_site_id
_symmetry_equiv_pos_as_xyz
1 x,y,z
2 1/2-x,1/2+y,1/2-z
3 -x,-y,-z
4 1/2+x,1/2-y,1/2+z
_cell_length_a                   4.768(3)
_cell_length_b                   17.897(10)
_cell_length_c                   19.241(11)
_cell_angle_alpha                90
_cell_angle_beta                 92.060(8)
_cell_angle_gamma                90
_cell_volume                     1640.83
_exptl_crystal_colour            red-brown
_exptl_crystal_description       prism
_cell_formula_units_Z            4
loop_
_atom_site_label
_atom_site_type_symbol
_atom_site_fract_x
_atom_site_fract_y
_atom_site_fract_z
C1 C 0.2549(7) 0.5257(2) 0.91899(18)
H1 H 0.1981 0.5270 0.9647
C2 C 0.1543(7) 0.57043(18) 0.86872(17)
H2 H 0.0184 0.6073 0.8728
C3 C 0.2960(6) 0.55060(16) 0.80743(16)
H3 H 0.2711 0.5718 0.7635
C4 C 0.4742(6) 0.49469(16) 0.82609(15)
C5 C 0.6721(6) 0.45050(15) 0.78964(15)
C6 C 0.9978(6) 0.36694(15) 0.76729(14)
C7 C 1.2049(6) 0.30919(15) 0.77145(14)
C8 C 1.2878(6) 0.26901(16) 0.83160(16)
H4 H 1.2062 0.2786 0.8739
C9 C 1.4924(6) 0.21529(17) 0.82645(16)
H5 H 1.5506 0.1877 0.8653
C10 C 1.6108(6) 0.20276(16) 0.76279(17)
H6 H 1.7500 0.1665 0.7607
C11 C 1.3351(6) 0.29168(15) 0.70909(14)
C12 C 1.2531(6) 0.33026(15) 0.64536(14)
C13 C 1.3161(6) 0.34323(16) 0.52471(15)
H7 H 1.4109 0.3287 0.4855
C14 C 1.1068(6) 0.39700(16) 0.51891(15)
H8 H 1.0577 0.4177 0.4758
C15 C 0.9734(6) 0.41932(15) 0.57711(14)
H9 H 0.8349 0.4559 0.5741
C16 C 1.0477(6) 0.38639(15) 0.64198(14)
C17 C 0.9259(6) 0.40383(15) 0.70643(14)
N1 N 1.5391(5) 0.23910(13) 0.70414(13)
N2 N 1.3821(5) 0.31224(12) 0.58612(12)
H10 H 1.5130 0.2792 0.5882
N3 N 0.8358(5) 0.39716(13) 0.81854(11)
H11 H 0.8394 0.3840 0.8615
N4 N 0.7228(5) 0.45605(12) 0.72179(12)
H12 H 0.6432 0.4867 0.6928
O1 O 0.4528(5) 0.47741(12) 0.89489(11)
Cl1 Cl 0.44997(17) 0.56432(4) 0.62293(4)
Cl2 Cl 0.83425(17) 0.20341(5) 0.53339(5)
O2 O 0.8356(5) 0.35229(14) 0.94806(11)
H13 H 0.9993 0.3370 0.9803
H14 H 0.6840 0.3400 0.9751
loop_
_geom_bond_atom_site_label_1
_geom_bond_atom_site_label_2
_geom_bond_site_symmetry_1
_geom_bond_site_symmetry_2
C1 H1 1_555 1_555
C2 C1 1_555 1_555
H2 C2 1_555 1_555
C3 C2 1_555 1_555
H3 C3 1_555 1_555
C4 C3 1_555 1_555
C5 C4 1_555 1_555
C6 C7 1_555 1_555
C7 C8 1_555 1_555
C8 H4 1_555 1_555
C9 C8 1_555 1_555
H5 C9 1_555 1_555
C10 C9 1_555 1_555
H6 C10 1_555 1_555
C11 C7 1_555 1_555
C12 C11 1_555 1_555
C13 H7 1_555 1_555
C14 C13 1_555 1_555
H8 C14 1_555 1_555
C15 C14 1_555 1_555
H9 C15 1_555 1_555
C16 C12 1_555 1_555
C17 C6 1_555 1_555
N1 C10 1_555 1_555
N2 C12 1_555 1_555
H10 N2 1_555 1_555
N3 C5 1_555 1_555
H11 N3 1_555 1_555
N4 C5 1_555 1_555
H12 N4 1_555 1_555
O1 C1 1_555 1_555
O2 H13 1_555 1_555
H14 O2 1_555 1_555
C4 O1 1_555 1_555
C6 N3 1_555 1_555
C11 N1 1_555 1_555
C13 N2 1_555 1_555
C15 C16 1_555 1_555
C16 C17 1_555 1_555
C17 N4 1_555 1_555

#END
