
#######################################################################
#
#                 Cambridge Crystallographic Data Centre
#                                CCDC 
#
#######################################################################
#
# If this CIF has been generated from an entry in the Cambridge 
# Structural Database, then it will include bibliographic, chemical, 
# crystal, experimental, refinement or atomic coordinate data resulting 
# from the CCDC's data processing and validation procedures.
#
#######################################################################

data_RONGAE
_chemical_formula_moiety         'C12 H12 Br1 N1 O4'
_chemical_name_systematic        
'methyl 4-(3-bromophenyl)-2-oxo-1,3-oxazinane-4-carboxylate'
_symmetry_cell_setting           orthorhombic
_symmetry_space_group_name_H-M   'P 21 21 21'
_symmetry_Int_Tables_number      19
_space_group_name_Hall           'P 2ac 2ab'
loop_
_symmetry_equiv_pos_site_id
_symmetry_equiv_pos_as_xyz
1 x,y,z
2 1/2-x,-y,1/2+z
3 -x,1/2+y,1/2-z
4 1/2+x,1/2-y,-z
_cell_length_a                   7.9426(8)
_cell_length_b                   13.8624(19)
_cell_length_c                   22.203(3)
_cell_angle_alpha                90
_cell_angle_beta                 90
_cell_angle_gamma                90
_cell_volume                     2444.63
_exptl_crystal_colour            colorless
_exptl_crystal_description       prism
_cell_formula_units_Z            8
loop_
_atom_site_label
_atom_site_type_symbol
_atom_site_fract_x
_atom_site_fract_y
_atom_site_fract_z
Br1 Br 0.64553(3) -0.275639(15) 0.055701(10)
O1 O 0.66990(19) 0.25709(10) -0.00573(6)
O2 O 0.73871(19) 0.34840(10) 0.07202(6)
O3 O 1.10043(18) 0.09570(10) 0.10869(6)
O4 O 1.09364(18) 0.00834(10) 0.02259(6)
N1 N 0.8175(2) 0.19141(12) 0.07483(8)
H1 H 0.860(3) 0.2022(19) 0.1081(12)
C1 C 0.8460(3) 0.09644(13) 0.04812(8)
C2 C 0.8174(2) 0.10451(14) -0.02041(8)
H2 H 0.9138 0.1380 -0.0395
H3 H 0.8079 0.0393 -0.0383
C3 C 0.6568(3) 0.16078(14) -0.03141(9)
H4 H 0.6359 0.1656 -0.0753
H5 H 0.5606 0.1264 -0.0129
C4 C 0.7432(2) 0.26811(14) 0.04871(8)
C5 C 0.7354(2) 0.01885(14) 0.07839(9)
C6 C 0.6438(3) 0.03929(15) 0.13056(8)
H6 H 0.6419 0.1033 0.1459
C7 C 0.5552(3) -0.03334(15) 0.16038(9)
H7 H 0.4937 -0.0184 0.1959
C8 C 0.5560(3) -0.12746(15) 0.13863(9)
H8 H 0.4966 -0.1771 0.1591
C9 C 0.6458(3) -0.14721(14) 0.08635(9)
C10 C 0.7358(2) -0.07614(14) 0.05601(9)
H9 H 0.7969 -0.0916 0.0205
C11 C 1.0301(2) 0.06861(13) 0.06369(9)
C12 C 1.2682(3) -0.01962(16) 0.03186(10)
H10 H 1.3295 0.0337 0.0508
H11 H 1.3200 -0.0349 -0.0070
H12 H 1.2727 -0.0765 0.0580
Br2 Br 0.57220(3) 0.784656(17) 0.307516(10)
O5 O 0.9625(2) 0.33903(10) 0.27299(6)
O6 O 0.89983(18) 0.24335(9) 0.19669(6)
O7 O 1.03358(19) 0.52313(11) 0.09282(6)
O8 O 1.05849(19) 0.64683(10) 0.15783(6)
N2 N 0.9089(2) 0.40413(12) 0.17827(7)
H13 H 0.871(3) 0.3895(18) 0.1447(11)
C13 C 0.9314(3) 0.50497(13) 0.19576(8)
C14 C 1.0473(2) 0.50549(14) 0.25120(9)
H14 H 1.1623 0.4852 0.2396
H15 H 1.0535 0.5713 0.2684
C15 C 0.9758(3) 0.43646(14) 0.29708(9)
H16 H 1.0492 0.4358 0.3331
H17 H 0.8629 0.4590 0.3096
C16 C 0.9217(3) 0.32629(14) 0.21438(9)
C17 C 0.7598(2) 0.55537(14) 0.20668(8)
C18 C 0.6177(2) 0.52456(14) 0.17462(9)
H18 H 0.6267 0.4723 0.1471
C19 C 0.4633(3) 0.57031(15) 0.18292(9)
H19 H 0.3677 0.5488 0.1610
C20 C 0.4468(3) 0.64742(14) 0.22302(9)
H20 H 0.3412 0.6779 0.2294
C21 C 0.5898(3) 0.67772(14) 0.25316(9)
C22 C 0.7463(3) 0.63436(14) 0.24606(9)
H21 H 0.8418 0.6576 0.2673
C23 C 1.0142(2) 0.55713(14) 0.14219(9)
C24 C 1.1247(3) 0.70658(15) 0.10918(9)
H22 H 1.2310 0.6792 0.0947
H23 H 1.1444 0.7721 0.1241
H24 H 1.0432 0.7086 0.0761
loop_
_geom_bond_atom_site_label_1
_geom_bond_atom_site_label_2
_geom_bond_site_symmetry_1
_geom_bond_site_symmetry_2
Br1 C9 1_555 1_555
O1 C3 1_555 1_555
O2 C4 1_555 1_555
O3 C11 1_555 1_555
O4 C11 1_555 1_555
N1 H1 1_555 1_555
C1 N1 1_555 1_555
C2 C1 1_555 1_555
H2 C2 1_555 1_555
H3 C2 1_555 1_555
C3 C2 1_555 1_555
H4 C3 1_555 1_555
H5 C3 1_555 1_555
C4 O1 1_555 1_555
C5 C1 1_555 1_555
C6 C5 1_555 1_555
H6 C6 1_555 1_555
C7 C6 1_555 1_555
H7 C7 1_555 1_555
C8 C7 1_555 1_555
H8 C8 1_555 1_555
C9 C8 1_555 1_555
C10 C5 1_555 1_555
H9 C10 1_555 1_555
C11 C1 1_555 1_555
C12 O4 1_555 1_555
H10 C12 1_555 1_555
H11 C12 1_555 1_555
H12 C12 1_555 1_555
Br2 C21 1_555 1_555
O5 C15 1_555 1_555
O6 C16 1_555 1_555
O7 C23 1_555 1_555
O8 C23 1_555 1_555
N2 H13 1_555 1_555
C13 N2 1_555 1_555
C14 C13 1_555 1_555
H14 C14 1_555 1_555
H15 C14 1_555 1_555
C15 C14 1_555 1_555
H16 C15 1_555 1_555
H17 C15 1_555 1_555
C16 O5 1_555 1_555
C17 C13 1_555 1_555
C18 C17 1_555 1_555
H18 C18 1_555 1_555
C19 C18 1_555 1_555
H19 C19 1_555 1_555
C20 C19 1_555 1_555
H20 C20 1_555 1_555
C21 C20 1_555 1_555
C22 C17 1_555 1_555
H21 C22 1_555 1_555
C23 C13 1_555 1_555
C24 O8 1_555 1_555
H22 C24 1_555 1_555
H23 C24 1_555 1_555
H24 C24 1_555 1_555
N1 C4 1_555 1_555
C9 C10 1_555 1_555
N2 C16 1_555 1_555
C21 C22 1_555 1_555

#END
