
#######################################################################
#
#                 Cambridge Crystallographic Data Centre
#                                CCDC 
#
#######################################################################
#
# If this CIF has been generated from an entry in the Cambridge 
# Structural Database, then it will include bibliographic, chemical, 
# crystal, experimental, refinement or atomic coordinate data resulting 
# from the CCDC's data processing and validation procedures.
#
#######################################################################

data_RONGIM
_chemical_formula_moiety         'C26 H30 N2 O2'
_chemical_name_systematic        
N-(2-(3-methyl-2-oxo-1-propyl-1,2-dihydronaphthalen-1-yl)cyclohexyl)pyridine-2-carboxamide
_symmetry_cell_setting           tetragonal
_symmetry_space_group_name_H-M   'P 41'
_symmetry_Int_Tables_number      76
_space_group_name_Hall           'P 4w'
loop_
_symmetry_equiv_pos_site_id
_symmetry_equiv_pos_as_xyz
1 x,y,z
2 -y,x,1/4+z
3 -x,-y,1/2+z
4 y,-x,3/4+z
_cell_length_a                   9.55795(19)
_cell_length_b                   9.55795(19)
_cell_length_c                   24.9975(7)
_cell_angle_alpha                90
_cell_angle_beta                 90
_cell_angle_gamma                90
_cell_volume                     2283.63
_exptl_crystal_colour            colorless
_exptl_crystal_description       block
_cell_formula_units_Z            4
loop_
_atom_site_label
_atom_site_type_symbol
_atom_site_fract_x
_atom_site_fract_y
_atom_site_fract_z
N1 N -0.9195(2) -0.6874(2) -0.14203(9)
H1 H -1.0025 -0.6775 -0.1547
C1 C -1.1200(3) -0.4760(3) -0.09461(12)
O1 O -0.7891(3) -0.5007(3) -0.01979(12)
C2 C -1.0146(3) -0.6918(2) -0.04966(10)
H2 H -1.1055 -0.7261 -0.0623
C3 C -0.9045(3) -0.7483(2) -0.08889(10)
H3 H -0.8123 -0.7212 -0.0752
C4 C -0.8754(3) -0.4648(3) -0.05292(12)
C5 C -1.0237(3) -0.5262(3) -0.04987(11)
O2 O -0.6890(2) -0.6503(3) -0.15814(10)
C6 C -1.0763(4) -0.3736(3) -0.13111(13)
C7 C -0.9932(3) -0.9184(3) 0.00200(13)
H4 H -0.9748 -0.9574 0.0371
H5 H -1.0858 -0.9484 -0.0090
C8 C -0.9080(3) -0.9083(3) -0.09201(12)
H6 H -0.9975 -0.9381 -0.1063
H7 H -0.8354 -0.9403 -0.1162
C9 C -1.0852(4) -0.4713(3) 0.00383(13)
H8 H -1.1750 -0.5158 0.0098
H9 H -1.0235 -0.4995 0.0327
C10 C -0.8389(3) -0.3616(3) -0.09404(15)
C11 C -1.2561(3) -0.5254(4) -0.09896(16)
H10 H -1.2869 -0.5940 -0.0753
C12 C -0.9896(3) -0.7599(3) 0.00525(11)
H11 H -0.8994 -0.7303 0.0189
H12 H -1.0609 -0.7282 0.0301
N2 N -1.0070(13) -0.6194(15) -0.2404(7)
C13 C -0.8859(3) -0.9741(3) -0.03733(12)
H13 H -0.8946 -1.0749 -0.0401
H14 H -0.7925 -0.9527 -0.0246
C14 C -1.3471(4) -0.4753(5) -0.13764(19)
H15 H -1.4378 -0.5102 -0.1394
C15 C -0.9364(4) -0.3204(3) -0.12921(14)
H16 H -0.9114 -0.2525 -0.1541
C16 C -0.7762(12) -0.5308(17) -0.2625(6)
H17 H -0.6845 -0.5152 -0.2516
C17 C -0.8122(3) -0.6463(3) -0.17210(11)
C18 C -0.8734(13) -0.5983(17) -0.2287(7)
C19 C -1.3050(5) -0.3752(5) -0.1731(2)
H18 H -1.3661 -0.3418 -0.1991
C20 C -0.9610(13) -0.5108(13) -0.3254(5)
H19 H -0.9960 -0.4824 -0.3583
C21 C -1.1050(6) -0.3130(3) 0.00652(17)
H20 H -1.0185 -0.2676 -0.0040
H21 H -1.1767 -0.2857 -0.0189
C22 C -1.1717(5) -0.3251(4) -0.16977(17)
H22 H -1.1429 -0.2567 -0.1938
C23 C -0.6931(4) -0.3058(5) -0.0938(2)
H23 H -0.6804 -0.2458 -0.0634
H24 H -0.6769 -0.2534 -0.1260
H25 H -0.6280 -0.3821 -0.0919
C24 C -0.8225(13) -0.4883(13) -0.3127(5)
H26 H -0.7619 -0.4461 -0.3369
C25 C -1.1457(8) -0.2632(5) 0.0607(2)
H27 H -1.1558 -0.1633 0.0602
H28 H -1.0746 -0.2889 0.0860
H29 H -1.2329 -0.3054 0.0708
C26 C -1.0477(12) -0.5763(14) -0.2886(6)
H30 H -1.1405 -0.5911 -0.2983
C27? C -0.8912(16) -0.4912(12) -0.3214(5)
H31? H -0.9134 -0.4621 -0.3558
C28? C -0.7598(13) -0.4729(12) -0.3036(5)
H32? H -0.6928 -0.4282 -0.3244
N3? N -0.9620(14) -0.5996(16) -0.2413(7)
C29? C -0.9920(14) -0.5501(15) -0.2911(7)
H33? H -1.0826 -0.5570 -0.3043
C30? C -0.7280(14) -0.523(2) -0.2532(7)
H34? H -0.6378 -0.5147 -0.2396
C31? C -0.8309(13) -0.5843(17) -0.2238(7)
loop_
_geom_bond_atom_site_label_1
_geom_bond_atom_site_label_2
_geom_bond_site_symmetry_1
_geom_bond_site_symmetry_2
N1 H1 1_555 1_555
C1 C5 1_555 1_555
O1 C4 1_555 1_555
C2 H2 1_555 1_555
C3 N1 1_555 1_555
H3 C3 1_555 1_555
C4 C5 1_555 1_555
C5 C2 1_555 1_555
O2 C17 1_555 1_555
C6 C1 1_555 1_555
C7 H4 1_555 1_555
H5 C7 1_555 1_555
C8 C3 1_555 1_555
H6 C8 1_555 1_555
H7 C8 1_555 1_555
C9 C5 1_555 1_555
H8 C9 1_555 1_555
H9 C9 1_555 1_555
C10 C4 1_555 1_555
C11 C1 1_555 1_555
H10 C11 1_555 1_555
C12 C2 1_555 1_555
H11 C12 1_555 1_555
H12 C12 1_555 1_555
N2 C18 1_555 1_555
C13 C7 1_555 1_555
H13 C13 1_555 1_555
H14 C13 1_555 1_555
C14 C11 1_555 1_555
H15 C14 1_555 1_555
C15 C6 1_555 1_555
H16 C15 1_555 1_555
C16 H17 1_555 1_555
C17 N1 1_555 1_555
C18 C16 1_555 1_555
C19 C14 1_555 1_555
H18 C19 1_555 1_555
C20 H19 1_555 1_555
C21 C9 1_555 1_555
H20 C21 1_555 1_555
H21 C21 1_555 1_555
C22 C6 1_555 1_555
H22 C22 1_555 1_555
C23 C10 1_555 1_555
H23 C23 1_555 1_555
H24 C23 1_555 1_555
H25 C23 1_555 1_555
C24 C16 1_555 1_555
H26 C24 1_555 1_555
C25 C21 1_555 1_555
H27 C25 1_555 1_555
H28 C25 1_555 1_555
H29 C25 1_555 1_555
C26 N2 1_555 1_555
H30 C26 1_555 1_555
C2 C3 1_555 1_555
C7 C12 1_555 1_555
C8 C13 1_555 1_555
C10 C15 1_555 1_555
C17 C18 1_555 1_555
C19 C22 1_555 1_555
C20 C24 1_555 1_555
C20 C26 1_555 1_555

#END
