
#######################################################################
#
#                 Cambridge Crystallographic Data Centre
#                                CCDC 
#
#######################################################################
#
# If this CIF has been generated from an entry in the Cambridge 
# Structural Database, then it will include bibliographic, chemical, 
# crystal, experimental, refinement or atomic coordinate data resulting 
# from the CCDC's data processing and validation procedures.
#
#######################################################################

data_RONHOT
_chemical_formula_moiety         'C40 H88 Li4 N4 O6'
_chemical_name_systematic        
"bis(\m-1,1'-(butane-1,4-diylbis(oxy))bis(N-isopropylpropan-2-amido))-bis(diethyl ether)-tetra-lithium"
_symmetry_cell_setting           monoclinic
_symmetry_space_group_name_H-M   'P 21'
_symmetry_Int_Tables_number      4
_space_group_name_Hall           'P 2yb'
loop_
_symmetry_equiv_pos_site_id
_symmetry_equiv_pos_as_xyz
1 x,y,z
2 -x,1/2+y,-z
_cell_length_a                   14.037(5)
_cell_length_b                   10.268(4)
_cell_length_c                   17.665(6)
_cell_angle_alpha                90
_cell_angle_beta                 105.542(12)
_cell_angle_gamma                90
_cell_volume                     2452.99
_cell_formula_units_Z            2
loop_
_atom_site_label
_atom_site_type_symbol
_atom_site_fract_x
_atom_site_fract_y
_atom_site_fract_z
C1 C 0.6114(4) 0.7458(7) 0.6900(3)
H1 H 0.6761 0.7577 0.6785
H2 H 0.605 0.6529 0.7029
C2 C 0.6071(4) 0.8293(6) 0.7592(3)
H3 H 0.6197 0.9216 0.7465
C3 C 0.6918(5) 0.7864(8) 0.8292(4)
H4 H 0.685 0.6934 0.8392
H5 H 0.6894 0.8365 0.8759
H6 H 0.7552 0.8017 0.8173
C4 C 0.4961(5) 0.9253(7) 0.8271(4)
H7 H 0.5437 0.9067 0.8792
C5 C 0.3928(5) 0.9184(8) 0.8376(4)
H8 H 0.3827 0.8332 0.8591
H9 H 0.3444 0.9306 0.7866
H10 H 0.3845 0.9871 0.8738
C6 C 0.5128(7) 1.0649(8) 0.8050(5)
H11 H 0.4714 1.0831 0.7519
H12 H 0.5825 1.0769 0.8064
H13 H 0.4953 1.1247 0.8423
C7 C 0.2231(4) 0.8201(6) 0.6342(3)
H14 H 0.1579 0.8476 0.6004
H15 H 0.2281 0.8491 0.6886
C8 C 0.2316(4) 0.6748(6) 0.6322(4)
H16 H 0.2205 0.6479 0.5761
C9 C 0.1469(5) 0.6191(7) 0.6618(5)
H17 H 0.1574 0.6412 0.7174
H18 H 0.1451 0.5242 0.6557
H19 H 0.084 0.6562 0.6312
C10 C 0.3416(4) 0.4921(6) 0.6650(4)
H20 H 0.2928 0.4457 0.6876
C11 C 0.3252(5) 0.4464(7) 0.5793(4)
H21 H 0.3719 0.4912 0.5557
H22 H 0.2574 0.4668 0.5493
H23 H 0.3359 0.3521 0.5784
C12 C 0.4450(5) 0.4460(7) 0.7090(4)
H24 H 0.4592 0.472 0.7643
H25 H 0.4939 0.4854 0.6854
H26 H 0.4485 0.3509 0.7056
C13 C 0.0743(5) 1.0132(6) 0.2406(4)
H27 H 0.0736 1.1092 0.2353
H28 H 0.0096 0.9855 0.2474
C14 C 0.0909(5) 0.9509(7) 0.1672(4)
H29 H 0.152 0.9894 0.1577
C15 C 0.0019(7) 0.9909(8) 0.0985(4)
H30 H -0.0598 0.9696 0.1116
H31 H 0.0047 0.9436 0.0509
H32 H 0.0045 1.0848 0.0893
C16 C 0.1492(5) 0.7608(8) 0.1169(4)
H33 H 0.1046 0.7837 0.0643
C17 C 0.2518(6) 0.8159(9) 0.1209(5)
H34 H 0.2982 0.7906 0.1707
H35 H 0.2482 0.9111 0.1173
H36 H 0.2747 0.7813 0.0771
C18 C 0.1564(6) 0.6139(8) 0.1218(4)
H37 H 0.0898 0.5766 0.1109
H38 H 0.1947 0.5883 0.1746
H39 H 0.1893 0.5817 0.0831
C19 C 0.2288(4) 0.5642(6) 0.3562(3)
H40 H 0.2769 0.5098 0.3945
H41 H 0.2221 0.5282 0.303
C20 C 0.1304(4) 0.5611(6) 0.3745(3)
H42 H 0.1402 0.595 0.4292
C21 C 0.0987(5) 0.4178(6) 0.3740(4)
H43 H 0.0913 0.3809 0.3216
H44 H 0.0354 0.4123 0.3874
H45 H 0.1491 0.3689 0.4126
C22 C -0.0252(4) 0.6710(6) 0.3533(3)
H46 H -0.0494 0.5849 0.3671
C23 C -0.0019(5) 0.7554(7) 0.4270(4)
H47 H 0.0199 0.8416 0.4147
H48 H 0.0507 0.7143 0.468
H49 H -0.0613 0.7644 0.4456
C24 C -0.1095(5) 0.7340(8) 0.2912(4)
H50 H -0.1282 0.6778 0.2448
H51 H -0.088 0.8189 0.2765
H52 H -0.1666 0.7459 0.3126
C25 C 0.5368(4) 0.7114(6) 0.5533(3)
H53 H 0.5363 0.6165 0.563
H54 H 0.5984 0.7331 0.5389
C26 C 0.4482(4) 0.7487(6) 0.4873(3)
H55 H 0.4512 0.843 0.4764
H56 H 0.3871 0.7326 0.5038
C27 C 0.4436(4) 0.6722(6) 0.4127(3)
H57 H 0.506 0.6858 0.3977
H58 H 0.4385 0.5782 0.4235
C28 C 0.3577(4) 0.7107(7) 0.3447(3)
H59 H 0.3658 0.803 0.3314
H60 H 0.3594 0.6574 0.2984
C29 C 0.2921(4) 1.0166(6) 0.5949(4)
H61 H 0.3568 1.0504 0.5913
H62 H 0.2773 1.0575 0.6412
C30 C 0.2136(4) 1.0565(6) 0.5220(3)
H63 H 0.216 1.1522 0.5162
H64 H 0.148 1.0341 0.5291
C31 C 0.2240(4) 0.9931(6) 0.4471(3)
H65 H 0.2912 1.0094 0.4414
H66 H 0.2152 0.8978 0.4502
C32 C 0.1488(5) 1.0460(6) 0.3766(4)
H67 H 0.0819 1.0392 0.3849
H68 H 0.1625 1.1391 0.3695
C33 C 0.2863(12) 0.570(2) 0.9339(11)
H69 H 0.2516 0.6499 0.9119
H70 H 0.3393 0.5912 0.9809
H71 H 0.2396 0.5097 0.9479
C34 C 0.3262(9) 0.5124(14) 0.8789(6)
H72 H 0.2783 0.5144 0.8264
H73 H 0.3437 0.4205 0.8932
C35 C 0.505(2) 0.605(2) 0.9544(13)
H74 H 0.5447 0.6831 0.9512
H75 H 0.4846 0.6053 1.004
C36 C 0.548(2) 0.498(3) 0.9438(11)
H76 H 0.5761 0.5079 0.8991
H77 H 0.4993 0.4269 0.9331
H78 H 0.6006 0.4774 0.9911
C37 C -0.0631(10) 0.3389(13) 0.1497(7)
H79 H 0.0072 0.3596 0.1586
H80 H -0.0921 0.3196 0.0939
H81 H -0.0703 0.2629 0.1813
C38 C -0.1092(8) 0.4395(16) 0.1703(8)
H82 H -0.0897 0.4484 0.2282
H83 H -0.1816 0.4252 0.1529
C39 C -0.1402(8) 0.5961(19) 0.0562(7)
H84 H -0.1065 0.5579 0.0189
H85 H -0.2044 0.5508 0.0477
C40 C -0.157(2) 0.7067(15) 0.0383(13)
H86 H -0.2064 0.7113 -0.0127
H87 H -0.0962 0.7498 0.0349
H88 H -0.1828 0.7504 0.0781
Li1 Li 0.4172(7) 0.7857(9) 0.6624(5)
Li2 Li 0.4203(8) 0.6727(11) 0.7804(6)
Li3 Li 0.1505(7) 0.7869(10) 0.2954(6)
Li4 Li 0.0196(7) 0.6711(11) 0.2044(6)
N1 N 0.5082(3) 0.8231(5) 0.7719(3)
N2 N 0.3304(3) 0.6313(5) 0.6754(3)
N3 N 0.1048(4) 0.8112(5) 0.1760(3)
N4 N 0.0596(3) 0.6460(4) 0.3218(3)
O1 O 0.5335(3) 0.7808(4) 0.6226(2)
O2 O 0.3000(3) 0.8785(4) 0.6070(2)
O3 O 0.1521(3) 0.9748(4) 0.3082(2)
O4 O 0.2637(3) 0.6953(4) 0.3598(2)
O5 O 0.4134(4) 0.5859(6) 0.8784(3)
O6 O -0.0830(4) 0.5647(5) 0.1329(3)
loop_
_geom_bond_atom_site_label_1
_geom_bond_atom_site_label_2
_geom_bond_site_symmetry_1
_geom_bond_site_symmetry_2
C1 H1 1_555 1_555
H2 C1 1_555 1_555
C2 C1 1_555 1_555
H3 C2 1_555 1_555
C3 C2 1_555 1_555
H4 C3 1_555 1_555
H5 C3 1_555 1_555
H6 C3 1_555 1_555
C4 H7 1_555 1_555
C5 C4 1_555 1_555
H8 C5 1_555 1_555
H9 C5 1_555 1_555
H10 C5 1_555 1_555
C6 C4 1_555 1_555
H11 C6 1_555 1_555
H12 C6 1_555 1_555
H13 C6 1_555 1_555
C7 H14 1_555 1_555
H15 C7 1_555 1_555
C8 C7 1_555 1_555
H16 C8 1_555 1_555
C9 C8 1_555 1_555
H17 C9 1_555 1_555
H18 C9 1_555 1_555
H19 C9 1_555 1_555
C10 H20 1_555 1_555
C11 C10 1_555 1_555
H21 C11 1_555 1_555
H22 C11 1_555 1_555
H23 C11 1_555 1_555
C12 C10 1_555 1_555
H24 C12 1_555 1_555
H25 C12 1_555 1_555
H26 C12 1_555 1_555
C13 H27 1_555 1_555
H28 C13 1_555 1_555
C14 C13 1_555 1_555
H29 C14 1_555 1_555
C15 C14 1_555 1_555
H30 C15 1_555 1_555
H31 C15 1_555 1_555
H32 C15 1_555 1_555
C16 H33 1_555 1_555
C17 C16 1_555 1_555
H34 C17 1_555 1_555
H35 C17 1_555 1_555
H36 C17 1_555 1_555
C18 C16 1_555 1_555
H37 C18 1_555 1_555
H38 C18 1_555 1_555
H39 C18 1_555 1_555
C19 H40 1_555 1_555
H41 C19 1_555 1_555
C20 C19 1_555 1_555
H42 C20 1_555 1_555
C21 C20 1_555 1_555
H43 C21 1_555 1_555
H44 C21 1_555 1_555
H45 C21 1_555 1_555
C22 H46 1_555 1_555
C23 C22 1_555 1_555
H47 C23 1_555 1_555
H48 C23 1_555 1_555
H49 C23 1_555 1_555
C24 C22 1_555 1_555
H50 C24 1_555 1_555
H51 C24 1_555 1_555
H52 C24 1_555 1_555
C25 H53 1_555 1_555
H54 C25 1_555 1_555
C26 C25 1_555 1_555
H55 C26 1_555 1_555
H56 C26 1_555 1_555
C27 C26 1_555 1_555
H57 C27 1_555 1_555
H58 C27 1_555 1_555
C28 C27 1_555 1_555
H59 C28 1_555 1_555
H60 C28 1_555 1_555
C29 H61 1_555 1_555
H62 C29 1_555 1_555
C30 C29 1_555 1_555
H63 C30 1_555 1_555
H64 C30 1_555 1_555
C31 C30 1_555 1_555
H65 C31 1_555 1_555
H66 C31 1_555 1_555
C32 C31 1_555 1_555
H67 C32 1_555 1_555
H68 C32 1_555 1_555
C33 H69 1_555 1_555
H70 C33 1_555 1_555
H71 C33 1_555 1_555
C34 C33 1_555 1_555
H72 C34 1_555 1_555
H73 C34 1_555 1_555
C35 H74 1_555 1_555
H75 C35 1_555 1_555
C36 C35 1_555 1_555
H76 C36 1_555 1_555
H77 C36 1_555 1_555
H78 C36 1_555 1_555
C37 H79 1_555 1_555
H80 C37 1_555 1_555
H81 C37 1_555 1_555
C38 C37 1_555 1_555
H82 C38 1_555 1_555
H83 C38 1_555 1_555
C39 H84 1_555 1_555
H85 C39 1_555 1_555
C40 C39 1_555 1_555
H86 C40 1_555 1_555
H87 C40 1_555 1_555
H88 C40 1_555 1_555
Li1 N1 1_555 1_555
Li2 N1 1_555 1_555
Li3 N3 1_555 1_555
Li4 N3 1_555 1_555
N1 C2 1_555 1_555
N2 C8 1_555 1_555
N3 C14 1_555 1_555
N4 C20 1_555 1_555
O1 C1 1_555 1_555
O2 C7 1_555 1_555
O3 C13 1_555 1_555
O4 C19 1_555 1_555
O5 C34 1_555 1_555
O6 C38 1_555 1_555
C4 N1 1_555 1_555
C10 N2 1_555 1_555
C16 N3 1_555 1_555
C22 N4 1_555 1_555
C25 O1 1_555 1_555
C28 O4 1_555 1_555
C29 O2 1_555 1_555
C32 O3 1_555 1_555
C35 O5 1_555 1_555
C39 O6 1_555 1_555
Li1 N2 1_555 1_555
Li1 O1 1_555 1_555
Li1 O2 1_555 1_555
Li2 N2 1_555 1_555
Li2 O5 1_555 1_555
Li3 N4 1_555 1_555
Li3 O3 1_555 1_555
Li3 O4 1_555 1_555
Li4 N4 1_555 1_555
Li4 O6 1_555 1_555

#END
