
#######################################################################
#
#                 Cambridge Crystallographic Data Centre
#                                CCDC 
#
#######################################################################
#
# If this CIF has been generated from an entry in the Cambridge 
# Structural Database, then it will include bibliographic, chemical, 
# crystal, experimental, refinement or atomic coordinate data resulting 
# from the CCDC's data processing and validation procedures.
#
#######################################################################

data_ROPMOA
_chemical_formula_moiety         'C23 H20 Cl1 N1 O5,C2 H6 O1'
_chemical_name_systematic        
'(S,S)-3-(2-(4-Chlorophenyl)-1-(2-ethoxy-4-oxo-4,5-dihydrofuran-3-yl)-2-oxoethyl)-1-methyl-1,3-dihydro-2H-indol-2-one ethanol solvate'
_symmetry_cell_setting           monoclinic
_symmetry_space_group_name_H-M   'P 21'
_symmetry_Int_Tables_number      4
_space_group_name_Hall           'P 2yb'
loop_
_symmetry_equiv_pos_site_id
_symmetry_equiv_pos_as_xyz
1 x,y,z
2 -x,1/2+y,-z
_cell_length_a                   10.7660(7)
_cell_length_b                   8.7896(5)
_cell_length_c                   13.4136(9)
_cell_angle_alpha                90
_cell_angle_beta                 108.706(7)
_cell_angle_gamma                90
_cell_volume                     1202.26
_cell_formula_units_Z            2
loop_
_atom_site_label
_atom_site_type_symbol
_atom_site_fract_x
_atom_site_fract_y
_atom_site_fract_z
Cl1 Cl 0.55007(16) 0.12033(17) 0.01770(14)
O1 O 0.3388(4) 0.4900(4) 0.3651(3)
O2 O 0.3175(4) 0.8940(4) 0.0829(3)
O3 O 0.4289(3) 0.7695(4) 0.2317(3)
O4 O 0.0049(4) 0.7183(5) -0.0020(4)
O5 O -0.1103(3) 0.6649(4) 0.1958(3)
C1 C 0.1875(6) 0.8846(7) 0.0060(5)
H1 H 0.1928 0.8592 -0.0629
H2 H 0.1416 0.9807 0.0012
N1 N -0.0039(4) 0.8943(5) 0.2359(4)
C2 C 0.3442(5) 0.2620(6) 0.0486(5)
H3 H 0.2951 0.2228 -0.0166
C3 C 0.1248(4) 0.6780(6) 0.2957(4)
H4 H 0.1212 0.6073 0.3513
C4 C 0.2963(5) 0.4971(5) 0.2708(4)
C5 C 0.3205(5) 0.7880(5) 0.1554(4)
C6 C 0.1787(4) 0.5973(5) 0.2153(4)
H5 H 0.1092 0.5294 0.1736
C7 C 0.1212(5) 0.9456(6) 0.2994(4)
C8 C 0.3575(5) 0.4075(5) 0.2040(4)
C9 C 0.2858(5) 0.3504(6) 0.1059(5)
H6 H 0.1968 0.3722 0.0784
C10 C 0.2071(5) 0.7075(5) 0.1396(4)
C11 C 0.4756(6) 0.2329(6) 0.0893(5)
C12 C 0.1182(5) 0.7618(6) 0.0448(4)
C13 C 0.5509(5) 0.2905(7) 0.1852(5)
H7 H 0.6408 0.2734 0.2100
C14 C 0.4904(5) 0.3744(6) 0.2439(5)
H8 H 0.5391 0.4088 0.3106
C15 C -0.0110(5) 0.7395(6) 0.2369(4)
C16 C 0.3218(6) 0.8448(7) 0.4135(5)
H9 H 0.3756 0.7632 0.4440
C17 C -0.1110(6) 0.9908(7) 0.1809(5)
H10 H -0.1884 0.9303 0.1516
H11 H -0.0903 1.0428 0.1253
H12 H -0.1262 1.0639 0.2289
C18 C 0.1992(5) 0.8211(6) 0.3429(4)
C19 C 0.3635(6) 0.9937(7) 0.4384(5)
H13 H 0.4454 1.0115 0.4877
C20 C 0.2868(7) 1.1150(7) 0.3919(5)
H14 H 0.3186 1.2135 0.4079
C21 C 0.5391(6) 0.8690(9) 0.2402(6)
H15 H 0.5154 0.9735 0.2488
H16 H 0.5636 0.8625 0.1768
C22 C 0.1622(6) 1.0923(7) 0.3214(5)
H17 H 0.1086 1.1738 0.2904
C23 C 0.6497(7) 0.8216(13) 0.3319(7)
H18 H 0.7233 0.8872 0.3389
H19 H 0.6734 0.7186 0.3223
H20 H 0.6247 0.8280 0.3943
O6 O 0.1066(6) 0.8718(6) 0.7179(4)
H21 H 0.1305 0.9499 0.7521
C24 C 0.1160(10) 0.8909(15) 0.6166(9)
H22 H 0.1878 0.8285 0.6110
H23 H 0.1386 0.9961 0.6089
C25 C -0.0028(12) 0.853(2) 0.5280(9)
H24 H 0.0143 0.8672 0.4626
H25 H -0.0738 0.9172 0.5300
H26 H -0.0260 0.7482 0.5338
loop_
_geom_bond_atom_site_label_1
_geom_bond_atom_site_label_2
_geom_bond_site_symmetry_1
_geom_bond_site_symmetry_2
Cl1 C11 1_555 1_555
O1 C4 1_555 1_555
O2 C1 1_555 1_555
O3 C5 1_555 1_555
O4 C12 1_555 1_555
O5 C15 1_555 1_555
C1 H1 1_555 1_555
H2 C1 1_555 1_555
N1 C7 1_555 1_555
C2 H3 1_555 1_555
C3 H4 1_555 1_555
C4 C6 1_555 1_555
C5 O2 1_555 1_555
C6 C3 1_555 1_555
H5 C6 1_555 1_555
C7 C18 1_555 1_555
C8 C4 1_555 1_555
C9 C2 1_555 1_555
H6 C9 1_555 1_555
C10 C5 1_555 1_555
C11 C2 1_555 1_555
C12 C1 1_555 1_555
C13 C11 1_555 1_555
H7 C13 1_555 1_555
C14 C8 1_555 1_555
H8 C14 1_555 1_555
C15 N1 1_555 1_555
C16 H9 1_555 1_555
C17 N1 1_555 1_555
H10 C17 1_555 1_555
H11 C17 1_555 1_555
H12 C17 1_555 1_555
C18 C3 1_555 1_555
C19 C16 1_555 1_555
H13 C19 1_555 1_555
C20 C19 1_555 1_555
H14 C20 1_555 1_555
C21 O3 1_555 1_555
H15 C21 1_555 1_555
H16 C21 1_555 1_555
C22 C7 1_555 1_555
H17 C22 1_555 1_555
C23 C21 1_555 1_555
H18 C23 1_555 1_555
H19 C23 1_555 1_555
H20 C23 1_555 1_555
O6 H21 1_555 1_555
C24 O6 1_555 1_555
H22 C24 1_555 1_555
H23 C24 1_555 1_555
C25 C24 1_555 1_555
H24 C25 1_555 1_555
H25 C25 1_555 1_555
H26 C25 1_555 1_555
C3 C15 1_555 1_555
C6 C10 1_555 1_555
C8 C9 1_555 1_555
C10 C12 1_555 1_555
C13 C14 1_555 1_555
C16 C18 1_555 1_555
C20 C22 1_555 1_555

#END
