
#######################################################################
#
#                 Cambridge Crystallographic Data Centre
#                                CCDC 
#
#######################################################################
#
# If this CIF has been generated from an entry in the Cambridge 
# Structural Database, then it will include bibliographic, chemical, 
# crystal, experimental, refinement or atomic coordinate data resulting 
# from the CCDC's data processing and validation procedures.
#
#######################################################################

data_ROPTUN
_chemical_formula_moiety         'C13 H10 F3 N1 O1'
_chemical_name_systematic        
2,2-Dimethyl-3-(2,2,2-trifluoroethylidene)-2,3-dihydro-1-benzofuran-5-carbonitrile
_symmetry_cell_setting           triclinic
_symmetry_space_group_name_H-M   'P -1'
_symmetry_Int_Tables_number      2
_space_group_name_Hall           '-P 1'
loop_
_symmetry_equiv_pos_site_id
_symmetry_equiv_pos_as_xyz
1 x,y,z
2 -x,-y,-z
_cell_length_a                   8.2454(17)
_cell_length_b                   8.3781(16)
_cell_length_c                   9.8653(19)
_cell_angle_alpha                112.638(3)
_cell_angle_beta                 101.824(4)
_cell_angle_gamma                90.822(4)
_cell_volume                     612.364
_exptl_crystal_colour            colorless
_exptl_crystal_description       block
_cell_formula_units_Z            2
loop_
_atom_site_label
_atom_site_type_symbol
_atom_site_fract_x
_atom_site_fract_y
_atom_site_fract_z
F1 F 0.5824(2) 0.50734(19) 0.25754(19)
F2 F 0.8352(2) 0.5517(2) 0.3591(2)
F3 F 0.6618(4) 0.6401(2) 0.4956(2)
O1 O 0.7869(2) 0.98818(19) 0.10026(17)
N1 N 0.7876(3) 0.1374(3) -0.2694(3)
C1 C 0.7931(3) 0.8181(3) 0.0201(2)
C2 C 0.8305(3) 0.7558(3) -0.1205(3)
H1 H 0.8539 0.8305 -0.1650
C3 C 0.8314(3) 0.5791(4) -0.1916(2)
H2 H 0.8561 0.5327 -0.2863
C4 C 0.7959(2) 0.4685(3) -0.1240(2)
C5 C 0.7612(2) 0.5330(2) 0.0182(2)
H3 H 0.7394 0.4583 0.0633
C6 C 0.7597(2) 0.7109(2) 0.09143(19)
C7 C 0.7313(2) 0.8242(2) 0.2378(2)
C8 C 0.7397(3) 1.0081(2) 0.2412(2)
C9 C 0.8745(4) 1.1304(3) 0.3675(3)
H4 H 0.9781 1.0796 0.3654
H5 H 0.8462 1.1514 0.4622
H6 H 0.8853 1.2382 0.3557
C10 C 0.5702(4) 1.0738(3) 0.2332(4)
H7 H 0.5744 1.1789 0.2160
H8 H 0.5378 1.0969 0.3265
H9 H 0.4905 0.9876 0.1519
C11 C 0.7033(3) 0.7963(2) 0.3553(2)
H10 H 0.6887 0.8930 0.4375
C12 C 0.6932(3) 0.6268(3) 0.3677(2)
C13 C 0.7926(3) 0.2837(3) -0.2038(3)
loop_
_geom_bond_atom_site_label_1
_geom_bond_atom_site_label_2
_geom_bond_site_symmetry_1
_geom_bond_site_symmetry_2
F1 C12 1_555 1_555
F2 C12 1_555 1_555
F3 C12 1_555 1_555
O1 C1 1_555 1_555
N1 C13 1_555 1_555
C1 C2 1_555 1_555
C2 H1 1_555 1_555
C3 C2 1_555 1_555
H2 C3 1_555 1_555
C4 C3 1_555 1_555
C5 C4 1_555 1_555
H3 C5 1_555 1_555
C6 C1 1_555 1_555
C7 C6 1_555 1_555
C8 O1 1_555 1_555
C9 C8 1_555 1_555
H4 C9 1_555 1_555
H5 C9 1_555 1_555
H6 C9 1_555 1_555
C10 C8 1_555 1_555
H7 C10 1_555 1_555
H8 C10 1_555 1_555
H9 C10 1_555 1_555
C11 C7 1_555 1_555
H10 C11 1_555 1_555
C12 C11 1_555 1_555
C13 C4 1_555 1_555
C5 C6 1_555 1_555
C7 C8 1_555 1_555

#END
