
#######################################################################
#
#                 Cambridge Crystallographic Data Centre
#                                CCDC 
#
#######################################################################
#
# If this CIF has been generated from an entry in the Cambridge 
# Structural Database, then it will include bibliographic, chemical, 
# crystal, experimental, refinement or atomic coordinate data resulting 
# from the CCDC's data processing and validation procedures.
#
#######################################################################

data_ROSQAT
_chemical_formula_moiety         'C24 H20 Br1 N3 O3 S2,C1 H4 O1'
_chemical_name_systematic        
"5-(4-Bromophenyl)-1'-methyl-1-((4-methylphenyl)sulfonyl)-2-thioxospiro[imidazolidine-4,3'-indol]-2'(1'H)-one methanol solvate"
_symmetry_cell_setting           orthorhombic
_symmetry_space_group_name_H-M   'P 21 21 21'
_symmetry_Int_Tables_number      19
_space_group_name_Hall           'P 2ac 2ab'
loop_
_symmetry_equiv_pos_site_id
_symmetry_equiv_pos_as_xyz
1 x,y,z
2 1/2+x,1/2-y,-z
3 -x,1/2+y,1/2-z
4 1/2-x,-y,1/2+z
_cell_length_a                   8.9006(5)
_cell_length_b                   16.8997(9)
_cell_length_c                   17.3802(10)
_cell_angle_alpha                90
_cell_angle_beta                 90
_cell_angle_gamma                90
_cell_volume                     2614.29
_cell_formula_units_Z            4
loop_
_atom_site_label
_atom_site_type_symbol
_atom_site_fract_x
_atom_site_fract_y
_atom_site_fract_z
Br1 Br 0.91031(4) 0.49399(3) 0.19923(3)
S1 S 0.28103(11) 0.57138(5) 0.43285(6)
S2 S 0.28141(12) 0.43733(6) 0.57766(5)
O1 O -0.0109(2) 0.36104(14) 0.39178(13)
O2 O 0.4088(3) 0.59469(15) 0.47606(17)
O3 O 0.2645(3) 0.59645(12) 0.35461(14)
N1 N 0.2747(3) 0.47279(12) 0.42537(14)
N2 N 0.2944(3) 0.34556(14) 0.45303(13)
N3 N 0.0821(3) 0.27643(14) 0.30041(16)
C1 C 0.4095(4) 0.16658(18) 0.2214(2)
H1 H 0.4365 0.1282 0.1856
C2 C 0.5177(4) 0.19961(19) 0.2660(2)
H2 H 0.6162 0.1818 0.2621
C3 C 0.4829(3) 0.25963(18) 0.31747(18)
H3 H 0.5572 0.2826 0.3477
C4 C 0.3350(3) 0.28460(17) 0.32277(17)
C5 C 0.2604(3) 0.34673(16) 0.37100(16)
C6 C 0.2915(3) 0.43462(16) 0.34901(16)
H4 H 0.2124 0.4536 0.3144
C7 C 0.1175(4) 0.59807(18) 0.48195(19)
C8 C 0.1258(5) 0.6448(2) 0.5454(2)
H5 H 0.2183 0.6567 0.5675
C9 C -0.0048(6) 0.6743(2) 0.5766(2)
H6 H 0.0016 0.7072 0.6194
C10 C -0.1426(5) 0.6573(2) 0.5476(2)
C11 C -0.2846(5) 0.6891(2) 0.5816(2)
H7 H -0.2966 0.7435 0.5669
H8 H -0.2799 0.6853 0.6366
H9 H -0.3685 0.6589 0.5630
C12 C 0.2837(3) 0.41810(18) 0.48581(17)
C13 C 0.4444(3) 0.45062(16) 0.31317(17)
C14 C 0.4540(4) 0.46441(17) 0.23542(18)
H10 H 0.3673 0.4649 0.2056
C15 C 0.5934(4) 0.47764(17) 0.2011(2)
H11 H 0.6003 0.4878 0.1487
C16 C 0.7197(4) 0.47542(18) 0.2457(2)
C17 C 0.7124(4) 0.46040(17) 0.3227(2)
H12 H 0.7996 0.4579 0.3521
C18 C 0.5731(4) 0.44900(17) 0.35659(19)
H13 H 0.5669 0.4402 0.4093
C19 C 0.0929(4) 0.33029(18) 0.35726(19)
C20 C -0.0613(3) 0.2428(2) 0.2734(2)
H14 H -0.0758 0.1915 0.2960
H15 H -0.0592 0.2380 0.2183
H16 H -0.1424 0.2770 0.2882
C21 C 0.2257(3) 0.24724(17) 0.27943(16)
C22 C 0.2607(4) 0.18839(19) 0.22752(17)
H17 H 0.1868 0.1643 0.1978
C23 C -0.0209(4) 0.5797(2) 0.4513(2)
H18 H -0.0267 0.5475 0.4081
C24 C -0.1502(4) 0.6084(2) 0.4838(2)
H19 H -0.2431 0.5950 0.4630
O4 O 0.7432(3) 0.69162(15) -0.01514(15)
H20 H 0.6575 0.6929 -0.0324
C25 C 0.7528(6) 0.6331(3) 0.0416(2)
H21 H 0.8313 0.6464 0.0773
H22 H 0.7749 0.5831 0.0180
H23 H 0.6589 0.6296 0.0686
loop_
_geom_bond_atom_site_label_1
_geom_bond_atom_site_label_2
_geom_bond_site_symmetry_1
_geom_bond_site_symmetry_2
Br1 C16 1_555 1_555
S1 O2 1_555 1_555
S2 C12 1_555 1_555
O1 C19 1_555 1_555
O3 S1 1_555 1_555
N1 S1 1_555 1_555
N2 C5 1_555 1_555
N3 C19 1_555 1_555
C1 H1 1_555 1_555
C2 C1 1_555 1_555
H2 C2 1_555 1_555
C3 C2 1_555 1_555
H3 C3 1_555 1_555
C4 C3 1_555 1_555
C5 C4 1_555 1_555
C6 N1 1_555 1_555
H4 C6 1_555 1_555
C7 S1 1_555 1_555
C8 C7 1_555 1_555
H5 C8 1_555 1_555
C9 C8 1_555 1_555
H6 C9 1_555 1_555
C10 C9 1_555 1_555
C11 C10 1_555 1_555
H7 C11 1_555 1_555
H8 C11 1_555 1_555
H9 C11 1_555 1_555
C12 N1 1_555 1_555
C13 C6 1_555 1_555
C14 C13 1_555 1_555
H10 C14 1_555 1_555
C15 C14 1_555 1_555
H11 C15 1_555 1_555
C16 C15 1_555 1_555
C17 C16 1_555 1_555
H12 C17 1_555 1_555
C18 C13 1_555 1_555
H13 C18 1_555 1_555
C19 C5 1_555 1_555
C20 N3 1_555 1_555
H14 C20 1_555 1_555
H15 C20 1_555 1_555
H16 C20 1_555 1_555
C21 N3 1_555 1_555
C22 C1 1_555 1_555
H17 C22 1_555 1_555
C23 C7 1_555 1_555
H18 C23 1_555 1_555
C24 C10 1_555 1_555
H19 C24 1_555 1_555
O4 H20 1_555 1_555
C25 O4 1_555 1_555
H21 C25 1_555 1_555
H22 C25 1_555 1_555
H23 C25 1_555 1_555
N2 C12 1_555 1_555
C4 C21 1_555 1_555
C5 C6 1_555 1_555
C17 C18 1_555 1_555
C21 C22 1_555 1_555
C23 C24 1_555 1_555

#END
