
#######################################################################
#
#                 Cambridge Crystallographic Data Centre
#                                CCDC 
#
#######################################################################
#
# If this CIF has been generated from an entry in the Cambridge 
# Structural Database, then it will include bibliographic, chemical, 
# crystal, experimental, refinement or atomic coordinate data resulting 
# from the CCDC's data processing and validation procedures.
#
#######################################################################

data_ROSRAU
_chemical_formula_moiety         'C25 H18 Br1 N3 O4 S1'
_chemical_name_systematic        
(SSSS)-4-(3-Bromophenyl)-1'-methyl-3a-nitro-3-thioxo-2,3,3a,9b-tetrahydro-4H-spiro[chromeno[3,4-c]pyrrole-1,3'-indol]-2'(1'H)-one
_symmetry_cell_setting           orthorhombic
_symmetry_space_group_name_H-M   'P 21 21 21'
_symmetry_Int_Tables_number      19
_space_group_name_Hall           'P 2ac 2ab'
loop_
_symmetry_equiv_pos_site_id
_symmetry_equiv_pos_as_xyz
1 x,y,z
2 1/2-x,-y,1/2+z
3 -x,1/2+y,1/2-z
4 1/2+x,1/2-y,-z
_cell_length_a                   7.8034(10)
_cell_length_b                   9.5210(13)
_cell_length_c                   30.485(4)
_cell_angle_alpha                90
_cell_angle_beta                 90
_cell_angle_gamma                90
_cell_volume                     2264.92
_cell_formula_units_Z            4
loop_
_atom_site_label
_atom_site_type_symbol
_atom_site_fract_x
_atom_site_fract_y
_atom_site_fract_z
Br1 Br 0.33099(5) 0.74996(4) 0.204714(10)
O1 O 0.1819(3) 0.32241(17) 0.30478(5)
N1 N -0.0415(3) 0.4677(2) 0.36385(7)
C1 C 0.2168(3) 0.2306(2) 0.43393(7)
S1 S 0.18510(13) 0.64635(7) 0.42867(2)
C2 C 0.0952(3) 0.2489(3) 0.39345(7)
H1 H -0.0227 0.2442 0.4044
O2 O -0.1700(3) 0.4379(2) 0.38408(7)
N2 N 0.2428(3) 0.3770(2) 0.44705(7)
H2 H 0.2930 0.3982 0.4713
O3 O -0.0376(3) 0.5501(2) 0.33362(7)
C3 C 0.1269(3) 0.4015(2) 0.37827(8)
N3 N 0.2124(3) 0.0381(2) 0.48203(7)
O4 O -0.0226(3) 0.1818(2) 0.48389(6)
C4 C 0.2569(4) 0.3995(3) 0.34017(8)
H3 H 0.3536 0.3426 0.3504
C5 C 0.1428(4) 0.1840(2) 0.31463(8)
C6 C 0.1112(3) 0.1417(3) 0.35741(8)
C7 C 0.0768(4) 0.0006(3) 0.36493(9)
H4 H 0.0590 -0.0310 0.3934
C8 C 0.0686(4) -0.0931(3) 0.33055(11)
H5 H 0.0458 -0.1874 0.3359
C9 C 0.0942(4) -0.0468(3) 0.28815(10)
H6 H 0.0846 -0.1097 0.2649
C10 C 0.1336(4) 0.0913(3) 0.27993(9)
H7 H 0.1539 0.1218 0.2514
C11 C 0.1857(4) 0.4758(2) 0.41992(8)
C12 C 0.1173(4) 0.1509(3) 0.47037(8)
C13 C 0.3678(4) 0.0321(3) 0.45884(8)
C14 C 0.3783(4) 0.1464(3) 0.42993(8)
C15 C 0.5256(4) 0.1635(3) 0.40577(10)
H8 H 0.5389 0.2413 0.3877
C16 C 0.6547(5) 0.0628(4) 0.40876(12)
H9 H 0.7527 0.0719 0.3916
C17 C 0.6395(5) -0.0485(3) 0.43634(12)
H10 H 0.7272 -0.1145 0.4378
C18 C 0.4958(5) -0.0654(3) 0.46227(11)
H11 H 0.4864 -0.1409 0.4815
C19 C 0.1650(5) -0.0603(3) 0.51645(10)
H12 H 0.0544 -0.0357 0.5279
H13 H 0.2484 -0.0566 0.5396
H14 H 0.1609 -0.1537 0.5046
C20 C 0.3346(4) 0.5330(3) 0.32200(8)
C21 C 0.4624(4) 0.6005(3) 0.34484(10)
H15 H 0.4933 0.5681 0.3725
C22 C 0.5453(5) 0.7152(3) 0.32741(10)
H16 H 0.6289 0.7612 0.3437
C23 C 0.5053(4) 0.7623(3) 0.28602(10)
H17 H 0.5606 0.8399 0.2741
C24 C 0.3821(4) 0.6921(3) 0.26289(9)
C25 C 0.2931(4) 0.5791(3) 0.28004(8)
H18 H 0.2075 0.5350 0.2639
loop_
_geom_bond_atom_site_label_1
_geom_bond_atom_site_label_2
_geom_bond_site_symmetry_1
_geom_bond_site_symmetry_2
Br1 C24 1_555 1_555
O1 C4 1_555 1_555
N1 O2 1_555 1_555
C1 C2 1_555 1_555
S1 C11 1_555 1_555
C2 H1 1_555 1_555
N2 C1 1_555 1_555
H2 N2 1_555 1_555
O3 N1 1_555 1_555
C3 N1 1_555 1_555
N3 C12 1_555 1_555
O4 C12 1_555 1_555
C4 C3 1_555 1_555
H3 C4 1_555 1_555
C5 O1 1_555 1_555
C6 C2 1_555 1_555
C7 C6 1_555 1_555
H4 C7 1_555 1_555
C8 C7 1_555 1_555
H5 C8 1_555 1_555
C9 C8 1_555 1_555
H6 C9 1_555 1_555
C10 C5 1_555 1_555
H7 C10 1_555 1_555
C11 N2 1_555 1_555
C12 C1 1_555 1_555
C13 N3 1_555 1_555
C14 C1 1_555 1_555
C15 C14 1_555 1_555
H8 C15 1_555 1_555
C16 C15 1_555 1_555
H9 C16 1_555 1_555
C17 C16 1_555 1_555
H10 C17 1_555 1_555
C18 C13 1_555 1_555
H11 C18 1_555 1_555
C19 N3 1_555 1_555
H12 C19 1_555 1_555
H13 C19 1_555 1_555
H14 C19 1_555 1_555
C20 C4 1_555 1_555
C21 C20 1_555 1_555
H15 C21 1_555 1_555
C22 C21 1_555 1_555
H16 C22 1_555 1_555
C23 C22 1_555 1_555
H17 C23 1_555 1_555
C24 C23 1_555 1_555
C25 C20 1_555 1_555
H18 C25 1_555 1_555
C2 C3 1_555 1_555
C3 C11 1_555 1_555
C5 C6 1_555 1_555
C9 C10 1_555 1_555
C13 C14 1_555 1_555
C17 C18 1_555 1_555
C24 C25 1_555 1_555

#END
