
#######################################################################
#
#                 Cambridge Crystallographic Data Centre
#                                CCDC 
#
#######################################################################
#
# If this CIF has been generated from an entry in the Cambridge 
# Structural Database, then it will include bibliographic, chemical, 
# crystal, experimental, refinement or atomic coordinate data resulting 
# from the CCDC's data processing and validation procedures.
#
#######################################################################

data_ROTDOV01
_chemical_formula_moiety         'C10 H10 Cl1 N1 O4 S1'
_chemical_name_systematic        
(S)-1-(6-chloro-2,2-dioxido-3,4-dihydro-1,2,3-benzoxathiazin-4-yl)acetone
_symmetry_cell_setting           orthorhombic
_symmetry_space_group_name_H-M   'P 21 21 21'
_symmetry_Int_Tables_number      19
_space_group_name_Hall           'P 2ac 2ab'
loop_
_symmetry_equiv_pos_site_id
_symmetry_equiv_pos_as_xyz
1 x,y,z
2 1/2-x,-y,1/2+z
3 -x,1/2+y,1/2-z
4 1/2+x,1/2-y,-z
_cell_length_a                   7.3279(9)
_cell_length_b                   14.1730(17)
_cell_length_c                   22.626(3)
_cell_angle_alpha                90
_cell_angle_beta                 90
_cell_angle_gamma                90
_cell_volume                     2349.9
_exptl_crystal_colour            colorless
_exptl_crystal_description       Needle-like
_cell_formula_units_Z            8
_exptl_crystal_recrystallization_method Dichloromethane/Hexane
loop_
_atom_site_label
_atom_site_type_symbol
_atom_site_fract_x
_atom_site_fract_y
_atom_site_fract_z
C1 C -0.0321(5) 0.4184(2) 0.78016(12)
C2 C 0.1323(5) 0.4102(2) 0.75149(14)
H1 H 0.1396 0.4181 0.7108
C3 C 0.2855(5) 0.3902(2) 0.78391(14)
H2 H 0.3980 0.3844 0.7652
C4 C 0.2725(5) 0.3786(2) 0.84430(13)
C5 C 0.1083(4) 0.38517(19) 0.87382(12)
C6 C -0.0456(5) 0.4049(2) 0.84053(13)
H3 H -0.1588 0.4092 0.8589
C7 C 0.0872(5) 0.3697(2) 0.94038(12)
H4 H -0.0040 0.3199 0.9460
C8 C 0.0165(5) 0.4578(2) 0.97143(12)
H5 H 0.1134 0.5044 0.9726
H6 H -0.0828 0.4841 0.9483
C9 C -0.0499(4) 0.4406(2) 1.03322(12)
C10 C -0.0641(8) 0.5259(3) 1.07187(16)
H7 H -0.1478 0.5135 1.1036
H8 H -0.1073 0.5783 1.0490
H9 H 0.0539 0.5406 1.0879
Cl1 Cl -0.22683(13) 0.44416(7) 0.73976(4)
N1 N 0.2610(4) 0.33591(18) 0.96731(10)
H10 H 0.2618 0.2944 0.9950
O1 O -0.0909(3) 0.36371(15) 1.05074(8)
O2 O 0.5987(3) 0.33049(17) 0.96346(11)
O3 O 0.4365(4) 0.47949(14) 0.94814(10)
O4 O 0.4373(3) 0.35667(16) 0.87354(8)
S1 S 0.44448(13) 0.38009(6) 0.94235(4)
C11 C 0.3983(4) 0.3473(2) 0.18231(13)
C12 C 0.2285(5) 0.3461(3) 0.15597(15)
H11 H 0.2173 0.3476 0.1150
C13 C 0.0767(5) 0.3426(3) 0.19124(14)
H12 H -0.0388 0.3414 0.1742
C14 C 0.0944(4) 0.3408(2) 0.25181(13)
C15 C 0.2627(4) 0.33972(19) 0.27923(12)
C16 C 0.4160(4) 0.34373(19) 0.24278(12)
H13 H 0.5318 0.3440 0.2596
C17 C 0.2861(4) 0.3358(2) 0.34607(13)
H14 H 0.3668 0.3880 0.3572
C18 C 0.3772(4) 0.2450(2) 0.36672(12)
H15 H 0.2919 0.1932 0.3621
H16 H 0.4816 0.2322 0.3416
C19 C 0.4397(5) 0.2487(2) 0.43018(13)
C20 C 0.5328(7) 0.1614(3) 0.45304(17)
H17 H 0.5390 0.1639 0.4954
H18 H 0.6540 0.1578 0.4371
H19 H 0.4648 0.1067 0.4412
Cl2 Cl 0.58844(12) 0.35625(6) 0.13729(3)
N2 N 0.1116(4) 0.35081(19) 0.37658(11)
H20 H 0.1072 0.3833 0.4086
O5 O 0.4183(4) 0.31666(18) 0.46058(9)
O6 O -0.2244(3) 0.3471(2) 0.37580(12)
O7 O -0.0512(4) 0.20699(16) 0.34555(10)
O8 O -0.0713(3) 0.34356(17) 0.28320(9)
S2 S -0.06960(13) 0.30592(7) 0.34938(4)
loop_
_geom_bond_atom_site_label_1
_geom_bond_atom_site_label_2
_geom_bond_site_symmetry_1
_geom_bond_site_symmetry_2
C1 C2 1_555 1_555
C2 H1 1_555 1_555
C3 C2 1_555 1_555
H2 C3 1_555 1_555
C4 C3 1_555 1_555
C5 C4 1_555 1_555
C6 C1 1_555 1_555
H3 C6 1_555 1_555
C7 C5 1_555 1_555
H4 C7 1_555 1_555
C8 C7 1_555 1_555
H5 C8 1_555 1_555
H6 C8 1_555 1_555
C9 C8 1_555 1_555
C10 C9 1_555 1_555
H7 C10 1_555 1_555
H8 C10 1_555 1_555
H9 C10 1_555 1_555
Cl1 C1 1_555 1_555
N1 C7 1_555 1_555
H10 N1 1_555 1_555
O1 C9 1_555 1_555
O2 S1 1_555 1_555
O3 S1 1_555 1_555
O4 C4 1_555 1_555
S1 N1 1_555 1_555
C11 C12 1_555 1_555
C12 H11 1_555 1_555
C13 C12 1_555 1_555
H12 C13 1_555 1_555
C14 C13 1_555 1_555
C15 C14 1_555 1_555
C16 C11 1_555 1_555
H13 C16 1_555 1_555
C17 C15 1_555 1_555
H14 C17 1_555 1_555
C18 C17 1_555 1_555
H15 C18 1_555 1_555
H16 C18 1_555 1_555
C19 C18 1_555 1_555
C20 C19 1_555 1_555
H17 C20 1_555 1_555
H18 C20 1_555 1_555
H19 C20 1_555 1_555
Cl2 C11 1_555 1_555
N2 C17 1_555 1_555
H20 N2 1_555 1_555
O5 C19 1_555 1_555
O6 S2 1_555 1_555
O7 S2 1_555 1_555
O8 C14 1_555 1_555
S2 N2 1_555 1_555
C5 C6 1_555 1_555
O4 S1 1_555 1_555
C15 C16 1_555 1_555
O8 S2 1_555 1_555

#END
