
#######################################################################
#
#                 Cambridge Crystallographic Data Centre
#                                CCDC 
#
#######################################################################
#
# If this CIF has been generated from an entry in the Cambridge 
# Structural Database, then it will include bibliographic, chemical, 
# crystal, experimental, refinement or atomic coordinate data resulting 
# from the CCDC's data processing and validation procedures.
#
#######################################################################

data_ROWCOX
_chemical_formula_moiety         'C13 H14 N1 O2 P1'
_chemical_name_systematic        
'(S)-P-(2-Methoxyphenyl)-P-phenylphosphinic amide'
_symmetry_cell_setting           orthorhombic
_symmetry_space_group_name_H-M   'P 21 21 21'
_symmetry_Int_Tables_number      19
_space_group_name_Hall           'P 2ac 2ab'
loop_
_symmetry_equiv_pos_site_id
_symmetry_equiv_pos_as_xyz
1 x,y,z
2 1/2+x,1/2-y,-z
3 -x,1/2+y,1/2-z
4 1/2-x,-y,1/2+z
_cell_length_a                   7.7990(2)
_cell_length_b                   11.5948(3)
_cell_length_c                   13.6252(3)
_cell_angle_alpha                90
_cell_angle_beta                 90
_cell_angle_gamma                90
_cell_volume                     1232.1
_cell_formula_units_Z            4
loop_
_atom_site_label
_atom_site_type_symbol
_atom_site_fract_x
_atom_site_fract_y
_atom_site_fract_z
P1 P 0.08395(5) 0.61541(4) 0.44966(3)
O1 O 0.16932(16) 0.45991(13) 0.28686(9)
O2 O -0.00329(17) 0.68998(14) 0.52322(10)
N1 N 0.2284(2) 0.68492(16) 0.38607(12)
H1 H 0.259(3) 0.655(2) 0.3325(15)
H2 H 0.311(3) 0.719(2) 0.4173(15)
C1 C 0.3170(3) 0.2989(2) 0.60183(16)
H3 H 0.3643 0.2329 0.6331
C2 C 0.4232(3) 0.3804(2) 0.56056(15)
H4 H 0.5441 0.3708 0.5639
C3 C 0.3548(2) 0.4766(2) 0.51406(13)
H5 H 0.4289 0.5326 0.4858
C4 C 0.1777(2) 0.49120(19) 0.50882(12)
C5 C -0.0609(2) 0.55679(18) 0.35964(12)
C6 C -0.0034(2) 0.48085(19) 0.28728(13)
C7 C 0.2266(2) 0.3553(2) 0.24162(14)
H6 H 0.1626 0.2900 0.2689
H7 H 0.3492 0.3448 0.2544
H8 H 0.2070 0.3596 0.1707
C8 C -0.2903(2) 0.4595(2) 0.22720(14)
H9 H -0.3688 0.4262 0.1820
C9 C -0.3495(2) 0.5350(2) 0.29791(14)
H10 H -0.4680 0.5536 0.3010
C10 C -0.2357(2) 0.58362(19) 0.36451(14)
H11 H -0.2765 0.6352 0.4134
C11 C 0.1400(3) 0.3135(2) 0.59747(16)
H12 H 0.0663 0.2579 0.6264
C12 C 0.0714(3) 0.4090(2) 0.55099(14)
H13 H -0.0495 0.4185 0.5479
C13 C -0.1171(2) 0.43152(19) 0.22133(13)
H14 H -0.0773 0.3793 0.1727
loop_
_geom_bond_atom_site_label_1
_geom_bond_atom_site_label_2
_geom_bond_site_symmetry_1
_geom_bond_site_symmetry_2
P1 O2 1_555 1_555
O1 C6 1_555 1_555
N1 P1 1_555 1_555
H1 N1 1_555 1_555
H2 N1 1_555 1_555
C1 H3 1_555 1_555
C2 C1 1_555 1_555
H4 C2 1_555 1_555
C3 C2 1_555 1_555
H5 C3 1_555 1_555
C4 P1 1_555 1_555
C5 P1 1_555 1_555
C6 C5 1_555 1_555
C7 O1 1_555 1_555
H6 C7 1_555 1_555
H7 C7 1_555 1_555
H8 C7 1_555 1_555
C8 H9 1_555 1_555
C9 C8 1_555 1_555
H10 C9 1_555 1_555
C10 C5 1_555 1_555
H11 C10 1_555 1_555
C11 C1 1_555 1_555
H12 C11 1_555 1_555
C12 C4 1_555 1_555
H13 C12 1_555 1_555
C13 C6 1_555 1_555
H14 C13 1_555 1_555
C3 C4 1_555 1_555
C8 C13 1_555 1_555
C9 C10 1_555 1_555
C11 C12 1_555 1_555

#END
