
#######################################################################
#
#                 Cambridge Crystallographic Data Centre
#                                CCDC 
#
#######################################################################
#
# If this CIF has been generated from an entry in the Cambridge 
# Structural Database, then it will include bibliographic, chemical, 
# crystal, experimental, refinement or atomic coordinate data resulting 
# from the CCDC's data processing and validation procedures.
#
#######################################################################

data_ROXVUX
_chemical_formula_moiety         'C20 H16 Cl3 F1 N1 O1 P1'
_chemical_name_systematic        
'P,P-Diphenyl-N-(2,2,2-trichloro-1-(4-fluorophenyl)ethyl)phosphinic amide'
_symmetry_cell_setting           monoclinic
_symmetry_space_group_name_H-M   'P 21/c'
_symmetry_Int_Tables_number      14
_space_group_name_Hall           '-P 2ybc'
loop_
_symmetry_equiv_pos_site_id
_symmetry_equiv_pos_as_xyz
1 x,y,z
2 -x,1/2+y,1/2-z
3 -x,-y,-z
4 x,1/2-y,1/2+z
_cell_length_a                   11.1299(5)
_cell_length_b                   18.2578(8)
_cell_length_c                   19.7842(9)
_cell_angle_alpha                90
_cell_angle_beta                 92.522(4)
_cell_angle_gamma                90
_cell_volume                     4016.4
_exptl_crystal_colour            colorless
_exptl_crystal_description       block
_cell_formula_units_Z            8
loop_
_atom_site_label
_atom_site_type_symbol
_atom_site_fract_x
_atom_site_fract_y
_atom_site_fract_z
N1 N 0.64437(11) 0.72374(7) 0.21775(6)
H1 H 0.6441(17) 0.7350(11) 0.2569(11)
C1 C 0.75998(13) 0.72574(8) 0.18698(7)
H2 H 0.7439 0.7208 0.1371
C2 C 0.82457(13) 0.79851(8) 0.19844(8)
C3 C 0.86560(15) 0.83630(9) 0.14298(10)
H3 H 0.8545 0.8157 0.0991
C4 C 0.92274(16) 0.90392(10) 0.15075(12)
H4 H 0.9498 0.9300 0.1128
C5 C 0.93865(15) 0.93161(9) 0.21491(13)
C6 C 0.90052(16) 0.89605(10) 0.27129(11)
H5 H 0.9142 0.9166 0.3151
C7 C 0.84136(15) 0.82920(9) 0.26277(9)
H6 H 0.8123 0.8044 0.3010
F1 F 0.99300(11) 0.99785(6) 0.22292(9)
C8 C 0.83838(14) 0.65873(8) 0.20982(8)
Cl1 Cl 0.76528(4) 0.57678(2) 0.18317(2)
Cl2 Cl 0.98101(3) 0.66273(2) 0.17290(2)
Cl3 Cl 0.86211(4) 0.65544(2) 0.29897(2)
P1 P 0.51677(3) 0.70277(2) 0.17673(2)
O1 O 0.53324(10) 0.69462(6) 0.10287(5)
C9 C 0.45282(13) 0.62160(8) 0.21253(7)
C10 C 0.42577(13) 0.56138(8) 0.17165(8)
H7 H 0.4440 0.5622 0.1252
C11 C 0.37199(14) 0.49983(9) 0.19874(8)
H8 H 0.3534 0.4587 0.1708
C12 C 0.34563(14) 0.49870(9) 0.26660(8)
H9 H 0.3086 0.4568 0.2851
C13 C 0.37304(15) 0.55842(9) 0.30758(8)
H10 H 0.3555 0.5572 0.3541
C14 C 0.42604(15) 0.62014(8) 0.28076(8)
H11 H 0.4440 0.6613 0.3088
C15 C 0.41333(13) 0.77483(8) 0.19722(7)
C16 C 0.45450(14) 0.84579(9) 0.20953(8)
H12 H 0.5384 0.8556 0.2111
C17 C 0.37346(15) 0.90246(9) 0.21951(9)
H13 H 0.4022 0.9508 0.2275
C18 C 0.25133(15) 0.88847(9) 0.21774(9)
H14 H 0.1963 0.9273 0.2244
C19 C 0.20878(14) 0.81775(9) 0.20618(9)
H15 H 0.1248 0.8082 0.2055
C20 C 0.28927(14) 0.76117(9) 0.19571(8)
H16 H 0.2601 0.7129 0.1875
N2 N 0.48238(11) 0.79720(7) 0.46033(6)
H17 H 0.4867(18) 0.8027(11) 0.5006(11)
C21 C 0.36618(13) 0.79814(8) 0.42429(7)
H18 H 0.3815 0.7941 0.3750
C22 C 0.28288(13) 0.73547(8) 0.44128(8)
C23 C 0.21214(15) 0.70252(9) 0.39001(9)
H19 H 0.2168 0.7194 0.3448
C24 C 0.13462(16) 0.64515(10) 0.40421(10)
H20 H 0.0872 0.6222 0.3691
C25 C 0.12847(17) 0.62266(10) 0.47010(11)
C26 C 0.19771(17) 0.65289(9) 0.52219(10)
H21 H 0.1921 0.6357 0.5673
C27 C 0.27620(15) 0.70922(9) 0.50714(8)
H22 H 0.3260 0.7301 0.5423
F2 F 0.05265(12) 0.56723(7) 0.48439(8)
C28 C 0.30697(14) 0.87399(9) 0.43500(8)
Cl4 Cl 0.17000(3) 0.88133(2) 0.38640(2)
Cl5 Cl 0.27678(4) 0.88808(2) 0.52171(2)
Cl6 Cl 0.40332(4) 0.94498(2) 0.40893(3)
P2 P 0.59832(3) 0.75645(2) 0.42681(2)
O2 O 0.58779(10) 0.75861(6) 0.35158(5)
C29 C 0.72800(13) 0.80408(8) 0.46184(7)
C30 C 0.72131(15) 0.87743(9) 0.48084(9)
H23 H 0.6458 0.9018 0.4798
C31 C 0.82548(15) 0.91478(9) 0.50140(10)
H24 H 0.8209 0.9646 0.5148
C32 C 0.93554(15) 0.87973(10) 0.50249(9)
H25 H 1.0065 0.9059 0.5159
C33 C 0.94312(15) 0.80664(10) 0.48421(9)
H26 H 1.0189 0.7826 0.4854
C34 C 0.83952(14) 0.76874(9) 0.46418(8)
H27 H 0.8444 0.7185 0.4520
C35 C 0.61252(13) 0.66362(8) 0.45731(8)
C36 C 0.59810(16) 0.64790(9) 0.52553(8)
H28 H 0.5776 0.6859 0.5558
C37 C 0.61370(18) 0.57688(9) 0.54922(9)
H29 H 0.6027 0.5662 0.5955
C38 C 0.64530(18) 0.52149(9) 0.50552(9)
H30 H 0.6573 0.4731 0.5221
C39 C 0.65937(18) 0.53640(10) 0.43788(9)
H31 H 0.6806 0.4983 0.4080
C40 C 0.64243(16) 0.60734(9) 0.41349(8)
H32 H 0.6513 0.6174 0.3669
loop_
_geom_bond_atom_site_label_1
_geom_bond_atom_site_label_2
_geom_bond_site_symmetry_1
_geom_bond_site_symmetry_2
N1 H1 1_555 1_555
C1 N1 1_555 1_555
H2 C1 1_555 1_555
C2 C1 1_555 1_555
C3 C2 1_555 1_555
H3 C3 1_555 1_555
C4 C3 1_555 1_555
H4 C4 1_555 1_555
C5 C4 1_555 1_555
C6 C5 1_555 1_555
H5 C6 1_555 1_555
C7 C2 1_555 1_555
H6 C7 1_555 1_555
F1 C5 1_555 1_555
C8 C1 1_555 1_555
Cl1 C8 1_555 1_555
Cl2 C8 1_555 1_555
Cl3 C8 1_555 1_555
P1 N1 1_555 1_555
O1 P1 1_555 1_555
C9 P1 1_555 1_555
C10 C9 1_555 1_555
H7 C10 1_555 1_555
C11 C10 1_555 1_555
H8 C11 1_555 1_555
C12 C11 1_555 1_555
H9 C12 1_555 1_555
C13 C12 1_555 1_555
H10 C13 1_555 1_555
C14 C9 1_555 1_555
H11 C14 1_555 1_555
C15 P1 1_555 1_555
C16 C15 1_555 1_555
H12 C16 1_555 1_555
C17 C16 1_555 1_555
H13 C17 1_555 1_555
C18 C17 1_555 1_555
H14 C18 1_555 1_555
C19 C18 1_555 1_555
H15 C19 1_555 1_555
C20 C15 1_555 1_555
H16 C20 1_555 1_555
N2 H17 1_555 1_555
C21 N2 1_555 1_555
H18 C21 1_555 1_555
C22 C21 1_555 1_555
C23 C22 1_555 1_555
H19 C23 1_555 1_555
C24 C23 1_555 1_555
H20 C24 1_555 1_555
C25 C24 1_555 1_555
C26 C25 1_555 1_555
H21 C26 1_555 1_555
C27 C22 1_555 1_555
H22 C27 1_555 1_555
F2 C25 1_555 1_555
C28 C21 1_555 1_555
Cl4 C28 1_555 1_555
Cl5 C28 1_555 1_555
Cl6 C28 1_555 1_555
P2 N2 1_555 1_555
O2 P2 1_555 1_555
C29 P2 1_555 1_555
C30 C29 1_555 1_555
H23 C30 1_555 1_555
C31 C30 1_555 1_555
H24 C31 1_555 1_555
C32 C31 1_555 1_555
H25 C32 1_555 1_555
C33 C32 1_555 1_555
H26 C33 1_555 1_555
C34 C29 1_555 1_555
H27 C34 1_555 1_555
C35 P2 1_555 1_555
C36 C35 1_555 1_555
H28 C36 1_555 1_555
C37 C36 1_555 1_555
H29 C37 1_555 1_555
C38 C37 1_555 1_555
H30 C38 1_555 1_555
C39 C38 1_555 1_555
H31 C39 1_555 1_555
C40 C35 1_555 1_555
H32 C40 1_555 1_555
C6 C7 1_555 1_555
C13 C14 1_555 1_555
C19 C20 1_555 1_555
C26 C27 1_555 1_555
C33 C34 1_555 1_555
C39 C40 1_555 1_555

#END
