
#######################################################################
#
#                 Cambridge Crystallographic Data Centre
#                                CCDC 
#
#######################################################################
#
# If this CIF has been generated from an entry in the Cambridge 
# Structural Database, then it will include bibliographic, chemical, 
# crystal, experimental, refinement or atomic coordinate data resulting 
# from the CCDC's data processing and validation procedures.
#
#######################################################################

data_ROXWIM
_chemical_formula_moiety         'C20 H22 N2'
_chemical_name_systematic        
4-(2-(3,3-Dimethyl-3H-indol-2-yl)vinyl)-N,N-dimethylaniline
_symmetry_cell_setting           monoclinic
_symmetry_space_group_name_H-M   'P 21/c'
_symmetry_Int_Tables_number      14
_space_group_name_Hall           '-P 2ybc'
loop_
_symmetry_equiv_pos_site_id
_symmetry_equiv_pos_as_xyz
1 x,y,z
2 -x,1/2+y,1/2-z
3 -x,-y,-z
4 x,1/2-y,1/2+z
_cell_length_a                   17.115(3)
_cell_length_b                   5.9160(12)
_cell_length_c                   16.611(4)
_cell_angle_alpha                90
_cell_angle_beta                 94.76(3)
_cell_angle_gamma                90
_cell_volume                     1676.1
_exptl_crystal_colour            yellow
_exptl_crystal_description       block
_cell_formula_units_Z            4
loop_
_atom_site_label
_atom_site_type_symbol
_atom_site_fract_x
_atom_site_fract_y
_atom_site_fract_z
C1 C 0.07750(12) 0.1755(4) 0.22865(13)
H1 H 0.0369 0.2779 0.2334
C2 C 0.08757(13) 0.0725(4) 0.15564(13)
H2 H 0.0540 0.1082 0.1105
C3 C 0.14622(13) -0.0810(4) 0.14878(13)
H3 H 0.1509 -0.1522 0.0995
C4 C 0.19845(12) -0.1321(3) 0.21376(12)
H4 H 0.2388 -0.2353 0.2090
C5 C 0.18919(10) -0.0265(3) 0.28538(11)
C6 C 0.12850(10) 0.1239(3) 0.29405(11)
C7 C 0.13396(10) 0.2005(3) 0.37994(11)
C8 C 0.20720(10) 0.0739(3) 0.41129(11)
C9 C 0.23955(11) 0.0897(3) 0.49401(11)
H5 H 0.2178 0.1954 0.5271
C10 C 0.29786(11) -0.0355(3) 0.52600(11)
H6 H 0.3189 -0.1390 0.4916
C11 C 0.33304(10) -0.0308(3) 0.60837(11)
C12 C 0.38419(11) -0.1998(3) 0.63622(11)
H7 H 0.3983 -0.3103 0.6003
C13 C 0.41478(11) -0.2097(3) 0.71519(11)
H8 H 0.4489 -0.3264 0.7316
C14 C 0.39578(10) -0.0488(3) 0.77092(11)
C15 C 0.34665(11) 0.1274(3) 0.74242(12)
H9 H 0.3342 0.2418 0.7776
C16 C 0.31657(11) 0.1340(3) 0.66354(11)
H10 H 0.2839 0.2534 0.6464
C17 C 0.46660(14) -0.2551(4) 0.87958(13)
H11 H 0.4347 -0.3867 0.8685
H12 H 0.4790 -0.2416 0.9368
H13 H 0.5142 -0.2692 0.8532
C18 C 0.39411(15) 0.0863(4) 0.90889(13)
H14 H 0.4010 0.2412 0.8938
H15 H 0.4214 0.0590 0.9608
H16 H 0.3393 0.0557 0.9115
C19 C 0.06427(12) 0.1185(4) 0.42365(13)
H17 H 0.0169 0.1845 0.3990
H18 H 0.0712 0.1625 0.4794
H19 H 0.0608 -0.0432 0.4200
C20 C 0.14444(14) 0.4559(3) 0.38808(14)
H20 H 0.1897 0.5019 0.3617
H21 H 0.1514 0.4957 0.4442
H22 H 0.0988 0.5308 0.3634
N1 N 0.23730(9) -0.0515(2) 0.35832(9)
N2 N 0.42482(9) -0.0584(3) 0.85014(10)
loop_
_geom_bond_atom_site_label_1
_geom_bond_atom_site_label_2
_geom_bond_site_symmetry_1
_geom_bond_site_symmetry_2
C1 H1 1_555 1_555
C2 C1 1_555 1_555
H2 C2 1_555 1_555
C3 C2 1_555 1_555
H3 C3 1_555 1_555
C4 C3 1_555 1_555
H4 C4 1_555 1_555
C5 C4 1_555 1_555
C6 C1 1_555 1_555
C7 C6 1_555 1_555
C8 C7 1_555 1_555
C9 C8 1_555 1_555
H5 C9 1_555 1_555
C10 C9 1_555 1_555
H6 C10 1_555 1_555
C11 C10 1_555 1_555
C12 C11 1_555 1_555
H7 C12 1_555 1_555
C13 C12 1_555 1_555
H8 C13 1_555 1_555
C14 C13 1_555 1_555
C15 C14 1_555 1_555
H9 C15 1_555 1_555
C16 C11 1_555 1_555
H10 C16 1_555 1_555
C17 H11 1_555 1_555
H12 C17 1_555 1_555
H13 C17 1_555 1_555
C18 H14 1_555 1_555
H15 C18 1_555 1_555
H16 C18 1_555 1_555
C19 C7 1_555 1_555
H17 C19 1_555 1_555
H18 C19 1_555 1_555
H19 C19 1_555 1_555
C20 C7 1_555 1_555
H20 C20 1_555 1_555
H21 C20 1_555 1_555
H22 C20 1_555 1_555
N1 C5 1_555 1_555
N2 C14 1_555 1_555
C5 C6 1_555 1_555
C8 N1 1_555 1_555
C15 C16 1_555 1_555
C17 N2 1_555 1_555
C18 N2 1_555 1_555

#END
