
#######################################################################
#
#                 Cambridge Crystallographic Data Centre
#                                CCDC 
#
#######################################################################
#
# If this CIF has been generated from an entry in the Cambridge 
# Structural Database, then it will include bibliographic, chemical, 
# crystal, experimental, refinement or atomic coordinate data resulting 
# from the CCDC's data processing and validation procedures.
#
#######################################################################

data_ROYFAO
_chemical_formula_moiety         'C36 H28 B1 N3 O3'
_chemical_name_systematic        
3,6,9-tris(4-methoxyphenyl)-9cH-8b,9b,9d-triaza-9c-boratricyclopenta[cd,gh,kl]phenalene
_symmetry_cell_setting           monoclinic
_symmetry_space_group_name_H-M   'P 21/c'
_symmetry_Int_Tables_number      14
_space_group_name_Hall           '-P 2ybc'
loop_
_symmetry_equiv_pos_site_id
_symmetry_equiv_pos_as_xyz
1 x,y,z
2 -x,1/2+y,1/2-z
3 -x,-y,-z
4 x,1/2-y,1/2+z
_cell_length_a                   7.344(3)
_cell_length_b                   23.638(10)
_cell_length_c                   16.023(7)
_cell_angle_alpha                90
_cell_angle_beta                 100.216(8)
_cell_angle_gamma                90
_cell_volume                     2737.45
_exptl_crystal_colour            red
_exptl_crystal_description       prism
_cell_formula_units_Z            4
loop_
_atom_site_label
_atom_site_type_symbol
_atom_site_fract_x
_atom_site_fract_y
_atom_site_fract_z
C1 C 0.8065(3) 0.90822(9) 0.88109(14)
C2 C 0.6530(3) 0.93004(9) 0.91577(15)
H1 H 0.5525 0.9092 0.9269
C3 C 0.6808(3) 0.98677(9) 0.92950(15)
H2 H 0.6013 1.0113 0.9509
C4 C 0.8536(3) 1.00220(9) 0.90526(14)
C5 C 0.9404(3) 1.05407(9) 0.88978(15)
C6 C 1.0926(3) 1.05181(9) 0.84523(15)
C7 C 1.1720(3) 1.09205(9) 0.79497(16)
H3 H 1.1519 1.1309 0.7939
C8 C 1.2825(3) 1.06339(9) 0.74874(16)
H4 H 1.3527 1.0795 0.7120
C9 C 1.2710(3) 1.00440(9) 0.76701(15)
C10 C 1.3112(3) 0.95471(9) 0.72300(15)
C11 C 1.2081(3) 0.90490(9) 0.73295(15)
C12 C 1.1630(3) 0.85364(10) 0.68593(16)
H5 H 1.2159 0.8412 0.6406
C13 C 1.0278(3) 0.82600(10) 0.71960(16)
H6 H 0.9724 0.7919 0.7005
C14 C 0.9868(3) 0.85898(9) 0.78935(15)
C15 C 0.8444(3) 0.85749(9) 0.83911(14)
C16 C 0.8603(3) 1.10970(9) 0.90507(15)
C17 C 0.6700(3) 1.11887(9) 0.88476(16)
H7 H 0.5933 1.0894 0.8618
C18 C 0.5918(3) 1.17091(10) 0.89788(17)
H8 H 0.4644 1.1759 0.8843
C19 C 0.7052(3) 1.21534(10) 0.93142(16)
C20 C 0.8954(3) 1.20748(9) 0.95029(15)
H9 H 0.9720 1.2374 0.9717
C21 C 0.9715(3) 1.15541(9) 0.93741(15)
H10 H 1.0991 1.1507 0.9505
O1 O 0.6422(2) 1.26815(7) 0.94777(12)
C22 C 0.4471(4) 1.27747(12) 0.9253(2)
H11 H 0.4189 1.3156 0.9393
H12 H 0.3829 1.2515 0.9559
H13 H 0.4086 1.2715 0.8655
C23 C 0.7343(3) 0.80526(9) 0.84049(14)
C24 C 0.8249(3) 0.75281(9) 0.84899(15)
H14 H 0.9528 0.7516 0.8532
C25 C 0.7284(3) 0.70306(9) 0.85117(14)
H15 H 0.7915 0.6688 0.8569
C26 C 0.5378(3) 0.70380(9) 0.84486(14)
C27 C 0.4449(3) 0.75484(9) 0.83551(18)
H16 H 0.3168 0.7557 0.8307
C28 C 0.5431(3) 0.80488(9) 0.83334(17)
H17 H 0.4791 0.8390 0.8269
O2 O 0.4549(2) 0.65201(6) 0.84887(11)
C29 C 0.2578(3) 0.65079(10) 0.8374(2)
H18 H 0.2169 0.6125 0.8418
H19 H 0.2068 0.6655 0.7824
H20 H 0.2172 0.6735 0.8802
N1 N 0.9259(2) 0.95263(7) 0.88201(12)
N2 N 1.1664(2) 1.00067(7) 0.82908(12)
N3 N 1.1036(2) 0.90395(7) 0.79569(12)
B1 B 1.1206(3) 0.94549(10) 0.86699(17)
H21 H 1.239(2) 0.9286(6) 0.9293(9)
C30 C 1.6240(6) 0.98426(18) 0.7044(3)
H22 H 1.6365 1.0037 0.7555
O3 O 1.9052(4) 0.95688(10) 0.54575(16)
C31 C 1.4565(7) 0.9563(2) 0.6737(4)
C32 C 1.7698(5) 0.98381(15) 0.6613(3)
H23 H 1.8800 1.0018 0.6841
C33 C 1.7523(8) 0.95624(16) 0.5833(4)
C34 C 1.4404(7) 0.9312(2) 0.5947(3)
H24 H 1.3295 0.9138 0.5712
C35 C 1.5878(8) 0.93128(17) 0.5486(3)
H25 H 1.5732 0.9146 0.4953
C36 C 1.8975(15) 0.9270(3) 0.4696(5)
H26 H 2.0129 0.9311 0.4499
H27 H 1.7991 0.9418 0.4278
H28 H 1.8752 0.8877 0.4789
O4? O 1.7900(13) 0.9416(4) 0.4758(5)
C37? C 1.983(2) 0.9300(11) 0.502(2)
H29? H 2.0401 0.9256 0.4533
H30? H 1.9974 0.8958 0.5351
H31? H 2.0400 0.9608 0.5362
C38? C 1.3694(10) 0.9431(4) 0.5650(6)
H32? H 1.2444 0.9359 0.5460
C39? C 1.4942(12) 0.9383(3) 0.5095(6)
H33? H 1.4526 0.9279 0.4533
C40? C 1.6810(11) 0.9490(4) 0.5378(7)
C41? C 1.7431(9) 0.9645(5) 0.6217(7)
H34? H 1.8681 0.9716 0.6407
C42? C 1.6184(13) 0.9693(6) 0.6773(5)
H35? H 1.6600 0.9797 0.7334
C43? C 1.4316(12) 0.9586(5) 0.6489(5)
loop_
_geom_bond_atom_site_label_1
_geom_bond_atom_site_label_2
_geom_bond_site_symmetry_1
_geom_bond_site_symmetry_2
C1 C2 1_555 1_555
C2 H1 1_555 1_555
C3 C2 1_555 1_555
H2 C3 1_555 1_555
C4 C3 1_555 1_555
C5 C4 1_555 1_555
C6 C5 1_555 1_555
C7 C6 1_555 1_555
H3 C7 1_555 1_555
C8 C7 1_555 1_555
H4 C8 1_555 1_555
C9 C8 1_555 1_555
C10 C9 1_555 1_555
C11 C10 1_555 1_555
C12 C11 1_555 1_555
H5 C12 1_555 1_555
C13 C12 1_555 1_555
H6 C13 1_555 1_555
C14 C13 1_555 1_555
C15 C1 1_555 1_555
C16 C5 1_555 1_555
C17 C16 1_555 1_555
H7 C17 1_555 1_555
C18 C17 1_555 1_555
H8 C18 1_555 1_555
C19 C18 1_555 1_555
C20 C19 1_555 1_555
H9 C20 1_555 1_555
C21 C16 1_555 1_555
H10 C21 1_555 1_555
O1 C19 1_555 1_555
C22 O1 1_555 1_555
H11 C22 1_555 1_555
H12 C22 1_555 1_555
H13 C22 1_555 1_555
C23 C15 1_555 1_555
C24 C23 1_555 1_555
H14 C24 1_555 1_555
C25 C24 1_555 1_555
H15 C25 1_555 1_555
C26 C25 1_555 1_555
C27 C26 1_555 1_555
H16 C27 1_555 1_555
C28 C23 1_555 1_555
H17 C28 1_555 1_555
O2 C26 1_555 1_555
C29 O2 1_555 1_555
H18 C29 1_555 1_555
H19 C29 1_555 1_555
H20 C29 1_555 1_555
N1 C1 1_555 1_555
N2 C6 1_555 1_555
N3 C11 1_555 1_555
B1 N1 1_555 1_555
H21 B1 1_555 1_555
C30 H22 1_555 1_555
O3 C33 1_555 1_555
C31 C10 1_555 1_555
C32 C30 1_555 1_555
H23 C32 1_555 1_555
C33 C32 1_555 1_555
C34 C31 1_555 1_555
H24 C34 1_555 1_555
C35 C33 1_555 1_555
H25 C35 1_555 1_555
C36 O3 1_555 1_555
H26 C36 1_555 1_555
H27 C36 1_555 1_555
H28 C36 1_555 1_555
C4 N1 1_555 1_555
C9 N2 1_555 1_555
C14 C15 1_555 1_555
C14 N3 1_555 1_555
C20 C21 1_555 1_555
C27 C28 1_555 1_555
N2 B1 1_555 1_555
N3 B1 1_555 1_555
C30 C31 1_555 1_555
C34 C35 1_555 1_555

#END
