
#######################################################################
#
#                 Cambridge Crystallographic Data Centre
#                                CCDC 
#
#######################################################################
#
# If this CIF has been generated from an entry in the Cambridge 
# Structural Database, then it will include bibliographic, chemical, 
# crystal, experimental, refinement or atomic coordinate data resulting 
# from the CCDC's data processing and validation procedures.
#
#######################################################################

data_ROZPUT
_chemical_formula_moiety         'C3 H3 N5 O5'
_chemical_name_systematic        3-(Dinitromethyl)-1H-1,2,4-triazol-5(4H)-one
_symmetry_cell_setting           monoclinic
_symmetry_space_group_name_H-M   'P 21/c'
_symmetry_Int_Tables_number      14
_space_group_name_Hall           '-P 2ybc'
loop_
_symmetry_equiv_pos_site_id
_symmetry_equiv_pos_as_xyz
1 x,y,z
2 -x,1/2+y,1/2-z
3 -x,-y,-z
4 x,1/2-y,1/2+z
_cell_length_a                   11.9706(17)
_cell_length_b                   5.2363(8)
_cell_length_c                   11.1114(15)
_cell_angle_alpha                90
_cell_angle_beta                 110.217(4)
_cell_angle_gamma                90
_cell_volume                     653.571
_exptl_crystal_colour            colorless
_exptl_crystal_description       irregular
_cell_formula_units_Z            4
loop_
_atom_site_label
_atom_site_type_symbol
_atom_site_fract_x
_atom_site_fract_y
_atom_site_fract_z
N1 N 0.38954(11) 0.4988(3) 0.31415(12)
H1 H 0.4213 0.5919 0.2683
N2 N 0.28211(11) 0.5526(2) 0.32690(13)
C1 C 0.27198(13) 0.3775(3) 0.40543(14)
N3 N 0.36647(11) 0.2122(3) 0.44173(12)
H2 H 0.3768 0.0826 0.4949
C2 C 0.44171(13) 0.2867(3) 0.37977(14)
C3 C 0.16570(13) 0.3666(3) 0.44392(14)
H3 H 0.1051 0.4925 0.3925
N4 N 0.19406(11) 0.4178(2) 0.58689(13)
O1 O 0.10950(11) 0.4138(2) 0.62367(12)
O2 O 0.29714(10) 0.4556(2) 0.65156(11)
N5 N 0.11193(12) 0.1014(3) 0.42506(13)
O3 O 0.01434(12) 0.0746(3) 0.34443(13)
O4 O 0.17383(12) -0.0650(2) 0.49384(13)
O5 O 0.53585(9) 0.1816(2) 0.38344(10)
loop_
_geom_bond_atom_site_label_1
_geom_bond_atom_site_label_2
_geom_bond_site_symmetry_1
_geom_bond_site_symmetry_2
N1 H1 1_555 1_555
N2 N1 1_555 1_555
C1 N2 1_555 1_555
N3 C1 1_555 1_555
H2 N3 1_555 1_555
C2 N1 1_555 1_555
C3 C1 1_555 1_555
H3 C3 1_555 1_555
N4 C3 1_555 1_555
O1 N4 1_555 1_555
O2 N4 1_555 1_555
N5 C3 1_555 1_555
O3 N5 1_555 1_555
O4 N5 1_555 1_555
O5 C2 1_555 1_555
N3 C2 1_555 1_555

#END
