
#######################################################################
#
#                 Cambridge Crystallographic Data Centre
#                                CCDC 
#
#######################################################################
#
# If this CIF has been generated from an entry in the Cambridge 
# Structural Database, then it will include bibliographic, chemical, 
# crystal, experimental, refinement or atomic coordinate data resulting 
# from the CCDC's data processing and validation procedures.
#
#######################################################################

data_RUBSIS
_chemical_formula_moiety         'C33 H29 N1 O3'
_chemical_name_systematic        
3-n-Propyl-1'-trityl-3H-spiro[furan-2,3'-indole]-2',5(1'H,4H)-dione
_symmetry_cell_setting           triclinic
_symmetry_space_group_name_H-M   'P 1'
_symmetry_Int_Tables_number      1
_space_group_name_Hall           'P 1'
loop_
_symmetry_equiv_pos_site_id
_symmetry_equiv_pos_as_xyz
1 x,y,z
_cell_length_a                   8.4232(7)
_cell_length_b                   9.0654(8)
_cell_length_c                   9.5628(7)
_cell_angle_alpha                88.223(6)
_cell_angle_beta                 68.177(5)
_cell_angle_gamma                69.279(6)
_cell_volume                     629.771
_exptl_crystal_colour            colorless
_exptl_crystal_description       block
_cell_formula_units_Z            1
_exptl_crystal_recrystallization_method 'ethyl acetate/dichloromethane'
loop_
_atom_site_label
_atom_site_type_symbol
_atom_site_fract_x
_atom_site_fract_y
_atom_site_fract_z
C1 C 0.8211(5) 0.6969(4) 0.7029(4)
H1 H 0.8109 0.6725 0.6082
H2 H 0.9463 0.6368 0.6967
H3 H 0.7943 0.8108 0.719
C2 C 0.6848(4) 0.6511(4) 0.8343(4)
H4 H 0.7094 0.6601 0.9265
H5 H 0.7045 0.5387 0.8119
C3 C 0.4840(4) 0.7533(4) 0.8665(3)
H6 H 0.4033 0.7111 0.9471
H7 H 0.4589 0.8629 0.9044
C4 C 0.4374(4) 0.7577(3) 0.7270(3)
H8 H 0.5249 0.7954 0.6457
C5 C 0.4488(4) 0.6008(3) 0.6615(3)
H9 H 0.5765 0.5366 0.5932
H10 H 0.4043 0.538 0.7431
C6 C 0.3242(4) 0.6540(3) 0.5753(3)
C7 C 0.2413(4) 0.8664(3) 0.7465(3)
C8 C 0.0925(4) 0.8508(3) 0.8938(3)
C9 C 0.0714(4) 1.1101(3) 0.8998(3)
C10 C 0.2047(4) 1.0396(3) 0.7566(3)
C11 C 0.2860(4) 1.1256(3) 0.6521(3)
H11 H 0.3777 1.0753 0.5556
C12 C 0.2311(4) 1.2880(3) 0.6909(3)
H12 H 0.284 1.3501 0.6202
C13 C 0.0985(4) 1.3588(3) 0.8336(3)
H13 H 0.063 1.4693 0.8594
C14 C 0.0163(4) 1.2720(3) 0.9398(3)
H14 H -0.0746 1.3218 1.0366
C15 C -0.1497(4) 1.0382(3) 1.1352(3)
C16 C -0.1836(4) 0.8863(3) 1.1944(3)
C17 C -0.0524(4) 0.7743(3) 1.2392(3)
H15 H 0.0514 0.7952 1.2369
C18 C -0.0720(4) 0.6339(3) 1.2868(3)
H16 H 0.0191 0.5584 1.3152
C19 C -0.2244(5) 0.6032(4) 1.2931(3)
H17 H -0.2357 0.5051 1.3221
C20 C -0.3590(4) 0.7153(4) 1.2571(3)
H18 H -0.4657 0.6961 1.2652
C21 C -0.3397(4) 0.8569(4) 1.2087(3)
H19 H -0.4342 0.9341 1.1852
C22 C -0.1082(4) 1.1077(3) 1.2568(3)
C23 C 0.0601(4) 1.1216(3) 1.2314(3)
H20 H 0.1553 1.0913 1.133
C24 C 0.0892(4) 1.1794(4) 1.3489(4)
H21 H 0.2034 1.1903 1.3294
C25 C -0.0462(4) 1.2215(4) 1.4943(3)
H22 H -0.0259 1.262 1.574
C26 C -0.2120(4) 1.2034(3) 1.5215(3)
H23 H -0.3052 1.2302 1.6209
C27 C -0.2419(4) 1.1465(3) 1.4046(3)
H24 H -0.3553 1.1336 1.4251
C28 C -0.3139(4) 1.1548(3) 1.1026(3)
C29 C -0.3503(4) 1.1090(3) 0.9825(3)
H25 H -0.2738 1.009 0.9235
C30 C -0.4968(4) 1.2081(4) 0.9489(3)
H26 H -0.521 1.1744 0.8684
C31 C -0.6081(4) 1.3556(4) 1.0312(3)
H27 H -0.7084 1.4229 1.008
C32 C -0.5711(4) 1.4038(3) 1.1483(3)
H28 H -0.6449 1.5058 1.204
C33 C -0.4270(4) 1.3040(3) 1.1846(3)
H29 H -0.4049 1.3378 1.2664
N1 N 0.0128(3) 0.9938(2) 0.9865(2)
O1 O 0.3160(3) 0.5793(2) 0.4785(2)
O2 O 0.2144(3) 0.8100(2) 0.6203(2)
O3 O 0.0564(3) 0.7323(2) 0.9165(2)
loop_
_geom_bond_atom_site_label_1
_geom_bond_atom_site_label_2
_geom_bond_site_symmetry_1
_geom_bond_site_symmetry_2
C1 H1 1_555 1_555
H2 C1 1_555 1_555
H3 C1 1_555 1_555
C2 C1 1_555 1_555
H4 C2 1_555 1_555
H5 C2 1_555 1_555
C3 C2 1_555 1_555
H6 C3 1_555 1_555
H7 C3 1_555 1_555
C4 C3 1_555 1_555
H8 C4 1_555 1_555
C5 C4 1_555 1_555
H9 C5 1_555 1_555
H10 C5 1_555 1_555
C6 C5 1_555 1_555
C7 C4 1_555 1_555
C8 C7 1_555 1_555
C9 C10 1_555 1_555
C10 C7 1_555 1_555
C11 C10 1_555 1_555
H11 C11 1_555 1_555
C12 C11 1_555 1_555
H12 C12 1_555 1_555
C13 C12 1_555 1_555
H13 C13 1_555 1_555
C14 C9 1_555 1_555
H14 C14 1_555 1_555
C15 C16 1_555 1_555
C16 C17 1_555 1_555
C17 H15 1_555 1_555
C18 C17 1_555 1_555
H16 C18 1_555 1_555
C19 C18 1_555 1_555
H17 C19 1_555 1_555
C20 C19 1_555 1_555
H18 C20 1_555 1_555
C21 C16 1_555 1_555
H19 C21 1_555 1_555
C22 C15 1_555 1_555
C23 C22 1_555 1_555
H20 C23 1_555 1_555
C24 C23 1_555 1_555
H21 C24 1_555 1_555
C25 C24 1_555 1_555
H22 C25 1_555 1_555
C26 C25 1_555 1_555
H23 C26 1_555 1_555
C27 C22 1_555 1_555
H24 C27 1_555 1_555
C28 C15 1_555 1_555
C29 C28 1_555 1_555
H25 C29 1_555 1_555
C30 C29 1_555 1_555
H26 C30 1_555 1_555
C31 C30 1_555 1_555
H27 C31 1_555 1_555
C32 C31 1_555 1_555
H28 C32 1_555 1_555
C33 C28 1_555 1_555
H29 C33 1_555 1_555
N1 C8 1_555 1_555
O1 C6 1_555 1_555
O2 C6 1_555 1_555
O3 C8 1_555 1_555
C7 O2 1_555 1_555
C9 N1 1_555 1_555
C13 C14 1_555 1_555
C15 N1 1_555 1_555
C20 C21 1_555 1_555
C26 C27 1_555 1_555
C32 C33 1_555 1_555

#END
