
#######################################################################
#
#                 Cambridge Crystallographic Data Centre
#                                CCDC 
#
#######################################################################
#
# If this CIF has been generated from an entry in the Cambridge 
# Structural Database, then it will include bibliographic, chemical, 
# crystal, experimental, refinement or atomic coordinate data resulting 
# from the CCDC's data processing and validation procedures.
#
#######################################################################

data_RUBWUI
_chemical_formula_moiety         'C19 H23 F1 O2 S1'
_chemical_name_systematic        
1-t-Butyl-4-((1-fluoro-1-phenylpropan-2-yl)sulfonyl)benzene
_symmetry_cell_setting           monoclinic
_symmetry_space_group_name_H-M   'P 21/n'
_symmetry_Int_Tables_number      14
_space_group_name_Hall           '-P 2yn'
loop_
_symmetry_equiv_pos_site_id
_symmetry_equiv_pos_as_xyz
1 x,y,z
2 1/2-x,1/2+y,1/2-z
3 -x,-y,-z
4 1/2+x,1/2-y,1/2+z
_cell_length_a                   11.3193(10)
_cell_length_b                   9.9646(8)
_cell_length_c                   15.9064(14)
_cell_angle_alpha                90
_cell_angle_beta                 99.141(2)
_cell_angle_gamma                90
_cell_volume                     1771.33
_exptl_crystal_colour            colorless
_exptl_crystal_description       prismatic
_cell_formula_units_Z            4
loop_
_atom_site_label
_atom_site_type_symbol
_atom_site_fract_x
_atom_site_fract_y
_atom_site_fract_z
S1 S -0.07771(5) 0.94677(6) 0.12697(3)
F1 F 0.14255(15) 1.04944(19) 0.25851(12)
O1 O -0.09599(17) 1.07841(19) 0.09115(12)
O2 O -0.13712(17) 0.8355(2) 0.08096(10)
C1 C 0.0800(2) 0.9098(2) 0.13991(13)
H1 H 0.0982 0.8934 0.0826
C2 C 0.1567(2) 1.0276(2) 0.17482(16)
H2 H 0.1278 1.1074 0.1418
C3 C 0.2876(2) 1.0109(2) 0.16970(14)
C4 C 0.3654(3) 0.9465(3) 0.23304(18)
H3 H 0.3368 0.9100 0.2797
C5 C 0.4854(3) 0.9365(3) 0.2267(3)
H4 H 0.5375 0.8926 0.2689
C6 C 0.5273(3) 0.9911(4) 0.1587(3)
H5 H 0.6083 0.9851 0.1549
C7 C 0.4521(3) 1.0537(4) 0.0969(3)
H6 H 0.4814 1.0909 0.0507
C8 C 0.3322(3) 1.0630(3) 0.10169(18)
H7 H 0.2809 1.1051 0.0582
C9 C 0.1074(2) 0.7792(2) 0.18892(17)
H8 H 0.1875 0.7511 0.1850
H9 H 0.0520 0.7112 0.1651
H10 H 0.1001 0.7930 0.2476
C10 C -0.11951(18) 0.9482(2) 0.22930(14)
C11 C -0.1552(2) 0.8301(2) 0.26340(14)
H11 H -0.1568 0.7504 0.2328
C12 C -0.1883(2) 0.8315(2) 0.34311(15)
H12 H -0.2125 0.7518 0.3656
C13 C -0.18678(18) 0.9478(2) 0.39059(14)
C14 C -0.1533(2) 1.0647(2) 0.35428(16)
H13 H -0.1535 1.1448 0.3843
C15 C -0.1194(2) 1.0658(2) 0.27431(16)
H14 H -0.0968 1.1458 0.2512
C16 C -0.2229(2) 0.9448(2) 0.47994(15)
C17 C -0.3595(3) 0.9331(4) 0.4692(2)
H15 H -0.3953 1.0111 0.4402
H16 H -0.3838 0.9265 0.5242
H17 H -0.3849 0.8544 0.4364
C18 C -0.1690(3) 0.8218(3) 0.52917(17)
H18 H -0.1878 0.8239 0.5859
H19 H -0.0837 0.8224 0.5317
H20 H -0.2015 0.7418 0.5008
C19 C -0.1800(3) 1.0699(3) 0.53097(19)
H21 H -0.2217 1.1471 0.5051
H22 H -0.0956 1.0811 0.5317
H23 H -0.1957 1.0604 0.5882
loop_
_geom_bond_atom_site_label_1
_geom_bond_atom_site_label_2
_geom_bond_site_symmetry_1
_geom_bond_site_symmetry_2
S1 O1 1_555 1_555
F1 C2 1_555 1_555
O2 S1 1_555 1_555
C1 S1 1_555 1_555
H1 C1 1_555 1_555
C2 C1 1_555 1_555
H2 C2 1_555 1_555
C3 C2 1_555 1_555
C4 C3 1_555 1_555
H3 C4 1_555 1_555
C5 C4 1_555 1_555
H4 C5 1_555 1_555
C6 C5 1_555 1_555
H5 C6 1_555 1_555
C7 C6 1_555 1_555
H6 C7 1_555 1_555
C8 C3 1_555 1_555
H7 C8 1_555 1_555
C9 C1 1_555 1_555
H8 C9 1_555 1_555
H9 C9 1_555 1_555
H10 C9 1_555 1_555
C10 S1 1_555 1_555
C11 C10 1_555 1_555
H11 C11 1_555 1_555
C12 C11 1_555 1_555
H12 C12 1_555 1_555
C13 C12 1_555 1_555
C14 C13 1_555 1_555
H13 C14 1_555 1_555
C15 C10 1_555 1_555
H14 C15 1_555 1_555
C16 C13 1_555 1_555
C17 C16 1_555 1_555
H15 C17 1_555 1_555
H16 C17 1_555 1_555
H17 C17 1_555 1_555
C18 C16 1_555 1_555
H18 C18 1_555 1_555
H19 C18 1_555 1_555
H20 C18 1_555 1_555
C19 C16 1_555 1_555
H21 C19 1_555 1_555
H22 C19 1_555 1_555
H23 C19 1_555 1_555
C7 C8 1_555 1_555
C14 C15 1_555 1_555

#END
