
#######################################################################
#
#                 Cambridge Crystallographic Data Centre
#                                CCDC 
#
#######################################################################
#
# If this CIF has been generated from an entry in the Cambridge 
# Structural Database, then it will include bibliographic, chemical, 
# crystal, experimental, refinement or atomic coordinate data resulting 
# from the CCDC's data processing and validation procedures.
#
#######################################################################

data_RUCMUZ
_chemical_formula_moiety         'C16 H20 N2 O2'
_chemical_name_systematic        
5-methoxy-1,8-dimethyl-3a-(prop-1-en-1-yl)-3,3a,8,8a-tetrahydropyrrolo[2,3-b]indol-2(1H)-one
_symmetry_cell_setting           orthorhombic
_symmetry_space_group_name_H-M   'P 21 21 21'
_symmetry_Int_Tables_number      19
_space_group_name_Hall           'P 2ac 2ab'
loop_
_symmetry_equiv_pos_site_id
_symmetry_equiv_pos_as_xyz
1 x,y,z
2 1/2+x,1/2-y,-z
3 -x,1/2+y,1/2-z
4 1/2-x,-y,1/2+z
_cell_length_a                   5.8690(6)
_cell_length_b                   14.8674(15)
_cell_length_c                   16.7844(13)
_cell_angle_alpha                90
_cell_angle_beta                 90
_cell_angle_gamma                90
_cell_volume                     1464.55
_exptl_crystal_colour            colorless
_exptl_crystal_description       needle
_cell_formula_units_Z            4
loop_
_atom_site_label
_atom_site_type_symbol
_atom_site_fract_x
_atom_site_fract_y
_atom_site_fract_z
C1 C 0.6202(7) -0.0467(2) -0.0741(2)
H1 H 0.6631 -0.0947 -0.0419
C2 C 0.6745(6) 0.0347(2) -0.05067(19)
H2 H 0.6365 0.0815 -0.0850
C3 C 1.0167(6) -0.0832(2) 0.07121(19)
O1 O 1.1831(5) -0.22130(17) 0.12622(16)
O2 O 1.1273(4) 0.24817(16) 0.09588(16)
C4 C 0.6967(7) 0.2510(2) 0.17219(19)
H3 H 0.5494 0.2336 0.1917
H4 H 0.6855 0.3084 0.1463
H5 H 0.8016 0.2551 0.2159
C5 C 0.8739(7) -0.1538(2) 0.19066(19)
H6 H 0.8818 -0.2004 0.2275
C6 C 0.7922(6) 0.0606(2) 0.02605(18)
C7 C 0.8496(6) -0.0185(2) 0.07951(18)
C8 C 1.0275(7) -0.1521(2) 0.12827(19)
N1 N 0.7774(5) 0.18444(18) 0.11562(16)
N2 N 0.5414(5) 0.04992(19) 0.13677(16)
C9 C 0.7087(7) -0.0882(2) 0.1998(2)
H7 H 0.6083 -0.0894 0.2427
C10 C 0.4934(10) -0.0671(3) -0.1494(2)
H8 H 0.4541 -0.0119 -0.1756
H9 H 0.3570 -0.0998 -0.1369
H10 H 0.5878 -0.1027 -0.1838
C11 C 1.3581(7) -0.2179(3) 0.0688(2)
H11 H 1.2930 -0.2220 0.0165
H12 H 1.4612 -0.2671 0.0771
H13 H 1.4393 -0.1621 0.0739
C12 C 0.9939(6) 0.1245(2) 0.01295(18)
H14 H 1.1369 0.0919 0.0153
H15 H 0.9823 0.1538 -0.0385
C13 C 0.9807(6) 0.1928(2) 0.0792(2)
C14 C 0.6284(6) 0.1158(2) 0.08142(18)
H16 H 0.5047 0.1433 0.0506
C15 C 0.6977(6) -0.0202(2) 0.14268(19)
C16 C 0.3840(7) 0.0699(3) 0.2001(2)
H17 H 0.2851 0.0194 0.2084
H18 H 0.2949 0.1217 0.1860
H19 H 0.4672 0.0821 0.2482
H20 H 1.127(7) -0.082(2) 0.026(2)
loop_
_geom_bond_atom_site_label_1
_geom_bond_atom_site_label_2
_geom_bond_site_symmetry_1
_geom_bond_site_symmetry_2
C1 H1 1_555 1_555
C2 C1 1_555 1_555
H2 C2 1_555 1_555
C3 C7 1_555 1_555
O1 C8 1_555 1_555
O2 C13 1_555 1_555
C4 H3 1_555 1_555
H4 C4 1_555 1_555
H5 C4 1_555 1_555
C5 H6 1_555 1_555
C6 C2 1_555 1_555
C7 C6 1_555 1_555
C8 C3 1_555 1_555
N1 C4 1_555 1_555
N2 C14 1_555 1_555
C9 C5 1_555 1_555
H7 C9 1_555 1_555
C10 C1 1_555 1_555
H8 C10 1_555 1_555
H9 C10 1_555 1_555
H10 C10 1_555 1_555
C11 O1 1_555 1_555
H11 C11 1_555 1_555
H12 C11 1_555 1_555
H13 C11 1_555 1_555
C12 C6 1_555 1_555
H14 C12 1_555 1_555
H15 C12 1_555 1_555
C13 N1 1_555 1_555
C14 C6 1_555 1_555
H16 C14 1_555 1_555
C15 C7 1_555 1_555
C16 N2 1_555 1_555
H17 C16 1_555 1_555
H18 C16 1_555 1_555
H19 C16 1_555 1_555
H20 C3 1_555 1_555
C5 C8 1_555 1_555
N1 C14 1_555 1_555
N2 C15 1_555 1_555
C9 C15 1_555 1_555
C12 C13 1_555 1_555

#END
