
#######################################################################
#
#                 Cambridge Crystallographic Data Centre
#                                CCDC 
#
#######################################################################
#
# If this CIF has been generated from an entry in the Cambridge 
# Structural Database, then it will include bibliographic, chemical, 
# crystal, experimental, refinement or atomic coordinate data resulting 
# from the CCDC's data processing and validation procedures.
#
#######################################################################

data_RUDBOJ
_chemical_name_common            '4-epi-Uprolide G Acetate'
_chemical_formula_moiety         'C23 H36 O7'
_chemical_name_systematic        
'13-Hydroxy-17-methoxy-9,13,17-trimethyl-4-methylene-5-oxo-6,18-dioxatricyclo[12.3.1.0^3,7^]octadec-8-yl acetate'
_symmetry_cell_setting           monoclinic
_symmetry_space_group_name_H-M   'P 21'
_symmetry_Int_Tables_number      4
_space_group_name_Hall           'P 2yb'
loop_
_symmetry_equiv_pos_site_id
_symmetry_equiv_pos_as_xyz
1 x,y,z
2 -x,1/2+y,-z
_cell_length_a                   9.47795(7)
_cell_length_b                   18.73457(13)
_cell_length_c                   12.94648(10)
_cell_angle_alpha                90
_cell_angle_beta                 102.2035(7)
_cell_angle_gamma                90
_cell_volume                     2246.9
_exptl_crystal_colour            colorless
_exptl_crystal_description       block
_cell_formula_units_Z            4
loop_
_atom_site_label
_atom_site_type_symbol
_atom_site_fract_x
_atom_site_fract_y
_atom_site_fract_z
O1 O 0.55130(9) 0.64993(5) 0.02308(7)
O2 O 0.34071(12) 0.69163(6) -0.07009(8)
O3 O 0.71928(8) 0.45720(4) 0.18418(6)
O4 O 0.52783(9) 0.39439(4) 0.30661(6)
O5 O 0.96876(9) 0.50937(5) 0.13153(7)
H1 H 0.9615 0.4849 0.0763
O6 O 0.45260(8) 0.64182(4) 0.19883(6)
O7 O 0.40506(10) 0.57263(5) 0.32970(7)
C1 C 0.49480(12) 0.52791(6) 0.04148(9)
H2 H 0.5360 0.5064 -0.0164
C2 C 0.46734(12) 0.46682(6) 0.11264(9)
H3 H 0.4448 0.4871 0.1779
H4 H 0.3816 0.4397 0.0759
C3 C 0.59373(12) 0.41561(6) 0.14298(9)
H5 H 0.6086 0.3918 0.0769
C4 C 0.56651(12) 0.35705(6) 0.21943(9)
C5 C 0.70568(13) 0.31377(6) 0.25662(9)
H6 H 0.6944 0.2825 0.3160
H7 H 0.7217 0.2828 0.1981
C6 C 0.83696(12) 0.36184(6) 0.29217(9)
H8 H 0.8278 0.3884 0.3566
H9 H 0.9257 0.3325 0.3092
C7 C 0.84699(12) 0.41413(6) 0.20389(9)
H10 H 0.8464 0.3855 0.1386
C8 C 0.98113(12) 0.46260(7) 0.22149(10)
C9 C 1.00585(12) 0.50852(6) 0.32193(10)
H11 H 1.0272 0.4756 0.3831
H12 H 1.0942 0.5370 0.3235
C10 C 0.88816(12) 0.56015(6) 0.34089(9)
H13 H 0.9146 0.5775 0.4147
H14 H 0.7965 0.5334 0.3332
C11 C 0.86204(12) 0.62528(6) 0.26668(10)
H15 H 0.8740 0.6102 0.1957
H16 H 0.9370 0.6615 0.2931
C12 C 0.71196(12) 0.66045(6) 0.25557(10)
H17 H 0.7079 0.7028 0.2080
C13 C 0.59316(12) 0.60844(6) 0.20451(9)
H18 H 0.5998 0.5642 0.2484
C14 C 0.59757(12) 0.58824(6) 0.09101(9)
H19 H 0.6987 0.5753 0.0871
C15 C 0.36232(13) 0.56848(7) -0.01002(9)
C16 C 0.40935(14) 0.64313(8) -0.02412(10)
C17 C 0.22630(14) 0.54780(8) -0.04040(10)
H20 H 0.1546 0.5810 -0.0725
H21 H 0.2004 0.4997 -0.0301
C18 C 0.44471(13) 0.30874(6) 0.16165(10)
H22 H 0.4432 0.2646 0.2019
H23 H 0.4609 0.2973 0.0912
H24 H 0.3521 0.3334 0.1549
C19 C 1.11496(13) 0.41536(8) 0.22633(11)
H25 H 1.1010 0.3852 0.1632
H26 H 1.1292 0.3852 0.2895
H27 H 1.2001 0.4456 0.2294
C20 C 0.68924(13) 0.68659(7) 0.36286(10)
H28 H 0.6018 0.7159 0.3526
H29 H 0.7726 0.7151 0.3973
H30 H 0.6788 0.6454 0.4074
C21 C 0.36879(13) 0.61824(6) 0.26355(10)
C22 C 0.22522(13) 0.65488(7) 0.24023(12)
H31 H 0.2327 0.6995 0.2023
H32 H 0.1955 0.6654 0.3066
H33 H 0.1535 0.6237 0.1965
C23 C 0.47334(13) 0.35166(7) 0.37992(9)
H34 H 0.3876 0.3258 0.3429
H35 H 0.4475 0.3823 0.4345
H36 H 0.5474 0.3174 0.4130
O8 O 0.75874(9) 0.31557(4) 0.57946(6)
O9 O 0.93517(10) 0.24742(5) 0.54215(7)
O10 O 0.67591(8) 0.53201(4) 0.64570(6)
O11 O 0.86962(9) 0.58981(5) 0.82025(7)
O12 O 0.40173(9) 0.49340(4) 0.52828(6)
H37 H 0.4006 0.5103 0.4680
O13 O 0.87688(9) 0.34078(5) 0.78197(7)
O14 O 0.93917(11) 0.41339(5) 0.92415(7)
C24 C 0.86425(12) 0.43164(6) 0.58642(9)
H38 H 0.8233 0.4507 0.5142
C25 C 0.92121(12) 0.49586(6) 0.65571(9)
H39 H 0.9405 0.4812 0.7308
H40 H 1.0138 0.5115 0.6393
C26 C 0.81574(12) 0.55862(6) 0.63974(9)
H41 H 0.8096 0.5774 0.5666
C27 C 0.86102(12) 0.62090(6) 0.71737(9)
C28 C 0.74356(13) 0.67811(6) 0.69227(10)
H42 H 0.7647 0.7165 0.7458
H43 H 0.7444 0.6994 0.6224
C29 C 0.59395(13) 0.64747(6) 0.69117(10)
H44 H 0.5885 0.6316 0.7632
H45 H 0.5198 0.6848 0.6688
C30 C 0.56505(12) 0.58457(6) 0.61517(9)
H46 H 0.5725 0.6026 0.5438
C31 C 0.41439(12) 0.55058(6) 0.60382(9)
C32 C 0.37908(13) 0.52046(7) 0.70594(10)
H47 H 0.3755 0.5613 0.7538
H48 H 0.2803 0.5004 0.6873
C33 C 0.47631(13) 0.46347(7) 0.77001(9)
H49 H 0.4458 0.4568 0.8380
H50 H 0.5765 0.4819 0.7865
C34 C 0.47712(13) 0.39000(7) 0.71710(10)
H51 H 0.4690 0.3971 0.6403
H52 H 0.3909 0.3630 0.7266
C35 C 0.61265(13) 0.34465(7) 0.76023(9)
H53 H 0.6015 0.2980 0.7219
C36 C 0.74763(12) 0.38209(6) 0.73759(9)
H54 H 0.7561 0.4309 0.7695
C37 C 0.74346(12) 0.38767(6) 0.61956(9)
H55 H 0.6478 0.4075 0.5834
C38 C 0.97178(12) 0.37487(6) 0.57361(9)
C39 C 0.89381(13) 0.30521(6) 0.56378(9)
C40 C 1.10796(13) 0.37957(7) 0.56396(10)
H56 H 1.1583 0.3379 0.5504
H57 H 1.1552 0.4246 0.5706
C41 C 1.00646(13) 0.65195(7) 0.70697(10)
H58 H 1.0265 0.6951 0.7503
H59 H 1.0034 0.6639 0.6329
H60 H 1.0827 0.6167 0.7311
C42 C 0.30021(13) 0.60746(7) 0.56045(10)
H61 H 0.3273 0.6322 0.5008
H62 H 0.2944 0.6420 0.6162
H63 H 0.2061 0.5844 0.5366
C43 C 0.62769(15) 0.32947(8) 0.87787(10)
H64 H 0.6439 0.3744 0.9175
H65 H 0.7097 0.2974 0.9020
H66 H 0.5391 0.3069 0.8896
C44 C 0.96264(15) 0.36261(8) 0.87305(10)
C45 C 1.09236(19) 0.31447(10) 0.90091(14)
H67 H 1.0607 0.2646 0.8966
H68 H 1.1450 0.3250 0.9730
H69 H 1.1558 0.3226 0.8513
C46 C 0.88007(15) 0.63784(8) 0.90648(10)
H70 H 0.7874 0.6621 0.9019
H71 H 0.9554 0.6733 0.9040
H72 H 0.9047 0.6113 0.9731
loop_
_geom_bond_atom_site_label_1
_geom_bond_atom_site_label_2
_geom_bond_site_symmetry_1
_geom_bond_site_symmetry_2
O1 C14 1_555 1_555
O2 C16 1_555 1_555
O3 C3 1_555 1_555
O4 C4 1_555 1_555
O5 H1 1_555 1_555
O6 C13 1_555 1_555
O7 C21 1_555 1_555
C1 H2 1_555 1_555
C2 C1 1_555 1_555
H3 C2 1_555 1_555
H4 C2 1_555 1_555
C3 C2 1_555 1_555
H5 C3 1_555 1_555
C4 C3 1_555 1_555
C5 C4 1_555 1_555
H6 C5 1_555 1_555
H7 C5 1_555 1_555
C6 C5 1_555 1_555
H8 C6 1_555 1_555
H9 C6 1_555 1_555
C7 O3 1_555 1_555
H10 C7 1_555 1_555
C8 O5 1_555 1_555
C9 C8 1_555 1_555
H11 C9 1_555 1_555
H12 C9 1_555 1_555
C10 C9 1_555 1_555
H13 C10 1_555 1_555
H14 C10 1_555 1_555
C11 C10 1_555 1_555
H15 C11 1_555 1_555
H16 C11 1_555 1_555
C12 C11 1_555 1_555
H17 C12 1_555 1_555
C13 C12 1_555 1_555
H18 C13 1_555 1_555
C14 C1 1_555 1_555
H19 C14 1_555 1_555
C15 C1 1_555 1_555
C16 O1 1_555 1_555
C17 C15 1_555 1_555
H20 C17 1_555 1_555
H21 C17 1_555 1_555
C18 C4 1_555 1_555
H22 C18 1_555 1_555
H23 C18 1_555 1_555
H24 C18 1_555 1_555
C19 C8 1_555 1_555
H25 C19 1_555 1_555
H26 C19 1_555 1_555
H27 C19 1_555 1_555
C20 C12 1_555 1_555
H28 C20 1_555 1_555
H29 C20 1_555 1_555
H30 C20 1_555 1_555
C21 O6 1_555 1_555
C22 C21 1_555 1_555
H31 C22 1_555 1_555
H32 C22 1_555 1_555
H33 C22 1_555 1_555
C23 O4 1_555 1_555
H34 C23 1_555 1_555
H35 C23 1_555 1_555
H36 C23 1_555 1_555
O8 C37 1_555 1_555
O9 C39 1_555 1_555
O10 C26 1_555 1_555
O11 C27 1_555 1_555
O12 H37 1_555 1_555
O13 C36 1_555 1_555
O14 C44 1_555 1_555
C24 H38 1_555 1_555
C25 C24 1_555 1_555
H39 C25 1_555 1_555
H40 C25 1_555 1_555
C26 C25 1_555 1_555
H41 C26 1_555 1_555
C27 C26 1_555 1_555
C28 C27 1_555 1_555
H42 C28 1_555 1_555
H43 C28 1_555 1_555
C29 C28 1_555 1_555
H44 C29 1_555 1_555
H45 C29 1_555 1_555
C30 O10 1_555 1_555
H46 C30 1_555 1_555
C31 O12 1_555 1_555
C32 C31 1_555 1_555
H47 C32 1_555 1_555
H48 C32 1_555 1_555
C33 C32 1_555 1_555
H49 C33 1_555 1_555
H50 C33 1_555 1_555
C34 C33 1_555 1_555
H51 C34 1_555 1_555
H52 C34 1_555 1_555
C35 C34 1_555 1_555
H53 C35 1_555 1_555
C36 C35 1_555 1_555
H54 C36 1_555 1_555
C37 C24 1_555 1_555
H55 C37 1_555 1_555
C38 C24 1_555 1_555
C39 O8 1_555 1_555
C40 C38 1_555 1_555
H56 C40 1_555 1_555
H57 C40 1_555 1_555
C41 C27 1_555 1_555
H58 C41 1_555 1_555
H59 C41 1_555 1_555
H60 C41 1_555 1_555
C42 C31 1_555 1_555
H61 C42 1_555 1_555
H62 C42 1_555 1_555
H63 C42 1_555 1_555
C43 C35 1_555 1_555
H64 C43 1_555 1_555
H65 C43 1_555 1_555
H66 C43 1_555 1_555
C44 O13 1_555 1_555
C45 C44 1_555 1_555
H67 C45 1_555 1_555
H68 C45 1_555 1_555
H69 C45 1_555 1_555
C46 O11 1_555 1_555
H70 C46 1_555 1_555
H71 C46 1_555 1_555
H72 C46 1_555 1_555
C6 C7 1_555 1_555
C7 C8 1_555 1_555
C13 C14 1_555 1_555
C15 C16 1_555 1_555
C29 C30 1_555 1_555
C30 C31 1_555 1_555
C36 C37 1_555 1_555
C38 C39 1_555 1_555

#END
