
#######################################################################
#
#                 Cambridge Crystallographic Data Centre
#                                CCDC 
#
#######################################################################
#
# If this CIF has been generated from an entry in the Cambridge 
# Structural Database, then it will include bibliographic, chemical, 
# crystal, experimental, refinement or atomic coordinate data resulting 
# from the CCDC's data processing and validation procedures.
#
#######################################################################

data_RUDDOL
_chemical_formula_moiety         'C32 H30'
_chemical_name_systematic        
1,1',1'',1'''-(Buta-1,3-diene-1,2,3,4-tetrayl)tetrakis(2-methylbenzene)
_symmetry_cell_setting           triclinic
_symmetry_space_group_name_H-M   'P -1'
_symmetry_Int_Tables_number      2
_space_group_name_Hall           '-P 1'
loop_
_symmetry_equiv_pos_site_id
_symmetry_equiv_pos_as_xyz
1 x,y,z
2 -x,-y,-z
_cell_length_a                   7.1809(12)
_cell_length_b                   9.5489(16)
_cell_length_c                   9.6197(14)
_cell_angle_alpha                77.122(6)
_cell_angle_beta                 72.504(5)
_cell_angle_gamma                88.515(5)
_cell_volume                     612.681
_exptl_crystal_colour            colorless
_exptl_crystal_description       prism
_cell_formula_units_Z            1
loop_
_atom_site_label
_atom_site_type_symbol
_atom_site_fract_x
_atom_site_fract_y
_atom_site_fract_z
C1 C -0.2692(6) 0.5916(4) 0.9505(4)
H1 H -0.2870 0.5347 0.8845
H2 H -0.3637 0.6648 0.9573
H3 H -0.2862 0.5311 1.0480
C2 C -0.0670(5) 0.6608(3) 0.8905(4)
C3 C -0.0077(6) 0.7495(4) 0.9678(4)
H4 H -0.0930 0.7618 1.0580
C4 C 0.1738(7) 0.8195(4) 0.9143(5)
H5 H 0.2093 0.8794 0.9670
C5 C 0.3023(6) 0.7998(4) 0.7817(5)
H6 H 0.4256 0.8458 0.7448
C6 C 0.2468(5) 0.7113(4) 0.7038(4)
H7 H 0.3343 0.6986 0.6145
C7 C 0.0639(5) 0.6407(3) 0.7555(4)
C8 C 0.0080(5) 0.5391(3) 0.6771(4)
H8 H -0.0519 0.4522 0.7376
C9 C 0.0326(4) 0.5563(3) 0.5301(3)
C10 C 0.1240(5) 0.6939(3) 0.4204(3)
C11 C 0.3202(5) 0.7029(4) 0.3355(4)
H9 H 0.3966 0.6232 0.3441
C12 C 0.4017(6) 0.8334(5) 0.2368(4)
H10 H 0.5330 0.8399 0.1811
C13 C 0.2920(7) 0.9494(4) 0.2217(4)
H11 H 0.3483 1.0350 0.1558
C14 C 0.0981(7) 0.9420(4) 0.3029(5)
H12 H 0.0241 1.0227 0.2915
C15 C 0.0104(5) 0.8145(3) 0.4027(4)
C16 C -0.1989(8) 0.8099(6) 0.4853(7)
H13 H -0.2376 0.7160 0.5490
H14 H -0.2733 0.8303 0.4158
H15 H -0.2226 0.8804 0.5452
C1A C 0.2692(6) 0.4084(4) 0.0495(4)
H1A H 0.2870 0.4653 0.1155
H2A H 0.3637 0.3352 0.0427
H3A H 0.2862 0.4689 -0.0480
C2A C 0.0670(5) 0.3392(3) 0.1095(4)
C3A C 0.0077(6) 0.2505(4) 0.0322(4)
H4A H 0.0930 0.2382 -0.0580
C4A C -0.1738(7) 0.1805(4) 0.0857(5)
H5A H -0.2093 0.1206 0.0330
C5A C -0.3023(6) 0.2002(4) 0.2183(5)
H6A H -0.4256 0.1542 0.2552
C6A C -0.2468(5) 0.2887(4) 0.2962(4)
H7A H -0.3343 0.3014 0.3855
C7A C -0.0639(5) 0.3593(3) 0.2445(4)
C8A C -0.0080(5) 0.4609(3) 0.3229(4)
H8A H 0.0519 0.5478 0.2624
C9A C -0.0326(4) 0.4437(3) 0.4699(3)
C10A C -0.1240(5) 0.3061(3) 0.5796(3)
C11A C -0.3202(5) 0.2971(4) 0.6645(4)
H9A H -0.3966 0.3768 0.6559
C12A C -0.4017(6) 0.1666(5) 0.7632(4)
H10A H -0.5330 0.1601 0.8189
C13A C -0.2920(7) 0.0506(4) 0.7783(4)
H11A H -0.3483 -0.0350 0.8442
C14A C -0.0981(7) 0.0580(4) 0.6971(5)
H12A H -0.0241 -0.0227 0.7085
C15A C -0.0104(5) 0.1855(3) 0.5973(4)
C16A C 0.1989(8) 0.1901(6) 0.5147(7)
H13A H 0.2376 0.2840 0.4510
H14A H 0.2733 0.1697 0.5842
H15A H 0.2226 0.1196 0.4548
loop_
_geom_bond_atom_site_label_1
_geom_bond_atom_site_label_2
_geom_bond_site_symmetry_1
_geom_bond_site_symmetry_2
C1 H1 1_555 1_555
H2 C1 1_555 1_555
H3 C1 1_555 1_555
C2 C1 1_555 1_555
C3 C2 1_555 1_555
H4 C3 1_555 1_555
C4 C3 1_555 1_555
H5 C4 1_555 1_555
C5 C4 1_555 1_555
H6 C5 1_555 1_555
C6 C5 1_555 1_555
H7 C6 1_555 1_555
C7 C2 1_555 1_555
C8 C7 1_555 1_555
H8 C8 1_555 1_555
C9 C8 1_555 1_555
C10 C9 1_555 1_555
C11 C10 1_555 1_555
H9 C11 1_555 1_555
C12 C11 1_555 1_555
H10 C12 1_555 1_555
C13 C12 1_555 1_555
H11 C13 1_555 1_555
C14 C13 1_555 1_555
H12 C14 1_555 1_555
C15 C10 1_555 1_555
C16 C15 1_555 1_555
H13 C16 1_555 1_555
H14 C16 1_555 1_555
H15 C16 1_555 1_555
C1A H1A 1_555 1_555
H2A C1A 1_555 1_555
H3A C1A 1_555 1_555
C2A C1A 1_555 1_555
C3A C2A 1_555 1_555
H4A C3A 1_555 1_555
C4A C3A 1_555 1_555
H5A C4A 1_555 1_555
C5A C4A 1_555 1_555
H6A C5A 1_555 1_555
C6A C5A 1_555 1_555
H7A C6A 1_555 1_555
C7A C2A 1_555 1_555
C8A C7A 1_555 1_555
H8A C8A 1_555 1_555
C9A C9 1_555 1_555
C10A C9A 1_555 1_555
C11A C10A 1_555 1_555
H9A C11A 1_555 1_555
C12A C11A 1_555 1_555
H10A C12A 1_555 1_555
C13A C12A 1_555 1_555
H11A C13A 1_555 1_555
C14A C13A 1_555 1_555
H12A C14A 1_555 1_555
C15A C10A 1_555 1_555
C16A C15A 1_555 1_555
H13A C16A 1_555 1_555
H14A C16A 1_555 1_555
H15A C16A 1_555 1_555
C6 C7 1_555 1_555
C14 C15 1_555 1_555
C6A C7A 1_555 1_555
C8A C9A 1_555 1_555
C14A C15A 1_555 1_555

#END
