
#######################################################################
#
#                 Cambridge Crystallographic Data Centre
#                                CCDC 
#
#######################################################################
#
# If this CIF has been generated from an entry in the Cambridge 
# Structural Database, then it will include bibliographic, chemical, 
# crystal, experimental, refinement or atomic coordinate data resulting 
# from the CCDC's data processing and validation procedures.
#
#######################################################################

data_RUDFED
_chemical_formula_moiety         'C26 H38 O5 Si1'
_chemical_name_systematic        
'Methyl (6a-((t-butyl(dimethyl)silyl)oxy)-5-phenyldecahydropentaleno[6a,1-b]pyran-6-yl)(oxo)acetate'
_symmetry_cell_setting           triclinic
_symmetry_space_group_name_H-M   'P -1'
_symmetry_Int_Tables_number      2
_space_group_name_Hall           '-P 1'
loop_
_symmetry_equiv_pos_site_id
_symmetry_equiv_pos_as_xyz
1 x,y,z
2 -x,-y,-z
_cell_length_a                   8.936(5)
_cell_length_b                   11.802(3)
_cell_length_c                   13.691(4)
_cell_angle_alpha                80.11(2)
_cell_angle_beta                 81.08(3)
_cell_angle_gamma                69.84(3)
_cell_volume                     1328.09
_exptl_crystal_colour            colorless
_exptl_crystal_description       block
_cell_formula_units_Z            2
loop_
_atom_site_label
_atom_site_type_symbol
_atom_site_fract_x
_atom_site_fract_y
_atom_site_fract_z
Si1 Si 0.7667(8) 0.8647(7) 0.1701(4)
C1 C 1.0066(4) 0.6505(3) 0.2558(2)
C2 C 0.9260(3) 0.5557(3) 0.2559(2)
H1 H 0.8529 0.5888 0.2038
C3 C 0.8243(4) 0.5286(3) 0.3490(2)
C4 C 1.1481(3) 0.6210(3) 0.1730(2)
O1 O 0.6848(4) 0.4415(3) 0.2631(2)
O2 O 0.9011(3) 0.77164(19) 0.23748(17)
O3 O 0.8092(3) 0.5708(2) 0.42582(18)
C5 C 1.2118(4) 0.4816(3) 0.1890(2)
H2 H 1.2734 0.4562 0.2468
C6 C 0.5739(7) 0.3279(5) 0.4292(4)
H3 H 0.4658 0.3804 0.4223
H4 H 0.5771 0.2752 0.4912
H5 H 0.6112 0.2798 0.3750
C7 C 1.0618(3) 0.4404(3) 0.2164(2)
H6 H 1.0310 0.4289 0.1541
C8 C 1.0918(4) 0.6450(3) 0.3459(3)
H7 H 1.0198 0.6962 0.3934
H8 H 1.1299 0.5622 0.3788
C9 C 1.3230(4) 0.4270(3) 0.0995(3)
H9 H 1.4263 0.4375 0.0985
H10 H 1.3397 0.3405 0.1068
O4 O 1.0861(3) 0.6635(2) 0.07856(16)
C10 C 1.2542(5) 0.4866(4) 0.0015(3)
H11 H 1.3344 0.4601 -0.0537
H12 H 1.1629 0.4623 -0.0039
O5 O 0.6760(3) 0.4010(3) 0.42778(18)
C11 C 0.7212(4) 0.4514(3) 0.3403(3)
C12 C 1.2027(5) 0.6233(4) -0.0034(3)
H13 H 1.2952 0.6477 -0.0015
H14 H 1.1574 0.6610 -0.0657
C13 C 1.1400(5) 0.3026(4) 0.3773(3)
H15 H 1.1516 0.3675 0.4018
C14 C 1.1714(7) 0.1920(5) 0.4362(3)
H16 H 1.2048 0.1829 0.4990
C15 C 1.0919(4) 0.3210(3) 0.2835(3)
C16 C 1.0771(6) 0.2226(4) 0.2494(4)
H17 H 1.0458 0.2313 0.1861
C17 C 1.1091(8) 0.1091(5) 0.3093(6)
H18 H 1.1000 0.0427 0.2856
C18 C 1.1539(8) 0.0972(5) 0.4031(5)
H19 H 1.1723 0.0231 0.4438
C19 C 1.2617(4) 0.6831(4) 0.1938(3)
H20 H 1.3722 0.6358 0.1755
H21 H 1.2391 0.7638 0.1564
C20 C 1.2322(5) 0.6909(4) 0.3048(3)
H22 H 1.2069 0.7743 0.3170
H23 H 1.3270 0.6411 0.3369
C21 C 0.6915(19) 0.8036(14) 0.0877(12)
H24 H 0.7790 0.7480 0.0518
H25 H 0.6324 0.8683 0.0415
H26 H 0.6222 0.7613 0.1248
C22 C 0.5446(17) 0.8578(15) 0.3194(10)
H27 H 0.4311 0.8950 0.3341
H28 H 0.5940 0.8308 0.3804
H29 H 0.5647 0.7895 0.2842
C23 C 0.6236(17) 0.9627(11) 0.2462(10)
C24 C 0.882(2) 0.9800(14) 0.0942(12)
H30 H 0.9748 0.9705 0.1263
H31 H 0.8112 1.0624 0.0936
H32 H 0.9149 0.9616 0.0270
C25 C 0.5027(19) 1.0739(14) 0.1859(14)
H33 H 0.5564 1.0959 0.1229
H34 H 0.4643 1.1419 0.2233
H35 H 0.4138 1.0514 0.1747
C26 C 0.740(2) 1.0233(17) 0.3068(17)
H36 H 0.8332 0.9589 0.3278
H37 H 0.6758 1.0590 0.3639
H38 H 0.7714 1.0842 0.2611
Si2? Si 0.7306(7) 0.8546(8) 0.2023(5)
C27? C 0.5655(15) 0.8116(13) 0.2495(13)
H39? H 0.5627 0.7487 0.2144
H40? H 0.4700 0.8805 0.2415
H41? H 0.5716 0.7816 0.3190
C28? C 0.752(2) 0.8513(18) 0.0458(13)
H42? H 0.7725 0.9235 0.0115
H43? H 0.6548 0.8480 0.0274
H44? H 0.8397 0.7809 0.0281
C29? C 0.664(3) 1.012(3) 0.321(2)
H45? H 0.6240 0.9458 0.3451
H46? H 0.5810 1.0877 0.3319
H47? H 0.7528 1.0037 0.3571
C30? C 0.7256(10) 1.0116(7) 0.2003(7)
C31? C 0.5778(19) 1.1070(15) 0.1563(16)
H48? H 0.5729 1.0913 0.0906
H49? H 0.5855 1.1867 0.1529
H50? H 0.4827 1.1025 0.1981
C32? C 0.8646(19) 1.0426(12) 0.1462(11)
H51? H 0.9607 0.9885 0.1732
H52? H 0.8529 1.1249 0.1530
H53? H 0.8711 1.0346 0.0769
loop_
_geom_bond_atom_site_label_1
_geom_bond_atom_site_label_2
_geom_bond_site_symmetry_1
_geom_bond_site_symmetry_2
Si1 O2 1_555 1_555
C1 C2 1_555 1_555
C2 H1 1_555 1_555
C3 C2 1_555 1_555
C4 C1 1_555 1_555
O1 C11 1_555 1_555
O2 C1 1_555 1_555
O3 C3 1_555 1_555
C5 C4 1_555 1_555
H2 C5 1_555 1_555
C6 H3 1_555 1_555
H4 C6 1_555 1_555
H5 C6 1_555 1_555
C7 C2 1_555 1_555
H6 C7 1_555 1_555
C8 C1 1_555 1_555
H7 C8 1_555 1_555
H8 C8 1_555 1_555
C9 C5 1_555 1_555
H9 C9 1_555 1_555
H10 C9 1_555 1_555
O4 C4 1_555 1_555
C10 C9 1_555 1_555
H11 C10 1_555 1_555
H12 C10 1_555 1_555
O5 C6 1_555 1_555
C11 C3 1_555 1_555
C12 O4 1_555 1_555
H13 C12 1_555 1_555
H14 C12 1_555 1_555
C13 H15 1_555 1_555
C14 C13 1_555 1_555
H16 C14 1_555 1_555
C15 C7 1_555 1_555
C16 C15 1_555 1_555
H17 C16 1_555 1_555
C17 C16 1_555 1_555
H18 C17 1_555 1_555
C18 C14 1_555 1_555
H19 C18 1_555 1_555
C19 C4 1_555 1_555
H20 C19 1_555 1_555
H21 C19 1_555 1_555
C20 C8 1_555 1_555
H22 C20 1_555 1_555
H23 C20 1_555 1_555
C21 Si1 1_555 1_555
H24 C21 1_555 1_555
H25 C21 1_555 1_555
H26 C21 1_555 1_555
C22 H27 1_555 1_555
H28 C22 1_555 1_555
H29 C22 1_555 1_555
C23 Si1 1_555 1_555
C24 Si1 1_555 1_555
H30 C24 1_555 1_555
H31 C24 1_555 1_555
H32 C24 1_555 1_555
C25 C23 1_555 1_555
H33 C25 1_555 1_555
H34 C25 1_555 1_555
H35 C25 1_555 1_555
C26 C23 1_555 1_555
H36 C26 1_555 1_555
H37 C26 1_555 1_555
H38 C26 1_555 1_555
C5 C7 1_555 1_555
C10 C12 1_555 1_555
O5 C11 1_555 1_555
C13 C15 1_555 1_555
C17 C18 1_555 1_555
C19 C20 1_555 1_555
C22 C23 1_555 1_555

#END
