
#######################################################################
#
#                 Cambridge Crystallographic Data Centre
#                                CCDC 
#
#######################################################################
#
# If this CIF has been generated from an entry in the Cambridge 
# Structural Database, then it will include bibliographic, chemical, 
# crystal, experimental, refinement or atomic coordinate data resulting 
# from the CCDC's data processing and validation procedures.
#
#######################################################################

data_RUDPIR
_chemical_formula_moiety         'C15 H23 N3 O1'
_chemical_name_systematic        
3,3-diisopropyl-1-(2-(4-methoxyphenyl)vinyl)triaz-1-ene
_symmetry_cell_setting           monoclinic
_symmetry_space_group_name_H-M   'P 21/c'
_symmetry_Int_Tables_number      14
_space_group_name_Hall           '-P 2ybc'
loop_
_symmetry_equiv_pos_site_id
_symmetry_equiv_pos_as_xyz
1 x,y,z
2 -x,1/2+y,1/2-z
3 -x,-y,-z
4 x,1/2-y,1/2+z
_cell_length_a                   10.1835(6)
_cell_length_b                   10.9846(14)
_cell_length_c                   13.7637(10)
_cell_angle_alpha                90
_cell_angle_beta                 101.654(7)
_cell_angle_gamma                90
_cell_volume                     1507.89
_exptl_crystal_colour            yellow
_exptl_crystal_description       prism
_cell_formula_units_Z            4
loop_
_atom_site_label
_atom_site_type_symbol
_atom_site_fract_x
_atom_site_fract_y
_atom_site_fract_z
O1 O 0.60207(11) 0.30542(10) 0.02908(8)
N1 N -0.03660(13) 0.55037(12) 0.25933(9)
N2 N 0.05620(12) 0.50036(12) 0.32854(10)
N3 N 0.16100(12) 0.46148(11) 0.29851(9)
C1 C -0.02096(16) 0.56062(14) 0.15532(11)
H1 H 0.0354(17) 0.4913(16) 0.1458(13)
C2 C 0.05171(19) 0.67778(17) 0.13974(14)
H2 H -0.0027(19) 0.7509(18) 0.1492(14)
H3 H 0.0670(19) 0.6826(18) 0.0722(16)
H4 H 0.138(2) 0.6830(17) 0.1855(14)
C3 C -0.15442(18) 0.54780(18) 0.08297(13)
H5 H -0.203(2) 0.478(2) 0.0972(16)
H6 H -0.1372(19) 0.5398(17) 0.0154(15)
H7 H -0.2131(19) 0.6204(19) 0.0821(14)
C4 C -0.14871(15) 0.60625(15) 0.29714(12)
H8 H -0.2028(16) 0.6486(15) 0.2406(12)
C5 C -0.09736(19) 0.69982(16) 0.37715(14)
H9 H -0.0426(18) 0.6583(18) 0.4380(14)
H10 H -0.173(2) 0.7417(19) 0.3960(14)
H11 H -0.041(2) 0.762(2) 0.3531(15)
C6 C -0.23329(18) 0.50921(18) 0.33394(15)
H12 H -0.266(2) 0.4509(19) 0.2835(15)
H13 H -0.307(2) 0.5474(19) 0.3577(15)
H14 H -0.176(2) 0.465(2) 0.3905(16)
C7 C 0.24701(15) 0.40087(14) 0.37512(11)
H15 H 0.2191(16) 0.3966(15) 0.4396(12)
C8 C 0.35931(15) 0.34349(14) 0.36329(11)
H16 H 0.4077(17) 0.3001(16) 0.4196(13)
C9 C 0.41881(14) 0.33398(13) 0.27475(11)
C10 C 0.50934(16) 0.23938(14) 0.26945(12)
H17 H 0.5268(17) 0.1813(17) 0.3229(13)
C11 C 0.57095(15) 0.22504(14) 0.18867(12)
H18 H 0.6291(17) 0.1600(17) 0.1866(13)
C12 C 0.54428(14) 0.30822(14) 0.11121(11)
C13 C 0.45381(15) 0.40301(14) 0.11426(11)
H19 H 0.4361(16) 0.4572(15) 0.0604(12)
C14 C 0.39177(15) 0.41509(13) 0.19420(11)
H20 H 0.3294(16) 0.4802(16) 0.1942(12)
C15 C 0.69176(18) 0.20690(17) 0.02269(14)
H21 H 0.7719(18) 0.2114(17) 0.0797(14)
H22 H 0.7203(18) 0.2182(17) -0.0403(14)
H23 H 0.6469(18) 0.1278(18) 0.0234(13)
loop_
_geom_bond_atom_site_label_1
_geom_bond_atom_site_label_2
_geom_bond_site_symmetry_1
_geom_bond_site_symmetry_2
O1 C12 1_555 1_555
N1 N2 1_555 1_555
N2 N3 1_555 1_555
N3 C7 1_555 1_555
C1 N1 1_555 1_555
H1 C1 1_555 1_555
C2 C1 1_555 1_555
H2 C2 1_555 1_555
H3 C2 1_555 1_555
H4 C2 1_555 1_555
C3 C1 1_555 1_555
H5 C3 1_555 1_555
H6 C3 1_555 1_555
H7 C3 1_555 1_555
C4 N1 1_555 1_555
H8 C4 1_555 1_555
C5 C4 1_555 1_555
H9 C5 1_555 1_555
H10 C5 1_555 1_555
H11 C5 1_555 1_555
C6 C4 1_555 1_555
H12 C6 1_555 1_555
H13 C6 1_555 1_555
H14 C6 1_555 1_555
C7 H15 1_555 1_555
C8 C7 1_555 1_555
H16 C8 1_555 1_555
C9 C8 1_555 1_555
C10 C9 1_555 1_555
H17 C10 1_555 1_555
C11 C10 1_555 1_555
H18 C11 1_555 1_555
C12 C11 1_555 1_555
C13 C12 1_555 1_555
H19 C13 1_555 1_555
C14 C9 1_555 1_555
H20 C14 1_555 1_555
C15 O1 1_555 1_555
H21 C15 1_555 1_555
H22 C15 1_555 1_555
H23 C15 1_555 1_555
C13 C14 1_555 1_555

#END
