
#######################################################################
#
#                 Cambridge Crystallographic Data Centre
#                                CCDC 
#
#######################################################################
#
# If this CIF has been generated from an entry in the Cambridge 
# Structural Database, then it will include bibliographic, chemical, 
# crystal, experimental, refinement or atomic coordinate data resulting 
# from the CCDC's data processing and validation procedures.
#
#######################################################################

data_RUDQAK
_chemical_formula_moiety         'C8 H15 N3'
_chemical_name_systematic        
1-(3,3-dimethylbut-1-yn-1-yl)-3,3-dimethyltriaz-1-ene
_symmetry_cell_setting           tetragonal
_symmetry_space_group_name_H-M   'P -4 21 c'
_symmetry_Int_Tables_number      114
_space_group_name_Hall           'P -4 2n'
loop_
_symmetry_equiv_pos_site_id
_symmetry_equiv_pos_as_xyz
1 x,y,z
2 -x,-y,z
3 y,-x,-z
4 -y,x,-z
5 1/2-x,1/2+y,1/2-z
6 1/2+x,1/2-y,1/2-z
7 1/2-y,1/2-x,1/2+z
8 1/2+y,1/2+x,1/2+z
_cell_length_a                   17.1962(4)
_cell_length_b                   17.1962(4)
_cell_length_c                   6.6210(2)
_cell_angle_alpha                90
_cell_angle_beta                 90
_cell_angle_gamma                90
_cell_volume                     1957.89
_exptl_crystal_colour            colorless
_exptl_crystal_description       plate
_cell_formula_units_Z            8
loop_
_atom_site_label
_atom_site_type_symbol
_atom_site_fract_x
_atom_site_fract_y
_atom_site_fract_z
N1 N 0.94705(5) 0.63822(4) 0.97842(14)
N2 N 0.90483(5) 0.57493(4) 0.97794(14)
N3 N 0.83123(5) 0.58902(5) 0.97878(13)
C1 C 1.03075(6) 0.62718(7) 0.9777(2)
H1 H 1.0423(8) 0.5704(8) 0.982(3)
H2 H 1.0528(9) 0.6539(10) 1.095(3)
H3 H 1.0513(9) 0.6506(10) 0.860(3)
C2 C 0.91340(6) 0.71537(6) 0.98000(18)
H4 H 0.8819(9) 0.7223(9) 0.859(3)
H5 H 0.9530(9) 0.7529(8) 0.979(3)
H6 H 0.8825(9) 0.7207(9) 1.101(2)
C3 C 0.78883(6) 0.52195(5) 0.97886(17)
C4 C 0.74281(6) 0.46923(6) 0.97931(18)
C5 C 0.68913(6) 0.40223(6) 0.9814(2)
C6 C 0.62171(8) 0.41716(8) 0.8363(2)
H7 H 0.5935(10) 0.4630(10) 0.877(3)
H8 H 0.5876(10) 0.3720(10) 0.839(3)
H9 H 0.6419(9) 0.4247(9) 0.698(3)
C7 C 0.65796(9) 0.39022(8) 1.1952(2)
H10 H 0.6997(10) 0.3840(10) 1.295(3)
H11 H 0.6214(10) 0.3490(10) 1.197(3)
H12 H 0.6315(10) 0.4389(10) 1.250(3)
C8 C 0.73325(9) 0.32923(8) 0.9138(3)
H13 H 0.7489(10) 0.3348(10) 0.777(3)
H14 H 0.7022(11) 0.2821(11) 0.930(3)
H15 H 0.7769(10) 0.3228(9) 1.007(3)
loop_
_geom_bond_atom_site_label_1
_geom_bond_atom_site_label_2
_geom_bond_site_symmetry_1
_geom_bond_site_symmetry_2
N1 N2 1_555 1_555
N2 N3 1_555 1_555
N3 C3 1_555 1_555
C1 N1 1_555 1_555
H1 C1 1_555 1_555
H2 C1 1_555 1_555
H3 C1 1_555 1_555
C2 N1 1_555 1_555
H4 C2 1_555 1_555
H5 C2 1_555 1_555
H6 C2 1_555 1_555
C3 C4 1_555 1_555
C4 C5 1_555 1_555
C5 C6 1_555 1_555
C6 H7 1_555 1_555
H8 C6 1_555 1_555
H9 C6 1_555 1_555
C7 C5 1_555 1_555
H10 C7 1_555 1_555
H11 C7 1_555 1_555
H12 C7 1_555 1_555
C8 C5 1_555 1_555
H13 C8 1_555 1_555
H14 C8 1_555 1_555
H15 C8 1_555 1_555

#END
