
#######################################################################
#
#                 Cambridge Crystallographic Data Centre
#                                CCDC 
#
#######################################################################
#
# If this CIF has been generated from an entry in the Cambridge 
# Structural Database, then it will include bibliographic, chemical, 
# crystal, experimental, refinement or atomic coordinate data resulting 
# from the CCDC's data processing and validation procedures.
#
#######################################################################

data_RUDXUK
_chemical_formula_moiety         'C25 H16 F1 N3 O1'
_chemical_name_systematic        
(E)-3-(9-Anthryl)-1-(4-fluorophenyl)-2-(1H-1,2,4-triazol-1-yl)prop-2-en-1-one
_symmetry_cell_setting           orthorhombic
_symmetry_space_group_name_H-M   'P b c a'
_symmetry_Int_Tables_number      61
_space_group_name_Hall           '-P 2ac 2ab'
loop_
_symmetry_equiv_pos_site_id
_symmetry_equiv_pos_as_xyz
1 x,y,z
2 1/2-x,-y,1/2+z
3 -x,1/2+y,1/2-z
4 1/2+x,1/2-y,-z
5 -x,-y,-z
6 1/2+x,y,1/2-z
7 x,1/2-y,1/2+z
8 1/2-x,1/2+y,z
_cell_length_a                   13.1115(8)
_cell_length_b                   13.4737(8)
_cell_length_c                   21.7019(14)
_cell_angle_alpha                90
_cell_angle_beta                 90
_cell_angle_gamma                90
_cell_volume                     3833.87
_exptl_crystal_colour            yellow
_exptl_crystal_description       block
_cell_formula_units_Z            8
_exptl_crystal_recrystallization_method dichloromethane
loop_
_atom_site_label
_atom_site_type_symbol
_atom_site_fract_x
_atom_site_fract_y
_atom_site_fract_z
C1 C 0.33997(13) -0.03462(14) 0.19230(8)
C2 C 0.28391(14) -0.00708(17) 0.14089(9)
H1 H 0.2586 0.0572 0.1377
C3 C 0.26557(17) -0.0751(2) 0.09435(10)
H2 H 0.2296 -0.0569 0.0592
C4 C 0.30156(18) -0.1692(2) 0.10137(12)
C5 C 0.35496(19) -0.19944(19) 0.15162(13)
H3 H 0.3771 -0.2648 0.1551
C6 C 0.37565(16) -0.13104(16) 0.19739(11)
H4 H 0.4136 -0.1498 0.2317
C7 C 0.35581(14) 0.03737(14) 0.24300(8)
C8 C 0.45641(13) 0.03523(13) 0.27672(8)
C9 C 0.37480(17) 0.02786(19) 0.38130(9)
H5 H 0.3100 0.0069 0.3697
C10 C 0.50043(18) 0.07070(17) 0.43119(9)
H6 H 0.5415 0.0867 0.4647
C11 C 0.54642(14) 0.03428(14) 0.24860(8)
H7 H 0.6044 0.0310 0.2732
C12 C 0.56121(13) 0.03800(14) 0.18104(8)
C13 C 0.53007(13) 0.12230(14) 0.14735(8)
C14 C 0.48685(16) 0.20863(15) 0.17516(9)
H8 H 0.4783 0.2104 0.2177
C15 C 0.45807(18) 0.28783(18) 0.14105(11)
H9 H 0.4301 0.3430 0.1605
C16 C 0.46980(19) 0.28793(19) 0.07665(11)
H10 H 0.4485 0.3424 0.0537
C17 C 0.51180(17) 0.20924(18) 0.04815(10)
H11 H 0.5198 0.2105 0.0056
C18 C 0.54443(14) 0.12368(16) 0.08176(8)
C19 C 0.58943(16) 0.04302(16) 0.05307(9)
H12 H 0.5968 0.0439 0.0105
C20 C 0.62388(14) -0.03901(15) 0.08563(9)
C21 C 0.67370(18) -0.12021(18) 0.05638(10)
H13 H 0.6821 -0.1195 0.0138
C22 C 0.7087(2) -0.19767(19) 0.08895(12)
H14 H 0.7412 -0.2498 0.0689
C23 C 0.6965(2) -0.20059(18) 0.15352(12)
H15 H 0.7214 -0.2545 0.1757
C24 C 0.64870(17) -0.12541(16) 0.18361(10)
H16 H 0.6408 -0.1288 0.2261
C25 C 0.61067(14) -0.04183(14) 0.15128(8)
F1 F 0.28332(14) -0.23601(15) 0.05633(9)
N1 N 0.45059(11) 0.04595(11) 0.34187(7)
N2 N 0.40276(16) 0.04324(16) 0.43811(8)
N3 N 0.53431(13) 0.07357(14) 0.37481(7)
O1 O 0.29069(10) 0.09647(12) 0.25734(7)
loop_
_geom_bond_atom_site_label_1
_geom_bond_atom_site_label_2
_geom_bond_site_symmetry_1
_geom_bond_site_symmetry_2
C1 C2 1_555 1_555
C2 H1 1_555 1_555
C3 C2 1_555 1_555
H2 C3 1_555 1_555
C4 C3 1_555 1_555
C5 C4 1_555 1_555
H3 C5 1_555 1_555
C6 C1 1_555 1_555
H4 C6 1_555 1_555
C7 C1 1_555 1_555
C8 C7 1_555 1_555
C9 H5 1_555 1_555
C10 H6 1_555 1_555
C11 C8 1_555 1_555
H7 C11 1_555 1_555
C12 C11 1_555 1_555
C13 C12 1_555 1_555
C14 C13 1_555 1_555
H8 C14 1_555 1_555
C15 C14 1_555 1_555
H9 C15 1_555 1_555
C16 C15 1_555 1_555
H10 C16 1_555 1_555
C17 C16 1_555 1_555
H11 C17 1_555 1_555
C18 C13 1_555 1_555
C19 C18 1_555 1_555
H12 C19 1_555 1_555
C20 C19 1_555 1_555
C21 C20 1_555 1_555
H13 C21 1_555 1_555
C22 C21 1_555 1_555
H14 C22 1_555 1_555
C23 C22 1_555 1_555
H15 C23 1_555 1_555
C24 C23 1_555 1_555
H16 C24 1_555 1_555
C25 C12 1_555 1_555
F1 C4 1_555 1_555
N1 C8 1_555 1_555
N2 C9 1_555 1_555
N3 C10 1_555 1_555
O1 C7 1_555 1_555
C5 C6 1_555 1_555
C9 N1 1_555 1_555
C10 N2 1_555 1_555
C17 C18 1_555 1_555
C20 C25 1_555 1_555
C24 C25 1_555 1_555
N1 N3 1_555 1_555

#END
