
#######################################################################
#
#                 Cambridge Crystallographic Data Centre
#                                CCDC 
#
#######################################################################
#
# If this CIF has been generated from an entry in the Cambridge 
# Structural Database, then it will include bibliographic, chemical, 
# crystal, experimental, refinement or atomic coordinate data resulting 
# from the CCDC's data processing and validation procedures.
#
#######################################################################

data_RUFCUS
_chemical_name_common            
"t-Butyl (1R,4'S,5'S,8S,10R)-4',5'-diphenyl-10-(phenylsulfonyl)-11H-spiro[11-azatricyclo[6.2.1.0$2,7!]undeca-2,4,6-triene-9,2'-[1,3]dioxolane]-11-carboxylate"
_chemical_formula_moiety         'C35 H33 N1 O6 S1'
_chemical_name_systematic        
"t-Butyl (1S,3R,4R,4'S,5'S)-4',5'-diphenyl-3-(phenylsulfonyl)-3,4-dihydro-1H-spiro[1,4-epiminonaphthalene-2,2'-[1,3]dioxolane]-9-carboxylate"
_symmetry_cell_setting           orthorhombic
_symmetry_space_group_name_H-M   'P 21 21 21'
_symmetry_Int_Tables_number      19
_space_group_name_Hall           'P 2ac 2ab'
loop_
_symmetry_equiv_pos_site_id
_symmetry_equiv_pos_as_xyz
1 x,y,z
2 1/2+x,1/2-y,-z
3 -x,1/2+y,1/2-z
4 1/2-x,-y,1/2+z
_cell_length_a                   10.5513(6)
_cell_length_b                   13.4479(7)
_cell_length_c                   21.7370(12)
_cell_angle_alpha                90
_cell_angle_beta                 90
_cell_angle_gamma                90
_cell_volume                     3084.32
_exptl_crystal_colour            colorless
_exptl_crystal_description       block
_chemical_melting_point          '454 K'
_cell_formula_units_Z            4
_exptl_crystal_recrystallization_method ethanol
loop_
_atom_site_label
_atom_site_type_symbol
_atom_site_fract_x
_atom_site_fract_y
_atom_site_fract_z
S1 S 0.86550(8) 1.05845(6) 0.23896(3)
O1 O 0.88323(17) 0.82613(13) 0.14917(9)
O2 O 0.80917(16) 0.97402(13) 0.11226(8)
O3 O 0.7443(2) 1.01051(18) 0.24614(10)
O4 O 0.9384(2) 1.08398(18) 0.29265(9)
O5 O 1.1488(2) 1.08696(15) 0.02094(9)
O6 O 1.20535(18) 1.16563(14) 0.10941(9)
N1 N 1.0648(2) 1.04234(15) 0.11327(9)
C1 C 1.0303(3) 0.9405(2) 0.09403(12)
H1 H 1.0116 0.9320 0.0502
C2 C 0.9168(2) 0.9262(2) 0.13813(12)
C3 C 0.9661(3) 0.9747(2) 0.19800(12)
H2 H 0.9851 0.9200 0.2263
C4 C 1.0960(2) 1.0184(2) 0.17786(12)
H3 H 1.1289 1.0734 0.2028
C5 C 1.1823(3) 0.9292(2) 0.17093(13)
C6 C 1.1407(3) 0.8804(2) 0.11852(13)
C7 C 1.1916(3) 0.7905(2) 0.10101(16)
H4 H 1.1617 0.7566 0.0666
C8 C 1.2898(4) 0.7521(3) 0.1368(2)
H5 H 1.3278 0.6925 0.1253
C9 C 1.3313(3) 0.8001(3) 0.18840(19)
H6 H 1.3965 0.7725 0.2116
C10 C 1.2776(3) 0.8894(3) 0.20663(15)
H7 H 1.3052 0.9217 0.2420
C11 C 0.7070(2) 0.90257(19) 0.10747(13)
H8 H 0.6513 0.9079 0.1434
C12 C 0.7793(3) 0.8033(2) 0.10921(13)
H9 H 0.8115 0.7877 0.0680
C13 C 0.7044(3) 0.71751(19) 0.13298(13)
C14 C 0.6470(3) 0.6524(2) 0.09292(14)
H10 H 0.6586 0.6607 0.0508
C15 C 0.5725(3) 0.5747(2) 0.11376(18)
H11 H 0.5354 0.5311 0.0859
C16 C 0.5537(3) 0.5624(3) 0.17515(18)
H12 H 0.5031 0.5108 0.1895
C17 C 0.6098(3) 0.6265(3) 0.21558(17)
H13 H 0.5974 0.6178 0.2576
C18 C 0.6844(3) 0.7040(2) 0.19519(15)
H14 H 0.7213 0.7472 0.2234
C19 C 0.6328(3) 0.91999(18) 0.05006(12)
C20 C 0.6895(3) 0.9377(2) -0.00566(13)
H15 H 0.7772 0.9444 -0.0076
C21 C 0.6189(4) 0.9457(2) -0.05884(14)
H16 H 0.6592 0.9574 -0.0962
C22 C 0.4899(4) 0.9364(2) -0.05692(17)
H17 H 0.4422 0.9402 -0.0928
C23 C 0.4327(3) 0.9215(3) -0.00208(18)
H18 H 0.3449 0.9165 -0.0005
C24 C 0.5018(3) 0.9136(2) 0.05188(14)
H19 H 0.4604 0.9040 0.0892
C25 C 0.8451(3) 1.1678(2) 0.19515(12)
C26 C 0.7358(3) 1.1822(3) 0.16247(14)
H20 H 0.6732 1.1334 0.1617
C27 C 0.7196(4) 1.2707(3) 0.13046(16)
H21 H 0.6445 1.2820 0.1092
C28 C 0.8121(4) 1.3410(3) 0.12982(15)
H22 H 0.8009 1.3992 0.1074
C29 C 0.9221(4) 1.3260(3) 0.16222(16)
H23 H 0.9858 1.3738 0.1614
C30 C 0.9381(3) 1.2402(2) 0.19600(14)
H24 H 1.0112 1.2310 0.2192
C31 C 1.1438(3) 1.0976(2) 0.07603(14)
C32 C 1.2884(3) 1.2397(2) 0.07965(14)
C33 C 1.2128(4) 1.3005(3) 0.03453(18)
H25 H 1.1796 1.2578 0.0030
H26 H 1.2665 1.3499 0.0162
H27 H 1.1440 1.3325 0.0556
C34 C 1.3305(4) 1.3024(3) 0.13382(16)
H28 H 1.2577 1.3319 0.1530
H29 H 1.3864 1.3539 0.1197
H30 H 1.3741 1.2612 0.1630
C35 C 1.3988(3) 1.1891(3) 0.04904(19)
H31 H 1.4424 1.1484 0.0785
H32 H 1.4559 1.2384 0.0331
H33 H 1.3686 1.1482 0.0159
loop_
_geom_bond_atom_site_label_1
_geom_bond_atom_site_label_2
_geom_bond_site_symmetry_1
_geom_bond_site_symmetry_2
S1 O3 1_555 1_555
O1 C2 1_555 1_555
O2 C2 1_555 1_555
O4 S1 1_555 1_555
O5 C31 1_555 1_555
O6 C31 1_555 1_555
N1 C1 1_555 1_555
C1 H1 1_555 1_555
C2 C1 1_555 1_555
C3 S1 1_555 1_555
H2 C3 1_555 1_555
C4 N1 1_555 1_555
H3 C4 1_555 1_555
C5 C4 1_555 1_555
C6 C1 1_555 1_555
C7 C6 1_555 1_555
H4 C7 1_555 1_555
C8 C7 1_555 1_555
H5 C8 1_555 1_555
C9 C8 1_555 1_555
H6 C9 1_555 1_555
C10 C5 1_555 1_555
H7 C10 1_555 1_555
C11 O2 1_555 1_555
H8 C11 1_555 1_555
C12 O1 1_555 1_555
H9 C12 1_555 1_555
C13 C12 1_555 1_555
C14 C13 1_555 1_555
H10 C14 1_555 1_555
C15 C14 1_555 1_555
H11 C15 1_555 1_555
C16 C15 1_555 1_555
H12 C16 1_555 1_555
C17 C16 1_555 1_555
H13 C17 1_555 1_555
C18 C13 1_555 1_555
H14 C18 1_555 1_555
C19 C11 1_555 1_555
C20 C19 1_555 1_555
H15 C20 1_555 1_555
C21 C20 1_555 1_555
H16 C21 1_555 1_555
C22 C21 1_555 1_555
H17 C22 1_555 1_555
C23 C22 1_555 1_555
H18 C23 1_555 1_555
C24 C19 1_555 1_555
H19 C24 1_555 1_555
C25 S1 1_555 1_555
C26 C25 1_555 1_555
H20 C26 1_555 1_555
C27 C26 1_555 1_555
H21 C27 1_555 1_555
C28 C27 1_555 1_555
H22 C28 1_555 1_555
C29 C28 1_555 1_555
H23 C29 1_555 1_555
C30 C25 1_555 1_555
H24 C30 1_555 1_555
C31 N1 1_555 1_555
C32 O6 1_555 1_555
C33 C32 1_555 1_555
H25 C33 1_555 1_555
H26 C33 1_555 1_555
H27 C33 1_555 1_555
C34 C32 1_555 1_555
H28 C34 1_555 1_555
H29 C34 1_555 1_555
H30 C34 1_555 1_555
C35 C32 1_555 1_555
H31 C35 1_555 1_555
H32 C35 1_555 1_555
H33 C35 1_555 1_555
C2 C3 1_555 1_555
C3 C4 1_555 1_555
C5 C6 1_555 1_555
C9 C10 1_555 1_555
C11 C12 1_555 1_555
C17 C18 1_555 1_555
C23 C24 1_555 1_555
C29 C30 1_555 1_555

#END
