
#######################################################################
#
#                 Cambridge Crystallographic Data Centre
#                                CCDC 
#
#######################################################################
#
# If this CIF has been generated from an entry in the Cambridge 
# Structural Database, then it will include bibliographic, chemical, 
# crystal, experimental, refinement or atomic coordinate data resulting 
# from the CCDC's data processing and validation procedures.
#
#######################################################################

data_RUFHIK
_chemical_formula_moiety         'C11 H10 Br1 N1 O2'
_chemical_name_systematic        2-(3-Bromopropyl)isoindoline-1,3-dione
_symmetry_cell_setting           monoclinic
_symmetry_space_group_name_H-M   'P 21'
_symmetry_Int_Tables_number      4
_space_group_name_Hall           'P 2yb'
loop_
_symmetry_equiv_pos_site_id
_symmetry_equiv_pos_as_xyz
1 x,y,z
2 -x,1/2+y,-z
_cell_length_a                   4.8413(7)
_cell_length_b                   7.3401(11)
_cell_length_c                   15.095(2)
_cell_angle_alpha                90
_cell_angle_beta                 91.729(3)
_cell_angle_gamma                90
_cell_volume                     536.166
_exptl_crystal_colour            colorless
_exptl_crystal_description       block
_cell_formula_units_Z            2
_exptl_crystal_recrystallization_method ethanol
loop_
_atom_site_label
_atom_site_type_symbol
_atom_site_fract_x
_atom_site_fract_y
_atom_site_fract_z
N1 N 0.6038(5) 0.5266(4) 0.75371(15)
Br1 Br 0.85905(7) -0.00237(6) 0.598616(19)
O1 O 0.9554(5) 0.4693(4) 0.85776(14)
O2 O 0.2346(5) 0.6583(3) 0.67773(15)
C1 C 0.6620(7) 0.2145(5) 0.5540(2)
H1 H 0.7194 0.2405 0.4943
H2 H 0.4651 0.1897 0.5513
C2 C 0.7160(7) 0.3787(4) 0.61137(19)
H3 H 0.6288 0.4842 0.5838
H4 H 0.9134 0.4012 0.6154
C3 C 0.6075(7) 0.3556(4) 0.7045(2)
H5 H 0.4215 0.3064 0.7004
H6 H 0.7228 0.2685 0.7368
C4 C 0.4095(6) 0.6634(4) 0.7365(2)
C5 C 0.4650(6) 0.8063(4) 0.80381(19)
C6 C 0.3321(6) 0.9709(5) 0.8172(2)
H7 H 0.1856 1.0083 0.7803
C7 C 0.4252(8) 1.0770(5) 0.8873(2)
H8 H 0.3434 1.1896 0.8971
C8 C 0.6392(7) 1.0182(7) 0.94342(19)
H9 H 0.6951 1.0907 0.9912
C9 C 0.7708(7) 0.8541(5) 0.9298(2)
H10 H 0.9156 0.8158 0.9672
C10 C 0.6813(6) 0.7490(4) 0.85924(19)
C11 C 0.7744(7) 0.5670(4) 0.82773(19)
loop_
_geom_bond_atom_site_label_1
_geom_bond_atom_site_label_2
_geom_bond_site_symmetry_1
_geom_bond_site_symmetry_2
N1 C3 1_555 1_555
Br1 C1 1_555 1_555
O1 C11 1_555 1_555
O2 C4 1_555 1_555
C1 H1 1_555 1_555
H2 C1 1_555 1_555
C2 C1 1_555 1_555
H3 C2 1_555 1_555
H4 C2 1_555 1_555
C3 C2 1_555 1_555
H5 C3 1_555 1_555
H6 C3 1_555 1_555
C4 N1 1_555 1_555
C5 C4 1_555 1_555
C6 C5 1_555 1_555
H7 C6 1_555 1_555
C7 C6 1_555 1_555
H8 C7 1_555 1_555
C8 C7 1_555 1_555
H9 C8 1_555 1_555
C9 C8 1_555 1_555
H10 C9 1_555 1_555
C10 C5 1_555 1_555
C11 N1 1_555 1_555
C9 C10 1_555 1_555
C10 C11 1_555 1_555

#END
