
#######################################################################
#
#                 Cambridge Crystallographic Data Centre
#                                CCDC 
#
#######################################################################
#
# If this CIF has been generated from an entry in the Cambridge 
# Structural Database, then it will include bibliographic, chemical, 
# crystal, experimental, refinement or atomic coordinate data resulting 
# from the CCDC's data processing and validation procedures.
#
#######################################################################

data_RUFHUW
_chemical_formula_moiety         'C15 H9 Br1 Cl2 O1'
_chemical_name_systematic        
2-Bromo-1,3-bis(4-chlorophenyl)prop-2-en-1-one
_symmetry_cell_setting           monoclinic
_symmetry_space_group_name_H-M   'P 21'
_symmetry_Int_Tables_number      4
_space_group_name_Hall           'P 2yb'
loop_
_symmetry_equiv_pos_site_id
_symmetry_equiv_pos_as_xyz
1 x,y,z
2 -x,1/2+y,-z
_cell_length_a                   7.7416(3)
_cell_length_b                   9.7981(4)
_cell_length_c                   9.6717(3)
_cell_angle_alpha                90
_cell_angle_beta                 109.075(2)
_cell_angle_gamma                90
_cell_volume                     693.345
_exptl_crystal_colour            colorless
_exptl_crystal_description       block
_chemical_melting_point          '325-328 K'
_cell_formula_units_Z            2
_exptl_crystal_recrystallization_method ethanol
loop_
_atom_site_label
_atom_site_type_symbol
_atom_site_fract_x
_atom_site_fract_y
_atom_site_fract_z
C1 C 0.5669(5) 0.6271(3) 0.7407(4)
H1 H 0.5761 0.5621 0.6706
C2 C 0.6586(5) 0.6046(4) 0.8887(4)
H2 H 0.7296 0.5245 0.9206
C3 C 0.6438(4) 0.7025(4) 0.9891(3)
C4 C 0.5385(5) 0.8181(4) 0.9458(4)
H3 H 0.5283 0.8825 1.0160
C5 C 0.4479(5) 0.8387(4) 0.7982(4)
H4 H 0.3753 0.9182 0.7670
C6 C 0.4622(5) 0.7436(3) 0.6945(4)
C7 C 0.3742(5) 0.7800(4) 0.5351(4)
C8 C 0.3109(5) 0.6665(4) 0.4271(4)
C9 C 0.2468(5) 0.5475(4) 0.4610(4)
H5 H 0.2575 0.5416 0.5615
C10 C 0.1645(5) 0.4256(4) 0.3785(4)
C11 C 0.1567(5) 0.3124(4) 0.4629(4)
H6 H 0.2057 0.3188 0.5665
C12 C 0.0786(5) 0.1897(4) 0.3994(4)
H7 H 0.0774 0.1119 0.4578
C13 C 0.0028(5) 0.1849(4) 0.2478(4)
C14 C 0.0093(5) 0.2951(4) 0.1604(4)
H8 H -0.0427 0.2890 0.0570
C15 C 0.0928(5) 0.4146(4) 0.2258(4)
H9 H 0.1016 0.4899 0.1665
O1 O 0.3501(5) 0.8986(3) 0.4961(3)
Cl1 Cl 0.76953(13) 0.67976(9) 1.17307(9)
Cl2 Cl -0.10057(15) 0.03386(11) 0.16691(12)
Br1 Br 0.31668(5) 0.71253(4) 0.23765(4)
loop_
_geom_bond_atom_site_label_1
_geom_bond_atom_site_label_2
_geom_bond_site_symmetry_1
_geom_bond_site_symmetry_2
C1 H1 1_555 1_555
C2 C1 1_555 1_555
H2 C2 1_555 1_555
C3 C2 1_555 1_555
C4 C3 1_555 1_555
H3 C4 1_555 1_555
C5 C4 1_555 1_555
H4 C5 1_555 1_555
C6 C1 1_555 1_555
C7 C6 1_555 1_555
C8 C7 1_555 1_555
C9 C8 1_555 1_555
H5 C9 1_555 1_555
C10 C9 1_555 1_555
C11 C10 1_555 1_555
H6 C11 1_555 1_555
C12 C11 1_555 1_555
H7 C12 1_555 1_555
C13 C12 1_555 1_555
C14 C13 1_555 1_555
H8 C14 1_555 1_555
C15 C10 1_555 1_555
H9 C15 1_555 1_555
O1 C7 1_555 1_555
Cl1 C3 1_555 1_555
Cl2 C13 1_555 1_555
Br1 C8 1_555 1_555
C5 C6 1_555 1_555
C14 C15 1_555 1_555

#END
