
#######################################################################
#
#                 Cambridge Crystallographic Data Centre
#                                CCDC 
#
#######################################################################
#
# If this CIF has been generated from an entry in the Cambridge 
# Structural Database, then it will include bibliographic, chemical, 
# crystal, experimental, refinement or atomic coordinate data resulting 
# from the CCDC's data processing and validation procedures.
#
#######################################################################

data_RUFMAG
_chemical_formula_moiety         'C10 H6 N1 S2'
_chemical_name_systematic        '2,3-Naphthalene-1,3,2-dithiazolyl radical'
_symmetry_cell_setting           triclinic
_symmetry_space_group_name_H-M   'P -1'
_symmetry_Int_Tables_number      2
_space_group_name_Hall           '-P 1'
loop_
_symmetry_equiv_pos_site_id
_symmetry_equiv_pos_as_xyz
1 x,y,z
2 -x,-y,-z
_cell_length_a                   9.4516(18)
_cell_length_b                   9.5167(19)
_cell_length_c                   10.5397(13)
_cell_angle_alpha                76.911(13)
_cell_angle_beta                 86.139(12)
_cell_angle_gamma                75.144(15)
_cell_volume                     892.486
_exptl_crystal_colour            purple
_chemical_melting_point          149-151deg.C
_cell_formula_units_Z            4
loop_
_atom_site_label
_atom_site_type_symbol
_atom_site_fract_x
_atom_site_fract_y
_atom_site_fract_z
S1 S 0.10802(12) 0.89262(12) 0.13980(10)
S2 S 0.40655(12) 0.76544(13) 0.14248(10)
N1 N 0.2591(4) 0.8488(4) 0.0550(3)
C1 C 0.1781(4) 0.8283(4) 0.2976(3)
C2 C 0.1013(3) 0.8352(3) 0.4113(3)
C3 C 0.1731(3) 0.7756(3) 0.5315(3)
C4 C 0.0988(4) 0.7819(4) 0.6523(4)
C5 C 0.1710(5) 0.7233(4) 0.7671(4)
C6 C 0.3205(4) 0.6562(4) 0.7685(4)
C7 C 0.3962(3) 0.6486(4) 0.6554(4)
C8 C 0.3272(3) 0.7077(3) 0.5327(3)
C9 C 0.4035(3) 0.7017(4) 0.4137(3)
C10 C 0.3306(4) 0.7616(4) 0.2987(3)
H1 H -0.001 0.881 0.410
H2 H -0.003 0.829 0.654
H3 H 0.119 0.725 0.847
H4 H 0.371 0.617 0.849
H5 H 0.498 0.601 0.659
H6 H 0.505 0.655 0.415
S3 S 0.32621(16) 0.18731(15) 0.13241(11)
S4 S 0.18326(15) 0.48147(14) 0.12856(11)
N2 N 0.2564(6) 0.3550(5) 0.0440(4)
C11 C 0.2180(4) 0.3741(4) 0.2861(3)
C12 C 0.1843(3) 0.4221(4) 0.3996(3)
C13 C 0.2159(3) 0.3210(4) 0.5199(3)
C14 C 0.1826(4) 0.3662(4) 0.6401(4)
C15 C 0.2118(4) 0.2677(5) 0.7540(4)
C16 C 0.2769(4) 0.1129(5) 0.7562(4)
C17 C 0.3108(4) 0.0676(4) 0.6436(4)
C18 C 0.2830(3) 0.1691(4) 0.5221(3)
C19 C 0.3200(4) 0.1211(4) 0.4036(4)
C20 C 0.2889(4) 0.2227(4) 0.2886(3)
H7 H 0.139 0.524 0.397
H8 H 0.140 0.468 0.641
H9 H 0.189 0.301 0.833
H10 H 0.296 0.043 0.837
H11 H 0.355 -0.035 0.646
H12 H 0.367 0.020 0.404
loop_
_geom_bond_atom_site_label_1
_geom_bond_atom_site_label_2
_geom_bond_site_symmetry_1
_geom_bond_site_symmetry_2
S1 N1 1_555 1_555
S2 N1 1_555 1_555
C1 S1 1_555 1_555
C2 C1 1_555 1_555
C3 C2 1_555 1_555
C4 C3 1_555 1_555
C5 C4 1_555 1_555
C6 C5 1_555 1_555
C7 C6 1_555 1_555
C8 C3 1_555 1_555
C9 C8 1_555 1_555
C10 S2 1_555 1_555
H1 C2 1_555 1_555
H2 C4 1_555 1_555
H3 C5 1_555 1_555
H4 C6 1_555 1_555
H5 C7 1_555 1_555
H6 C9 1_555 1_555
S3 N2 1_555 1_555
S4 N2 1_555 1_555
C11 S4 1_555 1_555
C12 C11 1_555 1_555
C13 C12 1_555 1_555
C14 C13 1_555 1_555
C15 C14 1_555 1_555
C16 C15 1_555 1_555
C17 C16 1_555 1_555
C18 C13 1_555 1_555
C19 C18 1_555 1_555
C20 S3 1_555 1_555
H7 C12 1_555 1_555
H8 C14 1_555 1_555
H9 C15 1_555 1_555
H10 C16 1_555 1_555
H11 C17 1_555 1_555
H12 C19 1_555 1_555
C1 C10 1_555 1_555
C7 C8 1_555 1_555
C9 C10 1_555 1_555
C11 C20 1_555 1_555
C17 C18 1_555 1_555
C19 C20 1_555 1_555

#END
