
#######################################################################
#
#                 Cambridge Crystallographic Data Centre
#                                CCDC 
#
#######################################################################
#
# If this CIF has been generated from an entry in the Cambridge 
# Structural Database, then it will include bibliographic, chemical, 
# crystal, experimental, refinement or atomic coordinate data resulting 
# from the CCDC's data processing and validation procedures.
#
#######################################################################

data_RUFNIP
_chemical_formula_moiety         'C31 H55 N2 1+,Br1 1-,H2 O1'
_chemical_name_systematic        
'1,3-bis(Dodecanyl)benzimidazolium bromide monohydrate'
_symmetry_cell_setting           triclinic
_symmetry_space_group_name_H-M   'P -1'
_symmetry_Int_Tables_number      2
_space_group_name_Hall           '-P 1'
loop_
_symmetry_equiv_pos_site_id
_symmetry_equiv_pos_as_xyz
1 x,y,z
2 -x,-y,-z
_cell_length_a                   9.143(2)
_cell_length_b                   9.1720(10)
_cell_length_c                   20.340(3)
_cell_angle_alpha                90.344(12)
_cell_angle_beta                 101.47(2)
_cell_angle_gamma                100.724(14)
_cell_volume                     1640.81
_cell_formula_units_Z            2
loop_
_atom_site_label
_atom_site_type_symbol
_atom_site_fract_x
_atom_site_fract_y
_atom_site_fract_z
Br1 Br 0.7157(1) 0.8557(1) 0.5542(1)
N1 N 0.1944(5) 0.7204(4) 0.5835(2)
N2 N 0.3333(4) 0.5499(4) 0.5863(2)
C1 C 0.3314(7) 0.6948(6) 0.5839(2)
C2 C 0.1865(5) 0.4769(5) 0.5876(2)
C3 C 0.1244(6) 0.3274(5) 0.5879(2)
C4 C -0.0288(6) 0.2916(6) 0.5874(2)
C5 C -0.1160(7) 0.4012(6) 0.5863(3)
C6 C -0.0561(6) 0.5488(6) 0.5854(2)
C7 C 0.0976(5) 0.5850(5) 0.5855(2)
C8 C 0.1527(8) 0.8691(6) 0.5828(4)
C9 C 0.1465(7) 0.9246(6) 0.6520(3)
C10 C 0.3003(8) 0.9665(8) 0.6982(4)
C11 C 0.2928(8) 1.0411(8) 0.7643(4)
C12 C 0.4407(9) 1.0769(8) 0.8145(4)
C13 C 0.4319(9) 1.1481(8) 0.8800(4)
C14 C 0.5768(9) 1.1788(8) 0.9320(4)
C15 C 0.5651(9) 1.2482(9) 0.9973(4)
C16 C 0.7097(9) 1.2771(8) 1.0496(4)
C17 C 0.7009(10) 1.3492(9) 1.1158(4)
C18 C 0.8438(11) 1.3831(10) 1.1677(5)
C19 C 0.8294(15) 1.4524(14) 1.2323(5)
C20 C 0.4674(6) 0.4807(7) 0.5930(3)
C21 C 0.5201(7) 0.4367(7) 0.6634(3)
C22 C 0.5906(7) 0.5678(7) 0.7123(3)
C23 C 0.6413(9) 0.5243(7) 0.7842(4)
C24 C 0.7166(8) 0.6551(7) 0.8318(3)
C25 C 0.7620(9) 0.6122(7) 0.9035(4)
C26 C 0.8443(8) 0.7434(8) 0.9512(4)
C27 C 0.8919(9) 0.7071(7) 1.0230(3)
C28 C 0.9774(8) 0.8375(7) 1.0702(3)
C29 C 1.0264(9) 0.8017(8) 1.1417(4)
C30 C 1.1131(10) 0.9299(9) 1.1885(4)
C31 C 1.1621(14) 0.8964(13) 1.2597(5)
H3 H 0.4116(41) 0.7615(39) 0.5839(19)
H4 H 0.1895(42) 0.2523(39) 0.5868(19)
H5 H -0.0680(49) 0.1853(49) 0.5931(22)
H6 H -0.2225(43) 0.3654(37) 0.5845(18)
H7 H -0.1147(48) 0.6253(46) 0.5857(22)
H8 H 0.0618(42) 0.8522(37) 0.5587(19)
H9 H 0.2320(51) 0.9468(49) 0.5615(22)
H10 H 0.0790(46) 0.8592(44) 0.6756(22)
H11 H 0.1010(42) 1.0202(44) 0.6469(19)
H12 H 0.3460(48) 0.8868(47) 0.7121(23)
H13 H 0.3794(60) 1.0288(53) 0.6777(27)
H14 H 0.2556(56) 1.1332(55) 0.7547(26)
H15 H 0.2253(54) 0.9721(50) 0.7858(25)
H16 H 0.4847(51) 0.9914(49) 0.8225(23)
H17 H 0.5112(55) 1.1357(50) 0.7910(25)
H18 H 0.3573(55) 1.0875(51) 0.9028(25)
H19 H 0.3842(60) 1.2362(57) 0.8724(27)
H20 H 0.6550(55) 1.2312(50) 0.9136(25)
H21 H 0.6115(54) 1.0873(52) 0.9406(25)
H22 H 0.4912(53) 1.1879(48) 1.0170(24)
H23 H 0.5246(65) 1.3419(62) 0.9879(29)
H24 H 0.7941(47) 1.3407(43) 1.0338(21)
H25 H 0.7364(64) 1.1831(60) 1.0590(29)
H26 H 0.6268(63) 1.2929(57) 1.1318(29)
H27 H 0.6525(58) 1.4387(56) 1.1051(26)
H28 H 0.8787(53) 1.2802(53) 1.1706(24)
H29 H 0.9236(75) 1.4216(72) 1.1508(35)
H30 H 0.9355(64) 1.4675(59) 1.2620(31)
H31 H 0.8049(76) 1.5414(63) 1.2299(35)
H32 H 0.7485(86) 1.3848(83) 1.2493(39)
H33 H 0.4376(34) 0.3922(35) 0.5653(16)
H34 H 0.5409(43) 0.5524(40) 0.5756(19)
H35 H 0.5865(45) 0.3650(43) 0.6629(19)
H36 H 0.4413(51) 0.3751(48) 0.6835(24)
H37 H 0.6774(52) 0.6291(47) 0.6907(24)
H38 H 0.5179(53) 0.6362(49) 0.7139(23)
H39 H 0.7122(50) 0.4552(46) 0.7830(22)
H40 H 0.5581(72) 0.4747(69) 0.7974(34)
H41 H 0.6458(52) 0.7292(49) 0.8265(24)
H42 H 0.8141(60) 0.7156(55) 0.8089(27)
H43 H 0.8325(52) 0.5328(50) 0.9044(22)
H44 H 0.6739(55) 0.5751(50) 0.9217(25)
H45 H 0.9270(47) 0.7865(43) 0.9320(21)
H46 H 0.7765(53) 0.8094(48) 0.9485(24)
H47 H 0.8024(57) 0.6604(53) 1.0370(26)
H48 H 0.9590(50) 0.6324(48) 1.0280(23)
H49 H 0.9089(46) 0.9226(45) 1.0667(21)
H50 H 1.0585(58) 0.8789(54) 1.0521(27)
H51 H 0.9316(60) 0.7557(54) 1.1541(27)
H52 H 1.0883(57) 0.7275(54) 1.1447(26)
H53 H 1.0527(55) 1.0045(52) 1.1833(25)
H54 H 1.1987(56) 0.9717(52) 1.1716(26)
H55 H 1.0722(76) 0.8505(74) 1.2755(36)
H56 H 1.2333(72) 0.8211(66) 1.2712(32)
H57 H 1.2235(71) 0.9796(62) 1.2912(34)
O1 O 0.4480(6) 0.8625(6) 0.4194(3)
H1 H 0.5283(73) 0.8601(61) 0.4668(35)
H2 H 0.4123(87) 0.9516(84) 0.4229(40)
loop_
_geom_bond_atom_site_label_1
_geom_bond_atom_site_label_2
_geom_bond_site_symmetry_1
_geom_bond_site_symmetry_2
N1 C1 1_555 1_555
O1 H1 1_555 1_555
N2 C1 1_555 1_555
C1 H3 1_555 1_555
C2 N2 1_555 1_555
C3 C2 1_555 1_555
C4 C3 1_555 1_555
C5 C4 1_555 1_555
C6 C5 1_555 1_555
C7 N1 1_555 1_555
C8 N1 1_555 1_555
C9 C8 1_555 1_555
C10 C9 1_555 1_555
C11 C10 1_555 1_555
C12 C11 1_555 1_555
C13 C12 1_555 1_555
C14 C13 1_555 1_555
C15 C14 1_555 1_555
C16 C15 1_555 1_555
C17 C16 1_555 1_555
C18 C17 1_555 1_555
C19 C18 1_555 1_555
C20 N2 1_555 1_555
C21 C20 1_555 1_555
C22 C21 1_555 1_555
C23 C22 1_555 1_555
C24 C23 1_555 1_555
C25 C24 1_555 1_555
C26 C25 1_555 1_555
C27 C26 1_555 1_555
C28 C27 1_555 1_555
C29 C28 1_555 1_555
C30 C29 1_555 1_555
C31 C30 1_555 1_555
H2 O1 1_555 1_555
H4 C3 1_555 1_555
H5 C4 1_555 1_555
H6 C5 1_555 1_555
H7 C6 1_555 1_555
H8 C8 1_555 1_555
H9 C8 1_555 1_555
H10 C9 1_555 1_555
H11 C9 1_555 1_555
H12 C10 1_555 1_555
H13 C10 1_555 1_555
H14 C11 1_555 1_555
H15 C11 1_555 1_555
H16 C12 1_555 1_555
H17 C12 1_555 1_555
H18 C13 1_555 1_555
H19 C13 1_555 1_555
H20 C14 1_555 1_555
H21 C14 1_555 1_555
H22 C15 1_555 1_555
H23 C15 1_555 1_555
H24 C16 1_555 1_555
H25 C16 1_555 1_555
H26 C17 1_555 1_555
H27 C17 1_555 1_555
H28 C18 1_555 1_555
H29 C18 1_555 1_555
H30 C19 1_555 1_555
H31 C19 1_555 1_555
H32 C19 1_555 1_555
H33 C20 1_555 1_555
H34 C20 1_555 1_555
H35 C21 1_555 1_555
H36 C21 1_555 1_555
H37 C22 1_555 1_555
H38 C22 1_555 1_555
H39 C23 1_555 1_555
H40 C23 1_555 1_555
H41 C24 1_555 1_555
H42 C24 1_555 1_555
H43 C25 1_555 1_555
H44 C25 1_555 1_555
H45 C26 1_555 1_555
H46 C26 1_555 1_555
H47 C27 1_555 1_555
H48 C27 1_555 1_555
H49 C28 1_555 1_555
H50 C28 1_555 1_555
H51 C29 1_555 1_555
H52 C29 1_555 1_555
H53 C30 1_555 1_555
H54 C30 1_555 1_555
H55 C31 1_555 1_555
H56 C31 1_555 1_555
H57 C31 1_555 1_555
C2 C7 1_555 1_555
C6 C7 1_555 1_555

#END
