
#######################################################################
#
#                 Cambridge Crystallographic Data Centre
#                                CCDC 
#
#######################################################################
#
# If this CIF has been generated from an entry in the Cambridge 
# Structural Database, then it will include bibliographic, chemical, 
# crystal, experimental, refinement or atomic coordinate data resulting 
# from the CCDC's data processing and validation procedures.
#
#######################################################################

data_RUFNIR
_chemical_formula_moiety         'C14 H12 O4'
_chemical_name_systematic        
7a,8,9,10a-tetrahydro-6H,7H-furo[3',2':5,6]pyrano[3,2-c]chromen-6-one
_symmetry_cell_setting           monoclinic
_symmetry_space_group_name_H-M   'P 21/c'
_symmetry_Int_Tables_number      14
_space_group_name_Hall           '-P 2ybc'
loop_
_symmetry_equiv_pos_site_id
_symmetry_equiv_pos_as_xyz
1 x,y,z
2 -x,1/2+y,1/2-z
3 -x,-y,-z
4 x,1/2-y,1/2+z
_cell_length_a                   10.4727(6)
_cell_length_b                   9.8328(6)
_cell_length_c                   11.2800(10)
_cell_angle_alpha                90
_cell_angle_beta                 109.310(8)
_cell_angle_gamma                90
_cell_volume                     1096.22
_exptl_crystal_colour            colorless
_exptl_crystal_description       block
_cell_formula_units_Z            4
loop_
_atom_site_label
_atom_site_type_symbol
_atom_site_fract_x
_atom_site_fract_y
_atom_site_fract_z
O1 O 0.55679(8) 0.43921(10) 0.29467(8)
O2 O 0.38365(8) 0.57781(9) 0.26413(8)
O3 O 0.23228(8) 0.34892(9) 0.49410(8)
O4 O 0.21009(9) 0.14391(9) 0.57927(8)
C1 C 0.45332(11) 0.46178(13) 0.31747(11)
C2 C 0.40029(11) 0.37757(13) 0.39494(10)
C3 C 0.28879(11) 0.41844(12) 0.42124(11)
C4 C 0.21883(11) 0.54302(13) 0.36840(11)
C5 C 0.10650(12) 0.59410(13) 0.39536(12)
H1 H 0.0730 0.5470 0.4525
C6 C 0.04420(12) 0.71245(14) 0.33929(13)
H2 H -0.0316 0.7469 0.3582
C7 C 0.09268(13) 0.78123(14) 0.25500(13)
H3 H 0.0477 0.8610 0.2147
C8 C 0.20559(12) 0.73496(13) 0.22911(12)
H4 H 0.2397 0.7831 0.1730
C9 C 0.26749(11) 0.61666(13) 0.28707(11)
C10 C 0.47193(12) 0.24655(13) 0.44400(11)
H5 H 0.5589 0.2664 0.5107
H6 H 0.4920 0.1982 0.3752
C11 C 0.38588(12) 0.15632(13) 0.49667(11)
H7 H 0.4463 0.0890 0.5554
C12 C 0.30675(12) 0.23303(13) 0.56658(11)
H8 H 0.3680 0.2634 0.6508
C13 C 0.27036(12) 0.07892(13) 0.40049(12)
H9 H 0.2255 0.1357 0.3259
H10 H 0.3034 -0.0060 0.3733
C14 C 0.17499(13) 0.04859(14) 0.47456(12)
H11 H 0.0796 0.0612 0.4208
H12 H 0.1870 -0.0462 0.5058
loop_
_geom_bond_atom_site_label_1
_geom_bond_atom_site_label_2
_geom_bond_site_symmetry_1
_geom_bond_site_symmetry_2
O1 C1 1_555 1_555
O2 C1 1_555 1_555
O3 C3 1_555 1_555
O4 C12 1_555 1_555
C1 C2 1_555 1_555
C2 C3 1_555 1_555
C3 C4 1_555 1_555
C4 C5 1_555 1_555
C5 H1 1_555 1_555
C6 C5 1_555 1_555
H2 C6 1_555 1_555
C7 C6 1_555 1_555
H3 C7 1_555 1_555
C8 C7 1_555 1_555
H4 C8 1_555 1_555
C9 O2 1_555 1_555
C10 C2 1_555 1_555
H5 C10 1_555 1_555
H6 C10 1_555 1_555
C11 C10 1_555 1_555
H7 C11 1_555 1_555
C12 O3 1_555 1_555
H8 C12 1_555 1_555
C13 C11 1_555 1_555
H9 C13 1_555 1_555
H10 C13 1_555 1_555
C14 O4 1_555 1_555
H11 C14 1_555 1_555
H12 C14 1_555 1_555
C4 C9 1_555 1_555
C8 C9 1_555 1_555
C11 C12 1_555 1_555
C13 C14 1_555 1_555

#END
