
#######################################################################
#
#                 Cambridge Crystallographic Data Centre
#                                CCDC 
#
#######################################################################
#
# If this CIF has been generated from an entry in the Cambridge 
# Structural Database, then it will include bibliographic, chemical, 
# crystal, experimental, refinement or atomic coordinate data resulting 
# from the CCDC's data processing and validation procedures.
#
#######################################################################

data_RUFPUE
_chemical_formula_moiety         'C11 H16 N2 O4 Si1'
_chemical_name_systematic        1-(2-Pyridyloxy)silatrane
_symmetry_cell_setting           orthorhombic
_symmetry_space_group_name_H-M   'P n a 21'
_symmetry_Int_Tables_number      33
_space_group_name_Hall           'P 2c -2n'
loop_
_symmetry_equiv_pos_site_id
_symmetry_equiv_pos_as_xyz
1 x,y,z
2 -x,-y,1/2+z
3 1/2+x,1/2-y,z
4 1/2-x,1/2+y,1/2+z
_cell_length_a                   13.5772(8)
_cell_length_b                   8.7842(5)
_cell_length_c                   10.2334(6)
_cell_angle_alpha                90
_cell_angle_beta                 90
_cell_angle_gamma                90
_cell_volume                     1220.48
_exptl_crystal_colour            colorless
_exptl_crystal_description       prism
_chemical_melting_point          '196 deg.C'
_cell_formula_units_Z            4
_exptl_crystal_recrystallization_method 'anhydrous chloroform'
loop_
_atom_site_label
_atom_site_type_symbol
_atom_site_fract_x
_atom_site_fract_y
_atom_site_fract_z
Si1 Si -0.19917(2) -0.11675(4) -0.54499(4)
O1 O -0.09739(6) -0.22163(10) -0.54889(12)
C1 C -0.06068(8) 0.11486(13) -0.54534(17)
O2 O -0.27208(8) -0.10504(12) -0.67468(11)
O3 O -0.24059(7) -0.05962(11) -0.40097(10)
O4 O -0.14366(7) 0.04886(11) -0.58832(10)
N1 N -0.27183(8) -0.32006(13) -0.50656(11)
C2 C -0.10209(10) -0.38272(15) -0.5423(2)
H1 H -0.0429 -0.4227 -0.4974
H2 H -0.1040 -0.4259 -0.6316
C3 C -0.01886(10) 0.08114(15) -0.42368(14)
H3 H -0.0474 0.0063 -0.3684
C4 C -0.34077(11) -0.28518(17) -0.39895(15)
H4 H -0.3537 -0.3773 -0.3460
H5 H -0.4041 -0.2471 -0.4339
C5 C -0.19453(11) -0.42929(16) -0.46735(18)
H6 H -0.2141 -0.5345 -0.4903
H7 H -0.1829 -0.4240 -0.3720
N2 N -0.02273(9) 0.21797(14) -0.62699(13)
C6 C -0.34918(11) -0.21146(18) -0.69455(16)
H8 H -0.3598 -0.2272 -0.7893
H9 H -0.4111 -0.1722 -0.6561
C7 C 0.05950(11) 0.29082(17) -0.58775(17)
H10 H 0.0875 0.3636 -0.6454
C8 C -0.32128(11) -0.36108(17) -0.63014(15)
H11 H -0.3807 -0.4231 -0.6127
H12 H -0.2763 -0.4200 -0.6871
C9 C -0.29063(13) -0.16348(19) -0.31676(16)
H13 H -0.3404 -0.1083 -0.2642
H14 H -0.2430 -0.2114 -0.2562
C10 C 0.10554(11) 0.26693(17) -0.47006(18)
H15 H 0.1632 0.3219 -0.4468
C11 C 0.06482(11) 0.15923(17) -0.38586(16)
H16 H 0.0943 0.1397 -0.3033
loop_
_geom_bond_atom_site_label_1
_geom_bond_atom_site_label_2
_geom_bond_site_symmetry_1
_geom_bond_site_symmetry_2
Si1 O1 1_555 1_555
O1 C2 1_555 1_555
C1 O4 1_555 1_555
O2 Si1 1_555 1_555
O3 Si1 1_555 1_555
O4 Si1 1_555 1_555
N1 Si1 1_555 1_555
C2 H1 1_555 1_555
H2 C2 1_555 1_555
C3 C1 1_555 1_555
H3 C3 1_555 1_555
C4 N1 1_555 1_555
H4 C4 1_555 1_555
H5 C4 1_555 1_555
C5 N1 1_555 1_555
H6 C5 1_555 1_555
H7 C5 1_555 1_555
N2 C1 1_555 1_555
C6 O2 1_555 1_555
H8 C6 1_555 1_555
H9 C6 1_555 1_555
C7 N2 1_555 1_555
H10 C7 1_555 1_555
C8 N1 1_555 1_555
H11 C8 1_555 1_555
H12 C8 1_555 1_555
C9 O3 1_555 1_555
H13 C9 1_555 1_555
H14 C9 1_555 1_555
C10 C7 1_555 1_555
H15 C10 1_555 1_555
C11 C3 1_555 1_555
H16 C11 1_555 1_555
C2 C5 1_555 1_555
C4 C9 1_555 1_555
C6 C8 1_555 1_555
C10 C11 1_555 1_555

#END
