
#######################################################################
#
#                 Cambridge Crystallographic Data Centre
#                                CCDC 
#
#######################################################################
#
# If this CIF has been generated from an entry in the Cambridge 
# Structural Database, then it will include bibliographic, chemical, 
# crystal, experimental, refinement or atomic coordinate data resulting 
# from the CCDC's data processing and validation procedures.
#
#######################################################################

data_RUGSUJ
_chemical_formula_moiety         'C23 H16 Cl1 N1 O1'
_chemical_name_systematic        
2-(4-chlorophenyl)-1-phenyl-2-(quinolin-8-yl)ethanone
_symmetry_cell_setting           orthorhombic
_symmetry_space_group_name_H-M   'P c a b'
_symmetry_Int_Tables_number      61
_space_group_name_Hall           '-P 2bc 2ac'
loop_
_symmetry_equiv_pos_site_id
_symmetry_equiv_pos_as_xyz
1 x,y,z
2 -x,1/2-y,1/2+z
3 1/2+x,-y,1/2-z
4 1/2-x,1/2+y,-z
5 -x,-y,-z
6 x,1/2+y,1/2-z
7 1/2-x,y,1/2+z
8 1/2+x,1/2-y,z
_cell_length_a                   10.5459(7)
_cell_length_b                   11.3676(6)
_cell_length_c                   30.1880(18)
_cell_angle_alpha                90
_cell_angle_beta                 90
_cell_angle_gamma                90
_cell_volume                     3618.98
_exptl_crystal_colour            white
_exptl_crystal_description       platy
_cell_formula_units_Z            8
loop_
_atom_site_label
_atom_site_type_symbol
_atom_site_fract_x
_atom_site_fract_y
_atom_site_fract_z
Cl1 Cl 0.56201(11) 0.76829(9) 0.32973(3)
C1 C 0.5215(4) 0.6302(3) 0.34987(11)
C2 C 0.6140(3) 0.5461(3) 0.35599(11)
H1 H 0.6981 0.5626 0.3492
C3 C 0.5801(3) 0.4360(3) 0.37252(12)
H2 H 0.6423 0.3794 0.3773
C4 C 0.4546(3) 0.4099(3) 0.38193(11)
C5 C 0.3634(3) 0.4958(3) 0.37546(10)
H3 H 0.2789 0.4793 0.3817
C6 C 0.3968(4) 0.6061(3) 0.35970(11)
H4 H 0.3351 0.6637 0.3558
C7 C 0.4168(3) 0.2885(3) 0.39997(10)
H5 H 0.3249 0.2807 0.3960
C8 C 0.4444(3) 0.2698(3) 0.44889(11)
C9 C 0.3949(3) 0.1656(3) 0.46885(11)
N1 N 0.3343(2) 0.0865(2) 0.44233(9)
C10 C 0.2920(3) -0.0107(3) 0.46149(12)
H6 H 0.2491 -0.0647 0.4439
C11 C 0.3076(3) -0.0377(3) 0.50638(13)
H7 H 0.2777 -0.1086 0.5177
C12 C 0.3669(3) 0.0409(3) 0.53324(13)
H8 H 0.3773 0.0249 0.5632
C13 C 0.4129(3) 0.1477(3) 0.51504(11)
C14 C 0.4801(4) 0.2316(3) 0.54000(12)
H9 H 0.4914 0.2201 0.5702
C15 C 0.5286(3) 0.3289(3) 0.52039(11)
H10 H 0.5736 0.3835 0.5371
C16 C 0.5105(3) 0.3474(3) 0.47454(11)
H11 H 0.5447 0.4144 0.4615
C17 C 0.4794(3) 0.1944(3) 0.37107(11)
O1 O 0.5810(2) 0.1518(2) 0.38205(8)
C18 C 0.4173(3) 0.1597(3) 0.32873(11)
C19 C 0.3126(3) 0.2182(3) 0.31119(12)
H12 H 0.2802 0.2837 0.3258
C20 C 0.2559(4) 0.1799(4) 0.27220(13)
H13 H 0.1860 0.2195 0.2607
C21 C 0.3040(5) 0.0832(4) 0.25079(14)
H14 H 0.2650 0.0562 0.2251
C22 C 0.4088(5) 0.0258(4) 0.26669(16)
H15 H 0.4414 -0.0388 0.2516
C23 C 0.4660(4) 0.0643(4) 0.30550(14)
H16 H 0.5377 0.0259 0.3161
loop_
_geom_bond_atom_site_label_1
_geom_bond_atom_site_label_2
_geom_bond_site_symmetry_1
_geom_bond_site_symmetry_2
Cl1 C1 1_555 1_555
C1 C2 1_555 1_555
C2 H1 1_555 1_555
C3 C2 1_555 1_555
H2 C3 1_555 1_555
C4 C3 1_555 1_555
C5 C4 1_555 1_555
H3 C5 1_555 1_555
C6 C1 1_555 1_555
H4 C6 1_555 1_555
C7 C4 1_555 1_555
H5 C7 1_555 1_555
C8 C7 1_555 1_555
C9 C8 1_555 1_555
N1 C9 1_555 1_555
C10 N1 1_555 1_555
H6 C10 1_555 1_555
C11 C10 1_555 1_555
H7 C11 1_555 1_555
C12 C11 1_555 1_555
H8 C12 1_555 1_555
C13 C9 1_555 1_555
C14 C13 1_555 1_555
H9 C14 1_555 1_555
C15 C14 1_555 1_555
H10 C15 1_555 1_555
C16 C8 1_555 1_555
H11 C16 1_555 1_555
C17 C7 1_555 1_555
O1 C17 1_555 1_555
C18 C17 1_555 1_555
C19 C18 1_555 1_555
H12 C19 1_555 1_555
C20 C19 1_555 1_555
H13 C20 1_555 1_555
C21 C20 1_555 1_555
H14 C21 1_555 1_555
C22 C21 1_555 1_555
H15 C22 1_555 1_555
C23 C18 1_555 1_555
H16 C23 1_555 1_555
C5 C6 1_555 1_555
C12 C13 1_555 1_555
C15 C16 1_555 1_555
C22 C23 1_555 1_555

#END
