
#######################################################################
#
#                 Cambridge Crystallographic Data Centre
#                                CCDC 
#
#######################################################################
#
# If this CIF has been generated from an entry in the Cambridge 
# Structural Database, then it will include bibliographic, chemical, 
# crystal, experimental, refinement or atomic coordinate data resulting 
# from the CCDC's data processing and validation procedures.
#
#######################################################################

data_RUGTAQ
_chemical_formula_moiety         'C23 H17 N1 O1'
_chemical_name_systematic        1,2-diphenyl-2-(quinolin-8-yl)ethanone
_symmetry_cell_setting           monoclinic
_symmetry_space_group_name_H-M   'P 21/c'
_symmetry_Int_Tables_number      14
_space_group_name_Hall           '-P 2ybc'
loop_
_symmetry_equiv_pos_site_id
_symmetry_equiv_pos_as_xyz
1 x,y,z
2 -x,1/2+y,1/2-z
3 -x,-y,-z
4 x,1/2-y,1/2+z
_cell_length_a                   14.4871(17)
_cell_length_b                   10.6354(12)
_cell_length_c                   11.1892(13)
_cell_angle_alpha                90
_cell_angle_beta                 96.788(2)
_cell_angle_gamma                90
_cell_volume                     1711.9
_exptl_crystal_colour            colorless
_exptl_crystal_description       Plate
_cell_formula_units_Z            4
loop_
_atom_site_label
_atom_site_type_symbol
_atom_site_fract_x
_atom_site_fract_y
_atom_site_fract_z
C1 C 0.66077(17) 0.2249(2) 0.6663(2)
C2 C 0.66689(18) 0.3315(2) 0.5986(2)
H1 H 0.7227 0.3793 0.6089
C3 C 0.5935(2) 0.3720(3) 0.5148(2)
H2 H 0.6002 0.4463 0.4694
C4 C 0.5126(2) 0.3057(3) 0.4980(2)
H3 H 0.4634 0.3334 0.4403
C5 C 0.50142(18) 0.1955(2) 0.5663(2)
C6 C 0.4198(2) 0.1216(3) 0.5534(3)
H4 H 0.3679 0.1453 0.4979
C7 C 0.4165(2) 0.0165(3) 0.6211(3)
H5 H 0.3622 -0.0342 0.6138
C8 C 0.4932(2) -0.0165(3) 0.7013(2)
H6 H 0.4890 -0.0907 0.7476
N1 N 0.57156(15) 0.04815(19) 0.71782(18)
C9 C 0.57586(17) 0.1554(2) 0.6503(2)
C10 C 0.73757(16) 0.1758(2) 0.7573(2)
H7 H 0.7124 0.1708 0.8366
C11 C 0.82359(17) 0.2592(2) 0.7741(2)
C12 C 0.83430(18) 0.3444(2) 0.8690(2)
H8 H 0.7890 0.3481 0.9238
C13 C 0.9104(2) 0.4239(2) 0.8841(3)
H9 H 0.9170 0.4820 0.9490
C14 C 0.9764(2) 0.4190(3) 0.8056(3)
H10 H 1.0285 0.4739 0.8162
C15 C 0.96725(19) 0.3348(3) 0.7116(3)
H11 H 1.0132 0.3310 0.6577
C16 C 0.89095(18) 0.2557(2) 0.6957(2)
H12 H 0.8846 0.1982 0.6302
C17 C 0.76421(17) 0.0422(2) 0.7234(2)
O1 O 0.76598(12) 0.01273(15) 0.61827(15)
C18 C 0.79026(17) -0.0499(2) 0.8221(2)
C19 C 0.8318(2) -0.0151(3) 0.9350(2)
H13 H 0.8430 0.0713 0.9529
C20 C 0.8570(2) -0.1048(3) 1.0219(3)
H14 H 0.8860 -0.0800 1.0989
C21 C 0.8404(2) -0.2300(3) 0.9975(3)
H15 H 0.8581 -0.2916 1.0573
C22 C 0.7980(2) -0.2658(3) 0.8861(3)
H16 H 0.7857 -0.3522 0.8697
C23 C 0.77334(18) -0.1770(2) 0.7980(3)
H17 H 0.7448 -0.2025 0.7210
loop_
_geom_bond_atom_site_label_1
_geom_bond_atom_site_label_2
_geom_bond_site_symmetry_1
_geom_bond_site_symmetry_2
C1 C2 1_555 1_555
C2 H1 1_555 1_555
C3 C2 1_555 1_555
H2 C3 1_555 1_555
C4 C3 1_555 1_555
H3 C4 1_555 1_555
C5 C4 1_555 1_555
C6 C5 1_555 1_555
H4 C6 1_555 1_555
C7 C6 1_555 1_555
H5 C7 1_555 1_555
C8 C7 1_555 1_555
H6 C8 1_555 1_555
N1 C8 1_555 1_555
C9 C1 1_555 1_555
C10 C1 1_555 1_555
H7 C10 1_555 1_555
C11 C10 1_555 1_555
C12 C11 1_555 1_555
H8 C12 1_555 1_555
C13 C12 1_555 1_555
H9 C13 1_555 1_555
C14 C13 1_555 1_555
H10 C14 1_555 1_555
C15 C14 1_555 1_555
H11 C15 1_555 1_555
C16 C11 1_555 1_555
H12 C16 1_555 1_555
C17 C10 1_555 1_555
O1 C17 1_555 1_555
C18 C17 1_555 1_555
C19 C18 1_555 1_555
H13 C19 1_555 1_555
C20 C19 1_555 1_555
H14 C20 1_555 1_555
C21 C20 1_555 1_555
H15 C21 1_555 1_555
C22 C21 1_555 1_555
H16 C22 1_555 1_555
C23 C18 1_555 1_555
H17 C23 1_555 1_555
C5 C9 1_555 1_555
N1 C9 1_555 1_555
C15 C16 1_555 1_555
C22 C23 1_555 1_555

#END
