
#######################################################################
#
#                 Cambridge Crystallographic Data Centre
#                                CCDC 
#
#######################################################################
#
# If this CIF has been generated from an entry in the Cambridge 
# Structural Database, then it will include bibliographic, chemical, 
# crystal, experimental, refinement or atomic coordinate data resulting 
# from the CCDC's data processing and validation procedures.
#
#######################################################################

data_RUHBED
_chemical_formula_moiety         'C22 H19 N1 O3 S1'
_chemical_name_systematic        
3-Benzyl-3-((4-methylphenyl)sulfonyl)-1,3-dihydro-2H-indol-2-one
_symmetry_cell_setting           monoclinic
_symmetry_space_group_name_H-M   'P 21/a'
_symmetry_Int_Tables_number      14
_space_group_name_Hall           '-P 2yab'
loop_
_symmetry_equiv_pos_site_id
_symmetry_equiv_pos_as_xyz
1 x,y,z
2 1/2-x,1/2+y,-z
3 -x,-y,-z
4 1/2+x,1/2-y,z
_cell_length_a                   8.5949(4)
_cell_length_b                   12.6279(6)
_cell_length_c                   17.9523(10)
_cell_angle_alpha                90
_cell_angle_beta                 95.417(5)
_cell_angle_gamma                90
_cell_volume                     1939.76
_cell_formula_units_Z            4
loop_
_atom_site_label
_atom_site_type_symbol
_atom_site_fract_x
_atom_site_fract_y
_atom_site_fract_z
S1 S 1.01191(9) 0.45553(7) 0.30612(5)
O1 O 0.8845(3) 0.27258(18) 0.18634(15)
N1 N 0.6572(3) 0.3536(2) 0.21227(15)
H1 H 0.5957 0.2998 0.2070
O2 O 1.1282(3) 0.3766(2) 0.29568(16)
O3 O 1.0615(3) 0.5622(2) 0.32275(16)
C1 C 0.8112(3) 0.3494(2) 0.20403(18)
C2 C 0.6087(3) 0.4553(2) 0.23036(17)
C3 C 0.7357(3) 0.5236(2) 0.23537(18)
C4 C 0.8972(4) 0.4133(3) 0.37678(19)
C5 C 0.8792(3) 0.4617(2) 0.22088(18)
C6 C 0.9762(4) 0.5018(3) 0.1588(2)
H2 H 1.0381 0.5621 0.1775
H3 H 1.0478 0.4465 0.1466
C7 C 0.8638(5) 0.3068(3) 0.3842(2)
H4 H 0.8996 0.2572 0.3516
C8 C 0.4423(4) 0.5952(3) 0.2582(2)
H5 H 0.3433 0.6203 0.2658
C9 C 0.8786(4) 0.5335(3) 0.0897(2)
C10 C 0.7148(4) 0.6290(3) 0.2522(2)
H6 H 0.7990 0.6756 0.2557
C11 C 0.4611(4) 0.4895(3) 0.2416(2)
H7 H 0.3768 0.4431 0.2380
C12 C 0.6919(9) 0.5945(5) -0.0390(4)
H8 H 0.6246 0.6158 -0.0799
C13 C 0.8547(9) 0.6392(3) 0.0706(3)
H9 H 0.8984 0.6921 0.1020
C14 C 0.7767(5) 0.2760(3) 0.4406(2)
H10 H 0.7525 0.2046 0.4450
C15 C 0.5669(4) 0.6641(3) 0.2638(3)
H11 H 0.5514 0.7349 0.2756
C16 C 0.7237(5) 0.3466(4) 0.4908(2)
C17 C 0.8429(6) 0.4861(3) 0.4243(2)
H12 H 0.8631 0.5579 0.4186
C18 C 0.7567(6) 0.4511(4) 0.4816(3)
H13 H 0.7207 0.5004 0.5144
C19 C 0.6334(7) 0.3113(5) 0.5543(3)
H14 H 0.5642 0.2546 0.5376
H15 H 0.5736 0.3696 0.5707
H16 H 0.7049 0.2871 0.5951
C20 C 0.8080(6) 0.4593(4) 0.0404(2)
H17 H 0.8237 0.3878 0.0510
C21 C 0.7147(7) 0.4874(5) -0.0240(3)
H18 H 0.6690 0.4361 -0.0561
C22 C 0.7656(10) 0.6659(7) 0.0047(4)
H19 H 0.7577 0.7368 -0.0092
loop_
_geom_bond_atom_site_label_1
_geom_bond_atom_site_label_2
_geom_bond_site_symmetry_1
_geom_bond_site_symmetry_2
S1 O2 1_555 1_555
O1 C1 1_555 1_555
N1 H1 1_555 1_555
O3 S1 1_555 1_555
C1 N1 1_555 1_555
C2 N1 1_555 1_555
C3 C2 1_555 1_555
C4 S1 1_555 1_555
C5 S1 1_555 1_555
C6 C5 1_555 1_555
H2 C6 1_555 1_555
H3 C6 1_555 1_555
C7 C4 1_555 1_555
H4 C7 1_555 1_555
C8 H5 1_555 1_555
C9 C6 1_555 1_555
C10 C3 1_555 1_555
H6 C10 1_555 1_555
C11 C2 1_555 1_555
H7 C11 1_555 1_555
C12 H8 1_555 1_555
C13 C9 1_555 1_555
H9 C13 1_555 1_555
C14 C7 1_555 1_555
H10 C14 1_555 1_555
C15 C8 1_555 1_555
H11 C15 1_555 1_555
C16 C14 1_555 1_555
C17 C4 1_555 1_555
H12 C17 1_555 1_555
C18 C16 1_555 1_555
H13 C18 1_555 1_555
C19 C16 1_555 1_555
H14 C19 1_555 1_555
H15 C19 1_555 1_555
H16 C19 1_555 1_555
C20 C9 1_555 1_555
H17 C20 1_555 1_555
C21 C12 1_555 1_555
H18 C21 1_555 1_555
C22 C12 1_555 1_555
H19 C22 1_555 1_555
C1 C5 1_555 1_555
C3 C5 1_555 1_555
C8 C11 1_555 1_555
C10 C15 1_555 1_555
C13 C22 1_555 1_555
C17 C18 1_555 1_555
C20 C21 1_555 1_555

#END
