
#######################################################################
#
#                 Cambridge Crystallographic Data Centre
#                                CCDC 
#
#######################################################################
#
# If this CIF has been generated from an entry in the Cambridge 
# Structural Database, then it will include bibliographic, chemical, 
# crystal, experimental, refinement or atomic coordinate data resulting 
# from the CCDC's data processing and validation procedures.
#
#######################################################################

data_RUHDAZ
_chemical_name_common            
'6,10-Diethyl(1,2,3)trithiolo(h)benzopentathiepin 7-oxide'
_chemical_formula_moiety         'C10 H10 O1 S8'
_chemical_name_systematic        
'anti-6,10-diethyl[1,2,3]trithiolo[4,5-h]benzopentathiepin 7-oxide'
_symmetry_cell_setting           orthorhombic
_symmetry_space_group_name_H-M   'P b c a'
_symmetry_Int_Tables_number      61
_space_group_name_Hall           '-P 2ac 2ab'
loop_
_symmetry_equiv_pos_site_id
_symmetry_equiv_pos_as_xyz
1 x,y,z
2 1/2-x,-y,1/2+z
3 1/2+x,1/2-y,-z
4 -x,1/2+y,1/2-z
5 -x,-y,-z
6 1/2+x,y,1/2-z
7 1/2-x,1/2+y,z
8 x,1/2-y,1/2+z
_cell_length_a                   18.827(4)
_cell_length_b                   18.504(4)
_cell_length_c                   8.984(4)
_cell_angle_alpha                90
_cell_angle_beta                 90
_cell_angle_gamma                90
_cell_volume                     3129.8
_exptl_crystal_colour            yellow
_exptl_crystal_description       plate
_chemical_melting_point          133.0-134.5deg.C(dec.)
_cell_formula_units_Z            8
_exptl_crystal_recrystallization_method hexane/dichloromethane
loop_
_atom_site_label
_atom_site_type_symbol
_atom_site_fract_x
_atom_site_fract_y
_atom_site_fract_z
S1 S 0.85423(8) 0.12811(9) -0.1060(2)
S2 S 0.92859(8) 0.12445(10) 0.0583(2)
S3 S 0.92894(9) 0.01777(10) 0.1229(2)
S4 S 0.83426(8) 0.00711(8) 0.2337(2)
S5 S 0.75902(8) 0.00899(8) 0.0703(2)
S6 S 0.56180(8) 0.21848(9) 0.1888(2)
S7 S 0.59421(9) 0.32536(9) 0.2316(2)
S8 S 0.66190(9) 0.33458(8) 0.0530(2)
O1 O 0.5166(2) 0.2118(3) 0.0545(6)
C1 C 0.7746(3) 0.1529(3) -0.0115(5)
C2 C 0.7531(3) 0.2254(3) -0.0201(5)
C3 C 0.6906(3) 0.2443(3) 0.0538(6)
C4 C 0.6490(3) 0.1929(3) 0.1263(6)
C5 C 0.6688(3) 0.1206(3) 0.1331(6)
C6 C 0.7329(3) 0.1020(3) 0.0660(5)
C7 C 0.7956(3) 0.2832(3) -0.1002(6)
C8 C 0.8482(4) 0.3205(4) 0.0006(8)
C9 C 0.6221(3) 0.0644(3) 0.2093(6)
C10 C 0.5770(4) 0.0228(4) 0.1002(8)
H1 H 0.819(3) 0.265(3) -0.189(6)
H2 H 0.760(3) 0.322(3) -0.150(5)
H3 H 0.881(3) 0.295(3) 0.048(7)
H4 H 0.877(3) 0.351(3) -0.045(7)
H5 H 0.822(3) 0.343(3) 0.094(7)
H6 H 0.657(3) 0.027(3) 0.267(6)
H7 H 0.598(3) 0.089(3) 0.282(6)
H8 H 0.548(3) 0.054(3) 0.053(7)
H9 H 0.603(3) -0.005(3) 0.038(7)
H10 H 0.541(3) -0.007(3) 0.152(6)
loop_
_geom_bond_atom_site_label_1
_geom_bond_atom_site_label_2
_geom_bond_site_symmetry_1
_geom_bond_site_symmetry_2
S1 S2 1_555 1_555
S2 S3 1_555 1_555
S3 S4 1_555 1_555
S4 S5 1_555 1_555
S5 C6 1_555 1_555
S6 S7 1_555 1_555
S7 S8 1_555 1_555
S8 C3 1_555 1_555
O1 S6 1_555 1_555
C1 S1 1_555 1_555
C2 C1 1_555 1_555
C3 C2 1_555 1_555
C4 S6 1_555 1_555
C5 C4 1_555 1_555
C6 C1 1_555 1_555
C7 C2 1_555 1_555
C8 C7 1_555 1_555
C9 C5 1_555 1_555
C10 C9 1_555 1_555
H1 C7 1_555 1_555
H2 C7 1_555 1_555
H3 C8 1_555 1_555
H4 C8 1_555 1_555
H5 C8 1_555 1_555
H6 C9 1_555 1_555
H7 C9 1_555 1_555
H8 C10 1_555 1_555
H9 C10 1_555 1_555
H10 C10 1_555 1_555
C3 C4 1_555 1_555
C5 C6 1_555 1_555

#END
