
#######################################################################
#
#                 Cambridge Crystallographic Data Centre
#                                CCDC 
#
#######################################################################
#
# If this CIF has been generated from an entry in the Cambridge 
# Structural Database, then it will include bibliographic, chemical, 
# crystal, experimental, refinement or atomic coordinate data resulting 
# from the CCDC's data processing and validation procedures.
#
#######################################################################

data_RUJHOU
_chemical_formula_moiety         'C16 H12 N2 O8,2(C3 H7 N1 O1)'
_chemical_name_systematic        
"3,3'-(1,3,5,7-Tetraoxo-2,3,6,7-tetrahydro-1H,5H-pyrrolo[3,4-f]isoindole-2,6-diyl)dipropanoic acid N,N-dimethylformamide solvate"
_symmetry_cell_setting           monoclinic
_symmetry_space_group_name_H-M   'P 21/c'
_symmetry_Int_Tables_number      14
_space_group_name_Hall           '-P 2ybc'
loop_
_symmetry_equiv_pos_site_id
_symmetry_equiv_pos_as_xyz
1 x,y,z
2 -x,1/2+y,1/2-z
3 -x,-y,-z
4 x,1/2-y,1/2+z
_cell_length_a                   12.542(8)
_cell_length_b                   8.611(6)
_cell_length_c                   12.902(9)
_cell_angle_alpha                90
_cell_angle_beta                 118.774(8)
_cell_angle_gamma                90
_cell_volume                     1221.35
_exptl_crystal_colour            colorless
_exptl_crystal_description       slab
_cell_formula_units_Z            2
_exptl_crystal_recrystallization_method dmf/water
loop_
_atom_site_label
_atom_site_type_symbol
_atom_site_fract_x
_atom_site_fract_y
_atom_site_fract_z
O1 O 0.2286(2) 0.3041(3) -0.14930(17)
O2 O 0.3228(2) 0.5093(3) -0.16182(17)
H1 H 0.2861 0.4876 -0.2324
O3 O 0.22033(16) 0.5402(2) 0.20189(14)
O4 O 0.55406(18) 0.2430(2) 0.29251(15)
C1 C 0.2949(2) 0.4100(3) -0.1032(2)
C2 C 0.3578(3) 0.4407(4) 0.0263(2)
H2 H 0.3407 0.5465 0.0395
H3 H 0.4449 0.4321 0.0564
C3 C 0.3212(3) 0.3327(3) 0.09466(19)
H4 H 0.2332 0.3320 0.0597
H5 H 0.3475 0.2281 0.0903
C4 C 0.3193(2) 0.4830(3) 0.26018(19)
C5 C 0.4876(2) 0.3319(3) 0.30588(19)
C6 C 0.5071(2) 0.4122(3) 0.41634(19)
C7 C 0.6041(2) 0.4039(3) 0.5291(2)
H6 H 0.6714 0.3412 0.5482
C8 C 0.5939(2) 0.4955(3) 0.61186(18)
N1 N 0.37472(18) 0.3802(2) 0.21817(16)
O1B O 0.7714(2) 0.6959(3) 1.14930(17)
O2B O 0.6772(2) 0.4907(3) 1.16182(17)
H1B H 0.7139 0.5124 1.2324
O3B O 0.77967(16) 0.4598(2) 0.79811(14)
O4B O 0.44594(18) 0.7570(2) 0.70749(15)
C1B C 0.7051(2) 0.5900(3) 1.1032(2)
C2B C 0.6422(3) 0.5593(4) 0.9737(2)
H2B H 0.6593 0.4535 0.9605
H3B H 0.5551 0.5679 0.9436
C3B C 0.6788(3) 0.6673(3) 0.90534(19)
H4B H 0.7668 0.6680 0.9403
H5B H 0.6525 0.7719 0.9097
C4B C 0.6807(2) 0.5170(3) 0.73982(19)
C5B C 0.5124(2) 0.6681(3) 0.69412(19)
C6B C 0.4929(2) 0.5878(3) 0.58366(19)
C7B C 0.3959(2) 0.5961(3) 0.4709(2)
H6B H 0.3286 0.6588 0.4518
C8B C 0.4061(2) 0.5045(3) 0.38814(18)
N1B N 0.62528(18) 0.6198(2) 0.78183(16)
O5 O 0.2066(2) 1.0088(2) 1.11020(15)
C9 C 0.1607(3) 0.8835(4) 1.0674(2)
H7 H 0.170(3) 0.794(4) 1.119(3)
C10 C 0.0679(3) 0.9775(4) 0.8676(3)
H8 H 0.1090 1.0710 0.9071
H9 H -0.0182 0.9958 0.8254
H10 H 0.0955 0.9462 0.8131
C11 C 0.0398(4) 0.7052(5) 0.9101(4)
H11 H 0.0643 0.6347 0.9753
H12 H 0.0663 0.6662 0.8566
H13 H -0.0472 0.7148 0.8695
N2 N 0.0942(2) 0.8560(3) 0.95392(19)
loop_
_geom_bond_atom_site_label_1
_geom_bond_atom_site_label_2
_geom_bond_site_symmetry_1
_geom_bond_site_symmetry_2
O1 C1 1_555 1_555
O2 H1 1_555 1_555
O3 C4 1_555 1_555
O4 C5 1_555 1_555
O5 C9 1_555 1_555
C1 O2 1_555 1_555
C2 C1 1_555 1_555
H2 C2 1_555 1_555
H3 C2 1_555 1_555
C3 C2 1_555 1_555
H4 C3 1_555 1_555
H5 C3 1_555 1_555
C4 N1 1_555 1_555
C5 C6 1_555 1_555
C6 C7 1_555 1_555
C7 H6 1_555 1_555
C8 C7 1_555 1_555
C9 H7 1_555 1_555
C10 H8 1_555 1_555
H9 C10 1_555 1_555
H10 C10 1_555 1_555
C11 H11 1_555 1_555
H12 C11 1_555 1_555
H13 C11 1_555 1_555
N1 C3 1_555 1_555
N2 C9 1_555 1_555
O1B C1B 1_555 1_555
O2B H1B 1_555 1_555
O3B C4B 1_555 1_555
O4B C5B 1_555 1_555
C1B O2B 1_555 1_555
C2B C1B 1_555 1_555
H2B C2B 1_555 1_555
H3B C2B 1_555 1_555
C3B C2B 1_555 1_555
H4B C3B 1_555 1_555
H5B C3B 1_555 1_555
C4B C8 1_555 1_555
C5B C6B 1_555 1_555
C6B C8 1_555 1_555
C7B C6B 1_555 1_555
H6B C7B 1_555 1_555
C8B C4 1_555 1_555
N1B C3B 1_555 1_555
C5 N1 1_555 1_555
C6 C8B 1_555 1_555
C10 N2 1_555 1_555
C11 N2 1_555 1_555
C4B N1B 1_555 1_555
C5B N1B 1_555 1_555
C7B C8B 1_555 1_555

#END
