
#######################################################################
#
#                 Cambridge Crystallographic Data Centre
#                                CCDC 
#
#######################################################################
#
# If this CIF has been generated from an entry in the Cambridge 
# Structural Database, then it will include bibliographic, chemical, 
# crystal, experimental, refinement or atomic coordinate data resulting 
# from the CCDC's data processing and validation procedures.
#
#######################################################################

data_RUJREV
_chemical_formula_moiety         'C50 H28 N4'
_chemical_name_systematic        
2-amino-16-(di-2-naphthylmethylene)naphtho[1,2-c]chrysene-1,15,15(16H)-tricarbonitrile
_symmetry_cell_setting           orthorhombic
_symmetry_space_group_name_H-M   'P b c a'
_symmetry_Int_Tables_number      61
_space_group_name_Hall           '-P 2ac 2ab'
loop_
_symmetry_equiv_pos_site_id
_symmetry_equiv_pos_as_xyz
1 x,y,z
2 1/2+x,1/2-y,-z
3 -x,1/2+y,1/2-z
4 1/2-x,-y,1/2+z
5 -x,-y,-z
6 1/2-x,1/2+y,z
7 x,1/2-y,1/2+z
8 1/2+x,y,1/2-z
_cell_length_a                   13.1545(14)
_cell_length_b                   13.9112(15)
_cell_length_c                   37.812(4)
_cell_angle_alpha                90
_cell_angle_beta                 90
_cell_angle_gamma                90
_cell_volume                     6919.4
_exptl_crystal_colour            'brownish red'
_exptl_crystal_description       needle
_cell_formula_units_Z            8
_exptl_crystal_recrystallization_method dichloromethane/hexane
loop_
_atom_site_label
_atom_site_type_symbol
_atom_site_fract_x
_atom_site_fract_y
_atom_site_fract_z
N1 N 0.0500(2) 0.5922(2) 0.19172(9)
N2 N -0.0368(3) 0.3874(2) 0.10901(8)
N3 N 0.5233(2) 0.6590(2) 0.12705(8)
N4 N 0.3026(2) 0.7316(3) 0.09354(8)
C1 C 0.7986(3) 0.5182(3) 0.20484(10)
H1 H 0.8624 0.5264 0.2162
C2 C 0.7221(3) 0.4698(3) 0.22169(10)
H2 H 0.7341 0.4408 0.2441
C3 C 0.6254(3) 0.4628(3) 0.20582(9)
C4 C 0.5460(3) 0.4103(3) 0.22278(10)
H3 H 0.5579 0.3830 0.2454
C5 C 0.4544(3) 0.3987(2) 0.20730(9)
H4 H 0.4053 0.3589 0.2185
C6 C 0.4287(3) 0.4445(2) 0.17445(9)
C7 C 0.3298(2) 0.4341(2) 0.15876(9)
C8 C 0.2989(2) 0.4994(2) 0.13356(9)
C9 C 0.1942(3) 0.4993(2) 0.11980(9)
C10 C 0.1697(3) 0.5273(3) 0.08622(9)
C11 C 0.0693(3) 0.5711(3) 0.07835(9)
C12 C 0.0353(3) 0.6438(3) 0.09937(10)
H5 H 0.0769 0.6655 0.1183
C13 C -0.0610(3) 0.6884(3) 0.09376(9)
C14 C -0.0977(3) 0.7622(3) 0.11585(11)
H6 H -0.0573 0.7853 0.1349
C15 C -0.1927(3) 0.8007(3) 0.10976(12)
H7 H -0.2180 0.8495 0.1250
C16 C -0.2521(3) 0.7689(3) 0.08163(11)
H8 H -0.3173 0.7963 0.0778
C17 C 0.6051(3) 0.5084(2) 0.17324(9)
C18 C 0.6890(3) 0.5504(2) 0.15558(10)
H9 H 0.6799 0.5758 0.1325
C19 C 0.7831(3) 0.5554(3) 0.17112(10)
H10 H 0.8381 0.5843 0.1588
C20 C 0.5011(3) 0.5089(2) 0.15986(9)
C21 C -0.1206(3) 0.6563(3) 0.06503(10)
C22 C -0.0832(3) 0.5828(3) 0.04305(10)
H11 H -0.1232 0.5614 0.0237
C23 C 0.0092(3) 0.5417(3) 0.04901(9)
H12 H 0.0336 0.4932 0.0335
C24 C -0.2178(3) 0.6993(3) 0.05959(11)
H13 H -0.2588 0.6790 0.0403
C25 C 0.2397(3) 0.5143(3) 0.05605(9)
C26 C 0.2416(3) 0.5803(3) 0.02718(10)
H14 H 0.2017 0.6371 0.0285
C27 C 0.2992(3) 0.5641(3) -0.00219(11)
H15 H 0.3005 0.6097 -0.0209
C28 C 0.3555(3) 0.4807(3) -0.00451(10)
C29 C 0.3572(3) 0.4135(3) 0.02284(11)
C30 C 0.4134(3) 0.3287(3) 0.02077(11)
H16 H 0.4110 0.2832 0.0395
C31 C 0.4727(3) 0.3113(4) -0.00881(11)
H17 H 0.5120 0.2542 -0.0107
C32 C 0.4733(3) 0.3797(4) -0.03589(13)
H18 H 0.5153 0.3678 -0.0558
C33 C 0.4191(3) 0.4602(4) -0.03556(12)
H19 H 0.4213 0.5035 -0.0550
C34 C 0.2955(3) 0.4326(3) 0.05395(10)
H20 H 0.2943 0.3876 0.0729
C35 C 0.1129(2) 0.4625(2) 0.14606(9)
C36 C 0.1529(3) 0.3768(2) 0.16838(8)
C37 C 0.0817(3) 0.3158(2) 0.18644(8)
C38 C 0.1192(3) 0.2305(2) 0.20294(8)
C39 C 0.2230(3) 0.2079(3) 0.19930(9)
H21 H 0.2474 0.1479 0.2077
C40 C 0.2888(3) 0.2704(3) 0.18393(9)
H22 H 0.3586 0.2536 0.1823
C41 C 0.2562(3) 0.3598(2) 0.17022(8)
C42 C 0.0509(3) 0.1716(3) 0.22215(9)
H23 H 0.0754 0.1146 0.2331
C43 C -0.0492(3) 0.1950(3) 0.22527(9)
H24 H -0.0938 0.1546 0.2383
C44 C -0.0857(3) 0.2773(3) 0.20963(9)
H25 H -0.1557 0.2928 0.2120
C45 C -0.0235(3) 0.3375(3) 0.19064(9)
H26 H -0.0508 0.3941 0.1802
C46 C 0.0763(2) 0.5369(3) 0.17111(9)
C47 C 0.0264(3) 0.4242(3) 0.12484(10)
C48 C 0.3645(3) 0.5765(2) 0.12446(9)
C49 C 0.4650(3) 0.5815(2) 0.13631(9)
C50 C 0.3261(3) 0.6599(3) 0.10636(9)
H27 H 0.573(2) 0.676(2) 0.1418(8)
H28 H 0.492(2) 0.7077(19) 0.1157(8)
loop_
_geom_bond_atom_site_label_1
_geom_bond_atom_site_label_2
_geom_bond_site_symmetry_1
_geom_bond_site_symmetry_2
N1 C46 1_555 1_555
N2 C47 1_555 1_555
N3 C49 1_555 1_555
N4 C50 1_555 1_555
C1 H1 1_555 1_555
C2 C1 1_555 1_555
H2 C2 1_555 1_555
C3 C2 1_555 1_555
C4 C3 1_555 1_555
H3 C4 1_555 1_555
C5 C4 1_555 1_555
H4 C5 1_555 1_555
C6 C5 1_555 1_555
C7 C6 1_555 1_555
C8 C7 1_555 1_555
C9 C8 1_555 1_555
C10 C9 1_555 1_555
C11 C10 1_555 1_555
C12 C11 1_555 1_555
H5 C12 1_555 1_555
C13 C12 1_555 1_555
C14 C13 1_555 1_555
H6 C14 1_555 1_555
C15 C14 1_555 1_555
H7 C15 1_555 1_555
C16 C15 1_555 1_555
H8 C16 1_555 1_555
C17 C3 1_555 1_555
C18 C17 1_555 1_555
H9 C18 1_555 1_555
C19 C1 1_555 1_555
H10 C19 1_555 1_555
C20 C6 1_555 1_555
C21 C13 1_555 1_555
C22 C21 1_555 1_555
H11 C22 1_555 1_555
C23 C11 1_555 1_555
H12 C23 1_555 1_555
C24 C16 1_555 1_555
H13 C24 1_555 1_555
C25 C10 1_555 1_555
C26 C25 1_555 1_555
H14 C26 1_555 1_555
C27 C26 1_555 1_555
H15 C27 1_555 1_555
C28 C27 1_555 1_555
C29 C28 1_555 1_555
C30 C29 1_555 1_555
H16 C30 1_555 1_555
C31 C30 1_555 1_555
H17 C31 1_555 1_555
C32 C31 1_555 1_555
H18 C32 1_555 1_555
C33 C28 1_555 1_555
H19 C33 1_555 1_555
C34 C25 1_555 1_555
H20 C34 1_555 1_555
C35 C9 1_555 1_555
C36 C35 1_555 1_555
C37 C36 1_555 1_555
C38 C37 1_555 1_555
C39 C38 1_555 1_555
H21 C39 1_555 1_555
C40 C39 1_555 1_555
H22 C40 1_555 1_555
C41 C7 1_555 1_555
C42 C38 1_555 1_555
H23 C42 1_555 1_555
C43 C42 1_555 1_555
H24 C43 1_555 1_555
C44 C43 1_555 1_555
H25 C44 1_555 1_555
C45 C37 1_555 1_555
H26 C45 1_555 1_555
C46 C35 1_555 1_555
C47 C35 1_555 1_555
C48 C8 1_555 1_555
C49 C20 1_555 1_555
C50 C48 1_555 1_555
H27 N3 1_555 1_555
H28 N3 1_555 1_555
C17 C20 1_555 1_555
C18 C19 1_555 1_555
C21 C24 1_555 1_555
C22 C23 1_555 1_555
C29 C34 1_555 1_555
C32 C33 1_555 1_555
C36 C41 1_555 1_555
C40 C41 1_555 1_555
C44 C45 1_555 1_555
C48 C49 1_555 1_555

#END
