
#######################################################################
#
#                 Cambridge Crystallographic Data Centre
#                                CCDC 
#
#######################################################################
#
# If this CIF has been generated from an entry in the Cambridge 
# Structural Database, then it will include bibliographic, chemical, 
# crystal, experimental, refinement or atomic coordinate data resulting 
# from the CCDC's data processing and validation procedures.
#
#######################################################################

data_RUJXOK
_chemical_formula_moiety         'C12 H13 N4 S1 1+,Cl1 1-,2(H2 O1)'
_chemical_name_systematic        
'8-Quinolinealdehyde S-methylthiosemicarbazone hydrochloride dihydrate'
_symmetry_cell_setting           monoclinic
_symmetry_space_group_name_H-M   'P 21/c'
_symmetry_Int_Tables_number      14
_space_group_name_Hall           '-P 2ybc'
loop_
_symmetry_equiv_pos_site_id
_symmetry_equiv_pos_as_xyz
1 x,y,z
2 -x,1/2+y,1/2-z
3 -x,-y,-z
4 x,1/2-y,1/2+z
_cell_length_a                   7.283(1)
_cell_length_b                   16.639(3)
_cell_length_c                   13.740(3)
_cell_angle_alpha                90
_cell_angle_beta                 116.30(3)
_cell_angle_gamma                90
_cell_volume                     1492.68
_exptl_crystal_colour            orange
_exptl_crystal_description       cube
_cell_formula_units_Z            4
_exptl_crystal_recrystallization_method 'water/ethanol/hydrochloric acid'
loop_
_atom_site_label
_atom_site_type_symbol
_atom_site_fract_x
_atom_site_fract_y
_atom_site_fract_z
S1 S 1.76587(10) -0.05846(4) 0.92794(5)
N1 N 1.1525(3) 0.10465(12) 0.39451(15)
N2 N 1.3899(3) -0.07360(12) 0.62234(15)
N3 N 1.5410(3) -0.04839(12) 0.72164(14)
H1 H 1.5861 0.0002 0.7307
N4 N 1.5705(3) -0.17735(12) 0.78634(15)
H2 H 1.4923 -0.1946 0.7222
H3 H 1.6199 -0.2104 0.8399
C1 C 1.3197(3) -0.01831(15) 0.55082(18)
H4 H 1.3756 0.0330 0.5671
C2 C 1.0742(4) 0.16174(16) 0.32071(19)
H5 H 1.1271 0.2133 0.3400
C3 C 0.9180(4) 0.15051(18) 0.2159(2)
H6 H 0.8706 0.1931 0.1672
C4 C 0.8375(3) 0.07605(17) 0.18703(19)
H7 H 0.7339 0.0669 0.1176
C5 C 0.8266(3) -0.06551(17) 0.2393(2)
H8 H 0.7186 -0.0764 0.1718
C6 C 0.9021(4) -0.12499(16) 0.3149(2)
H9 H 0.8438 -0.1759 0.2990
C7 C 1.0665(3) -0.11033(15) 0.4165(2)
H10 H 1.1187 -0.1520 0.4664
C8 C 1.1523(3) -0.03464(14) 0.44345(17)
C9 C 1.0723(3) 0.02891(14) 0.36654(17)
C10 C 0.9106(3) 0.01218(15) 0.26231(17)
C11 C 1.6144(3) -0.10103(15) 0.80243(17)
C12 C 1.8837(4) -0.14354(17) 1.0114(2)
H11 H 1.9722 -0.1259 1.0837
H12 H 1.9624 -0.1723 0.9823
H13 H 1.7798 -0.1782 1.0132
Cl1 Cl 1.40972(10) -0.29467(4) 0.57163(5)
O1 O 1.5541(3) -0.19547(13) 0.42928(15)
H14 H 1.500(4) -0.2200(17) 0.461(2)
H15 H 1.643(5) -0.166(2) 0.478(3)
O2 O 1.3278(3) -0.39259(12) 0.74216(18)
H16 H 1.349(4) -0.368(2) 0.694(3)
H17 H 1.385(5) -0.366(2) 0.799(3)
loop_
_geom_bond_atom_site_label_1
_geom_bond_atom_site_label_2
_geom_bond_site_symmetry_1
_geom_bond_site_symmetry_2
S1 C11 1_555 1_555
N1 C2 1_555 1_555
N2 N3 1_555 1_555
N3 H1 1_555 1_555
N4 H2 1_555 1_555
H3 N4 1_555 1_555
C1 N2 1_555 1_555
H4 C1 1_555 1_555
C2 H5 1_555 1_555
C3 C2 1_555 1_555
H6 C3 1_555 1_555
C4 C3 1_555 1_555
H7 C4 1_555 1_555
C5 H8 1_555 1_555
C6 C5 1_555 1_555
H9 C6 1_555 1_555
C7 C6 1_555 1_555
H10 C7 1_555 1_555
C8 C1 1_555 1_555
C9 N1 1_555 1_555
C10 C4 1_555 1_555
C11 N3 1_555 1_555
C12 S1 1_555 1_555
H11 C12 1_555 1_555
H12 C12 1_555 1_555
H13 C12 1_555 1_555
O1 H14 1_555 1_555
H15 O1 1_555 1_555
O2 H16 1_555 1_555
H17 O2 1_555 1_555
N4 C11 1_555 1_555
C5 C10 1_555 1_555
C7 C8 1_555 1_555
C8 C9 1_555 1_555
C9 C10 1_555 1_555

#END
