
#######################################################################
#
#                 Cambridge Crystallographic Data Centre
#                                CCDC 
#
#######################################################################
#
# If this CIF has been generated from an entry in the Cambridge 
# Structural Database, then it will include bibliographic, chemical, 
# crystal, experimental, refinement or atomic coordinate data resulting 
# from the CCDC's data processing and validation procedures.
#
#######################################################################

data_RUKTAU
_chemical_formula_moiety         'C15 H14 N2 O2'
_chemical_name_systematic        
4-(3-Methylpyridin-2-yl)-4-azatricyclo[5.2.1.0^2,6^]dec-8-ene-3,5-dione
_symmetry_cell_setting           monoclinic
_symmetry_space_group_name_H-M   'P 21/n'
_symmetry_Int_Tables_number      14
_space_group_name_Hall           '-P 2yn'
loop_
_symmetry_equiv_pos_site_id
_symmetry_equiv_pos_as_xyz
1 x,y,z
2 1/2-x,1/2+y,1/2-z
3 -x,-y,-z
4 1/2+x,1/2-y,1/2+z
_cell_length_a                   10.0858(10)
_cell_length_b                   10.4130(10)
_cell_length_c                   11.4837(11)
_cell_angle_alpha                90
_cell_angle_beta                 92.060(3)
_cell_angle_gamma                90
_cell_volume                     1205.28
_exptl_crystal_colour            colorless
_exptl_crystal_description       tablet
_cell_formula_units_Z            4
loop_
_atom_site_label
_atom_site_type_symbol
_atom_site_fract_x
_atom_site_fract_y
_atom_site_fract_z
O1 O 0.37712(8) 0.24620(9) 0.48670(7)
O2 O 0.81684(8) 0.14594(8) 0.48191(7)
N1 N 0.59819(9) 0.20543(9) 0.46043(8)
N2 N 0.55395(10) 0.19198(9) 0.26072(8)
C1 C 0.60133(12) 0.13102(12) 0.82521(10)
H1 H 0.5749 0.0399 0.8326
H2 H 0.6171 0.1696 0.9033
C2 C 0.50354(12) 0.20948(11) 0.74731(10)
H3 H 0.4133 0.2234 0.7784
C3 C 0.50968(11) 0.12732(11) 0.63307(9)
H4 H 0.4522 0.0494 0.6379
C4 C 0.48032(11) 0.19951(10) 0.52137(9)
C5 C 0.70614(11) 0.14722(10) 0.51881(9)
C6 C 0.65735(11) 0.08935(10) 0.62981(9)
H5 H 0.6681 -0.0061 0.6299
C7 C 0.71891(12) 0.14994(11) 0.74476(10)
H6 H 0.8062 0.1143 0.7733
C8 C 0.71258(12) 0.29395(11) 0.72755(10)
H7 H 0.7861 0.3494 0.7177
C9 C 0.58581(11) 0.32910(11) 0.72857(10)
H8 H 0.5527 0.4140 0.7192
C10 C 0.60527(10) 0.26337(10) 0.34729(9)
C11 C 0.66153(11) 0.38442(11) 0.33538(10)
C12 C 0.66111(11) 0.43331(11) 0.22244(10)
H9 H 0.6983 0.5155 0.2085
C13 C 0.60674(11) 0.36284(12) 0.13044(10)
H10 H 0.6051 0.3959 0.0533
C14 C 0.55491(12) 0.24311(12) 0.15377(10)
H11 H 0.5180 0.1945 0.0906
C15 C 0.71951(14) 0.45824(12) 0.43708(11)
H12 H 0.6552 0.4615 0.4990
H13 H 0.7405 0.5457 0.4123
H14 H 0.8007 0.4157 0.4664
loop_
_geom_bond_atom_site_label_1
_geom_bond_atom_site_label_2
_geom_bond_site_symmetry_1
_geom_bond_site_symmetry_2
O1 C4 1_555 1_555
O2 C5 1_555 1_555
N1 C4 1_555 1_555
N2 C10 1_555 1_555
C1 H1 1_555 1_555
H2 C1 1_555 1_555
C2 C1 1_555 1_555
H3 C2 1_555 1_555
C3 C2 1_555 1_555
H4 C3 1_555 1_555
C4 C3 1_555 1_555
C5 N1 1_555 1_555
C6 C3 1_555 1_555
H5 C6 1_555 1_555
C7 C1 1_555 1_555
H6 C7 1_555 1_555
C8 C7 1_555 1_555
H7 C8 1_555 1_555
C9 C2 1_555 1_555
H8 C9 1_555 1_555
C10 N1 1_555 1_555
C11 C10 1_555 1_555
C12 C11 1_555 1_555
H9 C12 1_555 1_555
C13 C12 1_555 1_555
H10 C13 1_555 1_555
C14 N2 1_555 1_555
H11 C14 1_555 1_555
C15 C11 1_555 1_555
H12 C15 1_555 1_555
H13 C15 1_555 1_555
H14 C15 1_555 1_555
C5 C6 1_555 1_555
C6 C7 1_555 1_555
C8 C9 1_555 1_555
C13 C14 1_555 1_555

#END
