
#######################################################################
#
#                 Cambridge Crystallographic Data Centre
#                                CCDC 
#
#######################################################################
#
# If this CIF has been generated from an entry in the Cambridge 
# Structural Database, then it will include bibliographic, chemical, 
# crystal, experimental, refinement or atomic coordinate data resulting 
# from the CCDC's data processing and validation procedures.
#
#######################################################################

data_RULMOC
_chemical_formula_moiety         'C68 H17 N1'
_chemical_name_systematic        (1-(diethylamino)butane-1,3-diyl)C60fullerene
_symmetry_cell_setting           orthorhombic
_symmetry_space_group_name_H-M   'P 21 21 21'
_symmetry_Int_Tables_number      19
_space_group_name_Hall           'P 2ac 2ab'
loop_
_symmetry_equiv_pos_site_id
_symmetry_equiv_pos_as_xyz
1 x,y,z
2 1/2-x,-y,1/2+z
3 -x,1/2+y,1/2-z
4 1/2+x,1/2-y,-z
_cell_length_a                   18.1685(8)
_cell_length_b                   13.3244(6)
_cell_length_c                   14.2797(7)
_cell_angle_alpha                90
_cell_angle_beta                 90
_cell_angle_gamma                90
_cell_volume                     3456.89
_exptl_crystal_colour            black
_exptl_crystal_description       block
_cell_formula_units_Z            4
loop_
_atom_site_label
_atom_site_type_symbol
_atom_site_fract_x
_atom_site_fract_y
_atom_site_fract_z
N1 N 0.33732(15) 0.84775(19) 0.5016(4)
C1 C 0.48003(19) 0.8554(2) 0.5004(6)
H1 H 0.4829 0.8589 0.4312
H2 H 0.4864 0.9238 0.5263
C2 C 0.6148(2) 0.8032(3) 0.4990(8)
H3 H 0.6471 0.7536 0.5286
H4 H 0.6155 0.7936 0.4309
H5 H 0.6321 0.8709 0.5141
C3 C 0.2668(4) 0.8702(6) 0.3526(5)
H6 H 0.2703 0.8942 0.2879
H7 H 0.2536 0.7989 0.3527
H8 H 0.2290 0.9086 0.3859
C4 C 0.2688(4) 0.8749(7) 0.6491(5)
H9 H 0.2447 0.9263 0.6873
H10 H 0.2327 0.8236 0.6313
H11 H 0.3086 0.8436 0.6851
C5 C 0.5339(7) 0.7894(9) 0.5364(8)
H12 H 0.5363 0.8031 0.6052
C6 C 0.4077(6) 0.8107(9) 0.5311(9)
H13 H 0.4075 0.8191 0.6007
C7 C 0.3381(7) 0.8836(8) 0.3994(7)
H14 H 0.3516 0.9556 0.3978
H15 H 0.3762 0.8459 0.3646
C8 C 0.3019(7) 0.9252(10) 0.5574(8)
H16 H 0.2620 0.9573 0.5208
H17 H 0.3381 0.9774 0.5748
C9 C 0.5031(7) 0.6751(9) 0.5264(9)
C10 C 0.4188(9) 0.6966(12) 0.5160(8)
C11 C 0.3666(7) 0.6391(11) 0.5807(12)
C12 C 0.3967(8) 0.5966(11) 0.6589(9)
C13 C 0.4779(8) 0.5791(10) 0.6736(8)
C14 C 0.5251(8) 0.6093(10) 0.6092(10)
C15 C 0.5801(7) 0.5501(9) 0.5819(11)
C16 C 0.5929(9) 0.5501(13) 0.4798(13)
C17 C 0.5410(6) 0.6220(8) 0.4463(9)
C18 C 0.5088(6) 0.6029(10) 0.3616(9)
C19 C 0.4277(6) 0.6199(8) 0.3508(7)
C20 C 0.3819(12) 0.6535(12) 0.4303(11)
C21 C 0.3175(9) 0.6046(13) 0.4278(10)
C22 C 0.3059(10) 0.5979(13) 0.5290(13)
C23 C 0.2681(6) 0.5191(9) 0.5761(10)
C24 C 0.2958(8) 0.4751(11) 0.6576(10)
C25 C 0.3592(10) 0.5091(13) 0.7039(10)
C26 C 0.4152(8) 0.4465(11) 0.7384(7)
C27 C 0.4879(10) 0.4833(14) 0.7204(11)
C28 C 0.5414(9) 0.4224(11) 0.7000(9)
C29 C 0.5945(8) 0.4511(12) 0.6247(12)
C30 C 0.6135(7) 0.3648(12) 0.5783(12)
C31 C 0.6232(9) 0.3706(10) 0.4773(11)
C32 C 0.6136(5) 0.4650(9) 0.4296(9)
C33 C 0.5805(10) 0.4440(11) 0.3395(9)
C34 C 0.5306(6) 0.5097(9) 0.3093(8)
C35 C 0.4616(8) 0.4679(12) 0.2656(13)
C36 C 0.4006(7) 0.5373(9) 0.2881(7)
C37 C 0.3341(11) 0.4970(16) 0.2991(17)
C38 C 0.2897(8) 0.5337(10) 0.3758(10)
C39 C 0.2491(6) 0.4496(9) 0.4187(10)
C40 C 0.2430(9) 0.4439(12) 0.5218(12)
C41 C 0.2501(6) 0.3520(10) 0.5627(11)
C42 C 0.2860(10) 0.3665(17) 0.6575(12)
C43 C 0.3392(8) 0.2993(11) 0.6882(9)
C44 C 0.4054(9) 0.3368(13) 0.7325(13)
C45 C 0.4613(9) 0.2717(11) 0.7038(9)
C46 C 0.5347(10) 0.3159(12) 0.6922(11)
C47 C 0.5773(8) 0.2828(13) 0.6137(11)
C48 C 0.5480(10) 0.204(2) 0.5575(11)
C49 C 0.5598(10) 0.211(2) 0.4585(11)
C50 C 0.5944(7) 0.2914(10) 0.4181(10)
C51 C 0.5686(8) 0.3379(10) 0.3326(8)
C52 C 0.5058(8) 0.3028(11) 0.2902(11)
C53 C 0.4521(8) 0.3718(10) 0.2559(8)
C54 C 0.3812(8) 0.3265(12) 0.2741(16)
C55 C 0.3226(8) 0.3855(10) 0.2930(8)
C56 C 0.2695(13) 0.3608(15) 0.3721(15)
C57 C 0.2789(7) 0.2709(10) 0.4088(9)
C58 C 0.2687(11) 0.2658(15) 0.5127(9)
C59 C 0.3235(7) 0.1931(9) 0.5499(10)
C60 C 0.3592(10) 0.2140(13) 0.6349(12)
C61 C 0.4323(9) 0.1935(9) 0.6438(9)
C62 C 0.4760(8) 0.1618(13) 0.5707(11)
C63 C 0.4441(9) 0.1426(13) 0.4801(10)
C64 C 0.3692(7) 0.1570(9) 0.4715(9)
C65 C 0.3442(10) 0.2090(15) 0.3851(11)
C66 C 0.3931(7) 0.2333(9) 0.3205(9)
C67 C 0.4709(7) 0.2172(10) 0.3321(9)
C68 C 0.4953(8) 0.1747(15) 0.4096(11)
H18? H 0.4844 0.8570 0.5694
H19? H 0.4858 0.9247 0.4763
H20? H 0.6488 0.7565 0.4683
H21? H 0.6309 0.8723 0.4876
H22? H 0.6143 0.7901 0.5665
H23? H 0.2449 0.9227 0.3135
H24? H 0.3041 0.8339 0.3164
H25? H 0.2285 0.8234 0.3729
H26? H 0.2740 0.8963 0.7144
H27? H 0.2341 0.9193 0.6168
H28? H 0.2503 0.8058 0.6471
C69? C 0.5378(6) 0.7886(9) 0.4595(8)
H29? H 0.5399 0.8018 0.3906
C70? C 0.4069(6) 0.8143(8) 0.4725(8)
H30? H 0.4058 0.8252 0.4033
C71? C 0.3398(7) 0.8795(10) 0.6031(7)
H31? H 0.3747 0.8357 0.6371
H32? H 0.3586 0.9491 0.6068
C72? C 0.3028(8) 0.9180(9) 0.4382(9)
H33? H 0.3404 0.9666 0.4166
H34? H 0.2649 0.9561 0.4730
C73? C 0.5046(6) 0.6809(8) 0.4741(8)
C74? C 0.4162(8) 0.6932(11) 0.4820(8)
C75? C 0.3885(7) 0.6547(11) 0.5799(12)
C76? C 0.4288(6) 0.6179(8) 0.6517(8)
C77? C 0.5047(6) 0.6033(10) 0.6369(9)
C78? C 0.5391(6) 0.6210(8) 0.5535(9)
C79? C 0.5923(9) 0.5515(13) 0.5192(12)
C80? C 0.5832(6) 0.5407(9) 0.4179(10)
C81? C 0.5231(9) 0.6097(11) 0.3933(11)
C82? C 0.4680(8) 0.5813(9) 0.3225(7)
C83? C 0.3917(9) 0.5964(10) 0.3351(8)
C84? C 0.3762(13) 0.6384(13) 0.4081(11)
C85? C 0.3065(8) 0.6040(11) 0.4620(11)
C86? C 0.3139(9) 0.6126(11) 0.5587(10)
C87? C 0.2891(7) 0.5335(10) 0.6232(10)
C88? C 0.3293(9) 0.4991(12) 0.6923(11)
C89? C 0.4040(7) 0.5414(8) 0.7130(7)
C90? C 0.4629(7) 0.4805(11) 0.7352(10)
C91? C 0.5265(6) 0.5192(8) 0.6901(8)
C92? C 0.5771(9) 0.4523(13) 0.6596(10)
C93? C 0.6139(6) 0.4659(10) 0.5650(11)
C94? C 0.6247(9) 0.3729(11) 0.5204(12)
C95? C 0.6137(7) 0.3689(11) 0.4251(11)
C96? C 0.5904(10) 0.4570(11) 0.3686(11)
C97? C 0.5380(9) 0.4288(11) 0.2962(8)
C98? C 0.4799(10) 0.4887(11) 0.2747(13)
C99? C 0.4039(8) 0.4401(10) 0.2635(7)
C100? C 0.3523(12) 0.5135(16) 0.3014(17)
C101? C 0.2912(7) 0.4752(10) 0.3442(8)
C102? C 0.2665(6) 0.5235(8) 0.4306(8)
C103? C 0.2365(8) 0.4432(9) 0.4894(9)
C104? C 0.2507(6) 0.4474(11) 0.5855(11)
C105? C 0.2695(9) 0.3606(17) 0.6338(14)
C106? C 0.3245(8) 0.3954(11) 0.7079(9)
C107? C 0.3790(7) 0.3341(11) 0.7303(12)
C108? C 0.4540(7) 0.3763(9) 0.7453(7)
C109? C 0.5073(7) 0.3051(11) 0.7069(10)
C110? C 0.5718(8) 0.3434(11) 0.6629(9)
C111? C 0.5992(7) 0.2958(12) 0.5793(11)
C112? C 0.5614(10) 0.213(2) 0.5438(11)
C113? C 0.5496(11) 0.207(2) 0.4423(11)
C114? C 0.5716(9) 0.2811(12) 0.3775(12)
C115? C 0.5271(11) 0.3197(13) 0.3073(12)
C116? C 0.4586(8) 0.2801(10) 0.2888(8)
C117? C 0.3949(8) 0.3445(13) 0.2678(16)
C118? C 0.3285(7) 0.3039(9) 0.3165(8)
C119? C 0.2807(13) 0.3668(12) 0.3507(10)
C120? C 0.2479(6) 0.3468(9) 0.4436(9)
C121? C 0.2699(12) 0.2605(17) 0.4836(13)
C122? C 0.2819(7) 0.2672(10) 0.5889(11)
C123? C 0.3381(8) 0.2037(12) 0.6112(12)
C124? C 0.3885(6) 0.2358(8) 0.6864(8)
C125? C 0.4665(7) 0.2178(9) 0.6690(9)
C126? C 0.4954(8) 0.1747(13) 0.5919(10)
C127? C 0.4425(9) 0.1443(13) 0.5192(10)
C128? C 0.3678(8) 0.1610(9) 0.5301(11)
C129? C 0.3228(7) 0.1952(9) 0.4533(11)
C130? C 0.3534(8) 0.2110(14) 0.3657(12)
C131? C 0.4343(8) 0.1984(9) 0.3535(9)
C132? C 0.4765(8) 0.1625(15) 0.4267(11)
loop_
_geom_bond_atom_site_label_1
_geom_bond_atom_site_label_2
_geom_bond_site_symmetry_1
_geom_bond_site_symmetry_2
N1 C6 1_555 1_555
C1 H1 1_555 1_555
H2 C1 1_555 1_555
C2 H3 1_555 1_555
H4 C2 1_555 1_555
H5 C2 1_555 1_555
C3 H6 1_555 1_555
H7 C3 1_555 1_555
H8 C3 1_555 1_555
C4 H9 1_555 1_555
H10 C4 1_555 1_555
H11 C4 1_555 1_555
C5 C1 1_555 1_555
H12 C5 1_555 1_555
C6 C1 1_555 1_555
H13 C6 1_555 1_555
C7 N1 1_555 1_555
H14 C7 1_555 1_555
H15 C7 1_555 1_555
C8 N1 1_555 1_555
H16 C8 1_555 1_555
H17 C8 1_555 1_555
C9 C5 1_555 1_555
C10 C6 1_555 1_555
C11 C10 1_555 1_555
C12 C11 1_555 1_555
C13 C12 1_555 1_555
C14 C9 1_555 1_555
C15 C14 1_555 1_555
C16 C15 1_555 1_555
C17 C9 1_555 1_555
C18 C17 1_555 1_555
C19 C18 1_555 1_555
C20 C10 1_555 1_555
C21 C20 1_555 1_555
C22 C11 1_555 1_555
C23 C22 1_555 1_555
C24 C23 1_555 1_555
C25 C12 1_555 1_555
C26 C25 1_555 1_555
C27 C13 1_555 1_555
C28 C27 1_555 1_555
C29 C15 1_555 1_555
C30 C29 1_555 1_555
C31 C30 1_555 1_555
C32 C16 1_555 1_555
C33 C32 1_555 1_555
C34 C18 1_555 1_555
C35 C34 1_555 1_555
C36 C19 1_555 1_555
C37 C36 1_555 1_555
C38 C21 1_555 1_555
C39 C38 1_555 1_555
C40 C23 1_555 1_555
C41 C40 1_555 1_555
C42 C24 1_555 1_555
C43 C42 1_555 1_555
C44 C26 1_555 1_555
C45 C44 1_555 1_555
C46 C28 1_555 1_555
C47 C30 1_555 1_555
C48 C47 1_555 1_555
C49 C48 1_555 1_555
C50 C31 1_555 1_555
C51 C33 1_555 1_555
C52 C51 1_555 1_555
C53 C35 1_555 1_555
C54 C53 1_555 1_555
C55 C37 1_555 1_555
C56 C39 1_555 1_555
C57 C56 1_555 1_555
C58 C41 1_555 1_555
C59 C58 1_555 1_555
C60 C43 1_555 1_555
C61 C45 1_555 1_555
C62 C48 1_555 1_555
C63 C62 1_555 1_555
C64 C59 1_555 1_555
C65 C57 1_555 1_555
C66 C54 1_555 1_555
C67 C52 1_555 1_555
C68 C49 1_555 1_555
C2 C5 1_555 1_555
C3 C7 1_555 1_555
C4 C8 1_555 1_555
C9 C10 1_555 1_555
C13 C14 1_555 1_555
C16 C17 1_555 1_555
C19 C20 1_555 1_555
C21 C22 1_555 1_555
C24 C25 1_555 1_555
C26 C27 1_555 1_555
C28 C29 1_555 1_555
C31 C32 1_555 1_555
C33 C34 1_555 1_555
C35 C36 1_555 1_555
C37 C38 1_555 1_555
C39 C40 1_555 1_555
C41 C42 1_555 1_555
C43 C44 1_555 1_555
C45 C46 1_555 1_555
C46 C47 1_555 1_555
C49 C50 1_555 1_555
C50 C51 1_555 1_555
C52 C53 1_555 1_555
C54 C55 1_555 1_555
C55 C56 1_555 1_555
C57 C58 1_555 1_555
C59 C60 1_555 1_555
C60 C61 1_555 1_555
C61 C62 1_555 1_555
C63 C64 1_555 1_555
C63 C68 1_555 1_555
C64 C65 1_555 1_555
C65 C66 1_555 1_555
C66 C67 1_555 1_555
C67 C68 1_555 1_555

#END
