
#######################################################################
#
#                 Cambridge Crystallographic Data Centre
#                                CCDC 
#
#######################################################################
#
# If this CIF has been generated from an entry in the Cambridge 
# Structural Database, then it will include bibliographic, chemical, 
# crystal, experimental, refinement or atomic coordinate data resulting 
# from the CCDC's data processing and validation procedures.
#
#######################################################################

data_RULWEA
_chemical_formula_moiety         'C31 H28 Br1 N1 O5 S1'
_chemical_name_systematic        
3-(1-(4-Bromophenylsulfonyl)-3-phenylpropyl)-4-(4-methoxyphenyl)-1-phenylazetidin-2-one
_symmetry_cell_setting           monoclinic
_symmetry_space_group_name_H-M   'P 21'
_symmetry_Int_Tables_number      4
_space_group_name_Hall           'P 2yb'
loop_
_symmetry_equiv_pos_site_id
_symmetry_equiv_pos_as_xyz
1 x,y,z
2 -x,1/2+y,-z
_cell_length_a                   18.527(3)
_cell_length_b                   6.073(1)
_cell_length_c                   12.462(2)
_cell_angle_alpha                90
_cell_angle_beta                 102.67(1)
_cell_angle_gamma                90
_cell_volume                     1368.01
_cell_formula_units_Z            2
loop_
_atom_site_label
_atom_site_type_symbol
_atom_site_fract_x
_atom_site_fract_y
_atom_site_fract_z
N1 N 0.1067(2) -0.1456(7) 0.2358(3)
C1 C 0.1099(2) -0.0606(8) 0.1359(3)
C2 C 0.1534(2) 0.1421(8) 0.1887(3)
C3 C 0.1515(2) 0.0297(8) 0.3011(3)
O1 O 0.0854(2) -0.1250(8) 0.0439(2)
C4 C 0.0645(2) -0.3146(8) 0.2679(3)
C5 C 0.0683(2) -0.3543(11) 0.3790(4)
C6 C 0.0266(3) -0.5235(12) 0.4085(3)
C7 C -0.0172(2) -0.6548(11) 0.3315(4)
C8 C -0.0202(2) -0.6166(10) 0.2208(4)
C9 C 0.0198(2) -0.4472(8) 0.1886(3)
C10 C 0.2242(2) -0.0395(7) 0.3726(3)
C11 C 0.2632(2) 0.1098(8) 0.4483(3)
C12 C 0.3330(2) 0.0621(8) 0.5114(3)
C13 C 0.3639(2) -0.1423(9) 0.4997(3)
C14 C 0.3249(2) -0.2957(9) 0.4279(4)
C15 C 0.2555(2) -0.2445(8) 0.3645(3)
O2 O 0.4329(2) -0.2073(8) 0.5557(3)
C16 C 0.4827(3) -0.0416(13) 0.6088(5)
C17 C 0.2255(2) 0.2144(7) 0.1600(3)
C18 C 0.2157(2) 0.3801(8) 0.0670(4)
C19 C 0.1640(3) 0.3062(10) -0.0394(4)
C20 C 0.1791(2) 0.4129(9) -0.1429(4)
C21 C 0.2071(3) 0.6220(10) -0.1443(4)
C22 C 0.2215(3) 0.7059(12) -0.2425(5)
C23 C 0.2083(3) 0.5865(13) -0.3363(4)
C24 C 0.1772(4) 0.3779(16) -0.3355(5)
C25 C 0.1635(3) 0.2960(11) -0.2397(4)
O3 O 0.2621(1) 0.0101(6) 0.1337(2)
S1 S 0.34958(4) -0.0064(2) 0.16406(7)
O4 O 0.3629(2) -0.2367(6) 0.1587(3)
O5 O 0.3779(2) 0.1139(6) 0.2616(2)
C26 C 0.3771(2) 0.1230(7) 0.0531(3)
C27 C 0.4122(2) 0.3256(8) 0.0697(3)
C28 C 0.4290(2) 0.4364(7) -0.0198(4)
C29 C 0.4092(2) 0.3445(9) -0.1226(3)
C30 C 0.3762(3) 0.1344(9) -0.1381(4)
C31 C 0.3598(2) 0.0259(10) -0.0496(3)
Br1 Br 0.42713(3) 0.5000 -0.24528(4)
H1 H 0.1184 0.2802 0.1786
H2 H 0.1205 0.1078 0.3513
H3 H 0.1007 -0.2620 0.4366
H4 H 0.0285 -0.5506 0.4882
H5 H -0.0467 -0.7768 0.3547
H6 H -0.0516 -0.7127 0.1640
H7 H 0.0168 -0.4193 0.1087
H8 H 0.2403 0.2558 0.4575
H9 H 0.3605 0.1730 0.5643
H10 H 0.3467 -0.4444 0.4215
H11 H 0.2278 -0.3566 0.3125
H12 H 0.5329 -0.1149 0.6480
H13 H 0.4924 0.0722 0.5501
H14 H 0.4594 0.0400 0.6674
H15 H 0.2580 0.2988 0.2270
H16 H 0.2679 0.4117 0.0503
H17 H 0.1944 0.5258 0.0932
H18 H 0.1096 0.3446 -0.0345
H19 H 0.1693 0.1350 -0.0465
H20 H 0.2171 0.7137 -0.0760
H21 H 0.2421 0.8580 -0.2430
H22 H 0.2206 0.6467 -0.4048
H23 H 0.1650 0.2886 -0.4045
H24 H 0.1414 0.1458 -0.2401
H25 H 0.4253 0.3916 0.1450
H26 H 0.4552 0.5813 -0.0091
H27 H 0.3648 0.0650 -0.2127
H28 H 0.3356 -0.1221 -0.0595
loop_
_geom_bond_atom_site_label_1
_geom_bond_atom_site_label_2
_geom_bond_site_symmetry_1
_geom_bond_site_symmetry_2
N1 C1 1_555 1_555
C1 C2 1_555 1_555
C2 C3 1_555 1_555
C3 N1 1_555 1_555
O1 C1 1_555 1_555
C4 N1 1_555 1_555
C5 C4 1_555 1_555
C6 C5 1_555 1_555
C7 C6 1_555 1_555
C8 C7 1_555 1_555
C9 C4 1_555 1_555
C10 C3 1_555 1_555
C11 C10 1_555 1_555
C12 C11 1_555 1_555
C13 C12 1_555 1_555
C14 C13 1_555 1_555
C15 C10 1_555 1_555
O2 C13 1_555 1_555
C16 O2 1_555 1_555
C17 C2 1_555 1_555
C18 C17 1_555 1_555
C19 C18 1_555 1_555
C20 C19 1_555 1_555
C21 C20 1_555 1_555
C22 C21 1_555 1_555
C23 C22 1_555 1_555
C24 C23 1_555 1_555
C25 C20 1_555 1_555
O3 C17 1_555 1_555
S1 O3 1_555 1_555
O4 S1 1_555 1_555
O5 S1 1_555 1_555
C26 S1 1_555 1_555
C27 C26 1_555 1_555
C28 C27 1_555 1_555
C29 C28 1_555 1_555
C30 C29 1_555 1_555
C31 C26 1_555 1_555
Br1 C29 1_555 1_555
H1 C2 1_555 1_555
H2 C3 1_555 1_555
H3 C5 1_555 1_555
H4 C6 1_555 1_555
H5 C7 1_555 1_555
H6 C8 1_555 1_555
H7 C9 1_555 1_555
H8 C11 1_555 1_555
H9 C12 1_555 1_555
H10 C14 1_555 1_555
H11 C15 1_555 1_555
H12 C16 1_555 1_555
H13 C16 1_555 1_555
H14 C16 1_555 1_555
H15 C17 1_555 1_555
H16 C18 1_555 1_555
H17 C18 1_555 1_555
H18 C19 1_555 1_555
H19 C19 1_555 1_555
H20 C21 1_555 1_555
H21 C22 1_555 1_555
H22 C23 1_555 1_555
H23 C24 1_555 1_555
H24 C25 1_555 1_555
H25 C27 1_555 1_555
H26 C28 1_555 1_555
H27 C30 1_555 1_555
H28 C31 1_555 1_555
C8 C9 1_555 1_555
C14 C15 1_555 1_555
C24 C25 1_555 1_555
C30 C31 1_555 1_555

#END
