
#######################################################################
#
#                 Cambridge Crystallographic Data Centre
#                                CCDC 
#
#######################################################################
#
# If this CIF has been generated from an entry in the Cambridge 
# Structural Database, then it will include bibliographic, chemical, 
# crystal, experimental, refinement or atomic coordinate data resulting 
# from the CCDC's data processing and validation procedures.
#
#######################################################################

data_RULYEE
_chemical_compound_source        'Plant Gueldenstaedtia multiflora'
_chemical_name_common            
'(-)-(6aR,11aR)-3-Hydroxy-9-methoxypterocarpan 8-O-alpha-D-ribofuranoside'
_chemical_formula_moiety         'C21 H22 O9'
_chemical_name_systematic        
2-((3-Hydroxy-9-methoxy-6a,11a-dihydro-6H-[1]benzofuro[3,2-c]chromen-8-yl)oxy)-5-(hydroxymethyl)tetrahydrofuran-3,4-diol
_chemical_properties_biological  'cytotoxic activity'
_symmetry_cell_setting           monoclinic
_symmetry_space_group_name_H-M   'P 21'
_symmetry_Int_Tables_number      4
_space_group_name_Hall           'P 2yb'
loop_
_symmetry_equiv_pos_site_id
_symmetry_equiv_pos_as_xyz
1 x,y,z
2 -x,1/2+y,-z
_cell_length_a                   4.8952(3)
_cell_length_b                   11.6874(8)
_cell_length_c                   16.2106(10)
_cell_angle_alpha                90
_cell_angle_beta                 90.128(4)
_cell_angle_gamma                90
_cell_volume                     927.441
_exptl_crystal_colour            colorless
_exptl_crystal_description       prism
_cell_formula_units_Z            2
_exptl_crystal_recrystallization_method methanol
loop_
_atom_site_label
_atom_site_type_symbol
_atom_site_fract_x
_atom_site_fract_y
_atom_site_fract_z
O1 O 1.0229(8) 0.6385(4) 0.4735(2)
O2 O 1.2707(8) 0.3663(4) 0.4015(3)
H1 H 1.388(14) 0.344(8) 0.367(4)
O3 O 0.8916(8) 0.3975(4) 0.5346(2)
H2 H 0.910(16) 0.327(3) 0.529(5)
O4 O 1.2236(9) 0.7564(5) 0.6165(3)
H3 H 1.366(12) 0.792(7) 0.620(5)
O5 O 0.2176(8) 1.0345(4) 0.2518(2)
O6 O 0.8756(7) 0.5199(4) 0.3652(2)
O7 O 0.6226(8) 0.4113(4) 0.2482(2)
O8 O -0.2404(10) 1.2393(5) 0.0454(3)
H4 H -0.2593 1.2442 -0.0054
O9 O 0.3831(8) 0.7731(4) 0.1200(2)
C1 C 0.2459(12) 1.0025(6) 0.0264(4)
H5 H 0.3335 0.9590 -0.0145
C2 C 0.0662(12) 1.0883(6) 0.0034(4)
H6 H 0.0302 1.1021 -0.0527
C3 C -0.0598(12) 1.1536(6) 0.0634(3)
C4 C -0.0074(11) 1.1345(6) 0.1473(3)
H7 H -0.0916 1.1793 0.1881
C5 C 0.3144(10) 0.9216(5) 0.2744(3)
H8 H 0.1704 0.8653 0.2636
H9 H 0.3551 0.9201 0.3337
C6 C 0.7591(10) 0.7047(6) 0.3051(3)
H10 H 0.8461 0.7446 0.3481
C7 C 0.7566(10) 0.5878(6) 0.3049(3)
C8 C 0.6164(10) 0.5253(6) 0.2418(3)
C9 C 0.4871(11) 0.5852(6) 0.1786(3)
H11 H 0.3913 0.5463 0.1369
C10 C 0.4094(14) 0.3470(6) 0.2073(4)
H12 H 0.2339 0.3822 0.2184
H13 H 0.4090 0.2690 0.2278
H14 H 0.4422 0.3465 0.1483
C11 C 1.1051(10) 0.5678(5) 0.4074(3)
H15 H 1.2223 0.6109 0.3686
C12 C 1.2669(10) 0.4679(6) 0.4472(3)
H16 H 1.4584 0.4935 0.4541
C13 C 1.1395(10) 0.4597(5) 0.5334(3)
H17 H 1.2716 0.4279 0.5736
C14 C 1.0776(9) 0.5834(5) 0.5523(3)
H18 H 0.9111 0.5872 0.5868
C15 C 1.3074(13) 0.6460(6) 0.5961(4)
H19 H 1.3587 0.6044 0.6463
H20 H 1.4677 0.6497 0.5601
C16 C 0.1725(10) 1.0476(5) 0.1681(3)
C17 C 0.5713(10) 0.8888(5) 0.2261(3)
H21 H 0.7288 0.9390 0.2390
C18 C 0.5025(10) 0.7014(6) 0.1788(3)
C19 C 0.4988(10) 0.8892(5) 0.1345(3)
H22 H 0.6678 0.8982 0.1018
C20 C 0.6320(10) 0.7648(6) 0.2411(3)
C21 C 0.2997(11) 0.9790(6) 0.1099(3)
loop_
_geom_bond_atom_site_label_1
_geom_bond_atom_site_label_2
_geom_bond_site_symmetry_1
_geom_bond_site_symmetry_2
O1 C11 1_555 1_555
O2 H1 1_555 1_555
O3 H2 1_555 1_555
O4 H3 1_555 1_555
O5 C5 1_555 1_555
O6 C7 1_555 1_555
O7 C8 1_555 1_555
O8 H4 1_555 1_555
O9 C18 1_555 1_555
C1 H5 1_555 1_555
C2 C1 1_555 1_555
H6 C2 1_555 1_555
C3 O8 1_555 1_555
C4 C3 1_555 1_555
H7 C4 1_555 1_555
C5 H8 1_555 1_555
H9 C5 1_555 1_555
C6 H10 1_555 1_555
C7 C6 1_555 1_555
C8 C7 1_555 1_555
C9 C8 1_555 1_555
H11 C9 1_555 1_555
C10 O7 1_555 1_555
H12 C10 1_555 1_555
H13 C10 1_555 1_555
H14 C10 1_555 1_555
C11 O6 1_555 1_555
H15 C11 1_555 1_555
C12 O2 1_555 1_555
H16 C12 1_555 1_555
C13 O3 1_555 1_555
H17 C13 1_555 1_555
C14 O1 1_555 1_555
H18 C14 1_555 1_555
C15 O4 1_555 1_555
H19 C15 1_555 1_555
H20 C15 1_555 1_555
C16 O5 1_555 1_555
C17 C5 1_555 1_555
H21 C17 1_555 1_555
C18 C9 1_555 1_555
C19 O9 1_555 1_555
H22 C19 1_555 1_555
C20 C6 1_555 1_555
C21 C1 1_555 1_555
C2 C3 1_555 1_555
C4 C16 1_555 1_555
C11 C12 1_555 1_555
C12 C13 1_555 1_555
C13 C14 1_555 1_555
C14 C15 1_555 1_555
C16 C21 1_555 1_555
C17 C19 1_555 1_555
C17 C20 1_555 1_555
C18 C20 1_555 1_555
C19 C21 1_555 1_555

#END
