
#######################################################################
#
#                 Cambridge Crystallographic Data Centre
#                                CCDC 
#
#######################################################################
#
# If this CIF has been generated from an entry in the Cambridge 
# Structural Database, then it will include bibliographic, chemical, 
# crystal, experimental, refinement or atomic coordinate data resulting 
# from the CCDC's data processing and validation procedures.
#
#######################################################################

data_RUNGEN
_chemical_compound_source        'Sinomenium acutum'
_chemical_name_common            sinoracutine
_chemical_formula_moiety         'C17 H17 N1 O3'
_chemical_name_systematic        
11-Hydroxy-10-methoxy-3-methyl-1,2,3,3a-tetrahydro-4H-benzo[6,7]indeno[1,7a-b]pyrrol-4-one
_chemical_properties_biological  'cell-protective effects'
_symmetry_cell_setting           monoclinic
_symmetry_space_group_name_H-M   'P 21/n'
_symmetry_Int_Tables_number      14
_space_group_name_Hall           '-P 2yn'
loop_
_symmetry_equiv_pos_site_id
_symmetry_equiv_pos_as_xyz
1 x,y,z
2 1/2-x,1/2+y,1/2-z
3 -x,-y,-z
4 1/2+x,1/2-y,1/2+z
_cell_length_a                   8.6507(14)
_cell_length_b                   10.4644(16)
_cell_length_c                   16.078(3)
_cell_angle_alpha                90
_cell_angle_beta                 104.905(3)
_cell_angle_gamma                90
_cell_volume                     1406.48
_exptl_crystal_colour            colorless
_cell_formula_units_Z            4
_exptl_crystal_recrystallization_method chloroform/methanol
loop_
_atom_site_label
_atom_site_type_symbol
_atom_site_fract_x
_atom_site_fract_y
_atom_site_fract_z
N1 N 0.33962(18) 0.60076(13) 0.14981(8)
O1 O 0.60774(14) 1.04969(10) 0.23962(7)
O2 O 0.48183(15) 0.82604(12) 0.20687(7)
O3 O 0.31208(15) 0.43582(11) -0.01214(7)
C1 C 0.3356(2) 1.11360(17) 0.02775(12)
C2 C 0.4508(2) 1.13588(17) 0.10385(11)
C3 C 0.4977(2) 1.03794(16) 0.16194(10)
C4 C 0.4312(2) 0.91524(15) 0.14347(10)
C5 C 0.3516(2) 0.64125(15) 0.06446(10)
C6 C 0.2816(2) 0.54988(17) -0.01101(11)
C7 C 0.1781(2) 0.62537(18) -0.07826(12)
C8 C 0.0957(2) 0.85490(19) -0.10000(12)
C9 C 0.1493(2) 0.97057(19) -0.07171(12)
C10 C 0.2708(2) 0.99270(15) 0.00787(10)
C11 C 0.32181(19) 0.89052(14) 0.06575(10)
C12 C 0.24413(19) 0.76078(14) 0.04404(10)
C13 C 0.16537(19) 0.74520(16) -0.05062(10)
C14 C 0.1208(2) 0.73572(18) 0.09946(14)
C15 C 0.1684(3) 0.6078(2) 0.14319(15)
C16 C 0.6712(3) 1.1737(2) 0.26477(16)
C17 C 0.4139(4) 0.4781(2) 0.18234(16)
H1 H 0.3025(19) 1.1825(13) -0.0153(9)
H2 H 0.4960(17) 1.2221(14) 0.1137(9)
H3 H 0.4605(18) 0.6593(13) 0.0647(8)
H4 H 0.1333(18) 0.5923(15) -0.1365(10)
H5 H 0.019(2) 0.8423(15) -0.1558(11)
H6 H 0.1154(18) 1.0466(15) -0.1061(9)
H7 H 0.1314(19) 0.8038(13) 0.1434(9)
H8 H 0.013(2) 0.7397(15) 0.0627(10)
H9 H 0.151(2) 0.6049(16) 0.2019(9)
H10 H 0.1102(18) 0.5378(14) 0.1060(10)
H11 H 0.738(2) 1.1641(17) 0.3232(12)
H12 H 0.5825(19) 1.2330(16) 0.2626(11)
H13 H 0.732(2) 1.2060(17) 0.2256(11)
H14 H 0.405(2) 0.4723(16) 0.2423(9)
H15 H 0.525(3) 0.477(2) 0.1767(14)
H16 H 0.355(2) 0.4069(16) 0.1475(11)
H17 H 0.430(2) 0.7467(18) 0.1901(11)
loop_
_geom_bond_atom_site_label_1
_geom_bond_atom_site_label_2
_geom_bond_site_symmetry_1
_geom_bond_site_symmetry_2
N1 C5 1_555 1_555
O1 C3 1_555 1_555
O2 C4 1_555 1_555
O3 C6 1_555 1_555
C1 C2 1_555 1_555
C2 C3 1_555 1_555
C3 C4 1_555 1_555
C4 C11 1_555 1_555
C5 C6 1_555 1_555
C6 C7 1_555 1_555
C7 C13 1_555 1_555
C8 C9 1_555 1_555
C9 C10 1_555 1_555
C10 C1 1_555 1_555
C11 C10 1_555 1_555
C12 C5 1_555 1_555
C13 C8 1_555 1_555
C14 C12 1_555 1_555
C15 N1 1_555 1_555
C16 O1 1_555 1_555
C17 N1 1_555 1_555
H1 C1 1_555 1_555
H2 C2 1_555 1_555
H3 C5 1_555 1_555
H4 C7 1_555 1_555
H5 C8 1_555 1_555
H6 C9 1_555 1_555
H7 C14 1_555 1_555
H8 C14 1_555 1_555
H9 C15 1_555 1_555
H10 C15 1_555 1_555
H11 C16 1_555 1_555
H12 C16 1_555 1_555
H13 C16 1_555 1_555
H14 C17 1_555 1_555
H15 C17 1_555 1_555
H16 C17 1_555 1_555
H17 O2 1_555 1_555
C11 C12 1_555 1_555
C12 C13 1_555 1_555
C14 C15 1_555 1_555

#END
