
#######################################################################
#
#                 Cambridge Crystallographic Data Centre
#                                CCDC 
#
#######################################################################
#
# If this CIF has been generated from an entry in the Cambridge 
# Structural Database, then it will include bibliographic, chemical, 
# crystal, experimental, refinement or atomic coordinate data resulting 
# from the CCDC's data processing and validation procedures.
#
#######################################################################

data_RUNQEW
_chemical_formula_moiety         'C88 H40 O16,2(C1 H1 Cl3)'
_chemical_name_systematic        
'Octaethyl tetracyclopropa(1,9:16,17:44,45:52,60)(5,6)C60fullerene-octacarboxylate chloroform solvate'
_symmetry_cell_setting           triclinic
_symmetry_space_group_name_H-M   'P -1'
_symmetry_Int_Tables_number      2
_space_group_name_Hall           '-P 1'
loop_
_symmetry_equiv_pos_site_id
_symmetry_equiv_pos_as_xyz
1 x,y,z
2 -x,-y,-z
_cell_length_a                   9.894(6)
_cell_length_b                   13.360(4)
_cell_length_c                   13.685(9)
_cell_angle_alpha                75.06(4)
_cell_angle_beta                 71.56(4)
_cell_angle_gamma                73.65(3)
_cell_volume                     1618.11
_exptl_crystal_colour            black
_exptl_crystal_description       plate
_chemical_melting_point          'above 270deg.C'
_cell_formula_units_Z            1
loop_
_atom_site_label
_atom_site_type_symbol
_atom_site_fract_x
_atom_site_fract_y
_atom_site_fract_z
Cl1 Cl 0.5793(1) -0.5958(1) -0.7554(1)
Cl2 Cl 0.4156(1) -0.3887(1) -0.7149(1)
Cl3 Cl 0.7308(1) -0.4288(1) -0.7952(1)
C1 C 0.5695(4) -0.4579(3) -0.7976(3)
H1 H 0.5562(62) -0.4442(44) -0.8648(49)
C2 C -0.0893(3) 0.2057(2) -0.2279(2)
C3 C 0.0676(3) 0.1369(2) -0.2806(2)
C4 C 0.1908(3) 0.1379(2) -0.2400(2)
C5 C 0.1754(3) 0.2006(2) -0.1699(2)
C6 C 0.0318(3) 0.2621(2) -0.1212(2)
C7 C -0.0938(3) 0.2598(2) -0.1445(2)
C8 C -0.2248(3) 0.2516(2) -0.0623(2)
C9 C -0.2954(3) 0.1807(2) -0.0854(2)
C10 C -0.2086(3) 0.1460(2) -0.1812(2)
C11 C -0.1908(3) 0.0424(2) -0.1920(2)
C12 C -0.0471(3) -0.0196(2) -0.2400(2)
C13 C 0.0756(3) 0.0237(2) -0.2766(2)
C14 C 0.2109(3) -0.0379(2) -0.2553(2)
C15 C 0.2825(3) 0.0327(2) -0.2323(2)
C16 C 0.3640(3) -0.0033(2) -0.1596(2)
C17 C 0.3471(3) 0.0609(2) -0.0861(2)
C18 C 0.2557(3) 0.1614(2) -0.0909(2)
C19 C 0.1659(3) 0.1980(2) 0.0045(2)
C20 C 0.0273(3) 0.2601(2) -0.0151(2)
C21 C -0.1020(3) 0.2548(2) 0.0642(2)
C22 C -0.2324(3) 0.2544(2) 0.0399(2)
C23 C -0.3215(3) 0.1927(2) 0.1330(2)
C24 C 0.3983(3) -0.1170(2) -0.1081(2)
C25 C -0.3724(3) 0.1146(2) -0.0048(2)
C26 C 0.3501(3) -0.0070(2) 0.0153(2)
C27 C -0.2644(3) -0.0285(2) -0.1065(2)
C28 C 0.1700(3) 0.1332(2) 0.1012(2)
C29 C -0.0361(3) -0.1268(2) -0.1835(2)
C30 C -0.0971(3) 0.1869(2) 0.1653(2)
C31 C 0.2238(3) -0.1425(2) -0.2044(2)
C32 C -0.0134(3) 0.2315(2) -0.3427(2)
C33 C -0.0789(3) 0.2151(2) -0.4220(2)
O1 O -0.0646(3) 0.1331(2) -0.4470(2)
O2 O -0.1566(2) 0.3092(2) -0.4585(2)
C34 C -0.2058(4) 0.3141(3) -0.5501(3)
C35 C -0.0838(4) 0.3310(3) -0.6474(3)
C36 C 0.0551(3) 0.3278(2) -0.3834(2)
O3 O 0.0266(3) 0.4024(2) -0.3418(2)
O4 O 0.1530(2) 0.3136(2) -0.4744(2)
C37 C 0.2382(4) 0.3957(3) -0.5270(3)
C38 C 0.3685(4) 0.3722(3) -0.4830(3)
C39 C -0.4868(3) 0.2056(2) 0.1674(2)
C40 C -0.5734(3) 0.3045(2) 0.1145(3)
O5 O -0.5389(2) 0.3411(2) 0.0230(2)
O6 O -0.6878(2) 0.3477(2) 0.1854(2)
C41 C -0.7698(3) 0.4528(2) 0.1470(3)
C42 C -0.8732(4) 0.4453(3) 0.0904(3)
C43 C -0.5559(3) 0.1703(2) 0.2833(3)
O7 O -0.5222(2) 0.1875(2) 0.3531(2)
O8 O -0.6581(2) 0.1181(2) 0.2936(2)
C44 C -0.7313(4) 0.0740(3) 0.4015(3)
C45 C -0.6440(4) -0.0335(3) 0.4362(3)
H2 H -0.2892 0.3716 -0.5535
H3 H -0.2334 0.2492 -0.5447
H4 H -0.1145 0.3344 -0.7083
H5 H -0.0573 0.3963 -0.6522
H6 H -0.0012 0.2731 -0.6433
H7 H 0.1782 0.4641 -0.5155
H8 H 0.2706 0.3966 -0.6011
H9 H 0.4250 0.4255 -0.5165
H10 H 0.3349 0.3719 -0.4090
H11 H 0.4280 0.3039 -0.4952
H12 H -0.7027 0.4949 0.1004
H13 H -0.8241 0.4879 0.2052
H14 H -0.9250 0.5152 0.0664
H15 H -0.8190 0.4114 0.0314
H16 H -0.9415 0.4043 0.1372
H17 H -0.8277 0.0689 0.4051
H18 H -0.7398 0.1201 0.4476
H19 H -0.6907 -0.0627 0.5067
H20 H -0.6365 -0.0792 0.3900
H21 H -0.5481 -0.0276 0.4328
C26A C -0.3501(3) 0.0070(2) -0.0153(2)
C17A C -0.3471(3) -0.0609(2) 0.0861(2)
C16A C -0.3640(3) 0.0033(2) 0.1596(2)
C15A C -0.2825(3) -0.0327(2) 0.2323(2)
C4A C -0.1908(3) -0.1379(2) 0.2400(2)
C3A C -0.0676(3) -0.1369(2) 0.2806(2)
C2A C 0.0893(3) -0.2057(2) 0.2279(2)
C7A C 0.0938(3) -0.2598(2) 0.1445(2)
C6A C -0.0318(3) -0.2621(2) 0.1212(2)
C5A C -0.1754(3) -0.2006(2) 0.1699(2)
C18A C -0.2557(3) -0.1614(2) 0.0909(2)
C19A C -0.1659(3) -0.1980(2) -0.0045(2)
C20A C -0.0273(3) -0.2601(2) 0.0151(2)
C21A C 0.1020(3) -0.2548(2) -0.0642(2)
C22A C 0.2324(3) -0.2544(2) -0.0399(2)
C8A C 0.2248(3) -0.2516(2) 0.0623(2)
C9A C 0.2954(3) -0.1807(2) 0.0854(2)
C10A C 0.2086(3) -0.1460(2) 0.1812(2)
C32A C 0.0134(3) -0.2315(2) 0.3427(2)
C13A C -0.0756(3) -0.0237(2) 0.2766(2)
C12A C 0.0471(3) 0.0196(2) 0.2400(2)
C11A C 0.1908(3) -0.0424(2) 0.1920(2)
C27A C 0.2644(3) 0.0285(2) 0.1065(2)
C25A C 0.3724(3) -0.1146(2) 0.0048(2)
C23A C 0.3215(3) -0.1927(2) -0.1330(2)
C30A C 0.0971(3) -0.1869(2) -0.1653(2)
C28A C -0.1700(3) -0.1332(2) -0.1012(2)
C39A C 0.4868(3) -0.2056(2) -0.1674(2)
C40A C 0.5734(3) -0.3045(2) -0.1145(3)
O5A O 0.5389(2) -0.3411(2) -0.0230(2)
O6A O 0.6878(2) -0.3477(2) -0.1854(2)
C41A C 0.7698(3) -0.4528(2) -0.1470(3)
C42A C 0.8732(4) -0.4453(3) -0.0904(3)
H14A H 0.9250 -0.5152 -0.0664
H15A H 0.8190 -0.4114 -0.0314
H16A H 0.9415 -0.4043 -0.1372
H12A H 0.7027 -0.4949 -0.1004
H13A H 0.8241 -0.4879 -0.2052
C43A C 0.5559(3) -0.1703(2) -0.2833(3)
O7A O 0.5222(2) -0.1875(2) -0.3531(2)
O8A O 0.6581(2) -0.1181(2) -0.2936(2)
C44A C 0.7313(4) -0.0740(3) -0.4015(3)
C45A C 0.6440(4) 0.0335(3) -0.4362(3)
H19A H 0.6907 0.0627 -0.5067
H20A H 0.6365 0.0792 -0.3900
H21A H 0.5481 0.0276 -0.4328
H17A H 0.8277 -0.0689 -0.4051
H18A H 0.7398 -0.1201 -0.4476
C29A C 0.0361(3) 0.1268(2) 0.1835(2)
C31A C -0.2238(3) 0.1425(2) 0.2044(2)
C14A C -0.2109(3) 0.0379(2) 0.2553(2)
C24A C -0.3983(3) 0.1170(2) 0.1081(2)
C33A C 0.0789(3) -0.2151(2) 0.4220(2)
O1A O 0.0646(3) -0.1331(2) 0.4470(2)
O2A O 0.1566(2) -0.3092(2) 0.4585(2)
C34A C 0.2058(4) -0.3141(3) 0.5501(3)
C35A C 0.0838(4) -0.3310(3) 0.6474(3)
H4A H 0.1145 -0.3344 0.7083
H5A H 0.0573 -0.3963 0.6522
H6A H 0.0012 -0.2731 0.6433
H2A H 0.2892 -0.3716 0.5535
H3A H 0.2334 -0.2492 0.5447
C36A C -0.0551(3) -0.3278(2) 0.3834(2)
O3A O -0.0266(3) -0.4024(2) 0.3418(2)
O4A O -0.1530(2) -0.3136(2) 0.4744(2)
C37A C -0.2382(4) -0.3957(3) 0.5270(3)
C38A C -0.3685(4) -0.3722(3) 0.4830(3)
H9A H -0.4250 -0.4255 0.5165
H10A H -0.3349 -0.3719 0.4090
H11A H -0.4280 -0.3039 0.4952
H7A H -0.1782 -0.4641 0.5155
H8A H -0.2706 -0.3966 0.6011
loop_
_geom_bond_atom_site_label_1
_geom_bond_atom_site_label_2
_geom_bond_site_symmetry_1
_geom_bond_site_symmetry_2
Cl1 C1 1_555 1_555
Cl2 C1 1_555 1_555
Cl3 C1 1_555 1_555
C1 H1 1_555 1_555
C2 C3 1_555 1_555
C3 C4 1_555 1_555
C4 C5 1_555 1_555
C5 C6 1_555 1_555
C6 C7 1_555 1_555
C7 C2 1_555 1_555
C8 C7 1_555 1_555
C9 C8 1_555 1_555
C10 C2 1_555 1_555
C11 C10 1_555 1_555
C12 C11 1_555 1_555
C13 C3 1_555 1_555
C14 C13 1_555 1_555
C15 C4 1_555 1_555
C16 C15 1_555 1_555
C17 C16 1_555 1_555
C18 C5 1_555 1_555
C19 C18 1_555 1_555
C20 C6 1_555 1_555
C21 C20 1_555 1_555
C22 C8 1_555 1_555
C23 C22 1_555 1_555
C24 C16 1_555 1_555
C25 C9 1_555 1_555
C26 C17 1_555 1_555
C27 C11 1_555 1_555
C28 C19 1_555 1_555
C29 C12 1_555 1_555
C30 C21 1_555 1_555
C31 C14 1_555 1_555
C32 C2 1_555 1_555
C33 C32 1_555 1_555
O1 C33 1_555 1_555
O2 C33 1_555 1_555
C34 O2 1_555 1_555
C35 C34 1_555 1_555
C36 C32 1_555 1_555
O3 C36 1_555 1_555
O4 C36 1_555 1_555
C37 O4 1_555 1_555
C38 C37 1_555 1_555
C39 C23 1_555 1_555
C40 C39 1_555 1_555
O5 C40 1_555 1_555
O6 C40 1_555 1_555
C41 O6 1_555 1_555
C42 C41 1_555 1_555
C43 C39 1_555 1_555
O7 C43 1_555 1_555
O8 C43 1_555 1_555
C44 O8 1_555 1_555
C45 C44 1_555 1_555
H2 C34 1_555 1_555
H3 C34 1_555 1_555
H4 C35 1_555 1_555
H5 C35 1_555 1_555
H6 C35 1_555 1_555
H7 C37 1_555 1_555
H8 C37 1_555 1_555
H9 C38 1_555 1_555
H10 C38 1_555 1_555
H11 C38 1_555 1_555
H12 C41 1_555 1_555
H13 C41 1_555 1_555
H14 C42 1_555 1_555
H15 C42 1_555 1_555
H16 C42 1_555 1_555
H17 C44 1_555 1_555
H18 C44 1_555 1_555
H19 C45 1_555 1_555
H20 C45 1_555 1_555
H21 C45 1_555 1_555
C26A C25 1_555 1_555
C17A C26A 1_555 1_555
C16A C17A 1_555 1_555
C15A C16A 1_555 1_555
C4A C15A 1_555 1_555
C3A C4A 1_555 1_555
C2A C3A 1_555 1_555
C7A C2A 1_555 1_555
C6A C7A 1_555 1_555
C5A C4A 1_555 1_555
C18A C17A 1_555 1_555
C19A C18A 1_555 1_555
C20A C6A 1_555 1_555
C21A C20A 1_555 1_555
C22A C21A 1_555 1_555
C8A C7A 1_555 1_555
C9A C8A 1_555 1_555
C10A C2A 1_555 1_555
C32A C3A 1_555 1_555
C13A C3A 1_555 1_555
C12A C13A 1_555 1_555
C11A C10A 1_555 1_555
C27A C26 1_555 1_555
C25A C24 1_555 1_555
C23A C24 1_555 1_555
C30A C29 1_555 1_555
C28A C27 1_555 1_555
C39A C24 1_555 1_555
C40A C39A 1_555 1_555
O5A C40A 1_555 1_555
O6A C40A 1_555 1_555
C41A O6A 1_555 1_555
C42A C41A 1_555 1_555
H14A C42A 1_555 1_555
H15A C42A 1_555 1_555
H16A C42A 1_555 1_555
H12A C41A 1_555 1_555
H13A C41A 1_555 1_555
C43A C39A 1_555 1_555
O7A C43A 1_555 1_555
O8A C43A 1_555 1_555
C44A O8A 1_555 1_555
C45A C44A 1_555 1_555
H19A C45A 1_555 1_555
H20A C45A 1_555 1_555
H21A C45A 1_555 1_555
H17A C44A 1_555 1_555
H18A C44A 1_555 1_555
C29A C28 1_555 1_555
C31A C23 1_555 1_555
C14A C15A 1_555 1_555
C24A C23 1_555 1_555
C33A C32A 1_555 1_555
O1A C33A 1_555 1_555
O2A C33A 1_555 1_555
C34A O2A 1_555 1_555
C35A C34A 1_555 1_555
H4A C35A 1_555 1_555
H5A C35A 1_555 1_555
H6A C35A 1_555 1_555
H2A C34A 1_555 1_555
H3A C34A 1_555 1_555
C36A C32A 1_555 1_555
O3A C36A 1_555 1_555
O4A C36A 1_555 1_555
C37A O4A 1_555 1_555
C38A C37A 1_555 1_555
H9A C38A 1_555 1_555
H10A C38A 1_555 1_555
H11A C38A 1_555 1_555
H7A C37A 1_555 1_555
H8A C37A 1_555 1_555
C3 C32 1_555 1_555
C9 C10 1_555 1_555
C12 C13 1_555 1_555
C14 C15 1_555 1_555
C17 C18 1_555 1_555
C19 C20 1_555 1_555
C21 C22 1_555 1_555
C25 C24A 1_555 1_555
C26 C25A 1_555 1_555
C27 C26A 1_555 1_555
C28 C27A 1_555 1_555
C29 C28A 1_555 1_555
C30 C29A 1_555 1_555
C30 C31A 1_555 1_555
C31 C23A 1_555 1_555
C31 C30A 1_555 1_555
C39 C24A 1_555 1_555
C16A C24A 1_555 1_555
C2A C32A 1_555 1_555
C6A C5A 1_555 1_555
C5A C18A 1_555 1_555
C19A C20A 1_555 1_555
C19A C28A 1_555 1_555
C21A C30A 1_555 1_555
C22A C8A 1_555 1_555
C22A C23A 1_555 1_555
C9A C10A 1_555 1_555
C9A C25A 1_555 1_555
C13A C14A 1_555 1_555
C12A C11A 1_555 1_555
C12A C29A 1_555 1_555
C11A C27A 1_555 1_555
C23A C39A 1_555 1_555
C31A C14A 1_555 1_555

#END
