
#######################################################################
#
#                 Cambridge Crystallographic Data Centre
#                                CCDC 
#
#######################################################################
#
# If this CIF has been generated from an entry in the Cambridge 
# Structural Database, then it will include bibliographic, chemical, 
# crystal, experimental, refinement or atomic coordinate data resulting 
# from the CCDC's data processing and validation procedures.
#
#######################################################################

data_RUPKUI
_chemical_formula_moiety         'C38 H48 O2 Si4,0.5(C6 H14)'
_chemical_name_systematic        
1,1,2,2,6,6,7,7-Octamethyl-4,9-bis(diphenylmethylene)-1,2,6,7-tetrasila-3,10-dioxacyclodecane
_symmetry_cell_setting           monoclinic
_symmetry_space_group_name_H-M   'P 21/c'
_symmetry_Int_Tables_number      14
_space_group_name_Hall           '-P 2ybc'
loop_
_symmetry_equiv_pos_site_id
_symmetry_equiv_pos_as_xyz
1 x,y,z
2 -x,1/2+y,1/2-z
3 -x,-y,-z
4 x,1/2-y,1/2+z
_cell_length_a                   29.901(6)
_cell_length_b                   9.926(1)
_cell_length_c                   14.221(4)
_cell_angle_alpha                90
_cell_angle_beta                 97.78(2)
_cell_angle_gamma                90
_cell_volume                     4181.9
_exptl_crystal_colour            colorless
_exptl_crystal_description       block
_chemical_melting_point          132-134deg.C
_cell_formula_units_Z            4
_exptl_crystal_recrystallization_method hexane
loop_
_atom_site_label
_atom_site_type_symbol
_atom_site_fract_x
_atom_site_fract_y
_atom_site_fract_z
Si1 Si 0.27094(4) 0.6427(1) 0.06167(8)
Si2 Si 0.19426(4) 0.6747(1) -0.00301(8)
Si3 Si 0.22647(4) 0.2642(1) -0.12782(8)
Si4 Si 0.25569(4) 0.4253(1) -0.22332(8)
O1 O 0.29408(8) 0.5208(3) 0.0026(2)
O2 O 0.1791(1) 0.5538(3) -0.0820(2)
C1 C 0.2759(2) 0.5790(5) 0.1859(3)
C2 C 0.3048(1) 0.7984(4) 0.0550(3)
C3 C 0.1566(2) 0.6695(5) 0.0907(3)
C4 C 0.1854(2) 0.8322(4) -0.0728(3)
C5 C 0.1608(1) 0.4309(4) -0.0602(3)
C6 C 0.1160(1) 0.4130(4) -0.0736(3)
C7 C 0.1962(1) 0.3285(4) -0.0289(3)
C8 C 0.1838(1) 0.1681(4) -0.2103(3)
C9 C 0.2726(1) 0.1500(4) -0.0724(3)
C10 C 0.2094(1) 0.4918(5) -0.3133(3)
C11 C 0.2977(1) 0.3343(4) -0.2867(3)
C12 C 0.2849(1) 0.5780(4) -0.1627(3)
C13 C 0.3162(1) 0.5483(4) -0.0744(3)
C14 C 0.3615(1) 0.5394(4) -0.0673(3)
C18 C 0.0901(2) 0.5936(5) -0.1930(3)
C19 C 0.0601(2) 0.6933(6) -0.2275(4)
C20 C 0.0238(2) 0.7215(6) -0.1845(5)
C21 C 0.0172(2) 0.6518(7) -0.1055(6)
C22 C 0.0467(2) 0.5511(6) -0.0703(5)
C23 C 0.0841(1) 0.5204(4) -0.1141(4)
C24 C 0.1011(2) 0.2442(6) 0.0500(4)
C25 C 0.0834(2) 0.1223(7) 0.0754(6)
C26 C 0.0608(2) 0.0393(8) 0.0076(8)
C27 C 0.0550(2) 0.0812(7) -0.0841(7)
C28 C 0.0725(2) 0.2010(6) -0.1104(5)
C29 C 0.0964(1) 0.2841(5) -0.0440(4)
C30 C 0.3857(1) 0.7173(4) -0.1755(3)
C31 C 0.4076(2) 0.7579(5) -0.2500(3)
C32 C 0.4278(1) 0.6653(5) -0.3011(3)
C33 C 0.4273(1) 0.5328(5) -0.2774(3)
C34 C 0.4060(1) 0.4906(4) -0.2011(3)
C35 C 0.3844(1) 0.5822(4) -0.1497(3)
C36 C 0.4362(1) 0.5394(4) 0.0339(3)
C37 C 0.4658(1) 0.4942(5) 0.1107(3)
C38 C 0.4520(2) 0.4019(5) 0.1732(3)
C39 C 0.4084(2) 0.3557(5) 0.1580(3)
C40 C 0.3784(1) 0.4011(4) 0.0824(3)
C41 C 0.3916(1) 0.4939(4) 0.0184(3)
H1 H 0.3073 0.5674 0.2097
H2 H 0.2627 0.6423 0.2250
H3 H 0.2607 0.4940 0.1867
H4 H 0.3355 0.7821 0.0819
H5 H 0.3038 0.8250 -0.0102
H6 H 0.2924 0.8690 0.0897
H7 H 0.1258 0.6826 0.0632
H8 H 0.1597 0.5834 0.1217
H9 H 0.1653 0.7394 0.1363
H10 H 0.1540 0.8403 -0.0976
H11 H 0.1943 0.9074 -0.0321
H12 H 0.2031 0.8311 -0.1243
H13 H 0.2178 0.3668 0.0199
H14 H 0.1821 0.2355 -0.0018
H15 H 0.1702 0.0993 -0.1761
H16 H 0.1608 0.2282 -0.2394
H17 H 0.1989 0.1273 -0.2584
H18 H 0.2605 0.0842 -0.0334
H19 H 0.2858 0.1053 -0.1218
H20 H 0.2953 0.2021 -0.0343
H21 H 0.2214 0.5580 -0.3525
H22 H 0.1962 0.4194 -0.3524
H23 H 0.1868 0.5327 -0.2808
H24 H 0.3108 0.3959 -0.3272
H25 H 0.3210 0.2963 -0.2414
H26 H 0.2824 0.2636 -0.3243
H27 H 0.2622 0.6397 -0.1476
H28 H 0.3018 0.6222 -0.2065
H36 H 0.1159 0.5750 -0.2242
H37 H 0.0642 0.7396 -0.2850
H38 H 0.0025 0.7888 -0.2100
H39 H -0.0072 0.6781 -0.0719
H40 H 0.0424 0.5029 -0.0137
H41 H 0.1172 0.3017 0.0971
H42 H 0.0863 0.0966 0.1410
H43 H 0.0497 -0.0460 0.0265
H44 H 0.0388 0.0209 -0.1292
H45 H 0.0677 0.2277 -0.1759
H46 H 0.3712 0.7828 -0.1402
H47 H 0.4079 0.8511 -0.2678
H48 H 0.4433 0.6931 -0.3527
H49 H 0.4421 0.4684 -0.3131
H50 H 0.4052 0.3964 -0.1860
H51 H 0.4464 0.6044 -0.0085
H52 H 0.4965 0.5254 0.1207
H53 H 0.4726 0.3704 0.2263
H54 H 0.3985 0.2916 0.2014
H55 H 0.3479 0.3690 0.0737
C15 C 0.4016(2) 0.3944(7) 0.4279(4)
C16 C 0.4501(2) 0.3751(6) 0.4626(4)
C17 C 0.4765(2) 0.5058(6) 0.4763(4)
H29 H 0.3866 0.3090 0.4194
H30 H 0.3885 0.4464 0.4741
H31 H 0.3982 0.4420 0.3686
H32 H 0.4531 0.3256 0.5211
H33 H 0.4627 0.3213 0.4167
H34 H 0.4612 0.5639 0.5156
H35 H 0.4761 0.5495 0.4160
C17B C 0.5235(2) 0.4942(6) 0.5237(4)
C16B C 0.5499(2) 0.6249(6) 0.5374(4)
C15B C 0.5984(2) 0.6056(7) 0.5721(4)
H29B H 0.6134 0.6910 0.5806
H30B H 0.6115 0.5536 0.5259
H31B H 0.6018 0.5580 0.6314
H32B H 0.5469 0.6744 0.4789
H33B H 0.5373 0.6787 0.5833
H34B H 0.5388 0.4361 0.4844
H35B H 0.5239 0.4505 0.5840
loop_
_geom_bond_atom_site_label_1
_geom_bond_atom_site_label_2
_geom_bond_site_symmetry_1
_geom_bond_site_symmetry_2
Si1 Si2 1_555 1_555
Si2 O2 1_555 1_555
Si3 Si4 1_555 1_555
Si4 C10 1_555 1_555
O1 Si1 1_555 1_555
O2 C5 1_555 1_555
C1 Si1 1_555 1_555
C2 Si1 1_555 1_555
C3 Si2 1_555 1_555
C4 Si2 1_555 1_555
C5 C6 1_555 1_555
C6 C23 1_555 1_555
C7 Si3 1_555 1_555
C8 Si3 1_555 1_555
C9 Si3 1_555 1_555
C10 H21 1_555 1_555
C11 Si4 1_555 1_555
C12 Si4 1_555 1_555
C13 O1 1_555 1_555
C14 C13 1_555 1_555
C15 C16 1_555 1_555
C16 C17 1_555 1_555
C17 H34 1_555 1_555
C18 C19 1_555 1_555
C19 C20 1_555 1_555
C20 C21 1_555 1_555
C21 C22 1_555 1_555
C22 C23 1_555 1_555
C23 C18 1_555 1_555
C24 C25 1_555 1_555
C25 C26 1_555 1_555
C26 C27 1_555 1_555
C27 C28 1_555 1_555
C28 C29 1_555 1_555
C29 C6 1_555 1_555
C30 C31 1_555 1_555
C31 C32 1_555 1_555
C32 C33 1_555 1_555
C33 C34 1_555 1_555
C34 C35 1_555 1_555
C35 C14 1_555 1_555
C36 C37 1_555 1_555
C37 C38 1_555 1_555
C38 C39 1_555 1_555
C39 C40 1_555 1_555
C40 C41 1_555 1_555
C41 C14 1_555 1_555
H1 C1 1_555 1_555
H2 C1 1_555 1_555
H3 C1 1_555 1_555
H4 C2 1_555 1_555
H5 C2 1_555 1_555
H6 C2 1_555 1_555
H7 C3 1_555 1_555
H8 C3 1_555 1_555
H9 C3 1_555 1_555
H10 C4 1_555 1_555
H11 C4 1_555 1_555
H12 C4 1_555 1_555
H13 C7 1_555 1_555
H14 C7 1_555 1_555
H15 C8 1_555 1_555
H16 C8 1_555 1_555
H17 C8 1_555 1_555
H18 C9 1_555 1_555
H19 C9 1_555 1_555
H20 C9 1_555 1_555
H22 C10 1_555 1_555
H23 C10 1_555 1_555
H24 C11 1_555 1_555
H25 C11 1_555 1_555
H26 C11 1_555 1_555
H27 C12 1_555 1_555
H28 C12 1_555 1_555
H29 C15 1_555 1_555
H30 C15 1_555 1_555
H31 C15 1_555 1_555
H32 C16 1_555 1_555
H33 C16 1_555 1_555
H35 C17 1_555 1_555
H36 C18 1_555 1_555
H37 C19 1_555 1_555
H38 C20 1_555 1_555
H39 C21 1_555 1_555
H40 C22 1_555 1_555
H41 C24 1_555 1_555
H42 C25 1_555 1_555
H43 C26 1_555 1_555
H44 C27 1_555 1_555
H45 C28 1_555 1_555
H46 C30 1_555 1_555
H47 C31 1_555 1_555
H48 C32 1_555 1_555
H49 C33 1_555 1_555
H50 C34 1_555 1_555
H51 C36 1_555 1_555
H52 C37 1_555 1_555
H53 C38 1_555 1_555
H54 C39 1_555 1_555
H55 C40 1_555 1_555
C17B C17 1_555 1_555
C16B C17B 1_555 1_555
C15B C16B 1_555 1_555
H29B C15B 1_555 1_555
H30B C15B 1_555 1_555
H31B C15B 1_555 1_555
H32B C16B 1_555 1_555
H33B C16B 1_555 1_555
H34B C17B 1_555 1_555
H35B C17B 1_555 1_555
C5 C7 1_555 1_555
C12 C13 1_555 1_555
C24 C29 1_555 1_555
C30 C35 1_555 1_555
C36 C41 1_555 1_555

#END
