
#######################################################################
#
#                 Cambridge Crystallographic Data Centre
#                                CCDC 
#
#######################################################################
#
# If this CIF has been generated from an entry in the Cambridge 
# Structural Database, then it will include bibliographic, chemical, 
# crystal, experimental, refinement or atomic coordinate data resulting 
# from the CCDC's data processing and validation procedures.
#
#######################################################################

data_RUPNOH
_chemical_formula_moiety         'C92 F24,2(C7 H8)'
_chemical_name_systematic        
'7,10,13,20,32,41,52,65-octakis(Trifluoromethyl)-C~s~-C84fullerene toluene solvate'
_symmetry_cell_setting           triclinic
_symmetry_space_group_name_H-M   'P -1'
_symmetry_Int_Tables_number      2
_space_group_name_Hall           '-P 1'
loop_
_symmetry_equiv_pos_site_id
_symmetry_equiv_pos_as_xyz
1 x,y,z
2 -x,-y,-z
_cell_length_a                   11.0300(10)
_cell_length_b                   15.3120(10)
_cell_length_c                   19.2770(10)
_cell_angle_alpha                90.338(5)
_cell_angle_beta                 100.538(4)
_cell_angle_gamma                96.918(7)
_cell_volume                     3176.2
_exptl_crystal_colour            red
_exptl_crystal_description       needle
_cell_formula_units_Z            2
loop_
_atom_site_label
_atom_site_type_symbol
_atom_site_fract_x
_atom_site_fract_y
_atom_site_fract_z
F2 F 0.3199(7) 0.5974(5) 0.3669(4)
F3 F 0.4556(5) 0.5649(3) 0.4553(2)
F4 F 0.5134(4) 0.6455(2) 0.3745(2)
F5 F 0.8881(2) 0.20174(15) 0.54025(11)
F6 F 0.7314(2) 0.24052(14) 0.57635(11)
F7 F 0.7371(2) 0.10430(13) 0.55152(11)
F8 F 0.3312(3) 0.06992(14) 0.51079(12)
F9 F 0.3288(3) 0.20486(15) 0.53849(14)
F10 F 0.4987(3) 0.14805(18) 0.56162(12)
F11 F 0.2488(4) 0.4542(3) 0.4522(2)
F12 F 0.0982(4) 0.3576(4) 0.4089(2)
F13 F 0.2312(6) 0.3281(5) 0.4981(2)
F14 F 0.3876(3) 0.66025(13) 0.23758(12)
F15 F 0.4793(2) 0.66767(13) 0.14896(13)
F16 F 0.2831(2) 0.62615(14) 0.13441(13)
F17 F 1.0142(2) 0.05849(15) 0.38075(13)
F18 F 0.9112(2) 0.05793(14) 0.46521(11)
F19 F 0.8751(2) -0.04910(13) 0.39008(12)
F20 F 0.0327(2) 0.41453(17) 0.05456(13)
F21 F 0.1402(2) 0.40546(16) -0.02726(11)
F22 F 0.1682(2) 0.52169(14) 0.03811(12)
F23 F 0.6350(3) -0.15324(13) 0.18112(12)
F24 F 0.5558(2) -0.17677(13) 0.27431(13)
F25 F 0.7515(2) -0.13600(14) 0.28348(13)
C1 C 0.6232(3) 0.41922(19) 0.39693(16)
C2 C 0.6605(3) 0.46738(19) 0.33949(17)
C3 C 0.7500(3) 0.4392(2) 0.30283(17)
C4 C 0.8157(3) 0.3660(2) 0.33065(17)
C5 C 0.7854(3) 0.3264(2) 0.39293(16)
C6 C 0.6853(3) 0.3503(2) 0.42308(16)
C7 C 0.6196(3) 0.27526(19) 0.44852(16)
C8 C 0.4927(3) 0.2681(2) 0.44040(16)
C9 C 0.4273(3) 0.3413(2) 0.41241(16)
C10 C 0.4955(3) 0.4166(2) 0.39464(16)
C11 C 0.4468(3) 0.4883(2) 0.34397(17)
C12 C 0.5570(3) 0.50815(19) 0.30617(17)
C13 C 0.5444(3) 0.52471(18) 0.23680(17)
C14 C 0.6374(3) 0.50404(19) 0.19953(18)
C15 C 0.7389(3) 0.45937(19) 0.22955(17)
C16 C 0.7958(3) 0.4092(2) 0.18238(18)
C17 C 0.8610(3) 0.3356(2) 0.21016(18)
C18 C 0.8678(3) 0.3140(2) 0.28450(18)
C19 C 0.8833(3) 0.2258(2) 0.30399(17)
C20 C 0.8423(3) 0.1878(2) 0.36379(17)
C21 C 0.7969(3) 0.2366(2) 0.40833(17)
C22 C 0.7013(3) 0.2001(2) 0.45309(16)
C23 C 0.6253(3) 0.11647(19) 0.41546(16)
C24 C 0.4991(3) 0.1072(2) 0.41412(16)
C25 C 0.4252(3) 0.1750(2) 0.44154(17)
C26 C 0.3071(3) 0.1651(2) 0.38421(17)
C27 C 0.2467(3) 0.2340(2) 0.35807(18)
C28 C 0.2881(3) 0.3298(2) 0.38395(17)
C29 C 0.2605(3) 0.3770(2) 0.31278(17)
C30 C 0.3327(3) 0.4484(2) 0.29080(17)
C31 C 0.3190(3) 0.46541(19) 0.21634(17)
C32 C 0.4197(3) 0.5254(2) 0.18743(18)
C33 C 0.4481(3) 0.4838(2) 0.11981(17)
C34 C 0.5797(3) 0.49038(19) 0.12713(18)
C35 C 0.6332(3) 0.4442(2) 0.08325(18)
C36 C 0.7479(3) 0.4092(2) 0.10962(18)
C37 C 0.7517(3) 0.3356(2) 0.06370(19)
C38 C 0.8131(3) 0.2665(2) 0.09021(19)
C39 C 0.8711(3) 0.2687(2) 0.16197(19)
C40 C 0.8673(3) 0.1772(2) 0.18317(18)
C41 C 0.8734(3) 0.1580(2) 0.25186(18)
C42 C 0.8046(3) 0.0791(2) 0.27196(18)
C43 C 0.8057(3) 0.0878(2) 0.35180(18)
C44 C 0.6752(3) 0.06393(19) 0.36714(17)
C45 C 0.5936(3) 0.00555(19) 0.31996(17)
C46 C 0.4649(3) 0.00292(19) 0.31628(17)
C47 C 0.4180(3) 0.05292(19) 0.36266(17)
C48 C 0.3045(3) 0.0908(2) 0.33976(18)
C49 C 0.2447(3) 0.0845(2) 0.26852(19)
C50 C 0.1798(3) 0.1575(2) 0.24102(18)
C51 C 0.1828(3) 0.2288(2) 0.28777(18)
C52 C 0.1842(3) 0.3182(2) 0.26265(17)
C53 C 0.1730(3) 0.3338(2) 0.19222(18)
C54 C 0.2370(3) 0.4100(2) 0.16818(17)
C55 C 0.2429(3) 0.3929(2) 0.09047(17)
C56 C 0.3736(3) 0.4200(2) 0.07611(17)
C57 C 0.4278(3) 0.3640(2) 0.03189(17)
C58 C 0.5562(3) 0.3842(2) 0.03120(17)
C59 C 0.6329(4) 0.3198(2) 0.01660(18)
C60 C 0.5797(4) 0.2344(2) -0.00165(17)
C61 C 0.6447(4) 0.1615(2) 0.02610(18)
C62 C 0.7584(4) 0.1767(2) 0.06932(18)
C63 C 0.7876(3) 0.1219(2) 0.12947(18)
C64 C 0.7001(4) 0.0550(2) 0.14789(18)
C65 C 0.7174(3) 0.0319(2) 0.22210(18)
C66 C 0.6149(3) -0.0282(2) 0.24788(18)
C67 C 0.4878(3) -0.02282(19) 0.20170(18)
C68 C 0.3998(3) -0.01075(19) 0.24451(18)
C69 C 0.2908(3) 0.0289(2) 0.21987(18)
C70 C 0.2657(3) 0.0434(2) 0.14750(19)
C71 C 0.2015(3) 0.1163(2) 0.12003(18)
C72 C 0.1623(3) 0.1735(2) 0.16541(18)
C73 C 0.1599(3) 0.2623(2) 0.14209(18)
C74 C 0.2102(3) 0.2920(2) 0.08366(18)
C75 C 0.2640(3) 0.2372(2) 0.04342(17)
C76 C 0.3732(3) 0.2724(2) 0.01305(17)
C77 C 0.4488(4) 0.2121(2) -0.00375(17)
C78 C 0.4349(4) 0.1200(2) 0.01692(18)
C79 C 0.5541(4) 0.0920(2) 0.04165(18)
C80 C 0.5787(4) 0.0389(2) 0.10144(19)
C81 C 0.4706(4) 0.0031(2) 0.13138(18)
C82 C 0.3530(3) 0.0279(2) 0.10347(18)
C83 C 0.3355(4) 0.0894(2) 0.04734(18)
C84 C 0.2484(3) 0.1463(2) 0.05893(18)
C85 C 0.4244(4) 0.5689(2) 0.3871(2)
C86 C 0.7654(4) 0.1862(2) 0.53120(18)
C87 C 0.3966(4) 0.1502(2) 0.51447(19)
C88 C 0.2090(4) 0.3592(3) 0.43599(19)
C89 C 0.3900(4) 0.6212(2) 0.17686(19)
C90 C 0.9018(3) 0.0379(2) 0.39780(19)
C91 C 0.1460(4) 0.4341(2) 0.0388(2)
C92 C 0.6408(4) -0.1250(2) 0.2473(2)
C93 C 0.0713(4) -0.1352(2) 0.2045(2)
C94 C 0.1389(4) -0.1837(2) 0.1672(2)
H1 H 0.1961 -0.2196 0.1918
C95 C 0.1232(4) -0.1796(3) 0.0951(2)
H2 H 0.1687 -0.2140 0.0704
C96 C 0.0433(4) -0.1272(3) 0.0577(2)
H3 H 0.0344 -0.1243 0.0079
C97 C -0.0246(4) -0.0781(3) 0.0944(2)
H4 H -0.0808 -0.0417 0.0696
C98 C -0.0098(4) -0.0827(3) 0.1665(2)
H5 H -0.0564 -0.0490 0.1910
C99 C 0.0903(5) -0.1397(3) 0.2833(2)
H6 H 0.1790 -0.1263 0.3033
H7 H 0.0601 -0.1991 0.2965
H8 H 0.0442 -0.0969 0.3018
C100 C 1.0326(6) 0.3920(3) 0.6567(3)
C101 C 1.1267(5) 0.3398(3) 0.6852(3)
H9 H 1.1751 0.3164 0.6553
C102 C 1.1472(6) 0.3237(3) 0.7548(4)
H10 H 1.2112 0.2889 0.7723
C103 C 1.0849(8) 0.3525(4) 0.7995(4)
H11 H 1.1029 0.3385 0.8480
C104 C 0.9950(6) 0.4023(4) 0.7758(4)
H12 H 0.9502 0.4239 0.8085
C105 C 0.9651(5) 0.4234(3) 0.7059(3)
H13 H 0.9003 0.4585 0.6907
C106 C 1.0080(6) 0.4136(4) 0.5814(3)
H14 H 0.9208 0.4234 0.5673
H15 H 1.0248 0.3647 0.5530
H16 H 1.0619 0.4670 0.5738
F1? F 0.3614(10) 0.6210(5) 0.3518(5)
F26? F 0.3412(5) 0.5336(3) 0.4342(3)
F27? F 0.5205(5) 0.6003(3) 0.4259(3)
F28? F 0.1283(6) 0.4129(4) 0.4094(3)
F29? F 0.1212(4) 0.2819(3) 0.4482(2)
F30? F 0.2660(5) 0.3812(4) 0.4958(3)
loop_
_geom_bond_atom_site_label_1
_geom_bond_atom_site_label_2
_geom_bond_site_symmetry_1
_geom_bond_site_symmetry_2
F2 C85 1_555 1_555
F3 C85 1_555 1_555
F4 C85 1_555 1_555
F5 C86 1_555 1_555
F6 C86 1_555 1_555
F7 C86 1_555 1_555
F8 C87 1_555 1_555
F9 C87 1_555 1_555
F10 C87 1_555 1_555
F11 C88 1_555 1_555
F12 C88 1_555 1_555
F13 C88 1_555 1_555
F14 C89 1_555 1_555
F15 C89 1_555 1_555
F16 C89 1_555 1_555
F17 C90 1_555 1_555
F18 C90 1_555 1_555
F19 C90 1_555 1_555
F20 C91 1_555 1_555
F21 C91 1_555 1_555
F22 C91 1_555 1_555
F23 C92 1_555 1_555
F24 C92 1_555 1_555
F25 C92 1_555 1_555
C1 C2 1_555 1_555
C2 C3 1_555 1_555
C3 C4 1_555 1_555
C4 C5 1_555 1_555
C5 C6 1_555 1_555
C6 C1 1_555 1_555
C7 C6 1_555 1_555
C8 C7 1_555 1_555
C9 C8 1_555 1_555
C10 C1 1_555 1_555
C11 C10 1_555 1_555
C12 C2 1_555 1_555
C13 C12 1_555 1_555
C14 C13 1_555 1_555
C15 C3 1_555 1_555
C16 C15 1_555 1_555
C17 C16 1_555 1_555
C18 C4 1_555 1_555
C19 C18 1_555 1_555
C20 C19 1_555 1_555
C21 C5 1_555 1_555
C22 C7 1_555 1_555
C23 C22 1_555 1_555
C24 C23 1_555 1_555
C25 C8 1_555 1_555
C26 C25 1_555 1_555
C27 C26 1_555 1_555
C28 C9 1_555 1_555
C29 C28 1_555 1_555
C30 C11 1_555 1_555
C31 C30 1_555 1_555
C32 C13 1_555 1_555
C33 C32 1_555 1_555
C34 C14 1_555 1_555
C35 C34 1_555 1_555
C36 C16 1_555 1_555
C37 C36 1_555 1_555
C38 C37 1_555 1_555
C39 C17 1_555 1_555
C40 C39 1_555 1_555
C41 C19 1_555 1_555
C42 C41 1_555 1_555
C43 C20 1_555 1_555
C44 C23 1_555 1_555
C45 C44 1_555 1_555
C46 C45 1_555 1_555
C47 C24 1_555 1_555
C48 C26 1_555 1_555
C49 C48 1_555 1_555
C50 C49 1_555 1_555
C51 C27 1_555 1_555
C52 C29 1_555 1_555
C53 C52 1_555 1_555
C54 C31 1_555 1_555
C55 C54 1_555 1_555
C56 C33 1_555 1_555
C57 C56 1_555 1_555
C58 C35 1_555 1_555
C59 C37 1_555 1_555
C60 C59 1_555 1_555
C61 C60 1_555 1_555
C62 C38 1_555 1_555
C63 C40 1_555 1_555
C64 C63 1_555 1_555
C65 C42 1_555 1_555
C66 C45 1_555 1_555
C67 C66 1_555 1_555
C68 C46 1_555 1_555
C69 C49 1_555 1_555
C70 C69 1_555 1_555
C71 C70 1_555 1_555
C72 C50 1_555 1_555
C73 C53 1_555 1_555
C74 C55 1_555 1_555
C75 C74 1_555 1_555
C76 C57 1_555 1_555
C77 C60 1_555 1_555
C78 C77 1_555 1_555
C79 C61 1_555 1_555
C80 C64 1_555 1_555
C81 C67 1_555 1_555
C82 C70 1_555 1_555
C83 C78 1_555 1_555
C84 C71 1_555 1_555
C85 C11 1_555 1_555
C86 C22 1_555 1_555
C87 C25 1_555 1_555
C88 C28 1_555 1_555
C89 C32 1_555 1_555
C90 C43 1_555 1_555
C91 C55 1_555 1_555
C92 C66 1_555 1_555
C93 C94 1_555 1_555
C94 H1 1_555 1_555
C95 C94 1_555 1_555
H2 C95 1_555 1_555
C96 C95 1_555 1_555
H3 C96 1_555 1_555
C97 C96 1_555 1_555
H4 C97 1_555 1_555
C98 C93 1_555 1_555
H5 C98 1_555 1_555
C99 C93 1_555 1_555
H6 C99 1_555 1_555
H7 C99 1_555 1_555
H8 C99 1_555 1_555
C100 C101 1_555 1_555
C101 H9 1_555 1_555
C102 C101 1_555 1_555
H10 C102 1_555 1_555
C103 C102 1_555 1_555
H11 C103 1_555 1_555
C104 C103 1_555 1_555
H12 C104 1_555 1_555
C105 C100 1_555 1_555
H13 C105 1_555 1_555
C106 C100 1_555 1_555
H14 C106 1_555 1_555
H15 C106 1_555 1_555
H16 C106 1_555 1_555
C9 C10 1_555 1_555
C11 C12 1_555 1_555
C14 C15 1_555 1_555
C17 C18 1_555 1_555
C20 C21 1_555 1_555
C21 C22 1_555 1_555
C24 C25 1_555 1_555
C27 C28 1_555 1_555
C29 C30 1_555 1_555
C31 C32 1_555 1_555
C33 C34 1_555 1_555
C35 C36 1_555 1_555
C38 C39 1_555 1_555
C40 C41 1_555 1_555
C42 C43 1_555 1_555
C43 C44 1_555 1_555
C46 C47 1_555 1_555
C47 C48 1_555 1_555
C50 C51 1_555 1_555
C51 C52 1_555 1_555
C53 C54 1_555 1_555
C55 C56 1_555 1_555
C57 C58 1_555 1_555
C58 C59 1_555 1_555
C61 C62 1_555 1_555
C62 C63 1_555 1_555
C64 C65 1_555 1_555
C65 C66 1_555 1_555
C67 C68 1_555 1_555
C68 C69 1_555 1_555
C71 C72 1_555 1_555
C72 C73 1_555 1_555
C73 C74 1_555 1_555
C75 C76 1_555 1_555
C75 C84 1_555 1_555
C76 C77 1_555 1_555
C78 C79 1_555 1_555
C79 C80 1_555 1_555
C80 C81 1_555 1_555
C81 C82 1_555 1_555
C82 C83 1_555 1_555
C83 C84 1_555 1_555
C97 C98 1_555 1_555
C104 C105 1_555 1_555

#END
