
#######################################################################
#
#                 Cambridge Crystallographic Data Centre
#                                CCDC 
#
#######################################################################
#
# If this CIF has been generated from an entry in the Cambridge 
# Structural Database, then it will include bibliographic, chemical, 
# crystal, experimental, refinement or atomic coordinate data resulting 
# from the CCDC's data processing and validation procedures.
#
#######################################################################

data_RUQCEN
_chemical_formula_moiety         'C22 H18 F3 N1 O2'
_chemical_name_systematic        
4,4,4-trifluoro-1-(2-methoxyphenyl)-3-(2-(pyridin-2-yl)phenyl)butan-1-one
_symmetry_cell_setting           monoclinic
_symmetry_space_group_name_H-M   'P 21/c'
_symmetry_Int_Tables_number      14
_space_group_name_Hall           '-P 2ybc'
loop_
_symmetry_equiv_pos_site_id
_symmetry_equiv_pos_as_xyz
1 x,y,z
2 -x,1/2+y,1/2-z
3 -x,-y,-z
4 x,1/2-y,1/2+z
_cell_length_a                   13.9588(19)
_cell_length_b                   8.5515(11)
_cell_length_c                   16.218(2)
_cell_angle_alpha                90
_cell_angle_beta                 104.782(14)
_cell_angle_gamma                90
_cell_volume                     1871.85
_exptl_crystal_colour            colorless
_exptl_crystal_description       prismatic
_cell_formula_units_Z            4
loop_
_atom_site_label
_atom_site_type_symbol
_atom_site_fract_x
_atom_site_fract_y
_atom_site_fract_z
F1 F 0.42430(10) 0.17373(16) -0.01440(10)
F2 F 0.33222(10) -0.02723(16) -0.04262(9)
F3 F 0.41833(10) 0.01143(18) 0.08452(9)
N1 N 0.22200(13) 0.4811(2) -0.07635(11)
O1 O 0.10335(10) 0.27820(16) 0.06323(11)
O2 O 0.11132(10) -0.19899(15) 0.09625(9)
C1 C 0.20327(18) 0.5297(3) -0.15879(13)
H1 H 0.1399 0.5166 -0.1942
C2 C 0.27435(19) 0.5972(3) -0.19131(14)
H2 H 0.2600 0.6308 -0.2477
C3 C 0.3672(2) 0.6139(3) -0.13864(18)
H3 H 0.4172 0.6581 -0.1595
C4 C 0.38741(15) 0.5665(3) -0.05581(15)
H4 H 0.4506 0.5789 -0.0201
C5 C 0.31450(13) 0.5010(2) -0.02601(12)
C6 C 0.33739(12) 0.4563(2) 0.06630(11)
C7 C 0.38116(15) 0.5701(3) 0.12580(14)
H5 H 0.3944 0.6684 0.1068
C8 C 0.40502(18) 0.5396(3) 0.21196(16)
H6 H 0.4338 0.6172 0.2505
C9 C 0.38656(17) 0.3953(3) 0.24105(14)
H7 H 0.4023 0.3746 0.2993
C10 C 0.34446(15) 0.2813(3) 0.18340(12)
H8 H 0.3326 0.1832 0.2035
C11 C 0.31910(12) 0.3084(2) 0.09572(11)
C12 C 0.27833(12) 0.1752(2) 0.03426(11)
H9 H 0.2413 0.2226 -0.0194
C13 C 0.20812(13) 0.0626(2) 0.06274(12)
H10 H 0.1874 -0.0174 0.0194
H11 H 0.2439 0.0111 0.1148
C14 C 0.11744(12) 0.1399(2) 0.07821(11)
C15 C 0.04359(12) 0.0492(2) 0.11196(10)
C16 C -0.02978(14) 0.1359(2) 0.13570(12)
H12 H -0.0302 0.2440 0.1293
C17 C -0.10114(16) 0.0675(3) 0.16805(14)
H13 H -0.1490 0.1285 0.1834
C18 C -0.10128(16) -0.0924(3) 0.17755(13)
H14 H -0.1491 -0.1397 0.2000
C19 C -0.03137(14) -0.1825(2) 0.15413(13)
H15 H -0.0325 -0.2906 0.1604
C20 C 0.04132(12) -0.1139(2) 0.12095(11)
C21 C 0.10246(16) -0.3653(2) 0.09211(15)
H16 H 0.1136 -0.4070 0.1487
H17 H 0.1506 -0.4075 0.0652
H18 H 0.0372 -0.3934 0.0596
C22 C 0.36269(15) 0.0841(2) 0.01535(13)
loop_
_geom_bond_atom_site_label_1
_geom_bond_atom_site_label_2
_geom_bond_site_symmetry_1
_geom_bond_site_symmetry_2
F1 C22 1_555 1_555
F2 C22 1_555 1_555
F3 C22 1_555 1_555
N1 C1 1_555 1_555
O1 C14 1_555 1_555
O2 C20 1_555 1_555
C1 H1 1_555 1_555
C2 C1 1_555 1_555
H2 C2 1_555 1_555
C3 C2 1_555 1_555
H3 C3 1_555 1_555
C4 C3 1_555 1_555
H4 C4 1_555 1_555
C5 N1 1_555 1_555
C6 C5 1_555 1_555
C7 C6 1_555 1_555
H5 C7 1_555 1_555
C8 C7 1_555 1_555
H6 C8 1_555 1_555
C9 C8 1_555 1_555
H7 C9 1_555 1_555
C10 C9 1_555 1_555
H8 C10 1_555 1_555
C11 C6 1_555 1_555
C12 C11 1_555 1_555
H9 C12 1_555 1_555
C13 C12 1_555 1_555
H10 C13 1_555 1_555
H11 C13 1_555 1_555
C14 C13 1_555 1_555
C15 C14 1_555 1_555
C16 C15 1_555 1_555
H12 C16 1_555 1_555
C17 C16 1_555 1_555
H13 C17 1_555 1_555
C18 C17 1_555 1_555
H14 C18 1_555 1_555
C19 C18 1_555 1_555
H15 C19 1_555 1_555
C20 C15 1_555 1_555
C21 O2 1_555 1_555
H16 C21 1_555 1_555
H17 C21 1_555 1_555
H18 C21 1_555 1_555
C22 C12 1_555 1_555
C4 C5 1_555 1_555
C10 C11 1_555 1_555
C19 C20 1_555 1_555

#END
