
#######################################################################
#
#                 Cambridge Crystallographic Data Centre
#                                CCDC 
#
#######################################################################
#
# If this CIF has been generated from an entry in the Cambridge 
# Structural Database, then it will include bibliographic, chemical, 
# crystal, experimental, refinement or atomic coordinate data resulting 
# from the CCDC's data processing and validation procedures.
#
#######################################################################

data_RUQSEC
_chemical_formula_moiety         'C23 H28 N8'
_chemical_name_systematic        
2-(N,N-diethylanilin-4-yl)-4,6-bis(3,5-dimethylpyrazol-1-yl)-1,3,5-triazine
_symmetry_cell_setting           orthorhombic
_symmetry_space_group_name_H-M   'P b c n'
_symmetry_Int_Tables_number      60
_space_group_name_Hall           '-P 2n 2ab'
loop_
_symmetry_equiv_pos_site_id
_symmetry_equiv_pos_as_xyz
1 x,y,z
2 1/2-x,1/2-y,1/2+z
3 -x,y,1/2-z
4 1/2+x,1/2-y,-z
5 -x,-y,-z
6 1/2+x,1/2+y,1/2-z
7 x,-y,1/2+z
8 1/2-x,1/2+y,z
_cell_length_a                   16.807(3)
_cell_length_b                   16.647(3)
_cell_length_c                   7.6875(15)
_cell_angle_alpha                90
_cell_angle_beta                 90
_cell_angle_gamma                90
_cell_volume                     2150.86
_exptl_crystal_colour            colorless
_exptl_crystal_description       plate
_cell_formula_units_Z            4
_exptl_crystal_recrystallization_method 'petroleum ether'
loop_
_atom_site_label
_atom_site_type_symbol
_atom_site_fract_x
_atom_site_fract_y
_atom_site_fract_z
N1 N 0.0000 0.3227(2) 0.7500
N2 N 0.06447(15) -0.05507(16) 0.6869(4)
N3 N 0.0000 -0.1794(2) 0.7500
N4 N 0.12388(17) -0.17645(15) 0.6163(4)
N5 N 0.12364(18) -0.25844(16) 0.6211(4)
C1 C 0.0000 0.2414(3) 0.7500
C2 C 0.0584(2) 0.1961(2) 0.6644(5)
H1 H 0.0985 0.2229 0.6047
C3 C 0.05880(19) 0.1149(2) 0.6650(5)
H2 H 0.0993 0.0877 0.6072
C4 C 0.0000 0.0709(3) 0.7500
C5 C 0.0000 -0.0172(3) 0.7500
C6 C 0.0594(2) -0.1341(2) 0.6875(4)
C7 C 0.2090(2) -0.0606(2) 0.5000(6)
H3 H 0.1690 -0.0274 0.5527
H4 H 0.2105 -0.0506 0.3771
H5 H 0.2599 -0.0482 0.5500
C8 C 0.1899(2) -0.1466(2) 0.5316(5)
C9 C 0.2313(2) -0.2128(2) 0.4830(5)
H6 H 0.2792 -0.2133 0.4226
C10 C 0.1895(2) -0.2793(2) 0.5395(5)
C11 C 0.2109(3) -0.3663(2) 0.5221(6)
H7 H 0.1704 -0.3986 0.5756
H8 H 0.2609 -0.3760 0.5785
H9 H 0.2150 -0.3800 0.4012
C12 C 0.0629(3) 0.3704(3) 0.6633(7)
H10 H 0.1135 0.3431 0.6759
H11 H 0.0671 0.4224 0.7194
C13 C 0.0445(3) 0.3825(3) 0.4662(8)
H12 H 0.0862 0.4134 0.4136
H13 H -0.0052 0.4103 0.4535
H14 H 0.0411 0.3310 0.4101
N2B N -0.06447(15) -0.05507(16) 0.8131(4)
N4B N -0.12388(17) -0.17645(15) 0.8837(4)
N5B N -0.12364(18) -0.25844(16) 0.8789(4)
C2B C -0.0584(2) 0.1961(2) 0.8356(5)
H1B H -0.0985 0.2229 0.8953
C3B C -0.05880(19) 0.1149(2) 0.8350(5)
H2B H -0.0993 0.0877 0.8928
C6B C -0.0594(2) -0.1341(2) 0.8125(4)
C7B C -0.2090(2) -0.0606(2) 1.0000(6)
H3B H -0.1690 -0.0274 0.9473
H4B H -0.2105 -0.0506 1.1229
H5B H -0.2599 -0.0482 0.9500
C8B C -0.1899(2) -0.1466(2) 0.9684(5)
C9B C -0.2313(2) -0.2128(2) 1.0170(5)
H6B H -0.2792 -0.2133 1.0774
C10B C -0.1895(2) -0.2793(2) 0.9605(5)
C11B C -0.2109(3) -0.3663(2) 0.9779(6)
H7B H -0.1704 -0.3986 0.9244
H8B H -0.2609 -0.3760 0.9215
H9B H -0.2150 -0.3800 1.0988
C12B C -0.0629(3) 0.3704(3) 0.8367(7)
H10B H -0.1135 0.3431 0.8241
H11B H -0.0671 0.4224 0.7806
C13B C -0.0445(3) 0.3825(3) 1.0338(8)
H12B H -0.0862 0.4134 1.0864
H13B H 0.0052 0.4103 1.0465
H14B H -0.0411 0.3310 1.0899
loop_
_geom_bond_atom_site_label_1
_geom_bond_atom_site_label_2
_geom_bond_site_symmetry_1
_geom_bond_site_symmetry_2
N1 C1 1_555 1_555
N2 C5 1_555 1_555
N3 C6 1_555 1_555
N4 N5 1_555 1_555
N5 C10 1_555 1_555
C1 C2 1_555 1_555
C2 H1 1_555 1_555
C3 C2 1_555 1_555
H2 C3 1_555 1_555
C4 C3 1_555 1_555
C5 C4 1_555 1_555
C6 N2 1_555 1_555
C7 H3 1_555 1_555
H4 C7 1_555 1_555
H5 C7 1_555 1_555
C8 N4 1_555 1_555
C9 C8 1_555 1_555
H6 C9 1_555 1_555
C10 C9 1_555 1_555
C11 C10 1_555 1_555
H7 C11 1_555 1_555
H8 C11 1_555 1_555
H9 C11 1_555 1_555
C12 N1 1_555 1_555
H10 C12 1_555 1_555
H11 C12 1_555 1_555
C13 C12 1_555 1_555
H12 C13 1_555 1_555
H13 C13 1_555 1_555
H14 C13 1_555 1_555
N2B C5 1_555 1_555
N4B N5B 1_555 1_555
N5B C10B 1_555 1_555
C2B C1 1_555 1_555
H1B C2B 1_555 1_555
C3B C4 1_555 1_555
H2B C3B 1_555 1_555
C6B N3 1_555 1_555
C7B H3B 1_555 1_555
H4B C7B 1_555 1_555
H5B C7B 1_555 1_555
C8B N4B 1_555 1_555
C9B C8B 1_555 1_555
H6B C9B 1_555 1_555
C10B C9B 1_555 1_555
C11B C10B 1_555 1_555
H7B C11B 1_555 1_555
H8B C11B 1_555 1_555
H9B C11B 1_555 1_555
C12B N1 1_555 1_555
H10B C12B 1_555 1_555
H11B C12B 1_555 1_555
C13B C12B 1_555 1_555
H12B C13B 1_555 1_555
H13B C13B 1_555 1_555
H14B C13B 1_555 1_555
N4 C6 1_555 1_555
C7 C8 1_555 1_555
N2B C6B 1_555 1_555
N4B C6B 1_555 1_555
C2B C3B 1_555 1_555
C7B C8B 1_555 1_555

#END
