
#######################################################################
#
#                 Cambridge Crystallographic Data Centre
#                                CCDC 
#
#######################################################################
#
# If this CIF has been generated from an entry in the Cambridge 
# Structural Database, then it will include bibliographic, chemical, 
# crystal, experimental, refinement or atomic coordinate data resulting 
# from the CCDC's data processing and validation procedures.
#
#######################################################################

data_RURLIB
_chemical_name_common            dimethomorph
_chemical_formula_moiety         'C21 H22 Cl1 N1 O4'
_chemical_name_systematic        
3-(4-chlorophenyl)-3-(3,4-dimethoxyphenyl)-1-(morpholin-4-yl)prop-2-en-1-one
_symmetry_cell_setting           monoclinic
_symmetry_space_group_name_H-M   'P 21/c'
_symmetry_Int_Tables_number      14
_space_group_name_Hall           '-P 2ybc'
loop_
_symmetry_equiv_pos_site_id
_symmetry_equiv_pos_as_xyz
1 x,y,z
2 -x,1/2+y,1/2-z
3 -x,-y,-z
4 x,1/2-y,1/2+z
_cell_length_a                   6.6238(2)
_cell_length_b                   13.2232(4)
_cell_length_c                   21.4810(7)
_cell_angle_alpha                90
_cell_angle_beta                 97.1674(19)
_cell_angle_gamma                90
_cell_volume                     1866.77
_exptl_crystal_colour            colorless
_exptl_crystal_description       needle
_cell_formula_units_Z            4
loop_
_atom_site_label
_atom_site_type_symbol
_atom_site_fract_x
_atom_site_fract_y
_atom_site_fract_z
Cl1 Cl 0.31366(10) 0.59912(5) 0.47448(3)
O1 O 0.5956(2) 0.38430(11) 0.96279(6)
O2 O -0.0418(2) 0.34526(10) 0.82830(7)
O3 O -0.1413(2) 0.67931(10) 0.90317(6)
O4 O -0.4849(2) 0.73290(10) 0.84142(6)
N1 N 0.2962(2) 0.35718(12) 0.85873(7)
C1 C 0.5023(3) 0.38939(15) 0.84994(9)
H1 H 0.4969 0.4347 0.8131
H2 H 0.5855 0.3296 0.8421
C2 C 0.5976(3) 0.44402(16) 0.90772(9)
H3 H 0.7399 0.4617 0.9027
H4 H 0.5226 0.5078 0.9125
C3 C 0.3918(3) 0.35949(17) 0.97178(9)
H5 H 0.3150 0.4224 0.9772
H6 H 0.3928 0.3187 1.0104
C4 C 0.2872(3) 0.30099(16) 0.91686(9)
H7 H 0.3542 0.2345 0.9142
H8 H 0.1434 0.2890 0.9229
C5 C 0.1286(3) 0.37008(13) 0.81674(9)
C6 C 0.1627(3) 0.41177(14) 0.75448(9)
H9 H 0.2683 0.3819 0.7346
C7 C 0.0584(3) 0.48755(13) 0.72382(9)
C8 C 0.1046(3) 0.51370(14) 0.65975(9)
C9 C 0.1513(3) 0.43952(16) 0.61797(9)
H10 H 0.1412 0.3702 0.6289
C10 C 0.2124(3) 0.46527(17) 0.56054(10)
H11 H 0.2424 0.4140 0.5321
C11 C 0.2291(3) 0.56604(18) 0.54519(10)
C12 C 0.1811(3) 0.64122(16) 0.58492(10)
H12 H 0.1923 0.7103 0.5737
C13 C 0.1159(3) 0.61476(15) 0.64179(9)
H13 H 0.0785 0.6664 0.6689
C14 C -0.0896(3) 0.55131(13) 0.75275(9)
C15 C -0.0445(3) 0.58425(13) 0.81488(8)
H14 H 0.0808 0.5648 0.8382
C16 C -0.1772(3) 0.64407(13) 0.84292(8)
C17 C -0.3626(3) 0.67311(13) 0.80926(9)
C18 C -0.4093(3) 0.64144(14) 0.74781(9)
H15 H -0.5351 0.6606 0.7247
C19 C -0.2734(3) 0.58161(14) 0.71962(9)
H16 H -0.3067 0.5612 0.6772
C20 C 0.0428(3) 0.64921(17) 0.93982(9)
H17 H 0.0476 0.5753 0.9428
H18 H 0.0485 0.6782 0.9820
H19 H 0.1591 0.6734 0.9199
C21 C -0.6601(3) 0.77604(16) 0.80687(10)
H20 H -0.6192 0.8187 0.7733
H21 H -0.7324 0.8172 0.8349
H22 H -0.7499 0.7220 0.7885
loop_
_geom_bond_atom_site_label_1
_geom_bond_atom_site_label_2
_geom_bond_site_symmetry_1
_geom_bond_site_symmetry_2
Cl1 C11 1_555 1_555
O1 C2 1_555 1_555
O2 C5 1_555 1_555
O3 C16 1_555 1_555
O4 C17 1_555 1_555
N1 C1 1_555 1_555
C1 H1 1_555 1_555
H2 C1 1_555 1_555
C2 C1 1_555 1_555
H3 C2 1_555 1_555
H4 C2 1_555 1_555
C3 O1 1_555 1_555
H5 C3 1_555 1_555
H6 C3 1_555 1_555
C4 N1 1_555 1_555
H7 C4 1_555 1_555
H8 C4 1_555 1_555
C5 N1 1_555 1_555
C6 C5 1_555 1_555
H9 C6 1_555 1_555
C7 C6 1_555 1_555
C8 C7 1_555 1_555
C9 C8 1_555 1_555
H10 C9 1_555 1_555
C10 C9 1_555 1_555
H11 C10 1_555 1_555
C11 C10 1_555 1_555
C12 C11 1_555 1_555
H12 C12 1_555 1_555
C13 C8 1_555 1_555
H13 C13 1_555 1_555
C14 C7 1_555 1_555
C15 C14 1_555 1_555
H14 C15 1_555 1_555
C16 C15 1_555 1_555
C17 C16 1_555 1_555
C18 C17 1_555 1_555
H15 C18 1_555 1_555
C19 C14 1_555 1_555
H16 C19 1_555 1_555
C20 O3 1_555 1_555
H17 C20 1_555 1_555
H18 C20 1_555 1_555
H19 C20 1_555 1_555
C21 O4 1_555 1_555
H20 C21 1_555 1_555
H21 C21 1_555 1_555
H22 C21 1_555 1_555
C3 C4 1_555 1_555
C12 C13 1_555 1_555
C18 C19 1_555 1_555

#END
