
#######################################################################
#
#                 Cambridge Crystallographic Data Centre
#                                CCDC 
#
#######################################################################
#
# If this CIF has been generated from an entry in the Cambridge 
# Structural Database, then it will include bibliographic, chemical, 
# crystal, experimental, refinement or atomic coordinate data resulting 
# from the CCDC's data processing and validation procedures.
#
#######################################################################

data_RURTIJ
_chemical_formula_moiety         'C22 H13 Br1 N2 O7,C1 H1 Cl3'
_chemical_name_systematic        
'4-(6-Bromo-4-oxo-4H-chromen-3-yl)-2-(methylamino)-3-nitro-4H,5H-pyrano[3,2-c]chromen-5-one chloroform solvate'
_symmetry_cell_setting           triclinic
_symmetry_space_group_name_H-M   'P -1'
_symmetry_Int_Tables_number      2
_space_group_name_Hall           '-P 1'
loop_
_symmetry_equiv_pos_site_id
_symmetry_equiv_pos_as_xyz
1 x,y,z
2 -x,-y,-z
_cell_length_a                   9.8816(2)
_cell_length_b                   11.9237(3)
_cell_length_c                   12.0616(3)
_cell_angle_alpha                80.804(1)
_cell_angle_beta                 68.422(1)
_cell_angle_gamma                70.735(1)
_cell_volume                     1246.36
_exptl_crystal_colour            colorless
_exptl_crystal_description       block
_cell_formula_units_Z            2
_exptl_crystal_recrystallization_method chloroform
loop_
_atom_site_label
_atom_site_type_symbol
_atom_site_fract_x
_atom_site_fract_y
_atom_site_fract_z
C1 C 0.6175(4) 0.6474(3) 0.0736(4)
C2 C 0.5491(5) 0.6922(3) -0.1038(3)
C3 C 0.5920(6) 0.7284(4) -0.2223(4)
H1 H 0.6853 0.7436 -0.2601
C4 C 0.4958(6) 0.7418(5) -0.2839(4)
H2 H 0.5237 0.7667 -0.3640
C5 C 0.3578(6) 0.7189(5) -0.2288(4)
H3 H 0.2936 0.7283 -0.2721
C6 C 0.3140(5) 0.6820(4) -0.1098(4)
H4 H 0.2211 0.6660 -0.0732
C7 C 0.4101(4) 0.6691(3) -0.0449(3)
C8 C 0.3759(4) 0.6353(3) 0.0800(3)
C9 C 0.4701(4) 0.6296(3) 0.1389(3)
C10 C 0.4260(4) 0.6090(3) 0.2719(3)
H5 H 0.5132 0.5529 0.2910
C11 C 0.2968(4) 0.5549(3) 0.3146(3)
C12 C 0.2024(4) 0.5667(3) 0.2490(3)
C13 C -0.0189(6) 0.5523(5) 0.2111(5)
H6 H -0.1049 0.5241 0.2563
H7 H 0.0393 0.5076 0.1405
H8 H -0.0538 0.6349 0.1888
C14 C 0.3830(4) 0.7256(3) 0.3303(3)
C15 C 0.4574(4) 0.7360(3) 0.3991(3)
H9 H 0.5365 0.6704 0.4080
C16 C 0.3129(4) 0.9334(3) 0.4428(3)
C17 C 0.2842(5) 1.0337(4) 0.5026(4)
H10 H 0.3397 1.0319 0.5509
C18 C 0.1736(5) 1.1350(4) 0.4898(4)
H11 H 0.1529 1.2026 0.5296
C19 C 0.0923(4) 1.1360(3) 0.4165(3)
C20 C 0.1176(4) 1.0372(3) 0.3593(3)
H12 H 0.0607 1.0391 0.3120
C21 C 0.2297(4) 0.9331(3) 0.3724(3)
C22 C 0.2577(4) 0.8247(3) 0.3136(3)
N1 N 0.2703(4) 0.4975(3) 0.4251(3)
N2 N 0.0763(4) 0.5375(3) 0.2832(3)
H13 H 0.0471 0.5069 0.3543
O1 O 0.7135(3) 0.6371(3) 0.1160(3)
O2 O 0.6502(3) 0.6786(3) -0.0456(2)
O3 O 0.2394(3) 0.6112(2) 0.1340(2)
O4 O 0.3527(3) 0.4944(2) 0.4837(2)
O5 O 0.1646(3) 0.4491(3) 0.4673(3)
O6 O 0.1798(3) 0.8194(2) 0.2569(3)
O7 O 0.4263(3) 0.8351(2) 0.4569(2)
Br1 Br -0.05894(5) 1.27713(4) 0.39770(4)
C23 C 0.7698(6) 0.9052(8) 0.0829(5)
H14 H 0.7777 0.8283 0.0580
Cl1 Cl 0.9143(5) 0.8826(4) 0.1496(4)
Cl2 Cl 0.5958(5) 0.9568(5) 0.1863(5)
Cl3 Cl 0.8013(6) 0.9975(5) -0.0393(3)
H15? H 0.7592 0.8259 0.1122
Cl4? Cl 0.8251(14) 0.9193(11) 0.1864(7)
Cl5? Cl 0.5804(9) 0.9669(10) 0.0975(13)
Cl6? Cl 0.8819(8) 0.8620(7) -0.0529(4)
loop_
_geom_bond_atom_site_label_1
_geom_bond_atom_site_label_2
_geom_bond_site_symmetry_1
_geom_bond_site_symmetry_2
C1 C9 1_555 1_555
C2 C3 1_555 1_555
C3 H1 1_555 1_555
C4 C3 1_555 1_555
H2 C4 1_555 1_555
C5 C4 1_555 1_555
H3 C5 1_555 1_555
C6 C5 1_555 1_555
H4 C6 1_555 1_555
C7 C2 1_555 1_555
C8 C7 1_555 1_555
C9 C8 1_555 1_555
C10 C9 1_555 1_555
H5 C10 1_555 1_555
C11 C10 1_555 1_555
C12 C11 1_555 1_555
C13 H6 1_555 1_555
H7 C13 1_555 1_555
H8 C13 1_555 1_555
C14 C10 1_555 1_555
C15 C14 1_555 1_555
H9 C15 1_555 1_555
C16 C17 1_555 1_555
C17 H10 1_555 1_555
C18 C17 1_555 1_555
H11 C18 1_555 1_555
C19 C18 1_555 1_555
C20 C19 1_555 1_555
H12 C20 1_555 1_555
C21 C16 1_555 1_555
C22 C14 1_555 1_555
N1 C11 1_555 1_555
N2 C12 1_555 1_555
H13 N2 1_555 1_555
O1 C1 1_555 1_555
O2 C1 1_555 1_555
O3 C8 1_555 1_555
O4 N1 1_555 1_555
O5 N1 1_555 1_555
O6 C22 1_555 1_555
O7 C15 1_555 1_555
Br1 C19 1_555 1_555
C23 H14 1_555 1_555
Cl1 C23 1_555 1_555
Cl2 C23 1_555 1_555
Cl3 C23 1_555 1_555
C2 O2 1_555 1_555
C6 C7 1_555 1_555
C12 O3 1_555 1_555
C13 N2 1_555 1_555
C16 O7 1_555 1_555
C20 C21 1_555 1_555
C21 C22 1_555 1_555

#END
