
#######################################################################
#
#                 Cambridge Crystallographic Data Centre
#                                CCDC 
#
#######################################################################
#
# If this CIF has been generated from an entry in the Cambridge 
# Structural Database, then it will include bibliographic, chemical, 
# crystal, experimental, refinement or atomic coordinate data resulting 
# from the CCDC's data processing and validation procedures.
#
#######################################################################

data_RUSJOF
_chemical_formula_moiety         'C10 H7 Cl1 N2'
_chemical_name_systematic        
2-(4-Chlorophenyl)-3-methyl-2H-azirene-2-carbonitrile
_symmetry_cell_setting           monoclinic
_symmetry_space_group_name_H-M   'P 21/c'
_symmetry_Int_Tables_number      14
_space_group_name_Hall           '-P 2ybc'
loop_
_symmetry_equiv_pos_site_id
_symmetry_equiv_pos_as_xyz
1 x,y,z
2 -x,1/2+y,1/2-z
3 -x,-y,-z
4 x,1/2-y,1/2+z
_cell_length_a                   9.958(2)
_cell_length_b                   14.194(3)
_cell_length_c                   6.8200(14)
_cell_angle_alpha                90
_cell_angle_beta                 109.25(3)
_cell_angle_gamma                90
_cell_volume                     910.069
_exptl_crystal_colour            white
_chemical_melting_point          105deg.C
_cell_formula_units_Z            4
loop_
_atom_site_label
_atom_site_type_symbol
_atom_site_fract_x
_atom_site_fract_y
_atom_site_fract_z
Cl1 Cl -0.38074(3) 0.14665(2) 0.16498(5)
N1 N 0.30587(10) 0.21453(7) 0.78510(16)
N2 N 0.25066(11) 0.03473(8) 1.10909(16)
C1 C 0.04182(13) 0.16065(8) 0.41124(18)
H1 H 0.1179 0.1808 0.3713
C2 C -0.09537(14) 0.16662(9) 0.2727(2)
H2 H -0.1121 0.1907 0.1400
C3 C -0.20717(13) 0.13621(8) 0.3345(2)
C4 C -0.18502(13) 0.09844(9) 0.52923(19)
H3 H -0.2613 0.0773 0.5673
C5 C -0.04747(12) 0.09257(8) 0.66691(18)
H4 H -0.0313 0.0669 0.7982
C6 C 0.06677(12) 0.12458(8) 0.61090(18)
C7 C 0.21326(12) 0.12258(8) 0.76110(18)
C8 C 0.34031(13) 0.14336(8) 0.70416(18)
C9 C 0.44422(12) 0.10816(9) 0.61138(18)
H5 H 0.5115 0.1570 0.6140
H6 H 0.3958 0.0896 0.4703
H7 H 0.4933 0.0549 0.6891
C10 C 0.23396(12) 0.07381(9) 0.95645(18)
loop_
_geom_bond_atom_site_label_1
_geom_bond_atom_site_label_2
_geom_bond_site_symmetry_1
_geom_bond_site_symmetry_2
Cl1 C3 1_555 1_555
N1 C7 1_555 1_555
N2 C10 1_555 1_555
C1 H1 1_555 1_555
C2 C1 1_555 1_555
H2 C2 1_555 1_555
C3 C2 1_555 1_555
C4 C3 1_555 1_555
H3 C4 1_555 1_555
C5 C4 1_555 1_555
H4 C5 1_555 1_555
C6 C1 1_555 1_555
C7 C6 1_555 1_555
C8 N1 1_555 1_555
C9 C8 1_555 1_555
H5 C9 1_555 1_555
H6 C9 1_555 1_555
H7 C9 1_555 1_555
C10 C7 1_555 1_555
C5 C6 1_555 1_555
C7 C8 1_555 1_555

#END
