
#######################################################################
#
#                 Cambridge Crystallographic Data Centre
#                                CCDC 
#
#######################################################################
#
# If this CIF has been generated from an entry in the Cambridge 
# Structural Database, then it will include bibliographic, chemical, 
# crystal, experimental, refinement or atomic coordinate data resulting 
# from the CCDC's data processing and validation procedures.
#
#######################################################################

data_RUTFIX
_chemical_formula_moiety         'C21 H14 O3'
_chemical_name_systematic        4-benzoyl-2-methoxy-9H-fluoren-9-one
_symmetry_cell_setting           monoclinic
_symmetry_space_group_name_H-M   'P 21/c'
_symmetry_Int_Tables_number      14
_space_group_name_Hall           '-P 2ybc'
loop_
_symmetry_equiv_pos_site_id
_symmetry_equiv_pos_as_xyz
1 x,y,z
2 -x,1/2+y,1/2-z
3 -x,-y,-z
4 x,1/2-y,1/2+z
_cell_length_a                   11.883(7)
_cell_length_b                   8.177(5)
_cell_length_c                   15.646(9)
_cell_angle_alpha                90
_cell_angle_beta                 96.828(10)
_cell_angle_gamma                90
_cell_volume                     1509.5
_exptl_crystal_colour            yellow
_exptl_crystal_description       Prism
_cell_formula_units_Z            4
loop_
_atom_site_label
_atom_site_type_symbol
_atom_site_fract_x
_atom_site_fract_y
_atom_site_fract_z
C1 C 0.28975(8) 1.12295(12) 0.06315(6)
C2 C 0.17423(8) 1.14899(13) 0.04594(6)
H1 H 0.1220 1.0661 0.0573
C3 C 0.13582(9) 1.29920(14) 0.01150(7)
H2 H 0.0566 1.3181 -0.0003
C4 C 0.21085(9) 1.42176(14) -0.00593(7)
H3 H 0.1827 1.5226 -0.0299
C5 C 0.32717(9) 1.39685(13) 0.01178(7)
H4 H 0.3794 1.4797 0.0004
C6 C 0.36449(8) 1.24854(13) 0.04632(6)
C7 C 0.48321(9) 1.19290(13) 0.07133(7)
C8 C 0.47289(8) 1.02404(12) 0.10560(6)
C9 C 0.56020(8) 0.92301(13) 0.13954(6)
H5 H 0.6371 0.9560 0.1411
C10 C 0.53193(8) 0.77151(13) 0.17138(6)
C11 C 0.41823(8) 0.72688(13) 0.16841(6)
H6 H 0.3997 0.6241 0.1914
C12 C 0.33064(8) 0.82908(13) 0.13260(6)
C13 C 0.35837(8) 0.98141(12) 0.10049(6)
C14 C 0.21128(8) 0.76769(12) 0.12634(6)
C15 C 0.17116(8) 0.68335(12) 0.20100(6)
C16 C 0.07967(8) 0.57541(13) 0.18567(7)
H7 H 0.0472 0.5542 0.1283
C17 C 0.03646(9) 0.49974(15) 0.25331(8)
H8 H -0.0245 0.4245 0.2426
C18 C 0.08222(9) 0.53365(15) 0.33712(7)
H9 H 0.0518 0.4822 0.3837
C19 C 0.17197(9) 0.64200(15) 0.35354(7)
H10 H 0.2022 0.6658 0.4112
C20 C 0.21740(8) 0.71552(13) 0.28548(6)
H11 H 0.2800 0.7878 0.2964
C21 C 0.72458(9) 0.70971(14) 0.21874(7)
H12 H 0.7494 0.7358 0.1628
H13 H 0.7713 0.6209 0.2459
H14 H 0.7326 0.8067 0.2557
O1 O 0.57018(6) 1.26802(10) 0.06606(5)
O2 O 0.14724(6) 0.78663(9) 0.05980(4)
O3 O 0.60856(6) 0.65972(10) 0.20674(5)
loop_
_geom_bond_atom_site_label_1
_geom_bond_atom_site_label_2
_geom_bond_site_symmetry_1
_geom_bond_site_symmetry_2
C1 C2 1_555 1_555
C2 H1 1_555 1_555
C3 C2 1_555 1_555
H2 C3 1_555 1_555
C4 C3 1_555 1_555
H3 C4 1_555 1_555
C5 C4 1_555 1_555
H4 C5 1_555 1_555
C6 C1 1_555 1_555
C7 C6 1_555 1_555
C8 C7 1_555 1_555
C9 C8 1_555 1_555
H5 C9 1_555 1_555
C10 C9 1_555 1_555
C11 C10 1_555 1_555
H6 C11 1_555 1_555
C12 C11 1_555 1_555
C13 C1 1_555 1_555
C14 C12 1_555 1_555
C15 C14 1_555 1_555
C16 C15 1_555 1_555
H7 C16 1_555 1_555
C17 C16 1_555 1_555
H8 C17 1_555 1_555
C18 C17 1_555 1_555
H9 C18 1_555 1_555
C19 C18 1_555 1_555
H10 C19 1_555 1_555
C20 C15 1_555 1_555
H11 C20 1_555 1_555
C21 H12 1_555 1_555
H13 C21 1_555 1_555
H14 C21 1_555 1_555
O1 C7 1_555 1_555
O2 C14 1_555 1_555
O3 C10 1_555 1_555
C5 C6 1_555 1_555
C8 C13 1_555 1_555
C12 C13 1_555 1_555
C19 C20 1_555 1_555
C21 O3 1_555 1_555

#END
