
#######################################################################
#
#                 Cambridge Crystallographic Data Centre
#                                CCDC 
#
#######################################################################
#
# If this CIF has been generated from an entry in the Cambridge 
# Structural Database, then it will include bibliographic, chemical, 
# crystal, experimental, refinement or atomic coordinate data resulting 
# from the CCDC's data processing and validation procedures.
#
#######################################################################

data_RUTSUW
_chemical_formula_moiety         'C23 H25 N3 O4'
_chemical_name_systematic        
1-benzyl-4-(6-(benzyloxy)-2,2-dimethyltetrahydrofuro[2,3-d][1,3]dioxol-5-yl)-1H-1,2,3-triazole
_symmetry_cell_setting           orthorhombic
_symmetry_space_group_name_H-M   'P 21 21 21'
_symmetry_Int_Tables_number      19
_space_group_name_Hall           'P 2ac 2ab'
loop_
_symmetry_equiv_pos_site_id
_symmetry_equiv_pos_as_xyz
1 x,y,z
2 1/2-x,-y,1/2+z
3 1/2+x,1/2-y,-z
4 -x,1/2+y,1/2-z
_cell_length_a                   9.5276(2)
_cell_length_b                   10.0030(2)
_cell_length_c                   21.9495(7)
_cell_angle_alpha                90
_cell_angle_beta                 90
_cell_angle_gamma                90
_cell_volume                     2091.89
_exptl_crystal_colour            colorless
_exptl_crystal_description       plate
_cell_formula_units_Z            4
loop_
_atom_site_label
_atom_site_type_symbol
_atom_site_fract_x
_atom_site_fract_y
_atom_site_fract_z
O1 O 1.16295(19) 0.88874(17) 0.19794(8)
C1 C 1.2698(3) 0.9325(2) 0.23846(11)
H1 H 1.2802 1.0299 0.2367
C2 C 1.2262(3) 0.8879(2) 0.30203(12)
H2 H 1.2484 0.9535 0.3338
C3 C 1.0704(3) 0.8622(2) 0.29521(11)
H3 H 1.0190 0.9468 0.2983
C4 C 1.0612(3) 0.8090(2) 0.23003(11)
H4 H 1.0914 0.7153 0.2295
C5 C 0.9254(3) 0.8207(2) 0.19804(11)
C6 C 0.8620(3) 0.9299(3) 0.17250(11)
H5 H 0.8943 1.0176 0.1724
N1 N 0.8440(3) 0.7120(2) 0.18755(10)
N2 N 0.7314(3) 0.7502(2) 0.15626(10)
N3 N 0.7435(2) 0.8834(2) 0.14768(9)
C7 C 0.6401(3) 0.9530(3) 0.11021(12)
H6 H 0.6524 1.0487 0.1150
H7 H 0.5466 0.9304 0.1243
C8 C 0.6530(3) 0.9172(2) 0.04351(12)
C9 C 0.7666(4) 0.9615(3) 0.00985(13)
H8 H 0.8340 1.0160 0.0278
C10 C 0.7797(4) 0.9242(3) -0.05091(14)
H9 H 0.8563 0.9536 -0.0735
C11 C 0.6808(4) 0.8446(3) -0.07767(14)
H10 H 0.6908 0.8191 -0.1182
C12 C 0.5672(4) 0.8026(3) -0.04496(15)
H11 H 0.4987 0.7502 -0.0635
C13 C 0.5537(3) 0.8380(3) 0.01595(14)
H12 H 0.4770 0.8078 0.0382
O2 O 1.29867(19) 0.76405(16) 0.30941(8)
C14 C 1.4170(3) 0.7600(2) 0.26879(11)
O3 O 1.3983(2) 0.86916(16) 0.22727(8)
C15 C 1.5517(3) 0.7802(3) 0.30359(13)
H13 H 1.5477 0.8636 0.3252
H14 H 1.6292 0.7816 0.2757
H15 H 1.5639 0.7084 0.3321
C16 C 1.4123(3) 0.6299(2) 0.23368(12)
H16 H 1.4858 0.6291 0.2038
H17 H 1.3230 0.6216 0.2137
H18 H 1.4250 0.5564 0.2613
O4 O 1.0121(2) 0.76803(16) 0.33605(8)
C17 C 0.9967(4) 0.8185(3) 0.39562(13)
H19 H 0.9405 0.8992 0.3945
H20 H 1.0883 0.8413 0.4119
C18 C 0.9281(3) 0.7180(2) 0.43610(12)
C19 C 0.9439(4) 0.7281(3) 0.49853(14)
H21 H 0.9965 0.7976 0.5150
C20 C 0.8820(4) 0.6357(3) 0.53642(13)
H22 H 0.8924 0.6437 0.5784
C21 C 0.8054(4) 0.5322(3) 0.51301(15)
H23 H 0.7648 0.4692 0.5388
C22 C 0.7889(4) 0.5223(3) 0.45101(15)
H24 H 0.7360 0.4528 0.4348
C23 C 0.8498(3) 0.6139(3) 0.41277(12)
H25 H 0.8383 0.6058 0.3709
loop_
_geom_bond_atom_site_label_1
_geom_bond_atom_site_label_2
_geom_bond_site_symmetry_1
_geom_bond_site_symmetry_2
O1 C1 1_555 1_555
C1 H1 1_555 1_555
C2 C1 1_555 1_555
H2 C2 1_555 1_555
C3 C2 1_555 1_555
H3 C3 1_555 1_555
C4 O1 1_555 1_555
H4 C4 1_555 1_555
C5 C4 1_555 1_555
C6 C5 1_555 1_555
H5 C6 1_555 1_555
N1 C5 1_555 1_555
N2 N1 1_555 1_555
N3 C6 1_555 1_555
C7 N3 1_555 1_555
H6 C7 1_555 1_555
H7 C7 1_555 1_555
C8 C7 1_555 1_555
C9 C8 1_555 1_555
H8 C9 1_555 1_555
C10 C9 1_555 1_555
H9 C10 1_555 1_555
C11 C10 1_555 1_555
H10 C11 1_555 1_555
C12 C11 1_555 1_555
H11 C12 1_555 1_555
C13 C8 1_555 1_555
H12 C13 1_555 1_555
O2 C2 1_555 1_555
C14 O2 1_555 1_555
O3 C1 1_555 1_555
C15 C14 1_555 1_555
H13 C15 1_555 1_555
H14 C15 1_555 1_555
H15 C15 1_555 1_555
C16 C14 1_555 1_555
H16 C16 1_555 1_555
H17 C16 1_555 1_555
H18 C16 1_555 1_555
O4 C3 1_555 1_555
C17 O4 1_555 1_555
H19 C17 1_555 1_555
H20 C17 1_555 1_555
C18 C17 1_555 1_555
C19 C18 1_555 1_555
H21 C19 1_555 1_555
C20 C19 1_555 1_555
H22 C20 1_555 1_555
C21 C20 1_555 1_555
H23 C21 1_555 1_555
C22 C21 1_555 1_555
H24 C22 1_555 1_555
C23 C18 1_555 1_555
H25 C23 1_555 1_555
C3 C4 1_555 1_555
N2 N3 1_555 1_555
C12 C13 1_555 1_555
C14 O3 1_555 1_555
C22 C23 1_555 1_555

#END
