
#######################################################################
#
#                 Cambridge Crystallographic Data Centre
#                                CCDC 
#
#######################################################################
#
# If this CIF has been generated from an entry in the Cambridge 
# Structural Database, then it will include bibliographic, chemical, 
# crystal, experimental, refinement or atomic coordinate data resulting 
# from the CCDC's data processing and validation procedures.
#
#######################################################################

data_RUVJUP
_chemical_name_common            
(E)-N-(2-fluoro-3-(p-tolyl)pent-2-en-1-yl)-N-(phenylsulfonyl)benzenesulfonamide
_chemical_formula_moiety         'C24 H24 F1 N1 O4 S2'
_chemical_name_systematic        
(E)-N-(2-fluoro-3-(4-methylphenyl)pent-2-en-1-yl)-N-(phenylsulfonyl)benzenesulfonamide
_symmetry_cell_setting           monoclinic
_symmetry_space_group_name_H-M   'P 21/c'
_symmetry_Int_Tables_number      14
_space_group_name_Hall           '-P 2ybc'
loop_
_symmetry_equiv_pos_site_id
_symmetry_equiv_pos_as_xyz
1 x,y,z
2 -x,1/2+y,1/2-z
3 -x,-y,-z
4 x,1/2-y,1/2+z
_cell_length_a                   13.5530(10)
_cell_length_b                   19.9104(15)
_cell_length_c                   8.5624(6)
_cell_angle_alpha                90
_cell_angle_beta                 98.2910(10)
_cell_angle_gamma                90
_cell_volume                     2286.38
_chemical_melting_point          '443-444 K'
_cell_formula_units_Z            4
_exptl_crystal_recrystallization_method 'petroleum ether/ethyl acetate'
loop_
_atom_site_label
_atom_site_type_symbol
_atom_site_fract_x
_atom_site_fract_y
_atom_site_fract_z
C1 C 0.8758(2) 0.10695(14) 0.5960(3)
C2 C 0.8893(3) 0.05003(17) 0.5124(4)
H1 H 0.8930 0.0083 0.5619
C3 C 0.8973(4) 0.05492(18) 0.3543(4)
H2 H 0.9048 0.0162 0.2964
C4 C 0.8943(3) 0.11561(16) 0.2821(4)
H3 H 0.9009 0.1186 0.1757
C5 C 0.8818(3) 0.17195(16) 0.3659(4)
H4 H 0.8799 0.2136 0.3164
C6 C 0.8719(3) 0.16832(15) 0.5243(4)
H5 H 0.8628 0.2071 0.5810
C7 C 0.6473(2) 0.10195(15) 0.9835(3)
C8 C 0.6620(2) 0.16994(16) 1.0111(4)
H6 H 0.6854 0.1971 0.9360
C9 C 0.6415(3) 0.19700(18) 1.1518(4)
H7 H 0.6490 0.2429 1.1703
C10 C 0.6099(3) 0.1560(2) 1.2646(4)
H8 H 0.5981 0.1741 1.3604
C11 C 0.5956(3) 0.0887(2) 1.2360(4)
H9 H 0.5736 0.0616 1.3124
C12 C 0.6135(2) 0.06056(17) 1.0948(4)
H10 H 0.6032 0.0150 1.0751
C13 C 0.8219(2) -0.00898(13) 0.9483(3)
H11 H 0.8891 -0.0007 1.0009
H12 H 0.7778 -0.0081 1.0279
C14 C 0.8182(2) -0.07700(14) 0.8761(3)
C15 C 0.7833(2) -0.13370(14) 0.9246(3)
C16 C 0.7989(2) -0.19924(15) 0.8436(4)
H13 H 0.8025 -0.1909 0.7329
H14 H 0.7425 -0.2286 0.8499
C17 C 0.8938(3) -0.23348(16) 0.9188(4)
H15 H 0.9020 -0.2750 0.8652
H16 H 0.9498 -0.2047 0.9111
H17 H 0.8898 -0.2424 1.0279
C18 C 0.7353(2) -0.13504(14) 1.0700(3)
C19 C 0.6387(2) -0.15862(15) 1.0681(4)
H18 H 0.6032 -0.1741 0.9740
C20 C 0.5945(2) -0.15942(17) 1.2043(4)
H19 H 0.5297 -0.1756 1.1997
C21 C 0.6442(2) -0.13673(16) 1.3466(4)
C22 C 0.7404(2) -0.11457(15) 1.3487(4)
H20 H 0.7760 -0.0996 1.4432
C23 C 0.7857(2) -0.11395(14) 1.2136(3)
H21 H 0.8512 -0.0991 1.2196
C24 C 0.5948(3) -0.1375(2) 1.4935(4)
H22 H 0.5282 -0.1545 1.4684
H23 H 0.6322 -0.1657 1.5716
H24 H 0.5926 -0.0926 1.5341
N1 N 0.79310(17) 0.04634(11) 0.8336(3)
O1 O 0.85736(15) 0.16660(9) 0.8604(2)
O2 O 0.97297(14) 0.07109(10) 0.8652(2)
O3 O 0.66303(15) 0.11889(10) 0.6865(2)
O4 O 0.61953(15) 0.00598(10) 0.7785(3)
F1 F 0.86744(14) -0.07735(8) 0.7462(2)
S1 S 0.88089(5) 0.10241(4) 0.80161(8)
S2 S 0.67213(5) 0.06769(4) 0.80367(9)
loop_
_geom_bond_atom_site_label_1
_geom_bond_atom_site_label_2
_geom_bond_site_symmetry_1
_geom_bond_site_symmetry_2
C1 C2 1_555 1_555
C2 H1 1_555 1_555
C3 C2 1_555 1_555
H2 C3 1_555 1_555
C4 C3 1_555 1_555
H3 C4 1_555 1_555
C5 C4 1_555 1_555
H4 C5 1_555 1_555
C6 C1 1_555 1_555
H5 C6 1_555 1_555
C7 C8 1_555 1_555
C8 H6 1_555 1_555
C9 C8 1_555 1_555
H7 C9 1_555 1_555
C10 C9 1_555 1_555
H8 C10 1_555 1_555
C11 C10 1_555 1_555
H9 C11 1_555 1_555
C12 C7 1_555 1_555
H10 C12 1_555 1_555
C13 H11 1_555 1_555
H12 C13 1_555 1_555
C14 C13 1_555 1_555
C15 C14 1_555 1_555
C16 C15 1_555 1_555
H13 C16 1_555 1_555
H14 C16 1_555 1_555
C17 C16 1_555 1_555
H15 C17 1_555 1_555
H16 C17 1_555 1_555
H17 C17 1_555 1_555
C18 C15 1_555 1_555
C19 C18 1_555 1_555
H18 C19 1_555 1_555
C20 C19 1_555 1_555
H19 C20 1_555 1_555
C21 C20 1_555 1_555
C22 C21 1_555 1_555
H20 C22 1_555 1_555
C23 C18 1_555 1_555
H21 C23 1_555 1_555
C24 C21 1_555 1_555
H22 C24 1_555 1_555
H23 C24 1_555 1_555
H24 C24 1_555 1_555
N1 C13 1_555 1_555
O1 S1 1_555 1_555
O2 S1 1_555 1_555
O3 S2 1_555 1_555
O4 S2 1_555 1_555
F1 C14 1_555 1_555
S1 C1 1_555 1_555
S2 C7 1_555 1_555
C5 C6 1_555 1_555
C11 C12 1_555 1_555
C22 C23 1_555 1_555
N1 S1 1_555 1_555
N1 S2 1_555 1_555

#END
