
#######################################################################
#
#                 Cambridge Crystallographic Data Centre
#                                CCDC 
#
#######################################################################
#
# If this CIF has been generated from an entry in the Cambridge 
# Structural Database, then it will include bibliographic, chemical, 
# crystal, experimental, refinement or atomic coordinate data resulting 
# from the CCDC's data processing and validation procedures.
#
#######################################################################

data_RUVSOS
_chemical_compound_source        'deep-sea-derived fungus Penicillium sp. F23-2'
_chemical_name_common            'Penicyclone A'
_chemical_formula_moiety         'C12 H16 O5'
_chemical_name_systematic        
(3R,6S,10R,11R)-10,11-Dihydroxy-3,9-dimethyl-1-oxaspiro[5.5]undec-8-ene-2,7-dione
_chemical_properties_biological  'antimicrobial activity'
_symmetry_cell_setting           monoclinic
_symmetry_space_group_name_H-M   'P 21'
_symmetry_Int_Tables_number      4
_space_group_name_Hall           'P 2yb'
loop_
_symmetry_equiv_pos_site_id
_symmetry_equiv_pos_as_xyz
1 x,y,z
2 -x,1/2+y,-z
_cell_length_a                   9.2138(9)
_cell_length_b                   7.3606(6)
_cell_length_c                   16.9811(12)
_cell_angle_alpha                90
_cell_angle_beta                 102.272(8)
_cell_angle_gamma                90
_cell_volume                     1125.33
_exptl_crystal_colour            colorless
_exptl_crystal_description       needle
_cell_formula_units_Z            4
loop_
_atom_site_label
_atom_site_type_symbol
_atom_site_fract_x
_atom_site_fract_y
_atom_site_fract_z
C1 C 0.0917(4) 0.5755(5) 0.43104(19)
C2 C 0.2198(4) 0.5445(5) 0.50241(19)
H1 H 0.1816 0.4679 0.5406
C3 C 0.2686(4) 0.7223(6) 0.5455(2)
H2 H 0.3423 0.6982 0.5935
H3 H 0.1845 0.7807 0.5596
H4 H 0.3100 0.8003 0.5106
C4 C 0.3464(4) 0.4399(5) 0.47866(19)
H5 H 0.4192 0.4066 0.5266
H6 H 0.3951 0.5161 0.4454
C5 C 0.2860(4) 0.2685(5) 0.43197(19)
H7 H 0.3671 0.2006 0.4180
H8 H 0.2382 0.1918 0.4654
C6 C 0.1739(4) 0.3212(5) 0.35523(19)
C7 C 0.2554(4) 0.4064(5) 0.29481(18)
C8 C 0.3210(4) 0.2836(5) 0.24461(19)
H9 H 0.3929 0.3285 0.2188
C9 C 0.2816(4) 0.1090(5) 0.23435(19)
C10 C 0.1742(4) 0.0237(5) 0.27931(19)
H10 H 0.1079 -0.0574 0.2424
C11 C 0.0800(4) 0.1609(5) 0.31245(19)
H11 H 0.0098 0.2120 0.2662
C12 C 0.3372(4) -0.0119(6) 0.1765(2)
H12 H 0.2588 -0.0341 0.1304
H13 H 0.3698 -0.1251 0.2024
H14 H 0.4189 0.0459 0.1595
O1 O 0.0032(3) 0.6982(4) 0.42675(15)
O2 O 0.0659(3) 0.4514(4) 0.37067(13)
O3 O -0.0053(3) 0.0772(4) 0.36230(15)
H15 H 0.0379 -0.0139 0.3830
O4 O 0.2560(3) -0.0830(4) 0.34504(13)
H16 H 0.2581 -0.1893 0.3308
O5 O 0.2684(3) 0.5717(4) 0.29033(14)
C13 C 0.0842(4) 0.4102(5) 0.97268(18)
C14 C 0.2324(4) 0.4054(5) 1.03285(18)
H17 H 0.2208 0.3190 1.0750
C15 C 0.2626(4) 0.5910(6) 1.0740(2)
H18 H 0.3552 0.5870 1.1127
H19 H 0.1838 0.6200 1.1009
H20 H 0.2676 0.6822 1.0343
C16 C 0.3639(4) 0.3398(5) 0.99970(19)
H21 H 0.4417 0.2976 1.0437
H22 H 0.4033 0.4401 0.9736
C17 C 0.3187(4) 0.1866(5) 0.93943(19)
H23 H 0.2875 0.0821 0.9665
H24 H 0.4031 0.1507 0.9173
C18 C 0.1916(4) 0.2475(5) 0.87136(18)
C19 C 0.2430(4) 0.4035(5) 0.82294(18)
C20 C 0.3038(4) 0.3508(5) 0.75323(18)
H25 H 0.3451 0.4408 0.7264
C21 C 0.3030(4) 0.1808(5) 0.72637(18)
C22 C 0.2326(4) 0.0260(5) 0.76317(18)
H26 H 0.1758 -0.0476 0.7191
C23 C 0.1246(4) 0.0956(5) 0.81386(18)
H27 H 0.0377 0.1455 0.7767
C24 C 0.3684(4) 0.1297(6) 0.65539(19)
H28 H 0.2898 0.1077 0.6093
H29 H 0.4272 0.0217 0.6679
H30 H 0.4300 0.2270 0.6437
O6 O 0.0670(3) 0.3183(4) 0.90235(12)
O7 O -0.0242(3) 0.4829(4) 0.98651(14)
O8 O 0.2377(3) 0.5593(4) 0.84549(14)
O9 O 0.0767(3) -0.0559(4) 0.85254(13)
H31 H 0.0478 -0.0219 0.8926
O10 O 0.3477(3) -0.0849(4) 0.80793(13)
H32 H 0.3135 -0.1842 0.8163
loop_
_geom_bond_atom_site_label_1
_geom_bond_atom_site_label_2
_geom_bond_site_symmetry_1
_geom_bond_site_symmetry_2
C1 C2 1_555 1_555
C2 H1 1_555 1_555
C3 C2 1_555 1_555
H2 C3 1_555 1_555
H3 C3 1_555 1_555
H4 C3 1_555 1_555
C4 C2 1_555 1_555
H5 C4 1_555 1_555
H6 C4 1_555 1_555
C5 C4 1_555 1_555
H7 C5 1_555 1_555
H8 C5 1_555 1_555
C6 C5 1_555 1_555
C7 C6 1_555 1_555
C8 C7 1_555 1_555
H9 C8 1_555 1_555
C9 C8 1_555 1_555
C10 C9 1_555 1_555
H10 C10 1_555 1_555
C11 C6 1_555 1_555
H11 C11 1_555 1_555
C12 C9 1_555 1_555
H12 C12 1_555 1_555
H13 C12 1_555 1_555
H14 C12 1_555 1_555
O1 C1 1_555 1_555
O2 C1 1_555 1_555
O3 C11 1_555 1_555
H15 O3 1_555 1_555
O4 C10 1_555 1_555
H16 O4 1_555 1_555
O5 C7 1_555 1_555
C13 C14 1_555 1_555
C14 H17 1_555 1_555
C15 C14 1_555 1_555
H18 C15 1_555 1_555
H19 C15 1_555 1_555
H20 C15 1_555 1_555
C16 C14 1_555 1_555
H21 C16 1_555 1_555
H22 C16 1_555 1_555
C17 C16 1_555 1_555
H23 C17 1_555 1_555
H24 C17 1_555 1_555
C18 C17 1_555 1_555
C19 C18 1_555 1_555
C20 C19 1_555 1_555
H25 C20 1_555 1_555
C21 C20 1_555 1_555
C22 C21 1_555 1_555
H26 C22 1_555 1_555
C23 C18 1_555 1_555
H27 C23 1_555 1_555
C24 C21 1_555 1_555
H28 C24 1_555 1_555
H29 C24 1_555 1_555
H30 C24 1_555 1_555
O6 C13 1_555 1_555
O7 C13 1_555 1_555
O8 C19 1_555 1_555
O9 C23 1_555 1_555
H31 O9 1_555 1_555
O10 C22 1_555 1_555
H32 O10 1_555 1_555
C6 O2 1_555 1_555
C10 C11 1_555 1_555
C18 O6 1_555 1_555
C22 C23 1_555 1_555

#END
