
#######################################################################
#
#                 Cambridge Crystallographic Data Centre
#                                CCDC 
#
#######################################################################
#
# If this CIF has been generated from an entry in the Cambridge 
# Structural Database, then it will include bibliographic, chemical, 
# crystal, experimental, refinement or atomic coordinate data resulting 
# from the CCDC's data processing and validation procedures.
#
#######################################################################

data_RUVSEI
_chemical_compound_source        'aerial parts of Myrioneuron faberi'
_chemical_name_common            Myrionamide
_chemical_formula_moiety         'C15 H24 N2 O1'
_chemical_name_systematic        
Dodecahydro-1H,4H,9H-dipyrido[2,1-b:3',2',1'-ij]quinazolin-1-one
_chemical_properties_biological  'anti-HCV activity'
_symmetry_cell_setting           triclinic
_symmetry_space_group_name_H-M   'P -1'
_symmetry_Int_Tables_number      2
_space_group_name_Hall           '-P 1'
loop_
_symmetry_equiv_pos_site_id
_symmetry_equiv_pos_as_xyz
1 x,y,z
2 -x,-y,-z
_cell_length_a                   8.8466(2)
_cell_length_b                   9.1188(2)
_cell_length_c                   9.5971(2)
_cell_angle_alpha                95.0940(10)
_cell_angle_beta                 112.7170(10)
_cell_angle_gamma                112.0040(10)
_cell_volume                     636.97
_exptl_crystal_colour            colorless
_chemical_melting_point          '334-335 K'
_cell_formula_units_Z            2
_exptl_crystal_recrystallization_method acetone
loop_
_atom_site_label
_atom_site_type_symbol
_atom_site_fract_x
_atom_site_fract_y
_atom_site_fract_z
O1 O 0.86564(16) 0.59317(15) 0.32393(13)
N1 N 0.74076(16) 0.74585(15) 0.39219(14)
N2 N 0.41724(16) 0.58149(14) 0.24617(14)
C1 C 0.8628(2) 1.01393(18) 0.78554(17)
H1 H 0.9722 1.0569 0.8890
H2 H 0.8461 1.1090 0.7529
C2 C 0.89655(19) 0.92480(17) 0.66576(17)
H3 H 0.9928 1.0097 0.6475
C3 C 0.72207(19) 0.84342(17) 0.50963(17)
H4 H 0.7000 0.9337 0.4673
C4 C 0.58515(19) 0.68153(18) 0.23514(17)
H5 H 0.6053 0.6054 0.1706
C5 C 0.57475(19) 0.81725(17) 0.15366(17)
H6 H 0.5631 0.8998 0.2177
H7 H 0.6886 0.8733 0.1439
C6 C 0.4101(2) 0.74355(18) -0.00963(17)
H8 H 0.3965 0.8332 -0.0563
H9 H 0.4310 0.6742 -0.0785
C7 C 0.23492(19) 0.63992(18) -0.00007(17)
H10 H 0.1328 0.5833 -0.1073
H11 H 0.2034 0.7121 0.0551
C8 C 0.26093(19) 0.51289(18) 0.08792(17)
H12 H 0.1479 0.4512 0.0971
H13 H 0.2772 0.4336 0.0246
C9 C 0.38663(19) 0.67033(17) 0.35986(17)
H14 H 0.2749 0.5959 0.3649
H15 H 0.3677 0.7638 0.3250
C10 C 0.55022(19) 0.73444(17) 0.52288(17)
H16 H 0.5654 0.6385 0.5576
C11 C 0.86446(19) 0.68321(18) 0.42610(17)
C12 C 1.00919(19) 0.73282(19) 0.59511(17)
H17 H 1.1255 0.8186 0.6061
H18 H 1.0296 0.6362 0.6181
C13 C 0.96252(19) 0.79776(18) 0.71705(17)
H19 H 0.8657 0.7062 0.7268
H20 H 1.0721 0.8485 0.8206
C14 C 0.6953(2) 0.90320(19) 0.80258(17)
H21 H 0.6771 0.9681 0.8776
H22 H 0.7161 0.8137 0.8451
C15 C 0.5235(2) 0.82902(18) 0.64379(17)
H23 H 0.4180 0.7539 0.6566
H24 H 0.4962 0.9180 0.6059
loop_
_geom_bond_atom_site_label_1
_geom_bond_atom_site_label_2
_geom_bond_site_symmetry_1
_geom_bond_site_symmetry_2
O1 C11 1_555 1_555
N1 C3 1_555 1_555
N2 C4 1_555 1_555
C1 H1 1_555 1_555
H2 C1 1_555 1_555
C2 C1 1_555 1_555
H3 C2 1_555 1_555
C3 C2 1_555 1_555
H4 C3 1_555 1_555
C4 N1 1_555 1_555
H5 C4 1_555 1_555
C5 C4 1_555 1_555
H6 C5 1_555 1_555
H7 C5 1_555 1_555
C6 C5 1_555 1_555
H8 C6 1_555 1_555
H9 C6 1_555 1_555
C7 C6 1_555 1_555
H10 C7 1_555 1_555
H11 C7 1_555 1_555
C8 N2 1_555 1_555
H12 C8 1_555 1_555
H13 C8 1_555 1_555
C9 N2 1_555 1_555
H14 C9 1_555 1_555
H15 C9 1_555 1_555
C10 C3 1_555 1_555
H16 C10 1_555 1_555
C11 N1 1_555 1_555
C12 C11 1_555 1_555
H17 C12 1_555 1_555
H18 C12 1_555 1_555
C13 C2 1_555 1_555
H19 C13 1_555 1_555
H20 C13 1_555 1_555
C14 C1 1_555 1_555
H21 C14 1_555 1_555
H22 C14 1_555 1_555
C15 C10 1_555 1_555
H23 C15 1_555 1_555
H24 C15 1_555 1_555
C7 C8 1_555 1_555
C9 C10 1_555 1_555
C12 C13 1_555 1_555
C14 C15 1_555 1_555

#END
