
#######################################################################
#
#                 Cambridge Crystallographic Data Centre
#                                CCDC 
#
#######################################################################
#
# If this CIF has been generated from an entry in the Cambridge 
# Structural Database, then it will include bibliographic, chemical, 
# crystal, experimental, refinement or atomic coordinate data resulting 
# from the CCDC's data processing and validation procedures.
#
#######################################################################

data_RUWBUI
_chemical_formula_moiety         'C38 H43 N4 P1 S1'
_chemical_name_systematic        
((methylimino)(diphenyl)sulfanyl)(tris(4-(dimethylamino)phenyl)phosphaniumyl)methanediide
_symmetry_cell_setting           triclinic
_symmetry_space_group_name_H-M   'P -1'
_symmetry_Int_Tables_number      2
_space_group_name_Hall           '-P 1'
loop_
_symmetry_equiv_pos_site_id
_symmetry_equiv_pos_as_xyz
1 x,y,z
2 -x,-y,-z
_cell_length_a                   9.193(3)
_cell_length_b                   10.664(6)
_cell_length_c                   18.189(7)
_cell_angle_alpha                91.507(17)
_cell_angle_beta                 97.638(12)
_cell_angle_gamma                106.659(16)
_cell_volume                     1689.25
_exptl_crystal_colour            yellow
_exptl_crystal_description       rod
_chemical_melting_point          '393-394 K'
_cell_formula_units_Z            2
loop_
_atom_site_label
_atom_site_type_symbol
_atom_site_fract_x
_atom_site_fract_y
_atom_site_fract_z
S1 S 0.03054(7) 0.03325(6) 0.17291(3)
C1 C 0.0329(3) 0.0885(3) 0.25596(13)
P1 P 0.17112(7) 0.21139(6) 0.30313(3)
N1 N 0.1182(2) 0.1047(2) 0.11110(11)
C2 C 0.0806(3) -0.1187(2) 0.16912(13)
C3 C 0.1209(3) -0.1649(3) 0.10518(15)
H1 H 0.1308 -0.1138 0.0631
C4 C 0.1467(3) -0.2868(3) 0.10359(17)
H2 H 0.1736 -0.3196 0.0599
C5 C 0.1336(3) -0.3604(3) 0.16434(17)
H3 H 0.1500 -0.4443 0.1624
C6 C 0.0969(4) -0.3127(3) 0.22785(18)
H4 H 0.0909 -0.3627 0.2704
C7 C 0.0685(3) -0.1922(3) 0.23034(15)
H5 H 0.0408 -0.1604 0.2741
C8 C -0.1709(3) -0.0315(2) 0.13358(13)
C9 C -0.2855(3) -0.0425(3) 0.17721(15)
H6 H -0.2608 -0.0213 0.2293
C10 C -0.4376(3) -0.0850(4) 0.14355(18)
H7 H -0.5177 -0.0919 0.1726
C11 C -0.4727(3) -0.1174(3) 0.06805(17)
H8 H -0.5769 -0.1470 0.0454
C12 C -0.3572(3) -0.1070(3) 0.02509(15)
H9 H -0.3821 -0.1295 -0.0269
C13 C -0.2056(3) -0.0638(3) 0.05765(13)
H10 H -0.1257 -0.0562 0.0283
C14 C 0.0909(4) 0.2307(3) 0.09431(15)
H11 H -0.0138 0.2149 0.0683
H12 H 0.1645 0.2772 0.0627
H13 H 0.1037 0.2840 0.1407
C15 C 0.0887(3) 0.3349(2) 0.33474(13)
C16 C -0.0633(3) 0.3254(3) 0.30791(13)
H14 H -0.1193 0.2572 0.2714
C17 C -0.1350(3) 0.4123(3) 0.33284(14)
H15 H -0.2392 0.4024 0.3137
C18 C -0.0560(3) 0.5149(3) 0.38606(13)
C19 C 0.0971(3) 0.5245(3) 0.41328(13)
H16 H 0.1540 0.5929 0.4494
C20 C 0.1663(3) 0.4358(3) 0.38831(14)
H17 H 0.2697 0.4438 0.4082
N2 N -0.1254(3) 0.6036(2) 0.41077(13)
C21 C -0.2759(4) 0.6026(4) 0.3748(3)
H18 H -0.2694 0.6299 0.3241
H19 H -0.3138 0.6634 0.4029
H20 H -0.3466 0.5138 0.3733
C22 C -0.0322(4) 0.7210(3) 0.45444(18)
H21 H 0.0158 0.6970 0.5012
H22 H -0.0969 0.7760 0.4652
H23 H 0.0477 0.7697 0.4266
C23 C 0.2562(3) 0.1623(2) 0.38909(13)
C24 C 0.1688(3) 0.0605(2) 0.42514(13)
H24 H 0.0688 0.0126 0.4018
C25 C 0.2236(3) 0.0271(3) 0.49406(14)
H25 H 0.1607 -0.0433 0.5170
C26 C 0.3703(3) 0.0952(3) 0.53082(13)
C27 C 0.4590(3) 0.1977(3) 0.49416(14)
H26 H 0.5594 0.2456 0.5171
C28 C 0.4026(3) 0.2298(3) 0.42529(14)
H27 H 0.4652 0.2997 0.4019
N3 N 0.4221(3) 0.0631(3) 0.59998(13)
C29 C 0.3338(4) -0.0543(3) 0.63067(16)
H28 H 0.2331 -0.0454 0.6373
H29 H 0.3885 -0.0659 0.6788
H30 H 0.3202 -0.1308 0.5965
C30 C 0.5710(4) 0.1320(4) 0.63779(16)
H31 H 0.6491 0.1157 0.6102
H32 H 0.5841 0.1013 0.6879
H33 H 0.5822 0.2262 0.6413
C31 C 0.3315(3) 0.2965(2) 0.25799(13)
C32 C 0.4180(3) 0.2232(3) 0.22923(13)
H34 H 0.3974 0.1330 0.2386
C33 C 0.5325(3) 0.2786(3) 0.18761(14)
H35 H 0.5900 0.2265 0.1695
C34 C 0.5648(3) 0.4116(3) 0.17178(14)
C35 C 0.4775(3) 0.4844(3) 0.20026(15)
H36 H 0.4964 0.5743 0.1905
C36 C 0.3645(3) 0.4276(3) 0.24224(14)
H37 H 0.3076 0.4798 0.2609
N4 N 0.6797(3) 0.4680(3) 0.13049(15)
C37 C 0.6972(4) 0.5983(4) 0.1062(2)
H38 H 0.6046 0.5993 0.0728
H39 H 0.7862 0.6243 0.0797
H40 H 0.7126 0.6598 0.1495
C38 C 0.7626(4) 0.3887(4) 0.0997(2)
H41 H 0.8124 0.3491 0.1399
H42 H 0.8408 0.4437 0.0731
H43 H 0.6913 0.3194 0.0651
loop_
_geom_bond_atom_site_label_1
_geom_bond_atom_site_label_2
_geom_bond_site_symmetry_1
_geom_bond_site_symmetry_2
S1 C1 1_555 1_555
C1 P1 1_555 1_555
P1 C15 1_555 1_555
N1 S1 1_555 1_555
C2 S1 1_555 1_555
C3 C2 1_555 1_555
H1 C3 1_555 1_555
C4 C3 1_555 1_555
H2 C4 1_555 1_555
C5 C4 1_555 1_555
H3 C5 1_555 1_555
C6 C5 1_555 1_555
H4 C6 1_555 1_555
C7 C2 1_555 1_555
H5 C7 1_555 1_555
C8 S1 1_555 1_555
C9 C8 1_555 1_555
H6 C9 1_555 1_555
C10 C9 1_555 1_555
H7 C10 1_555 1_555
C11 C10 1_555 1_555
H8 C11 1_555 1_555
C12 C11 1_555 1_555
H9 C12 1_555 1_555
C13 C8 1_555 1_555
H10 C13 1_555 1_555
C14 N1 1_555 1_555
H11 C14 1_555 1_555
H12 C14 1_555 1_555
H13 C14 1_555 1_555
C15 C16 1_555 1_555
C16 H14 1_555 1_555
C17 C16 1_555 1_555
H15 C17 1_555 1_555
C18 C17 1_555 1_555
C19 C18 1_555 1_555
H16 C19 1_555 1_555
C20 C15 1_555 1_555
H17 C20 1_555 1_555
N2 C18 1_555 1_555
C21 N2 1_555 1_555
H18 C21 1_555 1_555
H19 C21 1_555 1_555
H20 C21 1_555 1_555
C22 N2 1_555 1_555
H21 C22 1_555 1_555
H22 C22 1_555 1_555
H23 C22 1_555 1_555
C23 P1 1_555 1_555
C24 C23 1_555 1_555
H24 C24 1_555 1_555
C25 C24 1_555 1_555
H25 C25 1_555 1_555
C26 C25 1_555 1_555
C27 C26 1_555 1_555
H26 C27 1_555 1_555
C28 C23 1_555 1_555
H27 C28 1_555 1_555
N3 C26 1_555 1_555
C29 N3 1_555 1_555
H28 C29 1_555 1_555
H29 C29 1_555 1_555
H30 C29 1_555 1_555
C30 N3 1_555 1_555
H31 C30 1_555 1_555
H32 C30 1_555 1_555
H33 C30 1_555 1_555
C31 P1 1_555 1_555
C32 C31 1_555 1_555
H34 C32 1_555 1_555
C33 C32 1_555 1_555
H35 C33 1_555 1_555
C34 C33 1_555 1_555
C35 C34 1_555 1_555
H36 C35 1_555 1_555
C36 C31 1_555 1_555
H37 C36 1_555 1_555
N4 C34 1_555 1_555
C37 N4 1_555 1_555
H38 C37 1_555 1_555
H39 C37 1_555 1_555
H40 C37 1_555 1_555
C38 N4 1_555 1_555
H41 C38 1_555 1_555
H42 C38 1_555 1_555
H43 C38 1_555 1_555
C6 C7 1_555 1_555
C12 C13 1_555 1_555
C19 C20 1_555 1_555
C27 C28 1_555 1_555
C35 C36 1_555 1_555

#END
