
#######################################################################
#
#                 Cambridge Crystallographic Data Centre
#                                CCDC 
#
#######################################################################
#
# If this CIF has been generated from an entry in the Cambridge 
# Structural Database, then it will include bibliographic, chemical, 
# crystal, experimental, refinement or atomic coordinate data resulting 
# from the CCDC's data processing and validation procedures.
#
#######################################################################

data_RUWPUV
_chemical_formula_moiety         'C36 H34 N6 O6,C1 H4 O1'
_chemical_name_systematic        
'2,5,8,11-Tetraoxatridecan-13-yl 3,5-bis(4-(3-ethynylphenyl)-1H-1,2,3-triazol-1-yl)benzoate methanol solvate'
_symmetry_cell_setting           monoclinic
_symmetry_space_group_name_H-M   'P 21/n'
_symmetry_Int_Tables_number      14
_space_group_name_Hall           '-P 2yn'
loop_
_symmetry_equiv_pos_site_id
_symmetry_equiv_pos_as_xyz
1 x,y,z
2 1/2-x,1/2+y,1/2-z
3 -x,-y,-z
4 1/2+x,1/2-y,1/2+z
_cell_length_a                   10.3554(19)
_cell_length_b                   32.575(5)
_cell_length_c                   10.4974(18)
_cell_angle_alpha                90
_cell_angle_beta                 100.230(10)
_cell_angle_gamma                90
_cell_volume                     3484.76
_exptl_crystal_description       prism/plate
_cell_formula_units_Z            4
loop_
_atom_site_label
_atom_site_type_symbol
_atom_site_fract_x
_atom_site_fract_y
_atom_site_fract_z
O1 O 0.50038(15) 0.25996(4) 0.78789(13)
O2 O 0.43788(14) 0.20656(4) 0.65516(13)
O3 O 0.56826(15) 0.13378(4) 0.62544(14)
O4 O 0.78322(15) 0.11492(5) 0.51203(14)
O5 O 1.06525(15) 0.12901(5) 0.36176(14)
O6 O 1.2976(2) 0.08649(6) 0.3614(2)
N1 N 0.2884(2) 0.44439(5) 0.45869(17)
N2 N 0.27768(19) 0.40655(5) 0.41544(17)
N3 N 0.36550(17) 0.38369(5) 0.49727(15)
N4 N 0.29608(16) 0.26609(5) 0.21190(15)
N5 N 0.29835(17) 0.22496(5) 0.19125(16)
N6 N 0.25830(17) 0.21920(5) 0.06731(16)
C1 C 0.3641(2) 0.52137(6) 0.5900(2)
H1 H 0.2986 0.5214 0.5142
C2 C 0.4013(2) 0.55828(7) 0.6531(2)
C3 C 0.4980(3) 0.55836(7) 0.7631(2)
H2 H 0.5245 0.5834 0.8062
C4 C 0.5556(3) 0.52179(7) 0.8098(2)
H3 H 0.6219 0.5219 0.8850
C5 C 0.5179(2) 0.48501(7) 0.7484(2)
H4 H 0.5575 0.4601 0.7823
C6 C 0.4216(2) 0.48445(6) 0.6365(2)
C7 C 0.3838(2) 0.44594(6) 0.56754(19)
C8 C 0.4323(2) 0.40728(6) 0.59289(19)
H5 H 0.4984 0.3988 0.6625
C9 C 0.3728(2) 0.34040(6) 0.47910(19)
C10 C 0.41429(19) 0.31513(6) 0.58443(19)
H6 H 0.4420 0.3264 0.6683
C11 C 0.41448(19) 0.27297(6) 0.56476(18)
C12 C 0.37567(19) 0.25613(6) 0.44278(18)
H7 H 0.3762 0.2273 0.4303
C13 C 0.33583(19) 0.28255(6) 0.33871(18)
C14 C 0.33416(19) 0.32486(6) 0.35518(18)
H8 H 0.3073 0.3426 0.2836
C15 C 0.25280(19) 0.28637(6) 0.09981(18)
H9 H 0.2417 0.3151 0.0878
C16 C 0.22866(19) 0.25628(6) 0.00786(18)
C17 C 0.17947(19) 0.26052(6) -0.13203(18)
C18 C 0.1536(2) 0.29920(6) -0.18628(19)
H10 H 0.1671 0.3228 -0.1323
C19 C 0.1082(2) 0.30397(7) -0.31892(19)
C20 C 0.0885(2) 0.26917(7) -0.3975(2)
H11 H 0.0586 0.2720 -0.4880
C21 C 0.1121(2) 0.23094(7) -0.3440(2)
H12 H 0.0974 0.2074 -0.3980
C22 C 0.1574(2) 0.22602(7) -0.2118(2)
H13 H 0.1733 0.1993 -0.1762
C23 C 0.3386(3) 0.59609(7) 0.6006(2)
C24 C 0.2887(3) 0.62612(7) 0.5523(2)
H14 H 0.2484 0.6503 0.5134
C25 C 0.45592(19) 0.24667(6) 0.68156(19)
C26 C 0.0820(2) 0.34451(8) -0.3727(2)
C27 C 0.0618(3) 0.37771(9) -0.4161(2)
H15 H 0.0456 0.4045 -0.4511
C28 C 0.4793(2) 0.17924(6) 0.76403(19)
H16 H 0.4184 0.1815 0.8266
H17 H 0.5685 0.1868 0.8089
C29 C 0.4790(2) 0.13616(6) 0.7133(2)
H18 H 0.5056 0.1168 0.7858
H19 H 0.3897 0.1287 0.6687
C30 C 0.5946(2) 0.09239(6) 0.5947(2)
H20 H 0.5114 0.0768 0.5735
H21 H 0.6502 0.0791 0.6698
C31 C 0.6640(2) 0.09238(7) 0.4809(2)
H22 H 0.6831 0.0638 0.4581
H23 H 0.6071 0.1050 0.4053
C32 C 0.8626(2) 0.10996(7) 0.4154(2)
H24 H 0.8112 0.1164 0.3289
H25 H 0.8938 0.0812 0.4145
C33 C 0.9777(2) 0.13879(7) 0.4468(2)
H26 H 0.9480 0.1676 0.4343
H27 H 1.0215 0.1352 0.5379
C34 C 1.1902(2) 0.14821(8) 0.3942(2)
H28 H 1.2242 0.1453 0.4881
H29 H 1.1829 0.1778 0.3730
C35 C 1.2803(3) 0.12787(8) 0.3184(3)
H30 H 1.2425 0.1286 0.2249
H31 H 1.3659 0.1423 0.3319
C36 C 1.3520(3) 0.06124(8) 0.2752(3)
H32 H 1.3586 0.0330 0.3078
H33 H 1.4396 0.0713 0.2681
H34 H 1.2955 0.0619 0.1897
O7 O 0.2829(3) 0.02746(8) 0.6218(3)
C37 C 0.4052(3) 0.00832(8) 0.6144(3)
O8? O 0.5403(3) 0.01547(8) 0.8730(3)
C38? C 0.4999(3) 0.00009(8) 0.9999(3)
O9? O 0.5001(3) 0.02895(8) 0.9111(3)
C39? C 0.4322(3) 0.01891(8) 0.8097(3)
O10? O 0.5217(3) 0.00018(8) 1.0565(3)
C40? C 0.5577(3) -0.00192(8) 0.9076(3)
O11? O 0.3339(3) 0.01848(8) 0.5224(3)
C41? C 0.2333(3) 0.04278(8) 0.5227(3)
O12? O 0.3554(3) -0.03672(8) 0.7970(3)
C42? C 0.3669(3) 0.00008(8) 0.7659(3)
loop_
_geom_bond_atom_site_label_1
_geom_bond_atom_site_label_2
_geom_bond_site_symmetry_1
_geom_bond_site_symmetry_2
O1 C25 1_555 1_555
O2 C25 1_555 1_555
O3 C29 1_555 1_555
O4 C31 1_555 1_555
O5 C33 1_555 1_555
O6 C35 1_555 1_555
N1 N2 1_555 1_555
N2 N3 1_555 1_555
N3 C8 1_555 1_555
N4 N5 1_555 1_555
N5 N6 1_555 1_555
N6 C16 1_555 1_555
C1 H1 1_555 1_555
C2 C1 1_555 1_555
C3 C2 1_555 1_555
H2 C3 1_555 1_555
C4 C3 1_555 1_555
H3 C4 1_555 1_555
C5 C4 1_555 1_555
H4 C5 1_555 1_555
C6 C1 1_555 1_555
C7 N1 1_555 1_555
C8 C7 1_555 1_555
H5 C8 1_555 1_555
C9 N3 1_555 1_555
C10 C9 1_555 1_555
H6 C10 1_555 1_555
C11 C10 1_555 1_555
C12 C11 1_555 1_555
H7 C12 1_555 1_555
C13 N4 1_555 1_555
C14 C9 1_555 1_555
H8 C14 1_555 1_555
C15 N4 1_555 1_555
H9 C15 1_555 1_555
C16 C15 1_555 1_555
C17 C16 1_555 1_555
C18 C17 1_555 1_555
H10 C18 1_555 1_555
C19 C18 1_555 1_555
C20 C19 1_555 1_555
H11 C20 1_555 1_555
C21 C20 1_555 1_555
H12 C21 1_555 1_555
C22 C17 1_555 1_555
H13 C22 1_555 1_555
C23 C2 1_555 1_555
C24 C23 1_555 1_555
H14 C24 1_555 1_555
C25 C11 1_555 1_555
C26 C19 1_555 1_555
C27 C26 1_555 1_555
H15 C27 1_555 1_555
C28 O2 1_555 1_555
H16 C28 1_555 1_555
H17 C28 1_555 1_555
C29 C28 1_555 1_555
H18 C29 1_555 1_555
H19 C29 1_555 1_555
C30 O3 1_555 1_555
H20 C30 1_555 1_555
H21 C30 1_555 1_555
C31 C30 1_555 1_555
H22 C31 1_555 1_555
H23 C31 1_555 1_555
C32 O4 1_555 1_555
H24 C32 1_555 1_555
H25 C32 1_555 1_555
C33 C32 1_555 1_555
H26 C33 1_555 1_555
H27 C33 1_555 1_555
C34 O5 1_555 1_555
H28 C34 1_555 1_555
H29 C34 1_555 1_555
C35 C34 1_555 1_555
H30 C35 1_555 1_555
H31 C35 1_555 1_555
C36 O6 1_555 1_555
H32 C36 1_555 1_555
H33 C36 1_555 1_555
H34 C36 1_555 1_555
O7 C37 1_555 1_555
C5 C6 1_555 1_555
C6 C7 1_555 1_555
C12 C13 1_555 1_555
C13 C14 1_555 1_555
C21 C22 1_555 1_555

#END
