
#######################################################################
#
#                 Cambridge Crystallographic Data Centre
#                                CCDC 
#
#######################################################################
#
# If this CIF has been generated from an entry in the Cambridge 
# Structural Database, then it will include bibliographic, chemical, 
# crystal, experimental, refinement or atomic coordinate data resulting 
# from the CCDC's data processing and validation procedures.
#
#######################################################################

data_RUWROS
_chemical_formula_moiety         'C21 H39 B1 N9 Na1 O1,2.89(H2 O1)'
_chemical_name_systematic        
'aqua-(hydrogen tris(3-t-butyl-5-methyl-1,2,4-triazolyl)borate)-sodium hydrate'
_symmetry_cell_setting           monoclinic
_symmetry_space_group_name_H-M   'P 21/n'
_symmetry_Int_Tables_number      14
_space_group_name_Hall           '-P 2yn'
loop_
_symmetry_equiv_pos_site_id
_symmetry_equiv_pos_as_xyz
1 x,y,z
2 1/2-x,1/2+y,1/2-z
3 -x,-y,-z
4 1/2+x,1/2-y,1/2+z
_cell_length_a                   10.557(3)
_cell_length_b                   17.339(5)
_cell_length_c                   16.593(5)
_cell_angle_alpha                90
_cell_angle_beta                 90.066(5)
_cell_angle_gamma                90
_cell_volume                     3037.31
_exptl_crystal_colour            colorless
_exptl_crystal_description       block
_cell_formula_units_Z            4
loop_
_atom_site_label
_atom_site_type_symbol
_atom_site_fract_x
_atom_site_fract_y
_atom_site_fract_z
Na1 Na 0.17687(6) 0.18945(4) 0.77079(4)
N1 N 0.47592(11) 0.23351(7) 0.76455(8)
N2 N 0.60756(12) 0.13565(8) 0.77677(8)
N3 N 0.40213(12) 0.16789(7) 0.77064(8)
N4 N 0.33942(11) 0.32066(7) 0.67675(8)
N5 N 0.27147(12) 0.34968(8) 0.55521(8)
N6 N 0.23355(12) 0.27541(8) 0.66310(8)
N7 N 0.34032(11) 0.33743(7) 0.82971(8)
N8 N 0.26963(12) 0.39531(8) 0.93820(8)
N9 N 0.23772(11) 0.29474(7) 0.85603(8)
O1 O 0.00972(11) 0.10990(7) 0.78714(8)
H1 H -0.0453 0.0993 0.7425
H2 H -0.0444 0.1074 0.8334
B1 B 0.41973(15) 0.31554(10) 0.75484(11)
H3 H 0.4964(17) 0.3568(11) 0.7517(11)
C1 C 0.59783(13) 0.21187(9) 0.76809(9)
C2 C 0.48455(14) 0.11145(9) 0.77769(9)
C3 C 0.44638(16) 0.02777(9) 0.78661(12)
C4 C 0.3194(4) 0.0117(2) 0.7503(4)
H4 H 0.2554 0.0442 0.7763
H5 H 0.2978 -0.0427 0.7584
H6 H 0.3217 0.0230 0.6925
C5 C 0.4346(5) 0.0117(2) 0.8791(2)
H7 H 0.5147 0.0247 0.9058
H8 H 0.4155 -0.0429 0.8879
H9 H 0.3664 0.0434 0.9016
C6 C 0.5489(4) -0.02577(19) 0.7579(4)
H10 H 0.6288 -0.0128 0.7848
H11 H 0.5591 -0.0203 0.6995
H12 H 0.5257 -0.0791 0.7707
C7 C 0.70922(14) 0.26474(10) 0.76202(10)
H13 H 0.7122 0.2873 0.7079
H14 H 0.7872 0.2356 0.7721
H15 H 0.7012 0.3060 0.8021
C8 C 0.35847(14) 0.36419(9) 0.61122(9)
C9 C 0.19735(14) 0.29476(9) 0.58993(9)
C10 C 0.08648(15) 0.25775(10) 0.54642(10)
C11 C 0.0175(2) 0.20082(18) 0.59844(16)
H16 H -0.0521 0.1777 0.5677
H17 H -0.0167 0.2273 0.6458
H18 H 0.0763 0.1603 0.6158
C12 C 0.1396(2) 0.21644(16) 0.47077(15)
H19 H 0.1882 0.2533 0.4383
H20 H 0.0693 0.1960 0.4386
H21 H 0.1949 0.1740 0.4875
C13 C -0.0033(3) 0.32041(16) 0.5150(2)
H22 H 0.0448 0.3580 0.4833
H23 H -0.0435 0.3466 0.5606
H24 H -0.0686 0.2968 0.4810
C14 C 0.46222(17) 0.42197(10) 0.60144(11)
H25 H 0.5444 0.3962 0.6068
H26 H 0.4544 0.4618 0.6431
H27 H 0.4560 0.4459 0.5481
C15 C 0.35571(14) 0.39682(9) 0.87982(9)
C16 C 0.19962(14) 0.33147(9) 0.92083(9)
C17 C 0.08888(15) 0.30602(9) 0.97180(10)
C18 C 0.0226(2) 0.23764(14) 0.93364(13)
H28 H -0.0507 0.2231 0.9665
H29 H 0.0815 0.1941 0.9304
H30 H -0.0059 0.2515 0.8793
C19 C 0.1381(2) 0.28306(14) 1.05525(12)
H31 H 0.0666 0.2688 1.0898
H32 H 0.1835 0.3267 1.0793
H33 H 0.1957 0.2390 1.0501
C20 C -0.0035(2) 0.37342(14) 0.98016(18)
H34 H -0.0748 0.3579 1.0142
H35 H -0.0349 0.3882 0.9268
H36 H 0.0401 0.4174 1.0049
C21 C 0.45433(16) 0.45822(10) 0.87153(11)
H37 H 0.4482 0.4816 0.8179
H38 H 0.5386 0.4354 0.8785
H39 H 0.4408 0.4979 0.9127
O2 O 0.81402(11) 0.08769(8) 0.89706(7)
H67 H 0.7469 0.1013 0.8608
H68 H 0.7910 0.1116 0.9471
O3 O 0.81812(13) 0.07230(11) 0.68788(10)
H69 H 0.8000 0.0638 0.6320
H70 H 0.7385 0.0874 0.7107
O4 O 0.75485(14) -0.00902(8) 0.55169(8)
H71 H 0.7622 0.0290 0.5101
H72 H 0.6942 -0.0399 0.5418
C22? C -0.0262(15) 0.2907(14) 0.9170(11)
H40? H -0.0941 0.2669 0.9486
H41? H -0.0015 0.2558 0.8733
H42? H -0.0562 0.3395 0.8942
C23? C 0.111(2) 0.2220(10) 0.9990(17)
H43? H 0.0298 0.1986 1.0140
H44? H 0.1681 0.2214 1.0455
H45? H 0.1488 0.1926 0.9547
C24? C 0.040(2) 0.3656(14) 1.0325(15)
H46? H -0.0425 0.3494 1.0528
H47? H 0.0325 0.4159 1.0060
H48? H 0.1003 0.3696 1.0775
C25? C 0.3156(10) 0.0215(5) 0.8144(10)
H49? H 0.2940 -0.0329 0.8223
H50? H 0.2587 0.0440 0.7740
H51? H 0.3062 0.0493 0.8655
C26? C 0.5382(12) -0.0153(5) 0.8346(9)
H52? H 0.6211 -0.0135 0.8082
H53? H 0.5105 -0.0690 0.8394
H54? H 0.5446 0.0077 0.8884
C27? C 0.4561(12) -0.0037(5) 0.6971(5)
H55? H 0.5402 0.0079 0.6753
H56? H 0.3913 0.0212 0.6636
H57? H 0.4427 -0.0596 0.6969
C28? C 0.1109(14) 0.1719(6) 0.5440(12)
H58? H 0.1211 0.1524 0.5991
H59? H 0.1883 0.1617 0.5133
H60? H 0.0391 0.1459 0.5182
C29? C 0.0481(19) 0.2986(11) 0.4742(10)
H61? H -0.0228 0.2714 0.4488
H62? H 0.1194 0.3010 0.4366
H63? H 0.0217 0.3510 0.4885
C30? C -0.0252(10) 0.2633(10) 0.6115(8)
H64? H 0.0071 0.2480 0.6645
H65? H -0.0946 0.2289 0.5957
H66? H -0.0564 0.3165 0.6140
loop_
_geom_bond_atom_site_label_1
_geom_bond_atom_site_label_2
_geom_bond_site_symmetry_1
_geom_bond_site_symmetry_2
Na1 N3 1_555 1_555
N1 N3 1_555 1_555
N2 C1 1_555 1_555
N3 C2 1_555 1_555
N4 N6 1_555 1_555
N5 C8 1_555 1_555
N6 Na1 1_555 1_555
N7 N9 1_555 1_555
N8 C15 1_555 1_555
N9 Na1 1_555 1_555
O1 Na1 1_555 1_555
H1 O1 1_555 1_555
H2 O1 1_555 1_555
B1 N1 1_555 1_555
H3 B1 1_555 1_555
C1 N1 1_555 1_555
C2 N2 1_555 1_555
C3 C2 1_555 1_555
C4 C3 1_555 1_555
H4 C4 1_555 1_555
H5 C4 1_555 1_555
H6 C4 1_555 1_555
C5 C3 1_555 1_555
H7 C5 1_555 1_555
H8 C5 1_555 1_555
H9 C5 1_555 1_555
C6 C3 1_555 1_555
H10 C6 1_555 1_555
H11 C6 1_555 1_555
H12 C6 1_555 1_555
C7 C1 1_555 1_555
H13 C7 1_555 1_555
H14 C7 1_555 1_555
H15 C7 1_555 1_555
C8 N4 1_555 1_555
C9 N5 1_555 1_555
C10 C9 1_555 1_555
C11 C10 1_555 1_555
H16 C11 1_555 1_555
H17 C11 1_555 1_555
H18 C11 1_555 1_555
C12 C10 1_555 1_555
H19 C12 1_555 1_555
H20 C12 1_555 1_555
H21 C12 1_555 1_555
C13 C10 1_555 1_555
H22 C13 1_555 1_555
H23 C13 1_555 1_555
H24 C13 1_555 1_555
C14 C8 1_555 1_555
H25 C14 1_555 1_555
H26 C14 1_555 1_555
H27 C14 1_555 1_555
C15 N7 1_555 1_555
C16 N8 1_555 1_555
C17 C16 1_555 1_555
C18 C17 1_555 1_555
H28 C18 1_555 1_555
H29 C18 1_555 1_555
H30 C18 1_555 1_555
C19 C17 1_555 1_555
H31 C19 1_555 1_555
H32 C19 1_555 1_555
H33 C19 1_555 1_555
C20 C17 1_555 1_555
H34 C20 1_555 1_555
H35 C20 1_555 1_555
H36 C20 1_555 1_555
C21 C15 1_555 1_555
H37 C21 1_555 1_555
H38 C21 1_555 1_555
H39 C21 1_555 1_555
O2 H67 1_555 1_555
H68 O2 1_555 1_555
O3 H69 1_555 1_555
H70 O3 1_555 1_555
O4 H71 1_555 1_555
H72 O4 1_555 1_555
N4 B1 1_555 1_555
N6 C9 1_555 1_555
N7 B1 1_555 1_555
N9 C16 1_555 1_555

#END
