
#######################################################################
#
#                 Cambridge Crystallographic Data Centre
#                                CCDC 
#
#######################################################################
#
# If this CIF has been generated from an entry in the Cambridge 
# Structural Database, then it will include bibliographic, chemical, 
# crystal, experimental, refinement or atomic coordinate data resulting 
# from the CCDC's data processing and validation procedures.
#
#######################################################################

data_RUXZAM
_chemical_formula_moiety         'C25 H24 Br1 F1 O3'
_chemical_name_systematic        
'(1S,6S,E)-t-butyl 2-(4-bromostyryl)-1-fluoro-4-oxo-6-phenylcyclohex-2-enecarboxylate'
_symmetry_cell_setting           orthorhombic
_symmetry_space_group_name_H-M   'P 21 21 21'
_symmetry_Int_Tables_number      19
_space_group_name_Hall           'P 2ac 2ab'
loop_
_symmetry_equiv_pos_site_id
_symmetry_equiv_pos_as_xyz
1 x,y,z
2 1/2-x,-y,1/2+z
3 -x,1/2+y,1/2-z
4 1/2+x,1/2-y,-z
_cell_length_a                   6.0261(7)
_cell_length_b                   19.368(2)
_cell_length_c                   20.028(2)
_cell_angle_alpha                90
_cell_angle_beta                 90
_cell_angle_gamma                90
_cell_volume                     2337.54
_exptl_crystal_colour            green
_exptl_crystal_description       prismatic
_cell_formula_units_Z            4
loop_
_atom_site_label
_atom_site_type_symbol
_atom_site_fract_x
_atom_site_fract_y
_atom_site_fract_z
Br1 Br 0.95358(8) -0.34034(2) 0.95646(3)
F1 F 0.3736(3) 0.07153(9) 0.82972(10)
O1 O -0.2099(8) -0.02036(16) 0.65000(17)
O2 O -0.1605(4) 0.00790(13) 0.86162(12)
O3 O 0.1056(4) 0.05450(12) 0.92481(11)
C1 C 0.1686(5) 0.04663(16) 0.80799(15)
C2 C 0.0717(6) 0.10011(14) 0.76062(15)
H1 H 0.1848 0.1085 0.7264
C3 C -0.1306(7) 0.07151(17) 0.72413(18)
H2 H -0.2538 0.0687 0.7552
H3 H -0.1722 0.1033 0.6889
C4 C -0.0914(9) 0.00170(19) 0.6944(2)
C5 C 0.0865(8) -0.03992(19) 0.72164(18)
H4 H 0.1200 -0.0813 0.7003
C6 C 0.2056(6) -0.02288(16) 0.77544(16)
C7 C 0.3650(6) -0.06890(17) 0.80766(17)
H5 H 0.4844 -0.0487 0.8297
C8 C 0.3525(6) -0.13679(17) 0.80794(17)
H6 H 0.2354 -0.1561 0.7842
C9 C 0.5014(6) -0.18514(15) 0.84120(16)
C10 C 0.4374(7) -0.25319(16) 0.85071(17)
H7 H 0.3027 -0.2681 0.8333
C11 C 0.5683(7) -0.29919(18) 0.88532(18)
H8 H 0.5210 -0.3443 0.8926
C12 C 0.7691(6) -0.27713(18) 0.90868(18)
C13 C 0.8427(7) -0.21167(19) 0.89889(18)
H9 H 0.9812 -0.1981 0.9146
C14 C 0.7087(6) -0.16557(18) 0.86520(18)
H10 H 0.7579 -0.1206 0.8584
C15 C 0.0313(6) 0.16923(16) 0.79495(16)
C16 C 0.1946(7) 0.21891(19) 0.7952(2)
H11 H 0.3250 0.2109 0.7716
C17 C 0.1702(9) 0.2801(2) 0.8294(2)
H12 H 0.2823 0.3131 0.8287
C18 C -0.0222(9) 0.2919(2) 0.8645(2)
H13 H -0.0391 0.3327 0.8886
C19 C -0.1871(8) 0.2444(2) 0.8643(2)
H14 H -0.3170 0.2528 0.8880
C20 C -0.1632(7) 0.18351(18) 0.82901(19)
H15 H -0.2791 0.1518 0.8281
C21 C 0.0188(6) 0.03432(14) 0.86952(16)
C22 C -0.0156(7) 0.04472(19) 0.98989(17)
C23 C -0.0658(11) -0.0294(2) 1.0016(2)
H16 H -0.1877 -0.0432 0.9738
H17 H -0.1046 -0.0362 1.0476
H18 H 0.0623 -0.0567 0.9910
C24 C 0.1500(11) 0.0712(4) 1.0392(3)
H19 H 0.2764 0.0410 1.0400
H20 H 0.0837 0.0727 1.0828
H21 H 0.1962 0.1167 1.0265
C25 C -0.2208(9) 0.0889(3) 0.9896(2)
H22 H -0.1808 0.1358 0.9801
H23 H -0.2913 0.0865 1.0325
H24 H -0.3213 0.0725 0.9560
loop_
_geom_bond_atom_site_label_1
_geom_bond_atom_site_label_2
_geom_bond_site_symmetry_1
_geom_bond_site_symmetry_2
Br1 C12 1_555 1_555
F1 C1 1_555 1_555
O1 C4 1_555 1_555
O2 C21 1_555 1_555
O3 C21 1_555 1_555
C1 C2 1_555 1_555
C2 H1 1_555 1_555
C3 C2 1_555 1_555
H2 C3 1_555 1_555
H3 C3 1_555 1_555
C4 C3 1_555 1_555
C5 C4 1_555 1_555
H4 C5 1_555 1_555
C6 C1 1_555 1_555
C7 C6 1_555 1_555
H5 C7 1_555 1_555
C8 C7 1_555 1_555
H6 C8 1_555 1_555
C9 C8 1_555 1_555
C10 C9 1_555 1_555
H7 C10 1_555 1_555
C11 C10 1_555 1_555
H8 C11 1_555 1_555
C12 C11 1_555 1_555
C13 C12 1_555 1_555
H9 C13 1_555 1_555
C14 C9 1_555 1_555
H10 C14 1_555 1_555
C15 C2 1_555 1_555
C16 C15 1_555 1_555
H11 C16 1_555 1_555
C17 C16 1_555 1_555
H12 C17 1_555 1_555
C18 C17 1_555 1_555
H13 C18 1_555 1_555
C19 C18 1_555 1_555
H14 C19 1_555 1_555
C20 C15 1_555 1_555
H15 C20 1_555 1_555
C21 C1 1_555 1_555
C22 O3 1_555 1_555
C23 C22 1_555 1_555
H16 C23 1_555 1_555
H17 C23 1_555 1_555
H18 C23 1_555 1_555
C24 C22 1_555 1_555
H19 C24 1_555 1_555
H20 C24 1_555 1_555
H21 C24 1_555 1_555
C25 C22 1_555 1_555
H22 C25 1_555 1_555
H23 C25 1_555 1_555
H24 C25 1_555 1_555
C5 C6 1_555 1_555
C13 C14 1_555 1_555
C19 C20 1_555 1_555

#END
