
#######################################################################
#
#                 Cambridge Crystallographic Data Centre
#                                CCDC 
#
#######################################################################
#
# If this CIF has been generated from an entry in the Cambridge 
# Structural Database, then it will include bibliographic, chemical, 
# crystal, experimental, refinement or atomic coordinate data resulting 
# from the CCDC's data processing and validation procedures.
#
#######################################################################

data_RUZJAZ
_chemical_name_common            
3-Hydroxy-6-methyl-2-(p-tolyl)-4H-pyran-4-thione
_chemical_formula_moiety         'C13 H12 O2 S1'
_chemical_name_systematic        
3-hydroxy-6-methyl-2-(4-methylphenyl)-4H-pyran-4-thione
_symmetry_cell_setting           monoclinic
_symmetry_space_group_name_H-M   'P 21/c'
_symmetry_Int_Tables_number      14
_space_group_name_Hall           '-P 2ybc'
loop_
_symmetry_equiv_pos_site_id
_symmetry_equiv_pos_as_xyz
1 x,y,z
2 -x,1/2+y,1/2-z
3 -x,-y,-z
4 x,1/2-y,1/2+z
_cell_length_a                   11.1036(4)
_cell_length_b                   6.9087(2)
_cell_length_c                   14.7366(5)
_cell_angle_alpha                90
_cell_angle_beta                 101.0720(13)
_cell_angle_gamma                90
_cell_volume                     1109.42
_exptl_crystal_colour            yellow
_exptl_crystal_description       plate
_cell_formula_units_Z            4
loop_
_atom_site_label
_atom_site_type_symbol
_atom_site_fract_x
_atom_site_fract_y
_atom_site_fract_z
S1 S 0.21269(2) 0.59236(4) -0.05514(2)
O1 O 0.29098(6) 0.56429(10) 0.25291(5)
O2 O 0.45263(7) 0.61506(12) 0.06475(5)
H1 H 0.4174(17) 0.613(3) 0.0103(13)
C1 C 0.38605(9) 0.58506(13) 0.20716(7)
C2 C 0.36071(9) 0.59618(14) 0.11229(7)
C3 C 0.23737(9) 0.58506(14) 0.06129(7)
C4 C 0.14405(9) 0.56485(15) 0.11429(7)
H2 H 0.0604 0.5598 0.0841
C5 C 0.17364(9) 0.55276(15) 0.20770(7)
C6 C 0.08672(10) 0.51946(18) 0.27133(8)
H3 H 0.1089 0.3998 0.3063
H4 H 0.0031 0.5080 0.2353
H5 H 0.0908 0.6286 0.3143
C7 C 0.50516(9) 0.59104(14) 0.27033(7)
C8 C 0.61562(9) 0.57485(15) 0.23818(7)
H6 H 0.6145 0.5631 0.1738
C9 C 0.72652(9) 0.57602(15) 0.30037(8)
H7 H 0.8006 0.5637 0.2776
C10 C 0.73260(9) 0.59473(14) 0.39534(7)
C11 C 0.62225(10) 0.61324(15) 0.42699(7)
H8 H 0.6239 0.6279 0.4913
C12 C 0.51040(9) 0.61051(14) 0.36593(7)
H9 H 0.4365 0.6219 0.3890
C13 C 0.85379(10) 0.59287(16) 0.46131(8)
H10 H 0.8677 0.4646 0.4898
H11 H 0.8531 0.6903 0.5095
H12 H 0.9196 0.6225 0.4277
loop_
_geom_bond_atom_site_label_1
_geom_bond_atom_site_label_2
_geom_bond_site_symmetry_1
_geom_bond_site_symmetry_2
S1 C3 1_555 1_555
O1 C1 1_555 1_555
O2 H1 1_555 1_555
C1 C2 1_555 1_555
C2 O2 1_555 1_555
C3 C2 1_555 1_555
C4 C3 1_555 1_555
H2 C4 1_555 1_555
C5 O1 1_555 1_555
C6 C5 1_555 1_555
H3 C6 1_555 1_555
H4 C6 1_555 1_555
H5 C6 1_555 1_555
C7 C1 1_555 1_555
C8 C7 1_555 1_555
H6 C8 1_555 1_555
C9 C8 1_555 1_555
H7 C9 1_555 1_555
C10 C9 1_555 1_555
C11 C10 1_555 1_555
H8 C11 1_555 1_555
C12 C7 1_555 1_555
H9 C12 1_555 1_555
C13 C10 1_555 1_555
H10 C13 1_555 1_555
H11 C13 1_555 1_555
H12 C13 1_555 1_555
C4 C5 1_555 1_555
C11 C12 1_555 1_555

#END
