
#######################################################################
#
#                 Cambridge Crystallographic Data Centre
#                                CCDC 
#
#######################################################################
#
# If this CIF has been generated from an entry in the Cambridge 
# Structural Database, then it will include bibliographic, chemical, 
# crystal, experimental, refinement or atomic coordinate data resulting 
# from the CCDC's data processing and validation procedures.
#
#######################################################################

data_SABCAB
_chemical_formula_moiety         'C17 H18 Br1 Cl1 N2 O1'
_chemical_name_systematic        
2-Bromo-4-chloro-6-((E)-[4-(diethylamino)phenyl]iminomethyl)phenol
_symmetry_cell_setting           monoclinic
_symmetry_space_group_name_H-M   'P 21/c'
_symmetry_Int_Tables_number      14
_space_group_name_Hall           '-P 2ybc'
loop_
_symmetry_equiv_pos_site_id
_symmetry_equiv_pos_as_xyz
1 x,y,z
2 -x,1/2+y,1/2-z
3 -x,-y,-z
4 x,1/2-y,1/2+z
_cell_length_a                   11.3427(3)
_cell_length_b                   10.9204(3)
_cell_length_c                   14.3869(4)
_cell_angle_alpha                90
_cell_angle_beta                 111.418(2)
_cell_angle_gamma                90
_cell_volume                     1658.99
_exptl_crystal_colour            colorless
_exptl_crystal_description       block
_cell_formula_units_Z            4
loop_
_atom_site_label
_atom_site_type_symbol
_atom_site_fract_x
_atom_site_fract_y
_atom_site_fract_z
C1 C -0.10155(19) 0.32018(18) 0.54970(15)
H1 H -0.1023 0.2923 0.6106
C2 C -0.17812(19) 0.41572(19) 0.50175(15)
C3 C -0.17718(19) 0.45989(18) 0.41258(15)
H2 H -0.2285 0.5256 0.3812
C4 C -0.09947(18) 0.40567(19) 0.37050(14)
C5 C -0.02201(17) 0.30769(18) 0.41549(14)
C6 C -0.02323(17) 0.26536(17) 0.50738(14)
C7 C 0.05636(18) 0.16390(18) 0.55862(15)
H3 H 0.0544 0.1382 0.6197
C8 C 0.20773(17) 0.01035(17) 0.57157(15)
C9 C 0.28861(19) -0.03587(18) 0.52790(14)
H4 H 0.2875 -0.0019 0.4683
C10 C 0.37053(19) -0.13055(19) 0.56995(14)
H5 H 0.4238 -0.1589 0.5385
C11 C 0.37521(17) -0.18518(17) 0.65933(14)
C12 C 0.29288(18) -0.13766(18) 0.70294(15)
H6 H 0.2933 -0.1712 0.7625
C13 C 0.21127(18) -0.04266(18) 0.66006(16)
H7 H 0.1577 -0.0136 0.6910
C14 C 0.5476(2) -0.3221(2) 0.66057(16)
H8 H 0.5074 -0.3263 0.5885
H9 H 0.5745 -0.4042 0.6846
C15 C 0.6624(2) -0.2420(3) 0.6864(2)
H10 H 0.6367 -0.1591 0.6672
H11 H 0.7150 -0.2701 0.6515
H12 H 0.7091 -0.2454 0.7570
C16 C 0.4686(2) -0.3271(2) 0.79959(16)
H13 H 0.5081 -0.4072 0.8084
H14 H 0.3851 -0.3373 0.8026
C17 C 0.5454(2) -0.2467(3) 0.88435(17)
H15 H 0.6295 -0.2386 0.8840
H16 H 0.5494 -0.2826 0.9463
H17 H 0.5066 -0.1674 0.8771
N1 N 0.12906(14) 0.10877(15) 0.52225(12)
N2 N 0.45430(15) -0.28149(15) 0.70127(12)
Cl1 Cl -0.27823(7) 0.48188(6) 0.55421(5)
Br1 Br -0.09834(3) 0.46511(3) 0.248320(18)
O1 O 0.04963(14) 0.25578(15) 0.37088(11)
H18 H 0.0942 0.2028 0.4074
loop_
_geom_bond_atom_site_label_1
_geom_bond_atom_site_label_2
_geom_bond_site_symmetry_1
_geom_bond_site_symmetry_2
C1 H1 1_555 1_555
C2 C1 1_555 1_555
C3 C2 1_555 1_555
H2 C3 1_555 1_555
C4 C3 1_555 1_555
C5 C4 1_555 1_555
C6 C1 1_555 1_555
C7 C6 1_555 1_555
H3 C7 1_555 1_555
C8 C9 1_555 1_555
C9 H4 1_555 1_555
C10 C9 1_555 1_555
H5 C10 1_555 1_555
C11 C10 1_555 1_555
C12 C11 1_555 1_555
H6 C12 1_555 1_555
C13 C8 1_555 1_555
H7 C13 1_555 1_555
C14 H8 1_555 1_555
H9 C14 1_555 1_555
C15 C14 1_555 1_555
H10 C15 1_555 1_555
H11 C15 1_555 1_555
H12 C15 1_555 1_555
C16 H13 1_555 1_555
H14 C16 1_555 1_555
C17 C16 1_555 1_555
H15 C17 1_555 1_555
H16 C17 1_555 1_555
H17 C17 1_555 1_555
N1 C7 1_555 1_555
N2 C11 1_555 1_555
Cl1 C2 1_555 1_555
Br1 C4 1_555 1_555
O1 C5 1_555 1_555
H18 O1 1_555 1_555
C5 C6 1_555 1_555
C8 N1 1_555 1_555
C12 C13 1_555 1_555
C14 N2 1_555 1_555
C16 N2 1_555 1_555

#END
