
#######################################################################
#
#                 Cambridge Crystallographic Data Centre
#                                CCDC 
#
#######################################################################
#
# If this CIF has been generated from an entry in the Cambridge 
# Structural Database, then it will include bibliographic, chemical, 
# crystal, experimental, refinement or atomic coordinate data resulting 
# from the CCDC's data processing and validation procedures.
#
#######################################################################

data_SABDOR
_chemical_formula_moiety         'C27 H20 N2 O6,C4 H8 O1'
_chemical_name_systematic        
'2,4,6-tris(4-Carboxyphenyl)-1,3-diaminobenzene tetrahydrofuran unknown solvate'
_symmetry_cell_setting           orthorhombic
_symmetry_space_group_name_H-M   'P b c a'
_symmetry_Int_Tables_number      61
_space_group_name_Hall           '-P 2ac 2ab'
loop_
_symmetry_equiv_pos_site_id
_symmetry_equiv_pos_as_xyz
1 x,y,z
2 1/2-x,-y,1/2+z
3 -x,1/2+y,1/2-z
4 1/2+x,1/2-y,-z
5 -x,-y,-z
6 1/2+x,y,1/2-z
7 x,1/2-y,1/2+z
8 1/2-x,1/2+y,z
_cell_length_a                   26.523(4)
_cell_length_b                   7.2629(6)
_cell_length_c                   32.349(3)
_cell_angle_alpha                90
_cell_angle_beta                 90
_cell_angle_gamma                90
_cell_volume                     6231.51
_exptl_crystal_colour            yellow
_exptl_crystal_description       plate
_cell_formula_units_Z            8
loop_
_atom_site_label
_atom_site_type_symbol
_atom_site_fract_x
_atom_site_fract_y
_atom_site_fract_z
C1 C 0.14289(7) 1.0004(3) -0.02341(6)
C2 C 0.17600(7) 0.8487(3) -0.02590(6)
C3 C 0.19634(7) 0.7954(2) -0.06394(6)
C4 C 0.18293(7) 0.8914(2) -0.10029(6)
C5 C 0.14941(7) 1.0395(3) -0.09696(6)
H1 H 0.1398 1.1030 -0.1214
N1 N 0.12626(8) 1.0594(3) 0.01496(6)
H2 H 0.1314(10) 0.988(3) 0.0363(7)
H3 H 0.1033(9) 1.146(3) 0.0160(8)
N2 N 0.22637(7) 0.6383(2) -0.06601(6)
H4 H 0.2390(8) 0.594(3) -0.0434(5)
H5 H 0.2473(8) 0.636(3) -0.0878(5)
C6 C 0.12958(7) 1.0975(2) -0.05937(6)
C7 C 0.18850(7) 0.7455(2) 0.01275(6)
C8 C 0.15082(8) 0.6493(3) 0.03388(6)
H6 H 0.1183 0.6380 0.0219
C9 C 0.16026(8) 0.5704(3) 0.07188(6)
H7 H 0.1342 0.5072 0.0862
C10 C 0.20800(8) 0.5837(3) 0.08922(6)
C11 C 0.24669(8) 0.6690(3) 0.06729(6)
H8 H 0.2799 0.6713 0.0783
C12 C 0.23690(7) 0.7503(3) 0.02956(6)
H9 H 0.2633 0.8099 0.0149
C13 C 0.21870(8) 0.5049(3) 0.13056(6)
C14 C 0.20128(7) 0.8360(3) -0.14176(6)
C15 C 0.25253(8) 0.8248(3) -0.15157(6)
H10 H 0.2770 0.8491 -0.1308
C16 C 0.26820(8) 0.7788(3) -0.19106(6)
H11 H 0.3032 0.7716 -0.1972
C17 C 0.23288(8) 0.7431(3) -0.22152(6)
C18 C 0.18207(9) 0.7569(4) -0.21246(7)
H12 H 0.1577 0.7353 -0.2335
C19 C 0.16658(9) 0.8020(4) -0.17297(7)
H13 H 0.1316 0.8098 -0.1671
C20 C 0.24861(9) 0.6885(3) -0.26383(6)
C21 C 0.09351(7) 1.2554(3) -0.05836(6)
C22 C 0.10740(8) 1.4277(3) -0.07315(7)
H14 H 0.1411 1.4479 -0.0819
C23 C 0.07271(8) 1.5709(3) -0.07533(8)
H15 H 0.0828 1.6881 -0.0855
C24 C 0.02337(7) 1.5420(3) -0.06264(6)
C25 C 0.00959(8) 1.3711(3) -0.04674(7)
H16 H -0.0239 1.3515 -0.0374
C26 C 0.04436(7) 1.2299(3) -0.04447(6)
H17 H 0.0346 1.1143 -0.0333
C27 C -0.01634(8) 1.6856(3) -0.06719(7)
O1 O 0.18186(6) 0.4361(2) 0.15092(4)
H18 H 0.1921 0.4006 0.1742
O2 O 0.26335(6) 0.5098(2) 0.14368(4)
O3 O 0.29428(6) 0.6769(2) -0.27305(5)
O4 O 0.21264(7) 0.6548(3) -0.28909(5)
H19 H 0.2239 0.5958 -0.3094
O5 O 0.00044(6) 1.8409(2) -0.08397(7)
H20 H -0.0240 1.9113 -0.0888
O6 O -0.05979(6) 1.6623(2) -0.05744(5)
C28 C -0.11464(10) 1.9704(4) -0.12293(10)
H25 H -0.1472 2.0306 -0.1166
H26 H -0.1159 1.8415 -0.1131
C29 C -0.10411(13) 1.9770(5) -0.16825(11)
H27 H -0.1351 1.9573 -0.1848
H28 H -0.0783 1.8857 -0.1764
C30 C -0.08475(15) 2.1725(6) -0.17226(11)
H29 H -0.0631 2.1862 -0.1970
H30 H -0.1130 2.2614 -0.1740
C31 C -0.05464(12) 2.2000(4) -0.13300(10)
H31 H -0.0183 2.1790 -0.1382
H32 H -0.0592 2.3268 -0.1224
O7 O -0.07353(7) 2.0683(2) -0.10377(6)
H21? H 0.1296 1.0369 0.0026
H22? H 0.2191 0.6947 -0.0653
N3? N 0.1312(3) 1.1294(11) -0.1338(2)
H23? H 0.1085 1.2172 -0.1320
H24? H 0.1429 1.0964 -0.1582
loop_
_geom_bond_atom_site_label_1
_geom_bond_atom_site_label_2
_geom_bond_site_symmetry_1
_geom_bond_site_symmetry_2
C1 C2 1_555 1_555
C2 C3 1_555 1_555
C3 C4 1_555 1_555
C4 C5 1_555 1_555
C5 H1 1_555 1_555
N1 C1 1_555 1_555
H2 N1 1_555 1_555
H3 N1 1_555 1_555
N2 C3 1_555 1_555
H4 N2 1_555 1_555
H5 N2 1_555 1_555
C6 C1 1_555 1_555
C7 C2 1_555 1_555
C8 C7 1_555 1_555
H6 C8 1_555 1_555
C9 C8 1_555 1_555
H7 C9 1_555 1_555
C10 C9 1_555 1_555
C11 C10 1_555 1_555
H8 C11 1_555 1_555
C12 C7 1_555 1_555
H9 C12 1_555 1_555
C13 C10 1_555 1_555
C14 C4 1_555 1_555
C15 C14 1_555 1_555
H10 C15 1_555 1_555
C16 C15 1_555 1_555
H11 C16 1_555 1_555
C17 C16 1_555 1_555
C18 C17 1_555 1_555
H12 C18 1_555 1_555
C19 C14 1_555 1_555
H13 C19 1_555 1_555
C20 C17 1_555 1_555
C21 C6 1_555 1_555
C22 C21 1_555 1_555
H14 C22 1_555 1_555
C23 C22 1_555 1_555
H15 C23 1_555 1_555
C24 C23 1_555 1_555
C25 C24 1_555 1_555
H16 C25 1_555 1_555
C26 C21 1_555 1_555
H17 C26 1_555 1_555
C27 C24 1_555 1_555
O1 C13 1_555 1_555
H18 O1 1_555 1_555
O2 C13 1_555 1_555
O3 C20 1_555 1_555
O4 C20 1_555 1_555
H19 O4 1_555 1_555
O5 C27 1_555 1_555
H20 O5 1_555 1_555
O6 C27 1_555 1_555
C28 H25 1_555 1_555
H26 C28 1_555 1_555
C29 C28 1_555 1_555
H27 C29 1_555 1_555
H28 C29 1_555 1_555
C30 C29 1_555 1_555
H29 C30 1_555 1_555
H30 C30 1_555 1_555
C31 C30 1_555 1_555
H31 C31 1_555 1_555
H32 C31 1_555 1_555
O7 C28 1_555 1_555
C5 C6 1_555 1_555
C11 C12 1_555 1_555
C18 C19 1_555 1_555
C25 C26 1_555 1_555
C31 O7 1_555 1_555

#END
