
#######################################################################
#
#                 Cambridge Crystallographic Data Centre
#                                CCDC 
#
#######################################################################
#
# If this CIF has been generated from an entry in the Cambridge 
# Structural Database, then it will include bibliographic, chemical, 
# crystal, experimental, refinement or atomic coordinate data resulting 
# from the CCDC's data processing and validation procedures.
#
#######################################################################

data_SACVOH
_chemical_formula_moiety         'C8 H16 N4 O2'
_chemical_name_systematic        
1,3,5,7-Tetramethyltetrahydro-1,3,5,7-tetrazocine-2,6(1H,3H)-dione
_symmetry_cell_setting           monoclinic
_symmetry_space_group_name_H-M   'P 21/c'
_symmetry_Int_Tables_number      14
_space_group_name_Hall           '-P 2ybc'
loop_
_symmetry_equiv_pos_site_id
_symmetry_equiv_pos_as_xyz
1 x,y,z
2 -x,1/2+y,1/2-z
3 -x,-y,-z
4 x,1/2-y,1/2+z
_cell_length_a                   4.095(2)
_cell_length_b                   11.262(2)
_cell_length_c                   11.134(2)
_cell_angle_alpha                90
_cell_angle_beta                 103.68(4)
_cell_angle_gamma                90
_cell_volume                     498.91
_exptl_crystal_colour            white
_chemical_melting_point          258deg.C
_cell_formula_units_Z            2
loop_
_atom_site_label
_atom_site_type_symbol
_atom_site_fract_x
_atom_site_fract_y
_atom_site_fract_z
O1 O -0.1513(4) 0.2981(1) 0.2924(1)
N1 N 0.0814(4) 0.3533(1) 0.4910(1)
N2 N -0.1997(4) 0.4907(1) 0.3483(1)
C1 C -0.0940(5) 0.3750(2) 0.3713(2)
C2 C -0.0201(5) 0.4129(2) 0.5927(2)
C3 C 0.2332(6) 0.2358(2) 0.5153(2)
C4 C -0.4199(6) 0.5139(2) 0.2270(2)
H1 H -0.256(6) 0.443(2) 0.564(2)
H2 H -0.019(6) 0.354(2) 0.661(2)
H3 H 0.362(7) 0.215(2) 0.456(2)
H4 H 0.070(7) 0.179(2) 0.516(3)
H5 H 0.394(4) 0.234(2) 0.595(2)
H6 H -0.513(7) 0.594(2) 0.223(2)
H7 H -0.618(6) 0.461(2) 0.215(2)
H8 H -0.308(6) 0.506(2) 0.165(2)
C2B C 0.0201(5) 0.5871(2) 0.4073(2)
N2B N 0.1997(4) 0.5093(1) 0.6517(1)
N1B N -0.0814(4) 0.6467(1) 0.5090(1)
H1B H 0.256(6) 0.557(2) 0.436(2)
H2B H 0.019(6) 0.646(2) 0.339(2)
C1B C 0.0940(5) 0.6250(2) 0.6287(2)
C4B C 0.4199(6) 0.4861(2) 0.7730(2)
C3B C -0.2332(6) 0.7642(2) 0.4847(2)
O1B O 0.1513(4) 0.7019(1) 0.7076(1)
H6B H 0.513(7) 0.406(2) 0.777(2)
H7B H 0.618(6) 0.539(2) 0.785(2)
H8B H 0.308(6) 0.494(2) 0.835(2)
H3B H -0.362(7) 0.785(2) 0.544(2)
H4B H -0.070(7) 0.821(2) 0.484(3)
H5B H -0.394(4) 0.766(2) 0.405(2)
loop_
_geom_bond_atom_site_label_1
_geom_bond_atom_site_label_2
_geom_bond_site_symmetry_1
_geom_bond_site_symmetry_2
O1 C1 1_555 1_555
N1 C1 1_555 1_555
N2 C1 1_555 1_555
C2 N1 1_555 1_555
C3 N1 1_555 1_555
C4 N2 1_555 1_555
H1 C2 1_555 1_555
H2 C2 1_555 1_555
H3 C3 1_555 1_555
H4 C3 1_555 1_555
H5 C3 1_555 1_555
H6 C4 1_555 1_555
H7 C4 1_555 1_555
H8 C4 1_555 1_555
C2B N2 1_555 1_555
N2B C2 1_555 1_555
N1B C2B 1_555 1_555
H1B C2B 1_555 1_555
H2B C2B 1_555 1_555
C1B N2B 1_555 1_555
C4B N2B 1_555 1_555
C3B N1B 1_555 1_555
O1B C1B 1_555 1_555
H6B C4B 1_555 1_555
H7B C4B 1_555 1_555
H8B C4B 1_555 1_555
H3B C3B 1_555 1_555
H4B C3B 1_555 1_555
H5B C3B 1_555 1_555
N1B C1B 1_555 1_555

#END
