
#######################################################################
#
#                 Cambridge Crystallographic Data Centre
#                                CCDC 
#
#######################################################################
#
# If this CIF has been generated from an entry in the Cambridge 
# Structural Database, then it will include bibliographic, chemical, 
# crystal, experimental, refinement or atomic coordinate data resulting 
# from the CCDC's data processing and validation procedures.
#
#######################################################################

data_SADBEE
_chemical_formula_moiety         'C14 H24 O4'
_chemical_name_systematic        
(4aR,7R,7aS,10R,11aR)-7,7a,8,9,10,11-Hexahydro-3,3,7,10-tetramethyl-6H-(2)benzopyrano(1,8a-e)-1,2,4-trioxane
_symmetry_cell_setting           orthorhombic
_symmetry_space_group_name_H-M   'P 21 21 21'
_symmetry_Int_Tables_number      19
_space_group_name_Hall           'P 2ac 2ab'
loop_
_symmetry_equiv_pos_site_id
_symmetry_equiv_pos_as_xyz
1 x,y,z
2 1/2+x,1/2-y,-z
3 -x,1/2+y,1/2-z
4 1/2-x,-y,1/2+z
_cell_length_a                   6.0759(7)
_cell_length_b                   9.2369(16)
_cell_length_c                   25.730(5)
_cell_angle_alpha                90
_cell_angle_beta                 90
_cell_angle_gamma                90
_cell_volume                     1444.03
_exptl_crystal_colour            colorless
_chemical_melting_point          77-78deg.C
_cell_formula_units_Z            4
loop_
_atom_site_label
_atom_site_type_symbol
_atom_site_fract_x
_atom_site_fract_y
_atom_site_fract_z
O1 O -0.0255(8) 0.5740(6) 0.13162(21)
O2 O 0.0748(8) 0.4284(6) 0.13014(21)
O3 O 0.3012(8) 0.6636(6) 0.16725(21)
O4 O 0.4334(9) 0.4562(6) 0.20317(19)
C1 C 0.0658(13) 0.6493(10) 0.1743(3)
C2 C 0.3032(13) 0.4501(9) 0.1127(3)
C3 C 0.4158(13) 0.5355(9) 0.1561(3)
C4 C 0.5353(15) 0.3178(9) 0.1976(3)
C5 C 0.4046(14) 0.2209(9) 0.1610(3)
C6 C 0.3855(12) 0.2926(9) 0.1077(3)
C7 C 0.6065(14) 0.2905(9) 0.0775(3)
C8 C 0.5970(14) 0.3705(10) 0.0259(3)
C9 C 0.5244(14) 0.5291(9) 0.0331(3)
C10 C 0.3001(14) 0.5298(9) 0.0607(3)
C11 C -0.0241(16) 0.8025(9) 0.1680(4)
C12 C 0.0053(15) 0.5840(10) 0.2250(3)
C13 C 0.5020(16) 0.0681(9) 0.1594(3)
C14 C 0.5073(18) 0.6065(10) -0.0190(3)
H1 H 0.5807 0.5588 0.1416
H2 H 0.7007 0.3327 0.1820
H3 H 0.5452 0.2664 0.2356
H4 H 0.2371 0.2071 0.1753
H5 H 0.2661 0.2292 0.0857
H6 H 0.7324 0.3411 0.1016
H7 H 0.6515 0.1784 0.0698
H8 H 0.7603 0.3688 0.0082
H9 H 0.4805 0.3160 0.0005
H10 H 0.6467 0.5867 0.0563
H11 H 0.2514 0.6417 0.0674
H12 H 0.1800 0.4776 0.0353
H13 H -0.2030 0.7985 0.1709
H14 H 0.0414 0.8698 0.1992
H15 H 0.0206 0.8505 0.1308
H16 H 0.0708 0.6514 0.2560
H17 H -0.1736 0.5801 0.2277
H18 H 0.0698 0.4745 0.2294
H19 H 0.6723 0.0744 0.1460
H20 H 0.4982 0.0222 0.1984
H21 H 0.4091 -0.0013 0.1332
H22 H 0.6676 0.6045 -0.0380
H23 H 0.3871 0.5507 -0.0431
H24 H 0.4559 0.7187 -0.0139
loop_
_geom_bond_atom_site_label_1
_geom_bond_atom_site_label_2
_geom_bond_site_symmetry_1
_geom_bond_site_symmetry_2
O1 O2 1_555 1_555
O2 C2 1_555 1_555
O3 C1 1_555 1_555
O4 C3 1_555 1_555
C1 O1 1_555 1_555
C2 C3 1_555 1_555
C3 O3 1_555 1_555
C4 O4 1_555 1_555
C5 C4 1_555 1_555
C6 C2 1_555 1_555
C7 C6 1_555 1_555
C8 C7 1_555 1_555
C9 C8 1_555 1_555
C10 C2 1_555 1_555
C11 C1 1_555 1_555
C12 C1 1_555 1_555
C13 C5 1_555 1_555
C14 C9 1_555 1_555
H1 C3 1_555 1_555
H2 C4 1_555 1_555
H3 C4 1_555 1_555
H4 C5 1_555 1_555
H5 C6 1_555 1_555
H6 C7 1_555 1_555
H7 C7 1_555 1_555
H8 C8 1_555 1_555
H9 C8 1_555 1_555
H10 C9 1_555 1_555
H11 C10 1_555 1_555
H12 C10 1_555 1_555
H13 C11 1_555 1_555
H14 C11 1_555 1_555
H15 C11 1_555 1_555
H16 C12 1_555 1_555
H17 C12 1_555 1_555
H18 C12 1_555 1_555
H19 C13 1_555 1_555
H20 C13 1_555 1_555
H21 C13 1_555 1_555
H22 C14 1_555 1_555
H23 C14 1_555 1_555
H24 C14 1_555 1_555
C5 C6 1_555 1_555
C9 C10 1_555 1_555

#END
