
#######################################################################
#
#                 Cambridge Crystallographic Data Centre
#                                CCDC 
#
#######################################################################
#
# If this CIF has been generated from an entry in the Cambridge 
# Structural Database, then it will include bibliographic, chemical, 
# crystal, experimental, refinement or atomic coordinate data resulting 
# from the CCDC's data processing and validation procedures.
#
#######################################################################

data_SADCIJ
_chemical_formula_moiety         'C24 H18 As1 N1'
_chemical_name_systematic        5,10-Diphenyl-5,10-dihydrophenarsazine
_symmetry_cell_setting           monoclinic
_symmetry_space_group_name_H-M   'P 21/c'
_symmetry_Int_Tables_number      14
_space_group_name_Hall           '-P 2ybc'
loop_
_symmetry_equiv_pos_site_id
_symmetry_equiv_pos_as_xyz
1 x,y,z
2 -x,1/2+y,1/2-z
3 -x,-y,-z
4 x,1/2-y,1/2+z
_cell_length_a                   10.737(3)
_cell_length_b                   8.561(4)
_cell_length_c                   20.523(7)
_cell_angle_alpha                90
_cell_angle_beta                 91.91(3)
_cell_angle_gamma                90
_cell_volume                     1885.41
_exptl_crystal_colour            colorless
_cell_formula_units_Z            4
loop_
_atom_site_label
_atom_site_type_symbol
_atom_site_fract_x
_atom_site_fract_y
_atom_site_fract_z
C1 C 0.0650(4) -0.1685(5) 0.8853(2)
C2 C 0.0974(5) -0.3204(6) 0.8734(2)
C3 C 0.2202(5) -0.3667(7) 0.8743(2)
C4 C 0.3108(5) -0.2571(6) 0.8857(2)
C5 C 0.2828(4) -0.1009(5) 0.8973(2)
As1 As 0.4140(1) 0.0518(1) 0.9033(1)
C6 C 0.3233(3) 0.1934(5) 0.9571(2)
C7 C 0.3884(4) 0.2965(6) 0.9982(2)
C8 C 0.3298(5) 0.4100(6) 1.0327(2)
C9 C 0.2017(5) 0.4218(6) 1.0267(2)
C10 C 0.1347(4) 0.3203(5) 0.9874(2)
C11 C 0.1930(3) 0.2035(5) 0.9524(2)
N1 N 0.1222(3) 0.1005(4) 0.9125(2)
C12 C 0.1567(3) -0.0560(5) 0.8983(2)
C13 C -0.0010(3) 0.1491(5) 0.8905(2)
C14 C -0.0138(4) 0.2164(5) 0.8301(2)
C15 C -0.1299(5) 0.2598(7) 0.8057(3)
C16 C -0.2323(5) 0.2350(6) 0.8429(3)
C17 C -0.2207(4) 0.1709(6) 0.9029(3)
C18 C -0.1039(4) 0.1258(5) 0.9274(2)
C19 C 0.3753(3) 0.1590(5) 0.8201(2)
C20 C 0.4111(4) 0.3126(6) 0.8124(3)
C21 C 0.3884(5) 0.3885(8) 0.7539(3)
C22 C 0.3311(5) 0.3122(8) 0.7023(3)
C23 C 0.2957(5) 0.1595(8) 0.7095(3)
C24 C 0.3175(4) 0.0861(6) 0.7681(2)
H1 H -0.0213 -0.1385 0.8845
H2 H 0.0331 -0.3961 0.8645
H3 H 0.2418 -0.4739 0.8670
H4 H 0.3966 -0.2887 0.8857
H5 H 0.4774 0.2876 1.0024
H6 H 0.3766 0.4799 1.0607
H7 H 0.1590 0.5015 1.0501
H8 H 0.0457 0.3302 0.9839
H9 H 0.0582 0.2337 0.8045
H10 H -0.1402 0.3066 0.7633
H11 H -0.3134 0.2638 0.8258
H12 H -0.2925 0.1563 0.9289
H13 H -0.0936 0.0786 0.9696
H14 H 0.4522 0.3671 0.8479
H15 H 0.4125 0.4958 0.7493
H16 H 0.3162 0.3651 0.6616
H17 H 0.2560 0.1043 0.6738
H18 H 0.2912 -0.0203 0.7728
loop_
_geom_bond_atom_site_label_1
_geom_bond_atom_site_label_2
_geom_bond_site_symmetry_1
_geom_bond_site_symmetry_2
C1 C2 1_555 1_555
C2 C3 1_555 1_555
C3 C4 1_555 1_555
C4 C5 1_555 1_555
C5 As1 1_555 1_555
As1 C6 1_555 1_555
C6 C7 1_555 1_555
C7 C8 1_555 1_555
C8 C9 1_555 1_555
C9 C10 1_555 1_555
C10 C11 1_555 1_555
C11 C6 1_555 1_555
N1 C11 1_555 1_555
C12 C1 1_555 1_555
C13 N1 1_555 1_555
C14 C13 1_555 1_555
C15 C14 1_555 1_555
C16 C15 1_555 1_555
C17 C16 1_555 1_555
C18 C13 1_555 1_555
C19 As1 1_555 1_555
C20 C19 1_555 1_555
C21 C20 1_555 1_555
C22 C21 1_555 1_555
C23 C22 1_555 1_555
C24 C19 1_555 1_555
H1 C1 1_555 1_555
H2 C2 1_555 1_555
H3 C3 1_555 1_555
H4 C4 1_555 1_555
H5 C7 1_555 1_555
H6 C8 1_555 1_555
H7 C9 1_555 1_555
H8 C10 1_555 1_555
H9 C14 1_555 1_555
H10 C15 1_555 1_555
H11 C16 1_555 1_555
H12 C17 1_555 1_555
H13 C18 1_555 1_555
H14 C20 1_555 1_555
H15 C21 1_555 1_555
H16 C22 1_555 1_555
H17 C23 1_555 1_555
H18 C24 1_555 1_555
C5 C12 1_555 1_555
N1 C12 1_555 1_555
C17 C18 1_555 1_555
C23 C24 1_555 1_555

#END
