
#######################################################################
#
#                 Cambridge Crystallographic Data Centre
#                                CCDC 
#
#######################################################################
#
# If this CIF has been generated from an entry in the Cambridge 
# Structural Database, then it will include bibliographic, chemical, 
# crystal, experimental, refinement or atomic coordinate data resulting 
# from the CCDC's data processing and validation procedures.
#
#######################################################################

data_SAFDUB
_chemical_formula_moiety         'C22 H24 Br2 O4'
_chemical_name_systematic        
'1-(3-Bromo-2-ethyl-2,3,4,4a,6,7,10,10a-octahydropyrano[3,2-b]oxocin-6-yl)prop-2-yn-1-yl 4-bromobenzoate'
_symmetry_cell_setting           monoclinic
_symmetry_space_group_name_H-M   'P 21'
_symmetry_Int_Tables_number      4
_space_group_name_Hall           'P 2yb'
loop_
_symmetry_equiv_pos_site_id
_symmetry_equiv_pos_as_xyz
1 x,y,z
2 -x,1/2+y,-z
_cell_length_a                   14.43(1)
_cell_length_b                   5.027(4)
_cell_length_c                   15.71(1)
_cell_angle_alpha                90
_cell_angle_beta                 110.64(1)
_cell_angle_gamma                90
_cell_volume                     1066.45
_exptl_crystal_colour            colorless
_exptl_crystal_description       needle
_cell_formula_units_Z            2
loop_
_atom_site_label
_atom_site_type_symbol
_atom_site_fract_x
_atom_site_fract_y
_atom_site_fract_z
Br1 Br 0.18160(8) -0.6415(3) -0.22041(8)
Br2 Br -0.6341(1) 0.1054(3) -1.00609(8)
O1 O -0.3040(5) -0.272(1) -0.6037(4)
O2 O -0.4181(5) -0.577(2) -0.6105(5)
O3 O -0.0486(5) -0.275(1) -0.1713(4)
O4 O -0.1269(4) -0.215(1) -0.3728(4)
C1 C -0.1521(9) -0.491(2) -0.5403(7)
C2 C -0.0234(6) -0.594(2) -0.3089(6)
C3 C 0.0428(7) -0.415(2) -0.1494(6)
C4 C -0.1318(7) -0.417(2) -0.2321(6)
C5 C -0.2100(7) -0.167(2) -0.4501(6)
C6 C -0.3917(8) -0.392(3) -0.6426(7)
C7 C 0.0599(6) -0.446(2) -0.2404(6)
C8 C -0.2207(8) -0.254(2) -0.2358(7)
C9 C -0.4689(8) 0.057(3) -0.8452(7)
C10 C -0.5585(9) -0.048(2) -0.8949(7)
C11 C 0.1197(7) -0.255(2) -0.0800(6)
C12 C -0.4127(7) -0.053(2) -0.7614(7)
C13 C -0.2375(7) -0.385(2) -0.5206(6)
C14 C -0.5403(8) -0.365(2) -0.7803(7)
C15 C -0.5962(8) -0.255(2) -0.8617(7)
C16 C -0.4496(8) -0.265(2) -0.7295(7)
C17 C -0.3475(8) -0.286(2) -0.3899(8)
C18 C 0.1092(7) -0.248(2) 0.0103(7)
C19 C -0.1213(7) -0.458(2) -0.3237(6)
C20 C -0.3149(7) -0.363(2) -0.3046(8)
C21 C -0.086(1) -0.572(3) -0.5560(8)
C22 C -0.3028(7) -0.079(2) -0.4305(7)
H1 H -0.4448 0.2028 -0.8674
H2 H -0.3511 0.0176 -0.7277
H3 H -0.2707 -0.5300 -0.5008
H4 H -0.5647 -0.5115 -0.7589
H5 H -0.6591 -0.3201 -0.8939
H6 H -0.033(5) -0.59(2) -0.574(5)
H7 H 0.0371 -0.5907 -0.1246
H8 H -0.1360 -0.5906 -0.2056
H9 H -0.1923 -0.0139 -0.4800
H10 H 0.0655 -0.2692 -0.2644
H11 H -0.1747 -0.5759 -0.3601
H12 H 0.1843 -0.3265 -0.0731
H13 H 0.1171 -0.0738 -0.1022
H14 H 0.1473 -0.3895 0.0473
H15 H 0.0407 -0.2699 0.0031
H16 H 0.1326 -0.0804 0.0391
H17 H -0.2114 -0.0715 -0.2517
H18 H -0.2266 -0.2520 -0.1761
H19 H -0.3509 -0.4893 -0.2858
H20 H -0.4041 -0.3701 -0.4287
H21 H -0.2854 0.0725 -0.3895
H22 H -0.3523 -0.0194 -0.4870
H23 H -0.0255 -0.7743 -0.2879
H24 H -0.0120 -0.6024 -0.3661
loop_
_geom_bond_atom_site_label_1
_geom_bond_atom_site_label_2
_geom_bond_site_symmetry_1
_geom_bond_site_symmetry_2
Br1 C7 1_555 1_555
Br2 C10 1_555 1_555
O1 C6 1_555 1_555
O2 C6 1_555 1_555
O3 C3 1_555 1_555
O4 C5 1_555 1_555
C1 C13 1_555 1_555
C2 C7 1_555 1_555
C3 C7 1_555 1_555
C4 O3 1_555 1_555
C5 C13 1_555 1_555
C6 C16 1_555 1_555
C7 H10 1_555 1_555
C8 C4 1_555 1_555
C9 C10 1_555 1_555
C10 C15 1_555 1_555
C11 C3 1_555 1_555
C12 C9 1_555 1_555
C13 O1 1_555 1_555
C14 C15 1_555 1_555
C15 H5 1_555 1_555
C16 C12 1_555 1_555
C17 C20 1_555 1_555
C18 C11 1_555 1_555
C19 O4 1_555 1_555
C20 C8 1_555 1_555
C21 C1 1_555 1_555
C22 C5 1_555 1_555
H1 C9 1_555 1_555
H2 C12 1_555 1_555
H3 C13 1_555 1_555
H4 C14 1_555 1_555
H6 C21 1_555 1_555
H7 C3 1_555 1_555
H8 C4 1_555 1_555
H9 C5 1_555 1_555
H11 C19 1_555 1_555
H12 C11 1_555 1_555
H13 C11 1_555 1_555
H14 C18 1_555 1_555
H15 C18 1_555 1_555
H16 C18 1_555 1_555
H17 C8 1_555 1_555
H18 C8 1_555 1_555
H19 C20 1_555 1_555
H20 C17 1_555 1_555
H21 C22 1_555 1_555
H22 C22 1_555 1_555
H23 C2 1_555 1_555
H24 C2 1_555 1_555
C2 C19 1_555 1_555
C4 C19 1_555 1_555
C14 C16 1_555 1_555
C17 C22 1_555 1_555

#END
