
#######################################################################
#
#                 Cambridge Crystallographic Data Centre
#                                CCDC 
#
#######################################################################
#
# If this CIF has been generated from an entry in the Cambridge 
# Structural Database, then it will include bibliographic, chemical, 
# crystal, experimental, refinement or atomic coordinate data resulting 
# from the CCDC's data processing and validation procedures.
#
#######################################################################

data_SAFFEN
_chemical_formula_moiety         'C15 H24 Br1 Cl2 N1 O3'
_chemical_name_systematic        
(S,S)-4-(6-Bromo-5-ethylhexahydro-2H-furo[3,2-b]pyran-2-yl)-2,4-dichloro-N,N-dimethylbutanamide
_symmetry_cell_setting           monoclinic
_symmetry_space_group_name_H-M   'P 21'
_symmetry_Int_Tables_number      4
_space_group_name_Hall           'P 2yb'
loop_
_symmetry_equiv_pos_site_id
_symmetry_equiv_pos_as_xyz
1 x,y,z
2 -x,1/2+y,-z
_cell_length_a                   11.8717(3)
_cell_length_b                   8.1778(2)
_cell_length_c                   19.1034(5)
_cell_angle_alpha                90
_cell_angle_beta                 91.847(1)
_cell_angle_gamma                90
_cell_volume                     1853.68
_exptl_crystal_colour            silver
_exptl_crystal_description       block
_cell_formula_units_Z            4
loop_
_atom_site_label
_atom_site_type_symbol
_atom_site_fract_x
_atom_site_fract_y
_atom_site_fract_z
Br1 Br 0.86744(2) 0.10804(5) 0.856796(14)
Cl1 Cl 0.13195(5) 0.68695(11) 0.93874(3)
Cl2 Cl 0.51055(5) 0.61959(11) 1.03159(3)
O1 O 0.30315(15) 0.4210(3) 0.84651(9)
O2 O 0.66879(14) 0.6011(3) 0.91428(9)
O3 O 0.59656(14) 0.3988(3) 0.79551(9)
N1 N 0.20076(19) 0.2912(3) 0.92743(12)
C1 C 0.1332(2) 0.2905(5) 0.99043(15)
H1 H 0.1343 0.3998 1.0115
H2 H 0.1650 0.2114 1.0242
H3 H 0.0554 0.2600 0.9777
C2 C 0.2065(2) 0.1374(5) 0.89018(17)
H4 H 0.2527 0.1508 0.8490
H5 H 0.1303 0.1032 0.8752
H6 H 0.2403 0.0539 0.9211
C3 C 0.2560(2) 0.4215(4) 0.90288(14)
C4 C 0.2632(2) 0.5755(4) 0.94863(13)
H7 H 0.2757 0.5433 0.9988
C5 C 0.3587(2) 0.6860(4) 0.92651(13)
H8 H 0.3480 0.7129 0.8762
H9 H 0.3561 0.7895 0.9533
C6 C 0.4732(2) 0.6068(5) 0.93862(12)
H10 H 0.4676 0.4889 0.9250
C7 C 0.5656(2) 0.6862(4) 0.89732(13)
H11 H 0.5733 0.8039 0.9109
C8 C 0.5462(2) 0.6722(4) 0.81769(13)
H12 H 0.4716 0.6235 0.8061
H13 H 0.5507 0.7809 0.7951
C9 C 0.6404(2) 0.5615(4) 0.79416(14)
H14 H 0.6672 0.5922 0.7468
C10 C 0.7308(2) 0.5856(5) 0.85096(13)
H15 H 0.7724 0.6896 0.8422
C11 C 0.8143(2) 0.4456(4) 0.85871(15)
H16 H 0.8695 0.4520 0.8211
H17 H 0.8559 0.4546 0.9043
C12 C 0.7538(2) 0.2840(4) 0.85461(14)
H18 H 0.7051 0.2725 0.8961
C13 C 0.6802(2) 0.2742(4) 0.78800(14)
H19 H 0.7265 0.2986 0.7464
C14 C 0.6169(2) 0.1162(5) 0.77639(14)
H20 H 0.5694 0.0951 0.8171
H21 H 0.6716 0.0252 0.7733
C15 C 0.5418(3) 0.1197(6) 0.70928(15)
H22 H 0.5028 0.0147 0.7037
H23 H 0.5886 0.1389 0.6688
H24 H 0.4862 0.2077 0.7126
Br2 Br 1.25529(2) 0.88069(4) 0.704144(16)
Cl3 Cl 1.01324(6) 0.33071(11) 0.47750(3)
Cl4 Cl 0.63251(6) 0.20814(13) 0.50517(4)
O4 O 0.73670(17) 0.4689(3) 0.63184(10)
O5 O 1.14389(14) 0.3514(3) 0.61068(9)
O6 O 1.02387(15) 0.5073(3) 0.72651(9)
N2 N 0.67793(18) 0.6090(4) 0.53544(11)
C16 C 0.6569(2) 0.6211(5) 0.45980(14)
H25 H 0.6758 0.5170 0.4377
H26 H 0.7035 0.7085 0.4409
H27 H 0.5771 0.6460 0.4502
C17 C 0.6535(3) 0.7529(5) 0.57679(19)
H28 H 0.6704 0.7300 0.6264
H29 H 0.5737 0.7814 0.5703
H30 H 0.7001 0.8444 0.5616
C18 C 0.7218(2) 0.4772(4) 0.56767(15)
C19 C 0.7555(2) 0.3321(4) 0.52277(14)
H31 H 0.7845 0.3734 0.4775
C20 C 0.8463(2) 0.2285(4) 0.55953(14)
H32 H 0.8220 0.1992 0.6070
H33 H 0.8570 0.1261 0.5330
C21 C 0.9573(2) 0.3216(4) 0.56511(13)
H34 H 0.9424 0.4353 0.5816
C22 C 1.0477(2) 0.2454(4) 0.61215(13)
H35 H 1.0679 0.1351 0.5938
C23 C 1.0174(2) 0.2316(4) 0.69006(13)
H36 H 0.9362 0.2529 0.6961
H37 H 1.0359 0.1214 0.7086
C24 C 1.0887(2) 0.3608(4) 0.72677(13)
H38 H 1.1118 0.3267 0.7754
C25 C 1.1896(2) 0.3748(5) 0.67996(12)
H39 H 1.2440 0.2847 0.6915
C26 C 1.2509(2) 0.5372(4) 0.68349(14)
H40 H 1.3027 0.5389 0.7251
H41 H 1.2964 0.5504 0.6413
C27 C 1.1682(2) 0.6772(4) 0.68776(14)
H42 H 1.1241 0.6862 0.6424
C28 C 1.0876(2) 0.6492(4) 0.74691(13)
H43 H 1.1325 0.6240 0.7908
C29 C 1.0031(2) 0.7824(4) 0.76222(13)
H44 H 1.0447 0.8848 0.7731
H45 H 0.9619 0.7513 0.8044
C30 C 0.9181(2) 0.8156(4) 0.70278(14)
H46 H 0.8671 0.9034 0.7164
H47 H 0.8745 0.7161 0.6927
H48 H 0.9579 0.8486 0.6609
loop_
_geom_bond_atom_site_label_1
_geom_bond_atom_site_label_2
_geom_bond_site_symmetry_1
_geom_bond_site_symmetry_2
Br1 C12 1_555 1_555
Cl1 C4 1_555 1_555
Cl2 C6 1_555 1_555
O1 C3 1_555 1_555
O2 C7 1_555 1_555
O3 C9 1_555 1_555
N1 C1 1_555 1_555
C1 H1 1_555 1_555
H2 C1 1_555 1_555
H3 C1 1_555 1_555
C2 N1 1_555 1_555
H4 C2 1_555 1_555
H5 C2 1_555 1_555
H6 C2 1_555 1_555
C3 N1 1_555 1_555
C4 C3 1_555 1_555
H7 C4 1_555 1_555
C5 C4 1_555 1_555
H8 C5 1_555 1_555
H9 C5 1_555 1_555
C6 C5 1_555 1_555
H10 C6 1_555 1_555
C7 C6 1_555 1_555
H11 C7 1_555 1_555
C8 C7 1_555 1_555
H12 C8 1_555 1_555
H13 C8 1_555 1_555
C9 C8 1_555 1_555
H14 C9 1_555 1_555
C10 O2 1_555 1_555
H15 C10 1_555 1_555
C11 C10 1_555 1_555
H16 C11 1_555 1_555
H17 C11 1_555 1_555
C12 C11 1_555 1_555
H18 C12 1_555 1_555
C13 O3 1_555 1_555
H19 C13 1_555 1_555
C14 C13 1_555 1_555
H20 C14 1_555 1_555
H21 C14 1_555 1_555
C15 C14 1_555 1_555
H22 C15 1_555 1_555
H23 C15 1_555 1_555
H24 C15 1_555 1_555
Br2 C27 1_555 1_555
Cl3 C21 1_555 1_555
Cl4 C19 1_555 1_555
O4 C18 1_555 1_555
O5 C22 1_555 1_555
O6 C24 1_555 1_555
N2 C16 1_555 1_555
C16 H25 1_555 1_555
H26 C16 1_555 1_555
H27 C16 1_555 1_555
C17 N2 1_555 1_555
H28 C17 1_555 1_555
H29 C17 1_555 1_555
H30 C17 1_555 1_555
C18 N2 1_555 1_555
C19 C18 1_555 1_555
H31 C19 1_555 1_555
C20 C19 1_555 1_555
H32 C20 1_555 1_555
H33 C20 1_555 1_555
C21 C20 1_555 1_555
H34 C21 1_555 1_555
C22 C21 1_555 1_555
H35 C22 1_555 1_555
C23 C22 1_555 1_555
H36 C23 1_555 1_555
H37 C23 1_555 1_555
C24 C23 1_555 1_555
H38 C24 1_555 1_555
C25 O5 1_555 1_555
H39 C25 1_555 1_555
C26 C25 1_555 1_555
H40 C26 1_555 1_555
H41 C26 1_555 1_555
C27 C26 1_555 1_555
H42 C27 1_555 1_555
C28 O6 1_555 1_555
H43 C28 1_555 1_555
C29 C28 1_555 1_555
H44 C29 1_555 1_555
H45 C29 1_555 1_555
C30 C29 1_555 1_555
H46 C30 1_555 1_555
H47 C30 1_555 1_555
H48 C30 1_555 1_555
C9 C10 1_555 1_555
C12 C13 1_555 1_555
C24 C25 1_555 1_555
C27 C28 1_555 1_555

#END
