
#######################################################################
#
#                 Cambridge Crystallographic Data Centre
#                                CCDC 
#
#######################################################################
#
# If this CIF has been generated from an entry in the Cambridge 
# Structural Database, then it will include bibliographic, chemical, 
# crystal, experimental, refinement or atomic coordinate data resulting 
# from the CCDC's data processing and validation procedures.
#
#######################################################################

data_SAFNEU
_chemical_formula_moiety         'C10 H8 Cl2 O3'
_chemical_name_systematic        
'(Z)-Methyl 3-(2,4-dichlorophenyl)-3-hydroxyacrylate'
_symmetry_cell_setting           monoclinic
_symmetry_space_group_name_H-M   'C c'
_symmetry_Int_Tables_number      9
_space_group_name_Hall           'C -2yc'
loop_
_symmetry_equiv_pos_site_id
_symmetry_equiv_pos_as_xyz
1 x,y,z
2 x,-y,1/2+z
3 1/2+x,1/2+y,z
4 1/2+x,1/2-y,1/2+z
_cell_length_a                   15.889(3)
_cell_length_b                   3.8242(8)
_cell_length_c                   18.204(4)
_cell_angle_alpha                90
_cell_angle_beta                 108.18(3)
_cell_angle_gamma                90
_cell_volume                     1050.91
_exptl_crystal_colour            colorless
_exptl_crystal_description       prism
_cell_formula_units_Z            4
loop_
_atom_site_label
_atom_site_type_symbol
_atom_site_fract_x
_atom_site_fract_y
_atom_site_fract_z
C1 C 0.58573(13) 0.7958(6) 0.44452(12)
C2 C 0.53832(13) 0.7161(6) 0.36792(12)
C3 C 0.57482(16) 0.7526(7) 0.30884(13)
H1 H 0.5423 0.6944 0.2583
C4 C 0.65998(16) 0.8762(6) 0.32574(14)
C5 C 0.70941(16) 0.9602(7) 0.40023(15)
H2 H 0.7669 1.0447 0.4109
C6 C 0.67267(16) 0.9175(7) 0.45842(14)
H3 H 0.7065 0.9709 0.5088
C7 C 0.55234(15) 0.7569(6) 0.51099(12)
C8 C 0.47153(15) 0.8564(6) 0.51265(13)
H4 H 0.4315 0.9548 0.4689
C9 C 0.44659(15) 0.8113(7) 0.58190(13)
C10 C 0.3367(2) 0.8937(8) 0.64204(16)
H5 H 0.3348 0.6501 0.6542
H6 H 0.2787 0.9934 0.6319
H7 H 0.3776 1.0126 0.6849
Cl1 Cl 0.43104(3) 0.55059(16) 0.34217(3)
Cl2 Cl 0.70467(4) 0.9249(2) 0.25046(4)
O1 O 0.61264(12) 0.6173(6) 0.57216(10)
H8 H 0.5931 0.6120 0.6088
O2 O 0.49301(12) 0.6776(6) 0.64092(9)
O3 O 0.36513(11) 0.9310(5) 0.57450(9)
loop_
_geom_bond_atom_site_label_1
_geom_bond_atom_site_label_2
_geom_bond_site_symmetry_1
_geom_bond_site_symmetry_2
C1 C2 1_555 1_555
C2 C3 1_555 1_555
C3 H1 1_555 1_555
C4 C3 1_555 1_555
C5 C4 1_555 1_555
H2 C5 1_555 1_555
C6 C1 1_555 1_555
H3 C6 1_555 1_555
C7 C1 1_555 1_555
C8 C7 1_555 1_555
H4 C8 1_555 1_555
C9 C8 1_555 1_555
C10 H5 1_555 1_555
H6 C10 1_555 1_555
H7 C10 1_555 1_555
Cl1 C2 1_555 1_555
Cl2 C4 1_555 1_555
O1 C7 1_555 1_555
H8 O1 1_555 1_555
O2 C9 1_555 1_555
O3 C9 1_555 1_555
C5 C6 1_555 1_555
C10 O3 1_555 1_555

#END
