
#######################################################################
#
#                 Cambridge Crystallographic Data Centre
#                                CCDC 
#
#######################################################################
#
# If this CIF has been generated from an entry in the Cambridge 
# Structural Database, then it will include bibliographic, chemical, 
# crystal, experimental, refinement or atomic coordinate data resulting 
# from the CCDC's data processing and validation procedures.
#
#######################################################################

data_SAFRID
_chemical_compound_source        'Millettia usaramensis ssp. usaramensis'
_chemical_name_common            12a-Epimillittosin
_chemical_formula_moiety         'C22 H18 O7'
_chemical_name_systematic        
12b-Hydroxy-2,2-dimethyl-5a,12b-dihydro-2H-[1,3]dioxolo[6,7]chromeno[3,4-b]pyrano[2,3-h]chromen-13(6H)-one
_chemical_properties_biological  'anticancer activity'
_symmetry_cell_setting           monoclinic
_symmetry_space_group_name_H-M   'P 21'
_symmetry_Int_Tables_number      4
_space_group_name_Hall           'P 2yb'
loop_
_symmetry_equiv_pos_site_id
_symmetry_equiv_pos_as_xyz
1 x,y,z
2 -x,1/2+y,-z
_cell_length_a                   8.31466(12)
_cell_length_b                   9.32119(15)
_cell_length_c                   12.44700(19)
_cell_angle_alpha                90
_cell_angle_beta                 109.1601(16)
_cell_angle_gamma                90
_cell_volume                     911.236
_exptl_crystal_colour            colorless
_exptl_crystal_description       block
_cell_formula_units_Z            2
loop_
_atom_site_label
_atom_site_type_symbol
_atom_site_fract_x
_atom_site_fract_y
_atom_site_fract_z
O1 O 0.25113(15) 0.77682(18) 1.20449(10)
O2 O 0.43439(17) 0.73617(18) 1.38644(10)
O3 O 0.90114(16) 0.60035(17) 1.26127(10)
O4 O 0.62281(16) 0.52629(15) 0.96187(11)
O5 O 0.54385(16) 0.86391(15) 0.92156(11)
O6 O 0.95389(15) 0.59478(15) 0.98416(10)
O7 O 0.96313(14) 0.64832(17) 0.60866(10)
C1 C 0.2817(3) 0.8097(3) 1.32113(16)
C2 C 0.4092(2) 0.7372(2) 1.20001(14)
C3 C 0.5182(2) 0.7114(2) 1.30940(14)
C4 C 0.6813(2) 0.6635(2) 1.33068(15)
C5 C 0.7349(2) 0.6461(2) 1.23556(14)
C6 C 0.6287(2) 0.67517(19) 1.12496(13)
C7 C 0.4585(2) 0.7171(2) 1.10653(14)
C8 C 0.6920(2) 0.6529(2) 1.02557(13)
C9 C 0.8867(2) 0.6438(2) 1.06973(14)
C10 C 0.9429(2) 0.5400(2) 1.16788(15)
C11 C 0.64947(19) 0.76975(19) 0.93339(13)
C12 C 0.7450(2) 0.7499(2) 0.85346(14)
C13 C 0.8872(2) 0.6587(2) 0.88087(13)
C14 C 0.9698(2) 0.6292(2) 0.80202(14)
C15 C 0.9002(2) 0.6861(2) 0.69270(13)
C16 C 0.7591(2) 0.7775(2) 0.66332(14)
C17 C 0.68569(19) 0.8114(2) 0.74470(14)
C18 C 1.1222(2) 0.5402(2) 0.82701(14)
C19 C 1.2029(2) 0.5299(2) 0.75160(15)
C20 C 1.1432(2) 0.6084(2) 0.63959(14)
C21 C 1.1542(3) 0.5149(3) 0.54241(16)
C22 C 1.2434(3) 0.7467(3) 0.6472(2)
H1 H 0.936(2) 0.742(3) 1.0956(17)
H2 H 0.756(3) 0.642(3) 1.410(2)
H3 H 0.377(3) 0.732(3) 1.0294(18)
H4 H 0.591(3) 0.882(3) 0.7277(17)
H5 H 1.066(3) 0.531(3) 1.194(2)
H6 H 0.711(3) 0.816(3) 0.5887(18)
H7 H 0.885(3) 0.447(3) 1.146(2)
H8 H 1.168(3) 0.491(3) 0.905(2)
H9 H 1.308(3) 0.476(3) 0.766(2)
H10 H 0.184(3) 0.773(3) 1.345(2)
H11 H 1.274(4) 0.492(3) 0.559(2)
H12 H 0.304(4) 0.914(4) 1.336(3)
H13 H 1.230(3) 0.813(4) 0.711(2)
H14 H 1.203(4) 0.801(4) 0.574(3)
H15 H 1.090(4) 0.429(4) 0.538(2)
H16 H 1.368(4) 0.717(3) 0.661(2)
H17 H 1.094(3) 0.568(3) 0.468(2)
H18 H 0.574(4) 0.473(4) 1.006(3)
loop_
_geom_bond_atom_site_label_1
_geom_bond_atom_site_label_2
_geom_bond_site_symmetry_1
_geom_bond_site_symmetry_2
O1 C1 1_555 1_555
O2 C1 1_555 1_555
O3 C5 1_555 1_555
O4 C8 1_555 1_555
O5 C11 1_555 1_555
O6 C9 1_555 1_555
O7 C15 1_555 1_555
C1 H10 1_555 1_555
C2 O1 1_555 1_555
C3 O2 1_555 1_555
C4 C3 1_555 1_555
C5 C4 1_555 1_555
C6 C5 1_555 1_555
C7 C2 1_555 1_555
C8 C6 1_555 1_555
C9 C8 1_555 1_555
C10 O3 1_555 1_555
C11 C8 1_555 1_555
C12 C11 1_555 1_555
C13 O6 1_555 1_555
C14 C13 1_555 1_555
C15 C14 1_555 1_555
C16 C15 1_555 1_555
C17 C12 1_555 1_555
C18 C14 1_555 1_555
C19 C18 1_555 1_555
C20 O7 1_555 1_555
C21 C20 1_555 1_555
C22 C20 1_555 1_555
H1 C9 1_555 1_555
H2 C4 1_555 1_555
H3 C7 1_555 1_555
H4 C17 1_555 1_555
H5 C10 1_555 1_555
H6 C16 1_555 1_555
H7 C10 1_555 1_555
H8 C18 1_555 1_555
H9 C19 1_555 1_555
H11 C21 1_555 1_555
H12 C1 1_555 1_555
H13 C22 1_555 1_555
H14 C22 1_555 1_555
H15 C21 1_555 1_555
H16 C22 1_555 1_555
H17 C21 1_555 1_555
H18 O4 1_555 1_555
C2 C3 1_555 1_555
C6 C7 1_555 1_555
C9 C10 1_555 1_555
C12 C13 1_555 1_555
C16 C17 1_555 1_555
C19 C20 1_555 1_555

#END
