
#######################################################################
#
#                 Cambridge Crystallographic Data Centre
#                                CCDC 
#
#######################################################################
#
# If this CIF has been generated from an entry in the Cambridge 
# Structural Database, then it will include bibliographic, chemical, 
# crystal, experimental, refinement or atomic coordinate data resulting 
# from the CCDC's data processing and validation procedures.
#
#######################################################################

data_SAFXUU
_chemical_formula_moiety         'C24 H29 N3 O2'
_chemical_name_systematic        
'(E)-2-(4-t-Butylphenyl)-2-cyano-1-(3-methyl-1-vinyl-1H-pyrazol-5-yl)vinyl pivalate'
_symmetry_cell_setting           orthorhombic
_symmetry_space_group_name_H-M   'P b c a'
_symmetry_Int_Tables_number      61
_space_group_name_Hall           '-P 2ac 2ab'
loop_
_symmetry_equiv_pos_site_id
_symmetry_equiv_pos_as_xyz
1 x,y,z
2 1/2-x,-y,1/2+z
3 -x,1/2+y,1/2-z
4 1/2+x,1/2-y,-z
5 -x,-y,-z
6 1/2+x,y,1/2-z
7 x,1/2-y,1/2+z
8 1/2-x,1/2+y,z
_cell_length_a                   12.0056(16)
_cell_length_b                   19.283(3)
_cell_length_c                   20.183(3)
_cell_angle_alpha                90
_cell_angle_beta                 90
_cell_angle_gamma                90
_cell_volume                     4672.44
_exptl_crystal_colour            colorless
_exptl_crystal_description       block
_cell_formula_units_Z            8
loop_
_atom_site_label
_atom_site_type_symbol
_atom_site_fract_x
_atom_site_fract_y
_atom_site_fract_z
O1 O 1.01105(11) 0.08044(6) 0.73974(7)
O2 O 1.19100(13) 0.05098(8) 0.73607(9)
N1 N 0.97347(15) -0.00910(9) 0.85788(8)
N2 N 1.00594(16) -0.05609(9) 0.90444(9)
N3 N 0.8306(2) -0.13197(10) 0.68953(12)
C1 C 0.8888(3) 0.07058(15) 0.93404(14)
H1 H 0.9211 0.0479 0.9699
H2 H 0.8437 0.1091 0.9410
C2 C 0.9067(2) 0.04860(12) 0.87455(12)
H3 H 0.8729 0.0726 0.8400
C3 C 1.05513(19) -0.10678(11) 0.87092(11)
C4 C 1.05432(18) -0.09274(10) 0.80299(11)
H4 H 1.0837 -0.1202 0.7694
C5 C 1.00186(16) -0.03077(10) 0.79596(10)
C6 C 1.1022(2) -0.16827(13) 0.90619(13)
H5 H 1.1816 -0.1636 0.9094
H6 H 1.0844 -0.2097 0.8820
H7 H 1.0709 -0.1710 0.9499
C7 C 0.97899(16) 0.01082(9) 0.73651(9)
C8 C 0.92256(16) -0.01145(10) 0.68363(10)
C9 C 0.87266(19) -0.07898(11) 0.68833(11)
C10 C 0.90092(17) 0.02826(10) 0.62182(10)
C11 C 0.79697(18) 0.02586(12) 0.59251(11)
H8 H 0.7419 -0.0023 0.6105
C12 C 0.77404(19) 0.06478(12) 0.53681(11)
H9 H 0.7033 0.0624 0.5182
C13 C 0.85333(19) 0.10742(11) 0.50771(10)
C14 C 0.9582(2) 0.10713(13) 0.53610(11)
H10 H 1.0142 0.1338 0.5172
C15 C 0.98194(19) 0.06812(13) 0.59201(11)
H11 H 1.0535 0.0689 0.6096
C16 C 0.8234(2) 0.15167(13) 0.44748(11)
C17 C 0.7940(3) 0.10424(16) 0.38919(13)
H12 H 0.8573 0.0761 0.3781
H13 H 0.7735 0.1320 0.3516
H14 H 0.7327 0.0749 0.4013
C18 C 0.7231(3) 0.19699(17) 0.46499(16)
H15 H 0.6607 0.1680 0.4758
H16 H 0.7045 0.2258 0.4278
H17 H 0.7411 0.2257 0.5024
C19 C 0.9185(3) 0.19962(16) 0.42640(15)
H18 H 0.9387 0.2291 0.4628
H19 H 0.8949 0.2276 0.3896
H20 H 0.9817 0.1723 0.4135
C20 C 1.12292(17) 0.09525(10) 0.74372(10)
C21 C 1.14310(17) 0.17108(10) 0.75803(11)
C22 C 1.0765(3) 0.21582(14) 0.7115(2)
H21 H 1.0931 0.2637 0.7197
H22 H 0.9984 0.2078 0.7186
H23 H 1.0953 0.2045 0.6666
C23 C 1.2642(2) 0.18635(16) 0.7505(2)
H24 H 1.2859 0.1792 0.7052
H25 H 1.3064 0.1560 0.7787
H26 H 1.2783 0.2337 0.7627
C24 C 1.1051(4) 0.18545(16) 0.82782(17)
H27 H 1.1466 0.1570 0.8581
H28 H 1.0272 0.1750 0.8317
H29 H 1.1173 0.2335 0.8381
loop_
_geom_bond_atom_site_label_1
_geom_bond_atom_site_label_2
_geom_bond_site_symmetry_1
_geom_bond_site_symmetry_2
O1 C7 1_555 1_555
O2 C20 1_555 1_555
N1 N2 1_555 1_555
N2 C3 1_555 1_555
N3 C9 1_555 1_555
C1 H1 1_555 1_555
H2 C1 1_555 1_555
C2 N1 1_555 1_555
H3 C2 1_555 1_555
C3 C4 1_555 1_555
C4 H4 1_555 1_555
C5 N1 1_555 1_555
C6 C3 1_555 1_555
H5 C6 1_555 1_555
H6 C6 1_555 1_555
H7 C6 1_555 1_555
C7 C5 1_555 1_555
C8 C7 1_555 1_555
C9 C8 1_555 1_555
C10 C8 1_555 1_555
C11 C10 1_555 1_555
H8 C11 1_555 1_555
C12 C11 1_555 1_555
H9 C12 1_555 1_555
C13 C12 1_555 1_555
C14 C13 1_555 1_555
H10 C14 1_555 1_555
C15 C10 1_555 1_555
H11 C15 1_555 1_555
C16 C13 1_555 1_555
C17 C16 1_555 1_555
H12 C17 1_555 1_555
H13 C17 1_555 1_555
H14 C17 1_555 1_555
C18 C16 1_555 1_555
H15 C18 1_555 1_555
H16 C18 1_555 1_555
H17 C18 1_555 1_555
C19 C16 1_555 1_555
H18 C19 1_555 1_555
H19 C19 1_555 1_555
H20 C19 1_555 1_555
C20 O1 1_555 1_555
C21 C20 1_555 1_555
C22 C21 1_555 1_555
H21 C22 1_555 1_555
H22 C22 1_555 1_555
H23 C22 1_555 1_555
C23 C21 1_555 1_555
H24 C23 1_555 1_555
H25 C23 1_555 1_555
H26 C23 1_555 1_555
C24 C21 1_555 1_555
H27 C24 1_555 1_555
H28 C24 1_555 1_555
H29 C24 1_555 1_555
C1 C2 1_555 1_555
C4 C5 1_555 1_555
C14 C15 1_555 1_555

#END
