
#######################################################################
#
#                 Cambridge Crystallographic Data Centre
#                                CCDC 
#
#######################################################################
#
# If this CIF has been generated from an entry in the Cambridge 
# Structural Database, then it will include bibliographic, chemical, 
# crystal, experimental, refinement or atomic coordinate data resulting 
# from the CCDC's data processing and validation procedures.
#
#######################################################################

data_SAGNUJ
_chemical_formula_moiety         'C12 H16 O2'
_chemical_name_systematic        trans-2-Phenoxycyclohexanol
_symmetry_cell_setting           monoclinic
_symmetry_space_group_name_H-M   'P 21/c'
_symmetry_Int_Tables_number      14
_space_group_name_Hall           '-P 2ybc'
loop_
_symmetry_equiv_pos_site_id
_symmetry_equiv_pos_as_xyz
1 x,y,z
2 -x,1/2+y,1/2-z
3 -x,-y,-z
4 x,1/2-y,1/2+z
_cell_length_a                   5.420(2)
_cell_length_b                   20.634(5)
_cell_length_c                   19.136(4)
_cell_angle_alpha                90
_cell_angle_beta                 93.45(2)
_cell_angle_gamma                90
_cell_volume                     2136.22
_exptl_crystal_colour            colorless
_chemical_melting_point          353-355K
_cell_formula_units_Z            8
loop_
_atom_site_label
_atom_site_type_symbol
_atom_site_fract_x
_atom_site_fract_y
_atom_site_fract_z
C1 C 0.9651(5) 0.2439(1) 0.1739(1)
C2 C 1.0133(6) 0.2800(1) 0.1068(1)
C3 C 1.2311(6) 0.2503(1) 0.0727(2)
C4 C 1.1942(7) 0.1782(2) 0.0585(2)
C5 C 1.1418(6) 0.1425(2) 0.1256(2)
C6 C 0.9206(6) 0.1727(1) 0.1592(2)
O1 O 0.7544(4) 0.2743(1) 0.2022(1)
O2 O 1.0718(4) 0.3463(1) 0.1212(1)
C7 C 0.7265(5) 0.2708(1) 0.2727(1)
C8 C 0.5291(6) 0.3058(1) 0.2962(2)
C9 C 0.4846(6) 0.3059(2) 0.3665(2)
C10 C 0.6379(7) 0.2717(2) 0.4137(2)
C11 C 0.8323(6) 0.2379(2) 0.3905(2)
C12 C 0.8780(6) 0.2370(2) 0.3201(2)
H1 H 1.1050 0.2461 0.2070
H2 H 0.8662 0.2770 0.0764
H3 H 1.2522 0.2720 0.0291
H4 H 1.3768 0.2560 0.1031
H5 H 1.3411 0.1607 0.0400
H6 H 1.0571 0.1724 0.0249
H7 H 1.1065 0.0979 0.1149
H8 H 1.2844 0.1452 0.1577
H9 H 0.8952 0.1507 0.2025
H10 H 0.7762 0.1679 0.1281
H11 H 0.9402(63) 0.3655(18) 0.1286(18)
H12 H 0.4234 0.3299 0.2636
H13 H 0.3471 0.3298 0.3826
H14 H 0.6072 0.2719 0.4626
H15 H 0.9391 0.2143 0.4233
H16 H 1.0154 0.2128 0.3044
C13 C 0.4837(6) 0.5035(1) 0.1839(2)
C14 C 0.5256(6) 0.4709(1) 0.1150(1)
C15 C 0.7449(6) 0.5010(1) 0.0820(2)
C16 C 0.7167(7) 0.5742(2) 0.0728(2)
C17 C 0.6659(6) 0.6060(2) 0.1421(2)
C18 C 0.4438(6) 0.5756(1) 0.1737(2)
O3 O 0.2692(4) 0.4729(1) 0.2105(1)
O4 O 0.5765(4) 0.4034(1) 0.1240(1)
C19 C 0.2401(6) 0.4723(1) 0.2811(1)
C20 C 0.0421(6) 0.4361(2) 0.3021(2)
C21 C -0.0026(7) 0.4317(2) 0.3717(2)
C22 C 0.1500(8) 0.4630(2) 0.4214(2)
C23 C 0.3446(7) 0.4986(2) 0.4005(2)
C24 C 0.3929(6) 0.5040(2) 0.3306(2)
H17 H 0.6248 0.4989 0.2163
H18 H 0.3768 0.4764 0.0858
H19 H 0.8910 0.4926 0.1115
H20 H 0.7614 0.4816 0.0370
H21 H 0.5816 0.5829 0.0393
H22 H 0.8664 0.5916 0.0561
H23 H 0.6349 0.6513 0.1344
H24 H 0.8081 0.6007 0.1740
H25 H 0.4201 0.5954 0.2182
H26 H 0.2998 0.5825 0.1429
H27 H 0.4367(62) 0.3849(17) 0.1384(16)
H28 H -0.0638 0.4140 0.2678
H29 H -0.1406 0.4069 0.3860
H30 H 0.1193 0.4597 0.4702
H31 H 0.4502 0.5203 0.4351
H32 H 0.5303 0.5292 0.3166
loop_
_geom_bond_atom_site_label_1
_geom_bond_atom_site_label_2
_geom_bond_site_symmetry_1
_geom_bond_site_symmetry_2
C1 C2 1_555 1_555
C2 C3 1_555 1_555
C3 C4 1_555 1_555
C4 C5 1_555 1_555
C5 C6 1_555 1_555
C6 C1 1_555 1_555
O1 C1 1_555 1_555
O2 C2 1_555 1_555
C7 O1 1_555 1_555
C8 C7 1_555 1_555
C9 C8 1_555 1_555
C10 C9 1_555 1_555
C11 C10 1_555 1_555
C12 C7 1_555 1_555
C13 C14 1_555 1_555
C14 C15 1_555 1_555
C15 C16 1_555 1_555
C16 C17 1_555 1_555
C17 C18 1_555 1_555
C18 C13 1_555 1_555
O3 C13 1_555 1_555
O4 C14 1_555 1_555
C19 O3 1_555 1_555
C20 C19 1_555 1_555
C21 C20 1_555 1_555
C22 C21 1_555 1_555
C23 C22 1_555 1_555
C24 C19 1_555 1_555
H1 C1 1_555 1_555
H2 C2 1_555 1_555
H3 C3 1_555 1_555
H4 C3 1_555 1_555
H5 C4 1_555 1_555
H6 C4 1_555 1_555
H7 C5 1_555 1_555
H8 C5 1_555 1_555
H9 C6 1_555 1_555
H10 C6 1_555 1_555
H11 O2 1_555 1_555
H12 C8 1_555 1_555
H13 C9 1_555 1_555
H14 C10 1_555 1_555
H15 C11 1_555 1_555
H16 C12 1_555 1_555
H17 C13 1_555 1_555
H18 C14 1_555 1_555
H19 C15 1_555 1_555
H20 C15 1_555 1_555
H21 C16 1_555 1_555
H22 C16 1_555 1_555
H23 C17 1_555 1_555
H24 C17 1_555 1_555
H25 C18 1_555 1_555
H26 C18 1_555 1_555
H27 O4 1_555 1_555
H28 C20 1_555 1_555
H29 C21 1_555 1_555
H30 C22 1_555 1_555
H31 C23 1_555 1_555
H32 C24 1_555 1_555
C11 C12 1_555 1_555
C23 C24 1_555 1_555

#END
