
#######################################################################
#
#                 Cambridge Crystallographic Data Centre
#                                CCDC 
#
#######################################################################
#
# If this CIF has been generated from an entry in the Cambridge 
# Structural Database, then it will include bibliographic, chemical, 
# crystal, experimental, refinement or atomic coordinate data resulting 
# from the CCDC's data processing and validation procedures.
#
#######################################################################

data_SAGWUU01
_chemical_formula_moiety         'C9 H6 Cl1 N1 O1'
_chemical_name_systematic        6-chloroquinolin-2(1H)-one
_symmetry_cell_setting           triclinic
_symmetry_space_group_name_H-M   'P -1'
_symmetry_Int_Tables_number      2
_space_group_name_Hall           '-P 1'
loop_
_symmetry_equiv_pos_site_id
_symmetry_equiv_pos_as_xyz
1 x,y,z
2 -x,-y,-z
_cell_length_a                   3.8704(8)
_cell_length_b                   9.2684(19)
_cell_length_c                   12.010(2)
_cell_angle_alpha                69.56(3)
_cell_angle_beta                 90.58(3)
_cell_angle_gamma                77.95(3)
_cell_volume                     393.183
_cell_formula_units_Z            2
loop_
_atom_site_label
_atom_site_type_symbol
_atom_site_fract_x
_atom_site_fract_y
_atom_site_fract_z
Cl1 Cl 0.0935(8) 1.3163(2) 0.1039(2)
C1 C 0.3260(17) 0.8475(6) 0.2081(5)
C2 C 0.252(2) 1.0032(8) 0.1447(6)
H1 H 0.2416 1.0326 0.0622
C3 C 0.1920(18) 1.1207(7) 0.1878(6)
C4 C 0.461(2) 0.5720(8) 0.2345(6)
H2 H 0.4989 0.4953 0.1940
C5 C 0.3903(17) 0.7209(7) 0.1668(5)
H3 H 0.3821 0.7451 0.0848
C6 C 0.049(4) 1.0877(13) 0.2987(13)
H4 H -0.0372 1.1674 0.3284
C7 C 0.041(3) 0.9309(12) 0.3631(11)
H5 H -0.0465 0.9057 0.4381
C8 C 0.158(4) 0.8123(14) 0.3187(11)
O1 O 0.208(3) 0.3975(10) 0.4067(8)
C9 C 0.242(4) 0.5353(15) 0.3443(13)
N1 N 0.140(3) 0.6555(11) 0.3854(9)
C10? C 0.536(3) 0.9297(12) 0.3676(11)
H6? H 0.6507 0.9044 0.4423
C11? C 0.369(4) 1.0820(15) 0.2991(12)
H7? H 0.3740 1.1623 0.3282
C12? C 0.522(3) 0.8140(12) 0.3163(11)
C13? C 0.717(4) 0.5345(14) 0.3458(12)
O2? O 0.877(3) 0.3978(10) 0.4085(9)
N2? N 0.712(3) 0.6569(10) 0.3855(9)
loop_
_geom_bond_atom_site_label_1
_geom_bond_atom_site_label_2
_geom_bond_site_symmetry_1
_geom_bond_site_symmetry_2
Cl1 C3 1_555 1_555
C1 C2 1_555 1_555
C2 H1 1_555 1_555
C3 C2 1_555 1_555
C4 H2 1_555 1_555
C5 C1 1_555 1_555
H3 C5 1_555 1_555
C6 C3 1_555 1_555
H4 C6 1_555 1_555
C7 C6 1_555 1_555
H5 C7 1_555 1_555
C8 C1 1_555 1_555
O1 C9 1_555 1_555
C9 C4 1_555 1_555
N1 C8 1_555 1_555
C4 C5 1_555 1_555
C7 C8 1_555 1_555
C9 N1 1_555 1_555

#END
