
#######################################################################
#
#                 Cambridge Crystallographic Data Centre
#                                CCDC 
#
#######################################################################
#
# If this CIF has been generated from an entry in the Cambridge 
# Structural Database, then it will include bibliographic, chemical, 
# crystal, experimental, refinement or atomic coordinate data resulting 
# from the CCDC's data processing and validation procedures.
#
#######################################################################

data_SAHKUJ
_chemical_formula_moiety         'C12 H14 Br1 N3 O1'
_chemical_name_systematic        
6'-Bromo-1'H-spiro[cyclohexane-1,2'-pyrido[2,3-d]pyrimidin]-4'(3'H)-one
_symmetry_cell_setting           monoclinic
_symmetry_space_group_name_H-M   'P 21/c'
_symmetry_Int_Tables_number      14
_space_group_name_Hall           '-P 2ybc'
loop_
_symmetry_equiv_pos_site_id
_symmetry_equiv_pos_as_xyz
1 x,y,z
2 -x,1/2+y,1/2-z
3 -x,-y,-z
4 x,1/2-y,1/2+z
_cell_length_a                   10.591(3)
_cell_length_b                   12.359(3)
_cell_length_c                   9.116(3)
_cell_angle_alpha                90
_cell_angle_beta                 97.951(4)
_cell_angle_gamma                90
_cell_volume                     1181.76
_exptl_crystal_colour            colorless
_exptl_crystal_description       platelet
_chemical_melting_point          '531-532 K'
_cell_formula_units_Z            4
_exptl_crystal_recrystallization_method tetrahydrofuran
loop_
_atom_site_label
_atom_site_type_symbol
_atom_site_fract_x
_atom_site_fract_y
_atom_site_fract_z
Br1 Br 0.99820(2) 0.65490(2) 0.61599(3)
O1 O 0.58435(14) 0.40734(11) 0.39085(16)
N1 N 0.45035(17) 0.52063(14) 0.2500(2)
N2 N 0.49356(17) 0.71034(14) 0.2458(2)
N3 N 0.68151(16) 0.78374(13) 0.3597(2)
C1 C 0.2735(2) 0.64979(16) 0.2411(2)
H1 H 0.2814 0.6418 0.3501
H2 H 0.2496 0.7257 0.2164
C2 C 0.1676(2) 0.57477(17) 0.1687(2)
H3 H 0.1865 0.4994 0.2015
H4 H 0.0855 0.5960 0.2005
C3 C 0.1565(2) 0.58081(18) -0.0002(2)
H5 H 0.0902 0.5296 -0.0448
H6 H 0.1303 0.6547 -0.0336
C4 C 0.2831(2) 0.55308(17) -0.0524(2)
H7 H 0.2751 0.5617 -0.1613
H8 H 0.3046 0.4765 -0.0285
C5 C 0.3902(2) 0.62565(16) 0.0209(2)
H9 H 0.3743 0.7006 -0.0152
H10 H 0.4717 0.6014 -0.0098
C6 C 0.40340(19) 0.62564(15) 0.1905(2)
C7 C 0.55747(19) 0.49967(15) 0.3433(2)
C8 C 0.64262(19) 0.59204(16) 0.3832(2)
C9 C 0.6063(2) 0.69577(16) 0.3293(2)
C10 C 0.7594(2) 0.57798(17) 0.4683(2)
H11 H 0.7863 0.5086 0.5051
C11 C 0.8365(2) 0.66793(17) 0.4987(3)
C12 C 0.7942(2) 0.76778(17) 0.4435(3)
H12 H 0.8482 0.8286 0.4665
H13 H 0.408(2) 0.4668(17) 0.220(2)
H14 H 0.474(2) 0.7700(19) 0.208(3)
loop_
_geom_bond_atom_site_label_1
_geom_bond_atom_site_label_2
_geom_bond_site_symmetry_1
_geom_bond_site_symmetry_2
Br1 C11 1_555 1_555
O1 C7 1_555 1_555
N1 C6 1_555 1_555
N2 C6 1_555 1_555
N3 C9 1_555 1_555
C1 H1 1_555 1_555
H2 C1 1_555 1_555
C2 C1 1_555 1_555
H3 C2 1_555 1_555
H4 C2 1_555 1_555
C3 C2 1_555 1_555
H5 C3 1_555 1_555
H6 C3 1_555 1_555
C4 C3 1_555 1_555
H7 C4 1_555 1_555
H8 C4 1_555 1_555
C5 C4 1_555 1_555
H9 C5 1_555 1_555
H10 C5 1_555 1_555
C6 C1 1_555 1_555
C7 N1 1_555 1_555
C8 C7 1_555 1_555
C9 N2 1_555 1_555
C10 C8 1_555 1_555
H11 C10 1_555 1_555
C11 C10 1_555 1_555
C12 N3 1_555 1_555
H12 C12 1_555 1_555
H13 N1 1_555 1_555
H14 N2 1_555 1_555
C5 C6 1_555 1_555
C8 C9 1_555 1_555
C11 C12 1_555 1_555

#END
