
#######################################################################
#
#                 Cambridge Crystallographic Data Centre
#                                CCDC 
#
#######################################################################
#
# If this CIF has been generated from an entry in the Cambridge 
# Structural Database, then it will include bibliographic, chemical, 
# crystal, experimental, refinement or atomic coordinate data resulting 
# from the CCDC's data processing and validation procedures.
#
#######################################################################

data_SAJBOW
_chemical_formula_moiety         'C34 H30'
_chemical_name_systematic        
1,1,1',1'-Tetramethyl-3,3'-diphenyl-1H,1'H-2,2'-biindene
_symmetry_cell_setting           monoclinic
_symmetry_space_group_name_H-M   'P 21/c'
_symmetry_Int_Tables_number      14
_space_group_name_Hall           '-P 2ybc'
loop_
_symmetry_equiv_pos_site_id
_symmetry_equiv_pos_as_xyz
1 x,y,z
2 -x,1/2+y,1/2-z
3 -x,-y,-z
4 x,1/2-y,1/2+z
_cell_length_a                   17.117(7)
_cell_length_b                   11.192(5)
_cell_length_c                   27.309(12)
_cell_angle_alpha                90
_cell_angle_beta                 107.805(7)
_cell_angle_gamma                90
_cell_volume                     4981.1
_exptl_crystal_colour            colorless
_exptl_crystal_description       prismatic
_cell_formula_units_Z            8
loop_
_atom_site_label
_atom_site_type_symbol
_atom_site_fract_x
_atom_site_fract_y
_atom_site_fract_z
C1 C 0.6008(3) 0.8048(5) 0.07517(18)
C2 C 0.6673(3) 0.8717(5) 0.07625(19)
C3 C 0.6923(3) 0.8494(5) 0.02971(19)
C4 C 0.7555(3) 0.8966(6) 0.0128(2)
H1 H 0.7925 0.9510 0.0330
C5 C 0.7619(4) 0.8612(6) -0.0341(2)
H2 H 0.8029 0.8933 -0.0460
C6 C 0.7084(4) 0.7791(6) -0.0636(2)
H3 H 0.7130 0.7575 -0.0955
C7 C 0.6475(3) 0.7276(6) -0.0465(2)
H4 H 0.6132 0.6691 -0.0659
C8 C 0.6388(3) 0.7653(5) 0.00011(19)
C9 C 0.5774(3) 0.7251(5) 0.02655(19)
C10 C 0.5925(4) 0.5904(5) 0.0389(2)
H5 H 0.5848 0.5468 0.0075
H6 H 0.5544 0.5621 0.0557
H7 H 0.6475 0.5790 0.0610
C11 C 0.4885(3) 0.7429(6) -0.0078(2)
H8 H 0.4808 0.8244 -0.0192
H9 H 0.4516 0.7246 0.0115
H10 H 0.4776 0.6908 -0.0370
C12 C 0.7143(3) 0.9570(5) 0.1164(2)
C13 C 0.7387(3) 0.9248(5) 0.1681(2)
H11 H 0.7262 0.8489 0.1775
C14 C 0.7819(4) 1.0053(6) 0.2064(2)
H12 H 0.7976 0.9832 0.2409
C15 C 0.8008(4) 1.1188(7) 0.1920(3)
H13 H 0.8290 1.1730 0.2170
C16 C 0.7778(4) 1.1502(6) 0.1411(3)
H14 H 0.7913 1.2255 0.1318
C17 C 0.7346(3) 1.0716(5) 0.1032(2)
H15 H 0.7190 1.0949 0.0688
C18 C 0.5509(3) 0.8112(4) 0.11253(18)
C19 C 0.5357(3) 0.7223(5) 0.14224(18)
C20 C 0.4762(3) 0.7633(5) 0.16773(18)
C21 C 0.4431(3) 0.7068(5) 0.20225(19)
H16 H 0.4586 0.6293 0.2133
C22 C 0.3867(4) 0.7681(6) 0.2198(2)
H17 H 0.3637 0.7307 0.2425
C23 C 0.3641(4) 0.8834(7) 0.2043(2)
H18 H 0.3259 0.9225 0.2166
C24 C 0.3973(3) 0.9422(6) 0.1706(2)
H19 H 0.3824 1.0204 0.1604
C25 C 0.4539(3) 0.8806(5) 0.15244(18)
C26 C 0.4988(3) 0.9228(5) 0.1153(2)
C27 C 0.4373(4) 0.9556(6) 0.0631(2)
H20 H 0.4048 0.8868 0.0488
H21 H 0.4665 0.9820 0.0402
H22 H 0.4021 1.0186 0.0677
C28 C 0.5486(4) 1.0354(5) 0.1378(3)
H23 H 0.5122 1.0966 0.1425
H24 H 0.5769 1.0634 0.1146
H25 H 0.5878 1.0164 0.1704
C29 C 0.5700(3) 0.5994(5) 0.15024(18)
C30 C 0.6532(3) 0.5767(5) 0.16231(19)
H26 H 0.6899 0.6400 0.1669
C31 C 0.6825(4) 0.4593(6) 0.1676(2)
H27 H 0.7385 0.4450 0.1755
C32 C 0.6290(4) 0.3652(5) 0.1611(2)
H28 H 0.6486 0.2872 0.1638
C33 C 0.5463(4) 0.3863(5) 0.1507(2)
H29 H 0.5104 0.3224 0.1475
C34 C 0.5163(3) 0.5020(5) 0.14492(19)
H30 H 0.4603 0.5153 0.1375
C35 C 0.0583(3) 0.3131(4) 0.11163(18)
C36 C 0.1010(3) 0.2266(5) 0.14391(17)
C37 C 0.1854(3) 0.2694(5) 0.16925(17)
C38 C 0.2515(3) 0.2151(5) 0.2064(2)
H31 H 0.2458 0.1407 0.2200
C39 C 0.3253(4) 0.2756(6) 0.2220(2)
H32 H 0.3701 0.2398 0.2457
C40 C 0.3344(3) 0.3878(6) 0.2034(2)
H33 H 0.3849 0.4263 0.2147
C41 C 0.2689(3) 0.4431(6) 0.1681(2)
H34 H 0.2747 0.5191 0.1559
C42 C 0.1944(3) 0.3835(5) 0.15125(18)
C43 C 0.1144(3) 0.4247(5) 0.11401(19)
C44 C 0.1255(3) 0.4548(5) 0.0613(2)
H35 H 0.1653 0.5174 0.0654
H36 H 0.0740 0.4806 0.0380
H37 H 0.1441 0.3850 0.0477
C45 C 0.0844(4) 0.5370(5) 0.1347(3)
H38 H 0.0692 0.5169 0.1647
H39 H 0.0377 0.5691 0.1089
H40 H 0.1275 0.5954 0.1436
C46 C 0.0750(3) 0.1044(5) 0.15295(17)
C47 C 0.1264(3) 0.0077(5) 0.1519(2)
H41 H 0.1765 0.0217 0.1463
C48 C 0.1039(4) -0.1087(6) 0.1591(2)
H42 H 0.1390 -0.1722 0.1591
C49 C 0.0283(4) -0.1284(6) 0.1663(2)
H43 H 0.0120 -0.2062 0.1702
C50 C -0.0227(4) -0.0361(6) 0.1679(2)
H44 H -0.0729 -0.0511 0.1733
C51 C 0.0004(3) 0.0809(5) 0.16133(19)
H45 H -0.0345 0.1438 0.1626
C52 C -0.0272(3) 0.3056(4) 0.07391(17)
C53 C -0.0931(3) 0.3706(5) 0.07441(18)
C54 C -0.1630(3) 0.3431(5) 0.02722(19)
C55 C -0.2427(3) 0.3855(6) 0.0106(2)
H46 H -0.2615 0.4388 0.0306
C56 C -0.2935(3) 0.3467(6) -0.0363(2)
H47 H -0.3469 0.3758 -0.0485
C57 C -0.2662(3) 0.2656(6) -0.0652(2)
H48 H -0.3013 0.2415 -0.0969
C58 C -0.1879(3) 0.2192(6) -0.0482(2)
H49 H -0.1705 0.1624 -0.0675
C59 C -0.1352(3) 0.2600(5) -0.00111(18)
C60 C -0.0481(3) 0.2222(5) 0.02591(18)
C61 C -0.0488(4) 0.0894(5) 0.0388(2)
H50 H -0.0815 0.0771 0.0613
H51 H 0.0063 0.0629 0.0554
H52 H -0.0716 0.0446 0.0077
C62 C 0.0069(3) 0.2426(6) -0.0082(2)
H53 H -0.0125 0.1949 -0.0388
H54 H 0.0622 0.2200 0.0102
H55 H 0.0055 0.3254 -0.0175
C63 C -0.1031(3) 0.4601(5) 0.11307(18)
C64 C -0.1366(3) 0.5728(5) 0.0970(2)
H56 H -0.1532 0.5913 0.0621
C65 C -0.1453(4) 0.6563(6) 0.1317(3)
H57 H -0.1657 0.7317 0.1203
C66 C -0.1242(4) 0.6296(7) 0.1829(3)
H58 H -0.1312 0.6855 0.2064
C67 C -0.0921(4) 0.5173(7) 0.1991(2)
H59 H -0.0772 0.4979 0.2338
C68 C -0.0823(3) 0.4347(6) 0.1643(2)
H60 H -0.0609 0.3598 0.1759
loop_
_geom_bond_atom_site_label_1
_geom_bond_atom_site_label_2
_geom_bond_site_symmetry_1
_geom_bond_site_symmetry_2
C1 C2 1_555 1_555
C2 C3 1_555 1_555
C3 C4 1_555 1_555
C4 H1 1_555 1_555
C5 C4 1_555 1_555
H2 C5 1_555 1_555
C6 C5 1_555 1_555
H3 C6 1_555 1_555
C7 C6 1_555 1_555
H4 C7 1_555 1_555
C8 C3 1_555 1_555
C9 C1 1_555 1_555
C10 C9 1_555 1_555
H5 C10 1_555 1_555
H6 C10 1_555 1_555
H7 C10 1_555 1_555
C11 C9 1_555 1_555
H8 C11 1_555 1_555
H9 C11 1_555 1_555
H10 C11 1_555 1_555
C12 C2 1_555 1_555
C13 C12 1_555 1_555
H11 C13 1_555 1_555
C14 C13 1_555 1_555
H12 C14 1_555 1_555
C15 C14 1_555 1_555
H13 C15 1_555 1_555
C16 C15 1_555 1_555
H14 C16 1_555 1_555
C17 C12 1_555 1_555
H15 C17 1_555 1_555
C18 C1 1_555 1_555
C19 C18 1_555 1_555
C20 C19 1_555 1_555
C21 C20 1_555 1_555
H16 C21 1_555 1_555
C22 C21 1_555 1_555
H17 C22 1_555 1_555
C23 C22 1_555 1_555
H18 C23 1_555 1_555
C24 C23 1_555 1_555
H19 C24 1_555 1_555
C25 C20 1_555 1_555
C26 C18 1_555 1_555
C27 C26 1_555 1_555
H20 C27 1_555 1_555
H21 C27 1_555 1_555
H22 C27 1_555 1_555
C28 C26 1_555 1_555
H23 C28 1_555 1_555
H24 C28 1_555 1_555
H25 C28 1_555 1_555
C29 C19 1_555 1_555
C30 C29 1_555 1_555
H26 C30 1_555 1_555
C31 C30 1_555 1_555
H27 C31 1_555 1_555
C32 C31 1_555 1_555
H28 C32 1_555 1_555
C33 C32 1_555 1_555
H29 C33 1_555 1_555
C34 C29 1_555 1_555
H30 C34 1_555 1_555
C35 C36 1_555 1_555
C36 C37 1_555 1_555
C37 C38 1_555 1_555
C38 H31 1_555 1_555
C39 C38 1_555 1_555
H32 C39 1_555 1_555
C40 C39 1_555 1_555
H33 C40 1_555 1_555
C41 C40 1_555 1_555
H34 C41 1_555 1_555
C42 C37 1_555 1_555
C43 C35 1_555 1_555
C44 C43 1_555 1_555
H35 C44 1_555 1_555
H36 C44 1_555 1_555
H37 C44 1_555 1_555
C45 C43 1_555 1_555
H38 C45 1_555 1_555
H39 C45 1_555 1_555
H40 C45 1_555 1_555
C46 C36 1_555 1_555
C47 C46 1_555 1_555
H41 C47 1_555 1_555
C48 C47 1_555 1_555
H42 C48 1_555 1_555
C49 C48 1_555 1_555
H43 C49 1_555 1_555
C50 C49 1_555 1_555
H44 C50 1_555 1_555
C51 C46 1_555 1_555
H45 C51 1_555 1_555
C52 C35 1_555 1_555
C53 C52 1_555 1_555
C54 C53 1_555 1_555
C55 C54 1_555 1_555
H46 C55 1_555 1_555
C56 C55 1_555 1_555
H47 C56 1_555 1_555
C57 C56 1_555 1_555
H48 C57 1_555 1_555
C58 C57 1_555 1_555
H49 C58 1_555 1_555
C59 C54 1_555 1_555
C60 C52 1_555 1_555
C61 C60 1_555 1_555
H50 C61 1_555 1_555
H51 C61 1_555 1_555
H52 C61 1_555 1_555
C62 C60 1_555 1_555
H53 C62 1_555 1_555
H54 C62 1_555 1_555
H55 C62 1_555 1_555
C63 C53 1_555 1_555
C64 C63 1_555 1_555
H56 C64 1_555 1_555
C65 C64 1_555 1_555
H57 C65 1_555 1_555
C66 C65 1_555 1_555
H58 C66 1_555 1_555
C67 C66 1_555 1_555
H59 C67 1_555 1_555
C68 C63 1_555 1_555
H60 C68 1_555 1_555
C7 C8 1_555 1_555
C8 C9 1_555 1_555
C16 C17 1_555 1_555
C24 C25 1_555 1_555
C25 C26 1_555 1_555
C33 C34 1_555 1_555
C41 C42 1_555 1_555
C42 C43 1_555 1_555
C50 C51 1_555 1_555
C58 C59 1_555 1_555
C59 C60 1_555 1_555
C67 C68 1_555 1_555

#END
