
#######################################################################
#
#                 Cambridge Crystallographic Data Centre
#                                CCDC 
#
#######################################################################
#
# If this CIF has been generated from an entry in the Cambridge 
# Structural Database, then it will include bibliographic, chemical, 
# crystal, experimental, refinement or atomic coordinate data resulting 
# from the CCDC's data processing and validation procedures.
#
#######################################################################

data_SAJMAT
_chemical_formula_moiety         'C24 H19 F6 N3 O3'
_chemical_name_systematic        
4-(3-(2-Nitrophenyl)hexahydro[1,3]oxazolo[3,4-a]pyridin-1-yl)-2,8-bis(trifluoromethyl)quinoline
_symmetry_cell_setting           triclinic
_symmetry_space_group_name_H-M   'P -1'
_symmetry_Int_Tables_number      2
_space_group_name_Hall           '-P 1'
loop_
_symmetry_equiv_pos_site_id
_symmetry_equiv_pos_as_xyz
1 x,y,z
2 -x,-y,-z
_cell_length_a                   8.0961(2)
_cell_length_b                   9.4713(2)
_cell_length_c                   15.1524(5)
_cell_angle_alpha                99.665(2)
_cell_angle_beta                 105.015(1)
_cell_angle_gamma                92.270(2)
_cell_volume                     1102.08
_exptl_crystal_colour            colorless
_exptl_crystal_description       plate
_cell_formula_units_Z            2
loop_
_atom_site_label
_atom_site_type_symbol
_atom_site_fract_x
_atom_site_fract_y
_atom_site_fract_z
F1 F 0.4792(2) 0.69819(16) 0.30925(12)
F2 F 0.74834(19) 0.74911(15) 0.37481(11)
F3 F 0.5702(2) 0.75412(15) 0.45785(11)
F4 F 1.00323(19) 0.55513(16) 0.62868(11)
F5 F 0.77164(19) 0.52474(15) 0.66964(10)
F6 F 0.9875(2) 0.40989(18) 0.72100(11)
O1 O 0.5155(2) 0.21773(17) 0.14530(11)
O2 O 0.4933(3) 0.1365(2) -0.06134(13)
O3 O 0.3076(3) 0.1692(2) -0.18596(13)
N1 N 0.7108(2) 0.5021(2) 0.46943(14)
N2 N 0.2424(3) 0.1925(2) 0.15519(13)
N3 N 0.3790(3) 0.2010(2) -0.10253(15)
C1 C 0.6294(3) 0.5250(2) 0.38766(17)
C2 C 0.5697(3) 0.4199(2) 0.30670(16)
H1 H 0.5146 0.4461 0.2491
C3 C 0.5927(3) 0.2792(2) 0.31260(16)
C4 C 0.6811(3) 0.2470(2) 0.40018(16)
C5 C 0.7138(3) 0.1048(2) 0.41487(17)
H2 H 0.6740 0.0258 0.3648
C6 C 0.8016(3) 0.0813(3) 0.49981(18)
H3 H 0.8219 -0.0142 0.5085
C7 C 0.8629(3) 0.1964(3) 0.57512(17)
H4 H 0.9250 0.1780 0.6339
C8 C 0.8338(3) 0.3341(3) 0.56419(16)
C9 C 0.7401(3) 0.3633(2) 0.47634(16)
C10 C 0.5231(3) 0.1611(2) 0.22868(16)
H5 H 0.5999 0.0810 0.2319
C11 C 0.3366(3) 0.1009(2) 0.21613(16)
H6 H 0.3200 -0.0002 0.1810
C12 C 0.0626(3) 0.1362(3) 0.11517(17)
H7 H 0.0558 0.0365 0.0810
H8 H 0.0034 0.1959 0.0710
C13 C -0.0234(3) 0.1390(3) 0.19374(18)
H9 H -0.1435 0.0964 0.1680
H10 H -0.0254 0.2398 0.2240
C14 C 0.0730(3) 0.0549(3) 0.26569(18)
H11 H 0.0585 -0.0487 0.2378
H12 H 0.0228 0.0671 0.3193
C15 C 0.2655(3) 0.1051(3) 0.30019(16)
H13 H 0.2825 0.2041 0.3366
H14 H 0.3265 0.0411 0.3408
C16 C 0.6054(3) 0.6814(3) 0.38286(18)
C17 C 0.8984(3) 0.4556(3) 0.64447(17)
C18 C 0.3418(3) 0.1980(3) 0.08879(16)
H15 H 0.3213 0.1057 0.0429
C19 C 0.3056(3) 0.3247(2) 0.03917(16)
C20 C 0.3234(3) 0.3265(3) -0.04956(17)
C21 C 0.2929(3) 0.4441(3) -0.09324(18)
H16 H 0.3036 0.4399 -0.1546
C22 C 0.2468(3) 0.5673(3) -0.04605(19)
H17 H 0.2305 0.6505 -0.0736
C23 C 0.2245(3) 0.5689(3) 0.04156(19)
H18 H 0.1902 0.6529 0.0735
C24 C 0.2516(3) 0.4489(3) 0.08329(17)
H19 H 0.2331 0.4514 0.1429
loop_
_geom_bond_atom_site_label_1
_geom_bond_atom_site_label_2
_geom_bond_site_symmetry_1
_geom_bond_site_symmetry_2
F1 C16 1_555 1_555
F2 C16 1_555 1_555
F3 C16 1_555 1_555
F4 C17 1_555 1_555
F5 C17 1_555 1_555
F6 C17 1_555 1_555
O1 C10 1_555 1_555
O2 N3 1_555 1_555
O3 N3 1_555 1_555
N1 C1 1_555 1_555
N2 C11 1_555 1_555
N3 C20 1_555 1_555
C1 C2 1_555 1_555
C2 H1 1_555 1_555
C3 C2 1_555 1_555
C4 C3 1_555 1_555
C5 C4 1_555 1_555
H2 C5 1_555 1_555
C6 C5 1_555 1_555
H3 C6 1_555 1_555
C7 C6 1_555 1_555
H4 C7 1_555 1_555
C8 C7 1_555 1_555
C9 N1 1_555 1_555
C10 C3 1_555 1_555
H5 C10 1_555 1_555
C11 C10 1_555 1_555
H6 C11 1_555 1_555
C12 N2 1_555 1_555
H7 C12 1_555 1_555
H8 C12 1_555 1_555
C13 C12 1_555 1_555
H9 C13 1_555 1_555
H10 C13 1_555 1_555
C14 C13 1_555 1_555
H11 C14 1_555 1_555
H12 C14 1_555 1_555
C15 C11 1_555 1_555
H13 C15 1_555 1_555
H14 C15 1_555 1_555
C16 C1 1_555 1_555
C17 C8 1_555 1_555
C18 O1 1_555 1_555
H15 C18 1_555 1_555
C19 C18 1_555 1_555
C20 C19 1_555 1_555
C21 C20 1_555 1_555
H16 C21 1_555 1_555
C22 C21 1_555 1_555
H17 C22 1_555 1_555
C23 C22 1_555 1_555
H18 C23 1_555 1_555
C24 C19 1_555 1_555
H19 C24 1_555 1_555
N2 C18 1_555 1_555
C4 C9 1_555 1_555
C8 C9 1_555 1_555
C14 C15 1_555 1_555
C23 C24 1_555 1_555

#END
