
#######################################################################
#
#                 Cambridge Crystallographic Data Centre
#                                CCDC 
#
#######################################################################
#
# If this CIF has been generated from an entry in the Cambridge 
# Structural Database, then it will include bibliographic, chemical, 
# crystal, experimental, refinement or atomic coordinate data resulting 
# from the CCDC's data processing and validation procedures.
#
#######################################################################

data_SAKLEX
_chemical_name_common            
'(S)-Benzyl 2-(3-chlorophenyl)-1-(diethoxyphosphoryl)ethylcarbamate'
_chemical_formula_moiety         'C20 H25 Cl1 N1 O5 P1'
_chemical_name_systematic        
'Diethyl (1-(((benzyloxy)carbonyl)amino)-2-(3-chlorophenyl)ethyl)phosphonate'
_symmetry_cell_setting           monoclinic
_symmetry_space_group_name_H-M   'P 21'
_symmetry_Int_Tables_number      4
_space_group_name_Hall           'P 2yb'
loop_
_symmetry_equiv_pos_site_id
_symmetry_equiv_pos_as_xyz
1 x,y,z
2 -x,1/2+y,-z
_cell_length_a                   10.2123(18)
_cell_length_b                   10.0716(18)
_cell_length_c                   10.3065(18)
_cell_angle_alpha                90
_cell_angle_beta                 92.516(3)
_cell_angle_gamma                90
_cell_volume                     1059.04
_exptl_crystal_colour            colorless
_exptl_crystal_description       plate
_cell_formula_units_Z            2
loop_
_atom_site_label
_atom_site_type_symbol
_atom_site_fract_x
_atom_site_fract_y
_atom_site_fract_z
P1 P 0.13367(5) 0.47418(5) 0.48847(5)
Cl1 Cl -0.46089(6) 0.78398(8) 0.14674(8)
N1 N 0.02260(16) 0.64760(16) 0.31711(15)
H1 H -0.0172 0.7137 0.3551
O1 O 0.14745(15) 0.59335(14) 0.14588(13)
O2 O 0.10568(15) 0.80691(14) 0.19985(14)
O3 O 0.26297(14) 0.49539(16) 0.41490(13)
O4 O 0.13545(15) 0.59047(15) 0.59081(13)
O5 O 0.11749(16) 0.34125(15) 0.54432(15)
C1 C -0.2942(2) 0.6266(2) 0.2859(2)
H2 H -0.2601 0.7066 0.3228
C2 C -0.3968(2) 0.6301(2) 0.1931(2)
C3 C -0.4499(2) 0.5158(3) 0.1385(2)
H3 H -0.5211 0.5202 0.0762
C4 C -0.3970(2) 0.3950(3) 0.1765(3)
H4 H -0.4316 0.3153 0.1396
C5 C -0.2939(2) 0.3894(2) 0.2682(2)
H5 H -0.2581 0.3057 0.2933
C6 C -0.24208(19) 0.5050(2) 0.32404(18)
C7 C -0.12891(19) 0.4978(2) 0.42430(19)
H6 H -0.1319 0.4111 0.4693
H7 H -0.1401 0.5681 0.4900
C8 C 0.00622(19) 0.51402(19) 0.36615(18)
H8 H 0.0126 0.4503 0.2923
C9 C 0.09679(19) 0.67389(19) 0.21521(18)
C10 C 0.1836(2) 0.8504(2) 0.0935(2)
H9 H 0.1372 0.8319 0.0092
H10 H 0.2690 0.8037 0.0959
C11 C 0.20375(19) 0.9968(2) 0.11104(19)
C12 C 0.1459(2) 1.0857(2) 0.0234(2)
H11 H 0.0959 1.0536 -0.0499
C13 C 0.1606(3) 1.2215(2) 0.0422(3)
H12 H 0.1208 1.2815 -0.0187
C14 C 0.2318(3) 1.2697(2) 0.1476(3)
H13 H 0.2411 1.3628 0.1600
C15 C 0.2899(3) 1.1824(3) 0.2359(3)
H14 H 0.3388 1.2153 0.3096
C16 C 0.2769(2) 1.0459(2) 0.2169(2)
H15 H 0.3184 0.9861 0.2770
C17 C 0.3900(4) 0.5205(5) 0.4726(4)
H16 H 0.4577 0.4704 0.4272
H17 H 0.3939 0.4946 0.5654
C18 C 0.4115(6) 0.6780(7) 0.4573(6)
H18 H 0.4981 0.7024 0.4947
H19 H 0.3436 0.7257 0.5028
H20 H 0.4060 0.7017 0.3650
C19 C 0.0779(2) 0.5763(2) 0.7173(2)
H21 H 0.0078 0.5084 0.7118
H22 H 0.0382 0.6616 0.7425
C20 C 0.1805(3) 0.5360(3) 0.8182(2)
H23 H 0.2120 0.4466 0.7989
H24 H 0.1426 0.5365 0.9040
H25 H 0.2539 0.5987 0.8178
C21? C 0.3405(7) 0.6079(9) 0.4213(7)
C22? C 0.4523(6) 0.6049(9) 0.5124(7)
H26? H 0.2845 0.6841 0.4439
H27? H 0.3727 0.6250 0.3337
H28? H 0.5012 0.6882 0.5067
H29? H 0.5093 0.5303 0.4915
H30? H 0.4220 0.5940 0.6007
loop_
_geom_bond_atom_site_label_1
_geom_bond_atom_site_label_2
_geom_bond_site_symmetry_1
_geom_bond_site_symmetry_2
P1 O3 1_555 1_555
Cl1 C2 1_555 1_555
N1 H1 1_555 1_555
O1 C9 1_555 1_555
O2 C9 1_555 1_555
O3 C17 1_555 1_555
O4 P1 1_555 1_555
O5 P1 1_555 1_555
C1 H2 1_555 1_555
C2 C1 1_555 1_555
C3 C2 1_555 1_555
H3 C3 1_555 1_555
C4 C3 1_555 1_555
H4 C4 1_555 1_555
C5 C4 1_555 1_555
H5 C5 1_555 1_555
C6 C1 1_555 1_555
C7 C6 1_555 1_555
H6 C7 1_555 1_555
H7 C7 1_555 1_555
C8 P1 1_555 1_555
H8 C8 1_555 1_555
C9 N1 1_555 1_555
C10 O2 1_555 1_555
H9 C10 1_555 1_555
H10 C10 1_555 1_555
C11 C10 1_555 1_555
C12 C11 1_555 1_555
H11 C12 1_555 1_555
C13 C12 1_555 1_555
H12 C13 1_555 1_555
C14 C13 1_555 1_555
H13 C14 1_555 1_555
C15 C14 1_555 1_555
H14 C15 1_555 1_555
C16 C11 1_555 1_555
H15 C16 1_555 1_555
C17 H16 1_555 1_555
H17 C17 1_555 1_555
C18 C17 1_555 1_555
H18 C18 1_555 1_555
H19 C18 1_555 1_555
H20 C18 1_555 1_555
C19 O4 1_555 1_555
H21 C19 1_555 1_555
H22 C19 1_555 1_555
C20 C19 1_555 1_555
H23 C20 1_555 1_555
H24 C20 1_555 1_555
H25 C20 1_555 1_555
N1 C8 1_555 1_555
C5 C6 1_555 1_555
C7 C8 1_555 1_555
C15 C16 1_555 1_555

#END
