
#######################################################################
#
#                 Cambridge Crystallographic Data Centre
#                                CCDC 
#
#######################################################################
#
# If this CIF has been generated from an entry in the Cambridge 
# Structural Database, then it will include bibliographic, chemical, 
# crystal, experimental, refinement or atomic coordinate data resulting 
# from the CCDC's data processing and validation procedures.
#
#######################################################################

data_SAKSEE
_chemical_formula_moiety         'C28 H20 N2 O2 S3'
_chemical_name_systematic        
4,4'-(1,1-Dioxido-1-benzothiene-2,3-diyl)bis(5-methyl-2-phenyl-1,3-thiazole)
_symmetry_cell_setting           monoclinic
_symmetry_space_group_name_H-M   'P 21/n'
_symmetry_Int_Tables_number      14
_space_group_name_Hall           '-P 2yn'
loop_
_symmetry_equiv_pos_site_id
_symmetry_equiv_pos_as_xyz
1 x,y,z
2 1/2-x,1/2+y,1/2-z
3 -x,-y,-z
4 1/2+x,1/2-y,1/2+z
_cell_length_a                   14.2273(13)
_cell_length_b                   13.0726(12)
_cell_length_c                   14.5059(13)
_cell_angle_alpha                90
_cell_angle_beta                 109.866(2)
_cell_angle_gamma                90
_cell_volume                     2537.37
_cell_formula_units_Z            4
loop_
_atom_site_label
_atom_site_type_symbol
_atom_site_fract_x
_atom_site_fract_y
_atom_site_fract_z
C1 C 0.71733(13) 0.58410(14) 0.12856(13)
C2 C 0.61694(15) 0.56209(17) 0.10352(16)
H1 H 0.5693 0.5962 0.0525
C3 C 0.58976(16) 0.48713(19) 0.15737(18)
H2 H 0.5226 0.4707 0.1425
C4 C 0.66093(16) 0.43668(17) 0.23267(17)
H3 H 0.6412 0.3858 0.2671
C5 C 0.76165(15) 0.46066(16) 0.25793(14)
H4 H 0.8091 0.4267 0.3092
C6 C 0.79017(14) 0.53554(14) 0.20587(13)
C7 C 0.89171(13) 0.57749(14) 0.22379(13)
C8 C 0.97666(13) 0.54327(14) 0.30919(13)
C9 C 1.03304(14) 0.60694(15) 0.38228(14)
C10 C 1.07588(14) 0.42477(15) 0.40083(14)
C11 C 1.12249(15) 0.32376(16) 0.43151(16)
C12 C 1.09603(19) 0.24235(18) 0.3673(2)
H5 H 1.0470 0.2505 0.3062
C13 C 1.1427(2) 0.1479(2) 0.3942(3)
H6 H 1.1258 0.0938 0.3500
C14 C 1.2126(2) 0.1341(2) 0.4843(3)
H7 H 1.2429 0.0706 0.5017
C15 C 1.2388(2) 0.2144(3) 0.5502(3)
H8 H 1.2864 0.2045 0.6119
C16 C 1.19446(18) 0.3100(2) 0.5246(2)
H9 H 1.2124 0.3641 0.5688
C17 C 0.89541(13) 0.65203(14) 0.16163(13)
C18 C 0.98059(14) 0.70896(15) 0.15240(14)
C19 C 1.06665(16) 0.66764(17) 0.14627(18)
C20 C 1.05593(15) 0.85482(16) 0.14256(15)
C21 C 1.07084(17) 0.96550(17) 0.13529(16)
C22 C 1.1613(2) 1.0066(2) 0.1354(2)
H10 H 1.2156 0.9637 0.1432
C23 C 1.1711(2) 1.1107(2) 0.1241(3)
H11 H 1.2315 1.1369 0.1233
C24 C 1.0933(3) 1.1751(2) 0.1143(2)
H12 H 1.1011 1.2451 0.1080
C25 C 1.0030(2) 1.1364(2) 0.1137(2)
H13 H 0.9496 1.1804 0.1067
C26 C 0.99149(19) 1.03242(18) 0.12363(18)
H14 H 0.9301 1.0069 0.1225
C27 C 1.02423(18) 0.71897(17) 0.39400(17)
H15 H 1.0791 0.7531 0.3827
H16 H 1.0255 0.7334 0.4593
H17 H 0.9624 0.7428 0.3476
C28 C 1.0939(2) 0.5581(2) 0.1427(3)
H18 H 1.0357 0.5163 0.1319
H19 H 1.1439 0.5394 0.2038
H20 H 1.1197 0.5481 0.0903
N1 N 1.00036(12) 0.44035(13) 0.31946(12)
N2 N 0.97459(12) 0.81465(13) 0.14928(13)
O1 O 0.76911(13) 0.64473(14) -0.02053(11)
O2 O 0.73734(12) 0.77601(12) 0.08592(13)
S1 S 0.77351(3) 0.67564(4) 0.07533(3)
S2 S 1.12040(4) 0.53386(4) 0.46881(4)
S3 S 1.14447(4) 0.76560(5) 0.13913(5)
loop_
_geom_bond_atom_site_label_1
_geom_bond_atom_site_label_2
_geom_bond_site_symmetry_1
_geom_bond_site_symmetry_2
C1 C2 1_555 1_555
C2 H1 1_555 1_555
C3 C2 1_555 1_555
H2 C3 1_555 1_555
C4 C3 1_555 1_555
H3 C4 1_555 1_555
C5 C4 1_555 1_555
H4 C5 1_555 1_555
C6 C1 1_555 1_555
C7 C6 1_555 1_555
C8 C7 1_555 1_555
C9 C8 1_555 1_555
C10 C11 1_555 1_555
C11 C12 1_555 1_555
C12 H5 1_555 1_555
C13 C12 1_555 1_555
H6 C13 1_555 1_555
C14 C13 1_555 1_555
H7 C14 1_555 1_555
C15 C14 1_555 1_555
H8 C15 1_555 1_555
C16 C11 1_555 1_555
H9 C16 1_555 1_555
C17 C7 1_555 1_555
C18 C17 1_555 1_555
C19 C18 1_555 1_555
C20 C21 1_555 1_555
C21 C22 1_555 1_555
C22 H10 1_555 1_555
C23 C22 1_555 1_555
H11 C23 1_555 1_555
C24 C23 1_555 1_555
H12 C24 1_555 1_555
C25 C24 1_555 1_555
H13 C25 1_555 1_555
C26 C21 1_555 1_555
H14 C26 1_555 1_555
C27 C9 1_555 1_555
H15 C27 1_555 1_555
H16 C27 1_555 1_555
H17 C27 1_555 1_555
C28 C19 1_555 1_555
H18 C28 1_555 1_555
H19 C28 1_555 1_555
H20 C28 1_555 1_555
N1 C8 1_555 1_555
N2 C18 1_555 1_555
O1 S1 1_555 1_555
O2 S1 1_555 1_555
S1 C1 1_555 1_555
S2 C9 1_555 1_555
S3 C19 1_555 1_555
C5 C6 1_555 1_555
C10 N1 1_555 1_555
C10 S2 1_555 1_555
C15 C16 1_555 1_555
C17 S1 1_555 1_555
C20 N2 1_555 1_555
C20 S3 1_555 1_555
C25 C26 1_555 1_555

#END
