
#######################################################################
#
#                 Cambridge Crystallographic Data Centre
#                                CCDC 
#
#######################################################################
#
# If this CIF has been generated from an entry in the Cambridge 
# Structural Database, then it will include bibliographic, chemical, 
# crystal, experimental, refinement or atomic coordinate data resulting 
# from the CCDC's data processing and validation procedures.
#
#######################################################################

data_SAKYAH
_chemical_formula_moiety         'C33 H37 N1 O5'
_chemical_name_systematic        
'dimethyl 9-benzyl-4-((2,6-dimethylbenzyl)oxy)-4a-methyl-2,3,4,4a,9,9a-hexahydro-1H-carbazole-1,1-dicarboxylate'
_symmetry_cell_setting           triclinic
_symmetry_space_group_name_H-M   'P -1'
_symmetry_Int_Tables_number      2
_space_group_name_Hall           '-P 1'
loop_
_symmetry_equiv_pos_site_id
_symmetry_equiv_pos_as_xyz
1 x,y,z
2 -x,-y,-z
_cell_length_a                   8.4814(10)
_cell_length_b                   8.5170(10)
_cell_length_c                   21.158(3)
_cell_angle_alpha                99.915(2)
_cell_angle_beta                 92.788(2)
_cell_angle_gamma                111.995(2)
_cell_volume                     1385.22
_exptl_crystal_colour            colorless
_exptl_crystal_description       prismatic
_cell_formula_units_Z            2
_exptl_crystal_recrystallization_method n-hexane/tetrahydrofuran
loop_
_atom_site_label
_atom_site_type_symbol
_atom_site_fract_x
_atom_site_fract_y
_atom_site_fract_z
N1 N 0.10273(16) 0.62944(15) 0.31468(6)
O1 O -0.05335(14) 0.78616(13) 0.13665(5)
O2 O 0.17818(16) 1.15615(14) 0.33260(6)
O3 O 0.42287(17) 1.21362(15) 0.28975(7)
O4 O 0.39272(18) 1.03065(17) 0.41867(6)
O5 O 0.51022(17) 0.8744(2) 0.35824(6)
C1 C -0.02198(19) 0.50122(18) 0.26785(7)
C2 C -0.0732(2) 0.3231(2) 0.25992(8)
H1 H -0.0220 0.2757 0.2869
C3 C -0.2021(2) 0.2181(2) 0.21092(8)
H2 H -0.2376 0.0986 0.2050
C4 C -0.2792(2) 0.2866(2) 0.17056(8)
H3 H -0.3675 0.2136 0.1385
C5 C -0.2249(2) 0.46383(19) 0.17790(7)
H4 H -0.2750 0.5107 0.1503
C6 C -0.09591(18) 0.57109(18) 0.22643(7)
C7 C -0.02604(18) 0.76603(17) 0.24739(7)
C8 C 0.10187(18) 0.79958(18) 0.30946(7)
H5 H 0.0583 0.8444 0.3475
C9 C 0.28624(18) 0.92963(18) 0.30575(7)
C10 C 0.3515(2) 0.8670(2) 0.24405(7)
H6 H 0.4629 0.9529 0.2406
H7 H 0.3658 0.7607 0.2472
C11 C 0.2307(2) 0.8348(3) 0.18309(8)
H8 H 0.2907 0.9132 0.1559
H9 H 0.2031 0.7178 0.1594
C12 C 0.06432(19) 0.85756(19) 0.19458(7)
H10 H 0.0886 0.9814 0.2071
C13 C -0.1719(2) 0.8230(2) 0.26487(8)
H11 H -0.2499 0.7989 0.2267
H12 H -0.1258 0.9449 0.2829
H13 H -0.2317 0.7610 0.2960
C14 C -0.0319(2) 0.9001(2) 0.09279(7)
H14 H 0.0886 0.9555 0.0881
H15 H -0.0731 0.9893 0.1092
C15 C -0.1313(2) 0.79707(19) 0.02853(7)
C16 C -0.0509(2) 0.7310(2) -0.01881(8)
C17 C -0.1424(3) 0.6441(2) -0.07910(9)
H16 H -0.0888 0.6022 -0.1112
C18 C -0.3108(3) 0.6195(3) -0.09177(10)
H17 H -0.3704 0.5629 -0.1326
C19 C -0.3916(3) 0.6781(3) -0.04431(10)
H18 H -0.5068 0.6580 -0.0530
C20 C -0.3047(2) 0.7667(2) 0.01625(9)
C21 C -0.4007(3) 0.8243(3) 0.06720(11)
H19 H -0.3666 0.9474 0.0739
H20 H -0.3751 0.7938 0.1069
H21 H -0.5216 0.7683 0.0533
C22 C 0.1307(3) 0.7477(3) -0.00577(10)
H22 H 0.2064 0.8673 0.0007
H23 H 0.1584 0.6822 -0.0420
H24 H 0.1435 0.7044 0.0323
C23 C 0.2845(2) 1.11022(19) 0.31075(7)
C24 C 0.4402(4) 1.3901(3) 0.29402(14)
H25 H 0.3437 1.3921 0.2690
H26 H 0.5437 1.4532 0.2775
H27 H 0.4447 1.4428 0.3384
C25 C 0.4022(2) 0.9522(2) 0.36736(8)
C26 C 0.6212(3) 0.8895(4) 0.41523(10)
H28 H 0.7093 1.0040 0.4261
H29 H 0.6727 0.8063 0.4067
H30 H 0.5552 0.8684 0.4507
C27 C 0.1232(2) 0.5924(2) 0.37918(7)
H31 H 0.2333 0.6748 0.4016
H32 H 0.1260 0.4781 0.3740
C28 C -0.0136(2) 0.5990(2) 0.42140(7)
C29 C 0.0113(2) 0.7454(2) 0.46697(8)
H33 H 0.1116 0.8430 0.4701
C30 C -0.1082(3) 0.7510(3) 0.50802(9)
H34 H -0.0884 0.8513 0.5384
C31 C -0.2566(3) 0.6081(3) 0.50391(10)
H35 H -0.3375 0.6107 0.5318
C32 C -0.2852(3) 0.4617(3) 0.45868(11)
H36 H -0.3862 0.3649 0.4555
C33 C -0.1647(2) 0.4571(2) 0.41772(9)
H37 H -0.1855 0.3568 0.3871
loop_
_geom_bond_atom_site_label_1
_geom_bond_atom_site_label_2
_geom_bond_site_symmetry_1
_geom_bond_site_symmetry_2
N1 C1 1_555 1_555
O1 C12 1_555 1_555
O2 C23 1_555 1_555
O3 C23 1_555 1_555
O4 C25 1_555 1_555
O5 C25 1_555 1_555
C1 C2 1_555 1_555
C2 H1 1_555 1_555
C3 C2 1_555 1_555
H2 C3 1_555 1_555
C4 C3 1_555 1_555
H3 C4 1_555 1_555
C5 C4 1_555 1_555
H4 C5 1_555 1_555
C6 C1 1_555 1_555
C7 C6 1_555 1_555
C8 N1 1_555 1_555
H5 C8 1_555 1_555
C9 C8 1_555 1_555
C10 C9 1_555 1_555
H6 C10 1_555 1_555
H7 C10 1_555 1_555
C11 C10 1_555 1_555
H8 C11 1_555 1_555
H9 C11 1_555 1_555
C12 C7 1_555 1_555
H10 C12 1_555 1_555
C13 C7 1_555 1_555
H11 C13 1_555 1_555
H12 C13 1_555 1_555
H13 C13 1_555 1_555
C14 O1 1_555 1_555
H14 C14 1_555 1_555
H15 C14 1_555 1_555
C15 C14 1_555 1_555
C16 C15 1_555 1_555
C17 C16 1_555 1_555
H16 C17 1_555 1_555
C18 C17 1_555 1_555
H17 C18 1_555 1_555
C19 C18 1_555 1_555
H18 C19 1_555 1_555
C20 C15 1_555 1_555
C21 C20 1_555 1_555
H19 C21 1_555 1_555
H20 C21 1_555 1_555
H21 C21 1_555 1_555
C22 C16 1_555 1_555
H22 C22 1_555 1_555
H23 C22 1_555 1_555
H24 C22 1_555 1_555
C23 C9 1_555 1_555
C24 O3 1_555 1_555
H25 C24 1_555 1_555
H26 C24 1_555 1_555
H27 C24 1_555 1_555
C25 C9 1_555 1_555
C26 O5 1_555 1_555
H28 C26 1_555 1_555
H29 C26 1_555 1_555
H30 C26 1_555 1_555
C27 N1 1_555 1_555
H31 C27 1_555 1_555
H32 C27 1_555 1_555
C28 C27 1_555 1_555
C29 C28 1_555 1_555
H33 C29 1_555 1_555
C30 C29 1_555 1_555
H34 C30 1_555 1_555
C31 C30 1_555 1_555
H35 C31 1_555 1_555
C32 C31 1_555 1_555
H36 C32 1_555 1_555
C33 C28 1_555 1_555
H37 C33 1_555 1_555
C5 C6 1_555 1_555
C7 C8 1_555 1_555
C11 C12 1_555 1_555
C19 C20 1_555 1_555
C32 C33 1_555 1_555

#END
