
#######################################################################
#
#                 Cambridge Crystallographic Data Centre
#                                CCDC 
#
#######################################################################
#
# If this CIF has been generated from an entry in the Cambridge 
# Structural Database, then it will include bibliographic, chemical, 
# crystal, experimental, refinement or atomic coordinate data resulting 
# from the CCDC's data processing and validation procedures.
#
#######################################################################

data_SALDIU
_chemical_formula_moiety         'C21 H19 N1 O2'
_chemical_name_systematic        
5-Benzyl-7-(4-methylphenyl)-3,5-dihydrofuro[3,2-c]pyridin-4(2H)-one
_symmetry_cell_setting           orthorhombic
_symmetry_space_group_name_H-M   'P n a 21'
_symmetry_Int_Tables_number      33
_space_group_name_Hall           'P 2c -2n'
loop_
_symmetry_equiv_pos_site_id
_symmetry_equiv_pos_as_xyz
1 x,y,z
2 -x,-y,1/2+z
3 1/2-x,1/2+y,1/2+z
4 1/2+x,1/2-y,z
_cell_length_a                   11.2914(17)
_cell_length_b                   8.1975(13)
_cell_length_c                   18.139(3)
_cell_angle_alpha                90
_cell_angle_beta                 90
_cell_angle_gamma                90
_cell_volume                     1678.97
_exptl_crystal_colour            colorless
_exptl_crystal_description       block
_chemical_melting_point          '195-197 deg.C'
_cell_formula_units_Z            4
loop_
_atom_site_label
_atom_site_type_symbol
_atom_site_fract_x
_atom_site_fract_y
_atom_site_fract_z
O1 O 0.1739(2) 0.1264(3) 0.47596(17)
O2 O 0.3325(2) -0.0409(4) 0.25187(18)
N1 N 0.3729(3) 0.1663(3) 0.45347(17)
C1 C 0.2617(3) 0.1133(4) 0.4327(2)
C2 C 0.2562(3) 0.0456(4) 0.3615(2)
C3 C 0.1500(4) -0.0245(6) 0.3211(3)
H1 H 0.0860 0.0541 0.3177
H2 H 0.1212 -0.1231 0.3445
C4 C 0.2035(4) -0.0600(7) 0.2458(3)
H3 H 0.1841 -0.1703 0.2306
H4 H 0.1722 0.0151 0.2094
C5 C 0.3532(4) 0.0299(5) 0.3184(2)
C6 C 0.4677(3) 0.0778(5) 0.3417(2)
C7 C 0.4699(3) 0.1475(5) 0.4099(2)
H5 H 0.5423 0.1845 0.4277
C8 C 0.3843(3) 0.2511(5) 0.5251(2)
H6 H 0.4674 0.2587 0.5381
H7 H 0.3448 0.1875 0.5629
C9 C 0.3315(3) 0.4206(5) 0.5232(2)
C10 C 0.3951(4) 0.5463(5) 0.4890(3)
H8 H 0.4709 0.5274 0.4710
C11 C 0.3440(5) 0.6988(6) 0.4823(3)
H9 H 0.3847 0.7813 0.4579
C12 C 0.2358(5) 0.7296(6) 0.5107(3)
H10 H 0.2039 0.8338 0.5068
C13 C 0.1715(4) 0.6079(6) 0.5455(3)
H11 H 0.0962 0.6285 0.5640
C14 C 0.2226(4) 0.4541(5) 0.5521(3)
H12 H 0.1816 0.3723 0.5768
C15 C 0.5771(4) 0.0562(5) 0.2981(2)
C16 C 0.5792(4) 0.0792(5) 0.2222(3)
H13 H 0.5097 0.1079 0.1978
C17 C 0.6828(4) 0.0603(5) 0.1820(3)
H14 H 0.6817 0.0788 0.1314
C18 C 0.7869(4) 0.0147(6) 0.2152(3)
C19 C 0.7854(4) -0.0059(7) 0.2899(3)
H15 H 0.8554 -0.0332 0.3139
C20 C 0.6814(4) 0.0131(6) 0.3317(3)
H16 H 0.6832 -0.0037 0.3824
C21 C 0.8965(4) -0.0125(7) 0.1705(3)
H17 H 0.9603 -0.0435 0.2025
H18 H 0.9169 0.0862 0.1451
H19 H 0.8825 -0.0978 0.1353
loop_
_geom_bond_atom_site_label_1
_geom_bond_atom_site_label_2
_geom_bond_site_symmetry_1
_geom_bond_site_symmetry_2
O1 C1 1_555 1_555
O2 C4 1_555 1_555
N1 C1 1_555 1_555
C1 C2 1_555 1_555
C2 C3 1_555 1_555
C3 H1 1_555 1_555
H2 C3 1_555 1_555
C4 C3 1_555 1_555
H3 C4 1_555 1_555
H4 C4 1_555 1_555
C5 O2 1_555 1_555
C6 C5 1_555 1_555
C7 N1 1_555 1_555
H5 C7 1_555 1_555
C8 N1 1_555 1_555
H6 C8 1_555 1_555
H7 C8 1_555 1_555
C9 C8 1_555 1_555
C10 C9 1_555 1_555
H8 C10 1_555 1_555
C11 C10 1_555 1_555
H9 C11 1_555 1_555
C12 C11 1_555 1_555
H10 C12 1_555 1_555
C13 C12 1_555 1_555
H11 C13 1_555 1_555
C14 C9 1_555 1_555
H12 C14 1_555 1_555
C15 C6 1_555 1_555
C16 C15 1_555 1_555
H13 C16 1_555 1_555
C17 C16 1_555 1_555
H14 C17 1_555 1_555
C18 C17 1_555 1_555
C19 C18 1_555 1_555
H15 C19 1_555 1_555
C20 C15 1_555 1_555
H16 C20 1_555 1_555
C21 C18 1_555 1_555
H17 C21 1_555 1_555
H18 C21 1_555 1_555
H19 C21 1_555 1_555
C2 C5 1_555 1_555
C6 C7 1_555 1_555
C13 C14 1_555 1_555
C19 C20 1_555 1_555

#END
