
#######################################################################
#
#                 Cambridge Crystallographic Data Centre
#                                CCDC 
#
#######################################################################
#
# If this CIF has been generated from an entry in the Cambridge 
# Structural Database, then it will include bibliographic, chemical, 
# crystal, experimental, refinement or atomic coordinate data resulting 
# from the CCDC's data processing and validation procedures.
#
#######################################################################

data_SALYEK
_chemical_formula_moiety         'C17 H18 Cl2 N1 O1 1+,C20 H17 O8 1-,C1 H4 O1'
_chemical_name_systematic        
'(1R,3S)-trans-3-(3,4-Dichlorophenyl)-6-methoxy-N-methyl-1-indanammonium di-p-toluoyl-D-(+)-tartrate methanol solvate'
_symmetry_cell_setting           orthorhombic
_symmetry_space_group_name_H-M   'P 21 21 21'
_symmetry_Int_Tables_number      19
_space_group_name_Hall           'P 2ac 2ab'
loop_
_symmetry_equiv_pos_site_id
_symmetry_equiv_pos_as_xyz
1 x,y,z
2 1/2-x,-y,1/2+z
3 -x,1/2+y,1/2-z
4 1/2+x,1/2-y,-z
_cell_length_a                   8.0458(19)
_cell_length_b                   14.451(3)
_cell_length_c                   31.537(5)
_cell_angle_alpha                90
_cell_angle_beta                 90
_cell_angle_gamma                90
_cell_volume                     3666.8
_exptl_crystal_colour            colorless
_exptl_crystal_description       plate
_cell_formula_units_Z            4
loop_
_atom_site_label
_atom_site_type_symbol
_atom_site_fract_x
_atom_site_fract_y
_atom_site_fract_z
O1 O 0.0080(3) 0.39432(16) 0.24499(10)
H1 H -0.0068 0.3375 0.2409
C1 C -0.1104(4) 0.4407(2) 0.22679(12)
O2 O -0.2173(3) 0.40807(17) 0.20426(10)
C2 C -0.0954(4) 0.5447(2) 0.23437(11)
H2 H 0.0034 0.5687 0.2186
O3 O -0.2423(3) 0.59005(16) 0.21879(7)
O4 O -0.2116(3) 0.52722(15) 0.30374(7)
C3 C -0.0789(4) 0.5708(2) 0.28068(11)
H3 H 0.0303 0.5483 0.2918
O5 O -0.1988(3) 0.71104(16) 0.30733(9)
O6 O 0.0238(3) 0.72023(15) 0.26511(9)
C4 C -0.0885(4) 0.6770(2) 0.28538(11)
C5 C -0.7005(6) 0.7364(3) 0.13769(13)
O7 O -0.1241(4) 0.6018(2) 0.15467(9)
C6 C -0.5283(4) 0.6750(2) 0.19371(11)
H4 H -0.5140 0.6594 0.2227
C7 C -0.4006(5) 0.6573(2) 0.16452(11)
C8 C -0.4248(5) 0.6791(3) 0.12222(12)
H5 H -0.3396 0.6671 0.1021
C9 C -0.2405(4) 0.6139(2) 0.17744(10)
C10 C -0.8601(6) 0.7789(3) 0.12330(16)
H6 H -0.8564 0.7887 0.0926
H7 H -0.8761 0.8384 0.1376
H8 H -0.9526 0.7375 0.1303
C11 C -0.5739(6) 0.7185(3) 0.10928(13)
H9 H -0.5891 0.7335 0.0802
C12 C -0.6742(5) 0.7148(3) 0.18018(12)
H10 H -0.7590 0.7278 0.2003
O8 O -0.0706(3) 0.5548(2) 0.36404(9)
C13 C -0.1961(4) 0.5300(2) 0.34657(11)
C14 C -0.3493(4) 0.4998(2) 0.36850(11)
C15 C -0.3732(5) 0.5232(3) 0.41038(13)
H11 H -0.2886 0.5559 0.4251
C16 C -0.6436(5) 0.4515(3) 0.41073(14)
C17 C -0.5181(5) 0.5000(3) 0.43138(14)
H12 H -0.5321 0.5173 0.4602
C18 C -0.8047(6) 0.4274(4) 0.43352(17)
H13 H -0.8003 0.4508 0.4627
H14 H -0.8189 0.3600 0.4340
H15 H -0.8985 0.4558 0.4186
C19 C -0.6167(6) 0.4260(4) 0.36875(15)
H16 H -0.6996 0.3916 0.3542
C20 C -0.4731(6) 0.4493(3) 0.34791(13)
H17 H -0.4578 0.4309 0.3192
C21 C 0.4142(4) 0.4038(3) 0.23489(11)
H18 H 0.4110 0.3602 0.2587
H19 H 0.3145 0.4427 0.2355
H20 H 0.5132 0.4429 0.2373
N1 N 0.4200(3) 0.35153(19) 0.19431(8)
H21 H 0.5121 0.3138 0.1946
H22 H 0.3278 0.3140 0.1928
C22 C 0.4260(4) 0.4095(2) 0.15553(10)
H23 H 0.5201 0.4545 0.1575
C23 C 0.0752(4) 0.4740(2) 0.08171(10)
C24 C 0.2602(5) 0.4622(3) 0.14732(12)
H24 H 0.1915 0.4629 0.1734
H25 H 0.2833 0.5269 0.1389
C25 C -0.0907(5) 0.4608(3) 0.07279(12)
H26 H -0.1481 0.4098 0.0850
C26 C 0.1685(4) 0.4113(2) 0.11159(10)
H27 H 0.0866 0.3680 0.1248
C27 C 0.3038(4) 0.3539(2) 0.09110(10)
Cl1 Cl -0.38322(14) 0.49892(11) 0.03517(5)
C28 C -0.1754(5) 0.5217(3) 0.04593(13)
C29 C 0.3005(5) 0.3066(3) 0.05284(11)
H28 H 0.2052 0.3090 0.0351
Cl2 Cl -0.2056(2) 0.67427(9) -0.00244(4)
C30 C -0.0961(5) 0.5957(3) 0.02920(12)
C31 C 0.4397(5) 0.2555(3) 0.04095(11)
H29 H 0.4390 0.2230 0.0148
C32 C 0.0681(6) 0.6093(3) 0.03648(14)
H30 H 0.1240 0.6604 0.0240
O9 O 0.7091(4) 0.2001(2) 0.05043(8)
C33 C 0.8453(5) 0.1821(3) 0.07697(14)
H31 H 0.9278 0.1453 0.0615
H32 H 0.8077 0.1476 0.1020
H33 H 0.8954 0.2407 0.0860
C34 C 0.5783(5) 0.2514(3) 0.06651(10)
C35 C 0.1532(5) 0.5486(3) 0.06208(13)
H34 H 0.2688 0.5578 0.0665
C36 C 0.4456(4) 0.3497(2) 0.11619(9)
C37 C 0.5838(4) 0.2973(2) 0.10480(10)
H35 H 0.6784 0.2934 0.1228
O10 O 0.3459(4) 0.7164(2) 0.29429(10)
H36 H 0.2465 0.7210 0.2865
C38 C 0.3749(6) 0.6308(3) 0.30766(16)
H37 H 0.3304 0.6233 0.3364
H38 H 0.4950 0.6194 0.3079
H39 H 0.3207 0.5867 0.2886
loop_
_geom_bond_atom_site_label_1
_geom_bond_atom_site_label_2
_geom_bond_site_symmetry_1
_geom_bond_site_symmetry_2
O1 H1 1_555 1_555
C1 O1 1_555 1_555
O2 C1 1_555 1_555
C2 C1 1_555 1_555
H2 C2 1_555 1_555
O3 C2 1_555 1_555
O4 C3 1_555 1_555
C3 C2 1_555 1_555
H3 C3 1_555 1_555
O5 C4 1_555 1_555
O6 C4 1_555 1_555
C4 C3 1_555 1_555
C5 C10 1_555 1_555
O7 C9 1_555 1_555
C6 H4 1_555 1_555
C7 C6 1_555 1_555
C8 C7 1_555 1_555
H5 C8 1_555 1_555
C9 O3 1_555 1_555
C10 H6 1_555 1_555
H7 C10 1_555 1_555
H8 C10 1_555 1_555
C11 C5 1_555 1_555
H9 C11 1_555 1_555
C12 C5 1_555 1_555
H10 C12 1_555 1_555
O8 C13 1_555 1_555
C13 O4 1_555 1_555
C14 C13 1_555 1_555
C15 C14 1_555 1_555
H11 C15 1_555 1_555
C16 C17 1_555 1_555
C17 C15 1_555 1_555
H12 C17 1_555 1_555
C18 C16 1_555 1_555
H13 C18 1_555 1_555
H14 C18 1_555 1_555
H15 C18 1_555 1_555
C19 C16 1_555 1_555
H16 C19 1_555 1_555
C20 C14 1_555 1_555
H17 C20 1_555 1_555
C21 H18 1_555 1_555
H19 C21 1_555 1_555
H20 C21 1_555 1_555
N1 C21 1_555 1_555
H21 N1 1_555 1_555
H22 N1 1_555 1_555
C22 N1 1_555 1_555
H23 C22 1_555 1_555
C23 C25 1_555 1_555
C24 C22 1_555 1_555
H24 C24 1_555 1_555
H25 C24 1_555 1_555
C25 H26 1_555 1_555
C26 C23 1_555 1_555
H27 C26 1_555 1_555
C27 C26 1_555 1_555
Cl1 C28 1_555 1_555
C28 C25 1_555 1_555
C29 C27 1_555 1_555
H28 C29 1_555 1_555
Cl2 C30 1_555 1_555
C30 C28 1_555 1_555
C31 C29 1_555 1_555
H29 C31 1_555 1_555
C32 C30 1_555 1_555
H30 C32 1_555 1_555
O9 C33 1_555 1_555
C33 H31 1_555 1_555
H32 C33 1_555 1_555
H33 C33 1_555 1_555
C34 C31 1_555 1_555
C35 C23 1_555 1_555
H34 C35 1_555 1_555
C36 C22 1_555 1_555
C37 C34 1_555 1_555
H35 C37 1_555 1_555
O10 H36 1_555 1_555
C38 O10 1_555 1_555
H37 C38 1_555 1_555
H38 C38 1_555 1_555
H39 C38 1_555 1_555
C6 C12 1_555 1_555
C7 C9 1_555 1_555
C8 C11 1_555 1_555
C19 C20 1_555 1_555
C24 C26 1_555 1_555
C27 C36 1_555 1_555
C32 C35 1_555 1_555
O9 C34 1_555 1_555
C36 C37 1_555 1_555

#END
