
#######################################################################
#
#                 Cambridge Crystallographic Data Centre
#                                CCDC 
#
#######################################################################
#
# If this CIF has been generated from an entry in the Cambridge 
# Structural Database, then it will include bibliographic, chemical, 
# crystal, experimental, refinement or atomic coordinate data resulting 
# from the CCDC's data processing and validation procedures.
#
#######################################################################

data_SAMKAU
_chemical_formula_moiety         'C36 H26 O4'
_chemical_name_systematic        
2,13-bis(4-methylphenyl)-23,24,25,26-tetraoxapentacyclo[18.2.1.1^3,6^.1^9,12^.1^14,17^]hexacosa-1,3,5,7,9,11,13,15,17,19,21-undecaene
_symmetry_cell_setting           orthorhombic
_symmetry_space_group_name_H-M   'P b c a'
_symmetry_Int_Tables_number      61
_space_group_name_Hall           '-P 2ac 2ab'
loop_
_symmetry_equiv_pos_site_id
_symmetry_equiv_pos_as_xyz
1 x,y,z
2 1/2-x,-y,1/2+z
3 1/2+x,1/2-y,-z
4 -x,1/2+y,1/2-z
5 -x,-y,-z
6 1/2+x,y,1/2-z
7 1/2-x,1/2+y,z
8 x,1/2-y,1/2+z
_cell_length_a                   34.541(2)
_cell_length_b                   9.5379(7)
_cell_length_c                   7.8246(6)
_cell_angle_alpha                90
_cell_angle_beta                 90
_cell_angle_gamma                90
_cell_volume                     2577.8
_exptl_crystal_colour            black
_exptl_crystal_description       plate
_cell_formula_units_Z            4
loop_
_atom_site_label
_atom_site_type_symbol
_atom_site_fract_x
_atom_site_fract_y
_atom_site_fract_z
O1 O 0.55805(5) 1.19579(16) 0.60512(19)
O2 O 0.56452(4) 0.93715(16) 0.56863(19)
C1 C 0.54105(7) 1.3250(3) 0.6311(3)
C2 C 0.56909(8) 1.4146(3) 0.6917(3)
H1 H 0.5655 1.5084 0.7203
C3 C 0.60330(8) 1.3413(3) 0.7026(3)
H2 H 0.6269 1.3773 0.7392
C4 C 0.59657(7) 1.2043(3) 0.6498(3)
C5 C 0.61897(7) 1.0840(3) 0.6348(3)
C6 C 0.60398(7) 0.9531(3) 0.5831(3)
C7 C 0.62073(7) 0.8280(3) 0.5285(3)
H3 H 0.6471 0.8082 0.5262
C8 C 0.59161(8) 0.7389(3) 0.4786(3)
H4 H 0.5949 0.6487 0.4359
C9 C 0.55670(7) 0.8053(2) 0.5024(3)
C10 C 0.51764(7) 0.7842(2) 0.4691(3)
H5 H 0.5017 0.8598 0.4958
C11 C 0.49879(7) 0.6704(3) 0.4034(3)
H6 H 0.5126 0.5887 0.3812
C12 C 0.66108(7) 1.0917(2) 0.6696(3)
C13 C 0.68432(7) 1.1960(3) 0.5995(3)
H7 H 0.6733 1.2637 0.5291
C14 C 0.72361(7) 1.2002(3) 0.6331(3)
H8 H 0.7384 1.2720 0.5861
C15 C 0.74151(7) 1.1012(3) 0.7345(3)
C16 C 0.78453(7) 1.1033(3) 0.7683(3)
H9 H 0.7960 1.1817 0.7103
H10 H 0.7959 1.0179 0.7271
H11 H 0.7890 1.1116 0.8890
C17 C 0.71837(7) 0.9986(3) 0.8052(3)
H12 H 0.7295 0.9307 0.8750
C18 C 0.67905(7) 0.9945(3) 0.7746(3)
H13 H 0.6642 0.9247 0.8257
O1D O 0.44195(5) 0.80421(16) 0.39488(19)
O2D O 0.43548(4) 1.06285(16) 0.43137(19)
C1D C 0.45895(7) 0.6750(3) 0.3689(3)
C2D C 0.43091(8) 0.5854(3) 0.3083(3)
H1D H 0.4345 0.4916 0.2797
C3D C 0.39670(8) 0.6587(3) 0.2974(3)
H2D H 0.3731 0.6227 0.2608
C4D C 0.40343(7) 0.7957(3) 0.3502(3)
C5D C 0.38103(7) 0.9160(3) 0.3652(3)
C6D C 0.39602(7) 1.0469(3) 0.4169(3)
C7D C 0.37927(7) 1.1720(3) 0.4715(3)
H3D H 0.3529 1.1918 0.4738
C8D C 0.40839(8) 1.2611(3) 0.5214(3)
H4D H 0.4051 1.3513 0.5641
C9D C 0.44330(7) 1.1947(2) 0.4976(3)
C10D C 0.48236(7) 1.2158(2) 0.5309(3)
H5D H 0.4983 1.1402 0.5042
C11D C 0.50121(7) 1.3296(3) 0.5966(3)
H6D H 0.4874 1.4113 0.6188
C12D C 0.33892(7) 0.9083(2) 0.3304(3)
C13D C 0.31568(7) 0.8040(3) 0.4005(3)
H7D H 0.3267 0.7363 0.4709
C14D C 0.27639(7) 0.7998(3) 0.3669(3)
H8D H 0.2616 0.7280 0.4139
C15D C 0.25849(7) 0.8988(3) 0.2655(3)
C16D C 0.21547(7) 0.8967(3) 0.2317(3)
H9D H 0.2040 0.8183 0.2897
H10D H 0.2041 0.9821 0.2729
H11D H 0.2110 0.8884 0.1110
C17D C 0.28163(7) 1.0014(3) 0.1948(3)
H12D H 0.2705 1.0693 0.1250
C18D C 0.32095(7) 1.0055(3) 0.2254(3)
H13D H 0.3358 1.0753 0.1743
loop_
_geom_bond_atom_site_label_1
_geom_bond_atom_site_label_2
_geom_bond_site_symmetry_1
_geom_bond_site_symmetry_2
O1 C1 1_555 1_555
O2 C6 1_555 1_555
C1 C2 1_555 1_555
C2 H1 1_555 1_555
C3 C2 1_555 1_555
H2 C3 1_555 1_555
C4 O1 1_555 1_555
C5 C4 1_555 1_555
C6 C5 1_555 1_555
C7 C6 1_555 1_555
H3 C7 1_555 1_555
C8 C7 1_555 1_555
H4 C8 1_555 1_555
C9 O2 1_555 1_555
C10 C9 1_555 1_555
H5 C10 1_555 1_555
C11 C10 1_555 1_555
H6 C11 1_555 1_555
C12 C5 1_555 1_555
C13 C12 1_555 1_555
H7 C13 1_555 1_555
C14 C13 1_555 1_555
H8 C14 1_555 1_555
C15 C14 1_555 1_555
C16 C15 1_555 1_555
H9 C16 1_555 1_555
H10 C16 1_555 1_555
H11 C16 1_555 1_555
C17 C15 1_555 1_555
H12 C17 1_555 1_555
C18 C12 1_555 1_555
H13 C18 1_555 1_555
O1D C1D 1_555 1_555
O2D C6D 1_555 1_555
C1D C11 1_555 1_555
C2D C1D 1_555 1_555
H1D C2D 1_555 1_555
C3D C2D 1_555 1_555
H2D C3D 1_555 1_555
C4D O1D 1_555 1_555
C5D C4D 1_555 1_555
C6D C5D 1_555 1_555
C7D C6D 1_555 1_555
H3D C7D 1_555 1_555
C8D C7D 1_555 1_555
H4D C8D 1_555 1_555
C9D O2D 1_555 1_555
C10D C9D 1_555 1_555
H5D C10D 1_555 1_555
C11D C1 1_555 1_555
H6D C11D 1_555 1_555
C12D C5D 1_555 1_555
C13D C12D 1_555 1_555
H7D C13D 1_555 1_555
C14D C13D 1_555 1_555
H8D C14D 1_555 1_555
C15D C14D 1_555 1_555
C16D C15D 1_555 1_555
H9D C16D 1_555 1_555
H10D C16D 1_555 1_555
H11D C16D 1_555 1_555
C17D C15D 1_555 1_555
H12D C17D 1_555 1_555
C18D C12D 1_555 1_555
H13D C18D 1_555 1_555
C3 C4 1_555 1_555
C8 C9 1_555 1_555
C17 C18 1_555 1_555
C3D C4D 1_555 1_555
C8D C9D 1_555 1_555
C10D C11D 1_555 1_555
C17D C18D 1_555 1_555

#END
