
#######################################################################
#
#                 Cambridge Crystallographic Data Centre
#                                CCDC 
#
#######################################################################
#
# If this CIF has been generated from an entry in the Cambridge 
# Structural Database, then it will include bibliographic, chemical, 
# crystal, experimental, refinement or atomic coordinate data resulting 
# from the CCDC's data processing and validation procedures.
#
#######################################################################

data_SANCER
_chemical_formula_moiety         'C26 H16 S2'
_chemical_name_systematic        '(Z)-1, 2-bis(dibenzo[b,d]thiophen-2-yl)ethene'
_symmetry_cell_setting           monoclinic
_symmetry_space_group_name_H-M   'P 2/c'
_symmetry_Int_Tables_number      13
_space_group_name_Hall           '-P 2yc'
loop_
_symmetry_equiv_pos_site_id
_symmetry_equiv_pos_as_xyz
1 x,y,z
2 -x,y,1/2-z
3 -x,-y,-z
4 x,-y,1/2+z
_cell_length_a                   18.924(4)
_cell_length_b                   6.2925(13)
_cell_length_c                   7.9164(16)
_cell_angle_alpha                90
_cell_angle_beta                 99.48(3)
_cell_angle_gamma                90
_cell_volume                     929.805
_exptl_crystal_colour            colorless
_exptl_crystal_description       plate
_cell_formula_units_Z            2
loop_
_atom_site_label
_atom_site_type_symbol
_atom_site_fract_x
_atom_site_fract_y
_atom_site_fract_z
S1 S 0.27290(5) 0.46520(13) 0.25228(10)
C1 C 0.32741(16) 0.6512(5) 0.3762(4)
C2 C 0.40012(18) 0.6294(6) 0.4367(4)
H1 H 0.4256 0.5072 0.4097
C3 C 0.43442(18) 0.7896(6) 0.5371(4)
H2 H 0.4841 0.7770 0.5808
C4 C 0.39716(17) 0.9703(5) 0.5757(4)
H3 H 0.4217 1.0790 0.6453
C5 C 0.32539(16) 0.9916(5) 0.5135(4)
H4 H 0.3005 1.1156 0.5393
C6 C 0.28894(15) 0.8323(4) 0.4128(3)
C7 C 0.21412(15) 0.8186(4) 0.3383(3)
C8 C 0.19782(16) 0.6269(5) 0.2482(4)
C9 C 0.12887(17) 0.5839(5) 0.1629(4)
H5 H 0.1188 0.4563 0.0993
C10 C 0.07556(16) 0.7308(5) 0.1729(4)
H6 H 0.0282 0.7012 0.1172
C11 C 0.08922(15) 0.9232(5) 0.2632(4)
C12 C 0.15905(15) 0.9648(4) 0.3443(4)
H7 H 0.1693 1.0947 0.4045
C13 C 0.03573(15) 1.0935(5) 0.2602(4)
H8 H 0.0562 1.2314 0.2761
S1A S -0.27290(5) 0.46520(13) 0.24772(10)
C1A C -0.32741(16) 0.6512(5) 0.1238(4)
C2A C -0.40012(18) 0.6294(6) 0.0633(4)
H1A H -0.4256 0.5072 0.0903
C3A C -0.43442(18) 0.7896(6) -0.0371(4)
H2A H -0.4841 0.7770 -0.0808
C4A C -0.39716(17) 0.9703(5) -0.0757(4)
H3A H -0.4217 1.0790 -0.1453
C5A C -0.32539(16) 0.9916(5) -0.0135(4)
H4A H -0.3005 1.1156 -0.0393
C6A C -0.28894(15) 0.8323(4) 0.0872(3)
C7A C -0.21412(15) 0.8186(4) 0.1617(3)
C8A C -0.19782(16) 0.6269(5) 0.2518(4)
C9A C -0.12887(17) 0.5839(5) 0.3371(4)
H5A H -0.1188 0.4563 0.4007
C10A C -0.07556(16) 0.7308(5) 0.3271(4)
H6A H -0.0282 0.7012 0.3828
C11A C -0.08922(15) 0.9232(5) 0.2368(4)
C12A C -0.15905(15) 0.9648(4) 0.1557(4)
H7A H -0.1693 1.0947 0.0955
C13A C -0.03573(15) 1.0935(5) 0.2398(4)
H8A H -0.0562 1.2314 0.2239
loop_
_geom_bond_atom_site_label_1
_geom_bond_atom_site_label_2
_geom_bond_site_symmetry_1
_geom_bond_site_symmetry_2
S1 C1 1_555 1_555
C1 C2 1_555 1_555
C2 H1 1_555 1_555
C3 C2 1_555 1_555
H2 C3 1_555 1_555
C4 C3 1_555 1_555
H3 C4 1_555 1_555
C5 C4 1_555 1_555
H4 C5 1_555 1_555
C6 C1 1_555 1_555
C7 C6 1_555 1_555
C8 S1 1_555 1_555
C9 C8 1_555 1_555
H5 C9 1_555 1_555
C10 C9 1_555 1_555
H6 C10 1_555 1_555
C11 C10 1_555 1_555
C12 C7 1_555 1_555
H7 C12 1_555 1_555
C13 C11 1_555 1_555
H8 C13 1_555 1_555
S1A C1A 1_555 1_555
C1A C2A 1_555 1_555
C2A H1A 1_555 1_555
C3A C2A 1_555 1_555
H2A C3A 1_555 1_555
C4A C3A 1_555 1_555
H3A C4A 1_555 1_555
C5A C4A 1_555 1_555
H4A C5A 1_555 1_555
C6A C1A 1_555 1_555
C7A C6A 1_555 1_555
C8A S1A 1_555 1_555
C9A C8A 1_555 1_555
H5A C9A 1_555 1_555
C10A C9A 1_555 1_555
H6A C10A 1_555 1_555
C11A C10A 1_555 1_555
C12A C7A 1_555 1_555
H7A C12A 1_555 1_555
C13A C13 1_555 1_555
H8A C13A 1_555 1_555
C5 C6 1_555 1_555
C7 C8 1_555 1_555
C11 C12 1_555 1_555
C5A C6A 1_555 1_555
C7A C8A 1_555 1_555
C11A C12A 1_555 1_555
C11A C13A 1_555 1_555

#END
