
#######################################################################
#
#                 Cambridge Crystallographic Data Centre
#                                CCDC 
#
#######################################################################
#
# If this CIF has been generated from an entry in the Cambridge 
# Structural Database, then it will include bibliographic, chemical, 
# crystal, experimental, refinement or atomic coordinate data resulting 
# from the CCDC's data processing and validation procedures.
#
#######################################################################

data_SANKUO01
_chemical_formula_moiety         'C17 H15 B1 F2 O4'
_chemical_name_systematic        
(1,3-bis(4-Methoxyphenyl)prop-2-en-1,3-diolato)-(difluoro)boron
_symmetry_cell_setting           monoclinic
_symmetry_space_group_name_H-M   'C 2/c'
_symmetry_Int_Tables_number      15
_space_group_name_Hall           '-C 2yn'
loop_
_symmetry_equiv_pos_site_id
_symmetry_equiv_pos_as_xyz
1 x,y,z
2 -x,y,1/2-z
3 1/2+x,1/2+y,z
4 1/2-x,1/2+y,1/2-z
5 -x,-y,-z
6 x,-y,1/2+z
7 1/2-x,1/2-y,-z
8 1/2+x,1/2-y,1/2+z
_cell_length_a                   21.1856(12)
_cell_length_b                   7.1155(4)
_cell_length_c                   10.3692(6)
_cell_angle_alpha                90
_cell_angle_beta                 96.363(5)
_cell_angle_gamma                90
_cell_volume                     1553.49
_cell_formula_units_Z            4
loop_
_atom_site_label
_atom_site_type_symbol
_atom_site_fract_x
_atom_site_fract_y
_atom_site_fract_z
F1 F 0.03891(5) 0.54564(14) 0.33201(9)
O1 O 0.03994(6) 0.31785(15) 0.17364(10)
O2 O 0.20116(6) -0.19734(18) -0.15193(12)
C1 C 0.08155(7) 0.0435(2) 0.09187(13)
C2 C 0.0000 0.0397(3) 0.2500
H1 H 0.0000 -0.0910 0.2500
C3 C 0.12622(8) -0.2360(2) 0.00582(16)
H2 H 0.1291 -0.3663 0.0032
C4 C 0.03906(7) 0.1346(2) 0.17456(12)
C5 C 0.16141(7) -0.1276(3) -0.06979(14)
C6 C 0.08661(8) -0.1506(2) 0.08563(15)
H3 H 0.0629 -0.2248 0.1362
C7 C 0.15674(8) 0.0662(3) -0.06472(17)
H4 H 0.1804 0.1400 -0.1156
C8 C 0.11748(8) 0.1506(2) 0.01465(15)
H5 H 0.1148 0.2810 0.0169
C9 C 0.20300(10) -0.3958(3) -0.1705(2)
H6 H 0.2170 -0.4559 -0.0895
H7 H 0.2319 -0.4249 -0.2328
H8 H 0.1613 -0.4402 -0.2018
B1 B 0.0000 0.4344(3) 0.2500
F1A F -0.03891(5) 0.54564(14) 0.16799(9)
O1A O -0.03994(6) 0.31785(15) 0.32636(10)
O2A O -0.20116(6) -0.19734(18) 0.65193(12)
C1A C -0.08155(7) 0.0435(2) 0.40813(13)
C3A C -0.12622(8) -0.2360(2) 0.49418(16)
H2A H -0.1291 -0.3663 0.4968
C4A C -0.03906(7) 0.1346(2) 0.32544(12)
C5A C -0.16141(7) -0.1276(3) 0.56979(14)
C6A C -0.08661(8) -0.1506(2) 0.41437(15)
H3A H -0.0629 -0.2248 0.3638
C7A C -0.15674(8) 0.0662(3) 0.56472(17)
H4A H -0.1804 0.1400 0.6156
C8A C -0.11748(8) 0.1506(2) 0.48535(15)
H5A H -0.1148 0.2810 0.4831
C9A C -0.20300(10) -0.3958(3) 0.6705(2)
H6A H -0.2170 -0.4559 0.5895
H7A H -0.2319 -0.4249 0.7328
H8A H -0.1613 -0.4402 0.7018
loop_
_geom_bond_atom_site_label_1
_geom_bond_atom_site_label_2
_geom_bond_site_symmetry_1
_geom_bond_site_symmetry_2
F1 B1 1_555 1_555
O1 C4 1_555 1_555
O2 C5 1_555 1_555
C1 C4 1_555 1_555
C2 H1 1_555 1_555
C3 H2 1_555 1_555
C4 C2 1_555 1_555
C5 C3 1_555 1_555
C6 C1 1_555 1_555
H3 C6 1_555 1_555
C7 C5 1_555 1_555
H4 C7 1_555 1_555
C8 C1 1_555 1_555
H5 C8 1_555 1_555
C9 O2 1_555 1_555
H6 C9 1_555 1_555
H7 C9 1_555 1_555
H8 C9 1_555 1_555
B1 O1 1_555 1_555
F1A B1 1_555 1_555
O1A B1 1_555 1_555
O2A C5A 1_555 1_555
C1A C4A 1_555 1_555
C3A H2A 1_555 1_555
C4A C2 1_555 1_555
C5A C3A 1_555 1_555
C6A C1A 1_555 1_555
H3A C6A 1_555 1_555
C7A C5A 1_555 1_555
H4A C7A 1_555 1_555
C8A C1A 1_555 1_555
H5A C8A 1_555 1_555
C9A O2A 1_555 1_555
H6A C9A 1_555 1_555
H7A C9A 1_555 1_555
H8A C9A 1_555 1_555
C3 C6 1_555 1_555
C7 C8 1_555 1_555
O1A C4A 1_555 1_555
C3A C6A 1_555 1_555
C7A C8A 1_555 1_555

#END
