
#######################################################################
#
#                 Cambridge Crystallographic Data Centre
#                                CCDC 
#
#######################################################################
#
# If this CIF has been generated from an entry in the Cambridge 
# Structural Database, then it will include bibliographic, chemical, 
# crystal, experimental, refinement or atomic coordinate data resulting 
# from the CCDC's data processing and validation procedures.
#
#######################################################################

data_SANMOM
_chemical_formula_moiety         'C20 H32 N6 2+,C1 H4 O1,O4 S1 2-'
_chemical_name_systematic        
"2-methyl-N,N'-bis(1H-pyrrol-2-ylmethyl)-2-(((1H-pyrrol-2-ylmethyl)amino)methyl)propane-1,3-diaminium sulfate methanol solvate"
_symmetry_cell_setting           triclinic
_symmetry_space_group_name_H-M   'P -1'
_symmetry_Int_Tables_number      2
_space_group_name_Hall           '-P 1'
loop_
_symmetry_equiv_pos_site_id
_symmetry_equiv_pos_as_xyz
1 x,y,z
2 -x,-y,-z
_cell_length_a                   9.666(7)
_cell_length_b                   9.761(6)
_cell_length_c                   14.448(11)
_cell_angle_alpha                104.97(5)
_cell_angle_beta                 108.43(5)
_cell_angle_gamma                91.04(6)
_cell_volume                     1241.93
_exptl_crystal_colour            colorless
_exptl_crystal_description       block
_cell_formula_units_Z            2
loop_
_atom_site_label
_atom_site_type_symbol
_atom_site_fract_x
_atom_site_fract_y
_atom_site_fract_z
S1 S 0.21274(18) 0.76323(16) 0.41542(13)
O1 O 0.2307(5) 0.6869(4) 0.4927(3)
O2 O 0.3429(4) 0.8652(4) 0.4423(3)
O3 O 0.0833(4) 0.8433(4) 0.4091(3)
O4 O 0.1928(5) 0.6605(4) 0.3153(3)
O5 O 0.4435(7) 0.6631(8) 0.2660(5)
C1 C 0.4133(11) 0.5772(9) 0.1702(7)
H1 H 0.3460 0.6187 0.1231
H2 H 0.3701 0.4852 0.1654
H3 H 0.5024 0.5669 0.1542
H4 H 0.352(13) 0.694(12) 0.276(9)
N1 N -0.0317(6) 0.2917(6) 0.3800(4)
H5 H -0.067(7) 0.285(6) 0.424(5)
N2 N 0.3365(5) 0.1141(5) 0.5890(4)
H6 H 0.4208 0.1705 0.6181
H7 H 0.3471 0.0416 0.5406
N3 N 0.4208(6) -0.1624(6) 0.6819(4)
H8 H 0.3677 -0.2135 0.6225
N4 N -0.0641(6) -0.2726(5) 0.1677(4)
H9 H 0.0105 -0.3038 0.2040
N5 N 0.0870(5) 0.0471(5) 0.3116(4)
H10 H 0.0838 -0.0152 0.3465
H11 H 0.0136 0.1004 0.3130
N6 N 0.0139(7) 0.3855(6) 0.1909(5)
C2 C -0.1340(11) 0.2421(8) 0.0471(6)
H12 H -0.1732 0.1896 -0.0207
C3 C -0.1970(9) 0.2467(7) 0.1220(6)
H13 H -0.2862 0.1984 0.1131
C4 C -0.1043(8) 0.3348(6) 0.2109(6)
C5 C -0.1176(7) 0.3756(6) 0.3132(5)
H14 H -0.2201 0.3616 0.3069
H15 H -0.0839 0.4761 0.3447
C6 C 0.1230(6) 0.3574(6) 0.4334(5)
H16 H 0.1270 0.4271 0.4959
H17 H 0.1501 0.4085 0.3913
C7 C 0.2383(6) 0.2554(6) 0.4595(5)
C8 C 0.2165(6) 0.1963(6) 0.5430(5)
H18 H 0.2074 0.2754 0.5967
H19 H 0.1247 0.1346 0.5149
C9 C 0.2989(7) 0.0580(7) 0.6672(5)
H20 H 0.2815 0.1376 0.7169
H21 H 0.2084 -0.0055 0.6338
C10 C 0.4144(8) -0.0202(7) 0.7213(6)
C11 C 0.5250(9) -0.2108(9) 0.7518(7)
H22 H 0.5499 -0.3038 0.7435
C12 C -0.1977(8) -0.3490(7) 0.1130(6)
H23 H -0.2233 -0.4434 0.1085
C13 C -0.2846(8) -0.2656(8) 0.0675(5)
H24 H -0.3817 -0.2912 0.0256
C14 C -0.2043(9) -0.1313(7) 0.0935(5)
H25 H -0.2385 -0.0524 0.0722
C15 C -0.0680(8) -0.1388(6) 0.1554(5)
C16 C 0.0658(8) -0.0329(7) 0.2034(5)
H26 H 0.0589 0.0349 0.1640
H27 H 0.1513 -0.0825 0.2013
C17 C 0.2303(6) 0.1417(6) 0.3624(5)
H28 H 0.2469 0.1887 0.3147
H29 H 0.3090 0.0824 0.3784
C18 C 0.3869(7) 0.3454(6) 0.4979(5)
H30 H 0.4641 0.2857 0.5128
H31 H 0.3943 0.4193 0.5583
H32 H 0.3955 0.3876 0.4466
C19 C -0.0048(10) 0.3279(8) 0.0906(7)
H33 H 0.0597 0.3444 0.0576
C20 C 0.5846(9) -0.1002(10) 0.8343(7)
H34 H 0.6593 -0.1028 0.8929
C21 C 0.5152(9) 0.0198(9) 0.8170(6)
H35 H 0.5342 0.1104 0.8624
H36 H 0.085(7) 0.452(6) 0.234(5)
loop_
_geom_bond_atom_site_label_1
_geom_bond_atom_site_label_2
_geom_bond_site_symmetry_1
_geom_bond_site_symmetry_2
S1 O1 1_555 1_555
O2 S1 1_555 1_555
O3 S1 1_555 1_555
O4 S1 1_555 1_555
O5 C1 1_555 1_555
C1 H1 1_555 1_555
H2 C1 1_555 1_555
H3 C1 1_555 1_555
H4 O5 1_555 1_555
N1 H5 1_555 1_555
N2 H6 1_555 1_555
H7 N2 1_555 1_555
N3 H8 1_555 1_555
N4 H9 1_555 1_555
N5 H10 1_555 1_555
H11 N5 1_555 1_555
N6 C4 1_555 1_555
C2 H12 1_555 1_555
C3 C2 1_555 1_555
H13 C3 1_555 1_555
C4 C3 1_555 1_555
C5 N1 1_555 1_555
H14 C5 1_555 1_555
H15 C5 1_555 1_555
C6 N1 1_555 1_555
H16 C6 1_555 1_555
H17 C6 1_555 1_555
C7 C6 1_555 1_555
C8 N2 1_555 1_555
H18 C8 1_555 1_555
H19 C8 1_555 1_555
C9 N2 1_555 1_555
H20 C9 1_555 1_555
H21 C9 1_555 1_555
C10 N3 1_555 1_555
C11 N3 1_555 1_555
H22 C11 1_555 1_555
C12 N4 1_555 1_555
H23 C12 1_555 1_555
C13 C12 1_555 1_555
H24 C13 1_555 1_555
C14 C13 1_555 1_555
H25 C14 1_555 1_555
C15 N4 1_555 1_555
C16 N5 1_555 1_555
H26 C16 1_555 1_555
H27 C16 1_555 1_555
C17 N5 1_555 1_555
H28 C17 1_555 1_555
H29 C17 1_555 1_555
C18 C7 1_555 1_555
H30 C18 1_555 1_555
H31 C18 1_555 1_555
H32 C18 1_555 1_555
C19 N6 1_555 1_555
H33 C19 1_555 1_555
C20 C11 1_555 1_555
H34 C20 1_555 1_555
C21 C10 1_555 1_555
H35 C21 1_555 1_555
H36 N6 1_555 1_555
C2 C19 1_555 1_555
C4 C5 1_555 1_555
C7 C8 1_555 1_555
C7 C17 1_555 1_555
C9 C10 1_555 1_555
C14 C15 1_555 1_555
C15 C16 1_555 1_555
C20 C21 1_555 1_555

#END
