
#######################################################################
#
#                 Cambridge Crystallographic Data Centre
#                                CCDC 
#
#######################################################################
#
# If this CIF has been generated from an entry in the Cambridge 
# Structural Database, then it will include bibliographic, chemical, 
# crystal, experimental, refinement or atomic coordinate data resulting 
# from the CCDC's data processing and validation procedures.
#
#######################################################################

data_SANPEE
_chemical_formula_moiety         'C21 H14 O2'
_chemical_name_systematic        
trans-2-Ethynyl-10-phenyl-14-oxatetracyclo[9.2.1.0^1,9^.0^3,8^]tetradeca-3,5,7,9,12-pentaen-2-ol
_symmetry_cell_setting           monoclinic
_symmetry_space_group_name_H-M   'P 21/c'
_symmetry_Int_Tables_number      14
_space_group_name_Hall           '-P 2ybc'
loop_
_symmetry_equiv_pos_site_id
_symmetry_equiv_pos_as_xyz
1 x,y,z
2 -x,1/2+y,1/2-z
3 -x,-y,-z
4 x,1/2-y,1/2+z
_cell_length_a                   11.6896(11)
_cell_length_b                   9.6383(9)
_cell_length_c                   13.2869(12)
_cell_angle_alpha                90
_cell_angle_beta                 99.709(2)
_cell_angle_gamma                90
_cell_volume                     1475.57
_exptl_crystal_colour            colorless
_exptl_crystal_description       prismatic
_cell_formula_units_Z            4
loop_
_atom_site_label
_atom_site_type_symbol
_atom_site_fract_x
_atom_site_fract_y
_atom_site_fract_z
O1 O 0.50993(9) 0.32714(11) 0.19717(8)
O2 O 0.65938(8) 0.03260(9) 0.29744(7)
C1 C 0.67648(12) 0.39789(14) 0.32725(10)
C2 C 0.65033(13) 0.53101(15) 0.35377(11)
H1 H 0.5737 0.5609 0.3456
C3 C 0.74029(14) 0.61940(15) 0.39286(11)
H2 H 0.7241 0.7100 0.4101
C4 C 0.85356(14) 0.57401(15) 0.40628(11)
H3 H 0.9129 0.6342 0.4337
C5 C 0.88093(12) 0.44103(14) 0.37989(11)
H4 H 0.9578 0.4118 0.3892
C6 C 0.79157(11) 0.35112(13) 0.33905(10)
C7 C 0.79227(11) 0.20804(13) 0.30498(10)
C8 C 0.66773(11) 0.17020(13) 0.25540(10)
C9 C 0.58831(11) 0.28463(14) 0.28571(11)
C10 C 0.85413(11) 0.09077(14) 0.30855(10)
C11 C 0.76199(12) -0.01783(14) 0.26025(11)
H5 H 0.7821 -0.1151 0.2756
C12 C 0.72894(13) 0.01753(16) 0.14770(12)
H6 H 0.7470 -0.0327 0.0927
C13 C 0.66945(12) 0.13400(15) 0.14399(11)
H7 H 0.6360 0.1832 0.0863
C14 C 0.52699(12) 0.23663(16) 0.36801(12)
C15 C 0.48423(14) 0.1990(2) 0.43624(14)
H8 H 0.4501 0.1689 0.4907
C16 C 0.97603(11) 0.05683(14) 0.34359(10)
C17 C 1.00844(13) -0.07372(15) 0.38353(11)
H9 H 0.9517 -0.1403 0.3872
C18 C 1.12315(14) -0.10566(17) 0.41770(12)
H10 H 1.1430 -0.1933 0.4444
C19 C 1.20834(14) -0.00969(18) 0.41276(13)
H11 H 1.2857 -0.0316 0.4365
C20 C 1.17860(13) 0.11984(17) 0.37228(13)
H12 H 1.2362 0.1851 0.3680
C21 C 1.06383(12) 0.15282(15) 0.33812(12)
H13 H 1.0448 0.2404 0.3110
H14 H 0.4691(16) 0.3974(18) 0.2121(14)
loop_
_geom_bond_atom_site_label_1
_geom_bond_atom_site_label_2
_geom_bond_site_symmetry_1
_geom_bond_site_symmetry_2
O1 C9 1_555 1_555
O2 C8 1_555 1_555
C1 C2 1_555 1_555
C2 H1 1_555 1_555
C3 C2 1_555 1_555
H2 C3 1_555 1_555
C4 C3 1_555 1_555
H3 C4 1_555 1_555
C5 C4 1_555 1_555
H4 C5 1_555 1_555
C6 C1 1_555 1_555
C7 C6 1_555 1_555
C8 C7 1_555 1_555
C9 C1 1_555 1_555
C10 C7 1_555 1_555
C11 O2 1_555 1_555
H5 C11 1_555 1_555
C12 C11 1_555 1_555
H6 C12 1_555 1_555
C13 C8 1_555 1_555
H7 C13 1_555 1_555
C14 C9 1_555 1_555
C15 C14 1_555 1_555
H8 C15 1_555 1_555
C16 C10 1_555 1_555
C17 C16 1_555 1_555
H9 C17 1_555 1_555
C18 C17 1_555 1_555
H10 C18 1_555 1_555
C19 C18 1_555 1_555
H11 C19 1_555 1_555
C20 C19 1_555 1_555
H12 C20 1_555 1_555
C21 C16 1_555 1_555
H13 C21 1_555 1_555
H14 O1 1_555 1_555
C5 C6 1_555 1_555
C8 C9 1_555 1_555
C10 C11 1_555 1_555
C12 C13 1_555 1_555
C20 C21 1_555 1_555

#END
