
#######################################################################
#
#                 Cambridge Crystallographic Data Centre
#                                CCDC 
#
#######################################################################
#
# If this CIF has been generated from an entry in the Cambridge 
# Structural Database, then it will include bibliographic, chemical, 
# crystal, experimental, refinement or atomic coordinate data resulting 
# from the CCDC's data processing and validation procedures.
#
#######################################################################

data_SANQUU
_chemical_formula_moiety         'C13 H14 N3 1+,C2 H1 O4 1-'
_chemical_name_systematic        'Diphenylguanidinium hydrogen oxalate'
_symmetry_cell_setting           monoclinic
_symmetry_space_group_name_H-M   'P 21/c'
_symmetry_Int_Tables_number      14
_space_group_name_Hall           '-P 2ybc'
loop_
_symmetry_equiv_pos_site_id
_symmetry_equiv_pos_as_xyz
1 x,y,z
2 -x,1/2+y,1/2-z
3 -x,-y,-z
4 x,1/2-y,1/2+z
_cell_length_a                   15.315(7)
_cell_length_b                   5.573(3)
_cell_length_c                   17.487(8)
_cell_angle_alpha                90
_cell_angle_beta                 99.863(9)
_cell_angle_gamma                90
_cell_volume                     1470.46
_exptl_crystal_colour            colorless
_exptl_crystal_description       plate
_cell_formula_units_Z            4
_exptl_crystal_recrystallization_method ethanol/water
loop_
_atom_site_label
_atom_site_type_symbol
_atom_site_fract_x
_atom_site_fract_y
_atom_site_fract_z
O1 O 0.2707(2) 0.4381(5) 0.70183(13)
O2 O 0.23048(18) 0.5861(4) 0.58264(13)
O3 O 0.22378(19) -0.0012(4) 0.64109(13)
H1 H 0.2191 -0.1296 0.6178
O4 O 0.2633(2) 0.1325(4) 0.53217(13)
C14 C 0.2490(2) 0.4187(6) 0.63134(18)
C15 C 0.2458(2) 0.1651(6) 0.59625(17)
N1 N 0.3223(2) 0.6653(6) 0.91722(16)
H2 H 0.3118 0.6268 0.9624
N2 N 0.2160(2) 0.9500(6) 0.91693(15)
H3 H 0.2287 0.9393 0.9667
N3 N 0.2608(2) 0.8448(6) 0.80150(15)
H4 H 0.2296 0.9595 0.7780
H5 H 0.2767 0.7276 0.7749
C1 C 0.4249(3) 0.3361(7) 0.9279(2)
H6 H 0.3920 0.2614 0.9611
C2 C 0.5012(3) 0.2288(8) 0.9118(2)
H7 H 0.5198 0.0834 0.9352
C3 C 0.5497(3) 0.3333(9) 0.8621(2)
H8 H 0.6004 0.2589 0.8511
C4 C 0.5225(3) 0.5497(9) 0.8288(2)
H9 H 0.5554 0.6225 0.7951
C5 C 0.4473(3) 0.6599(8) 0.8445(2)
H10 H 0.4296 0.8065 0.8214
C6 C 0.3975(2) 0.5540(7) 0.89448(18)
C7 C 0.2659(2) 0.8223(6) 0.87731(17)
C8 C 0.1439(2) 1.1025(7) 0.88711(19)
C9 C 0.0652(3) 1.0780(9) 0.9148(3)
H11 H 0.0591 0.9560 0.9498
C10 C -0.0043(3) 1.2322(11) 0.8912(3)
H12 H -0.0569 1.2149 0.9104
C11 C 0.0039(3) 1.4111(10) 0.8393(3)
H13 H -0.0428 1.5167 0.8239
C12 C 0.0807(3) 1.4346(8) 0.8103(3)
H14 H 0.0855 1.5526 0.7736
C13 C 0.1516(3) 1.2835(7) 0.8352(2)
H15 H 0.2046 1.3044 0.8168
loop_
_geom_bond_atom_site_label_1
_geom_bond_atom_site_label_2
_geom_bond_site_symmetry_1
_geom_bond_site_symmetry_2
O1 C14 1_555 1_555
O2 C14 1_555 1_555
O3 H1 1_555 1_555
O4 C15 1_555 1_555
N1 H2 1_555 1_555
N2 H3 1_555 1_555
N3 H4 1_555 1_555
H5 N3 1_555 1_555
C1 H6 1_555 1_555
C2 C1 1_555 1_555
H7 C2 1_555 1_555
C3 C2 1_555 1_555
H8 C3 1_555 1_555
C4 C3 1_555 1_555
H9 C4 1_555 1_555
C5 C4 1_555 1_555
H10 C5 1_555 1_555
C6 N1 1_555 1_555
C7 N1 1_555 1_555
C8 N2 1_555 1_555
C9 C8 1_555 1_555
H11 C9 1_555 1_555
C10 C9 1_555 1_555
H12 C10 1_555 1_555
C11 C10 1_555 1_555
H13 C11 1_555 1_555
C12 C11 1_555 1_555
H14 C12 1_555 1_555
C13 C8 1_555 1_555
H15 C13 1_555 1_555
C14 C15 1_555 1_555
C15 O3 1_555 1_555
N2 C7 1_555 1_555
N3 C7 1_555 1_555
C1 C6 1_555 1_555
C5 C6 1_555 1_555
C12 C13 1_555 1_555

#END
