
#######################################################################
#
#                 Cambridge Crystallographic Data Centre
#                                CCDC 
#
#######################################################################
#
# If this CIF has been generated from an entry in the Cambridge 
# Structural Database, then it will include bibliographic, chemical, 
# crystal, experimental, refinement or atomic coordinate data resulting 
# from the CCDC's data processing and validation procedures.
#
#######################################################################

data_SANYIP02
_chemical_name_common            N,N'-bis(salicylidene)-p-diaminobenzene
_chemical_formula_moiety         'C20 H16 N2 O2'
_chemical_name_systematic        
2-(((4-(((2-hydroxyphenyl)methylene)amino)phenyl)imino)methyl)phenol
_symmetry_cell_setting           monoclinic
_symmetry_space_group_name_H-M   'P 21/c'
_symmetry_Int_Tables_number      14
_space_group_name_Hall           '-P 2ybc'
loop_
_symmetry_equiv_pos_site_id
_symmetry_equiv_pos_as_xyz
1 x,y,z
2 -x,1/2+y,1/2-z
3 -x,-y,-z
4 x,1/2-y,1/2+z
_cell_length_a                   14.649(3)
_cell_length_b                   4.5770(9)
_cell_length_c                   12.241(2)
_cell_angle_alpha                90
_cell_angle_beta                 112.07(3)
_cell_angle_gamma                90
_cell_volume                     760.601
_exptl_crystal_colour            yellow
_cell_formula_units_Z            2
loop_
_atom_site_label
_atom_site_type_symbol
_atom_site_fract_x
_atom_site_fract_y
_atom_site_fract_z
O1 O 0.2940(2) 0.7312(7) 0.1392(2)
H1 H 0.2834 0.7962 0.1958
N1 N 0.3637(2) 0.4270(7) 0.0110(3)
C1 C 0.2305(3) 0.8520(9) 0.0396(4)
C2 C 0.1608(3) 1.0531(10) 0.0440(4)
H2 H 0.1575 1.1020 0.1162
C3 C 0.0968(3) 1.1769(10) -0.0586(5)
H3 H 0.0497 1.3089 -0.0551
C4 C 0.1002(3) 1.1098(10) -0.1671(4)
H4 H 0.0576 1.1988 -0.2356
C5 C 0.1693(3) 0.9096(9) -0.1715(4)
H5 H 0.1721 0.8623 -0.2441
C6 C 0.2343(2) 0.7746(8) -0.0701(3)
C7 C 0.3040(2) 0.5619(8) -0.0797(3)
H6 H 0.3057 0.5219 -0.1535
C8 C 0.4313(2) 0.2129(8) 0.0007(3)
C9 C 0.4958(3) 0.0906(8) 0.1051(3)
H7 H 0.4930 0.1502 0.1765
C10 C 0.4365(3) 0.1197(9) -0.1049(3)
H8 H 0.3937 0.1984 -0.1757
O1B O 0.7060(2) -0.7312(7) -0.1392(2)
H1B H 0.7166 -0.7962 -0.1958
N1B N 0.6363(2) -0.4270(7) -0.0110(3)
C1B C 0.7695(3) -0.8520(9) -0.0396(4)
C2B C 0.8392(3) -1.0531(10) -0.0440(4)
H2B H 0.8425 -1.1020 -0.1162
C3B C 0.9032(3) -1.1769(10) 0.0586(5)
H3B H 0.9503 -1.3089 0.0551
C4B C 0.8998(3) -1.1098(10) 0.1671(4)
H4B H 0.9424 -1.1988 0.2356
C5B C 0.8307(3) -0.9096(9) 0.1715(4)
H5B H 0.8279 -0.8623 0.2441
C6B C 0.7657(2) -0.7746(8) 0.0701(3)
C7B C 0.6960(2) -0.5619(8) 0.0797(3)
H6B H 0.6943 -0.5219 0.1535
C8B C 0.5687(2) -0.2129(8) -0.0007(3)
C9B C 0.5042(3) -0.0906(8) -0.1051(3)
H7B H 0.5070 -0.1502 -0.1765
C10B C 0.5635(3) -0.1197(9) 0.1049(3)
H8B H 0.6063 -0.1984 0.1757
loop_
_geom_bond_atom_site_label_1
_geom_bond_atom_site_label_2
_geom_bond_site_symmetry_1
_geom_bond_site_symmetry_2
O1 H1 1_555 1_555
N1 C7 1_555 1_555
C1 O1 1_555 1_555
C2 C1 1_555 1_555
H2 C2 1_555 1_555
C3 C2 1_555 1_555
H3 C3 1_555 1_555
C4 C3 1_555 1_555
H4 C4 1_555 1_555
C5 C4 1_555 1_555
H5 C5 1_555 1_555
C6 C1 1_555 1_555
C7 C6 1_555 1_555
H6 C7 1_555 1_555
C8 N1 1_555 1_555
C9 C8 1_555 1_555
H7 C9 1_555 1_555
C10 C8 1_555 1_555
H8 C10 1_555 1_555
O1B H1B 1_555 1_555
N1B C7B 1_555 1_555
C1B O1B 1_555 1_555
C2B C1B 1_555 1_555
H2B C2B 1_555 1_555
C3B C2B 1_555 1_555
H3B C3B 1_555 1_555
C4B C3B 1_555 1_555
H4B C4B 1_555 1_555
C5B C4B 1_555 1_555
H5B C5B 1_555 1_555
C6B C1B 1_555 1_555
C7B C6B 1_555 1_555
H6B C7B 1_555 1_555
C8B N1B 1_555 1_555
C9B C10 1_555 1_555
H7B C9B 1_555 1_555
C10B C9 1_555 1_555
H8B C10B 1_555 1_555
C5 C6 1_555 1_555
C5B C6B 1_555 1_555
C8B C9B 1_555 1_555
C8B C10B 1_555 1_555

#END
