
#######################################################################
#
#                 Cambridge Crystallographic Data Centre
#                                CCDC 
#
#######################################################################
#
# If this CIF has been generated from an entry in the Cambridge 
# Structural Database, then it will include bibliographic, chemical, 
# crystal, experimental, refinement or atomic coordinate data resulting 
# from the CCDC's data processing and validation procedures.
#
#######################################################################

data_SAPCUI
_chemical_formula_moiety         'C14 H13 Cl1 O2'
_chemical_name_systematic        3-Chloro-4,4'-dimethoxybiphenyl
_symmetry_cell_setting           orthorhombic
_symmetry_space_group_name_H-M   'P b c a'
_symmetry_Int_Tables_number      61
_space_group_name_Hall           '-P 2ac 2ab'
loop_
_symmetry_equiv_pos_site_id
_symmetry_equiv_pos_as_xyz
1 x,y,z
2 1/2-x,-y,1/2+z
3 -x,1/2+y,1/2-z
4 1/2+x,1/2-y,-z
5 -x,-y,-z
6 1/2+x,y,1/2-z
7 x,1/2-y,1/2+z
8 1/2-x,1/2+y,z
_cell_length_a                   9.807(7)
_cell_length_b                   9.193(6)
_cell_length_c                   26.607(17)
_cell_angle_alpha                90
_cell_angle_beta                 90
_cell_angle_gamma                90
_cell_volume                     2398.77
_exptl_crystal_colour            colorless
_exptl_crystal_description       block
_cell_formula_units_Z            8
_exptl_crystal_recrystallization_method ethanol
loop_
_atom_site_label
_atom_site_type_symbol
_atom_site_fract_x
_atom_site_fract_y
_atom_site_fract_z
Cl1 Cl 0.56071(13) 0.22732(14) 0.57468(4)
O1 O 0.3178(3) 0.0783(3) 0.54302(10)
O2 O 0.4057(3) 0.1654(3) 0.91043(9)
C1 C 0.3253(5) 0.0868(4) 0.59408(15)
C2 C 0.4376(4) 0.1571(4) 0.61450(14)
C3 C 0.4542(4) 0.1712(4) 0.66574(13)
H1 H 0.5305 0.2190 0.6783
C4 C 0.3578(4) 0.1145(4) 0.69909(14)
C5 C 0.2458(5) 0.0446(5) 0.67826(14)
H2 H 0.1795 0.0068 0.6996
C6 C 0.2295(4) 0.0293(5) 0.62698(15)
H3 H 0.1539 -0.0197 0.6144
C7 C 0.3984(4) 0.1617(5) 0.85930(14)
C8 C 0.4549(4) 0.2625(5) 0.82752(14)
H4 H 0.5016 0.3419 0.8407
C9 C 0.4430(4) 0.2469(4) 0.77567(13)
H5 H 0.4822 0.3162 0.7547
C10 C 0.3740(4) 0.1305(4) 0.75463(14)
C11 C 0.3189(4) 0.0282(5) 0.78758(15)
H6 H 0.2727 -0.0519 0.7747
C12 C 0.3315(4) 0.0437(5) 0.83911(15)
H7 H 0.2945 -0.0264 0.8603
C13 C 0.2111(5) -0.0073(6) 0.52130(16)
H8 H 0.2175 -0.1054 0.5334
H9 H 0.2200 -0.0067 0.4854
H10 H 0.1244 0.0329 0.5306
C14 C 0.4640(6) 0.2918(5) 0.93319(15)
H11 H 0.5585 0.2989 0.9240
H12 H 0.4563 0.2846 0.9691
H13 H 0.4165 0.3769 0.9217
loop_
_geom_bond_atom_site_label_1
_geom_bond_atom_site_label_2
_geom_bond_site_symmetry_1
_geom_bond_site_symmetry_2
Cl1 C2 1_555 1_555
O1 C1 1_555 1_555
O2 C7 1_555 1_555
C1 C2 1_555 1_555
C2 C3 1_555 1_555
C3 H1 1_555 1_555
C4 C3 1_555 1_555
C5 C4 1_555 1_555
H2 C5 1_555 1_555
C6 C1 1_555 1_555
H3 C6 1_555 1_555
C7 C8 1_555 1_555
C8 H4 1_555 1_555
C9 C8 1_555 1_555
H5 C9 1_555 1_555
C10 C4 1_555 1_555
C11 C10 1_555 1_555
H6 C11 1_555 1_555
C12 C7 1_555 1_555
H7 C12 1_555 1_555
C13 O1 1_555 1_555
H8 C13 1_555 1_555
H9 C13 1_555 1_555
H10 C13 1_555 1_555
C14 O2 1_555 1_555
H11 C14 1_555 1_555
H12 C14 1_555 1_555
H13 C14 1_555 1_555
C5 C6 1_555 1_555
C9 C10 1_555 1_555
C11 C12 1_555 1_555

#END
