
#######################################################################
#
#                 Cambridge Crystallographic Data Centre
#                                CCDC 
#
#######################################################################
#
# If this CIF has been generated from an entry in the Cambridge 
# Structural Database, then it will include bibliographic, chemical, 
# crystal, experimental, refinement or atomic coordinate data resulting 
# from the CCDC's data processing and validation procedures.
#
#######################################################################

data_SAPGOG
_chemical_formula_moiety         'C10 H9 Cl1 N2 O2'
_chemical_name_systematic        
3-(3-Methoxyphenyl)-5-chloromethyl-1,2,4-oxadiazole
_symmetry_cell_setting           monoclinic
_symmetry_space_group_name_H-M   'P 21/c'
_symmetry_Int_Tables_number      14
_space_group_name_Hall           '-P 2ybc'
loop_
_symmetry_equiv_pos_site_id
_symmetry_equiv_pos_as_xyz
1 x,y,z
2 -x,1/2+y,1/2-z
3 -x,-y,-z
4 x,1/2-y,1/2+z
_cell_length_a                   7.2350(14)
_cell_length_b                   9.5600(19)
_cell_length_c                   15.454(3)
_cell_angle_alpha                90
_cell_angle_beta                 97.03(3)
_cell_angle_gamma                90
_cell_volume                     1060.86
_exptl_crystal_colour            colorless
_exptl_crystal_description       block
_cell_formula_units_Z            4
_exptl_crystal_recrystallization_method ethanol
loop_
_atom_site_label
_atom_site_type_symbol
_atom_site_fract_x
_atom_site_fract_y
_atom_site_fract_z
Cl1 Cl 0.3877(3) 0.6560(2) 0.26834(12)
O1 O 0.1302(6) 0.9340(4) 0.2208(2)
O2 O 0.2409(6) 1.5055(4) 0.0126(2)
N1 N 0.2236(6) 0.8863(5) 0.0942(3)
N2 N 0.1419(7) 1.0623(5) 0.1771(3)
C1 C 0.1838(9) 0.6894(6) 0.1953(4)
H1 H 0.1801 0.6278 0.1453
H2 H 0.0744 0.6711 0.2241
C2 C 0.1830(8) 0.8354(6) 0.1665(3)
C3 C 0.1993(7) 1.0278(6) 0.1040(3)
C4 C 0.2310(7) 1.1299(5) 0.0362(3)
C5 C 0.2703(8) 1.0842(6) -0.0448(3)
H3 H 0.2788 0.9890 -0.0561
C6 C 0.2965(8) 1.1806(6) -0.1082(3)
H4 H 0.3215 1.1501 -0.1627
C7 C 0.2863(7) 1.3223(7) -0.0917(3)
H5 H 0.3040 1.3866 -0.1351
C8 C 0.2497(8) 1.3684(6) -0.0108(3)
C9 C 0.2228(8) 1.2715(6) 0.0528(3)
H6 H 0.1988 1.3021 0.1074
C10 C 0.2623(10) 1.6088(6) -0.0532(4)
H7 H 0.2532 1.7006 -0.0289
H8 H 0.1662 1.5968 -0.1012
H9 H 0.3819 1.5979 -0.0732
loop_
_geom_bond_atom_site_label_1
_geom_bond_atom_site_label_2
_geom_bond_site_symmetry_1
_geom_bond_site_symmetry_2
Cl1 C1 1_555 1_555
O1 N2 1_555 1_555
O2 C8 1_555 1_555
N1 C2 1_555 1_555
N2 C3 1_555 1_555
C1 H1 1_555 1_555
H2 C1 1_555 1_555
C2 O1 1_555 1_555
C3 N1 1_555 1_555
C4 C3 1_555 1_555
C5 C4 1_555 1_555
H3 C5 1_555 1_555
C6 C5 1_555 1_555
H4 C6 1_555 1_555
C7 C6 1_555 1_555
H5 C7 1_555 1_555
C8 C7 1_555 1_555
C9 C4 1_555 1_555
H6 C9 1_555 1_555
C10 O2 1_555 1_555
H7 C10 1_555 1_555
H8 C10 1_555 1_555
H9 C10 1_555 1_555
C1 C2 1_555 1_555
C8 C9 1_555 1_555

#END
