
#######################################################################
#
#                 Cambridge Crystallographic Data Centre
#                                CCDC 
#
#######################################################################
#
# If this CIF has been generated from an entry in the Cambridge 
# Structural Database, then it will include bibliographic, chemical, 
# crystal, experimental, refinement or atomic coordinate data resulting 
# from the CCDC's data processing and validation procedures.
#
#######################################################################

data_SAPSAE
_chemical_formula_moiety         'C26 H10 Cl8 O2'
_chemical_name_systematic        
6-(p-Tolyl)-6H-1,11-dihydroxy-2,3,4,5,7,8,9,10-octachlorobenzo(cd)pyrene
_symmetry_cell_setting           triclinic
_symmetry_space_group_name_H-M   'P -1'
_symmetry_Int_Tables_number      2
_space_group_name_Hall           '-P 1'
loop_
_symmetry_equiv_pos_site_id
_symmetry_equiv_pos_as_xyz
1 x,y,z
2 -x,-y,-z
_cell_length_a                   9.1400(18)
_cell_length_b                   11.024(2)
_cell_length_c                   12.862(3)
_cell_angle_alpha                66.10(3)
_cell_angle_beta                 83.81(3)
_cell_angle_gamma                86.17(3)
_cell_volume                     1177.55
_exptl_crystal_colour            yellow
_exptl_crystal_description       prism
_cell_formula_units_Z            2
loop_
_atom_site_label
_atom_site_type_symbol
_atom_site_fract_x
_atom_site_fract_y
_atom_site_fract_z
C1 C 0.3352(9) 0.8788(8) 0.3321(7)
C2 C 0.2367(10) 0.9823(9) 0.3303(8)
C3 C 0.1652(10) 1.0535(9) 0.2372(8)
C4 C 0.1419(10) 1.1097(8) 0.0248(9)
C5 C 0.1779(10) 1.0908(9) -0.0769(7)
C6 C 0.3083(12) 0.9671(10) -0.1737(8)
C7 C 0.4100(13) 0.8593(12) -0.1633(8)
C8 C 0.5891(12) 0.6661(11) -0.0534(10)
C9 C 0.6473(10) 0.5899(10) 0.0464(11)
C10 C 0.5991(9) 0.6090(9) 0.1462(8)
C11 C 0.4270(9) 0.7110(8) 0.2541(7)
H1 H 0.5058 0.6926 0.3049
C12 C 0.3546(9) 0.8422(8) 0.2406(7)
C13 C 0.1968(9) 1.0317(8) 0.1347(8)
C14 C 0.2795(10) 0.9795(9) -0.0654(8)
C15 C 0.4816(11) 0.7702(9) -0.0633(8)
C16 C 0.4923(8) 0.7051(8) 0.1426(7)
C17 C 0.2960(8) 0.9231(8) 0.1389(7)
C18 C 0.3341(9) 0.8966(8) 0.0383(7)
C19 C 0.4380(9) 0.7917(8) 0.0382(7)
C20 C 0.3124(9) 0.6026(8) 0.3099(7)
C21 C 0.3257(11) 0.5037(9) 0.4171(8)
H2 H 0.4073 0.5016 0.4552
C22 C 0.2209(12) 0.4078(10) 0.4693(9)
H3 H 0.2348 0.3412 0.5407
C23 C 0.0962(10) 0.4089(9) 0.4175(8)
C24 C 0.0830(10) 0.5063(9) 0.3119(8)
H4 H 0.0011 0.5082 0.2742
C25 C 0.1884(9) 0.6036(9) 0.2583(7)
H5 H 0.1743 0.6699 0.1868
C26 C -0.0182(11) 0.3068(9) 0.4767(9)
H6 H -0.0970 0.3223 0.4289
H7 H -0.0559 0.3124 0.5473
H8 H 0.0248 0.2200 0.4921
Cl1 Cl 0.4222(3) 0.7874(3) 0.4547(2)
Cl2 Cl 0.2104(3) 1.0152(3) 0.4514(2)
Cl3 Cl 0.0257(3) 1.1581(3) 0.2548(3)
Cl4 Cl 0.0227(3) 1.2477(3) 0.0052(3)
Cl5 Cl 0.4361(4) 0.8365(4) -0.2923(3)
Cl6 Cl 0.6586(4) 0.6348(4) -0.1721(3)
Cl7 Cl 0.7755(3) 0.4665(3) 0.0547(3)
Cl8 Cl 0.6677(3) 0.5073(3) 0.2727(3)
O1 O 0.1235(5) 1.1764(5) -0.1982(4)
O2 O 0.2369(10) 1.0677(7) -0.2819(5)
H9 H 0.0926 1.2523 -0.2009
H10 H 0.1462 1.0506 -0.2759
loop_
_geom_bond_atom_site_label_1
_geom_bond_atom_site_label_2
_geom_bond_site_symmetry_1
_geom_bond_site_symmetry_2
C1 C2 1_555 1_555
C2 C3 1_555 1_555
C3 C13 1_555 1_555
C4 C5 1_555 1_555
C5 C14 1_555 1_555
C6 C7 1_555 1_555
C7 C15 1_555 1_555
C8 C9 1_555 1_555
C9 C10 1_555 1_555
C10 C16 1_555 1_555
C11 H1 1_555 1_555
C12 C1 1_555 1_555
C13 C4 1_555 1_555
C14 C6 1_555 1_555
C15 C8 1_555 1_555
C16 C11 1_555 1_555
C17 C12 1_555 1_555
C18 C14 1_555 1_555
C19 C15 1_555 1_555
C20 C11 1_555 1_555
C21 C20 1_555 1_555
H2 C21 1_555 1_555
C22 C21 1_555 1_555
H3 C22 1_555 1_555
C23 C22 1_555 1_555
C24 C23 1_555 1_555
H4 C24 1_555 1_555
C25 C20 1_555 1_555
H5 C25 1_555 1_555
C26 C23 1_555 1_555
H6 C26 1_555 1_555
H7 C26 1_555 1_555
H8 C26 1_555 1_555
Cl1 C1 1_555 1_555
Cl2 C2 1_555 1_555
Cl3 C3 1_555 1_555
Cl4 C4 1_555 1_555
Cl5 C7 1_555 1_555
Cl6 C8 1_555 1_555
Cl7 C9 1_555 1_555
Cl8 C10 1_555 1_555
O1 C5 1_555 1_555
O2 C6 1_555 1_555
H9 O1 1_555 1_555
H10 O2 1_555 1_555
C11 C12 1_555 1_555
C13 C17 1_555 1_555
C16 C19 1_555 1_555
C17 C18 1_555 1_555
C18 C19 1_555 1_555
C24 C25 1_555 1_555

#END
