
#######################################################################
#
#                 Cambridge Crystallographic Data Centre
#                                CCDC 
#
#######################################################################
#
# If this CIF has been generated from an entry in the Cambridge 
# Structural Database, then it will include bibliographic, chemical, 
# crystal, experimental, refinement or atomic coordinate data resulting 
# from the CCDC's data processing and validation procedures.
#
#######################################################################

data_SAPTOV
_chemical_formula_moiety         'C32 H30 N2 O2 S1'
_chemical_name_systematic        
5-[(4-methylphenyl)sulfonyl]-2-(pent-1-yn-1-yl)-4-phenyl-3-propyl-5H-pyrido[3,2-b]indole
_symmetry_cell_setting           monoclinic
_symmetry_space_group_name_H-M   'P 21/n'
_symmetry_Int_Tables_number      14
_space_group_name_Hall           '-P 2yn'
loop_
_symmetry_equiv_pos_site_id
_symmetry_equiv_pos_as_xyz
1 x,y,z
2 1/2-x,1/2+y,1/2-z
3 -x,-y,-z
4 1/2+x,1/2-y,1/2+z
_cell_length_a                   9.8491(12)
_cell_length_b                   12.1471(14)
_cell_length_c                   23.294(3)
_cell_angle_alpha                90
_cell_angle_beta                 97.907(3)
_cell_angle_gamma                90
_cell_volume                     2760.35
_exptl_crystal_colour            colorless
_exptl_crystal_description       prismatic
_cell_formula_units_Z            4
loop_
_atom_site_label
_atom_site_type_symbol
_atom_site_fract_x
_atom_site_fract_y
_atom_site_fract_z
S1 S 0.41377(7) 0.18918(6) 0.10315(3)
N1 N 0.4899(2) 0.10037(18) 0.15380(9)
N2 N 0.3860(2) -0.01658(18) 0.28238(9)
O1 O 0.4486(2) 0.1508(2) 0.04949(9)
O2 O 0.4496(2) 0.29709(17) 0.12216(9)
C1 C 0.4734(3) -0.0150(2) 0.13904(12)
C2 C 0.4985(3) -0.0689(3) 0.08944(13)
H1 H 0.5300 -0.0311 0.0591
C3 C 0.4751(4) -0.1806(3) 0.08639(16)
H2 H 0.4898 -0.2185 0.0531
C4 C 0.4305(4) -0.2380(3) 0.13134(17)
H3 H 0.4157 -0.3135 0.1279
C5 C 0.4075(4) -0.1848(3) 0.18132(15)
H4 H 0.3785 -0.2233 0.2119
C6 C 0.4290(3) -0.0722(2) 0.18459(12)
C7 C 0.4196(3) 0.0067(2) 0.23064(11)
C8 C 0.4608(2) 0.1096(2) 0.21286(11)
C9 C 0.4791(2) 0.1962(2) 0.25248(11)
C10 C 0.4451(3) 0.1733(2) 0.30807(12)
C11 C 0.3954(3) 0.0680(2) 0.31970(12)
C12 C 0.3550(4) 0.0428(3) 0.37546(13)
C13 C 0.3207(5) 0.0190(3) 0.42030(16)
C14 C 0.2757(8) -0.0127(5) 0.4754(2)
H5 H 0.3398 -0.0652 0.4940
H6 H 0.1870 -0.0465 0.4675
C15 C 0.263(2) 0.0745(13) 0.5147(7)
H7 H 0.2118 0.1332 0.4935
H8 H 0.3546 0.1028 0.5275
C16 C 0.1990(12) 0.0510(8) 0.5660(4)
H9 H 0.1346 -0.0081 0.5578
H10 H 0.1521 0.1155 0.5768
H11 H 0.2680 0.0302 0.5973
C17 C 0.4734(4) 0.2537(3) 0.35681(13)
H12 H 0.4043 0.2469 0.3825
H13 H 0.4704 0.3282 0.3417
C18 C 0.6218(6) 0.2288(4) 0.39168(18)
H14 H 0.6278 0.1507 0.4002
H15 H 0.6900 0.2454 0.3666
C19 C 0.6564(6) 0.2879(5) 0.4447(2)
H16 H 0.6653 0.3648 0.4365
H17 H 0.7417 0.2608 0.4646
H18 H 0.5856 0.2779 0.4687
C20 C 0.5394(3) 0.3048(2) 0.24051(12)
C21 C 0.6744(3) 0.3120(3) 0.23098(14)
H19 H 0.7274 0.2485 0.2316
C22 C 0.7310(5) 0.4118(4) 0.22062(18)
H20 H 0.8224 0.4161 0.2148
C23 C 0.6524(7) 0.5059(4) 0.2189(2)
H21 H 0.6903 0.5734 0.2110
C24 C 0.5191(6) 0.5004(3) 0.22882(19)
H22 H 0.4669 0.5642 0.2281
C25 C 0.4620(4) 0.4007(3) 0.23978(15)
H23 H 0.3714 0.3973 0.2467
C26 C 0.2386(3) 0.1691(2) 0.10502(11)
C27 C 0.1680(3) 0.2403(3) 0.13639(15)
H24 H 0.2122 0.3001 0.1557
C28 C 0.0314(4) 0.2215(3) 0.13864(18)
H25 H -0.0158 0.2686 0.1604
C29 C -0.0373(3) 0.1358(4) 0.11003(18)
C30 C 0.0361(4) 0.0645(3) 0.07958(17)
H26 H -0.0085 0.0046 0.0606
C31 C 0.1727(3) 0.0800(3) 0.07669(15)
H27 H 0.2204 0.0314 0.0560
C32 C -0.1870(4) 0.1148(5) 0.1134(3)
H28 H -0.2058 0.1289 0.1521
H29 H -0.2086 0.0395 0.1034
H30 H -0.2421 0.1625 0.0868
C33? C 0.284(2) 0.1439(15) 0.5189(7)
H31? H 0.3630 0.1356 0.4996
H32? H 0.3102 0.1401 0.5600
H33? H 0.2414 0.2139 0.5089
C34? C 0.1876(19) 0.0573(13) 0.5010(6)
H34? H 0.1530 0.0229 0.5336
H35? H 0.1115 0.0828 0.4733
H36? H 0.3565 -0.0239 0.5028
H37? H 0.2296 -0.0822 0.4692
loop_
_geom_bond_atom_site_label_1
_geom_bond_atom_site_label_2
_geom_bond_site_symmetry_1
_geom_bond_site_symmetry_2
S1 N1 1_555 1_555
N1 C1 1_555 1_555
N2 C7 1_555 1_555
O1 S1 1_555 1_555
O2 S1 1_555 1_555
C1 C2 1_555 1_555
C2 H1 1_555 1_555
C3 C2 1_555 1_555
H2 C3 1_555 1_555
C4 C3 1_555 1_555
H3 C4 1_555 1_555
C5 C4 1_555 1_555
H4 C5 1_555 1_555
C6 C1 1_555 1_555
C7 C6 1_555 1_555
C8 N1 1_555 1_555
C9 C8 1_555 1_555
C10 C9 1_555 1_555
C11 N2 1_555 1_555
C12 C11 1_555 1_555
C13 C12 1_555 1_555
C14 C13 1_555 1_555
H5 C14 1_555 1_555
H6 C14 1_555 1_555
C15 C14 1_555 1_555
H7 C15 1_555 1_555
H8 C15 1_555 1_555
C16 C15 1_555 1_555
H9 C16 1_555 1_555
H10 C16 1_555 1_555
H11 C16 1_555 1_555
C17 C10 1_555 1_555
H12 C17 1_555 1_555
H13 C17 1_555 1_555
C18 C17 1_555 1_555
H14 C18 1_555 1_555
H15 C18 1_555 1_555
C19 C18 1_555 1_555
H16 C19 1_555 1_555
H17 C19 1_555 1_555
H18 C19 1_555 1_555
C20 C9 1_555 1_555
C21 C20 1_555 1_555
H19 C21 1_555 1_555
C22 C21 1_555 1_555
H20 C22 1_555 1_555
C23 C22 1_555 1_555
H21 C23 1_555 1_555
C24 C23 1_555 1_555
H22 C24 1_555 1_555
C25 C20 1_555 1_555
H23 C25 1_555 1_555
C26 S1 1_555 1_555
C27 C26 1_555 1_555
H24 C27 1_555 1_555
C28 C27 1_555 1_555
H25 C28 1_555 1_555
C29 C28 1_555 1_555
C30 C29 1_555 1_555
H26 C30 1_555 1_555
C31 C26 1_555 1_555
H27 C31 1_555 1_555
C32 C29 1_555 1_555
H28 C32 1_555 1_555
H29 C32 1_555 1_555
H30 C32 1_555 1_555
C5 C6 1_555 1_555
C7 C8 1_555 1_555
C10 C11 1_555 1_555
C24 C25 1_555 1_555
C30 C31 1_555 1_555

#END
