
#######################################################################
#
#                 Cambridge Crystallographic Data Centre
#                                CCDC 
#
#######################################################################
#
# If this CIF has been generated from an entry in the Cambridge 
# Structural Database, then it will include bibliographic, chemical, 
# crystal, experimental, refinement or atomic coordinate data resulting 
# from the CCDC's data processing and validation procedures.
#
#######################################################################

data_SAPTAG
_chemical_formula_moiety         'C14 H13 Br1 O3'
_chemical_name_systematic        
7-Bromo-5-methoxy-2,3,4,9-tetrahydro-1H-xanthen-1-one
_symmetry_cell_setting           monoclinic
_symmetry_space_group_name_H-M   'P 21/c'
_symmetry_Int_Tables_number      14
_space_group_name_Hall           '-P 2ybc'
loop_
_symmetry_equiv_pos_site_id
_symmetry_equiv_pos_as_xyz
1 x,y,z
2 -x,1/2+y,1/2-z
3 -x,-y,-z
4 x,1/2-y,1/2+z
_cell_length_a                   9.081(4)
_cell_length_b                   20.421(9)
_cell_length_c                   6.813(3)
_cell_angle_alpha                90
_cell_angle_beta                 92.902(8)
_cell_angle_gamma                90
_cell_volume                     1261.8
_exptl_crystal_colour            colorless
_exptl_crystal_description       block
_cell_formula_units_Z            4
loop_
_atom_site_label
_atom_site_type_symbol
_atom_site_fract_x
_atom_site_fract_y
_atom_site_fract_z
Br1 Br 1.35812(6) 0.39396(3) 0.79928(10)
C1 C 1.1641(6) 0.3575(3) 0.7804(9)
C2 C 1.1500(6) 0.2900(3) 0.7786(9)
H1 H 1.2349 0.2628 0.7858
C3 C 1.0098(6) 0.2628(3) 0.7661(8)
C4 C 0.9911(6) 0.1894(3) 0.7636(8)
H2 H 1.0385 0.1709 0.6481
H3 H 1.0404 0.1704 0.8834
C5 C 0.8304(6) 0.1712(3) 0.7547(8)
C6 C 0.7947(7) 0.1015(3) 0.7513(9)
C7 C 0.6325(6) 0.0823(3) 0.7366(11)
H4 H 0.6021 0.0748 0.5968
H5 H 0.6200 0.0406 0.8078
C8 C 0.5336(7) 0.1331(3) 0.8193(11)
H6 H 0.5524 0.1357 0.9635
H7 H 0.4294 0.1202 0.7930
C9 C 0.5598(6) 0.2004(3) 0.7281(9)
H8 H 0.5234 0.2005 0.5886
H9 H 0.5052 0.2344 0.7985
C10 C 0.7218(6) 0.2154(3) 0.7423(8)
C11 C 0.8892(6) 0.3039(3) 0.7535(8)
C12 C 0.9037(6) 0.3725(3) 0.7520(9)
C13 C 1.0456(6) 0.4002(3) 0.7656(8)
H10 H 1.0596 0.4462 0.7647
C14 C 0.7895(7) 0.4778(3) 0.7422(10)
H11 H 0.8434 0.4919 0.8631
H12 H 0.6911 0.4976 0.7354
H13 H 0.8433 0.4917 0.6282
O1 O 0.7438(4) 0.28158(18) 0.7403(6)
O2 O 0.8921(5) 0.05990(19) 0.7562(7)
O3 O 0.7759(4) 0.40788(18) 0.7418(7)
loop_
_geom_bond_atom_site_label_1
_geom_bond_atom_site_label_2
_geom_bond_site_symmetry_1
_geom_bond_site_symmetry_2
Br1 C1 1_555 1_555
C1 C2 1_555 1_555
C2 H1 1_555 1_555
C3 C2 1_555 1_555
C4 C3 1_555 1_555
H2 C4 1_555 1_555
H3 C4 1_555 1_555
C5 C4 1_555 1_555
C6 C5 1_555 1_555
C7 C6 1_555 1_555
H4 C7 1_555 1_555
H5 C7 1_555 1_555
C8 C7 1_555 1_555
H6 C8 1_555 1_555
H7 C8 1_555 1_555
C9 C8 1_555 1_555
H8 C9 1_555 1_555
H9 C9 1_555 1_555
C10 C5 1_555 1_555
C11 C3 1_555 1_555
C12 C11 1_555 1_555
C13 C1 1_555 1_555
H10 C13 1_555 1_555
C14 H11 1_555 1_555
H12 C14 1_555 1_555
H13 C14 1_555 1_555
O1 C10 1_555 1_555
O2 C6 1_555 1_555
O3 C12 1_555 1_555
C9 C10 1_555 1_555
C11 O1 1_555 1_555
C12 C13 1_555 1_555
C14 O3 1_555 1_555

#END
