
#######################################################################
#
#                 Cambridge Crystallographic Data Centre
#                                CCDC 
#
#######################################################################
#
# If this CIF has been generated from an entry in the Cambridge 
# Structural Database, then it will include bibliographic, chemical, 
# crystal, experimental, refinement or atomic coordinate data resulting 
# from the CCDC's data processing and validation procedures.
#
#######################################################################

data_SAQGUP
_chemical_compound_source        
'obtained from an endophytic fungus, Phomopsis sp.917'
_chemical_name_common            'Phomopsiketone A monohydrate'
_chemical_formula_moiety         'C12 H18 O5,H2 O1'
_chemical_name_systematic        
'6,7-dihydroxy-1-(1-hydroxybutyl)-3,5,6,7-tetrahydro-2-benzofuran-4(1H)-one monohydrate'
_symmetry_cell_setting           orthorhombic
_symmetry_space_group_name_H-M   'P 21 21 21'
_symmetry_Int_Tables_number      19
_space_group_name_Hall           'P 2ac 2ab'
loop_
_symmetry_equiv_pos_site_id
_symmetry_equiv_pos_as_xyz
1 x,y,z
2 1/2+x,1/2-y,-z
3 -x,1/2+y,1/2-z
4 1/2-x,-y,1/2+z
_cell_length_a                   7.75660(10)
_cell_length_b                   9.4913(2)
_cell_length_c                   17.9457(3)
_cell_angle_alpha                90
_cell_angle_beta                 90
_cell_angle_gamma                90
_cell_volume                     1321.17
_exptl_crystal_colour            colorless
_exptl_crystal_description       prism
_chemical_melting_point          '91-93 deg.C'
_cell_formula_units_Z            4
loop_
_atom_site_label
_atom_site_type_symbol
_atom_site_fract_x
_atom_site_fract_y
_atom_site_fract_z
O1 O 0.4416(3) 0.3172(2) 0.76297(11)
O2 O 0.2833(3) 0.52580(19) 0.49086(10)
H1 H 0.2348 0.4474 0.4852
O3 O 0.1178(2) 0.40331(19) 0.61379(10)
H2 H 0.0245 0.4268 0.5935
O4 O 0.6842(3) 0.2350(2) 0.55095(10)
O5 O 0.8396(2) 0.5103(2) 0.54570(12)
H3 H 0.7892 0.5837 0.5602
C1 C 0.3082(4) 0.5134(3) 0.70039(14)
H4 H 0.3769 0.5996 0.7096
H5 H 0.2180 0.5077 0.7393
C2 C 0.2224(4) 0.5241(3) 0.62366(15)
H6 H 0.1490 0.6106 0.6216
C3 C 0.3606(4) 0.5315(3) 0.56237(14)
H7 H 0.4220 0.6238 0.5671
C4 C 0.4900(3) 0.4158(3) 0.57332(14)
C5 C 0.6035(4) 0.3541(3) 0.51362(14)
H8 H 0.5312 0.3200 0.4711
C6 C 0.7472(4) 0.4505(3) 0.48455(15)
H9 H 0.8305 0.3881 0.4577
C7 C 0.6913(4) 0.5609(3) 0.42914(15)
H10 H 0.7902 0.6238 0.4186
H11 H 0.5991 0.6189 0.4519
C8 C 0.6251(6) 0.5007(4) 0.35555(18)
H12 H 0.7041 0.4248 0.3392
H13 H 0.5105 0.4577 0.3642
C9 C 0.6100(7) 0.6030(5) 0.2961(2)
H14 H 0.5234 0.6738 0.3095
H15 H 0.5748 0.5553 0.2501
H16 H 0.7215 0.6492 0.2884
C10 C 0.4242(4) 0.3859(3) 0.70594(14)
C11 C 0.5171(4) 0.3513(3) 0.63760(14)
C12 C 0.6490(4) 0.2368(3) 0.62977(14)
H17 H 0.7543 0.2589 0.6587
H18 H 0.6025 0.1451 0.6467
O6 O 0.1925(3) 0.7512(2) 0.40434(10)
H19 H 0.1753 0.7308 0.3726
H20 H 0.2205 0.6829 0.4333
loop_
_geom_bond_atom_site_label_1
_geom_bond_atom_site_label_2
_geom_bond_site_symmetry_1
_geom_bond_site_symmetry_2
O1 C10 1_555 1_555
O2 H1 1_555 1_555
O3 H2 1_555 1_555
O4 C5 1_555 1_555
O5 H3 1_555 1_555
C1 H4 1_555 1_555
H5 C1 1_555 1_555
C2 O3 1_555 1_555
H6 C2 1_555 1_555
C3 O2 1_555 1_555
H7 C3 1_555 1_555
C4 C3 1_555 1_555
C5 C4 1_555 1_555
H8 C5 1_555 1_555
C6 O5 1_555 1_555
H9 C6 1_555 1_555
C7 C6 1_555 1_555
H10 C7 1_555 1_555
H11 C7 1_555 1_555
C8 C7 1_555 1_555
H12 C8 1_555 1_555
H13 C8 1_555 1_555
C9 C8 1_555 1_555
H14 C9 1_555 1_555
H15 C9 1_555 1_555
H16 C9 1_555 1_555
C10 C1 1_555 1_555
C11 C4 1_555 1_555
C12 O4 1_555 1_555
H17 C12 1_555 1_555
H18 C12 1_555 1_555
O6 H19 1_555 1_555
H20 O6 1_555 1_555
C1 C2 1_555 1_555
C2 C3 1_555 1_555
C5 C6 1_555 1_555
C10 C11 1_555 1_555
C11 C12 1_555 1_555

#END
