
#######################################################################
#
#                 Cambridge Crystallographic Data Centre
#                                CCDC 
#
#######################################################################
#
# If this CIF has been generated from an entry in the Cambridge 
# Structural Database, then it will include bibliographic, chemical, 
# crystal, experimental, refinement or atomic coordinate data resulting 
# from the CCDC's data processing and validation procedures.
#
#######################################################################

data_SAQJIF
_chemical_formula_moiety         'C22 H21 N3 O3'
_chemical_name_systematic        
1-Acetyl-3'-cyclopentyl-1'H-spiro[indole-3,2'-quinazoline]-2,4'(1H,3'H)-dione
_symmetry_cell_setting           monoclinic
_symmetry_space_group_name_H-M   'P 21/c'
_symmetry_Int_Tables_number      14
_space_group_name_Hall           '-P 2ybc'
loop_
_symmetry_equiv_pos_site_id
_symmetry_equiv_pos_as_xyz
1 x,y,z
2 -x,1/2+y,1/2-z
3 -x,-y,-z
4 x,1/2-y,1/2+z
_cell_length_a                   8.97510(10)
_cell_length_b                   17.0296(3)
_cell_length_c                   13.2905(2)
_cell_angle_alpha                90
_cell_angle_beta                 100.3370(10)
_cell_angle_gamma                90
_cell_volume                     1998.38
_exptl_crystal_colour            yellow
_exptl_crystal_description       block
_cell_formula_units_Z            4
loop_
_atom_site_label
_atom_site_type_symbol
_atom_site_fract_x
_atom_site_fract_y
_atom_site_fract_z
N1 N 0.67152(18) 0.19490(9) 0.31970(10)
O1 O 0.77142(19) 0.21671(10) 0.17847(10)
C1 C 0.5831(2) 0.12692(12) 0.27241(14)
H1 H 0.5322 0.1041 0.3249
N2 N 0.7327(2) 0.28309(10) 0.46092(12)
C2 C 0.8691(2) 0.29224(12) 0.32417(14)
O2 O 0.90214(17) 0.12760(10) 0.48530(13)
C3 C 0.8506(2) 0.31517(11) 0.42108(14)
N3 N 0.68398(18) 0.10216(10) 0.55122(12)
C4 C 0.5243(2) 0.19494(12) 0.46254(14)
C5 C 0.7689(2) 0.23220(12) 0.26867(13)
C6 C 0.6748(2) 0.20636(11) 0.42954(13)
C7 C 0.7713(2) 0.14094(12) 0.49010(14)
C8 C 0.5365(2) 0.13676(12) 0.53588(14)
C9 C 0.9821(3) 0.32626(15) 0.27917(18)
H2 H 0.9956 0.3101 0.2146
C10 C 0.9427(3) 0.37381(13) 0.47189(18)
H3 H 0.9302 0.3900 0.5367
C11 C 0.3920(2) 0.23498(15) 0.43302(18)
H4 H 0.3842 0.2743 0.3838
O3 O 0.6406(3) 0.00832(14) 0.6609(2)
C12 C 0.6761(3) 0.06079(13) 0.23485(17)
H5 H 0.7736 0.0803 0.2243
H6 H 0.6925 0.0183 0.2842
C13 C 0.7299(3) 0.03498(15) 0.61388(18)
C14 C 0.4598(3) 0.14853(15) 0.18184(17)
H7 H 0.3646 0.1593 0.2041
H8 H 0.4887 0.1942 0.1462
C15 C 1.0736(3) 0.38357(16) 0.3300(2)
H9 H 1.1495 0.4061 0.3002
C16 C 1.0519(3) 0.40759(15) 0.4261(2)
H10 H 1.1124 0.4472 0.4599
C17 C 0.2845(3) 0.15892(19) 0.5531(2)
H11 H 0.2023 0.1474 0.5843
C18 C 0.4155(3) 0.11884(17) 0.5836(2)
H12 H 0.4238 0.0808 0.6346
C19 C 0.2672(3) 0.21515(18) 0.4792(2)
H13 H 0.1745 0.2402 0.4594
C20 C 0.8791(3) 0.00104(16) 0.6141(2)
H14 H 0.8937 -0.0431 0.6597
H15 H 0.9555 0.0398 0.6365
H16 H 0.8862 -0.0159 0.5462
C21 C 0.4473(4) 0.0771(2) 0.1148(2)
H17 H 0.3633 0.0447 0.1269
H18 H 0.4283 0.0927 0.0435
C22 C 0.5845(4) 0.0333(2) 0.1367(3)
H19 H 0.6417 0.0402 0.0819
H20 H 0.5618 -0.0221 0.1416
H21 H 0.733(3) 0.2901(14) 0.5251(8)
loop_
_geom_bond_atom_site_label_1
_geom_bond_atom_site_label_2
_geom_bond_site_symmetry_1
_geom_bond_site_symmetry_2
N1 C1 1_555 1_555
O1 C5 1_555 1_555
C1 H1 1_555 1_555
N2 C3 1_555 1_555
C2 C3 1_555 1_555
O2 C7 1_555 1_555
C3 C10 1_555 1_555
N3 C7 1_555 1_555
C4 C6 1_555 1_555
C5 N1 1_555 1_555
C6 N1 1_555 1_555
C7 C6 1_555 1_555
C8 N3 1_555 1_555
C9 C2 1_555 1_555
H2 C9 1_555 1_555
C10 H3 1_555 1_555
C11 C4 1_555 1_555
H4 C11 1_555 1_555
O3 C13 1_555 1_555
C12 C1 1_555 1_555
H5 C12 1_555 1_555
H6 C12 1_555 1_555
C13 N3 1_555 1_555
C14 C1 1_555 1_555
H7 C14 1_555 1_555
H8 C14 1_555 1_555
C15 C9 1_555 1_555
H9 C15 1_555 1_555
C16 C10 1_555 1_555
H10 C16 1_555 1_555
C17 H11 1_555 1_555
C18 C8 1_555 1_555
H12 C18 1_555 1_555
C19 C11 1_555 1_555
H13 C19 1_555 1_555
C20 C13 1_555 1_555
H14 C20 1_555 1_555
H15 C20 1_555 1_555
H16 C20 1_555 1_555
C21 C14 1_555 1_555
H17 C21 1_555 1_555
H18 C21 1_555 1_555
C22 C12 1_555 1_555
H19 C22 1_555 1_555
H20 C22 1_555 1_555
H21 N2 1_555 1_555
N2 C6 1_555 1_555
C2 C5 1_555 1_555
C4 C8 1_555 1_555
C15 C16 1_555 1_555
C17 C18 1_555 1_555
C17 C19 1_555 1_555
C21 C22 1_555 1_555

#END
