
#######################################################################
#
#                 Cambridge Crystallographic Data Centre
#                                CCDC 
#
#######################################################################
#
# If this CIF has been generated from an entry in the Cambridge 
# Structural Database, then it will include bibliographic, chemical, 
# crystal, experimental, refinement or atomic coordinate data resulting 
# from the CCDC's data processing and validation procedures.
#
#######################################################################

data_SAQKAX
_chemical_formula_moiety         'C26 H19 Cl3 N6 O1'
_chemical_name_systematic        
(S)-1-(4-Chlorophenyl)-2-(3-cyanobenzoyl)-3-(2,4-dichloro-\a-(imidazolylmethyl)benzyl)guanidine
_symmetry_cell_setting           orthorhombic
_symmetry_space_group_name_H-M   'P 21 21 21'
_symmetry_Int_Tables_number      19
_space_group_name_Hall           'P 2ac 2ab'
loop_
_symmetry_equiv_pos_site_id
_symmetry_equiv_pos_as_xyz
1 x,y,z
2 1/2-x,-y,1/2+z
3 1/2+x,1/2-y,-z
4 -x,1/2+y,1/2-z
_cell_length_a                   11.1131(5)
_cell_length_b                   27.558(1)
_cell_length_c                   8.5328(3)
_cell_angle_alpha                90
_cell_angle_beta                 90
_cell_angle_gamma                90
_cell_volume                     2613.21
_exptl_crystal_colour            colorless
_exptl_crystal_description       needle
_chemical_melting_point          233-236deg.C
_cell_formula_units_Z            4
_exptl_crystal_recrystallization_method acetonitrile
loop_
_atom_site_label
_atom_site_type_symbol
_atom_site_fract_x
_atom_site_fract_y
_atom_site_fract_z
Cl1 Cl 0.11194 0.19572 0.57353
Cl2 Cl 0.04925 -0.19271 0.32009
Cl3 Cl -0.09942 -0.16080 -0.26669
O1 O -0.36649 -0.03049 0.49984
N1 N -0.00375 -0.03445 0.39938
N2 N -0.18878 -0.06940 0.43481
N3 N -0.28763 -0.27503 0.26984
N4 N -0.16312 0.01518 0.47292
N5 N 0.21857 -0.07020 0.54633
N6 N 0.30604 -0.03186 0.74256
C1 C 0.04369 -0.08271 0.36823
C2 C -0.12090 -0.02913 0.43654
C3 C -0.30720 -0.06741 0.47014
C4 C -0.36888 -0.11513 0.46568
C5 C -0.31695 -0.15498 0.39813
C6 C -0.37968 -0.19875 0.39310
C7 C -0.49186 -0.20275 0.45925
C8 C -0.54210 -0.16328 0.53172
C9 C -0.48318 -0.11987 0.53484
C10 C -0.32637 -0.24053 0.32126
C11 C -0.09503 0.05767 0.49650
C12 C -0.12069 0.09833 0.41141
C13 C -0.06166 0.14162 0.43543
C14 C 0.02955 0.14323 0.54307
C15 C 0.05587 0.10404 0.63127
C16 C -0.00692 0.06038 0.61066
C17 C 0.18103 -0.08134 0.38640
C18 C 0.20267 -0.09821 0.67769
C19 C 0.25676 -0.07430 0.79836
C20 C 0.28150 -0.03054 0.59371
C21 C 0.01216 -0.10174 0.20715
C22 C 0.01021 -0.15125 0.17312
C23 C -0.02122 -0.17037 0.02980
C24 C -0.05348 -0.13793 -0.08437
C25 C -0.05203 -0.08902 -0.06110
C26 C -0.01940 -0.07117 0.08461
H1 H 0.00770 -0.10870 0.46040
H2 H 0.05480 -0.00250 0.40040
H3 H -0.22530 -0.15330 0.34650
H4 H -0.54480 -0.23690 0.46140
H5 H -0.63450 -0.16700 0.58880
H6 H -0.52400 -0.08980 0.59730
H7 H -0.26290 0.01970 0.48080
H8 H -0.19750 0.09640 0.31930
H9 H -0.08190 0.17510 0.36080
H10 H 0.13260 0.10480 0.71550
H11 H 0.00980 0.03020 0.68430
H12 H 0.21880 -0.05370 0.30800
H13 H 0.22260 -0.11620 0.35330
H14 H 0.16290 -0.13440 0.69210
H15 H 0.25000 -0.08280 0.92970
H16 H 0.30840 -0.00150 0.52230
H17 H -0.02650 -0.21060 0.01040
H18 H -0.07270 -0.06490 -0.15490
H19 H -0.02360 -0.03170 0.11010
loop_
_geom_bond_atom_site_label_1
_geom_bond_atom_site_label_2
_geom_bond_site_symmetry_1
_geom_bond_site_symmetry_2
Cl1 C14 1_555 1_555
Cl2 C22 1_555 1_555
Cl3 C24 1_555 1_555
O1 C3 1_555 1_555
N1 C1 1_555 1_555
N2 C2 1_555 1_555
N3 C10 1_555 1_555
N4 C2 1_555 1_555
N5 C17 1_555 1_555
N6 C19 1_555 1_555
C1 C17 1_555 1_555
C2 N1 1_555 1_555
C3 N2 1_555 1_555
C4 C3 1_555 1_555
C5 C4 1_555 1_555
C6 C5 1_555 1_555
C7 C6 1_555 1_555
C8 C7 1_555 1_555
C9 C4 1_555 1_555
C10 C6 1_555 1_555
C11 N4 1_555 1_555
C12 C11 1_555 1_555
C13 C12 1_555 1_555
C14 C13 1_555 1_555
C15 C14 1_555 1_555
C16 C11 1_555 1_555
C17 H12 1_555 1_555
C18 N5 1_555 1_555
C19 C18 1_555 1_555
C20 N5 1_555 1_555
C21 C1 1_555 1_555
C22 C21 1_555 1_555
C23 C22 1_555 1_555
C24 C23 1_555 1_555
C25 C24 1_555 1_555
C26 C21 1_555 1_555
H1 C1 1_555 1_555
H2 N1 1_555 1_555
H3 C5 1_555 1_555
H4 C7 1_555 1_555
H5 C8 1_555 1_555
H6 C9 1_555 1_555
H7 N4 1_555 1_555
H8 C12 1_555 1_555
H9 C13 1_555 1_555
H10 C15 1_555 1_555
H11 C16 1_555 1_555
H13 C17 1_555 1_555
H14 C18 1_555 1_555
H15 C19 1_555 1_555
H16 C20 1_555 1_555
H17 C23 1_555 1_555
H18 C25 1_555 1_555
H19 C26 1_555 1_555
N6 C20 1_555 1_555
C8 C9 1_555 1_555
C15 C16 1_555 1_555
C25 C26 1_555 1_555

#END
