
#######################################################################
#
#                 Cambridge Crystallographic Data Centre
#                                CCDC 
#
#######################################################################
#
# If this CIF has been generated from an entry in the Cambridge 
# Structural Database, then it will include bibliographic, chemical, 
# crystal, experimental, refinement or atomic coordinate data resulting 
# from the CCDC's data processing and validation procedures.
#
#######################################################################

data_SAQNIH
_chemical_formula_moiety         'C42 H36 Br4 O4,C2 H4 Cl2'
_chemical_name_systematic        
'18,37,40,44-Tetrabromo-11,16,30,35-tetraoxaheptacyclo(34.2.2.2^17,20^.1^3,7^.1^6,10^.1^22,26^.1^25,29^)-hexatetraconta-3,5,7(46),8,10(45),17,19,22,24,26(42),27,29(41),36,38,39,43-hexadecaene 1,2-dichloroethane clathrate'
_symmetry_cell_setting           monoclinic
_symmetry_space_group_name_H-M   'P 21/c'
_symmetry_Int_Tables_number      14
_space_group_name_Hall           '-P 2ybc'
loop_
_symmetry_equiv_pos_site_id
_symmetry_equiv_pos_as_xyz
1 x,y,z
2 -x,1/2+y,1/2-z
3 -x,-y,-z
4 x,1/2-y,1/2+z
_cell_length_a                   12.663(4)
_cell_length_b                   12.775(6)
_cell_length_c                   13.257(7)
_cell_angle_alpha                90
_cell_angle_beta                 108.55(3)
_cell_angle_gamma                90
_cell_volume                     2033.16
_exptl_crystal_colour            white
_chemical_melting_point          'above 240deg.C'
_cell_formula_units_Z            2
loop_
_atom_site_label
_atom_site_type_symbol
_atom_site_fract_x
_atom_site_fract_y
_atom_site_fract_z
Br1 Br 0.5170(1) 0.1050(1) -0.2459(1)
Br2 Br 0.3040(1) 0.1377(1) 0.0683(1)
C1 C -0.3439(3) 0.1080(3) 0.1213(3)
C2 C -0.3176(3) 0.2242(3) 0.1340(3)
C3 C -0.2271(3) 0.2612(3) 0.0906(3)
C4 C -0.2525(3) 0.2907(3) -0.0171(3)
C5 C -0.1714(3) 0.3273(3) -0.0567(3)
C6 C -0.0593(3) 0.3348(3) 0.0078(3)
C7 C -0.0325(3) 0.3050(3) 0.1163(3)
C8 C -0.1181(3) 0.2682(3) 0.1555(3)
C9 C 0.0792(3) 0.3163(3) 0.1830(3)
C10 C 0.1590(3) 0.3542(3) 0.1440(3)
C11 C 0.1319(3) 0.3826(3) 0.0356(3)
C12 C 0.0255(3) 0.3737(3) -0.0307(3)
O1 O 0.2207(2) 0.4193(2) 0.0085(2)
C13 C 0.2006(3) 0.4471(3) -0.1010(3)
C14 C 0.3119(3) 0.4716(3) -0.1146(3)
C15 C 0.4002(3) 0.3867(3) -0.0735(3)
C16 C 0.3645(3) 0.2831(3) -0.1259(3)
O2 O 0.4452(2) 0.2053(2) -0.0705(2)
C17 C 0.4084(3) 0.1044(3) -0.0900(3)
C18 C 0.3454(3) 0.0567(3) -0.0335(3)
C19 C -0.3145(3) 0.0465(3) 0.0475(3)
C20 C 0.4030(3) -0.0615(3) -0.1815(3)
C21 C 0.4338(3) 0.0430(3) -0.1651(3)
H1 H -0.2972 0.2417 0.2077
H2 H -0.3844 0.2618 0.0978
H3 H -0.3281 0.2850 -0.0628
H4 H -0.1913 0.3477 -0.1297
H5 H -0.1002 0.2482 0.2285
H6 H 0.0984 0.2970 0.2563
H7 H 0.2343 0.3623 0.1897
H8 H 0.0080 0.3946 -0.1034
H9 H 0.1509 0.5057 -0.1201
H10 H 0.1674 0.3890 -0.1455
H11 H 0.3380 0.5362 -0.0786
H12 H 0.3018 0.4821 -0.1885
H13 H 0.4141 0.3784 0.0013
H14 H 0.4684 0.4079 -0.0845
H15 H 0.3605 0.2872 -0.1991
H16 H 0.2924 0.2643 -0.1221
H17 H -0.2715 0.0762 0.0068
H18 H 0.4228 -0.1022 -0.2334
C18B C -0.3454(3) -0.0567(3) 0.0335(3)
Br2B Br -0.3040(1) -0.1377(1) -0.0683(1)
C17B C -0.4084(3) -0.1044(3) 0.0900(3)
O2B O -0.4452(2) -0.2053(2) 0.0705(2)
C16B C -0.3645(3) -0.2831(3) 0.1259(3)
C15B C -0.4002(3) -0.3867(3) 0.0735(3)
C14B C -0.3119(3) -0.4716(3) 0.1146(3)
C13B C -0.2006(3) -0.4471(3) 0.1010(3)
O1B O -0.2207(2) -0.4193(2) -0.0085(2)
C11B C -0.1319(3) -0.3826(3) -0.0356(3)
C10B C -0.1590(3) -0.3542(3) -0.1440(3)
C9B C -0.0792(3) -0.3163(3) -0.1830(3)
C7B C 0.0325(3) -0.3050(3) -0.1163(3)
C6B C 0.0593(3) -0.3348(3) -0.0078(3)
C5B C 0.1714(3) -0.3273(3) 0.0567(3)
C4B C 0.2525(3) -0.2907(3) 0.0171(3)
C3B C 0.2271(3) -0.2612(3) -0.0906(3)
C2B C 0.3176(3) -0.2242(3) -0.1340(3)
C1B C 0.3439(3) -0.1080(3) -0.1213(3)
C19B C 0.3145(3) -0.0465(3) -0.0475(3)
H17B H 0.2715 -0.0762 -0.0068
H1B H 0.2972 -0.2417 -0.2077
H2B H 0.3844 -0.2618 -0.0978
C8B C 0.1181(3) -0.2682(3) -0.1555(3)
H5B H 0.1002 -0.2482 -0.2285
H3B H 0.3281 -0.2850 0.0628
H4B H 0.1913 -0.3477 0.1297
C12B C -0.0255(3) -0.3737(3) 0.0307(3)
H8B H -0.0080 -0.3946 0.1034
H6B H -0.0984 -0.2970 -0.2563
H7B H -0.2343 -0.3623 -0.1897
H9B H -0.1509 -0.5057 0.1201
H10B H -0.1674 -0.3890 0.1455
H11B H -0.3380 -0.5362 0.0786
H12B H -0.3018 -0.4821 0.1885
H13B H -0.4141 -0.3784 -0.0013
H14B H -0.4684 -0.4079 0.0845
H15B H -0.3605 -0.2872 0.1991
H16B H -0.2924 -0.2643 0.1221
C21B C -0.4338(3) -0.0430(3) 0.1651(3)
Br1B Br -0.5170(1) -0.1050(1) 0.2459(1)
C20B C -0.4030(3) 0.0615(3) 0.1815(3)
H18B H -0.4228 0.1022 0.2334
Cl1 Cl -0.0107(1) -0.0041(1) 0.1578(1)
C22 C -0.0078(5) 0.0445(4) 0.0320(4)
C22B C 0.0078(5) -0.0445(4) -0.0320(4)
Cl1B Cl 0.0107(1) 0.0041(1) -0.1578(1)
loop_
_geom_bond_atom_site_label_1
_geom_bond_atom_site_label_2
_geom_bond_site_symmetry_1
_geom_bond_site_symmetry_2
Br1 C21 1_555 1_555
Br2 C18 1_555 1_555
C1 C2 1_555 1_555
C2 C3 1_555 1_555
C3 C4 1_555 1_555
C4 C5 1_555 1_555
C5 C6 1_555 1_555
C6 C7 1_555 1_555
C7 C8 1_555 1_555
C8 C3 1_555 1_555
C9 C7 1_555 1_555
C10 C9 1_555 1_555
C11 C10 1_555 1_555
C12 C6 1_555 1_555
O1 C11 1_555 1_555
C13 O1 1_555 1_555
C14 C13 1_555 1_555
C15 C14 1_555 1_555
C16 C15 1_555 1_555
O2 C16 1_555 1_555
C17 O2 1_555 1_555
C18 C17 1_555 1_555
C19 C1 1_555 1_555
C20 C21 1_555 1_555
C21 C17 1_555 1_555
Cl1 C22 1_555 1_555
C22 C22B 1_555 1_555
H1 C2 1_555 1_555
H2 C2 1_555 1_555
H3 C4 1_555 1_555
H4 C5 1_555 1_555
H5 C8 1_555 1_555
H6 C9 1_555 1_555
H7 C10 1_555 1_555
H8 C12 1_555 1_555
H9 C13 1_555 1_555
H10 C13 1_555 1_555
H11 C14 1_555 1_555
H12 C14 1_555 1_555
H13 C15 1_555 1_555
H14 C15 1_555 1_555
H15 C16 1_555 1_555
H16 C16 1_555 1_555
H17 C19 1_555 1_555
H18 C20 1_555 1_555
C18B C19 1_555 1_555
Br2B C18B 1_555 1_555
C17B C18B 1_555 1_555
O2B C17B 1_555 1_555
C16B O2B 1_555 1_555
C15B C16B 1_555 1_555
C14B C15B 1_555 1_555
C13B C14B 1_555 1_555
O1B C13B 1_555 1_555
C11B O1B 1_555 1_555
C10B C11B 1_555 1_555
C9B C10B 1_555 1_555
C7B C9B 1_555 1_555
C6B C7B 1_555 1_555
C5B C6B 1_555 1_555
C4B C5B 1_555 1_555
C3B C4B 1_555 1_555
C2B C3B 1_555 1_555
C1B C20 1_555 1_555
C19B C18 1_555 1_555
H17B C19B 1_555 1_555
H1B C2B 1_555 1_555
H2B C2B 1_555 1_555
C8B C7B 1_555 1_555
H5B C8B 1_555 1_555
H3B C4B 1_555 1_555
H4B C5B 1_555 1_555
C12B C11B 1_555 1_555
H8B C12B 1_555 1_555
H6B C9B 1_555 1_555
H7B C10B 1_555 1_555
H9B C13B 1_555 1_555
H10B C13B 1_555 1_555
H11B C14B 1_555 1_555
H12B C14B 1_555 1_555
H13B C15B 1_555 1_555
H14B C15B 1_555 1_555
H15B C16B 1_555 1_555
H16B C16B 1_555 1_555
C21B C17B 1_555 1_555
Br1B C21B 1_555 1_555
C20B C1 1_555 1_555
H18B C20B 1_555 1_555
C22B Cl1B 1_555 1_555
C11 C12 1_555 1_555
C6B C12B 1_555 1_555
C3B C8B 1_555 1_555
C2B C1B 1_555 1_555
C1B C19B 1_555 1_555
C21B C20B 1_555 1_555

#END
