
#######################################################################
#
#                 Cambridge Crystallographic Data Centre
#                                CCDC 
#
#######################################################################
#
# If this CIF has been generated from an entry in the Cambridge 
# Structural Database, then it will include bibliographic, chemical, 
# crystal, experimental, refinement or atomic coordinate data resulting 
# from the CCDC's data processing and validation procedures.
#
#######################################################################

data_SASMEF
_chemical_formula_moiety         'C13 H13 N1 O2'
_chemical_name_systematic        
3-(Buta-1,2-dienyl)-4-phenyl-1,3-oxazolidin-2-one
_symmetry_cell_setting           orthorhombic
_symmetry_space_group_name_H-M   'P 21 21 21'
_symmetry_Int_Tables_number      19
_space_group_name_Hall           'P 2ac 2ab'
loop_
_symmetry_equiv_pos_site_id
_symmetry_equiv_pos_as_xyz
1 x,y,z
2 1/2-x,-y,1/2+z
3 -x,1/2+y,1/2-z
4 1/2+x,1/2-y,-z
_cell_length_a                   5.9338(5)
_cell_length_b                   8.0456(7)
_cell_length_c                   24.269(2)
_cell_angle_alpha                90
_cell_angle_beta                 90
_cell_angle_gamma                90
_cell_volume                     1158.63
_exptl_crystal_colour            colorless
_exptl_crystal_description       plate
_cell_formula_units_Z            4
loop_
_atom_site_label
_atom_site_type_symbol
_atom_site_fract_x
_atom_site_fract_y
_atom_site_fract_z
O1 O 0.8753(3) 0.0150(2) 0.23477(6)
O2 O 1.1494(2) -0.07682(19) 0.17880(8)
N1 N 0.8310(3) 0.05027(19) 0.14542(6)
C1 C 0.4015(6) -0.0485(5) -0.00593(12)
H1 H 0.4231 -0.0729 -0.0451
H2 H 0.2502 -0.0030 -0.0002
H3 H 0.4187 -0.1510 0.0155
C2 C 0.5729(6) 0.0752(4) 0.01233(10)
H4 H 0.5734 0.1800 -0.0057
C3 C 0.7225(5) 0.0517(3) 0.05105(9)
C4 C 0.8691(4) 0.0222(2) 0.08932(9)
H5 H 1.0114 -0.0212 0.0786
C5 C 0.9693(3) -0.0099(2) 0.18537(9)
C6 C 0.6571(4) 0.0886(3) 0.22905(8)
H6 H 0.6483 0.1932 0.2504
H7 H 0.5392 0.0117 0.2426
C7 C 0.6247(3) 0.1236(2) 0.16714(8)
H8 H 0.4907 0.0615 0.1530
C8 C 0.6017(3) 0.3067(2) 0.15388(7)
C9 C 0.4060(3) 0.3676(2) 0.13056(8)
H9 H 0.2874 0.2935 0.1211
C10 C 0.3819(4) 0.5371(3) 0.12082(9)
H10 H 0.2462 0.5786 0.1052
C11 C 0.5535(4) 0.6444(3) 0.13363(9)
H11 H 0.5369 0.7600 0.1268
C12 C 0.7498(4) 0.5849(3) 0.15639(9)
H12 H 0.8689 0.6594 0.1651
C13 C 0.7741(3) 0.4162(2) 0.16669(8)
H13 H 0.9096 0.3756 0.1826
loop_
_geom_bond_atom_site_label_1
_geom_bond_atom_site_label_2
_geom_bond_site_symmetry_1
_geom_bond_site_symmetry_2
O1 C5 1_555 1_555
O2 C5 1_555 1_555
N1 C4 1_555 1_555
C1 H1 1_555 1_555
H2 C1 1_555 1_555
H3 C1 1_555 1_555
C2 C1 1_555 1_555
H4 C2 1_555 1_555
C3 C2 1_555 1_555
C4 C3 1_555 1_555
H5 C4 1_555 1_555
C5 N1 1_555 1_555
C6 O1 1_555 1_555
H6 C6 1_555 1_555
H7 C6 1_555 1_555
C7 N1 1_555 1_555
H8 C7 1_555 1_555
C8 C7 1_555 1_555
C9 C8 1_555 1_555
H9 C9 1_555 1_555
C10 C9 1_555 1_555
H10 C10 1_555 1_555
C11 C10 1_555 1_555
H11 C11 1_555 1_555
C12 C11 1_555 1_555
H12 C12 1_555 1_555
C13 C8 1_555 1_555
H13 C13 1_555 1_555
C6 C7 1_555 1_555
C12 C13 1_555 1_555

#END
