
#######################################################################
#
#                 Cambridge Crystallographic Data Centre
#                                CCDC 
#
#######################################################################
#
# If this CIF has been generated from an entry in the Cambridge 
# Structural Database, then it will include bibliographic, chemical, 
# crystal, experimental, refinement or atomic coordinate data resulting 
# from the CCDC's data processing and validation procedures.
#
#######################################################################

data_SASXUI
_chemical_compound_source        'whole plant of Caryopteris nepetaefolia'
_chemical_name_common            'Nepetaefolin B'
_chemical_formula_moiety         'C20 H30 O4'
_chemical_name_systematic        
'(1R,2S,6S,7R,12S)-12-isopropyl-2,6-dimethyl-13,14-dioxatetracyclo[10.2.2.0^1,10^.0^2,7^]hexadec-10-ene-6-carboxylic acid'
_symmetry_cell_setting           monoclinic
_symmetry_space_group_name_H-M   'P 21'
_symmetry_Int_Tables_number      4
_space_group_name_Hall           'P 2yb'
loop_
_symmetry_equiv_pos_site_id
_symmetry_equiv_pos_as_xyz
1 x,y,z
2 -x,1/2+y,-z
_cell_length_a                   10.6476(3)
_cell_length_b                   9.1795(3)
_cell_length_c                   19.1840(5)
_cell_angle_alpha                90
_cell_angle_beta                 92.356(2)
_cell_angle_gamma                90
_cell_volume                     1873.45
_exptl_crystal_colour            colorless
_exptl_crystal_description       block
_chemical_melting_point          '162.2-163.9 deg.C'
_cell_formula_units_Z            4
loop_
_atom_site_label
_atom_site_type_symbol
_atom_site_fract_x
_atom_site_fract_y
_atom_site_fract_z
O1 O 0.3342(3) 0.4159(4) 0.53751(19)
H1 H 0.2903 0.4022 0.5020
O2 O 0.3740(4) 0.1827(5) 0.5251(3)
O3 O 0.3968(4) 0.1109(6) 0.82381(19)
O4 O 0.4180(5) 0.0001(7) 0.8793(2)
C1 C 0.4641(5) 0.3786(6) 0.7450(2)
H2 H 0.4077 0.3915 0.7830
H3 H 0.5493 0.3937 0.7635
C2 C 0.4346(6) 0.4909(6) 0.6901(3)
H4 H 0.4431 0.5875 0.7103
H5 H 0.3484 0.4792 0.6727
C3 C 0.5235(5) 0.4759(6) 0.6296(3)
H6 H 0.6087 0.4970 0.6465
H7 H 0.5005 0.5469 0.5939
C4 C 0.5195(4) 0.3218(5) 0.5971(2)
C5 C 0.5396(4) 0.2043(5) 0.6550(2)
H8 H 0.6230 0.2274 0.6756
C6 C 0.5539(7) 0.0463(7) 0.6291(3)
H9 H 0.5163 0.0412 0.5822
H10 H 0.6430 0.0273 0.6255
C7 C 0.5023(8) -0.0697(6) 0.6685(3)
H11 H 0.5483 -0.1582 0.6590
H12 H 0.4158 -0.0848 0.6523
C8 C 0.5048(5) -0.0466(6) 0.7456(2)
C9 C 0.4946(4) 0.1069(5) 0.77375(19)
C10 C 0.4517(4) 0.2213(5) 0.7173(2)
C11 C 0.6189(6) 0.1370(8) 0.8160(3)
H13 H 0.6886 0.1385 0.7851
H14 H 0.6147 0.2311 0.8388
C12 C 0.6393(6) 0.0159(9) 0.8712(3)
H15 H 0.7155 -0.0376 0.8623
H16 H 0.6484 0.0589 0.9173
C13 C 0.5273(5) -0.0871(9) 0.8680(3)
C14 C 0.5203(5) -0.1461(7) 0.7949(3)
H17 H 0.5263 -0.2450 0.7852
C15 C 0.5294(7) -0.2023(10) 0.9257(4)
H18 H 0.5378 -0.1509 0.9704
C16 C 0.4165(10) -0.2819(14) 0.9255(6)
H19 H 0.3522 -0.2235 0.9453
H20 H 0.4289 -0.3689 0.9527
H21 H 0.3916 -0.3075 0.8784
C17 C 0.6339(10) -0.3037(15) 0.9228(6)
H22 H 0.6147 -0.3769 0.8882
H23 H 0.6476 -0.3492 0.9675
H24 H 0.7083 -0.2520 0.9107
C18 C 0.4000(3) 0.3045(5) 0.5505(2)
C19 C 0.6275(4) 0.3125(8) 0.5460(3)
H25 H 0.6220 0.3931 0.5142
H26 H 0.6210 0.2228 0.5204
H27 H 0.7066 0.3157 0.5718
C20 C 0.3125(4) 0.1940(6) 0.6976(2)
H28 H 0.2621 0.2218 0.7358
H29 H 0.2999 0.0925 0.6876
H30 H 0.2884 0.2506 0.6572
O5 O 0.1480(3) 0.3908(4) 0.4444(2)
O6 O 0.1657(4) 0.1527(5) 0.4480(3)
O7 O 0.0689(4) 0.0913(4) 0.15325(16)
O8 O 0.0516(4) -0.0184(5) 0.09782(16)
C21 C -0.0276(5) 0.3251(6) 0.2429(3)
H31 H 0.0137 0.3565 0.2014
H32 H -0.1164 0.3131 0.2308
C22 C -0.0115(6) 0.4423(6) 0.2991(3)
H33 H 0.0773 0.4607 0.3084
H34 H -0.0501 0.5322 0.2824
C23 C -0.0706(5) 0.3963(6) 0.3656(3)
H35 H -0.1609 0.3907 0.3571
H36 H -0.0543 0.4710 0.4006
C24 C -0.0242(4) 0.2504(5) 0.3950(2)
C25 C -0.0346(3) 0.1327(5) 0.33578(19)
H37 H -0.1244 0.1326 0.3225
C26 C -0.0104(6) -0.0251(5) 0.3603(2)
H38 H 0.0320 -0.0223 0.4060
H39 H -0.0909 -0.0725 0.3655
C27 C 0.0671(5) -0.1173(5) 0.3124(2)
H40 H 0.1552 -0.0928 0.3198
H41 H 0.0567 -0.2193 0.3240
C28 C 0.0288(4) -0.0938(5) 0.2370(2)
C29 C -0.0063(4) 0.0570(5) 0.21204(19)
C30 C 0.0277(4) 0.1778(5) 0.26733(19)
C31 C -0.1427(4) 0.0528(7) 0.1839(2)
H42 H -0.1982 0.0350 0.2219
H43 H -0.1651 0.1459 0.1630
C32 C -0.1582(5) -0.0675(7) 0.1297(2)
H44 H -0.1922 -0.0273 0.0861
H45 H -0.2164 -0.1405 0.1456
C33 C -0.0306(5) -0.1370(7) 0.1184(2)
C34 C 0.0180(5) -0.1930(6) 0.1876(2)
H46 H 0.0389 -0.2902 0.1951
C35 C -0.0311(6) -0.2445(8) 0.0575(3)
H47 H -0.0652 -0.1930 0.0162
C36 C 0.1006(8) -0.2934(13) 0.0417(5)
H48 H 0.1528 -0.2095 0.0353
H49 H 0.0978 -0.3511 0.0000
H50 H 0.1347 -0.3505 0.0799
C37 C -0.1163(8) -0.3738(10) 0.0696(4)
H51 H -0.0906 -0.4211 0.1125
H52 H -0.1107 -0.4414 0.0317
H53 H -0.2015 -0.3408 0.0723
C38 C 0.1053(4) 0.2661(5) 0.4302(2)
C39 C -0.1096(5) 0.2088(8) 0.4541(3)
H54 H -0.1066 0.2838 0.4890
H55 H -0.0814 0.1185 0.4746
H56 H -0.1944 0.1979 0.4358
C40 C 0.1715(4) 0.1918(6) 0.2742(3)
H57 H 0.2022 0.2332 0.2323
H58 H 0.2080 0.0972 0.2817
H59 H 0.1941 0.2538 0.3131
H60 H 0.227(11) 0.17(2) 0.470(7)
loop_
_geom_bond_atom_site_label_1
_geom_bond_atom_site_label_2
_geom_bond_site_symmetry_1
_geom_bond_site_symmetry_2
O1 H1 1_555 1_555
O2 C18 1_555 1_555
O3 O4 1_555 1_555
O4 C13 1_555 1_555
C1 H2 1_555 1_555
H3 C1 1_555 1_555
C2 C1 1_555 1_555
H4 C2 1_555 1_555
H5 C2 1_555 1_555
C3 C2 1_555 1_555
H6 C3 1_555 1_555
H7 C3 1_555 1_555
C4 C3 1_555 1_555
C5 C4 1_555 1_555
H8 C5 1_555 1_555
C6 C5 1_555 1_555
H9 C6 1_555 1_555
H10 C6 1_555 1_555
C7 C6 1_555 1_555
H11 C7 1_555 1_555
H12 C7 1_555 1_555
C8 C7 1_555 1_555
C9 O3 1_555 1_555
C10 C1 1_555 1_555
C11 C9 1_555 1_555
H13 C11 1_555 1_555
H14 C11 1_555 1_555
C12 C11 1_555 1_555
H15 C12 1_555 1_555
H16 C12 1_555 1_555
C13 C12 1_555 1_555
C14 C8 1_555 1_555
H17 C14 1_555 1_555
C15 C13 1_555 1_555
H18 C15 1_555 1_555
C16 C15 1_555 1_555
H19 C16 1_555 1_555
H20 C16 1_555 1_555
H21 C16 1_555 1_555
C17 C15 1_555 1_555
H22 C17 1_555 1_555
H23 C17 1_555 1_555
H24 C17 1_555 1_555
C18 O1 1_555 1_555
C19 C4 1_555 1_555
H25 C19 1_555 1_555
H26 C19 1_555 1_555
H27 C19 1_555 1_555
C20 C10 1_555 1_555
H28 C20 1_555 1_555
H29 C20 1_555 1_555
H30 C20 1_555 1_555
O5 C38 1_555 1_555
O6 C38 1_555 1_555
O7 O8 1_555 1_555
O8 C33 1_555 1_555
C21 H31 1_555 1_555
H32 C21 1_555 1_555
C22 C21 1_555 1_555
H33 C22 1_555 1_555
H34 C22 1_555 1_555
C23 C22 1_555 1_555
H35 C23 1_555 1_555
H36 C23 1_555 1_555
C24 C23 1_555 1_555
C25 C24 1_555 1_555
H37 C25 1_555 1_555
C26 C25 1_555 1_555
H38 C26 1_555 1_555
H39 C26 1_555 1_555
C27 C26 1_555 1_555
H40 C27 1_555 1_555
H41 C27 1_555 1_555
C28 C27 1_555 1_555
C29 O7 1_555 1_555
C30 C21 1_555 1_555
C31 C29 1_555 1_555
H42 C31 1_555 1_555
H43 C31 1_555 1_555
C32 C31 1_555 1_555
H44 C32 1_555 1_555
H45 C32 1_555 1_555
C33 C32 1_555 1_555
C34 C28 1_555 1_555
H46 C34 1_555 1_555
C35 C33 1_555 1_555
H47 C35 1_555 1_555
C36 C35 1_555 1_555
H48 C36 1_555 1_555
H49 C36 1_555 1_555
H50 C36 1_555 1_555
C37 C35 1_555 1_555
H51 C37 1_555 1_555
H52 C37 1_555 1_555
H53 C37 1_555 1_555
C38 C24 1_555 1_555
C39 C24 1_555 1_555
H54 C39 1_555 1_555
H55 C39 1_555 1_555
H56 C39 1_555 1_555
C40 C30 1_555 1_555
H57 C40 1_555 1_555
H58 C40 1_555 1_555
H59 C40 1_555 1_555
H60 O6 1_555 1_555
C4 C18 1_555 1_555
C5 C10 1_555 1_555
C8 C9 1_555 1_555
C9 C10 1_555 1_555
C13 C14 1_555 1_555
C25 C30 1_555 1_555
C28 C29 1_555 1_555
C29 C30 1_555 1_555
C33 C34 1_555 1_555

#END
