
#######################################################################
#
#                 Cambridge Crystallographic Data Centre
#                                CCDC 
#
#######################################################################
#
# If this CIF has been generated from an entry in the Cambridge 
# Structural Database, then it will include bibliographic, chemical, 
# crystal, experimental, refinement or atomic coordinate data resulting 
# from the CCDC's data processing and validation procedures.
#
#######################################################################

data_SATLUX
_chemical_formula_moiety         'C18 H15 Cl2 I1 N2 O3,C2 H6 O1 S1'
_chemical_name_systematic        
'(R*,R*,R*)-5-benzoyl-4-(dichloromethyl)-4-hydroxy-6-(2-iodophenyl)tetrahydropyrimidin-2(1H)-one dimethyl sulfoxide solvate'
_symmetry_cell_setting           monoclinic
_symmetry_space_group_name_H-M   'P 21/n'
_symmetry_Int_Tables_number      14
_space_group_name_Hall           '-P 2yn'
loop_
_symmetry_equiv_pos_site_id
_symmetry_equiv_pos_as_xyz
1 x,y,z
2 1/2-x,1/2+y,1/2-z
3 -x,-y,-z
4 1/2+x,1/2-y,1/2+z
_cell_length_a                   8.290(6)
_cell_length_b                   17.042(5)
_cell_length_c                   16.52(1)
_cell_angle_alpha                90
_cell_angle_beta                 99.95(5)
_cell_angle_gamma                90
_cell_volume                     2298.81
_exptl_crystal_colour            colorless
_exptl_crystal_description       prism
_cell_formula_units_Z            4
loop_
_atom_site_label
_atom_site_type_symbol
_atom_site_fract_x
_atom_site_fract_y
_atom_site_fract_z
I1 I 0.68016(9) 0.19565(5) 0.32123(4)
Cl1 Cl 1.2055(3) 0.16926(13) 0.01863(13)
Cl2 Cl 1.2813(2) 0.12528(14) 0.19000(13)
O1 O 0.6547(6) 0.0380(3) -0.0513(2)
O2 O 0.9400(7) 0.2014(2) 0.1214(3)
H1 H 0.9640 0.2293 0.0848
O3 O 0.9795(7) -0.0463(3) 0.1219(3)
N1 N 0.6596(7) 0.0457(4) 0.0855(3)
H2 H 0.5739 0.0166 0.0818
N2 N 0.8706(7) 0.0974(3) 0.0269(3)
H3 H 0.9083 0.1076 -0.0173
C1 C 0.7227(9) 0.0591(4) 0.0179(4)
C2 C 0.9693(8) 0.1222(4) 0.1041(4)
C3 C 0.9196(8) 0.0764(4) 0.1757(4)
H4 H 0.9637 0.1044 0.2266
C4 C 0.7299(8) 0.0783(4) 0.1655(4)
H5 H 0.6954 0.1332 0.1668
C5 C 1.1487(8) 0.1083(4) 0.0953(4)
H6 H 1.1606 0.0535 0.0794
C6 C 0.9864(8) -0.0070(4) 0.1837(4)
C7 C 0.6696(8) 0.0353(5) 0.2346(4)
C8 C 0.6466(9) 0.0747(7) 0.3060(4)
C9 C 0.5967(12) 0.0339(9) 0.3714(5)
H7 H 0.5789 0.0603 0.4183
C10 C 0.5750(14) -0.0453(10) 0.3647(7)
H8 H 0.5447 -0.0729 0.4083
C11 C 0.5968(13) -0.0849(8) 0.2955(7)
H9 H 0.5811 -0.1390 0.2921
C12 C 0.6423(11) -0.0444(6) 0.2306(5)
H10 H 0.6547 -0.0715 0.1832
C13 C 1.0569(8) -0.0399(4) 0.2654(4)
C14 C 1.1130(13) -0.1171(5) 0.2677(5)
H11 H 1.1045 -0.1463 0.2196
C15 C 1.1809(15) -0.1499(6) 0.3420(7)
H12 H 1.2160 -0.2018 0.3429
C16 C 1.1984(12) -0.1104(5) 0.4123(6)
H13 H 1.2482 -0.1340 0.4610
C17 C 1.1420(12) -0.0341(5) 0.4126(5)
H14 H 1.1519 -0.0061 0.4615
C18 C 1.0697(11) 0.0004(5) 0.3383(4)
H15 H 1.0296 0.0513 0.3383
S1 S 0.2234(4) 0.18499(16) 0.4493(2)
O4 O 0.3959(10) 0.1980(4) 0.4924(5)
C19 C 0.1837(18) 0.2557(9) 0.3684(8)
H16 H 0.2462 0.2429 0.3264
H17 H 0.2143 0.3070 0.3899
H18 H 0.0691 0.2554 0.3454
C20 C 0.0953(15) 0.2250(9) 0.5116(9)
H19 H 0.1007 0.1937 0.5603
H20 H -0.0152 0.2257 0.4822
H21 H 0.1298 0.2776 0.5265
loop_
_geom_bond_atom_site_label_1
_geom_bond_atom_site_label_2
_geom_bond_site_symmetry_1
_geom_bond_site_symmetry_2
I1 C8 1_555 1_555
Cl1 C5 1_555 1_555
Cl2 C5 1_555 1_555
O1 C1 1_555 1_555
O2 H1 1_555 1_555
O3 C6 1_555 1_555
N1 H2 1_555 1_555
N2 H3 1_555 1_555
C1 N1 1_555 1_555
C2 O2 1_555 1_555
C3 C2 1_555 1_555
H4 C3 1_555 1_555
C4 N1 1_555 1_555
H5 C4 1_555 1_555
C5 C2 1_555 1_555
H6 C5 1_555 1_555
C6 C3 1_555 1_555
C7 C4 1_555 1_555
C8 C7 1_555 1_555
C9 C8 1_555 1_555
H7 C9 1_555 1_555
C10 C9 1_555 1_555
H8 C10 1_555 1_555
C11 C10 1_555 1_555
H9 C11 1_555 1_555
C12 C7 1_555 1_555
H10 C12 1_555 1_555
C13 C6 1_555 1_555
C14 C13 1_555 1_555
H11 C14 1_555 1_555
C15 C14 1_555 1_555
H12 C15 1_555 1_555
C16 C15 1_555 1_555
H13 C16 1_555 1_555
C17 C16 1_555 1_555
H14 C17 1_555 1_555
C18 C13 1_555 1_555
H15 C18 1_555 1_555
S1 O4 1_555 1_555
C19 S1 1_555 1_555
H16 C19 1_555 1_555
H17 C19 1_555 1_555
H18 C19 1_555 1_555
C20 S1 1_555 1_555
H19 C20 1_555 1_555
H20 C20 1_555 1_555
H21 C20 1_555 1_555
N2 C1 1_555 1_555
N2 C2 1_555 1_555
C3 C4 1_555 1_555
C11 C12 1_555 1_555
C17 C18 1_555 1_555

#END
