
#######################################################################
#
#                 Cambridge Crystallographic Data Centre
#                                CCDC 
#
#######################################################################
#
# If this CIF has been generated from an entry in the Cambridge 
# Structural Database, then it will include bibliographic, chemical, 
# crystal, experimental, refinement or atomic coordinate data resulting 
# from the CCDC's data processing and validation procedures.
#
#######################################################################

data_SATTAI
_chemical_formula_moiety         'C31 H27 N1 O2 P2,C2 H6 O1,2.5(H2 O1)'
_chemical_name_systematic        
'2,6-bis(Diphenylphosphorylmethyl)pyridine ethanol solvate hydrate'
_symmetry_cell_setting           monoclinic
_symmetry_space_group_name_H-M   'P 21/c'
_symmetry_Int_Tables_number      14
_space_group_name_Hall           '-P 2ybc'
loop_
_symmetry_equiv_pos_site_id
_symmetry_equiv_pos_as_xyz
1 x,y,z
2 -x,1/2+y,1/2-z
3 -x,-y,-z
4 x,1/2-y,1/2+z
_cell_length_a                   9.392(3)
_cell_length_b                   18.903(6)
_cell_length_c                   17.736(6)
_cell_angle_alpha                90
_cell_angle_beta                 96.81(3)
_cell_angle_gamma                90
_cell_volume                     3126.58
_exptl_crystal_colour            colorless
_cell_formula_units_Z            4
loop_
_atom_site_label
_atom_site_type_symbol
_atom_site_fract_x
_atom_site_fract_y
_atom_site_fract_z
N1 N 0.7819(8) 0.1190(5) 0.0963(5)
C1 C 0.7607(10) 0.1078(6) 0.1697(6)
C2 C 0.7830(12) 0.1632(7) 0.2219(7)
C3 C 0.8224(12) 0.2279(7) 0.1963(7)
C4 C 0.8431(11) 0.2384(6) 0.1211(8)
C5 C 0.8233(11) 0.1829(7) 0.0722(6)
C6 C 0.7106(10) 0.0368(6) 0.1901(5)
P1 P 0.5224(3) 0.0231(2) 0.1587(2)
C7 C 0.4696(8) 0.0797(4) 0.2995(4)
C8 C 0.3778 0.1078 0.3480
C9 C 0.2360 0.1235 0.3205
C10 C 0.1860 0.1109 0.2445
C11 C 0.2778 0.0828 0.1959
C12 C 0.4196 0.0671 0.2234
C13 C 0.4676(9) -0.0984(5) 0.2399(4)
C14 C 0.4490 -0.1713 0.2463
C15 C 0.4599 -0.2151 0.1839
C16 C 0.4894 -0.1860 0.1152
C17 C 0.5080 -0.1131 0.1088
C18 C 0.4971 -0.0693 0.1712
C19 C 0.8505(10) 0.1870(6) -0.0112(5)
P2 P 1.0323(3) 0.1563(2) -0.0208(2)
C20 C 1.1320(8) 0.1840(4) -0.1601(4)
C21 C 1.1408 0.1701 -0.2367
C22 C 1.0546 0.1179 -0.2742
C23 C 0.9595 0.0796 -0.2352
C24 C 0.9508 0.0935 -0.1586
C25 C 1.0370 0.1457 -0.1211
C26 C 1.2918(10) 0.2047(4) 0.0439(5)
C27 C 1.3936 0.2557 0.0695
C28 C 1.3592 0.3274 0.0627
C29 C 1.2230 0.3481 0.0303
C30 C 1.1212 0.2971 0.0047
C31 C 1.1555 0.2255 0.0115
O1 O 0.4849(6) 0.0465(4) 0.0795(3)
O2 O 1.0625(7) 0.0894(4) 0.0221(4)
H15 H 0.7708 0.1562 0.2743
H16 H 0.8360 0.2668 0.2313
H17 H 0.8707 0.2840 0.1038
H18 H 0.7651 0.0017 0.1670
H19 H 0.7260 0.0318 0.2443
H20 H 0.5673 0.0689 0.3184
H21 H 0.4122 0.1165 0.4004
H22 H 0.1728 0.1429 0.3540
H23 H 0.0883 0.1217 0.2256
H24 H 0.2434 0.0741 0.1436
H25 H 0.4601 -0.0683 0.2829
H26 H 0.4287 -0.1913 0.2936
H27 H 0.4471 -0.2652 0.1883
H28 H 0.4969 -0.2161 0.0723
H29 H 0.5283 -0.0931 0.0615
H30 H 0.7824 0.1577 -0.0413
H31 H 0.8400 0.2351 -0.0284
H32 H 1.1914 0.2200 -0.1343
H33 H 1.2062 0.1964 -0.2635
H34 H 1.0606 0.1083 -0.3269
H35 H 0.9002 0.0436 -0.2610
H36 H 0.8854 0.0672 -0.1318
H37 H 1.3154 0.1554 0.0485
H38 H 1.4874 0.2414 0.0917
H39 H 1.4293 0.3624 0.0803
H40 H 1.1994 0.3974 0.0256
H41 H 1.0274 0.3114 -0.0176
O3 O 0.7562(7) 0.0144(4) 0.0005(4)
H1 H 0.6714 -0.0098 0.0118
H2 H 0.7379 0.0370 -0.0481
O4 O 0.8895(50) 0.0310(16) 0.5713(11)
H3 H 0.8705 0.0128 0.5205
H4 H 0.9366 0.0759 0.5703
O5 O 0.6739(35) 0.0685(16) 0.5836(13)
H5 H 0.6415 0.0533 0.6303
H6 H 0.6665 0.1190 0.5796
C32 C 0.8861(13) 0.0459(7) 0.3845(5)
C33 C 0.8118(12) 0.1134(7) 0.4105(6)
O7 O 0.7340(15) 0.1513(7) 0.4493(8)
H9 H 0.7638 0.1259 0.3615
H10 H 0.8974 0.1412 0.4209
H11 H 0.8953 0.0550 0.3320
H12 H 0.8022 0.0177 0.3881
H13 H 0.9694 0.0211 0.4073
H14 H 0.6422 0.1235 0.4577
O6? O 0.5622(28) 0.0131(17) 0.4840(20)
H7? H 0.6194 -0.0241 0.4664
H8? H 0.5345 0.0454 0.4431
loop_
_geom_bond_atom_site_label_1
_geom_bond_atom_site_label_2
_geom_bond_site_symmetry_1
_geom_bond_site_symmetry_2
N1 C1 1_555 1_555
C1 C2 1_555 1_555
C2 C3 1_555 1_555
C3 C4 1_555 1_555
C4 C5 1_555 1_555
C5 N1 1_555 1_555
C6 C1 1_555 1_555
P1 C6 1_555 1_555
C7 C8 1_555 1_555
C8 C9 1_555 1_555
C9 C10 1_555 1_555
C10 C11 1_555 1_555
C11 C12 1_555 1_555
C12 P1 1_555 1_555
C13 C14 1_555 1_555
C14 C15 1_555 1_555
C15 C16 1_555 1_555
C16 C17 1_555 1_555
C17 C18 1_555 1_555
C18 P1 1_555 1_555
C19 C5 1_555 1_555
P2 C19 1_555 1_555
C20 C21 1_555 1_555
C21 C22 1_555 1_555
C22 C23 1_555 1_555
C23 C24 1_555 1_555
C24 C25 1_555 1_555
C25 P2 1_555 1_555
C26 C27 1_555 1_555
C27 C28 1_555 1_555
C28 C29 1_555 1_555
C29 C30 1_555 1_555
C30 C31 1_555 1_555
C31 P2 1_555 1_555
O1 P1 1_555 1_555
O2 P2 1_555 1_555
O3 H1 1_555 1_555
O4 H3 1_555 1_555
O5 H5 1_555 1_555
C32 C33 1_555 1_555
C33 O7 1_555 1_555
O7 H14 1_555 1_555
H2 O3 1_555 1_555
H4 O4 1_555 1_555
H6 O5 1_555 1_555
H9 C33 1_555 1_555
H10 C33 1_555 1_555
H11 C32 1_555 1_555
H12 C32 1_555 1_555
H13 C32 1_555 1_555
H15 C2 1_555 1_555
H16 C3 1_555 1_555
H17 C4 1_555 1_555
H18 C6 1_555 1_555
H19 C6 1_555 1_555
H20 C7 1_555 1_555
H21 C8 1_555 1_555
H22 C9 1_555 1_555
H23 C10 1_555 1_555
H24 C11 1_555 1_555
H25 C13 1_555 1_555
H26 C14 1_555 1_555
H27 C15 1_555 1_555
H28 C16 1_555 1_555
H29 C17 1_555 1_555
H30 C19 1_555 1_555
H31 C19 1_555 1_555
H32 C20 1_555 1_555
H33 C21 1_555 1_555
H34 C22 1_555 1_555
H35 C23 1_555 1_555
H36 C24 1_555 1_555
H37 C26 1_555 1_555
H38 C27 1_555 1_555
H39 C28 1_555 1_555
H40 C29 1_555 1_555
H41 C30 1_555 1_555
C7 C12 1_555 1_555
C13 C18 1_555 1_555
C20 C25 1_555 1_555
C26 C31 1_555 1_555

#END
