
#######################################################################
#
#                 Cambridge Crystallographic Data Centre
#                                CCDC 
#
#######################################################################
#
# If this CIF has been generated from an entry in the Cambridge 
# Structural Database, then it will include bibliographic, chemical, 
# crystal, experimental, refinement or atomic coordinate data resulting 
# from the CCDC's data processing and validation procedures.
#
#######################################################################

data_SAVBID
_chemical_compound_source        'the fungus Stachybotrys chartarum'
_chemical_formula_moiety         'C23 H32 O4'
_chemical_name_systematic        
4,6'-dihydroxy-2',5',5',6,8a'-pentamethyl-3',4',4a',5',6',7',8',8a'-octahydro-2'H,3H-spiro[1-benzofuran-2,1'-naphthalene]-7-carbaldehyde
_chemical_properties_biological  'anti-HIV activity'
_symmetry_cell_setting           orthorhombic
_symmetry_space_group_name_H-M   'P 21 21 21'
_symmetry_Int_Tables_number      19
_space_group_name_Hall           'P 2ac 2ab'
loop_
_symmetry_equiv_pos_site_id
_symmetry_equiv_pos_as_xyz
1 x,y,z
2 1/2-x,-y,1/2+z
3 1/2+x,1/2-y,-z
4 -x,1/2+y,1/2-z
_cell_length_a                   11.014(3)
_cell_length_b                   13.291(4)
_cell_length_c                   13.869(5)
_cell_angle_alpha                90
_cell_angle_beta                 90
_cell_angle_gamma                90
_cell_volume                     2030.24
_exptl_crystal_colour            colorless
_exptl_crystal_description       Prism
_cell_formula_units_Z            4
_exptl_crystal_recrystallization_method 'dimethyl sulfoxide/acetone 1:1'
loop_
_atom_site_label
_atom_site_type_symbol
_atom_site_fract_x
_atom_site_fract_y
_atom_site_fract_z
O1 O -0.4806(3) -1.0671(2) -0.1006(3)
H1 H -0.5211 -1.1011 -0.1380
O2 O -0.1851(3) -0.8716(2) -0.1163(2)
O3 O -0.0534(4) -0.6276(3) 0.0965(3)
H2 H -0.0357 -0.5677 0.0957
O4 O -0.3636(4) -0.6896(3) -0.2973(3)
C1 C -0.2988(4) -0.9859(3) 0.0339(4)
H3 H -0.2830 -0.9513 0.0942
H4 H -0.3382 -0.9387 -0.0092
C2 C -0.3848(5) -1.0738(4) 0.0530(4)
H5 H -0.3484 -1.1186 0.1001
H6 H -0.4600 -1.0484 0.0800
C3 C -0.4121(4) -1.1321(4) -0.0384(3)
H7 H -0.4637 -1.1894 -0.0212
C4 C -0.2975(4) -1.1731(3) -0.0884(4)
C5 C -0.2045(4) -1.0856(3) -0.1009(3)
H8 H -0.2429 -1.0398 -0.1471
C6 C -0.0862(5) -1.1182(4) -0.1500(4)
H9 H -0.0380 -1.1576 -0.1052
H10 H -0.1048 -1.1602 -0.2052
C7 C -0.0146(5) -1.0278(4) -0.1823(4)
H11 H -0.0590 -0.9941 -0.2334
H12 H 0.0620 -1.0505 -0.2091
C8 C 0.0115(4) -0.9517(4) -0.1020(4)
H13 H 0.0663 -0.9845 -0.0561
C9 C -0.1053(4) -0.9245(3) -0.0467(3)
C10 C -0.1776(4) -1.0186(3) -0.0106(3)
C11 C -0.0789(4) -0.8447(3) 0.0337(3)
H14 H -0.1211 -0.8611 0.0930
H15 H 0.0074 -0.8393 0.0466
C12 C 0.0783(6) -0.8599(5) -0.1421(5)
H16 H 0.0892 -0.8112 -0.0917
H17 H 0.0316 -0.8307 -0.1934
H18 H 0.1562 -0.8802 -0.1664
C13 C -0.2503(5) -1.2628(3) -0.0298(4)
H19 H -0.2361 -1.2421 0.0356
H20 H -0.1757 -1.2866 -0.0575
H21 H -0.3094 -1.3159 -0.0307
C14 C -0.3336(5) -1.2139(4) -0.1874(4)
H22 H -0.2674 -1.2520 -0.2139
H23 H -0.3525 -1.1588 -0.2296
H24 H -0.4035 -1.2565 -0.1810
C15 C -0.1003(5) -1.0713(4) 0.0668(4)
H25 H -0.0266 -1.0956 0.0383
H26 H -0.1450 -1.1268 0.0934
H27 H -0.0811 -1.0243 0.1172
C16 C -0.1277(4) -0.7494(3) -0.0105(3)
C17 C -0.1190(4) -0.6504(3) 0.0170(3)
C18 C -0.1764(4) -0.5771(3) -0.0392(4)
H28 H -0.1708 -0.5101 -0.0203
C19 C -0.2411(4) -0.6001(3) -0.1218(4)
C20 C -0.2489(4) -0.7023(3) -0.1518(3)
C21 C -0.1903(4) -0.7731(3) -0.0933(3)
C22 C -0.3016(5) -0.5178(4) -0.1790(5)
H29 H -0.3879 -0.5280 -0.1787
H30 H -0.2723 -0.5193 -0.2442
H31 H -0.2830 -0.4538 -0.1506
C23 C -0.3122(5) -0.7387(4) -0.2360(4)
H32 H -0.3137 -0.8081 -0.2442
loop_
_geom_bond_atom_site_label_1
_geom_bond_atom_site_label_2
_geom_bond_site_symmetry_1
_geom_bond_site_symmetry_2
O1 H1 1_555 1_555
O2 C9 1_555 1_555
O3 H2 1_555 1_555
O4 C23 1_555 1_555
C1 H3 1_555 1_555
H4 C1 1_555 1_555
C2 C1 1_555 1_555
H5 C2 1_555 1_555
H6 C2 1_555 1_555
C3 O1 1_555 1_555
H7 C3 1_555 1_555
C4 C3 1_555 1_555
C5 C4 1_555 1_555
H8 C5 1_555 1_555
C6 C5 1_555 1_555
H9 C6 1_555 1_555
H10 C6 1_555 1_555
C7 C6 1_555 1_555
H11 C7 1_555 1_555
H12 C7 1_555 1_555
C8 C7 1_555 1_555
H13 C8 1_555 1_555
C9 C8 1_555 1_555
C10 C1 1_555 1_555
C11 C9 1_555 1_555
H14 C11 1_555 1_555
H15 C11 1_555 1_555
C12 C8 1_555 1_555
H16 C12 1_555 1_555
H17 C12 1_555 1_555
H18 C12 1_555 1_555
C13 C4 1_555 1_555
H19 C13 1_555 1_555
H20 C13 1_555 1_555
H21 C13 1_555 1_555
C14 C4 1_555 1_555
H22 C14 1_555 1_555
H23 C14 1_555 1_555
H24 C14 1_555 1_555
C15 C10 1_555 1_555
H25 C15 1_555 1_555
H26 C15 1_555 1_555
H27 C15 1_555 1_555
C16 C11 1_555 1_555
C17 O3 1_555 1_555
C18 C17 1_555 1_555
H28 C18 1_555 1_555
C19 C18 1_555 1_555
C20 C19 1_555 1_555
C21 O2 1_555 1_555
C22 C19 1_555 1_555
H29 C22 1_555 1_555
H30 C22 1_555 1_555
H31 C22 1_555 1_555
C23 C20 1_555 1_555
H32 C23 1_555 1_555
C2 C3 1_555 1_555
C5 C10 1_555 1_555
C9 C10 1_555 1_555
C16 C17 1_555 1_555
C16 C21 1_555 1_555
C20 C21 1_555 1_555

#END
