
#######################################################################
#
#                 Cambridge Crystallographic Data Centre
#                                CCDC 
#
#######################################################################
#
# If this CIF has been generated from an entry in the Cambridge 
# Structural Database, then it will include bibliographic, chemical, 
# crystal, experimental, refinement or atomic coordinate data resulting 
# from the CCDC's data processing and validation procedures.
#
#######################################################################

data_SAVHOP
_chemical_name_common            
'14,15,29,30-Tetrahydro-5H,20H-dibenzo[h,s]bis([1,2,3]triazolo)[5,1-c:5 ,1 -n][1,4,7,12,15,18]hexaazacyclodocosine-6,12,13,21,27,28-(7H,22H)-hexaone dimethyl sulfoxide solvate'
_chemical_formula_moiety         'C26 H22 N10 O6,4(C2 H6 O1 S1)'
_chemical_name_systematic        
"4H,19H-dibenzo[h,s]bis[1,2,3]triazolo[5,1-c:5',1'-n][1,4,7,12,15,18]hexaazacyclodocosine-6,7,13,21,22,28(5H,12H,14H,20H,27H,29H)-hexone dimethyl sulfoxide solvate"
_symmetry_cell_setting           triclinic
_symmetry_space_group_name_H-M   'P -1'
_symmetry_Int_Tables_number      2
_space_group_name_Hall           '-P 1'
loop_
_symmetry_equiv_pos_site_id
_symmetry_equiv_pos_as_xyz
1 x,y,z
2 -x,-y,-z
_cell_length_a                   9.7434(5)
_cell_length_b                   9.8225(5)
_cell_length_c                   12.0241(6)
_cell_angle_alpha                92.357(2)
_cell_angle_beta                 104.697(3)
_cell_angle_gamma                106.384(2)
_cell_volume                     1060.01
_exptl_crystal_colour            'light yellow'
_exptl_crystal_description       plate
_cell_formula_units_Z            1
loop_
_atom_site_label
_atom_site_type_symbol
_atom_site_fract_x
_atom_site_fract_y
_atom_site_fract_z
S1 S 0.67090(7) 0.31061(7) 0.26481(6)
O1 O 0.54677(19) 0.32896(19) 0.31076(15)
C1 C 0.8341(3) 0.3673(3) 0.3841(2)
H1 H 0.8547 0.4686 0.4104
H2 H 0.9187 0.3538 0.3599
H3 H 0.8188 0.3106 0.4475
C2 C 0.6486(3) 0.1246(3) 0.2531(2)
H4 H 0.6439 0.0896 0.3276
H5 H 0.7334 0.1072 0.2317
H6 H 0.5563 0.0741 0.1935
S2 S 0.31332(10) 0.37210(7) 0.89020(7)
O2 O 0.2560(3) 0.4236(3) 0.98302(19)
C3 C 0.4133(4) 0.2579(3) 0.9475(3)
H7 H 0.4521 0.2227 0.8882
H8 H 0.4964 0.3098 1.0140
H9 H 0.3479 0.1769 0.9725
C4 C 0.1549(4) 0.2486(4) 0.7935(3)
H10 H 0.1838 0.2098 0.7297
H11 H 0.1125 0.1706 0.8347
H12 H 0.0806 0.2970 0.7626
O3 O 0.44271(19) 0.22491(19) 0.69133(14)
O4 O 0.66463(18) 0.12590(16) 0.54636(13)
O5 O 0.83187(18) 0.45084(15) 0.66665(13)
N1 N 0.15211(19) 0.26228(17) 0.31114(14)
N2 N 0.0206(2) 0.15887(18) 0.26884(15)
N3 N -0.0055(2) 0.08697(19) 0.35498(16)
N4 N 0.4742(2) 0.29283(18) 0.51985(15)
H19 H 0.5244 0.2919 0.4686
N5 N 0.7568(2) 0.41487(17) 0.83021(15)
H20 H 0.7205 0.4528 0.8793
C5 C 0.1077(2) 0.1446(2) 0.45095(19)
H21 H 0.1154 0.1122 0.5250
C6 C 0.2093(2) 0.2567(2) 0.42528(18)
C7 C 0.3534(2) 0.3569(2) 0.4962(2)
H22 H 0.3810 0.4414 0.4552
H23 H 0.3407 0.3904 0.5707
C8 C 0.5099(2) 0.2359(2) 0.61731(18)
C9 C 0.6428(2) 0.1773(2) 0.63088(18)
C10 C 0.7253(2) 0.1676(2) 0.75181(18)
C11 C 0.7505(2) 0.0373(2) 0.77335(19)
H24 H 0.7265 -0.0351 0.7105
C12 C 0.8099(3) 0.0118(2) 0.88442(19)
H25 H 0.8256 -0.0780 0.8980
C13 C 0.8463(3) 0.1167(2) 0.97556(19)
H26 H 0.8843 0.0983 1.0525
C14 C 0.8276(3) 0.2487(2) 0.95542(19)
H27 H 0.8555 0.3215 1.0185
C15 C 0.7688(2) 0.2757(2) 0.84419(18)
C16 C 0.2125(3) 0.3548(2) 0.23328(19)
H28 H 0.1574 0.3132 0.1524
H29 H 0.3179 0.3591 0.2445
C17 C 0.7964(2) 0.4937(2) 0.74825(18)
O3A O 0.55729(19) 0.77509(19) 0.30867(14)
O4A O 0.33537(18) 0.87410(16) 0.45364(13)
O5A O 0.16813(18) 0.54916(15) 0.33335(13)
N1A N 0.84789(19) 0.73772(17) 0.68886(14)
N2A N 0.9794(2) 0.84113(18) 0.73116(15)
N3A N 1.0055(2) 0.91303(19) 0.64502(16)
N4A N 0.5258(2) 0.70717(18) 0.48015(15)
H19A H 0.4756 0.7081 0.5314
N5A N 0.2432(2) 0.58513(17) 0.16979(15)
H20A H 0.2795 0.5472 0.1207
C5A C 0.8923(2) 0.8554(2) 0.54905(19)
H21A H 0.8846 0.8878 0.4750
C6A C 0.7907(2) 0.7433(2) 0.57472(18)
C7A C 0.6466(2) 0.6431(2) 0.5038(2)
H22A H 0.6190 0.5586 0.5448
H23A H 0.6593 0.6096 0.4293
C8A C 0.4901(2) 0.7641(2) 0.38269(18)
C9A C 0.3572(2) 0.8227(2) 0.36912(18)
C10A C 0.2747(2) 0.8324(2) 0.24819(18)
C11A C 0.2495(2) 0.9627(2) 0.22665(19)
H24A H 0.2735 1.0351 0.2895
C12A C 0.1901(3) 0.9882(2) 0.11558(19)
H25A H 0.1744 1.0780 0.1020
C13A C 0.1537(3) 0.8833(2) 0.02444(19)
H26A H 0.1157 0.9017 -0.0525
C14A C 0.1724(3) 0.7513(2) 0.04458(19)
H27A H 0.1445 0.6785 -0.0185
C15A C 0.2312(2) 0.7243(2) 0.15581(18)
C16A C 0.7875(3) 0.6452(2) 0.76672(19)
H28A H 0.8426 0.6868 0.8476
H29A H 0.6821 0.6409 0.7555
C17A C 0.2036(2) 0.5063(2) 0.25175(18)
H13? H 0.4005 0.1639 0.9082
H14? H 0.4777 0.3323 0.9156
H15? H 0.4591 0.2617 1.0306
H16? H 0.1329 0.1451 0.7765
H17? H 0.0640 0.2754 0.7638
H18? H 0.2305 0.2981 0.7564
S3? S 0.2125(6) 0.2908(5) 0.9228(4)
loop_
_geom_bond_atom_site_label_1
_geom_bond_atom_site_label_2
_geom_bond_site_symmetry_1
_geom_bond_site_symmetry_2
S1 O1 1_555 1_555
C1 S1 1_555 1_555
H1 C1 1_555 1_555
H2 C1 1_555 1_555
H3 C1 1_555 1_555
C2 S1 1_555 1_555
H4 C2 1_555 1_555
H5 C2 1_555 1_555
H6 C2 1_555 1_555
S2 O2 1_555 1_555
C3 S2 1_555 1_555
H7 C3 1_555 1_555
H8 C3 1_555 1_555
H9 C3 1_555 1_555
C4 S2 1_555 1_555
H10 C4 1_555 1_555
H11 C4 1_555 1_555
H12 C4 1_555 1_555
O3 C8 1_555 1_555
O4 C9 1_555 1_555
O5 C17 1_555 1_555
N1 N2 1_555 1_555
N2 N3 1_555 1_555
N3 C5 1_555 1_555
N4 H19 1_555 1_555
N5 H20 1_555 1_555
C5 H21 1_555 1_555
C6 N1 1_555 1_555
C7 N4 1_555 1_555
H22 C7 1_555 1_555
H23 C7 1_555 1_555
C8 N4 1_555 1_555
C9 C8 1_555 1_555
C10 C9 1_555 1_555
C11 C10 1_555 1_555
H24 C11 1_555 1_555
C12 C11 1_555 1_555
H25 C12 1_555 1_555
C13 C12 1_555 1_555
H26 C13 1_555 1_555
C14 C13 1_555 1_555
H27 C14 1_555 1_555
C15 N5 1_555 1_555
C16 N1 1_555 1_555
H28 C16 1_555 1_555
H29 C16 1_555 1_555
C17 N5 1_555 1_555
O3A C8A 1_555 1_555
O4A C9A 1_555 1_555
O5A C17A 1_555 1_555
N1A N2A 1_555 1_555
N2A N3A 1_555 1_555
N3A C5A 1_555 1_555
N4A H19A 1_555 1_555
N5A H20A 1_555 1_555
C5A H21A 1_555 1_555
C6A N1A 1_555 1_555
C7A N4A 1_555 1_555
H22A C7A 1_555 1_555
H23A C7A 1_555 1_555
C8A N4A 1_555 1_555
C9A C8A 1_555 1_555
C10A C9A 1_555 1_555
C11A C10A 1_555 1_555
H24A C11A 1_555 1_555
C12A C11A 1_555 1_555
H25A C12A 1_555 1_555
C13A C12A 1_555 1_555
H26A C13A 1_555 1_555
C14A C13A 1_555 1_555
H27A C14A 1_555 1_555
C15A N5A 1_555 1_555
C16A C17 1_555 1_555
H28A C16A 1_555 1_555
H29A C16A 1_555 1_555
C17A C16 1_555 1_555
C5 C6 1_555 1_555
C6 C7 1_555 1_555
C10 C15 1_555 1_555
C14 C15 1_555 1_555
N1A C16A 1_555 1_555
N5A C17A 1_555 1_555
C5A C6A 1_555 1_555
C6A C7A 1_555 1_555
C10A C15A 1_555 1_555
C14A C15A 1_555 1_555

#END
