
#######################################################################
#
#                 Cambridge Crystallographic Data Centre
#                                CCDC 
#
#######################################################################
#
# If this CIF has been generated from an entry in the Cambridge 
# Structural Database, then it will include bibliographic, chemical, 
# crystal, experimental, refinement or atomic coordinate data resulting 
# from the CCDC's data processing and validation procedures.
#
#######################################################################

data_SAVMUA
_chemical_compound_source        
'isolated from the roots of Sophora flavescens Ait.'
_chemical_name_common            'Sophopterocarpan A'
_chemical_formula_moiety         'C16 H16 O6'
_chemical_name_systematic        
1,11,16-trihydroxy-6-methoxy-3-oxatetracyclo[10.3.1.0^2,10^.0^4,9^]hexadeca-4,6,8,14-tetraen-13-one
_symmetry_cell_setting           monoclinic
_symmetry_space_group_name_H-M   'P 21'
_symmetry_Int_Tables_number      4
_space_group_name_Hall           'P 2yb'
loop_
_symmetry_equiv_pos_site_id
_symmetry_equiv_pos_as_xyz
1 x,y,z
2 -x,1/2+y,-z
_cell_length_a                   7.0259(3)
_cell_length_b                   6.8005(3)
_cell_length_c                   14.1172(6)
_cell_angle_alpha                90
_cell_angle_beta                 93.843(4)
_cell_angle_gamma                90
_cell_volume                     672.998
_cell_formula_units_Z            2
loop_
_atom_site_label
_atom_site_type_symbol
_atom_site_fract_x
_atom_site_fract_y
_atom_site_fract_z
O1 O 0.6836(3) 0.0723(3) 0.44872(14)
O2 O 1.4204(3) 0.0066(3) 0.11168(12)
H1 H 1.4126 -0.0037 0.0537
O3 O 1.2895(3) 0.0615(3) 0.30175(12)
O4 O 0.8952(3) 0.6021(3) 0.11230(14)
C1 C 0.9896(4) 0.0448(5) 0.37792(18)
H2 H 0.9953 -0.0911 0.3847
C2 C 1.1325(4) 0.1489(4) 0.33736(17)
O5 O 1.4913(2) 0.6599(3) 0.21116(13)
H3 H 1.4873 0.7665 0.1839
C3 C 1.1301(4) 0.3514(4) 0.32675(17)
C4 C 0.8313(4) 0.3578(5) 0.39839(18)
H4 H 0.7288 0.4281 0.4195
O6 O 1.5381(2) 0.3999(3) 0.07048(12)
H5 H 1.5729 0.4713 0.1151
C5 C 0.9780(4) 0.4574(5) 0.35734(19)
H6 H 0.9737 0.5934 0.3506
C6 C 1.3418(3) 0.3517(4) 0.07608(17)
H7 H 1.2895 0.3202 0.0118
C7 C 1.3018(3) 0.5825(4) 0.21382(17)
H8 H 1.2185 0.6844 0.2375
C8 C 1.0993(4) 0.1234(5) 0.12734(17)
H9 H 1.0626 -0.0078 0.1300
C9 C 1.3111(3) 0.1721(4) 0.13881(17)
C10 C 1.3129(3) 0.4109(4) 0.28366(17)
H10 H 1.4051 0.4467 0.3360
C11 C 1.2258(3) 0.5224(4) 0.11253(17)
H11 H 1.2394 0.6352 0.0703
C12 C 1.3764(3) 0.2109(4) 0.24392(17)
H12 H 1.5156 0.2001 0.2522
C13 C 0.9641(3) 0.2599(5) 0.11365(17)
H13 H 0.8370 0.2218 0.1047
C14 C 0.6610(4) -0.1364(5) 0.44017(19)
H14 H 0.6583 -0.1730 0.3744
H15 H 0.5436 -0.1751 0.4659
H16 H 0.7658 -0.2010 0.4745
C15 C 0.8362(4) 0.1538(5) 0.40818(18)
C16 C 1.0136(3) 0.4706(5) 0.11249(17)
loop_
_geom_bond_atom_site_label_1
_geom_bond_atom_site_label_2
_geom_bond_site_symmetry_1
_geom_bond_site_symmetry_2
O1 C14 1_555 1_555
O2 H1 1_555 1_555
O3 C2 1_555 1_555
O4 C16 1_555 1_555
C1 H2 1_555 1_555
C2 C1 1_555 1_555
O5 H3 1_555 1_555
C3 C2 1_555 1_555
C4 H4 1_555 1_555
O6 H5 1_555 1_555
C5 C3 1_555 1_555
H6 C5 1_555 1_555
C6 O6 1_555 1_555
H7 C6 1_555 1_555
C7 O5 1_555 1_555
H8 C7 1_555 1_555
C8 H9 1_555 1_555
C9 O2 1_555 1_555
C10 C3 1_555 1_555
H10 C10 1_555 1_555
C11 C6 1_555 1_555
H11 C11 1_555 1_555
C12 O3 1_555 1_555
H12 C12 1_555 1_555
C13 C8 1_555 1_555
H13 C13 1_555 1_555
C14 H14 1_555 1_555
H15 C14 1_555 1_555
H16 C14 1_555 1_555
C15 O1 1_555 1_555
C16 C11 1_555 1_555
C1 C15 1_555 1_555
C4 C5 1_555 1_555
C4 C15 1_555 1_555
C6 C9 1_555 1_555
C7 C10 1_555 1_555
C7 C11 1_555 1_555
C8 C9 1_555 1_555
C9 C12 1_555 1_555
C10 C12 1_555 1_555
C13 C16 1_555 1_555

#END
