
#######################################################################
#
#                 Cambridge Crystallographic Data Centre
#                                CCDC 
#
#######################################################################
#
# If this CIF has been generated from an entry in the Cambridge 
# Structural Database, then it will include bibliographic, chemical, 
# crystal, experimental, refinement or atomic coordinate data resulting 
# from the CCDC's data processing and validation procedures.
#
#######################################################################

data_SAWFOM01
_chemical_formula_moiety         'C16 H23 N3 O6'
_chemical_name_systematic        
'diethyl 1-(1-anilino-2-ethoxy-2-oxoethyl)hydrazine-1,2-dicarboxylate'
_symmetry_cell_setting           monoclinic
_symmetry_space_group_name_H-M   'C c'
_symmetry_Int_Tables_number      9
_space_group_name_Hall           'C -2yc'
loop_
_symmetry_equiv_pos_site_id
_symmetry_equiv_pos_as_xyz
1 x,y,z
2 x,-y,1/2+z
3 1/2+x,1/2+y,z
4 1/2+x,1/2-y,1/2+z
_cell_length_a                   9.5250(18)
_cell_length_b                   21.180(4)
_cell_length_c                   9.7484(18)
_cell_angle_alpha                90
_cell_angle_beta                 109.51(2)
_cell_angle_gamma                90
_cell_volume                     1853.72
_exptl_crystal_colour            colorless
_exptl_crystal_description       block
_cell_formula_units_Z            4
loop_
_atom_site_label
_atom_site_type_symbol
_atom_site_fract_x
_atom_site_fract_y
_atom_site_fract_z
O1 O 0.2180(5) 0.29035(18) -0.2751(4)
O2 O 0.4015(3) 0.30282(12) -0.0627(3)
O3 O 0.2591(3) 0.24421(12) 0.2357(3)
O4 O 0.0808(3) 0.31703(13) 0.2087(3)
O5 O 0.1613(3) 0.40273(13) -0.0465(4)
O6 O -0.0840(4) 0.40461(13) -0.1829(4)
N1 N 0.1030(4) 0.19503(14) -0.1637(4)
H1 H 0.0835 0.2020 -0.2551
N2 N 0.1236(3) 0.27877(13) 0.0117(3)
N3 N 0.0110(3) 0.31712(13) -0.0724(3)
H2 H -0.0783 0.3028 -0.1091
C1 C 0.0756(5) 0.12146(18) 0.0199(4)
H3 H 0.1462 0.1433 0.0942
C2 C 0.0083(6) 0.06787(19) 0.0512(5)
H4 H 0.0343 0.0541 0.1471
C3 C -0.0969(6) 0.0346(2) -0.0574(6)
H5 H -0.1411 -0.0014 -0.0356
C4 C -0.1348(5) 0.0560(2) -0.1983(5)
H6 H -0.2060 0.0343 -0.2722
C5 C -0.0691(5) 0.10909(18) -0.2319(4)
H7 H -0.0961 0.1226 -0.3279
C6 C 0.0370(4) 0.14246(16) -0.1235(4)
C7 C 0.1997(4) 0.23750(15) -0.0641(4)
H8 H 0.2773 0.2133 0.0085
C8 C 0.2725(5) 0.27964(18) -0.1481(5)
C9 C 0.4729(6) 0.3488(2) -0.1302(6)
H9 H 0.4102 0.3858 -0.1602
H10 H 0.4875 0.3304 -0.2156
C10 C 0.6193(6) 0.3669(3) -0.0220(7)
H11 H 0.6700 0.3952 -0.0667
H12 H 0.6788 0.3297 0.0109
H13 H 0.6035 0.3874 0.0594
C11 C 0.1626(4) 0.27785(16) 0.1599(4)
C12 C 0.1214(6) 0.3191(2) 0.3670(5)
H14 H 0.2229 0.3341 0.4105
H15 H 0.1145 0.2773 0.4048
C13 C 0.0168(8) 0.3626(3) 0.4014(7)
H16 H -0.0834 0.3518 0.3436
H17 H 0.0377 0.4051 0.3802
H18 H 0.0282 0.3591 0.5027
C14 C 0.0423(5) 0.37754(17) -0.0966(4)
C15 C -0.0779(9) 0.4709(2) -0.2130(6)
H19 H -0.1674 0.4913 -0.2084
H20 H 0.0067 0.4897 -0.1389
C16 C -0.0652(12) 0.4816(3) -0.3490(8)
H21 H -0.1412 0.4583 -0.4213
H22 H 0.0310 0.4679 -0.3485
H23 H -0.0768 0.5258 -0.3712
loop_
_geom_bond_atom_site_label_1
_geom_bond_atom_site_label_2
_geom_bond_site_symmetry_1
_geom_bond_site_symmetry_2
O1 C8 1_555 1_555
O2 C8 1_555 1_555
O3 C11 1_555 1_555
O4 C11 1_555 1_555
O5 C14 1_555 1_555
O6 C14 1_555 1_555
N1 H1 1_555 1_555
N2 N3 1_555 1_555
N3 H2 1_555 1_555
C1 H3 1_555 1_555
C2 C1 1_555 1_555
H4 C2 1_555 1_555
C3 C2 1_555 1_555
H5 C3 1_555 1_555
C4 C3 1_555 1_555
H6 C4 1_555 1_555
C5 C4 1_555 1_555
H7 C5 1_555 1_555
C6 N1 1_555 1_555
C7 N1 1_555 1_555
H8 C7 1_555 1_555
C8 C7 1_555 1_555
C9 O2 1_555 1_555
H9 C9 1_555 1_555
H10 C9 1_555 1_555
C10 C9 1_555 1_555
H11 C10 1_555 1_555
H12 C10 1_555 1_555
H13 C10 1_555 1_555
C11 N2 1_555 1_555
C12 O4 1_555 1_555
H14 C12 1_555 1_555
H15 C12 1_555 1_555
C13 C12 1_555 1_555
H16 C13 1_555 1_555
H17 C13 1_555 1_555
H18 C13 1_555 1_555
C14 N3 1_555 1_555
C15 O6 1_555 1_555
H19 C15 1_555 1_555
H20 C15 1_555 1_555
C16 C15 1_555 1_555
H21 C16 1_555 1_555
H22 C16 1_555 1_555
H23 C16 1_555 1_555
N2 C7 1_555 1_555
C1 C6 1_555 1_555
C5 C6 1_555 1_555

#END
