
#######################################################################
#
#                 Cambridge Crystallographic Data Centre
#                                CCDC 
#
#######################################################################
#
# If this CIF has been generated from an entry in the Cambridge 
# Structural Database, then it will include bibliographic, chemical, 
# crystal, experimental, refinement or atomic coordinate data resulting 
# from the CCDC's data processing and validation procedures.
#
#######################################################################

data_SAXBIE
_chemical_formula_moiety         'C26 H21 N3 O4,0.5(H2 O1)'
_chemical_name_systematic        
"Methyl 2,2''-dioxo-4'-phenyl-1,1'',2,2''-tetrahydrodispiro[indole-3,2'-pyrrolidine-3',3''-indole]-5'-carboxylate hemihydrate"
_symmetry_cell_setting           monoclinic
_symmetry_space_group_name_H-M   'P 21/c'
_symmetry_Int_Tables_number      14
_space_group_name_Hall           '-P 2ybc'
loop_
_symmetry_equiv_pos_site_id
_symmetry_equiv_pos_as_xyz
1 x,y,z
2 -x,1/2+y,1/2-z
3 -x,-y,-z
4 x,1/2-y,1/2+z
_cell_length_a                   11.9588(9)
_cell_length_b                   27.872(2)
_cell_length_c                   13.5866(15)
_cell_angle_alpha                90
_cell_angle_beta                 103.376(9)
_cell_angle_gamma                90
_cell_volume                     4405.78
_exptl_crystal_colour            colorless
_exptl_crystal_description       block
_cell_formula_units_Z            8
loop_
_atom_site_label
_atom_site_type_symbol
_atom_site_fract_x
_atom_site_fract_y
_atom_site_fract_z
O1 O 0.1976(2) 0.04589(10) 0.4890(2)
O2 O 0.1972(2) 0.22392(9) 0.3362(2)
O3 O 0.0860(3) 0.21463(11) 0.6064(3)
O4 O -0.0631(2) 0.16628(11) 0.5647(3)
N1 N 0.3647(3) 0.05600(12) 0.4354(2)
N2 N 0.2226(3) 0.15242(11) 0.5254(2)
H3 H 0.271(4) 0.1461(14) 0.591(4)
N3 N 0.2135(3) 0.17231(14) 0.2090(3)
C1 C 0.2686(3) 0.07136(13) 0.4610(3)
C2 C 0.2621(3) 0.12615(12) 0.4475(3)
C3 C 0.3811(3) 0.13753(13) 0.4356(2)
C4 C 0.4358(3) 0.09440(13) 0.4238(3)
C5 C 0.5455(3) 0.09277(14) 0.4085(3)
H5 H 0.5790 0.0638 0.3972
C6 C 0.6043(3) 0.13576(15) 0.4106(3)
H6 H 0.6791 0.1357 0.4016
C7 C 0.5536(3) 0.17849(15) 0.4258(3)
H7 H 0.5948 0.2069 0.4278
C8 C 0.4412(3) 0.17996(14) 0.4382(3)
H8 H 0.4073 0.2090 0.4482
C9 C 0.1614(3) 0.13765(12) 0.3487(2)
C10 C 0.1931(3) 0.18377(13) 0.3002(3)
C11 C 0.1539(3) 0.10158(13) 0.2634(3)
C12 C 0.1907(3) 0.12420(15) 0.1855(3)
C13 C 0.1981(4) 0.10008(18) 0.0974(3)
H9 H 0.2231 0.1157 0.0459
C14 C 0.1674(4) 0.05268(19) 0.0892(4)
H10 H 0.1730 0.0355 0.0318
C15 C 0.1283(4) 0.03015(17) 0.1647(3)
H11 H 0.1063 -0.0019 0.1568
C16 C 0.1208(3) 0.05414(14) 0.2523(3)
H12 H 0.0938 0.0385 0.3027
C17 C 0.0545(3) 0.14754(12) 0.3946(3)
H13 H 0.0349 0.1814 0.3812
C18 C 0.1006(3) 0.14313(13) 0.5105(3)
H14 H 0.0882 0.1105 0.5326
C19 C -0.0527(3) 0.11928(13) 0.3468(3)
C20 C -0.1236(3) 0.13777(15) 0.2597(3)
H15 H -0.1063 0.1671 0.2343
C21 C -0.2208(3) 0.11234(17) 0.2101(3)
H16 H -0.2684 0.1250 0.1519
C22 C -0.2465(3) 0.06919(16) 0.2462(4)
H17 H -0.3105 0.0521 0.2119
C23 C -0.1773(3) 0.05069(14) 0.3340(3)
H18 H -0.1959 0.0216 0.3599
C24 C -0.0804(3) 0.07564(13) 0.3829(3)
H19 H -0.0331 0.0628 0.4411
C25 C 0.0436(3) 0.17909(14) 0.5665(3)
C26 C -0.1297(4) 0.19729(19) 0.6148(4)
H20 H -0.1418 0.2276 0.5803
H21 H -0.0888 0.2023 0.6837
H22 H -0.2026 0.1826 0.6137
H42 H 0.374(3) 0.0235(15) 0.435(3)
H44 H 0.227(4) 0.1932(15) 0.174(4)
O5 O 0.5004(2) 0.02331(9) 0.8740(2)
O6 O 0.4641(2) 0.20663(9) 0.7553(2)
O7 O 0.5855(2) 0.04010(9) 0.6245(2)
O8 O 0.7292(2) 0.09379(9) 0.6526(2)
N4 N 0.2948(3) 0.18848(12) 0.7993(2)
N5 N 0.4460(2) 0.10367(11) 0.6972(2)
H4 H 0.443(3) 0.0693(13) 0.695(3)
N6 N 0.4795(3) 0.06575(12) 1.0132(2)
C27 C 0.4988(3) 0.06113(13) 0.9192(3)
C28 C 0.5180(3) 0.11130(12) 0.8799(3)
C29 C 0.5228(3) 0.14218(12) 0.9725(2)
C30 C 0.4940(3) 0.11359(13) 1.0470(3)
C31 C 0.4857(3) 0.13216(16) 1.1392(3)
H23 H 0.4649 0.1128 1.1878
C32 C 0.5089(4) 0.17996(16) 1.1570(3)
H24 H 0.5033 0.1933 1.2184
C33 C 0.5401(4) 0.20849(15) 1.0855(3)
H25 H 0.5577 0.2406 1.0999
C34 C 0.5460(3) 0.18993(13) 0.9912(3)
H26 H 0.5652 0.2095 0.9423
C35 C 0.4130(3) 0.12263(12) 0.7860(3)
C36 C 0.2952(3) 0.10700(12) 0.7978(3)
C37 C 0.2327(3) 0.14751(14) 0.8074(3)
C38 C 0.1209(4) 0.14453(17) 0.8195(3)
H27 H 0.0798 0.1719 0.8282
C39 C 0.0724(4) 0.09927(19) 0.8183(3)
H28 H -0.0024 0.0962 0.8265
C40 C 0.1329(4) 0.05903(17) 0.8051(4)
H29 H 0.0983 0.0290 0.8027
C41 C 0.2464(3) 0.06268(15) 0.7954(3)
H30 H 0.2880 0.0353 0.7873
C42 C 0.3986(3) 0.17811(13) 0.7769(3)
C43 C 0.6230(3) 0.10865(13) 0.8291(3)
H31 H 0.6519 0.0757 0.8394
C44 C 0.5687(3) 0.11338(12) 0.7132(3)
H32 H 0.5803 0.1460 0.6908
C45 C 0.7243(3) 0.14059(17) 0.8719(3)
C46 C 0.8122(4) 0.1217(2) 0.9478(4)
H33 H 0.8072 0.0902 0.9687
C47 C 0.9072(5) 0.1492(4) 0.9927(6)
H34 H 0.9640 0.1363 1.0445
C48 C 0.9172(7) 0.1946(4) 0.9612(8)
H35 H 0.9808 0.2130 0.9912
C49 C 0.8349(6) 0.2131(3) 0.8862(6)
H36 H 0.8440 0.2441 0.8636
C50 C 0.7349(5) 0.18704(19) 0.8406(4)
H37 H 0.6775 0.2009 0.7906
C51 C 0.6252(3) 0.07804(13) 0.6567(3)
C52 C 0.7992(4) 0.06231(16) 0.6076(3)
H38 H 0.7638 0.0580 0.5372
H39 H 0.8063 0.0318 0.6413
H40 H 0.8740 0.0762 0.6144
H41 H 0.262(3) 0.2185(13) 0.801(3)
H43 H 0.473(4) 0.0395(15) 1.059(4)
O9 O 0.2626(4) 0.22898(15) 0.0543(4)
H1 H 0.3254 0.2417 0.0856
H2 H 0.2159 0.2508 0.0272
loop_
_geom_bond_atom_site_label_1
_geom_bond_atom_site_label_2
_geom_bond_site_symmetry_1
_geom_bond_site_symmetry_2
O1 C1 1_555 1_555
O2 C10 1_555 1_555
O3 C25 1_555 1_555
O4 C25 1_555 1_555
O5 C27 1_555 1_555
O6 C42 1_555 1_555
O7 C51 1_555 1_555
O8 C51 1_555 1_555
O9 H1 1_555 1_555
H2 O9 1_555 1_555
N1 C1 1_555 1_555
N2 H3 1_555 1_555
N3 C10 1_555 1_555
N4 C37 1_555 1_555
N5 H4 1_555 1_555
N6 C27 1_555 1_555
C1 C2 1_555 1_555
C2 N2 1_555 1_555
C3 C2 1_555 1_555
C4 N1 1_555 1_555
C5 C4 1_555 1_555
H5 C5 1_555 1_555
C6 C5 1_555 1_555
H6 C6 1_555 1_555
C7 C6 1_555 1_555
H7 C7 1_555 1_555
C8 C3 1_555 1_555
H8 C8 1_555 1_555
C9 C2 1_555 1_555
C10 C9 1_555 1_555
C11 C9 1_555 1_555
C12 N3 1_555 1_555
C13 C12 1_555 1_555
H9 C13 1_555 1_555
C14 C13 1_555 1_555
H10 C14 1_555 1_555
C15 C14 1_555 1_555
H11 C15 1_555 1_555
C16 C11 1_555 1_555
H12 C16 1_555 1_555
C17 C9 1_555 1_555
H13 C17 1_555 1_555
C18 N2 1_555 1_555
H14 C18 1_555 1_555
C19 C17 1_555 1_555
C20 C19 1_555 1_555
H15 C20 1_555 1_555
C21 C20 1_555 1_555
H16 C21 1_555 1_555
C22 C21 1_555 1_555
H17 C22 1_555 1_555
C23 C22 1_555 1_555
H18 C23 1_555 1_555
C24 C19 1_555 1_555
H19 C24 1_555 1_555
C25 C18 1_555 1_555
C26 O4 1_555 1_555
H20 C26 1_555 1_555
H21 C26 1_555 1_555
H22 C26 1_555 1_555
C27 C28 1_555 1_555
C28 C29 1_555 1_555
C29 C30 1_555 1_555
C30 N6 1_555 1_555
C31 C30 1_555 1_555
H23 C31 1_555 1_555
C32 C31 1_555 1_555
H24 C32 1_555 1_555
C33 C32 1_555 1_555
H25 C33 1_555 1_555
C34 C29 1_555 1_555
H26 C34 1_555 1_555
C35 N5 1_555 1_555
C36 C35 1_555 1_555
C37 C36 1_555 1_555
C38 C37 1_555 1_555
H27 C38 1_555 1_555
C39 C38 1_555 1_555
H28 C39 1_555 1_555
C40 C39 1_555 1_555
H29 C40 1_555 1_555
C41 C36 1_555 1_555
H30 C41 1_555 1_555
C42 N4 1_555 1_555
C43 C28 1_555 1_555
H31 C43 1_555 1_555
C44 N5 1_555 1_555
H32 C44 1_555 1_555
C45 C43 1_555 1_555
C46 C45 1_555 1_555
H33 C46 1_555 1_555
C47 C46 1_555 1_555
H34 C47 1_555 1_555
C48 C47 1_555 1_555
H35 C48 1_555 1_555
C49 C48 1_555 1_555
H36 C49 1_555 1_555
C50 C45 1_555 1_555
H37 C50 1_555 1_555
C51 C44 1_555 1_555
C52 O8 1_555 1_555
H38 C52 1_555 1_555
H39 C52 1_555 1_555
H40 C52 1_555 1_555
H41 N4 1_555 1_555
H42 N1 1_555 1_555
H43 N6 1_555 1_555
H44 N3 1_555 1_555
C3 C4 1_555 1_555
C7 C8 1_555 1_555
C11 C12 1_555 1_555
C15 C16 1_555 1_555
C17 C18 1_555 1_555
C23 C24 1_555 1_555
C28 C35 1_555 1_555
C33 C34 1_555 1_555
C35 C42 1_555 1_555
C40 C41 1_555 1_555
C43 C44 1_555 1_555
C49 C50 1_555 1_555

#END
