
#######################################################################
#
#                 Cambridge Crystallographic Data Centre
#                                CCDC 
#
#######################################################################
#
# If this CIF has been generated from an entry in the Cambridge 
# Structural Database, then it will include bibliographic, chemical, 
# crystal, experimental, refinement or atomic coordinate data resulting 
# from the CCDC's data processing and validation procedures.
#
#######################################################################

data_SAXDAZ
_chemical_formula_moiety         'C59 H57 N5 O2'
_chemical_name_systematic        
1,19,24,24,33,33-hexamethyl-10-[(pyren-1-yl)methyl]-7,13-dioxa-10,38,39,40,41-pentaazaoctacyclo[17.9.9.1^2,6^.1^14,18^.1^20,23^.1^25,28^.1^29,32^.1^34,37^]tritetraconta-2(43),3,5,14(42),15,17,20,22,25,27,29,31,34,36-tetradecaene
_symmetry_cell_setting           triclinic
_symmetry_space_group_name_H-M   'P -1'
_symmetry_Int_Tables_number      2
_space_group_name_Hall           '-P 1'
loop_
_symmetry_equiv_pos_site_id
_symmetry_equiv_pos_as_xyz
1 x,y,z
2 -x,-y,-z
_cell_length_a                   12.336(3)
_cell_length_b                   12.785(3)
_cell_length_c                   16.854(4)
_cell_angle_alpha                88.714(5)
_cell_angle_beta                 73.072(4)
_cell_angle_gamma                69.680(4)
_cell_volume                     2375.53
_exptl_crystal_colour            colorless
_exptl_crystal_description       prism
_cell_formula_units_Z            2
loop_
_atom_site_label
_atom_site_type_symbol
_atom_site_fract_x
_atom_site_fract_y
_atom_site_fract_z
C1 C 0.33612(19) 0.64454(18) 0.84746(13)
C2 C 0.2803(2) 0.6652(2) 0.93091(14)
H1 H 0.3135 0.6299 0.9730
C3 C 0.1629(2) 0.7489(2) 0.94425(14)
H2 H 0.1044 0.7795 0.9966
C4 C 0.15020(19) 0.77695(17) 0.86788(13)
C5 C 0.04233(19) 0.85097(18) 0.84164(13)
C6 C -0.01921(18) 0.77774(17) 0.81671(12)
C7 C -0.09536(19) 0.79331(18) 0.76856(13)
H3 H -0.1178 0.8552 0.7369
C8 C -0.13457(19) 0.70080(18) 0.77453(13)
H4 H -0.1870 0.6894 0.7468
C9 C -0.08404(18) 0.63066(17) 0.82714(12)
C10 C -0.08903(19) 0.51906(18) 0.85625(13)
C11 C 0.03688(19) 0.43141(17) 0.82470(13)
C12 C 0.1043(2) 0.34431(18) 0.85888(13)
H5 H 0.0797 0.3238 0.9140
C13 C 0.2172(2) 0.28991(18) 0.79778(13)
H6 H 0.2819 0.2271 0.8049
C14 C 0.21681(18) 0.34402(16) 0.72615(13)
C15 C 0.31658(18) 0.33283(17) 0.64602(13)
C16 C 0.37979(18) 0.41361(17) 0.65417(13)
C17 C 0.4485(2) 0.4585(2) 0.59571(14)
H7 H 0.4647 0.4481 0.5372
C18 C 0.4920(2) 0.52332(19) 0.63689(14)
H8 H 0.5417 0.5645 0.6110
C19 C 0.44968(17) 0.51597(17) 0.72032(13)
C20 C 0.46117(19) 0.56978(18) 0.79457(14)
C21 C -0.0512(2) 0.9308(2) 0.91732(14)
H9 H -0.0821 0.8870 0.9607
H10 H -0.1185 0.9824 0.9001
H11 H -0.0122 0.9736 0.9392
C22 C -0.1355(2) 0.5277(2) 0.95187(14)
H12 H -0.1364 0.4547 0.9704
H13 H -0.2179 0.5833 0.9713
H14 H -0.0820 0.5505 0.9749
C23 C -0.1767(2) 0.4864(2) 0.82217(16)
H15 H -0.1503 0.4832 0.7612
H16 H -0.2586 0.5423 0.8440
H17 H -0.1771 0.4128 0.8396
C24 C 0.4113(2) 0.21299(18) 0.63254(15)
H18 H 0.4512 0.2015 0.6762
H19 H 0.4720 0.2027 0.5779
H20 H 0.3709 0.1587 0.6349
C25 C 0.5186(2) 0.4791(2) 0.84750(16)
H21 H 0.4662 0.4355 0.8682
H22 H 0.5277 0.5150 0.8947
H23 H 0.5985 0.4292 0.8131
C26 C 0.5410(2) 0.6415(2) 0.76433(15)
H24 H 0.6220 0.5934 0.7303
H25 H 0.5476 0.6775 0.8125
H26 H 0.5042 0.6989 0.7310
C27 C 0.08916(19) 0.91535(17) 0.76900(14)
C28 C 0.13612(19) 0.86494(18) 0.68739(13)
H27 H 0.1320 0.7941 0.6765
C29 C 0.1888(2) 0.91735(18) 0.62198(14)
C30 C 0.1970(2) 1.0201(2) 0.63819(16)
H28 H 0.2350 1.0554 0.5942
C31 C 0.1501(2) 1.0704(2) 0.71796(17)
H29 H 0.1545 1.1413 0.7285
C32 C 0.0962(2) 1.01923(19) 0.78358(16)
H30 H 0.0641 1.0552 0.8384
C33 C 0.2265(2) 0.77001(19) 0.52097(14)
H31 H 0.1427 0.7718 0.5465
H32 H 0.2815 0.7094 0.5437
C34 C 0.26239(19) 0.74819(18) 0.42721(13)
H33 H 0.3324 0.7720 0.4024
H34 H 0.2907 0.6663 0.4136
C35 C 0.1435(2) 0.92345(19) 0.38059(14)
H35 H 0.1127 0.9614 0.4375
H36 H 0.0789 0.9536 0.3537
C36 C 0.2532(2) 0.95008(18) 0.33185(13)
C37 C 0.2989(2) 1.01369(18) 0.36964(15)
H37 H 0.2598 1.0406 0.4266
C38 C 0.4002(2) 1.03907(19) 0.32657(15)
H38 H 0.4280 1.0836 0.3544
C39 C 0.4612(2) 1.00029(18) 0.24354(15)
C40 C 0.5695(2) 1.0205(2) 0.19718(16)
H39 H 0.6005 1.0633 0.2238
C41 C 0.6275(2) 0.9800(2) 0.11702(16)
H40 H 0.6988 0.9945 0.0886
C42 C 0.5841(2) 0.91537(19) 0.07338(15)
C43 C 0.6419(2) 0.8736(2) -0.01023(16)
H41 H 0.7139 0.8864 -0.0398
C44 C 0.5957(2) 0.8144(2) -0.04994(16)
H42 H 0.6358 0.7872 -0.1068
C45 C 0.4915(2) 0.7939(2) -0.00816(15)
H43 H 0.4607 0.7532 -0.0367
C46 C 0.4312(2) 0.83243(19) 0.07545(14)
C47 C 0.3229(2) 0.81382(19) 0.12056(14)
H44 H 0.2899 0.7749 0.0924
C48 C 0.2658(2) 0.84982(19) 0.20191(14)
H45 H 0.1950 0.8341 0.2299
C49 C 0.31072(19) 0.91186(17) 0.24682(13)
C50 C 0.4161(2) 0.93540(17) 0.20264(14)
C51 C 0.4774(2) 0.89423(18) 0.11729(14)
C52 C 0.0589(2) 0.77660(19) 0.41521(14)
H46 H 0.0071 0.8104 0.3794
H47 H 0.0139 0.8118 0.4726
C53 C 0.0804(2) 0.65315(19) 0.41459(13)
H48 H 0.0080 0.6396 0.4103
H49 H 0.1502 0.6120 0.3661
C54 C 0.15660(18) 0.50245(17) 0.49548(13)
C55 C 0.20610(18) 0.47303(17) 0.56057(12)
H50 H 0.2007 0.5304 0.5980
C56 C 0.26346(18) 0.36164(17) 0.57243(13)
C57 C 0.2691(2) 0.27931(18) 0.51653(14)
H51 H 0.3076 0.2025 0.5229
C58 C 0.2192(2) 0.30879(19) 0.45204(14)
H52 H 0.2237 0.2516 0.4149
C59 C 0.1628(2) 0.41971(19) 0.44033(13)
H53 H 0.1291 0.4389 0.3957
N1 N 0.25599(15) 0.71316(14) 0.80969(11)
H54 H 0.2706 0.7158 0.7555
N2 N -0.01414(15) 0.67907(14) 0.85189(10)
H55 H 0.0285 0.6503 0.8860
N3 N 0.10596(15) 0.42990(14) 0.74454(10)
H56 H 0.0825 0.4778 0.7092
N4 N 0.38136(15) 0.44803(14) 0.72999(11)
H57 H 0.3441 0.4296 0.7781
N5 N 0.16971(16) 0.80233(15) 0.38635(11)
O1 O 0.23416(16) 0.87555(13) 0.54036(10)
O2 O 0.10490(13) 0.61487(12) 0.49068(9)
loop_
_geom_bond_atom_site_label_1
_geom_bond_atom_site_label_2
_geom_bond_site_symmetry_1
_geom_bond_site_symmetry_2
C1 C2 1_555 1_555
C2 H1 1_555 1_555
C3 C2 1_555 1_555
H2 C3 1_555 1_555
C4 C3 1_555 1_555
C5 C4 1_555 1_555
C6 C5 1_555 1_555
C7 C6 1_555 1_555
H3 C7 1_555 1_555
C8 C7 1_555 1_555
H4 C8 1_555 1_555
C9 C8 1_555 1_555
C10 C9 1_555 1_555
C11 C10 1_555 1_555
C12 C11 1_555 1_555
H5 C12 1_555 1_555
C13 C12 1_555 1_555
H6 C13 1_555 1_555
C14 C13 1_555 1_555
C15 C14 1_555 1_555
C16 C15 1_555 1_555
C17 C16 1_555 1_555
H7 C17 1_555 1_555
C18 C17 1_555 1_555
H8 C18 1_555 1_555
C19 C18 1_555 1_555
C20 C1 1_555 1_555
C21 C5 1_555 1_555
H9 C21 1_555 1_555
H10 C21 1_555 1_555
H11 C21 1_555 1_555
C22 C10 1_555 1_555
H12 C22 1_555 1_555
H13 C22 1_555 1_555
H14 C22 1_555 1_555
C23 C10 1_555 1_555
H15 C23 1_555 1_555
H16 C23 1_555 1_555
H17 C23 1_555 1_555
C24 C15 1_555 1_555
H18 C24 1_555 1_555
H19 C24 1_555 1_555
H20 C24 1_555 1_555
C25 C20 1_555 1_555
H21 C25 1_555 1_555
H22 C25 1_555 1_555
H23 C25 1_555 1_555
C26 C20 1_555 1_555
H24 C26 1_555 1_555
H25 C26 1_555 1_555
H26 C26 1_555 1_555
C27 C5 1_555 1_555
C28 C27 1_555 1_555
H27 C28 1_555 1_555
C29 C28 1_555 1_555
C30 C29 1_555 1_555
H28 C30 1_555 1_555
C31 C30 1_555 1_555
H29 C31 1_555 1_555
C32 C27 1_555 1_555
H30 C32 1_555 1_555
C33 H31 1_555 1_555
H32 C33 1_555 1_555
C34 C33 1_555 1_555
H33 C34 1_555 1_555
H34 C34 1_555 1_555
C35 H35 1_555 1_555
H36 C35 1_555 1_555
C36 C35 1_555 1_555
C37 C36 1_555 1_555
H37 C37 1_555 1_555
C38 C37 1_555 1_555
H38 C38 1_555 1_555
C39 C38 1_555 1_555
C40 C39 1_555 1_555
H39 C40 1_555 1_555
C41 C40 1_555 1_555
H40 C41 1_555 1_555
C42 C41 1_555 1_555
C43 C42 1_555 1_555
H41 C43 1_555 1_555
C44 C43 1_555 1_555
H42 C44 1_555 1_555
C45 C44 1_555 1_555
H43 C45 1_555 1_555
C46 C45 1_555 1_555
C47 C46 1_555 1_555
H44 C47 1_555 1_555
C48 C47 1_555 1_555
H45 C48 1_555 1_555
C49 C36 1_555 1_555
C50 C39 1_555 1_555
C51 C42 1_555 1_555
C52 H46 1_555 1_555
H47 C52 1_555 1_555
C53 C52 1_555 1_555
H48 C53 1_555 1_555
H49 C53 1_555 1_555
C54 C55 1_555 1_555
C55 H50 1_555 1_555
C56 C15 1_555 1_555
C57 C56 1_555 1_555
H51 C57 1_555 1_555
C58 C57 1_555 1_555
H52 C58 1_555 1_555
C59 C54 1_555 1_555
H53 C59 1_555 1_555
N1 C1 1_555 1_555
H54 N1 1_555 1_555
N2 C6 1_555 1_555
H55 N2 1_555 1_555
N3 C11 1_555 1_555
H56 N3 1_555 1_555
N4 C16 1_555 1_555
H57 N4 1_555 1_555
N5 C34 1_555 1_555
O1 C29 1_555 1_555
O2 C53 1_555 1_555
C4 N1 1_555 1_555
C9 N2 1_555 1_555
C14 N3 1_555 1_555
C19 C20 1_555 1_555
C19 N4 1_555 1_555
C31 C32 1_555 1_555
C33 O1 1_555 1_555
C35 N5 1_555 1_555
C46 C51 1_555 1_555
C48 C49 1_555 1_555
C49 C50 1_555 1_555
C50 C51 1_555 1_555
C52 N5 1_555 1_555
C54 O2 1_555 1_555
C55 C56 1_555 1_555
C58 C59 1_555 1_555

#END
