
#######################################################################
#
#                 Cambridge Crystallographic Data Centre
#                                CCDC 
#
#######################################################################
#
# If this CIF has been generated from an entry in the Cambridge 
# Structural Database, then it will include bibliographic, chemical, 
# crystal, experimental, refinement or atomic coordinate data resulting 
# from the CCDC's data processing and validation procedures.
#
#######################################################################

data_SAXDEC
_chemical_formula_moiety         'C19 H16 F3 N1 O5'
_chemical_name_systematic        
'Ethyl 4-(4-cyanophenyl)-2-hydroxy-5-oxo-2-(trifluoromethyl)-2,3,4,5,6,7-hexahydrocyclopenta[b]pyran-3-carboxylate'
_symmetry_cell_setting           monoclinic
_symmetry_space_group_name_H-M   'P 21/c'
_symmetry_Int_Tables_number      14
_space_group_name_Hall           '-P 2ybc'
loop_
_symmetry_equiv_pos_site_id
_symmetry_equiv_pos_as_xyz
1 x,y,z
2 -x,1/2+y,1/2-z
3 -x,-y,-z
4 x,1/2-y,1/2+z
_cell_length_a                   15.21(4)
_cell_length_b                   12.35(3)
_cell_length_c                   10.83(3)
_cell_angle_alpha                90
_cell_angle_beta                 99.17(4)
_cell_angle_gamma                90
_cell_volume                     2008.35
_cell_formula_units_Z            4
loop_
_atom_site_label
_atom_site_type_symbol
_atom_site_fract_x
_atom_site_fract_y
_atom_site_fract_z
C1 C 0.6551(3) 0.3261(5) 0.2828(6)
H1 H 0.6336 0.3233 0.3633
C2 C 0.5785(3) 0.3041(5) 0.1824(7)
C3 C 0.5065(4) 0.3767(7) 0.1326(7)
C4 C 0.4441(4) 0.3193(7) 0.0310(8)
H2 H 0.4428 0.3555 -0.0487
H3 H 0.3842 0.3174 0.0509
C5 C 0.4817(4) 0.2044(6) 0.0264(7)
H4 H 0.4401 0.1506 0.0475
H5 H 0.4969 0.1881 -0.0552
C6 C 0.5627(3) 0.2108(6) 0.1239(6)
C7 C 0.6727(4) 0.1259(5) 0.2675(6)
C8 C 0.7228(3) 0.2331(5) 0.2799(6)
H6 H 0.7514 0.2425 0.2057
C9 C 0.6990(3) 0.4337(5) 0.2729(6)
C10 C 0.7150(5) 0.5012(6) 0.3728(7)
H7 H 0.6949 0.4815 0.4463
C11 C 0.7591(5) 0.5963(7) 0.3697(9)
H8 H 0.7699 0.6404 0.4401
C12 C 0.7875(4) 0.6262(6) 0.2600(9)
C13 C 0.7716(4) 0.5615(6) 0.1593(8)
H9 H 0.7907 0.5816 0.0851
C14 C 0.7271(4) 0.4657(6) 0.1663(8)
H10 H 0.7160 0.4217 0.0959
C15 C 0.8350(6) 0.7270(8) 0.2514(11)
C16 C 0.7329(5) 0.0275(6) 0.2595(8)
C17 C 0.7931(4) 0.2392(6) 0.3927(8)
C18 C 0.9503(6) 0.2321(13) 0.4686(12)
H11 H 1.0019 0.1958 0.4459
H12 H 0.9346 0.1995 0.5436
C19 C 0.9651(12) 0.362(3) 0.483(2)
H13 H 0.9966 0.3879 0.4191
H14 H 0.9992 0.3778 0.5639
H15 H 0.9084 0.3977 0.4758
F1 F 0.7830(2) 0.0380(3) 0.1727(4)
F2 F 0.7860(3) 0.0134(4) 0.3671(4)
F3 F 0.6844(3) -0.0612(3) 0.2368(5)
N1 N 0.8733(6) 0.8059(6) 0.2429(11)
O1 O 0.6118(2) 0.1205(3) 0.1513(4)
O2 O 0.4992(3) 0.4703(5) 0.1683(6)
O3 O 0.6258(2) 0.1155(3) 0.3670(4)
H16 H 0.5903 0.0653 0.3532
O4 O 0.7781(3) 0.2528(4) 0.4973(5)
O5 O 0.8734(3) 0.2336(5) 0.3632(5)
loop_
_geom_bond_atom_site_label_1
_geom_bond_atom_site_label_2
_geom_bond_site_symmetry_1
_geom_bond_site_symmetry_2
C1 H1 1_555 1_555
C2 C1 1_555 1_555
C3 C2 1_555 1_555
C4 C3 1_555 1_555
H2 C4 1_555 1_555
H3 C4 1_555 1_555
C5 C4 1_555 1_555
H4 C5 1_555 1_555
H5 C5 1_555 1_555
C6 C2 1_555 1_555
C7 C8 1_555 1_555
C8 C1 1_555 1_555
H6 C8 1_555 1_555
C9 C1 1_555 1_555
C10 C9 1_555 1_555
H7 C10 1_555 1_555
C11 C10 1_555 1_555
H8 C11 1_555 1_555
C12 C11 1_555 1_555
C13 C12 1_555 1_555
H9 C13 1_555 1_555
C14 C9 1_555 1_555
H10 C14 1_555 1_555
C15 C12 1_555 1_555
C16 C7 1_555 1_555
C17 C8 1_555 1_555
C18 H11 1_555 1_555
H12 C18 1_555 1_555
C19 C18 1_555 1_555
H13 C19 1_555 1_555
H14 C19 1_555 1_555
H15 C19 1_555 1_555
F1 C16 1_555 1_555
F2 C16 1_555 1_555
F3 C16 1_555 1_555
N1 C15 1_555 1_555
O1 C6 1_555 1_555
O2 C3 1_555 1_555
O3 C7 1_555 1_555
H16 O3 1_555 1_555
O4 C17 1_555 1_555
O5 C17 1_555 1_555
C5 C6 1_555 1_555
C7 O1 1_555 1_555
C13 C14 1_555 1_555
C18 O5 1_555 1_555

#END
