
#######################################################################
#
#                 Cambridge Crystallographic Data Centre
#                                CCDC 
#
#######################################################################
#
# If this CIF has been generated from an entry in the Cambridge 
# Structural Database, then it will include bibliographic, chemical, 
# crystal, experimental, refinement or atomic coordinate data resulting 
# from the CCDC's data processing and validation procedures.
#
#######################################################################

data_SAXMEM
_chemical_formula_moiety         'C25 H24 F3 N3 O3'
_chemical_name_systematic        
N-(4-methyl-3-(1-methyl-5-(morpholin-4-yl)-6-oxo-1,6-dihydropyridin-3-yl)phenyl)-3-(trifluoromethyl)benzamide
_chemical_properties_biological  'antiproliferative effect'
_symmetry_cell_setting           monoclinic
_symmetry_space_group_name_H-M   'P 21/n'
_symmetry_Int_Tables_number      14
_space_group_name_Hall           '-P 2yn'
loop_
_symmetry_equiv_pos_site_id
_symmetry_equiv_pos_as_xyz
1 x,y,z
2 1/2-x,1/2+y,1/2-z
3 -x,-y,-z
4 1/2+x,1/2-y,1/2+z
_cell_length_a                   16.334(3)
_cell_length_b                   13.727(3)
_cell_length_c                   21.539(4)
_cell_angle_alpha                90
_cell_angle_beta                 108.839(11)
_cell_angle_gamma                90
_cell_volume                     4570.69
_exptl_crystal_colour            colorless
_exptl_crystal_description       plate
_cell_formula_units_Z            8
_exptl_crystal_recrystallization_method methanol
loop_
_atom_site_label
_atom_site_type_symbol
_atom_site_fract_x
_atom_site_fract_y
_atom_site_fract_z
C1 C 0.18279(9) 0.31812(11) 0.85395(7)
H1 H 0.1203 0.3093 0.8435
H2 H 0.2129 0.2884 0.8966
H3 H 0.2018 0.2869 0.8200
C2 C 0.20337(9) 0.42522(10) 0.85654(6)
C3 C 0.14067(9) 0.49326(11) 0.82395(7)
H4 H 0.0848 0.4705 0.7991
C4 C 0.15663(9) 0.59274(10) 0.82641(7)
H5 H 0.1126 0.6368 0.8030
C5 C 0.23791(9) 0.62712(10) 0.86353(7)
C6 C 0.30140(9) 0.56065(10) 0.89640(6)
H6 H 0.3567 0.5839 0.9222
C7 C 0.28582(9) 0.46093(10) 0.89239(6)
C8 C 0.35949(9) 0.39594(10) 0.92675(7)
C9 C 0.39494(9) 0.33438(10) 0.89333(7)
H7 H 0.3699 0.3291 0.8471
N1 N 0.46659(7) 0.27933(8) 0.92529(6)
C10 C 0.50874(9) 0.28398(10) 0.99239(7)
O1 O 0.57714(6) 0.23792(7) 1.01691(5)
C11 C 0.46732(9) 0.34523(10) 1.02884(7)
C12 C 0.39705(9) 0.40030(10) 0.99612(7)
H8 H 0.3726 0.4426 1.0203
N2 N 0.50782(7) 0.34701(9) 1.09722(5)
C13 C 0.48186(10) 0.42493(11) 1.13307(7)
H9 H 0.4218 0.4140 1.1327
H10 H 0.4841 0.4884 1.1119
C14 C 0.54310(10) 0.42574(12) 1.20320(7)
H11 H 0.6026 0.4391 1.2031
H12 H 0.5263 0.4786 1.2279
O2 O 0.54165(7) 0.33523(8) 1.23500(5)
C15 C 0.56594(10) 0.25823(12) 1.20008(7)
H13 H 0.5637 0.1956 1.2222
H14 H 0.6262 0.2686 1.2008
C16 C 0.50726(9) 0.25274(11) 1.12979(7)
H15 H 0.5274 0.2006 1.1064
H16 H 0.4476 0.2368 1.1286
C17 C 0.50466(10) 0.21499(11) 0.88752(7)
H17 H 0.4688 0.2161 0.8412
H18 H 0.5075 0.1483 0.9044
H19 H 0.5631 0.2375 0.8917
N3 N 0.25981(8) 0.72705(8) 0.87218(6)
H20 H 0.3065 0.7400 0.9055
C18 C 0.22782(9) 0.79907(10) 0.82752(7)
O3 O 0.17649(7) 0.78503(8) 0.77238(5)
C19 C 0.26070(9) 0.89922(10) 0.85060(7)
C20 C 0.29057(9) 0.92331(10) 0.91702(7)
H21 H 0.2928 0.8752 0.9492
C21 C 0.31703(9) 1.01782(11) 0.93575(7)
C22 C 0.31425(10) 1.08851(11) 0.88918(8)
H22 H 0.3320 1.1533 0.9024
C23 C 0.28552(11) 1.06432(12) 0.82329(8)
H23 H 0.2844 1.1123 0.7912
C24 C 0.25839(10) 0.97020(11) 0.80399(7)
H24 H 0.2381 0.9541 0.7587
C25 C 0.34957(10) 1.04327(11) 1.00703(8)
F1 F 0.31116(10) 0.99201(10) 1.04241(5)
F2 F 0.43398(7) 1.02781(10) 1.03436(6)
F3 F 0.33706(7) 1.13685(7) 1.01842(5)
C26 C 0.91478(10) 0.69332(11) 0.75768(7)
H25 H 0.9175 0.7071 0.7137
H26 H 0.9652 0.7220 0.7907
H27 H 0.8618 0.7214 0.7621
C27 C 0.91468(9) 0.58487(10) 0.76775(7)
C28 C 0.90175(9) 0.52002(11) 0.71554(7)
H28 H 0.8934 0.5456 0.6729
C29 C 0.90062(9) 0.41951(10) 0.72337(7)
H29 H 0.8906 0.3776 0.6866
C30 C 0.91431(9) 0.38112(10) 0.78571(7)
C31 C 0.92883(9) 0.44439(10) 0.83860(6)
H30 H 0.9395 0.4184 0.8814
C32 C 0.92812(8) 0.54496(10) 0.83026(7)
C33 C 0.94454(9) 0.60701(10) 0.88984(6)
C34 C 0.88214(9) 0.66284(10) 0.90072(7)
H31 H 0.8264 0.6653 0.8686
N4 N 0.89817(8) 0.71596(9) 0.95751(6)
C35 C 0.97678(9) 0.71496(10) 1.00777(7)
O4 O 0.98395(7) 0.75693(8) 1.06035(5)
C36 C 1.04593(9) 0.66186(10) 0.99359(7)
C37 C 1.02830(9) 0.60785(10) 0.93757(7)
H32 H 1.0730 0.5700 0.9303
N5 N 1.12741(7) 0.66532(9) 1.04261(6)
C38 C 1.19086(10) 0.59341(12) 1.03717(7)
H33 H 1.2094 0.6085 0.9988
H34 H 1.1648 0.5275 1.0311
C39 C 1.26809(10) 0.59642(13) 1.09946(8)
H35 H 1.2493 0.5782 1.1372
H36 H 1.3115 0.5481 1.0962
O5 O 1.30670(7) 0.69017(9) 1.11055(6)
C40 C 1.24510(10) 0.76028(13) 1.11614(8)
H37 H 1.2724 0.8255 1.1236
H38 H 1.2268 0.7441 1.1545
C41 C 1.16654(10) 0.76303(12) 1.05521(8)
H39 H 1.1239 0.8102 1.0612
H40 H 1.1836 0.7844 1.0172
C42 C 0.82783(10) 0.77282(13) 0.96816(8)
H41 H 0.7790 0.7760 0.9272
H42 H 0.8483 0.8389 0.9821
H43 H 0.8091 0.7416 1.0022
N6 N 0.91679(8) 0.28000(8) 0.79967(6)
H44 H 0.9418 0.2642 0.8411
C43 C 0.87041(9) 0.20955(10) 0.75927(7)
O6 O 0.81929(7) 0.22543(8) 0.70413(5)
C44 C 0.88283(9) 0.10877(10) 0.78788(7)
C45 C 0.95967(9) 0.07947(10) 0.83533(7)
H45 H 1.0068 0.1235 0.8504
C46 C 0.96633(9) -0.01433(11) 0.86008(7)
C47 C 0.89768(10) -0.07943(11) 0.83854(8)
H46 H 0.9027 -0.1433 0.8564
C48 C 0.82225(10) -0.05077(12) 0.79114(8)
H47 H 0.7753 -0.0950 0.7760
C49 C 0.81516(10) 0.04269(11) 0.76571(8)
H48 H 0.7634 0.0619 0.7327
C50 C 1.04753(11) -0.04873(11) 0.91060(8)
F4 F 1.11012(7) 0.01735(8) 0.92628(6)
F5 F 1.03355(8) -0.07495(10) 0.96633(5)
F6 F 1.08023(6) -0.12821(7) 0.89127(5)
loop_
_geom_bond_atom_site_label_1
_geom_bond_atom_site_label_2
_geom_bond_site_symmetry_1
_geom_bond_site_symmetry_2
C1 H1 1_555 1_555
H2 C1 1_555 1_555
H3 C1 1_555 1_555
C2 C1 1_555 1_555
C3 C2 1_555 1_555
H4 C3 1_555 1_555
C4 C3 1_555 1_555
H5 C4 1_555 1_555
C5 C4 1_555 1_555
C6 C5 1_555 1_555
H6 C6 1_555 1_555
C7 C2 1_555 1_555
C8 C7 1_555 1_555
C9 C8 1_555 1_555
H7 C9 1_555 1_555
N1 C9 1_555 1_555
C10 N1 1_555 1_555
O1 C10 1_555 1_555
C11 C10 1_555 1_555
C12 C8 1_555 1_555
H8 C12 1_555 1_555
N2 C11 1_555 1_555
C13 N2 1_555 1_555
H9 C13 1_555 1_555
H10 C13 1_555 1_555
C14 C13 1_555 1_555
H11 C14 1_555 1_555
H12 C14 1_555 1_555
O2 C14 1_555 1_555
C15 O2 1_555 1_555
H13 C15 1_555 1_555
H14 C15 1_555 1_555
C16 N2 1_555 1_555
H15 C16 1_555 1_555
H16 C16 1_555 1_555
C17 N1 1_555 1_555
H17 C17 1_555 1_555
H18 C17 1_555 1_555
H19 C17 1_555 1_555
N3 C5 1_555 1_555
H20 N3 1_555 1_555
C18 N3 1_555 1_555
O3 C18 1_555 1_555
C19 C18 1_555 1_555
C20 C19 1_555 1_555
H21 C20 1_555 1_555
C21 C20 1_555 1_555
C22 C21 1_555 1_555
H22 C22 1_555 1_555
C23 C22 1_555 1_555
H23 C23 1_555 1_555
C24 C19 1_555 1_555
H24 C24 1_555 1_555
C25 C21 1_555 1_555
F1 C25 1_555 1_555
F2 C25 1_555 1_555
F3 C25 1_555 1_555
C26 H25 1_555 1_555
H26 C26 1_555 1_555
H27 C26 1_555 1_555
C27 C26 1_555 1_555
C28 C27 1_555 1_555
H28 C28 1_555 1_555
C29 C28 1_555 1_555
H29 C29 1_555 1_555
C30 C29 1_555 1_555
C31 C30 1_555 1_555
H30 C31 1_555 1_555
C32 C27 1_555 1_555
C33 C32 1_555 1_555
C34 C33 1_555 1_555
H31 C34 1_555 1_555
N4 C34 1_555 1_555
C35 N4 1_555 1_555
O4 C35 1_555 1_555
C36 C35 1_555 1_555
C37 C33 1_555 1_555
H32 C37 1_555 1_555
N5 C36 1_555 1_555
C38 N5 1_555 1_555
H33 C38 1_555 1_555
H34 C38 1_555 1_555
C39 C38 1_555 1_555
H35 C39 1_555 1_555
H36 C39 1_555 1_555
O5 C39 1_555 1_555
C40 O5 1_555 1_555
H37 C40 1_555 1_555
H38 C40 1_555 1_555
C41 N5 1_555 1_555
H39 C41 1_555 1_555
H40 C41 1_555 1_555
C42 N4 1_555 1_555
H41 C42 1_555 1_555
H42 C42 1_555 1_555
H43 C42 1_555 1_555
N6 C30 1_555 1_555
H44 N6 1_555 1_555
C43 N6 1_555 1_555
O6 C43 1_555 1_555
C44 C43 1_555 1_555
C45 C44 1_555 1_555
H45 C45 1_555 1_555
C46 C45 1_555 1_555
C47 C46 1_555 1_555
H46 C47 1_555 1_555
C48 C47 1_555 1_555
H47 C48 1_555 1_555
C49 C44 1_555 1_555
H48 C49 1_555 1_555
C50 C46 1_555 1_555
F4 C50 1_555 1_555
F5 C50 1_555 1_555
F6 C50 1_555 1_555
C6 C7 1_555 1_555
C11 C12 1_555 1_555
C15 C16 1_555 1_555
C23 C24 1_555 1_555
C31 C32 1_555 1_555
C36 C37 1_555 1_555
C40 C41 1_555 1_555
C48 C49 1_555 1_555

#END
