
#######################################################################
#
#                 Cambridge Crystallographic Data Centre
#                                CCDC 
#
#######################################################################
#
# If this CIF has been generated from an entry in the Cambridge 
# Structural Database, then it will include bibliographic, chemical, 
# crystal, experimental, refinement or atomic coordinate data resulting 
# from the CCDC's data processing and validation procedures.
#
#######################################################################

data_SAYXOH
_chemical_formula_moiety         
'C18 H22 N2 O4 2+,2(F6 P1 1-),2(C2 H3 N1),2(C33 H37 N1 O12)'
_chemical_name_systematic        
"[3]-(1,1'-Ethane-1,2-diylbis(4-(ethoxycarbonyl)pyridinium))-bis(5,8,11,14,21,24,27,30,34,42-decaoxa-44-azapentacyclo[16.14.11.1^36,40^.0^4,31^.0^15,20^]tetratetraconta-1,3,15,17,19,31,36(44),37,39-nonaene-35,41-dione)-rotaxane bis(hexafluorophosphate) acetonitrile solvate"
_symmetry_cell_setting           triclinic
_symmetry_space_group_name_H-M   'P -1'
_symmetry_Int_Tables_number      2
_space_group_name_Hall           '-P 1'
loop_
_symmetry_equiv_pos_site_id
_symmetry_equiv_pos_as_xyz
1 x,y,z
2 -x,-y,-z
_cell_length_a                   10.7671(5)
_cell_length_b                   14.3961(6)
_cell_length_c                   14.9463(6)
_cell_angle_alpha                95.617(4)
_cell_angle_beta                 91.069(4)
_cell_angle_gamma                97.164(4)
_cell_volume                     2286.5
_exptl_crystal_colour            yellow
_exptl_crystal_description       block
_cell_formula_units_Z            1
loop_
_atom_site_label
_atom_site_type_symbol
_atom_site_fract_x
_atom_site_fract_y
_atom_site_fract_z
P1 P 1.0000 0.0000 0.5000
F1 F 0.8805(2) -0.0357(2) 0.4352(2)
F2 F 1.0326(3) 0.08805(19) 0.4440(2)
F3 F 1.0837(3) -0.0599(2) 0.4358(2)
F1A F 1.1195(2) 0.0357(2) 0.5648(2)
F2A F 0.9674(3) -0.08805(19) 0.5560(2)
F3A F 0.9163(3) 0.0599(2) 0.5642(2)
P2 P 1.0000 0.5000 -0.5000
F4 F 1.0129(2) 0.5085(2) -0.39332(16)
F5 F 1.0624(4) 0.6031(2) -0.5011(2)
F6 F 1.1332(3) 0.4684(4) -0.5084(2)
F4A F 0.9871(2) 0.4915(2) -0.60668(16)
F5A F 0.9376(4) 0.3969(2) -0.4989(2)
F6A F 0.8668(3) 0.5316(4) -0.4916(2)
O1 O 0.3680(3) 0.3099(2) -0.2736(2)
O2 O 0.4161(2) 0.34274(18) -0.12610(18)
O3 O 0.9880(3) 0.4160(2) -0.1116(2)
O4 O 0.8456(2) 0.3240(2) -0.04129(18)
O5 O 0.7195(3) 0.05463(18) 0.16628(18)
O6 O 0.5299(3) -0.08285(19) 0.2163(2)
O7 O 0.2858(7) -0.0233(5) 0.2168(5)
O8 O 0.2196(3) 0.11323(19) 0.1110(2)
O9 O 0.2378(3) 0.25581(19) 0.2514(2)
O10 O 0.3662(3) 0.2348(3) 0.4092(3)
O11 O 0.5945(7) 0.2011(5) 0.5014(5)
O12 O 0.7601(3) 0.15644(19) 0.33110(18)
N1 N 0.6632(3) 0.3560(2) -0.1596(2)
C1 C 0.9216(3) 0.3194(3) 0.1844(3)
H1 H 0.9647 0.3799 0.1881
C2 C 0.4434(4) 0.3327(3) -0.2123(3)
C3 C 0.5807(4) 0.3545(3) -0.2280(3)
C4 C 0.6143(5) 0.3727(3) -0.3143(3)
H2 H 0.5537 0.3687 -0.3602
C5 C 0.7392(5) 0.3966(3) -0.3309(3)
H3 H 0.7645 0.4098 -0.3879
C6 C 0.8253(4) 0.4007(3) -0.2615(3)
H4 H 0.9098 0.4188 -0.2702
C7 C 0.7847(3) 0.3775(2) -0.1780(3)
C8 C 0.8830(3) 0.3755(3) -0.1068(3)
C9 C 0.9485(4) 0.3101(5) 0.0193(4)
H5 H 0.9989 0.3701 0.0367
H6 H 1.0015 0.2686 -0.0118
C10 C 0.8996(3) 0.2688(3) 0.1013(3)
C11 C 0.2814(3) 0.3348(3) -0.1092(3)
H7 H 0.2367 0.2826 -0.1476
H8 H 0.2483 0.3921 -0.1213
C12 C 0.8813(4) 0.2829(3) 0.2624(3)
H9 H 0.8995 0.3182 0.3177
C13 C 0.8139(3) 0.1941(3) 0.2590(3)
C14 C 0.7939(3) 0.1404(3) 0.1754(3)
C15 C 0.8368(3) 0.1775(3) 0.0983(3)
H10 H 0.8237 0.1409 0.0433
C16 C 0.7857(4) 0.2082(3) 0.4177(3)
H11 H 0.7698 0.2728 0.4153
H12 H 0.8731 0.2087 0.4351
C17 C 0.7052(6) 0.1639(5) 0.4840(4)
H13 H 0.6846 0.0976 0.4633
H14 H 0.7531 0.1680 0.5402
C18 C 0.4902(7) 0.1361(4) 0.4739(4)
H15 H 0.4822 0.0875 0.5148
H16 H 0.5047 0.1063 0.4146
C19 C 0.3709(5) 0.1764(4) 0.4704(5)
H17 H 0.3028 0.1255 0.4587
H18 H 0.3583 0.2091 0.5288
C20 C 0.2529(4) 0.2797(4) 0.4084(4)
H19 H 0.2522 0.3250 0.4608
H20 H 0.1797 0.2331 0.4087
C21 C 0.2528(4) 0.3279(3) 0.3242(3)
H21 H 0.1845 0.3659 0.3236
H22 H 0.3311 0.3685 0.3200
C22 C 0.2445(3) 0.2809(3) 0.1661(3)
C23 C 0.2290(3) 0.2072(2) 0.0978(3)
C24 C 0.2393(3) 0.2268(3) 0.0097(3)
H23 H 0.2277 0.1776 -0.0360
C25 C 0.2666(3) 0.3187(3) -0.0125(3)
C26 C 0.2800(3) 0.3912(3) 0.0555(3)
H24 H 0.2967 0.4529 0.0415
C27 C 0.2689(3) 0.3735(3) 0.1441(3)
H25 H 0.2776 0.4233 0.1894
C28 C 0.1322(4) 0.0716(3) 0.1694(3)
H26 H 0.0714 0.0257 0.1352
H27 H 0.0879 0.1194 0.2002
C29 C 0.1994(6) 0.0259(5) 0.2348(5)
H28 H 0.1422 -0.0063 0.2744
H29 H 0.2596 0.0709 0.2707
C30 C 0.301(2) -0.121(2) 0.2120(14)
H30 H 0.3162 -0.1698 0.1655
H31 H 0.2307 -0.1463 0.2459
C31 C 0.4237(8) -0.0976(7) 0.2791(7)
H32 H 0.4188 -0.0414 0.3196
H33 H 0.4330 -0.1497 0.3142
C32 C 0.6373(4) -0.0514(3) 0.2736(3)
H34 H 0.6570 -0.1022 0.3072
H35 H 0.6194 0.0001 0.3162
C33 C 0.7473(4) -0.0193(3) 0.2195(3)
H36 H 0.8187 0.0037 0.2596
H37 H 0.7690 -0.0721 0.1801
O13 O 0.6490(4) 0.4545(2) 0.1564(3)
O14 O 0.6105(3) 0.38477(19) 0.2820(2)
N2 N 0.4905(2) 0.12095(19) 0.05638(19)
C34 C 0.4448(3) 0.0280(3) 0.0077(3)
H38 H 0.4060 0.0363 -0.0496
H39 H 0.3826 -0.0059 0.0427
C35 C 0.5700(3) 0.2805(2) 0.0529(2)
H40 H 0.5978 0.3308 0.0207
C36 C 0.5294(3) 0.1940(3) 0.0094(2)
H41 H 0.5285 0.1853 -0.0531
C37 C 0.4896(3) 0.1312(2) 0.1466(2)
H42 H 0.4627 0.0798 0.1776
C38 C 0.5279(3) 0.2165(2) 0.1930(2)
H43 H 0.5265 0.2238 0.2555
C39 C 0.5691(3) 0.2921(2) 0.1460(2)
C40 C 0.6147(3) 0.3869(3) 0.1939(3)
C41 C 0.6596(6) 0.4700(4) 0.3392(4)
H44 H 0.6350 0.5255 0.3154
H45 H 0.7502 0.4762 0.3447
C42 C 0.5965(14) 0.4544(16) 0.4350(15)
H46 H 0.5070 0.4484 0.4277
H47 H 0.6248 0.5073 0.4778
H48 H 0.6204 0.3981 0.4562
O13A O 0.3510(4) -0.4545(2) -0.1564(3)
O14A O 0.3895(3) -0.38477(19) -0.2820(2)
N2A N 0.5095(2) -0.12095(19) -0.05638(19)
C34A C 0.5552(3) -0.0280(3) -0.0077(3)
H38A H 0.5940 -0.0363 0.0496
H39A H 0.6174 0.0059 -0.0427
C35A C 0.4300(3) -0.2805(2) -0.0529(2)
H40A H 0.4022 -0.3308 -0.0207
C36A C 0.4706(3) -0.1940(3) -0.0094(2)
H41A H 0.4715 -0.1853 0.0531
C37A C 0.5104(3) -0.1312(2) -0.1466(2)
H42A H 0.5373 -0.0798 -0.1776
C38A C 0.4721(3) -0.2165(2) -0.1930(2)
H43A H 0.4735 -0.2238 -0.2555
C39A C 0.4309(3) -0.2921(2) -0.1460(2)
C40A C 0.3853(3) -0.3869(3) -0.1939(3)
C41A C 0.3404(6) -0.4700(4) -0.3392(4)
H44A H 0.3650 -0.5255 -0.3154
H45A H 0.2498 -0.4762 -0.3447
C42A C 0.4035(14) -0.4544(16) -0.4350(15)
H46A H 0.4930 -0.4484 -0.4277
H47A H 0.3752 -0.5073 -0.4778
H48A H 0.3796 -0.3981 -0.4562
N3 N 1.0178(5) 0.1890(5) -0.2124(4)
C43 C 1.0825(5) 0.2607(4) -0.3588(4)
H49 H 1.0096 0.2740 -0.3907
H50 H 1.1247 0.2171 -0.3959
H51 H 1.1379 0.3180 -0.3440
C44 C 1.0453(5) 0.2202(4) -0.2768(4)
C45? C 0.324(2) -0.098(2) 0.2583(14)
H52? H 0.3288 -0.0779 0.3223
H53? H 0.2558 -0.1488 0.2489
O15? O 0.2675(7) -0.0466(5) 0.1718(5)
C46? C 0.1611(18) -0.0215(16) 0.1846(17)
C47? C 0.4199(16) -0.1327(13) 0.2414(14)
C48? C 0.616(3) 0.485(4) 0.404(3)
H54? H 0.7132 0.0976 0.4852
H55? H 0.7190 0.1963 0.5440
H56? H 0.4780 0.0719 0.4456
H57? H 0.5164 0.1346 0.5361
H58? H 0.0483 0.0670 0.1431
H59? H 0.1350 0.1107 0.2263
H60? H 0.1472 -0.0621 0.1287
H61? H 0.1036 -0.0472 0.2279
H62? H 0.3974 -0.1833 0.1939
H63? H 0.4411 -0.1622 0.2943
H64? H 0.6546 0.5230 0.3046
H65? H 0.7477 0.4670 0.3515
H66? H 0.5278 0.4871 0.3939
H67? H 0.6278 0.4375 0.4424
H68? H 0.6535 0.5454 0.4320
O16? O 0.5702(7) 0.1814(6) 0.4363(5)
loop_
_geom_bond_atom_site_label_1
_geom_bond_atom_site_label_2
_geom_bond_site_symmetry_1
_geom_bond_site_symmetry_2
P1 F1 1_555 1_555
P2 F4 1_555 1_555
F2 P1 1_555 1_555
F3 P1 1_555 1_555
F5 P2 1_555 1_555
F6 P2 1_555 1_555
O1 C2 1_555 1_555
O2 C2 1_555 1_555
O3 C8 1_555 1_555
O4 C8 1_555 1_555
O5 C14 1_555 1_555
O6 C31 1_555 1_555
O7 C29 1_555 1_555
O8 C23 1_555 1_555
O9 C21 1_555 1_555
O10 C19 1_555 1_555
O11 C17 1_555 1_555
O12 C13 1_555 1_555
O13 C40 1_555 1_555
O14 C40 1_555 1_555
N1 C3 1_555 1_555
N2 C34 1_555 1_555
N3 C44 1_555 1_555
C1 H1 1_555 1_555
C2 C3 1_555 1_555
C3 C4 1_555 1_555
C4 H2 1_555 1_555
C5 C4 1_555 1_555
H3 C5 1_555 1_555
C6 C5 1_555 1_555
H4 C6 1_555 1_555
C7 N1 1_555 1_555
C8 C7 1_555 1_555
C9 O4 1_555 1_555
H5 C9 1_555 1_555
H6 C9 1_555 1_555
C10 C1 1_555 1_555
C11 O2 1_555 1_555
H7 C11 1_555 1_555
H8 C11 1_555 1_555
C12 C1 1_555 1_555
H9 C12 1_555 1_555
C13 C12 1_555 1_555
C14 C13 1_555 1_555
C15 C10 1_555 1_555
H10 C15 1_555 1_555
C16 O12 1_555 1_555
H11 C16 1_555 1_555
H12 C16 1_555 1_555
C17 C16 1_555 1_555
H13 C17 1_555 1_555
H14 C17 1_555 1_555
C18 O11 1_555 1_555
H15 C18 1_555 1_555
H16 C18 1_555 1_555
C19 C18 1_555 1_555
H17 C19 1_555 1_555
H18 C19 1_555 1_555
C20 O10 1_555 1_555
H19 C20 1_555 1_555
H20 C20 1_555 1_555
C21 C20 1_555 1_555
H21 C21 1_555 1_555
H22 C21 1_555 1_555
C22 O9 1_555 1_555
C23 C22 1_555 1_555
C24 C23 1_555 1_555
H23 C24 1_555 1_555
C25 C11 1_555 1_555
C26 C25 1_555 1_555
H24 C26 1_555 1_555
C27 C22 1_555 1_555
H25 C27 1_555 1_555
C28 O8 1_555 1_555
H26 C28 1_555 1_555
H27 C28 1_555 1_555
C29 C28 1_555 1_555
H28 C29 1_555 1_555
H29 C29 1_555 1_555
C30 O7 1_555 1_555
H30 C30 1_555 1_555
H31 C30 1_555 1_555
C31 C30 1_555 1_555
H32 C31 1_555 1_555
H33 C31 1_555 1_555
C32 O6 1_555 1_555
H34 C32 1_555 1_555
H35 C32 1_555 1_555
C33 O5 1_555 1_555
H36 C33 1_555 1_555
H37 C33 1_555 1_555
C34 H38 1_555 1_555
H39 C34 1_555 1_555
C35 H40 1_555 1_555
C36 N2 1_555 1_555
H41 C36 1_555 1_555
C37 N2 1_555 1_555
H42 C37 1_555 1_555
C38 C37 1_555 1_555
H43 C38 1_555 1_555
C39 C35 1_555 1_555
C40 C39 1_555 1_555
C41 O14 1_555 1_555
H44 C41 1_555 1_555
H45 C41 1_555 1_555
C42 C41 1_555 1_555
H46 C42 1_555 1_555
H47 C42 1_555 1_555
H48 C42 1_555 1_555
C43 H49 1_555 1_555
H50 C43 1_555 1_555
H51 C43 1_555 1_555
C44 C43 1_555 1_555
F1A P1 1_555 1_555
F2A P1 1_555 1_555
F3A P1 1_555 1_555
F4A P2 1_555 1_555
F5A P2 1_555 1_555
F6A P2 1_555 1_555
O13A C40A 1_555 1_555
O14A C40A 1_555 1_555
N2A C34A 1_555 1_555
C34A C34 1_555 1_555
H38A C34A 1_555 1_555
H39A C34A 1_555 1_555
C35A H40A 1_555 1_555
C36A N2A 1_555 1_555
H41A C36A 1_555 1_555
C37A N2A 1_555 1_555
H42A C37A 1_555 1_555
C38A C37A 1_555 1_555
H43A C38A 1_555 1_555
C39A C35A 1_555 1_555
C40A C39A 1_555 1_555
C41A O14A 1_555 1_555
H44A C41A 1_555 1_555
H45A C41A 1_555 1_555
C42A C41A 1_555 1_555
H46A C42A 1_555 1_555
H47A C42A 1_555 1_555
H48A C42A 1_555 1_555
C6 C7 1_555 1_555
C9 C10 1_555 1_555
C14 C15 1_555 1_555
C24 C25 1_555 1_555
C26 C27 1_555 1_555
C32 C33 1_555 1_555
C35 C36 1_555 1_555
C38 C39 1_555 1_555
C35A C36A 1_555 1_555
C38A C39A 1_555 1_555

#END
