
#######################################################################
#
#                 Cambridge Crystallographic Data Centre
#                                CCDC 
#
#######################################################################
#
# If this CIF has been generated from an entry in the Cambridge 
# Structural Database, then it will include bibliographic, chemical, 
# crystal, experimental, refinement or atomic coordinate data resulting 
# from the CCDC's data processing and validation procedures.
#
#######################################################################

data_SAYXEW
_chemical_formula_moiety         'C16 H13 N4 S1'
_chemical_name_systematic        
2-((4,5-Dihydro-4-phenylthiazol-2-yl)methyl)-3H-imidazo(4,5-b)pyridine
_chemical_properties_biological  'potential biological activity'
_symmetry_cell_setting           monoclinic
_symmetry_space_group_name_H-M   'P 21/c'
_symmetry_Int_Tables_number      14
_space_group_name_Hall           '-P 2ybc'
loop_
_symmetry_equiv_pos_site_id
_symmetry_equiv_pos_as_xyz
1 x,y,z
2 -x,1/2+y,1/2-z
3 -x,-y,-z
4 x,1/2-y,1/2+z
_cell_length_a                   12.685(6)
_cell_length_b                   5.277(2)
_cell_length_c                   21.389(9)
_cell_angle_alpha                90
_cell_angle_beta                 100.577(6)
_cell_angle_gamma                90
_cell_volume                     1407.43
_exptl_crystal_colour            colorless
_exptl_crystal_description       block
_cell_formula_units_Z            4
_exptl_crystal_recrystallization_method methanol
loop_
_atom_site_label
_atom_site_type_symbol
_atom_site_fract_x
_atom_site_fract_y
_atom_site_fract_z
C1 C 0.1685(3) 0.8913(7) 0.26545(17)
H1 H 0.1138 1.0031 0.2487
C2 C 0.1624(2) 0.7222(5) 0.31194(13)
C3 C 0.0710(2) 0.6865(5) 0.34458(14)
C4 C -0.0146(3) 0.8553(7) 0.33510(18)
H2 H -0.0140 0.9916 0.3076
C5 C -0.0998(3) 0.8247(8) 0.3655(2)
H3 H -0.1562 0.9399 0.3583
C6 C -0.1028(3) 0.6277(9) 0.4061(2)
H4 H -0.1604 0.6092 0.4270
C7 C -0.0198(3) 0.4561(8) 0.41601(18)
H5 H -0.0219 0.3198 0.4433
C8 C 0.0672(3) 0.4851(6) 0.38532(16)
H6 H 0.1230 0.3683 0.3923
C9 C 0.3258(2) 0.6338(5) 0.29560(12)
C10 C 0.4368(2) 0.5263(6) 0.30625(13)
H7 H 0.4345 0.3480 0.3170
H8 H 0.4660 0.5408 0.2675
C11 C 0.5075(2) 0.6648(5) 0.35901(12)
C12 C 0.6145(2) 0.9257(5) 0.41357(12)
C13 C 0.6856(2) 1.1145(6) 0.43829(15)
H9 H 0.7126 1.2290 0.4121
C14 C 0.7149(2) 1.1247(6) 0.50388(16)
H10 H 0.7628 1.2482 0.5225
C15 C 0.6737(2) 0.9539(6) 0.54187(15)
H11 H 0.6960 0.9668 0.5857
C16 C 0.57800(19) 0.7653(5) 0.45649(12)
N1 N 0.60379(19) 0.7707(4) 0.51977(10)
N2 N 0.50912(17) 0.6000(4) 0.42027(10)
H12 H 0.4739 0.4789 0.4338
N3 N 0.56817(18) 0.8587(5) 0.35167(10)
N4 N 0.25349(18) 0.5744(4) 0.32886(10)
S1 S 0.28866(7) 0.8740(2) 0.24127(4)
loop_
_geom_bond_atom_site_label_1
_geom_bond_atom_site_label_2
_geom_bond_site_symmetry_1
_geom_bond_site_symmetry_2
C1 H1 1_555 1_555
C2 C1 1_555 1_555
C3 C2 1_555 1_555
C4 C3 1_555 1_555
H2 C4 1_555 1_555
C5 C4 1_555 1_555
H3 C5 1_555 1_555
C6 C5 1_555 1_555
H4 C6 1_555 1_555
C7 C6 1_555 1_555
H5 C7 1_555 1_555
C8 C3 1_555 1_555
H6 C8 1_555 1_555
C9 C10 1_555 1_555
C10 H7 1_555 1_555
H8 C10 1_555 1_555
C11 C10 1_555 1_555
C12 C13 1_555 1_555
C13 H9 1_555 1_555
C14 C13 1_555 1_555
H10 C14 1_555 1_555
C15 C14 1_555 1_555
H11 C15 1_555 1_555
C16 C12 1_555 1_555
N1 C15 1_555 1_555
N2 C11 1_555 1_555
H12 N2 1_555 1_555
N3 C11 1_555 1_555
N4 C2 1_555 1_555
S1 C1 1_555 1_555
C7 C8 1_555 1_555
C9 N4 1_555 1_555
C9 S1 1_555 1_555
C12 N3 1_555 1_555
C16 N1 1_555 1_555
C16 N2 1_555 1_555

#END
