
#######################################################################
#
#                 Cambridge Crystallographic Data Centre
#                                CCDC 
#
#######################################################################
#
# If this CIF has been generated from an entry in the Cambridge 
# Structural Database, then it will include bibliographic, chemical, 
# crystal, experimental, refinement or atomic coordinate data resulting 
# from the CCDC's data processing and validation procedures.
#
#######################################################################

data_SAZDUT
_chemical_formula_moiety         'C16 H17 F1 N4 O2 S2'
_chemical_name_systematic        
'2-(2-Fluoro-5-methylphenyl)-2-oxo-1-(1H-1,2,4-triazol-1-yl)ethyl morpholine-4-carbodithioate'
_symmetry_cell_setting           triclinic
_symmetry_space_group_name_H-M   'P -1'
_symmetry_Int_Tables_number      2
_space_group_name_Hall           '-P 1'
loop_
_symmetry_equiv_pos_site_id
_symmetry_equiv_pos_as_xyz
1 x,y,z
2 -x,-y,-z
_cell_length_a                   6.7311(13)
_cell_length_b                   7.7910(15)
_cell_length_c                   18.107(4)
_cell_angle_alpha                98.200(3)
_cell_angle_beta                 92.649(4)
_cell_angle_gamma                109.900(3)
_cell_volume                     879.145
_exptl_crystal_colour            colorless
_exptl_crystal_description       plate
_cell_formula_units_Z            2
_exptl_crystal_recrystallization_method 'ethyl acetate/alcohol'
loop_
_atom_site_label
_atom_site_type_symbol
_atom_site_fract_x
_atom_site_fract_y
_atom_site_fract_z
S1 S 0.17311(13) 0.60830(11) 0.24119(4)
S2 S 0.39342(16) 0.41709(12) 0.13363(4)
F1 F 0.6179(3) 0.5610(3) 0.32055(10)
O1 O 0.0206(3) 0.4158(4) 0.39562(11)
O2 O 0.1976(4) 0.9085(3) 0.00547(13)
N1 N 0.2772(4) 0.7009(3) 0.11157(12)
N2 N -0.0098(4) 0.2475(3) 0.25445(12)
N3 N -0.0062(4) 0.0810(4) 0.26668(18)
N4 N -0.3260(5) 0.0512(5) 0.21260(18)
C1 C 0.5869(5) 0.6355(4) 0.38979(17)
C2 C 0.7643(5) 0.7462(4) 0.4363(2)
H1 H 0.8988 0.7686 0.4203
C3 C 0.7403(5) 0.8238(4) 0.50711(19)
H2 H 0.8604 0.8978 0.5390
C4 C 0.5407(5) 0.7942(4) 0.53199(16)
C5 C 0.3666(5) 0.6785(4) 0.48332(15)
H3 H 0.2320 0.6546 0.4994
C6 C 0.3834(4) 0.5962(4) 0.41141(15)
C7 C 0.1833(4) 0.4699(4) 0.36642(15)
C8 C 0.1770(4) 0.4112(4) 0.28149(14)
H4 H 0.3056 0.3846 0.2702
C9 C 0.2876(4) 0.5796(4) 0.15465(14)
C10 C 0.3925(5) 0.7235(5) 0.04465(16)
H5 H 0.4244 0.6126 0.0281
H6 H 0.5260 0.8266 0.0571
C11 C 0.2647(6) 0.7582(5) -0.01740(17)
H7 H 0.3494 0.7834 -0.0591
H8 H 0.1412 0.6478 -0.0346
C12 C 0.0693(5) 0.8718(5) 0.06493(19)
H9 H -0.0534 0.7603 0.0484
H10 H 0.0187 0.9735 0.0788
C13 C 0.1891(5) 0.8476(4) 0.13196(17)
H11 H 0.3034 0.9630 0.1518
H12 H 0.0948 0.8157 0.1707
C14 C -0.2013(6) 0.2258(6) 0.22357(19)
H13 H -0.2419 0.3219 0.2113
C15 C -0.1994(6) -0.0296(5) 0.2400(2)
H14 H -0.2452 -0.1564 0.2402
C16 C 0.5139(6) 0.8809(5) 0.60898(18)
H15 H 0.3656 0.8439 0.6159
H16 H 0.5732 1.0133 0.6139
H17 H 0.5860 0.8407 0.6462
loop_
_geom_bond_atom_site_label_1
_geom_bond_atom_site_label_2
_geom_bond_site_symmetry_1
_geom_bond_site_symmetry_2
S1 C8 1_555 1_555
S2 C9 1_555 1_555
F1 C1 1_555 1_555
O1 C7 1_555 1_555
O2 C11 1_555 1_555
N1 C9 1_555 1_555
N2 N3 1_555 1_555
N3 C15 1_555 1_555
N4 C14 1_555 1_555
C1 C2 1_555 1_555
C2 H1 1_555 1_555
C3 C2 1_555 1_555
H2 C3 1_555 1_555
C4 C3 1_555 1_555
C5 C4 1_555 1_555
H3 C5 1_555 1_555
C6 C1 1_555 1_555
C7 C6 1_555 1_555
C8 N2 1_555 1_555
H4 C8 1_555 1_555
C9 S1 1_555 1_555
C10 N1 1_555 1_555
H5 C10 1_555 1_555
H6 C10 1_555 1_555
C11 C10 1_555 1_555
H7 C11 1_555 1_555
H8 C11 1_555 1_555
C12 O2 1_555 1_555
H9 C12 1_555 1_555
H10 C12 1_555 1_555
C13 N1 1_555 1_555
H11 C13 1_555 1_555
H12 C13 1_555 1_555
C14 N2 1_555 1_555
H13 C14 1_555 1_555
C15 N4 1_555 1_555
H14 C15 1_555 1_555
C16 C4 1_555 1_555
H15 C16 1_555 1_555
H16 C16 1_555 1_555
H17 C16 1_555 1_555
C5 C6 1_555 1_555
C7 C8 1_555 1_555
C12 C13 1_555 1_555

#END
