
#######################################################################
#
#                 Cambridge Crystallographic Data Centre
#                                CCDC 
#
#######################################################################
#
# If this CIF has been generated from an entry in the Cambridge 
# Structural Database, then it will include bibliographic, chemical, 
# crystal, experimental, refinement or atomic coordinate data resulting 
# from the CCDC's data processing and validation procedures.
#
#######################################################################

data_SAZNOW
_chemical_formula_moiety         'C25 H30 N3 1+,C24 H20 B1 1-'
_chemical_name_systematic        
'4-(bis(4-(Dimethylamino)phenyl)methylene)-2,5-cyclohexadien-1-ylidene-dimethylammonium tetraphenylborate'
_symmetry_cell_setting           orthorhombic
_symmetry_space_group_name_H-M   'P n 21 a'
_symmetry_Int_Tables_number      33
_space_group_name_Hall           'P -2ac -2n'
loop_
_symmetry_equiv_pos_site_id
_symmetry_equiv_pos_as_xyz
1 x,y,z
2 1/2-x,1/2+y,1/2+z
3 1/2+x,y,1/2-z
4 -x,1/2+y,-z
_cell_length_a                   9.497(6)
_cell_length_b                   16.474(5)
_cell_length_c                   25.894(9)
_cell_angle_alpha                90
_cell_angle_beta                 90
_cell_angle_gamma                90
_cell_volume                     4051.21
_exptl_crystal_colour            purple
_chemical_melting_point          196-198deg.C
_cell_formula_units_Z            4
loop_
_atom_site_label
_atom_site_type_symbol
_atom_site_fract_x
_atom_site_fract_y
_atom_site_fract_z
B1 B 0.7627(7) 0.0424 0.5956(2)
C1 C 0.6967(5) 0.0666(4) 0.5396(2)
C2 C 0.5989(6) 0.1272(4) 0.5320(2)
C3 C 0.5419(8) 0.1454(4) 0.4841(3)
C4 C 0.5855(8) 0.1026(5) 0.4409(3)
C5 C 0.6862(8) 0.0420(4) 0.4461(3)
C6 C 0.7362(6) 0.0244(4) 0.4947(2)
C7 C 0.7462(6) -0.0561(4) 0.6030(2)
C8 C 0.6208(6) -0.0950(4) 0.5878(2)
C9 C 0.5999(7) -0.1777(4) 0.5932(2)
C10 C 0.7027(8) -0.2259(4) 0.6128(3)
C11 C 0.8285(8) -0.1916(4) 0.6281(3)
C12 C 0.8468(7) -0.1082(4) 0.6234(2)
C13 C 0.6807(6) 0.0922(4) 0.6418(2)
C14 C 0.7106(7) 0.1742(4) 0.6532(3)
C15 C 0.6390(9) 0.2165(5) 0.6909(3)
C16 C 0.5352(9) 0.1816(5) 0.7189(3)
C17 C 0.5027(7) 0.1028(5) 0.7097(3)
C18 C 0.5728(6) 0.0606(4) 0.6724(2)
C19 C 0.9327(6) 0.0669(4) 0.5990(2)
C20 C 1.0165(7) 0.0838(4) 0.5568(3)
C21 C 1.1606(8) 0.0982(4) 0.5612(3)
C22 C 1.2220(8) 0.1001(5) 0.6081(4)
C23 C 1.1437(9) 0.0896(5) 0.6514(3)
C24 C 0.9986(7) 0.0715(5) 0.6462(3)
H1 H 0.569 0.158 0.561
H2 H 0.473 0.187 0.480
H3 H 0.549 0.115 0.408
H4 H 0.719 0.013 0.417
H5 H 0.801 -0.019 0.498
H6 H 0.545 -0.063 0.575
H7 H 0.514 -0.202 0.582
H8 H 0.689 -0.283 0.615
H9 H 0.901 -0.225 0.642
H10 H 0.934 -0.087 0.635
H11 H 0.779 0.200 0.632
H12 H 0.662 0.272 0.697
H13 H 0.486 0.209 0.746
H14 H 0.429 0.076 0.728
H15 H 0.548 0.005 0.667
H16 H 0.979 0.087 0.519
H17 H 1.214 0.108 0.531
H18 H 1.318 0.113 0.611
H19 H 1.186 0.087 0.684
H20 H 0.945 0.065 0.677
N1 N 0.3047(6) 0.3420(3) 0.2088(2)
N2 N 0.5965(7) -0.1477(4) 0.0231(3)
N3 N 0.5534(5) -0.1404(3) 0.4022(2)
C25 C 0.4982(6) 0.0190(4) 0.2105(2)
C26 C 0.4492(6) 0.1012(4) 0.2095(2)
C27 C 0.3606(6) 0.1313(4) 0.1706(2)
C28 C 0.3108(6) 0.2086(4) 0.1703(2)
C29 C 0.3479(6) 0.2638(4) 0.2093(2)
C30 C 0.4388(7) 0.2351(4) 0.2480(2)
C31 C 0.4831(7) 0.1570(4) 0.2482(3)
C32 C 0.3484(9) 0.4013(4) 0.2480(3)
C33 C 0.2213(7) 0.3745(4) 0.1670(3)
C34 C 0.5283(6) -0.0243(4) 0.1633(3)
C35 C 0.5709(6) 0.0171(4) 0.1184(2)
C36 C 0.5943(7) -0.0239(4) 0.0731(3)
C37 C 0.5764(7) -0.1084(5) 0.0687(3)
C38 C 0.5358(6) -0.1503(4) 0.1141(3)
C39 C 0.5134(6) -0.1085(4) 0.1590(3)
C40 C 0.644(1) -0.1084(5) -0.0231(3)
C41 C 0.569(1) -0.2314(5) 0.0169(3)
C42 C 0.5146(6) -0.0212(3) 0.2585(2)
C43 C 0.6209(6) -0.0809(4) 0.2690(3)
C44 C 0.6333(6) -0.1193(4) 0.3155(3)
C45 C 0.5421(6) -0.1022(4) 0.3568(3)
C46 C 0.4358(6) -0.0436(4) 0.3467(2)
C47 C 0.4264(6) -0.0043(4) 0.3009(2)
C48 C 0.6604(8) -0.2015(6) 0.4103(4)
C49 C 0.4547(7) -0.1272(5) 0.4444(3)
H21 H 0.332 0.097 0.143
H22 H 0.252 0.227 0.143
H23 H 0.467 0.271 0.275
H24 H 0.542 0.140 0.276
H25 H 0.444 0.386 0.253
H26 H 0.296 0.388 0.278
H27 H 0.343 0.458 0.242
H28 H 0.199 0.431 0.167
H29 H 0.137 0.344 0.164
H30 H 0.281 0.363 0.138
H31 H 0.582 0.074 0.119
H32 H 0.623 0.008 0.045
H33 H 0.519 -0.207 0.114
H34 H 0.488 -0.142 0.188
H35 H 0.710 -0.066 -0.016
H36 H 0.576 -0.090 -0.047
H37 H 0.692 -0.154 -0.037
H38 H 0.502 -0.253 0.040
H39 H 0.661 -0.250 0.026
H40 H 0.548 -0.250 -0.017
H41 H 0.686 -0.093 0.242
H42 H 0.706 -0.158 0.320
H43 H 0.372 -0.030 0.373
H44 H 0.355 0.035 0.297
H45 H 0.656 -0.226 0.444
H46 H 0.745 -0.171 0.407
H47 H 0.659 -0.243 0.385
H48 H 0.485 -0.146 0.477
H49 H 0.370 -0.154 0.435
H50 H 0.439 -0.070 0.446
loop_
_geom_bond_atom_site_label_1
_geom_bond_atom_site_label_2
_geom_bond_site_symmetry_1
_geom_bond_site_symmetry_2
B1 C1 1_555 1_555
C1 C2 1_555 1_555
C2 C3 1_555 1_555
C3 C4 1_555 1_555
C4 C5 1_555 1_555
C5 C6 1_555 1_555
C6 C1 1_555 1_555
C7 B1 1_555 1_555
C8 C7 1_555 1_555
C9 C8 1_555 1_555
C10 C9 1_555 1_555
C11 C10 1_555 1_555
C12 C7 1_555 1_555
C13 B1 1_555 1_555
C14 C13 1_555 1_555
C15 C14 1_555 1_555
C16 C15 1_555 1_555
C17 C16 1_555 1_555
C18 C13 1_555 1_555
C19 B1 1_555 1_555
C20 C19 1_555 1_555
C21 C20 1_555 1_555
C22 C21 1_555 1_555
C23 C22 1_555 1_555
C24 C19 1_555 1_555
H1 C2 1_555 1_555
H2 C3 1_555 1_555
H3 C4 1_555 1_555
H4 C5 1_555 1_555
H5 C6 1_555 1_555
H6 C8 1_555 1_555
H7 C9 1_555 1_555
H8 C10 1_555 1_555
H9 C11 1_555 1_555
H10 C12 1_555 1_555
H11 C14 1_555 1_555
H12 C15 1_555 1_555
H13 C16 1_555 1_555
H14 C17 1_555 1_555
H15 C18 1_555 1_555
H16 C20 1_555 1_555
H17 C21 1_555 1_555
H18 C22 1_555 1_555
H19 C23 1_555 1_555
H20 C24 1_555 1_555
N1 C29 1_555 1_555
N2 C37 1_555 1_555
N3 C45 1_555 1_555
C25 C26 1_555 1_555
C26 C27 1_555 1_555
C27 C28 1_555 1_555
C28 C29 1_555 1_555
C29 C30 1_555 1_555
C30 C31 1_555 1_555
C31 C26 1_555 1_555
C32 N1 1_555 1_555
C33 N1 1_555 1_555
C34 C25 1_555 1_555
C35 C34 1_555 1_555
C36 C35 1_555 1_555
C37 C36 1_555 1_555
C38 C37 1_555 1_555
C39 C34 1_555 1_555
C40 N2 1_555 1_555
C41 N2 1_555 1_555
C42 C25 1_555 1_555
C43 C42 1_555 1_555
C44 C43 1_555 1_555
C45 C44 1_555 1_555
C46 C45 1_555 1_555
C47 C42 1_555 1_555
C48 N3 1_555 1_555
C49 N3 1_555 1_555
H21 C27 1_555 1_555
H22 C28 1_555 1_555
H23 C30 1_555 1_555
H24 C31 1_555 1_555
H25 C32 1_555 1_555
H26 C32 1_555 1_555
H27 C32 1_555 1_555
H28 C33 1_555 1_555
H29 C33 1_555 1_555
H30 C33 1_555 1_555
H31 C35 1_555 1_555
H32 C36 1_555 1_555
H33 C38 1_555 1_555
H34 C39 1_555 1_555
H35 C40 1_555 1_555
H36 C40 1_555 1_555
H37 C40 1_555 1_555
H38 C41 1_555 1_555
H39 C41 1_555 1_555
H40 C41 1_555 1_555
H41 C43 1_555 1_555
H42 C44 1_555 1_555
H43 C46 1_555 1_555
H44 C47 1_555 1_555
H45 C48 1_555 1_555
H46 C48 1_555 1_555
H47 C48 1_555 1_555
H48 C49 1_555 1_555
H49 C49 1_555 1_555
H50 C49 1_555 1_555
C11 C12 1_555 1_555
C17 C18 1_555 1_555
C23 C24 1_555 1_555
C38 C39 1_555 1_555
C46 C47 1_555 1_555

#END
