
#######################################################################
#
#                 Cambridge Crystallographic Data Centre
#                                CCDC 
#
#######################################################################
#
# If this CIF has been generated from an entry in the Cambridge 
# Structural Database, then it will include bibliographic, chemical, 
# crystal, experimental, refinement or atomic coordinate data resulting 
# from the CCDC's data processing and validation procedures.
#
#######################################################################

data_SAZSIY
_chemical_name_common            
1-methyl-1,2,3,6,6a,11,11a,11b-octahydro-5H-indolizino[8,7-b]indol-5-one
_chemical_formula_moiety         'C15 H18 N2 O1'
_chemical_name_systematic        
(1S,6aR,11aS,11bR)-1-methyl-2,3,6,6a,11,11a-hexahydro-1H-indolizino[8,7-b]indol-5(11bH)-one
_symmetry_cell_setting           monoclinic
_symmetry_space_group_name_H-M   'P 21'
_symmetry_Int_Tables_number      4
_space_group_name_Hall           'P 2yb'
loop_
_symmetry_equiv_pos_site_id
_symmetry_equiv_pos_as_xyz
1 x,y,z
2 -x,1/2+y,-z
_cell_length_a                   7.7443(17)
_cell_length_b                   8.1105(14)
_cell_length_c                   10.523(2)
_cell_angle_alpha                90
_cell_angle_beta                 103.09(2)
_cell_angle_gamma                90
_cell_volume                     643.777
_exptl_crystal_colour            colorless
_cell_formula_units_Z            2
_exptl_crystal_recrystallization_method 'ethyl acetate'
loop_
_atom_site_label
_atom_site_type_symbol
_atom_site_fract_x
_atom_site_fract_y
_atom_site_fract_z
O1 O 0.2992(3) -0.1784(3) 0.0642(3)
N1 N 0.3450(3) 0.0743(3) 0.1564(3)
N2 N 0.2307(4) 0.4772(4) -0.0110(3)
H1 H 0.2735 0.5638 0.0360
C1 C 0.3115(4) -0.0270(5) 0.0540(3)
C2 C 0.2837(5) 0.0630(4) -0.0727(3)
H2 H 0.2413 -0.0149 -0.1455
H3 H 0.3976 0.1103 -0.0830
C3 C 0.1481(4) 0.2008(4) -0.0777(3)
H4 H 0.0286 0.1515 -0.0817
C4 C 0.1375(4) 0.3156(4) -0.1908(3)
C5 C 0.0944(4) 0.2850(5) -0.3223(3)
H5 H 0.0619 0.1771 -0.3540
C6 C 0.0987(4) 0.4134(5) -0.4087(3)
H6 H 0.0695 0.3932 -0.5000
C7 C 0.1450(4) 0.5699(5) -0.3630(3)
H7 H 0.1470 0.6567 -0.4232
C8 C 0.1887(4) 0.6024(4) -0.2308(3)
H8 H 0.2202 0.7107 -0.1996
C9 C 0.1858(4) 0.4747(4) -0.1449(3)
C10 C 0.1983(4) 0.3168(4) 0.0437(3)
H9 H 0.0966 0.3254 0.0873
C11 C 0.3627(4) 0.2543(4) 0.1404(3)
H10 H 0.4698 0.2767 0.1049
C12 C 0.3968(4) 0.3160(5) 0.2817(3)
H11 H 0.5281 0.3138 0.3169
C13 C 0.3184(5) 0.1837(5) 0.3538(3)
H12 H 0.3757 0.1845 0.4480
H13 H 0.1892 0.2002 0.3432
C14 C 0.3561(5) 0.0241(5) 0.2909(3)
H14 H 0.4755 -0.0187 0.3317
H15 H 0.2664 -0.0610 0.2963
C15 C 0.3349(5) 0.4919(5) 0.3007(3)
H16 H 0.3911 0.5690 0.2508
H17 H 0.3681 0.5209 0.3935
H18 H 0.2058 0.4985 0.2701
loop_
_geom_bond_atom_site_label_1
_geom_bond_atom_site_label_2
_geom_bond_site_symmetry_1
_geom_bond_site_symmetry_2
O1 C1 1_555 1_555
N1 C1 1_555 1_555
N2 H1 1_555 1_555
C1 C2 1_555 1_555
C2 H2 1_555 1_555
H3 C2 1_555 1_555
C3 C2 1_555 1_555
H4 C3 1_555 1_555
C4 C3 1_555 1_555
C5 C4 1_555 1_555
H5 C5 1_555 1_555
C6 C5 1_555 1_555
H6 C6 1_555 1_555
C7 C6 1_555 1_555
H7 C7 1_555 1_555
C8 C7 1_555 1_555
H8 C8 1_555 1_555
C9 N2 1_555 1_555
C10 N2 1_555 1_555
H9 C10 1_555 1_555
C11 N1 1_555 1_555
H10 C11 1_555 1_555
C12 C11 1_555 1_555
H11 C12 1_555 1_555
C13 C12 1_555 1_555
H12 C13 1_555 1_555
H13 C13 1_555 1_555
C14 N1 1_555 1_555
H14 C14 1_555 1_555
H15 C14 1_555 1_555
C15 C12 1_555 1_555
H16 C15 1_555 1_555
H17 C15 1_555 1_555
H18 C15 1_555 1_555
C3 C10 1_555 1_555
C4 C9 1_555 1_555
C8 C9 1_555 1_555
C10 C11 1_555 1_555
C13 C14 1_555 1_555

#END
