
#######################################################################
#
#                 Cambridge Crystallographic Data Centre
#                                CCDC 
#
#######################################################################
#
# If this CIF has been generated from an entry in the Cambridge 
# Structural Database, then it will include bibliographic, chemical, 
# crystal, experimental, refinement or atomic coordinate data resulting 
# from the CCDC's data processing and validation procedures.
#
#######################################################################

data_SAZTAR
_chemical_name_common            
2,3,4,4a,5,6,9,9a,14,14a,14b,14c-dodecahydroindolo[2',3':3,4]pyrido[2,1-a]isoquinolin-8(1H)-one
_chemical_formula_moiety         'C19 H24 N2 O1'
_chemical_name_systematic        
(4aS,9aR,14aS,14bR,14cR)-2,3,4,4a,5,6,9,9a,14,14a,14b,14c-dodecahydroindolo[2',3':3,4]pyrido[2,1-a]isoquinolin-8(1H)-one
_symmetry_cell_setting           orthorhombic
_symmetry_space_group_name_H-M   'P 21 21 21'
_symmetry_Int_Tables_number      19
_space_group_name_Hall           'P 2ac 2ab'
loop_
_symmetry_equiv_pos_site_id
_symmetry_equiv_pos_as_xyz
1 x,y,z
2 1/2-x,-y,1/2+z
3 -x,1/2+y,1/2-z
4 1/2+x,1/2-y,-z
_cell_length_a                   7.9605(6)
_cell_length_b                   8.5671(9)
_cell_length_c                   23.4340(13)
_cell_angle_alpha                90
_cell_angle_beta                 90
_cell_angle_gamma                90
_cell_volume                     1598.16
_exptl_crystal_colour            colorless
_cell_formula_units_Z            4
loop_
_atom_site_label
_atom_site_type_symbol
_atom_site_fract_x
_atom_site_fract_y
_atom_site_fract_z
O1 O -0.1023(3) 0.2372(5) 0.25758(13)
N1 N 0.1408(4) 0.2867(4) 0.21054(13)
N2 N 0.5367(4) 0.2973(4) 0.29032(14)
H1 H 0.624(6) 0.298(5) 0.2741(18)
C1 C 0.5402(5) 0.3358(4) 0.34815(15)
C2 C 0.6676(5) 0.3106(5) 0.38763(16)
H2 H 0.7733 0.2700 0.3760
C3 C 0.6365(7) 0.3462(5) 0.44420(18)
H3 H 0.7218 0.3296 0.4719
C4 C 0.4834(6) 0.4055(6) 0.46094(18)
H4 H 0.4639 0.4286 0.5000
C5 C 0.3572(7) 0.4318(5) 0.42109(18)
H5 H 0.2515 0.4724 0.4326
C6 C 0.3880(5) 0.3980(5) 0.36471(16)
C7 C 0.2728(5) 0.4040(4) 0.31339(16)
H6 H 0.2158 0.5078 0.3109
C8 C 0.1448(5) 0.2731(6) 0.31353(17)
H7 H 0.2030 0.1724 0.3198
H8 H 0.0650 0.2891 0.3454
C9 C 0.0497(5) 0.2661(5) 0.25852(17)
C10 C 0.0614(5) 0.2355(6) 0.15663(19)
H9 H 0.0799 0.1219 0.1520
H10 H -0.0612 0.2532 0.1593
C11 C 0.1260(5) 0.3166(6) 0.10581(16)
H11 H 0.0929 0.4279 0.1075
H12 H 0.0747 0.2704 0.0712
C12 C 0.3162(5) 0.3052(5) 0.10142(15)
H13 H 0.3471 0.1922 0.0997
C13 C 0.3831(6) 0.3833(6) 0.04847(17)
H14 H 0.3461 0.4936 0.0479
H15 H 0.3358 0.3311 0.0144
C14 C 0.5745(6) 0.3773(5) 0.04561(17)
H16 H 0.6121 0.2675 0.0423
H17 H 0.6142 0.4347 0.0115
C15 C 0.6488(5) 0.4501(5) 0.09918(16)
H18 H 0.7728 0.4410 0.0980
H19 H 0.6199 0.5624 0.1004
C16 C 0.5828(5) 0.3703(5) 0.15262(17)
H20 H 0.6299 0.4229 0.1867
H21 H 0.6214 0.2605 0.1530
C17 C 0.3911(5) 0.3739(4) 0.15593(16)
H22 H 0.3564 0.4860 0.1577
C18 C 0.3277(4) 0.2953(4) 0.21058(15)
H23 H 0.3724 0.1862 0.2114
C19 C 0.3959(4) 0.3822(4) 0.26365(15)
H24 H 0.4370 0.4873 0.2514
loop_
_geom_bond_atom_site_label_1
_geom_bond_atom_site_label_2
_geom_bond_site_symmetry_1
_geom_bond_site_symmetry_2
O1 C9 1_555 1_555
N1 C9 1_555 1_555
N2 H1 1_555 1_555
C1 N2 1_555 1_555
C2 C1 1_555 1_555
H2 C2 1_555 1_555
C3 C2 1_555 1_555
H3 C3 1_555 1_555
C4 C3 1_555 1_555
H4 C4 1_555 1_555
C5 C4 1_555 1_555
H5 C5 1_555 1_555
C6 C1 1_555 1_555
C7 C6 1_555 1_555
H6 C7 1_555 1_555
C8 C7 1_555 1_555
H7 C8 1_555 1_555
H8 C8 1_555 1_555
C9 C8 1_555 1_555
C10 N1 1_555 1_555
H9 C10 1_555 1_555
H10 C10 1_555 1_555
C11 C10 1_555 1_555
H11 C11 1_555 1_555
H12 C11 1_555 1_555
C12 C11 1_555 1_555
H13 C12 1_555 1_555
C13 C12 1_555 1_555
H14 C13 1_555 1_555
H15 C13 1_555 1_555
C14 C13 1_555 1_555
H16 C14 1_555 1_555
H17 C14 1_555 1_555
C15 C14 1_555 1_555
H18 C15 1_555 1_555
H19 C15 1_555 1_555
C16 C15 1_555 1_555
H20 C16 1_555 1_555
H21 C16 1_555 1_555
C17 C12 1_555 1_555
H22 C17 1_555 1_555
C18 N1 1_555 1_555
H23 C18 1_555 1_555
C19 N2 1_555 1_555
H24 C19 1_555 1_555
C5 C6 1_555 1_555
C7 C19 1_555 1_555
C16 C17 1_555 1_555
C17 C18 1_555 1_555
C18 C19 1_555 1_555

#END
