
#######################################################################
#
#                 Cambridge Crystallographic Data Centre
#                                CCDC 
#
#######################################################################
#
# If this CIF has been generated from an entry in the Cambridge 
# Structural Database, then it will include bibliographic, chemical, 
# crystal, experimental, refinement or atomic coordinate data resulting 
# from the CCDC's data processing and validation procedures.
#
#######################################################################

data_SCCHRN02
_chemical_name_common            o-Sulfobenzoimide
_chemical_formula_moiety         'C7 H5 N1 O3 S1'
_chemical_name_systematic        Saccharin
_symmetry_cell_setting           monoclinic
_symmetry_space_group_name_H-M   'P 21/c'
_symmetry_Int_Tables_number      14
_space_group_name_Hall           '-P 2ybc'
loop_
_symmetry_equiv_pos_site_id
_symmetry_equiv_pos_as_xyz
1 x,y,z
2 -x,1/2+y,1/2-z
3 -x,-y,-z
4 x,1/2-y,1/2+z
_cell_length_a                   9.4722(4)
_cell_length_b                   6.9227(2)
_cell_length_c                   11.7322(3)
_cell_angle_alpha                90
_cell_angle_beta                 103.203(3)
_cell_angle_gamma                90
_cell_volume                     748.982
_exptl_crystal_colour            colorless
_exptl_crystal_description       lath
_cell_formula_units_Z            4
loop_
_atom_site_label
_atom_site_type_symbol
_atom_site_fract_x
_atom_site_fract_y
_atom_site_fract_z
S1 S 0.21067(5) 0.22909(7) 0.34594(4)
O1 O 0.24538(17) 0.1705(2) 0.23876(12)
O2 O 0.08217(15) 0.3423(2) 0.33788(13)
O3 O 0.52054(15) 0.3079(2) 0.60463(11)
N1 N 0.35108(18) 0.3420(2) 0.43105(14)
C1 C 0.2223(2) 0.0356(3) 0.44441(16)
C2 C 0.1361(2) -0.1284(3) 0.43285(18)
C3 C 0.1685(2) -0.2627(3) 0.52349(19)
C4 C 0.2818(2) -0.2340(3) 0.62062(18)
C5 C 0.3685(2) -0.0699(3) 0.62963(17)
C6 C 0.3373(2) 0.0646(3) 0.54037(15)
C7 C 0.4147(2) 0.2483(3) 0.53308(16)
H1 H 0.3838 0.4622 0.4087
H2 H 0.0588 -0.1481 0.3664
H3 H 0.1117 -0.3767 0.5188
H4 H 0.3004 -0.3275 0.6815
H5 H 0.4470 -0.0508 0.6953
loop_
_geom_bond_atom_site_label_1
_geom_bond_atom_site_label_2
_geom_bond_site_symmetry_1
_geom_bond_site_symmetry_2
S1 O1 1_555 1_555
O2 S1 1_555 1_555
O3 C7 1_555 1_555
N1 S1 1_555 1_555
C1 S1 1_555 1_555
C2 C1 1_555 1_555
C3 C2 1_555 1_555
C4 C3 1_555 1_555
C5 C4 1_555 1_555
C6 C1 1_555 1_555
C7 N1 1_555 1_555
H1 N1 1_555 1_555
H2 C2 1_555 1_555
H3 C3 1_555 1_555
H4 C4 1_555 1_555
H5 C5 1_555 1_555
C5 C6 1_555 1_555
C6 C7 1_555 1_555

#END
