
#######################################################################
#
#                 Cambridge Crystallographic Data Centre
#                                CCDC 
#
#######################################################################
#
# If this CIF has been generated from an entry in the Cambridge 
# Structural Database, then it will include bibliographic, chemical, 
# crystal, experimental, refinement or atomic coordinate data resulting 
# from the CCDC's data processing and validation procedures.
#
#######################################################################

data_SEBJIV
_chemical_formula_moiety         'C10 H12 N3 1+,C2 F3 O2 1-'
_chemical_name_systematic        
'2-amino-5,7-dimethyl-1,8-naphthyridin-1-ium trifluoroacetate'
_symmetry_cell_setting           triclinic
_symmetry_space_group_name_H-M   'P -1'
_symmetry_Int_Tables_number      2
_space_group_name_Hall           '-P 1'
loop_
_symmetry_equiv_pos_site_id
_symmetry_equiv_pos_as_xyz
1 x,y,z
2 -x,-y,-z
_cell_length_a                   7.1048(7)
_cell_length_b                   12.1152(11)
_cell_length_c                   15.8125(13)
_cell_angle_alpha                89.369(2)
_cell_angle_beta                 81.1040(10)
_cell_angle_gamma                88.390(2)
_cell_volume                     1344.14
_exptl_crystal_colour            colorless
_exptl_crystal_description       block
_cell_formula_units_Z            4
loop_
_atom_site_label
_atom_site_type_symbol
_atom_site_fract_x
_atom_site_fract_y
_atom_site_fract_z
F1 F 0.6928(3) -0.10860(15) 0.14475(13)
F2 F 0.5432(4) 0.0419(2) 0.13260(17)
F3 F 0.7862(4) 0.00180(18) 0.04308(14)
O1 O 0.9676(4) -0.00489(17) 0.20641(14)
O2 O 0.8162(4) 0.15546(18) 0.18660(15)
C1 C 0.8467(6) 0.0548(3) 0.1787(2)
C2 C 0.7144(7) -0.0035(3) 0.1255(2)
F4 F 0.8889(4) 0.3786(2) 0.44664(16)
F5 F 0.6550(5) 0.4440(2) 0.39519(18)
F6 F 0.7494(4) 0.5212(2) 0.49886(17)
O3 O 1.0437(4) 0.48873(16) 0.30584(14)
O4 O 0.9109(4) 0.64172(19) 0.36741(15)
C3 C 0.9344(5) 0.5413(3) 0.3605(2)
C4 C 0.8066(7) 0.4730(4) 0.4262(3)
N1 N 0.2252(4) 0.08688(19) 0.29833(15)
H1 H 0.1422 0.0574 0.2720
N2 N 0.3346(4) -0.0892(2) 0.31690(16)
N3 N 0.0849(5) 0.2561(2) 0.27699(17)
H2 H 0.0031 0.2236 0.2518
H3 H 0.0792 0.3267 0.2823
C5 C 0.2186(6) 0.1978(3) 0.3073(2)
C6 C 0.3588(7) 0.2448(3) 0.3503(2)
H4 H 0.3571 0.3206 0.3591
C7 C 0.4925(6) 0.1806(3) 0.3781(2)
H5 H 0.5847 0.2135 0.4044
C8 C 0.4995(6) 0.0638(3) 0.3689(2)
C9 C 0.3566(5) 0.0191(3) 0.3288(2)
C10 C 0.4625(6) -0.1579(3) 0.3450(2)
C11 C 0.6115(6) -0.1197(3) 0.3839(2)
H6 H 0.6981 -0.1704 0.4018
C12 C 0.6333(5) -0.0093(4) 0.3963(2)
C13 C 0.4381(6) -0.2787(3) 0.3324(3)
H7 H 0.3133 -0.2992 0.3592
H8 H 0.5326 -0.3203 0.3575
H9 H 0.4528 -0.2941 0.2722
C14 C 0.7968(6) 0.0299(3) 0.4380(2)
H10 H 0.8761 -0.0322 0.4494
H11 H 0.7474 0.0662 0.4908
H12 H 0.8705 0.0807 0.4004
N4 N 0.1317(4) 0.59548(18) 0.15017(15)
H13 H 0.1127 0.5642 0.1997
N5 N 0.2163(4) 0.42339(18) 0.09785(15)
N6 N 0.0318(4) 0.76050(19) 0.21571(18)
H14 H 0.0084 0.7265 0.2641
H15 H 0.0111 0.8306 0.2130
C15 C 0.0994(5) 0.7051(2) 0.1458(2)
C16 C 0.1361(5) 0.7563(3) 0.0640(2)
H16 H 0.1190 0.8324 0.0590
C17 C 0.1954(5) 0.6959(3) -0.0061(2)
H17 H 0.2169 0.7309 -0.0592
C18 C 0.2259(4) 0.5803(2) -0.0012(2)
C19 C 0.1934(4) 0.5303(2) 0.08009(18)
C20 C 0.2759(5) 0.3581(3) 0.0306(2)
C21 C 0.3099(5) 0.3988(3) -0.0531(2)
H18 H 0.3490 0.3503 -0.0980
C22 C 0.2867(5) 0.5092(3) -0.0704(2)
C23 C 0.3049(5) 0.2387(2) 0.0518(2)
H19 H 0.3602 0.2326 0.1034
H20 H 0.3887 0.2039 0.0057
H21 H 0.1843 0.2031 0.0599
C24 C 0.3239(6) 0.5516(3) -0.1618(2)
H22 H 0.3616 0.4910 -0.1998
H23 H 0.4237 0.6042 -0.1674
H24 H 0.2098 0.5866 -0.1761
loop_
_geom_bond_atom_site_label_1
_geom_bond_atom_site_label_2
_geom_bond_site_symmetry_1
_geom_bond_site_symmetry_2
F1 C2 1_555 1_555
F2 C2 1_555 1_555
F3 C2 1_555 1_555
O1 C1 1_555 1_555
O2 C1 1_555 1_555
C1 C2 1_555 1_555
F4 C4 1_555 1_555
F5 C4 1_555 1_555
F6 C4 1_555 1_555
O3 C3 1_555 1_555
O4 C3 1_555 1_555
C3 C4 1_555 1_555
N1 H1 1_555 1_555
N2 C9 1_555 1_555
N3 H2 1_555 1_555
H3 N3 1_555 1_555
C5 N1 1_555 1_555
C6 C5 1_555 1_555
H4 C6 1_555 1_555
C7 C6 1_555 1_555
H5 C7 1_555 1_555
C8 C7 1_555 1_555
C9 N1 1_555 1_555
C10 N2 1_555 1_555
C11 C10 1_555 1_555
H6 C11 1_555 1_555
C12 C8 1_555 1_555
C13 C10 1_555 1_555
H7 C13 1_555 1_555
H8 C13 1_555 1_555
H9 C13 1_555 1_555
C14 C12 1_555 1_555
H10 C14 1_555 1_555
H11 C14 1_555 1_555
H12 C14 1_555 1_555
N4 H13 1_555 1_555
N5 C19 1_555 1_555
N6 H14 1_555 1_555
H15 N6 1_555 1_555
C15 N4 1_555 1_555
C16 C15 1_555 1_555
H16 C16 1_555 1_555
C17 C16 1_555 1_555
H17 C17 1_555 1_555
C18 C17 1_555 1_555
C19 N4 1_555 1_555
C20 N5 1_555 1_555
C21 C20 1_555 1_555
H18 C21 1_555 1_555
C22 C18 1_555 1_555
C23 C20 1_555 1_555
H19 C23 1_555 1_555
H20 C23 1_555 1_555
H21 C23 1_555 1_555
C24 C22 1_555 1_555
H22 C24 1_555 1_555
H23 C24 1_555 1_555
H24 C24 1_555 1_555
N3 C5 1_555 1_555
C8 C9 1_555 1_555
C11 C12 1_555 1_555
N6 C15 1_555 1_555
C18 C19 1_555 1_555
C21 C22 1_555 1_555

#END
