
#######################################################################
#
#                 Cambridge Crystallographic Data Centre
#                                CCDC 
#
#######################################################################
#
# If this CIF has been generated from an entry in the Cambridge 
# Structural Database, then it will include bibliographic, chemical, 
# crystal, experimental, refinement or atomic coordinate data resulting 
# from the CCDC's data processing and validation procedures.
#
#######################################################################

data_SEBKES
_chemical_formula_moiety         'C11 H13 O2 1-,C10 H12 N3 1+'
_chemical_name_systematic        
'2-amino-5,7-dimethyl-1,8-naphthyridin-1-ium 4-t-butylbenzoate'
_symmetry_cell_setting           monoclinic
_symmetry_space_group_name_H-M   'P 21/c'
_symmetry_Int_Tables_number      14
_space_group_name_Hall           '-P 2ybc'
loop_
_symmetry_equiv_pos_site_id
_symmetry_equiv_pos_as_xyz
1 x,y,z
2 -x,1/2+y,1/2-z
3 -x,-y,-z
4 x,1/2-y,1/2+z
_cell_length_a                   12.9412(12)
_cell_length_b                   12.7419(12)
_cell_length_c                   12.3692(11)
_cell_angle_alpha                90
_cell_angle_beta                 107.789(2)
_cell_angle_gamma                90
_cell_volume                     1942.11
_exptl_crystal_colour            colorless
_exptl_crystal_description       block
_cell_formula_units_Z            4
loop_
_atom_site_label
_atom_site_type_symbol
_atom_site_fract_x
_atom_site_fract_y
_atom_site_fract_z
N1 N 1.06050(16) 0.68714(16) 0.46065(17)
H1 H 1.1132 0.7075 0.4371
N2 N 0.99547(18) 0.59822(17) 0.29187(18)
N3 N 1.1357(2) 0.77976(18) 0.6236(2)
H2 H 1.1874 0.7992 0.5980
H3 H 1.1347 0.8004 0.6895
C1 C 1.0579(2) 0.7182(2) 0.5618(2)
C2 C 0.9710(2) 0.6850(2) 0.6023(3)
H4 H 0.9680 0.7070 0.6730
C3 C 0.8938(2) 0.6217(2) 0.5375(3)
H5 H 0.8381 0.5993 0.5647
C4 C 0.8950(2) 0.58816(19) 0.4290(2)
C5 C 0.9819(2) 0.62358(19) 0.3921(2)
C6 C 0.9207(2) 0.5354(2) 0.2241(2)
C7 C 0.8309(2) 0.4988(2) 0.2530(3)
H6 H 0.7800 0.4567 0.2021
C8 C 0.8167(2) 0.5237(2) 0.3548(3)
C9 C 0.9386(3) 0.5038(3) 0.1141(3)
H7 H 1.0148 0.4941 0.1259
H8 H 0.9116 0.5577 0.0585
H9 H 0.9009 0.4393 0.0878
C10 C 0.7183(3) 0.4856(3) 0.3848(3)
H10 H 0.6727 0.5443 0.3879
H11 H 0.7411 0.4514 0.4574
H12 H 0.6784 0.4369 0.3281
O1 O 0.22584(16) 0.71669(17) 0.38700(17)
O2 O 0.29514(17) 0.83585(17) 0.51975(18)
C11 C 0.2988(2) 0.7830(2) 0.4373(2)
C12 C 0.3914(2) 0.7960(2) 0.3896(2)
C13 C 0.4666(3) 0.8749(3) 0.4291(3)
H13 H 0.4621 0.9171 0.4888
C14 C 0.5481(3) 0.8920(3) 0.3814(3)
H14 H 0.5973 0.9461 0.4096
C15 C 0.5596(2) 0.8319(2) 0.2933(3)
C16 C 0.4861(2) 0.7514(2) 0.2575(3)
H15 H 0.4922 0.7071 0.2000
C17 C 0.4036(2) 0.7344(2) 0.3044(3)
H16 H 0.3551 0.6796 0.2772
C18 C 0.6462(3) 0.8554(3) 0.2352(3)
C19 C 0.6904(11) 0.7566(10) 0.1994(14)
H17 H 0.7431 0.7744 0.1620
H18 H 0.6323 0.7177 0.1483
H19 H 0.7243 0.7146 0.2652
C20 C 0.5865(7) 0.9190(8) 0.1259(8)
H20 H 0.5502 0.9781 0.1461
H21 H 0.5341 0.8748 0.0742
H22 H 0.6384 0.9433 0.0903
C21 C 0.7355(6) 0.9284(11) 0.3048(7)
H23 H 0.7834 0.9459 0.2615
H24 H 0.7758 0.8938 0.3737
H25 H 0.7034 0.9913 0.3228
C22? C 0.648(3) 0.773(3) 0.145(3)
H26? H 0.5904 0.7868 0.0768
H27? H 0.6387 0.7044 0.1731
H28? H 0.7165 0.7761 0.1301
C23? C 0.637(2) 0.967(2) 0.195(3)
H29? H 0.6956 0.9824 0.1655
H30? H 0.6404 1.0125 0.2578
H31? H 0.5691 0.9763 0.1369
C24? C 0.7559(13) 0.839(3) 0.3332(19)
H32? H 0.8158 0.8554 0.3056
H33? H 0.7613 0.7674 0.3581
H34? H 0.7575 0.8844 0.3956
loop_
_geom_bond_atom_site_label_1
_geom_bond_atom_site_label_2
_geom_bond_site_symmetry_1
_geom_bond_site_symmetry_2
N1 H1 1_555 1_555
N2 C5 1_555 1_555
N3 H2 1_555 1_555
H3 N3 1_555 1_555
C1 N1 1_555 1_555
C2 C1 1_555 1_555
H4 C2 1_555 1_555
C3 C2 1_555 1_555
H5 C3 1_555 1_555
C4 C3 1_555 1_555
C5 N1 1_555 1_555
C6 N2 1_555 1_555
C7 C6 1_555 1_555
H6 C7 1_555 1_555
C8 C4 1_555 1_555
C9 C6 1_555 1_555
H7 C9 1_555 1_555
H8 C9 1_555 1_555
H9 C9 1_555 1_555
C10 C8 1_555 1_555
H10 C10 1_555 1_555
H11 C10 1_555 1_555
H12 C10 1_555 1_555
O1 C11 1_555 1_555
O2 C11 1_555 1_555
C11 C12 1_555 1_555
C12 C13 1_555 1_555
C13 H13 1_555 1_555
C14 C13 1_555 1_555
H14 C14 1_555 1_555
C15 C14 1_555 1_555
C16 C15 1_555 1_555
H15 C16 1_555 1_555
C17 C12 1_555 1_555
H16 C17 1_555 1_555
C18 C15 1_555 1_555
C19 C18 1_555 1_555
H17 C19 1_555 1_555
H18 C19 1_555 1_555
H19 C19 1_555 1_555
C20 C18 1_555 1_555
H20 C20 1_555 1_555
H21 C20 1_555 1_555
H22 C20 1_555 1_555
C21 C18 1_555 1_555
H23 C21 1_555 1_555
H24 C21 1_555 1_555
H25 C21 1_555 1_555
N3 C1 1_555 1_555
C4 C5 1_555 1_555
C7 C8 1_555 1_555
C16 C17 1_555 1_555

#END
