
#######################################################################
#
#                 Cambridge Crystallographic Data Centre
#                                CCDC 
#
#######################################################################
#
# If this CIF has been generated from an entry in the Cambridge 
# Structural Database, then it will include bibliographic, chemical, 
# crystal, experimental, refinement or atomic coordinate data resulting 
# from the CCDC's data processing and validation procedures.
#
#######################################################################

data_SECYAC
_chemical_formula_moiety         'C12 H13 N1 O4,H2 O1'
_chemical_name_systematic        
'3-Ethyl-3-hydroxy-8-methoxyquinoline-2,4(1H,3H)-dione monohydrate'
_symmetry_cell_setting           orthorhombic
_symmetry_space_group_name_H-M   'P b c a'
_symmetry_Int_Tables_number      61
_space_group_name_Hall           '-P 2ac 2ab'
loop_
_symmetry_equiv_pos_site_id
_symmetry_equiv_pos_as_xyz
1 x,y,z
2 1/2-x,-y,1/2+z
3 1/2+x,1/2-y,-z
4 -x,1/2+y,1/2-z
5 -x,-y,-z
6 1/2+x,y,1/2-z
7 1/2-x,1/2+y,z
8 x,1/2-y,1/2+z
_cell_length_a                   16.5055(4)
_cell_length_b                   8.8068(2)
_cell_length_c                   16.6690(4)
_cell_angle_alpha                90
_cell_angle_beta                 90
_cell_angle_gamma                90
_cell_volume                     2423.02
_exptl_crystal_colour            yellow
_exptl_crystal_description       prism
_cell_formula_units_Z            8
loop_
_atom_site_label
_atom_site_type_symbol
_atom_site_fract_x
_atom_site_fract_y
_atom_site_fract_z
O1 O 0.08014(8) 0.56475(12) 0.75104(6)
O2 O 0.04557(8) 0.18242(13) 0.56925(8)
O3 O 0.05871(8) 0.26982(13) 0.72594(7)
H1 H 0.0359 0.1965 0.7058
O4 O 0.14902(8) 0.81485(13) 0.51080(7)
N1 N 0.11348(8) 0.61105(15) 0.62211(7)
H2 H 0.1065(10) 0.7068(16) 0.6299(11)
C1 C 0.09586(9) 0.51728(17) 0.68405(8)
C2 C 0.10269(9) 0.34757(17) 0.66669(9)
C3 C 0.07607(9) 0.30617(16) 0.58203(10)
C4 C 0.09477(9) 0.41692(17) 0.51912(9)
C5 C 0.09051(10) 0.3782(2) 0.43780(10)
H3 H 0.0777 0.2795 0.4227
C6 C 0.10534(11) 0.4863(2) 0.38047(10)
H4 H 0.1023 0.4608 0.3264
C7 C 0.12485(10) 0.6336(2) 0.40285(9)
H5 H 0.1344 0.7062 0.3634
C8 C 0.13022(9) 0.67423(18) 0.48253(9)
C9 C 0.11398(9) 0.56549(17) 0.54186(8)
C10 C 0.19372(10) 0.3023(2) 0.67026(10)
H6 H 0.1986 0.1950 0.6581
H7 H 0.2228 0.3579 0.6291
C11 C 0.23315(12) 0.3326(3) 0.74990(11)
H8 H 0.2035 0.2817 0.7915
H9 H 0.2333 0.4399 0.7602
H10 H 0.2879 0.2957 0.7490
C12 C 0.16490(14) 0.9320(2) 0.45424(12)
H11 H 0.1179 0.9477 0.4214
H12 H 0.2099 0.9033 0.4210
H13 H 0.1777 1.0243 0.4822
O5 O 0.06321(11) 0.90745(16) 0.66799(10)
H14 H 0.0478(14) 0.978(3) 0.6301(13)
H15 H 0.0132(11) 0.900(3) 0.6914(14)
loop_
_geom_bond_atom_site_label_1
_geom_bond_atom_site_label_2
_geom_bond_site_symmetry_1
_geom_bond_site_symmetry_2
O1 C1 1_555 1_555
O2 C3 1_555 1_555
O3 H1 1_555 1_555
O4 C8 1_555 1_555
N1 H2 1_555 1_555
C1 N1 1_555 1_555
C2 O3 1_555 1_555
C3 C2 1_555 1_555
C4 C3 1_555 1_555
C5 C4 1_555 1_555
H3 C5 1_555 1_555
C6 C5 1_555 1_555
H4 C6 1_555 1_555
C7 C6 1_555 1_555
H5 C7 1_555 1_555
C8 C7 1_555 1_555
C9 N1 1_555 1_555
C10 C2 1_555 1_555
H6 C10 1_555 1_555
H7 C10 1_555 1_555
C11 C10 1_555 1_555
H8 C11 1_555 1_555
H9 C11 1_555 1_555
H10 C11 1_555 1_555
C12 O4 1_555 1_555
H11 C12 1_555 1_555
H12 C12 1_555 1_555
H13 C12 1_555 1_555
O5 H14 1_555 1_555
H15 O5 1_555 1_555
C1 C2 1_555 1_555
C4 C9 1_555 1_555
C8 C9 1_555 1_555

#END
