
#######################################################################
#
#                 Cambridge Crystallographic Data Centre
#                                CCDC 
#
#######################################################################
#
# If this CIF has been generated from an entry in the Cambridge 
# Structural Database, then it will include bibliographic, chemical, 
# crystal, experimental, refinement or atomic coordinate data resulting 
# from the CCDC's data processing and validation procedures.
#
#######################################################################

data_SECZAC
_chemical_formula_moiety         'C20 H16 N2'
_chemical_name_systematic        
2-Benzyl-2-(3,4-dihydronaphthalen-1-yl)malononitrile
_symmetry_cell_setting           triclinic
_symmetry_space_group_name_H-M   'P -1'
_symmetry_Int_Tables_number      2
_space_group_name_Hall           '-P 1'
loop_
_symmetry_equiv_pos_site_id
_symmetry_equiv_pos_as_xyz
1 x,y,z
2 -x,-y,-z
_cell_length_a                   8.829(1)
_cell_length_b                   8.999(1)
_cell_length_c                   20.210(2)
_cell_angle_alpha                78.48(1)
_cell_angle_beta                 88.69(1)
_cell_angle_gamma                84.74(1)
_cell_volume                     1566.74
_chemical_melting_point          '78-80 deg.C'
_cell_formula_units_Z            4
loop_
_atom_site_label
_atom_site_type_symbol
_atom_site_fract_x
_atom_site_fract_y
_atom_site_fract_z
N1 N 0.2900(3) 0.1201(2) 0.01201(12)
N2 N 0.5560(2) -0.1115(2) 0.18532(11)
C1 C 0.5874(3) 0.3026(2) 0.08668(11)
C2 C 0.6614(3) 0.1948(3) 0.05375(12)
H1 H 0.6262 0.0987 0.0598
C3 C 0.7848(3) 0.2261(3) 0.01255(13)
H2 H 0.8322 0.1518 -0.0088
C4 C 0.8380(3) 0.3669(3) 0.00299(17)
H3 H 0.9223 0.3887 -0.0245
C5 C 0.7660(3) 0.4753(3) 0.03420(17)
H4 H 0.8017 0.5714 0.0270
C6 C 0.6422(3) 0.4467(3) 0.07610(14)
C7 C 0.5580(4) 0.5686(3) 0.10654(18)
H5 H 0.6288 0.6406 0.1131
H6 H 0.4816 0.6229 0.0747
C8 C 0.4866(5) 0.5165(3) 0.16810(18)
H7 H 0.4121 0.5959 0.1774
H8 H 0.5620 0.4969 0.2037
C9 C 0.4083(4) 0.3734(3) 0.16966(15)
H9 H 0.3252 0.3544 0.1982
C10 C 0.4544(3) 0.2751(3) 0.13176(11)
C11 C 0.3731(3) 0.1286(2) 0.13465(11)
C12 C 0.2265(3) 0.1202(3) 0.17912(12)
H10 H 0.2532 0.1266 0.2247
H11 H 0.1562 0.2079 0.1617
C13 C 0.1470(3) -0.0216(3) 0.18195(12)
C14 C 0.1786(3) -0.1479(3) 0.23269(13)
H12 H 0.2512 -0.1460 0.2651
C15 C 0.1034(3) -0.2762(3) 0.23553(16)
H13 H 0.1264 -0.3607 0.2697
C16 C -0.0049(3) -0.2818(3) 0.18883(17)
H14 H -0.0545 -0.3695 0.1910
C17 C -0.0393(3) -0.1570(4) 0.13906(15)
H15 H -0.1134 -0.1591 0.1073
C18 C 0.0359(3) -0.0279(3) 0.13583(13)
H16 H 0.0112 0.0567 0.1019
C19 C 0.3295(3) 0.1204(3) 0.06497(13)
C20 C 0.4779(3) -0.0072(3) 0.16168(12)
N3 N 0.4520(3) 1.0884(3) 0.32323(11)
N4 N 0.7311(3) 0.8687(3) 0.49445(12)
C21 C 0.4189(3) 0.6901(2) 0.41139(11)
C22 C 0.3514(3) 0.7913(3) 0.44948(12)
H17 H 0.4024 0.8738 0.4552
C23 C 0.2104(3) 0.7716(3) 0.47894(13)
H18 H 0.1673 0.8399 0.5045
C24 C 0.1336(4) 0.6506(3) 0.47031(16)
H19 H 0.0381 0.6370 0.4897
C25 C 0.1993(4) 0.5499(3) 0.43273(16)
H20 H 0.1466 0.4684 0.4271
C26 C 0.3408(3) 0.5660(3) 0.40321(13)
C27 C 0.4087(3) 0.4591(3) 0.36020(16)
H21 H 0.3674 0.3613 0.3741
H22 H 0.3803 0.4989 0.3135
C28 C 0.5753(4) 0.4373(3) 0.36506(16)
H23 H 0.6157 0.3849 0.3300
H24 H 0.6039 0.3740 0.4084
C29 C 0.6428(3) 0.5867(3) 0.35761(14)
H25 H 0.7385 0.5969 0.3379
C30 C 0.5700(3) 0.7048(2) 0.37840(11)
C31 C 0.6448(3) 0.8556(2) 0.37290(11)
C32 C 0.7884(3) 0.8685(3) 0.32635(12)
H26 H 0.8655 0.7886 0.3454
H27 H 0.7615 0.8506 0.2825
C33 C 0.8563(3) 1.0192(3) 0.31634(12)
C34 C 0.9634(3) 1.0444(3) 0.36095(14)
H28 H 0.9922 0.9683 0.3979
C35 C 1.0278(3) 1.1810(4) 0.35115(17)
H29 H 1.0987 1.1970 0.3817
C36 C 0.9875(4) 1.2927(4) 0.29660(18)
H30 H 1.0308 1.3850 0.2899
C37 C 0.8831(3) 1.2685(3) 0.25171(16)
H31 H 0.8562 1.3444 0.2144
C38 C 0.8181(3) 1.1333(3) 0.26136(13)
H32 H 0.7473 1.1184 0.2305
C39 C 0.5342(3) 0.9871(3) 0.34610(12)
C40 C 0.6906(3) 0.8676(3) 0.44155(13)
loop_
_geom_bond_atom_site_label_1
_geom_bond_atom_site_label_2
_geom_bond_site_symmetry_1
_geom_bond_site_symmetry_2
N1 C19 1_555 1_555
N2 C20 1_555 1_555
C1 C2 1_555 1_555
C2 H1 1_555 1_555
C3 C2 1_555 1_555
H2 C3 1_555 1_555
C4 C3 1_555 1_555
H3 C4 1_555 1_555
C5 C4 1_555 1_555
H4 C5 1_555 1_555
C6 C1 1_555 1_555
C7 C6 1_555 1_555
H5 C7 1_555 1_555
H6 C7 1_555 1_555
C8 C7 1_555 1_555
H7 C8 1_555 1_555
H8 C8 1_555 1_555
C9 C8 1_555 1_555
H9 C9 1_555 1_555
C10 C1 1_555 1_555
C11 C10 1_555 1_555
C12 C11 1_555 1_555
H10 C12 1_555 1_555
H11 C12 1_555 1_555
C13 C12 1_555 1_555
C14 C13 1_555 1_555
H12 C14 1_555 1_555
C15 C14 1_555 1_555
H13 C15 1_555 1_555
C16 C15 1_555 1_555
H14 C16 1_555 1_555
C17 C16 1_555 1_555
H15 C17 1_555 1_555
C18 C13 1_555 1_555
H16 C18 1_555 1_555
C19 C11 1_555 1_555
C20 C11 1_555 1_555
N3 C39 1_555 1_555
N4 C40 1_555 1_555
C21 C22 1_555 1_555
C22 H17 1_555 1_555
C23 C22 1_555 1_555
H18 C23 1_555 1_555
C24 C23 1_555 1_555
H19 C24 1_555 1_555
C25 C24 1_555 1_555
H20 C25 1_555 1_555
C26 C21 1_555 1_555
C27 C26 1_555 1_555
H21 C27 1_555 1_555
H22 C27 1_555 1_555
C28 C27 1_555 1_555
H23 C28 1_555 1_555
H24 C28 1_555 1_555
C29 C28 1_555 1_555
H25 C29 1_555 1_555
C30 C21 1_555 1_555
C31 C30 1_555 1_555
C32 C31 1_555 1_555
H26 C32 1_555 1_555
H27 C32 1_555 1_555
C33 C32 1_555 1_555
C34 C33 1_555 1_555
H28 C34 1_555 1_555
C35 C34 1_555 1_555
H29 C35 1_555 1_555
C36 C35 1_555 1_555
H30 C36 1_555 1_555
C37 C36 1_555 1_555
H31 C37 1_555 1_555
C38 C33 1_555 1_555
H32 C38 1_555 1_555
C39 C31 1_555 1_555
C40 C31 1_555 1_555
C5 C6 1_555 1_555
C9 C10 1_555 1_555
C17 C18 1_555 1_555
C25 C26 1_555 1_555
C29 C30 1_555 1_555
C37 C38 1_555 1_555

#END
