
#######################################################################
#
#                 Cambridge Crystallographic Data Centre
#                                CCDC 
#
#######################################################################
#
# If this CIF has been generated from an entry in the Cambridge 
# Structural Database, then it will include bibliographic, chemical, 
# crystal, experimental, refinement or atomic coordinate data resulting 
# from the CCDC's data processing and validation procedures.
#
#######################################################################

data_SECZEG
_chemical_formula_moiety         'C21 H16 Cl1 N3 O2'
_chemical_name_systematic        
2-((2S)-2-((1R)-1-(4-Chlorophenyl)-2-nitroethyl)-3,4-dihydro-2H-naphthalen-1-ylidene)malononitrile
_symmetry_cell_setting           orthorhombic
_symmetry_space_group_name_H-M   'P 21 21 21'
_symmetry_Int_Tables_number      19
_space_group_name_Hall           'P 2ac 2ab'
loop_
_symmetry_equiv_pos_site_id
_symmetry_equiv_pos_as_xyz
1 x,y,z
2 1/2-x,-y,1/2+z
3 -x,1/2+y,1/2-z
4 1/2+x,1/2-y,-z
_cell_length_a                   9.153(1)
_cell_length_b                   12.666(2)
_cell_length_c                   15.801(2)
_cell_angle_alpha                90
_cell_angle_beta                 90
_cell_angle_gamma                90
_cell_volume                     1831.84
_chemical_melting_point          '197-199 deg.C'
_cell_formula_units_Z            4
_exptl_crystal_recrystallization_method 'ethyl acetate/petroleum ether'
loop_
_atom_site_label
_atom_site_type_symbol
_atom_site_fract_x
_atom_site_fract_y
_atom_site_fract_z
Cl1 Cl 0.35882(9) 0.62062(8) 0.44644(5)
O1 O 0.7029(4) 0.3932(3) 0.88298(17)
O2 O 0.6671(3) 0.3433(2) 0.75617(16)
N1 N 1.4526(3) 0.5658(2) 0.81066(15)
N2 N 1.0602(3) 0.7325(2) 0.85399(17)
N3 N 0.7235(3) 0.4007(2) 0.80777(17)
C1 C 1.1156(3) 0.53572(17) 0.70055(14)
C2 C 1.1804(3) 0.44588(18) 0.65617(15)
C3 C 1.2775(3) 0.3760(2) 0.69587(17)
H1 H 1.3012 0.3862 0.7525
C4 C 1.3380(3) 0.2930(2) 0.6528(2)
H2 H 1.4028 0.2476 0.6799
C5 C 1.3022(3) 0.2771(2) 0.5686(2)
H3 H 1.3441 0.2215 0.5389
C6 C 1.2056(3) 0.3427(2) 0.52887(17)
H4 H 1.1814 0.3302 0.4726
C7 C 1.1423(3) 0.4281(2) 0.57103(15)
C8 C 1.0330(3) 0.4964(2) 0.52617(17)
H5 H 0.9442 0.4562 0.5174
H6 H 1.0716 0.5152 0.4710
C9 C 0.9959(3) 0.5967(2) 0.57385(15)
H7 H 0.9085 0.6279 0.5498
H8 H 1.0751 0.6469 0.5676
C10 C 0.9707(2) 0.57464(19) 0.66824(15)
H9 H 0.9484 0.6417 0.6963
C11 C 0.8418(3) 0.49612(18) 0.68562(15)
H10 H 0.8737 0.4255 0.6682
C12 C 0.7092(3) 0.5259(2) 0.63205(15)
C13 C 0.6552(3) 0.4550(2) 0.57381(17)
H11 H 0.6933 0.3870 0.5720
C14 C 0.5452(3) 0.4830(3) 0.51791(18)
H12 H 0.5097 0.4344 0.4788
C15 C 0.4901(3) 0.5828(3) 0.52120(17)
C16 C 0.5366(3) 0.6544(3) 0.58056(17)
H13 H 0.4948 0.7213 0.5837
C17 C 0.6463(3) 0.6252(2) 0.63541(16)
H14 H 0.6789 0.6734 0.6757
C18 C 1.1851(3) 0.58814(19) 0.76398(14)
C19 C 1.3349(3) 0.5721(2) 0.78921(14)
C20 C 1.1143(3) 0.6691(2) 0.81253(17)
C21 C 0.8120(3) 0.4931(2) 0.78062(15)
H15 H 0.9046 0.4918 0.8105
H16 H 0.7613 0.5572 0.7967
loop_
_geom_bond_atom_site_label_1
_geom_bond_atom_site_label_2
_geom_bond_site_symmetry_1
_geom_bond_site_symmetry_2
Cl1 C15 1_555 1_555
O1 N3 1_555 1_555
O2 N3 1_555 1_555
N1 C19 1_555 1_555
N2 C20 1_555 1_555
N3 C21 1_555 1_555
C1 C2 1_555 1_555
C2 C3 1_555 1_555
C3 H1 1_555 1_555
C4 C3 1_555 1_555
H2 C4 1_555 1_555
C5 C4 1_555 1_555
H3 C5 1_555 1_555
C6 C5 1_555 1_555
H4 C6 1_555 1_555
C7 C2 1_555 1_555
C8 C7 1_555 1_555
H5 C8 1_555 1_555
H6 C8 1_555 1_555
C9 C8 1_555 1_555
H7 C9 1_555 1_555
H8 C9 1_555 1_555
C10 C1 1_555 1_555
H9 C10 1_555 1_555
C11 C10 1_555 1_555
H10 C11 1_555 1_555
C12 C11 1_555 1_555
C13 C12 1_555 1_555
H11 C13 1_555 1_555
C14 C13 1_555 1_555
H12 C14 1_555 1_555
C15 C14 1_555 1_555
C16 C15 1_555 1_555
H13 C16 1_555 1_555
C17 C12 1_555 1_555
H14 C17 1_555 1_555
C18 C1 1_555 1_555
C19 C18 1_555 1_555
C20 C18 1_555 1_555
C21 C11 1_555 1_555
H15 C21 1_555 1_555
H16 C21 1_555 1_555
C6 C7 1_555 1_555
C9 C10 1_555 1_555
C16 C17 1_555 1_555

#END
