
#######################################################################
#
#                 Cambridge Crystallographic Data Centre
#                                CCDC 
#
#######################################################################
#
# If this CIF has been generated from an entry in the Cambridge 
# Structural Database, then it will include bibliographic, chemical, 
# crystal, experimental, refinement or atomic coordinate data resulting 
# from the CCDC's data processing and validation procedures.
#
#######################################################################

data_SEDGIS
_chemical_formula_moiety         'C16 H21 B1 N1 O2 1+,Cl1 1-'
_chemical_name_systematic        
'N-(5-(5,5-Dimethyl-1,3,2-dioxaborinan-2-yl)naphth-1-yl)-N-methylammonium chloride'
_symmetry_cell_setting           monoclinic
_symmetry_space_group_name_H-M   'P 21/c'
_symmetry_Int_Tables_number      14
_space_group_name_Hall           '-P 2ybc'
loop_
_symmetry_equiv_pos_site_id
_symmetry_equiv_pos_as_xyz
1 x,y,z
2 -x,1/2+y,1/2-z
3 -x,-y,-z
4 x,1/2-y,1/2+z
_cell_length_a                   10.023(5)
_cell_length_b                   6.314(2)
_cell_length_c                   25.083(8)
_cell_angle_alpha                90
_cell_angle_beta                 93.07(4)
_cell_angle_gamma                90
_cell_volume                     1585.11
_exptl_crystal_colour            colorless
_exptl_crystal_description       plate
_cell_formula_units_Z            4
_exptl_crystal_recrystallization_method methanol
loop_
_atom_site_label
_atom_site_type_symbol
_atom_site_fract_x
_atom_site_fract_y
_atom_site_fract_z
Cl1 Cl 0.90411(4) 0.66408(6) 0.930410(16)
B1 B 0.56013(19) 0.0918(3) 0.84270(8)
C1 C 0.43207(16) 0.1845(3) 0.86851(6)
C2 C 0.42771(15) 0.3733(3) 0.90042(6)
C3 C 0.53975(16) 0.5095(3) 0.90901(7)
H1 H 0.6207 0.4771 0.8927
C4 C 0.53350(17) 0.6855(3) 0.94013(7)
H2 H 0.6095 0.7748 0.9447
C5 C 0.41563(17) 0.7371(3) 0.96563(7)
H3 H 0.4125 0.8588 0.9878
C6 C 0.30648(15) 0.6105(3) 0.95802(6)
C7 C 0.30640(15) 0.4278(2) 0.92489(6)
C8 C 0.19168(16) 0.2993(3) 0.91542(7)
H4 H 0.1104 0.3365 0.9309
C9 C 0.19691(17) 0.1228(3) 0.88436(7)
H5 H 0.1193 0.0382 0.8780
C10 C 0.31671(17) 0.0657(3) 0.86170(7)
H6 H 0.3186 -0.0598 0.8408
C11 C 0.65466(19) -0.1857(3) 0.79080(8)
H7 H 0.6281 -0.2596 0.7571
H8 H 0.6850 -0.2939 0.8173
C12 C 0.76955(17) -0.0357(3) 0.78116(7)
C13 C 0.80102(17) 0.0847(3) 0.83280(7)
H9 H 0.8443 -0.0127 0.8594
H10 H 0.8651 0.1996 0.8260
C14 C 0.7320(2) 0.1169(3) 0.73559(8)
H11 H 0.7077 0.0361 0.7031
H12 H 0.8083 0.2088 0.7292
H13 H 0.6559 0.2038 0.7452
C15 C 0.8917(2) -0.1662(3) 0.76811(8)
H14 H 0.9147 -0.2631 0.7977
H15 H 0.9672 -0.0712 0.7628
H16 H 0.8717 -0.2479 0.7354
C16 C 0.17971(18) 0.8507(3) 1.01820(7)
H17 H 0.2480 0.8435 1.0476
H18 H 0.0913 0.8652 1.0327
H19 H 0.1971 0.9733 0.9956
N1 N 0.18381(13) 0.6539(2) 0.98581(5)
H20 H 0.1690 0.5411 1.0079
H21 H 0.1137 0.6584 0.9606
O1 O 0.68319(11) 0.1750(2) 0.85461(5)
O2 O 0.54080(12) -0.0763(2) 0.80987(5)
loop_
_geom_bond_atom_site_label_1
_geom_bond_atom_site_label_2
_geom_bond_site_symmetry_1
_geom_bond_site_symmetry_2
B1 C1 1_555 1_555
C1 C2 1_555 1_555
C2 C3 1_555 1_555
C3 H1 1_555 1_555
C4 C3 1_555 1_555
H2 C4 1_555 1_555
C5 C4 1_555 1_555
H3 C5 1_555 1_555
C6 C5 1_555 1_555
C7 C2 1_555 1_555
C8 C7 1_555 1_555
H4 C8 1_555 1_555
C9 C8 1_555 1_555
H5 C9 1_555 1_555
C10 C1 1_555 1_555
H6 C10 1_555 1_555
C11 H7 1_555 1_555
H8 C11 1_555 1_555
C12 C11 1_555 1_555
C13 C12 1_555 1_555
H9 C13 1_555 1_555
H10 C13 1_555 1_555
C14 C12 1_555 1_555
H11 C14 1_555 1_555
H12 C14 1_555 1_555
H13 C14 1_555 1_555
C15 C12 1_555 1_555
H14 C15 1_555 1_555
H15 C15 1_555 1_555
H16 C15 1_555 1_555
C16 H17 1_555 1_555
H18 C16 1_555 1_555
H19 C16 1_555 1_555
N1 C6 1_555 1_555
H20 N1 1_555 1_555
H21 N1 1_555 1_555
O1 B1 1_555 1_555
O2 B1 1_555 1_555
C6 C7 1_555 1_555
C9 C10 1_555 1_555
C11 O2 1_555 1_555
C13 O1 1_555 1_555
C16 N1 1_555 1_555

#END
