
#######################################################################
#
#                 Cambridge Crystallographic Data Centre
#                                CCDC 
#
#######################################################################
#
# If this CIF has been generated from an entry in the Cambridge 
# Structural Database, then it will include bibliographic, chemical, 
# crystal, experimental, refinement or atomic coordinate data resulting 
# from the CCDC's data processing and validation procedures.
#
#######################################################################

data_SEDJOD
_chemical_name_common            
'(2,2,2-cryptand)-potassium(i) 8,22,35-tri-t-butyl-5,11,19,25,32,38-hexaoxo-1,4,12,15,18,26,31,39-octaazapentacyclo[13.13.13.1$6,10!.1$20,24!.1$33,37!]tetratetraconta-6(44),7,9,20(43),21,23,33(42),34,36-nonaen-4-ide acetonitrile solvate'
_chemical_formula_moiety         
'C48 H65 N8 O6 1-,C18 H36 K1 N2 O6 1+,8(C2 H3 N1)'
_chemical_name_systematic        
'(4,7,13,16,21,24-hexaoxa-1,10-diazabicyclo[8.8.8]hexacosane)-potassium 8,22,35-tri-t-butyl-5,11,19,25,32,38-hexaoxo-1,4,12,15,18,26,31,39-octaazapentacyclo[13.13.13.1^6,10^.1^20,24^.1^33,37^]tetratetraconta-6(44),7,9,20(43),21,23,33(42),34,36-nonaen-4-ide acetonitrile solvate'
_symmetry_cell_setting           monoclinic
_symmetry_space_group_name_H-M   'C 2/c'
_symmetry_Int_Tables_number      15
_space_group_name_Hall           '-C 2yn'
loop_
_symmetry_equiv_pos_site_id
_symmetry_equiv_pos_as_xyz
1 x,y,z
2 -x,y,1/2-z
3 1/2+x,1/2+y,z
4 1/2-x,1/2+y,1/2-z
5 -x,-y,-z
6 x,-y,1/2+z
7 1/2-x,1/2-y,-z
8 1/2+x,1/2-y,1/2+z
_cell_length_a                   37.565(3)
_cell_length_b                   20.3058(16)
_cell_length_c                   22.5109(18)
_cell_angle_alpha                90
_cell_angle_beta                 118.616(2)
_cell_angle_gamma                90
_cell_volume                     15073.6
_exptl_crystal_colour            colorless
_exptl_crystal_description       block
_cell_formula_units_Z            8
_exptl_crystal_recrystallization_method acetonitrile/Ether
loop_
_atom_site_label
_atom_site_type_symbol
_atom_site_fract_x
_atom_site_fract_y
_atom_site_fract_z
O7 O 0.23782(3) 0.17175(5) 0.21151(5)
O8 O 0.34290(3) 0.08185(5) 0.14751(5)
O9 O 0.24170(3) 0.03187(5) 0.29557(5)
O10 O 0.12293(3) 0.05902(6) 0.02359(5)
O11 O 0.14060(4) 0.14535(7) 0.34448(6)
O12 O 0.36699(4) 0.12705(7) 0.51503(6)
N3 N 0.23228(3) 0.20690(6) 0.06993(6)
N4 N 0.24006(4) -0.07820(6) 0.30860(6)
H37 H 0.247434 -0.117253 0.301429
N5 N 0.23968(4) 0.28491(6) 0.19653(6)
N6 N 0.30284(4) 0.14090(6) 0.17734(6)
H38 H 0.290154 0.141949 0.201585
N7 N 0.18403(4) 0.10062(6) 0.09912(6)
H39 H 0.199605 0.115106 0.140498
N8 N 0.19840(4) 0.10963(6) 0.34760(7)
H40 H 0.210727 0.098275 0.324332
N9 N 0.25520(5) 0.00424(6) 0.44082(7)
N10 N 0.32125(5) 0.06561(7) 0.42861(7)
H41 H 0.305444 0.062688 0.384588
C19 C 0.27480(4) -0.03292(7) 0.24970(7)
C20 C 0.30748(4) 0.02298(7) 0.19479(7)
C21 C 0.12998(5) 0.09133(7) 0.13005(8)
C22 C 0.27161(4) 0.20280(7) 0.07201(7)
H42 H 0.275236 0.241545 0.048750
H43 H 0.272492 0.162795 0.047621
C23 C 0.20075(4) 0.16354(7) 0.02193(7)
H44 H 0.204998 0.157105 -0.017821
H45 H 0.174058 0.185044 0.006013
C24 C 0.25163(4) 0.23001(7) 0.23078(7)
C25 C 0.20538(4) 0.28022(7) 0.12834(7)
H46 H 0.188418 0.320209 0.118643
H47 H 0.188522 0.241771 0.125883
C26 C 0.28479(4) 0.02524(7) 0.22842(7)
H48 H 0.276077 0.066391 0.236936
C27 C 0.31967(4) -0.03762(7) 0.18154(7)
H49 H 0.335437 -0.038637 0.158840
C28 C 0.25074(4) -0.02441(7) 0.28651(7)
C29 C 0.28684(4) -0.09320(7) 0.23561(7)
H50 H 0.279699 -0.132756 0.249878
C30 C 0.31923(4) 0.08410(7) 0.17108(7)
C31 C 0.30932(4) -0.09656(7) 0.20072(7)
C32 C 0.30569(4) 0.29452(7) 0.33071(7)
H51 H 0.299216 0.332489 0.302781
C33 C 0.20000(4) 0.09651(7) 0.05169(7)
H52 H 0.183025 0.065915 0.014582
H53 H 0.227866 0.078422 0.075253
C34 C 0.30595(4) 0.20039(7) 0.14440(7)
H54 H 0.332329 0.201143 0.144515
H55 H 0.304573 0.239485 0.169510
C35 C 0.14565(4) 0.08243(7) 0.08011(7)
C36 C 0.33508(5) 0.29918(8) 0.39874(8)
C37 C 0.28564(4) 0.23546(7) 0.30280(7)
C38 C 0.32081(5) -0.16348(8) 0.18429(8)
C39 C 0.15434(5) 0.10466(7) 0.19894(8)
H56 H 0.182886 0.108839 0.217568
C40 C 0.29579(5) 0.17952(7) 0.34314(7)
H57 H 0.282232 0.139106 0.324681
C41 C 0.13607(5) 0.11173(7) 0.23996(8)
C42 C 0.32583(5) 0.18252(8) 0.41069(8)
C43 C 0.21906(5) 0.27305(7) 0.07491(7)
H58 H 0.196347 0.285690 0.030356
H59 H 0.241657 0.304081 0.085565
C44 C 0.15863(5) 0.12397(7) 0.31481(8)
C45 C 0.22626(6) 0.04411(8) 0.45184(8)
H60 H 0.235867 0.048092 0.501032
H61 H 0.199596 0.021719 0.431137
C46 C 0.35381(5) 0.36630(8) 0.42807(8)
C47 C 0.08831(5) 0.08501(7) 0.10369(8)
H62 H 0.072301 0.073921 0.057267
C48 C 0.22140(6) 0.11264(8) 0.42126(8)
H63 H 0.207172 0.141529 0.438533
H64 H 0.248483 0.131803 0.435090
C49 C 0.09385(5) 0.10763(8) 0.21136(9)
H65 H 0.081735 0.114087 0.239521
C50 C 0.34480(5) 0.24246(8) 0.43789(8)
H66 H 0.364805 0.244511 0.484191
C51 C 0.06909(5) 0.09440(8) 0.14304(9)
C52 C 0.21647(5) -0.07336(8) 0.34428(8)
H67 H 0.200315 -0.114123 0.336101
H68 H 0.197258 -0.036129 0.325186
C53 C 0.33957(5) 0.12321(9) 0.45598(8)
C54 C 0.24215(6) -0.06326(8) 0.42063(8)
H69 H 0.226286 -0.077893 0.442870
H70 H 0.266469 -0.091690 0.437346
C55 C 0.02300(5) 0.08708(9) 0.11159(10)
C56 C 0.32732(6) 0.00810(9) 0.47112(9)
H71 H 0.355132 0.008667 0.509914
H72 H 0.324143 -0.032516 0.444708
C57 C 0.32067(6) 0.41117(9) 0.42631(10)
H73 H 0.299924 0.418388 0.379244
H74 H 0.332562 0.453522 0.447324
H75 H 0.308261 0.390396 0.451231
C58 C 0.29659(6) 0.00842(9) 0.49684(8)
H76 H 0.301829 -0.029377 0.527730
H77 H 0.299659 0.049362 0.522744
C59 C 0.28250(6) -0.19938(10) 0.13339(11)
H78 H 0.268734 -0.173190 0.091888
H79 H 0.264332 -0.205570 0.152862
H80 H 0.289876 -0.242410 0.122787
C60 C 0.38691(6) 0.36118(10) 0.50204(10)
H81 H 0.375035 0.344909 0.529660
H82 H 0.398868 0.404726 0.518320
H83 H 0.408004 0.330621 0.505461
C61 C 0.37221(7) 0.39635(10) 0.38708(11)
H84 H 0.392487 0.366164 0.386808
H85 H 0.385186 0.438327 0.407475
H86 H 0.350823 0.403933 0.340546
C62 C 0.34932(8) -0.15778(10) 0.15406(14)
H87 H 0.357454 -0.201906 0.147560
H88 H 0.373435 -0.132626 0.184838
H89 H 0.335406 -0.135145 0.110338
C63 C 0.34163(7) -0.20499(10) 0.24897(10)
H90 H 0.322265 -0.214491 0.265395
H91 H 0.364751 -0.180595 0.283682
H92 H 0.351166 -0.246423 0.239179
C64 C 0.00198(6) 0.12094(13) 0.04169(12)
H93 H 0.010334 0.099427 0.011364
H94 H 0.009766 0.167503 0.046722
H95 H -0.027497 0.117405 0.022598
C65 C 0.00655(7) 0.11959(15) 0.15408(14)
H96 H -0.023127 0.117064 0.130298
H97 H 0.014977 0.165858 0.161735
H98 H 0.017167 0.096854 0.197680
C66 C 0.01244(7) 0.01434(11) 0.10184(15)
H99 H 0.023209 -0.005517 0.074037
H100 H -0.017096 0.009100 0.079162
H101 H 0.024384 -0.007534 0.146024
K1 K 0.49916(2) 0.16895(2) 0.40606(2)
O1 O 0.42267(3) 0.22737(6) 0.33372(6)
O2 O 0.54914(4) 0.21524(6) 0.53839(7)
O3 O 0.49011(4) 0.29471(6) 0.34182(7)
O4 O 0.48779(4) 0.12408(8) 0.51717(6)
O5 O 0.48643(4) 0.04578(7) 0.33741(8)
O6 O 0.56072(4) 0.11263(8) 0.38384(8)
N1 N 0.42573(5) 0.08966(8) 0.37711(7)
N2 N 0.57284(5) 0.24874(9) 0.43491(9)
C1 C 0.38942(5) 0.18314(10) 0.29988(9)
H1 H 0.391408 0.160819 0.262476
H2 H 0.363570 0.207905 0.280385
C2 C 0.58924(6) 0.27688(10) 0.50334(10)
H3 H 0.573043 0.316277 0.500788
H4 H 0.617349 0.291767 0.518146
C3 C 0.58972(5) 0.23188(11) 0.55594(11)
H5 H 0.605207 0.191503 0.558682
H6 H 0.603001 0.253823 0.600666
C4 C 0.41860(6) 0.28209(10) 0.29197(10)
H7 H 0.392916 0.305489 0.279957
H8 H 0.417903 0.266901 0.249635
C5 C 0.56170(7) 0.30126(13) 0.38448(14)
H9 H 0.557742 0.281675 0.341464
H10 H 0.584570 0.332690 0.399965
C6 C 0.50404(6) 0.16917(12) 0.57241(10)
H11 H 0.501877 0.150385 0.611143
H12 H 0.488500 0.210870 0.558971
C7 C 0.54712(6) 0.18210(11) 0.59237(10)
H13 H 0.559553 0.209662 0.633686
H14 H 0.562230 0.140049 0.602271
C8 C 0.42018(7) 0.03803(10) 0.32794(11)
H15 H 0.409067 0.058172 0.282469
H16 H 0.399977 0.005959 0.326655
C9 C 0.39012(5) 0.13309(11) 0.34924(9)
H17 H 0.389176 0.156371 0.387097
H18 H 0.365396 0.105644 0.326497
C10 C 0.45856(8) 0.00181(11) 0.34325(12)
H19 H 0.470895 -0.016424 0.389676
H20 H 0.452282 -0.035284 0.311210
C11 C 0.45367(7) 0.32759(10) 0.32897(11)
H21 H 0.450129 0.367526 0.301457
H22 H 0.455065 0.341286 0.372249
C12 C 0.58547(7) 0.15865(13) 0.37254(14)
H23 H 0.569052 0.182757 0.329710
H24 H 0.607566 0.135318 0.369150
C13 C 0.43057(7) 0.06140(13) 0.44100(10)
H25 H 0.449523 0.023658 0.454045
H26 H 0.404025 0.044539 0.433570
C14 C 0.60297(6) 0.20612(13) 0.43108(14)
H27 H 0.617089 0.180748 0.473711
H28 H 0.623417 0.233976 0.427284
C15 C 0.52391(7) 0.33884(11) 0.37089(13)
H29 H 0.526767 0.357352 0.413645
H30 H 0.519634 0.375686 0.339361
C16 C 0.44643(7) 0.11067(14) 0.49846(10)
H31 H 0.430282 0.151719 0.483814
H32 H 0.444428 0.092363 0.537507
C17 C 0.52351(9) 0.01340(13) 0.35201(18)
H33 H 0.517669 -0.026557 0.323641
H34 H 0.537786 -0.000244 0.400102
C18 C 0.54990(8) 0.05934(14) 0.33795(16)
H35 H 0.574542 0.036046 0.343895
H36 H 0.535027 0.075679 0.290816
loop_
_geom_bond_atom_site_label_1
_geom_bond_atom_site_label_2
_geom_bond_site_symmetry_1
_geom_bond_site_symmetry_2
K1 O1 1_555 1_555
O1 C1 1_555 1_555
O2 K1 1_555 1_555
O3 K1 1_555 1_555
O4 K1 1_555 1_555
O5 K1 1_555 1_555
O6 K1 1_555 1_555
N1 K1 1_555 1_555
N2 K1 1_555 1_555
C1 H1 1_555 1_555
H2 C1 1_555 1_555
C2 N2 1_555 1_555
H3 C2 1_555 1_555
H4 C2 1_555 1_555
C3 O2 1_555 1_555
H5 C3 1_555 1_555
H6 C3 1_555 1_555
C4 O1 1_555 1_555
H7 C4 1_555 1_555
H8 C4 1_555 1_555
C5 N2 1_555 1_555
H9 C5 1_555 1_555
H10 C5 1_555 1_555
C6 O4 1_555 1_555
H11 C6 1_555 1_555
H12 C6 1_555 1_555
C7 O2 1_555 1_555
H13 C7 1_555 1_555
H14 C7 1_555 1_555
C8 N1 1_555 1_555
H15 C8 1_555 1_555
H16 C8 1_555 1_555
C9 N1 1_555 1_555
H17 C9 1_555 1_555
H18 C9 1_555 1_555
C10 O5 1_555 1_555
H19 C10 1_555 1_555
H20 C10 1_555 1_555
C11 O3 1_555 1_555
H21 C11 1_555 1_555
H22 C11 1_555 1_555
C12 O6 1_555 1_555
H23 C12 1_555 1_555
H24 C12 1_555 1_555
C13 N1 1_555 1_555
H25 C13 1_555 1_555
H26 C13 1_555 1_555
C14 N2 1_555 1_555
H27 C14 1_555 1_555
H28 C14 1_555 1_555
C15 O3 1_555 1_555
H29 C15 1_555 1_555
H30 C15 1_555 1_555
C16 O4 1_555 1_555
H31 C16 1_555 1_555
H32 C16 1_555 1_555
C17 O5 1_555 1_555
H33 C17 1_555 1_555
H34 C17 1_555 1_555
C18 O6 1_555 1_555
H35 C18 1_555 1_555
H36 C18 1_555 1_555
O7 C24 1_555 1_555
O8 C30 1_555 1_555
O9 C28 1_555 1_555
O10 C35 1_555 1_555
O11 C44 1_555 1_555
O12 C53 1_555 1_555
N3 C22 1_555 1_555
N4 H37 1_555 1_555
N5 C24 1_555 1_555
N6 H38 1_555 1_555
N7 H39 1_555 1_555
N8 H40 1_555 1_555
N9 C45 1_555 1_555
N10 H41 1_555 1_555
C19 C26 1_555 1_555
C20 C26 1_555 1_555
C21 C35 1_555 1_555
C22 H42 1_555 1_555
H43 C22 1_555 1_555
C23 N3 1_555 1_555
H44 C23 1_555 1_555
H45 C23 1_555 1_555
C24 C37 1_555 1_555
C25 N5 1_555 1_555
H46 C25 1_555 1_555
H47 C25 1_555 1_555
C26 H48 1_555 1_555
C27 C20 1_555 1_555
H49 C27 1_555 1_555
C28 N4 1_555 1_555
C29 C19 1_555 1_555
H50 C29 1_555 1_555
C30 N6 1_555 1_555
C31 C27 1_555 1_555
C32 H51 1_555 1_555
C33 N7 1_555 1_555
H52 C33 1_555 1_555
H53 C33 1_555 1_555
C34 N6 1_555 1_555
H54 C34 1_555 1_555
H55 C34 1_555 1_555
C35 N7 1_555 1_555
C36 C32 1_555 1_555
C37 C32 1_555 1_555
C38 C31 1_555 1_555
C39 C21 1_555 1_555
H56 C39 1_555 1_555
C40 C37 1_555 1_555
H57 C40 1_555 1_555
C41 C39 1_555 1_555
C42 C40 1_555 1_555
C43 N3 1_555 1_555
H58 C43 1_555 1_555
H59 C43 1_555 1_555
C44 N8 1_555 1_555
C45 H60 1_555 1_555
H61 C45 1_555 1_555
C46 C36 1_555 1_555
C47 C21 1_555 1_555
H62 C47 1_555 1_555
C48 N8 1_555 1_555
H63 C48 1_555 1_555
H64 C48 1_555 1_555
C49 C41 1_555 1_555
H65 C49 1_555 1_555
C50 C36 1_555 1_555
H66 C50 1_555 1_555
C51 C47 1_555 1_555
C52 N4 1_555 1_555
H67 C52 1_555 1_555
H68 C52 1_555 1_555
C53 N10 1_555 1_555
C54 N9 1_555 1_555
H69 C54 1_555 1_555
H70 C54 1_555 1_555
C55 C51 1_555 1_555
C56 N10 1_555 1_555
H71 C56 1_555 1_555
H72 C56 1_555 1_555
C57 C46 1_555 1_555
H73 C57 1_555 1_555
H74 C57 1_555 1_555
H75 C57 1_555 1_555
C58 N9 1_555 1_555
H76 C58 1_555 1_555
H77 C58 1_555 1_555
C59 C38 1_555 1_555
H78 C59 1_555 1_555
H79 C59 1_555 1_555
H80 C59 1_555 1_555
C60 C46 1_555 1_555
H81 C60 1_555 1_555
H82 C60 1_555 1_555
H83 C60 1_555 1_555
C61 C46 1_555 1_555
H84 C61 1_555 1_555
H85 C61 1_555 1_555
H86 C61 1_555 1_555
C62 C38 1_555 1_555
H87 C62 1_555 1_555
H88 C62 1_555 1_555
H89 C62 1_555 1_555
C63 C38 1_555 1_555
H90 C63 1_555 1_555
H91 C63 1_555 1_555
H92 C63 1_555 1_555
C64 C55 1_555 1_555
H93 C64 1_555 1_555
H94 C64 1_555 1_555
H95 C64 1_555 1_555
C65 C55 1_555 1_555
H96 C65 1_555 1_555
H97 C65 1_555 1_555
H98 C65 1_555 1_555
C66 C55 1_555 1_555
H99 C66 1_555 1_555
H100 C66 1_555 1_555
H101 C66 1_555 1_555
C1 C9 1_555 1_555
C2 C3 1_555 1_555
C4 C11 1_555 1_555
C5 C15 1_555 1_555
C6 C7 1_555 1_555
C8 C10 1_555 1_555
C12 C14 1_555 1_555
C13 C16 1_555 1_555
C17 C18 1_555 1_555
C19 C28 1_555 1_555
C20 C30 1_555 1_555
C22 C34 1_555 1_555
C23 C33 1_555 1_555
C25 C43 1_555 1_555
C29 C31 1_555 1_555
C41 C44 1_555 1_555
C42 C50 1_555 1_555
C42 C53 1_555 1_555
C45 C48 1_555 1_555
C49 C51 1_555 1_555
C52 C54 1_555 1_555
C56 C58 1_555 1_555

#END
