
#######################################################################
#
#                 Cambridge Crystallographic Data Centre
#                                CCDC 
#
#######################################################################
#
# If this CIF has been generated from an entry in the Cambridge 
# Structural Database, then it will include bibliographic, chemical, 
# crystal, experimental, refinement or atomic coordinate data resulting 
# from the CCDC's data processing and validation procedures.
#
#######################################################################

data_SEDWEE
_chemical_formula_moiety         'C30 H32 N2,2(C6 F6)'
_chemical_name_systematic        
"4,4'-di-t-butyl-6,6'-diphenyl-2,2'-bipyridine hexafluorobenzene solvate"
_symmetry_cell_setting           orthorhombic
_symmetry_space_group_name_H-M   'P c c n'
_symmetry_Int_Tables_number      56
_space_group_name_Hall           '-P 2ab 2ac'
loop_
_symmetry_equiv_pos_site_id
_symmetry_equiv_pos_as_xyz
1 x,y,z
2 1/2-x,1/2-y,z
3 -x,1/2+y,1/2-z
4 1/2+x,-y,1/2-z
5 -x,-y,-z
6 1/2+x,1/2+y,-z
7 x,1/2-y,1/2+z
8 1/2-x,y,1/2+z
_cell_length_a                   14.021(2)
_cell_length_b                   19.509(3)
_cell_length_c                   13.2267(19)
_cell_angle_alpha                90
_cell_angle_beta                 90
_cell_angle_gamma                90
_cell_volume                     3617.97
_exptl_crystal_colour            colorless
_exptl_crystal_description       prism
_chemical_melting_point          '182-184 deg.C'
_cell_formula_units_Z            4
loop_
_atom_site_label
_atom_site_type_symbol
_atom_site_fract_x
_atom_site_fract_y
_atom_site_fract_z
N1 N 0.27499(8) 0.34023(6) 0.11401(8)
C1 C 0.23268(10) 0.47973(8) 0.10429(10)
H1 H 0.1852(13) 0.4463(10) 0.1145(13)
C2 C 0.21084(11) 0.54843(9) 0.09115(11)
H2 H 0.1454(15) 0.5620(10) 0.0893(14)
C3 C 0.28259(12) 0.59614(9) 0.07655(12)
H3 H 0.2680(15) 0.6420(11) 0.0681(14)
C4 C 0.37712(12) 0.57474(9) 0.07560(12)
H4 H 0.4276(15) 0.6086(11) 0.0644(15)
C5 C 0.39902(10) 0.50622(8) 0.08900(11)
H5 H 0.4640(14) 0.4938(10) 0.0832(14)
C6 C 0.32744(10) 0.45735(8) 0.10327(9)
C7 C 0.34942(9) 0.38337(7) 0.11796(10)
C8 C 0.44240(10) 0.36047(8) 0.13625(10)
H6 H 0.4920(13) 0.3935(9) 0.1425(13)
C9 C 0.46088(9) 0.29107(8) 0.14862(10)
C10 C 0.38315(10) 0.24668(8) 0.14150(11)
H7 H 0.3916(13) 0.1991(10) 0.1500(13)
C11 C 0.29227(9) 0.27318(8) 0.12564(10)
C12 C 0.56052(9) 0.26277(8) 0.16849(11)
C13 C 0.63202(11) 0.31979(9) 0.19137(15)
H8 H 0.6945(14) 0.2975(11) 0.2131(15)
H9 H 0.6130(15) 0.3460(11) 0.2490(16)
H10 H 0.6411(17) 0.3547(12) 0.1343(17)
C14 C 0.59436(12) 0.22462(11) 0.07386(14)
H11 H 0.6001(16) 0.2572(12) 0.0174(18)
H12 H 0.6597(16) 0.2053(11) 0.0846(15)
H13 H 0.5536(16) 0.1884(12) 0.0563(17)
C15 C 0.55812(12) 0.21336(10) 0.25840(14)
H14 H 0.6204(14) 0.1956(10) 0.2744(15)
H15 H 0.5192(16) 0.1739(12) 0.2427(16)
H16 H 0.5345(16) 0.2354(12) 0.3229(17)
N1A N 0.22501(8) 0.15977(6) 0.11401(8)
C1A C 0.26732(10) 0.02027(8) 0.10429(10)
H1A H 0.3148(13) 0.0537(10) 0.1145(13)
C2A C 0.28916(11) -0.04843(9) 0.09115(11)
H2A H 0.3546(15) -0.0620(10) 0.0893(14)
C3A C 0.21741(12) -0.09614(9) 0.07655(12)
H3A H 0.2320(15) -0.1420(11) 0.0681(14)
C4A C 0.12288(12) -0.07474(9) 0.07560(12)
H4A H 0.0724(15) -0.1086(11) 0.0644(15)
C5A C 0.10098(10) -0.00622(8) 0.08900(11)
H5A H 0.0360(14) 0.0062(10) 0.0832(14)
C6A C 0.17256(10) 0.04265(8) 0.10327(9)
C7A C 0.15058(9) 0.11663(7) 0.11796(10)
C8A C 0.05760(10) 0.13953(8) 0.13625(10)
H6A H 0.0080(13) 0.1065(9) 0.1425(13)
C9A C 0.03912(9) 0.20893(8) 0.14862(10)
C10A C 0.11685(10) 0.25332(8) 0.14150(11)
H7A H 0.1084(13) 0.3009(10) 0.1500(13)
C11A C 0.20773(9) 0.22682(8) 0.12564(10)
C12A C -0.06052(9) 0.23723(8) 0.16849(11)
C13A C -0.13202(11) 0.18021(9) 0.19137(15)
H8A H -0.1945(14) 0.2025(11) 0.2131(15)
H9A H -0.1130(15) 0.1540(11) 0.2490(16)
H10A H -0.1411(17) 0.1453(12) 0.1343(17)
C14A C -0.09436(12) 0.27538(11) 0.07386(14)
H11A H -0.1001(16) 0.2428(12) 0.0174(18)
H12A H -0.1597(16) 0.2947(11) 0.0846(15)
H13A H -0.0536(16) 0.3116(12) 0.0563(17)
C15A C -0.05812(12) 0.28664(10) 0.25840(14)
H14A H -0.1204(14) 0.3044(10) 0.2744(15)
H15A H -0.0192(16) 0.3261(12) 0.2427(16)
H16A H -0.0345(16) 0.2646(12) 0.3229(17)
C16 C 0.80440(12) 0.49264(9) 0.15091(11)
C17 C 0.72321(11) 0.53207(11) 0.15262(11)
C18 C 0.72857(12) 0.60170(11) 0.13667(12)
C19 C 0.81544(13) 0.63244(9) 0.11827(12)
C20 C 0.89623(12) 0.59266(9) 0.11595(12)
C21 C 0.89121(11) 0.52318(9) 0.13221(12)
F1 F 0.79982(9) 0.42542(6) 0.16646(9)
F2 F 0.63866(7) 0.50258(7) 0.17042(8)
F3 F 0.64943(8) 0.63968(8) 0.13875(9)
F4 F 0.82216(9) 0.69974(6) 0.10379(9)
F5 F 0.98136(8) 0.62207(6) 0.09832(9)
F6 F 0.97043(8) 0.48512(6) 0.12962(9)
loop_
_geom_bond_atom_site_label_1
_geom_bond_atom_site_label_2
_geom_bond_site_symmetry_1
_geom_bond_site_symmetry_2
N1 C7 1_555 1_555
C1 H1 1_555 1_555
C2 C1 1_555 1_555
H2 C2 1_555 1_555
C3 C2 1_555 1_555
H3 C3 1_555 1_555
C4 C3 1_555 1_555
H4 C4 1_555 1_555
C5 C4 1_555 1_555
H5 C5 1_555 1_555
C6 C1 1_555 1_555
C7 C6 1_555 1_555
C8 C7 1_555 1_555
H6 C8 1_555 1_555
C9 C8 1_555 1_555
C10 C9 1_555 1_555
H7 C10 1_555 1_555
C11 N1 1_555 1_555
C12 C9 1_555 1_555
C13 C12 1_555 1_555
H8 C13 1_555 1_555
H9 C13 1_555 1_555
H10 C13 1_555 1_555
C14 C12 1_555 1_555
H11 C14 1_555 1_555
H12 C14 1_555 1_555
H13 C14 1_555 1_555
C15 C12 1_555 1_555
H14 C15 1_555 1_555
H15 C15 1_555 1_555
H16 C15 1_555 1_555
C16 C17 1_555 1_555
C17 C18 1_555 1_555
C18 C19 1_555 1_555
C19 C20 1_555 1_555
C20 C21 1_555 1_555
C21 C16 1_555 1_555
F1 C16 1_555 1_555
F2 C17 1_555 1_555
F3 C18 1_555 1_555
F4 C19 1_555 1_555
F5 C20 1_555 1_555
F6 C21 1_555 1_555
N1A C7A 1_555 1_555
C1A H1A 1_555 1_555
C2A C1A 1_555 1_555
H2A C2A 1_555 1_555
C3A C2A 1_555 1_555
H3A C3A 1_555 1_555
C4A C3A 1_555 1_555
H4A C4A 1_555 1_555
C5A C4A 1_555 1_555
H5A C5A 1_555 1_555
C6A C1A 1_555 1_555
C7A C6A 1_555 1_555
C8A C7A 1_555 1_555
H6A C8A 1_555 1_555
C9A C8A 1_555 1_555
C10A C9A 1_555 1_555
H7A C10A 1_555 1_555
C11A C11 1_555 1_555
C12A C9A 1_555 1_555
C13A C12A 1_555 1_555
H8A C13A 1_555 1_555
H9A C13A 1_555 1_555
H10A C13A 1_555 1_555
C14A C12A 1_555 1_555
H11A C14A 1_555 1_555
H12A C14A 1_555 1_555
H13A C14A 1_555 1_555
C15A C12A 1_555 1_555
H14A C15A 1_555 1_555
H15A C15A 1_555 1_555
H16A C15A 1_555 1_555
C5 C6 1_555 1_555
C10 C11 1_555 1_555
N1A C11A 1_555 1_555
C5A C6A 1_555 1_555
C10A C11A 1_555 1_555

#END
