
#######################################################################
#
#                 Cambridge Crystallographic Data Centre
#                                CCDC 
#
#######################################################################
#
# If this CIF has been generated from an entry in the Cambridge 
# Structural Database, then it will include bibliographic, chemical, 
# crystal, experimental, refinement or atomic coordinate data resulting 
# from the CCDC's data processing and validation procedures.
#
#######################################################################

data_SEDWUU
_chemical_formula_moiety         'C21 H15 N1'
_chemical_name_systematic        4-(1-naphthyl)-2-phenylpyridine
_symmetry_cell_setting           monoclinic
_symmetry_space_group_name_H-M   'P 21'
_symmetry_Int_Tables_number      4
_space_group_name_Hall           'P 2yb'
loop_
_symmetry_equiv_pos_site_id
_symmetry_equiv_pos_as_xyz
1 x,y,z
2 -x,1/2+y,-z
_cell_length_a                   6.7020(8)
_cell_length_b                   7.6743(9)
_cell_length_c                   14.6965(17)
_cell_angle_alpha                90
_cell_angle_beta                 97.980(3)
_cell_angle_gamma                90
_cell_volume                     748.568
_exptl_crystal_colour            colorless
_exptl_crystal_description       irregular
_chemical_melting_point          '80-82 deg.C'
_cell_formula_units_Z            2
loop_
_atom_site_label
_atom_site_type_symbol
_atom_site_fract_x
_atom_site_fract_y
_atom_site_fract_z
N1 N 0.4248(3) 1.2678(3) 0.23026(12)
C1 C 0.1200(3) 0.7192(3) 0.35918(14)
C2 C 0.3083(3) 0.7379(3) 0.41657(15)
H1 H 0.401(4) 0.821(4) 0.3994(19)
C3 C 0.3564(3) 0.6357(4) 0.49282(15)
H2 H 0.482(5) 0.648(5) 0.529(2)
C4 C 0.2190(4) 0.5102(3) 0.51717(16)
H3 H 0.256(5) 0.438(6) 0.575(2)
C5 C 0.0389(4) 0.4865(3) 0.46256(16)
H4 H -0.052(4) 0.403(4) 0.4787(19)
C6 C -0.0154(3) 0.5876(3) 0.38172(14)
C7 C -0.1979(3) 0.5584(3) 0.32253(17)
H5 H -0.281(4) 0.468(4) 0.3381(19)
C8 C -0.2425(3) 0.6539(3) 0.24414(17)
H6 H -0.359(5) 0.628(5) 0.205(2)
C9 C -0.1130(3) 0.7878(3) 0.22244(16)
H7 H -0.144(5) 0.859(5) 0.168(2)
C10 C 0.0638(3) 0.8232(3) 0.27934(14)
C11 C 0.1893(3) 0.9757(3) 0.26101(14)
C12 C 0.1827(3) 1.1283(3) 0.31234(14)
H8 H 0.095(4) 1.137(4) 0.3597(17)
C13 C 0.3010(3) 1.2689(3) 0.29440(15)
H9 H 0.292(4) 1.376(5) 0.328(2)
C14 C 0.3162(3) 0.9736(3) 0.19343(14)
H10 H 0.330(4) 0.872(4) 0.1571(18)
C15 C 0.4325(3) 1.1220(3) 0.18030(13)
C16 C 0.5753(3) 1.1234(3) 0.11163(13)
C17 C 0.5356(3) 1.0319(3) 0.02923(15)
H11 H 0.410(4) 0.962(5) 0.0130(19)
C18 C 0.6754(3) 1.0336(3) -0.03310(16)
H12 H 0.644(4) 0.969(4) -0.0889(18)
C19 C 0.8545(3) 1.1247(4) -0.01280(16)
H13 H 0.951(4) 1.122(5) -0.0535(17)
C20 C 0.8945(3) 1.2162(3) 0.06928(17)
H14 H 1.021(5) 1.274(5) 0.085(2)
C21 C 0.7555(3) 1.2173(3) 0.13089(14)
H15 H 0.781(4) 1.282(4) 0.1867(19)
loop_
_geom_bond_atom_site_label_1
_geom_bond_atom_site_label_2
_geom_bond_site_symmetry_1
_geom_bond_site_symmetry_2
N1 C13 1_555 1_555
C1 C2 1_555 1_555
C2 H1 1_555 1_555
C3 C2 1_555 1_555
H2 C3 1_555 1_555
C4 C3 1_555 1_555
H3 C4 1_555 1_555
C5 C4 1_555 1_555
H4 C5 1_555 1_555
C6 C1 1_555 1_555
C7 C6 1_555 1_555
H5 C7 1_555 1_555
C8 C7 1_555 1_555
H6 C8 1_555 1_555
C9 C8 1_555 1_555
H7 C9 1_555 1_555
C10 C1 1_555 1_555
C11 C10 1_555 1_555
C12 C11 1_555 1_555
H8 C12 1_555 1_555
C13 C12 1_555 1_555
H9 C13 1_555 1_555
C14 C11 1_555 1_555
H10 C14 1_555 1_555
C15 N1 1_555 1_555
C16 C15 1_555 1_555
C17 C16 1_555 1_555
H11 C17 1_555 1_555
C18 C17 1_555 1_555
H12 C18 1_555 1_555
C19 C18 1_555 1_555
H13 C19 1_555 1_555
C20 C19 1_555 1_555
H14 C20 1_555 1_555
C21 C16 1_555 1_555
H15 C21 1_555 1_555
C5 C6 1_555 1_555
C9 C10 1_555 1_555
C14 C15 1_555 1_555
C20 C21 1_555 1_555

#END
