
#######################################################################
#
#                 Cambridge Crystallographic Data Centre
#                                CCDC 
#
#######################################################################
#
# If this CIF has been generated from an entry in the Cambridge 
# Structural Database, then it will include bibliographic, chemical, 
# crystal, experimental, refinement or atomic coordinate data resulting 
# from the CCDC's data processing and validation procedures.
#
#######################################################################

data_SEFFUG
_chemical_name_common            
'5,11,17,23-tetra-t-butyl-25,26,27-tris((pyridin-2-ylcarbonyl)oxy)-28-hydroxycalix(4)arene dichloromethane solvate'
_chemical_formula_moiety         'C62 H65 N3 O7,4(C1 H2 Cl2)'
_chemical_name_systematic        
'5,11,17,23-Tetra-t-butyl-28-hydroxypentacyclo[19.3.1.1^3,7^.1^9,13^.1^15,19^]octacosa-1(25),3(28),4,6,9(27),10,12,15(26),16,18,21,23-dodecaene-25,26,27-triyl tripyridine-2-carboxylate dichloromethane solvate'
_symmetry_cell_setting           orthorhombic
_symmetry_space_group_name_H-M   'P n a 21'
_symmetry_Int_Tables_number      33
_space_group_name_Hall           'P 2c -2n'
loop_
_symmetry_equiv_pos_site_id
_symmetry_equiv_pos_as_xyz
1 x,y,z
2 -x,-y,1/2+z
3 1/2-x,1/2+y,1/2+z
4 1/2+x,1/2-y,z
_cell_length_a                   21.4126(7)
_cell_length_b                   19.5170(7)
_cell_length_c                   15.9256(6)
_cell_angle_alpha                90
_cell_angle_beta                 90
_cell_angle_gamma                90
_cell_volume                     6655.46
_exptl_crystal_colour            colorless
_exptl_crystal_description       block
_cell_formula_units_Z            4
loop_
_atom_site_label
_atom_site_type_symbol
_atom_site_fract_x
_atom_site_fract_y
_atom_site_fract_z
Cl1 Cl -0.81097(9) -0.63942(9) -0.76252(11)
Cl2 Cl -0.68919(9) -0.63791(9) -0.84459(12)
C1 C -0.7315(4) -0.6175(4) -0.7555(5)
H1 H -0.7281 -0.5686 -0.7453
H2 H -0.7133 -0.6410 -0.7077
Cl3 Cl -0.38466(14) -0.26172(12) -0.09121(17)
Cl4 Cl -0.46450(13) -0.34006(10) -0.19996(11)
C2 C -0.4382(3) -0.3285(3) -0.0965(4)
H3 H -0.4735 -0.3184 -0.0603
H4 H -0.4188 -0.3704 -0.0767
Cl5 Cl -0.46839(18) -0.0368(3) -0.7042(4)
Cl6 Cl -0.5805(2) 0.0335(3) -0.6713(3)
C3 C -0.5409(6) -0.0344(5) -0.6686(11)
H5 H -0.5643 -0.0689 -0.6992
H6 H -0.5397 -0.0492 -0.6105
Cl7 Cl -0.6250(4) -0.0741(3) -1.0093(8)
Cl8 Cl -0.5448(6) -0.1177(5) -0.9011(7)
C4 C -0.5392(9) -0.1088(10) -0.9993(14)
H7 H -0.5328 -0.1518 -1.0287
H8 H -0.5080 -0.0755 -1.0158
O1 O -0.5099(2) -0.3309(3) -0.9109(3)
O2 O -0.58945(15) -0.32599(16) -0.81863(18)
O3 O -0.6713(2) -0.5400(2) -0.6040(3)
O4 O -0.66158(15) -0.42980(15) -0.63956(18)
O5 O -0.86126(17) -0.2873(2) -0.6589(3)
O6 O -0.75635(14) -0.28171(16) -0.6558(2)
O7 O -0.63832(16) -0.2185(2) -0.6982(2)
H9 H -0.6405 -0.2667 -0.7095
N1 N -0.6711(3) -0.2779(3) -0.9347(4)
N2 N -0.5946(2) -0.5174(2) -0.4671(3)
N3 N -0.7545(2) -0.1856(2) -0.7691(3)
C5 C -0.7111(3) -0.2548(3) -0.9965(4)
H10 H -0.7523 -0.2440 -0.9834
C6 C -0.6900(4) -0.2482(4) -1.0761(4)
H11 H -0.7169 -0.2347 -1.1189
C7 C -0.6276(4) -0.2618(4) -1.0929(4)
H12 H -0.6129 -0.2555 -1.1473
C8 C -0.5881(2) -0.2836(3) -1.0345(3)
H13 H -0.5465 -0.2929 -1.0471
C9 C -0.6104(2) -0.2917(2) -0.9570(3)
C10 C -0.5635(3) -0.3178(3) -0.8956(3)
C11 C -0.5494(2) -0.3559(2) -0.7578(3)
C12 C -0.5098(2) -0.3155(2) -0.7116(3)
C13 C -0.4673(2) -0.3488(2) -0.6598(3)
H14 H -0.4394 -0.3225 -0.6288
C14 C -0.4647(2) -0.4194(2) -0.6521(3)
C15 C -0.5105(2) -0.4570(2) -0.6944(3)
H15 H -0.5121 -0.5042 -0.6865
C16 C -0.5534(2) -0.4269(2) -0.7475(3)
C17 C -0.4114(2) -0.4551(2) -0.6041(3)
C18 C -0.4277(3) -0.5260(3) -0.5752(5)
H16 H -0.4407 -0.5530 -0.6224
H17 H -0.4610 -0.5236 -0.5350
H18 H -0.3918 -0.5467 -0.5496
C19 C -0.3904(3) -0.4127(4) -0.5285(4)
H19 H -0.3569 -0.4359 -0.5003
H20 H -0.4248 -0.4070 -0.4905
H21 H -0.3763 -0.3686 -0.5473
C20 C -0.3566(3) -0.4601(4) -0.6648(4)
H22 H -0.3690 -0.4857 -0.7136
H23 H -0.3224 -0.4829 -0.6378
H24 H -0.3440 -0.4149 -0.6815
C21 C -0.6013(2) -0.4690(2) -0.7953(3)
H25 H -0.5902 -0.4675 -0.8543
H26 H -0.5973 -0.5162 -0.7772
C22 C -0.5598(3) -0.5026(3) -0.4013(3)
H27 H -0.5487 -0.5381 -0.3653
C23 C -0.5389(3) -0.4374(3) -0.3830(3)
H28 H -0.5133 -0.4295 -0.3368
C24 C -0.5567(3) -0.3843(3) -0.4345(3)
H29 H -0.5445 -0.3397 -0.4226
C25 C -0.5931(2) -0.3981(3) -0.5044(3)
H30 H -0.6050 -0.3634 -0.5411
C26 C -0.6111(2) -0.4643(2) -0.5178(3)
C27 C -0.6509(2) -0.4841(3) -0.5903(3)
C28 C -0.6992(2) -0.4373(2) -0.7124(3)
C29 C -0.6696(2) -0.4492(2) -0.7879(3)
C30 C -0.7070(2) -0.4505(2) -0.8604(3)
H31 H -0.6881 -0.4586 -0.9121
C31 C -0.7704(2) -0.4404(2) -0.8578(3)
C32 C -0.7979(2) -0.4300(2) -0.7775(3)
H32 H -0.8409 -0.4242 -0.7740
C33 C -0.7628(2) -0.4281(2) -0.7041(3)
C34 C -0.8132(2) -0.4432(3) -0.9348(3)
C35 C -0.8535(3) -0.3786(3) -0.9394(4)
H33 H -0.8773 -0.3741 -0.8886
H34 H -0.8814 -0.3818 -0.9864
H35 H -0.8271 -0.3392 -0.9461
C36 C -0.7751(3) -0.4494(4) -1.0162(4)
H36 H -0.7481 -0.4104 -1.0216
H37 H -0.8029 -0.4513 -1.0634
H38 H -0.7504 -0.4904 -1.0144
C37 C -0.8562(3) -0.5058(3) -0.9287(4)
H39 H -0.8808 -0.5028 -0.8784
H40 H -0.8314 -0.5468 -0.9272
H41 H -0.8834 -0.5070 -0.9766
C38 C -0.7963(2) -0.4238(2) -0.6209(3)
H42 H -0.7967 -0.4694 -0.5966
H43 H -0.8394 -0.4113 -0.6321
C39 C -0.7500(3) -0.1387(3) -0.8310(4)
H44 H -0.7131 -0.1140 -0.8364
C40 C -0.7986(3) -0.1259(3) -0.8871(4)
H45 H -0.7942 -0.0939 -0.9300
C41 C -0.8535(3) -0.1624(3) -0.8770(3)
H46 H -0.8870 -0.1549 -0.9131
C42 C -0.8583(3) -0.2096(3) -0.8134(3)
H47 H -0.8949 -0.2346 -0.8056
C43 C -0.8078(2) -0.2189(3) -0.7618(3)
C44 C -0.8134(2) -0.2670(3) -0.6872(3)
C45 C -0.7539(2) -0.3084(2) -0.5733(3)
C46 C -0.7714(2) -0.3749(2) -0.5549(3)
C47 C -0.7671(2) -0.3959(2) -0.4719(3)
H48 H -0.7784 -0.4406 -0.4588
C48 C -0.7466(2) -0.3535(2) -0.4070(3)
C49 C -0.7273(2) -0.2873(2) -0.4300(3)
H49 H -0.7127 -0.2580 -0.3884
C50 C -0.7293(2) -0.2634(2) -0.5132(3)
C51 C -0.7449(3) -0.3756(2) -0.3147(3)
C52 C -0.7941(3) -0.3354(3) -0.2651(4)
H50 H -0.8346 -0.3436 -0.2889
H51 H -0.7847 -0.2874 -0.2677
H52 H -0.7938 -0.3502 -0.2076
C53 C -0.6797(3) -0.3619(3) -0.2765(4)
H53 H -0.6487 -0.3872 -0.3072
H54 H -0.6793 -0.3763 -0.2188
H55 H -0.6705 -0.3139 -0.2796
C54 C -0.7594(4) -0.4517(3) -0.3053(4)
H56 H -0.8001 -0.4610 -0.3281
H57 H -0.7588 -0.4639 -0.2469
H58 H -0.7287 -0.4781 -0.3349
C55 C -0.7043(2) -0.1934(2) -0.5354(3)
H59 H -0.7151 -0.1614 -0.4911
H60 H -0.7239 -0.1777 -0.5868
C56 C -0.6342(2) -0.1939(2) -0.5469(3)
C57 C -0.5951(2) -0.1819(2) -0.4787(3)
H61 H -0.6132 -0.1716 -0.4272
C58 C -0.5303(2) -0.1845(2) -0.4834(3)
C59 C -0.5041(2) -0.2002(2) -0.5620(3)
H62 H -0.4609 -0.2016 -0.5676
C60 C -0.5414(2) -0.2138(2) -0.6318(3)
C61 C -0.6065(2) -0.2081(2) -0.6252(3)
C62 C -0.4870(3) -0.1688(3) -0.4092(4)
C63 C -0.5229(3) -0.1673(4) -0.3263(4)
H63 H -0.4944 -0.1578 -0.2811
H64 H -0.5425 -0.2109 -0.3171
H65 H -0.5542 -0.1321 -0.3285
C64 C -0.4567(3) -0.0993(3) -0.4234(5)
H66 H -0.4296 -0.0889 -0.3770
H67 H -0.4885 -0.0648 -0.4276
H68 H -0.4328 -0.1005 -0.4743
C65 C -0.4359(3) -0.2242(3) -0.4029(5)
H69 H -0.4093 -0.2145 -0.3558
H70 H -0.4115 -0.2243 -0.4534
H71 H -0.4550 -0.2683 -0.3955
C66 C -0.5116(2) -0.2377(2) -0.7128(3)
H72 H -0.4696 -0.2196 -0.7175
H73 H -0.5357 -0.2218 -0.7605
loop_
_geom_bond_atom_site_label_1
_geom_bond_atom_site_label_2
_geom_bond_site_symmetry_1
_geom_bond_site_symmetry_2
Cl1 C1 1_555 1_555
Cl2 C1 1_555 1_555
C1 H1 1_555 1_555
H2 C1 1_555 1_555
Cl3 C2 1_555 1_555
Cl4 C2 1_555 1_555
C2 H3 1_555 1_555
H4 C2 1_555 1_555
Cl5 C3 1_555 1_555
Cl6 C3 1_555 1_555
C3 H5 1_555 1_555
H6 C3 1_555 1_555
Cl7 C4 1_555 1_555
Cl8 C4 1_555 1_555
C4 H7 1_555 1_555
H8 C4 1_555 1_555
O1 C10 1_555 1_555
O2 C10 1_555 1_555
O3 C27 1_555 1_555
O4 C27 1_555 1_555
O5 C44 1_555 1_555
O6 C44 1_555 1_555
O7 H9 1_555 1_555
N1 C5 1_555 1_555
N2 C22 1_555 1_555
N3 C39 1_555 1_555
C5 H10 1_555 1_555
C6 C5 1_555 1_555
H11 C6 1_555 1_555
C7 C6 1_555 1_555
H12 C7 1_555 1_555
C8 C7 1_555 1_555
H13 C8 1_555 1_555
C9 N1 1_555 1_555
C10 C9 1_555 1_555
C11 O2 1_555 1_555
C12 C11 1_555 1_555
C13 C12 1_555 1_555
H14 C13 1_555 1_555
C14 C13 1_555 1_555
C15 C14 1_555 1_555
H15 C15 1_555 1_555
C16 C11 1_555 1_555
C17 C14 1_555 1_555
C18 C17 1_555 1_555
H16 C18 1_555 1_555
H17 C18 1_555 1_555
H18 C18 1_555 1_555
C19 C17 1_555 1_555
H19 C19 1_555 1_555
H20 C19 1_555 1_555
H21 C19 1_555 1_555
C20 C17 1_555 1_555
H22 C20 1_555 1_555
H23 C20 1_555 1_555
H24 C20 1_555 1_555
C21 C16 1_555 1_555
H25 C21 1_555 1_555
H26 C21 1_555 1_555
C22 H27 1_555 1_555
C23 C22 1_555 1_555
H28 C23 1_555 1_555
C24 C23 1_555 1_555
H29 C24 1_555 1_555
C25 C24 1_555 1_555
H30 C25 1_555 1_555
C26 N2 1_555 1_555
C27 C26 1_555 1_555
C28 O4 1_555 1_555
C29 C21 1_555 1_555
C30 C29 1_555 1_555
H31 C30 1_555 1_555
C31 C30 1_555 1_555
C32 C31 1_555 1_555
H32 C32 1_555 1_555
C33 C28 1_555 1_555
C34 C31 1_555 1_555
C35 C34 1_555 1_555
H33 C35 1_555 1_555
H34 C35 1_555 1_555
H35 C35 1_555 1_555
C36 C34 1_555 1_555
H36 C36 1_555 1_555
H37 C36 1_555 1_555
H38 C36 1_555 1_555
C37 C34 1_555 1_555
H39 C37 1_555 1_555
H40 C37 1_555 1_555
H41 C37 1_555 1_555
C38 C33 1_555 1_555
H42 C38 1_555 1_555
H43 C38 1_555 1_555
C39 H44 1_555 1_555
C40 C39 1_555 1_555
H45 C40 1_555 1_555
C41 C40 1_555 1_555
H46 C41 1_555 1_555
C42 C41 1_555 1_555
H47 C42 1_555 1_555
C43 N3 1_555 1_555
C44 C43 1_555 1_555
C45 O6 1_555 1_555
C46 C38 1_555 1_555
C47 C46 1_555 1_555
H48 C47 1_555 1_555
C48 C47 1_555 1_555
C49 C48 1_555 1_555
H49 C49 1_555 1_555
C50 C45 1_555 1_555
C51 C48 1_555 1_555
C52 C51 1_555 1_555
H50 C52 1_555 1_555
H51 C52 1_555 1_555
H52 C52 1_555 1_555
C53 C51 1_555 1_555
H53 C53 1_555 1_555
H54 C53 1_555 1_555
H55 C53 1_555 1_555
C54 C51 1_555 1_555
H56 C54 1_555 1_555
H57 C54 1_555 1_555
H58 C54 1_555 1_555
C55 C50 1_555 1_555
H59 C55 1_555 1_555
H60 C55 1_555 1_555
C56 C55 1_555 1_555
C57 C56 1_555 1_555
H61 C57 1_555 1_555
C58 C57 1_555 1_555
C59 C58 1_555 1_555
H62 C59 1_555 1_555
C60 C59 1_555 1_555
C61 O7 1_555 1_555
C62 C58 1_555 1_555
C63 C62 1_555 1_555
H63 C63 1_555 1_555
H64 C63 1_555 1_555
H65 C63 1_555 1_555
C64 C62 1_555 1_555
H66 C64 1_555 1_555
H67 C64 1_555 1_555
H68 C64 1_555 1_555
C65 C62 1_555 1_555
H69 C65 1_555 1_555
H70 C65 1_555 1_555
H71 C65 1_555 1_555
C66 C12 1_555 1_555
H72 C66 1_555 1_555
H73 C66 1_555 1_555
C8 C9 1_555 1_555
C15 C16 1_555 1_555
C25 C26 1_555 1_555
C28 C29 1_555 1_555
C32 C33 1_555 1_555
C42 C43 1_555 1_555
C45 C46 1_555 1_555
C49 C50 1_555 1_555
C56 C61 1_555 1_555
C60 C61 1_555 1_555
C60 C66 1_555 1_555

#END
