
#######################################################################
#
#                 Cambridge Crystallographic Data Centre
#                                CCDC 
#
#######################################################################
#
# If this CIF has been generated from an entry in the Cambridge 
# Structural Database, then it will include bibliographic, chemical, 
# crystal, experimental, refinement or atomic coordinate data resulting 
# from the CCDC's data processing and validation procedures.
#
#######################################################################

data_SEFKUL01
_chemical_formula_moiety         'C13 H9 Br1 Cl1 N1 O2'
_chemical_name_systematic        
4-bromo-2-(((5-chloro-2-hydroxyphenyl)iminio)methyl)phenolate
_symmetry_cell_setting           orthorhombic
_symmetry_space_group_name_H-M   'P n a 21'
_symmetry_Int_Tables_number      33
_space_group_name_Hall           'P 2c -2n'
loop_
_symmetry_equiv_pos_site_id
_symmetry_equiv_pos_as_xyz
1 x,y,z
2 -x,-y,1/2+z
3 1/2+x,1/2-y,z
4 1/2-x,1/2+y,1/2+z
_cell_length_a                   14.7927(11)
_cell_length_b                   6.0703(5)
_cell_length_c                   28.397(2)
_cell_angle_alpha                90
_cell_angle_beta                 90
_cell_angle_gamma                90
_cell_volume                     2549.94
_exptl_crystal_colour            purple
_exptl_crystal_description       Plane
_cell_formula_units_Z            8
loop_
_atom_site_label
_atom_site_type_symbol
_atom_site_fract_x
_atom_site_fract_y
_atom_site_fract_z
Br1 Br 0.23891(8) -0.21081(16) 0.84684(3)
Cl1 Cl 0.5790(2) 1.2043(4) 0.87487(11)
N1 N 0.4463(3) 0.5453(7) 0.96501(17)
O1 O 0.3681(6) 0.2656(7) 1.0189(3)
O2 O 0.5219(5) 0.6741(11) 1.0432(2)
H1 H 0.5524 0.7152 1.0656
C1 C 0.3550(8) 0.2525(7) 0.9389(4)
C2 C 0.3378(4) 0.1652(11) 0.9823(2)
C3 C 0.2875(4) -0.0295(9) 0.9843(2)
H2 H 0.2734 -0.0891 1.0136
C4 C 0.2581(4) -0.1354(9) 0.9445(2)
H3 H 0.2249 -0.2650 0.9471
C5 C 0.2778(4) -0.0501(9) 0.9007(2)
C6 C 0.3235(4) 0.1417(10) 0.8955(2)
H4 H 0.3347 0.2012 0.8659
C7 C 0.4076(4) 0.4469(8) 0.92986(19)
H5 H 0.4138 0.5011 0.8994
C8 C 0.5005(6) 0.7389(8) 0.9668(4)
C9 C 0.5379(6) 0.8037(13) 1.0062(3)
C10 C 0.5893(4) 0.9944(10) 1.0068(2)
H6 H 0.6155 1.0406 1.0348
C11 C 0.6020(4) 1.1153(10) 0.9671(2)
H7 H 0.6359 1.2442 0.9682
C12 C 0.5646(4) 1.0468(9) 0.9252(2)
C13 C 0.5143(3) 0.8573(9) 0.9224(2)
H8 H 0.4903 0.8072 0.8940
H9 H 0.427(4) 0.500(10) 0.9916(11)
Br2 Br 1.00872(9) -0.21330(16) 0.78974(3)
Cl2 Cl 0.6704(2) 1.2068(4) 0.76085(11)
N2 N 0.8061(3) 0.5497(7) 0.67092(16)
O3 O 0.8869(5) 0.2710(7) 0.6170(2)
O4 O 0.7324(4) 0.6779(11) 0.59152(19)
H10 H 0.7025 0.7195 0.5689
C14 C 0.8964(7) 0.2547(8) 0.7029(4)
C15 C 0.9145(4) 0.1701(10) 0.6545(2)
C16 C 0.9646(4) -0.0293(9) 0.6517(2)
H11 H 0.9792 -0.0876 0.6224
C17 C 0.9917(4) -0.1359(9) 0.6916(2)
H12 H 1.0243 -0.2664 0.6892
C18 C 0.9709(4) -0.0514(9) 0.7357(2)
C19 C 0.9258(4) 0.1386(9) 0.7407(2)
H13 H 0.9145 0.1922 0.7708
C20 C 0.8428(4) 0.4478(8) 0.70601(19)
H14 H 0.8334 0.5063 0.7359
C21 C 0.7518(7) 0.7375(9) 0.6752(4)
C22 C 0.7124(6) 0.8034(13) 0.6294(3)
C23 C 0.6604(4) 0.9931(11) 0.6280(2)
H15 H 0.6341 1.0380 0.5998
C24 C 0.6476(4) 1.1155(11) 0.6685(2)
H16 H 0.6135 1.2441 0.6675
C25 C 0.6850(4) 1.0482(9) 0.7100(2)
C26 C 0.7361(3) 0.8601(9) 0.7127(2)
H17 H 0.7603 0.8180 0.7416
H18 H 0.813(3) 0.492(8) 0.6440(9)
loop_
_geom_bond_atom_site_label_1
_geom_bond_atom_site_label_2
_geom_bond_site_symmetry_1
_geom_bond_site_symmetry_2
Br1 C5 1_555 1_555
Cl1 C12 1_555 1_555
N1 C7 1_555 1_555
O1 C2 1_555 1_555
O2 H1 1_555 1_555
C1 C2 1_555 1_555
C2 C3 1_555 1_555
C3 H2 1_555 1_555
C4 C3 1_555 1_555
H3 C4 1_555 1_555
C5 C4 1_555 1_555
C6 C1 1_555 1_555
H4 C6 1_555 1_555
C7 C1 1_555 1_555
H5 C7 1_555 1_555
C8 N1 1_555 1_555
C9 O2 1_555 1_555
C10 C9 1_555 1_555
H6 C10 1_555 1_555
C11 C10 1_555 1_555
H7 C11 1_555 1_555
C12 C11 1_555 1_555
C13 C8 1_555 1_555
H8 C13 1_555 1_555
H9 N1 1_555 1_555
Br2 C18 1_555 1_555
Cl2 C25 1_555 1_555
N2 C20 1_555 1_555
O3 C15 1_555 1_555
O4 H10 1_555 1_555
C14 C15 1_555 1_555
C15 C16 1_555 1_555
C16 H11 1_555 1_555
C17 C16 1_555 1_555
H12 C17 1_555 1_555
C18 C17 1_555 1_555
C19 C14 1_555 1_555
H13 C19 1_555 1_555
C20 C14 1_555 1_555
H14 C20 1_555 1_555
C21 N2 1_555 1_555
C22 O4 1_555 1_555
C23 C22 1_555 1_555
H15 C23 1_555 1_555
C24 C23 1_555 1_555
H16 C24 1_555 1_555
C25 C24 1_555 1_555
C26 C21 1_555 1_555
H17 C26 1_555 1_555
H18 N2 1_555 1_555
C5 C6 1_555 1_555
C8 C9 1_555 1_555
C12 C13 1_555 1_555
C18 C19 1_555 1_555
C21 C22 1_555 1_555
C25 C26 1_555 1_555

#END
