
#######################################################################
#
#                 Cambridge Crystallographic Data Centre
#                                CCDC 
#
#######################################################################
#
# If this CIF has been generated from an entry in the Cambridge 
# Structural Database, then it will include bibliographic, chemical, 
# crystal, experimental, refinement or atomic coordinate data resulting 
# from the CCDC's data processing and validation procedures.
#
#######################################################################

data_SEFKET
_chemical_formula_moiety         'C29 H26 O4'
_chemical_name_systematic        
7-Methoxy-1-(1-(6-methoxy-2-naphthoyl)ethyl)-2-methyl-2,3-dihydro-1H-cyclopenta(a)naphthalen-3-one
_symmetry_cell_setting           monoclinic
_symmetry_space_group_name_H-M   'P c'
_symmetry_Int_Tables_number      7
_space_group_name_Hall           'P -2yc'
loop_
_symmetry_equiv_pos_site_id
_symmetry_equiv_pos_as_xyz
1 x,y,z
2 x,-y,1/2+z
_cell_length_a                   12.204(2)
_cell_length_b                   14.957(2)
_cell_length_c                   6.527(1)
_cell_angle_alpha                90
_cell_angle_beta                 102.41(1)
_cell_angle_gamma                90
_cell_volume                     1163.57
_exptl_crystal_colour            colorless
_exptl_crystal_description       'tabular prism'
_chemical_melting_point          '460 K'
_cell_formula_units_Z            2
_exptl_crystal_recrystallization_method hexane/dichloromethane
loop_
_atom_site_label
_atom_site_type_symbol
_atom_site_fract_x
_atom_site_fract_y
_atom_site_fract_z
O1 O 0.7520(2) 0.1218(2) 0.3893(4)
O2 O 0.0407(2) 0.1258(2) 0.3686(4)
O3 O -0.0389(2) 0.3673(2) 0.2146(5)
O4 O 0.6105(2) 0.3769(2) 1.1018(5)
C1 C 0.7665(3) 0.0887(4) 0.1955(8)
H1 H 0.8451(4) 0.0862(20) 0.1954(19)
H2 H 0.7294(22) 0.1275(11) 0.0850(9)
H3 H 0.7349(23) 0.0298(8) 0.1736(22)
C2 C 0.6455(3) 0.1255(2) 0.4248(6)
C3 C 0.6404(3) 0.1620(3) 0.6203(6)
H4 H 0.7057(3) 0.1822(3) 0.7094(6)
C4 C 0.5402(3) 0.1683(2) 0.6814(6)
H5 H 0.5382(3) 0.1908(2) 0.8134(6)
C5 C 0.4399(2) 0.1408(2) 0.5447(5)
C6 C 0.4459(2) 0.1044(2) 0.3479(5)
C7 C 0.5513(3) 0.0960(2) 0.2922(5)
H6 H 0.5559(3) 0.0702(2) 0.1646(5)
C8 C 0.3346(3) 0.1501(2) 0.6001(5)
H7 H 0.3318(3) 0.1722(2) 0.7321(5)
C9 C 0.2367(2) 0.1273(2) 0.4642(5)
C10 C 0.2437(3) 0.0906(2) 0.2671(5)
H8 H 0.1780(3) 0.0745(2) 0.1732(5)
C11 C 0.3436(2) 0.0784(2) 0.2119(5)
H9 H 0.3452(2) 0.0526(2) 0.0829(5)
C12 C 0.1226(3) 0.1408(2) 0.5088(6)
C13 C 0.1056(2) 0.1718(2) 0.7212(5)
H10 H 0.1759(2) 0.1619(2) 0.8239(5)
C14 C 0.0141(3) 0.1157(3) 0.7879(6)
H11 H 0.0059(12) 0.1343(9) 0.9246(15)
H12 H 0.0348(9) 0.0537(3) 0.7919(31)
H13 H -0.0557(5) 0.1241(11) 0.6889(19)
C15 C 0.0773(2) 0.2727(2) 0.7227(5)
H14 H 0.0676(2) 0.2897(2) 0.8627(5)
C16 C -0.0290(3) 0.3000(3) 0.5568(6)
H15 H -0.0706(3) 0.2463(3) 0.4994(6)
C17 C -0.1058(4) 0.3623(3) 0.6462(8)
H16 H -0.1311(17) 0.3327(7) 0.7580(28)
H17 H -0.1693(12) 0.3781(14) 0.5377(12)
H18 H -0.0653(7) 0.4154(8) 0.6991(37)
C18 C 0.0152(3) 0.3470(3) 0.3864(7)
C19 C 0.1342(3) 0.3670(2) 0.4694(5)
C20 C 0.1683(3) 0.3300(2) 0.6639(5)
C21 C 0.2798(3) 0.3431(2) 0.7810(5)
C22 C 0.3551(3) 0.3897(2) 0.6804(5)
C23 C 0.3170(3) 0.4249(2) 0.4772(6)
H19 H 0.3674(3) 0.4550(2) 0.4133(6)
C24 C 0.2089(3) 0.4160(2) 0.3724(6)
H20 H 0.1843(3) 0.4413(2) 0.2403(6)
C25 C 0.3204(3) 0.3124(2) 0.9880(5)
H21 H 0.2721(3) 0.2829(2) 1.0577(5)
C26 C 0.4293(3) 0.3253(2) 1.0869(6)
H22 H 0.4544(3) 0.3043(2) 1.2230(6)
C27 C 0.5040(3) 0.3696(3) 0.9865(6)
C28 C 0.4689(3) 0.4009(2) 0.7878(7)
H23 H 0.5194(3) 0.4296(2) 0.7216(7)
C29 C 0.6918(3) 0.4192(4) 1.0037(9)
H24 H 0.7628(8) 0.4219(21) 1.1014(19)
H25 H 0.6672(14) 0.4786(8) 0.9611(48)
H26 H 0.6997(20) 0.3852(12) 0.8829(31)
loop_
_geom_bond_atom_site_label_1
_geom_bond_atom_site_label_2
_geom_bond_site_symmetry_1
_geom_bond_site_symmetry_2
O1 C1 1_555 1_555
O2 C12 1_555 1_555
O3 C18 1_555 1_555
O4 C27 1_555 1_555
C1 H1 1_555 1_555
H2 C1 1_555 1_555
H3 C1 1_555 1_555
C2 O1 1_555 1_555
C3 C2 1_555 1_555
H4 C3 1_555 1_555
C4 C3 1_555 1_555
H5 C4 1_555 1_555
C5 C4 1_555 1_555
C6 C5 1_555 1_555
C7 C2 1_555 1_555
H6 C7 1_555 1_555
C8 C5 1_555 1_555
H7 C8 1_555 1_555
C9 C8 1_555 1_555
C10 C9 1_555 1_555
H8 C10 1_555 1_555
C11 C6 1_555 1_555
H9 C11 1_555 1_555
C12 C9 1_555 1_555
C13 C12 1_555 1_555
H10 C13 1_555 1_555
C14 C13 1_555 1_555
H11 C14 1_555 1_555
H12 C14 1_555 1_555
H13 C14 1_555 1_555
C15 C13 1_555 1_555
H14 C15 1_555 1_555
C16 C15 1_555 1_555
H15 C16 1_555 1_555
C17 C16 1_555 1_555
H16 C17 1_555 1_555
H17 C17 1_555 1_555
H18 C17 1_555 1_555
C18 C16 1_555 1_555
C19 C18 1_555 1_555
C20 C15 1_555 1_555
C21 C20 1_555 1_555
C22 C21 1_555 1_555
C23 C22 1_555 1_555
H19 C23 1_555 1_555
C24 C19 1_555 1_555
H20 C24 1_555 1_555
C25 C21 1_555 1_555
H21 C25 1_555 1_555
C26 C25 1_555 1_555
H22 C26 1_555 1_555
C27 C26 1_555 1_555
C28 C22 1_555 1_555
H23 C28 1_555 1_555
C29 O4 1_555 1_555
H24 C29 1_555 1_555
H25 C29 1_555 1_555
H26 C29 1_555 1_555
C6 C7 1_555 1_555
C10 C11 1_555 1_555
C19 C20 1_555 1_555
C23 C24 1_555 1_555
C27 C28 1_555 1_555

#END
