
#######################################################################
#
#                 Cambridge Crystallographic Data Centre
#                                CCDC 
#
#######################################################################
#
# If this CIF has been generated from an entry in the Cambridge 
# Structural Database, then it will include bibliographic, chemical, 
# crystal, experimental, refinement or atomic coordinate data resulting 
# from the CCDC's data processing and validation procedures.
#
#######################################################################

data_SEFRAZ
_chemical_formula_moiety         'C24 H16 I2'
_chemical_name_systematic        
1^2^,4^2^-diiodo-1^1^,2^1^:2^2^,3^1^:3^2^,4^1^-quaterphenyl
_symmetry_cell_setting           monoclinic
_symmetry_space_group_name_H-M   'P 21/n'
_symmetry_Int_Tables_number      14
_space_group_name_Hall           '-P 2yn'
loop_
_symmetry_equiv_pos_site_id
_symmetry_equiv_pos_as_xyz
1 x,y,z
2 1/2-x,1/2+y,1/2-z
3 -x,-y,-z
4 1/2+x,1/2-y,1/2+z
_cell_length_a                   10.0119(2)
_cell_length_b                   20.7384(3)
_cell_length_c                   10.2015(2)
_cell_angle_alpha                90
_cell_angle_beta                 106.420(2)
_cell_angle_gamma                90
_cell_volume                     2031.76
_exptl_crystal_colour            'light colorless'
_exptl_crystal_description       block
_cell_formula_units_Z            4
_chemical_properties_physical    
Air-sensitive,Moisture-sensitive,Oxygen-sensitive
loop_
_atom_site_label
_atom_site_type_symbol
_atom_site_fract_x
_atom_site_fract_y
_atom_site_fract_z
I1 I 0.65293(3) 0.734539(13) 0.76004(3)
I2 I 0.91379(3) 0.620764(13) 0.08805(3)
C1 C 0.7350(4) 0.61880(16) 0.4626(4)
C2 C 0.6752(4) 0.60644(16) 0.5686(4)
C3 C 0.7506(4) 0.57236(19) 0.6837(4)
H1 H 0.7096 0.5635 0.7552
C4 C 0.8849(4) 0.55121(19) 0.6950(4)
H2 H 0.9357 0.5284 0.7741
C5 C 0.9446(4) 0.56347(19) 0.5908(4)
H3 H 1.0365 0.5490 0.5982
C6 C 0.8708(4) 0.59659(18) 0.4763(4)
H4 H 0.9125 0.6046 0.4050
C7 C 0.6604(3) 0.65750(17) 0.3401(4)
C8 C 0.6339(4) 0.63405(17) 0.2068(4)
C9 C 0.5636(4) 0.67320(19) 0.0974(4)
H5 H 0.5479 0.6578 0.0066
C10 C 0.5164(4) 0.73383(19) 0.1187(4)
H6 H 0.4651 0.7590 0.0434
C11 C 0.5442(4) 0.75756(19) 0.2502(5)
H7 H 0.5134 0.7995 0.2655
C12 C 0.6168(4) 0.72024(18) 0.3593(4)
H8 H 0.6377 0.7374 0.4492
C13 C 0.5286(4) 0.62561(17) 0.5595(4)
C14 C 0.4954(4) 0.67661(17) 0.6343(4)
C15 C 0.3576(4) 0.69098(18) 0.6284(4)
H9 H 0.3370 0.7257 0.6802
C16 C 0.2513(4) 0.65414(19) 0.5464(4)
H10 H 0.1573 0.6639 0.5411
C17 C 0.2814(4) 0.6030(2) 0.4719(4)
H11 H 0.2079 0.5777 0.4163
C18 C 0.4166(4) 0.58886(19) 0.4784(4)
H12 H 0.4356 0.5535 0.4272
C19 C 0.6675(4) 0.56622(18) 0.1742(4)
C20 C 0.7700(4) 0.55076(18) 0.1106(4)
C21 C 0.7870(4) 0.48797(19) 0.0698(4)
H13 H 0.8555 0.4787 0.0242
C22 C 0.7042(4) 0.4393(2) 0.0957(4)
H14 H 0.7158 0.3964 0.0684
C23 C 0.6041(5) 0.4530(2) 0.1614(4)
H15 H 0.5488 0.4189 0.1797
C24 C 0.5827(4) 0.51366(19) 0.2005(4)
H16 H 0.5128 0.5218 0.2448
loop_
_geom_bond_atom_site_label_1
_geom_bond_atom_site_label_2
_geom_bond_site_symmetry_1
_geom_bond_site_symmetry_2
I1 C14 1_555 1_555
I2 C20 1_555 1_555
C1 C2 1_555 1_555
C2 C3 1_555 1_555
C3 H1 1_555 1_555
C4 C3 1_555 1_555
H2 C4 1_555 1_555
C5 C4 1_555 1_555
H3 C5 1_555 1_555
C6 C1 1_555 1_555
H4 C6 1_555 1_555
C7 C1 1_555 1_555
C8 C7 1_555 1_555
C9 C8 1_555 1_555
H5 C9 1_555 1_555
C10 C9 1_555 1_555
H6 C10 1_555 1_555
C11 C10 1_555 1_555
H7 C11 1_555 1_555
C12 C7 1_555 1_555
H8 C12 1_555 1_555
C13 C2 1_555 1_555
C14 C13 1_555 1_555
C15 C14 1_555 1_555
H9 C15 1_555 1_555
C16 C15 1_555 1_555
H10 C16 1_555 1_555
C17 C16 1_555 1_555
H11 C17 1_555 1_555
C18 C13 1_555 1_555
H12 C18 1_555 1_555
C19 C8 1_555 1_555
C20 C19 1_555 1_555
C21 C20 1_555 1_555
H13 C21 1_555 1_555
C22 C21 1_555 1_555
H14 C22 1_555 1_555
C23 C22 1_555 1_555
H15 C23 1_555 1_555
C24 C19 1_555 1_555
H16 C24 1_555 1_555
C5 C6 1_555 1_555
C11 C12 1_555 1_555
C17 C18 1_555 1_555
C23 C24 1_555 1_555

#END
