
#######################################################################
#
#                 Cambridge Crystallographic Data Centre
#                                CCDC 
#
#######################################################################
#
# If this CIF has been generated from an entry in the Cambridge 
# Structural Database, then it will include bibliographic, chemical, 
# crystal, experimental, refinement or atomic coordinate data resulting 
# from the CCDC's data processing and validation procedures.
#
#######################################################################

data_SEFSOO
_chemical_formula_moiety         'C150 H130 N14 O2,4(H2 O1)'
_chemical_name_systematic        
"4,4'-(((((((1,8-naphthyridine-2,7-diyl)bis(ethyne-2,1-diyl))bis(3,8-di-tert-butyl-11,12-dihydroindolo[2,3-a]carbazole-10,1-diyl))bis(ethyne-2,1-diyl))bis(1,8-naphthyridine-7,2-diyl))bis(ethyne-2,1-diyl))bis(3,8-di-tert-butyl-11,12-dihydroindolo[2,3-a]carbazole-10,1-diyl))bis(2-methylbut-3-yn-2-ol) tetrahydrate"
_symmetry_cell_setting           triclinic
_symmetry_space_group_name_H-M   'P -1'
_symmetry_Int_Tables_number      2
_space_group_name_Hall           '-P 1'
loop_
_symmetry_equiv_pos_site_id
_symmetry_equiv_pos_as_xyz
1 x,y,z
2 -x,-y,-z
_cell_length_a                   17.226(3)
_cell_length_b                   22.283(5)
_cell_length_c                   24.020(5)
_cell_angle_alpha                117.27(3)
_cell_angle_beta                 92.88(3)
_cell_angle_gamma                96.46(3)
_cell_volume                     8088.97
_exptl_crystal_colour            'light yellow'
_exptl_crystal_description       needle
_cell_formula_units_Z            2
loop_
_atom_site_label
_atom_site_type_symbol
_atom_site_fract_x
_atom_site_fract_y
_atom_site_fract_z
O1 O 0.45262(14) 0.66010(11) 0.84666(11)
H1 H 0.473691 0.625968 0.841492
O2 O 0.68810(14) 0.49350(12) 0.75465(12)
H2 H 0.642470 0.497141 0.743791
N1 N 0.29080(14) 0.43097(12) 0.80465(12)
H3 H 0.328445 0.463044 0.831206
N2 N 0.39472(15) 0.35399(12) 0.85410(12)
H4 H 0.419469 0.396273 0.871990
N3 N 0.54051(15) 0.78042(13) 0.85848(13)
H5 H 0.540118 0.739526 0.855515
N4 N 0.40919(16) 0.68624(14) 0.74426(13)
H6 H 0.425290 0.657739 0.756689
N5 N 0.73634(16) 0.45403(12) 0.85356(13)
H7 H 0.699267 0.454022 0.826971
N6 N 0.77361(15) 0.59983(13) 0.86210(13)
H8 H 0.732961 0.579171 0.832993
N7 N 0.38619(18) 0.34270(17) 0.49564(15)
H9 H 0.421429 0.379176 0.518110
N8 N 0.5130(2) 0.29141(16) 0.55527(15)
H10 H 0.533005 0.333760 0.565643
N9 N 0.60746(15) 0.53164(12) 0.96582(12)
N10 N 0.63601(15) 0.63876(12) 0.97252(12)
N11 N 0.41411(16) 0.43287(14) 0.69159(13)
N12 N 0.48944(17) 0.37769(14) 0.72973(14)
N13 N 0.58333(16) 0.62846(14) 0.68367(14)
N14 N 0.48914(16) 0.56973(15) 0.59764(14)
C1 C 0.22246(18) 0.49730(17) 0.76329(16)
C2 C 0.23298(19) 0.43927(16) 0.76808(16)
C3 C 0.27924(19) 0.36335(16) 0.79225(16)
C4 C 0.32552(19) 0.32934(15) 0.81430(15)
C5 C 0.4179(2) 0.30073(14) 0.86073(15)
C6 C 0.4848(2) 0.30135(15) 0.89553(16)
C7 C 0.4971(2) 0.24013(15) 0.89511(17)
H11 H 0.543008 0.239488 0.918309
C8 C 0.4433(2) 0.17941(16) 0.86128(19)
C9 C 0.3769(2) 0.18128(16) 0.82743(18)
H12 H 0.339685 0.140861 0.804975
C10 C 0.3629(2) 0.24074(16) 0.82529(17)
C11 C 0.3026(2) 0.25916(15) 0.79519(16)
C12 C 0.2341(2) 0.22377(18) 0.75149(18)
H13 H 0.218882 0.176365 0.737693
C13 C 0.1906(2) 0.25648(18) 0.72942(19)
H14 H 0.144842 0.232042 0.700512
C14 C 0.21258(19) 0.32729(17) 0.74898(17)
C15 C 0.18320(19) 0.37607(18) 0.73139(17)
C16 C 0.1242(2) 0.3719(2) 0.68777(18)
H15 H 0.090169 0.329931 0.663023
C17 C 0.1146(2) 0.4289(2) 0.68017(19)
C18 C 0.16332(19) 0.4910(2) 0.71719(17)
H16 H 0.156662 0.529556 0.711327
C19 C 0.64128(19) 0.84961(15) 0.95225(16)
C20 C 0.58760(18) 0.83946(14) 0.90196(16)
C21 C 0.4944(2) 0.79651(16) 0.82069(16)
C22 C 0.4362(2) 0.75493(17) 0.77074(16)
C23 C 0.3526(2) 0.66960(19) 0.69498(17)
C24 C 0.3101(2) 0.6055(2) 0.65342(18)
C25 C 0.2548(2) 0.6033(2) 0.60755(19)
H17 H 0.224573 0.560590 0.578971
C26 C 0.2422(3) 0.6617(3) 0.6020(2)
C27 C 0.2865(3) 0.7229(3) 0.6428(2)
H18 H 0.279144 0.762630 0.639088
C28 C 0.3426(2) 0.7284(2) 0.68989(19)
C29 C 0.3971(2) 0.7846(2) 0.73862(17)
C30 C 0.4163(3) 0.8528(2) 0.7547(2)
H19 H 0.389701 0.871467 0.732108
C31 C 0.4733(3) 0.8934(2) 0.8031(2)
H20 H 0.486130 0.940446 0.814478
C32 C 0.5139(2) 0.86505(16) 0.83676(17)
C33 C 0.5728(2) 0.89323(16) 0.89022(17)
C34 C 0.6132(2) 0.95888(17) 0.92949(19)
H21 H 0.603964 0.995498 0.921319
C35 C 0.6669(2) 0.97148(15) 0.98058(18)
C36 C 0.67914(19) 0.91546(15) 0.98980(17)
H22 H 0.715901 0.923273 1.024138
C37 C 0.6970(2) 0.33771(17) 0.84196(18)
C38 C 0.7455(2) 0.40063(17) 0.86596(17)
C39 C 0.79515(19) 0.50747(16) 0.88988(17)
C40 C 0.81101(18) 0.57171(16) 0.89502(16)
C41 C 0.81123(18) 0.66602(16) 0.88291(17)
C42 C 0.79502(19) 0.71324(17) 0.86299(17)
C43 C 0.8421(2) 0.77748(17) 0.89269(19)
H23 H 0.831402 0.811168 0.880787
C44 C 0.9045(2) 0.79376(17) 0.93932(19)
C45 C 0.9179(2) 0.74583(16) 0.95897(18)
H24 H 0.958658 0.757183 0.991899
C46 C 0.87243(19) 0.68109(16) 0.93101(17)
C47 C 0.87215(19) 0.61959(16) 0.93799(17)
C48 C 0.9186(2) 0.60164(17) 0.97707(17)
H25 H 0.959331 0.634416 1.007436
C49 C 0.9047(2) 0.53754(17) 0.97092(18)
H26 H 0.936957 0.525303 0.996149
C50 C 0.84333(19) 0.48936(17) 0.92786(16)
C51 C 0.8114(2) 0.41884(17) 0.91069(17)
C52 C 0.8301(2) 0.37129(18) 0.93016(19)
H27 H 0.873754 0.383050 0.960927
C53 C 0.7855(2) 0.3077(2) 0.9049(2)
C54 C 0.7190(2) 0.29175(19) 0.8624(2)
H28 H 0.687428 0.248257 0.846712
C55 C 0.2958(2) 0.3917(2) 0.44947(18)
C56 C 0.3198(2) 0.3392(2) 0.45914(19)
C57 C 0.3873(2) 0.2786(2) 0.4906(2)
C58 C 0.4425(3) 0.2559(2) 0.5174(2)
C59 C 0.5455(3) 0.2494(2) 0.57356(18)
C60 C 0.6139(3) 0.2638(2) 0.6134(2)
C61 C 0.6316(3) 0.2121(2) 0.6284(2)
H29 H 0.677904 0.220612 0.655673
C62 C 0.5829(3) 0.1483(2) 0.6042(2)
C63 C 0.5161(3) 0.1362(2) 0.5636(2)
H30 H 0.483798 0.092845 0.546213
C64 C 0.4948(3) 0.1850(2) 0.5475(2)
C65 C 0.4304(3) 0.1901(2) 0.5101(2)
C66 C 0.3613(3) 0.1440(2) 0.4747(2)
H31 H 0.351418 0.099567 0.471278
C67 C 0.3075(3) 0.1666(2) 0.4446(2)
H32 H 0.262376 0.136121 0.418357
C68 C 0.3206(3) 0.2341(2) 0.4533(2)
C69 C 0.2770(3) 0.2727(2) 0.4320(2)
C70 C 0.2071(3) 0.2578(3) 0.3918(2)
H33 H 0.177555 0.213136 0.372524
C71 C 0.1812(2) 0.3094(3) 0.3804(2)
C72 C 0.2250(2) 0.3745(2) 0.40912(19)
H34 H 0.206706 0.408874 0.401311
C73 C 0.62647(19) 0.48516(14) 0.98272(14)
C74 C 0.65578(18) 0.59309(15) 0.99237(14)
C75 C 0.67968(18) 0.70012(14) 0.99869(15)
C76 C 0.74458(19) 0.71991(16) 1.04401(17)
H35 H 0.773507 0.764657 1.061398
C77 C 0.76591(19) 0.67484(16) 1.06294(16)
H36 H 0.809928 0.687609 1.093643
C78 C 0.72243(18) 0.60938(15) 1.03679(15)
C79 C 0.73977(19) 0.55741(16) 1.05235(16)
H37 H 0.784192 0.565603 1.081349
C80 C 0.69239(19) 0.49646(16) 1.02545(16)
H38 H 0.703404 0.461324 1.035264
C81 C 0.3507(2) 0.43141(19) 0.65650(16)
C82 C 0.4239(2) 0.37387(18) 0.69299(17)
C83 C 0.5014(2) 0.32190(18) 0.73343(17)
C84 C 0.4499(2) 0.25836(19) 0.7011(2)
H39 H 0.461117 0.219599 0.705064
C85 C 0.3848(2) 0.25423(19) 0.6648(2)
H40 H 0.349111 0.212698 0.643856
C86 C 0.3702(2) 0.31194(18) 0.65827(17)
C87 C 0.3064(2) 0.3130(2) 0.6206(2)
H41 H 0.269874 0.272533 0.596139
C88 C 0.2966(2) 0.3716(2) 0.61888(19)
H42 H 0.253968 0.372522 0.592746
C89 C 0.6305(2) 0.6844(2) 0.72262(17)
C90 C 0.5346(2) 0.63128(19) 0.63904(17)
C91 C 0.43764(19) 0.5711(2) 0.55460(18)
C92 C 0.4283(2) 0.6310(2) 0.54932(18)
H43 H 0.390178 0.629155 0.518384
C93 C 0.4738(2) 0.6897(2) 0.58845(18)
H44 H 0.469237 0.730123 0.585192
C94 C 0.5288(2) 0.69120(19) 0.63459(18)
C95 C 0.5804(2) 0.7508(2) 0.6780(2)
H45 H 0.578292 0.792654 0.676908
C96 C 0.6327(2) 0.74866(19) 0.72103(19)
H46 H 0.669180 0.787749 0.748926
C97 C 0.3233(2) 0.60629(17) 0.83848(17)
C98 C 0.2753(2) 0.55921(18) 0.80291(17)
C99 C 0.53798(19) 0.36441(16) 0.92936(15)
C100 C 0.57612(19) 0.42026(16) 0.95400(15)
C101 C 0.66061(19) 0.74824(15) 0.97729(16)
C102 C 0.65324(18) 0.79452(15) 0.96615(16)
C103 C 0.32486(19) 0.5441(2) 0.65529(16)
C104 C 0.3395(2) 0.4933(2) 0.65641(17)
C105 C 0.5708(2) 0.32483(17) 0.77033(18)
C106 C 0.6277(2) 0.32524(17) 0.80105(19)
C107 C 0.7332(2) 0.69788(16) 0.81417(18)
C108 C 0.6833(2) 0.68578(18) 0.77082(19)
C109 C 0.3881(2) 0.5071(2) 0.51369(19)
C110 C 0.3418(2) 0.4565(2) 0.48087(19)
C111 C 0.6586(2) 0.3294(2) 0.64157(18)
C112 C 0.6911(2) 0.3872(2) 0.66407(18)
C113 C 0.3857(2) 0.66264(17) 0.88016(18)
C114 C 0.4073(3) 0.6567(2) 0.94014(18)
H47 H 0.427982 0.613874 0.928744
H48 H 0.360284 0.657163 0.961604
H49 H 0.447324 0.695348 0.968323
C115 C 0.3581(2) 0.73145(17) 0.89792(18)
H50 H 0.400747 0.768576 0.924243
H51 H 0.312429 0.735172 0.921371
H52 H 0.343547 0.734657 0.859512
C116 C 0.7285(2) 0.4606(2) 0.69868(19)
C117 C 0.8143(2) 0.4659(2) 0.7234(2)
H53 H 0.836681 0.514103 0.749431
H54 H 0.844700 0.445053 0.687739
H55 H 0.816112 0.441968 0.748871
C118 C 0.7228(3) 0.4964(2) 0.6592(2)
H56 H 0.667958 0.489671 0.641903
H57 H 0.755305 0.477610 0.624561
H58 H 0.741535 0.545352 0.685322
C119 C 0.0545(2) 0.4231(3) 0.6270(2)
C120 C 0.0918(4) 0.3980(5) 0.5676(3)
H59 H 0.141547 0.427899 0.574388
H60 H 0.056539 0.398340 0.534455
H61 H 0.102104 0.351379 0.554718
C121 C 0.0249(4) 0.4897(3) 0.6440(4)
H62 H 0.007249 0.507188 0.686019
H63 H -0.019155 0.482414 0.613038
H64 H 0.067386 0.522916 0.644022
C122 C -0.0167(3) 0.3698(3) 0.6162(3)
H65 H -0.000729 0.324474 0.599147
H66 H -0.057286 0.370124 0.586252
H67 H -0.037832 0.380842 0.656350
C123 C 0.4600(2) 0.11358(18) 0.8608(2)
C124 C 0.5148(4) 0.0826(3) 0.8121(4)
H68 H 0.485710 0.061908 0.769877
H69 H 0.537456 0.047374 0.818348
H70 H 0.557125 0.118172 0.816235
C125 C 0.5011(3) 0.1280(2) 0.9239(3)
H71 H 0.551338 0.157852 0.932671
H72 H 0.510642 0.084909 0.922709
H73 H 0.467826 0.150524 0.957119
C126 C 0.3849(3) 0.0656(2) 0.8494(3)
H74 H 0.348237 0.090083 0.878583
H75 H 0.396632 0.027265 0.856181
H76 H 0.361008 0.048194 0.805865
C127 C 0.7053(2) 1.04417(16) 1.0253(2)
C128 C 0.7705(3) 1.0469(2) 1.0718(4)
H77 H 0.747813 1.031314 1.100371
H78 H 0.797567 1.093978 1.096229
H79 H 0.808069 1.017235 1.048720
C129 C 0.7364(6) 1.0813(3) 0.9917(3)
H80 H 0.766185 1.052278 0.958467
H81 H 0.771057 1.123194 1.021500
H82 H 0.692648 1.092962 0.972792
C130 C 0.6462(3) 1.0825(2) 1.0642(3)
H83 H 0.596399 1.071503 1.037521
H84 H 0.665091 1.131639 1.083003
H85 H 0.638205 1.069692 1.097641
C131 C 0.1816(3) 0.6535(3) 0.5489(2)
C132 C 0.8067(2) 0.2526(2) 0.9236(2)
C133 C 0.9537(3) 0.8643(2) 0.9679(2)
C134 C 1.0266(3) 0.8725(2) 1.0087(3)
H86 H 1.012212 0.865486 1.044512
H87 H 1.055712 0.918579 1.024290
H88 H 1.059534 0.838722 0.984098
C135 C 0.9923(4) 0.8749(3) 0.9141(4)
H89 H 1.022948 0.838083 0.891922
H90 H 1.027036 0.918985 0.932794
H91 H 0.950923 0.874233 0.884205
C136 C 0.9069(3) 0.9175(2) 0.9918(4)
H92 H 0.858484 0.904498 0.963090
H93 H 0.936376 0.959602 0.995296
H94 H 0.893649 0.925139 1.033513
C137 C 0.1042(3) 0.2916(3) 0.3375(2)
C138 C 0.0784(6) 0.3517(4) 0.3404(7)
H95 H 0.067659 0.381362 0.383396
H96 H 0.030361 0.338685 0.311240
H97 H 0.119566 0.376169 0.328381
C139 C 0.1175(4) 0.2412(6) 0.2721(3)
H98 H 0.149317 0.265021 0.253441
H99 H 0.066722 0.219809 0.246159
H100 H 0.145123 0.206061 0.274170
C140 C 0.0423(3) 0.2556(4) 0.3542(4)
H101 H 0.063105 0.220408 0.361706
H102 H -0.000638 0.233950 0.319621
H103 H 0.022551 0.287819 0.392504
C141 C 0.6070(4) 0.0962(2) 0.6245(3)
C142 C 0.6787(6) 0.0677(4) 0.5928(4)
H104 H 0.663494 0.038777 0.547457
H105 H 0.699182 0.040426 0.611042
H106 H 0.719550 0.105501 0.599618
C143 C 0.6257(6) 0.1258(3) 0.6927(3)
H107 H 0.672586 0.160616 0.706578
H108 H 0.635712 0.089858 0.703589
H109 H 0.581287 0.146863 0.713579
C144 C 0.5400(6) 0.0331(3) 0.6043(5)
H110 H 0.489937 0.049449 0.616433
H111 H 0.553285 0.006368 0.625432
H112 H 0.535275 0.004295 0.558508
C145 C 0.1015(7) 0.6106(8) 0.5551(7)
H113 H 0.106116 0.561912 0.535760
H114 H 0.055931 0.617142 0.533481
H115 H 0.094542 0.627095 0.599735
C146 C 0.2085(13) 0.6144(11) 0.4867(6)
H116 H 0.256359 0.640189 0.483252
H117 H 0.167362 0.606756 0.453501
H118 H 0.219753 0.570340 0.482161
C147 C 0.1538(12) 0.7219(8) 0.5657(12)
H119 H 0.152455 0.747038 0.611349
H120 H 0.100989 0.713733 0.544004
H121 H 0.190139 0.748667 0.552412
C148 C 0.7516(7) 0.2455(10) 0.9630(8)
H122 H 0.758195 0.287522 1.003250
H123 H 0.760373 0.207052 0.970662
H124 H 0.698057 0.236885 0.942283
C149 C 0.7918(11) 0.1819(5) 0.8623(8)
H125 H 0.739695 0.175658 0.840408
H126 H 0.794439 0.145140 0.873760
H127 H 0.832060 0.180599 0.834527
C150 C 0.8885(5) 0.2598(8) 0.9398(9)
H128 H 0.911405 0.308136 0.958587
H129 H 0.913125 0.233556 0.901789
H130 H 0.897609 0.242696 0.970177
O3 O 0.51210(17) 0.44005(13) 0.58566(12)
H149 H 0.524978 0.446286 0.623664
H150 H 0.508367 0.479157 0.586735
O4 O 0.55245(18) 0.52994(16) 0.73059(16)
H151 H 0.558741 0.540194 0.700090
H152 H 0.504439 0.510400 0.726349
O5 O 0.45958(15) 0.48596(13) 0.88157(14)
H153 H 0.473163 0.490421 0.849069
H154 H 0.500737 0.497820 0.908941
O6 O 0.54576(17) 0.57970(14) 0.85474(14)
H155 H 0.575389 0.610240 0.888529
H156 H 0.564707 0.579037 0.821599
C151? C 0.2303(8) 0.6699(9) 0.5006(6)
H131? H 0.250828 0.718819 0.520369
H132? H 0.195531 0.657221 0.462112
H133? H 0.274152 0.643634 0.489989
C152? C 0.1285(14) 0.7088(12) 0.5723(17)
H134? H 0.101251 0.707019 0.606428
H135? H 0.089801 0.701058 0.537452
H136? H 0.160601 0.753801 0.587906
C153? C 0.1353(16) 0.5824(13) 0.5090(11)
H137? H 0.171638 0.548834 0.495176
H138? H 0.098211 0.571865 0.534062
H139? H 0.106242 0.580709 0.472040
C154? C 0.8847(9) 0.2324(9) 0.8938(7)
H140? H 0.873483 0.207737 0.847742
H141? H 0.906707 0.203113 0.908865
H142? H 0.922653 0.273827 0.906155
C155? C 0.8368(6) 0.2918(4) 0.9998(4)
H143? H 0.882274 0.326806 1.008635
H144? H 0.851777 0.258545 1.012707
H145? H 0.794177 0.313463 1.023199
C156? C 0.7326(8) 0.2070(7) 0.9222(8)
H146? H 0.699866 0.234710 0.953474
H147? H 0.747520 0.171493 0.932042
H148? H 0.703024 0.185630 0.880110
loop_
_geom_bond_atom_site_label_1
_geom_bond_atom_site_label_2
_geom_bond_site_symmetry_1
_geom_bond_site_symmetry_2
O1 H1 1_555 1_555
O2 H2 1_555 1_555
N1 H3 1_555 1_555
N2 H4 1_555 1_555
N3 H5 1_555 1_555
N4 H6 1_555 1_555
N5 H7 1_555 1_555
N6 H8 1_555 1_555
N7 H9 1_555 1_555
N8 H10 1_555 1_555
N9 C73 1_555 1_555
N10 C74 1_555 1_555
N11 C81 1_555 1_555
N12 C82 1_555 1_555
N13 C89 1_555 1_555
N14 C90 1_555 1_555
C1 C2 1_555 1_555
C2 N1 1_555 1_555
C3 N1 1_555 1_555
C4 N2 1_555 1_555
C5 N2 1_555 1_555
C6 C5 1_555 1_555
C7 C6 1_555 1_555
H11 C7 1_555 1_555
C8 C7 1_555 1_555
C9 C8 1_555 1_555
H12 C9 1_555 1_555
C10 C5 1_555 1_555
C11 C4 1_555 1_555
C12 C11 1_555 1_555
H13 C12 1_555 1_555
C13 C12 1_555 1_555
H14 C13 1_555 1_555
C14 C3 1_555 1_555
C15 C2 1_555 1_555
C16 C15 1_555 1_555
H15 C16 1_555 1_555
C17 C16 1_555 1_555
C18 C1 1_555 1_555
H16 C18 1_555 1_555
C19 C20 1_555 1_555
C20 N3 1_555 1_555
C21 N3 1_555 1_555
C22 N4 1_555 1_555
C23 N4 1_555 1_555
C24 C23 1_555 1_555
C25 C24 1_555 1_555
H17 C25 1_555 1_555
C26 C25 1_555 1_555
C27 C26 1_555 1_555
H18 C27 1_555 1_555
C28 C23 1_555 1_555
C29 C22 1_555 1_555
C30 C29 1_555 1_555
H19 C30 1_555 1_555
C31 C30 1_555 1_555
H20 C31 1_555 1_555
C32 C21 1_555 1_555
C33 C20 1_555 1_555
C34 C33 1_555 1_555
H21 C34 1_555 1_555
C35 C34 1_555 1_555
C36 C19 1_555 1_555
H22 C36 1_555 1_555
C37 C38 1_555 1_555
C38 N5 1_555 1_555
C39 N5 1_555 1_555
C40 N6 1_555 1_555
C41 N6 1_555 1_555
C42 C41 1_555 1_555
C43 C42 1_555 1_555
H23 C43 1_555 1_555
C44 C43 1_555 1_555
C45 C44 1_555 1_555
H24 C45 1_555 1_555
C46 C41 1_555 1_555
C47 C40 1_555 1_555
C48 C47 1_555 1_555
H25 C48 1_555 1_555
C49 C48 1_555 1_555
H26 C49 1_555 1_555
C50 C39 1_555 1_555
C51 C38 1_555 1_555
C52 C51 1_555 1_555
H27 C52 1_555 1_555
C53 C52 1_555 1_555
C54 C37 1_555 1_555
H28 C54 1_555 1_555
C55 C56 1_555 1_555
C56 N7 1_555 1_555
C57 N7 1_555 1_555
C58 N8 1_555 1_555
C59 N8 1_555 1_555
C60 C59 1_555 1_555
C61 C60 1_555 1_555
H29 C61 1_555 1_555
C62 C61 1_555 1_555
C63 C62 1_555 1_555
H30 C63 1_555 1_555
C64 C59 1_555 1_555
C65 C58 1_555 1_555
C66 C65 1_555 1_555
H31 C66 1_555 1_555
C67 C66 1_555 1_555
H32 C67 1_555 1_555
C68 C57 1_555 1_555
C69 C56 1_555 1_555
C70 C69 1_555 1_555
H33 C70 1_555 1_555
C71 C70 1_555 1_555
C72 C55 1_555 1_555
H34 C72 1_555 1_555
C73 C80 1_555 1_555
C74 N9 1_555 1_555
C75 N10 1_555 1_555
C76 C75 1_555 1_555
H35 C76 1_555 1_555
C77 C76 1_555 1_555
H36 C77 1_555 1_555
C78 C74 1_555 1_555
C79 C78 1_555 1_555
H37 C79 1_555 1_555
C80 C79 1_555 1_555
H38 C80 1_555 1_555
C81 C88 1_555 1_555
C82 N11 1_555 1_555
C83 N12 1_555 1_555
C84 C83 1_555 1_555
H39 C84 1_555 1_555
C85 C84 1_555 1_555
H40 C85 1_555 1_555
C86 C82 1_555 1_555
C87 C86 1_555 1_555
H41 C87 1_555 1_555
C88 C87 1_555 1_555
H42 C88 1_555 1_555
C89 C96 1_555 1_555
C90 N13 1_555 1_555
C91 N14 1_555 1_555
C92 C91 1_555 1_555
H43 C92 1_555 1_555
C93 C92 1_555 1_555
H44 C93 1_555 1_555
C94 C90 1_555 1_555
C95 C94 1_555 1_555
H45 C95 1_555 1_555
C96 C95 1_555 1_555
H46 C96 1_555 1_555
C97 C98 1_555 1_555
C98 C1 1_555 1_555
C99 C6 1_555 1_555
C100 C73 1_555 1_555
C101 C75 1_555 1_555
C102 C19 1_555 1_555
C103 C24 1_555 1_555
C104 C81 1_555 1_555
C105 C83 1_555 1_555
C106 C37 1_555 1_555
C107 C42 1_555 1_555
C108 C89 1_555 1_555
C109 C91 1_555 1_555
C110 C55 1_555 1_555
C111 C60 1_555 1_555
C112 C111 1_555 1_555
C113 O1 1_555 1_555
C114 C113 1_555 1_555
H47 C114 1_555 1_555
H48 C114 1_555 1_555
H49 C114 1_555 1_555
C115 C113 1_555 1_555
H50 C115 1_555 1_555
H51 C115 1_555 1_555
H52 C115 1_555 1_555
C116 O2 1_555 1_555
C117 C116 1_555 1_555
H53 C117 1_555 1_555
H54 C117 1_555 1_555
H55 C117 1_555 1_555
C118 C116 1_555 1_555
H56 C118 1_555 1_555
H57 C118 1_555 1_555
H58 C118 1_555 1_555
C119 C17 1_555 1_555
C120 C119 1_555 1_555
H59 C120 1_555 1_555
H60 C120 1_555 1_555
H61 C120 1_555 1_555
C121 C119 1_555 1_555
H62 C121 1_555 1_555
H63 C121 1_555 1_555
H64 C121 1_555 1_555
C122 C119 1_555 1_555
H65 C122 1_555 1_555
H66 C122 1_555 1_555
H67 C122 1_555 1_555
C123 C8 1_555 1_555
C124 C123 1_555 1_555
H68 C124 1_555 1_555
H69 C124 1_555 1_555
H70 C124 1_555 1_555
C125 C123 1_555 1_555
H71 C125 1_555 1_555
H72 C125 1_555 1_555
H73 C125 1_555 1_555
C126 C123 1_555 1_555
H74 C126 1_555 1_555
H75 C126 1_555 1_555
H76 C126 1_555 1_555
C127 C35 1_555 1_555
C128 C127 1_555 1_555
H77 C128 1_555 1_555
H78 C128 1_555 1_555
H79 C128 1_555 1_555
C129 C127 1_555 1_555
H80 C129 1_555 1_555
H81 C129 1_555 1_555
H82 C129 1_555 1_555
C130 C127 1_555 1_555
H83 C130 1_555 1_555
H84 C130 1_555 1_555
H85 C130 1_555 1_555
C131 C26 1_555 1_555
C132 C53 1_555 1_555
C133 C44 1_555 1_555
C134 C133 1_555 1_555
H86 C134 1_555 1_555
H87 C134 1_555 1_555
H88 C134 1_555 1_555
C135 C133 1_555 1_555
H89 C135 1_555 1_555
H90 C135 1_555 1_555
H91 C135 1_555 1_555
C136 C133 1_555 1_555
H92 C136 1_555 1_555
H93 C136 1_555 1_555
H94 C136 1_555 1_555
C137 C71 1_555 1_555
C138 C137 1_555 1_555
H95 C138 1_555 1_555
H96 C138 1_555 1_555
H97 C138 1_555 1_555
C139 C137 1_555 1_555
H98 C139 1_555 1_555
H99 C139 1_555 1_555
H100 C139 1_555 1_555
C140 C137 1_555 1_555
H101 C140 1_555 1_555
H102 C140 1_555 1_555
H103 C140 1_555 1_555
C141 C62 1_555 1_555
C142 C141 1_555 1_555
H104 C142 1_555 1_555
H105 C142 1_555 1_555
H106 C142 1_555 1_555
C143 C141 1_555 1_555
H107 C143 1_555 1_555
H108 C143 1_555 1_555
H109 C143 1_555 1_555
C144 C141 1_555 1_555
H110 C144 1_555 1_555
H111 C144 1_555 1_555
H112 C144 1_555 1_555
C145 C131 1_555 1_555
H113 C145 1_555 1_555
H114 C145 1_555 1_555
H115 C145 1_555 1_555
C146 C131 1_555 1_555
H116 C146 1_555 1_555
H117 C146 1_555 1_555
H118 C146 1_555 1_555
C147 C131 1_555 1_555
H119 C147 1_555 1_555
H120 C147 1_555 1_555
H121 C147 1_555 1_555
C148 C132 1_555 1_555
H122 C148 1_555 1_555
H123 C148 1_555 1_555
H124 C148 1_555 1_555
C149 C132 1_555 1_555
H125 C149 1_555 1_555
H126 C149 1_555 1_555
H127 C149 1_555 1_555
C150 C132 1_555 1_555
H128 C150 1_555 1_555
H129 C150 1_555 1_555
H130 C150 1_555 1_555
O3 H149 1_555 1_555
H150 O3 1_555 1_555
O4 H151 1_555 1_555
H152 O4 1_555 1_555
O5 H153 1_555 1_555
H154 O5 1_555 1_555
O6 H155 1_555 1_555
H156 O6 1_555 1_555
C3 C4 1_555 1_555
C9 C10 1_555 1_555
C10 C11 1_555 1_555
C13 C14 1_555 1_555
C14 C15 1_555 1_555
C17 C18 1_555 1_555
C21 C22 1_555 1_555
C27 C28 1_555 1_555
C28 C29 1_555 1_555
C31 C32 1_555 1_555
C32 C33 1_555 1_555
C35 C36 1_555 1_555
C39 C40 1_555 1_555
C45 C46 1_555 1_555
C46 C47 1_555 1_555
C49 C50 1_555 1_555
C50 C51 1_555 1_555
C53 C54 1_555 1_555
C57 C58 1_555 1_555
C63 C64 1_555 1_555
C64 C65 1_555 1_555
C67 C68 1_555 1_555
C68 C69 1_555 1_555
C71 C72 1_555 1_555
C77 C78 1_555 1_555
C85 C86 1_555 1_555
C93 C94 1_555 1_555
C97 C113 1_555 1_555
C99 C100 1_555 1_555
C101 C102 1_555 1_555
C103 C104 1_555 1_555
C105 C106 1_555 1_555
C107 C108 1_555 1_555
C109 C110 1_555 1_555
C112 C116 1_555 1_555

#END
