
#######################################################################
#
#                 Cambridge Crystallographic Data Centre
#                                CCDC 
#
#######################################################################
#
# If this CIF has been generated from an entry in the Cambridge 
# Structural Database, then it will include bibliographic, chemical, 
# crystal, experimental, refinement or atomic coordinate data resulting 
# from the CCDC's data processing and validation procedures.
#
#######################################################################

data_SEGGAO
_chemical_formula_moiety         'C19 H17 N3 O5'
_chemical_name_systematic        
'methyl (2R,3S)-2-hydroxy-3-phenyl-3-([(5-phenyl-1,3,4-oxadiazol-2-yl)-carbonyl]amino)-propanoate'
_symmetry_cell_setting           orthorhombic
_symmetry_space_group_name_H-M   'P 21 21 21'
_symmetry_Int_Tables_number      19
_space_group_name_Hall           'P 2ac 2ab'
loop_
_symmetry_equiv_pos_site_id
_symmetry_equiv_pos_as_xyz
1 x,y,z
2 1/2-x,-y,1/2+z
3 1/2+x,1/2-y,-z
4 -x,1/2+y,1/2-z
_cell_length_a                   6.7956(15)
_cell_length_b                   11.993(3)
_cell_length_c                   21.790(5)
_cell_angle_alpha                90
_cell_angle_beta                 90
_cell_angle_gamma                90
_cell_volume                     1775.88
_exptl_crystal_colour            colorless
_exptl_crystal_description       block
_cell_formula_units_Z            4
loop_
_atom_site_label
_atom_site_type_symbol
_atom_site_fract_x
_atom_site_fract_y
_atom_site_fract_z
C1 C 0.61012(18) 0.30574(11) 0.50216(5)
C2 C 0.6393(2) 0.39715(13) 0.54063(6)
H1 H 0.6552 0.4681 0.5241
C3 C 0.6442(2) 0.38187(15) 0.60333(7)
H2 H 0.6633 0.4427 0.6292
C4 C 0.6212(2) 0.27723(16) 0.62771(6)
H3 H 0.6222 0.2677 0.6701
C5 C 0.5965(2) 0.18589(14) 0.58987(6)
H4 H 0.5836 0.1150 0.6067
C6 C 0.5908(2) 0.20012(12) 0.52662(6)
H5 H 0.5742 0.1389 0.5009
C7 C 0.59975(19) 0.32433(10) 0.43602(5)
C8 C 0.58100(19) 0.28459(10) 0.34151(5)
C9 C 0.5679(2) 0.21252(11) 0.28595(5)
C10 C 0.5719(2) 0.21577(10) 0.17347(5)
H6 H 0.5297 0.1383 0.1789
C11 C 0.43465(19) 0.27038(10) 0.12752(5)
C12 C 0.3401(2) 0.20499(11) 0.08453(6)
H7 H 0.3524 0.1278 0.0864
C13 C 0.2270(2) 0.25280(14) 0.03860(6)
H8 H 0.1661 0.2077 0.0095
C14 C 0.2046(2) 0.36628(13) 0.03583(7)
H9 H 0.1297 0.3984 0.0048
C15 C 0.2937(2) 0.43196(12) 0.07922(7)
H10 H 0.2762 0.5088 0.0780
C16 C 0.4089(2) 0.38534(11) 0.12461(6)
H11 H 0.4698 0.4310 0.1534
C17 C 0.7841(2) 0.21479(12) 0.14830(6)
C18 C 0.9201(2) 0.15290(12) 0.19144(5)
C19 C 0.9825(3) -0.01948(16) 0.23871(8)
H12 H 0.9443 -0.0963 0.2354
H13 H 0.9469 0.0084 0.2785
H14 H 1.1223 -0.0132 0.2333
H15 H 0.787(2) 0.1775(12) 0.1094(7)
H16 H 0.963(5) 0.325(2) 0.1360(14)
N1 N 0.5953(2) 0.41811(9) 0.40689(5)
N2 N 0.5837(2) 0.39101(9) 0.34446(5)
N3 N 0.56856(18) 0.26987(9) 0.23336(4)
H17 H 0.5669 0.3415 0.2349
O1 O 0.59195(14) 0.23542(7) 0.39751(3)
O2 O 0.5582(2) 0.11208(9) 0.29052(4)
O3 O 0.88294(18) 0.04493(9) 0.19182(4)
O4 O 1.04381(19) 0.19808(11) 0.22224(5)
O5 O 0.84571(19) 0.32602(10) 0.14077(6)
loop_
_geom_bond_atom_site_label_1
_geom_bond_atom_site_label_2
_geom_bond_site_symmetry_1
_geom_bond_site_symmetry_2
C1 C2 1_555 1_555
C2 H1 1_555 1_555
C3 C2 1_555 1_555
H2 C3 1_555 1_555
C4 C3 1_555 1_555
H3 C4 1_555 1_555
C5 C4 1_555 1_555
H4 C5 1_555 1_555
C6 C1 1_555 1_555
H5 C6 1_555 1_555
C7 C1 1_555 1_555
C8 C9 1_555 1_555
C9 N3 1_555 1_555
C10 H6 1_555 1_555
C11 C10 1_555 1_555
C12 C11 1_555 1_555
H7 C12 1_555 1_555
C13 C12 1_555 1_555
H8 C13 1_555 1_555
C14 C13 1_555 1_555
H9 C14 1_555 1_555
C15 C14 1_555 1_555
H10 C15 1_555 1_555
C16 C11 1_555 1_555
H11 C16 1_555 1_555
C17 C10 1_555 1_555
C18 C17 1_555 1_555
C19 H12 1_555 1_555
H13 C19 1_555 1_555
H14 C19 1_555 1_555
H15 C17 1_555 1_555
H16 O5 1_555 1_555
N1 C7 1_555 1_555
N2 C8 1_555 1_555
N3 C10 1_555 1_555
H17 N3 1_555 1_555
O1 C7 1_555 1_555
O2 C9 1_555 1_555
O3 C18 1_555 1_555
O4 C18 1_555 1_555
O5 C17 1_555 1_555
C5 C6 1_555 1_555
C8 O1 1_555 1_555
C15 C16 1_555 1_555
C19 O3 1_555 1_555
N1 N2 1_555 1_555

#END
