
#######################################################################
#
#                 Cambridge Crystallographic Data Centre
#                                CCDC 
#
#######################################################################
#
# If this CIF has been generated from an entry in the Cambridge 
# Structural Database, then it will include bibliographic, chemical, 
# crystal, experimental, refinement or atomic coordinate data resulting 
# from the CCDC's data processing and validation procedures.
#
#######################################################################

data_SEGSOP
_chemical_formula_moiety         'C15 H21 B10 N1 O1'
_chemical_name_systematic        
1-(((2-hydroxyphenyl)imino)methyl)-2-phenyl-1,2-dicarba-closo-dodecaborane(10)
_symmetry_cell_setting           triclinic
_symmetry_space_group_name_H-M   'P -1'
_symmetry_Int_Tables_number      2
_space_group_name_Hall           '-P 1'
loop_
_symmetry_equiv_pos_site_id
_symmetry_equiv_pos_as_xyz
1 x,y,z
2 -x,-y,-z
_cell_length_a                   7.3920(7)
_cell_length_b                   10.1949(10)
_cell_length_c                   12.2910(12)
_cell_angle_alpha                77.528(3)
_cell_angle_beta                 85.635(4)
_cell_angle_gamma                89.070(3)
_cell_volume                     901.777
_exptl_crystal_description       block
_cell_formula_units_Z            2
loop_
_atom_site_label
_atom_site_type_symbol
_atom_site_fract_x
_atom_site_fract_y
_atom_site_fract_z
N1 N 1.0025(4) 0.8450(3) 0.7929(2)
C1 C 0.6903(4) 0.7116(3) 0.6952(2)
C2 C 1.0965(4) 0.9302(3) 0.8467(3)
C3 C 0.7449(4) 1.0528(3) 0.5008(3)
H1 H 0.7960 1.0885 0.4293
C4 C 0.6573(4) 1.1363(3) 0.5629(3)
H2 H 0.6509 1.2282 0.5336
C5 C 0.5880(4) 0.9449(3) 0.7131(3)
H3 H 0.5331 0.9091 0.7837
C6 C 0.6790(4) 0.8613(3) 0.6519(3)
C7 C 1.1987(4) 1.1577(3) 0.8342(3)
H4 H 1.2060 1.2473 0.7968
C8 C 1.1791(4) 0.8895(3) 0.9467(3)
H5 H 1.1735 0.8000 0.9844
C9 C 1.2785(4) 1.1160(3) 0.9333(3)
H6 H 1.3392 1.1780 0.9628
C10 C 0.8301(4) 0.6452(3) 0.7961(2)
C11 C 0.9311(4) 0.7373(3) 0.8492(3)
H7 H 0.9418 0.7149 0.9259
C12 C 1.1069(4) 1.0654(3) 0.7902(3)
B1 B 0.5988(5) 0.6393(3) 0.8291(3)
H8 H 0.5273 0.6965 0.8855
B2 B 0.7420(5) 0.5014(3) 0.8790(3)
H9 H 0.7617 0.4682 0.9686
C13 C 0.7567(4) 0.9156(3) 0.5452(3)
H10 H 0.8168 0.8600 0.5034
B3 B 0.8283(5) 0.4682(3) 0.6540(3)
H11 H 0.9026 0.4129 0.5971
C14 C 1.2696(4) 0.9824(4) 0.9901(3)
H12 H 1.3243 0.9553 1.0571
B4 B 0.9224(5) 0.4970(3) 0.7757(3)
H13 H 1.0586 0.4614 0.7985
B5 B 0.6843(5) 0.6065(3) 0.6042(3)
H14 H 0.6656 0.6415 0.5147
C15 C 0.5790(4) 1.0822(3) 0.6687(3)
H15 H 0.5199 1.1382 0.7105
B6 B 0.5345(5) 0.4754(4) 0.8231(3)
H16 H 0.4186 0.4243 0.8760
B7 B 0.8910(5) 0.6331(3) 0.6605(3)
H17 H 1.0063 0.6867 0.6088
B8 B 0.5873(5) 0.4540(4) 0.6841(3)
H18 H 0.5052 0.3887 0.6467
B9 B 0.7359(5) 0.3859(4) 0.7896(3)
H19 H 0.7504 0.2769 0.8204
B10 B 0.5035(5) 0.6108(4) 0.7082(3)
H20 H 0.3680 0.6487 0.6861
O1 O 1.0275(3) 1.1095(2) 0.69348(19)
H21 H 0.9679 1.0485 0.6800
loop_
_geom_bond_atom_site_label_1
_geom_bond_atom_site_label_2
_geom_bond_site_symmetry_1
_geom_bond_site_symmetry_2
N1 C2 1_555 1_555
C1 C6 1_555 1_555
C2 C8 1_555 1_555
C3 H1 1_555 1_555
C4 C3 1_555 1_555
H2 C4 1_555 1_555
C5 H3 1_555 1_555
C6 C5 1_555 1_555
C7 H4 1_555 1_555
C8 H5 1_555 1_555
C9 C7 1_555 1_555
H6 C9 1_555 1_555
C10 C1 1_555 1_555
C11 N1 1_555 1_555
H7 C11 1_555 1_555
C12 C2 1_555 1_555
B1 C1 1_555 1_555
H8 B1 1_555 1_555
B2 C10 1_555 1_555
H9 B2 1_555 1_555
C13 C3 1_555 1_555
H10 C13 1_555 1_555
B3 H11 1_555 1_555
C14 C8 1_555 1_555
H12 C14 1_555 1_555
B4 C10 1_555 1_555
H13 B4 1_555 1_555
B5 C1 1_555 1_555
H14 B5 1_555 1_555
C15 C4 1_555 1_555
H15 C15 1_555 1_555
B6 B1 1_555 1_555
H16 B6 1_555 1_555
B7 C1 1_555 1_555
H17 B7 1_555 1_555
B8 B3 1_555 1_555
H18 B8 1_555 1_555
B9 B2 1_555 1_555
H19 B9 1_555 1_555
B10 C1 1_555 1_555
H20 B10 1_555 1_555
O1 C12 1_555 1_555
H21 O1 1_555 1_555
C5 C15 1_555 1_555
C6 C13 1_555 1_555
C7 C12 1_555 1_555
C9 C14 1_555 1_555
C10 C11 1_555 1_555
C10 B1 1_555 1_555
C10 B7 1_555 1_555
B1 B2 1_555 1_555
B1 B10 1_555 1_555
B2 B4 1_555 1_555
B2 B6 1_555 1_555
B3 B4 1_555 1_555
B3 B5 1_555 1_555
B3 B7 1_555 1_555
B3 B9 1_555 1_555
B4 B7 1_555 1_555
B4 B9 1_555 1_555
B5 B7 1_555 1_555
B5 B8 1_555 1_555
B5 B10 1_555 1_555
B6 B8 1_555 1_555
B6 B9 1_555 1_555
B6 B10 1_555 1_555
B8 B9 1_555 1_555
B8 B10 1_555 1_555

#END
