
#######################################################################
#
#                 Cambridge Crystallographic Data Centre
#                                CCDC 
#
#######################################################################
#
# If this CIF has been generated from an entry in the Cambridge 
# Structural Database, then it will include bibliographic, chemical, 
# crystal, experimental, refinement or atomic coordinate data resulting 
# from the CCDC's data processing and validation procedures.
#
#######################################################################

data_SEHJAS
_chemical_formula_moiety         'C6 H10 O1,C1 H1 Br3'
_chemical_name_systematic        'Cyclohexanone bromoform'
_symmetry_cell_setting           monoclinic
_symmetry_space_group_name_H-M   'P 21/c'
_symmetry_Int_Tables_number      14
_space_group_name_Hall           '-P 2ybc'
loop_
_symmetry_equiv_pos_site_id
_symmetry_equiv_pos_as_xyz
1 x,y,z
2 -x,1/2+y,1/2-z
3 -x,-y,-z
4 x,1/2-y,1/2+z
_cell_length_a                   8.4762(9)
_cell_length_b                   15.787(2)
_cell_length_c                   8.3158(11)
_cell_angle_alpha                90
_cell_angle_beta                 97.210(10)
_cell_angle_gamma                90
_cell_volume                     1103.97
_exptl_crystal_colour            'dull white colorless'
_exptl_crystal_description       cylinder
_chemical_melting_point          '224 K'
_cell_formula_units_Z            4
loop_
_atom_site_label
_atom_site_type_symbol
_atom_site_fract_x
_atom_site_fract_y
_atom_site_fract_z
Br1 Br 0.50671(6) 0.39060(3) 0.59423(6)
Br2 Br 0.12990(6) 0.39976(3) 0.57371(6)
Br3 Br 0.29172(7) 0.28946(4) 0.32189(7)
C2 C 0.3086(6) 0.3902(3) 0.4535(6)
H1 H 0.3077 0.4393 0.3813
O1 O 0.1539(4) 0.5540(3) 0.2215(5)
C1 C 0.1580(6) 0.5742(3) 0.0802(6)
C3 C 0.2563(8) 0.5277(4) -0.0242(8)
H2 H 0.1878 0.4942 -0.1020
H3 H 0.3261 0.4891 0.0419
C4 C 0.3554(8) 0.5865(5) -0.1140(8)
H4 H 0.4389 0.6110 -0.0377
H5 H 0.4055 0.5541 -0.1928
C5 C 0.2586(7) 0.6565(4) -0.1997(6)
H6 H 0.3280 0.6948 -0.2491
H7 H 0.1829 0.6328 -0.2850
C6 C 0.1725(8) 0.7038(4) -0.0838(8)
H8 H 0.1071 0.7470 -0.1422
H9 H 0.2492 0.7321 -0.0054
C7 C 0.0676(7) 0.6471(4) 0.0057(8)
H10 H 0.0250 0.6796 0.0893
H11 H -0.0211 0.6268 -0.0695
loop_
_geom_bond_atom_site_label_1
_geom_bond_atom_site_label_2
_geom_bond_site_symmetry_1
_geom_bond_site_symmetry_2
Br1 C2 1_555 1_555
Br2 C2 1_555 1_555
Br3 C2 1_555 1_555
O1 C1 1_555 1_555
C1 C3 1_555 1_555
C2 H1 1_555 1_555
C3 H2 1_555 1_555
H3 C3 1_555 1_555
C4 C3 1_555 1_555
H4 C4 1_555 1_555
H5 C4 1_555 1_555
C5 C4 1_555 1_555
H6 C5 1_555 1_555
H7 C5 1_555 1_555
C6 C5 1_555 1_555
H8 C6 1_555 1_555
H9 C6 1_555 1_555
C7 C1 1_555 1_555
H10 C7 1_555 1_555
H11 C7 1_555 1_555
C6 C7 1_555 1_555

#END
