
#######################################################################
#
#                 Cambridge Crystallographic Data Centre
#                                CCDC 
#
#######################################################################
#
# If this CIF has been generated from an entry in the Cambridge 
# Structural Database, then it will include bibliographic, chemical, 
# crystal, experimental, refinement or atomic coordinate data resulting 
# from the CCDC's data processing and validation procedures.
#
#######################################################################

data_SEHMUQ
_chemical_formula_moiety         'C18 H23 N1 O4'
_chemical_name_systematic        
'methyl 11a-methyl-3-methylidene-6,12-dioxodecahydro-2H-2,11-methanocyclohepta[a]indolizine-6a(6H)-carboxylate'
_symmetry_cell_setting           monoclinic
_symmetry_space_group_name_H-M   'P 21/c'
_symmetry_Int_Tables_number      14
_space_group_name_Hall           '-P 2ybc'
loop_
_symmetry_equiv_pos_site_id
_symmetry_equiv_pos_as_xyz
1 x,y,z
2 -x,1/2+y,1/2-z
3 -x,-y,-z
4 x,1/2-y,1/2+z
_cell_length_a                   10.7920(11)
_cell_length_b                   10.7448(11)
_cell_length_c                   27.763(3)
_cell_angle_alpha                90
_cell_angle_beta                 98.650(2)
_cell_angle_gamma                90
_cell_volume                     3182.72
_exptl_crystal_colour            colorless
_exptl_crystal_description       prismatic
_cell_formula_units_Z            8
loop_
_atom_site_label
_atom_site_type_symbol
_atom_site_fract_x
_atom_site_fract_y
_atom_site_fract_z
N1 N 0.17461(16) 0.04893(17) 0.30799(6)
O1 O 0.38144(14) -0.00150(14) 0.32579(5)
O2 O 0.22367(17) 0.30075(16) 0.39410(6)
O3 O 0.17684(18) -0.23813(16) 0.31824(6)
O4 O 0.21594(16) -0.28697(14) 0.39700(6)
C1 C 0.1814(2) 0.1446(2) 0.27157(8)
H1 H 0.1302 0.1212 0.2412
H2 H 0.2673 0.1538 0.2657
C2 C 0.1353(2) 0.2659(2) 0.28958(8)
C3 C 0.1556(3) 0.3741(3) 0.27067(9)
H3 H 0.1218 0.4458 0.2822
H4 H 0.2039 0.3793 0.2457
C4 C 0.0586(2) 0.2480(2) 0.33008(8)
H5 H 0.0071 0.3222 0.3324
C5 C 0.1424(2) 0.2272(2) 0.37918(8)
C6 C 0.1090(2) 0.1169(2) 0.40891(8)
H6 H 0.0212 0.1335 0.4120
C7 C 0.1000(2) -0.0089(2) 0.37981(8)
C8 C 0.0563(2) 0.0226(2) 0.32581(8)
H7 H 0.0148 -0.0494 0.3087
C9 C -0.0269(2) 0.1364(2) 0.31767(9)
H8 H -0.0912 0.1339 0.3386
H9 H -0.0672 0.1405 0.2840
C10 C 0.2737(2) -0.00509(19) 0.33408(7)
C11 C 0.22911(19) -0.07342(19) 0.37681(7)
C12 C 0.3328(2) -0.0705(2) 0.42141(8)
H10 H 0.3003 -0.1079 0.4487
H11 H 0.4019 -0.1217 0.4145
C13 C 0.3834(2) 0.0580(2) 0.43664(9)
H12 H 0.4711 0.0502 0.4505
H13 H 0.3788 0.1099 0.4078
C14 C 0.3150(3) 0.1226(3) 0.47322(9)
H14 H 0.3387 0.2098 0.4747
H15 H 0.3425 0.0869 0.5051
C15 C 0.1725(2) 0.1139(2) 0.46222(8)
H16 H 0.1383 0.1819 0.4791
H17 H 0.1476 0.0373 0.4766
C16 C 0.0062(2) -0.0931(2) 0.40000(10)
H18 H -0.0710 -0.0489 0.4002
H19 H 0.0397 -0.1176 0.4326
H20 H -0.0090 -0.1658 0.3799
C17 C 0.2046(2) -0.2074(2) 0.35995(9)
C18 C 0.1879(3) -0.4154(2) 0.38451(11)
H21 H 0.1030 -0.4219 0.3684
H22 H 0.1980 -0.4648 0.4136
H23 H 0.2439 -0.4448 0.3632
N2 N 0.32179(15) 0.94986(17) 0.17567(6)
O5 O 0.11447(13) 1.00134(14) 0.16145(5)
O6 O 0.26714(19) 0.66412(19) 0.10935(7)
O7 O 0.2445(2) 1.25279(19) 0.07061(8)
O8 O 0.32381(17) 1.22018(16) 0.14753(7)
C19 C 0.3224(2) 0.8715(2) 0.21844(8)
H24 H 0.2379 0.8630 0.2259
H25 H 0.3740 0.9091 0.2463
C20 C 0.3741(2) 0.7451(2) 0.20820(8)
C21 C 0.3670(3) 0.6489(3) 0.23668(10)
H26 H 0.4042 0.5739 0.2302
H27 H 0.3246 0.6555 0.2634
C22 C 0.4400(2) 0.7444(2) 0.16420(9)
H28 H 0.4931 0.6702 0.1653
C23 C 0.3472(2) 0.7431(2) 0.11685(9)
C24 C 0.3719(2) 0.8388(2) 0.07916(8)
H29 H 0.4586 0.8205 0.0749
C25 C 0.3814(2) 0.9758(2) 0.09887(8)
C26 C 0.4356(2) 0.9682(2) 0.15335(8)
H30 H 0.4770 1.0464 0.1645
C27 C 0.5223(2) 0.8590(3) 0.16655(10)
H31 H 0.5684 0.8694 0.1991
H32 H 0.5817 0.8519 0.1437
C28 C 0.21836(19) 0.99675(19) 0.14953(7)
C29 C 0.25222(19) 1.0425(2) 0.10069(8)
C30 C 0.1425(2) 1.0182(3) 0.05970(9)
H33 H 0.0736 1.0724 0.0647
H34 H 0.1685 1.0416 0.0290
C31 C 0.0943(2) 0.8862(3) 0.05526(9)
H35 H 0.1057 0.8487 0.0874
H36 H 0.0050 0.8881 0.0434
C32 C 0.1572(3) 0.8048(3) 0.02176(9)
H37 H 0.1230 0.8249 -0.0117
H38 H 0.1365 0.7186 0.0273
C33 C 0.3000(3) 0.8175(3) 0.02796(9)
H39 H 0.3193 0.8861 0.0076
H40 H 0.3329 0.7425 0.0151
C34 C 0.4663(2) 1.0502(3) 0.07001(10)
H41 H 0.4845 1.1297 0.0852
H42 H 0.4246 1.0621 0.0373
H43 H 0.5430 1.0054 0.0694
C35 C 0.2723(2) 1.1824(2) 0.10359(10)
C36 C 0.3548(3) 1.3504(3) 0.15322(14)
H44 H 0.3826 1.3807 0.1241
H45 H 0.4205 1.3610 0.1803
H46 H 0.2821 1.3962 0.1590
loop_
_geom_bond_atom_site_label_1
_geom_bond_atom_site_label_2
_geom_bond_site_symmetry_1
_geom_bond_site_symmetry_2
N1 C1 1_555 1_555
O1 C10 1_555 1_555
O2 C5 1_555 1_555
O3 C17 1_555 1_555
O4 C17 1_555 1_555
C1 H1 1_555 1_555
H2 C1 1_555 1_555
C2 C1 1_555 1_555
C3 C2 1_555 1_555
H3 C3 1_555 1_555
H4 C3 1_555 1_555
C4 C2 1_555 1_555
H5 C4 1_555 1_555
C5 C4 1_555 1_555
C6 C5 1_555 1_555
H6 C6 1_555 1_555
C7 C6 1_555 1_555
C8 N1 1_555 1_555
H7 C8 1_555 1_555
C9 C4 1_555 1_555
H8 C9 1_555 1_555
H9 C9 1_555 1_555
C10 N1 1_555 1_555
C11 C7 1_555 1_555
C12 C11 1_555 1_555
H10 C12 1_555 1_555
H11 C12 1_555 1_555
C13 C12 1_555 1_555
H12 C13 1_555 1_555
H13 C13 1_555 1_555
C14 C13 1_555 1_555
H14 C14 1_555 1_555
H15 C14 1_555 1_555
C15 C6 1_555 1_555
H16 C15 1_555 1_555
H17 C15 1_555 1_555
C16 C7 1_555 1_555
H18 C16 1_555 1_555
H19 C16 1_555 1_555
H20 C16 1_555 1_555
C17 C11 1_555 1_555
C18 O4 1_555 1_555
H21 C18 1_555 1_555
H22 C18 1_555 1_555
H23 C18 1_555 1_555
N2 C19 1_555 1_555
O5 C28 1_555 1_555
O6 C23 1_555 1_555
O7 C35 1_555 1_555
O8 C35 1_555 1_555
C19 H24 1_555 1_555
H25 C19 1_555 1_555
C20 C19 1_555 1_555
C21 C20 1_555 1_555
H26 C21 1_555 1_555
H27 C21 1_555 1_555
C22 C20 1_555 1_555
H28 C22 1_555 1_555
C23 C22 1_555 1_555
C24 C23 1_555 1_555
H29 C24 1_555 1_555
C25 C24 1_555 1_555
C26 N2 1_555 1_555
H30 C26 1_555 1_555
C27 C22 1_555 1_555
H31 C27 1_555 1_555
H32 C27 1_555 1_555
C28 N2 1_555 1_555
C29 C25 1_555 1_555
C30 C29 1_555 1_555
H33 C30 1_555 1_555
H34 C30 1_555 1_555
C31 C30 1_555 1_555
H35 C31 1_555 1_555
H36 C31 1_555 1_555
C32 C31 1_555 1_555
H37 C32 1_555 1_555
H38 C32 1_555 1_555
C33 C24 1_555 1_555
H39 C33 1_555 1_555
H40 C33 1_555 1_555
C34 C25 1_555 1_555
H41 C34 1_555 1_555
H42 C34 1_555 1_555
H43 C34 1_555 1_555
C35 C29 1_555 1_555
C36 O8 1_555 1_555
H44 C36 1_555 1_555
H45 C36 1_555 1_555
H46 C36 1_555 1_555
C7 C8 1_555 1_555
C8 C9 1_555 1_555
C10 C11 1_555 1_555
C14 C15 1_555 1_555
C25 C26 1_555 1_555
C26 C27 1_555 1_555
C28 C29 1_555 1_555
C32 C33 1_555 1_555

#END
