
#######################################################################
#
#                 Cambridge Crystallographic Data Centre
#                                CCDC 
#
#######################################################################
#
# If this CIF has been generated from an entry in the Cambridge 
# Structural Database, then it will include bibliographic, chemical, 
# crystal, experimental, refinement or atomic coordinate data resulting 
# from the CCDC's data processing and validation procedures.
#
#######################################################################

data_SEHNEB
_chemical_formula_moiety         'C21 H25 N1 O3'
_chemical_name_systematic        
8,10b-dimethyl-4,4a,7,8,9,10,10a,10b,11,12,12a,12b-dodecahydro-1H-9,10c-methanocyclopenta[1,8]azuleno[4,5-a]indolizine-1,5,13(3H)-trione
_symmetry_cell_setting           orthorhombic
_symmetry_space_group_name_H-M   'P b c a'
_symmetry_Int_Tables_number      61
_space_group_name_Hall           '-P 2ac 2ab'
loop_
_symmetry_equiv_pos_site_id
_symmetry_equiv_pos_as_xyz
1 x,y,z
2 1/2-x,-y,1/2+z
3 -x,1/2+y,1/2-z
4 1/2+x,1/2-y,-z
5 -x,-y,-z
6 1/2+x,y,1/2-z
7 x,1/2-y,1/2+z
8 1/2-x,1/2+y,z
_cell_length_a                   13.9532(9)
_cell_length_b                   12.0587(7)
_cell_length_c                   20.2467(12)
_cell_angle_alpha                90
_cell_angle_beta                 90
_cell_angle_gamma                90
_cell_volume                     3406.66
_exptl_crystal_colour            colorless
_exptl_crystal_description       block
_cell_formula_units_Z            8
loop_
_atom_site_label
_atom_site_type_symbol
_atom_site_fract_x
_atom_site_fract_y
_atom_site_fract_z
O1 O 0.59409(9) 0.64168(9) 0.45729(6)
C1 C 0.59042(11) 0.54290(12) 0.44395(8)
N1 N 0.63538(10) 0.46177(10) 0.47667(6)
O2 O 0.66972(13) 0.28636(17) 0.11625(7)
C2 C 0.58476(10) 0.37552(10) 0.37698(6)
O3 O 0.81002(8) 0.50054(8) 0.35077(5)
C3 C 0.51866(13) 0.57277(13) 0.33200(9)
H1 H 0.4696 0.6251 0.3454
H2 H 0.5774 0.6142 0.3249
C4 C 0.67567(9) 0.37968(9) 0.33049(6)
C5 C 0.61650(12) 0.35112(11) 0.44927(6)
H3 H 0.5644 0.3150 0.4736
C6 C 0.76170(10) 0.42354(10) 0.37012(6)
C7 C 0.70825(13) 0.28447(11) 0.45584(7)
H4 H 0.7059 0.2189 0.4281
H5 H 0.7180 0.2616 0.5013
C8 C 0.78837(11) 0.36200(11) 0.43345(7)
H6 H 0.8463 0.3181 0.4253
C9 C 0.80941(13) 0.44677(13) 0.48955(8)
H7 H 0.8368 0.5138 0.4698
C10 C 0.71415(14) 0.47764(15) 0.52287(8)
H8 H 0.7044 0.4315 0.5615
H9 H 0.7161 0.5544 0.5371
C11 C 0.8810(2) 0.40040(18) 0.53922(10)
H10 H 0.9406 0.3852 0.5174
H11 H 0.8561 0.3331 0.5579
H12 H 0.8913 0.4537 0.5737
C12 C 0.51315(12) 0.28651(12) 0.35508(8)
H13 H 0.4996 0.2953 0.3089
H14 H 0.4549 0.2941 0.3799
H15 H 0.5401 0.2144 0.3627
C13 C 0.53484(11) 0.49027(10) 0.38804(7)
H16 H 0.4712 0.4736 0.4059
C14 C 0.48872(14) 0.52035(15) 0.26724(9)
H17 H 0.4337 0.4730 0.2750
H18 H 0.4692 0.5784 0.2369
C15 C 0.56622(11) 0.45332(14) 0.23571(8)
C16 C 0.66565(10) 0.44912(11) 0.26512(7)
H19 H 0.6903 0.5244 0.2718
C17 C 0.72547(12) 0.38845(13) 0.21253(7)
H20 H 0.7716 0.4390 0.1919
C18 C 0.65161(15) 0.34840(18) 0.16216(8)
C19 C 0.56024(13) 0.39661(18) 0.17920(8)
H21 H 0.5047 0.3892 0.1542
C20 C 0.77660(13) 0.29341(13) 0.24662(8)
H22 H 0.8386 0.3164 0.2635
H23 H 0.7853 0.2310 0.2170
C21 C 0.70823(12) 0.26483(11) 0.30248(7)
H24 H 0.7404 0.2215 0.3362
H25 H 0.6537 0.2231 0.2861
loop_
_geom_bond_atom_site_label_1
_geom_bond_atom_site_label_2
_geom_bond_site_symmetry_1
_geom_bond_site_symmetry_2
O1 C1 1_555 1_555
C1 N1 1_555 1_555
N1 C5 1_555 1_555
O2 C18 1_555 1_555
C2 C4 1_555 1_555
O3 C6 1_555 1_555
C3 H1 1_555 1_555
H2 C3 1_555 1_555
C4 C6 1_555 1_555
C5 C2 1_555 1_555
H3 C5 1_555 1_555
C6 C8 1_555 1_555
C7 C5 1_555 1_555
H4 C7 1_555 1_555
H5 C7 1_555 1_555
C8 C7 1_555 1_555
H6 C8 1_555 1_555
C9 C8 1_555 1_555
H7 C9 1_555 1_555
C10 N1 1_555 1_555
H8 C10 1_555 1_555
H9 C10 1_555 1_555
C11 C9 1_555 1_555
H10 C11 1_555 1_555
H11 C11 1_555 1_555
H12 C11 1_555 1_555
C12 C2 1_555 1_555
H13 C12 1_555 1_555
H14 C12 1_555 1_555
H15 C12 1_555 1_555
C13 C1 1_555 1_555
H16 C13 1_555 1_555
C14 C3 1_555 1_555
H17 C14 1_555 1_555
H18 C14 1_555 1_555
C15 C14 1_555 1_555
C16 C4 1_555 1_555
H19 C16 1_555 1_555
C17 C16 1_555 1_555
H20 C17 1_555 1_555
C18 C17 1_555 1_555
C19 C15 1_555 1_555
H21 C19 1_555 1_555
C20 C17 1_555 1_555
H22 C20 1_555 1_555
H23 C20 1_555 1_555
C21 C4 1_555 1_555
H24 C21 1_555 1_555
H25 C21 1_555 1_555
C2 C13 1_555 1_555
C3 C13 1_555 1_555
C9 C10 1_555 1_555
C15 C16 1_555 1_555
C18 C19 1_555 1_555
C20 C21 1_555 1_555

#END
