
#######################################################################
#
#                 Cambridge Crystallographic Data Centre
#                                CCDC 
#
#######################################################################
#
# If this CIF has been generated from an entry in the Cambridge 
# Structural Database, then it will include bibliographic, chemical, 
# crystal, experimental, refinement or atomic coordinate data resulting 
# from the CCDC's data processing and validation procedures.
#
#######################################################################

data_SEHWEI
_chemical_formula_moiety         'C24 H18 B1 N1 O3,C1 H1 Cl3'
_chemical_name_systematic        
'(2-Methoxyphenyl)(2,6-bis(2-hydroxyphenyl)pyridyl)boron chloroform solvate'
_symmetry_cell_setting           triclinic
_symmetry_space_group_name_H-M   'P -1'
_symmetry_Int_Tables_number      2
_space_group_name_Hall           '-P 1'
loop_
_symmetry_equiv_pos_site_id
_symmetry_equiv_pos_as_xyz
1 x,y,z
2 -x,-y,-z
_cell_length_a                   9.3095(19)
_cell_length_b                   11.609(2)
_cell_length_c                   12.000(2)
_cell_angle_alpha                65.96(3)
_cell_angle_beta                 74.95(3)
_cell_angle_gamma                75.20(3)
_cell_volume                     1127.18
_exptl_crystal_colour            yellow
_exptl_crystal_description       block
_cell_formula_units_Z            2
_chemical_properties_physical    light-sensitive
_exptl_crystal_recrystallization_method 'diethyl ether/chloroform'
_exptl_crystal_preparation       luminescent
loop_
_atom_site_label
_atom_site_type_symbol
_atom_site_fract_x
_atom_site_fract_y
_atom_site_fract_z
B1 B 0.2233(3) 0.6626(2) 0.2574(2)
O1 O 0.11426(18) 0.63420(16) 0.21032(15)
O2 O 0.15678(17) 0.78722(14) 0.27069(15)
O3 O 0.4439(2) 0.44322(16) 0.23170(17)
N1 N 0.23203(19) 0.56258(16) 0.39627(16)
C1 C 0.0849(2) 0.5154(2) 0.2473(2)
C2 C 0.0131(3) 0.4907(3) 0.1733(3)
H1 H -0.0106 0.5549 0.0997
C3 C -0.0230(3) 0.3719(3) 0.2083(3)
H2 H -0.0708 0.3561 0.1581
C4 C 0.0107(3) 0.2765(3) 0.3166(3)
H3 H -0.0136 0.1961 0.3395
C5 C 0.0807(3) 0.3000(2) 0.3913(3)
H4 H 0.1026 0.2349 0.4649
C6 C 0.1192(2) 0.4193(2) 0.3588(2)
C7 C 0.1875(2) 0.4471(2) 0.4395(2)
C8 C 0.2067(3) 0.3619(2) 0.5589(2)
H5 H 0.1758 0.2828 0.5901
C9 C 0.2704(3) 0.3944(3) 0.6297(2)
H6 H 0.2871 0.3361 0.7077
C10 C 0.3098(3) 0.5128(2) 0.5863(2)
H7 H 0.3510 0.5358 0.6354
C11 C 0.2882(2) 0.5986(2) 0.4685(2)
C12 C 0.3117(3) 0.7313(2) 0.4212(2)
C13 C 0.3978(3) 0.7717(3) 0.4728(3)
H8 H 0.4521 0.7116 0.5332
C14 C 0.4035(4) 0.8991(3) 0.4357(3)
H9 H 0.4633 0.9248 0.4696
C15 C 0.3211(4) 0.9888(3) 0.3487(3)
H10 H 0.3235 1.0752 0.3256
C16 C 0.2355(3) 0.9527(3) 0.2954(3)
H11 H 0.1785 1.0143 0.2378
C17 C 0.2344(3) 0.8234(2) 0.3279(2)
C18 C 0.3882(3) 0.6668(2) 0.1705(2)
C19 C 0.4342(3) 0.7834(2) 0.0946(2)
H12 H 0.3701 0.8580 0.0990
C20 C 0.5694(3) 0.7944(3) 0.0132(3)
H13 H 0.5952 0.8747 -0.0355
C21 C 0.6645(3) 0.6872(3) 0.0046(3)
H14 H 0.7564 0.6939 -0.0495
C22 C 0.6256(3) 0.5679(3) 0.0758(3)
H15 H 0.6905 0.4947 0.0688
C23 C 0.4894(3) 0.5580(2) 0.1577(2)
C24 C 0.5281(4) 0.3306(3) 0.2117(3)
H16 H 0.4832 0.2580 0.2700
H17 H 0.6301 0.3191 0.2226
H18 H 0.5279 0.3385 0.1289
C25 C -0.1331(3) -0.0063(3) 0.1789(3)
H19 H -0.0392 -0.0686 0.1829
Cl1 Cl -0.26933(11) -0.06581(8) 0.15164(9)
Cl2 Cl -0.19330(10) 0.01712(8) 0.32088(7)
Cl3 Cl -0.09892(11) 0.13824(8) 0.05790(8)
loop_
_geom_bond_atom_site_label_1
_geom_bond_atom_site_label_2
_geom_bond_site_symmetry_1
_geom_bond_site_symmetry_2
B1 O1 1_555 1_555
O1 C1 1_555 1_555
O2 B1 1_555 1_555
O3 C23 1_555 1_555
N1 B1 1_555 1_555
C1 C2 1_555 1_555
C2 H1 1_555 1_555
C3 C2 1_555 1_555
H2 C3 1_555 1_555
C4 C3 1_555 1_555
H3 C4 1_555 1_555
C5 C4 1_555 1_555
H4 C5 1_555 1_555
C6 C1 1_555 1_555
C7 N1 1_555 1_555
C8 C7 1_555 1_555
H5 C8 1_555 1_555
C9 C8 1_555 1_555
H6 C9 1_555 1_555
C10 C9 1_555 1_555
H7 C10 1_555 1_555
C11 N1 1_555 1_555
C12 C11 1_555 1_555
C13 C12 1_555 1_555
H8 C13 1_555 1_555
C14 C13 1_555 1_555
H9 C14 1_555 1_555
C15 C14 1_555 1_555
H10 C15 1_555 1_555
C16 C15 1_555 1_555
H11 C16 1_555 1_555
C17 O2 1_555 1_555
C18 B1 1_555 1_555
C19 C18 1_555 1_555
H12 C19 1_555 1_555
C20 C19 1_555 1_555
H13 C20 1_555 1_555
C21 C20 1_555 1_555
H14 C21 1_555 1_555
C22 C21 1_555 1_555
H15 C22 1_555 1_555
C23 C18 1_555 1_555
C24 O3 1_555 1_555
H16 C24 1_555 1_555
H17 C24 1_555 1_555
H18 C24 1_555 1_555
C25 H19 1_555 1_555
Cl1 C25 1_555 1_555
Cl2 C25 1_555 1_555
Cl3 C25 1_555 1_555
C5 C6 1_555 1_555
C6 C7 1_555 1_555
C10 C11 1_555 1_555
C12 C17 1_555 1_555
C16 C17 1_555 1_555
C22 C23 1_555 1_555

#END
