
#######################################################################
#
#                 Cambridge Crystallographic Data Centre
#                                CCDC 
#
#######################################################################
#
# If this CIF has been generated from an entry in the Cambridge 
# Structural Database, then it will include bibliographic, chemical, 
# crystal, experimental, refinement or atomic coordinate data resulting 
# from the CCDC's data processing and validation procedures.
#
#######################################################################

data_SEJBIT
_chemical_formula_moiety         'C14 H17 F3 O5'
_chemical_name_systematic        
'(3R,2S)-3-(Benzyloxymethyl)-4,4,4-trifluoro-2,3-dihydroxybutyric acid ethyl ester'
_symmetry_cell_setting           monoclinic
_symmetry_space_group_name_H-M   'P 21'
_symmetry_Int_Tables_number      4
_space_group_name_Hall           'P 2yb'
loop_
_symmetry_equiv_pos_site_id
_symmetry_equiv_pos_as_xyz
1 x,y,z
2 -x,1/2+y,-z
_cell_length_a                   11.587(3)
_cell_length_b                   5.6641(12)
_cell_length_c                   11.939(2)
_cell_angle_alpha                90
_cell_angle_beta                 96.922(4)
_cell_angle_gamma                90
_cell_volume                     777.844
_exptl_crystal_colour            colorless
_chemical_melting_point          '63.5-64.5 deg.C'
_cell_formula_units_Z            2
loop_
_atom_site_label
_atom_site_type_symbol
_atom_site_fract_x
_atom_site_fract_y
_atom_site_fract_z
O1 O 0.2815(3) 0.9346(7) 0.1769(3)
O2 O 0.4192(3) 1.3300(7) 0.2614(3)
H1 H 0.3531 1.3150 0.2785
O3 O 0.5499(3) 0.7500(7) 0.3242(4)
H2 H 0.5085 0.6334 0.3281
O4 O 0.3176(3) 1.0786(7) 0.4199(3)
O5 O 0.3497(4) 0.6872(8) 0.4118(3)
F1 F 0.6257(3) 0.9951(8) 0.1414(4)
F2 F 0.5689(3) 1.3469(8) 0.1237(4)
F3 F 0.6607(3) 1.2367(8) 0.2784(4)
C1 C 0.3919(4) 0.9816(12) 0.1417(4)
H3 H 0.3833 1.0801 0.0748
H4 H 0.4293 0.8353 0.1242
C2 C 0.4635(4) 1.1068(9) 0.2372(4)
C3 C 0.4863(4) 0.9551(10) 0.3440(5)
H5 H 0.5345 1.0489 0.4006
C4 C 0.3745(5) 0.8884(12) 0.3949(4)
C5 C 0.5838(6) 1.1700(16) 0.1968(6)
C6 C 0.2043(7) 1.0463(15) 0.4639(7)
H6 H 0.1491 0.9765 0.4058
H7 H 0.2139 0.9390 0.5277
C7 C 0.1612(7) 1.2611(17) 0.4974(7)
H8 H 0.2081 1.3158 0.5642
H9 H 0.0824 1.2407 0.5131
H10 H 0.1632 1.3749 0.4381
C8 C 0.2196(5) 0.7671(12) 0.1030(5)
H11 H 0.2616 0.6187 0.1059
H12 H 0.2121 0.8251 0.0260
C9 C 0.1003(4) 0.7302(11) 0.1398(4)
C10 C 0.0145(5) 0.8878(13) 0.1142(6)
H13 H 0.0296 1.0215 0.0732
C11 C -0.0937(6) 0.8595(18) 0.1461(7)
H14 H -0.1499 0.9764 0.1316
C12 C -0.1173(6) 0.6583(15) 0.1989(6)
H15 H -0.1921 0.6302 0.2165
C13 C -0.0346(8) 0.5010(15) 0.2259(6)
H16 H -0.0510 0.3678 0.2667
C14 C 0.0769(6) 0.5295(13) 0.1948(6)
H17 H 0.1335 0.4141 0.2113
loop_
_geom_bond_atom_site_label_1
_geom_bond_atom_site_label_2
_geom_bond_site_symmetry_1
_geom_bond_site_symmetry_2
O1 C1 1_555 1_555
O2 H1 1_555 1_555
O3 H2 1_555 1_555
O4 C4 1_555 1_555
O5 C4 1_555 1_555
F1 C5 1_555 1_555
F2 C5 1_555 1_555
F3 C5 1_555 1_555
C1 H3 1_555 1_555
H4 C1 1_555 1_555
C2 O2 1_555 1_555
C3 O3 1_555 1_555
H5 C3 1_555 1_555
C4 C3 1_555 1_555
C5 C2 1_555 1_555
C6 O4 1_555 1_555
H6 C6 1_555 1_555
H7 C6 1_555 1_555
C7 C6 1_555 1_555
H8 C7 1_555 1_555
H9 C7 1_555 1_555
H10 C7 1_555 1_555
C8 O1 1_555 1_555
H11 C8 1_555 1_555
H12 C8 1_555 1_555
C9 C8 1_555 1_555
C10 C9 1_555 1_555
H13 C10 1_555 1_555
C11 C10 1_555 1_555
H14 C11 1_555 1_555
C12 C11 1_555 1_555
H15 C12 1_555 1_555
C13 C12 1_555 1_555
H16 C13 1_555 1_555
C14 C9 1_555 1_555
H17 C14 1_555 1_555
C1 C2 1_555 1_555
C2 C3 1_555 1_555
C13 C14 1_555 1_555

#END
