
#######################################################################
#
#                 Cambridge Crystallographic Data Centre
#                                CCDC 
#
#######################################################################
#
# If this CIF has been generated from an entry in the Cambridge 
# Structural Database, then it will include bibliographic, chemical, 
# crystal, experimental, refinement or atomic coordinate data resulting 
# from the CCDC's data processing and validation procedures.
#
#######################################################################

data_SEJFIY
_chemical_formula_moiety         'C29 H22'
_chemical_name_systematic        
4-(3,4-Diphenylcyclopenta-1,3-dien-1-yl)biphenyl
_symmetry_cell_setting           triclinic
_symmetry_space_group_name_H-M   'P 1'
_symmetry_Int_Tables_number      1
_space_group_name_Hall           'P 1'
loop_
_symmetry_equiv_pos_site_id
_symmetry_equiv_pos_as_xyz
1 x,y,z
_cell_length_a                   8.3555(5)
_cell_length_b                   11.4727(6)
_cell_length_c                   21.3695(12)
_cell_angle_alpha                92.113(4)
_cell_angle_beta                 97.850(4)
_cell_angle_gamma                91.027(4)
_cell_volume                     2027.36
_exptl_crystal_colour            yellow
_exptl_crystal_description       block
_cell_formula_units_Z            4
loop_
_atom_site_label
_atom_site_type_symbol
_atom_site_fract_x
_atom_site_fract_y
_atom_site_fract_z
C1 C 0.9443(4) 0.1146(3) 0.95798(17)
C2 C 0.9449(4) 0.2323(3) 0.95411(17)
C3 C 0.9741(5) 0.2620(4) 0.88978(18)
H1 H 0.9832 0.3372 0.8756
C4 C 0.9856(5) 0.1616(3) 0.85454(19)
C5 C 0.9662(5) 0.0626(3) 0.89446(18)
H2 H 1.0611 0.0145 0.8976
H3 H 0.8725 0.0148 0.8771
C6 C 0.9394(4) 0.0404(3) 1.01249(18)
C7 C 0.8643(5) -0.0694(4) 1.0056(2)
H4 H 0.8152 -0.0959 0.9659
C8 C 0.8609(5) -0.1395(4) 1.0561(2)
H5 H 0.8091 -0.2122 1.0501
C9 C 0.9336(5) -0.1029(4) 1.1155(2)
H6 H 0.9298 -0.1501 1.1498
C10 C 1.0120(5) 0.0044(4) 1.12351(19)
H7 H 1.0625 0.0295 1.1633
C11 C 1.0161(4) 0.0747(3) 1.07286(17)
H8 H 1.0709 0.1464 1.0789
C12 C 0.9212(4) 0.3243(3) 1.00198(18)
C13 C 0.8231(5) 0.3073(3) 1.04891(19)
H9 H 0.7683 0.2363 1.0500
C14 C 0.8063(5) 0.3936(4) 1.0934(2)
H10 H 0.7449 0.3791 1.1255
C15 C 0.8799(6) 0.5022(4) 1.0910(2)
H11 H 0.8678 0.5608 1.1211
C16 C 0.9712(5) 0.5219(4) 1.0434(2)
H12 H 1.0198 0.5948 1.0408
C17 C 0.9909(5) 0.4346(4) 0.9997(2)
H13 H 1.0527 0.4496 0.9678
C18 C 1.0132(5) 0.1530(3) 0.78845(19)
C19 C 0.9645(5) 0.0558(3) 0.74871(16)
H14 H 0.9137 -0.0071 0.7648
C20 C 0.9897(4) 0.0503(3) 0.68583(16)
H15 H 0.9550 -0.0155 0.6606
C21 C 1.0666(5) 0.1425(3) 0.66000(17)
C22 C 1.1120(5) 0.2389(3) 0.69869(18)
H16 H 1.1616 0.3022 0.6826
C23 C 1.0856(5) 0.2438(3) 0.76110(18)
H17 H 1.1178 0.3108 0.7857
C24 C 1.0942(5) 0.1377(3) 0.59263(18)
C25 C 0.9944(4) 0.0691(3) 0.54705(15)
H18 H 0.9105 0.0245 0.5591
C26 C 1.0191(5) 0.0670(3) 0.48422(17)
H19 H 0.9514 0.0215 0.4544
C27 C 1.1434(6) 0.1318(4) 0.4656(2)
H20 H 1.1598 0.1300 0.4234
C28 C 1.2424(5) 0.1988(3) 0.50947(18)
H21 H 1.3266 0.2426 0.4972
C29 C 1.2171(5) 0.2013(3) 0.57252(17)
H22 H 1.2853 0.2474 0.6019
C30 C 0.2016(4) 0.5560(3) 0.40025(17)
C31 C 0.2149(4) 0.6738(3) 0.40267(17)
C32 C 0.1854(5) 0.7172(4) 0.46582(19)
H23 H 0.1881 0.7952 0.4794
C33 C 0.1533(4) 0.6237(4) 0.50172(19)
C34 C 0.1622(5) 0.5163(3) 0.46267(18)
H24 H 0.0598 0.4735 0.4572
H25 H 0.2458 0.4664 0.4821
C35 C 0.2134(4) 0.4710(3) 0.34752(18)
C36 C 0.2878(4) 0.3640(3) 0.3591(2)
H26 H 0.3321 0.3481 0.4001
C37 C 0.2970(5) 0.2814(4) 0.3110(2)
H27 H 0.3467 0.2110 0.3200
C38 C 0.2332(5) 0.3032(4) 0.2506(2)
H28 H 0.2395 0.2479 0.2181
C39 C 0.1593(5) 0.4076(4) 0.23803(19)
H29 H 0.1161 0.4227 0.1967
C40 C 0.1481(5) 0.4903(4) 0.28562(19)
H30 H 0.0962 0.5598 0.2761
C41 C 0.2483(4) 0.7550(3) 0.35361(17)
C42 C 0.3536(5) 0.7305(3) 0.31149(18)
H31 H 0.4080 0.6605 0.3137
C43 C 0.3809(5) 0.8076(4) 0.2657(2)
H32 H 0.4518 0.7885 0.2371
C44 C 0.3042(5) 0.9117(4) 0.2622(2)
H33 H 0.3217 0.9628 0.2309
C45 C 0.2014(5) 0.9412(4) 0.3047(2)
H34 H 0.1517 1.0131 0.3035
C46 C 0.1731(5) 0.8618(3) 0.34942(19)
H35 H 0.1012 0.8807 0.3776
C47 C 0.1205(5) 0.6297(3) 0.56746(18)
C48 C 0.0415(4) 0.5395(3) 0.59345(16)
H36 H 0.0112 0.4720 0.5689
C49 C 0.0067(4) 0.5478(3) 0.65535(15)
H37 H -0.0464 0.4859 0.6713
C50 C 0.0501(5) 0.6473(3) 0.69398(17)
C51 C 0.1277(5) 0.7367(3) 0.66786(17)
H38 H 0.1578 0.8044 0.6922
C52 C 0.1619(5) 0.7280(3) 0.60615(17)
H39 H 0.2144 0.7902 0.5903
C53 C 0.0125(5) 0.6559(3) 0.76012(18)
C54 C -0.1044(4) 0.5843(3) 0.78099(16)
H40 H -0.1608 0.5292 0.7529
C55 C -0.1383(5) 0.5935(3) 0.84246(17)
H41 H -0.2168 0.5448 0.8552
C56 C -0.0562(5) 0.6746(4) 0.8851(2)
H42 H -0.0782 0.6801 0.9266
C57 C 0.0577(5) 0.7464(3) 0.86551(18)
H43 H 0.1133 0.8015 0.8938
C58 C 0.0906(4) 0.7378(3) 0.80391(17)
H44 H 0.1675 0.7883 0.7914
C59 C 0.7173(4) 0.3167(3) 0.40773(17)
C60 C 0.7035(4) 0.4337(3) 0.40225(17)
C61 C 0.6637(5) 0.4857(3) 0.46400(17)
H45 H 0.7461 0.5426 0.4819
H46 H 0.5602 0.5236 0.4578
C62 C 0.6580(5) 0.3875(3) 0.50569(18)
C63 C 0.6910(5) 0.2873(4) 0.47138(18)
H47 H 0.6955 0.2125 0.4868
C64 C 0.7481(5) 0.2260(3) 0.35968(18)
C65 C 0.6760(5) 0.1156(4) 0.35946(19)
H48 H 0.6107 0.0998 0.3902
C66 C 0.6983(5) 0.0287(4) 0.3150(2)
H49 H 0.6509 -0.0449 0.3167
C67 C 0.7908(6) 0.0520(4) 0.2687(2)
H50 H 0.8042 -0.0050 0.2378
C68 C 0.8634(5) 0.1596(4) 0.2679(2)
H51 H 0.9264 0.1752 0.2364
C69 C 0.8447(5) 0.2454(3) 0.31323(18)
H52 H 0.8977 0.3172 0.3125
C70 C 0.7130(4) 0.5079(3) 0.34725(17)
C71 C 0.6400(4) 0.4721(3) 0.28714(16)
H53 H 0.5849 0.4006 0.2810
C72 C 0.6488(5) 0.5421(4) 0.23633(18)
H54 H 0.5995 0.5172 0.1963
C73 C 0.7291(5) 0.6474(4) 0.2444(2)
H55 H 0.7365 0.6930 0.2098
C74 C 0.7994(5) 0.6862(4) 0.3038(2)
H56 H 0.8518 0.7587 0.3096
C75 C 0.7912(5) 0.6157(3) 0.35503(19)
H57 H 0.8392 0.6416 0.3951
C76 C 0.6225(4) 0.3939(3) 0.57111(18)
C77 C 0.6617(4) 0.3039(3) 0.61207(17)
H58 H 0.7139 0.2391 0.5980
C78 C 0.6249(4) 0.3090(3) 0.67295(17)
H59 H 0.6533 0.2475 0.6990
C79 C 0.5461(4) 0.4036(3) 0.69669(16)
C80 C 0.5032(4) 0.4920(3) 0.65496(15)
H60 H 0.4470 0.5553 0.6685
C81 C 0.5419(4) 0.4882(3) 0.59415(15)
H61 H 0.5136 0.5497 0.5680
C82 C 0.5077(5) 0.4099(3) 0.76259(17)
C83 C 0.5831(4) 0.3390(3) 0.80881(16)
H62 H 0.6578 0.2855 0.7978
C84 C 0.5502(5) 0.3458(3) 0.87038(18)
H63 H 0.6033 0.2975 0.9001
C85 C 0.4405(5) 0.4229(3) 0.88804(19)
H64 H 0.4200 0.4287 0.9297
C86 C 0.3599(5) 0.4926(3) 0.84265(17)
H65 H 0.2829 0.5440 0.8538
C87 C 0.3930(4) 0.4860(3) 0.78161(16)
H66 H 0.3378 0.5335 0.7520
C88 C 0.4467(4) 0.8706(3) 0.95764(18)
C89 C 0.4453(4) 0.9900(3) 0.95831(18)
C90 C 0.4690(5) 1.0279(3) 0.89410(17)
H67 H 0.3758 1.0696 0.8752
H68 H 0.5641 1.0785 0.8964
C91 C 0.4893(5) 0.9201(3) 0.85701(19)
C92 C 0.4776(5) 0.8275(4) 0.89512(18)
H69 H 0.4877 0.7495 0.8831
C93 C 0.4174(4) 0.7899(3) 1.00719(18)
C94 C 0.4909(5) 0.6811(4) 1.0100(2)
H70 H 0.5586 0.6603 0.9805
C95 C 0.4642(6) 0.6040(4) 1.0562(2)
H71 H 0.5165 0.5331 1.0581
C96 C 0.3609(5) 0.6315(4) 1.0994(2)
H72 H 0.3424 0.5792 1.1300
C97 C 0.2856(5) 0.7373(4) 1.0966(2)
H73 H 0.2170 0.7567 1.1260
C98 C 0.3101(5) 0.8151(4) 1.05092(18)
H74 H 0.2551 0.8849 1.0490
C99 C 0.4371(4) 1.0767(3) 1.01053(17)
C100 C 0.5076(5) 1.0581(3) 1.07252(18)
H75 H 0.5584 0.9881 1.0817
C101 C 0.5031(5) 1.1422(4) 1.12047(19)
H76 H 0.5494 1.1283 1.1615
C102 C 0.4288(5) 1.2471(4) 1.1067(2)
H77 H 0.4252 1.3041 1.1385
C103 C 0.3609(5) 1.2665(4) 1.0461(2)
H78 H 0.3111 1.3369 1.0371
C104 C 0.3653(5) 1.1839(3) 0.99867(19)
H79 H 0.3196 1.1994 0.9578
C105 C 0.5162(5) 0.9133(3) 0.79032(19)
C106 C 0.5858(5) 0.8164(3) 0.76550(17)
H80 H 0.6167 0.7557 0.7918
C107 C 0.6108(5) 0.8071(3) 0.70344(18)
H81 H 0.6577 0.7403 0.6888
C108 C 0.5676(5) 0.8953(4) 0.66194(17)
C109 C 0.4931(5) 0.9914(3) 0.68592(16)
H82 H 0.4576 1.0504 0.6591
C110 C 0.4705(5) 1.0010(3) 0.74902(16)
H83 H 0.4238 1.0676 0.7639
C111 C 0.5929(5) 0.8832(3) 0.59425(17)
C112 C 0.7131(5) 0.8153(3) 0.57552(16)
H84 H 0.7812 0.7770 0.6058
C113 C 0.7349(5) 0.8026(3) 0.51232(18)
H85 H 0.8173 0.7564 0.5009
C114 C 0.6364(6) 0.8574(4) 0.4671(2)
H86 H 0.6510 0.8484 0.4249
C115 C 0.5149(5) 0.9264(3) 0.48418(17)
H87 H 0.4470 0.9636 0.4534
C116 C 0.4937(4) 0.9403(3) 0.54734(15)
H88 H 0.4128 0.9882 0.5586
loop_
_geom_bond_atom_site_label_1
_geom_bond_atom_site_label_2
_geom_bond_site_symmetry_1
_geom_bond_site_symmetry_2
C1 C2 1_555 1_555
C2 C3 1_555 1_555
C3 H1 1_555 1_555
C4 C3 1_555 1_555
C5 C1 1_555 1_555
H2 C5 1_555 1_555
H3 C5 1_555 1_555
C6 C1 1_555 1_555
C7 C6 1_555 1_555
H4 C7 1_555 1_555
C8 C7 1_555 1_555
H5 C8 1_555 1_555
C9 C8 1_555 1_555
H6 C9 1_555 1_555
C10 C9 1_555 1_555
H7 C10 1_555 1_555
C11 C6 1_555 1_555
H8 C11 1_555 1_555
C12 C2 1_555 1_555
C13 C12 1_555 1_555
H9 C13 1_555 1_555
C14 C13 1_555 1_555
H10 C14 1_555 1_555
C15 C14 1_555 1_555
H11 C15 1_555 1_555
C16 C15 1_555 1_555
H12 C16 1_555 1_555
C17 C12 1_555 1_555
H13 C17 1_555 1_555
C18 C4 1_555 1_555
C19 C18 1_555 1_555
H14 C19 1_555 1_555
C20 C19 1_555 1_555
H15 C20 1_555 1_555
C21 C20 1_555 1_555
C22 C21 1_555 1_555
H16 C22 1_555 1_555
C23 C18 1_555 1_555
H17 C23 1_555 1_555
C24 C21 1_555 1_555
C25 C24 1_555 1_555
H18 C25 1_555 1_555
C26 C25 1_555 1_555
H19 C26 1_555 1_555
C27 C26 1_555 1_555
H20 C27 1_555 1_555
C28 C27 1_555 1_555
H21 C28 1_555 1_555
C29 C24 1_555 1_555
H22 C29 1_555 1_555
C30 C31 1_555 1_555
C31 C32 1_555 1_555
C32 H23 1_555 1_555
C33 C32 1_555 1_555
C34 C30 1_555 1_555
H24 C34 1_555 1_555
H25 C34 1_555 1_555
C35 C30 1_555 1_555
C36 C35 1_555 1_555
H26 C36 1_555 1_555
C37 C36 1_555 1_555
H27 C37 1_555 1_555
C38 C37 1_555 1_555
H28 C38 1_555 1_555
C39 C38 1_555 1_555
H29 C39 1_555 1_555
C40 C35 1_555 1_555
H30 C40 1_555 1_555
C41 C31 1_555 1_555
C42 C41 1_555 1_555
H31 C42 1_555 1_555
C43 C42 1_555 1_555
H32 C43 1_555 1_555
C44 C43 1_555 1_555
H33 C44 1_555 1_555
C45 C44 1_555 1_555
H34 C45 1_555 1_555
C46 C41 1_555 1_555
H35 C46 1_555 1_555
C47 C33 1_555 1_555
C48 C47 1_555 1_555
H36 C48 1_555 1_555
C49 C48 1_555 1_555
H37 C49 1_555 1_555
C50 C49 1_555 1_555
C51 C50 1_555 1_555
H38 C51 1_555 1_555
C52 C47 1_555 1_555
H39 C52 1_555 1_555
C53 C50 1_555 1_555
C54 C53 1_555 1_555
H40 C54 1_555 1_555
C55 C54 1_555 1_555
H41 C55 1_555 1_555
C56 C55 1_555 1_555
H42 C56 1_555 1_555
C57 C56 1_555 1_555
H43 C57 1_555 1_555
C58 C53 1_555 1_555
H44 C58 1_555 1_555
C59 C60 1_555 1_555
C60 C61 1_555 1_555
C61 H45 1_555 1_555
H46 C61 1_555 1_555
C62 C61 1_555 1_555
C63 C59 1_555 1_555
H47 C63 1_555 1_555
C64 C59 1_555 1_555
C65 C64 1_555 1_555
H48 C65 1_555 1_555
C66 C65 1_555 1_555
H49 C66 1_555 1_555
C67 C66 1_555 1_555
H50 C67 1_555 1_555
C68 C67 1_555 1_555
H51 C68 1_555 1_555
C69 C64 1_555 1_555
H52 C69 1_555 1_555
C70 C60 1_555 1_555
C71 C70 1_555 1_555
H53 C71 1_555 1_555
C72 C71 1_555 1_555
H54 C72 1_555 1_555
C73 C72 1_555 1_555
H55 C73 1_555 1_555
C74 C73 1_555 1_555
H56 C74 1_555 1_555
C75 C70 1_555 1_555
H57 C75 1_555 1_555
C76 C62 1_555 1_555
C77 C76 1_555 1_555
H58 C77 1_555 1_555
C78 C77 1_555 1_555
H59 C78 1_555 1_555
C79 C78 1_555 1_555
C80 C79 1_555 1_555
H60 C80 1_555 1_555
C81 C76 1_555 1_555
H61 C81 1_555 1_555
C82 C79 1_555 1_555
C83 C82 1_555 1_555
H62 C83 1_555 1_555
C84 C83 1_555 1_555
H63 C84 1_555 1_555
C85 C84 1_555 1_555
H64 C85 1_555 1_555
C86 C85 1_555 1_555
H65 C86 1_555 1_555
C87 C82 1_555 1_555
H66 C87 1_555 1_555
C88 C89 1_555 1_555
C89 C90 1_555 1_555
C90 H67 1_555 1_555
H68 C90 1_555 1_555
C91 C90 1_555 1_555
C92 C88 1_555 1_555
H69 C92 1_555 1_555
C93 C88 1_555 1_555
C94 C93 1_555 1_555
H70 C94 1_555 1_555
C95 C94 1_555 1_555
H71 C95 1_555 1_555
C96 C95 1_555 1_555
H72 C96 1_555 1_555
C97 C96 1_555 1_555
H73 C97 1_555 1_555
C98 C93 1_555 1_555
H74 C98 1_555 1_555
C99 C89 1_555 1_555
C100 C99 1_555 1_555
H75 C100 1_555 1_555
C101 C100 1_555 1_555
H76 C101 1_555 1_555
C102 C101 1_555 1_555
H77 C102 1_555 1_555
C103 C102 1_555 1_555
H78 C103 1_555 1_555
C104 C99 1_555 1_555
H79 C104 1_555 1_555
C105 C91 1_555 1_555
C106 C105 1_555 1_555
H80 C106 1_555 1_555
C107 C106 1_555 1_555
H81 C107 1_555 1_555
C108 C107 1_555 1_555
C109 C108 1_555 1_555
H82 C109 1_555 1_555
C110 C105 1_555 1_555
H83 C110 1_555 1_555
C111 C108 1_555 1_555
C112 C111 1_555 1_555
H84 C112 1_555 1_555
C113 C112 1_555 1_555
H85 C113 1_555 1_555
C114 C113 1_555 1_555
H86 C114 1_555 1_555
C115 C114 1_555 1_555
H87 C115 1_555 1_555
C116 C111 1_555 1_555
H88 C116 1_555 1_555
C4 C5 1_555 1_555
C10 C11 1_555 1_555
C16 C17 1_555 1_555
C22 C23 1_555 1_555
C28 C29 1_555 1_555
C33 C34 1_555 1_555
C39 C40 1_555 1_555
C45 C46 1_555 1_555
C51 C52 1_555 1_555
C57 C58 1_555 1_555
C62 C63 1_555 1_555
C68 C69 1_555 1_555
C74 C75 1_555 1_555
C80 C81 1_555 1_555
C86 C87 1_555 1_555
C91 C92 1_555 1_555
C97 C98 1_555 1_555
C103 C104 1_555 1_555
C109 C110 1_555 1_555
C115 C116 1_555 1_555

#END
