
#######################################################################
#
#                 Cambridge Crystallographic Data Centre
#                                CCDC 
#
#######################################################################
#
# If this CIF has been generated from an entry in the Cambridge 
# Structural Database, then it will include bibliographic, chemical, 
# crystal, experimental, refinement or atomic coordinate data resulting 
# from the CCDC's data processing and validation procedures.
#
#######################################################################

data_SEJKEX
_chemical_formula_moiety         'C18 H24 N6 2+,C10 N6 2-'
_chemical_name_systematic        
'Hexa-azaoctadecahydrocoronene hexacyanoisobutadienedi-ide'
_symmetry_cell_setting           orthorhombic
_symmetry_space_group_name_H-M   'P 21 21 21'
_symmetry_Int_Tables_number      19
_space_group_name_Hall           'P 2ac 2ab'
loop_
_symmetry_equiv_pos_site_id
_symmetry_equiv_pos_as_xyz
1 x,y,z
2 1/2+x,1/2-y,-z
3 -x,1/2+y,1/2-z
4 1/2-x,-y,1/2+z
_cell_length_a                   9.132(6)
_cell_length_b                   33.747(6)
_cell_length_c                   8.242(8)
_cell_angle_alpha                90
_cell_angle_beta                 90
_cell_angle_gamma                90
_cell_volume                     2540
_cell_formula_units_Z            4
loop_
_atom_site_label
_atom_site_type_symbol
_atom_site_fract_x
_atom_site_fract_y
_atom_site_fract_z
N1 N 0.4469(9) 0.0650(2) 0.498(1)
N2 N 0.559(1) 0.0438(3) 0.201(1)
N3 N 0.666(1) 0.1009(2) -0.012(1)
N4 N 0.625(1) 0.1806(2) 0.077(1)
N5 N 0.510(1) 0.2010(3) 0.373(1)
N6 N 0.411(1) 0.1442(3) 0.594(1)
C1 C 0.486(1) 0.0931(3) 0.398(1)
C2 C 0.553(1) 0.0830(3) 0.243(1)
C3 C 0.607(1) 0.1117(3) 0.136(1)
C4 C 0.587(1) 0.1512(3) 0.177(1)
C5 C 0.519(1) 0.1627(3) 0.332(1)
C6 C 0.467(1) 0.1336(3) 0.439(1)
C7 C 0.396(1) 0.0746(3) 0.661(1)
C8 C 0.480(1) 0.0232(3) 0.468(1)
C9 C 0.471(1) 0.0150(3) 0.289(1)
C10 C 0.614(1) 0.0323(3) 0.039(1)
C11 C 0.731(1) 0.0622(3) -0.014(1)
C12 C 0.762(1) 0.1312(3) -0.082(1)
C13 C 0.679(1) 0.1696(3) -0.084(1)
C14 C 0.580(1) 0.2213(3) 0.105(1)
C15 C 0.589(1) 0.2311(3) 0.279(1)
C16 C 0.458(1) 0.2133(3) 0.535(1)
C17 C 0.347(1) 0.1834(3) 0.598(1)
C18 C 0.316(1) 0.1138(3) 0.660(1)
H1 H 0.3317 0.0544 0.6975
H2 H 0.4779 0.0762 0.7319
H3 H 0.5756 0.0174 0.5056
H4 H 0.4109 0.0071 0.5238
H5 H 0.3715 0.0170 0.2545
H6 H 0.5060 -0.0109 0.2673
H7 H 0.6551 0.0065 0.0443
H8 H 0.5351 0.0324 -0.0367
H9 H 0.7638 0.0560 -0.1204
H10 H 0.8113 0.0614 0.0590
H11 H 0.8472 0.1339 -0.0174
H12 H 0.7884 0.1240 -0.1892
H13 H 0.5984 0.1671 -0.1562
H14 H 0.7428 0.1899 -0.1223
H15 H 0.6429 0.2385 0.0458
H16 H 0.4822 0.2247 0.0685
H17 H 0.5456 0.2563 0.2974
H18 H 0.6883 0.2317 0.3120
H19 H 0.5391 0.2146 0.6070
H20 H 0.4135 0.2386 0.5272
H21 H 0.2625 0.1839 0.5313
H22 H 0.3213 0.1900 0.7061
H23 H 0.2893 0.1206 0.7680
H24 H 0.2307 0.1117 0.5951
N7 N 0.630(1) 0.4684(3) 0.545(1)
N8 N 0.679(1) 0.4319(3) 1.030(1)
N9 N 0.799(1) 0.3342(3) 0.976(1)
N10 N 0.420(1) 0.2772(3) 0.826(1)
N11 N 0.363(1) 0.3075(3) 0.426(1)
N12 N 0.292(1) 0.4306(3) 0.455(1)
C19 C 0.534(1) 0.3745(4) 0.712(1)
C20 C 0.590(1) 0.4124(3) 0.748(1)
C21 C 0.569(1) 0.3408(3) 0.799(1)
C22 C 0.434(1) 0.3721(3) 0.578(1)
C23 C 0.602(1) 0.4430(3) 0.635(1)
C24 C 0.644(1) 0.4213(3) 0.902(2)
C25 C 0.697(1) 0.3394(3) 0.897(1)
C26 C 0.484(1) 0.3056(3) 0.804(1)
C27 C 0.397(1) 0.3350(3) 0.499(1)
C28 C 0.356(1) 0.4055(3) 0.513(1)
loop_
_geom_bond_atom_site_label_1
_geom_bond_atom_site_label_2
_geom_bond_site_symmetry_1
_geom_bond_site_symmetry_2
N1 C1 1_555 1_555
N2 C2 1_555 1_555
N3 C3 1_555 1_555
N4 C4 1_555 1_555
N5 C5 1_555 1_555
N6 C6 1_555 1_555
C1 C2 1_555 1_555
C2 C3 1_555 1_555
C3 C4 1_555 1_555
C4 C5 1_555 1_555
C5 C6 1_555 1_555
C6 C1 1_555 1_555
C7 N1 1_555 1_555
C8 N1 1_555 1_555
C9 N2 1_555 1_555
C10 N2 1_555 1_555
C11 N3 1_555 1_555
C12 N3 1_555 1_555
C13 N4 1_555 1_555
C14 N4 1_555 1_555
C15 N5 1_555 1_555
C16 N5 1_555 1_555
C17 N6 1_555 1_555
C18 N6 1_555 1_555
H1 C7 1_555 1_555
H2 C7 1_555 1_555
H3 C8 1_555 1_555
H4 C8 1_555 1_555
H5 C9 1_555 1_555
H6 C9 1_555 1_555
H7 C10 1_555 1_555
H8 C10 1_555 1_555
H9 C11 1_555 1_555
H10 C11 1_555 1_555
H11 C12 1_555 1_555
H12 C12 1_555 1_555
H13 C13 1_555 1_555
H14 C13 1_555 1_555
H15 C14 1_555 1_555
H16 C14 1_555 1_555
H17 C15 1_555 1_555
H18 C15 1_555 1_555
H19 C16 1_555 1_555
H20 C16 1_555 1_555
H21 C17 1_555 1_555
H22 C17 1_555 1_555
H23 C18 1_555 1_555
H24 C18 1_555 1_555
N7 C23 1_555 1_555
N8 C24 1_555 1_555
N9 C25 1_555 1_555
N10 C26 1_555 1_555
N11 C27 1_555 1_555
N12 C28 1_555 1_555
C19 C20 1_555 1_555
C20 C23 1_555 1_555
C21 C19 1_555 1_555
C22 C19 1_555 1_555
C24 C20 1_555 1_555
C25 C21 1_555 1_555
C26 C21 1_555 1_555
C27 C22 1_555 1_555
C28 C22 1_555 1_555
C7 C18 1_555 1_555
C8 C9 1_555 1_555
C10 C11 1_555 1_555
C12 C13 1_555 1_555
C14 C15 1_555 1_555
C16 C17 1_555 1_555

#END
