
#######################################################################
#
#                 Cambridge Crystallographic Data Centre
#                                CCDC 
#
#######################################################################
#
# If this CIF has been generated from an entry in the Cambridge 
# Structural Database, then it will include bibliographic, chemical, 
# crystal, experimental, refinement or atomic coordinate data resulting 
# from the CCDC's data processing and validation procedures.
#
#######################################################################

data_SEJQIK
_chemical_formula_moiety         'C21 H24 B10 O1'
_chemical_name_systematic        
1-carbaldehyde-3,5,6-triphenyl-1,3-dicarba-closo-dodecaborane
_symmetry_cell_setting           monoclinic
_symmetry_space_group_name_H-M   'P 21/c'
_symmetry_Int_Tables_number      14
_space_group_name_Hall           '-P 2ybc'
loop_
_symmetry_equiv_pos_site_id
_symmetry_equiv_pos_as_xyz
1 x,y,z
2 -x,1/2+y,1/2-z
3 -x,-y,-z
4 x,1/2-y,1/2+z
_cell_length_a                   10.612(3)
_cell_length_b                   19.721(5)
_cell_length_c                   14.299(3)
_cell_angle_alpha                90
_cell_angle_beta                 132.356(13)
_cell_angle_gamma                90
_cell_volume                     2211.36
_exptl_crystal_description       block
_cell_formula_units_Z            4
loop_
_atom_site_label
_atom_site_type_symbol
_atom_site_fract_x
_atom_site_fract_y
_atom_site_fract_z
O1 O 0.11685(16) -0.17493(6) 0.58503(13)
C1 C -0.06560(19) -0.26446(7) 0.44549(15)
C2 C -0.25012(19) -0.21903(8) 0.34017(16)
C3 C -0.2411(2) -0.14279(9) 0.34474(17)
C4 C -0.2999(3) -0.10811(10) 0.3936(2)
H1 H -0.3425 -0.1319 0.4234
C5 C -0.2947(4) -0.03847(12) 0.3975(2)
H2 H -0.3364 -0.0153 0.4285
C6 C -0.2298(3) -0.00290(12) 0.3569(3)
H3 H -0.2233 0.0441 0.3630
C7 C -0.1743(3) -0.03642(10) 0.3071(2)
H4 H -0.1319 -0.0121 0.2776
C8 C -0.1808(2) -0.10637(9) 0.3002(2)
H5 H -0.1440 -0.1289 0.2652
C9 C 0.0973(2) -0.36674(8) 0.41661(16)
C10 C 0.1275(2) -0.35425(10) 0.33760(19)
H6 H 0.0480 -0.3295 0.2637
C11 C 0.2738(3) -0.37781(10) 0.3663(2)
H7 H 0.2928 -0.3672 0.3133
C12 C 0.3881(2) -0.41583(9) 0.4703(2)
H8 H 0.4851 -0.4320 0.4887
C13 C 0.3602(2) -0.43041(10) 0.5481(2)
H9 H 0.4378 -0.4570 0.6197
C14 C 0.2166(2) -0.40573(10) 0.52100(18)
H10 H 0.2004 -0.4160 0.5758
C15 C 0.0362(2) -0.36282(8) 0.63398(17)
C16 C 0.0370(3) -0.43126(9) 0.6591(2)
H11 H -0.0437 -0.4603 0.5931
C17 C 0.1557(3) -0.45634(11) 0.7804(2)
H12 H 0.1552 -0.5022 0.7952
C18 C 0.2741(3) -0.41454(12) 0.8789(2)
H13 H 0.3556 -0.4318 0.9605
C19 C 0.2715(3) -0.34739(12) 0.8565(2)
H14 H 0.3498 -0.3184 0.9236
C20 C 0.1550(3) -0.32194(10) 0.73642(18)
H15 H 0.1561 -0.2758 0.7235
C21 C 0.0965(2) -0.22386(8) 0.52940(16)
H16 H 0.1870 -0.2385 0.5379
B1 B -0.2080(2) -0.25906(10) 0.4651(2)
H17 H -0.1733 -0.2283 0.5425
B2 B -0.0978(2) -0.33685(9) 0.4936(2)
B3 B -0.0695(2) -0.33969(9) 0.38211(18)
B4 B -0.1615(2) -0.26359(9) 0.29062(18)
H18 H -0.0999 -0.2354 0.2675
B5 B -0.3831(3) -0.26331(10) 0.2031(2)
H19 H -0.4637 -0.2336 0.1169
B6 B -0.2761(3) -0.34005(10) 0.2276(2)
H20 H -0.2912 -0.3651 0.1494
B7 B -0.2383(2) -0.38504(10) 0.3520(2)
H21 H -0.2327 -0.4411 0.3566
B8 B -0.3224(3) -0.33561(11) 0.4034(2)
H22 H -0.3698 -0.3563 0.4457
B9 B -0.4119(3) -0.26154(11) 0.3112(2)
H23 H -0.5103 -0.2318 0.2915
B10 B -0.4299(3) -0.33923(11) 0.2418(2)
H24 H -0.5539 -0.3610 0.1701
loop_
_geom_bond_atom_site_label_1
_geom_bond_atom_site_label_2
_geom_bond_site_symmetry_1
_geom_bond_site_symmetry_2
O1 C21 1_555 1_555
C1 C2 1_555 1_555
C2 C3 1_555 1_555
C3 C4 1_555 1_555
C4 H1 1_555 1_555
C5 C4 1_555 1_555
H2 C5 1_555 1_555
C6 C5 1_555 1_555
H3 C6 1_555 1_555
C7 C6 1_555 1_555
H4 C7 1_555 1_555
C8 C3 1_555 1_555
H5 C8 1_555 1_555
C9 C10 1_555 1_555
C10 H6 1_555 1_555
C11 C10 1_555 1_555
H7 C11 1_555 1_555
C12 C11 1_555 1_555
H8 C12 1_555 1_555
C13 C12 1_555 1_555
H9 C13 1_555 1_555
C14 C9 1_555 1_555
H10 C14 1_555 1_555
C15 C16 1_555 1_555
C16 H11 1_555 1_555
C17 C16 1_555 1_555
H12 C17 1_555 1_555
C18 C17 1_555 1_555
H13 C18 1_555 1_555
C19 C18 1_555 1_555
H14 C19 1_555 1_555
C20 C15 1_555 1_555
H15 C20 1_555 1_555
C21 C1 1_555 1_555
H16 C21 1_555 1_555
B1 C1 1_555 1_555
H17 B1 1_555 1_555
B2 C1 1_555 1_555
B3 C1 1_555 1_555
B4 C1 1_555 1_555
H18 B4 1_555 1_555
B5 C2 1_555 1_555
H19 B5 1_555 1_555
B6 B3 1_555 1_555
H20 B6 1_555 1_555
B7 B2 1_555 1_555
H21 B7 1_555 1_555
B8 B1 1_555 1_555
H22 B8 1_555 1_555
B9 C2 1_555 1_555
H23 B9 1_555 1_555
B10 B5 1_555 1_555
H24 B10 1_555 1_555
C2 B1 1_555 1_555
C2 B4 1_555 1_555
C7 C8 1_555 1_555
C9 B3 1_555 1_555
C13 C14 1_555 1_555
C15 B2 1_555 1_555
C19 C20 1_555 1_555
B1 B2 1_555 1_555
B1 B9 1_555 1_555
B2 B3 1_555 1_555
B2 B8 1_555 1_555
B3 B4 1_555 1_555
B3 B7 1_555 1_555
B4 B5 1_555 1_555
B4 B6 1_555 1_555
B5 B6 1_555 1_555
B5 B9 1_555 1_555
B6 B7 1_555 1_555
B6 B10 1_555 1_555
B7 B8 1_555 1_555
B7 B10 1_555 1_555
B8 B9 1_555 1_555
B8 B10 1_555 1_555
B9 B10 1_555 1_555

#END
