
#######################################################################
#
#                 Cambridge Crystallographic Data Centre
#                                CCDC 
#
#######################################################################
#
# If this CIF has been generated from an entry in the Cambridge 
# Structural Database, then it will include bibliographic, chemical, 
# crystal, experimental, refinement or atomic coordinate data resulting 
# from the CCDC's data processing and validation procedures.
#
#######################################################################

data_SEJTEG
_chemical_formula_moiety         'C18 H40 N1 1+,Br1 1-,H2 O1'
_chemical_name_systematic        
'Butyldodecyldimethylammonium bromide monohydrate'
_symmetry_cell_setting           triclinic
_symmetry_space_group_name_H-M   'P -1'
_symmetry_Int_Tables_number      2
_space_group_name_Hall           '-P 1'
loop_
_symmetry_equiv_pos_site_id
_symmetry_equiv_pos_as_xyz
1 x,y,z
2 -x,-y,-z
_cell_length_a                   8.164(1)
_cell_length_b                   8.486(2)
_cell_length_c                   17.531(1)
_cell_angle_alpha                74.72(1)
_cell_angle_beta                 86.28(1)
_cell_angle_gamma                71.57(1)
_cell_volume                     1111.29
_exptl_crystal_colour            colorless
_cell_formula_units_Z            2
loop_
_atom_site_label
_atom_site_type_symbol
_atom_site_fract_x
_atom_site_fract_y
_atom_site_fract_z
Br1 Br 0.6853(1) 0.2951(1) 0.3985(1)
C1 C 0.1783(7) 0.2238(6) 0.3016(3)
C2 C 0.2596(7) 0.3656(6) 0.2909(3)
C3 C 0.2152(7) 0.4897(6) 0.2104(3)
C4 C 0.2736(8) 0.6460(7) 0.2015(3)
C5 C 0.2275(8) 0.7770(7) 0.1212(3)
C6 C 0.2761(8) 0.9370(8) 0.1125(3)
C7 C 0.2262(9) 1.0676(8) 0.0335(3)
C8 C 0.2709(9) 1.2297(8) 0.0231(3)
C9 C 0.2227(9) 1.3568(8) -0.0549(3)
C10 C 0.2671(8) 1.5204(8) -0.0676(4)
C11 C 0.2109(10) 1.6461(9) -0.1461(4)
C12 C 0.2584(13) 1.8054(10) -0.1606(5)
C13 C 0.4161(7) -0.0092(6) 0.3899(3)
C14 C 0.5021(8) -0.0967(7) 0.3270(3)
C15 C 0.6911(9) -0.1819(8) 0.3449(4)
C16 C 0.7873(11) -0.2722(9) 0.2849(5)
C17 C 0.1273(8) -0.0381(8) 0.3801(4)
C18 C 0.1695(8) 0.1623(8) 0.4473(3)
N1 N 0.2257(5) 0.0860(5) 0.3780(2)
H1 H 0.205(5) 0.173(5) 0.256(2)
H2 H 0.056(5) 0.269(5) 0.300(2)
H3 H 0.218(6) 0.425(6) 0.328(3)
H4 H 0.389(5) 0.315(5) 0.293(2)
H5 H 0.273(7) 0.425(7) 0.175(3)
H6 H 0.085(5) 0.518(5) 0.204(2)
H7 H 0.215(6) 0.708(6) 0.242(3)
H8 H 0.391(6) 0.609(6) 0.210(3)
H9 H 0.290(7) 0.725(7) 0.087(3)
H10 H 0.125(7) 0.799(7) 0.114(3)
H11 H 0.223(7) 0.989(7) 0.149(3)
H12 H 0.400(7) 0.901(7) 0.122(3)
H13 H 0.279(8) 1.005(8) -0.004(4)
H14 H 0.107(6) 1.091(6) 0.030(3)
H15 H 0.219(6) 1.289(7) 0.069(3)
H16 H 0.395(6) 1.212(6) 0.030(3)
H17 H 0.270(8) 1.305(7) -0.098(3)
H18 H 0.106(8) 1.371(8) -0.066(4)
H19 H 0.204(8) 1.572(8) -0.016(3)
H20 H 0.381(6) 1.497(6) -0.058(3)
H21 H 0.273(8) 1.574(8) -0.175(4)
H22 H 0.090(7) 1.687(8) -0.149(3)
H23 H 0.216(10) 1.880(10) -0.211(5)
H24 H 0.388(11) 1.761(11) -0.151(5)
H25 H 0.200(8) 1.879(8) -0.127(3)
H26 H 0.474(6) 0.070(6) 0.401(3)
H27 H 0.430(5) -0.091(5) 0.443(2)
H28 H 0.453(7) -0.168(7) 0.319(3)
H29 H 0.487(5) -0.015(6) 0.276(3)
H30 H 0.727(8) -0.093(8) 0.350(4)
H31 H 0.715(7) -0.280(7) 0.402(3)
H32 H 0.918(10) -0.340(10) 0.307(5)
H33 H 0.752(9) -0.203(9) 0.240(4)
H34 H 0.730(9) -0.352(8) 0.274(4)
H35 H 0.164(6) -0.119(6) 0.425(3)
H36 H 0.159(6) -0.082(7) 0.337(3)
H37 H 0.015(7) 0.020(7) 0.375(3)
H38 H 0.202(5) 0.070(5) 0.490(2)
H39 H 0.049(7) 0.247(7) 0.430(3)
H40 H 0.233(6) 0.234(6) 0.452(3)
O1 O 0.2910(9) 0.5260(8) 0.4511(4)
H41 H 0.296(13) 0.606(13) 0.493(7)
H42 H 0.396(10) 0.469(11) 0.448(4)
loop_
_geom_bond_atom_site_label_1
_geom_bond_atom_site_label_2
_geom_bond_site_symmetry_1
_geom_bond_site_symmetry_2
C1 C2 1_555 1_555
C2 C3 1_555 1_555
C3 C4 1_555 1_555
C4 C5 1_555 1_555
C5 C6 1_555 1_555
C6 C7 1_555 1_555
C7 C8 1_555 1_555
C8 C9 1_555 1_555
C9 C10 1_555 1_555
C10 C11 1_555 1_555
C11 C12 1_555 1_555
C12 H23 1_555 1_555
C13 C14 1_555 1_555
C14 C15 1_555 1_555
C15 C16 1_555 1_555
C16 H32 1_555 1_555
C17 N1 1_555 1_555
C18 N1 1_555 1_555
N1 C1 1_555 1_555
O1 H41 1_555 1_555
H1 C1 1_555 1_555
H2 C1 1_555 1_555
H3 C2 1_555 1_555
H4 C2 1_555 1_555
H5 C3 1_555 1_555
H6 C3 1_555 1_555
H7 C4 1_555 1_555
H8 C4 1_555 1_555
H9 C5 1_555 1_555
H10 C5 1_555 1_555
H11 C6 1_555 1_555
H12 C6 1_555 1_555
H13 C7 1_555 1_555
H14 C7 1_555 1_555
H15 C8 1_555 1_555
H16 C8 1_555 1_555
H17 C9 1_555 1_555
H18 C9 1_555 1_555
H19 C10 1_555 1_555
H20 C10 1_555 1_555
H21 C11 1_555 1_555
H22 C11 1_555 1_555
H24 C12 1_555 1_555
H25 C12 1_555 1_555
H26 C13 1_555 1_555
H27 C13 1_555 1_555
H28 C14 1_555 1_555
H29 C14 1_555 1_555
H30 C15 1_555 1_555
H31 C15 1_555 1_555
H33 C16 1_555 1_555
H34 C16 1_555 1_555
H35 C17 1_555 1_555
H36 C17 1_555 1_555
H37 C17 1_555 1_555
H38 C18 1_555 1_555
H39 C18 1_555 1_555
H40 C18 1_555 1_555
H42 O1 1_555 1_555
C13 N1 1_555 1_555

#END
