
#######################################################################
#
#                 Cambridge Crystallographic Data Centre
#                                CCDC 
#
#######################################################################
#
# If this CIF has been generated from an entry in the Cambridge 
# Structural Database, then it will include bibliographic, chemical, 
# crystal, experimental, refinement or atomic coordinate data resulting 
# from the CCDC's data processing and validation procedures.
#
#######################################################################

data_SEKFAS
_chemical_formula_moiety         'C18 H16 Cl2 O8'
_chemical_name_systematic        
'2-[2,4-dichloro-5-hydroxy-6-(methoxycarbonyl)-3-methylphenoxy]-3,5-dimethoxybenzoic acid'
_symmetry_cell_setting           triclinic
_symmetry_space_group_name_H-M   'P -1'
_symmetry_Int_Tables_number      2
_space_group_name_Hall           '-P 1'
loop_
_symmetry_equiv_pos_site_id
_symmetry_equiv_pos_as_xyz
1 x,y,z
2 -x,-y,-z
_cell_length_a                   8.4306(6)
_cell_length_b                   9.8359(8)
_cell_length_c                   11.8540(8)
_cell_angle_alpha                100.407(2)
_cell_angle_beta                 105.345(2)
_cell_angle_gamma                93.0580(10)
_cell_volume                     927.01
_cell_formula_units_Z            2
loop_
_atom_site_label
_atom_site_type_symbol
_atom_site_fract_x
_atom_site_fract_y
_atom_site_fract_z
Cl1 Cl 0.96036(9) 0.45165(8) 0.62766(6)
Cl2 Cl 0.85962(11) 0.12677(8) 0.93023(8)
O1 O 1.1211(2) 0.8180(2) 0.76877(18)
H1 H 1.0633 0.7844 0.8048
O2 O 1.0905(2) 0.8809(2) 0.59828(19)
O3 O 0.8619(2) 0.66936(17) 0.79117(15)
O4 O 0.5362(2) 0.5783(2) 0.70406(19)
O5 O 0.4769(3) 0.8331(3) 0.3940(2)
O6 O 0.7048(3) 0.7486(2) 0.9473(2)
O7 O 0.6853(3) 0.6176(3) 1.0765(2)
O8 O 0.7555(3) 0.3690(2) 1.04670(18)
H2 H 0.7266 0.4400 1.0800
C1 C 1.0272(3) 0.8310(3) 0.6625(2)
C2 C 0.8444(3) 0.7855(2) 0.6275(2)
C3 C 0.7677(3) 0.7035(3) 0.6852(2)
C4 C 0.5977(3) 0.6624(3) 0.6434(3)
C5 C 0.5057(3) 0.7089(3) 0.5458(3)
H3 H 0.3921 0.6837 0.5183
C6 C 0.5808(3) 0.7929(3) 0.4884(3)
C7 C 0.7498(3) 0.8305(3) 0.5279(2)
H4 H 0.8002 0.8856 0.4884
C8 C 0.7237(3) 0.6335(3) 0.9876(3)
C9 C 0.7915(3) 0.5239(3) 0.9166(2)
C10 C 0.8435(3) 0.5388(3) 0.8162(2)
C11 C 0.8931(3) 0.4273(3) 0.7496(2)
C12 C 0.8971(3) 0.2959(3) 0.7801(2)
C13 C 0.8512(3) 0.2839(3) 0.8821(3)
C14 C 0.7980(3) 0.3932(3) 0.9505(2)
C15 C 0.5472(5) 0.9129(4) 0.3277(3)
H5 H 0.6061 0.9972 0.3795
H6 H 0.4610 0.9353 0.2649
H7 H 0.6222 0.8605 0.2939
C16 C 0.3632(3) 0.5420(3) 0.6733(3)
H8 H 0.3092 0.6242 0.6880
H9 H 0.3393 0.4786 0.7209
H10 H 0.3238 0.4985 0.5903
C17 C 0.6246(5) 0.8529(4) 1.0082(4)
H11 H 0.5309 0.8090 1.0245
H12 H 0.5882 0.9186 0.9585
H13 H 0.7013 0.9004 1.0819
C18 C 0.9514(5) 0.1767(3) 0.7067(3)
H14 H 0.9012 0.0908 0.7154
H15 H 1.0696 0.1790 0.7333
H16 H 0.9184 0.1840 0.6242
loop_
_geom_bond_atom_site_label_1
_geom_bond_atom_site_label_2
_geom_bond_site_symmetry_1
_geom_bond_site_symmetry_2
Cl1 C11 1_555 1_555
Cl2 C13 1_555 1_555
O1 H1 1_555 1_555
O2 C1 1_555 1_555
O3 C3 1_555 1_555
O4 C4 1_555 1_555
O5 C6 1_555 1_555
O6 C8 1_555 1_555
O7 C8 1_555 1_555
O8 H2 1_555 1_555
C1 O1 1_555 1_555
C2 C1 1_555 1_555
C3 C2 1_555 1_555
C4 C3 1_555 1_555
C5 C4 1_555 1_555
H3 C5 1_555 1_555
C6 C5 1_555 1_555
C7 C2 1_555 1_555
H4 C7 1_555 1_555
C8 C9 1_555 1_555
C9 C10 1_555 1_555
C10 O3 1_555 1_555
C11 C10 1_555 1_555
C12 C11 1_555 1_555
C13 C12 1_555 1_555
C14 O8 1_555 1_555
C15 O5 1_555 1_555
H5 C15 1_555 1_555
H6 C15 1_555 1_555
H7 C15 1_555 1_555
C16 O4 1_555 1_555
H8 C16 1_555 1_555
H9 C16 1_555 1_555
H10 C16 1_555 1_555
C17 O6 1_555 1_555
H11 C17 1_555 1_555
H12 C17 1_555 1_555
H13 C17 1_555 1_555
C18 C12 1_555 1_555
H14 C18 1_555 1_555
H15 C18 1_555 1_555
H16 C18 1_555 1_555
C6 C7 1_555 1_555
C9 C14 1_555 1_555
C13 C14 1_555 1_555

#END
