
#######################################################################
#
#                 Cambridge Crystallographic Data Centre
#                                CCDC 
#
#######################################################################
#
# If this CIF has been generated from an entry in the Cambridge 
# Structural Database, then it will include bibliographic, chemical, 
# crystal, experimental, refinement or atomic coordinate data resulting 
# from the CCDC's data processing and validation procedures.
#
#######################################################################

data_SELCOE
_chemical_formula_moiety         'C33 H33 N1'
_chemical_name_systematic        
2,2,5,5-tetramethyl-11,11-diphenyl-1,2,3,4,5,11-hexahydrofluoreno[2,3-b]azepine
_symmetry_cell_setting           triclinic
_symmetry_space_group_name_H-M   'P -1'
_symmetry_Int_Tables_number      2
_space_group_name_Hall           '-P 1'
loop_
_symmetry_equiv_pos_site_id
_symmetry_equiv_pos_as_xyz
1 x,y,z
2 -x,-y,-z
_cell_length_a                   8.9337(2)
_cell_length_b                   10.9430(4)
_cell_length_c                   13.0698(4)
_cell_angle_alpha                92.791(3)
_cell_angle_beta                 97.221(2)
_cell_angle_gamma                94.987(2)
_cell_volume                     1260.49
_exptl_crystal_description       block
_cell_formula_units_Z            2
loop_
_atom_site_label
_atom_site_type_symbol
_atom_site_fract_x
_atom_site_fract_y
_atom_site_fract_z
N1 N 0.57420(17) 0.26326(11) 0.22742(11)
C1 C 0.69026(14) 0.59102(12) 0.29389(10)
C2 C 0.70688(14) 0.69739(12) 0.37697(10)
C3 C 0.79688(15) 0.65836(12) 0.47565(10)
C4 C 0.75697(15) 0.62586(12) 0.20795(10)
C5 C 0.62514(15) 0.47247(12) 0.29568(10)
H1 H 0.5774 0.4497 0.3520
C6 C 0.62966(16) 0.38545(12) 0.21374(10)
C7 C 0.55476(15) 0.74454(12) 0.39588(11)
C8 C 0.79303(15) 0.79747(12) 0.32342(11)
C9 C 0.69988(16) 0.41918(13) 0.12704(10)
C10 C 0.81970(16) 0.75477(13) 0.22547(11)
C11 C 0.75962(17) 0.54100(13) 0.12588(11)
H2 H 0.8026 0.5662 0.0683
C12 C 0.72701(18) 0.58390(14) 0.54214(12)
H3 H 0.6235 0.5609 0.5280
C13 C 0.43526(17) 0.73744(15) 0.31705(12)
H4 H 0.4431 0.6954 0.2546
C14 C 0.53792(18) 0.80641(15) 0.48832(12)
H5 H 0.6166 0.8122 0.5426
C15 C 0.84089(18) 0.91779(13) 0.35929(13)
H6 H 0.8228 0.9466 0.4243
C16 C 0.7236(2) 0.32496(15) 0.04047(12)
C17 C 0.28897(18) 0.85288(15) 0.42150(14)
H7 H 0.2006 0.8892 0.4298
C18 C 0.89484(19) 0.83232(15) 0.16333(13)
H8 H 0.9126 0.8043 0.0980
C19 C 0.95151(17) 0.68890(15) 0.49846(13)
H9 H 1.0017 0.7372 0.4544
C20 C 0.8084(2) 0.54322(16) 0.62901(13)
H10 H 0.7594 0.4933 0.6725
C21 C 0.30384(18) 0.79191(17) 0.32948(15)
H11 H 0.2252 0.7872 0.2752
C22 C 0.9619(2) 0.57637(17) 0.65127(14)
H12 H 1.0167 0.5499 0.7100
C23 C 0.4468(2) 0.19769(15) 0.15617(13)
C24 C 0.9160(2) 0.99439(15) 0.29706(16)
H13 H 0.9487 1.0751 0.3206
C25 C 0.4059(2) 0.85977(16) 0.50119(14)
H14 H 0.3965 0.9003 0.5639
C26 C 0.9428(2) 0.95183(16) 0.20029(16)
H15 H 0.9937 1.0042 0.1595
C27 C 1.0327(2) 0.64872(18) 0.58590(15)
H16 H 1.1363 0.6712 0.6003
C28 C 0.5729(2) 0.25178(18) -0.00666(14)
H17 H 0.4993 0.3104 -0.0231
H18 H 0.5894 0.2114 -0.0715
C29 C 0.5027(3) 0.15653(18) 0.05577(15)
H19 H 0.5764 0.0980 0.0722
H20 H 0.4174 0.1125 0.0119
C30 C 0.8408(3) 0.2415(2) 0.08436(18)
H21 H 0.9371 0.2886 0.1021
H22 H 0.8494 0.1770 0.0336
H23 H 0.8095 0.2064 0.1450
C31 C 0.7827(3) 0.3869(2) -0.05117(15)
H24 H 0.7117 0.4416 -0.0789
H25 H 0.7946 0.3253 -0.1036
H26 H 0.8788 0.4326 -0.0284
C32 C 0.3156(3) 0.2753(2) 0.1379(2)
H27 H 0.2804 0.2955 0.2026
H28 H 0.2348 0.2303 0.0922
H29 H 0.3480 0.3495 0.1075
C33 C 0.4014(3) 0.0814(2) 0.2094(2)
H30 H 0.4893 0.0384 0.2275
H31 H 0.3278 0.0293 0.1633
H32 H 0.3587 0.1033 0.2708
H33 H 0.552(2) 0.2603(18) 0.2920(17)
loop_
_geom_bond_atom_site_label_1
_geom_bond_atom_site_label_2
_geom_bond_site_symmetry_1
_geom_bond_site_symmetry_2
N1 C6 1_555 1_555
C1 C2 1_555 1_555
C2 C3 1_555 1_555
C3 C12 1_555 1_555
C4 C1 1_555 1_555
C5 C1 1_555 1_555
H1 C5 1_555 1_555
C6 C5 1_555 1_555
C7 C2 1_555 1_555
C8 C2 1_555 1_555
C9 C6 1_555 1_555
C10 C4 1_555 1_555
C11 C4 1_555 1_555
H2 C11 1_555 1_555
C12 H3 1_555 1_555
C13 C7 1_555 1_555
H4 C13 1_555 1_555
C14 C7 1_555 1_555
H5 C14 1_555 1_555
C15 C8 1_555 1_555
H6 C15 1_555 1_555
C16 C9 1_555 1_555
C17 H7 1_555 1_555
C18 C10 1_555 1_555
H8 C18 1_555 1_555
C19 C3 1_555 1_555
H9 C19 1_555 1_555
C20 C12 1_555 1_555
H10 C20 1_555 1_555
C21 C13 1_555 1_555
H11 C21 1_555 1_555
C22 C20 1_555 1_555
H12 C22 1_555 1_555
C23 N1 1_555 1_555
C24 C15 1_555 1_555
H13 C24 1_555 1_555
C25 C14 1_555 1_555
H14 C25 1_555 1_555
C26 C18 1_555 1_555
H15 C26 1_555 1_555
C27 C19 1_555 1_555
H16 C27 1_555 1_555
C28 C16 1_555 1_555
H17 C28 1_555 1_555
H18 C28 1_555 1_555
C29 C23 1_555 1_555
H19 C29 1_555 1_555
H20 C29 1_555 1_555
C30 C16 1_555 1_555
H21 C30 1_555 1_555
H22 C30 1_555 1_555
H23 C30 1_555 1_555
C31 C16 1_555 1_555
H24 C31 1_555 1_555
H25 C31 1_555 1_555
H26 C31 1_555 1_555
C32 C23 1_555 1_555
H27 C32 1_555 1_555
H28 C32 1_555 1_555
H29 C32 1_555 1_555
C33 C23 1_555 1_555
H30 C33 1_555 1_555
H31 C33 1_555 1_555
H32 C33 1_555 1_555
H33 N1 1_555 1_555
C8 C10 1_555 1_555
C9 C11 1_555 1_555
C17 C21 1_555 1_555
C17 C25 1_555 1_555
C22 C27 1_555 1_555
C24 C26 1_555 1_555
C28 C29 1_555 1_555

#END
