
#######################################################################
#
#                 Cambridge Crystallographic Data Centre
#                                CCDC 
#
#######################################################################
#
# If this CIF has been generated from an entry in the Cambridge 
# Structural Database, then it will include bibliographic, chemical, 
# crystal, experimental, refinement or atomic coordinate data resulting 
# from the CCDC's data processing and validation procedures.
#
#######################################################################

data_SELHAV
_chemical_formula_moiety         'C117 H88 O8 S4,8(C2 H2 Cl4)'
_chemical_name_systematic        
"6,6'-spiro-bi-(3',9'-di-t-butyl-6'H,10H,10''H-dispiro[thioxanthene-9,12'-diindeno[1,2-b:2',1'-h]fluorene-15',9''-thioxanthene]-10,10,10'',10''-tetrone) 1,1,2,2-tetrachloroethane solvate"
_symmetry_cell_setting           monoclinic
_symmetry_space_group_name_H-M   'C 2/c'
_symmetry_Int_Tables_number      15
_space_group_name_Hall           '-C 2yn'
loop_
_symmetry_equiv_pos_site_id
_symmetry_equiv_pos_as_xyz
1 x,y,z
2 -x,y,1/2-z
3 1/2+x,1/2+y,z
4 1/2-x,1/2+y,1/2-z
5 -x,-y,-z
6 x,-y,1/2+z
7 1/2-x,1/2-y,-z
8 1/2+x,1/2-y,1/2+z
_cell_length_a                   31.7737(8)
_cell_length_b                   18.4299(6)
_cell_length_c                   34.7940(6)
_cell_angle_alpha                90
_cell_angle_beta                 101.028(2)
_cell_angle_gamma                90
_cell_volume                     19998.6
_exptl_crystal_colour            colorless
_exptl_crystal_description       block
_cell_formula_units_Z            4
loop_
_atom_site_label
_atom_site_type_symbol
_atom_site_fract_x
_atom_site_fract_y
_atom_site_fract_z
Cl1 Cl 0.37199(8) 0.61901(15) 0.47454(8)
Cl2 Cl 0.28810(8) 0.66622(16) 0.49138(8)
Cl3 Cl 0.32263(10) 0.83203(16) 0.48500(13)
Cl4 Cl 0.31900(12) 0.73490(18) 0.41636(8)
C1 C 0.3418(3) 0.6925(6) 0.4905(3)
H1 H 0.3559 0.7063 0.5177
C2 C 0.3474(3) 0.7481(6) 0.4660(3)
H2 H 0.3786 0.7561 0.4665
Cl5 Cl 0.22336(10) 0.5170(2) 0.44886(9)
Cl6 Cl 0.27846(12) 0.38928(17) 0.44128(10)
Cl7 Cl 0.24864(12) 0.4978(2) 0.36549(8)
Cl8 Cl 0.33900(13) 0.4927(2) 0.40574(12)
C3 C 0.2787(4) 0.4830(6) 0.4435(3)
H3 H 0.3006 0.4995 0.4664
C4 C 0.2845(8) 0.5200(10) 0.4100(6)
H4 H 0.2837 0.5735 0.4146
Cl9 Cl 0.2490(3) 0.3082(4) 0.5351(2)
Cl10 Cl 0.21817(17) 0.3889(2) 0.59544(10)
Cl11 Cl 0.15757(15) 0.4780(3) 0.52436(16)
Cl12 Cl 0.1479(3) 0.3174(5) 0.52666(17)
C5 C 0.2194(4) 0.3891(7) 0.5456(4)
H5 H 0.2348 0.4335 0.5393
C6 C 0.1824(6) 0.3819(13) 0.5192(4)
H6 H 0.1889 0.3765 0.4924
Cl13 Cl 0.50954(12) 0.4414(3) 0.64988(14)
Cl14 Cl 0.57127(19) 0.5413(4) 0.64207(16)
Cl15 Cl 0.45863(14) 0.5244(4) 0.56149(17)
Cl16 Cl 0.5396(2) 0.4477(5) 0.56250(18)
C7 C 0.5158(5) 0.5125(8) 0.6238(5)
H7 H 0.4977 0.5510 0.6326
C8 C 0.5111(5) 0.5236(12) 0.5796(4)
H8 H 0.5243 0.5707 0.5740
S1 S 0.45611(7) 0.76780(14) 0.54078(6)
S2 S 0.33049(7) 0.51475(14) 0.56892(6)
O1 O 0.4304(2) 0.7174(4) 0.55650(16)
O2 O 0.4438(3) 0.7835(5) 0.49948(19)
O3 O 0.3603(2) 0.5713(4) 0.56597(17)
O4 O 0.3003(3) 0.4983(4) 0.53440(17)
C9 C 0.4600(3) 0.8456(5) 0.5666(2)
C10 C 0.4921(2) 0.8594(5) 0.6014(2)
C11 C 0.5272(2) 0.8059(4) 0.61484(19)
C12 C 0.5393(3) 0.7527(5) 0.5815(2)
C13 C 0.5099(3) 0.7384(6) 0.5495(2)
C14 C 0.5224(5) 0.6895(7) 0.5205(3)
H9 H 0.5021 0.6777 0.4976
C15 C 0.5591(4) 0.6631(8) 0.5251(3)
H10 H 0.5665 0.6329 0.5053
C16 C 0.5894(4) 0.6768(6) 0.5583(3)
H11 H 0.6169 0.6548 0.5621
C17 C 0.5781(3) 0.7243(5) 0.5864(3)
H12 H 0.5987 0.7361 0.6092
C18 C 0.51670(19) 0.7563(4) 0.64795(18)
C19 C 0.54561(18) 0.7733(4) 0.68315(17)
C20 C 0.57595(19) 0.8285(4) 0.67632(18)
C21 C 0.5668(2) 0.8454(5) 0.63647(19)
C22 C 0.5916(2) 0.8969(5) 0.6212(3)
H13 H 0.5856 0.9102 0.5944
C23 C 0.6258(3) 0.9278(5) 0.6478(2)
H14 H 0.6440 0.9609 0.6377
C24 C 0.63513(19) 0.9132(4) 0.6881(2)
C25 C 0.6090(2) 0.8616(4) 0.7019(2)
H15 H 0.6140 0.8495 0.7289
C26 C 0.6731(2) 0.9505(4) 0.7150(2)
C27 C 0.7142(3) 0.9305(5) 0.7011(3)
H16 H 0.7190 0.8780 0.7038
H17 H 0.7385 0.9562 0.7169
H18 H 0.7117 0.9443 0.6735
C28 C 0.6779(3) 0.9256(6) 0.7570(3)
H19 H 0.6513 0.9354 0.7664
H20 H 0.7016 0.9518 0.7733
H21 H 0.6838 0.8734 0.7585
C29 C 0.6656(3) 1.0338(5) 0.7114(3)
H22 H 0.6834 1.0543 0.6940
H23 H 0.6733 1.0563 0.7373
H24 H 0.6353 1.0434 0.7005
C30 C 0.54246(17) 0.7369(3) 0.71872(17)
H25 H 0.5613 0.7472 0.7428
C31 C 0.51009(17) 0.6853(3) 0.71581(16)
C32 C 0.48243(17) 0.6693(3) 0.68138(16)
C33 C 0.48448(17) 0.7045(4) 0.64651(17)
H26 H 0.4650 0.6938 0.6229
C34 C 0.45273(17) 0.6110(3) 0.68842(16)
C35 C 0.41907(18) 0.5762(3) 0.66392(17)
H27 H 0.4108 0.5894 0.6372
C36 C 0.39809(17) 0.5213(3) 0.68012(17)
C37 C 0.35987(19) 0.4744(3) 0.65823(18)
C38 C 0.3734(2) 0.4274(4) 0.6282(2)
C39 C 0.3576(3) 0.4390(5) 0.5879(2)
C40 C 0.3023(3) 0.5372(5) 0.6061(2)
C41 C 0.32071(18) 0.5220(4) 0.64527(19)
C42 C 0.2987(2) 0.5522(4) 0.6741(2)
H28 H 0.3095 0.5460 0.7013
C43 C 0.2609(3) 0.5909(5) 0.6607(3)
H29 H 0.2459 0.6093 0.6797
C44 C 0.2447(3) 0.6038(5) 0.6239(3)
H30 H 0.2188 0.6306 0.6168
C45 C 0.2657(2) 0.5780(5) 0.5955(3)
H31 H 0.2549 0.5883 0.5686
C46 C 0.3701(4) 0.3876(6) 0.5605(2)
H32 H 0.3581 0.3919 0.5334
C47 C 0.3991(3) 0.3324(5) 0.5731(2)
H33 H 0.4081 0.3004 0.5548
C48 C 0.4138(3) 0.3253(5) 0.6111(3)
H34 H 0.4336 0.2873 0.6197
C49 C 0.4020(2) 0.3703(4) 0.6392(2)
H35 H 0.4135 0.3621 0.6661
C50 C 0.35213(19) 0.4265(3) 0.69302(18)
C51 C 0.3805(2) 0.4436(3) 0.72776(18)
C52 C 0.40825(19) 0.5034(3) 0.71898(18)
C53 C 0.44058(18) 0.5393(3) 0.74508(17)
H36 H 0.4474 0.5272 0.7721
C54 C 0.46227(17) 0.5939(3) 0.72901(16)
C55 C 0.5000 0.6388(4) 0.7500
C56 C 0.3792(2) 0.4085(4) 0.76345(19)
H37 H 0.3987 0.4208 0.7868
C57 C 0.3484(2) 0.3555(4) 0.76337(19)
C58 C 0.3209(2) 0.3363(4) 0.7279(2)
H38 H 0.3013 0.2974 0.7279
C59 C 0.3219(2) 0.3729(4) 0.6931(2)
H39 H 0.3021 0.3611 0.6698
C60 C 0.3450(3) 0.3151(5) 0.8007(2)
C61 C 0.2996(4) 0.3322(8) 0.8097(3)
H40 H 0.3028 0.3573 0.8350
H41 H 0.2839 0.2868 0.8109
H42 H 0.2838 0.3633 0.7891
C62 C 0.3789(4) 0.3391(7) 0.8352(3)
H43 H 0.4067 0.3185 0.8328
H44 H 0.3711 0.3221 0.8596
H45 H 0.3809 0.3922 0.8356
C63 C 0.3511(4) 0.2317(6) 0.7962(4)
H46 H 0.3268 0.2121 0.7774
H47 H 0.3525 0.2080 0.8216
H48 H 0.3778 0.2226 0.7868
C64 C 0.4877(2) 0.9197(5) 0.6218(3)
H49 H 0.5078 0.9291 0.6452
C65 C 0.4555(4) 0.9677(6) 0.6100(3)
H50 H 0.4549 1.0098 0.6257
C66 C 0.4245(3) 0.9609(7) 0.5781(5)
H51 H 0.4020 0.9953 0.5716
C67 C 0.4274(3) 0.9003(7) 0.5553(4)
H52 H 0.4075 0.8945 0.5314
S1A S 0.54389(7) 0.76780(14) 0.95922(6)
S2A S 0.66951(7) 0.51475(14) 0.93108(6)
O1A O 0.5696(2) 0.7174(4) 0.94350(16)
O2A O 0.5562(3) 0.7835(5) 1.00052(19)
O3A O 0.6397(2) 0.5713(4) 0.93403(17)
O4A O 0.6997(3) 0.4983(4) 0.96560(17)
C9A C 0.5400(3) 0.8456(5) 0.9334(2)
C10A C 0.5079(2) 0.8594(5) 0.8986(2)
C11A C 0.4728(2) 0.8059(4) 0.88516(19)
C12A C 0.4607(3) 0.7527(5) 0.9185(2)
C13A C 0.4901(3) 0.7384(6) 0.9505(2)
C14A C 0.4776(5) 0.6895(7) 0.9795(3)
H9A H 0.4979 0.6777 1.0024
C15A C 0.4409(4) 0.6631(8) 0.9749(3)
H10A H 0.4335 0.6329 0.9947
C16A C 0.4106(4) 0.6768(6) 0.9417(3)
H11A H 0.3831 0.6548 0.9379
C17A C 0.4219(3) 0.7243(5) 0.9136(3)
H12A H 0.4013 0.7361 0.8908
C18A C 0.48330(19) 0.7563(4) 0.85205(18)
C19A C 0.45439(18) 0.7733(4) 0.81685(17)
C20A C 0.42405(19) 0.8285(4) 0.82368(18)
C21A C 0.4332(2) 0.8454(5) 0.86353(19)
C22A C 0.4084(2) 0.8969(5) 0.8788(3)
H13A H 0.4144 0.9102 0.9056
C23A C 0.3742(3) 0.9278(5) 0.8522(2)
H14A H 0.3560 0.9609 0.8623
C24A C 0.36487(19) 0.9132(4) 0.8119(2)
C25A C 0.3910(2) 0.8616(4) 0.7981(2)
H15A H 0.3860 0.8495 0.7711
C26A C 0.3269(2) 0.9505(4) 0.7850(2)
C27A C 0.2858(3) 0.9305(5) 0.7989(3)
H16A H 0.2810 0.8780 0.7962
H17A H 0.2615 0.9562 0.7831
H18A H 0.2883 0.9443 0.8265
C28A C 0.3221(3) 0.9256(6) 0.7430(3)
H19A H 0.3487 0.9354 0.7336
H20A H 0.2984 0.9518 0.7267
H21A H 0.3162 0.8734 0.7415
C29A C 0.3344(3) 1.0338(5) 0.7886(3)
H22A H 0.3166 1.0543 0.8060
H23A H 0.3267 1.0563 0.7627
H24A H 0.3647 1.0434 0.7995
C30A C 0.45754(17) 0.7369(3) 0.78128(17)
H25A H 0.4387 0.7472 0.7572
C31A C 0.48991(17) 0.6853(3) 0.78419(16)
C32A C 0.51757(17) 0.6693(3) 0.81862(16)
C33A C 0.51552(17) 0.7045(4) 0.85349(17)
H26A H 0.5350 0.6938 0.8771
C34A C 0.54727(17) 0.6110(3) 0.81158(16)
C35A C 0.58093(18) 0.5762(3) 0.83608(17)
H27A H 0.5892 0.5894 0.8628
C36A C 0.60191(17) 0.5213(3) 0.81988(17)
C37A C 0.64013(19) 0.4744(3) 0.84177(18)
C38A C 0.6266(2) 0.4274(4) 0.8718(2)
C39A C 0.6424(3) 0.4390(5) 0.9121(2)
C40A C 0.6977(3) 0.5372(5) 0.8939(2)
C41A C 0.67929(18) 0.5220(4) 0.85473(19)
C42A C 0.7013(2) 0.5522(4) 0.8259(2)
H28A H 0.6905 0.5460 0.7987
C43A C 0.7391(3) 0.5909(5) 0.8393(3)
H29A H 0.7541 0.6093 0.8203
C44A C 0.7553(3) 0.6038(5) 0.8761(3)
H30A H 0.7812 0.6306 0.8832
C45A C 0.7343(2) 0.5780(5) 0.9045(3)
H31A H 0.7451 0.5883 0.9314
C46A C 0.6299(4) 0.3876(6) 0.9395(2)
H32A H 0.6419 0.3919 0.9666
C47A C 0.6009(3) 0.3324(5) 0.9269(2)
H33A H 0.5919 0.3004 0.9452
C48A C 0.5862(3) 0.3253(5) 0.8889(3)
H34A H 0.5664 0.2873 0.8803
C49A C 0.5980(2) 0.3703(4) 0.8608(2)
H35A H 0.5865 0.3621 0.8339
C50A C 0.64787(19) 0.4265(3) 0.80698(18)
C51A C 0.6195(2) 0.4436(3) 0.77224(18)
C52A C 0.59175(19) 0.5034(3) 0.78102(18)
C53A C 0.55942(18) 0.5393(3) 0.75492(17)
H36A H 0.5526 0.5272 0.7279
C54A C 0.53773(17) 0.5939(3) 0.77099(16)
C56A C 0.6208(2) 0.4085(4) 0.73655(19)
H37A H 0.6013 0.4208 0.7132
C57A C 0.6516(2) 0.3555(4) 0.73663(19)
C58A C 0.6791(2) 0.3363(4) 0.7721(2)
H38A H 0.6987 0.2974 0.7721
C59A C 0.6781(2) 0.3729(4) 0.8069(2)
H39A H 0.6979 0.3611 0.8302
C60A C 0.6550(3) 0.3151(5) 0.6993(2)
C61A C 0.7004(4) 0.3322(8) 0.6903(3)
H40A H 0.6972 0.3573 0.6650
H41A H 0.7161 0.2868 0.6891
H42A H 0.7162 0.3633 0.7109
C62A C 0.6211(4) 0.3391(7) 0.6648(3)
H43A H 0.5933 0.3185 0.6672
H44A H 0.6289 0.3221 0.6404
H45A H 0.6191 0.3922 0.6644
C63A C 0.6489(4) 0.2317(6) 0.7038(4)
H46A H 0.6732 0.2121 0.7226
H47A H 0.6475 0.2080 0.6784
H48A H 0.6222 0.2226 0.7132
C64A C 0.5123(2) 0.9197(5) 0.8782(3)
H49A H 0.4922 0.9291 0.8548
C65A C 0.5445(4) 0.9677(6) 0.8900(3)
H50A H 0.5451 1.0098 0.8743
C66A C 0.5755(3) 0.9609(7) 0.9219(5)
H51A H 0.5980 0.9953 0.9284
C67A C 0.5726(3) 0.9003(7) 0.9447(4)
H52A H 0.5925 0.8945 0.9686
loop_
_geom_bond_atom_site_label_1
_geom_bond_atom_site_label_2
_geom_bond_site_symmetry_1
_geom_bond_site_symmetry_2
Cl1 C1 1_555 1_555
Cl2 C1 1_555 1_555
Cl3 C2 1_555 1_555
Cl4 C2 1_555 1_555
C1 H1 1_555 1_555
C2 C1 1_555 1_555
H2 C2 1_555 1_555
Cl5 C3 1_555 1_555
Cl6 C3 1_555 1_555
Cl7 C4 1_555 1_555
Cl8 C4 1_555 1_555
C3 H3 1_555 1_555
C4 C3 1_555 1_555
H4 C4 1_555 1_555
Cl9 C5 1_555 1_555
Cl10 C5 1_555 1_555
Cl11 C6 1_555 1_555
Cl12 C6 1_555 1_555
C5 H5 1_555 1_555
C6 C5 1_555 1_555
H6 C6 1_555 1_555
Cl13 C7 1_555 1_555
Cl14 C7 1_555 1_555
Cl15 C8 1_555 1_555
Cl16 C8 1_555 1_555
C7 H7 1_555 1_555
C8 C7 1_555 1_555
H8 C8 1_555 1_555
S1 O1 1_555 1_555
S2 O3 1_555 1_555
O2 S1 1_555 1_555
O4 S2 1_555 1_555
C9 S1 1_555 1_555
C10 C9 1_555 1_555
C11 C10 1_555 1_555
C12 C11 1_555 1_555
C13 S1 1_555 1_555
C14 C13 1_555 1_555
H9 C14 1_555 1_555
C15 C14 1_555 1_555
H10 C15 1_555 1_555
C16 C15 1_555 1_555
H11 C16 1_555 1_555
C17 C12 1_555 1_555
H12 C17 1_555 1_555
C18 C11 1_555 1_555
C19 C18 1_555 1_555
C20 C19 1_555 1_555
C21 C11 1_555 1_555
C22 C21 1_555 1_555
H13 C22 1_555 1_555
C23 C22 1_555 1_555
H14 C23 1_555 1_555
C24 C23 1_555 1_555
C25 C20 1_555 1_555
H15 C25 1_555 1_555
C26 C24 1_555 1_555
C27 C26 1_555 1_555
H16 C27 1_555 1_555
H17 C27 1_555 1_555
H18 C27 1_555 1_555
C28 C26 1_555 1_555
H19 C28 1_555 1_555
H20 C28 1_555 1_555
H21 C28 1_555 1_555
C29 C26 1_555 1_555
H22 C29 1_555 1_555
H23 C29 1_555 1_555
H24 C29 1_555 1_555
C30 C19 1_555 1_555
H25 C30 1_555 1_555
C31 C30 1_555 1_555
C32 C31 1_555 1_555
C33 C18 1_555 1_555
H26 C33 1_555 1_555
C34 C32 1_555 1_555
C35 C34 1_555 1_555
H27 C35 1_555 1_555
C36 C35 1_555 1_555
C37 C36 1_555 1_555
C38 C37 1_555 1_555
C39 S2 1_555 1_555
C40 S2 1_555 1_555
C41 C37 1_555 1_555
C42 C41 1_555 1_555
H28 C42 1_555 1_555
C43 C42 1_555 1_555
H29 C43 1_555 1_555
C44 C43 1_555 1_555
H30 C44 1_555 1_555
C45 C40 1_555 1_555
H31 C45 1_555 1_555
C46 C39 1_555 1_555
H32 C46 1_555 1_555
C47 C46 1_555 1_555
H33 C47 1_555 1_555
C48 C47 1_555 1_555
H34 C48 1_555 1_555
C49 C38 1_555 1_555
H35 C49 1_555 1_555
C50 C37 1_555 1_555
C51 C50 1_555 1_555
C52 C36 1_555 1_555
C53 C52 1_555 1_555
H36 C53 1_555 1_555
C54 C34 1_555 1_555
C55 C31 1_555 1_555
C56 C51 1_555 1_555
H37 C56 1_555 1_555
C57 C56 1_555 1_555
C58 C57 1_555 1_555
H38 C58 1_555 1_555
C59 C50 1_555 1_555
H39 C59 1_555 1_555
C60 C57 1_555 1_555
C61 C60 1_555 1_555
H40 C61 1_555 1_555
H41 C61 1_555 1_555
H42 C61 1_555 1_555
C62 C60 1_555 1_555
H43 C62 1_555 1_555
H44 C62 1_555 1_555
H45 C62 1_555 1_555
C63 C60 1_555 1_555
H46 C63 1_555 1_555
H47 C63 1_555 1_555
H48 C63 1_555 1_555
C64 C10 1_555 1_555
H49 C64 1_555 1_555
C65 C64 1_555 1_555
H50 C65 1_555 1_555
C66 C65 1_555 1_555
H51 C66 1_555 1_555
C67 C9 1_555 1_555
H52 C67 1_555 1_555
S1A O1A 1_555 1_555
S2A O3A 1_555 1_555
O2A S1A 1_555 1_555
O4A S2A 1_555 1_555
C9A S1A 1_555 1_555
C10A C9A 1_555 1_555
C11A C10A 1_555 1_555
C12A C11A 1_555 1_555
C13A S1A 1_555 1_555
C14A C13A 1_555 1_555
H9A C14A 1_555 1_555
C15A C14A 1_555 1_555
H10A C15A 1_555 1_555
C16A C15A 1_555 1_555
H11A C16A 1_555 1_555
C17A C12A 1_555 1_555
H12A C17A 1_555 1_555
C18A C11A 1_555 1_555
C19A C18A 1_555 1_555
C20A C19A 1_555 1_555
C21A C11A 1_555 1_555
C22A C21A 1_555 1_555
H13A C22A 1_555 1_555
C23A C22A 1_555 1_555
H14A C23A 1_555 1_555
C24A C23A 1_555 1_555
C25A C20A 1_555 1_555
H15A C25A 1_555 1_555
C26A C24A 1_555 1_555
C27A C26A 1_555 1_555
H16A C27A 1_555 1_555
H17A C27A 1_555 1_555
H18A C27A 1_555 1_555
C28A C26A 1_555 1_555
H19A C28A 1_555 1_555
H20A C28A 1_555 1_555
H21A C28A 1_555 1_555
C29A C26A 1_555 1_555
H22A C29A 1_555 1_555
H23A C29A 1_555 1_555
H24A C29A 1_555 1_555
C30A C19A 1_555 1_555
H25A C30A 1_555 1_555
C31A C55 1_555 1_555
C32A C31A 1_555 1_555
C33A C18A 1_555 1_555
H26A C33A 1_555 1_555
C34A C32A 1_555 1_555
C35A C34A 1_555 1_555
H27A C35A 1_555 1_555
C36A C35A 1_555 1_555
C37A C36A 1_555 1_555
C38A C37A 1_555 1_555
C39A S2A 1_555 1_555
C40A S2A 1_555 1_555
C41A C37A 1_555 1_555
C42A C41A 1_555 1_555
H28A C42A 1_555 1_555
C43A C42A 1_555 1_555
H29A C43A 1_555 1_555
C44A C43A 1_555 1_555
H30A C44A 1_555 1_555
C45A C40A 1_555 1_555
H31A C45A 1_555 1_555
C46A C39A 1_555 1_555
H32A C46A 1_555 1_555
C47A C46A 1_555 1_555
H33A C47A 1_555 1_555
C48A C47A 1_555 1_555
H34A C48A 1_555 1_555
C49A C38A 1_555 1_555
H35A C49A 1_555 1_555
C50A C37A 1_555 1_555
C51A C50A 1_555 1_555
C52A C36A 1_555 1_555
C53A C52A 1_555 1_555
H36A C53A 1_555 1_555
C54A C55 1_555 1_555
C56A C51A 1_555 1_555
H37A C56A 1_555 1_555
C57A C56A 1_555 1_555
C58A C57A 1_555 1_555
H38A C58A 1_555 1_555
C59A C50A 1_555 1_555
H39A C59A 1_555 1_555
C60A C57A 1_555 1_555
C61A C60A 1_555 1_555
H40A C61A 1_555 1_555
H41A C61A 1_555 1_555
H42A C61A 1_555 1_555
C62A C60A 1_555 1_555
H43A C62A 1_555 1_555
H44A C62A 1_555 1_555
H45A C62A 1_555 1_555
C63A C60A 1_555 1_555
H46A C63A 1_555 1_555
H47A C63A 1_555 1_555
H48A C63A 1_555 1_555
C64A C10A 1_555 1_555
H49A C64A 1_555 1_555
C65A C64A 1_555 1_555
H50A C65A 1_555 1_555
C66A C65A 1_555 1_555
H51A C66A 1_555 1_555
C67A C9A 1_555 1_555
H52A C67A 1_555 1_555
C12 C13 1_555 1_555
C16 C17 1_555 1_555
C20 C21 1_555 1_555
C24 C25 1_555 1_555
C32 C33 1_555 1_555
C38 C39 1_555 1_555
C40 C41 1_555 1_555
C44 C45 1_555 1_555
C48 C49 1_555 1_555
C51 C52 1_555 1_555
C53 C54 1_555 1_555
C54 C55 1_555 1_555
C58 C59 1_555 1_555
C66 C67 1_555 1_555
C12A C13A 1_555 1_555
C16A C17A 1_555 1_555
C20A C21A 1_555 1_555
C24A C25A 1_555 1_555
C30A C31A 1_555 1_555
C32A C33A 1_555 1_555
C34A C54A 1_555 1_555
C38A C39A 1_555 1_555
C40A C41A 1_555 1_555
C44A C45A 1_555 1_555
C48A C49A 1_555 1_555
C51A C52A 1_555 1_555
C53A C54A 1_555 1_555
C58A C59A 1_555 1_555
C66A C67A 1_555 1_555

#END
