
#######################################################################
#
#                 Cambridge Crystallographic Data Centre
#                                CCDC 
#
#######################################################################
#
# If this CIF has been generated from an entry in the Cambridge 
# Structural Database, then it will include bibliographic, chemical, 
# crystal, experimental, refinement or atomic coordinate data resulting 
# from the CCDC's data processing and validation procedures.
#
#######################################################################

data_SELROS
_chemical_formula_moiety         'C23 H21 N1 O3'
_chemical_name_systematic        
6,6-Dimethyl-3-(4-methylphenyl)-2-(pyridin-2-ylcarbonyl)-6,7-dihydro-1-benzofuran-4(5H)-one
_symmetry_cell_setting           monoclinic
_symmetry_space_group_name_H-M   'P 21/c'
_symmetry_Int_Tables_number      14
_space_group_name_Hall           '-P 2ybc'
loop_
_symmetry_equiv_pos_site_id
_symmetry_equiv_pos_as_xyz
1 x,y,z
2 -x,1/2+y,1/2-z
3 -x,-y,-z
4 x,1/2-y,1/2+z
_cell_length_a                   18.5722(6)
_cell_length_b                   6.3147(3)
_cell_length_c                   16.7573(7)
_cell_angle_alpha                90
_cell_angle_beta                 93.197(3)
_cell_angle_gamma                90
_cell_volume                     1962.2
_cell_formula_units_Z            4
loop_
_atom_site_label
_atom_site_type_symbol
_atom_site_fract_x
_atom_site_fract_y
_atom_site_fract_z
O1 O 0.39089(6) 0.0468(3) 0.20563(8)
O2 O 0.20768(6) 0.3737(3) 0.32977(8)
N1 N 0.23536(9) -0.1475(3) 0.03465(10)
C1 C 0.30076(8) 0.2192(3) 0.25973(11)
O3 O 0.39407(8) -0.3224(3) 0.12841(11)
C2 C 0.19143(9) 0.0037(3) 0.19594(11)
C3 C 0.26912(9) 0.0548(3) 0.20929(11)
C4 C 0.37355(9) 0.2081(4) 0.25399(11)
C5 C 0.33652(10) -0.2284(4) 0.12546(12)
C6 C 0.27074(9) 0.3718(3) 0.31387(11)
C7 C 0.40133(10) 0.4497(4) 0.36683(12)
C8 C 0.32622(9) -0.0456(4) 0.17689(11)
C9 C 0.14350(10) 0.1554(4) 0.16589(13)
H1 H 0.1592 0.2933 0.1581
C10 C 0.16518(10) -0.1960(4) 0.21037(14)
H2 H 0.1962 -0.2992 0.2321
C11 C 0.42990(9) 0.3443(4) 0.29187(12)
H3 H 0.4436 0.4523 0.2544
H4 H 0.4723 0.2602 0.3067
C12 C 0.27692(10) -0.2984(3) 0.06846(11)
C13 C 0.04642(10) -0.0982(4) 0.16021(15)
C14 C 0.18429(13) -0.2122(5) -0.01918(14)
H5 H 0.1549 -0.1103 -0.0444
C15 C 0.09360(11) -0.2452(4) 0.19304(16)
H6 H 0.0771 -0.3806 0.2039
C16 C 0.32469(10) 0.5331(4) 0.34709(13)
H7 H 0.3065 0.5928 0.3954
H8 H 0.3275 0.6472 0.3086
C17 C 0.07223(11) 0.1026(4) 0.14744(15)
H9 H 0.0410 0.2054 0.1259
C18 C 0.45019(13) 0.6358(4) 0.39246(17)
H10 H 0.4509 0.7368 0.3497
H11 H 0.4982 0.5850 0.4050
H12 H 0.4321 0.7023 0.4388
C19 C 0.26898(14) -0.5110(4) 0.05109(14)
H13 H 0.2993 -0.6109 0.0762
C20 C 0.40027(13) 0.2881(5) 0.43468(14)
H14 H 0.3815 0.3535 0.4809
H15 H 0.4484 0.2387 0.4475
H16 H 0.3702 0.1706 0.4182
C21 C 0.21553(16) -0.5723(5) -0.00401(17)
H17 H 0.2087 -0.7144 -0.0169
C22 C 0.17275(15) -0.4202(5) -0.03933(16)
H18 H 0.1360 -0.4570 -0.0768
C23 C -0.03132(13) -0.1575(6) 0.1374(2)
H19 H -0.0628 -0.0488 0.1552
H20 H -0.0427 -0.2894 0.1623
H21 H -0.0376 -0.1718 0.0804
loop_
_geom_bond_atom_site_label_1
_geom_bond_atom_site_label_2
_geom_bond_site_symmetry_1
_geom_bond_site_symmetry_2
O1 C4 1_555 1_555
O2 C6 1_555 1_555
N1 C12 1_555 1_555
C1 C3 1_555 1_555
O3 C5 1_555 1_555
C2 C3 1_555 1_555
C3 C8 1_555 1_555
C4 C1 1_555 1_555
C5 C8 1_555 1_555
C6 C1 1_555 1_555
C7 C11 1_555 1_555
C8 O1 1_555 1_555
C9 C2 1_555 1_555
H1 C9 1_555 1_555
C10 C2 1_555 1_555
H2 C10 1_555 1_555
C11 C4 1_555 1_555
H3 C11 1_555 1_555
H4 C11 1_555 1_555
C12 C5 1_555 1_555
C13 C15 1_555 1_555
C14 N1 1_555 1_555
H5 C14 1_555 1_555
C15 C10 1_555 1_555
H6 C15 1_555 1_555
C16 C6 1_555 1_555
H7 C16 1_555 1_555
H8 C16 1_555 1_555
C17 C9 1_555 1_555
H9 C17 1_555 1_555
C18 C7 1_555 1_555
H10 C18 1_555 1_555
H11 C18 1_555 1_555
H12 C18 1_555 1_555
C19 C12 1_555 1_555
H13 C19 1_555 1_555
C20 C7 1_555 1_555
H14 C20 1_555 1_555
H15 C20 1_555 1_555
H16 C20 1_555 1_555
C21 C19 1_555 1_555
H17 C21 1_555 1_555
C22 C14 1_555 1_555
H18 C22 1_555 1_555
C23 C13 1_555 1_555
H19 C23 1_555 1_555
H20 C23 1_555 1_555
H21 C23 1_555 1_555
C7 C16 1_555 1_555
C13 C17 1_555 1_555
C21 C22 1_555 1_555

#END
