
#######################################################################
#
#                 Cambridge Crystallographic Data Centre
#                                CCDC 
#
#######################################################################
#
# If this CIF has been generated from an entry in the Cambridge 
# Structural Database, then it will include bibliographic, chemical, 
# crystal, experimental, refinement or atomic coordinate data resulting 
# from the CCDC's data processing and validation procedures.
#
#######################################################################

data_SELWEM01
_chemical_name_common            
5,10,15-tris((Cyano)(ethoxycarbonyl)methylene)truxene
_chemical_formula_moiety         'C42 H27 N3 O6'
_chemical_name_systematic        
5,10,15-tris((Cyano)(ethoxycarbonyl)methylene)-10,15-dihydro-5H-indeno[1,2-a:1',2'-c]fluorene
_symmetry_cell_setting           monoclinic
_symmetry_space_group_name_H-M   'P 21/n'
_symmetry_Int_Tables_number      14
_space_group_name_Hall           '-P 2yn'
loop_
_symmetry_equiv_pos_site_id
_symmetry_equiv_pos_as_xyz
1 x,y,z
2 1/2-x,1/2+y,1/2-z
3 -x,-y,-z
4 1/2+x,1/2-y,1/2+z
_cell_length_a                   9.4420(19)
_cell_length_b                   14.643(3)
_cell_length_c                   23.704(5)
_cell_angle_alpha                90
_cell_angle_beta                 93.98(3)
_cell_angle_gamma                90
_cell_volume                     3269.39
_exptl_crystal_colour            red
_exptl_crystal_description       'thin plate'
_chemical_melting_point          272deg.C
_cell_formula_units_Z            4
_exptl_crystal_recrystallization_method ethanol/dichloromethane
_exptl_crystal_preparation       'n-type semiconductor'
loop_
_atom_site_label
_atom_site_type_symbol
_atom_site_fract_x
_atom_site_fract_y
_atom_site_fract_z
O1 O 0.5212(3) 0.89447(14) 0.27013(11)
O2 O 0.2586(3) 0.54805(17) 0.43125(11)
O3 O 0.2320(3) 0.61572(16) 0.34642(12)
N1 N 0.7451(3) 0.97999(19) 0.11075(14)
N2 N 0.5161(4) 0.6595(2) 0.50867(14)
C1 C 0.3521(3) 0.49745(19) 0.18524(15)
C2 C 0.4364(3) 0.57608(19) 0.20815(14)
C3 C 0.4508(3) 0.5673(2) 0.26797(14)
C4 C 0.4036(3) 0.4748(2) 0.28197(15)
C5 C 0.4152(3) 0.4270(2) 0.33275(15)
H1 H 0.4539 0.4556 0.3663
C6 C 0.3692(4) 0.3367(2) 0.33378(16)
H2 H 0.3763 0.3035 0.3683
C7 C 0.3136(4) 0.2954(2) 0.28504(17)
H3 H 0.2812 0.2341 0.2867
C8 C 0.3035(3) 0.3407(2) 0.23346(15)
H4 H 0.2656 0.3111 0.2001
C9 C 0.3506(3) 0.4311(2) 0.23202(14)
C10 C 0.6335(3) 0.7845(2) 0.17837(14)
C11 C 0.5764(3) 0.7159(2) 0.21635(15)
C12 C 0.5081(3) 0.6463(2) 0.18216(14)
C13 C 0.5549(3) 0.6579(2) 0.12444(14)
C14 C 0.5449(4) 0.6012(2) 0.07770(15)
H5 H 0.4883 0.5476 0.0777
C15 C 0.6180(4) 0.6231(2) 0.03075(15)
H6 H 0.6113 0.5837 -0.0012
C16 C 0.7004(4) 0.7011(2) 0.02941(15)
H7 H 0.7495 0.7151 -0.0032
C17 C 0.7110(4) 0.7589(2) 0.07615(15)
H8 H 0.7675 0.8126 0.0756
C18 C 0.6389(3) 0.7380(2) 0.12338(15)
C19 C 0.5443(4) 0.64549(18) 0.36240(14)
C20 C 0.5167(3) 0.6344(2) 0.30063(14)
C21 C 0.5930(4) 0.7054(2) 0.27415(15)
C22 C 0.6972(4) 0.7421(2) 0.31765(15)
C23 C 0.8153(4) 0.7972(2) 0.31314(16)
H9 H 0.8306 0.8275 0.2787
C24 C 0.9105(4) 0.8071(2) 0.35987(18)
H10 H 0.9919 0.8446 0.3571
C25 C 0.8899(4) 0.7636(2) 0.41044(16)
H11 H 0.9578 0.7702 0.4417
C26 C 0.7700(4) 0.7103(2) 0.41552(16)
H12 H 0.7538 0.6812 0.4503
C27 C 0.6750(4) 0.7005(2) 0.36913(16)
C28 C 0.2732(4) 0.4924(2) 0.13545(15)
O4 O 0.1991(3) 0.54085(15) 0.04536(11)
O5 O 0.2280(3) 0.6455(2) 0.11433(14)
N3 N 0.1657(5) 0.3368(3) 0.10024(19)
C29 C 0.2148(7) 0.4025(5) 0.1165(2)
C30 C 0.2362(4) 0.5713(2) 0.09868(16)
C31 C 0.1512(4) 0.6121(2) 0.00486(17)
H13 H 0.0551 0.6337 0.0126
H14 H 0.2171 0.6648 0.0073
C32 C 0.1497(7) 0.5696(4) -0.0511(3)
H15 H 0.1177 0.6143 -0.0800
H16 H 0.0849 0.5173 -0.0527
H17 H 0.2456 0.5488 -0.0581
C33 C 0.6512(3) 0.8755(2) 0.18763(15)
C34 C 0.7033(4) 0.9331(2) 0.14452(16)
C35 C 0.5930(4) 0.9248(3) 0.23614(18)
C36 C 0.4538(4) 0.6273(2) 0.40238(15)
C37 C 0.4904(4) 0.6458(2) 0.46166(17)
C38 C 0.3020(4) 0.5971(2) 0.38893(19)
C39 C 0.1163(4) 0.5078(3) 0.42122(19)
H18 H 0.0431 0.5515 0.4323
H19 H 0.0975 0.4931 0.3806
C40 C 0.1115(5) 0.4258(3) 0.4546(2)
H20 H 0.0177 0.3975 0.4484
H21 H 0.1291 0.4412 0.4947
H22 H 0.1844 0.3832 0.4434
O6 O 0.5943(11) 1.0191(3) 0.2231(3)
C41 C 0.5106(11) 1.0799(7) 0.2581(4)
H23 H 0.4155 1.0533 0.2622
H24 H 0.4982 1.1403 0.2397
C42 C 0.5902(11) 1.0905(9) 0.3164(5)
H25 H 0.5351 1.1297 0.3403
H26 H 0.6832 1.1184 0.3120
H27 H 0.6031 1.0304 0.3341
O7? O 0.6878(14) 0.9945(6) 0.2524(5)
C43? C 0.6445(18) 1.0488(10) 0.3010(7)
H28? H 0.6112 1.0082 0.3308
H29? H 0.7250 1.0857 0.3174
C44? C 0.534(2) 1.1053(14) 0.2794(10)
H30? H 0.4999 1.1423 0.3100
H31? H 0.4566 1.0676 0.2627
H32? H 0.5695 1.1454 0.2504
O8? O 0.0563(14) 0.4690(8) 0.0871(5)
N4? N 0.2400(16) 0.6639(10) 0.0862(7)
O9? O 0.223(2) 0.3501(12) 0.1012(7)
C45? C 0.2362(4) 0.5713(2) 0.09868(16)
C46? C 0.186(2) 0.4302(14) 0.1113(9)
C47? C -0.047(2) 0.4014(13) 0.0573(9)
H33? H -0.0226 0.3886 0.0181
H34? H -0.0525 0.3435 0.0785
C48? C -0.174(4) 0.455(2) 0.0591(19)
H35? H -0.2562 0.4190 0.0449
H36? H -0.1665 0.5098 0.0354
H37? H -0.1864 0.4740 0.0982
loop_
_geom_bond_atom_site_label_1
_geom_bond_atom_site_label_2
_geom_bond_site_symmetry_1
_geom_bond_site_symmetry_2
O1 C35 1_555 1_555
O2 C38 1_555 1_555
O3 C38 1_555 1_555
N1 C34 1_555 1_555
N2 C37 1_555 1_555
C1 C2 1_555 1_555
C2 C3 1_555 1_555
C3 C4 1_555 1_555
C4 C5 1_555 1_555
C5 H1 1_555 1_555
C6 C5 1_555 1_555
H2 C6 1_555 1_555
C7 C6 1_555 1_555
H3 C7 1_555 1_555
C8 C7 1_555 1_555
H4 C8 1_555 1_555
C9 C1 1_555 1_555
C10 C11 1_555 1_555
C11 C12 1_555 1_555
C12 C2 1_555 1_555
C13 C12 1_555 1_555
C14 C13 1_555 1_555
H5 C14 1_555 1_555
C15 C14 1_555 1_555
H6 C15 1_555 1_555
C16 C15 1_555 1_555
H7 C16 1_555 1_555
C17 C16 1_555 1_555
H8 C17 1_555 1_555
C18 C10 1_555 1_555
C19 C20 1_555 1_555
C20 C3 1_555 1_555
C21 C11 1_555 1_555
C22 C21 1_555 1_555
C23 C22 1_555 1_555
H9 C23 1_555 1_555
C24 C23 1_555 1_555
H10 C24 1_555 1_555
C25 C24 1_555 1_555
H11 C25 1_555 1_555
C26 C25 1_555 1_555
H12 C26 1_555 1_555
C27 C19 1_555 1_555
C28 C1 1_555 1_555
O4 C30 1_555 1_555
O5 C30 1_555 1_555
N3 C29 1_555 1_555
C29 C28 1_555 1_555
C30 C28 1_555 1_555
C31 O4 1_555 1_555
H13 C31 1_555 1_555
H14 C31 1_555 1_555
C32 C31 1_555 1_555
H15 C32 1_555 1_555
H16 C32 1_555 1_555
H17 C32 1_555 1_555
C33 C10 1_555 1_555
C34 C33 1_555 1_555
C35 C33 1_555 1_555
C36 C19 1_555 1_555
C37 C36 1_555 1_555
C38 C36 1_555 1_555
C39 O2 1_555 1_555
H18 C39 1_555 1_555
H19 C39 1_555 1_555
C40 C39 1_555 1_555
H20 C40 1_555 1_555
H21 C40 1_555 1_555
H22 C40 1_555 1_555
O6 C35 1_555 1_555
C41 O6 1_555 1_555
H23 C41 1_555 1_555
H24 C41 1_555 1_555
C42 C41 1_555 1_555
H25 C42 1_555 1_555
H26 C42 1_555 1_555
H27 C42 1_555 1_555
C4 C9 1_555 1_555
C8 C9 1_555 1_555
C13 C18 1_555 1_555
C17 C18 1_555 1_555
C20 C21 1_555 1_555
C22 C27 1_555 1_555
C26 C27 1_555 1_555

#END
