
#######################################################################
#
#                 Cambridge Crystallographic Data Centre
#                                CCDC 
#
#######################################################################
#
# If this CIF has been generated from an entry in the Cambridge 
# Structural Database, then it will include bibliographic, chemical, 
# crystal, experimental, refinement or atomic coordinate data resulting 
# from the CCDC's data processing and validation procedures.
#
#######################################################################

data_SEMBOE
_chemical_formula_moiety         'C21 H22 N2 O4'
_chemical_name_systematic        
'ethyl 6-methoxy-4-((4-methoxyphenyl)amino)-2-methylquinoline-3-carboxylate'
_symmetry_cell_setting           monoclinic
_symmetry_space_group_name_H-M   'P 21/n'
_symmetry_Int_Tables_number      14
_space_group_name_Hall           '-P 2yn'
loop_
_symmetry_equiv_pos_site_id
_symmetry_equiv_pos_as_xyz
1 x,y,z
2 1/2-x,1/2+y,1/2-z
3 -x,-y,-z
4 1/2+x,1/2-y,1/2+z
_cell_length_a                   9.8293(14)
_cell_length_b                   7.6353(11)
_cell_length_c                   25.103(4)
_cell_angle_alpha                90
_cell_angle_beta                 95.645(3)
_cell_angle_gamma                90
_cell_volume                     1874.84
_exptl_crystal_colour            colorless
_exptl_crystal_description       block
_cell_formula_units_Z            4
loop_
_atom_site_label
_atom_site_type_symbol
_atom_site_fract_x
_atom_site_fract_y
_atom_site_fract_z
C1 C -0.0031(2) 0.3814(3) 0.26057(9)
C2 C 0.0022(3) -0.0838(3) 0.10001(9)
C3 C 0.0721(3) 0.0457(3) 0.20310(9)
C4 C -0.0003(3) 0.3461(3) 0.42531(10)
H1 H -0.0353 0.4382 0.4440
C5 C 0.1368(3) -0.0750(3) 0.12030(10)
H2 H 0.2050 -0.1132 0.0999
C6 C 0.0501(2) 0.2139(3) 0.34148(9)
C7 C -0.0571(2) 0.5149(3) 0.29178(10)
C8 C 0.1708(3) -0.0089(3) 0.17144(9)
H3 H 0.2624 -0.0013 0.1846
C9 C -0.0638(3) 0.0363(3) 0.18226(9)
H4 H -0.1321 0.0718 0.2030
C10 C 0.1049(3) 0.0624(3) 0.42525(9)
C11 C 0.1026(3) 0.0657(3) 0.37052(9)
H5 H 0.1356 -0.0293 0.3525
C12 C 0.0511(2) 0.2295(3) 0.28441(9)
C13 C -0.0037(3) 0.3560(3) 0.36900(9)
C14 C 0.0149(3) 0.4181(3) 0.20325(10)
C15 C -0.0996(3) 0.4583(3) 0.11666(9)
H6 H -0.0488 0.3650 0.1014
H7 H -0.0549 0.5688 0.1106
C16 C -0.0984(3) -0.0250(3) 0.13113(10)
H8 H -0.1897 -0.0272 0.1173
C17 C 0.0532(3) 0.2044(3) 0.45267(10)
H9 H 0.0556 0.2014 0.4898
C18 C -0.1074(3) 0.6841(3) 0.26632(10)
H10 H -0.1399 0.7591 0.2930
H11 H -0.1805 0.6604 0.2390
H12 H -0.0338 0.7409 0.2506
C19 C 0.0556(3) -0.2277(3) 0.02002(11)
H13 H 0.0120 -0.2681 -0.0136
H14 H 0.0974 -0.3249 0.0396
H15 H 0.1243 -0.1428 0.0138
C20 C 0.2037(3) -0.2238(3) 0.43158(10)
H16 H 0.2357 -0.3086 0.4581
H17 H 0.2773 -0.1910 0.4112
H18 H 0.1307 -0.2734 0.4081
C21 C -0.2441(3) 0.4611(5) 0.09155(12)
H19 H -0.2449 0.4803 0.0537
H20 H -0.2931 0.5539 0.1071
H21 H -0.2871 0.3511 0.0978
N1 N -0.0570(2) 0.5041(3) 0.34435(8)
N2 N 0.1092(2) 0.0972(3) 0.25674(8)
O1 O -0.10493(17) 0.4292(2) 0.17355(6)
O2 O -0.04376(18) -0.1493(2) 0.05021(6)
O3 O 0.12420(18) 0.4382(2) 0.18604(7)
O4 O 0.15509(19) -0.0725(2) 0.45727(6)
H22 H 0.177(3) 0.044(3) 0.2735(10)
loop_
_geom_bond_atom_site_label_1
_geom_bond_atom_site_label_2
_geom_bond_site_symmetry_1
_geom_bond_site_symmetry_2
C1 C7 1_555 1_555
C2 C5 1_555 1_555
C3 C8 1_555 1_555
C4 H1 1_555 1_555
C5 H2 1_555 1_555
C6 C11 1_555 1_555
C7 C18 1_555 1_555
C8 C5 1_555 1_555
H3 C8 1_555 1_555
C9 C3 1_555 1_555
H4 C9 1_555 1_555
C10 C11 1_555 1_555
C11 H5 1_555 1_555
C12 C1 1_555 1_555
C13 C4 1_555 1_555
C14 C1 1_555 1_555
C15 H6 1_555 1_555
H7 C15 1_555 1_555
C16 C2 1_555 1_555
H8 C16 1_555 1_555
C17 C4 1_555 1_555
H9 C17 1_555 1_555
C18 H10 1_555 1_555
H11 C18 1_555 1_555
H12 C18 1_555 1_555
C19 H13 1_555 1_555
H14 C19 1_555 1_555
H15 C19 1_555 1_555
C20 H16 1_555 1_555
H17 C20 1_555 1_555
H18 C20 1_555 1_555
C21 C15 1_555 1_555
H19 C21 1_555 1_555
H20 C21 1_555 1_555
H21 C21 1_555 1_555
N1 C7 1_555 1_555
N2 C3 1_555 1_555
O1 C14 1_555 1_555
O2 C2 1_555 1_555
O3 C14 1_555 1_555
O4 C10 1_555 1_555
H22 N2 1_555 1_555
C6 C12 1_555 1_555
C6 C13 1_555 1_555
C9 C16 1_555 1_555
C10 C17 1_555 1_555
C12 N2 1_555 1_555
C13 N1 1_555 1_555
C15 O1 1_555 1_555
C19 O2 1_555 1_555
C20 O4 1_555 1_555

#END
