
#######################################################################
#
#                 Cambridge Crystallographic Data Centre
#                                CCDC 
#
#######################################################################
#
# If this CIF has been generated from an entry in the Cambridge 
# Structural Database, then it will include bibliographic, chemical, 
# crystal, experimental, refinement or atomic coordinate data resulting 
# from the CCDC's data processing and validation procedures.
#
#######################################################################

data_SEMNOP01
_chemical_formula_moiety         'C80 H40 Cl10,3(C1 H2 Cl2)'
_chemical_name_systematic        
'1,2,3,4,5,6,7,8,9,10-decakis(4-Chlorophenyl)corannulene dichloromethane solvate'
_symmetry_cell_setting           monoclinic
_symmetry_space_group_name_H-M   'C 2/c'
_symmetry_Int_Tables_number      15
_space_group_name_Hall           '-C 2yn'
loop_
_symmetry_equiv_pos_site_id
_symmetry_equiv_pos_as_xyz
1 x,y,z
2 -x,y,1/2-z
3 1/2+x,1/2+y,z
4 1/2-x,1/2+y,1/2-z
5 -x,-y,-z
6 x,-y,1/2+z
7 1/2-x,1/2-y,-z
8 1/2+x,1/2-y,1/2+z
_cell_length_a                   16.4301(17)
_cell_length_b                   28.4103(17)
_cell_length_c                   16.7336(12)
_cell_angle_alpha                90
_cell_angle_beta                 112.309(1)
_cell_angle_gamma                90
_cell_volume                     7226.33
_exptl_crystal_colour            colorless
_exptl_crystal_description       block
_cell_formula_units_Z            4
_exptl_crystal_recrystallization_method dichloromethane/hexane
loop_
_atom_site_label
_atom_site_type_symbol
_atom_site_fract_x
_atom_site_fract_y
_atom_site_fract_z
C44 C 0.6108(3) 0.92532(18) 0.0639(3)
H21 H 0.6094 0.9134 0.0077
H22 H 0.5783 0.9555 0.0532
Cl6 Cl 0.55861(10) 0.88470(6) 0.10732(16)
Cl7 Cl 0.71979(10) 0.93509(5) 0.13273(9)
C45 C 1.0000 0.4910(4) 0.2500
H23 H 0.9475 0.4704 0.2312
Cl8 Cl 0.9985(3) 0.52318(15) 0.1630(3)
H23A H 1.0525 0.4704 0.2688
Cl8A Cl 1.0015(3) 0.52318(15) 0.3370(3)
Cl1 Cl 1.05902(7) 0.64059(2) 0.16930(6)
Cl2 Cl 1.36260(7) 0.79322(3) 0.03973(7)
Cl3 Cl 0.65552(8) 0.93611(5) 0.57779(8)
Cl4 Cl 0.73091(6) 1.16962(3) 0.49966(6)
Cl5 Cl 0.85261(6) 1.25749(2) 0.37467(5)
C1 C 1.0149(5) 0.91721(16) 0.2649(5)
C2 C 0.9685(4) 0.9458(2) 0.3013(5)
C3 C 0.9861(6) 0.9929(2) 0.2876(5)
C4 C 0.9573(5) 0.9929(2) 0.2577(5)
C5 C 1.0599(5) 0.9464(2) 0.2290(4)
C6 C 1.0000 0.86966(12) 0.2500
C7 C 1.05781(17) 0.85046(8) 0.20868(16)
C8 C 1.10601(17) 0.87980(8) 0.17411(16)
C9 C 0.90037(19) 0.93132(9) 0.32557(19)
C10 C 0.86470(16) 0.97140(8) 0.35798(16)
C11 C 0.88249(16) 1.01881(8) 0.34446(16)
C12 C 0.93878(19) 1.03159(9) 0.29711(19)
C13 C 0.97004(16) 1.07540(8) 0.27151(16)
C14 C 1.06360(16) 0.79847(8) 0.19874(16)
C15 C 1.10621(16) 0.76975(9) 0.27001(17)
H1 H 1.1353 0.7836 0.3253
C16 C 1.10658(18) 0.72110(9) 0.26125(19)
H2 H 1.1355 0.7016 0.3100
C17 C 1.06409(19) 0.70159(9) 0.18032(19)
C18 C 1.02329(19) 0.72921(9) 0.10777(18)
H3 H 0.9958 0.7153 0.0524
C19 C 1.02358(18) 0.77762(9) 0.11790(17)
H4 H 0.9959 0.7970 0.0687
C20 C 1.16831(16) 0.85671(8) 0.14052(17)
C21 C 1.24644(19) 0.83715(10) 0.1975(2)
H5 H 1.2589 0.8375 0.2578
C22 C 1.3065(2) 0.81713(11) 0.1673(2)
H6 H 1.3600 0.8041 0.2065
C23 C 1.2874(2) 0.81652(10) 0.0799(2)
C24 C 1.20978(19) 0.83459(10) 0.0213(2)
H7 H 1.1971 0.8333 -0.0390
C25 C 1.15068(18) 0.85466(9) 0.05261(18)
H8 H 1.0970 0.8673 0.0130
C26 C 0.81142(17) 0.96265(8) 0.41173(17)
C27 C 0.72525(18) 0.94625(9) 0.3750(2)
H9 H 0.6993 0.9407 0.3145
C28 C 0.6771(2) 0.93792(11) 0.4260(2)
H10 H 0.6185 0.9264 0.4010
C29 C 0.7153(2) 0.94653(12) 0.5132(2)
C30 C 0.8007(2) 0.96297(11) 0.5516(2)
H11 H 0.8262 0.9688 0.6120
C31 C 0.84830(19) 0.97079(9) 0.49985(18)
H12 H 0.9071 0.9819 0.5253
C32 C 0.84446(16) 1.05618(8) 0.38317(16)
C33 C 0.75460(17) 1.06572(9) 0.34919(17)
H13 H 0.7170 1.0484 0.3007
C34 C 0.71896(18) 1.10029(10) 0.38516(19)
H14 H 0.6576 1.1067 0.3615
C35 C 0.7744(2) 1.12508(9) 0.45590(19)
C36 C 0.8635(2) 1.11579(9) 0.49212(19)
H15 H 0.9004 1.1326 0.5417
C37 C 0.89840(17) 1.08141(9) 0.45503(17)
H16 H 0.9598 1.0751 0.4791
C38 C 0.94014(16) 1.12162(8) 0.29268(16)
C39 C 0.85206(17) 1.13488(9) 0.25746(17)
H17 H 0.8102 1.1147 0.2173
C40 C 0.82450(18) 1.17743(9) 0.28030(18)
H18 H 0.7645 1.1866 0.2555
C41 C 0.88626(19) 1.20601(9) 0.33977(18)
C42 C 0.97465(18) 1.19443(9) 0.37356(17)
H19 H 1.0166 1.2150 0.4127
C43 C 1.00092(17) 1.15222(8) 0.34913(16)
H20 H 1.0616 1.1441 0.3714
Cl1A Cl 0.94098(7) 0.64059(2) 0.33070(6)
Cl2A Cl 0.63740(7) 0.79322(3) 0.46027(7)
Cl3A Cl 1.34448(8) 0.93611(5) -0.07779(8)
Cl4A Cl 1.26909(6) 1.16962(3) 0.00034(6)
Cl5A Cl 1.14739(6) 1.25749(2) 0.12533(5)
C1A C 0.9851(5) 0.91721(16) 0.2351(5)
C2A C 1.0315(4) 0.9458(2) 0.1987(5)
C3A C 1.0139(6) 0.9929(2) 0.2124(5)
C4A C 1.0427(5) 0.9929(2) 0.2423(5)
C5A C 0.9401(5) 0.9464(2) 0.2710(4)
C7A C 0.94219(17) 0.85046(8) 0.29132(16)
C8A C 0.89399(17) 0.87980(8) 0.32589(16)
C9A C 1.09963(19) 0.93132(9) 0.17443(19)
C10A C 1.13530(16) 0.97140(8) 0.14202(16)
C11A C 1.11751(16) 1.01881(8) 0.15554(16)
C12A C 1.06122(19) 1.03159(9) 0.20289(19)
C13A C 1.02996(16) 1.07540(8) 0.22849(16)
C14A C 0.93640(16) 0.79847(8) 0.30126(16)
C15A C 0.89379(16) 0.76975(9) 0.22999(17)
H1A H 0.8647 0.7836 0.1747
C16A C 0.89342(18) 0.72110(9) 0.23875(19)
H2A H 0.8645 0.7016 0.1900
C17A C 0.93591(19) 0.70159(9) 0.31968(19)
C18A C 0.97671(19) 0.72921(9) 0.39223(18)
H3A H 1.0042 0.7153 0.4476
C19A C 0.97642(18) 0.77762(9) 0.38210(17)
H4A H 1.0041 0.7970 0.4313
C20A C 0.83169(16) 0.85671(8) 0.35948(17)
C21A C 0.75356(19) 0.83715(10) 0.3025(2)
H5A H 0.7411 0.8375 0.2422
C22A C 0.6935(2) 0.81713(11) 0.3327(2)
H6A H 0.6400 0.8041 0.2935
C23A C 0.7126(2) 0.81652(10) 0.4201(2)
C24A C 0.79022(19) 0.83459(10) 0.4787(2)
H7A H 0.8029 0.8333 0.5390
C25A C 0.84932(18) 0.85466(9) 0.44739(18)
H8A H 0.9030 0.8673 0.4870
C26A C 1.18858(17) 0.96265(8) 0.08827(17)
C27A C 1.27475(18) 0.94625(9) 0.1250(2)
H9A H 1.3007 0.9407 0.1855
C28A C 1.3229(2) 0.93792(11) 0.0740(2)
H10A H 1.3815 0.9264 0.0990
C29A C 1.2847(2) 0.94653(12) -0.0132(2)
C30A C 1.1993(2) 0.96297(11) -0.0516(2)
H11A H 1.1738 0.9688 -0.1120
C31A C 1.15170(19) 0.97079(9) 0.00015(18)
H12A H 1.0929 0.9819 -0.0253
C32A C 1.15554(16) 1.05618(8) 0.11683(16)
C33A C 1.24540(17) 1.06572(9) 0.15081(17)
H13A H 1.2830 1.0484 0.1993
C34A C 1.28104(18) 1.10029(10) 0.11484(19)
H14A H 1.3424 1.1067 0.1385
C35A C 1.2256(2) 1.12508(9) 0.04410(19)
C36A C 1.1365(2) 1.11579(9) 0.00788(19)
H15A H 1.0996 1.1326 -0.0417
C37A C 1.10160(17) 1.08141(9) 0.04497(17)
H16A H 1.0402 1.0751 0.0209
C38A C 1.05986(16) 1.12162(8) 0.20732(16)
C39A C 1.14794(17) 1.13488(9) 0.24254(17)
H17A H 1.1898 1.1147 0.2827
C40A C 1.17550(18) 1.17743(9) 0.21970(18)
H18A H 1.2355 1.1866 0.2445
C41A C 1.11374(19) 1.20601(9) 0.16023(18)
C42A C 1.02535(18) 1.19443(9) 0.12644(17)
H19A H 0.9834 1.2150 0.0873
C43A C 0.99908(17) 1.15222(8) 0.15087(16)
H20A H 0.9384 1.1441 0.1286
Cl9? Cl 0.9627(3) 0.5113(2) 0.3188(3)
C46? C 0.9684(11) 0.5319(7) 0.2261(15)
H24? H 0.9084 0.5290 0.1813
H25? H 0.9805 0.5661 0.2350
loop_
_geom_bond_atom_site_label_1
_geom_bond_atom_site_label_2
_geom_bond_site_symmetry_1
_geom_bond_site_symmetry_2
Cl1 C17 1_555 1_555
Cl2 C23 1_555 1_555
Cl3 C29 1_555 1_555
Cl4 C35 1_555 1_555
Cl5 C41 1_555 1_555
C1 C2 1_555 1_555
C2 C3 1_555 1_555
C3 C4 1_555 1_555
C4 C2 1_555 1_555
C5 C1 1_555 1_555
C6 C1 1_555 1_555
C7 C6 1_555 1_555
C8 C7 1_555 1_555
C9 C2 1_555 1_555
C10 C9 1_555 1_555
C11 C10 1_555 1_555
C12 C3 1_555 1_555
C13 C12 1_555 1_555
C14 C7 1_555 1_555
C15 C14 1_555 1_555
H1 C15 1_555 1_555
C16 C15 1_555 1_555
H2 C16 1_555 1_555
C17 C16 1_555 1_555
C18 C17 1_555 1_555
H3 C18 1_555 1_555
C19 C14 1_555 1_555
H4 C19 1_555 1_555
C20 C8 1_555 1_555
C21 C20 1_555 1_555
H5 C21 1_555 1_555
C22 C21 1_555 1_555
H6 C22 1_555 1_555
C23 C22 1_555 1_555
C24 C23 1_555 1_555
H7 C24 1_555 1_555
C25 C20 1_555 1_555
H8 C25 1_555 1_555
C26 C10 1_555 1_555
C27 C26 1_555 1_555
H9 C27 1_555 1_555
C28 C27 1_555 1_555
H10 C28 1_555 1_555
C29 C28 1_555 1_555
C30 C29 1_555 1_555
H11 C30 1_555 1_555
C31 C26 1_555 1_555
H12 C31 1_555 1_555
C32 C11 1_555 1_555
C33 C32 1_555 1_555
H13 C33 1_555 1_555
C34 C33 1_555 1_555
H14 C34 1_555 1_555
C35 C34 1_555 1_555
C36 C35 1_555 1_555
H15 C36 1_555 1_555
C37 C32 1_555 1_555
H16 C37 1_555 1_555
C38 C13 1_555 1_555
C39 C38 1_555 1_555
H17 C39 1_555 1_555
C40 C39 1_555 1_555
H18 C40 1_555 1_555
C41 C40 1_555 1_555
C42 C41 1_555 1_555
H19 C42 1_555 1_555
C43 C38 1_555 1_555
H20 C43 1_555 1_555
C44 H21 1_555 1_555
H22 C44 1_555 1_555
Cl6 C44 1_555 1_555
Cl7 C44 1_555 1_555
C45 H23 1_555 1_555
Cl8 C45 1_555 1_555
Cl1A C17A 1_555 1_555
Cl2A C23A 1_555 1_555
Cl3A C29A 1_555 1_555
Cl4A C35A 1_555 1_555
Cl5A C41A 1_555 1_555
C1A C1 1_555 1_555
C2A C1 1_555 1_555
C3A C3 1_555 1_555
C4A C3 1_555 1_555
C5A C1 1_555 1_555
C7A C6 1_555 1_555
C8A C9 1_555 1_555
C9A C5 1_555 1_555
C10A C9A 1_555 1_555
C11A C10A 1_555 1_555
C12A C3A 1_555 1_555
C13A C13 1_555 1_555
C14A C7A 1_555 1_555
C15A C14A 1_555 1_555
H1A C15A 1_555 1_555
C16A C15A 1_555 1_555
H2A C16A 1_555 1_555
C17A C16A 1_555 1_555
C18A C17A 1_555 1_555
H3A C18A 1_555 1_555
C19A C14A 1_555 1_555
H4A C19A 1_555 1_555
C20A C8A 1_555 1_555
C21A C20A 1_555 1_555
H5A C21A 1_555 1_555
C22A C21A 1_555 1_555
H6A C22A 1_555 1_555
C23A C22A 1_555 1_555
C24A C23A 1_555 1_555
H7A C24A 1_555 1_555
C25A C20A 1_555 1_555
H8A C25A 1_555 1_555
C26A C10A 1_555 1_555
C27A C26A 1_555 1_555
H9A C27A 1_555 1_555
C28A C27A 1_555 1_555
H10A C28A 1_555 1_555
C29A C28A 1_555 1_555
C30A C29A 1_555 1_555
H11A C30A 1_555 1_555
C31A C26A 1_555 1_555
H12A C31A 1_555 1_555
C32A C11A 1_555 1_555
C33A C32A 1_555 1_555
H13A C33A 1_555 1_555
C34A C33A 1_555 1_555
H14A C34A 1_555 1_555
C35A C34A 1_555 1_555
C36A C35A 1_555 1_555
H15A C36A 1_555 1_555
C37A C32A 1_555 1_555
H16A C37A 1_555 1_555
C38A C13A 1_555 1_555
C39A C38A 1_555 1_555
H17A C39A 1_555 1_555
C40A C39A 1_555 1_555
H18A C40A 1_555 1_555
C41A C40A 1_555 1_555
C42A C41A 1_555 1_555
H19A C42A 1_555 1_555
C43A C38A 1_555 1_555
H20A C43A 1_555 1_555
H23A C45 1_555 1_555
Cl8A C45 1_555 1_555
C2 C1A 1_555 1_555
C2 C5A 1_555 1_555
C3 C5A 1_555 1_555
C4 C12 1_555 1_555
C4 C3A 1_555 1_555
C4 C4A 1_555 1_555
C4 C5A 1_555 1_555
C5 C1A 1_555 1_555
C5 C2A 1_555 1_555
C5 C3A 1_555 1_555
C5 C4A 1_555 1_555
C6 C1A 1_555 1_555
C8 C9A 1_555 1_555
C9 C5A 1_555 1_555
C11 C12 1_555 1_555
C18 C19 1_555 1_555
C24 C25 1_555 1_555
C30 C31 1_555 1_555
C36 C37 1_555 1_555
C42 C43 1_555 1_555
C1A C2A 1_555 1_555
C1A C5A 1_555 1_555
C2A C3A 1_555 1_555
C2A C4A 1_555 1_555
C2A C9A 1_555 1_555
C3A C4A 1_555 1_555
C4A C12A 1_555 1_555
C7A C8A 1_555 1_555
C11A C12A 1_555 1_555
C12A C13A 1_555 1_555
C18A C19A 1_555 1_555
C24A C25A 1_555 1_555
C30A C31A 1_555 1_555
C36A C37A 1_555 1_555
C42A C43A 1_555 1_555

#END
