
#######################################################################
#
#                 Cambridge Crystallographic Data Centre
#                                CCDC 
#
#######################################################################
#
# If this CIF has been generated from an entry in the Cambridge 
# Structural Database, then it will include bibliographic, chemical, 
# crystal, experimental, refinement or atomic coordinate data resulting 
# from the CCDC's data processing and validation procedures.
#
#######################################################################

data_SEMSEJ01
_chemical_formula_moiety         'C11 H8 N2'
_chemical_name_systematic        5H-pyrido[4,3-b]indole
_symmetry_cell_setting           orthorhombic
_symmetry_space_group_name_H-M   'P n a 21'
_symmetry_Int_Tables_number      33
_space_group_name_Hall           'P 2c -2n'
loop_
_symmetry_equiv_pos_site_id
_symmetry_equiv_pos_as_xyz
1 x,y,z
2 1/2-x,1/2+y,1/2+z
3 1/2+x,1/2-y,z
4 -x,-y,1/2+z
_cell_length_a                   17.1576(6)
_cell_length_b                   12.2955(6)
_cell_length_c                   3.8213(2)
_cell_angle_alpha                90
_cell_angle_beta                 90
_cell_angle_gamma                90
_cell_volume                     806.146
_exptl_crystal_colour            colorless
_cell_formula_units_Z            4
loop_
_atom_site_label
_atom_site_type_symbol
_atom_site_fract_x
_atom_site_fract_y
_atom_site_fract_z
C1 C 0.29268(11) 0.34582(15) 0.2405(6)
C2 C 0.22012(11) 0.38963(16) 0.1623(6)
C3 C 0.20918(11) 0.49731(16) 0.2495(6)
C4 C 0.33231(11) 0.51767(15) 0.4832(6)
C5 C 0.35080(10) 0.41066(15) 0.3998(6)
C6 C 0.41881(10) 0.34222(15) 0.4423(6)
C7 C 0.49416(11) 0.35834(16) 0.5724(6)
C8 C 0.54637(12) 0.27187(17) 0.5663(7)
C9 C 0.52341(12) 0.17017(16) 0.4379(7)
C10 C 0.44943(12) 0.15210(15) 0.3065(6)
C11 C 0.39748(11) 0.23911(16) 0.3077(6)
N1 N 0.32114(9) 0.24299(13) 0.1879(5)
N2 N 0.26248(9) 0.56142(12) 0.4091(6)
H1 H 0.1803 0.3459 0.0527
H2 H 0.1597 0.5327 0.1963
H3 H 0.3707 0.5641 0.5937
H4 H 0.5092 0.4283 0.6638
H5 H 0.5987 0.2823 0.6510
H6 H 0.5603 0.1109 0.4413
H7 H 0.4342 0.0819 0.2178
H8 H 0.2928 0.1866 0.1066
loop_
_geom_bond_atom_site_label_1
_geom_bond_atom_site_label_2
_geom_bond_site_symmetry_1
_geom_bond_site_symmetry_2
C1 C2 1_555 1_555
C2 C3 1_555 1_555
C3 N2 1_555 1_555
C4 C5 1_555 1_555
C5 C1 1_555 1_555
C6 C5 1_555 1_555
C7 C6 1_555 1_555
C8 C7 1_555 1_555
C9 C8 1_555 1_555
C10 C9 1_555 1_555
C11 C6 1_555 1_555
N1 C1 1_555 1_555
N2 C4 1_555 1_555
H1 C2 1_555 1_555
H2 C3 1_555 1_555
H3 C4 1_555 1_555
H4 C7 1_555 1_555
H5 C8 1_555 1_555
H6 C9 1_555 1_555
H7 C10 1_555 1_555
H8 N1 1_555 1_555
C10 C11 1_555 1_555
C11 N1 1_555 1_555

#END
