
#######################################################################
#
#                 Cambridge Crystallographic Data Centre
#                                CCDC 
#
#######################################################################
#
# If this CIF has been generated from an entry in the Cambridge 
# Structural Database, then it will include bibliographic, chemical, 
# crystal, experimental, refinement or atomic coordinate data resulting 
# from the CCDC's data processing and validation procedures.
#
#######################################################################

data_SENCAQ
_chemical_formula_moiety         'C23 H26 Br1 N5 O2'
_chemical_name_systematic        
1-((3-(4-Bromophenyl)-1,2,4-oxadiazol-5-yl)methyl)-4-((2,6-dimethylphenyl)aminocarbonylmethyl)piperazine
_symmetry_cell_setting           monoclinic
_symmetry_space_group_name_H-M   'P 21/c'
_symmetry_Int_Tables_number      14
_space_group_name_Hall           '-P 2ybc'
loop_
_symmetry_equiv_pos_site_id
_symmetry_equiv_pos_as_xyz
1 x,y,z
2 -x,1/2+y,1/2-z
3 -x,-y,-z
4 x,1/2-y,1/2+z
_cell_length_a                   7.2000(14)
_cell_length_b                   9.5300(19)
_cell_length_c                   33.089(7)
_cell_angle_alpha                90
_cell_angle_beta                 94.71(3)
_cell_angle_gamma                90
_cell_volume                     2262.77
_exptl_crystal_colour            colorless
_exptl_crystal_description       block
_cell_formula_units_Z            4
_exptl_crystal_recrystallization_method ethanol
loop_
_atom_site_label
_atom_site_type_symbol
_atom_site_fract_x
_atom_site_fract_y
_atom_site_fract_z
Br1 Br 1.77399(16) 0.53905(13) 1.09057(4)
O1 O 0.4116(9) 0.1661(6) 0.74863(19)
O2 O 1.0666(10) 0.0275(7) 0.9535(2)
N1 N 0.3852(9) 0.3933(7) 0.7287(2)
H1 H 0.4368 0.4747 0.7299
N2 N 0.6667(9) 0.2423(7) 0.8134(2)
N3 N 0.7290(10) 0.1973(7) 0.8990(2)
N4 N 1.0000(11) 0.2304(8) 0.9803(2)
N5 N 1.2300(12) 0.0740(9) 0.9760(3)
C1 C -0.1165(17) 0.3519(15) 0.6556(4)
H2 H -0.2265 0.3456 0.6389
C2 C -0.1098(13) 0.4316(13) 0.6908(4)
H3 H -0.2165 0.4773 0.6979
C3 C 0.0549(13) 0.4436(9) 0.7155(3)
C4 C 0.2137(12) 0.3762(9) 0.7032(3)
C5 C 0.2095(13) 0.2957(10) 0.6690(3)
C6 C 0.0398(16) 0.2829(12) 0.6456(4)
H4 H 0.0330 0.2261 0.6227
C7 C 0.3779(14) 0.2262(11) 0.6550(3)
H5 H 0.4828 0.2437 0.6742
H6 H 0.4029 0.2632 0.6290
H7 H 0.3567 0.1270 0.6528
C8 C 0.0656(14) 0.5280(11) 0.7543(3)
H8 H 0.1904 0.5248 0.7669
H9 H -0.0186 0.4892 0.7723
H10 H 0.0317 0.6236 0.7482
C9 C 0.4682(12) 0.2891(9) 0.7506(3)
C10 C 0.6375(12) 0.3326(9) 0.7779(3)
H11 H 0.7470 0.3290 0.7627
H12 H 0.6219 0.4287 0.7867
C11 C 0.5177(13) 0.2600(10) 0.8403(3)
H13 H 0.3988 0.2380 0.8258
H14 H 0.5139 0.3570 0.8492
C12 C 0.5481(13) 0.1656(10) 0.8768(3)
H15 H 0.4487 0.1794 0.8945
H16 H 0.5457 0.0683 0.8682
C13 C 0.8765(12) 0.1768(9) 0.8722(2)
H17 H 0.8778 0.0796 0.8635
H18 H 0.9961 0.1975 0.8866
C14 C 0.8468(13) 0.2726(9) 0.8349(3)
H19 H 0.8513 0.3700 0.8434
H20 H 0.9452 0.2572 0.8171
C15 C 0.7549(14) 0.1052(10) 0.9338(3)
H21 H 0.7483 0.0084 0.9248
H22 H 0.6553 0.1206 0.9514
C16 C 0.9389(14) 0.1303(10) 0.9573(3)
C17 C 1.1831(13) 0.1950(9) 0.9910(3)
C18 C 1.3174(14) 0.2760(9) 1.0174(3)
C19 C 1.2762(14) 0.4097(10) 1.0297(3)
H23 H 1.1586 0.4473 1.0230
C20 C 1.4108(14) 0.4885(10) 1.0524(3)
H24 H 1.3829 0.5784 1.0610
C21 C 1.5840(13) 0.4329(10) 1.0618(3)
C22 C 1.6288(14) 0.2997(10) 1.0489(3)
H25 H 1.7478 0.2632 1.0548
C23 C 1.4934(14) 0.2224(9) 1.0271(3)
H26 H 1.5212 0.1322 1.0187
loop_
_geom_bond_atom_site_label_1
_geom_bond_atom_site_label_2
_geom_bond_site_symmetry_1
_geom_bond_site_symmetry_2
Br1 C21 1_555 1_555
O1 C9 1_555 1_555
O2 N5 1_555 1_555
N1 H1 1_555 1_555
N2 C10 1_555 1_555
N3 C12 1_555 1_555
N4 C16 1_555 1_555
N5 C17 1_555 1_555
C1 H2 1_555 1_555
C2 C1 1_555 1_555
H3 C2 1_555 1_555
C3 C2 1_555 1_555
C4 N1 1_555 1_555
C5 C4 1_555 1_555
C6 C1 1_555 1_555
H4 C6 1_555 1_555
C7 C5 1_555 1_555
H5 C7 1_555 1_555
H6 C7 1_555 1_555
H7 C7 1_555 1_555
C8 C3 1_555 1_555
H8 C8 1_555 1_555
H9 C8 1_555 1_555
H10 C8 1_555 1_555
C9 N1 1_555 1_555
C10 C9 1_555 1_555
H11 C10 1_555 1_555
H12 C10 1_555 1_555
C11 N2 1_555 1_555
H13 C11 1_555 1_555
H14 C11 1_555 1_555
C12 C11 1_555 1_555
H15 C12 1_555 1_555
H16 C12 1_555 1_555
C13 N3 1_555 1_555
H17 C13 1_555 1_555
H18 C13 1_555 1_555
C14 N2 1_555 1_555
H19 C14 1_555 1_555
H20 C14 1_555 1_555
C15 N3 1_555 1_555
H21 C15 1_555 1_555
H22 C15 1_555 1_555
C16 O2 1_555 1_555
C17 N4 1_555 1_555
C18 C17 1_555 1_555
C19 C18 1_555 1_555
H23 C19 1_555 1_555
C20 C19 1_555 1_555
H24 C20 1_555 1_555
C21 C20 1_555 1_555
C22 C21 1_555 1_555
H25 C22 1_555 1_555
C23 C18 1_555 1_555
H26 C23 1_555 1_555
C3 C4 1_555 1_555
C5 C6 1_555 1_555
C13 C14 1_555 1_555
C15 C16 1_555 1_555
C22 C23 1_555 1_555

#END
