
#######################################################################
#
#                 Cambridge Crystallographic Data Centre
#                                CCDC 
#
#######################################################################
#
# If this CIF has been generated from an entry in the Cambridge 
# Structural Database, then it will include bibliographic, chemical, 
# crystal, experimental, refinement or atomic coordinate data resulting 
# from the CCDC's data processing and validation procedures.
#
#######################################################################

data_SENMEG
_chemical_formula_moiety         'C36 H46 O3 Si2,C4 H8 O2'
_chemical_name_systematic        
'tetrakis(2,4,6-trimethylphenyl)disiloxane-1,3-diol 1,4-dioxane solvate'
_symmetry_cell_setting           orthorhombic
_symmetry_space_group_name_H-M   'P n a 21'
_symmetry_Int_Tables_number      33
_space_group_name_Hall           'P 2c -2n'
loop_
_symmetry_equiv_pos_site_id
_symmetry_equiv_pos_as_xyz
1 x,y,z
2 -x,-y,1/2+z
3 1/2+x,1/2-y,z
4 1/2-x,1/2+y,1/2+z
_cell_length_a                   19.9507(13)
_cell_length_b                   8.4233(6)
_cell_length_c                   22.0334(15)
_cell_angle_alpha                90
_cell_angle_beta                 90
_cell_angle_gamma                90
_cell_volume                     3702.73
_exptl_crystal_colour            colorless
_exptl_crystal_description       plate
_cell_formula_units_Z            4
_chemical_properties_physical    ', Air-sensitive,Moisture-sensitive'
_exptl_crystal_recrystallization_method 1,4-Dioxan
loop_
_atom_site_label
_atom_site_type_symbol
_atom_site_fract_x
_atom_site_fract_y
_atom_site_fract_z
Si1 Si 0.66771(4) 0.35689(10) 0.55959(3)
Si2 Si 0.58895(4) 0.35602(9) 0.44274(4)
O1 O 0.71177(11) 0.2117(3) 0.53203(10)
H1 H 0.7545(18) 0.208(5) 0.5441(18)
O2 O 0.62364(10) 0.4319(2) 0.50376(9)
O3 O 0.56086(11) 0.1796(3) 0.45950(10)
H2 H 0.5166(18) 0.166(6) 0.461(2)
C1 C 0.60533(14) 0.2809(4) 0.61724(13)
C2 C 0.59220(15) 0.1170(4) 0.62632(14)
C3 C 0.54626(15) 0.0699(4) 0.67001(13)
H3 H 0.538501 -0.040352 0.675763
C4 C 0.51114(15) 0.1774(4) 0.70566(13)
C5 C 0.52233(15) 0.3365(4) 0.69564(13)
H4 H 0.497838 0.412362 0.718590
C6 C 0.56874(14) 0.3897(3) 0.65261(13)
C7 C 0.62537(17) -0.0133(4) 0.58998(15)
H5 H 0.618992 0.006981 0.546571
H6 H 0.605217 -0.115751 0.600593
H7 H 0.673409 -0.015767 0.599221
C8 C 0.46302(18) 0.1223(5) 0.75424(16)
H8 H 0.419988 0.176888 0.749261
H9 H 0.481607 0.146888 0.794327
H10 H 0.456267 0.007478 0.750640
C9 C 0.57930(17) 0.5671(4) 0.64732(16)
H11 H 0.588633 0.594568 0.604935
H12 H 0.617298 0.598845 0.672751
H13 H 0.538809 0.622629 0.660837
C10 C 0.73006(14) 0.5034(4) 0.59222(14)
C11 C 0.75054(14) 0.6440(4) 0.56296(14)
C12 C 0.79840(15) 0.7430(4) 0.58980(15)
H14 H 0.811006 0.837797 0.569424
C13 C 0.82783(15) 0.7081(4) 0.64458(15)
C14 C 0.81003(15) 0.5664(5) 0.67235(14)
H15 H 0.830825 0.538123 0.709608
C15 C 0.76253(15) 0.4641(4) 0.64723(14)
C16 C 0.72396(16) 0.6943(4) 0.50161(15)
H16 H 0.748668 0.787834 0.487456
H17 H 0.676247 0.720433 0.505101
H18 H 0.729750 0.607376 0.472538
C17 C 0.87909(18) 0.8172(5) 0.67312(18)
H19 H 0.921834 0.760923 0.677294
H20 H 0.863347 0.850686 0.713256
H21 H 0.885323 0.910782 0.647289
C18 C 0.74898(18) 0.3098(5) 0.68072(16)
H22 H 0.705032 0.315523 0.700473
H23 H 0.783753 0.293060 0.711470
H24 H 0.749400 0.221381 0.651829
C19 C 0.65660(13) 0.3418(4) 0.38266(13)
C20 C 0.69105(14) 0.2004(4) 0.36887(13)
C21 C 0.74148(15) 0.2015(4) 0.32477(14)
H25 H 0.764558 0.105491 0.316097
C22 C 0.75895(15) 0.3378(4) 0.29329(14)
C23 C 0.72511(15) 0.4754(4) 0.30676(14)
H26 H 0.736515 0.569791 0.285543
C24 C 0.67470(14) 0.4815(4) 0.35038(13)
C25 C 0.67622(16) 0.0446(4) 0.39953(15)
H27 H 0.632367 0.005499 0.386154
H28 H 0.675756 0.059685 0.443624
H29 H 0.710871 -0.032924 0.388751
C26 C 0.81323(18) 0.3351(5) 0.24583(17)
H30 H 0.796749 0.280479 0.209499
H31 H 0.852466 0.278854 0.261746
H32 H 0.825788 0.444176 0.235338
C27 C 0.64067(17) 0.6389(4) 0.36003(16)
H33 H 0.667855 0.723515 0.341953
H34 H 0.635589 0.658514 0.403632
H35 H 0.596385 0.637306 0.340786
C28 C 0.51579(14) 0.4785(4) 0.41464(13)
C29 C 0.48328(14) 0.4247(4) 0.36141(13)
C30 C 0.43036(14) 0.5108(4) 0.33692(14)
H36 H 0.408793 0.471558 0.301528
C31 C 0.40790(16) 0.6515(4) 0.36217(15)
C32 C 0.43917(16) 0.7037(4) 0.41451(16)
H37 H 0.424263 0.799393 0.432914
C33 C 0.49192(16) 0.6202(4) 0.44111(17)
C34 C 0.50392(16) 0.2740(4) 0.32883(15)
H38 H 0.475714 0.259219 0.292858
H39 H 0.498434 0.183070 0.356140
H40 H 0.550965 0.282187 0.316427
C35 C 0.35233(18) 0.7463(5) 0.33333(19)
H41 H 0.368023 0.790814 0.294769
H42 H 0.339082 0.832691 0.360589
H43 H 0.313745 0.676995 0.325859
C36 C 0.5195(2) 0.6891(6) 0.4992(2)
H44 H 0.564868 0.729798 0.492031
H45 H 0.521105 0.606315 0.530458
H46 H 0.490575 0.775951 0.512979
O4 O 0.84461(11) 0.1641(3) 0.53603(11)
O5 O 0.92689(11) 0.3934(3) 0.47911(12)
C37 C 0.85442(17) 0.1650(5) 0.47140(16)
H47 H 0.813750 0.123633 0.451096
H48 H 0.892422 0.094723 0.460826
C38 C 0.86848(16) 0.3292(5) 0.44945(17)
H49 H 0.875856 0.327389 0.405022
H50 H 0.829327 0.398040 0.457807
C39 C 0.90223(16) 0.2295(5) 0.56585(17)
H51 H 0.941571 0.160664 0.558201
H52 H 0.894276 0.232416 0.610182
C40 C 0.91667(17) 0.3944(5) 0.54333(16)
H53 H 0.878614 0.465107 0.553412
H54 H 0.957206 0.436183 0.563740
loop_
_geom_bond_atom_site_label_1
_geom_bond_atom_site_label_2
_geom_bond_site_symmetry_1
_geom_bond_site_symmetry_2
Si1 O1 1_555 1_555
Si2 O2 1_555 1_555
O1 H1 1_555 1_555
O2 Si1 1_555 1_555
O3 Si2 1_555 1_555
H2 O3 1_555 1_555
C1 Si1 1_555 1_555
C2 C1 1_555 1_555
C3 C2 1_555 1_555
H3 C3 1_555 1_555
C4 C3 1_555 1_555
C5 C4 1_555 1_555
H4 C5 1_555 1_555
C6 C1 1_555 1_555
C7 C2 1_555 1_555
H5 C7 1_555 1_555
H6 C7 1_555 1_555
H7 C7 1_555 1_555
C8 C4 1_555 1_555
H8 C8 1_555 1_555
H9 C8 1_555 1_555
H10 C8 1_555 1_555
C9 C6 1_555 1_555
H11 C9 1_555 1_555
H12 C9 1_555 1_555
H13 C9 1_555 1_555
C10 Si1 1_555 1_555
C11 C10 1_555 1_555
C12 C11 1_555 1_555
H14 C12 1_555 1_555
C13 C12 1_555 1_555
C14 C13 1_555 1_555
H15 C14 1_555 1_555
C15 C10 1_555 1_555
C16 C11 1_555 1_555
H16 C16 1_555 1_555
H17 C16 1_555 1_555
H18 C16 1_555 1_555
C17 C13 1_555 1_555
H19 C17 1_555 1_555
H20 C17 1_555 1_555
H21 C17 1_555 1_555
C18 C15 1_555 1_555
H22 C18 1_555 1_555
H23 C18 1_555 1_555
H24 C18 1_555 1_555
C19 Si2 1_555 1_555
C20 C19 1_555 1_555
C21 C20 1_555 1_555
H25 C21 1_555 1_555
C22 C21 1_555 1_555
C23 C22 1_555 1_555
H26 C23 1_555 1_555
C24 C19 1_555 1_555
C25 C20 1_555 1_555
H27 C25 1_555 1_555
H28 C25 1_555 1_555
H29 C25 1_555 1_555
C26 C22 1_555 1_555
H30 C26 1_555 1_555
H31 C26 1_555 1_555
H32 C26 1_555 1_555
C27 C24 1_555 1_555
H33 C27 1_555 1_555
H34 C27 1_555 1_555
H35 C27 1_555 1_555
C28 Si2 1_555 1_555
C29 C28 1_555 1_555
C30 C29 1_555 1_555
H36 C30 1_555 1_555
C31 C30 1_555 1_555
C32 C31 1_555 1_555
H37 C32 1_555 1_555
C33 C28 1_555 1_555
C34 C29 1_555 1_555
H38 C34 1_555 1_555
H39 C34 1_555 1_555
H40 C34 1_555 1_555
C35 C31 1_555 1_555
H41 C35 1_555 1_555
H42 C35 1_555 1_555
H43 C35 1_555 1_555
C36 C33 1_555 1_555
H44 C36 1_555 1_555
H45 C36 1_555 1_555
H46 C36 1_555 1_555
O4 C37 1_555 1_555
O5 C38 1_555 1_555
C37 H47 1_555 1_555
H48 C37 1_555 1_555
C38 C37 1_555 1_555
H49 C38 1_555 1_555
H50 C38 1_555 1_555
C39 O4 1_555 1_555
H51 C39 1_555 1_555
H52 C39 1_555 1_555
C40 O5 1_555 1_555
H53 C40 1_555 1_555
H54 C40 1_555 1_555
C5 C6 1_555 1_555
C14 C15 1_555 1_555
C23 C24 1_555 1_555
C32 C33 1_555 1_555
C39 C40 1_555 1_555

#END
