
#######################################################################
#
#                 Cambridge Crystallographic Data Centre
#                                CCDC 
#
#######################################################################
#
# If this CIF has been generated from an entry in the Cambridge 
# Structural Database, then it will include bibliographic, chemical, 
# crystal, experimental, refinement or atomic coordinate data resulting 
# from the CCDC's data processing and validation procedures.
#
#######################################################################

data_SENRIP
_chemical_formula_moiety         'C14 H16 Br1 N1 O2'
_chemical_name_systematic        
5-bromo-1,5',5'-trimethylspiro[indole-3,2'-oxolan]-2(1H)-one
_symmetry_cell_setting           monoclinic
_symmetry_space_group_name_H-M   'P 21/c'
_symmetry_Int_Tables_number      14
_space_group_name_Hall           '-P 2ybc'
loop_
_symmetry_equiv_pos_site_id
_symmetry_equiv_pos_as_xyz
1 x,y,z
2 -x,1/2+y,1/2-z
3 -x,-y,-z
4 x,1/2-y,1/2+z
_cell_length_a                   9.2162(18)
_cell_length_b                   11.9031(18)
_cell_length_c                   12.665(2)
_cell_angle_alpha                90
_cell_angle_beta                 95.002(15)
_cell_angle_gamma                90
_cell_volume                     1384.08
_exptl_crystal_description       block
_cell_formula_units_Z            4
loop_
_atom_site_label
_atom_site_type_symbol
_atom_site_fract_x
_atom_site_fract_y
_atom_site_fract_z
Br1 Br 0.65086(10) 0.74574(6) 0.38933(6)
O1 O 0.2403(4) 0.8105(3) 0.7089(3)
O2 O 0.1973(6) 0.6197(4) 0.8542(3)
N1 N 0.3861(6) 0.5501(4) 0.7665(4)
C1 C 0.3862(6) 0.6703(4) 0.6264(4)
C2 C 0.4595(7) 0.5822(4) 0.6784(4)
C3 C 0.4394(7) 0.7198(5) 0.5387(5)
H1 H 0.3902 0.7784 0.5026
C4 C 0.5690(7) 0.6782(5) 0.5072(4)
C5 C 0.2507(7) 0.6967(5) 0.6796(4)
C6 C 0.6409(7) 0.5891(5) 0.5579(5)
H2 H 0.7265 0.5622 0.5334
C7 C 0.2710(8) 0.6196(5) 0.7790(4)
C8 C 0.5856(8) 0.5389(5) 0.6459(5)
H3 H 0.6328 0.4787 0.6809
C9 C 0.1057(8) 0.6710(6) 0.6142(6)
H4 H 0.1235 0.6288 0.5511
H5 H 0.0432 0.6266 0.6558
C10 C 0.0942(7) 0.8563(6) 0.6825(6)
C11 C 0.4375(10) 0.4658(6) 0.8444(6)
H6 H 0.4361 0.3932 0.8113
H7 H 0.3750 0.4651 0.9012
H8 H 0.5351 0.4836 0.8720
C12 C 0.1105(11) 0.9666(8) 0.6291(6)
H9 H 0.1641 1.0173 0.6769
H10 H 0.0159 0.9975 0.6090
H11 H 0.1618 0.9562 0.5671
C13 C 0.0224(11) 0.8743(7) 0.7833(7)
H12 H 0.0346 0.8084 0.8268
H13 H -0.0795 0.8886 0.7667
H14 H 0.0664 0.9375 0.8208
C14 C 0.0377(13) 0.7754(8) 0.5855(8)
H15 H -0.0676 0.7686 0.5798
H16 H 0.0683 0.8029 0.5189
loop_
_geom_bond_atom_site_label_1
_geom_bond_atom_site_label_2
_geom_bond_site_symmetry_1
_geom_bond_site_symmetry_2
Br1 C4 1_555 1_555
O1 C5 1_555 1_555
O2 C7 1_555 1_555
N1 C2 1_555 1_555
C1 C2 1_555 1_555
C2 C8 1_555 1_555
C3 C1 1_555 1_555
H1 C3 1_555 1_555
C4 C3 1_555 1_555
C5 C1 1_555 1_555
C6 C4 1_555 1_555
H2 C6 1_555 1_555
C7 N1 1_555 1_555
C8 C6 1_555 1_555
H3 C8 1_555 1_555
C9 C5 1_555 1_555
H4 C9 1_555 1_555
H5 C9 1_555 1_555
C10 O1 1_555 1_555
C11 N1 1_555 1_555
H6 C11 1_555 1_555
H7 C11 1_555 1_555
H8 C11 1_555 1_555
C12 C10 1_555 1_555
H9 C12 1_555 1_555
H10 C12 1_555 1_555
H11 C12 1_555 1_555
C13 C10 1_555 1_555
H12 C13 1_555 1_555
H13 C13 1_555 1_555
H14 C13 1_555 1_555
C14 C9 1_555 1_555
H15 C14 1_555 1_555
H16 C14 1_555 1_555
C5 C7 1_555 1_555
C10 C14 1_555 1_555

#END
