
#######################################################################
#
#                 Cambridge Crystallographic Data Centre
#                                CCDC 
#
#######################################################################
#
# If this CIF has been generated from an entry in the Cambridge 
# Structural Database, then it will include bibliographic, chemical, 
# crystal, experimental, refinement or atomic coordinate data resulting 
# from the CCDC's data processing and validation procedures.
#
#######################################################################

data_SENWUE
_chemical_formula_moiety         'C18 H21 Br1 N1 1+,Cl1 1-'
_chemical_name_systematic        
'(R)-1-(2-(4-Bromophenyl)-1-phenylethyl)pyrrolidinium chloride'
_symmetry_cell_setting           monoclinic
_symmetry_space_group_name_H-M   'P 21'
_symmetry_Int_Tables_number      4
_space_group_name_Hall           'P 2yb'
loop_
_symmetry_equiv_pos_site_id
_symmetry_equiv_pos_as_xyz
1 x,y,z
2 -x,1/2+y,-z
_cell_length_a                   8.5800(14)
_cell_length_b                   6.9147(11)
_cell_length_c                   14.765(3)
_cell_angle_alpha                90
_cell_angle_beta                 90.373(5)
_cell_angle_gamma                90
_cell_volume                     875.961
_exptl_crystal_colour            colorless
_exptl_crystal_description       prism
_cell_formula_units_Z            2
_exptl_crystal_recrystallization_method dichloromethane
loop_
_atom_site_label
_atom_site_type_symbol
_atom_site_fract_x
_atom_site_fract_y
_atom_site_fract_z
Br1 Br -0.53732(4) 1.12316(6) 0.11730(2)
N1 N 0.1995(3) 0.5382(5) 0.36210(18)
C1 C 0.0838(3) 0.6349(7) 0.30040(17)
H2 H 0.1015 0.7720 0.3001
C2 C -0.0850(3) 0.5895(6) 0.3291(2)
H3 H -0.1082 0.4513 0.3178
H4 H -0.0972 0.6146 0.3947
C3 C -0.1974(4) 0.7148(5) 0.2757(2)
C4 C -0.2060(4) 0.9116(5) 0.2955(2)
H5 H -0.1408 0.9642 0.3416
C5 C -0.3084(4) 1.0321(5) 0.2490(2)
H6 H -0.3160 1.1654 0.2640
C6 C -0.3986(4) 0.9546(6) 0.1809(2)
C7 C -0.3917(4) 0.7640(5) 0.1585(2)
H7 H -0.4548 0.7145 0.1108
C8 C -0.2902(3) 0.6408(7) 0.2065(2)
H8 H -0.2852 0.5073 0.1916
C9 C 0.1865(3) 0.6023(8) 0.46035(18)
H9 H 0.1253 0.5117 0.4942
H10 H 0.1376 0.7270 0.4630
C10 C 0.3667(3) 0.5695(6) 0.3333(2)
H13 H 0.3837 0.6999 0.3133
H14 H 0.3944 0.4815 0.2857
C17 C 0.3556(9) 0.627(3) 0.4946(5)
H22 H 0.3708 0.5612 0.5536
H23 H 0.3824 0.7652 0.5014
C18 C 0.4563(9) 0.530(2) 0.4198(5)
H24 H 0.5615 0.5886 0.4176
H25 H 0.4667 0.3894 0.4305
C19 C 0.103(2) 0.557(2) 0.2048(6)
C20 C 0.151(3) 0.6914(19) 0.1407(8)
H26 H 0.1668 0.8224 0.1576
C21 C 0.175(3) 0.634(2) 0.0516(7)
H27 H 0.2076 0.7257 0.0078
C22 C 0.152(2) 0.442(2) 0.0268(6)
H28 H 0.1684 0.4028 -0.0340
C23 C 0.104(2) 0.3078(19) 0.0910(8)
H29 H 0.0884 0.1767 0.0740
C24 C 0.080(3) 0.3652(19) 0.1800(7)
H30 H 0.0476 0.2735 0.2239
H35 H 0.175(3) 0.389(5) 0.364(2)
Cl1 Cl 0.18456(8) 0.10429(11) 0.39633(4)
Br2? Br 0.18456(8) 0.10429(11) 0.39633(4)
H1? H 0.0981 0.7713 0.3095
H11? H 0.1067 0.5307 0.4910
H12? H 0.1638 0.7380 0.4639
H15? H 0.3728 0.6769 0.2922
H16? H 0.4055 0.4561 0.3034
C11? C 0.122(3) 0.602(3) 0.2011(7)
C12? C 0.166(3) 0.750(2) 0.1430(10)
H17? H 0.1801 0.8770 0.1657
C13? C 0.189(3) 0.711(2) 0.0516(9)
H18? H 0.2191 0.8127 0.0119
C14? C 0.168(3) 0.525(2) 0.0184(6)
H19? H 0.1839 0.4990 -0.0440
C15? C 0.124(3) 0.3770(19) 0.0765(9)
H20? H 0.1097 0.2497 0.0538
C16? C 0.101(3) 0.415(2) 0.1678(8)
H21? H 0.0707 0.3140 0.2075
C25? C 0.3524(10) 0.562(3) 0.4967(5)
H31? H 0.3675 0.4223 0.5092
H32? H 0.3737 0.6363 0.5527
C26? C 0.4582(10) 0.631(2) 0.4175(6)
H33? H 0.4731 0.7727 0.4191
H34? H 0.5614 0.5668 0.4199
loop_
_geom_bond_atom_site_label_1
_geom_bond_atom_site_label_2
_geom_bond_site_symmetry_1
_geom_bond_site_symmetry_2
Br1 C6 1_555 1_555
N1 C1 1_555 1_555
C1 H2 1_555 1_555
C2 C1 1_555 1_555
H3 C2 1_555 1_555
H4 C2 1_555 1_555
C3 C2 1_555 1_555
C4 C3 1_555 1_555
H5 C4 1_555 1_555
C5 C4 1_555 1_555
H6 C5 1_555 1_555
C6 C5 1_555 1_555
C7 C6 1_555 1_555
H7 C7 1_555 1_555
C8 C3 1_555 1_555
H8 C8 1_555 1_555
C9 N1 1_555 1_555
H9 C9 1_555 1_555
H10 C9 1_555 1_555
C10 N1 1_555 1_555
H13 C10 1_555 1_555
H14 C10 1_555 1_555
C17 C9 1_555 1_555
H22 C17 1_555 1_555
H23 C17 1_555 1_555
C18 C10 1_555 1_555
H24 C18 1_555 1_555
H25 C18 1_555 1_555
C19 C1 1_555 1_555
C20 C19 1_555 1_555
H26 C20 1_555 1_555
C21 C20 1_555 1_555
H27 C21 1_555 1_555
C22 C21 1_555 1_555
H28 C22 1_555 1_555
C23 C22 1_555 1_555
H29 C23 1_555 1_555
C24 C19 1_555 1_555
H30 C24 1_555 1_555
H35 N1 1_555 1_555
C7 C8 1_555 1_555
C17 C18 1_555 1_555
C23 C24 1_555 1_555

#END
