
#######################################################################
#
#                 Cambridge Crystallographic Data Centre
#                                CCDC 
#
#######################################################################
#
# If this CIF has been generated from an entry in the Cambridge 
# Structural Database, then it will include bibliographic, chemical, 
# crystal, experimental, refinement or atomic coordinate data resulting 
# from the CCDC's data processing and validation procedures.
#
#######################################################################

data_SEPNEG
_chemical_formula_moiety         'C27 H28 N8 O4,C12 H20 N2 O3,C4 H8 O2'
_chemical_name_systematic        
'(4S,6S)-2-Amino-4,6-bis(1-methoxycarbonyl-2-indolylethylamino)-1,3,5-triazine (4R,6R)-2-amino-4,6-bis(1-methoxycarbonyl-2-indolylethylamino)-1,3,5-triazine bis(5,5-di-n-butylbarbituric acid) ethyl acetate solvate'
_symmetry_cell_setting           monoclinic
_symmetry_space_group_name_H-M   'P 21/c'
_symmetry_Int_Tables_number      14
_space_group_name_Hall           '-P 2ybc'
loop_
_symmetry_equiv_pos_site_id
_symmetry_equiv_pos_as_xyz
1 x,y,z
2 -x,1/2+y,1/2-z
3 -x,-y,-z
4 x,1/2-y,1/2+z
_cell_length_a                   9.877(5)
_cell_length_b                   16.401(7)
_cell_length_c                   28.911(9)
_cell_angle_alpha                90
_cell_angle_beta                 96.79(2)
_cell_angle_gamma                90
_cell_volume                     4650.52
_exptl_crystal_colour            colorless
_cell_formula_units_Z            4
loop_
_atom_site_label
_atom_site_type_symbol
_atom_site_fract_x
_atom_site_fract_y
_atom_site_fract_z
N1 N 0.3195(3) 0.1630(2) 0.6801(1)
C1 C 0.4137(4) 0.2066(2) 0.7066(1)
N2 N 0.4230(3) 0.2888(2) 0.7073(1)
C2 C 0.3269(4) 0.3261(2) 0.6777(1)
N3 N 0.2275(3) 0.2899(2) 0.6497(1)
C3 C 0.2283(4) 0.2088(2) 0.6531(1)
N4 N 0.5084(3) 0.1649(2) 0.7342(1)
N5 N 0.3313(3) 0.4079(2) 0.6768(1)
C4 C 0.2556(4) 0.4548(2) 0.6398(1)
C5 C 0.3240(4) 0.4503(3) 0.5957(2)
O1 O 0.4394(3) 0.4311(2) 0.5933(1)
O2 O 0.2366(3) 0.4720(2) 0.5589(1)
C6 C 0.2903(7) 0.4751(4) 0.5146(2)
C7 C 0.2374(4) 0.5434(2) 0.6541(1)
C8 C 0.1275(4) 0.5560(2) 0.6853(1)
C9 C 0.1390(4) 0.5884(2) 0.7281(1)
N6 N 0.0149(4) 0.5962(2) 0.7440(1)
C10 C -0.0822(4) 0.5690(3) 0.7096(1)
C11 C -0.2218(5) 0.5685(3) 0.7082(2)
C12 C -0.2969(4) 0.5384(3) 0.6683(2)
C13 C -0.2332(4) 0.5097(3) 0.6313(2)
C14 C -0.0939(4) 0.5110(3) 0.6331(1)
C15 C -0.0155(4) 0.5418(2) 0.6722(1)
N7 N 0.1286(3) 0.1679(2) 0.6267(1)
C16 C 0.0096(4) 0.2072(2) 0.6032(1)
C17 C -0.0899(4) 0.2275(2) 0.6374(1)
O3 O -0.0891(3) 0.1989(2) 0.6754(1)
O4 O -0.1855(3) 0.2793(2) 0.6194(1)
C18 C -0.2899(5) 0.2997(3) 0.6487(2)
C19 C -0.0560(4) 0.1522(3) 0.5642(1)
C20 C 0.0309(4) 0.1404(3) 0.5263(1)
C21 C 0.1043(5) 0.0741(3) 0.5180(2)
N8 N 0.1752(4) 0.0875(3) 0.4809(1)
C22 C 0.1498(5) 0.1651(3) 0.4651(2)
C23 C 0.1999(6) 0.2069(4) 0.4284(2)
C24 C 0.1539(7) 0.2859(4) 0.4202(2)
C25 C 0.0627(6) 0.3214(3) 0.4473(2)
C26 C 0.0149(5) 0.2797(3) 0.4836(2)
C27 C 0.0601(5) 0.2006(3) 0.4928(1)
H1 H 0.5772 0.1933 0.7535
H2 H 0.5067 0.1070 0.7343
H3 H 0.3856 0.4359 0.7010
H4 H 0.1673 0.4313 0.6339
H5 H 0.2201 0.4911 0.4910
H6 H 0.3627 0.5134 0.5162
H7 H 0.3232 0.4227 0.5074
H8 H 0.2151 0.5749 0.6267
H9 H 0.3213 0.5620 0.6701
H10 H 0.2230 0.6040 0.7452
H11 H -0.0013 0.6167 0.7736
H12 H -0.2653 0.5881 0.7336
H13 H -0.3936 0.5373 0.6663
H14 H -0.2866 0.4890 0.6044
H15 H -0.0512 0.4909 0.6076
H16 H 0.1375 0.1106 0.6235
H17 H 0.0355 0.2568 0.5898
H18 H -0.3528 0.3368 0.6327
H19 H -0.3365 0.2515 0.6559
H20 H -0.2487 0.3241 0.6767
H21 H -0.1398 0.1760 0.5514
H22 H -0.0731 0.1004 0.5771
H23 H 0.1064 0.0248 0.5354
H24 H 0.2328 0.0491 0.4682
H25 H 0.2623 0.1822 0.4100
H26 H 0.1852 0.3164 0.3956
H27 H 0.0327 0.3757 0.4408
H28 H -0.0477 0.3046 0.5018
N9 N 0.3121(3) -0.0123(2) 0.6852(1)
C28 C 0.4024(4) -0.0503(2) 0.7175(1)
N10 N 0.3950(3) -0.1330(2) 0.7210(1)
C29 C 0.3059(4) -0.1817(2) 0.6928(1)
C30 C 0.2001(4) -0.1421(2) 0.6581(1)
C31 C 0.2093(4) -0.0506(2) 0.6574(1)
O5 O 0.4890(3) -0.0121(1) 0.74261(9)
O6 O 0.3137(3) -0.2554(2) 0.6967(1)
C32 C 0.2173(4) -0.1753(3) 0.6100(1)
C33 C 0.3552(6) -0.1562(3) 0.5927(2)
C34 C 0.3806(7) -0.1975(5) 0.5491(2)
C35 C 0.4017(8) -0.2895(5) 0.5543(3)
C36 C 0.0588(4) -0.1661(3) 0.6720(1)
C37 C 0.0333(5) -0.1407(3) 0.7202(2)
C38 C -0.0985(6) -0.1710(6) 0.7348(2)
C39 C -0.2076(9) -0.172(1) 0.7103(3)
O7 O 0.1288(3) -0.0100(2) 0.6315(1)
H29 H 0.3211 0.0449 0.6817
H30 H 0.4554 -0.1590 0.7444
H31 H 0.1474 -0.1528 0.5884
H32 H 0.2073 -0.2329 0.6108
H33 H 0.4253 -0.1718 0.6164
H34 H 0.3595 -0.0990 0.5878
H35 H 0.4601 -0.1744 0.5388
H36 H 0.3046 -0.1881 0.5264
H37 H 0.4351 -0.3272 0.5334
H38 H 0.4376 -0.3027 0.5853
H39 H 0.3049 -0.2924 0.5514
H40 H 0.0506 -0.2238 0.6700
H41 H -0.0091 -0.1416 0.6504
H42 H 0.0328 -0.0828 0.7214
H43 H 0.1057 -0.1609 0.7417
H44 H -0.1133 -0.1392 0.7612
H45 H -0.0818 -0.2260 0.7440
H46 H -0.2756 -0.1938 0.7274
H47 H -0.2320 -0.1178 0.7008
H48 H -0.2005 -0.2045 0.6836
C40 C 0.3759(5) -0.0468(4) 0.4019(2)
O8 O 0.3611(5) -0.0218(3) 0.4395(2)
C41 C 0.2922(9) -0.0253(4) 0.3583(2)
O9 O 0.4645(4) -0.1006(3) 0.3968(1)
C42 C 0.5550(8) -0.1251(6) 0.4359(3)
C43 C 0.5635(7) -0.2120(6) 0.4414(2)
H49 H 0.2277 0.0152 0.3643
H50 H 0.3491 -0.0048 0.3367
H51 H 0.2455 -0.0724 0.3456
H52 H 0.5245 -0.1025 0.4631
H53 H 0.6433 -0.1048 0.4324
H54 H 0.6255 -0.2248 0.4680
H55 H 0.4760 -0.2332 0.4451
H56 H 0.5948 -0.2355 0.4145
loop_
_geom_bond_atom_site_label_1
_geom_bond_atom_site_label_2
_geom_bond_site_symmetry_1
_geom_bond_site_symmetry_2
N1 C1 1_555 1_555
C1 N2 1_555 1_555
N2 C2 1_555 1_555
C2 N3 1_555 1_555
N3 C3 1_555 1_555
C3 N1 1_555 1_555
N4 C1 1_555 1_555
N5 C2 1_555 1_555
C4 N5 1_555 1_555
C5 C4 1_555 1_555
O1 C5 1_555 1_555
O2 C5 1_555 1_555
C6 O2 1_555 1_555
C7 C4 1_555 1_555
C8 C7 1_555 1_555
C9 C8 1_555 1_555
N6 C9 1_555 1_555
C10 N6 1_555 1_555
C11 C10 1_555 1_555
C12 C11 1_555 1_555
C13 C12 1_555 1_555
C14 C13 1_555 1_555
C15 C8 1_555 1_555
N7 C3 1_555 1_555
C16 N7 1_555 1_555
C17 C16 1_555 1_555
O3 C17 1_555 1_555
O4 C17 1_555 1_555
C18 O4 1_555 1_555
C19 C16 1_555 1_555
C20 C19 1_555 1_555
C21 C20 1_555 1_555
N8 C21 1_555 1_555
C22 N8 1_555 1_555
C23 C22 1_555 1_555
C24 C23 1_555 1_555
C25 C24 1_555 1_555
C26 C25 1_555 1_555
C27 C20 1_555 1_555
N9 C28 1_555 1_555
C28 N10 1_555 1_555
N10 C29 1_555 1_555
C29 C30 1_555 1_555
C30 C31 1_555 1_555
C31 N9 1_555 1_555
O5 C28 1_555 1_555
O6 C29 1_555 1_555
C32 C30 1_555 1_555
C33 C32 1_555 1_555
C34 C33 1_555 1_555
C35 C34 1_555 1_555
C36 C30 1_555 1_555
C37 C36 1_555 1_555
C38 C37 1_555 1_555
C39 C38 1_555 1_555
O7 C31 1_555 1_555
C40 O8 1_555 1_555
C41 C40 1_555 1_555
O9 C40 1_555 1_555
C42 O9 1_555 1_555
C43 C42 1_555 1_555
H1 N4 1_555 1_555
H2 N4 1_555 1_555
H3 N5 1_555 1_555
H4 C4 1_555 1_555
H5 C6 1_555 1_555
H6 C6 1_555 1_555
H7 C6 1_555 1_555
H8 C7 1_555 1_555
H9 C7 1_555 1_555
H10 C9 1_555 1_555
H11 N6 1_555 1_555
H12 C11 1_555 1_555
H13 C12 1_555 1_555
H14 C13 1_555 1_555
H15 C14 1_555 1_555
H16 N7 1_555 1_555
H17 C16 1_555 1_555
H18 C18 1_555 1_555
H19 C18 1_555 1_555
H20 C18 1_555 1_555
H21 C19 1_555 1_555
H22 C19 1_555 1_555
H23 C21 1_555 1_555
H24 N8 1_555 1_555
H25 C23 1_555 1_555
H26 C24 1_555 1_555
H27 C25 1_555 1_555
H28 C26 1_555 1_555
H29 N9 1_555 1_555
H30 N10 1_555 1_555
H31 C32 1_555 1_555
H32 C32 1_555 1_555
H33 C33 1_555 1_555
H34 C33 1_555 1_555
H35 C34 1_555 1_555
H36 C34 1_555 1_555
H37 C35 1_555 1_555
H38 C35 1_555 1_555
H39 C35 1_555 1_555
H40 C36 1_555 1_555
H41 C36 1_555 1_555
H42 C37 1_555 1_555
H43 C37 1_555 1_555
H44 C38 1_555 1_555
H45 C38 1_555 1_555
H46 C39 1_555 1_555
H47 C39 1_555 1_555
H48 C39 1_555 1_555
H49 C41 1_555 1_555
H50 C41 1_555 1_555
H51 C41 1_555 1_555
H52 C42 1_555 1_555
H53 C42 1_555 1_555
H54 C43 1_555 1_555
H55 C43 1_555 1_555
H56 C43 1_555 1_555
C10 C15 1_555 1_555
C14 C15 1_555 1_555
C22 C27 1_555 1_555
C26 C27 1_555 1_555

#END
