
#######################################################################
#
#                 Cambridge Crystallographic Data Centre
#                                CCDC 
#
#######################################################################
#
# If this CIF has been generated from an entry in the Cambridge 
# Structural Database, then it will include bibliographic, chemical, 
# crystal, experimental, refinement or atomic coordinate data resulting 
# from the CCDC's data processing and validation procedures.
#
#######################################################################

data_SEPPEK
_chemical_formula_moiety         'C18 H30 F1 N1 O6'
_chemical_name_systematic        
'Methyl 1-(bis(t-butoxycarbonyl)amino)-2-fluoro-2-isopropylcyclopropanecarboxylate'
_symmetry_cell_setting           monoclinic
_symmetry_space_group_name_H-M   'P 21/c'
_symmetry_Int_Tables_number      14
_space_group_name_Hall           '-P 2ybc'
loop_
_symmetry_equiv_pos_site_id
_symmetry_equiv_pos_as_xyz
1 x,y,z
2 -x,1/2+y,1/2-z
3 -x,-y,-z
4 x,1/2-y,1/2+z
_cell_length_a                   17.3383(13)
_cell_length_b                   10.5149(8)
_cell_length_c                   12.2836(9)
_cell_angle_alpha                90
_cell_angle_beta                 98.1720(10)
_cell_angle_gamma                90
_cell_volume                     2216.69
_exptl_crystal_colour            colorless
_exptl_crystal_description       tablet
_cell_formula_units_Z            4
loop_
_atom_site_label
_atom_site_type_symbol
_atom_site_fract_x
_atom_site_fract_y
_atom_site_fract_z
C1 C 0.8006(2) 0.9630(2) -0.0812(2)
H1 H 0.7561 0.9735 -0.1366
H2 H 0.8435 0.9306 -0.1144
H3 H 0.8146 1.0436 -0.0474
C2 C 0.72869(12) 0.91408(17) 0.06103(15)
C3 C 0.71559(10) 0.82052(17) 0.14671(15)
C4 C 0.69050(13) 0.8741(2) 0.25154(18)
H4 H 0.7112 0.834 0.3206
H5 H 0.6835 0.9654 0.2557
C5 C 0.63349(13) 0.8026(2) 0.1761(2)
C6 C 0.56145(14) 0.8588(3) 0.1116(3)
H6 H 0.5738 0.9464 0.0933
C7 C 0.4970(2) 0.8648(5) 0.1851(4)
H7 H 0.4817 0.7801 0.2018
H8 H 0.4528 0.9096 0.1474
H9 H 0.516 0.9086 0.2522
C8 C 0.5376(2) 0.7875(4) 0.0025(3)
H10 H 0.5247 0.7011 0.0176
H11 H 0.5801 0.7885 -0.0398
H12 H 0.4931 0.8284 -0.0384
C9 C 0.73670(11) 0.60069(17) 0.09762(15)
C10 C 0.73751(12) 0.36939(17) 0.10763(16)
C11 C 0.65359(17) 0.3558(3) 0.1125(4)
H13 H 0.6425 0.384 0.183
H14 H 0.6389 0.2681 0.1021
H15 H 0.6247 0.4063 0.0557
C12 C 0.7838(2) 0.2822(2) 0.1891(3)
H16 H 0.7674 0.2929 0.26
H17 H 0.8382 0.3024 0.1939
H18 H 0.7755 0.1957 0.1655
C13 C 0.7577(3) 0.3477(3) -0.0039(3)
H19 H 0.7493 0.2599 -0.0235
H20 H 0.8114 0.369 -0.0049
H21 H 0.7254 0.4001 -0.0558
C14 C 0.84455(11) 0.72307(17) 0.19485(15)
C15 C 0.93689(11) 0.8781(2) 0.28745(19)
C16 C 0.98397(15) 0.8886(3) 0.1942(2)
H22 H 0.9939 0.8051 0.1678
H23 H 1.0325 0.9301 0.2194
H24 H 0.9555 0.9373 0.1356
C17 C 0.97366(16) 0.7888(3) 0.3773(2)
H25 H 0.9391 0.7782 0.4311
H26 H 1.0221 0.8241 0.4119
H27 H 0.9831 0.7078 0.3458
C18 C 0.92183(15) 1.0065(3) 0.3340(3)
H28 H 0.8959 1.0597 0.2766
H29 H 0.9705 1.0448 0.3642
H30 H 0.8895 0.997 0.3908
F1 F 0.62126(8) 0.68023(14) 0.21009(13)
N1 N 0.76530(8) 0.71047(13) 0.15793(12)
O1 O 0.78190(10) 0.87448(13) 0.00120(11)
O2 O 0.69764(9) 1.01576(13) 0.04945(14)
O3 O 0.85737(7) 0.83402(12) 0.24607(12)
O4 O 0.89257(8) 0.64516(13) 0.18149(13)
O5 O 0.76370(8) 0.49659(11) 0.14864(10)
O6 O 0.69175(10) 0.60838(13) 0.01484(12)
loop_
_geom_bond_atom_site_label_1
_geom_bond_atom_site_label_2
_geom_bond_site_symmetry_1
_geom_bond_site_symmetry_2
C1 H1 1_555 1_555
H2 C1 1_555 1_555
H3 C1 1_555 1_555
C2 C3 1_555 1_555
C3 C4 1_555 1_555
C4 H4 1_555 1_555
H5 C4 1_555 1_555
C5 C3 1_555 1_555
C6 C5 1_555 1_555
H6 C6 1_555 1_555
C7 C6 1_555 1_555
H7 C7 1_555 1_555
H8 C7 1_555 1_555
H9 C7 1_555 1_555
C8 C6 1_555 1_555
H10 C8 1_555 1_555
H11 C8 1_555 1_555
H12 C8 1_555 1_555
C9 N1 1_555 1_555
C10 C11 1_555 1_555
C11 H13 1_555 1_555
H14 C11 1_555 1_555
H15 C11 1_555 1_555
C12 C10 1_555 1_555
H16 C12 1_555 1_555
H17 C12 1_555 1_555
H18 C12 1_555 1_555
C13 C10 1_555 1_555
H19 C13 1_555 1_555
H20 C13 1_555 1_555
H21 C13 1_555 1_555
C14 N1 1_555 1_555
C15 C16 1_555 1_555
C16 H22 1_555 1_555
H23 C16 1_555 1_555
H24 C16 1_555 1_555
C17 C15 1_555 1_555
H25 C17 1_555 1_555
H26 C17 1_555 1_555
H27 C17 1_555 1_555
C18 C15 1_555 1_555
H28 C18 1_555 1_555
H29 C18 1_555 1_555
H30 C18 1_555 1_555
F1 C5 1_555 1_555
N1 C3 1_555 1_555
O1 C1 1_555 1_555
O2 C2 1_555 1_555
O3 C14 1_555 1_555
O4 C14 1_555 1_555
O5 C9 1_555 1_555
O6 C9 1_555 1_555
C2 O1 1_555 1_555
C4 C5 1_555 1_555
C10 O5 1_555 1_555
C15 O3 1_555 1_555

#END
