
#######################################################################
#
#                 Cambridge Crystallographic Data Centre
#                                CCDC 
#
#######################################################################
#
# If this CIF has been generated from an entry in the Cambridge 
# Structural Database, then it will include bibliographic, chemical, 
# crystal, experimental, refinement or atomic coordinate data resulting 
# from the CCDC's data processing and validation procedures.
#
#######################################################################

data_SEPXES
_chemical_formula_moiety         'C13 H16 Br2 N2 O4'
_chemical_name_systematic        
't-Butyl (2,2-dibromo-2-nitro-1-phenylethyl)carbamate'
_symmetry_cell_setting           orthorhombic
_symmetry_space_group_name_H-M   'P 21 21 21'
_symmetry_Int_Tables_number      19
_space_group_name_Hall           'P 2ac 2ab'
loop_
_symmetry_equiv_pos_site_id
_symmetry_equiv_pos_as_xyz
1 x,y,z
2 1/2-x,-y,1/2+z
3 -x,1/2+y,1/2-z
4 1/2+x,1/2-y,-z
_cell_length_a                   6.0202(10)
_cell_length_b                   9.5695(15)
_cell_length_c                   28.790(5)
_cell_angle_alpha                90
_cell_angle_beta                 90
_cell_angle_gamma                90
_cell_volume                     1658.6
_exptl_crystal_colour            colorless
_exptl_crystal_description       block
_cell_formula_units_Z            4
loop_
_atom_site_label
_atom_site_type_symbol
_atom_site_fract_x
_atom_site_fract_y
_atom_site_fract_z
Br1 Br 0.52801(8) 0.81129(5) 0.900637(17)
Br2 Br 0.05333(8) 0.68896(6) 0.91243(2)
C1 C 0.3257(8) 0.3846(4) 0.90554(15)
C2 C 0.1220(9) 0.3403(5) 0.88991(16)
H1 H 0.0438 0.3950 0.8688
C3 C 0.0311(10) 0.2151(5) 0.90516(18)
H2 H -0.1077 0.1872 0.8944
C4 C 0.1445(13) 0.1327(6) 0.9359(2)
H3 H 0.0842 0.0484 0.9459
C5 C 0.3514(12) 0.1765(6) 0.95201(18)
H4 H 0.4293 0.1214 0.9730
C6 C 0.4409(10) 0.3005(5) 0.93700(15)
H5 H 0.5793 0.3286 0.9479
C7 C 0.4308(8) 0.5186(4) 0.88819(13)
H6 H 0.5915 0.5079 0.8923
C8 C 0.5658(9) 0.5478(5) 0.80925(14)
C9 C 0.6346(9) 0.5908(5) 0.72662(15)
C10 C 0.7514(11) 0.4545(6) 0.7164(2)
H7 H 0.6446 0.3800 0.7157
H8 H 0.8595 0.4362 0.7401
H9 H 0.8243 0.4606 0.6868
C11 C 0.7912(10) 0.7121(6) 0.73528(19)
H10 H 0.8830 0.6918 0.7617
H11 H 0.7066 0.7952 0.7412
H12 H 0.8834 0.7260 0.7085
C12 C 0.4732(11) 0.6250(6) 0.68845(15)
H13 H 0.4050 0.7137 0.6946
H14 H 0.3609 0.5539 0.6870
H15 H 0.5507 0.6292 0.6593
C13 C 0.3617(7) 0.6462(4) 0.91723(15)
N1 N 0.4209(8) 0.6129(4) 0.96891(13)
N2 N 0.3952(7) 0.5463(4) 0.83979(12)
O1 O 0.6189(7) 0.6001(4) 0.97622(12)
O2 O 0.2757(8) 0.5944(5) 0.99595(13)
O3 O 0.7593(7) 0.5278(4) 0.81934(11)
O4 O 0.4851(6) 0.5755(3) 0.76684(9)
H16 H 0.245(8) 0.561(4) 0.8317(15)
loop_
_geom_bond_atom_site_label_1
_geom_bond_atom_site_label_2
_geom_bond_site_symmetry_1
_geom_bond_site_symmetry_2
Br1 C13 1_555 1_555
Br2 C13 1_555 1_555
C1 C2 1_555 1_555
C2 H1 1_555 1_555
C3 C2 1_555 1_555
H2 C3 1_555 1_555
C4 C3 1_555 1_555
H3 C4 1_555 1_555
C5 C4 1_555 1_555
H4 C5 1_555 1_555
C6 C1 1_555 1_555
H5 C6 1_555 1_555
C7 C1 1_555 1_555
H6 C7 1_555 1_555
C8 N2 1_555 1_555
C9 C10 1_555 1_555
C10 H7 1_555 1_555
H8 C10 1_555 1_555
H9 C10 1_555 1_555
C11 C9 1_555 1_555
H10 C11 1_555 1_555
H11 C11 1_555 1_555
H12 C11 1_555 1_555
C12 C9 1_555 1_555
H13 C12 1_555 1_555
H14 C12 1_555 1_555
H15 C12 1_555 1_555
C13 C7 1_555 1_555
N1 C13 1_555 1_555
N2 C7 1_555 1_555
O1 N1 1_555 1_555
O2 N1 1_555 1_555
O3 C8 1_555 1_555
O4 C8 1_555 1_555
H16 N2 1_555 1_555
C5 C6 1_555 1_555
C9 O4 1_555 1_555

#END
