
#######################################################################
#
#                 Cambridge Crystallographic Data Centre
#                                CCDC 
#
#######################################################################
#
# If this CIF has been generated from an entry in the Cambridge 
# Structural Database, then it will include bibliographic, chemical, 
# crystal, experimental, refinement or atomic coordinate data resulting 
# from the CCDC's data processing and validation procedures.
#
#######################################################################

data_SEQDAT
_chemical_formula_moiety         'C25 H21 N1 O4,0.5(C1 H2 Cl2)'
_chemical_name_systematic        
'N-(1-(4,5-Diphenyloxolan-2-yl)ethyl)phthalimide dichloromethane solvate'
_symmetry_cell_setting           triclinic
_symmetry_space_group_name_H-M   'P -1'
_symmetry_Int_Tables_number      2
_space_group_name_Hall           '-P 1'
loop_
_symmetry_equiv_pos_site_id
_symmetry_equiv_pos_as_xyz
1 x,y,z
2 -x,-y,-z
_cell_length_a                   11.3698(24)
_cell_length_b                   11.526(3)
_cell_length_c                   11.648(3)
_cell_angle_alpha                91.185(22)
_cell_angle_beta                 116.363(20)
_cell_angle_gamma                116.782(19)
_cell_volume                     1173.55
_cell_formula_units_Z            2
loop_
_atom_site_label
_atom_site_type_symbol
_atom_site_fract_x
_atom_site_fract_y
_atom_site_fract_z
O1 O 0.8837(6) 0.6441(6) 0.3907(6)
O2 O 0.9546(7) 0.5470(6) 0.2810(6)
O3 O 0.5965(7) 0.2886(6) 0.3693(6)
O4 O 0.5135(8) 0.5804(6) 0.1308(6)
N1 N 0.5789(7) 0.4341(6) 0.2369(6)
C1 C 0.8477(9) 0.5195(8) 0.3225(8)
C2 C 0.6893(10) 0.4488(8) 0.1987(8)
C3 C 0.6472(11) 0.3140(9) 0.1244(8)
C4 C 1.0048(9) 0.7526(8) 0.3800(8)
C5 C 1.0809(9) 0.6809(8) 0.3565(8)
C6 C 0.5405(9) 0.3559(8) 0.3209(8)
C7 C 0.4265(9) 0.3746(8) 0.3309(8)
C8 C 0.3528(10) 0.3208(9) 0.4016(9)
C9 C 0.2488(12) 0.3576(11) 0.3918(11)
C10 C 0.2223(12) 0.4453(11) 0.3209(11)
C11 C 0.2978(11) 0.5013(10) 0.2519(10)
C12 C 0.4013(9) 0.4632(8) 0.2591(8)
C13 C 0.4987(10) 0.5052(8) 0.1986(8)
C14 C 1.1015(8) 0.8659(8) 0.5027(7)
C15 C 1.1535(10) 0.9993(9) 0.4991(8)
C16 C 1.2406(11) 1.1026(9) 0.6120(10)
C17 C 1.2783(11) 1.0794(10) 0.7335(9)
C18 C 1.2276(12) 0.9482(11) 0.7397(8)
C19 C 1.1402(11) 0.8426(9) 0.6274(8)
C20 C 1.1570(9) 0.7386(8) 0.2771(8)
C21 C 1.0826(10) 0.6933(10) 0.1409(9)
C22 C 1.1582(12) 0.7510(12) 0.0724(10)
C23 C 1.3079(13) 0.8509(13) 0.1402(11)
C24 C 1.3811(12) 0.8970(12) 0.2732(11)
C25 C 1.3093(10) 0.8386(10) 0.3435(9)
H1 H 0.861 0.466 0.383
H2 H 0.700 0.514 0.149
H3 H 0.548 0.265 0.046
H4 H 0.713 0.331 0.088
H5 H 0.634 0.243 0.165
H6 H 0.963 0.780 0.302
H7 H 1.149 0.692 0.447
H8 H 0.380 0.267 0.459
H9 H 0.209 0.341 0.452
H10 H 0.156 0.474 0.322
H11 H 0.287 0.562 0.199
H12 H 1.129 1.008 0.412
H13 H 1.274 1.194 0.612
H14 H 1.341 1.154 0.811
H15 H 1.246 0.937 0.826
H16 H 1.099 0.751 0.629
H17 H 0.981 0.615 0.094
H18 H 1.097 0.707 -0.022
H19 H 1.358 0.888 0.093
H20 H 1.488 0.963 0.326
H21 H 1.363 0.887 0.435
C26 C 0.0000 0.0000 0.0000
Cl1 Cl 0.0606(10) 0.0586(8) 0.1359(5)
Cl1A Cl -0.0606(10) -0.0586(8) -0.1359(5)
Cl2? Cl 0.1834(12) 0.1465(12) -0.0023(11)
loop_
_geom_bond_atom_site_label_1
_geom_bond_atom_site_label_2
_geom_bond_site_symmetry_1
_geom_bond_site_symmetry_2
O1 C1 1_555 1_555
O2 C1 1_555 1_555
O3 C6 1_555 1_555
O4 C13 1_555 1_555
N1 C2 1_555 1_555
C1 C2 1_555 1_555
C2 C3 1_555 1_555
C3 H3 1_555 1_555
C4 O1 1_555 1_555
C5 O2 1_555 1_555
C6 N1 1_555 1_555
C7 C6 1_555 1_555
C8 C7 1_555 1_555
C9 C8 1_555 1_555
C10 C9 1_555 1_555
C11 C10 1_555 1_555
C12 C7 1_555 1_555
C13 N1 1_555 1_555
C14 C4 1_555 1_555
C15 C14 1_555 1_555
C16 C15 1_555 1_555
C17 C16 1_555 1_555
C18 C17 1_555 1_555
C19 C14 1_555 1_555
C20 C5 1_555 1_555
C21 C20 1_555 1_555
C22 C21 1_555 1_555
C23 C22 1_555 1_555
C24 C23 1_555 1_555
C25 C20 1_555 1_555
C26 Cl1 1_555 1_555
H1 C1 1_555 1_555
H2 C2 1_555 1_555
H4 C3 1_555 1_555
H5 C3 1_555 1_555
H6 C4 1_555 1_555
H7 C5 1_555 1_555
H8 C8 1_555 1_555
H9 C9 1_555 1_555
H10 C10 1_555 1_555
H11 C11 1_555 1_555
H12 C15 1_555 1_555
H13 C16 1_555 1_555
H14 C17 1_555 1_555
H15 C18 1_555 1_555
H16 C19 1_555 1_555
H17 C21 1_555 1_555
H18 C22 1_555 1_555
H19 C23 1_555 1_555
H20 C24 1_555 1_555
H21 C25 1_555 1_555
Cl1A C26 1_555 1_555
C4 C5 1_555 1_555
C11 C12 1_555 1_555
C12 C13 1_555 1_555
C18 C19 1_555 1_555
C24 C25 1_555 1_555

#END
