
#######################################################################
#
#                 Cambridge Crystallographic Data Centre
#                                CCDC 
#
#######################################################################
#
# If this CIF has been generated from an entry in the Cambridge 
# Structural Database, then it will include bibliographic, chemical, 
# crystal, experimental, refinement or atomic coordinate data resulting 
# from the CCDC's data processing and validation procedures.
#
#######################################################################

data_SEQJUV
_chemical_formula_moiety         'C28 H33 Br1 N4 O5'
_chemical_name_systematic        
'(S)-t-Butyl 2-((2-((R)-(2-((4-bromophenyl)carbamoyl)pyrrolidin-1-yl)carbonyl)phenyl)carbamoyl)pyrrolidine-1-carboxylate'
_symmetry_cell_setting           orthorhombic
_symmetry_space_group_name_H-M   'P 21 21 21'
_symmetry_Int_Tables_number      19
_space_group_name_Hall           'P 2ac 2ab'
loop_
_symmetry_equiv_pos_site_id
_symmetry_equiv_pos_as_xyz
1 x,y,z
2 1/2-x,-y,1/2+z
3 -x,1/2+y,1/2-z
4 1/2+x,1/2-y,-z
_cell_length_a                   8.1552(4)
_cell_length_b                   11.9329(6)
_cell_length_c                   28.3764(15)
_cell_angle_alpha                90
_cell_angle_beta                 90
_cell_angle_gamma                90
_cell_volume                     2761.45
_exptl_crystal_colour            colorless
_exptl_crystal_description       needle
_cell_formula_units_Z            4
loop_
_atom_site_label
_atom_site_type_symbol
_atom_site_fract_x
_atom_site_fract_y
_atom_site_fract_z
Br1 Br 1.00519(6) 1.33617(3) 1.062917(14)
O1 O 0.5272(3) 0.94141(17) 0.80502(8)
O2 O 0.6844(2) 0.81436(15) 0.76585(6)
O3 O 1.0372(3) 0.69604(16) 0.77638(7)
O4 O 0.8255(2) 0.61376(16) 0.97067(6)
O5 O 0.8261(2) 0.84409(15) 0.93683(7)
N1 N 0.7942(3) 0.91251(17) 0.82368(7)
N2 N 0.9060(3) 0.68732(16) 0.84722(7)
H1 H 0.8696 0.7289 0.8697
N3 N 0.6220(2) 0.66680(17) 0.92142(7)
N4 N 0.6723(3) 0.90867(17) 0.99808(7)
H2 H 0.5866 0.8929 1.0145
C1 C 0.6558(3) 0.8937(2) 0.79825(9)
C2 C 0.9561(3) 0.8698(2) 0.80967(9)
H3 H 0.9801 0.8975 0.7779
C3 C 1.0702(3) 0.9284(2) 0.84389(11)
H4 H 1.1797 0.9355 0.8309
H5 H 1.0762 0.8885 0.8736
C4 C 0.9897(4) 1.0426(2) 0.84998(12)
H6 H 1.0257 1.0784 0.8789
H7 H 1.0145 1.0914 0.8236
C5 C 0.8081(4) 1.0155(2) 0.85189(10)
H8 H 0.7725 1.0028 0.8841
H9 H 0.7434 1.0756 0.8383
C6 C 0.9694(3) 0.7418(2) 0.80897(9)
C7 C 0.8937(3) 0.5706(2) 0.85399(9)
C8 C 0.8179(3) 0.5297(2) 0.89463(8)
C9 C 0.8044(4) 0.4146(2) 0.90212(10)
H10 H 0.7549 0.3883 0.9295
C10 C 0.8635(4) 0.3399(2) 0.86959(10)
H11 H 0.8531 0.2632 0.8747
C11 C 0.9384(4) 0.3791(2) 0.82921(11)
H12 H 0.9775 0.3285 0.8070
C12 C 0.9558(4) 0.4923(2) 0.82147(10)
H13 H 1.0092 0.5173 0.7945
C13 C 0.7556(3) 0.60651(19) 0.93214(8)
C14 C 0.5643(3) 0.75820(19) 0.95145(8)
H14 H 0.5196 0.7287 0.9810
C15 C 0.4285(3) 0.8118(2) 0.92186(9)
H15 H 0.3426 0.8419 0.9418
H16 H 0.4718 0.8716 0.9023
C16 C 0.3643(3) 0.7163(2) 0.89182(10)
H17 H 0.2868 0.6708 0.9093
H18 H 0.3114 0.7444 0.8636
C17 C 0.5171(3) 0.6502(2) 0.87980(9)
H19 H 0.4919 0.5715 0.8752
H20 H 0.5691 0.6792 0.8516
C18 C 0.7035(3) 0.8400(2) 0.96125(8)
C19 C 0.7630(3) 1.0031(2) 1.01292(9)
C20 C 0.9042(4) 1.0412(2) 0.99149(10)
H21 H 0.9509 1.0006 0.9669
C21 C 0.9763(4) 1.1399(2) 1.00659(10)
H22 H 1.0706 1.1664 0.9919
C22 C 0.9088(4) 1.1984(2) 1.04313(10)
C23 C 0.7745(4) 1.1595(2) 1.06619(10)
H23 H 0.7327 1.1982 1.0920
C24 C 0.7006(4) 1.0620(2) 1.05092(9)
H24 H 0.6077 1.0356 1.0664
C25 C 0.5632(3) 0.7877(2) 0.72868(10)
C26 C 0.4073(4) 0.7431(3) 0.74993(11)
H25 H 0.4325 0.6819 0.7707
H26 H 0.3359 0.7175 0.7253
H27 H 0.3539 0.8016 0.7674
C27 C 0.6521(4) 0.6986(3) 0.70064(11)
H28 H 0.7534 0.7286 0.6889
H29 H 0.5848 0.6753 0.6747
H30 H 0.6746 0.6354 0.7206
C28 C 0.5357(5) 0.8925(3) 0.69934(12)
H31 H 0.4755 0.9464 0.7175
H32 H 0.4745 0.8735 0.6716
H33 H 0.6396 0.9236 0.6904
loop_
_geom_bond_atom_site_label_1
_geom_bond_atom_site_label_2
_geom_bond_site_symmetry_1
_geom_bond_site_symmetry_2
Br1 C22 1_555 1_555
O1 C1 1_555 1_555
O2 C1 1_555 1_555
O3 C6 1_555 1_555
O4 C13 1_555 1_555
O5 C18 1_555 1_555
N1 C1 1_555 1_555
N2 H1 1_555 1_555
N3 C13 1_555 1_555
N4 H2 1_555 1_555
C2 N1 1_555 1_555
H3 C2 1_555 1_555
C3 C2 1_555 1_555
H4 C3 1_555 1_555
H5 C3 1_555 1_555
C4 C3 1_555 1_555
H6 C4 1_555 1_555
H7 C4 1_555 1_555
C5 N1 1_555 1_555
H8 C5 1_555 1_555
H9 C5 1_555 1_555
C6 N2 1_555 1_555
C7 N2 1_555 1_555
C8 C7 1_555 1_555
C9 C8 1_555 1_555
H10 C9 1_555 1_555
C10 C9 1_555 1_555
H11 C10 1_555 1_555
C11 C10 1_555 1_555
H12 C11 1_555 1_555
C12 C7 1_555 1_555
H13 C12 1_555 1_555
C13 C8 1_555 1_555
C14 N3 1_555 1_555
H14 C14 1_555 1_555
C15 C14 1_555 1_555
H15 C15 1_555 1_555
H16 C15 1_555 1_555
C16 C15 1_555 1_555
H17 C16 1_555 1_555
H18 C16 1_555 1_555
C17 N3 1_555 1_555
H19 C17 1_555 1_555
H20 C17 1_555 1_555
C18 N4 1_555 1_555
C19 N4 1_555 1_555
C20 C19 1_555 1_555
H21 C20 1_555 1_555
C21 C20 1_555 1_555
H22 C21 1_555 1_555
C22 C21 1_555 1_555
C23 C22 1_555 1_555
H23 C23 1_555 1_555
C24 C19 1_555 1_555
H24 C24 1_555 1_555
C25 O2 1_555 1_555
C26 C25 1_555 1_555
H25 C26 1_555 1_555
H26 C26 1_555 1_555
H27 C26 1_555 1_555
C27 C25 1_555 1_555
H28 C27 1_555 1_555
H29 C27 1_555 1_555
H30 C27 1_555 1_555
C28 C25 1_555 1_555
H31 C28 1_555 1_555
H32 C28 1_555 1_555
H33 C28 1_555 1_555
C2 C6 1_555 1_555
C4 C5 1_555 1_555
C11 C12 1_555 1_555
C14 C18 1_555 1_555
C16 C17 1_555 1_555
C23 C24 1_555 1_555

#END
