
#######################################################################
#
#                 Cambridge Crystallographic Data Centre
#                                CCDC 
#
#######################################################################
#
# If this CIF has been generated from an entry in the Cambridge 
# Structural Database, then it will include bibliographic, chemical, 
# crystal, experimental, refinement or atomic coordinate data resulting 
# from the CCDC's data processing and validation procedures.
#
#######################################################################

data_SEQKII
_chemical_formula_moiety         'C15 H23 N3 O6'
_chemical_name_systematic        "C(6)-Aminobicyclomycin C(2'),C(3')-acetonide"
_chemical_properties_biological  'inactive as an antibiotic'
_symmetry_cell_setting           orthorhombic
_symmetry_space_group_name_H-M   'P 21 21 21'
_symmetry_Int_Tables_number      19
_space_group_name_Hall           'P 2ac 2ab'
loop_
_symmetry_equiv_pos_site_id
_symmetry_equiv_pos_as_xyz
1 x,y,z
2 1/2-x,-y,1/2+z
3 1/2+x,1/2-y,-z
4 -x,1/2+y,1/2-z
_cell_length_a                   7.155(1)
_cell_length_b                   9.104(3)
_cell_length_c                   25.169(7)
_cell_angle_alpha                90
_cell_angle_beta                 90
_cell_angle_gamma                90
_cell_volume                     1639.49
_exptl_crystal_colour            colorless
_exptl_crystal_description       block
_chemical_melting_point          183-185deg.C
_cell_formula_units_Z            4
loop_
_atom_site_label
_atom_site_type_symbol
_atom_site_fract_x
_atom_site_fract_y
_atom_site_fract_z
C1 C 0.4892(5) 0.7512(4) 0.0509(1)
C2 C 0.6570(5) 0.7299(4) 0.0877(1)
N1 N 0.6808(4) 0.5916(3) 0.1061(1)
C3 C 0.5749(5) 0.4625(3) 0.0908(1)
O1 O 0.4349(3) 0.4256(2) 0.1287(1)
C4 C 0.3228(5) 0.5455(4) 0.1495(1)
C5 C 0.2167(5) 0.6363(4) 0.1084(1)
C6 C 0.3149(5) 0.7699(4) 0.0860(1)
N2 N 0.4706(4) 0.6197(3) 0.0173(1)
C7 C 0.4813(5) 0.4827(4) 0.0358(1)
N3 N 0.5333(5) 0.8727(4) 0.0163(1)
O2 O 0.7573(3) 0.8316(3) 0.1002(1)
C8 C 0.7088(5) 0.3302(3) 0.0859(1)
O3 O 0.8368(4) 0.3747(3) 0.0459(1)
C9 C 0.8068(6) 0.2761(3) 0.1374(1)
O4 O 0.8482(3) 0.3978(2) 0.1730(1)
C10 C 0.9873(5) 0.1975(4) 0.1232(1)
C11 C 0.6834(6) 0.1797(4) 0.1724(1)
O5 O 0.7622(4) 0.2002(3) 0.2241(1)
C12 C 0.2502(6) 0.9031(5) 0.0970(2)
O6 O 0.4209(4) 0.3752(3) 0.0116(1)
C13 C 0.8204(6) 0.3500(4) 0.2274(1)
C14 C 1.0025(6) 0.3566(4) 0.2576(1)
C15 C 0.6670(6) 0.4442(4) 0.2522(1)
H1 H 0.7751(51) 0.5756(38) 0.1320(13)
H2 H 0.2291 0.5028 0.1747
H3 H 0.4079 0.6132 0.1693
H4 H 0.0982 0.6708 0.1254
H5 H 0.1863 0.5700 0.0779
H6 H 0.4063(52) 0.6268(41) -0.0120(14)
H7 H 0.5965(50) 0.9412(38) 0.0400(13)
H8 H 0.4475(58) 0.9122(43) 0.0041(15)
H9 H 0.6358 0.2399 0.0769
H10 H 0.8644(56) 0.3012(37) 0.0301(13)
H11 H 0.9593 0.1138 0.0987
H12 H 1.0474 0.1592 0.1563
H13 H 1.0741 0.2678 0.1052
H14 H 0.6905 0.0745 0.1612
H15 H 0.5503 0.2133 0.1713
H16 H 0.1356(48) 0.9126(37) 0.1208(12)
H17 H 0.3028(51) 0.9902(37) 0.0814(13)
H18 H 1.0451 0.4609 0.2602
H19 H 1.0991 0.2974 0.2384
H20 H 0.9841 0.3157 0.2941
H21 H 0.6460 0.4126 0.2898
H22 H 0.5486 0.4319 0.2316
H23 H 0.7057 0.5497 0.2516
loop_
_geom_bond_atom_site_label_1
_geom_bond_atom_site_label_2
_geom_bond_site_symmetry_1
_geom_bond_site_symmetry_2
C1 C2 1_555 1_555
C2 N1 1_555 1_555
N1 C3 1_555 1_555
C3 O1 1_555 1_555
O1 C4 1_555 1_555
C4 C5 1_555 1_555
C5 C6 1_555 1_555
C6 C1 1_555 1_555
N2 C1 1_555 1_555
C7 C3 1_555 1_555
N3 C1 1_555 1_555
O2 C2 1_555 1_555
C8 C3 1_555 1_555
O3 C8 1_555 1_555
C9 C8 1_555 1_555
O4 C9 1_555 1_555
C10 C9 1_555 1_555
C11 C9 1_555 1_555
O5 C11 1_555 1_555
C12 C6 1_555 1_555
O6 C7 1_555 1_555
C13 O4 1_555 1_555
C14 C13 1_555 1_555
C15 C13 1_555 1_555
H1 N1 1_555 1_555
H2 C4 1_555 1_555
H3 C4 1_555 1_555
H4 C5 1_555 1_555
H5 C5 1_555 1_555
H6 N2 1_555 1_555
H7 N3 1_555 1_555
H8 N3 1_555 1_555
H9 C8 1_555 1_555
H10 O3 1_555 1_555
H11 C10 1_555 1_555
H12 C10 1_555 1_555
H13 C10 1_555 1_555
H14 C11 1_555 1_555
H15 C11 1_555 1_555
H16 C12 1_555 1_555
H17 C12 1_555 1_555
H18 C14 1_555 1_555
H19 C14 1_555 1_555
H20 C14 1_555 1_555
H21 C15 1_555 1_555
H22 C15 1_555 1_555
H23 C15 1_555 1_555
N2 C7 1_555 1_555
O5 C13 1_555 1_555

#END
