
#######################################################################
#
#                 Cambridge Crystallographic Data Centre
#                                CCDC 
#
#######################################################################
#
# If this CIF has been generated from an entry in the Cambridge 
# Structural Database, then it will include bibliographic, chemical, 
# crystal, experimental, refinement or atomic coordinate data resulting 
# from the CCDC's data processing and validation procedures.
#
#######################################################################

data_SEQNIO
_chemical_formula_moiety         'C32 H32 N2 O2'
_chemical_name_systematic        
2-benzyl-4-t-butyl-8-phenyl-9-(2-phenylvinyl)-2,3-diazaspiro[4.4]non-3-ene-1,6-dione
_symmetry_cell_setting           orthorhombic
_symmetry_space_group_name_H-M   'P 21 21 21'
_symmetry_Int_Tables_number      19
_space_group_name_Hall           'P 2ac 2ab'
loop_
_symmetry_equiv_pos_site_id
_symmetry_equiv_pos_as_xyz
1 x,y,z
2 1/2-x,-y,1/2+z
3 1/2+x,1/2-y,-z
4 -x,1/2+y,1/2-z
_cell_length_a                   9.5227(4)
_cell_length_b                   9.5824(3)
_cell_length_c                   29.0623(9)
_cell_angle_alpha                90
_cell_angle_beta                 90
_cell_angle_gamma                90
_cell_volume                     2651.94
_exptl_crystal_colour            colorless
_exptl_crystal_description       plate
_cell_formula_units_Z            4
loop_
_atom_site_label
_atom_site_type_symbol
_atom_site_fract_x
_atom_site_fract_y
_atom_site_fract_z
O1 O 0.47915(11) 0.93252(11) 0.15694(3)
O2 O 0.49793(11) 0.76716(12) 0.26995(3)
N1 N 0.80391(13) 0.82890(14) 0.19924(4)
N2 N 0.70704(13) 0.92599(13) 0.18242(4)
C1 C 0.58602(14) 0.71975(15) 0.19238(4)
C2 C 0.74038(14) 0.71206(16) 0.20546(4)
C3 C 0.57781(15) 0.87163(15) 0.17442(4)
C4 C 0.48013(14) 0.71279(15) 0.23296(5)
C5 C 0.35121(15) 0.63511(17) 0.21680(5)
H1 H 0.2645 0.6826 0.2272
H2 H 0.3510 0.5382 0.2286
C6 C 0.36245(14) 0.63693(16) 0.16385(4)
H3 H 0.3376 0.7328 0.1530
C7 C 0.52325(14) 0.61591(15) 0.15674(5)
H4 H 0.5478 0.5190 0.1667
C8 C 0.81999(15) 0.58776(16) 0.22486(5)
C9 C 0.8353(2) 0.4719(2) 0.18887(6)
H5 H 0.7428 0.4317 0.1823
H6 H 0.8976 0.3990 0.2008
H7 H 0.8751 0.5110 0.1606
C10 C 0.9671(2) 0.6343(2) 0.23913(9)
H8 H 1.0160 0.6735 0.2124
H9 H 1.0197 0.5539 0.2508
H10 H 0.9599 0.7054 0.2633
C11 C 0.7430(2) 0.52971(19) 0.26662(6)
H11 H 0.7327 0.6032 0.2898
H12 H 0.7967 0.4520 0.2796
H13 H 0.6499 0.4966 0.2573
C12 C 0.75514(17) 1.05925(16) 0.16398(5)
H14 H 0.8371 1.0919 0.1820
H15 H 0.6795 1.1294 0.1673
C13 C 0.79576(16) 1.04754(15) 0.11388(5)
C14 C 0.69965(19) 1.08066(16) 0.07975(5)
H16 H 0.6086 1.1127 0.0879
C15 C 0.7362(2) 1.06718(18) 0.03347(6)
H17 H 0.6696 1.0887 0.0102
C16 C 0.8688(3) 1.0227(2) 0.02155(6)
H18 H 0.8946 1.0164 -0.0100
C17 C 0.9641(2) 0.9873(2) 0.05514(8)
H19 H 1.0547 0.9544 0.0467
C18 C 0.92847(19) 0.99939(19) 0.10141(6)
H20 H 0.9946 0.9748 0.1245
C19 C 0.57959(15) 0.63727(15) 0.10913(4)
H21 H 0.5699 0.7266 0.0953
C20 C 0.64264(15) 0.53635(15) 0.08541(5)
H22 H 0.6417 0.4461 0.0989
C21 C 0.71377(14) 0.54871(15) 0.04060(4)
C22 C 0.75802(16) 0.42702(16) 0.01853(5)
H23 H 0.7393 0.3391 0.0323
C23 C 0.82898(17) 0.43215(18) -0.02321(5)
H24 H 0.8577 0.3482 -0.0378
C24 C 0.85782(18) 0.55989(19) -0.04350(5)
H25 H 0.9052 0.5640 -0.0722
C25 C 0.81685(19) 0.68151(17) -0.02150(5)
H26 H 0.8382 0.7693 -0.0350
C26 C 0.74490(17) 0.67676(16) 0.02012(5)
H27 H 0.7168 0.7610 0.0347
C27 C 0.26992(14) 0.53385(16) 0.13867(5)
C28 C 0.28124(17) 0.39006(17) 0.14471(6)
H28 H 0.3488 0.3536 0.1655
C29 C 0.1943(2) 0.29963(19) 0.12042(6)
H29 H 0.2030 0.2017 0.1248
C30 C 0.09504(18) 0.35117(19) 0.08996(5)
H30 H 0.0357 0.2890 0.0735
C31 C 0.08294(17) 0.49341(19) 0.08367(5)
H31 H 0.0154 0.5294 0.0627
C32 C 0.16963(15) 0.58406(18) 0.10796(5)
H32 H 0.1603 0.6818 0.1035
loop_
_geom_bond_atom_site_label_1
_geom_bond_atom_site_label_2
_geom_bond_site_symmetry_1
_geom_bond_site_symmetry_2
O1 C3 1_555 1_555
O2 C4 1_555 1_555
N1 N2 1_555 1_555
N2 C3 1_555 1_555
C1 C2 1_555 1_555
C2 N1 1_555 1_555
C3 C1 1_555 1_555
C4 C1 1_555 1_555
C5 C4 1_555 1_555
H1 C5 1_555 1_555
H2 C5 1_555 1_555
C6 C5 1_555 1_555
H3 C6 1_555 1_555
C7 C1 1_555 1_555
H4 C7 1_555 1_555
C8 C2 1_555 1_555
C9 C8 1_555 1_555
H5 C9 1_555 1_555
H6 C9 1_555 1_555
H7 C9 1_555 1_555
C10 C8 1_555 1_555
H8 C10 1_555 1_555
H9 C10 1_555 1_555
H10 C10 1_555 1_555
C11 C8 1_555 1_555
H11 C11 1_555 1_555
H12 C11 1_555 1_555
H13 C11 1_555 1_555
C12 N2 1_555 1_555
H14 C12 1_555 1_555
H15 C12 1_555 1_555
C13 C12 1_555 1_555
C14 C13 1_555 1_555
H16 C14 1_555 1_555
C15 C14 1_555 1_555
H17 C15 1_555 1_555
C16 C15 1_555 1_555
H18 C16 1_555 1_555
C17 C16 1_555 1_555
H19 C17 1_555 1_555
C18 C13 1_555 1_555
H20 C18 1_555 1_555
C19 C7 1_555 1_555
H21 C19 1_555 1_555
C20 C19 1_555 1_555
H22 C20 1_555 1_555
C21 C20 1_555 1_555
C22 C21 1_555 1_555
H23 C22 1_555 1_555
C23 C22 1_555 1_555
H24 C23 1_555 1_555
C24 C23 1_555 1_555
H25 C24 1_555 1_555
C25 C24 1_555 1_555
H26 C25 1_555 1_555
C26 C21 1_555 1_555
H27 C26 1_555 1_555
C27 C6 1_555 1_555
C28 C27 1_555 1_555
H28 C28 1_555 1_555
C29 C28 1_555 1_555
H29 C29 1_555 1_555
C30 C29 1_555 1_555
H30 C30 1_555 1_555
C31 C30 1_555 1_555
H31 C31 1_555 1_555
C32 C27 1_555 1_555
H32 C32 1_555 1_555
C6 C7 1_555 1_555
C17 C18 1_555 1_555
C25 C26 1_555 1_555
C31 C32 1_555 1_555

#END
