
#######################################################################
#
#                 Cambridge Crystallographic Data Centre
#                                CCDC 
#
#######################################################################
#
# If this CIF has been generated from an entry in the Cambridge 
# Structural Database, then it will include bibliographic, chemical, 
# crystal, experimental, refinement or atomic coordinate data resulting 
# from the CCDC's data processing and validation procedures.
#
#######################################################################

data_SERKEH
_chemical_formula_moiety         'C19 H15 Cl2 N1 O2 S1'
_chemical_name_systematic        
N-(3,5-Dichlorobiphenyl-2-yl)-4-methylbenzenesulfonamide
_symmetry_cell_setting           triclinic
_symmetry_space_group_name_H-M   'P -1'
_symmetry_Int_Tables_number      2
_space_group_name_Hall           '-P 1'
loop_
_symmetry_equiv_pos_site_id
_symmetry_equiv_pos_as_xyz
1 x,y,z
2 -x,-y,-z
_cell_length_a                   9.6225(5)
_cell_length_b                   10.1068(6)
_cell_length_c                   11.0365(6)
_cell_angle_alpha                74.5820(10)
_cell_angle_beta                 71.2660(10)
_cell_angle_gamma                68.8470(10)
_cell_volume                     934.211
_exptl_crystal_colour            colorless
_exptl_crystal_description       Block
_cell_formula_units_Z            2
loop_
_atom_site_label
_atom_site_type_symbol
_atom_site_fract_x
_atom_site_fract_y
_atom_site_fract_z
Cl1 Cl 0.49396(7) 0.24314(6) 0.23030(5)
Cl2 Cl 0.23254(7) 0.13316(8) 0.73663(6)
S1 S 0.25330(5) 0.07282(5) 0.12693(4)
O1 O 0.11758(15) 0.04417(16) 0.21416(13)
O2 O 0.32187(17) 0.01516(17) 0.00866(12)
H1 H 0.466(3) 0.013(2) 0.158(2)
N1 N 0.38877(17) 0.00733(16) 0.20607(13)
C1 C 0.3932(2) 0.14470(18) 0.35744(17)
C2 C 0.3571(2) 0.1754(2) 0.48074(19)
H2 H 0.3847 0.2492 0.4948
C3 C 0.2797(2) 0.0951(2) 0.58183(18)
C4 C 0.2445(2) -0.0184(2) 0.56412(17)
H3 H 0.1926 -0.0725 0.6355
C5 C 0.28579(18) -0.05300(18) 0.44054(16)
C6 C 0.35600(18) 0.03359(17) 0.33426(15)
C7 C 0.2595(2) -0.18402(19) 0.42667(16)
C8 C 0.1180(2) -0.2080(2) 0.4831(2)
H4 H 0.0375 -0.1411 0.5308
C9 C 0.0944(3) -0.3301(3) 0.4694(3)
H5 H -0.0030 -0.3442 0.5057
C10 C 0.2126(3) -0.4308(3) 0.4032(3)
H6 H 0.1960 -0.5131 0.3934
C11 C 0.3547(3) -0.4103(3) 0.3514(3)
H7 H 0.4365 -0.4803 0.3082
C12 C 0.3788(2) -0.2874(2) 0.3623(2)
H8 H 0.4765 -0.2741 0.3259
C13 C 0.2170(2) 0.2612(2) 0.08939(17)
C14 C 0.3146(3) 0.3211(2) -0.0144(2)
H9 H 0.3958 0.2630 -0.0699
C15 C 0.2910(3) 0.4670(3) -0.0351(3)
H10 H 0.3575 0.5076 -0.1056
C16 C 0.1725(3) 0.5562(3) 0.0447(2)
C17 C 0.0762(3) 0.4937(3) 0.1461(3)
H11 H -0.0056 0.5520 0.2011
C18 C 0.0965(2) 0.3477(2) 0.1694(2)
H12 H 0.0289 0.3074 0.2391
C19 C 0.1519(4) 0.7152(3) 0.0221(4)
H13 H 0.0545 0.7624 0.0772
H14 H 0.1526 0.7555 -0.0682
H15 H 0.2353 0.7299 0.0428
loop_
_geom_bond_atom_site_label_1
_geom_bond_atom_site_label_2
_geom_bond_site_symmetry_1
_geom_bond_site_symmetry_2
Cl1 C1 1_555 1_555
Cl2 C3 1_555 1_555
S1 O1 1_555 1_555
O2 S1 1_555 1_555
H1 N1 1_555 1_555
N1 S1 1_555 1_555
C1 C2 1_555 1_555
C2 H2 1_555 1_555
C3 C2 1_555 1_555
C4 C3 1_555 1_555
H3 C4 1_555 1_555
C5 C4 1_555 1_555
C6 N1 1_555 1_555
C7 C5 1_555 1_555
C8 C7 1_555 1_555
H4 C8 1_555 1_555
C9 C8 1_555 1_555
H5 C9 1_555 1_555
C10 C9 1_555 1_555
H6 C10 1_555 1_555
C11 C10 1_555 1_555
H7 C11 1_555 1_555
C12 C7 1_555 1_555
H8 C12 1_555 1_555
C13 S1 1_555 1_555
C14 C13 1_555 1_555
H9 C14 1_555 1_555
C15 C14 1_555 1_555
H10 C15 1_555 1_555
C16 C15 1_555 1_555
C17 C16 1_555 1_555
H11 C17 1_555 1_555
C18 C13 1_555 1_555
H12 C18 1_555 1_555
C19 C16 1_555 1_555
H13 C19 1_555 1_555
H14 C19 1_555 1_555
H15 C19 1_555 1_555
C1 C6 1_555 1_555
C5 C6 1_555 1_555
C11 C12 1_555 1_555
C17 C18 1_555 1_555

#END
