
#######################################################################
#
#                 Cambridge Crystallographic Data Centre
#                                CCDC 
#
#######################################################################
#
# If this CIF has been generated from an entry in the Cambridge 
# Structural Database, then it will include bibliographic, chemical, 
# crystal, experimental, refinement or atomic coordinate data resulting 
# from the CCDC's data processing and validation procedures.
#
#######################################################################

data_SESLEH
_chemical_formula_moiety         'C10 H8 S4 Se4 1+,C10 H8 S4 Se4,Br2 I1 1-'
_chemical_name_systematic        
'bis(bis(Ethylenediseleno)tetrathiafulvalene) dibromo-iodide'
_symmetry_cell_setting           triclinic
_symmetry_space_group_name_H-M   'P -1'
_symmetry_Int_Tables_number      2
_space_group_name_Hall           '-P 1'
loop_
_symmetry_equiv_pos_site_id
_symmetry_equiv_pos_as_xyz
1 x,y,z
2 -x,-y,-z
_cell_length_a                   6.863(2)
_cell_length_b                   10.065(3)
_cell_length_c                   13.183(3)
_cell_angle_alpha                87.94(2)
_cell_angle_beta                 100.49(2)
_cell_angle_gamma                98.84(2)
_cell_volume                     884.744
_cell_formula_units_Z            1
loop_
_atom_site_label
_atom_site_type_symbol
_atom_site_fract_x
_atom_site_fract_y
_atom_site_fract_z
Se1 Se 0.0022(2) -0.6483(2) 0.15660(14)
Se2 Se -0.4782(2) -0.5382(2) 0.19169(13)
Se3 Se 0.6712(3) -0.0979(2) 0.7110(2)
Se4 Se 0.2002(3) 0.0163(2) 0.7285(2)
S1 S 0.1681(6) -0.4763(4) 0.3501(3)
S2 S -0.2082(6) -0.3873(4) 0.3731(3)
S3 S 0.4066(6) -0.2787(4) 0.5369(3)
S4 S 0.0317(6) -0.1797(4) 0.5505(3)
C1 C 0.047(2) -0.373(2) 0.4149(11)
C2 C 0.148(2) -0.290(2) 0.4905(12)
C3 C -0.041(2) -0.537(2) 0.2614(12)
C4 C -0.218(2) -0.4951(14) 0.2715(12)
C5 C 0.416(2) -0.157(2) 0.6298(12)
C6 C 0.244(2) -0.113(2) 0.6351(12)
C7 C -0.244(3) -0.643(3) 0.059(2)
C8 C -0.423(3) -0.667(3) 0.096(2)
C9 C 0.627(3) 0.088(2) 0.716(2)
C10 C 0.475(3) 0.105(2) 0.777(2)
I1 I 0.0000 0.0000 0.0000
Br1 Br 0.0929(3) 0.2374(2) -0.09554(15)
Br1A Br -0.0929(3) -0.2374(2) 0.09554(15)
loop_
_geom_bond_atom_site_label_1
_geom_bond_atom_site_label_2
_geom_bond_site_symmetry_1
_geom_bond_site_symmetry_2
I1 Br1 1_555 1_555
Se1 C3 1_555 1_555
Se2 C4 1_555 1_555
Se3 C5 1_555 1_555
Se4 C6 1_555 1_555
S1 C1 1_555 1_555
S2 C1 1_555 1_555
S3 C2 1_555 1_555
S4 C2 1_555 1_555
C1 C2 1_555 1_555
C3 S1 1_555 1_555
C4 S2 1_555 1_555
C5 S3 1_555 1_555
C6 S4 1_555 1_555
C7 Se1 1_555 1_555
C8 Se2 1_555 1_555
C9 Se3 1_555 1_555
C10 Se4 1_555 1_555
Br1A I1 1_555 1_555
C3 C4 1_555 1_555
C5 C6 1_555 1_555
C7 C8 1_555 1_555
C9 C10 1_555 1_555

#END
