
#######################################################################
#
#                 Cambridge Crystallographic Data Centre
#                                CCDC 
#
#######################################################################
#
# If this CIF has been generated from an entry in the Cambridge 
# Structural Database, then it will include bibliographic, chemical, 
# crystal, experimental, refinement or atomic coordinate data resulting 
# from the CCDC's data processing and validation procedures.
#
#######################################################################

data_SESMAG
_chemical_formula_moiety         'C24 H29 N1 O5'
_chemical_name_systematic        
'Dimethyl but-2-yn-1-yl((1-(2-methoxybenzyl)-4,5-dimethyl-1H-pyrrol-3-yl)methyl)malonate'
_symmetry_cell_setting           triclinic
_symmetry_space_group_name_H-M   'P -1'
_symmetry_Int_Tables_number      2
_space_group_name_Hall           '-P 1'
loop_
_symmetry_equiv_pos_site_id
_symmetry_equiv_pos_as_xyz
1 x,y,z
2 -x,-y,-z
_cell_length_a                   8.2459(8)
_cell_length_b                   8.7253(8)
_cell_length_c                   17.0434(15)
_cell_angle_alpha                98.293(7)
_cell_angle_beta                 101.048(7)
_cell_angle_gamma                107.799(7)
_cell_volume                     1118.59
_exptl_crystal_colour            colorless
_exptl_crystal_description       block
_cell_formula_units_Z            2
loop_
_atom_site_label
_atom_site_type_symbol
_atom_site_fract_x
_atom_site_fract_y
_atom_site_fract_z
O1 O 0.4659(2) 0.8876(2) 0.31837(11)
O2 O 0.9124(2) 0.9044(2) 0.32766(11)
O3 O 0.6798(2) 0.9807(2) 0.43396(11)
N1 N 0.8431(2) 0.3932(3) 0.19097(12)
C1 C 0.5923(3) 0.3363(3) 0.22918(14)
O4 O 0.9503(2) 0.7669(3) 0.42605(12)
C2 C 0.5852(3) 0.6377(3) 0.26109(14)
H1 H 0.4587 0.5847 0.2499
H2 H 0.6071 0.7185 0.2273
C3 C 0.6551(3) 0.7297(3) 0.35213(14)
C4 C 0.5865(3) 0.8725(3) 0.36400(14)
C5 C 0.8552(3) 0.8000(3) 0.37453(15)
C6 C 0.8162(3) 0.5388(3) 0.21081(14)
H3 H 0.8900 0.6415 0.2080
O5 O 1.1641(3) 0.2507(3) 0.05967(12)
C7 C 0.4082(4) 0.5500(3) 0.40200(15)
C8 C 0.7046(3) 0.2669(3) 0.20084(14)
C9 C 0.5987(3) 0.6157(3) 0.41075(15)
H4 H 0.6408 0.5239 0.4013
H5 H 0.6555 0.6766 0.4667
C10 C 0.6630(3) 0.5098(3) 0.23552(13)
C11 C 0.9137(3) 0.3214(3) 0.05900(15)
C12 C 0.2555(4) 0.4936(3) 0.39749(15)
C13 C 0.9785(3) 0.3713(4) 0.15125(14)
H6 H 1.0191 0.2875 0.1712
H7 H 1.0778 0.4737 0.1661
C14 C 0.7616(3) 0.3366(4) 0.01706(17)
H8 H 0.6951 0.3797 0.0462
C15 C 0.4217(3) 0.2431(3) 0.24628(17)
H9 H 0.4051 0.1275 0.2363
H10 H 0.3265 0.2608 0.2110
H11 H 0.4244 0.2813 0.3024
C16 C 1.0121(4) 0.2577(3) 0.01339(17)
C17 C 0.0686(4) 0.4237(4) 0.39420(18)
H12 H 0.0360 0.3492 0.3420
H13 H -0.0077 0.4846 0.3796
H14 H 0.0308 0.3420 0.4252
C18 C 0.9552(4) 0.2081(4) -0.07014(18)
H15 H 1.0201 0.1638 -0.0998
C19 C 0.6921(4) 0.0920(4) 0.18133(19)
H16 H 0.7937 0.0850 0.1634
H17 H 0.5879 0.0307 0.1386
H18 H 0.6868 0.0469 0.2293
C20 C 0.6443(4) 1.1324(4) 0.4496(2)
H19 H 0.7172 1.1986 0.5018
H20 H 0.5228 1.1082 0.4499
H21 H 0.6691 1.1915 0.4075
C21 C 0.7051(4) 0.2898(4) -0.06677(19)
H22 H 0.6026 0.3026 -0.0940
C22 C 0.8012(5) 0.2241(4) -0.10997(19)
H23 H 0.7622 0.1901 -0.1667
C23 C 1.2792(5) 0.1985(6) 0.0179(2)
H24 H 1.3783 0.1962 0.0572
H25 H 1.3195 0.2741 -0.0157
H26 H 1.2171 0.0902 -0.0160
C24 C 1.1014(3) 0.9803(5) 0.3445(2)
H27 H 1.1298 1.0535 0.3083
H28 H 1.1530 0.8963 0.3362
H29 H 1.1468 1.0414 0.4002
loop_
_geom_bond_atom_site_label_1
_geom_bond_atom_site_label_2
_geom_bond_site_symmetry_1
_geom_bond_site_symmetry_2
O1 C4 1_555 1_555
O2 C5 1_555 1_555
O3 C4 1_555 1_555
N1 C6 1_555 1_555
C1 C8 1_555 1_555
O4 C5 1_555 1_555
C2 H1 1_555 1_555
H2 C2 1_555 1_555
C3 C2 1_555 1_555
C4 C3 1_555 1_555
C5 C3 1_555 1_555
C6 H3 1_555 1_555
O5 C16 1_555 1_555
C7 C9 1_555 1_555
C8 N1 1_555 1_555
C9 C3 1_555 1_555
H4 C9 1_555 1_555
H5 C9 1_555 1_555
C10 C1 1_555 1_555
C11 C13 1_555 1_555
C12 C7 1_555 1_555
C13 N1 1_555 1_555
H6 C13 1_555 1_555
H7 C13 1_555 1_555
C14 C11 1_555 1_555
H8 C14 1_555 1_555
C15 C1 1_555 1_555
H9 C15 1_555 1_555
H10 C15 1_555 1_555
H11 C15 1_555 1_555
C16 C11 1_555 1_555
C17 C12 1_555 1_555
H12 C17 1_555 1_555
H13 C17 1_555 1_555
H14 C17 1_555 1_555
C18 C16 1_555 1_555
H15 C18 1_555 1_555
C19 C8 1_555 1_555
H16 C19 1_555 1_555
H17 C19 1_555 1_555
H18 C19 1_555 1_555
C20 O3 1_555 1_555
H19 C20 1_555 1_555
H20 C20 1_555 1_555
H21 C20 1_555 1_555
C21 C14 1_555 1_555
H22 C21 1_555 1_555
C22 C18 1_555 1_555
H23 C22 1_555 1_555
C23 O5 1_555 1_555
H24 C23 1_555 1_555
H25 C23 1_555 1_555
H26 C23 1_555 1_555
C24 O2 1_555 1_555
H27 C24 1_555 1_555
H28 C24 1_555 1_555
H29 C24 1_555 1_555
C2 C10 1_555 1_555
C6 C10 1_555 1_555
C21 C22 1_555 1_555

#END
