
#######################################################################
#
#                 Cambridge Crystallographic Data Centre
#                                CCDC 
#
#######################################################################
#
# If this CIF has been generated from an entry in the Cambridge 
# Structural Database, then it will include bibliographic, chemical, 
# crystal, experimental, refinement or atomic coordinate data resulting 
# from the CCDC's data processing and validation procedures.
#
#######################################################################

data_SESXOE
_chemical_formula_moiety         'C14 H16 N4 O2 S1'
_chemical_name_systematic        
'3-(6-(4-Methoxyphenyl)-7H-(1,2,4)triazolo(3,4-b) (1,3,4)thiadiazin-3-yl)-propan-1-ol'
_symmetry_cell_setting           monoclinic
_symmetry_space_group_name_H-M   'P 21/c'
_symmetry_Int_Tables_number      14
_space_group_name_Hall           '-P 2ybc'
loop_
_symmetry_equiv_pos_site_id
_symmetry_equiv_pos_as_xyz
1 x,y,z
2 -x,1/2+y,1/2-z
3 -x,-y,-z
4 x,1/2-y,1/2+z
_cell_length_a                   7.6166(7)
_cell_length_b                   12.8582(12)
_cell_length_c                   15.9198(13)
_cell_angle_alpha                90
_cell_angle_beta                 111.228(4)
_cell_angle_gamma                90
_cell_volume                     1453.33
_exptl_crystal_colour            colorless
_exptl_crystal_description       block
_cell_formula_units_Z            4
_exptl_crystal_recrystallization_method '95% ethanol'
loop_
_atom_site_label
_atom_site_type_symbol
_atom_site_fract_x
_atom_site_fract_y
_atom_site_fract_z
S1 S 1.11651(11) 0.94360(6) 0.75106(5)
O1 O 0.4317(3) 1.29997(16) 0.34746(14)
O2 O 0.7299(3) 0.53043(15) 0.33859(13)
H1 H 0.7836 0.4740 0.3466
N1 N 0.8681(3) 0.89994(15) 0.54673(14)
N2 N 0.9609(3) 0.82075(15) 0.60587(14)
N3 N 1.1541(4) 0.73633(18) 0.72224(15)
N4 N 1.0843(4) 0.66829(18) 0.64868(16)
C1 C 0.3593(5) 1.2855(3) 0.2525(2)
H2 H 0.4610 1.2704 0.2323
H3 H 0.2962 1.3478 0.2237
H4 H 0.2717 1.2286 0.2373
C2 C 0.5332(4) 1.2211(2) 0.39987(19)
C3 C 0.5565(4) 1.1240(2) 0.36866(18)
H5 H 0.5039 1.1090 0.3074
C4 C 0.6580(4) 1.0491(2) 0.42867(18)
H6 H 0.6727 0.9838 0.4069
C5 C 0.7391(4) 1.06830(19) 0.52069(18)
C6 C 0.7164(4) 1.1669(2) 0.55045(19)
H7 H 0.7696 1.1823 0.6116
C7 C 0.6167(5) 1.2422(2) 0.4911(2)
H8 H 0.6051 1.3082 0.5125
C8 C 0.8415(3) 0.98471(19) 0.58290(17)
C9 C 0.8928(4) 1.0002(2) 0.68300(18)
H9 H 0.7948 0.9700 0.7007
H10 H 0.8965 1.0742 0.6954
C10 C 1.0780(4) 0.8261(2) 0.69417(17)
C11 C 0.9708(4) 0.7201(2) 0.58061(17)
C12 C 0.8598(5) 0.6788(2) 0.48922(19)
H11 H 0.9427 0.6699 0.4557
H12 H 0.7641 0.7292 0.4573
C13 C 0.7654(4) 0.5756(2) 0.49244(19)
H13 H 0.8612 0.5229 0.5178
H14 H 0.6935 0.5821 0.5315
C14 C 0.6358(4) 0.5415(2) 0.3997(2)
H15 H 0.5784 0.4756 0.4047
H16 H 0.5357 0.5923 0.3761
loop_
_geom_bond_atom_site_label_1
_geom_bond_atom_site_label_2
_geom_bond_site_symmetry_1
_geom_bond_site_symmetry_2
S1 C9 1_555 1_555
O1 C1 1_555 1_555
O2 H1 1_555 1_555
N1 N2 1_555 1_555
N2 C10 1_555 1_555
N3 N4 1_555 1_555
N4 C11 1_555 1_555
C1 H2 1_555 1_555
H3 C1 1_555 1_555
H4 C1 1_555 1_555
C2 O1 1_555 1_555
C3 C2 1_555 1_555
H5 C3 1_555 1_555
C4 C3 1_555 1_555
H6 C4 1_555 1_555
C5 C4 1_555 1_555
C6 C5 1_555 1_555
H7 C6 1_555 1_555
C7 C2 1_555 1_555
H8 C7 1_555 1_555
C8 N1 1_555 1_555
C9 C8 1_555 1_555
H9 C9 1_555 1_555
H10 C9 1_555 1_555
C10 S1 1_555 1_555
C11 N2 1_555 1_555
C12 C11 1_555 1_555
H11 C12 1_555 1_555
H12 C12 1_555 1_555
C13 C12 1_555 1_555
H13 C13 1_555 1_555
H14 C13 1_555 1_555
C14 O2 1_555 1_555
H15 C14 1_555 1_555
H16 C14 1_555 1_555
N3 C10 1_555 1_555
C5 C8 1_555 1_555
C6 C7 1_555 1_555
C13 C14 1_555 1_555

#END
