
#######################################################################
#
#                 Cambridge Crystallographic Data Centre
#                                CCDC 
#
#######################################################################
#
# If this CIF has been generated from an entry in the Cambridge 
# Structural Database, then it will include bibliographic, chemical, 
# crystal, experimental, refinement or atomic coordinate data resulting 
# from the CCDC's data processing and validation procedures.
#
#######################################################################

data_SESYUL
_chemical_formula_moiety         'C19 H23 N2 O1 1+,C8 H5 O4 1-'
_chemical_name_systematic        'Cinchoninium 3-carboxybenzoate'
_symmetry_cell_setting           orthorhombic
_symmetry_space_group_name_H-M   'P 21 21 21'
_symmetry_Int_Tables_number      19
_space_group_name_Hall           'P 2ac 2ab'
loop_
_symmetry_equiv_pos_site_id
_symmetry_equiv_pos_as_xyz
1 x,y,z
2 1/2-x,-y,1/2+z
3 -x,1/2+y,1/2-z
4 1/2+x,1/2-y,-z
_cell_length_a                   8.5208(6)
_cell_length_b                   10.2582(8)
_cell_length_c                   26.8066(18)
_cell_angle_alpha                90
_cell_angle_beta                 90
_cell_angle_gamma                90
_cell_volume                     2343.11
_exptl_crystal_colour            colorless
_exptl_crystal_description       block
_cell_formula_units_Z            4
_exptl_crystal_recrystallization_method ethanol/water
loop_
_atom_site_label
_atom_site_type_symbol
_atom_site_fract_x
_atom_site_fract_y
_atom_site_fract_z
O1 O 0.3598(2) 0.32408(19) 0.34309(7)
N1 N 0.6222(3) 0.6127(3) 0.21744(8)
N2 N 0.5180(2) 0.3684(2) 0.43799(7)
C1 C 0.7423(3) 0.5694(3) 0.24717(9)
C2 C 0.8950(3) 0.6133(3) 0.23581(10)
H1 H 0.9107 0.6730 0.2092
C3 C 1.0199(3) 0.5705(3) 0.26280(10)
H2 H 1.1222 0.6012 0.2551
C4 C 0.9988(3) 0.4811(3) 0.30197(10)
H3 H 1.0874 0.4498 0.3199
C5 C 0.8511(3) 0.4384(3) 0.31465(9)
H4 H 0.8381 0.3786 0.3414
C6 C 0.7178(3) 0.4835(3) 0.28792(9)
C7 C 0.5602(3) 0.4459(3) 0.29860(9)
C8 C 0.4449(3) 0.4851(3) 0.26675(10)
H5 H 0.3399 0.4568 0.2717
C9 C 0.4810(3) 0.5669(3) 0.22682(10)
H6 H 0.3983 0.5911 0.2050
C10 C 0.5176(3) 0.3648(3) 0.34421(8)
H7 H 0.5872 0.2863 0.3456
C11 C 0.5431(3) 0.4471(2) 0.39112(8)
H8 H 0.6553 0.4756 0.3910
C12 C 0.4428(3) 0.5699(3) 0.39492(10)
H9 H 0.3427 0.5574 0.3767
H10 H 0.4989 0.6448 0.3800
C13 C 0.4104(3) 0.5959(3) 0.45005(10)
H11 H 0.3687 0.6863 0.4546
C14 C 0.5628(4) 0.5790(3) 0.47958(11)
H12 H 0.5478 0.6090 0.5144
H13 H 0.6474 0.6317 0.4643
C15 C 0.6083(3) 0.4337(3) 0.47905(9)
H14 H 0.7224 0.4242 0.4732
H15 H 0.5825 0.3930 0.5115
C16 C 0.3481(3) 0.3607(3) 0.45325(10)
H16 H 0.3360 0.2981 0.4811
H17 H 0.2839 0.3296 0.4249
C17 C 0.2918(3) 0.4960(3) 0.46962(10)
H18 H 0.2939 0.4991 0.5069
C18 C 0.1263(4) 0.5232(5) 0.45287(14)
H19 H 0.0965 0.4941 0.4206
C19 C 0.0215(5) 0.5835(5) 0.4793(2)
H20 H 0.0470 0.6141 0.5117
H21 H -0.0808 0.5972 0.4661
H26 H 0.565(4) 0.274(4) 0.4335(12)
H27 H 0.356(5) 0.255(5) 0.3216(14)
O2 O 0.8393(2) 0.2428(2) 0.41787(8)
O3 O 0.6228(2) 0.1244(2) 0.41414(7)
O4 O 1.3400(2) 0.0389(2) 0.40679(8)
O5 O 1.3815(2) -0.1398(2) 0.36095(10)
C20 C 0.7701(3) 0.1396(3) 0.40859(9)
C21 C 0.8639(3) 0.0254(3) 0.38979(9)
C22 C 0.7947(3) -0.0887(3) 0.37258(11)
H22 H 0.6836 -0.0962 0.3719
C23 C 0.8862(4) -0.1907(3) 0.35646(14)
H23 H 0.8381 -0.2674 0.3439
C24 C 1.0486(4) -0.1821(3) 0.35851(12)
H24 H 1.1114 -0.2532 0.3478
C25 C 1.1190(3) -0.0695(3) 0.37627(9)
C26 C 1.0269(3) 0.0351(2) 0.39070(8)
H25 H 1.0752 0.1139 0.4013
C27 C 1.2931(3) -0.0617(3) 0.37981(10)
H28 H 1.456(6) 0.047(5) 0.4057(18)
loop_
_geom_bond_atom_site_label_1
_geom_bond_atom_site_label_2
_geom_bond_site_symmetry_1
_geom_bond_site_symmetry_2
O1 C10 1_555 1_555
O2 C20 1_555 1_555
O3 C20 1_555 1_555
O4 C27 1_555 1_555
O5 C27 1_555 1_555
N1 C1 1_555 1_555
N2 C11 1_555 1_555
C1 C2 1_555 1_555
C2 H1 1_555 1_555
C3 C2 1_555 1_555
H2 C3 1_555 1_555
C4 C3 1_555 1_555
H3 C4 1_555 1_555
C5 C4 1_555 1_555
H4 C5 1_555 1_555
C6 C1 1_555 1_555
C7 C6 1_555 1_555
C8 C7 1_555 1_555
H5 C8 1_555 1_555
C9 N1 1_555 1_555
H6 C9 1_555 1_555
C10 C7 1_555 1_555
H7 C10 1_555 1_555
C11 C10 1_555 1_555
H8 C11 1_555 1_555
C12 C11 1_555 1_555
H9 C12 1_555 1_555
H10 C12 1_555 1_555
C13 C12 1_555 1_555
H11 C13 1_555 1_555
C14 C13 1_555 1_555
H12 C14 1_555 1_555
H13 C14 1_555 1_555
C15 N2 1_555 1_555
H14 C15 1_555 1_555
H15 C15 1_555 1_555
C16 N2 1_555 1_555
H16 C16 1_555 1_555
H17 C16 1_555 1_555
C17 C13 1_555 1_555
H18 C17 1_555 1_555
C18 C17 1_555 1_555
H19 C18 1_555 1_555
C19 C18 1_555 1_555
H20 C19 1_555 1_555
H21 C19 1_555 1_555
C20 C21 1_555 1_555
C21 C22 1_555 1_555
C22 H22 1_555 1_555
C23 C22 1_555 1_555
H23 C23 1_555 1_555
C24 C23 1_555 1_555
H24 C24 1_555 1_555
C25 C24 1_555 1_555
C26 C21 1_555 1_555
H25 C26 1_555 1_555
C27 C25 1_555 1_555
H26 N2 1_555 1_555
H27 O1 1_555 1_555
H28 O4 1_555 1_555
C5 C6 1_555 1_555
C8 C9 1_555 1_555
C14 C15 1_555 1_555
C16 C17 1_555 1_555
C25 C26 1_555 1_555

#END
