
#######################################################################
#
#                 Cambridge Crystallographic Data Centre
#                                CCDC 
#
#######################################################################
#
# If this CIF has been generated from an entry in the Cambridge 
# Structural Database, then it will include bibliographic, chemical, 
# crystal, experimental, refinement or atomic coordinate data resulting 
# from the CCDC's data processing and validation procedures.
#
#######################################################################

data_SESYEV
_chemical_formula_moiety         'C9 H7 N3 O1 S1'
_chemical_name_systematic        
(E)-2-((1,2,3-Thiadiazol-5-yl)iminomethyl)phenol
_symmetry_cell_setting           orthorhombic
_symmetry_space_group_name_H-M   'P 21 21 21'
_symmetry_Int_Tables_number      19
_space_group_name_Hall           'P 2ac 2ab'
loop_
_symmetry_equiv_pos_site_id
_symmetry_equiv_pos_as_xyz
1 x,y,z
2 1/2-x,-y,1/2+z
3 -x,1/2+y,1/2-z
4 1/2+x,1/2-y,-z
_cell_length_a                   4.7477(9)
_cell_length_b                   11.415(2)
_cell_length_c                   16.798(3)
_cell_angle_alpha                90
_cell_angle_beta                 90
_cell_angle_gamma                90
_cell_volume                     910.368
_exptl_crystal_colour            yellow
_exptl_crystal_description       block
_cell_formula_units_Z            4
_exptl_crystal_recrystallization_method ethanol
loop_
_atom_site_label
_atom_site_type_symbol
_atom_site_fract_x
_atom_site_fract_y
_atom_site_fract_z
S1 S -0.03063(10) 0.40541(5) 0.72465(3)
O1 O 0.5473(3) 0.33701(12) 1.00045(7)
H1 H 0.4278 0.3236 0.9664
N1 N 0.2692(3) 0.37174(12) 0.86637(8)
C1 C 0.7611(3) 0.61040(15) 0.90270(10)
H2 H 0.7211 0.6549 0.8577
C2 C 1.0198(4) 0.58245(17) 1.02260(10)
H3 H 1.1549 0.6083 1.0586
C3 C 0.6143(3) 0.50552(14) 0.91532(9)
C4 C 0.8800(4) 0.47891(17) 1.03705(10)
H4 H 0.9213 0.4356 1.0825
C5 C 0.6772(3) 0.43910(14) 0.98379(10)
C6 C 0.4042(3) 0.46868(14) 0.85860(9)
H5 H 0.3653 0.5164 0.8151
C7 C 0.9630(4) 0.64909(16) 0.95525(10)
H6 H 1.0597 0.7186 0.9459
C8 C 0.0700(3) 0.33750(15) 0.81142(9)
N2 N -0.2760(4) 0.22106(16) 0.75765(10)
C9 C -0.0912(4) 0.23848(16) 0.81771(11)
H7 H -0.0747 0.1869 0.8603
N3 N -0.2726(4) 0.30075(16) 0.70354(10)
loop_
_geom_bond_atom_site_label_1
_geom_bond_atom_site_label_2
_geom_bond_site_symmetry_1
_geom_bond_site_symmetry_2
S1 C8 1_555 1_555
O1 H1 1_555 1_555
N1 C6 1_555 1_555
C1 H2 1_555 1_555
C2 H3 1_555 1_555
C3 C1 1_555 1_555
C4 C2 1_555 1_555
H4 C4 1_555 1_555
C5 O1 1_555 1_555
C6 C3 1_555 1_555
H5 C6 1_555 1_555
C7 C1 1_555 1_555
H6 C7 1_555 1_555
C8 N1 1_555 1_555
N2 C9 1_555 1_555
C9 C8 1_555 1_555
H7 C9 1_555 1_555
N3 S1 1_555 1_555
C2 C7 1_555 1_555
C3 C5 1_555 1_555
C4 C5 1_555 1_555
N2 N3 1_555 1_555

#END
