
#######################################################################
#
#                 Cambridge Crystallographic Data Centre
#                                CCDC 
#
#######################################################################
#
# If this CIF has been generated from an entry in the Cambridge 
# Structural Database, then it will include bibliographic, chemical, 
# crystal, experimental, refinement or atomic coordinate data resulting 
# from the CCDC's data processing and validation procedures.
#
#######################################################################

data_SETDIF
_chemical_formula_moiety         'C21 H16 N2 S9'
_chemical_name_systematic        
4,5-bis(2-((Benzothiazol-2-yl)sulfanyl)ethylsulfanyl)-1,3-dithiole-2-thione
_symmetry_cell_setting           triclinic
_symmetry_space_group_name_H-M   'P -1'
_symmetry_Int_Tables_number      2
_space_group_name_Hall           '-P 1'
loop_
_symmetry_equiv_pos_site_id
_symmetry_equiv_pos_as_xyz
1 x,y,z
2 -x,-y,-z
_cell_length_a                   9.4940(11)
_cell_length_b                   10.7870(13)
_cell_length_c                   13.8470(17)
_cell_angle_alpha                110.5360(10)
_cell_angle_beta                 105.5880(10)
_cell_angle_gamma                93.9470(10)
_cell_volume                     1258.05
_exptl_crystal_colour            yellow
_exptl_crystal_description       plate
_chemical_melting_point          '357 K'
_cell_formula_units_Z            2
_exptl_crystal_recrystallization_method ethanol
loop_
_atom_site_label
_atom_site_type_symbol
_atom_site_fract_x
_atom_site_fract_y
_atom_site_fract_z
S1 S 0.26218(7) 0.06348(8) 0.17740(7)
S2 S 0.49215(7) 0.00225(7) 0.34002(6)
S3 S 0.56999(6) 0.05729(6) 0.17059(5)
S4 S 0.79998(8) -0.03401(7) 0.44502(6)
S5 S 0.89472(7) 0.03103(8) 0.25537(6)
S6 S 0.90095(7) 0.39183(7) 0.67577(6)
S7 S 0.95825(7) 0.27641(8) 0.06907(6)
S8 S 0.67306(7) 0.55168(7) 0.73887(5)
S9 S 0.73054(8) 0.33234(8) -0.09981(6)
N1 N 0.6078(2) 0.33832(19) 0.56054(15)
N2 N 0.6664(2) 0.2722(2) 0.05112(16)
C1 C 0.4318(2) 0.0419(2) 0.2281(2)
C2 C 0.6777(2) 0.0045(2) 0.3442(2)
C3 C 0.7145(2) 0.0300(2) 0.26513(19)
C4 C 0.8194(3) 0.1156(3) 0.5649(2)
H1 H 0.7223 0.1253 0.5737
H2 H 0.8814 0.1044 0.6285
C5 C 0.8869(3) 0.2416(2) 0.5584(2)
H3 H 0.8268 0.2511 0.4935
H4 H 0.9854 0.2331 0.5520
C6 C 0.8873(3) 0.0790(2) 0.14104(19)
H5 H 0.9480 0.0292 0.1005
H6 H 0.7857 0.0558 0.0930
C7 C 0.9420(3) 0.2273(2) 0.1783(2)
H7 H 1.0383 0.2521 0.2336
H8 H 0.8739 0.2765 0.2111
C8 C 0.7160(3) 0.4138(2) 0.64626(19)
C9 C 0.7739(3) 0.2899(2) 0.01356(19)
C10 C 0.4768(2) 0.3882(2) 0.56374(17)
C11 C 0.3379(3) 0.3301(2) 0.48500(19)
H9 H 0.3273 0.2531 0.4239
C12 C 0.2173(3) 0.3889(3) 0.4996(2)
H10 H 0.1244 0.3512 0.4477
C13 C 0.2316(3) 0.5038(3) 0.5906(2)
H11 H 0.1481 0.5413 0.5988
C14 C 0.3671(3) 0.5629(3) 0.6687(2)
H12 H 0.3765 0.6396 0.7297
C15 C 0.4898(2) 0.5045(2) 0.65400(18)
C16 C 0.5353(3) 0.2926(2) -0.01174(19)
C17 C 0.3976(3) 0.2808(3) 0.0053(2)
H13 H 0.3874 0.2568 0.0617
C18 C 0.2783(3) 0.3049(3) -0.0617(3)
H14 H 0.1865 0.2985 -0.0502
C19 C 0.2920(3) 0.3386(3) -0.1464(3)
H15 H 0.2090 0.3550 -0.1908
C20 C 0.4252(3) 0.3487(3) -0.1668(2)
H16 H 0.4331 0.3700 -0.2249
C21 C 0.5480(3) 0.3259(2) -0.0979(2)
loop_
_geom_bond_atom_site_label_1
_geom_bond_atom_site_label_2
_geom_bond_site_symmetry_1
_geom_bond_site_symmetry_2
S1 C1 1_555 1_555
S2 C1 1_555 1_555
S3 C1 1_555 1_555
S4 C2 1_555 1_555
S5 C3 1_555 1_555
S6 C5 1_555 1_555
S7 C7 1_555 1_555
S8 C8 1_555 1_555
S9 C9 1_555 1_555
N1 C8 1_555 1_555
N2 C9 1_555 1_555
C2 S2 1_555 1_555
C3 S3 1_555 1_555
C4 S4 1_555 1_555
H1 C4 1_555 1_555
H2 C4 1_555 1_555
C5 C4 1_555 1_555
H3 C5 1_555 1_555
H4 C5 1_555 1_555
C6 S5 1_555 1_555
H5 C6 1_555 1_555
H6 C6 1_555 1_555
C7 C6 1_555 1_555
H7 C7 1_555 1_555
H8 C7 1_555 1_555
C8 S6 1_555 1_555
C9 S7 1_555 1_555
C10 N1 1_555 1_555
C11 C10 1_555 1_555
H9 C11 1_555 1_555
C12 C11 1_555 1_555
H10 C12 1_555 1_555
C13 C12 1_555 1_555
H11 C13 1_555 1_555
C14 C13 1_555 1_555
H12 C14 1_555 1_555
C15 S8 1_555 1_555
C16 N2 1_555 1_555
C17 C16 1_555 1_555
H13 C17 1_555 1_555
C18 C17 1_555 1_555
H14 C18 1_555 1_555
C19 C18 1_555 1_555
H15 C19 1_555 1_555
C20 C19 1_555 1_555
H16 C20 1_555 1_555
C21 S9 1_555 1_555
C2 C3 1_555 1_555
C10 C15 1_555 1_555
C14 C15 1_555 1_555
C16 C21 1_555 1_555
C20 C21 1_555 1_555

#END
