
#######################################################################
#
#                 Cambridge Crystallographic Data Centre
#                                CCDC 
#
#######################################################################
#
# If this CIF has been generated from an entry in the Cambridge 
# Structural Database, then it will include bibliographic, chemical, 
# crystal, experimental, refinement or atomic coordinate data resulting 
# from the CCDC's data processing and validation procedures.
#
#######################################################################

data_SETGII
_chemical_formula_moiety         'C14 H9 Cl1 N2 O2'
_chemical_name_systematic        
2-(3-(4-Chlorophenyl)-1,2,4-oxadiazol-5-yl)phenol
_symmetry_cell_setting           monoclinic
_symmetry_space_group_name_H-M   'P 21'
_symmetry_Int_Tables_number      4
_space_group_name_Hall           'P 2yb'
loop_
_symmetry_equiv_pos_site_id
_symmetry_equiv_pos_as_xyz
1 x,y,z
2 -x,1/2+y,-z
_cell_length_a                   6.3900(13)
_cell_length_b                   5.0380(10)
_cell_length_c                   19.255(4)
_cell_angle_alpha                90
_cell_angle_beta                 97.98(3)
_cell_angle_gamma                90
_cell_volume                     613.87
_exptl_crystal_colour            colorless
_exptl_crystal_description       block
_cell_formula_units_Z            2
_exptl_crystal_recrystallization_method ethanol
loop_
_atom_site_label
_atom_site_type_symbol
_atom_site_fract_x
_atom_site_fract_y
_atom_site_fract_z
Cl1 Cl 0.9006(3) -0.4011(4) 0.04725(8)
C1 C 0.5783(8) 0.9310(12) 0.3471(3)
O1 O 0.9467(6) 0.8104(11) 0.3699(3)
O2 O 0.3393(6) 0.6909(9) 0.2622(2)
N1 N 0.3522(7) 0.4873(11) 0.2124(3)
N2 N 0.6734(6) 0.5767(12) 0.2703(2)
C2 C 0.4186(9) 1.0959(17) 0.3644(3)
H1 H 0.2820 1.0776 0.3409
C3 C 0.4606(11) 1.2861(15) 0.4160(3)
H2 H 0.3531 1.3961 0.4271
C4 C 0.6621(12) 1.3119(17) 0.4509(3)
H3 H 0.6905 1.4393 0.4859
C5 C 0.8199(11) 1.1538(15) 0.4349(3)
H4 H 0.9559 1.1765 0.4584
C6 C 0.7819(9) 0.9577(14) 0.3838(3)
C7 C 0.5387(8) 0.7289(13) 0.2950(3)
C8 C 0.5527(8) 0.4313(12) 0.2198(3)
C9 C 0.6360(8) 0.2240(12) 0.1771(3)
C10 C 0.8482(8) 0.1519(13) 0.1918(3)
H5 H 0.9360 0.2336 0.2281
C11 C 0.9271(9) -0.0437(14) 0.1515(3)
H6 H 1.0673 -0.0973 0.1615
C12 C 0.7985(10) -0.1555(12) 0.0977(3)
C13 C 0.5886(9) -0.0883(15) 0.0814(3)
H7 H 0.5022 -0.1712 0.0450
C14 C 0.5106(8) 0.1086(17) 0.1217(3)
H8 H 0.3708 0.1628 0.1108
H9 H 0.903(9) 0.678(15) 0.327(3)
loop_
_geom_bond_atom_site_label_1
_geom_bond_atom_site_label_2
_geom_bond_site_symmetry_1
_geom_bond_site_symmetry_2
Cl1 C12 1_555 1_555
C1 C2 1_555 1_555
O1 C6 1_555 1_555
O2 N1 1_555 1_555
N1 C8 1_555 1_555
N2 C7 1_555 1_555
C2 H1 1_555 1_555
C3 C2 1_555 1_555
H2 C3 1_555 1_555
C4 C3 1_555 1_555
H3 C4 1_555 1_555
C5 C4 1_555 1_555
H4 C5 1_555 1_555
C6 C1 1_555 1_555
C7 C1 1_555 1_555
C8 N2 1_555 1_555
C9 C8 1_555 1_555
C10 C9 1_555 1_555
H5 C10 1_555 1_555
C11 C10 1_555 1_555
H6 C11 1_555 1_555
C12 C11 1_555 1_555
C13 C12 1_555 1_555
H7 C13 1_555 1_555
C14 C9 1_555 1_555
H8 C14 1_555 1_555
H9 O1 1_555 1_555
O2 C7 1_555 1_555
C5 C6 1_555 1_555
C13 C14 1_555 1_555

#END
