
#######################################################################
#
#                 Cambridge Crystallographic Data Centre
#                                CCDC 
#
#######################################################################
#
# If this CIF has been generated from an entry in the Cambridge 
# Structural Database, then it will include bibliographic, chemical, 
# crystal, experimental, refinement or atomic coordinate data resulting 
# from the CCDC's data processing and validation procedures.
#
#######################################################################

data_SETSEQ
_chemical_formula_moiety         'C18 H19 N1 O3 S1'
_chemical_name_systematic        
3-(4-methoxybenzyl)-2-(4-methoxyphenyl)-1,3-thiazolidin-4-one
_symmetry_cell_setting           monoclinic
_symmetry_space_group_name_H-M   'P 21/c'
_symmetry_Int_Tables_number      14
_space_group_name_Hall           '-P 2ybc'
loop_
_symmetry_equiv_pos_site_id
_symmetry_equiv_pos_as_xyz
1 x,y,z
2 -x,1/2+y,1/2-z
3 -x,-y,-z
4 x,1/2-y,1/2+z
_cell_length_a                   4.6687(4)
_cell_length_b                   9.6210(8)
_cell_length_c                   35.478(3)
_cell_angle_alpha                90
_cell_angle_beta                 95.335(3)
_cell_angle_gamma                90
_cell_volume                     1586.68
_exptl_crystal_colour            colorless
_exptl_crystal_description       plate
_cell_formula_units_Z            4
_exptl_crystal_recrystallization_method ethanol
loop_
_atom_site_label
_atom_site_type_symbol
_atom_site_fract_x
_atom_site_fract_y
_atom_site_fract_z
S1 S 0.66774(18) 0.06878(9) 0.36674(2)
C1 C 0.5801(7) 0.2531(4) 0.36097(9)
C2 C 0.4458(7) 0.2853(4) 0.32152(9)
C3 C 0.5438(7) 0.3974(4) 0.30115(9)
C4 C 0.4199(7) 0.4292(4) 0.26511(10)
C5 C 0.1979(7) 0.3465(4) 0.24831(9)
O1 O 0.0895(6) 0.3860(3) 0.21274(7)
C6 C -0.1270(8) 0.3016(4) 0.19353(9)
C7 C 0.1011(7) 0.2333(4) 0.26778(9)
C8 C 0.2236(7) 0.2037(4) 0.30407(9)
N1 N 0.3882(6) 0.2834(3) 0.39034(7)
C9 C 0.2748(7) 0.4247(4) 0.39350(9)
C10 C 0.4999(7) 0.5287(4) 0.40836(9)
C11 C 0.6091(7) 0.5292(4) 0.44588(9)
C12 C 0.8111(7) 0.6271(3) 0.46036(8)
C13 C 0.9067(7) 0.7255(3) 0.43591(9)
O2 O 1.0994(5) 0.8288(3) 0.44665(7)
C14 C 1.2048(8) 0.8373(4) 0.48554(10)
C15 C 0.8028(8) 0.7257(4) 0.39797(9)
C16 C 0.6013(7) 0.6298(4) 0.38458(9)
C17 C 0.3757(7) 0.1912(4) 0.41875(9)
O3 O 0.2389(6) 0.2101(3) 0.44638(7)
C18 C 0.5527(8) 0.0618(4) 0.41413(9)
H1 H 0.7602 0.3089 0.3660
H2 H 0.6981 0.4527 0.3122
H3 H 0.4860 0.5071 0.2519
H4 H -0.0500 0.2084 0.1898
H5 H -0.1886 0.3430 0.1689
H6 H -0.2920 0.2954 0.2086
H7 H -0.0486 0.1762 0.2563
H8 H 0.1552 0.1264 0.3173
H9 H 0.1188 0.4231 0.4106
H10 H 0.1902 0.4555 0.3682
H11 H 0.5446 0.4607 0.4624
H12 H 0.8814 0.6263 0.4864
H13 H 1.3336 0.9174 0.4894
H14 H 1.3104 0.7521 0.4930
H15 H 1.0428 0.8481 0.5010
H16 H 0.8715 0.7924 0.3812
H17 H 0.5292 0.6321 0.3587
H18 H 0.7214 0.0599 0.4332
H19 H 0.4357 -0.0225 0.4173
loop_
_geom_bond_atom_site_label_1
_geom_bond_atom_site_label_2
_geom_bond_site_symmetry_1
_geom_bond_site_symmetry_2
S1 C1 1_555 1_555
C1 C2 1_555 1_555
C2 C3 1_555 1_555
C3 C4 1_555 1_555
C4 C5 1_555 1_555
C5 O1 1_555 1_555
O1 C6 1_555 1_555
C6 H4 1_555 1_555
C7 C5 1_555 1_555
C8 C2 1_555 1_555
N1 C1 1_555 1_555
C9 N1 1_555 1_555
C10 C9 1_555 1_555
C11 C10 1_555 1_555
C12 C11 1_555 1_555
C13 C12 1_555 1_555
O2 C13 1_555 1_555
C14 O2 1_555 1_555
C15 C13 1_555 1_555
C16 C10 1_555 1_555
C17 N1 1_555 1_555
O3 C17 1_555 1_555
C18 S1 1_555 1_555
H1 C1 1_555 1_555
H2 C3 1_555 1_555
H3 C4 1_555 1_555
H5 C6 1_555 1_555
H6 C6 1_555 1_555
H7 C7 1_555 1_555
H8 C8 1_555 1_555
H9 C9 1_555 1_555
H10 C9 1_555 1_555
H11 C11 1_555 1_555
H12 C12 1_555 1_555
H13 C14 1_555 1_555
H14 C14 1_555 1_555
H15 C14 1_555 1_555
H16 C15 1_555 1_555
H17 C16 1_555 1_555
H18 C18 1_555 1_555
H19 C18 1_555 1_555
C7 C8 1_555 1_555
C15 C16 1_555 1_555
C17 C18 1_555 1_555

#END
