
#######################################################################
#
#                 Cambridge Crystallographic Data Centre
#                                CCDC 
#
#######################################################################
#
# If this CIF has been generated from an entry in the Cambridge 
# Structural Database, then it will include bibliographic, chemical, 
# crystal, experimental, refinement or atomic coordinate data resulting 
# from the CCDC's data processing and validation procedures.
#
#######################################################################

data_SETSAM
_chemical_formula_moiety         'C16 H13 N3 O5 S1'
_chemical_name_systematic        
3-(4-nitrobenzyl)-2-(4-nitrophenyl)-1,3-thiazolidin-4-one
_symmetry_cell_setting           monoclinic
_symmetry_space_group_name_H-M   'P 21/c'
_symmetry_Int_Tables_number      14
_space_group_name_Hall           '-P 2ybc'
loop_
_symmetry_equiv_pos_site_id
_symmetry_equiv_pos_as_xyz
1 x,y,z
2 -x,1/2+y,1/2-z
3 -x,-y,-z
4 x,1/2-y,1/2+z
_cell_length_a                   14.2230(7)
_cell_length_b                   7.9862(4)
_cell_length_c                   14.1156(7)
_cell_angle_alpha                90
_cell_angle_beta                 93.908(3)
_cell_angle_gamma                90
_cell_volume                     1599.63
_exptl_crystal_colour            colorless
_exptl_crystal_description       plate
_cell_formula_units_Z            4
_exptl_crystal_recrystallization_method ethanol
loop_
_atom_site_label
_atom_site_type_symbol
_atom_site_fract_x
_atom_site_fract_y
_atom_site_fract_z
S1 S 0.57935(12) 0.3020(2) 0.25750(11)
C1 C 0.6704(4) 0.3409(7) 0.3549(4)
C2 C 0.7232(4) 0.5020(7) 0.3406(4)
C3 C 0.6771(4) 0.6565(7) 0.3434(4)
C4 C 0.7243(4) 0.8034(7) 0.3264(5)
C5 C 0.8186(4) 0.7926(7) 0.3067(4)
N1 N 0.8683(4) 0.9486(7) 0.2865(4)
O1 O 0.8229(4) 1.0779(6) 0.2771(5)
O2 O 0.9539(3) 0.9423(6) 0.2771(4)
C6 C 0.8662(4) 0.6424(8) 0.3060(4)
C7 C 0.8183(4) 0.4970(7) 0.3224(5)
N2 N 0.6199(3) 0.3373(6) 0.4400(3)
C8 C 0.6741(4) 0.3395(7) 0.5314(4)
C9 C 0.7322(4) 0.1820(7) 0.5459(4)
C10 C 0.8298(5) 0.1898(7) 0.5522(5)
C11 C 0.8832(5) 0.0423(8) 0.5595(5)
C12 C 0.8356(4) -0.1088(7) 0.5629(4)
N3 N 0.8920(4) -0.2628(7) 0.5687(4)
O3 O 0.9763(4) -0.2540(7) 0.5611(5)
O4 O 0.8506(3) -0.3948(5) 0.5820(4)
C13 C 0.7390(4) -0.1190(8) 0.5590(4)
C14 C 0.6870(4) 0.0272(7) 0.5501(4)
C15 C 0.5253(4) 0.3139(7) 0.4354(4)
O5 O 0.4780(3) 0.2999(6) 0.5036(3)
C16 C 0.4834(5) 0.3084(9) 0.3345(5)
H1 H 0.7164 0.2460 0.3572
H2 H 0.6126 0.6604 0.3570
H3 H 0.6933 0.9086 0.3282
H4 H 0.9312 0.6394 0.2944
H5 H 0.8501 0.3925 0.3215
H6 H 0.6306 0.3496 0.5830
H7 H 0.7163 0.4382 0.5346
H8 H 0.8605 0.2953 0.5517
H9 H 0.9501 0.0459 0.5620
H10 H 0.7084 -0.2244 0.5624
H11 H 0.6201 0.0223 0.5468
H12 H 0.4441 0.4089 0.3207
H13 H 0.4432 0.2079 0.3246
loop_
_geom_bond_atom_site_label_1
_geom_bond_atom_site_label_2
_geom_bond_site_symmetry_1
_geom_bond_site_symmetry_2
S1 C1 1_555 1_555
C1 C2 1_555 1_555
C2 C3 1_555 1_555
C3 C4 1_555 1_555
C4 C5 1_555 1_555
C5 N1 1_555 1_555
N1 O1 1_555 1_555
O2 N1 1_555 1_555
C6 C5 1_555 1_555
C7 C2 1_555 1_555
N2 C1 1_555 1_555
C8 N2 1_555 1_555
C9 C8 1_555 1_555
C10 C9 1_555 1_555
C11 C10 1_555 1_555
C12 C11 1_555 1_555
N3 C12 1_555 1_555
O3 N3 1_555 1_555
O4 N3 1_555 1_555
C13 C12 1_555 1_555
C14 C9 1_555 1_555
C15 N2 1_555 1_555
O5 C15 1_555 1_555
C16 S1 1_555 1_555
H1 C1 1_555 1_555
H2 C3 1_555 1_555
H3 C4 1_555 1_555
H4 C6 1_555 1_555
H5 C7 1_555 1_555
H6 C8 1_555 1_555
H7 C8 1_555 1_555
H8 C10 1_555 1_555
H9 C11 1_555 1_555
H10 C13 1_555 1_555
H11 C14 1_555 1_555
H12 C16 1_555 1_555
H13 C16 1_555 1_555
C6 C7 1_555 1_555
C13 C14 1_555 1_555
C15 C16 1_555 1_555

#END
