
#######################################################################
#
#                 Cambridge Crystallographic Data Centre
#                                CCDC 
#
#######################################################################
#
# If this CIF has been generated from an entry in the Cambridge 
# Structural Database, then it will include bibliographic, chemical, 
# crystal, experimental, refinement or atomic coordinate data resulting 
# from the CCDC's data processing and validation procedures.
#
#######################################################################

data_SEVKUB
_chemical_formula_moiety         'C12 H14 Br1 N5 O5'
_chemical_name_systematic        
4-amino-6-bromo-1-((2S,3S,4S,5S)-3,4-dihydroxy-5-(hydroxymethyl)tetrahydrofuran-2-yl)-1H-pyrrolo[2,3-d]pyrimidine-5-carboxamide
_symmetry_cell_setting           triclinic
_symmetry_space_group_name_H-M   'P 1'
_symmetry_Int_Tables_number      1
_space_group_name_Hall           'P 1'
loop_
_symmetry_equiv_pos_site_id
_symmetry_equiv_pos_as_xyz
1 x,y,z
_cell_length_a                   10.6713(3)
_cell_length_b                   13.5603(4)
_cell_length_c                   15.5864(4)
_cell_angle_alpha                76.888(2)
_cell_angle_beta                 87.348(2)
_cell_angle_gamma                87.926(2)
_cell_volume                     2193.53
_exptl_crystal_colour            yellow
_exptl_crystal_description       needle
_cell_formula_units_Z            6
loop_
_atom_site_label
_atom_site_type_symbol
_atom_site_fract_x
_atom_site_fract_y
_atom_site_fract_z
N1 N 0.7881(5) 1.3174(4) 0.4576(3)
H1 H 0.790(5) 1.351(4) 0.408(4)
H2 H 0.789(6) 1.261(5) 0.467(5)
H3 H 0.739(8) 0.993(7) 0.699(6)
Br1 Br 0.76474(5) 1.06928(4) 0.84243(3)
C1 C 0.7598(5) 1.1814(4) 0.7447(3)
N2 N 0.7426(4) 1.2725(3) 0.7650(3)
O1 O 0.7355(3) 1.5890(2) 0.7252(2)
N3 N 0.7325(4) 1.4415(3) 0.6709(3)
O2 O 0.7923(4) 1.1164(3) 0.5279(2)
C2 C 0.7469(4) 1.3366(4) 0.6856(3)
C3 C 0.7743(5) 1.1826(4) 0.6555(3)
C4 C 0.7653(5) 1.2901(4) 0.6154(3)
N4 N 0.7574(4) 1.4557(3) 0.5182(3)
C5 C 0.7891(5) 1.0995(4) 0.6093(4)
C6 C 0.6530(6) 1.7576(4) 0.7085(4)
H4 H 0.7318 1.7799 0.7251
H5 H 0.6576 1.7629 0.6453
O3 O 0.5221(3) 1.4521(3) 0.8563(2)
H6 H 0.5857 1.4374 0.8847
O4 O 0.4971(4) 1.6298(3) 0.6461(2)
H7 H 0.4334 1.6036 0.6351
C7 C 0.6339(5) 1.6491(3) 0.7551(3)
H8 H 0.6389 1.6429 0.8188
C8 C 0.6983(4) 1.4870(4) 0.7463(3)
H9 H 0.7413 1.4498 0.7986
C9 C 0.5563(4) 1.4870(3) 0.7657(3)
H10 H 0.5150 1.4477 0.7300
C10 C 0.7707(5) 1.3528(4) 0.5290(3)
C11 C 0.5180(5) 1.5993(4) 0.7378(3)
H11 H 0.4456 1.6162 0.7733
N5 N 0.8015(8) 1.0044(4) 0.6549(4)
C12 C 0.7386(5) 1.4945(4) 0.5869(3)
H12 H 0.7286 1.5645 0.5770
O5 O 0.5565(6) 1.8193(4) 0.7292(3)
H13 H 0.4893 1.7975 0.7192
O6 O 0.3581(4) -0.2222(3) 0.4760(3)
H14 H 0.2966 -0.1844 0.4641
C13 C 0.4585(6) -0.1668(5) 0.4913(4)
H15 H 0.5315 -0.2114 0.5051
H16 H 0.4378 -0.1372 0.5414
H17 H 0.416(4) 0.641(4) 0.435(3)
H18 H 0.395(5) 0.348(4) 0.647(3)
H19 H 0.403(7) 0.260(6) 0.713(5)
H20 H 0.456(9) 0.582(8) 0.379(7)
Br2 Br 0.47871(6) 0.49387(5) 0.25665(4)
N6 N 0.5036(4) 0.2983(4) 0.3545(3)
N7 N 0.5088(4) 0.1400(3) 0.4613(3)
C14 C 0.4803(5) 0.3942(4) 0.3632(4)
C15 C 0.4523(5) 0.4061(4) 0.4494(4)
O7 O 0.5762(3) -0.0186(3) 0.4372(2)
O8 O 0.4095(5) 0.4900(3) 0.5644(3)
N8 N 0.4623(4) 0.1460(3) 0.6102(3)
C16 C 0.4888(5) -0.0829(4) 0.4100(3)
H21 H 0.5291 -0.1130 0.3639
C17 C 0.4921(5) 0.2443(4) 0.4378(3)
C18 C 0.5524(4) 0.0835(4) 0.3952(3)
H22 H 0.6296 0.1130 0.3652
C19 C 0.4596(5) 0.3007(4) 0.4998(3)
N9 N 0.4254(8) 0.5860(5) 0.4311(5)
C20 C 0.4938(5) 0.0966(5) 0.5484(3)
H23 H 0.5067 0.0269 0.5657
C21 C 0.4443(5) 0.2481(4) 0.5890(3)
C22 C 0.4542(5) 0.0822(4) 0.3270(3)
H24 H 0.4008 0.1438 0.3148
O9 O 0.5236(3) 0.0654(3) 0.2511(2)
H25 H 0.4752 0.0642 0.2120
N10 N 0.4144(6) 0.2917(5) 0.6555(4)
C23 C 0.4279(6) 0.4959(5) 0.4843(4)
O10 O 0.3014(3) 0.0119(3) 0.4382(2)
H26 H 0.2446 0.0500 0.4156
C24 C 0.3819(4) -0.0131(4) 0.3715(3)
H27 H 0.3363 -0.0401 0.3292
H28 H 1.456(4) -0.044(4) 0.815(3)
H29 H 1.442(6) 0.055(5) 0.748(5)
H30 H 1.468(5) -0.284(5) 1.090(4)
Br3 Br 1.43460(6) -0.19047(5) 1.19911(4)
N11 N 1.4141(4) 0.0074(3) 1.1052(3)
O11 O 1.4009(3) 0.3237(2) 1.0366(2)
N12 N 1.3986(4) 0.1664(3) 0.9986(3)
C25 C 1.4302(5) -0.0881(4) 1.0935(4)
N13 N 1.4141(4) 0.1637(3) 0.8483(3)
C26 C 1.4289(5) 0.0592(4) 0.8682(3)
C27 C 1.3733(4) 0.2212(3) 1.0710(3)
H31 H 1.4269 0.1927 1.1204
O12 O 1.1442(4) 0.3284(3) 0.9724(2)
H32 H 1.1582 0.2741 0.9586
C28 C 1.4293(5) 0.0063(4) 0.9576(3)
O13 O 1.4525(4) -0.1819(3) 0.8897(3)
N14 N 1.4429(5) 0.0175(4) 0.7995(3)
O14 O 1.2287(3) 0.1979(3) 1.1962(2)
H33 H 1.1976 0.2478 1.2113
C29 C 1.3997(5) 0.2118(4) 0.9130(3)
H34 H 1.3896 0.2819 0.8980
C30 C 1.4403(5) -0.0986(4) 1.0067(3)
C31 C 1.4144(4) 0.0627(4) 1.0216(3)
N15 N 1.4639(6) -0.2801(4) 1.0253(4)
C32 C 1.4530(5) -0.1883(4) 0.9703(4)
O15 O 1.4107(5) 0.5353(3) 0.9853(3)
H35 H 1.4680 0.4994 0.9713
C33 C 1.2958(7) 0.4839(4) 0.9914(4)
H36 H 1.2796 0.4710 0.9342
H37 H 1.2281 0.5274 1.0064
C34 C 1.2959(5) 0.3858(4) 1.0585(3)
H38 H 1.3063 0.3987 1.1171
C35 C 1.2344(4) 0.2159(3) 1.1028(3)
H39 H 1.1914 0.1633 1.0823
C36 C 1.1828(4) 0.3212(4) 1.0610(3)
H40 H 1.1141 0.3416 1.0977
H41 H 0.108(5) -0.069(5) 1.066(4)
H42 H 0.068(5) 0.290(4) 0.804(3)
H43 H 0.078(6) 0.035(6) 0.988(5)
Br4 Br 0.12519(5) 0.15453(4) 0.60783(4)
C37 C 0.1353(5) 0.0560(4) 0.7149(3)
N16 N 0.1789(4) -0.1951(3) 0.8138(2)
C38 C 0.1581(5) -0.0921(4) 0.7907(3)
N17 N 0.1610(4) -0.0386(3) 0.7060(3)
O16 O 0.1782(3) -0.1655(3) 0.5969(2)
H44 H 0.1294 -0.1605 0.5570
O17 O 0.0818(4) 0.1545(3) 0.9169(3)
O18 O 0.2209(3) -0.3578(2) 0.7904(2)
C39 C 0.1598(5) -0.4164(4) 0.7389(3)
H45 H 0.2162 -0.4724 0.7306
C40 C 0.0906(5) 0.1592(4) 0.8367(4)
O19 O 0.0294(3) -0.3621(3) 0.6086(2)
H46 H -0.0071 -0.4099 0.6404
C41 C 0.1310(5) -0.0348(4) 0.8532(3)
C42 C 0.1717(5) -0.2377(4) 0.9013(3)
H47 H 0.1857 -0.3073 0.9188
N18 N 0.1461(5) -0.1874(3) 0.9629(3)
C43 C 0.1243(5) -0.0864(4) 0.9425(3)
C44 C 0.1168(5) 0.0681(4) 0.8019(4)
N19 N 0.0965(5) -0.0425(4) 1.0089(3)
C45 C 0.1392(4) -0.3443(4) 0.6486(3)
H48 H 0.2119 -0.3500 0.6090
C46 C 0.0400(5) -0.4599(4) 0.7891(4)
H49 H 0.0572 -0.4874 0.8506
H50 H -0.0240 -0.4067 0.7862
N20 N 0.0775(7) 0.2478(4) 0.7781(4)
C47 C 0.2211(5) -0.2543(4) 0.7480(3)
H51 H 0.3066 -0.2355 0.7264
C48 C 0.1364(4) -0.2400(3) 0.6703(3)
H52 H 0.0508 -0.2226 0.6884
O20 O -0.0034(4) -0.5372(3) 0.7511(3)
H53 H 0.0503 -0.5826 0.7548
H54 H 0.147(6) 0.732(6) 0.078(5)
H55 H 0.126(5) 0.608(5) 0.141(4)
H56 H 0.200(6) 0.355(5) 0.377(4)
Br5 Br 0.10034(5) 0.41328(4) 0.51347(3)
C49 C 0.0980(5) 0.5281(4) 0.4183(3)
N21 N 0.0946(4) 0.8052(4) 0.1944(3)
C50 C 0.1015(5) 0.6383(4) 0.2906(3)
O21 O 0.0802(3) 0.9345(2) 0.4028(2)
O22 O -0.1699(3) 0.9587(3) 0.3210(2)
H57 H -0.1171 0.9938 0.2896
N22 N 0.0772(4) 0.6188(3) 0.4404(3)
N23 N 0.0674(4) 0.7881(3) 0.3471(2)
O23 O -0.1174(3) 0.8225(3) 0.5442(2)
H58 H -0.0961 0.7644 0.5681
O24 O 0.1125(4) 0.4666(3) 0.2012(2)
C51 C 0.0744(5) 0.8440(4) 0.2636(3)
H59 H 0.0643 0.9139 0.2547
C52 C 0.1147(5) 0.5311(4) 0.3289(3)
C53 C -0.0234(4) 1.0024(3) 0.4181(3)
H60 H -0.0204 1.0100 0.4790
C54 C 0.1322(5) 0.4507(4) 0.2812(4)
O25 O 0.0098(3) 1.1066(3) 0.2658(2)
H61 H -0.0529 1.0838 0.2496
C55 C 0.0812(4) 0.6841(4) 0.3608(3)
C56 C -0.0997(4) 0.8366(3) 0.4513(3)
H62 H -0.1466 0.7880 0.4284
C57 C -0.1402(4) 0.9458(4) 0.4109(3)
H63 H -0.2107 0.9679 0.4451
C58 C 0.0414(4) 0.8340(4) 0.4242(3)
H64 H 0.0883 0.7959 0.4742
N24 N 0.1310(5) 0.6686(4) 0.1318(3)
C59 C 0.1080(5) 0.7027(4) 0.2045(3)
C60 C -0.0053(5) 1.1057(4) 0.3575(3)
H65 H -0.0771 1.1488 0.3659
H66 H 0.0682 1.1351 0.3751
N25 N 0.1746(5) 0.3582(4) 0.3223(4)
H67 H 0.794(6) 0.909(5) 1.074(5)
H68 H 0.755(5) 0.671(5) 1.337(4)
H69 H 0.757(5) 0.559(5) 1.409(4)
H70 H 0.766(6) 0.952(5) 1.150(4)
Br6 Br 0.80453(6) 0.82165(4) 0.94670(4)
N26 N 0.8358(4) 0.4603(3) 1.1374(3)
O26 O 0.8862(3) 0.3041(3) 1.1023(2)
C61 C 0.8095(5) 0.7175(4) 1.0500(4)
C62 C 0.8228(5) 0.5648(4) 1.1187(3)
O27 O 0.6811(3) 0.2930(3) 0.9288(2)
H71 H 0.6252 0.3363 0.9279
O28 O 0.7615(4) 0.8001(3) 1.2586(3)
C63 C 0.8693(5) 0.4086(4) 1.0653(3)
H72 H 0.9482 0.4353 1.0360
C64 C 0.7763(5) 0.8117(5) 1.1782(4)
C65 C 0.7943(5) 0.7237(4) 1.1378(4)
N27 N 0.8275(4) 0.6235(4) 1.0361(3)
C66 C 0.8245(4) 0.2443(3) 1.0519(3)
H73 H 0.8847 0.1943 1.0363
O29 O 0.7630(4) 0.1179(3) 1.1767(2)
H74 H 0.7048 0.0875 1.2062
O30 O 0.7873(4) 0.5013(3) 0.9250(2)
H75 H 0.7784 0.5545 0.9415
C67 C 0.8026(5) 0.6183(4) 1.1845(3)
C68 C 0.7700(5) 0.4196(3) 0.9972(3)
H76 H 0.6863 0.4243 1.0249
C69 C 0.7942(5) 0.5610(4) 1.2730(3)
C70 C 0.7146(5) 0.1898(4) 1.1038(3)
H77 H 0.6577 0.2377 1.1244
H78 H 0.6690 0.1558 1.0670
N28 N 0.8088(4) 0.4579(3) 1.2880(3)
N29 N 0.7717(5) 0.5994(4) 1.3419(3)
C71 C 0.8297(5) 0.4134(4) 1.2223(3)
H79 H 0.8412 0.3434 1.2361
C72 C 0.7866(4) 0.3204(3) 0.9674(3)
H80 H 0.8574 0.3265 0.9244
N30 N 0.7815(7) 0.9035(4) 1.1274(4)
H81? H 0.754(4) 0.801(3) 0.744(3)
loop_
_geom_bond_atom_site_label_1
_geom_bond_atom_site_label_2
_geom_bond_site_symmetry_1
_geom_bond_site_symmetry_2
N1 H1 1_555 1_555
H2 N1 1_555 1_555
H3 N5 1_555 1_555
Br1 C1 1_555 1_555
C1 N2 1_555 1_555
N2 C2 1_555 1_555
O1 C7 1_555 1_555
N3 C2 1_555 1_555
O2 C5 1_555 1_555
C2 C4 1_555 1_555
C3 C1 1_555 1_555
C4 C3 1_555 1_555
N4 C10 1_555 1_555
C5 C3 1_555 1_555
C6 H4 1_555 1_555
H5 C6 1_555 1_555
O3 H6 1_555 1_555
O4 H7 1_555 1_555
C7 C6 1_555 1_555
H8 C7 1_555 1_555
C8 O1 1_555 1_555
H9 C8 1_555 1_555
C9 O3 1_555 1_555
H10 C9 1_555 1_555
C10 N1 1_555 1_555
C11 O4 1_555 1_555
H11 C11 1_555 1_555
N5 C5 1_555 1_555
C12 N3 1_555 1_555
H12 C12 1_555 1_555
O5 C6 1_555 1_555
H13 O5 1_555 1_555
O6 H14 1_555 1_555
C13 O6 1_555 1_555
H15 C13 1_555 1_555
H16 C13 1_555 1_555
H17 N9 1_555 1_555
H18 N10 1_555 1_555
H19 N10 1_555 1_555
H20 N9 1_555 1_555
Br2 C14 1_555 1_555
N6 C14 1_555 1_555
N7 C17 1_555 1_555
C14 C15 1_555 1_555
C15 C19 1_555 1_555
O7 C16 1_555 1_555
O8 C23 1_555 1_555
N8 C20 1_555 1_555
C16 C13 1_555 1_555
H21 C16 1_555 1_555
C17 N6 1_555 1_555
C18 N7 1_555 1_555
H22 C18 1_555 1_555
C19 C17 1_555 1_555
N9 C23 1_555 1_555
C20 N7 1_555 1_555
H23 C20 1_555 1_555
C21 N8 1_555 1_555
C22 C18 1_555 1_555
H24 C22 1_555 1_555
O9 C22 1_555 1_555
H25 O9 1_555 1_555
N10 C21 1_555 1_555
C23 C15 1_555 1_555
O10 H26 1_555 1_555
C24 C16 1_555 1_555
H27 C24 1_555 1_555
H28 N14 1_555 1_555
H29 N14 1_555 1_555
H30 N15 1_555 1_555
Br3 C25 1_555 1_555
N11 C25 1_555 1_555
O11 C27 1_555 1_555
N12 C27 1_555 1_555
C25 C30 1_555 1_555
N13 C26 1_555 1_555
C26 C28 1_555 1_555
C27 H31 1_555 1_555
O12 H32 1_555 1_555
C28 C30 1_555 1_555
O13 C32 1_555 1_555
N14 C26 1_555 1_555
O14 H33 1_555 1_555
C29 N12 1_555 1_555
H34 C29 1_555 1_555
C30 C32 1_555 1_555
C31 N11 1_555 1_555
N15 C32 1_555 1_555
O15 H35 1_555 1_555
C33 O15 1_555 1_555
H36 C33 1_555 1_555
H37 C33 1_555 1_555
C34 O11 1_555 1_555
H38 C34 1_555 1_555
C35 C27 1_555 1_555
H39 C35 1_555 1_555
C36 O12 1_555 1_555
H40 C36 1_555 1_555
H41 N19 1_555 1_555
H42 N20 1_555 1_555
H43 N19 1_555 1_555
Br4 C37 1_555 1_555
C37 N17 1_555 1_555
N16 C38 1_555 1_555
C38 N17 1_555 1_555
O16 H44 1_555 1_555
O17 C40 1_555 1_555
O18 C39 1_555 1_555
C39 H45 1_555 1_555
C40 C44 1_555 1_555
O19 H46 1_555 1_555
C41 C38 1_555 1_555
C42 N16 1_555 1_555
H47 C42 1_555 1_555
N18 C42 1_555 1_555
C43 C41 1_555 1_555
C44 C37 1_555 1_555
N19 C43 1_555 1_555
C45 C39 1_555 1_555
H48 C45 1_555 1_555
C46 C39 1_555 1_555
H49 C46 1_555 1_555
H50 C46 1_555 1_555
N20 C40 1_555 1_555
C47 N16 1_555 1_555
H51 C47 1_555 1_555
C48 O16 1_555 1_555
H52 C48 1_555 1_555
O20 C46 1_555 1_555
H53 O20 1_555 1_555
H54 N24 1_555 1_555
H55 N24 1_555 1_555
H56 N25 1_555 1_555
Br5 C49 1_555 1_555
C49 N22 1_555 1_555
N21 C51 1_555 1_555
C50 C52 1_555 1_555
O21 C53 1_555 1_555
O22 H57 1_555 1_555
N22 C55 1_555 1_555
N23 C51 1_555 1_555
O23 H58 1_555 1_555
O24 C54 1_555 1_555
C51 H59 1_555 1_555
C52 C49 1_555 1_555
C53 H60 1_555 1_555
C54 C52 1_555 1_555
O25 H61 1_555 1_555
C55 C50 1_555 1_555
C56 O23 1_555 1_555
H62 C56 1_555 1_555
C57 O22 1_555 1_555
H63 C57 1_555 1_555
C58 O21 1_555 1_555
H64 C58 1_555 1_555
N24 C59 1_555 1_555
C59 N21 1_555 1_555
C60 C53 1_555 1_555
H65 C60 1_555 1_555
H66 C60 1_555 1_555
N25 C54 1_555 1_555
H67 N30 1_555 1_555
H68 N29 1_555 1_555
H69 N29 1_555 1_555
H70 N30 1_555 1_555
Br6 C61 1_555 1_555
N26 C62 1_555 1_555
O26 C63 1_555 1_555
C61 C65 1_555 1_555
C62 N27 1_555 1_555
O27 H71 1_555 1_555
O28 C64 1_555 1_555
C63 N26 1_555 1_555
H72 C63 1_555 1_555
C64 C65 1_555 1_555
C65 C67 1_555 1_555
N27 C61 1_555 1_555
C66 O26 1_555 1_555
H73 C66 1_555 1_555
O29 H74 1_555 1_555
O30 H75 1_555 1_555
C67 C62 1_555 1_555
C68 C63 1_555 1_555
H76 C68 1_555 1_555
C69 C67 1_555 1_555
C70 C66 1_555 1_555
H77 C70 1_555 1_555
H78 C70 1_555 1_555
N28 C69 1_555 1_555
N29 C69 1_555 1_555
C71 N26 1_555 1_555
H79 C71 1_555 1_555
C72 O27 1_555 1_555
H80 C72 1_555 1_555
N30 C64 1_555 1_555
N3 C8 1_555 1_555
C4 C10 1_555 1_555
N4 C12 1_555 1_555
C7 C11 1_555 1_555
C8 C9 1_555 1_555
C9 C11 1_555 1_555
O7 C18 1_555 1_555
C19 C21 1_555 1_555
C22 C24 1_555 1_555
O10 C24 1_555 1_555
N12 C31 1_555 1_555
N13 C29 1_555 1_555
C28 C31 1_555 1_555
O14 C35 1_555 1_555
C33 C34 1_555 1_555
C34 C36 1_555 1_555
C35 C36 1_555 1_555
O18 C47 1_555 1_555
O19 C45 1_555 1_555
C41 C44 1_555 1_555
N18 C43 1_555 1_555
C45 C48 1_555 1_555
C47 C48 1_555 1_555
C50 C59 1_555 1_555
N23 C55 1_555 1_555
N23 C58 1_555 1_555
C53 C57 1_555 1_555
O25 C60 1_555 1_555
C56 C57 1_555 1_555
C56 C58 1_555 1_555
C66 C72 1_555 1_555
O29 C70 1_555 1_555
O30 C68 1_555 1_555
C68 C72 1_555 1_555
N28 C71 1_555 1_555

#END
