
#######################################################################
#
#                 Cambridge Crystallographic Data Centre
#                                CCDC 
#
#######################################################################
#
# If this CIF has been generated from an entry in the Cambridge 
# Structural Database, then it will include bibliographic, chemical, 
# crystal, experimental, refinement or atomic coordinate data resulting 
# from the CCDC's data processing and validation procedures.
#
#######################################################################

data_SEVPUH
_chemical_formula_moiety         'C22 H19 Cl1 O4'
_chemical_name_systematic        
'methyl 3-chloro-2-[2-(4-methylphenyl)ethenyl]-6-oxo-4-phenyl-3,6-dihydro-2H-pyran-2-carboxylate'
_symmetry_cell_setting           orthorhombic
_symmetry_space_group_name_H-M   'P 21 21 21'
_symmetry_Int_Tables_number      19
_space_group_name_Hall           'P 2ac 2ab'
loop_
_symmetry_equiv_pos_site_id
_symmetry_equiv_pos_as_xyz
1 x,y,z
2 1/2-x,-y,1/2+z
3 -x,1/2+y,1/2-z
4 1/2+x,1/2-y,-z
_cell_length_a                   7.31147(16)
_cell_length_b                   13.7958(4)
_cell_length_c                   19.1823(5)
_cell_angle_alpha                90
_cell_angle_beta                 90
_cell_angle_gamma                90
_cell_volume                     1934.87
_exptl_crystal_colour            'light colorless'
_exptl_crystal_description       needle
_cell_formula_units_Z            4
loop_
_atom_site_label
_atom_site_type_symbol
_atom_site_fract_x
_atom_site_fract_y
_atom_site_fract_z
Cl1 Cl 0.22139(14) 0.24166(7) 0.19336(5)
O1 O 0.5332(3) 0.3821(3) 0.24359(13)
O2 O 0.2036(4) 0.5642(2) 0.20634(17)
O3 O 0.7976(4) 0.3749(3) 0.18930(16)
O4 O 0.4987(5) 0.5731(3) 0.2335(2)
C1 C 0.3630(5) 0.5282(3) 0.22508(18)
C2 C 0.5389(5) 0.3936(3) 0.11802(18)
H1 H 0.6066 0.4085 0.0784
C3 C 0.3499(5) 0.4176(3) 0.23800(17)
C4 C 0.3588(4) 0.3813(2) 0.11097(16)
C5 C 0.6353(5) 0.3849(3) 0.18407(19)
C6 C 0.2662(5) 0.3753(2) 0.04268(16)
C7 C 0.2498(4) 0.3692(2) 0.17712(16)
H2 H 0.1294 0.3993 0.1713
C8 C 0.2668(5) 0.4027(3) 0.30937(18)
H3 H 0.3456 0.3880 0.3459
C9 C 0.0046(6) 0.3980(3) 0.39283(19)
C10 C 0.0937(6) 0.4091(3) 0.32329(18)
H4 H 0.0166 0.4220 0.2859
C11 C 0.1002(8) 0.3661(4) -0.0875(2)
H5 H 0.0441 0.3625 -0.1310
C12 C 0.0825(6) 0.3931(4) 0.0355(2)
H6 H 0.0128 0.4072 0.0747
C13 C -0.1767(7) 0.3737(4) 0.5205(2)
C14 C -0.1810(7) 0.3928(5) 0.3953(2)
H7 H -0.2489 0.3972 0.3544
C15 C 0.1010(7) 0.3912(5) 0.4541(2)
H8 H 0.2281 0.3940 0.4533
C16 C 0.0098(8) 0.3801(4) 0.5173(2)
H9 H 0.0772 0.3770 0.5584
C17 C 0.3634(7) 0.3504(4) -0.0167(2)
H10 H 0.4871 0.3355 -0.0129
C18 C -0.0003(7) 0.3904(6) -0.0293(3)
H11 H -0.1240 0.4050 -0.0336
C19 C 0.1952(9) 0.6687(3) 0.2008(3)
H12 H 0.2827 0.6905 0.1669
H13 H 0.2227 0.6972 0.2452
H14 H 0.0746 0.6878 0.1865
C20 C -0.2690(7) 0.3809(6) 0.4587(3)
H15 H -0.3961 0.3778 0.4593
C21 C 0.2806(9) 0.3474(5) -0.0811(2)
H16 H 0.3494 0.3325 -0.1205
C22 C -0.2789(11) 0.3625(5) 0.5887(3)
H17 H -0.2037 0.3282 0.6215
H18 H -0.3898 0.3269 0.5809
H19 H -0.3079 0.4254 0.6070
loop_
_geom_bond_atom_site_label_1
_geom_bond_atom_site_label_2
_geom_bond_site_symmetry_1
_geom_bond_site_symmetry_2
Cl1 C7 1_555 1_555
O1 C3 1_555 1_555
O2 C1 1_555 1_555
O3 C5 1_555 1_555
O4 C1 1_555 1_555
C1 C3 1_555 1_555
C2 H1 1_555 1_555
C3 C7 1_555 1_555
C4 C2 1_555 1_555
C5 O1 1_555 1_555
C6 C4 1_555 1_555
C7 C4 1_555 1_555
H2 C7 1_555 1_555
C8 C3 1_555 1_555
H3 C8 1_555 1_555
C9 C10 1_555 1_555
C10 C8 1_555 1_555
H4 C10 1_555 1_555
C11 H5 1_555 1_555
C12 C6 1_555 1_555
H6 C12 1_555 1_555
C13 C16 1_555 1_555
C14 C9 1_555 1_555
H7 C14 1_555 1_555
C15 C9 1_555 1_555
H8 C15 1_555 1_555
C16 C15 1_555 1_555
H9 C16 1_555 1_555
C17 C6 1_555 1_555
H10 C17 1_555 1_555
C18 C11 1_555 1_555
H11 C18 1_555 1_555
C19 O2 1_555 1_555
H12 C19 1_555 1_555
H13 C19 1_555 1_555
H14 C19 1_555 1_555
C20 C13 1_555 1_555
H15 C20 1_555 1_555
C21 C11 1_555 1_555
H16 C21 1_555 1_555
C22 C13 1_555 1_555
H17 C22 1_555 1_555
H18 C22 1_555 1_555
H19 C22 1_555 1_555
C2 C5 1_555 1_555
C12 C18 1_555 1_555
C14 C20 1_555 1_555
C17 C21 1_555 1_555

#END
