
#######################################################################
#
#                 Cambridge Crystallographic Data Centre
#                                CCDC 
#
#######################################################################
#
# If this CIF has been generated from an entry in the Cambridge 
# Structural Database, then it will include bibliographic, chemical, 
# crystal, experimental, refinement or atomic coordinate data resulting 
# from the CCDC's data processing and validation procedures.
#
#######################################################################

data_SEWVAU
_chemical_formula_moiety         'C36 H40 N4 O3'
_chemical_name_systematic        
3',6'-bis(diethylamino)-4-{[4-(dimethylamino)phenyl]amino}-3H-spiro[2-benzofuran-1,9'-xanthen]-3-one
_symmetry_cell_setting           monoclinic
_symmetry_space_group_name_H-M   'C 2/c'
_symmetry_Int_Tables_number      15
_space_group_name_Hall           '-C 2yn'
loop_
_symmetry_equiv_pos_site_id
_symmetry_equiv_pos_as_xyz
1 x,y,z
2 -x,y,1/2-z
3 1/2+x,1/2+y,z
4 1/2-x,1/2+y,1/2-z
5 -x,-y,-z
6 x,-y,1/2+z
7 1/2-x,1/2-y,-z
8 1/2+x,1/2-y,1/2+z
_cell_length_a                   21.2703(8)
_cell_length_b                   14.1645(8)
_cell_length_c                   21.7976(10)
_cell_angle_alpha                90
_cell_angle_beta                 102.323(2)
_cell_angle_gamma                90
_cell_volume                     6415.94
_exptl_crystal_colour            colorless
_exptl_crystal_description       Block
_cell_formula_units_Z            8
loop_
_atom_site_label
_atom_site_type_symbol
_atom_site_fract_x
_atom_site_fract_y
_atom_site_fract_z
C1 C 0.29510(13) 0.85692(16) 0.72545(13)
H1 H 0.2743 0.8384 0.6837
H2 H 0.3029 0.9237 0.7265
H3 H 0.2679 0.8416 0.7540
C2 C 0.41349(14) 0.85980(18) 0.74650(13)
H4 H 0.4427 0.8473 0.7857
H5 H 0.4041 0.9261 0.7431
H6 H 0.4328 0.8407 0.7125
C3 C 0.35578(10) 0.71045(14) 0.74343(10)
C4 C 0.29942(10) 0.65848(14) 0.72536(10)
H7 H 0.2603 0.6899 0.7139
C5 C 0.30059(10) 0.56147(14) 0.72412(10)
H8 H 0.2620 0.5287 0.7124
C6 C 0.35700(10) 0.51175(13) 0.73961(9)
C7 C 0.41262(10) 0.56182(16) 0.75931(12)
H9 H 0.4514 0.5296 0.7716
C8 C 0.41231(10) 0.65915(16) 0.76136(12)
H10 H 0.4509 0.6912 0.7751
C9 C 0.34545(9) 0.36389(13) 0.67926(9)
C10 C 0.33326(11) 0.40779(14) 0.62044(10)
H11 H 0.3324 0.4733 0.6180
C11 C 0.32244(11) 0.35482(15) 0.56593(10)
H12 H 0.3138 0.3862 0.5276
C12 C 0.32383(10) 0.25694(14) 0.56597(9)
H13 H 0.3169 0.2225 0.5288
C13 C 0.33595(9) 0.21342(12) 0.62359(9)
C14 C 0.34554(9) 0.26481(12) 0.67867(8)
C15 C 0.35445(9) 0.20016(13) 0.73148(9)
C16 C 0.34326(9) 0.10901(13) 0.63921(8)
C17 C 0.40389(9) 0.06807(13) 0.62582(9)
C18 C 0.46382(9) 0.11005(14) 0.64695(10)
H14 H 0.4658 0.1666 0.6689
C19 C 0.51968(10) 0.07234(14) 0.63699(10)
H15 H 0.5585 0.1028 0.6529
C20 C 0.51950(9) -0.01221(13) 0.60289(9)
C21 C 0.45978(9) -0.05554(13) 0.58164(9)
H16 H 0.4574 -0.1119 0.5594
C22 C 0.40424(8) -0.01581(12) 0.59330(8)
C23 C 0.57493(11) -0.12656(16) 0.54680(11)
H17 H 0.6112 -0.1183 0.5269
H18 H 0.5359 -0.1219 0.5144
C24 C 0.57842(15) -0.22340(19) 0.57536(14)
H19 H 0.6177 -0.2296 0.6064
H20 H 0.5774 -0.2700 0.5432
H21 H 0.5424 -0.2326 0.5948
C25 C 0.63788(10) -0.01121(17) 0.62105(10)
H22 H 0.6697 -0.0613 0.6261
H23 H 0.6361 0.0117 0.6626
C26 C 0.65973(13) 0.0680(2) 0.58480(13)
H24 H 0.6623 0.0459 0.5438
H25 H 0.7013 0.0895 0.6066
H26 H 0.6295 0.1191 0.5809
C27 C 0.29114(9) -0.03150(13) 0.57847(9)
C28 C 0.28569(9) 0.05056(13) 0.61113(9)
C29 C 0.22383(9) 0.07473(14) 0.61662(9)
H27 H 0.2181 0.1296 0.6382
C30 C 0.17085(10) 0.02127(15) 0.59167(10)
H28 H 0.1306 0.0397 0.5976
C31 C 0.17645(9) -0.06125(14) 0.55708(10)
C32 C 0.23828(9) -0.08561(14) 0.55112(10)
H29 H 0.2442 -0.1392 0.5284
C33 C 0.13012(11) -0.20013(16) 0.49459(12)
H30 H 0.0941 -0.2415 0.4958
H31 H 0.1691 -0.2329 0.5147
C34 C 0.13237(16) -0.1822(2) 0.42730(13)
H32 H 0.0940 -0.1496 0.4069
H33 H 0.1352 -0.2413 0.4065
H34 H 0.1693 -0.1443 0.4254
C35 C 0.05913(11) -0.08827(19) 0.53320(14)
H35 H 0.0302 -0.1091 0.4950
H36 H 0.0568 -0.0199 0.5346
C36 C 0.03639(16) -0.1280(3) 0.58852(19)
H37 H 0.0399 -0.1955 0.5884
H38 H -0.0077 -0.1104 0.5859
H39 H 0.0624 -0.1033 0.6266
N1 N 0.35498(10) 0.80789(13) 0.74373(11)
N2 N 0.35775(9) 0.41147(11) 0.73527(8)
H40 H 0.3663 0.3792 0.7695
N3 N 0.12383(8) -0.11526(13) 0.53050(10)
N4 N 0.57530(8) -0.05056(13) 0.59199(8)
O1 O 0.36344(7) 0.21741(9) 0.78721(6)
O2 O 0.35053(6) 0.11028(8) 0.70975(6)
O3 O 0.34903(6) -0.06691(9) 0.57043(7)
loop_
_geom_bond_atom_site_label_1
_geom_bond_atom_site_label_2
_geom_bond_site_symmetry_1
_geom_bond_site_symmetry_2
C1 H1 1_555 1_555
H2 C1 1_555 1_555
H3 C1 1_555 1_555
C2 H4 1_555 1_555
H5 C2 1_555 1_555
H6 C2 1_555 1_555
C3 C4 1_555 1_555
C4 H7 1_555 1_555
C5 C4 1_555 1_555
H8 C5 1_555 1_555
C6 C5 1_555 1_555
C7 C6 1_555 1_555
H9 C7 1_555 1_555
C8 C3 1_555 1_555
H10 C8 1_555 1_555
C9 C10 1_555 1_555
C10 H11 1_555 1_555
C11 C10 1_555 1_555
H12 C11 1_555 1_555
C12 C11 1_555 1_555
H13 C12 1_555 1_555
C13 C12 1_555 1_555
C14 C9 1_555 1_555
C15 C14 1_555 1_555
C16 C13 1_555 1_555
C17 C16 1_555 1_555
C18 C17 1_555 1_555
H14 C18 1_555 1_555
C19 C18 1_555 1_555
H15 C19 1_555 1_555
C20 C19 1_555 1_555
C21 C20 1_555 1_555
H16 C21 1_555 1_555
C22 C17 1_555 1_555
C23 H17 1_555 1_555
H18 C23 1_555 1_555
C24 C23 1_555 1_555
H19 C24 1_555 1_555
H20 C24 1_555 1_555
H21 C24 1_555 1_555
C25 H22 1_555 1_555
H23 C25 1_555 1_555
C26 C25 1_555 1_555
H24 C26 1_555 1_555
H25 C26 1_555 1_555
H26 C26 1_555 1_555
C27 C28 1_555 1_555
C28 C16 1_555 1_555
C29 C28 1_555 1_555
H27 C29 1_555 1_555
C30 C29 1_555 1_555
H28 C30 1_555 1_555
C31 C30 1_555 1_555
C32 C27 1_555 1_555
H29 C32 1_555 1_555
C33 H30 1_555 1_555
H31 C33 1_555 1_555
C34 C33 1_555 1_555
H32 C34 1_555 1_555
H33 C34 1_555 1_555
H34 C34 1_555 1_555
C35 H35 1_555 1_555
H36 C35 1_555 1_555
C36 C35 1_555 1_555
H37 C36 1_555 1_555
H38 C36 1_555 1_555
H39 C36 1_555 1_555
N1 C1 1_555 1_555
N2 C6 1_555 1_555
H40 N2 1_555 1_555
N3 C31 1_555 1_555
N4 C20 1_555 1_555
O1 C15 1_555 1_555
O2 C15 1_555 1_555
O3 C22 1_555 1_555
C2 N1 1_555 1_555
C3 N1 1_555 1_555
C7 C8 1_555 1_555
C9 N2 1_555 1_555
C13 C14 1_555 1_555
C16 O2 1_555 1_555
C21 C22 1_555 1_555
C23 N4 1_555 1_555
C25 N4 1_555 1_555
C27 O3 1_555 1_555
C31 C32 1_555 1_555
C33 N3 1_555 1_555
C35 N3 1_555 1_555

#END
