
#######################################################################
#
#                 Cambridge Crystallographic Data Centre
#                                CCDC 
#
#######################################################################
#
# If this CIF has been generated from an entry in the Cambridge 
# Structural Database, then it will include bibliographic, chemical, 
# crystal, experimental, refinement or atomic coordinate data resulting 
# from the CCDC's data processing and validation procedures.
#
#######################################################################

data_SEYJOY
_chemical_compound_source        'endophytic fungus Chaetomium sp. NF00754'
_chemical_name_common            Chaetospirolactone
_chemical_formula_moiety         'C14 H16 O4'
_chemical_name_systematic        
3-hydroxy-7,8-bis(prop-1-en-1-yl)-1-oxaspiro[4.4]non-7-ene-2,6-dione
_symmetry_cell_setting           orthorhombic
_symmetry_space_group_name_H-M   'P 21 21 21'
_symmetry_Int_Tables_number      19
_space_group_name_Hall           'P 2ac 2ab'
loop_
_symmetry_equiv_pos_site_id
_symmetry_equiv_pos_as_xyz
1 x,y,z
2 1/2+x,1/2-y,-z
3 -x,1/2+y,1/2-z
4 1/2-x,-y,1/2+z
_cell_length_a                   5.19580(10)
_cell_length_b                   16.0947(3)
_cell_length_c                   30.8700(5)
_cell_angle_alpha                90
_cell_angle_beta                 90
_cell_angle_gamma                90
_cell_volume                     2581.5
_exptl_crystal_colour            yellow
_exptl_crystal_description       prism
_cell_formula_units_Z            8
loop_
_atom_site_label
_atom_site_type_symbol
_atom_site_fract_x
_atom_site_fract_y
_atom_site_fract_z
O1 O -0.5700(3) -1.00839(10) -0.20519(6)
O2 O -0.7385(4) -1.12943(11) -0.18474(6)
O3 O -0.4106(4) -1.11737(13) -0.11224(7)
H1 H -0.2805 -1.1392 -0.1008
O4 O -0.6844(4) -0.85697(11) -0.16198(6)
C1 C -0.5711(5) -1.07817(15) -0.18124(9)
C2 C -0.3390(5) -1.07887(16) -0.15155(9)
H2 H -0.1954 -1.1106 -0.1654
C3 C -0.2681(5) -0.98762(16) -0.14847(8)
H3 H -0.0795 -0.9804 -0.1459
H4 H -0.3526 -0.9611 -0.1233
C4 C -0.3683(5) -0.95081(15) -0.19120(8)
C5 C -0.1735(5) -0.93780(15) -0.22735(8)
H5 H -0.0013 -0.9582 -0.2186
H6 H -0.2275 -0.9671 -0.2540
C6 C -0.1703(5) -0.84489(15) -0.23425(8)
C7 C -0.3530(5) -0.80475(15) -0.21027(8)
C8 C -0.4965(5) -0.86618(16) -0.18492(8)
C9 C -0.4015(6) -0.71515(16) -0.20905(9)
H7 H -0.3015 -0.6811 -0.2277
C10 C -0.5730(6) -0.67757(17) -0.18409(9)
H8 H -0.6795 -0.7115 -0.1664
C11 C -0.6116(8) -0.58537(17) -0.18166(11)
H9 H -0.4901 -0.5577 -0.2012
H10 H -0.5818 -0.5664 -0.1519
H11 H -0.7881 -0.5717 -0.1903
C12 C 0.0070(5) -0.80846(16) -0.26490(8)
H12 H 0.0035 -0.7499 -0.2688
C13 C 0.1750(5) -0.85245(18) -0.28804(8)
H13 H 0.1791 -0.9107 -0.2832
C14 C 0.3568(6) -0.8186(2) -0.32076(9)
H14 H 0.5339 -0.8259 -0.3105
H15 H 0.3222 -0.7593 -0.3251
H16 H 0.3341 -0.8482 -0.3482
O5 O -1.1339(3) -0.35782(10) -0.03496(5)
O6 O -1.2850(3) -0.22852(11) -0.03753(6)
O7 O -0.9231(4) -0.20101(12) -0.10287(7)
H17 H -0.7835 -0.1824 -0.1126
O8 O -1.2144(4) -0.48541(11) -0.09746(6)
C15 C -1.1172(5) -0.27760(15) -0.04626(8)
C16 C -0.8718(5) -0.26212(15) -0.07109(8)
H18 H -0.7337 -0.2423 -0.0510
C17 C -0.8065(5) -0.34840(15) -0.08801(8)
H19 H -0.6181 -0.3561 -0.0906
H20 H -0.8873 -0.3586 -0.1166
C18 C -0.9204(5) -0.40543(15) -0.05318(8)
C19 C -0.7358(5) -0.43456(14) -0.01815(8)
H21 H -0.5674 -0.4063 -0.0208
H22 H -0.8071 -0.4238 0.0111
C20 C -0.7094(5) -0.52673(15) -0.02629(7)
C21 C -0.8857(5) -0.55573(15) -0.05516(8)
C22 C -1.0339(5) -0.48559(16) -0.07225(8)
C23 C -0.9351(5) -0.64303(16) -0.06565(8)
H23 H -0.8276 -0.6828 -0.0519
C24 C -1.1115(6) -0.67223(16) -0.09191(8)
H24 H -1.2133 -0.6331 -0.1073
C25 C -1.1651(6) -0.76231(16) -0.09953(9)
H25 H -1.0818 -0.7954 -0.0769
H26 H -1.0973 -0.7786 -0.1279
H27 H -1.3513 -0.7719 -0.0988
C26 C -0.5174(5) -0.57541(16) -0.00365(8)
H28 H -0.5021 -0.6325 -0.0111
C27 C -0.3609(5) -0.54603(17) 0.02681(8)
H29 H -0.3765 -0.4891 0.0344
C28 C -0.1638(6) -0.59611(19) 0.04966(9)
H30 H -0.1502 -0.6509 0.0359
H31 H -0.2137 -0.6029 0.0801
H32 H 0.0029 -0.5678 0.0481
loop_
_geom_bond_atom_site_label_1
_geom_bond_atom_site_label_2
_geom_bond_site_symmetry_1
_geom_bond_site_symmetry_2
O1 C1 1_555 1_555
O2 C1 1_555 1_555
O3 H1 1_555 1_555
O4 C8 1_555 1_555
C1 C2 1_555 1_555
C2 O3 1_555 1_555
H2 C2 1_555 1_555
C3 C2 1_555 1_555
H3 C3 1_555 1_555
H4 C3 1_555 1_555
C4 O1 1_555 1_555
C5 C4 1_555 1_555
H5 C5 1_555 1_555
H6 C5 1_555 1_555
C6 C5 1_555 1_555
C7 C6 1_555 1_555
C8 C4 1_555 1_555
C9 C7 1_555 1_555
H7 C9 1_555 1_555
C10 C9 1_555 1_555
H8 C10 1_555 1_555
C11 C10 1_555 1_555
H9 C11 1_555 1_555
H10 C11 1_555 1_555
H11 C11 1_555 1_555
C12 C6 1_555 1_555
H12 C12 1_555 1_555
C13 C12 1_555 1_555
H13 C13 1_555 1_555
C14 C13 1_555 1_555
H14 C14 1_555 1_555
H15 C14 1_555 1_555
H16 C14 1_555 1_555
O5 C15 1_555 1_555
O6 C15 1_555 1_555
O7 H17 1_555 1_555
O8 C22 1_555 1_555
C15 C16 1_555 1_555
C16 O7 1_555 1_555
H18 C16 1_555 1_555
C17 C16 1_555 1_555
H19 C17 1_555 1_555
H20 C17 1_555 1_555
C18 O5 1_555 1_555
C19 C18 1_555 1_555
H21 C19 1_555 1_555
H22 C19 1_555 1_555
C20 C19 1_555 1_555
C21 C20 1_555 1_555
C22 C18 1_555 1_555
C23 C21 1_555 1_555
H23 C23 1_555 1_555
C24 C23 1_555 1_555
H24 C24 1_555 1_555
C25 C24 1_555 1_555
H25 C25 1_555 1_555
H26 C25 1_555 1_555
H27 C25 1_555 1_555
C26 C20 1_555 1_555
H28 C26 1_555 1_555
C27 C26 1_555 1_555
H29 C27 1_555 1_555
C28 C27 1_555 1_555
H30 C28 1_555 1_555
H31 C28 1_555 1_555
H32 C28 1_555 1_555
C3 C4 1_555 1_555
C7 C8 1_555 1_555
C17 C18 1_555 1_555
C21 C22 1_555 1_555

#END
