
#######################################################################
#
#                 Cambridge Crystallographic Data Centre
#                                CCDC 
#
#######################################################################
#
# If this CIF has been generated from an entry in the Cambridge 
# Structural Database, then it will include bibliographic, chemical, 
# crystal, experimental, refinement or atomic coordinate data resulting 
# from the CCDC's data processing and validation procedures.
#
#######################################################################

data_SEYNOC
_chemical_formula_moiety         'C20 H18 N1 O4 1+,C7 H5 O4 1-,H2 O1'
_chemical_name_systematic        
'9,10-dimethoxy-5,6-dihydro[1,3]dioxolo[4,5-g]isoquinolino[3,2-a]isoquinolin-7-ium 3,4-dihydroxybenzoate monohydrate'
_symmetry_cell_setting           triclinic
_symmetry_space_group_name_H-M   'P -1'
_symmetry_Int_Tables_number      2
_space_group_name_Hall           '-P 1'
loop_
_symmetry_equiv_pos_site_id
_symmetry_equiv_pos_as_xyz
1 x,y,z
2 -x,-y,-z
_cell_length_a                   7.9849(5)
_cell_length_b                   10.5437(5)
_cell_length_c                   14.3621(5)
_cell_angle_alpha                77.983(4)
_cell_angle_beta                 82.900(4)
_cell_angle_gamma                78.024(4)
_cell_volume                     1152.82
_exptl_crystal_colour            yellow
_exptl_crystal_description       needle
_cell_formula_units_Z            2
loop_
_atom_site_label
_atom_site_type_symbol
_atom_site_fract_x
_atom_site_fract_y
_atom_site_fract_z
O1 O 0.29184(15) 0.15116(13) 0.72297(9)
O2 O 0.39664(15) 0.06426(13) 0.86273(9)
O3 O 1.03330(15) 0.03634(14) 0.79811(9)
O4 O 1.08313(16) 0.13862(16) 0.59517(9)
C1 C 0.4170(2) 0.10815(15) 0.77519(11)
C2 C 0.59422(19) 0.11262(14) 0.72796(11)
C3 C 0.6198(2) 0.15737(15) 0.63000(11)
H1 H 0.5246 0.1832 0.5921
C4 C 0.7842(2) 0.16430(16) 0.58761(11)
H2 H 0.8008 0.1942 0.5206
C5 C 0.7353(2) 0.07330(15) 0.78212(11)
H3 H 0.7184 0.0408 0.8488
C6 C 0.9004(2) 0.08061(16) 0.74060(12)
C7 C 0.9252(2) 0.12797(17) 0.64194(12)
H4 H 1.123(4) 0.085(3) 0.7736(19)
H5 H 1.159(4) 0.135(3) 0.632(2)
O5 O 0.18829(19) 0.24616(13) 1.28571(9)
O6 O -0.02873(17) 0.39260(14) 1.35101(9)
O7 O 0.34193(15) 0.79548(11) 0.64316(8)
O8 O 0.58633(16) 0.63124(12) 0.55185(8)
N1 N 0.1959(2) 0.68397(14) 0.92987(10)
C8 C 0.0568(2) 0.2563(2) 1.36225(13)
H6 H 0.1076 0.2280 1.4244
H7 H -0.0261 0.1992 1.3601
C9 C 0.0198(2) 0.44896(19) 1.25942(12)
C10 C 0.1487(2) 0.36103(17) 1.21987(12)
C11 C 0.2268(2) 0.39196(17) 1.13051(12)
H8 H 0.3168 0.3312 1.1050
C12 C -0.0391(2) 0.5721(2) 1.20950(14)
H9 H -0.1284 0.6317 1.2366
C13 C 0.0367(2) 0.60752(19) 1.11664(13)
C14 C 0.1670(2) 0.51953(16) 1.07738(11)
C15 C -0.0376(4) 0.7313(3) 1.0518(2)
H10 H -0.1602 0.7274 1.0510
H11 H -0.0358 0.8039 1.0854
C16 C 0.1081(3) 0.7854(2) 0.98714(16)
H12 H 0.1983 0.8312 0.9982
C17 C 0.2417(2) 0.55580(16) 0.97906(11)
C18 C 0.3567(2) 0.46917(15) 0.93214(11)
H13 H 0.3937 0.3817 0.9652
C19 C 0.2486(2) 0.72187(17) 0.83871(12)
H14 H 0.2091 0.8100 0.8077
C20 C 0.3607(2) 0.63540(15) 0.78720(11)
C21 C 0.4213(2) 0.50546(15) 0.83727(11)
C22 C 0.5432(2) 0.41898(16) 0.78885(12)
H15 H 0.5855 0.3320 0.8211
C23 C 0.6010(2) 0.45934(17) 0.69593(12)
H16 H 0.6851 0.4005 0.6649
C24 C 0.5379(2) 0.58738(16) 0.64506(11)
C25 C 0.4169(2) 0.67449(15) 0.69023(11)
C26 C 0.4548(2) 0.88899(17) 0.61123(13)
H17 H 0.3900 0.9723 0.5784
H18 H 0.5480 0.8537 0.5671
H19 H 0.5032 0.9046 0.6664
C27 C 0.7163(2) 0.54686(19) 0.50258(13)
H20 H 0.7376 0.5915 0.4364
H21 H 0.6773 0.4645 0.5030
H22 H 0.8227 0.5270 0.5347
H23 H 0.0278 0.8644 0.9573
O9 O 0.4944(3) 0.16666(14) 1.01100(11)
H28 H 0.525(4) 0.102(3) 1.054(2)
H29 H 0.462(4) 0.138(3) 0.964(2)
H24? H 0.0301 0.8511 0.9446
C28? C 0.0241(15) 0.7626(10) 1.0646(8)
H25? H -0.0981 0.8008 1.0552
H26? H 0.0610 0.8098 1.1089
C29? C 0.0141(12) 0.7715(8) 0.9651(6)
H27? H -0.0749 0.7692 0.9235
loop_
_geom_bond_atom_site_label_1
_geom_bond_atom_site_label_2
_geom_bond_site_symmetry_1
_geom_bond_site_symmetry_2
O1 C1 1_555 1_555
O2 C1 1_555 1_555
O3 C6 1_555 1_555
O4 C7 1_555 1_555
C1 C2 1_555 1_555
C2 C3 1_555 1_555
C3 H1 1_555 1_555
C4 C3 1_555 1_555
H2 C4 1_555 1_555
C5 C2 1_555 1_555
H3 C5 1_555 1_555
C6 C5 1_555 1_555
C7 C4 1_555 1_555
H4 O3 1_555 1_555
H5 O4 1_555 1_555
O5 C8 1_555 1_555
O6 C8 1_555 1_555
O7 C25 1_555 1_555
O8 C24 1_555 1_555
N1 C16 1_555 1_555
C8 H6 1_555 1_555
H7 C8 1_555 1_555
C9 O6 1_555 1_555
C10 O5 1_555 1_555
C11 C10 1_555 1_555
H8 C11 1_555 1_555
C12 C9 1_555 1_555
H9 C12 1_555 1_555
C13 C12 1_555 1_555
C14 C11 1_555 1_555
C15 C13 1_555 1_555
H10 C15 1_555 1_555
H11 C15 1_555 1_555
C16 C15 1_555 1_555
H12 C16 1_555 1_555
C17 N1 1_555 1_555
C18 C17 1_555 1_555
H13 C18 1_555 1_555
C19 N1 1_555 1_555
H14 C19 1_555 1_555
C20 C19 1_555 1_555
C21 C18 1_555 1_555
C22 C21 1_555 1_555
H15 C22 1_555 1_555
C23 C22 1_555 1_555
H16 C23 1_555 1_555
C24 C23 1_555 1_555
C25 C20 1_555 1_555
C26 O7 1_555 1_555
H17 C26 1_555 1_555
H18 C26 1_555 1_555
H19 C26 1_555 1_555
C27 O8 1_555 1_555
H20 C27 1_555 1_555
H21 C27 1_555 1_555
H22 C27 1_555 1_555
H23 C16 1_555 1_555
O9 H28 1_555 1_555
H29 O9 1_555 1_555
C6 C7 1_555 1_555
C9 C10 1_555 1_555
C13 C14 1_555 1_555
C14 C17 1_555 1_555
C20 C21 1_555 1_555
C24 C25 1_555 1_555

#END
