
#######################################################################
#
#                 Cambridge Crystallographic Data Centre
#                                CCDC 
#
#######################################################################
#
# If this CIF has been generated from an entry in the Cambridge 
# Structural Database, then it will include bibliographic, chemical, 
# crystal, experimental, refinement or atomic coordinate data resulting 
# from the CCDC's data processing and validation procedures.
#
#######################################################################

data_SEYQUI
_chemical_name_common            XK234-5.
_chemical_formula_moiety         'C27 H34 N2 O3,0.5(C6 H12)'
_chemical_name_systematic        
'(4R)-4,7-Dibenzyl-1,3-bis(cyclopropylmethyl)-5,6-dihydroxy-1,3,4,5,6,7-hexahydro-2H-1,3-diazepin-2-one cyclohexane solvate'
_chemical_properties_biological  
'derivative of a compound having potential protease inhibitory activity'
_symmetry_cell_setting           tetragonal
_symmetry_space_group_name_H-M   'P 41'
_symmetry_Int_Tables_number      76
_space_group_name_Hall           'P 4w'
loop_
_symmetry_equiv_pos_site_id
_symmetry_equiv_pos_as_xyz
1 x,y,z
2 -y,x,1/4+z
3 -x,-y,1/2+z
4 y,-x,3/4+z
_cell_length_a                   17.627(2)
_cell_length_b                   17.627(2)
_cell_length_c                   17.790(6)
_cell_angle_alpha                90
_cell_angle_beta                 90
_cell_angle_gamma                90
_cell_volume                     5527.55
_exptl_crystal_colour            colorless
_exptl_crystal_description       'hexagonal rod'
_chemical_melting_point          210-212deg.C
_cell_formula_units_Z            8
_exptl_crystal_recrystallization_method methanol/dichloromethane/hexane
loop_
_atom_site_label
_atom_site_type_symbol
_atom_site_fract_x
_atom_site_fract_y
_atom_site_fract_z
O1 O 0.2700(2) 0.0620(3) 0.0940
O3 O 0.1346(4) -0.2062(3) -0.0274(4)
O5 O 0.2476(3) -0.1659(3) -0.1338(4)
N1 N 0.1821(3) -0.0189(3) 0.0474(4)
N3 N 0.3092(3) -0.0353(3) 0.0188(4)
C1 C 0.2544(4) 0.0054(4) 0.0546(5)
C3 C 0.1203(4) 0.0339(4) 0.0648(4)
C5 C 0.1620(3) -0.0992(4) 0.0464(4)
C7 C 0.1698(4) -0.1332(4) -0.0314(4)
C9 C 0.2503(4) -0.1402(4) -0.0581(5)
C11 C 0.2959(4) -0.0668(4) -0.0570(5)
C13 C 0.3886(4) -0.0246(4) 0.0402(5)
C15 C 0.0590(4) 0.0344(4) 0.0078(5)
C17 C 0.0126(4) 0.1046(4) -0.0030(5)
C19 C 0.0696(4) 0.0803(4) -0.0628(5)
C21 C 0.1990(4) -0.1457(4) 0.1086(5)
C23 C 0.1728(4) -0.1226(4) 0.1854(5)
C25 C 0.2085(4) -0.0673(4) 0.2272(5)
C27 C 0.1835(6) -0.0433(5) 0.2952(6)
C29 C 0.1188(7) -0.0727(7) 0.3253(6)
C31 C 0.0802(6) -0.1285(8) 0.2848(7)
C33 C 0.1070(5) -0.1532(5) 0.2150(6)
C35 C 0.2680(4) -0.0065(4) -0.1131(4)
C37 C 0.3242(4) 0.0566(4) -0.1270(5)
C39 C 0.3839(5) 0.0465(5) -0.1767(6)
C41 C 0.4352(6) 0.1036(7) -0.1857(6)
C43 C 0.4315(7) 0.1703(7) -0.1467(7)
C45 C 0.3723(7) 0.1811(5) -0.0980(6)
C47 C 0.3189(5) 0.1244(5) -0.0872(5)
C49 C 0.4231(4) -0.0973(4) 0.0655(5)
C51 C 0.4159(5) -0.1222(5) 0.1460(6)
C53 C 0.4908(5) -0.0941(5) 0.1176(6)
H1 H 0.1264(42) -0.2173(43) -0.0597(36)
H3 H 0.2645(48) -0.2094(50) -0.1388(54)
H5 H 0.1408 0.0836 0.0707
H7 H 0.1001 0.0224 0.1126
H9 H 0.1093 -0.1013 0.0581
H11 H 0.1424 -0.1016 -0.0650
H13 H 0.2752 -0.1762 -0.0265
H15 H 0.3452 -0.0815 -0.0738
H17 H 0.3915 0.0118 0.0796
H19 H 0.4164 -0.0056 -0.0014
H21 H 0.0329 -0.0121 0.0027
H23 H 0.0333 0.1445 0.0267
H25 H -0.0374 0.0910 -0.0176
H27 H 0.0432 0.0558 -0.1022
H28 H 0.1144 0.1102 -0.0569
H31 H 0.2523 -0.1408 0.1069
H34 H 0.1878 -0.1985 0.1023
H35 H 0.2545 -0.0458 0.2086
H37 H 0.2098 -0.0058 0.3231
H39 H 0.1001 -0.0557 0.3725
H41 H 0.0362 -0.1502 0.3066
H43 H 0.0797 -0.1920 0.1894
H45 H 0.2220 0.0138 -0.0953
H46 H 0.2561 -0.0308 -0.1594
H49 H 0.3891 -0.0008 -0.2031
H51 H 0.4743 0.0971 -0.2219
H53 H 0.4709 0.2068 -0.1520
H55 H 0.3686 0.2277 -0.0709
H57 H 0.2789 0.1319 -0.0526
H59 H 0.4241 -0.1371 0.0303
H61 H 0.4169 -0.1763 0.1491
H62 H 0.3929 -0.0843 0.1760
H65 H 0.4994 -0.0443 0.1358
H67 H 0.5236 -0.1362 0.1089
O2 O 0.5338(3) 0.2833(3) 0.3374(4)
O4 O 0.2982(3) 0.3238(3) 0.1205(4)
O6 O 0.3609(3) 0.1883(4) 0.0786(4)
N2 N 0.4716(3) 0.3380(4) 0.2396(4)
N4 N 0.4701(3) 0.2067(4) 0.2563(4)
C2 C 0.4939(4) 0.2773(6) 0.2812(6)
C4 C 0.5136(4) 0.4103(5) 0.2515(6)
C6 C 0.3910(4) 0.3469(4) 0.2163(5)
C8 C 0.3718(4) 0.3043(4) 0.1447(5)
C10 C 0.3766(4) 0.2191(4) 0.1512(5)
C12 C 0.4537(4) 0.1898(4) 0.1771(5)
C14 C 0.4831(5) 0.1412(5) 0.3059(6)
C16 C 0.5870(6) 0.4092(6) 0.2159(7)
C18 C 0.6239(5) 0.4806(5) 0.1884(7)
C20 C 0.5999(5) 0.4190(6) 0.1365(7)
C22 C 0.3360(4) 0.3318(4) 0.2805(6)
C24 C 0.3366(5) 0.3937(6) 0.3371(7)
C26 C 0.3647(5) 0.3814(6) 0.4092(7)
C28 C 0.3639(7) 0.4399(10) 0.4620(8)
C30 C 0.3357(9) 0.5066(11) 0.4456(11)
C32 C 0.3111(7) 0.5220(7) 0.3730(11)
C34 C 0.3106(5) 0.4652(7) 0.3209(7)
C36 C 0.5190(4) 0.2100(4) 0.1235(5)
C38 C 0.5864(5) 0.1585(5) 0.1311(6)
C40 C 0.6433(6) 0.1730(5) 0.1805(6)
C42 C 0.7051(5) 0.1229(6) 0.1891(5)
C44 C 0.7079(5) 0.0585(6) 0.1493(7)
C46 C 0.6507(6) 0.0435(5) 0.0995(6)
C48 C 0.5912(5) 0.0922(5) 0.0911(6)
C50 C 0.4154(12) 0.1134(14) 0.3366(13)
C52 C 0.4132(7) 0.0555(8) 0.4015(9)
C54 C 0.3754(10) 0.1257(12) 0.3857(16)
H2 H 0.2826(68) 0.3661(74) 0.0840(78)
H4 H 0.3321(53) 0.1450(54) 0.0808(62)
H6 H 0.5188 0.4187 0.3045
H8 H 0.4843 0.4519 0.2338
H10 H 0.3845 0.3991 0.2050
H12 H 0.4087 0.3196 0.1077
H14 H 0.3397 0.2034 0.1864
H16 H 0.4496 0.1364 0.1750
H18 H 0.5112 0.1565 0.3488
H20 H 0.5092 0.1019 0.2814
H22 H 0.6214 0.3767 0.2403
H24 H 0.6773 0.4770 0.1965
H26 H 0.5878 0.5203 0.1887
H29 H 0.6425 0.3896 0.1218
H30 H 0.5527 0.4332 0.1145
H32 H 0.3482 0.2860 0.3057
H33 H 0.2853 0.3259 0.2627
H36 H 0.3852 0.3332 0.4216
H38 H 0.3836 0.4303 0.5104
H40 H 0.3305 0.5463 0.4821
H42 H 0.2925 0.5720 0.3597
H44 H 0.2926 0.4750 0.2714
H47 H 0.5013 0.2088 0.0729
H48 H 0.5345 0.2610 0.1326
H50 H 0.6431 0.2184 0.2096
H52 H 0.7433 0.1350 0.2250
H54 H 0.7484 0.0241 0.1562
H56 H 0.6523 -0.0031 0.0721
H58 H 0.5508 0.0788 0.0585
H60 H 0.3764 0.0960 0.3024
H63 H 0.3732 0.0182 0.4001
H64 H 0.4623 0.0573 0.4220
H66 H 0.4089 0.1554 0.4167
H68 H 0.3238 0.1231 0.4010
C55 C 0.2598(13) 0.2548(18) 0.5927(11)
C56 C 0.2858(10) 0.1945(12) 0.6481(25)
C57 C 0.2333(13) 0.1992(17) 0.7144(15)
C58 C 0.2149(22) 0.2766(25) 0.7301(21)
C59 C 0.2067(24) 0.3229(21) 0.6763(15)
C60 C 0.2407(15) 0.3312(12) 0.6146(17)
H69 H 0.2165 0.2363 0.5660
H70 H 0.2918 0.2569 0.5521
H71 H 0.3351 0.2065 0.6649
H72 H 0.2790 0.1459 0.6256
H73 H 0.2525 0.1738 0.7578
H74 H 0.1849 0.1770 0.7036
H75 H 0.2594 0.2950 0.7593
H76 H 0.1802 0.2776 0.7723
H77 H 0.1816 0.3671 0.6989
H78 H 0.1507 0.3100 0.6654
H79 H 0.2101 0.3583 0.5799
H80 H 0.2862 0.3565 0.6336
loop_
_geom_bond_atom_site_label_1
_geom_bond_atom_site_label_2
_geom_bond_site_symmetry_1
_geom_bond_site_symmetry_2
O1 C1 1_555 1_555
O2 C2 1_555 1_555
O3 C7 1_555 1_555
O4 C8 1_555 1_555
O5 C9 1_555 1_555
O6 C10 1_555 1_555
N1 C1 1_555 1_555
N2 C2 1_555 1_555
N3 C1 1_555 1_555
N4 C2 1_555 1_555
C3 N1 1_555 1_555
C4 N2 1_555 1_555
C5 N1 1_555 1_555
C6 N2 1_555 1_555
C7 C5 1_555 1_555
C8 C6 1_555 1_555
C9 C7 1_555 1_555
C10 C8 1_555 1_555
C11 N3 1_555 1_555
C12 N4 1_555 1_555
C13 N3 1_555 1_555
C14 N4 1_555 1_555
C15 C3 1_555 1_555
C16 C4 1_555 1_555
C17 C15 1_555 1_555
C18 C16 1_555 1_555
C19 C15 1_555 1_555
C20 C16 1_555 1_555
C21 C5 1_555 1_555
C22 C6 1_555 1_555
C23 C21 1_555 1_555
C24 C22 1_555 1_555
C25 C23 1_555 1_555
C26 C24 1_555 1_555
C27 C25 1_555 1_555
C28 C26 1_555 1_555
C29 C27 1_555 1_555
C30 C28 1_555 1_555
C31 C29 1_555 1_555
C32 C30 1_555 1_555
C33 C23 1_555 1_555
C34 C24 1_555 1_555
C35 C11 1_555 1_555
C36 C12 1_555 1_555
C37 C35 1_555 1_555
C38 C36 1_555 1_555
C39 C37 1_555 1_555
C40 C38 1_555 1_555
C41 C39 1_555 1_555
C42 C40 1_555 1_555
C43 C41 1_555 1_555
C44 C42 1_555 1_555
C45 C43 1_555 1_555
C46 C44 1_555 1_555
C47 C37 1_555 1_555
C48 C38 1_555 1_555
C49 C13 1_555 1_555
C50 C14 1_555 1_555
C51 C49 1_555 1_555
C52 C50 1_555 1_555
C53 C49 1_555 1_555
C54 C50 1_555 1_555
C55 C56 1_555 1_555
C56 C57 1_555 1_555
C57 C58 1_555 1_555
C58 C59 1_555 1_555
C59 C60 1_555 1_555
C60 C55 1_555 1_555
H1 O3 1_555 1_555
H2 O4 1_555 1_555
H3 O5 1_555 1_555
H4 O6 1_555 1_555
H5 C3 1_555 1_555
H6 C4 1_555 1_555
H7 C3 1_555 1_555
H8 C4 1_555 1_555
H9 C5 1_555 1_555
H10 C6 1_555 1_555
H11 C7 1_555 1_555
H12 C8 1_555 1_555
H13 C9 1_555 1_555
H14 C10 1_555 1_555
H15 C11 1_555 1_555
H16 C12 1_555 1_555
H17 C13 1_555 1_555
H18 C14 1_555 1_555
H19 C13 1_555 1_555
H20 C14 1_555 1_555
H21 C15 1_555 1_555
H22 C16 1_555 1_555
H23 C17 1_555 1_555
H24 C18 1_555 1_555
H25 C17 1_555 1_555
H26 C18 1_555 1_555
H27 C19 1_555 1_555
H28 C19 1_555 1_555
H29 C20 1_555 1_555
H30 C20 1_555 1_555
H31 C21 1_555 1_555
H32 C22 1_555 1_555
H33 C22 1_555 1_555
H34 C21 1_555 1_555
H35 C25 1_555 1_555
H36 C26 1_555 1_555
H37 C27 1_555 1_555
H38 C28 1_555 1_555
H39 C29 1_555 1_555
H40 C30 1_555 1_555
H41 C31 1_555 1_555
H42 C32 1_555 1_555
H43 C33 1_555 1_555
H44 C34 1_555 1_555
H45 C35 1_555 1_555
H46 C35 1_555 1_555
H47 C36 1_555 1_555
H48 C36 1_555 1_555
H49 C39 1_555 1_555
H50 C40 1_555 1_555
H51 C41 1_555 1_555
H52 C42 1_555 1_555
H53 C43 1_555 1_555
H54 C44 1_555 1_555
H55 C45 1_555 1_555
H56 C46 1_555 1_555
H57 C47 1_555 1_555
H58 C48 1_555 1_555
H59 C49 1_555 1_555
H60 C50 1_555 1_555
H61 C51 1_555 1_555
H62 C51 1_555 1_555
H63 C52 1_555 1_555
H64 C52 1_555 1_555
H65 C53 1_555 1_555
H66 C54 1_555 1_555
H67 C53 1_555 1_555
H68 C54 1_555 1_555
H69 C55 1_555 1_555
H70 C55 1_555 1_555
H71 C56 1_555 1_555
H72 C56 1_555 1_555
H73 C57 1_555 1_555
H74 C57 1_555 1_555
H75 C58 1_555 1_555
H76 C58 1_555 1_555
H77 C59 1_555 1_555
H78 C59 1_555 1_555
H79 C60 1_555 1_555
H80 C60 1_555 1_555
C9 C11 1_555 1_555
C10 C12 1_555 1_555
C17 C19 1_555 1_555
C18 C20 1_555 1_555
C31 C33 1_555 1_555
C32 C34 1_555 1_555
C45 C47 1_555 1_555
C46 C48 1_555 1_555
C51 C53 1_555 1_555
C52 C54 1_555 1_555

#END
