
#######################################################################
#
#                 Cambridge Crystallographic Data Centre
#                                CCDC 
#
#######################################################################
#
# If this CIF has been generated from an entry in the Cambridge 
# Structural Database, then it will include bibliographic, chemical, 
# crystal, experimental, refinement or atomic coordinate data resulting 
# from the CCDC's data processing and validation procedures.
#
#######################################################################

data_SEYRET
_chemical_formula_moiety         'C27 H34 N2 O3,0.5(C7 H8)'
_chemical_name_systematic        
'4,7-Dibenzyl-1,3-bis(cyclopropylmethyl)-5,6-dihydroxy-1,3,4,5,6,7-hexahydro-2H-1,3-diazepin-2-one toluene solvate'
_chemical_properties_biological  
'derivative of a compound having potential protease inhibitory activity'
_symmetry_cell_setting           tetragonal
_symmetry_space_group_name_H-M   'I 41'
_symmetry_Int_Tables_number      80
_space_group_name_Hall           'I 4bw'
loop_
_symmetry_equiv_pos_site_id
_symmetry_equiv_pos_as_xyz
1 x,y,z
2 -y,1/2+x,1/4+z
3 1/2-x,1/2-y,1/2+z
4 1/2+y,-x,3/4+z
5 1/2+x,1/2+y,1/2+z
6 1/2-y,x,3/4+z
7 -x,-y,z
8 y,1/2-x,1/4+z
_cell_length_a                   17.923(4)
_cell_length_b                   17.923(4)
_cell_length_c                   17.148(6)
_cell_angle_alpha                90
_cell_angle_beta                 90
_cell_angle_gamma                90
_cell_volume                     5508.52
_exptl_crystal_colour            colorless
_exptl_crystal_description       cube
_cell_formula_units_Z            8
_exptl_crystal_recrystallization_method dichloromethane/toluene
loop_
_atom_site_label
_atom_site_type_symbol
_atom_site_fract_x
_atom_site_fract_y
_atom_site_fract_z
C28 C 0.5000 0.5000 0.6432(27)
C29 C 0.5826(24) 0.5427(24) 0.6821(28)
C30 C 0.5000 0.5000 0.7961(59)
C31 C 0.5684(35) 0.5083(33) 0.7629(42)
C31F C 0.4316(35) 0.4917(33) 0.7629(42)
C29F C 0.4174(24) 0.4573(24) 0.6821(28)
O1 O 0.0367(7) 0.7153(6) 0.9100
O2 O 0.0719(5) 0.9446(5) 0.6778(7)
O3 O -0.0631(6) 0.9218(6) 0.7546(10)
N1 N 0.0884(8) 0.7820(6) 0.8128(9)
N2 N -0.0385(9) 0.7746(7) 0.8247(10)
C1 C 0.0256(14) 0.7583(10) 0.8546(10)
C2 C 0.1643(13) 0.7479(8) 0.8247(13)
C3 C 0.0929(8) 0.8618(9) 0.7881(11)
C4 C 0.0514(8) 0.8744(8) 0.7106(11)
C5 C -0.0310(9) 0.8661(10) 0.7118(10)
C6 C -0.0564(8) 0.7897(9) 0.7433(15)
C7 C -0.1037(13) 0.7555(11) 0.8783(13)
C8 C 0.2012(11) 0.7163(20) 0.7653(15)
C9 C 0.2490(8) 0.6557(9) 0.7568(12)
C10 C 0.1844(10) 0.6674(9) 0.7066(12)
C11 C 0.0753(9) 0.9164(7) 0.8537(12)
C12 C 0.1400(15) 0.9261(12) 0.9115(14)
C13 C 0.2070(17) 0.9649(12) 0.8898(15)
C14 C 0.2615(13) 0.9687(13) 0.9457(23)
C15 C 0.2501(23) 0.9402(16) 1.0272(24)
C16 C 0.1924(24) 0.8969(21) 1.0379(19)
C17 C 0.1343(12) 0.8999(11) 0.9847(17)
C18 C -0.0372(7) 0.7264(9) 0.6886(11)
C19 C -0.0835(11) 0.6617(10) 0.6929(11)
C20 C -0.1508(14) 0.6585(9) 0.6576(12)
C21 C -0.1994(10) 0.5973(16) 0.6635(16)
C22 C -0.1766(20) 0.5369(11) 0.7110(19)
C23 C -0.1130(16) 0.5398(13) 0.7486(14)
C24 C -0.0704(10) 0.6003(13) 0.7392(12)
C25 C -0.1394(10) 0.8246(13) 0.9096(15)
C26 C -0.1145(15) 0.8558(15) 0.9821(14)
C27 C -0.1844(13) 0.8180(14) 0.9854(15)
H1 H 0.1504 0.7058 0.8593
H2 H 0.1893 0.7809 0.8627
H3 H 0.1451 0.8692 0.7750
H4 H 0.0724 0.8383 0.6750
H5 H 0.0468 0.9509 0.6301
H6 H -0.1149 0.9137 0.7528
H7 H -0.0465 0.8676 0.6591
H8 H -0.1091 0.7906 0.7416
H9 H -0.0921 0.7250 0.9196
H10 H -0.1397 0.7309 0.8469
H11 H 0.2250 0.7626 0.7413
H12 H 0.2349 0.6220 0.7981
H13 H 0.2939 0.6641 0.7284
H14 H 0.2022 0.6807 0.6569
H15 H 0.1431 0.6384 0.7258
H16 H 0.0305 0.9024 0.8798
H17 H 0.0667 0.9650 0.8308
H18 H 0.2084 0.9837 0.8403
H19 H 0.3044 0.9882 0.9355
H20 H 0.0851 0.8787 0.9980
H21 H 0.0150 0.7106 0.6990
H22 H -0.0320 0.7433 0.6375
H23 H -0.1672 0.6981 0.6237
H24 H -0.2470 0.6037 0.6405
H25 H -0.2189 0.4989 0.7081
H26 H -0.1029 0.4971 0.7778
H27 H -0.0222 0.6004 0.7644
H28 H -0.1604 0.8607 0.8717
H29 H -0.0807 0.8809 1.0153
H30 H -0.2319 0.7946 0.9996
loop_
_geom_bond_atom_site_label_1
_geom_bond_atom_site_label_2
_geom_bond_site_symmetry_1
_geom_bond_site_symmetry_2
O1 C1 1_555 1_555
O2 C4 1_555 1_555
O3 C5 1_555 1_555
N1 C1 1_555 1_555
N2 C1 1_555 1_555
C2 N1 1_555 1_555
C3 N1 1_555 1_555
C4 C3 1_555 1_555
C5 C4 1_555 1_555
C6 N2 1_555 1_555
C7 N2 1_555 1_555
C8 C2 1_555 1_555
C9 C8 1_555 1_555
C10 C8 1_555 1_555
C11 C3 1_555 1_555
C12 C11 1_555 1_555
C13 C12 1_555 1_555
C14 C13 1_555 1_555
C15 C14 1_555 1_555
C16 C15 1_555 1_555
C17 C12 1_555 1_555
C18 C6 1_555 1_555
C19 C18 1_555 1_555
C20 C19 1_555 1_555
C21 C20 1_555 1_555
C22 C21 1_555 1_555
C23 C22 1_555 1_555
C24 C19 1_555 1_555
C25 C7 1_555 1_555
C26 C25 1_555 1_555
C27 C25 1_555 1_555
C28 C29 1_555 1_555
C29 C31 1_555 1_555
C30 C31 1_555 1_555
H1 C2 1_555 1_555
H2 C2 1_555 1_555
H3 C3 1_555 1_555
H4 C4 1_555 1_555
H5 O2 1_555 1_555
H6 O3 1_555 1_555
H7 C5 1_555 1_555
H8 C6 1_555 1_555
H9 C7 1_555 1_555
H10 C7 1_555 1_555
H11 C8 1_555 1_555
H12 C9 1_555 1_555
H13 C9 1_555 1_555
H14 C10 1_555 1_555
H15 C10 1_555 1_555
H16 C11 1_555 1_555
H17 C11 1_555 1_555
H18 C13 1_555 1_555
H19 C14 1_555 1_555
H20 C17 1_555 1_555
H21 C18 1_555 1_555
H22 C18 1_555 1_555
H23 C20 1_555 1_555
H24 C21 1_555 1_555
H25 C22 1_555 1_555
H26 C23 1_555 1_555
H27 C24 1_555 1_555
H28 C25 1_555 1_555
H29 C26 1_555 1_555
H30 C27 1_555 1_555
C31F C30 1_555 1_555
C29F C28 1_555 1_555
C5 C6 1_555 1_555
C9 C10 1_555 1_555
C16 C17 1_555 1_555
C23 C24 1_555 1_555
C26 C27 1_555 1_555
C31F C29F 1_555 1_555

#END
