
#######################################################################
#
#                 Cambridge Crystallographic Data Centre
#                                CCDC 
#
#######################################################################
#
# If this CIF has been generated from an entry in the Cambridge 
# Structural Database, then it will include bibliographic, chemical, 
# crystal, experimental, refinement or atomic coordinate data resulting 
# from the CCDC's data processing and validation procedures.
#
#######################################################################

data_SEYZOL
_chemical_compound_source        'Aconitum polyschistum'
_chemical_formula_moiety         'C32 H46 N1 O9 1+,Br1 1-'
_chemical_name_systematic        'Benzoyldeoxyaconine hydrobromide'
_symmetry_cell_setting           orthorhombic
_symmetry_space_group_name_H-M   'P 21 21 21'
_symmetry_Int_Tables_number      19
_space_group_name_Hall           'P 2ac 2ab'
loop_
_symmetry_equiv_pos_site_id
_symmetry_equiv_pos_as_xyz
1 x,y,z
2 1/2+x,1/2-y,-z
3 -x,1/2+y,1/2-z
4 1/2-x,-y,1/2+z
_cell_length_a                   16.130(8)
_cell_length_b                   22.165(13)
_cell_length_c                   10.183(4)
_cell_angle_alpha                90
_cell_angle_beta                 90
_cell_angle_gamma                90
_cell_volume                     3640.64
_exptl_crystal_colour            colorless
_cell_formula_units_Z            4
loop_
_atom_site_label
_atom_site_type_symbol
_atom_site_fract_x
_atom_site_fract_y
_atom_site_fract_z
Br1 Br 0.3476(1) 0.2348(1) 0.6822(2)
O1 O 0.0102(8) 0.3733(6) 0.2248(12)
O2 O 0.1251(7) 0.3811(6) 0.7404(12)
O3 O 0.3243(6) 0.3740(5) 0.5784(12)
O4 O 0.3297(7) 0.4195(6) 0.0684(11)
O5 O 0.4089(6) 0.4238(5) 0.3269(12)
O6 O 0.4304(8) 0.4981(5) 0.4757(13)
O7 O 0.2719(7) 0.2628(5) 0.3844(11)
O8 O 0.3727(7) 0.3177(5) 0.1564(13)
O9 O -0.1234(8) 0.3955(7) 0.7188(13)
N1 N 0.0452(8) 0.3115(6) 0.4429(13)
C1 C 0.0331(10) 0.4300(7) 0.2874(17)
C2 C -0.0389(9) 0.4617(8) 0.3534(18)
C3 C -0.0767(10) 0.4223(9) 0.4670(22)
C4 C -0.0085(10) 0.4026(9) 0.5645(18)
C5 C 0.0775(10) 0.4312(8) 0.5334(19)
C6 C 0.1492(12) 0.4026(8) 0.6120(18)
C7 C 0.1822(8) 0.3495(7) 0.5230(17)
C8 C 0.2678(11) 0.3683(8) 0.4679(19)
C9 C 0.2667(9) 0.4331(8) 0.4155(19)
C10 C 0.1826(8) 0.4459(7) 0.3390(16)
C11 C 0.1016(10) 0.4145(7) 0.3912(15)
C12 C 0.2007(10) 0.4268(7) 0.1937(19)
C13 C 0.2916(10) 0.4052(8) 0.1901(19)
C14 C 0.3275(10) 0.4433(8) 0.2979(19)
C15 C 0.3067(10) 0.3247(8) 0.3678(17)
C16 C 0.2991(11) 0.3357(8) 0.2228(17)
C17 C 0.1233(10) 0.3485(8) 0.4066(20)
C18 C -0.0422(11) 0.4219(9) 0.6990(20)
C19 C 0.0003(12) 0.3331(9) 0.5674(19)
C20 C -0.0390(14) 0.3795(10) 0.1118(20)
C21 C 0.1916(13) 0.3722(10) 0.8305(20)
C22 C 0.4551(9) 0.4547(7) 0.4103(17)
C23 C 0.3713(6) 0.2601(12) 0.1082(28)
C24 C -0.1613(14) 0.4152(11) 0.8275(21)
C25 C 0.0575(13) 0.2442(8) 0.4536(21)
C26 C 0.0747(13) 0.2178(8) 0.3159(28)
C27 C 0.5411(10) 0.4306(8) 0.4201(20)
C28 C 0.5898(12) 0.4473(10) 0.5311(22)
C29 C 0.6674(13) 0.4276(10) 0.5403(30)
C30 C 0.7000(12) 0.3886(9) 0.4468(32)
C31 C 0.6538(14) 0.3679(9) 0.3454(28)
C32 C 0.5700(12) 0.3904(9) 0.3310(26)
loop_
_geom_bond_atom_site_label_1
_geom_bond_atom_site_label_2
_geom_bond_site_symmetry_1
_geom_bond_site_symmetry_2
O1 C1 1_555 1_555
O2 C6 1_555 1_555
O3 C8 1_555 1_555
O4 C13 1_555 1_555
O5 C14 1_555 1_555
O6 C22 1_555 1_555
O7 C15 1_555 1_555
O8 C16 1_555 1_555
O9 C18 1_555 1_555
N1 C17 1_555 1_555
C1 C2 1_555 1_555
C2 C3 1_555 1_555
C3 C4 1_555 1_555
C4 C5 1_555 1_555
C5 C6 1_555 1_555
C6 C7 1_555 1_555
C7 C8 1_555 1_555
C8 C9 1_555 1_555
C9 C10 1_555 1_555
C10 C11 1_555 1_555
C11 C1 1_555 1_555
C12 C10 1_555 1_555
C13 C12 1_555 1_555
C14 C9 1_555 1_555
C15 C8 1_555 1_555
C16 C13 1_555 1_555
C17 C7 1_555 1_555
C18 C4 1_555 1_555
C19 N1 1_555 1_555
C20 O1 1_555 1_555
C21 O2 1_555 1_555
C22 O5 1_555 1_555
C23 O8 1_555 1_555
C24 O9 1_555 1_555
C25 N1 1_555 1_555
C26 C25 1_555 1_555
C27 C22 1_555 1_555
C28 C27 1_555 1_555
C29 C28 1_555 1_555
C30 C29 1_555 1_555
C31 C30 1_555 1_555
C32 C27 1_555 1_555
C4 C19 1_555 1_555
C5 C11 1_555 1_555
C11 C17 1_555 1_555
C13 C14 1_555 1_555
C15 C16 1_555 1_555
C31 C32 1_555 1_555

#END
