
#######################################################################
#
#                 Cambridge Crystallographic Data Centre
#                                CCDC 
#
#######################################################################
#
# If this CIF has been generated from an entry in the Cambridge 
# Structural Database, then it will include bibliographic, chemical, 
# crystal, experimental, refinement or atomic coordinate data resulting 
# from the CCDC's data processing and validation procedures.
#
#######################################################################

data_SEZJEP
_chemical_formula_moiety         'C16 H13 N1 O3,0.5(C1 H2 Cl2)'
_chemical_name_systematic        
'N-(3-oxo-2-phenyl-2,3-dihydro-1-benzofuran-2-yl)acetamide dichloromethane solvate'
_symmetry_cell_setting           monoclinic
_symmetry_space_group_name_H-M   'P 21'
_symmetry_Int_Tables_number      4
_space_group_name_Hall           'P 2yb'
loop_
_symmetry_equiv_pos_site_id
_symmetry_equiv_pos_as_xyz
1 x,y,z
2 -x,1/2+y,-z
_cell_length_a                   11.023(4)
_cell_length_b                   9.469(3)
_cell_length_c                   15.305(6)
_cell_angle_alpha                90
_cell_angle_beta                 104.611(6)
_cell_angle_gamma                90
_cell_volume                     1545.83
_exptl_crystal_colour            colorless
_exptl_crystal_description       needle
_cell_formula_units_Z            4
loop_
_atom_site_label
_atom_site_type_symbol
_atom_site_fract_x
_atom_site_fract_y
_atom_site_fract_z
C1 C 0.8072(4) 0.4969(5) 0.1545(3)
O1 O 0.7307(3) 0.5068(4) -0.0088(2)
N1 N 0.9344(3) 0.7254(4) 0.0181(3)
H1 H 0.931674 0.808547 -0.007978
O2 O 0.9333(3) 0.6946(3) 0.1704(2)
C2 C 0.7570(4) 0.3802(5) 0.1882(4)
H2 H 0.700058 0.318773 0.148993
O3 O 1.0143(3) 0.5056(3) 0.0340(2)
C3 C 0.7923(5) 0.3561(6) 0.2799(4)
H3 H 0.757411 0.278586 0.304633
C4 C 0.8788(6) 0.4447(6) 0.3369(4)
H4 H 0.903040 0.425154 0.399830
C5 C 0.9300(5) 0.5600(6) 0.3038(4)
H5 H 0.988705 0.620418 0.342466
C6 C 0.8921(4) 0.5831(5) 0.2125(3)
C7 C 0.8566(4) 0.6981(5) 0.0773(3)
C8 C 0.7895(4) 0.5521(5) 0.0634(3)
C9 C 0.7572(4) 0.8127(5) 0.0686(3)
C10 C 0.7389(5) 0.8841(5) 0.1435(4)
H6 H 0.790617 0.864199 0.201898
C11 C 0.6450(6) 0.9842(6) 0.1327(5)
H7 H 0.632487 1.033612 0.183730
C12 C 0.5693(5) 1.0126(6) 0.0480(6)
H8 H 0.505415 1.082120 0.040913
C13 C 0.5858(6) 0.9413(6) -0.0261(5)
H9 H 0.533134 0.961179 -0.084189
C14 C 0.6787(4) 0.8409(5) -0.0163(4)
H10 H 0.689256 0.790655 -0.067662
C15 C 1.0130(4) 0.6243(5) 0.0013(3)
C16 C 1.0963(5) 0.6690(5) -0.0570(4)
H11 H 1.158029 0.737299 -0.024242
H12 H 1.045677 0.712756 -0.112273
H13 H 1.139845 0.586267 -0.072737
C17 C 0.2987(4) 0.1631(5) 0.2806(3)
O4 O 0.5135(3) 0.2074(4) 0.2760(2)
N2 N 0.4957(4) 0.3898(4) 0.4340(3)
H14 H 0.530817 0.473337 0.446385
C18 C 0.2536(5) 0.0418(5) 0.2313(4)
H15 H 0.301370 -0.005024 0.196273
O5 O 0.2808(3) 0.3512(3) 0.3730(2)
C19 C 0.1371(5) -0.0081(6) 0.2350(4)
H16 H 0.103938 -0.090182 0.201811
O6 O 0.4947(3) 0.1621(3) 0.4755(2)
C20 C 0.0682(5) 0.0600(7) 0.2866(4)
H17 H -0.010839 0.022290 0.288780
C21 C 0.1106(5) 0.1803(6) 0.3346(4)
H18 H 0.062822 0.226277 0.369886
C22 C 0.2270(4) 0.2321(5) 0.3293(3)
C23 C 0.4013(4) 0.3713(5) 0.3512(3)
C24 C 0.4190(4) 0.2362(5) 0.2982(3)
C25 C 0.3957(4) 0.4971(5) 0.2900(3)
C26 C 0.2826(5) 0.5502(5) 0.2388(3)
H19 H 0.205567 0.510000 0.243566
C27 C 0.2830(6) 0.6620(6) 0.1807(3)
H20 H 0.205387 0.698928 0.146472
C28 C 0.3921(6) 0.7207(6) 0.1714(4)
H21 H 0.390508 0.796315 0.130350
C29 C 0.5045(6) 0.6689(6) 0.2223(4)
H22 H 0.580825 0.710108 0.216760
C30 C 0.5078(5) 0.5572(5) 0.2818(3)
H23 H 0.585855 0.522084 0.316549
C31 C 0.5325(5) 0.2836(5) 0.4935(3)
C32 C 0.6212(6) 0.3249(6) 0.5815(4)
H24 H 0.584116 0.300851 0.631429
H25 H 0.636814 0.426829 0.581753
H26 H 0.700540 0.273996 0.588750
Cl1 Cl 0.1440(2) 0.6107(3) 0.53103(14)
Cl2 Cl 0.2091(3) 0.3286(3) 0.59718(16)
C33 C 0.2650(6) 0.4900(8) 0.5679(5)
H27 H 0.326611 0.529222 0.621019
H28 H 0.308557 0.474530 0.519519
loop_
_geom_bond_atom_site_label_1
_geom_bond_atom_site_label_2
_geom_bond_site_symmetry_1
_geom_bond_site_symmetry_2
C1 C2 1_555 1_555
O1 C8 1_555 1_555
N1 H1 1_555 1_555
O2 C6 1_555 1_555
C2 H2 1_555 1_555
O3 C15 1_555 1_555
C3 C2 1_555 1_555
H3 C3 1_555 1_555
C4 C3 1_555 1_555
H4 C4 1_555 1_555
C5 C4 1_555 1_555
H5 C5 1_555 1_555
C6 C1 1_555 1_555
C7 N1 1_555 1_555
C8 C1 1_555 1_555
C9 C7 1_555 1_555
C10 C9 1_555 1_555
H6 C10 1_555 1_555
C11 C10 1_555 1_555
H7 C11 1_555 1_555
C12 C11 1_555 1_555
H8 C12 1_555 1_555
C13 C12 1_555 1_555
H9 C13 1_555 1_555
C14 C9 1_555 1_555
H10 C14 1_555 1_555
C15 N1 1_555 1_555
C16 C15 1_555 1_555
H11 C16 1_555 1_555
H12 C16 1_555 1_555
H13 C16 1_555 1_555
C17 C18 1_555 1_555
O4 C24 1_555 1_555
N2 H14 1_555 1_555
C18 H15 1_555 1_555
O5 C22 1_555 1_555
C19 C18 1_555 1_555
H16 C19 1_555 1_555
O6 C31 1_555 1_555
C20 C19 1_555 1_555
H17 C20 1_555 1_555
C21 C20 1_555 1_555
H18 C21 1_555 1_555
C22 C17 1_555 1_555
C23 N2 1_555 1_555
C24 C17 1_555 1_555
C25 C23 1_555 1_555
C26 C25 1_555 1_555
H19 C26 1_555 1_555
C27 C26 1_555 1_555
H20 C27 1_555 1_555
C28 C27 1_555 1_555
H21 C28 1_555 1_555
C29 C28 1_555 1_555
H22 C29 1_555 1_555
C30 C25 1_555 1_555
H23 C30 1_555 1_555
C31 N2 1_555 1_555
C32 C31 1_555 1_555
H24 C32 1_555 1_555
H25 C32 1_555 1_555
H26 C32 1_555 1_555
Cl1 C33 1_555 1_555
Cl2 C33 1_555 1_555
C33 H27 1_555 1_555
H28 C33 1_555 1_555
O2 C7 1_555 1_555
C5 C6 1_555 1_555
C7 C8 1_555 1_555
C13 C14 1_555 1_555
O5 C23 1_555 1_555
C21 C22 1_555 1_555
C23 C24 1_555 1_555
C29 C30 1_555 1_555

#END
