
#######################################################################
#
#                 Cambridge Crystallographic Data Centre
#                                CCDC 
#
#######################################################################
#
# If this CIF has been generated from an entry in the Cambridge 
# Structural Database, then it will include bibliographic, chemical, 
# crystal, experimental, refinement or atomic coordinate data resulting 
# from the CCDC's data processing and validation procedures.
#
#######################################################################

data_SEZMER
_chemical_formula_moiety         'C10 H15 N1 O3'
_chemical_name_systematic        
4-Methoxy-7-methyl-6-oxa-1-azaspiro[4.5]dec-3-en-2-one
_symmetry_cell_setting           monoclinic
_symmetry_space_group_name_H-M   'P 21/n'
_symmetry_Int_Tables_number      14
_space_group_name_Hall           '-P 2yn'
loop_
_symmetry_equiv_pos_site_id
_symmetry_equiv_pos_as_xyz
1 x,y,z
2 1/2-x,1/2+y,1/2-z
3 -x,-y,-z
4 1/2+x,1/2-y,1/2+z
_cell_length_a                   7.6770(15)
_cell_length_b                   14.890(3)
_cell_length_c                   8.9195(18)
_cell_angle_alpha                90
_cell_angle_beta                 105.14(3)
_cell_angle_gamma                90
_cell_volume                     984.203
_exptl_crystal_colour            colorless
_exptl_crystal_description       block
_cell_formula_units_Z            4
loop_
_atom_site_label
_atom_site_type_symbol
_atom_site_fract_x
_atom_site_fract_y
_atom_site_fract_z
O1 O 0.97912(17) 0.88512(9) 0.24770(14)
O2 O 0.87642(19) 0.86315(9) 0.52558(15)
O3 O 0.51030(19) 1.06973(9) 0.17663(16)
N1 N 0.6853(2) 0.94848(10) 0.14829(18)
H1 H 0.6662 0.9505 0.0467
C1 C 1.2175(3) 0.87174(16) 0.1280(3)
H2 H 1.2830 0.8335 0.2137
H3 H 1.2484 0.9348 0.1533
H4 H 1.2511 0.8554 0.0329
C2 C 1.0170(3) 0.85870(13) 0.1037(2)
H5 H 0.9509 0.8996 0.0189
C3 C 0.9542(3) 0.76284(13) 0.0635(2)
H6 H 1.0247 0.7215 0.1436
H7 H 0.9759 0.7461 -0.0375
C4 C 0.7546(3) 0.75327(13) 0.0543(2)
H8 H 0.7177 0.6897 0.0358
H9 H 0.6825 0.7895 -0.0331
C5 C 0.7206(3) 0.78534(13) 0.2064(2)
H10 H 0.7796 0.7438 0.2910
H11 H 0.5893 0.7846 0.1974
C6 C 0.7934(2) 0.87999(12) 0.2465(2)
C7 C 0.7855(2) 0.91223(12) 0.4061(2)
C8 C 0.8778(3) 0.89846(14) 0.6761(2)
H12 H 0.9525 0.8600 0.7569
H13 H 0.7543 0.8999 0.6875
H14 H 0.9275 0.9594 0.6863
C9 C 0.6884(3) 0.98750(13) 0.3977(2)
H15 H 0.6691 1.0208 0.4828
C10 C 0.6172(3) 1.00913(12) 0.2325(2)
loop_
_geom_bond_atom_site_label_1
_geom_bond_atom_site_label_2
_geom_bond_site_symmetry_1
_geom_bond_site_symmetry_2
O1 C2 1_555 1_555
O2 C7 1_555 1_555
O3 C10 1_555 1_555
N1 H1 1_555 1_555
C1 H2 1_555 1_555
H3 C1 1_555 1_555
H4 C1 1_555 1_555
C2 C1 1_555 1_555
H5 C2 1_555 1_555
C3 C2 1_555 1_555
H6 C3 1_555 1_555
H7 C3 1_555 1_555
C4 C3 1_555 1_555
H8 C4 1_555 1_555
H9 C4 1_555 1_555
C5 C4 1_555 1_555
H10 C5 1_555 1_555
H11 C5 1_555 1_555
C6 O1 1_555 1_555
C7 C6 1_555 1_555
C8 O2 1_555 1_555
H12 C8 1_555 1_555
H13 C8 1_555 1_555
H14 C8 1_555 1_555
C9 C7 1_555 1_555
H15 C9 1_555 1_555
C10 N1 1_555 1_555
N1 C6 1_555 1_555
C5 C6 1_555 1_555
C9 C10 1_555 1_555

#END
