
#######################################################################
#
#                 Cambridge Crystallographic Data Centre
#                                CCDC 
#
#######################################################################
#
# If this CIF has been generated from an entry in the Cambridge 
# Structural Database, then it will include bibliographic, chemical, 
# crystal, experimental, refinement or atomic coordinate data resulting 
# from the CCDC's data processing and validation procedures.
#
#######################################################################

data_SEZPIZ
_chemical_formula_moiety         'C22 H17 F3 N2 O2'
_chemical_name_systematic        
1-[3-(trifluoromethyl)phenyl]-6,7-dihydro-1H-azonino[2,3-b]quinoline-2,4(3H,5H)-dione
_symmetry_cell_setting           monoclinic
_symmetry_space_group_name_H-M   'P 21/n'
_symmetry_Int_Tables_number      14
_space_group_name_Hall           '-P 2yn'
loop_
_symmetry_equiv_pos_site_id
_symmetry_equiv_pos_as_xyz
1 x,y,z
2 1/2-x,1/2+y,1/2-z
3 -x,-y,-z
4 1/2+x,1/2-y,1/2+z
_cell_length_a                   8.7952(5)
_cell_length_b                   19.4099(10)
_cell_length_c                   11.3296(5)
_cell_angle_alpha                90
_cell_angle_beta                 108.4320(10)
_cell_angle_gamma                90
_cell_volume                     1834.9
_exptl_crystal_colour            colorless
_exptl_crystal_description       block
_cell_formula_units_Z            4
loop_
_atom_site_label
_atom_site_type_symbol
_atom_site_fract_x
_atom_site_fract_y
_atom_site_fract_z
F1 F 0.93782(12) 0.42640(6) 0.99066(9)
F2 F 1.11705(13) 0.43616(6) 0.90150(11)
F3 F 1.09546(16) 0.34225(6) 0.99318(11)
O1 O 0.49585(12) 0.49000(5) 0.67371(10)
O2 O -0.01649(12) 0.41373(5) 0.47071(9)
N1 N 0.46530(13) 0.37731(6) 0.61604(10)
N2 N 0.34235(13) 0.27839(6) 0.65717(10)
C1 C 0.02342(18) 0.11429(8) 0.55538(15)
H1 H -0.0509 0.0773 0.5344
C2 C 0.03531(17) 0.15818(7) 0.46434(14)
H2 H -0.0301 0.1514 0.3806
C3 C 0.14578(16) 0.21400(7) 0.49506(13)
C4 C 0.16945(16) 0.25987(7) 0.40613(13)
H3 H 0.1098 0.2538 0.3208
C5 C 0.27741(16) 0.31327(7) 0.44063(12)
C6 C 0.35637(16) 0.32036(7) 0.57009(12)
C7 C 0.63298(16) 0.36110(7) 0.65347(13)
C8 C 0.68770(17) 0.31428(7) 0.58368(13)
H4 H 0.6163 0.2968 0.5081
C9 C 0.84665(18) 0.29283(8) 0.62397(14)
H5 H 0.8834 0.2607 0.5758
C10 C 0.95154(17) 0.31794(8) 0.73372(14)
H6 H 1.0600 0.3031 0.7617
C11 C 1.00990(18) 0.39228(8) 0.92157(15)
C12 C 0.89605(17) 0.36523(7) 0.80256(13)
C13 C 0.73842(16) 0.38741(7) 0.76378(13)
H7 H 0.7025 0.4201 0.8115
C14 C 0.12006(18) 0.12323(8) 0.68014(15)
H8 H 0.1117 0.0916 0.7418
C15 C 0.22586(18) 0.17705(8) 0.71335(14)
H9 H 0.2895 0.1829 0.7978
C16 C 0.24022(16) 0.22393(7) 0.62152(13)
C17 C 0.30858(17) 0.36035(7) 0.34427(13)
H10 H 0.3201 0.3319 0.2751
H11 H 0.4115 0.3846 0.3824
C18 C 0.17674(18) 0.41418(8) 0.29085(13)
H12 H 0.1965 0.4373 0.2192
H13 H 0.0720 0.3904 0.2598
C19 C 0.16834(18) 0.46875(7) 0.38633(13)
H14 H 0.2753 0.4901 0.4223
H15 H 0.0923 0.5053 0.3439
C20 C 0.11535(16) 0.43851(7) 0.48982(13)
C21 C 0.23011(16) 0.44385(7) 0.62263(13)
H16 H 0.2089 0.4880 0.6583
H17 H 0.2041 0.4063 0.6723
C22 C 0.40827(16) 0.44020(7) 0.63919(12)
loop_
_geom_bond_atom_site_label_1
_geom_bond_atom_site_label_2
_geom_bond_site_symmetry_1
_geom_bond_site_symmetry_2
F1 C11 1_555 1_555
F2 C11 1_555 1_555
F3 C11 1_555 1_555
O1 C22 1_555 1_555
O2 C20 1_555 1_555
N1 C6 1_555 1_555
N2 C6 1_555 1_555
C1 H1 1_555 1_555
C2 C1 1_555 1_555
H2 C2 1_555 1_555
C3 C2 1_555 1_555
C4 C3 1_555 1_555
H3 C4 1_555 1_555
C5 C4 1_555 1_555
C6 C5 1_555 1_555
C7 N1 1_555 1_555
C8 C7 1_555 1_555
H4 C8 1_555 1_555
C9 C8 1_555 1_555
H5 C9 1_555 1_555
C10 C9 1_555 1_555
H6 C10 1_555 1_555
C11 C12 1_555 1_555
C12 C10 1_555 1_555
C13 C7 1_555 1_555
H7 C13 1_555 1_555
C14 C1 1_555 1_555
H8 C14 1_555 1_555
C15 C14 1_555 1_555
H9 C15 1_555 1_555
C16 N2 1_555 1_555
C17 C5 1_555 1_555
H10 C17 1_555 1_555
H11 C17 1_555 1_555
C18 C17 1_555 1_555
H12 C18 1_555 1_555
H13 C18 1_555 1_555
C19 C18 1_555 1_555
H14 C19 1_555 1_555
H15 C19 1_555 1_555
C20 C19 1_555 1_555
C21 C20 1_555 1_555
H16 C21 1_555 1_555
H17 C21 1_555 1_555
C22 N1 1_555 1_555
C3 C16 1_555 1_555
C12 C13 1_555 1_555
C15 C16 1_555 1_555
C21 C22 1_555 1_555

#END
