
#######################################################################
#
#                 Cambridge Crystallographic Data Centre
#                                CCDC 
#
#######################################################################
#
# If this CIF has been generated from an entry in the Cambridge 
# Structural Database, then it will include bibliographic, chemical, 
# crystal, experimental, refinement or atomic coordinate data resulting 
# from the CCDC's data processing and validation procedures.
#
#######################################################################

data_SEZYAY
_chemical_formula_moiety         'C9 H3 Cl4 N1 O2'
_chemical_name_systematic        
6,6,7,7-Tetrachloro-5,6,7,8-tetrahydroquinoline-5,8-dione
_symmetry_cell_setting           orthorhombic
_symmetry_space_group_name_H-M   'P 21 21 21'
_symmetry_Int_Tables_number      19
_space_group_name_Hall           'P 2ac 2ab'
loop_
_symmetry_equiv_pos_site_id
_symmetry_equiv_pos_as_xyz
1 x,y,z
2 1/2-x,-y,1/2+z
3 1/2+x,1/2-y,-z
4 -x,1/2+y,1/2-z
_cell_length_a                   7.6115(4)
_cell_length_b                   10.3015(6)
_cell_length_c                   14.1723(8)
_cell_angle_alpha                90
_cell_angle_beta                 90
_cell_angle_gamma                90
_cell_volume                     1111.25
_exptl_crystal_colour            yellow
_exptl_crystal_description       'Irregular block'
_cell_formula_units_Z            4
_exptl_crystal_recrystallization_method methanol
loop_
_atom_site_label
_atom_site_type_symbol
_atom_site_fract_x
_atom_site_fract_y
_atom_site_fract_z
Cl1 Cl 0.6837(2) 1.07380(10) 0.29450(10)
Cl2 Cl 0.5294(2) 0.8383(2) 0.37392(8)
Cl3 Cl 0.8557(2) 0.96580(10) 0.48699(7)
Cl4 Cl 0.9238(2) 0.72090(10) 0.38760(7)
O1 O 0.6123(3) 0.7922(4) 0.1804(2)
O2 O 1.1445(4) 1.0148(4) 0.3620(2)
N1 N 0.9195(4) 0.8203(3) 0.0822(2)
C1 C 1.0745(6) 0.8354(4) 0.0395(3)
H1 H 1.0838 0.8092 -0.0232
C2 C 1.2200(5) 0.8864(4) 0.0814(3)
H2 H 1.3244 0.8948 0.0479
C3 C 1.2102(5) 0.9254(4) 0.1741(3)
H3 H 1.3069 0.9619 0.2042
C4 C 1.0522(5) 0.9088(3) 0.2218(2)
C5 C 1.0388(5) 0.9500(4) 0.3227(3)
C6 C 0.8792(6) 0.8921(4) 0.3759(3)
C7 C 0.7150(5) 0.9025(4) 0.3170(3)
C8 C 0.7356(5) 0.8397(4) 0.2182(2)
C9 C 0.9104(4) 0.8563(3) 0.1731(2)
loop_
_geom_bond_atom_site_label_1
_geom_bond_atom_site_label_2
_geom_bond_site_symmetry_1
_geom_bond_site_symmetry_2
Cl1 C7 1_555 1_555
Cl2 C7 1_555 1_555
Cl3 C6 1_555 1_555
Cl4 C6 1_555 1_555
O1 C8 1_555 1_555
O2 C5 1_555 1_555
N1 C1 1_555 1_555
C1 H1 1_555 1_555
C2 C1 1_555 1_555
H2 C2 1_555 1_555
C3 C2 1_555 1_555
H3 C3 1_555 1_555
C4 C3 1_555 1_555
C5 C4 1_555 1_555
C6 C5 1_555 1_555
C7 C6 1_555 1_555
C8 C7 1_555 1_555
C9 N1 1_555 1_555
C4 C9 1_555 1_555
C8 C9 1_555 1_555

#END
