
#######################################################################
#
#                 Cambridge Crystallographic Data Centre
#                                CCDC 
#
#######################################################################
#
# If this CIF has been generated from an entry in the Cambridge 
# Structural Database, then it will include bibliographic, chemical, 
# crystal, experimental, refinement or atomic coordinate data resulting 
# from the CCDC's data processing and validation procedures.
#
#######################################################################

data_SIBBOX
_chemical_formula_moiety         'C30 H30 Cl2 N4 Na1 O4 1+,Cl1 O4 1-'
_chemical_name_systematic        
'bis(2-((5-chloroquinolin-8-yl)oxy)-1-(pyrrolidin-1-yl)ethan-1-one)-sodium perchlorate'
_symmetry_cell_setting           monoclinic
_symmetry_space_group_name_H-M   'P 2/n'
_symmetry_Int_Tables_number      13
_space_group_name_Hall           '-P 2yac'
loop_
_symmetry_equiv_pos_site_id
_symmetry_equiv_pos_as_xyz
1 x,y,z
2 1/2-x,y,1/2-z
3 -x,-y,-z
4 1/2+x,-y,1/2+z
_cell_length_a                   13.935(3)
_cell_length_b                   8.6626(16)
_cell_length_c                   14.299(3)
_cell_angle_alpha                90
_cell_angle_beta                 112.796(3)
_cell_angle_gamma                90
_cell_volume                     1591.26
_exptl_crystal_colour            colorless
_exptl_crystal_description       plate
_cell_formula_units_Z            2
loop_
_atom_site_label
_atom_site_type_symbol
_atom_site_fract_x
_atom_site_fract_y
_atom_site_fract_z
Cl1 Cl 0.2500 0.79726(16) 0.2500
O1 O 0.2553(3) 0.7125(5) 0.1700(3)
O2 O 0.1377(5) 0.8351(11) 0.2077(6)
O1A O 0.2447(3) 0.7125(5) 0.3300(3)
O2A O 0.3623(5) 0.8351(11) 0.2923(6)
Cl2 Cl 0.60666(8) 0.04493(11) 1.23413(6)
Na1 Na 0.2500 0.3858(2) 0.7500
O3 O 0.43875(14) 0.3811(2) 0.84700(15)
O4 O 0.34228(17) 0.5325(3) 0.67959(18)
N1 N 0.30844(18) 0.2321(3) 0.90788(18)
N2 N 0.4882(2) 0.6176(3) 0.6654(2)
C1 C 0.2437(2) 0.1559(4) 0.9384(3)
H1 H 0.1729 0.1628 0.8989
C2 C 0.2742(3) 0.0662(4) 1.0257(3)
H2 H 0.2250 0.0120 1.0418
C3 C 0.3768(3) 0.0585(4) 1.0872(2)
H3 H 0.3985 -0.0005 1.1461
C4 C 0.4501(2) 0.1411(3) 1.0609(2)
C5 C 0.5585(2) 0.1468(3) 1.1208(2)
C6 C 0.6241(2) 0.2298(4) 1.0915(2)
H4 H 0.6945 0.2339 1.1331
C7 C 0.5870(2) 0.3098(4) 0.9990(2)
H5 H 0.6332 0.3646 0.9790
C8 C 0.4836(2) 0.3079(3) 0.9381(2)
C9 C 0.4119(2) 0.2253(3) 0.9687(2)
C10 C 0.5058(2) 0.4636(3) 0.8112(2)
H6 H 0.5547 0.3936 0.8001
H7 H 0.5448 0.5408 0.8604
C11 C 0.4377(2) 0.5400(4) 0.7125(2)
C12 C 0.6013(3) 0.6365(5) 0.7016(3)
H8 H 0.6362 0.5373 0.7155
H9 H 0.6275 0.6990 0.7627
C13 C 0.6163(4) 0.7159(6) 0.6161(4)
H10 H 0.6688 0.7959 0.6417
H11 H 0.6392 0.6426 0.5777
C14 C 0.5182(4) 0.7827(7) 0.5522(4)
H12 H 0.5085 0.7729 0.4815
H13 H 0.5172 0.8916 0.5676
C15 C 0.4329(3) 0.7007(5) 0.5703(3)
H14 H 0.3831 0.7732 0.5774
H15 H 0.3968 0.6297 0.5155
Cl2A Cl -0.10666(8) 0.04493(11) 0.26587(6)
O3A O 0.06125(14) 0.3811(2) 0.65300(15)
O4A O 0.15772(17) 0.5325(3) 0.82041(18)
N1A N 0.19156(18) 0.2321(3) 0.59212(18)
N2A N 0.0118(2) 0.6176(3) 0.8346(2)
C1A C 0.2563(2) 0.1559(4) 0.5616(3)
H1A H 0.3271 0.1628 0.6011
C2A C 0.2258(3) 0.0662(4) 0.4743(3)
H2A H 0.2750 0.0120 0.4582
C3A C 0.1232(3) 0.0585(4) 0.4128(2)
H3A H 0.1015 -0.0005 0.3539
C4A C 0.0499(2) 0.1411(3) 0.4391(2)
C5A C -0.0585(2) 0.1468(3) 0.3792(2)
C6A C -0.1241(2) 0.2298(4) 0.4085(2)
H4A H -0.1945 0.2339 0.3669
C7A C -0.0870(2) 0.3098(4) 0.5010(2)
H5A H -0.1332 0.3646 0.5210
C8A C 0.0164(2) 0.3079(3) 0.5619(2)
C9A C 0.0881(2) 0.2253(3) 0.5313(2)
C10A C -0.0058(2) 0.4636(3) 0.6888(2)
H6A H -0.0547 0.3936 0.6999
H7A H -0.0448 0.5408 0.6396
C11A C 0.0623(2) 0.5400(4) 0.7875(2)
C12A C -0.1013(3) 0.6365(5) 0.7984(3)
H8A H -0.1362 0.5373 0.7845
H9A H -0.1275 0.6990 0.7373
C13A C -0.1163(4) 0.7159(6) 0.8839(4)
H10A H -0.1688 0.7959 0.8583
H11A H -0.1392 0.6426 0.9223
C14A C -0.0182(4) 0.7827(7) 0.9478(4)
H12A H -0.0085 0.7729 1.0185
H13A H -0.0172 0.8916 0.9324
C15A C 0.0671(3) 0.7007(5) 0.9297(3)
H14A H 0.1169 0.7732 0.9226
H15A H 0.1032 0.6297 0.9845
O5? O 0.2500 0.9505(7) 0.2500
loop_
_geom_bond_atom_site_label_1
_geom_bond_atom_site_label_2
_geom_bond_site_symmetry_1
_geom_bond_site_symmetry_2
Cl1 O1 1_555 1_555
O2 Cl1 1_555 1_555
Cl2 C5 1_555 1_555
Na1 O3 1_555 1_555
O3 C8 1_555 1_555
O4 Na1 1_555 1_555
N1 Na1 1_555 1_555
N2 C11 1_555 1_555
C1 N1 1_555 1_555
H1 C1 1_555 1_555
C2 C1 1_555 1_555
H2 C2 1_555 1_555
C3 C2 1_555 1_555
H3 C3 1_555 1_555
C4 C3 1_555 1_555
C5 C4 1_555 1_555
C6 C5 1_555 1_555
H4 C6 1_555 1_555
C7 C6 1_555 1_555
H5 C7 1_555 1_555
C8 C7 1_555 1_555
C9 N1 1_555 1_555
C10 O3 1_555 1_555
H6 C10 1_555 1_555
H7 C10 1_555 1_555
C11 O4 1_555 1_555
C12 N2 1_555 1_555
H8 C12 1_555 1_555
H9 C12 1_555 1_555
C13 C12 1_555 1_555
H10 C13 1_555 1_555
H11 C13 1_555 1_555
C14 C13 1_555 1_555
H12 C14 1_555 1_555
H13 C14 1_555 1_555
C15 N2 1_555 1_555
H14 C15 1_555 1_555
H15 C15 1_555 1_555
O1A Cl1 1_555 1_555
O2A Cl1 1_555 1_555
Cl2A C5A 1_555 1_555
O3A Na1 1_555 1_555
O4A Na1 1_555 1_555
N1A Na1 1_555 1_555
N2A C11A 1_555 1_555
C1A N1A 1_555 1_555
H1A C1A 1_555 1_555
C2A C1A 1_555 1_555
H2A C2A 1_555 1_555
C3A C2A 1_555 1_555
H3A C3A 1_555 1_555
C4A C3A 1_555 1_555
C5A C4A 1_555 1_555
C6A C5A 1_555 1_555
H4A C6A 1_555 1_555
C7A C6A 1_555 1_555
H5A C7A 1_555 1_555
C8A O3A 1_555 1_555
C9A N1A 1_555 1_555
C10A O3A 1_555 1_555
H6A C10A 1_555 1_555
H7A C10A 1_555 1_555
C11A O4A 1_555 1_555
C12A N2A 1_555 1_555
H8A C12A 1_555 1_555
H9A C12A 1_555 1_555
C13A C12A 1_555 1_555
H10A C13A 1_555 1_555
H11A C13A 1_555 1_555
C14A C13A 1_555 1_555
H12A C14A 1_555 1_555
H13A C14A 1_555 1_555
C15A N2A 1_555 1_555
H14A C15A 1_555 1_555
H15A C15A 1_555 1_555
C4 C9 1_555 1_555
C8 C9 1_555 1_555
C10 C11 1_555 1_555
C14 C15 1_555 1_555
C4A C9A 1_555 1_555
C7A C8A 1_555 1_555
C8A C9A 1_555 1_555
C10A C11A 1_555 1_555
C14A C15A 1_555 1_555

#END
