
#######################################################################
#
#                 Cambridge Crystallographic Data Centre
#                                CCDC 
#
#######################################################################
#
# If this CIF has been generated from an entry in the Cambridge 
# Structural Database, then it will include bibliographic, chemical, 
# crystal, experimental, refinement or atomic coordinate data resulting 
# from the CCDC's data processing and validation procedures.
#
#######################################################################

data_SIBDAI
_chemical_formula_moiety         'C13 H11 Cl2 N5 O2 S1'
_chemical_name_systematic        
'5,7-Dimethyl-N-(2,6-dichlorophenyl)-1,2,4-triazolo(1,5-a) pyrimidine-2-sulfonamide'
_chemical_properties_biological  'herbicidal activity'
_symmetry_cell_setting           triclinic
_symmetry_space_group_name_H-M   'P -1'
_symmetry_Int_Tables_number      2
_space_group_name_Hall           '-P 1'
loop_
_symmetry_equiv_pos_site_id
_symmetry_equiv_pos_as_xyz
1 x,y,z
2 -x,-y,-z
_cell_length_a                   7.854(2)
_cell_length_b                   9.517(2)
_cell_length_c                   11.048(4)
_cell_angle_alpha                89.70(3)
_cell_angle_beta                 86.00(3)
_cell_angle_gamma                74.42(3)
_cell_volume                     793.441
_cell_formula_units_Z            2
loop_
_atom_site_label
_atom_site_type_symbol
_atom_site_fract_x
_atom_site_fract_y
_atom_site_fract_z
Cl1 Cl 0.3758(2) 0.6904(1) -0.0045(1)
Cl2 Cl -0.0196(1) 1.1477(1) 0.2633(1)
S1 S 0.3329(1) 0.7882(1) 0.3186(1)
O1 O 0.4996(3) 0.7545(3) 0.2505(2)
O2 O 0.2862(4) 0.6872(3) 0.3989(2)
C1 C 0.0632(6) 1.4363(5) 0.7251(4)
C2 C 0.1536(5) 1.3340(4) 0.6230(3)
C3 C 0.2549(5) 1.3840(4) 0.5301(3)
C4 C 0.3424(5) 1.2943(4) 0.4374(3)
C5 C 0.4586(6) 1.3276(5) 0.3363(4)
C6 C 0.2169(4) 1.1128(4) 0.5329(3)
C7 C 0.3150(4) 0.9476(4) 0.4046(3)
N1 N 0.1346(4) 1.2009(3) 0.6253(3)
N2 N 0.3196(4) 1.1575(3) 0.4418(3)
N3 N 0.3862(4) 1.0488(3) 0.3577(3)
N4 N 0.2143(4) 0.9776(3) 0.5093(3)
N5 N 0.1779(4) 0.8346(3) 0.2244(3)
C8 C 0.1949(4) 0.9285(4) 0.1275(3)
C9 C 0.1164(5) 1.0775(4) 0.1346(3)
C10 C 0.1393(6) 1.1698(5) 0.0418(4)
C11 C 0.2447(6) 1.1129(6) -0.0602(4)
C12 C 0.3194(6) 0.9671(6) -0.0733(4)
C13 C 0.2927(5) 0.8762(5) 0.0187(3)
loop_
_geom_bond_atom_site_label_1
_geom_bond_atom_site_label_2
_geom_bond_site_symmetry_1
_geom_bond_site_symmetry_2
Cl1 C13 1_555 1_555
Cl2 C9 1_555 1_555
S1 O1 1_555 1_555
O2 S1 1_555 1_555
C1 C2 1_555 1_555
C2 C3 1_555 1_555
C3 C4 1_555 1_555
C4 C5 1_555 1_555
C6 N1 1_555 1_555
C7 S1 1_555 1_555
N1 C2 1_555 1_555
N2 C4 1_555 1_555
N3 C7 1_555 1_555
N4 C6 1_555 1_555
N5 S1 1_555 1_555
C8 N5 1_555 1_555
C9 C8 1_555 1_555
C10 C9 1_555 1_555
C11 C10 1_555 1_555
C12 C11 1_555 1_555
C13 C8 1_555 1_555
C6 N2 1_555 1_555
C7 N4 1_555 1_555
N2 N3 1_555 1_555
C12 C13 1_555 1_555

#END
