
#######################################################################
#
#                 Cambridge Crystallographic Data Centre
#                                CCDC 
#
#######################################################################
#
# If this CIF has been generated from an entry in the Cambridge 
# Structural Database, then it will include bibliographic, chemical, 
# crystal, experimental, refinement or atomic coordinate data resulting 
# from the CCDC's data processing and validation procedures.
#
#######################################################################

data_SIBLIB
_chemical_formula_moiety         'C37 H42 Ca1 N4 O2'
_chemical_name_systematic        
'bis(9H-fluoren-9-olate radical)-(1,4,7-trimethyl-1,4,7,10-tetra-azacyclododecane)-calcium'
_symmetry_cell_setting           monoclinic
_symmetry_space_group_name_H-M   'P 21/n'
_symmetry_Int_Tables_number      14
_space_group_name_Hall           '-P 2yn'
loop_
_symmetry_equiv_pos_site_id
_symmetry_equiv_pos_as_xyz
1 x,y,z
2 1/2-x,1/2+y,1/2-z
3 -x,-y,-z
4 1/2+x,1/2-y,1/2+z
_cell_length_a                   9.856(3)
_cell_length_b                   15.431(4)
_cell_length_c                   21.091(5)
_cell_angle_alpha                90
_cell_angle_beta                 92.177(8)
_cell_angle_gamma                90
_cell_volume                     3205.37
_exptl_crystal_colour            black
_exptl_crystal_description       plate
_cell_formula_units_Z            4
_chemical_properties_physical    
Air-sensitive,Moisture-sensitive,Oxygen-sensitive
loop_
_atom_site_label
_atom_site_type_symbol
_atom_site_fract_x
_atom_site_fract_y
_atom_site_fract_z
Ca1 Ca 0.70702(8) 0.08755(5) 0.67575(4)
N1 N 0.7165(4) 0.2111(3) 0.7523(2)
H1 H 0.766(5) 0.185(3) 0.786(2)
N2 N 0.4771(3) 0.1612(2) 0.67888(18)
N3 N 0.6562(4) 0.1472(2) 0.56538(16)
N4 N 0.8979(4) 0.1884(2) 0.64460(18)
O1 O 0.5853(3) -0.02970(17) 0.64846(13)
O2 O 0.8633(3) 0.01826(18) 0.73491(13)
C1 C 0.5782(5) 0.2415(3) 0.7689(2)
H2 H 0.5394 0.2012 0.7999
H3 H 0.5849 0.2996 0.7886
C2 C 0.4882(5) 0.2455(3) 0.7112(2)
H4 H 0.3967 0.2647 0.7230
H5 H 0.5242 0.2889 0.6816
C3 C 0.4317(4) 0.1730(3) 0.6108(2)
H6 H 0.3544 0.2140 0.6085
H7 H 0.3991 0.1167 0.5936
C4 C 0.5421(4) 0.2066(3) 0.5698(2)
H8 H 0.5031 0.2177 0.5266
H9 H 0.5756 0.2625 0.5873
C5 C 0.7776(5) 0.1938(3) 0.5413(2)
H10 H 0.8396 0.1510 0.5228
H11 H 0.7475 0.2343 0.5073
C6 C 0.8530(5) 0.2433(3) 0.5925(2)
H12 H 0.9329 0.2717 0.5744
H13 H 0.7934 0.2892 0.6086
C7 C 0.9298(5) 0.2427(3) 0.7036(3)
H14 H 0.9805 0.2070 0.7354
H15 H 0.9884 0.2921 0.6923
C8 C 0.8032(6) 0.2766(3) 0.7319(2)
H16 H 0.8289 0.3142 0.7685
H17 H 0.7535 0.3128 0.7000
C9 C 0.3783(4) 0.1063(3) 0.7117(2)
H18 H 0.3747 0.0488 0.6919
H19 H 0.2882 0.1331 0.7082
H20 H 0.4067 0.1006 0.7565
C10 C 0.6198(5) 0.0747(3) 0.5218(2)
H21 H 0.6983 0.0363 0.5180
H22 H 0.5931 0.0980 0.4799
H23 H 0.5440 0.0420 0.5387
C11 C 1.0183(5) 0.1394(3) 0.6283(3)
H24 H 1.0456 0.1012 0.6636
H25 H 1.0925 0.1796 0.6199
H26 H 0.9978 0.1045 0.5903
C12 C 0.5949(4) -0.1094(3) 0.62928(19)
C13 C 0.7133(4) -0.1496(3) 0.60369(18)
C14 C 0.8429(4) -0.1172(3) 0.5935(2)
H27 H 0.8637 -0.0580 0.6016
C15 C 0.9399(5) -0.1725(3) 0.5715(2)
H28 H 1.0289 -0.1512 0.5655
C16 C 0.9106(5) -0.2591(4) 0.5579(2)
H29 H 0.9791 -0.2956 0.5420
C17 C 0.7833(5) -0.2923(3) 0.5674(2)
H30 H 0.7638 -0.3513 0.5581
C18 C 0.6833(4) -0.2383(3) 0.59069(18)
C19 C 0.5442(4) -0.2535(3) 0.60806(18)
C20 C 0.4647(5) -0.3282(3) 0.6065(2)
H31 H 0.5007 -0.3815 0.5921
C21 C 0.3329(5) -0.3237(3) 0.6264(2)
H32 H 0.2777 -0.3742 0.6250
C22 C 0.2800(4) -0.2464(3) 0.6482(2)
H33 H 0.1887 -0.2445 0.6611
C23 C 0.3587(4) -0.1714(3) 0.65140(19)
H34 H 0.3224 -0.1190 0.6672
C24 C 0.8934(4) -0.0076(3) 0.79199(19)
C25 C 0.4905(4) -0.1744(3) 0.63120(18)
C26 C 0.8009(4) -0.0150(2) 0.84308(19)
C27 C 0.6613(4) 0.0012(3) 0.8455(2)
H35 H 0.6112 0.0197 0.8085
C28 C 0.5975(4) -0.0099(3) 0.9019(2)
H36 H 0.5027 0.0009 0.9034
C29 C 0.6692(4) -0.0367(3) 0.9568(2)
H37 H 0.6235 -0.0426 0.9954
C30 C 0.8070(4) -0.0548(3) 0.9553(2)
H38 H 0.8554 -0.0738 0.9926
C31 C 0.8736(4) -0.0447(3) 0.89899(19)
C32 C 1.0139(4) -0.0579(2) 0.88193(19)
C33 C 1.1267(4) -0.0883(3) 0.9163(2)
H39 H 1.1197 -0.1040 0.9597
C34 C 1.2487(4) -0.0957(3) 0.8873(2)
H40 H 1.3262 -0.1161 0.9109
C35 C 1.2605(4) -0.0735(3) 0.8233(2)
H41 H 1.3455 -0.0795 0.8039
C36 C 1.1487(4) -0.0426(3) 0.7881(2)
H42 H 1.1567 -0.0270 0.7448
C37 C 1.0248(4) -0.0350(2) 0.81712(19)
loop_
_geom_bond_atom_site_label_1
_geom_bond_atom_site_label_2
_geom_bond_site_symmetry_1
_geom_bond_site_symmetry_2
Ca1 N1 1_555 1_555
N1 H1 1_555 1_555
N2 Ca1 1_555 1_555
N3 Ca1 1_555 1_555
N4 Ca1 1_555 1_555
O1 Ca1 1_555 1_555
O2 Ca1 1_555 1_555
C1 N1 1_555 1_555
H2 C1 1_555 1_555
H3 C1 1_555 1_555
C2 N2 1_555 1_555
H4 C2 1_555 1_555
H5 C2 1_555 1_555
C3 N2 1_555 1_555
H6 C3 1_555 1_555
H7 C3 1_555 1_555
C4 N3 1_555 1_555
H8 C4 1_555 1_555
H9 C4 1_555 1_555
C5 N3 1_555 1_555
H10 C5 1_555 1_555
H11 C5 1_555 1_555
C6 N4 1_555 1_555
H12 C6 1_555 1_555
H13 C6 1_555 1_555
C7 N4 1_555 1_555
H14 C7 1_555 1_555
H15 C7 1_555 1_555
C8 N1 1_555 1_555
H16 C8 1_555 1_555
H17 C8 1_555 1_555
C9 N2 1_555 1_555
H18 C9 1_555 1_555
H19 C9 1_555 1_555
H20 C9 1_555 1_555
C10 N3 1_555 1_555
H21 C10 1_555 1_555
H22 C10 1_555 1_555
H23 C10 1_555 1_555
C11 N4 1_555 1_555
H24 C11 1_555 1_555
H25 C11 1_555 1_555
H26 C11 1_555 1_555
C12 O1 1_555 1_555
C13 C12 1_555 1_555
C14 C13 1_555 1_555
H27 C14 1_555 1_555
C15 C14 1_555 1_555
H28 C15 1_555 1_555
C16 C15 1_555 1_555
H29 C16 1_555 1_555
C17 C16 1_555 1_555
H30 C17 1_555 1_555
C18 C13 1_555 1_555
C19 C18 1_555 1_555
C20 C19 1_555 1_555
H31 C20 1_555 1_555
C21 C20 1_555 1_555
H32 C21 1_555 1_555
C22 C21 1_555 1_555
H33 C22 1_555 1_555
C23 C22 1_555 1_555
H34 C23 1_555 1_555
C24 O2 1_555 1_555
C25 C12 1_555 1_555
C26 C24 1_555 1_555
C27 C26 1_555 1_555
H35 C27 1_555 1_555
C28 C27 1_555 1_555
H36 C28 1_555 1_555
C29 C28 1_555 1_555
H37 C29 1_555 1_555
C30 C29 1_555 1_555
H38 C30 1_555 1_555
C31 C26 1_555 1_555
C32 C31 1_555 1_555
C33 C32 1_555 1_555
H39 C33 1_555 1_555
C34 C33 1_555 1_555
H40 C34 1_555 1_555
C35 C34 1_555 1_555
H41 C35 1_555 1_555
C36 C35 1_555 1_555
H42 C36 1_555 1_555
C37 C24 1_555 1_555
C1 C2 1_555 1_555
C3 C4 1_555 1_555
C5 C6 1_555 1_555
C7 C8 1_555 1_555
C17 C18 1_555 1_555
C19 C25 1_555 1_555
C23 C25 1_555 1_555
C30 C31 1_555 1_555
C32 C37 1_555 1_555
C36 C37 1_555 1_555

#END
