
#######################################################################
#
#                 Cambridge Crystallographic Data Centre
#                                CCDC 
#
#######################################################################
#
# If this CIF has been generated from an entry in the Cambridge 
# Structural Database, then it will include bibliographic, chemical, 
# crystal, experimental, refinement or atomic coordinate data resulting 
# from the CCDC's data processing and validation procedures.
#
#######################################################################

data_SIBLEX
_chemical_formula_moiety         'C45 H58 N4 O4 Sr1,C4 H8 O1'
_chemical_name_systematic        
'bis(9H-fluoren-9-olate radical)-bis(tetrahydrofuran)-(1,4,7-trimethyl-1,4,7,10-tetra-azacyclododecane)-strontium tetrahydrofuran'
_symmetry_cell_setting           orthorhombic
_symmetry_space_group_name_H-M   'P b c n'
_symmetry_Int_Tables_number      60
_space_group_name_Hall           '-P 2n 2ab'
loop_
_symmetry_equiv_pos_site_id
_symmetry_equiv_pos_as_xyz
1 x,y,z
2 1/2-x,1/2-y,1/2+z
3 1/2+x,1/2-y,-z
4 -x,y,1/2-z
5 -x,-y,-z
6 1/2+x,1/2+y,1/2-z
7 1/2-x,1/2+y,z
8 x,-y,1/2+z
_cell_length_a                   13.8856(8)
_cell_length_b                   17.4892(10)
_cell_length_c                   18.1198(10)
_cell_angle_alpha                90
_cell_angle_beta                 90
_cell_angle_gamma                90
_cell_volume                     4400.36
_exptl_crystal_colour            black
_exptl_crystal_description       block
_cell_formula_units_Z            4
_chemical_properties_physical    
Air-sensitive,Moisture-sensitive,Oxygen-sensitive
_exptl_crystal_recrystallization_method 
'Re-crystallisation from solvent: THF and n-pentane'
loop_
_atom_site_label
_atom_site_type_symbol
_atom_site_fract_x
_atom_site_fract_y
_atom_site_fract_z
O3 O 0.5000 0.38405(17) 0.7500
C24 C 0.5384(3) 0.43078(18) 0.69293(18)
H31 H 0.5112 0.4156 0.6446
H32 H 0.6093 0.4251 0.6907
C25 C 0.5123(3) 0.51179(19) 0.7100(2)
H33 H 0.5672 0.5464 0.7001
H34 H 0.4565 0.5284 0.6800
C24C C 0.4616(3) 0.43078(18) 0.80707(18)
H31C H 0.4888 0.4156 0.8554
H32C H 0.3907 0.4251 0.8093
C25C C 0.4877(3) 0.51179(19) 0.7900(2)
H33C H 0.4328 0.5464 0.7999
H34C H 0.5435 0.5284 0.8200
Sr1 Sr 0.0000 0.55699(2) 0.7500
O1 O -0.10719(14) 0.49195(11) 0.66347(10)
O2 O 0.12943(17) 0.48421(16) 0.66782(13)
N1 N -0.15200(18) 0.66347(14) 0.76537(13)
N2 N 0.01681(15) 0.66334(12) 0.86695(13)
C1 C -0.1473(2) 0.72353(18) 0.71032(17)
H1 H -0.1014 0.7632 0.7271
H2 H -0.2115 0.7477 0.7059
C2 C -0.1520(2) 0.69350(18) 0.84131(16)
H3 H -0.1723 0.6524 0.8755
H4 H -0.1998 0.7353 0.8449
C3 C -0.0554(2) 0.72308(16) 0.86509(15)
H5 H -0.0345 0.7637 0.8306
H6 H -0.0613 0.7461 0.9148
C4 C 0.1165(2) 0.69517(16) 0.86439(15)
H7 H 0.1621 0.6550 0.8806
H8 H 0.1209 0.7380 0.9000
H9 H -0.2584 0.5893 0.8010
H10 H -0.2550 0.5972 0.7131
H11 H -0.3010 0.6641 0.7621
C5 C 0.0073(2) 0.62400(18) 0.94033(17)
H12 H 0.0223 0.6602 0.9799
H13 H 0.0522 0.5808 0.9426
H14 H -0.0588 0.6053 0.9463
C6 C -0.14595(18) 0.43838(14) 0.62512(13)
C7 C -0.22973(17) 0.44510(14) 0.57723(13)
C8 C -0.28901(18) 0.50746(16) 0.56105(15)
H15 H -0.2782 0.5556 0.5839
C9 C -0.3636(2) 0.49817(18) 0.51134(16)
H16 H -0.4037 0.5405 0.4997
C10 C -0.3811(2) 0.42727(19) 0.47780(17)
H17 H -0.4326 0.4222 0.4436
C11 C -0.32422(19) 0.36471(17) 0.49387(15)
H18 H -0.3365 0.3167 0.4712
C12 C -0.24861(18) 0.37281(14) 0.54374(13)
C13 C -0.17749(18) 0.31866(14) 0.57136(13)
C14 C -0.1625(2) 0.24159(16) 0.55759(16)
H19 H -0.2029 0.2148 0.5240
C15 C -0.0879(2) 0.20402(16) 0.59344(18)
H20 H -0.0778 0.1511 0.5846
C16 C -0.0278(2) 0.24279(18) 0.64227(18)
H21 H 0.0227 0.2160 0.6664
C17 C -0.0408(2) 0.32033(16) 0.65598(15)
H22 H 0.0010 0.3467 0.6887
C18 C -0.11625(18) 0.35895(14) 0.62096(13)
C19 C 0.1250(2) 0.45694(18) 0.59546(16)
H23 H 0.1496 0.4958 0.5604
H24 H 0.0579 0.4440 0.5819
C20 C 0.1895(2) 0.38442(19) 0.5942(2)
H25 H 0.2377 0.3856 0.5540
H26 H 0.1515 0.3366 0.5917
C21 C 0.2714(5) 0.4035(4) 0.6420(5)
H27 H 0.3120 0.4451 0.6219
H28 H 0.3114 0.3585 0.6547
C22 C 0.2083(5) 0.4290(4) 0.7042(5)
H29 H 0.2465 0.4569 0.7417
H30 H 0.1770 0.3846 0.7280
C23 C -0.2504(3) 0.6251(3) 0.7599(3)
N1C N 0.15200(18) 0.66347(14) 0.73463(13)
N2C N -0.01681(15) 0.66334(12) 0.63305(13)
C1C C 0.1473(2) 0.72353(18) 0.78968(17)
H1C H 0.1014 0.7632 0.7729
H2C H 0.2115 0.7477 0.7941
C2C C 0.1520(2) 0.69350(18) 0.65869(16)
H3C H 0.1723 0.6524 0.6245
H4C H 0.1998 0.7353 0.6551
C3C C 0.0554(2) 0.72308(16) 0.63491(15)
H5C H 0.0345 0.7637 0.6694
H6C H 0.0613 0.7461 0.5852
C4C C -0.1165(2) 0.69517(16) 0.63561(15)
H7C H -0.1621 0.6550 0.6194
H8C H -0.1209 0.7380 0.6000
H9C H 0.2584 0.5893 0.6990
H10C H 0.2550 0.5972 0.7869
H11C H 0.3010 0.6641 0.7379
C5C C -0.0073(2) 0.62400(18) 0.55967(17)
H12C H -0.0223 0.6602 0.5201
H13C H -0.0522 0.5808 0.5574
H14C H 0.0588 0.6053 0.5537
C23C C 0.2504(3) 0.6251(3) 0.7401(3)
O1C O 0.10719(14) 0.49195(11) 0.83653(10)
O2C O -0.12943(17) 0.48421(16) 0.83218(13)
C6C C 0.14595(18) 0.43838(14) 0.87488(13)
C7C C 0.22973(17) 0.44510(14) 0.92277(13)
C8C C 0.28901(18) 0.50746(16) 0.93895(15)
H15C H 0.2782 0.5556 0.9161
C9C C 0.3636(2) 0.49817(18) 0.98866(16)
H16C H 0.4037 0.5405 1.0003
C10C C 0.3811(2) 0.42727(19) 1.02220(17)
H17C H 0.4326 0.4222 1.0564
C11C C 0.32422(19) 0.36471(17) 1.00613(15)
H18C H 0.3365 0.3167 1.0288
C12C C 0.24861(18) 0.37281(14) 0.95626(13)
C13C C 0.17749(18) 0.31866(14) 0.92864(13)
C14C C 0.1625(2) 0.24159(16) 0.94241(16)
H19C H 0.2029 0.2148 0.9760
C15C C 0.0879(2) 0.20402(16) 0.90656(18)
H20C H 0.0778 0.1511 0.9154
C16C C 0.0278(2) 0.24279(18) 0.85773(18)
H21C H -0.0227 0.2160 0.8336
C17C C 0.0408(2) 0.32033(16) 0.84402(15)
H22C H -0.0010 0.3467 0.8113
C18C C 0.11625(18) 0.35895(14) 0.87904(13)
C19C C -0.1250(2) 0.45694(18) 0.90454(16)
H23C H -0.1496 0.4958 0.9396
H24C H -0.0579 0.4440 0.9181
C20C C -0.1895(2) 0.38442(19) 0.9058(2)
H25C H -0.2377 0.3856 0.9460
H26C H -0.1515 0.3366 0.9083
C21C C -0.2714(5) 0.4035(4) 0.8580(5)
H27C H -0.3120 0.4451 0.8781
H28C H -0.3114 0.3585 0.8453
C22C C -0.2083(5) 0.4290(4) 0.7958(5)
H29C H -0.2465 0.4569 0.7583
H30C H -0.1770 0.3846 0.7720
C26? C 0.2400(7) 0.3993(6) 0.6801(6)
H35? H 0.2052 0.3703 0.7187
H36? H 0.3088 0.3841 0.6806
C27? C 0.2290(5) 0.4835(5) 0.6910(4)
H37? H 0.2376 0.4993 0.7431
H38? H 0.2714 0.5139 0.6584
H39? H -0.2139 0.6353 0.7579
loop_
_geom_bond_atom_site_label_1
_geom_bond_atom_site_label_2
_geom_bond_site_symmetry_1
_geom_bond_site_symmetry_2
Sr1 O1 1_555 1_555
O1 C6 1_555 1_555
O2 Sr1 1_555 1_555
N1 Sr1 1_555 1_555
N2 Sr1 1_555 1_555
C1 N1 1_555 1_555
H1 C1 1_555 1_555
H2 C1 1_555 1_555
C2 N1 1_555 1_555
H3 C2 1_555 1_555
H4 C2 1_555 1_555
C3 N2 1_555 1_555
H5 C3 1_555 1_555
H6 C3 1_555 1_555
C4 N2 1_555 1_555
H7 C4 1_555 1_555
H8 C4 1_555 1_555
H9 C23 1_555 1_555
H10 C23 1_555 1_555
H11 C23 1_555 1_555
C5 N2 1_555 1_555
H12 C5 1_555 1_555
H13 C5 1_555 1_555
H14 C5 1_555 1_555
C6 C7 1_555 1_555
C7 C8 1_555 1_555
C8 H15 1_555 1_555
C9 C8 1_555 1_555
H16 C9 1_555 1_555
C10 C9 1_555 1_555
H17 C10 1_555 1_555
C11 C10 1_555 1_555
H18 C11 1_555 1_555
C12 C7 1_555 1_555
C13 C12 1_555 1_555
C14 C13 1_555 1_555
H19 C14 1_555 1_555
C15 C14 1_555 1_555
H20 C15 1_555 1_555
C16 C15 1_555 1_555
H21 C16 1_555 1_555
C17 C16 1_555 1_555
H22 C17 1_555 1_555
C18 C6 1_555 1_555
C19 O2 1_555 1_555
H23 C19 1_555 1_555
H24 C19 1_555 1_555
C20 C19 1_555 1_555
H25 C20 1_555 1_555
H26 C20 1_555 1_555
C21 C20 1_555 1_555
H27 C21 1_555 1_555
H28 C21 1_555 1_555
C22 O2 1_555 1_555
H29 C22 1_555 1_555
H30 C22 1_555 1_555
C23 N1 1_555 1_555
O3 C24 1_555 1_555
C24 H31 1_555 1_555
H32 C24 1_555 1_555
C25 C24 1_555 1_555
H33 C25 1_555 1_555
H34 C25 1_555 1_555
N1C Sr1 1_555 1_555
N2C Sr1 1_555 1_555
C1C C4 1_555 1_555
H1C C1C 1_555 1_555
H2C C1C 1_555 1_555
C2C N1C 1_555 1_555
H3C C2C 1_555 1_555
H4C C2C 1_555 1_555
C3C N2C 1_555 1_555
H5C C3C 1_555 1_555
H6C C3C 1_555 1_555
C4C C1 1_555 1_555
H7C C4C 1_555 1_555
H8C C4C 1_555 1_555
H9C C23C 1_555 1_555
H10C C23C 1_555 1_555
H11C C23C 1_555 1_555
C5C N2C 1_555 1_555
H12C C5C 1_555 1_555
H13C C5C 1_555 1_555
H14C C5C 1_555 1_555
C23C N1C 1_555 1_555
O1C Sr1 1_555 1_555
O2C Sr1 1_555 1_555
C6C O1C 1_555 1_555
C7C C6C 1_555 1_555
C8C C7C 1_555 1_555
H15C C8C 1_555 1_555
C9C C8C 1_555 1_555
H16C C9C 1_555 1_555
C10C C9C 1_555 1_555
H17C C10C 1_555 1_555
C11C C10C 1_555 1_555
H18C C11C 1_555 1_555
C12C C7C 1_555 1_555
C13C C12C 1_555 1_555
C14C C13C 1_555 1_555
H19C C14C 1_555 1_555
C15C C14C 1_555 1_555
H20C C15C 1_555 1_555
C16C C15C 1_555 1_555
H21C C16C 1_555 1_555
C17C C16C 1_555 1_555
H22C C17C 1_555 1_555
C18C C6C 1_555 1_555
C19C O2C 1_555 1_555
H23C C19C 1_555 1_555
H24C C19C 1_555 1_555
C20C C19C 1_555 1_555
H25C C20C 1_555 1_555
H26C C20C 1_555 1_555
C21C C20C 1_555 1_555
H27C C21C 1_555 1_555
H28C C21C 1_555 1_555
C22C O2C 1_555 1_555
H29C C22C 1_555 1_555
H30C C22C 1_555 1_555
C24C O3 1_555 1_555
H31C C24C 1_555 1_555
H32C C24C 1_555 1_555
C25C C25 1_555 1_555
H33C C25C 1_555 1_555
H34C C25C 1_555 1_555
C2 C3 1_555 1_555
C11 C12 1_555 1_555
C13 C18 1_555 1_555
C17 C18 1_555 1_555
C21 C22 1_555 1_555
N1C C1C 1_555 1_555
N2C C4C 1_555 1_555
C2C C3C 1_555 1_555
C11C C12C 1_555 1_555
C13C C18C 1_555 1_555
C17C C18C 1_555 1_555
C21C C22C 1_555 1_555
C24C C25C 1_555 1_555

#END
