
#######################################################################
#
#                 Cambridge Crystallographic Data Centre
#                                CCDC 
#
#######################################################################
#
# If this CIF has been generated from an entry in the Cambridge 
# Structural Database, then it will include bibliographic, chemical, 
# crystal, experimental, refinement or atomic coordinate data resulting 
# from the CCDC's data processing and validation procedures.
#
#######################################################################

data_SIBRED
_chemical_formula_moiety         'C21 H18 O3 S1'
_chemical_name_systematic        
2-[3-(benzylsulfanyl)-1,3-dihydro-2-benzofuran-1-yl]-1-(furan-2-yl)ethan-1-one
_symmetry_cell_setting           orthorhombic
_symmetry_space_group_name_H-M   'P 21 21 21'
_symmetry_Int_Tables_number      19
_space_group_name_Hall           'P 2ac 2ab'
loop_
_symmetry_equiv_pos_site_id
_symmetry_equiv_pos_as_xyz
1 x,y,z
2 1/2-x,-y,1/2+z
3 -x,1/2+y,1/2-z
4 1/2+x,1/2-y,-z
_cell_length_a                   4.6966(2)
_cell_length_b                   12.0477(6)
_cell_length_c                   31.218(2)
_cell_angle_alpha                90
_cell_angle_beta                 90
_cell_angle_gamma                90
_cell_volume                     1766.42
_exptl_crystal_colour            white
_exptl_crystal_description       Needle
_cell_formula_units_Z            4
_exptl_crystal_recrystallization_method 'hexane/ethyl acetate'
loop_
_atom_site_label
_atom_site_type_symbol
_atom_site_fract_x
_atom_site_fract_y
_atom_site_fract_z
S1 S 0.27938(18) 0.75975(8) 0.42458(3)
O1 O -0.0397(5) 0.8133(2) 0.35509(8)
O2 O 0.1315(6) 0.4706(2) 0.28295(9)
O3 O -0.0441(8) 0.6777(2) 0.25847(10)
C1 C 0.2557(9) 0.5644(3) 0.29941(11)
C2 C 0.2712(7) 0.9558(3) 0.33649(11)
C3 C 0.0679(7) 0.8591(3) 0.39415(11)
H1 H -0.0900 0.8863 0.4118
C4 C 0.2540(8) 0.9544(3) 0.38073(10)
C5 C 0.1095(8) 0.8587(3) 0.31880(12)
H2 H -0.0275 0.8842 0.2973
C6 C 0.1156(8) 0.5521(3) 0.45204(12)
C7 C 0.1550(9) 0.6707(3) 0.28333(12)
C8 C 0.4376(9) 1.0337(3) 0.31573(14)
H3 H 0.4482 1.0346 0.2860
C9 C 0.3069(8) 0.7734(3) 0.29925(11)
H4 H 0.4469 0.7517 0.3205
H5 H 0.4079 0.8073 0.2755
C10 C 0.2630(12) 0.3835(3) 0.30213(15)
H6 H 0.2208 0.3093 0.2969
C11 C 0.4043(8) 1.0309(3) 0.40506(14)
H7 H 0.3948 1.0301 0.4348
C12 C 0.5874(10) 1.1098(3) 0.33971(18)
H8 H 0.7013 1.1623 0.3261
C13 C 0.5690(10) 1.1084(3) 0.38369(17)
H9 H 0.6697 1.1608 0.3995
C14 C 0.4551(11) 0.5354(4) 0.32709(16)
H10 H 0.5722 0.5832 0.3425
C15 C 0.0005(9) 0.6659(3) 0.44288(15)
H11 H -0.0858 0.6957 0.4687
H12 H -0.1463 0.6607 0.4211
C16 C 0.2809(12) 0.5300(4) 0.48609(14)
H13 H 0.3283 0.5867 0.5050
C17 C 0.3218(11) 0.3401(4) 0.46754(17)
H14 H 0.3912 0.2693 0.4731
C18 C 0.3811(13) 0.4240(4) 0.49331(17)
H15 H 0.4947 0.4111 0.5172
C19 C 0.0559(11) 0.4657(4) 0.42520(18)
H16 H -0.0563 0.4778 0.4011
C20 C 0.1607(13) 0.3596(4) 0.43345(19)
H17 H 0.1172 0.3017 0.4148
C21 C 0.4573(14) 0.4182(4) 0.32900(19)
H18 H 0.5742 0.3743 0.3460
loop_
_geom_bond_atom_site_label_1
_geom_bond_atom_site_label_2
_geom_bond_site_symmetry_1
_geom_bond_site_symmetry_2
S1 C3 1_555 1_555
O1 C3 1_555 1_555
O2 C1 1_555 1_555
O3 C7 1_555 1_555
C1 C7 1_555 1_555
C2 C4 1_555 1_555
C3 H1 1_555 1_555
C4 C3 1_555 1_555
C5 O1 1_555 1_555
H2 C5 1_555 1_555
C6 C15 1_555 1_555
C7 C9 1_555 1_555
C8 C2 1_555 1_555
H3 C8 1_555 1_555
C9 C5 1_555 1_555
H4 C9 1_555 1_555
H5 C9 1_555 1_555
C10 O2 1_555 1_555
H6 C10 1_555 1_555
C11 C4 1_555 1_555
H7 C11 1_555 1_555
C12 C8 1_555 1_555
H8 C12 1_555 1_555
C13 C11 1_555 1_555
H9 C13 1_555 1_555
C14 C1 1_555 1_555
H10 C14 1_555 1_555
C15 S1 1_555 1_555
H11 C15 1_555 1_555
H12 C15 1_555 1_555
C16 C6 1_555 1_555
H13 C16 1_555 1_555
C17 H14 1_555 1_555
C18 C16 1_555 1_555
H15 C18 1_555 1_555
C19 C6 1_555 1_555
H16 C19 1_555 1_555
C20 C17 1_555 1_555
H17 C20 1_555 1_555
C21 C10 1_555 1_555
H18 C21 1_555 1_555
C2 C5 1_555 1_555
C12 C13 1_555 1_555
C14 C21 1_555 1_555
C17 C18 1_555 1_555
C19 C20 1_555 1_555

#END
