
#######################################################################
#
#                 Cambridge Crystallographic Data Centre
#                                CCDC 
#
#######################################################################
#
# If this CIF has been generated from an entry in the Cambridge 
# Structural Database, then it will include bibliographic, chemical, 
# crystal, experimental, refinement or atomic coordinate data resulting 
# from the CCDC's data processing and validation procedures.
#
#######################################################################

data_SIBSUU
_chemical_formula_moiety         'C37 H36 B1 F10 N1 O1'
_chemical_name_systematic        
(cyclopent-1-en-1-olato)[bis(pentafluorophenyl)][5-phenyl-2-(2,2,6,6-tetramethylpiperidin-1-ium-1-yl)penta-1,4-dien-1-yl]boron
_symmetry_cell_setting           triclinic
_symmetry_space_group_name_H-M   'P -1'
_symmetry_Int_Tables_number      2
_space_group_name_Hall           '-P 1'
loop_
_symmetry_equiv_pos_site_id
_symmetry_equiv_pos_as_xyz
1 x,y,z
2 -x,-y,-z
_cell_length_a                   10.0116(2)
_cell_length_b                   10.3869(2)
_cell_length_c                   16.5800(5)
_cell_angle_alpha                75.778(1)
_cell_angle_beta                 79.290(1)
_cell_angle_gamma                83.508(2)
_cell_volume                     1638.07
_exptl_crystal_colour            colorless
_exptl_crystal_description       prism
_cell_formula_units_Z            2
loop_
_atom_site_label
_atom_site_type_symbol
_atom_site_fract_x
_atom_site_fract_y
_atom_site_fract_z
C1 C 0.3127(2) 1.3402(2) 0.26097(14)
C2 C 0.2191(2) 1.2779(2) 0.24134(14)
H1 H 0.1309 1.3224 0.2474
C3 C 0.2861(2) 1.4669(2) 0.29333(16)
H2 H 0.3434 1.4609 0.3370
H3 H 0.3138 1.5433 0.2463
C4 C 0.1396(2) 1.4925(2) 0.33017(16)
H4 H 0.1014 1.4279 0.3776
C5 C 0.0601(2) 1.5971(2) 0.30221(17)
H5 H 0.0991 1.6610 0.2546
O1 O 0.36799(15) 1.10541(15) 0.17611(10)
C6 C 0.4227(17) 0.9984(14) 0.1427(14)
C7 C 0.551(2) 0.9558(18) 0.1268(12)
H6 H 0.6223 0.9955 0.1399
C8 C 0.5743(15) 0.842(2) 0.0871(16)
H7 H 0.6403 0.7736 0.1132
H8 H 0.6065 0.8700 0.0257
C9 C 0.4270(11) 0.7927(11) 0.1070(8)
H9 H 0.4169 0.7201 0.1587
H10 H 0.4084 0.7589 0.0596
C10 C 0.3258(18) 0.9160(18) 0.1200(15)
H11 H 0.2903 0.9622 0.0677
H12 H 0.2489 0.8909 0.1664
N1 N 0.45712(18) 1.27945(19) 0.25238(12)
H13 H 0.452(2) 1.211(2) 0.2280(14)
C11 C 0.5626(2) 1.3669(2) 0.18542(15)
C12 C 0.6224(2) 1.4587(2) 0.22619(16)
H14 H 0.6927 1.5091 0.1839
H15 H 0.5495 1.5238 0.2437
C13 C 0.6854(3) 1.3847(3) 0.30195(18)
H16 H 0.7230 1.4488 0.3257
H17 H 0.7613 1.3224 0.2845
C14 C 0.5798(3) 1.3074(3) 0.36916(17)
H18 H 0.5116 1.3719 0.3918
H19 H 0.6257 1.2555 0.4162
C15 C 0.5047(2) 1.2118(2) 0.33924(15)
C16 C 0.4916(3) 1.4425(3) 0.11286(16)
H20 H 0.4137 1.4980 0.1340
H21 H 0.4597 1.3792 0.0868
H22 H 0.5556 1.4992 0.0709
C17 C 0.6756(3) 1.2760(3) 0.14810(18)
H23 H 0.7323 1.3291 0.0994
H24 H 0.6349 1.2084 0.1302
H25 H 0.7320 1.2323 0.1908
C18 C 0.5952(3) 1.0861(3) 0.32806(18)
H26 H 0.6861 1.1111 0.2986
H27 H 0.5549 1.0393 0.2949
H28 H 0.6025 1.0276 0.3835
C19 C 0.3802(3) 1.1680(3) 0.40511(16)
H29 H 0.4095 1.1240 0.4590
H30 H 0.3329 1.1057 0.3864
H31 H 0.3184 1.2460 0.4121
B1 B 0.2228(3) 1.1417(3) 0.20908(17)
C20 C 0.1284(2) 1.1706(2) 0.13269(15)
F1 F 0.23976(15) 1.36804(15) 0.06385(9)
C21 C 0.1464(2) 1.2817(3) 0.06631(16)
F2 F 0.09953(17) 1.42547(18) -0.06200(10)
C22 C 0.0754(3) 1.3152(3) -0.00052(16)
F3 F -0.09165(17) 1.2628(2) -0.06842(11)
C23 C -0.0211(2) 1.2333(3) -0.00425(16)
F4 F -0.13756(15) 1.03986(18) 0.05666(11)
C24 C -0.0437(2) 1.1219(3) 0.05906(17)
F5 F -0.00091(15) 0.97977(15) 0.18301(10)
C25 C 0.0297(2) 1.0931(2) 0.12462(16)
C26 C 0.1589(2) 1.0290(2) 0.29393(15)
F6 F -0.05354(13) 1.15463(14) 0.29903(9)
C27 C 0.0254(2) 1.0477(2) 0.33369(16)
F7 F -0.16483(14) 0.99312(18) 0.44068(10)
C28 C -0.0349(2) 0.9658(3) 0.40624(16)
F8 F -0.01797(17) 0.77540(18) 0.51662(10)
C29 C 0.0381(3) 0.8556(3) 0.44479(16)
F9 F 0.24573(17) 0.72528(16) 0.44710(11)
C30 C 0.1706(3) 0.8309(3) 0.40943(16)
F10 F 0.36063(14) 0.88477(14) 0.30984(10)
C31 C 0.2276(2) 0.9169(2) 0.33680(16)
C32 C -0.0838(2) 1.6254(2) 0.33717(16)
C33 C -0.1670(3) 1.7154(3) 0.28709(19)
H32 H -0.1293 1.7601 0.2317
C34 C -0.3039(3) 1.7401(3) 0.3174(2)
H33 H -0.3592 1.8009 0.2824
C35 C -0.3601(3) 1.6777(3) 0.3973(2)
H34 H -0.4539 1.6949 0.4177
C36 C -0.2791(3) 1.5895(3) 0.44778(18)
H35 H -0.3174 1.5460 0.5033
C37 C -0.1424(3) 1.5640(3) 0.41816(16)
H36 H -0.0879 1.5035 0.4538
C38? C 0.3954(17) 0.9946(16) 0.1409(14)
C39? C 0.325(2) 0.905(2) 0.1291(16)
H37? H 0.2303 0.9016 0.1485
C40? C 0.4051(13) 0.8113(13) 0.0833(8)
H38? H 0.3895 0.8317 0.0241
H39? H 0.3825 0.7186 0.1108
C41? C 0.5537(14) 0.8330(17) 0.0881(14)
H40? H 0.6130 0.8344 0.0330
H41? H 0.5898 0.7607 0.1315
C42? C 0.549(2) 0.9702(18) 0.1121(13)
H42? H 0.6008 0.9644 0.1582
H43? H 0.5833 1.0405 0.0629
loop_
_geom_bond_atom_site_label_1
_geom_bond_atom_site_label_2
_geom_bond_site_symmetry_1
_geom_bond_site_symmetry_2
C1 C2 1_555 1_555
C2 H1 1_555 1_555
C3 C1 1_555 1_555
H2 C3 1_555 1_555
H3 C3 1_555 1_555
C4 C3 1_555 1_555
H4 C4 1_555 1_555
C5 C4 1_555 1_555
H5 C5 1_555 1_555
O1 C6 1_555 1_555
C6 C7 1_555 1_555
C7 H6 1_555 1_555
C8 C7 1_555 1_555
H7 C8 1_555 1_555
H8 C8 1_555 1_555
C9 C8 1_555 1_555
H9 C9 1_555 1_555
H10 C9 1_555 1_555
C10 C6 1_555 1_555
H11 C10 1_555 1_555
H12 C10 1_555 1_555
N1 C1 1_555 1_555
H13 N1 1_555 1_555
C11 N1 1_555 1_555
C12 C11 1_555 1_555
H14 C12 1_555 1_555
H15 C12 1_555 1_555
C13 C12 1_555 1_555
H16 C13 1_555 1_555
H17 C13 1_555 1_555
C14 C13 1_555 1_555
H18 C14 1_555 1_555
H19 C14 1_555 1_555
C15 N1 1_555 1_555
C16 C11 1_555 1_555
H20 C16 1_555 1_555
H21 C16 1_555 1_555
H22 C16 1_555 1_555
C17 C11 1_555 1_555
H23 C17 1_555 1_555
H24 C17 1_555 1_555
H25 C17 1_555 1_555
C18 C15 1_555 1_555
H26 C18 1_555 1_555
H27 C18 1_555 1_555
H28 C18 1_555 1_555
C19 C15 1_555 1_555
H29 C19 1_555 1_555
H30 C19 1_555 1_555
H31 C19 1_555 1_555
B1 C2 1_555 1_555
C20 B1 1_555 1_555
F1 C21 1_555 1_555
C21 C20 1_555 1_555
F2 C22 1_555 1_555
C22 C21 1_555 1_555
F3 C23 1_555 1_555
C23 C22 1_555 1_555
F4 C24 1_555 1_555
C24 C23 1_555 1_555
F5 C25 1_555 1_555
C25 C20 1_555 1_555
C26 B1 1_555 1_555
F6 C27 1_555 1_555
C27 C26 1_555 1_555
F7 C28 1_555 1_555
C28 C27 1_555 1_555
F8 C29 1_555 1_555
C29 C28 1_555 1_555
F9 C30 1_555 1_555
C30 C29 1_555 1_555
F10 C31 1_555 1_555
C31 C26 1_555 1_555
C32 C5 1_555 1_555
C33 C32 1_555 1_555
H32 C33 1_555 1_555
C34 C33 1_555 1_555
H33 C34 1_555 1_555
C35 C34 1_555 1_555
H34 C35 1_555 1_555
C36 C35 1_555 1_555
H35 C36 1_555 1_555
C37 C32 1_555 1_555
H36 C37 1_555 1_555
O1 B1 1_555 1_555
C9 C10 1_555 1_555
C14 C15 1_555 1_555
C24 C25 1_555 1_555
C30 C31 1_555 1_555
C36 C37 1_555 1_555

#END
