
#######################################################################
#
#                 Cambridge Crystallographic Data Centre
#                                CCDC 
#
#######################################################################
#
# If this CIF has been generated from an entry in the Cambridge 
# Structural Database, then it will include bibliographic, chemical, 
# crystal, experimental, refinement or atomic coordinate data resulting 
# from the CCDC's data processing and validation procedures.
#
#######################################################################

data_SIBSAA
_chemical_formula_moiety         'C32 H30 B1 F10 N1'
_chemical_name_systematic        
hydrido[bis(pentafluorophenyl)][5-phenyl-2-(2,2,6,6-tetramethylpiperidin-1-ium-1-yl)penta-1,4-dien-1-yl]borate
_symmetry_cell_setting           monoclinic
_symmetry_space_group_name_H-M   'P 21/c'
_symmetry_Int_Tables_number      14
_space_group_name_Hall           '-P 2ybc'
loop_
_symmetry_equiv_pos_site_id
_symmetry_equiv_pos_as_xyz
1 x,y,z
2 -x,1/2+y,1/2-z
3 -x,-y,-z
4 x,1/2-y,1/2+z
_cell_length_a                   13.1325(4)
_cell_length_b                   14.4932(4)
_cell_length_c                   16.2201(5)
_cell_angle_alpha                90
_cell_angle_beta                 107.2060(10)
_cell_angle_gamma                90
_cell_volume                     2949.04
_exptl_crystal_colour            colorless
_exptl_crystal_description       prism
_cell_formula_units_Z            4
loop_
_atom_site_label
_atom_site_type_symbol
_atom_site_fract_x
_atom_site_fract_y
_atom_site_fract_z
C1 C 0.65119(15) 0.51390(14) 0.78878(13)
C2 C 0.64241(16) 0.42277(14) 0.78123(13)
H1 H 0.5795 0.3973 0.7895
C3 C 0.57164(16) 0.57584(14) 0.81338(14)
H2 H 0.5895 0.5789 0.877
H3 H 0.5766 0.639 0.7917
C4 C 0.45989(16) 0.54065(14) 0.77655(14)
H4 H 0.4306 0.5395 0.7155
C5 C 0.39934(16) 0.51110(14) 0.82372(14)
H5 H 0.4307 0.5125 0.8845
N1 N 0.74870(13) 0.55609(11) 0.77429(11)
H6 H 0.7842(19) 0.4997(18) 0.7673(15)
C6 C 0.73270(17) 0.60839(15) 0.68695(14)
C7 C 0.84413(18) 0.61126(16) 0.67482(15)
H7 H 0.8658 0.5475 0.6658
H8 H 0.8404 0.647 0.622
C8 C 0.92921(18) 0.65369(16) 0.75022(16)
H9 H 0.9989 0.6516 0.7384
H10 H 0.9115 0.7191 0.7568
C9 C 0.93697(17) 0.60197(15) 0.83329(15)
H11 H 0.9908 0.6329 0.8813
H12 H 0.9628 0.5387 0.8283
C10 C 0.83175(16) 0.59562(14) 0.85647(13)
C11 C 0.68561(19) 0.70510(16) 0.68459(16)
H13 H 0.7339 0.7435 0.729
H14 H 0.6163 0.7012 0.6957
H15 H 0.6764 0.7326 0.6277
C12 C 0.65936(19) 0.54907(17) 0.61650(14)
H16 H 0.6563 0.5744 0.5598
H17 H 0.5877 0.5488 0.6233
H18 H 0.687 0.4859 0.6211
C13 C 0.80108(18) 0.68809(15) 0.88717(15)
H19 H 0.7267 0.6858 0.8877
H20 H 0.8095 0.737 0.848
H21 H 0.8474 0.7009 0.9456
C14 C 0.84356(18) 0.52390(15) 0.92734(14)
H22 H 0.904 0.5403 0.9771
H23 H 0.856 0.4631 0.9057
H24 H 0.7782 0.5222 0.9448
C15 C 0.28903(16) 0.47638(14) 0.79256(14)
C16 C 0.23162(19) 0.47193(16) 0.70535(16)
H25 H 0.2647 0.49 0.6631
C17 C 0.1268(2) 0.44138(17) 0.67951(18)
H26 H 0.0881 0.44 0.6199
C18 C 0.07847(18) 0.41284(16) 0.74062(18)
H27 H 0.0068 0.3917 0.7231
C19 C 0.13492(19) 0.41534(16) 0.82640(18)
H28 H 0.1026 0.395 0.8684
C20 C 0.23894(18) 0.44738(15) 0.85218(16)
H29 H 0.2767 0.4495 0.912
B1 B 0.72334(19) 0.34920(16) 0.76008(15)
H30 H 0.7968(17) 0.3856(15) 0.7527(13)
C21 C 0.67295(17) 0.29012(14) 0.67101(13)
C22 C 0.56583(18) 0.27889(15) 0.62671(13)
F1 F 0.48942(10) 0.32156(9) 0.65283(8)
C23 C 0.5298(2) 0.22226(17) 0.55471(14)
F2 F 0.42435(12) 0.21193(12) 0.51597(9)
C24 C 0.6014(2) 0.17461(17) 0.52454(14)
F3 F 0.56819(16) 0.11703(11) 0.45672(9)
C25 C 0.7087(2) 0.18414(15) 0.56541(14)
F4 F 0.78037(14) 0.13781(9) 0.53640(9)
C26 C 0.74132(18) 0.24077(14) 0.63620(13)
F5 F 0.84790(10) 0.24712(9) 0.67348(8)
C27 C 0.76226(16) 0.27361(13) 0.83885(13)
C28 C 0.69027(16) 0.21963(14) 0.86510(13)
F6 F 0.58405(9) 0.23071(8) 0.82623(8)
C29 C 0.71793(17) 0.15404(14) 0.92935(13)
F7 F 0.64316(10) 0.10436(9) 0.95118(8)
C30 C 0.82462(18) 0.13858(15) 0.97121(13)
F8 F 0.85407(11) 0.07428(9) 1.03317(8)
C31 C 0.89960(17) 0.18950(15) 0.94733(14)
F9 F 1.00444(10) 0.17454(10) 0.98711(9)
C32 C 0.86784(16) 0.25519(14) 0.88349(14)
F10 F 0.94738(9) 0.30313(9) 0.86552(8)
loop_
_geom_bond_atom_site_label_1
_geom_bond_atom_site_label_2
_geom_bond_site_symmetry_1
_geom_bond_site_symmetry_2
C1 C2 1_555 1_555
C2 H1 1_555 1_555
C3 C1 1_555 1_555
H2 C3 1_555 1_555
H3 C3 1_555 1_555
C4 C3 1_555 1_555
H4 C4 1_555 1_555
C5 C4 1_555 1_555
H5 C5 1_555 1_555
N1 C1 1_555 1_555
H6 N1 1_555 1_555
C6 N1 1_555 1_555
C7 C6 1_555 1_555
H7 C7 1_555 1_555
H8 C7 1_555 1_555
C8 C7 1_555 1_555
H9 C8 1_555 1_555
H10 C8 1_555 1_555
C9 C8 1_555 1_555
H11 C9 1_555 1_555
H12 C9 1_555 1_555
C10 N1 1_555 1_555
C11 C6 1_555 1_555
H13 C11 1_555 1_555
H14 C11 1_555 1_555
H15 C11 1_555 1_555
C12 C6 1_555 1_555
H16 C12 1_555 1_555
H17 C12 1_555 1_555
H18 C12 1_555 1_555
C13 C10 1_555 1_555
H19 C13 1_555 1_555
H20 C13 1_555 1_555
H21 C13 1_555 1_555
C14 C10 1_555 1_555
H22 C14 1_555 1_555
H23 C14 1_555 1_555
H24 C14 1_555 1_555
C15 C5 1_555 1_555
C16 C15 1_555 1_555
H25 C16 1_555 1_555
C17 C16 1_555 1_555
H26 C17 1_555 1_555
C18 C17 1_555 1_555
H27 C18 1_555 1_555
C19 C18 1_555 1_555
H28 C19 1_555 1_555
C20 C15 1_555 1_555
H29 C20 1_555 1_555
B1 C2 1_555 1_555
H30 B1 1_555 1_555
C21 B1 1_555 1_555
C22 C21 1_555 1_555
F1 C22 1_555 1_555
C23 C22 1_555 1_555
F2 C23 1_555 1_555
C24 C23 1_555 1_555
F3 C24 1_555 1_555
C25 C24 1_555 1_555
F4 C25 1_555 1_555
C26 C21 1_555 1_555
F5 C26 1_555 1_555
C27 B1 1_555 1_555
C28 C27 1_555 1_555
F6 C28 1_555 1_555
C29 C28 1_555 1_555
F7 C29 1_555 1_555
C30 C29 1_555 1_555
F8 C30 1_555 1_555
C31 C30 1_555 1_555
F9 C31 1_555 1_555
C32 C27 1_555 1_555
F10 C32 1_555 1_555
C9 C10 1_555 1_555
C19 C20 1_555 1_555
C25 C26 1_555 1_555
C31 C32 1_555 1_555

#END
