
#######################################################################
#
#                 Cambridge Crystallographic Data Centre
#                                CCDC 
#
#######################################################################
#
# If this CIF has been generated from an entry in the Cambridge 
# Structural Database, then it will include bibliographic, chemical, 
# crystal, experimental, refinement or atomic coordinate data resulting 
# from the CCDC's data processing and validation procedures.
#
#######################################################################

data_SIBTAZ01
_chemical_formula_moiety         'C21 H8 Br1 Cl2 F2 N1'
_chemical_name_systematic        
4-Bromo-3,5-difluoro-2,6-bis(2-chlorophenylethynyl)pyridine
_symmetry_cell_setting           orthorhombic
_symmetry_space_group_name_H-M   'P 21 21 2'
_symmetry_Int_Tables_number      18
_space_group_name_Hall           'P 2 2ab'
loop_
_symmetry_equiv_pos_site_id
_symmetry_equiv_pos_as_xyz
1 x,y,z
2 -x,-y,z
3 1/2-x,1/2+y,-z
4 1/2+x,1/2-y,-z
_cell_length_a                   31.194(1)
_cell_length_b                   3.8128(2)
_cell_length_c                   7.6002(4)
_cell_angle_alpha                90
_cell_angle_beta                 90
_cell_angle_gamma                90
_cell_volume                     903.941
_exptl_crystal_colour            colorless
_exptl_crystal_description       plate
_chemical_melting_point          '196.4-197.6 deg.C'
_cell_formula_units_Z            2
loop_
_atom_site_label
_atom_site_type_symbol
_atom_site_fract_x
_atom_site_fract_y
_atom_site_fract_z
Br1 Br 0.5000 0.5000 -0.06873(9)
Cl1 Cl 0.68232(3) 1.0088(6) 0.44068(18)
F1 F 0.56831(9) 0.7634(7) 0.1917(4)
N1 N 0.5000 0.5000 0.5493(7)
C1 C 0.53336(14) 0.6351(11) 0.4583(6)
C2 C 0.53374(14) 0.6290(11) 0.2757(7)
C3 C 0.5000 0.5000 0.1732(8)
C4 C 0.56832(15) 0.7853(12) 0.5543(7)
C5 C 0.59775(15) 0.9222(11) 0.6304(6)
C6 C 0.63182(14) 1.0802(11) 0.7287(6)
C7 C 0.67241(16) 1.1334(13) 0.6574(7)
C8 C 0.70539(16) 1.2825(14) 0.7540(8)
H1 H 0.7329 1.3146 0.7032
C9 C 0.69746(17) 1.3842(12) 0.9266(8)
H2 H 0.7199 1.4855 0.9943
C10 C 0.65765(18) 1.3402(14) 1.0004(7)
H3 H 0.6526 1.4129 1.1181
C11 C 0.62467(15) 1.1886(12) 0.9024(7)
H4 H 0.5972 1.1587 0.9538
Cl1A Cl 0.31768(3) -0.0088(6) 0.44068(18)
F1A F 0.43169(9) 0.2366(7) 0.1917(4)
C1A C 0.46664(14) 0.3649(11) 0.4583(6)
C2A C 0.46626(14) 0.3710(11) 0.2757(7)
C4A C 0.43168(15) 0.2147(12) 0.5543(7)
C5A C 0.40225(15) 0.0778(11) 0.6304(6)
C6A C 0.36818(14) -0.0802(11) 0.7287(6)
C7A C 0.32759(16) -0.1334(13) 0.6574(7)
C8A C 0.29461(16) -0.2825(14) 0.7540(8)
H1A H 0.2671 -0.3146 0.7032
C9A C 0.30254(17) -0.3842(12) 0.9266(8)
H2A H 0.2801 -0.4855 0.9943
C10A C 0.34235(18) -0.3402(14) 1.0004(7)
H3A H 0.3474 -0.4129 1.1181
C11A C 0.37533(15) -0.1886(12) 0.9024(7)
H4A H 0.4028 -0.1587 0.9538
loop_
_geom_bond_atom_site_label_1
_geom_bond_atom_site_label_2
_geom_bond_site_symmetry_1
_geom_bond_site_symmetry_2
Br1 C3 1_555 1_555
Cl1 C7 1_555 1_555
F1 C2 1_555 1_555
N1 C1 1_555 1_555
C1 C2 1_555 1_555
C2 C3 1_555 1_555
C3 C2A 1_555 1_555
C4 C1 1_555 1_555
C5 C4 1_555 1_555
C6 C5 1_555 1_555
C7 C6 1_555 1_555
C8 C7 1_555 1_555
H1 C8 1_555 1_555
C9 C8 1_555 1_555
H2 C9 1_555 1_555
C10 C9 1_555 1_555
H3 C10 1_555 1_555
C11 C6 1_555 1_555
H4 C11 1_555 1_555
Cl1A C7A 1_555 1_555
F1A C2A 1_555 1_555
C1A N1 1_555 1_555
C2A C1A 1_555 1_555
C4A C1A 1_555 1_555
C5A C4A 1_555 1_555
C6A C5A 1_555 1_555
C7A C6A 1_555 1_555
C8A C7A 1_555 1_555
H1A C8A 1_555 1_555
C9A C8A 1_555 1_555
H2A C9A 1_555 1_555
C10A C9A 1_555 1_555
H3A C10A 1_555 1_555
C11A C6A 1_555 1_555
H4A C11A 1_555 1_555
C10 C11 1_555 1_555
C10A C11A 1_555 1_555

#END
