
#######################################################################
#
#                 Cambridge Crystallographic Data Centre
#                                CCDC 
#
#######################################################################
#
# If this CIF has been generated from an entry in the Cambridge 
# Structural Database, then it will include bibliographic, chemical, 
# crystal, experimental, refinement or atomic coordinate data resulting 
# from the CCDC's data processing and validation procedures.
#
#######################################################################

data_SIDDER
_chemical_compound_source        'leaves of Cleistocalyx operculatus'
_chemical_name_common            'cleistoperlone B chloroform solvate'
_chemical_formula_moiety         'C36 H34 O8,0.33(C1 H1 Cl3)'
_chemical_name_systematic        
'4,11-dihydroxy-9-methoxy-6,6,7a,12-tetramethyl-2-phenyl-10-(3-phenylacryloyl)-7a,8-dihydro-2H-pyrano[3,2-d]xanthene-5,7(3H,6H)-dione chloroform solvate'
_symmetry_cell_setting           rhombohedral
_symmetry_space_group_name_H-M   'R 3'
_symmetry_Int_Tables_number      146
_space_group_name_Hall           'R 3'
loop_
_symmetry_equiv_pos_site_id
_symmetry_equiv_pos_as_xyz
1 x,y,z
2 -y,x-y,z
3 -x+y,-x,z
4 2/3+x,1/3+y,1/3+z
5 2/3-y,1/3+x-y,1/3+z
6 2/3-x+y,1/3-x,1/3+z
7 1/3+x,2/3+y,2/3+z
8 1/3-y,2/3+x-y,2/3+z
9 1/3-x+y,2/3-x,2/3+z
_cell_length_a                   30.9223(3)
_cell_length_b                   30.9223(3)
_cell_length_c                   8.33380(10)
_cell_angle_alpha                90
_cell_angle_beta                 90
_cell_angle_gamma                120
_cell_volume                     6901.08
_exptl_crystal_colour            yellow
_exptl_crystal_description       blocks
_cell_formula_units_Z            9
loop_
_atom_site_label
_atom_site_type_symbol
_atom_site_fract_x
_atom_site_fract_y
_atom_site_fract_z
Cl1 Cl 0.66638(2) 0.38707(2) 0.26745(8)
C1 C 0.666667 0.333333 0.3343(5)
H1 H 0.666667 0.333333 0.451883
Cl1A Cl 0.61293(2) 0.27931(3) 0.26745(8)
Cl1B Cl 0.72069(3) 0.33362(2) 0.26745(8)
O1 O 0.76098(5) 0.57744(5) 0.64599(17)
O2 O 0.60621(5) 0.49127(5) 0.36460(15)
O3 O 0.74779(5) 0.50045(6) 0.12901(18)
H2 H 0.775945 0.506164 0.152082
O4 O 0.82988(5) 0.54158(6) 0.28579(19)
O5 O 0.58010(5) 0.45068(5) 0.61094(16)
O6 O 0.65097(6) 0.61610(6) 0.4613(2)
O7 O 0.47835(6) 0.50630(6) 0.3662(2)
O8 O 0.44274(5) 0.41470(6) 0.44079(18)
H3 H 0.441985 0.439242 0.407183
C2 C 0.73462(7) 0.55120(7) 0.5131(2)
C3 C 0.68385(7) 0.53480(7) 0.5118(2)
C4 C 0.65656(7) 0.50808(7) 0.3773(2)
C5 C 0.67731(7) 0.49706(7) 0.2467(2)
C6 C 0.72817(7) 0.51260(7) 0.2547(2)
C7 C 0.75853(7) 0.54149(7) 0.3846(2)
C8 C 0.81285(7) 0.56217(7) 0.3736(2)
C9 C 0.84702(7) 0.60934(7) 0.4555(3)
H4 H 0.833988 0.623744 0.523848
C10 C 0.89657(7) 0.63194(7) 0.4334(2)
H5 H 0.908593 0.615928 0.367972
C11 C 0.93337(7) 0.67995(8) 0.5043(3)
C12 C 0.98331(8) 0.70101(8) 0.4575(3)
H6 H 0.992290 0.684593 0.382616
C13 C 1.01970(8) 0.74626(9) 0.5217(3)
H7 H 1.052733 0.760132 0.488682
C14 C 1.00677(9) 0.77056(9) 0.6343(3)
H8 H 1.031132 0.800790 0.677195
C15 C 0.95733(9) 0.74990(9) 0.6837(3)
H9 H 0.948800 0.766129 0.760681
C16 C 0.92072(8) 0.70508(8) 0.6184(3)
H10 H 0.887651 0.691683 0.650427
C17 C 0.65940(7) 0.54659(7) 0.6486(2)
H11 H 0.680344 0.581202 0.680115
H12 H 0.656107 0.525782 0.740096
C18 C 0.64629(8) 0.47092(8) 0.1019(2)
H13 H 0.616286 0.441471 0.135137
H14 H 0.664933 0.461695 0.031613
H15 H 0.637796 0.492869 0.046448
C19 C 0.77090(9) 0.54820(8) 0.7587(3)
H16 H 0.790003 0.535469 0.707035
H17 H 0.739894 0.520859 0.796235
H18 H 0.789431 0.568774 0.847915
C20 C 0.57970(7) 0.48708(7) 0.5132(2)
C21 C 0.60787(7) 0.53760(7) 0.6002(2)
C22 C 0.61241(7) 0.57692(7) 0.4780(2)
C23 C 0.56607(7) 0.56669(7) 0.3780(2)
C24 C 0.52116(7) 0.51466(7) 0.4026(2)
C25 C 0.52829(7) 0.47489(7) 0.4624(2)
C26 C 0.48922(7) 0.42757(7) 0.4793(2)
C27 C 0.49578(7) 0.38630(7) 0.5469(3)
H19 H 0.476546 0.356214 0.483961
H20 H 0.483395 0.379369 0.656211
C28 C 0.55081(7) 0.40087(7) 0.5447(2)
H21 H 0.561193 0.400964 0.433532
C29 C 0.56216(7) 0.36684(7) 0.6433(3)
C30 C 0.56775(8) 0.32982(8) 0.5682(3)
H22 H 0.564151 0.325790 0.457468
C31 C 0.57884(9) 0.29853(9) 0.6599(4)
H23 H 0.582396 0.273611 0.609790
C32 C 0.58445(8) 0.30454(9) 0.8231(4)
H24 H 0.592577 0.284221 0.882949
C33 C 0.57802(9) 0.34088(9) 0.8991(3)
H25 H 0.581219 0.344556 1.009940
C34 C 0.56673(8) 0.37188(8) 0.8083(3)
H26 H 0.562234 0.396113 0.859200
C35 C 0.57954(7) 0.54042(8) 0.7483(3)
H27 H 0.548392 0.537326 0.715047
H28 H 0.599337 0.571900 0.801334
H29 H 0.573227 0.513777 0.820910
C36 C 0.58021(8) 0.57114(8) 0.1982(3)
H30 H 0.608875 0.603321 0.178193
H31 H 0.552699 0.567320 0.134166
H32 H 0.587828 0.545535 0.170576
C37 C 0.55278(8) 0.60694(8) 0.4214(3)
H33 H 0.545703 0.605287 0.534106
H34 H 0.523934 0.601385 0.361419
H35 H 0.580391 0.639304 0.395779
loop_
_geom_bond_atom_site_label_1
_geom_bond_atom_site_label_2
_geom_bond_site_symmetry_1
_geom_bond_site_symmetry_2
Cl1 C1 1_555 1_555
C1 H1 1_555 1_555
O1 C2 1_555 1_555
O2 C4 1_555 1_555
O3 H2 1_555 1_555
O4 C8 1_555 1_555
O5 C20 1_555 1_555
O6 C22 1_555 1_555
O7 C24 1_555 1_555
O8 H3 1_555 1_555
C2 C3 1_555 1_555
C3 C4 1_555 1_555
C4 C5 1_555 1_555
C5 C6 1_555 1_555
C6 O3 1_555 1_555
C7 C2 1_555 1_555
C8 C7 1_555 1_555
C9 C8 1_555 1_555
H4 C9 1_555 1_555
C10 C9 1_555 1_555
H5 C10 1_555 1_555
C11 C10 1_555 1_555
C12 C11 1_555 1_555
H6 C12 1_555 1_555
C13 C12 1_555 1_555
H7 C13 1_555 1_555
C14 C13 1_555 1_555
H8 C14 1_555 1_555
C15 C14 1_555 1_555
H9 C15 1_555 1_555
C16 C11 1_555 1_555
H10 C16 1_555 1_555
C17 C3 1_555 1_555
H11 C17 1_555 1_555
H12 C17 1_555 1_555
C18 C5 1_555 1_555
H13 C18 1_555 1_555
H14 C18 1_555 1_555
H15 C18 1_555 1_555
C19 O1 1_555 1_555
H16 C19 1_555 1_555
H17 C19 1_555 1_555
H18 C19 1_555 1_555
C20 O2 1_555 1_555
C21 C17 1_555 1_555
C22 C21 1_555 1_555
C23 C22 1_555 1_555
C24 C23 1_555 1_555
C25 C20 1_555 1_555
C26 O8 1_555 1_555
C27 C26 1_555 1_555
H19 C27 1_555 1_555
H20 C27 1_555 1_555
C28 O5 1_555 1_555
H21 C28 1_555 1_555
C29 C28 1_555 1_555
C30 C29 1_555 1_555
H22 C30 1_555 1_555
C31 C30 1_555 1_555
H23 C31 1_555 1_555
C32 C31 1_555 1_555
H24 C32 1_555 1_555
C33 C32 1_555 1_555
H25 C33 1_555 1_555
C34 C29 1_555 1_555
H26 C34 1_555 1_555
C35 C21 1_555 1_555
H27 C35 1_555 1_555
H28 C35 1_555 1_555
H29 C35 1_555 1_555
C36 C23 1_555 1_555
H30 C36 1_555 1_555
H31 C36 1_555 1_555
H32 C36 1_555 1_555
C37 C23 1_555 1_555
H33 C37 1_555 1_555
H34 C37 1_555 1_555
H35 C37 1_555 1_555
Cl1A C1 1_555 1_555
Cl1B C1 1_555 1_555
C6 C7 1_555 1_555
C15 C16 1_555 1_555
C20 C21 1_555 1_555
C24 C25 1_555 1_555
C25 C26 1_555 1_555
C27 C28 1_555 1_555
C33 C34 1_555 1_555

#END
