
#######################################################################
#
#                 Cambridge Crystallographic Data Centre
#                                CCDC 
#
#######################################################################
#
# If this CIF has been generated from an entry in the Cambridge 
# Structural Database, then it will include bibliographic, chemical, 
# crystal, experimental, refinement or atomic coordinate data resulting 
# from the CCDC's data processing and validation procedures.
#
#######################################################################

data_SIDHOD01
_chemical_formula_moiety         'C14 H10 O2 Se2'
_chemical_name_systematic        2,2'-Diselane-1,2-diyldibenzaldehyde
_symmetry_cell_setting           monoclinic
_symmetry_space_group_name_H-M   'P 21/c'
_symmetry_Int_Tables_number      14
_space_group_name_Hall           '-P 2ybc'
loop_
_symmetry_equiv_pos_site_id
_symmetry_equiv_pos_as_xyz
1 x,y,z
2 -x,1/2+y,1/2-z
3 -x,-y,-z
4 x,1/2-y,1/2+z
_cell_length_a                   7.84939(15)
_cell_length_b                   17.0080(3)
_cell_length_c                   19.9127(4)
_cell_angle_alpha                90
_cell_angle_beta                 93.9223(18)
_cell_angle_gamma                90
_cell_volume                     2652.17
_exptl_crystal_colour            colorless
_exptl_crystal_description       needle
_cell_formula_units_Z            8
loop_
_atom_site_label
_atom_site_type_symbol
_atom_site_fract_x
_atom_site_fract_y
_atom_site_fract_z
Se1 Se 0.18383(5) 0.66449(2) 0.38846(2)
Se2 Se 0.29473(6) 0.77100(2) 0.45120(2)
O1 O 0.0581(3) 0.56061(18) 0.29196(15)
O2 O 0.4049(6) 0.8929(2) 0.5298(2)
C1 C 0.3787(4) 0.63100(19) 0.34219(16)
C2 C 0.5427(5) 0.6562(3) 0.3612(2)
H1 H 0.5608 0.6913 0.3968
C3 C 0.6793(5) 0.6295(3) 0.3274(2)
H2 H 0.7889 0.6462 0.3413
C4 C 0.6572(5) 0.5787(3) 0.2737(2)
H3 H 0.7503 0.5620 0.2509
C5 C 0.4964(5) 0.5535(2) 0.25441(18)
H4 H 0.4799 0.5187 0.2185
C6 C 0.3562(4) 0.5793(2) 0.28788(17)
C7 C 0.1867(5) 0.5494(2) 0.2640(2)
H5 H 0.1787 0.5199 0.2246
C8 C 0.3878(5) 0.7210(2) 0.53333(19)
C9 C 0.3872(6) 0.6411(3) 0.5421(2)
H6 H 0.3407 0.6086 0.5080
C10 C 0.4558(7) 0.6089(4) 0.6017(3)
H7 H 0.4539 0.5546 0.6074
C11 C 0.5269(7) 0.6554(4) 0.6529(3)
H8 H 0.5729 0.6329 0.6927
C12 C 0.5286(7) 0.7349(4) 0.6443(3)
H9 H 0.5776 0.7665 0.6785
C13 C 0.4580(6) 0.7704(3) 0.5846(2)
C14 C 0.4626(9) 0.8562(4) 0.5775(3)
H10 H 0.5148 0.8846 0.6131
Se3 Se -0.19637(5) 0.35364(3) 0.22406(2)
Se4 Se -0.08366(6) 0.25345(2) 0.29394(2)
O3 O -0.3160(3) 0.46566(18) 0.13542(14)
O4 O 0.0192(7) 0.1430(2) 0.3877(2)
C15 C -0.0049(4) 0.3800(2) 0.17263(16)
C16 C 0.1548(5) 0.3443(2) 0.1834(2)
H11 H 0.1709 0.3051 0.2158
C17 C 0.2896(5) 0.3669(3) 0.1462(2)
H12 H 0.3947 0.3419 0.1537
C18 C 0.2719(5) 0.4252(3) 0.0983(2)
H13 H 0.3641 0.4409 0.0747
C19 C 0.1139(5) 0.4596(2) 0.08638(18)
H14 H 0.0995 0.4984 0.0536
C20 C -0.0251(4) 0.43762(19) 0.12240(16)
C21 C -0.1900(5) 0.4764(2) 0.10601(19)
H15 H -0.1970 0.5118 0.0703
C22 C 0.0054(5) 0.3128(2) 0.37132(19)
C23 C 0.0148(5) 0.3948(2) 0.3716(2)
H16 H -0.0248 0.4227 0.3335
C24 C 0.0808(6) 0.4348(3) 0.4267(2)
H17 H 0.0859 0.4894 0.4256
C25 C 0.1408(6) 0.3951(4) 0.4847(2)
H18 H 0.1857 0.4227 0.5221
C26 C 0.1326(6) 0.3137(4) 0.4858(2)
H19 H 0.1722 0.2865 0.5243
C27 C 0.0655(5) 0.2726(3) 0.4299(2)
C28 C 0.0616(8) 0.1863(4) 0.4332(3)
H20 H 0.0950 0.1632 0.4743
loop_
_geom_bond_atom_site_label_1
_geom_bond_atom_site_label_2
_geom_bond_site_symmetry_1
_geom_bond_site_symmetry_2
Se1 Se2 1_555 1_555
Se2 C8 1_555 1_555
O1 C7 1_555 1_555
O2 C14 1_555 1_555
C1 Se1 1_555 1_555
C2 C1 1_555 1_555
H1 C2 1_555 1_555
C3 C2 1_555 1_555
H2 C3 1_555 1_555
C4 C3 1_555 1_555
H3 C4 1_555 1_555
C5 C4 1_555 1_555
H4 C5 1_555 1_555
C6 C1 1_555 1_555
C7 C6 1_555 1_555
H5 C7 1_555 1_555
C8 C9 1_555 1_555
C9 H6 1_555 1_555
C10 C9 1_555 1_555
H7 C10 1_555 1_555
C11 C10 1_555 1_555
H8 C11 1_555 1_555
C12 C11 1_555 1_555
H9 C12 1_555 1_555
C13 C8 1_555 1_555
C14 C13 1_555 1_555
H10 C14 1_555 1_555
Se3 Se4 1_555 1_555
Se4 C22 1_555 1_555
O3 C21 1_555 1_555
O4 C28 1_555 1_555
C15 Se3 1_555 1_555
C16 C15 1_555 1_555
H11 C16 1_555 1_555
C17 C16 1_555 1_555
H12 C17 1_555 1_555
C18 C17 1_555 1_555
H13 C18 1_555 1_555
C19 C18 1_555 1_555
H14 C19 1_555 1_555
C20 C15 1_555 1_555
C21 C20 1_555 1_555
H15 C21 1_555 1_555
C22 C23 1_555 1_555
C23 H16 1_555 1_555
C24 C23 1_555 1_555
H17 C24 1_555 1_555
C25 C24 1_555 1_555
H18 C25 1_555 1_555
C26 C25 1_555 1_555
H19 C26 1_555 1_555
C27 C22 1_555 1_555
C28 C27 1_555 1_555
H20 C28 1_555 1_555
C5 C6 1_555 1_555
C12 C13 1_555 1_555
C19 C20 1_555 1_555
C26 C27 1_555 1_555

#END
