
#######################################################################
#
#                 Cambridge Crystallographic Data Centre
#                                CCDC 
#
#######################################################################
#
# If this CIF has been generated from an entry in the Cambridge 
# Structural Database, then it will include bibliographic, chemical, 
# crystal, experimental, refinement or atomic coordinate data resulting 
# from the CCDC's data processing and validation procedures.
#
#######################################################################

data_SIFHIZ
_chemical_formula_moiety         'C16 H16 N4 2+,2(C6 H2 N3 O7 1-)'
_chemical_name_systematic        
"2,2'-ethane-1,2-diyl-dibenzimidazolium dipicrate"
_symmetry_cell_setting           triclinic
_symmetry_space_group_name_H-M   'P -1'
_symmetry_Int_Tables_number      2
_space_group_name_Hall           '-P 1'
loop_
_symmetry_equiv_pos_site_id
_symmetry_equiv_pos_as_xyz
1 x,y,z
2 -x,-y,-z
_cell_length_a                   7.320(2)
_cell_length_b                   9.042(3)
_cell_length_c                   12.231(3)
_cell_angle_alpha                82.969(3)
_cell_angle_beta                 81.734(3)
_cell_angle_gamma                68.090(3)
_cell_volume                     741.177
_cell_formula_units_Z            1
loop_
_atom_site_label
_atom_site_type_symbol
_atom_site_fract_x
_atom_site_fract_y
_atom_site_fract_z
N1 N 0.3518(3) 0.8152(2) 0.42375(16)
H1 H 0.3531 0.7833 0.3601
N2 N 0.4094(3) 0.8125(2) 0.59247(15)
H2 H 0.4537 0.7787 0.6558
C1 C 0.4422(4) 0.7232(3) 0.50817(19)
C2 C 0.2920(3) 0.9693(3) 0.56256(18)
C3 C 0.2550(3) 0.9706(3) 0.45440(19)
C4 C 0.1427(3) 1.1088(3) 0.3962(2)
H3 H 0.1192 1.1091 0.3234
C5 C 0.0684(4) 1.2447(3) 0.4522(2)
H4 H -0.0066 1.3402 0.4161
C6 C 0.1020(4) 1.2443(3) 0.5625(2)
H5 H 0.0476 1.3389 0.5978
C7 C 0.2136(4) 1.1068(3) 0.6193(2)
H6 H 0.2355 1.1061 0.6924
C8 C 0.5614(4) 0.5498(3) 0.5067(2)
H7 H 0.6221 0.5131 0.5753
H8 H 0.6667 0.5331 0.4463
N1A N 0.6482(3) 0.1848(2) 0.57625(16)
H1A H 0.6469 0.2167 0.6399
N2A N 0.5906(3) 0.1875(2) 0.40753(15)
H2A H 0.5463 0.2213 0.3442
C1A C 0.5578(4) 0.2768(3) 0.49183(19)
C2A C 0.7080(3) 0.0307(3) 0.43744(18)
C3A C 0.7450(3) 0.0294(3) 0.54560(19)
C4A C 0.8573(3) -0.1088(3) 0.6038(2)
H3A H 0.8808 -0.1091 0.6766
C5A C 0.9316(4) -0.2447(3) 0.5478(2)
H4A H 1.0066 -0.3402 0.5839
C6A C 0.8980(4) -0.2443(3) 0.4375(2)
H5A H 0.9524 -0.3389 0.4022
C7A C 0.7864(4) -0.1068(3) 0.3807(2)
H6A H 0.7645 -0.1061 0.3076
C8A C 0.4386(4) 0.4502(3) 0.4933(2)
H7A H 0.3779 0.4869 0.4247
H8A H 0.3333 0.4669 0.5537
N3 N 0.4092(5) 0.1231(3) 0.1170(2)
N4 N 0.1927(3) 0.5208(3) -0.18823(18)
N5 N 0.2263(4) 0.7008(3) 0.16321(18)
O1 O 0.3624(3) 0.3765(2) 0.24911(14)
O2 O 0.5398(5) 0.0737(3) 0.1767(2)
O3 O 0.3288(4) 0.0395(3) 0.0890(2)
O4 O 0.2019(4) 0.4126(3) -0.24293(16)
O5 O 0.1511(4) 0.6600(3) -0.22627(16)
O6 O 0.0863(4) 0.8255(3) 0.14983(19)
O7 O 0.3472(4) 0.6810(3) 0.22960(17)
C9 C 0.3286(4) 0.4087(3) 0.1501(2)
C10 C 0.3430(4) 0.2911(3) 0.0755(2)
C11 C 0.2961(4) 0.3259(3) -0.0311(2)
H9 H 0.3057 0.2449 -0.0741
C12 C 0.2339(4) 0.4834(3) -0.07406(19)
C13 C 0.2101(4) 0.6053(3) -0.00913(19)
H10 H 0.1632 0.7112 -0.0377
C14 C 0.2564(4) 0.5682(3) 0.09805(19)
loop_
_geom_bond_atom_site_label_1
_geom_bond_atom_site_label_2
_geom_bond_site_symmetry_1
_geom_bond_site_symmetry_2
N1 H1 1_555 1_555
N2 H2 1_555 1_555
N3 O2 1_555 1_555
N4 O4 1_555 1_555
N5 O6 1_555 1_555
O1 C9 1_555 1_555
O3 N3 1_555 1_555
O5 N4 1_555 1_555
O7 N5 1_555 1_555
C1 N1 1_555 1_555
C2 N2 1_555 1_555
C3 N1 1_555 1_555
C4 C3 1_555 1_555
H3 C4 1_555 1_555
C5 C4 1_555 1_555
H4 C5 1_555 1_555
C6 C5 1_555 1_555
H5 C6 1_555 1_555
C7 C2 1_555 1_555
H6 C7 1_555 1_555
C8 C1 1_555 1_555
H7 C8 1_555 1_555
H8 C8 1_555 1_555
C9 C10 1_555 1_555
C10 N3 1_555 1_555
C11 C10 1_555 1_555
H9 C11 1_555 1_555
C12 N4 1_555 1_555
C13 C12 1_555 1_555
H10 C13 1_555 1_555
C14 N5 1_555 1_555
N1A H1A 1_555 1_555
N2A H2A 1_555 1_555
C1A N1A 1_555 1_555
C2A N2A 1_555 1_555
C3A N1A 1_555 1_555
C4A C3A 1_555 1_555
H3A C4A 1_555 1_555
C5A C4A 1_555 1_555
H4A C5A 1_555 1_555
C6A C5A 1_555 1_555
H5A C6A 1_555 1_555
C7A C2A 1_555 1_555
H6A C7A 1_555 1_555
C8A C8 1_555 1_555
H7A C8A 1_555 1_555
H8A C8A 1_555 1_555
N2 C1 1_555 1_555
C2 C3 1_555 1_555
C6 C7 1_555 1_555
C9 C14 1_555 1_555
C11 C12 1_555 1_555
C13 C14 1_555 1_555
N2A C1A 1_555 1_555
C1A C8A 1_555 1_555
C2A C3A 1_555 1_555
C6A C7A 1_555 1_555

#END
