
#######################################################################
#
#                 Cambridge Crystallographic Data Centre
#                                CCDC 
#
#######################################################################
#
# If this CIF has been generated from an entry in the Cambridge 
# Structural Database, then it will include bibliographic, chemical, 
# crystal, experimental, refinement or atomic coordinate data resulting 
# from the CCDC's data processing and validation procedures.
#
#######################################################################

data_SIFWAI
_chemical_formula_moiety         'C16 H16 N2 O2'
_chemical_name_systematic        
2-(2-(phenoxymethyl)-1H-benzimidazol-1-yl)ethanol
_symmetry_cell_setting           orthorhombic
_symmetry_space_group_name_H-M   'P 21 21 21'
_symmetry_Int_Tables_number      19
_space_group_name_Hall           'P 2ac 2ab'
loop_
_symmetry_equiv_pos_site_id
_symmetry_equiv_pos_as_xyz
1 x,y,z
2 1/2-x,-y,1/2+z
3 1/2+x,1/2-y,-z
4 -x,1/2+y,1/2-z
_cell_length_a                   4.3074(8)
_cell_length_b                   14.133(3)
_cell_length_c                   22.807(4)
_cell_angle_alpha                90
_cell_angle_beta                 90
_cell_angle_gamma                90
_cell_volume                     1388.41
_exptl_crystal_colour            colorless
_exptl_crystal_description       block
_cell_formula_units_Z            4
loop_
_atom_site_label
_atom_site_type_symbol
_atom_site_fract_x
_atom_site_fract_y
_atom_site_fract_z
O1 O 0.1425(4) 0.13311(10) 0.14757(7)
O2 O 0.2167(6) 0.41130(12) 0.24385(9)
H1 H 0.1559 0.4599 0.2279
N1 N 0.3200(4) 0.21127(10) 0.26587(7)
N2 N 0.0477(5) 0.08151(11) 0.28809(8)
C1 C 0.1957(5) 0.22654(13) 0.32059(9)
C2 C 0.0267(5) 0.14525(15) 0.33402(9)
C3 C -0.1315(7) 0.1383(2) 0.38721(11)
H2 H -0.2465 0.0848 0.3969
C4 C -0.1090(9) 0.2148(3) 0.42487(11)
H3 H -0.2108 0.2126 0.4608
C5 C 0.0617(9) 0.2945(2) 0.41027(12)
H4 H 0.0715 0.3441 0.4370
C6 C 0.2142(7) 0.30304(17) 0.35883(11)
H5 H 0.3259 0.3573 0.3494
C7 C 0.2241(5) 0.12361(12) 0.24908(9)
C8 C 0.5287(5) 0.27451(15) 0.23389(11)
H6 H 0.6453 0.2377 0.2056
H7 H 0.6760 0.3017 0.2613
C9 C 0.3647(6) 0.35347(15) 0.20231(12)
H8 H 0.5131 0.3904 0.1800
H9 H 0.2127 0.3276 0.1753
C10 C 0.3047(6) 0.08053(14) 0.19157(9)
H10 H 0.5269 0.0839 0.1850
H11 H 0.2420 0.0146 0.1906
C11 C 0.1724(6) 0.10330(14) 0.09055(10)
C12 C 0.3319(8) 0.02429(16) 0.07328(11)
H12 H 0.4309 -0.0136 0.1009
C13 C 0.3445(10) 0.0013(2) 0.01417(12)
H13 H 0.4544 -0.0521 0.0024
C14 C 0.2004(9) 0.0549(2) -0.02675(13)
H14 H 0.2097 0.0382 -0.0662
C15 C 0.0407(8) 0.1338(2) -0.00944(13)
H15 H -0.0586 0.1710 -0.0374
C16 C 0.0255(7) 0.1589(2) 0.04903(13)
H16 H -0.0828 0.2127 0.0604
loop_
_geom_bond_atom_site_label_1
_geom_bond_atom_site_label_2
_geom_bond_site_symmetry_1
_geom_bond_site_symmetry_2
O1 C10 1_555 1_555
O2 H1 1_555 1_555
N1 C1 1_555 1_555
N2 C2 1_555 1_555
C1 C2 1_555 1_555
C2 C3 1_555 1_555
C3 H2 1_555 1_555
C4 C3 1_555 1_555
H3 C4 1_555 1_555
C5 C4 1_555 1_555
H4 C5 1_555 1_555
C6 C1 1_555 1_555
H5 C6 1_555 1_555
C7 N1 1_555 1_555
C8 N1 1_555 1_555
H6 C8 1_555 1_555
H7 C8 1_555 1_555
C9 O2 1_555 1_555
H8 C9 1_555 1_555
H9 C9 1_555 1_555
C10 C7 1_555 1_555
H10 C10 1_555 1_555
H11 C10 1_555 1_555
C11 O1 1_555 1_555
C12 C11 1_555 1_555
H12 C12 1_555 1_555
C13 C12 1_555 1_555
H13 C13 1_555 1_555
C14 C13 1_555 1_555
H14 C14 1_555 1_555
C15 C14 1_555 1_555
H15 C15 1_555 1_555
C16 C11 1_555 1_555
H16 C16 1_555 1_555
N2 C7 1_555 1_555
C5 C6 1_555 1_555
C8 C9 1_555 1_555
C15 C16 1_555 1_555

#END
