
#######################################################################
#
#                 Cambridge Crystallographic Data Centre
#                                CCDC 
#
#######################################################################
#
# If this CIF has been generated from an entry in the Cambridge 
# Structural Database, then it will include bibliographic, chemical, 
# crystal, experimental, refinement or atomic coordinate data resulting 
# from the CCDC's data processing and validation procedures.
#
#######################################################################

data_SIGBOZ
_chemical_formula_moiety         'C9 H14 N4 O7'
_chemical_name_systematic        N,N'-Carbonyl-bis(glycylglycine)
_symmetry_cell_setting           triclinic
_symmetry_space_group_name_H-M   'P -1'
_symmetry_Int_Tables_number      2
_space_group_name_Hall           '-P 1'
loop_
_symmetry_equiv_pos_site_id
_symmetry_equiv_pos_as_xyz
1 x,y,z
2 -x,-y,-z
_cell_length_a                   4.896(2)
_cell_length_b                   31.546(6)
_cell_length_c                   4.636(2)
_cell_angle_alpha                94.10(3)
_cell_angle_beta                 118.23(4)
_cell_angle_gamma                89.56(3)
_cell_volume                     628.967
_chemical_melting_point          237-239deg.C
_cell_formula_units_Z            2
loop_
_atom_site_label
_atom_site_type_symbol
_atom_site_fract_x
_atom_site_fract_y
_atom_site_fract_z
O1 O 0.7478(9) 0.2499(1) 0.3184(8)
O2 O 0.717(1) 0.4771(2) 0.312(1)
O3 O 0.383(1) 0.4482(1) 0.440(1)
O4 O 0.8556(9) 0.3514(1) 0.671(1)
O5 O 0.6352(8) 0.1482(1) 0.4607(9)
O6 O 1.107(1) 0.0516(1) 0.606(1)
O7 O 0.792(1) 0.0233(1) 0.119(1)
N1 N 0.569(1) 0.2760(1) 0.663(1)
N2 N 0.928(1) 0.2243(1) 0.817(1)
N3 N 1.040(1) 0.1316(1) 0.373(1)
N4 N 0.459(1) 0.3682(1) 0.202(1)
C1 C 0.747(1) 0.2501(2) 0.584(1)
C2 C 0.397(1) 0.3078(2) 0.451(1)
C3 C 1.104(1) 0.1923(2) 0.748(1)
C4 C 0.905(1) 0.1556(2) 0.515(1)
C5 C 0.890(1) 0.0948(2) 0.155(1)
C6 C 0.941(1) 0.0546(2) 0.320(2)
C7 C 0.596(1) 0.3447(2) 0.455(1)
C8 C 0.611(1) 0.4048(2) 0.172(1)
C9 C 0.560(1) 0.4453(2) 0.324(1)
H1 H 0.5583 0.2729 0.8600
H2 H 0.9403 0.2274 1.0282
H3 H 1.2448 0.1391 0.4188
H4 H 0.2536 0.3606 0.0343
H5 H 0.2881 0.2951 0.2343
H6 H 0.2526 0.3187 0.5197
H7 H 1.2155 0.2050 0.6556
H8 H 1.2463 0.1813 0.9507
H9 H 0.6701 0.0994 0.0447
H10 H 0.9596 0.0919 -0.0040
H11 H 0.8295 0.4002 0.2766
H12 H 0.5413 0.4081 -0.0540
H13 H 0.6971 0.5050 0.3985
H14 H 0.8074 -0.0047 0.1971
loop_
_geom_bond_atom_site_label_1
_geom_bond_atom_site_label_2
_geom_bond_site_symmetry_1
_geom_bond_site_symmetry_2
O1 C1 1_555 1_555
O2 C9 1_555 1_555
O3 C9 1_555 1_555
O4 C7 1_555 1_555
O5 C4 1_555 1_555
O6 C6 1_555 1_555
O7 C6 1_555 1_555
N1 C1 1_555 1_555
N2 C1 1_555 1_555
N3 C4 1_555 1_555
N4 C7 1_555 1_555
C2 N1 1_555 1_555
C3 N2 1_555 1_555
C4 C3 1_555 1_555
C5 N3 1_555 1_555
C6 C5 1_555 1_555
C7 C2 1_555 1_555
C8 N4 1_555 1_555
C9 C8 1_555 1_555
H1 N1 1_555 1_555
H2 N2 1_555 1_555
H3 N3 1_555 1_555
H4 N4 1_555 1_555
H5 C2 1_555 1_555
H6 C2 1_555 1_555
H7 C3 1_555 1_555
H8 C3 1_555 1_555
H9 C5 1_555 1_555
H10 C5 1_555 1_555
H11 C8 1_555 1_555
H12 C8 1_555 1_555
H13 O2 1_555 1_555
H14 O7 1_555 1_555

#END
