
#######################################################################
#
#                 Cambridge Crystallographic Data Centre
#                                CCDC 
#
#######################################################################
#
# If this CIF has been generated from an entry in the Cambridge 
# Structural Database, then it will include bibliographic, chemical, 
# crystal, experimental, refinement or atomic coordinate data resulting 
# from the CCDC's data processing and validation procedures.
#
#######################################################################

data_SIGXAK
_chemical_formula_moiety         'C23 H16 O2'
_chemical_name_systematic        
(1-benzylidene-1H-2-benzopyran-4-yl)(phenyl)methanone
_symmetry_cell_setting           triclinic
_symmetry_space_group_name_H-M   'P -1'
_symmetry_Int_Tables_number      2
_space_group_name_Hall           '-P 1'
loop_
_symmetry_equiv_pos_site_id
_symmetry_equiv_pos_as_xyz
1 x,y,z
2 -x,-y,-z
_cell_length_a                   8.0764(2)
_cell_length_b                   12.3078(4)
_cell_length_c                   18.1291(5)
_cell_angle_alpha                70.7540(10)
_cell_angle_beta                 80.9900(10)
_cell_angle_gamma                72.5100(10)
_cell_volume                     1619.4
_exptl_crystal_colour            green
_exptl_crystal_description       prismatic
_cell_formula_units_Z            4
loop_
_atom_site_label
_atom_site_type_symbol
_atom_site_fract_x
_atom_site_fract_y
_atom_site_fract_z
O1 O 0.30956(13) 1.05809(9) -0.03477(5)
O2 O 0.30420(12) 0.95028(8) 0.23889(5)
C1 C 0.20758(16) 0.89142(12) 0.11755(7)
C2 C 0.15871(17) 0.86038(13) 0.05807(8)
H1 H 0.1518 0.9139 0.0064
C3 C 0.12049(19) 0.75267(14) 0.07387(9)
H2 H 0.0862 0.7330 0.0332
C4 C 0.1318(2) 0.67313(14) 0.14866(9)
H3 H 0.1090 0.5980 0.1588
C5 C 0.17636(18) 0.70289(13) 0.20864(9)
H4 H 0.1830 0.6482 0.2599
C6 C 0.21165(16) 0.81258(11) 0.19464(7)
C7 C 0.24592(16) 0.84783(11) 0.25943(7)
C8 C 0.30387(17) 1.02168(12) 0.16514(7)
H5 H 0.3404 1.0919 0.1554
C9 C 0.25650(16) 1.00286(12) 0.10369(7)
C10 C 0.28158(16) 1.08710(12) 0.02553(7)
C11 C 0.27679(16) 1.21207(12) 0.02104(7)
C12 C 0.15622(17) 1.27499(12) 0.06632(7)
H6 H 0.0749 1.2383 0.1018
C13 C 0.15394(19) 1.39062(13) 0.06005(8)
H7 H 0.0703 1.4333 0.0907
C14 C 0.2732(2) 1.44405(13) 0.00921(8)
H8 H 0.2731 1.5228 0.0056
C15 C 0.39227(19) 1.38262(14) -0.03625(8)
H9 H 0.4742 1.4193 -0.0712
C16 C 0.39314(17) 1.26774(13) -0.03129(7)
H10 H 0.4736 1.2268 -0.0638
C17 C 0.22098(16) 0.79579(11) 0.33618(7)
H11 H 0.1917 0.7221 0.3498
C18 C 0.23237(16) 0.83626(10) 0.40238(7)
C19 C 0.16639(17) 0.77705(11) 0.47567(7)
H12 H 0.1271 0.7092 0.4811
C20 C 0.15700(18) 0.81482(12) 0.54048(8)
H13 H 0.1095 0.7738 0.5894
C21 C 0.21615(18) 0.91163(12) 0.53460(8)
H14 H 0.2073 0.9389 0.5787
C22 C 0.2884(2) 0.96821(12) 0.46355(8)
H15 H 0.3332 1.0332 0.4595
C23 C 0.29690(19) 0.93211(12) 0.39800(8)
H16 H 0.3469 0.9727 0.3496
O3 O 0.24205(12) 0.12869(8) 0.64104(5)
O4 O 0.18655(16) 0.51267(8) 0.46657(6)
C24 C 0.30370(16) 0.35007(11) 0.62167(7)
C25 C 0.35333(18) 0.45386(12) 0.61204(8)
H17 H 0.3656 0.5067 0.5610
C26 C 0.38465(19) 0.48006(13) 0.67627(9)
H18 H 0.4194 0.5503 0.6691
C27 C 0.36550(19) 0.40424(13) 0.75085(9)
H19 H 0.3833 0.4240 0.7949
C28 C 0.32072(18) 0.29999(12) 0.76175(8)
H20 H 0.3092 0.2481 0.8132
C29 C 0.29217(15) 0.27035(11) 0.69746(7)
C30 C 0.25704(15) 0.15522(11) 0.70868(7)
C31 C 0.23992(17) 0.21068(11) 0.57028(7)
H21 H 0.2184 0.1905 0.5271
C32 C 0.26572(16) 0.31860(11) 0.55572(7)
C33 C 0.22976(17) 0.40493(11) 0.47711(8)
C34 C 0.23991(16) 0.36027(11) 0.40876(7)
C35 C 0.38211(17) 0.27152(11) 0.39316(7)
H22 H 0.4717 0.2331 0.4287
C36 C 0.39311(19) 0.23918(12) 0.32583(8)
H23 H 0.4918 0.1802 0.3146
C37 C 0.2610(2) 0.29244(13) 0.27506(8)
H24 H 0.2681 0.2694 0.2293
C38 C 0.1185(2) 0.37926(13) 0.29077(8)
H25 H 0.0267 0.4147 0.2563
C39 C 0.10897(18) 0.41479(12) 0.35649(8)
H26 H 0.0127 0.4766 0.3660
C40 C 0.24798(16) 0.06994(11) 0.77655(7)
H27 H 0.2531 0.0896 0.8225
C41 C 0.23110(15) -0.05020(11) 0.78872(7)
C42 C 0.31409(17) -0.14317(12) 0.85104(7)
H28 H 0.3695 -0.1253 0.8864
C43 C 0.31721(18) -0.26026(12) 0.86229(8)
H29 H 0.3783 -0.3222 0.9038
C44 C 0.23116(19) -0.28751(12) 0.81305(8)
H30 H 0.2351 -0.3681 0.8197
C45 C 0.13964(18) -0.19591(12) 0.75410(7)
H31 H 0.0757 -0.2136 0.7218
C46 C 0.13990(16) -0.07896(11) 0.74147(7)
H32 H 0.0774 -0.0174 0.7002
loop_
_geom_bond_atom_site_label_1
_geom_bond_atom_site_label_2
_geom_bond_site_symmetry_1
_geom_bond_site_symmetry_2
O1 C10 1_555 1_555
O2 C7 1_555 1_555
C1 C2 1_555 1_555
C2 H1 1_555 1_555
C3 C2 1_555 1_555
H2 C3 1_555 1_555
C4 C3 1_555 1_555
H3 C4 1_555 1_555
C5 C4 1_555 1_555
H4 C5 1_555 1_555
C6 C1 1_555 1_555
C7 C6 1_555 1_555
C8 O2 1_555 1_555
H5 C8 1_555 1_555
C9 C1 1_555 1_555
C10 C9 1_555 1_555
C11 C10 1_555 1_555
C12 C11 1_555 1_555
H6 C12 1_555 1_555
C13 C12 1_555 1_555
H7 C13 1_555 1_555
C14 C13 1_555 1_555
H8 C14 1_555 1_555
C15 C14 1_555 1_555
H9 C15 1_555 1_555
C16 C11 1_555 1_555
H10 C16 1_555 1_555
C17 C7 1_555 1_555
H11 C17 1_555 1_555
C18 C17 1_555 1_555
C19 C18 1_555 1_555
H12 C19 1_555 1_555
C20 C19 1_555 1_555
H13 C20 1_555 1_555
C21 C20 1_555 1_555
H14 C21 1_555 1_555
C22 C21 1_555 1_555
H15 C22 1_555 1_555
C23 C18 1_555 1_555
H16 C23 1_555 1_555
O3 C30 1_555 1_555
O4 C33 1_555 1_555
C24 C25 1_555 1_555
C25 H17 1_555 1_555
C26 C25 1_555 1_555
H18 C26 1_555 1_555
C27 C26 1_555 1_555
H19 C27 1_555 1_555
C28 C27 1_555 1_555
H20 C28 1_555 1_555
C29 C24 1_555 1_555
C30 C29 1_555 1_555
C31 O3 1_555 1_555
H21 C31 1_555 1_555
C32 C24 1_555 1_555
C33 C32 1_555 1_555
C34 C33 1_555 1_555
C35 C34 1_555 1_555
H22 C35 1_555 1_555
C36 C35 1_555 1_555
H23 C36 1_555 1_555
C37 C36 1_555 1_555
H24 C37 1_555 1_555
C38 C37 1_555 1_555
H25 C38 1_555 1_555
C39 C34 1_555 1_555
H26 C39 1_555 1_555
C40 C30 1_555 1_555
H27 C40 1_555 1_555
C41 C40 1_555 1_555
C42 C41 1_555 1_555
H28 C42 1_555 1_555
C43 C42 1_555 1_555
H29 C43 1_555 1_555
C44 C43 1_555 1_555
H30 C44 1_555 1_555
C45 C44 1_555 1_555
H31 C45 1_555 1_555
C46 C41 1_555 1_555
H32 C46 1_555 1_555
C5 C6 1_555 1_555
C8 C9 1_555 1_555
C15 C16 1_555 1_555
C22 C23 1_555 1_555
C28 C29 1_555 1_555
C31 C32 1_555 1_555
C38 C39 1_555 1_555
C45 C46 1_555 1_555

#END
