
#######################################################################
#
#                 Cambridge Crystallographic Data Centre
#                                CCDC 
#
#######################################################################
#
# If this CIF has been generated from an entry in the Cambridge 
# Structural Database, then it will include bibliographic, chemical, 
# crystal, experimental, refinement or atomic coordinate data resulting 
# from the CCDC's data processing and validation procedures.
#
#######################################################################

data_SIHJOI
_chemical_formula_moiety         'C8 H12 N1 O2 1+,Cl1 1-,H2 O1'
_chemical_name_systematic        
'1-Ethyl-3-hydroxy-2-methylpyridin-4(1H)-one hydrochloride monohydrate'
_symmetry_cell_setting           monoclinic
_symmetry_space_group_name_H-M   'P 21/a'
_symmetry_Int_Tables_number      14
_space_group_name_Hall           '-P 2yab'
loop_
_symmetry_equiv_pos_site_id
_symmetry_equiv_pos_as_xyz
1 x,y,z
2 1/2-x,1/2+y,-z
3 -x,-y,-z
4 1/2+x,1/2-y,z
_cell_length_a                   9.139(2)
_cell_length_b                   17.243
_cell_length_c                   6.707(2)
_cell_angle_alpha                90
_cell_angle_beta                 99.93(2)
_cell_angle_gamma                90
_cell_volume                     1041.08
_exptl_crystal_colour            colorless
_cell_formula_units_Z            4
loop_
_atom_site_label
_atom_site_type_symbol
_atom_site_fract_x
_atom_site_fract_y
_atom_site_fract_z
Cl1 Cl 0.06338(15) 0.68646(8) 0.8425(2)
N1 N -0.2214(4) 0.8998(2) 0.4493(6)
C1 C -0.1850(5) 0.9376(3) 0.6314(7)
C2 C -0.2406(5) 1.0099(3) 0.6520(7)
C3 C -0.3295(5) 1.0475(3) 0.4888(8)
C4 C -0.3590(6) 1.0083(3) 0.3043(8)
C5 C -0.3069(6) 0.9356(4) 0.2921(8)
C6 C -0.1709(6) 0.8198(3) 0.4204(9)
C7 C -0.0860(8) 0.8997(4) 0.8030(10)
C8 C -0.0150(7) 0.8179(5) 0.3695(12)
O1 O -0.3775(4) 1.1181(2) 0.5211(6)
O2 O -0.2083(5) 1.0432(3) 0.8361(5)
H1 H -0.421(5) 1.032(3) 0.196(7)
H2 H -0.341(5) 0.901(3) 0.170(7)
H3 H -0.181(5) 0.789(3) 0.548(7)
H4 H -0.249(5) 0.796(3) 0.314(7)
H5 H -0.020(6) 0.856(4) 0.244(9)
H6 H 0.003(9) 0.768(5) 0.325(12)
H7 H 0.060(8) 0.841(4) 0.477(12)
H8 H 0.005(11) 0.870(6) 0.757(13)
H9 H -0.055(10) 0.947(5) 0.922(14)
H10 H -0.157(11) 0.840(5) 0.838(14)
H16 H -0.231(6) 1.093(3) 0.846(9)
H17 H -0.416(7) 1.140(4) 0.400(10)
O3 O -0.2738(6) 1.1791(3) 0.9625(7)
H14 H -0.209(7) 1.223(4) 1.024(9)
H15 H -0.345(6) 1.187(4) 1.001(8)
H11? H -0.080(10) 0.843(5) 0.791(12)
H12? H 0.014(9) 0.919(5) 0.807(11)
H13? H -0.121(8) 0.896(5) 0.927(12)
loop_
_geom_bond_atom_site_label_1
_geom_bond_atom_site_label_2
_geom_bond_site_symmetry_1
_geom_bond_site_symmetry_2
N1 C1 1_555 1_555
C1 C2 1_555 1_555
C2 C3 1_555 1_555
C3 C4 1_555 1_555
C4 C5 1_555 1_555
C5 N1 1_555 1_555
C6 N1 1_555 1_555
C7 C1 1_555 1_555
C8 C6 1_555 1_555
O1 C3 1_555 1_555
O2 C2 1_555 1_555
O3 H14 1_555 1_555
H1 C4 1_555 1_555
H2 C5 1_555 1_555
H3 C6 1_555 1_555
H4 C6 1_555 1_555
H5 C8 1_555 1_555
H6 C8 1_555 1_555
H7 C8 1_555 1_555
H8 C7 1_555 1_555
H9 C7 1_555 1_555
H10 C7 1_555 1_555
H15 O3 1_555 1_555
H16 O2 1_555 1_555
H17 O1 1_555 1_555

#END
