
#######################################################################
#
#                 Cambridge Crystallographic Data Centre
#                                CCDC 
#
#######################################################################
#
# If this CIF has been generated from an entry in the Cambridge 
# Structural Database, then it will include bibliographic, chemical, 
# crystal, experimental, refinement or atomic coordinate data resulting 
# from the CCDC's data processing and validation procedures.
#
#######################################################################

data_SIHJIC
_chemical_formula_moiety         'C7 H10 N1 O2 1+,Br1 1-,H2 O1'
_chemical_name_systematic        
'3-Hydroxy-1,2-dimethylpyridin-4(1H)-one hydrobromide monohydrate'
_symmetry_cell_setting           triclinic
_symmetry_space_group_name_H-M   'P -1'
_symmetry_Int_Tables_number      2
_space_group_name_Hall           '-P 1'
loop_
_symmetry_equiv_pos_site_id
_symmetry_equiv_pos_as_xyz
1 x,y,z
2 -x,-y,-z
_cell_length_a                   8.082(2)
_cell_length_b                   9.709(10)
_cell_length_c                   7.011(5)
_cell_angle_alpha                75.99(7)
_cell_angle_beta                 68.24(5)
_cell_angle_gamma                71.39(7)
_cell_volume                     479.412
_exptl_crystal_colour            colorless
_cell_formula_units_Z            2
loop_
_atom_site_label
_atom_site_type_symbol
_atom_site_fract_x
_atom_site_fract_y
_atom_site_fract_z
Br1 Br 0.26754(6) 0.40241(4) 0.49544(7)
O1 O -0.0091(4) 0.2048(3) 0.6418(5)
O2 O -0.2196(4) 0.0116(3) 0.7594(5)
N1 N 0.1957(5) -0.2228(4) 0.8403(5)
C1 C 0.0203(6) -0.1772(4) 0.8322(5)
C2 C -0.0459(6) -0.0305(4) 0.7646(6)
C3 C 0.0652(6) 0.0656(4) 0.7034(6)
C4 C 0.2438(6) 0.0142(5) 0.7132(7)
C5 C 0.3044(7) -0.1300(5) 0.7825(7)
C6 C 0.2702(8) -0.3779(5) 0.9169(9)
C7 C -0.0929(8) -0.2832(5) 0.8939(8)
H1 H 0.331(6) 0.080(5) 0.654(7)
H2 H 0.441(6) -0.161(6) 0.758(8)
H3 H -0.248(10) 0.120(5) 0.726(10)
H4 H 0.089(6) 0.260(5) 0.605(7)
H5 H 0.224(10) -0.437(8) 0.850(10)
H6 H 0.407(7) -0.382(10) 0.855(11)
H7 H 0.196(7) -0.417(6) 1.079(6)
H8 H -0.029(10) -0.363(7) 0.794(10)
H9 H -0.110(7) -0.335(5) 1.045(6)
H10 H -0.226(6) -0.231(7) 0.906(11)
O3 O -0.4035(5) 0.2860(4) 0.7100(8)
H11 H -0.328 0.358 0.656
H12 H -0.511 0.307 0.681
loop_
_geom_bond_atom_site_label_1
_geom_bond_atom_site_label_2
_geom_bond_site_symmetry_1
_geom_bond_site_symmetry_2
O1 C3 1_555 1_555
O2 C2 1_555 1_555
N1 C1 1_555 1_555
C1 C2 1_555 1_555
C2 C3 1_555 1_555
C3 C4 1_555 1_555
C4 C5 1_555 1_555
C5 N1 1_555 1_555
C6 N1 1_555 1_555
C7 C1 1_555 1_555
O3 H11 1_555 1_555
H1 C4 1_555 1_555
H2 C5 1_555 1_555
H3 O2 1_555 1_555
H4 O1 1_555 1_555
H5 C6 1_555 1_555
H6 C6 1_555 1_555
H7 C6 1_555 1_555
H8 C7 1_555 1_555
H9 C7 1_555 1_555
H10 C7 1_555 1_555
H12 O3 1_555 1_555

#END
