
#######################################################################
#
#                 Cambridge Crystallographic Data Centre
#                                CCDC 
#
#######################################################################
#
# If this CIF has been generated from an entry in the Cambridge 
# Structural Database, then it will include bibliographic, chemical, 
# crystal, experimental, refinement or atomic coordinate data resulting 
# from the CCDC's data processing and validation procedures.
#
#######################################################################

data_SIHPEG
_chemical_formula_moiety         'C18 H11 N3 O1'
_chemical_name_systematic        Quinazolino[3,4-a]perimidin-6(5H)-one
_symmetry_cell_setting           monoclinic
_symmetry_space_group_name_H-M   'P 21/c'
_symmetry_Int_Tables_number      14
_space_group_name_Hall           '-P 2ybc'
loop_
_symmetry_equiv_pos_site_id
_symmetry_equiv_pos_as_xyz
1 x,y,z
2 -x,1/2+y,1/2-z
3 -x,-y,-z
4 x,1/2-y,1/2+z
_cell_length_a                   5.07421(11)
_cell_length_b                   16.0251(4)
_cell_length_c                   15.7047(4)
_cell_angle_alpha                90
_cell_angle_beta                 97.303(7)
_cell_angle_gamma                90
_cell_volume                     1266.66
_exptl_crystal_colour            orange
_exptl_crystal_description       block
_cell_formula_units_Z            4
loop_
_atom_site_label
_atom_site_type_symbol
_atom_site_fract_x
_atom_site_fract_y
_atom_site_fract_z
O1 O -0.2421(2) 0.93648(7) 0.47200(7)
N1 N -0.3010(3) 0.97840(8) 0.60389(8)
N2 N 0.0420(3) 0.88297(7) 0.58618(8)
N3 N 0.3161(3) 0.83953(8) 0.71454(8)
C1 C 0.1220(3) 0.88222(9) 0.67661(10)
C2 C -0.1716(3) 0.93301(9) 0.54972(10)
C3 C -0.2397(3) 0.98234(9) 0.69213(10)
C4 C -0.3888(3) 1.03203(10) 0.74136(10)
C5 C -0.3293(4) 1.03128(10) 0.82935(10)
C6 C -0.1212(4) 0.98207(10) 0.86851(10)
C7 C 0.0294(3) 0.93465(10) 0.81957(10)
C8 C -0.0296(3) 0.93395(9) 0.73002(10)
C9 C 0.4640(3) 0.78860(9) 0.66691(10)
C10 C 0.6724(3) 0.74319(9) 0.70909(10)
C11 C 0.8265(3) 0.69158(9) 0.66261(10)
C12 C 0.7703(3) 0.68514(9) 0.57515(10)
C13 C 0.5569(3) 0.73048(9) 0.52944(10)
C14 C 0.4922(3) 0.72484(9) 0.43959(10)
C15 C 0.2852(3) 0.77049(10) 0.39948(10)
C16 C 0.1316(3) 0.82337(10) 0.44458(10)
C17 C 0.1883(3) 0.83106(9) 0.53273(10)
C18 C 0.4022(3) 0.78365(9) 0.57644(10)
H1 H -0.5293 1.0658 0.7145
H2 H -0.4301 1.0644 0.8636
H3 H -0.0832 0.9812 0.9293
H4 H 0.1734 0.9024 0.8467
H5 H 0.7117 0.7469 0.7698
H6 H 0.9705 0.6609 0.6920
H7 H 0.8758 0.6498 0.5446
H8 H 0.5920 0.6895 0.4071
H9 H 0.2439 0.7663 0.3389
H10 H -0.0116 0.8539 0.4145
H11 H -0.436(4) 1.0100(12) 0.5762(12)
loop_
_geom_bond_atom_site_label_1
_geom_bond_atom_site_label_2
_geom_bond_site_symmetry_1
_geom_bond_site_symmetry_2
O1 C2 1_555 1_555
N1 C2 1_555 1_555
N2 C1 1_555 1_555
N3 C1 1_555 1_555
C1 C8 1_555 1_555
C2 N2 1_555 1_555
C3 N1 1_555 1_555
C4 C3 1_555 1_555
C5 C4 1_555 1_555
C6 C5 1_555 1_555
C7 C6 1_555 1_555
C8 C3 1_555 1_555
C9 N3 1_555 1_555
C10 C9 1_555 1_555
C11 C10 1_555 1_555
C12 C11 1_555 1_555
C13 C12 1_555 1_555
C14 C13 1_555 1_555
C15 C14 1_555 1_555
C16 C15 1_555 1_555
C17 N2 1_555 1_555
C18 C9 1_555 1_555
H1 C4 1_555 1_555
H2 C5 1_555 1_555
H3 C6 1_555 1_555
H4 C7 1_555 1_555
H5 C10 1_555 1_555
H6 C11 1_555 1_555
H7 C12 1_555 1_555
H8 C14 1_555 1_555
H9 C15 1_555 1_555
H10 C16 1_555 1_555
H11 N1 1_555 1_555
C7 C8 1_555 1_555
C13 C18 1_555 1_555
C16 C17 1_555 1_555
C17 C18 1_555 1_555

#END
