
#######################################################################
#
#                 Cambridge Crystallographic Data Centre
#                                CCDC 
#
#######################################################################
#
# If this CIF has been generated from an entry in the Cambridge 
# Structural Database, then it will include bibliographic, chemical, 
# crystal, experimental, refinement or atomic coordinate data resulting 
# from the CCDC's data processing and validation procedures.
#
#######################################################################

data_SIHPUW
_chemical_formula_moiety         'C19 H12 N2 O2'
_chemical_name_systematic        
1'H,3'H-spiro[Indene-2,2'-perimidine]-1,3-dione
_symmetry_cell_setting           triclinic
_symmetry_space_group_name_H-M   'P -1'
_symmetry_Int_Tables_number      2
_space_group_name_Hall           '-P 1'
loop_
_symmetry_equiv_pos_site_id
_symmetry_equiv_pos_as_xyz
1 x,y,z
2 -x,-y,-z
_cell_length_a                   5.2039(19)
_cell_length_b                   10.457(5)
_cell_length_c                   26.005(9)
_cell_angle_alpha                88.951(15)
_cell_angle_beta                 88.755(11)
_cell_angle_gamma                80.940(15)
_cell_volume                     1396.98
_exptl_crystal_colour            brown
_exptl_crystal_description       platelet
_cell_formula_units_Z            4
loop_
_atom_site_label
_atom_site_type_symbol
_atom_site_fract_x
_atom_site_fract_y
_atom_site_fract_z
O1 O 0.4107(13) 0.3796(6) 0.5290(2)
O2 O 1.2289(13) 0.1078(7) 0.5037(2)
N1 N 0.7195(13) 0.1230(8) 0.5656(3)
N2 N 0.9467(17) 0.3037(8) 0.5748(3)
C1 C 0.822(2) 0.2276(9) 0.5395(3)
C2 C 1.0200(19) 0.1759(10) 0.4958(3)
C3 C 0.9083(18) 0.2227(9) 0.4457(4)
C4 C 1.006(2) 0.1916(10) 0.3968(4)
C5 C 0.865(2) 0.2504(11) 0.3570(4)
C6 C 0.635(2) 0.3340(11) 0.3638(4)
C7 C 0.538(2) 0.3633(11) 0.4122(4)
C8 C 0.675(2) 0.3059(10) 0.4533(4)
C9 C 0.602(2) 0.3165(9) 0.5108(3)
C10 C 0.6060(18) 0.1500(11) 0.6123(4)
C11 C 0.432(2) 0.0767(12) 0.6280(3)
C12 C 0.304(2) 0.0822(12) 0.6793(5)
C13 C 0.378(2) 0.1731(13) 0.7105(4)
C14 C 0.572(2) 0.2561(11) 0.6944(4)
C15 C 0.656(2) 0.3465(15) 0.7254(5)
C16 C 0.824(2) 0.4192(13) 0.7089(4)
C17 C 0.928(2) 0.4077(10) 0.6584(5)
C18 C 0.839(2) 0.3175(10) 0.6265(4)
C19 C 0.666(2) 0.2431(10) 0.6438(4)
H1 H 0.7341 0.0395 0.5510
H2 H 1.0935 0.3423 0.5644
H3 H 1.1673 0.1365 0.3917
H4 H 0.9240 0.2301 0.3228
H5 H 0.5438 0.3735 0.3348
H6 H 0.3789 0.4202 0.4175
H7 H 0.3794 0.0168 0.6049
H8 H 0.1808 0.0299 0.6911
H9 H 0.3109 0.1819 0.7447
H10 H 0.5909 0.3559 0.7598
H11 H 0.8760 0.4821 0.7307
H12 H 1.0545 0.4582 0.6467
O3 O 0.4172(15) -0.1184(7) 0.9724(2)
O4 O 1.2219(14) -0.3952(7) 0.9943(2)
N3 N 0.7319(17) -0.3671(8) 0.9321(3)
N4 N 0.9627(16) -0.1901(8) 0.9255(3)
C20 C 0.835(2) -0.2665(10) 0.9585(3)
C21 C 0.6062(19) -0.1853(10) 0.9907(4)
C22 C 0.657(2) -0.2052(10) 1.0461(4)
C23 C 0.5103(19) -0.1539(10) 1.0875(4)
C24 C 0.601(2) -0.1888(11) 1.1360(4)
C25 C 0.824(2) -0.2736(11) 1.1438(4)
C26 C 0.976(2) -0.3242(10) 1.1021(4)
C27 C 0.885(2) -0.2899(9) 1.0530(4)
C28 C 1.017(2) -0.3272(10) 1.0015(3)
C29 C 0.636(2) -0.3367(12) 0.8830(4)
C30 C 0.447(2) -0.4102(13) 0.8651(5)
C31 C 0.366(3) -0.3772(19) 0.8118(7)
C32 C 0.455(4) -0.284(2) 0.7819(7)
C33 C 0.627(3) -0.2187(18) 0.8055(4)
C34 C 0.698(4) -0.135(2) 0.7770(8)
C35 C 0.880(4) -0.0541(18) 0.7926(7)
C36 C 0.978(2) -0.0756(13) 0.8463(5)
C37 C 0.882(2) -0.1673(11) 0.8763(4)
C38 C 0.714(2) -0.2347(12) 0.8546(4)
H13 H 0.7275 -0.4502 0.9471
H14 H 1.1054 -0.1525 0.9372
H15 H 0.3550 -0.0939 1.0830
H16 H 0.5029 -0.1523 1.1649
H17 H 0.8763 -0.2978 1.1779
H18 H 1.1358 -0.3811 1.1064
H19 H 0.3787 -0.4704 0.8873
H20 H 0.2417 -0.4230 0.7974
H21 H 0.4136 -0.2743 0.7464
H22 H 0.6356 -0.1088 0.7437
H23 H 0.9528 0.0058 0.7711
H24 H 1.0972 -0.0267 0.8608
loop_
_geom_bond_atom_site_label_1
_geom_bond_atom_site_label_2
_geom_bond_site_symmetry_1
_geom_bond_site_symmetry_2
O1 C9 1_555 1_555
O2 C2 1_555 1_555
N1 C1 1_555 1_555
N2 C1 1_555 1_555
C1 C2 1_555 1_555
C2 C3 1_555 1_555
C3 C4 1_555 1_555
C4 C5 1_555 1_555
C5 C6 1_555 1_555
C6 C7 1_555 1_555
C7 C8 1_555 1_555
C8 C3 1_555 1_555
C9 C1 1_555 1_555
C10 N1 1_555 1_555
C11 C10 1_555 1_555
C12 C11 1_555 1_555
C13 C12 1_555 1_555
C14 C13 1_555 1_555
C15 C14 1_555 1_555
C16 C15 1_555 1_555
C17 C16 1_555 1_555
C18 N2 1_555 1_555
C19 C10 1_555 1_555
H1 N1 1_555 1_555
H2 N2 1_555 1_555
H3 C4 1_555 1_555
H4 C5 1_555 1_555
H5 C6 1_555 1_555
H6 C7 1_555 1_555
H7 C11 1_555 1_555
H8 C12 1_555 1_555
H9 C13 1_555 1_555
H10 C15 1_555 1_555
H11 C16 1_555 1_555
H12 C17 1_555 1_555
O3 C21 1_555 1_555
O4 C28 1_555 1_555
N3 C20 1_555 1_555
N4 C20 1_555 1_555
C20 C21 1_555 1_555
C21 C22 1_555 1_555
C22 C23 1_555 1_555
C23 C24 1_555 1_555
C24 C25 1_555 1_555
C25 C26 1_555 1_555
C26 C27 1_555 1_555
C27 C22 1_555 1_555
C28 C20 1_555 1_555
C29 N3 1_555 1_555
C30 C29 1_555 1_555
C31 C30 1_555 1_555
C32 C31 1_555 1_555
C33 C32 1_555 1_555
C34 C33 1_555 1_555
C35 C34 1_555 1_555
C36 C35 1_555 1_555
C37 N4 1_555 1_555
C38 C29 1_555 1_555
H13 N3 1_555 1_555
H14 N4 1_555 1_555
H15 C23 1_555 1_555
H16 C24 1_555 1_555
H17 C25 1_555 1_555
H18 C26 1_555 1_555
H19 C30 1_555 1_555
H20 C31 1_555 1_555
H21 C32 1_555 1_555
H22 C34 1_555 1_555
H23 C35 1_555 1_555
H24 C36 1_555 1_555
C8 C9 1_555 1_555
C14 C19 1_555 1_555
C17 C18 1_555 1_555
C18 C19 1_555 1_555
C27 C28 1_555 1_555
C33 C38 1_555 1_555
C36 C37 1_555 1_555
C37 C38 1_555 1_555

#END
