
#######################################################################
#
#                 Cambridge Crystallographic Data Centre
#                                CCDC 
#
#######################################################################
#
# If this CIF has been generated from an entry in the Cambridge 
# Structural Database, then it will include bibliographic, chemical, 
# crystal, experimental, refinement or atomic coordinate data resulting 
# from the CCDC's data processing and validation procedures.
#
#######################################################################

data_SIHVAH
_chemical_formula_moiety         'C30 H35 P2 1+,C1 F3 O3 S1 1-,C1 H2 Cl2'
_chemical_name_systematic        
'Triphenyl(2,3,4,5-tetraethyl-1H-phosphol-1-yl)phosphonium trifluoromethylsulfonate dichloromethane solvate'
_symmetry_cell_setting           triclinic
_symmetry_space_group_name_H-M   'P -1'
_symmetry_Int_Tables_number      2
_space_group_name_Hall           '-P 1'
loop_
_symmetry_equiv_pos_site_id
_symmetry_equiv_pos_as_xyz
1 x,y,z
2 -x,-y,-z
_cell_length_a                   9.2702(5)
_cell_length_b                   11.1171(6)
_cell_length_c                   16.8889(9)
_cell_angle_alpha                82.367(1)
_cell_angle_beta                 85.189(1)
_cell_angle_gamma                89.908(1)
_cell_volume                     1718.95
_exptl_crystal_colour            'pale yellow'
_exptl_crystal_description       block
_chemical_melting_point          '138-141 deg.C'
_cell_formula_units_Z            2
loop_
_atom_site_label
_atom_site_type_symbol
_atom_site_fract_x
_atom_site_fract_y
_atom_site_fract_z
P1 P 0.42095(6) 0.57493(5) 0.17298(3)
P2 P 0.40756(6) 0.54357(5) 0.30470(3)
C1 C 0.5609(2) 0.6915(2) 0.15861(13)
C2 C 0.6859(3) 0.6429(2) 0.12937(13)
C3 C 0.6800(3) 0.5099(2) 0.12845(14)
C4 C 0.5503(3) 0.4567(2) 0.15482(14)
C5 C 0.5325(3) 0.8227(2) 0.16780(15)
H1 H 0.6262 0.8656 0.1668
H2 H 0.4794 0.8269 0.2207
C6 C 0.4453(5) 0.8876(3) 0.1025(2)
H3 H 0.5034 0.8949 0.0509
H4 H 0.4195 0.9687 0.1154
H5 H 0.3568 0.8410 0.0993
C7 C 0.8208(3) 0.7163(3) 0.09931(16)
H6 H 0.7926 0.8003 0.0798
H7 H 0.8694 0.6814 0.0532
C8 C 0.9281(3) 0.7205(3) 0.16270(18)
H8 H 0.8858 0.7653 0.2050
H9 H 1.0175 0.7612 0.1379
H10 H 0.9499 0.6376 0.1859
C9 C 0.8101(3) 0.4402(3) 0.0982(2)
H11 H 0.8996 0.4828 0.1075
H12 H 0.8098 0.3586 0.1299
C10 C 0.8134(5) 0.4266(5) 0.0141(3)
H13 H 0.7245 0.3857 0.0040
H14 H 0.8974 0.3780 -0.0006
H15 H 0.8207 0.5068 -0.0181
C11 C 0.5101(3) 0.3247(2) 0.15644(17)
H16 H 0.4529 0.2963 0.2077
H17 H 0.5997 0.2761 0.1544
C12 C 0.4231(5) 0.3025(3) 0.0873(2)
H18 H 0.3338 0.3497 0.0892
H19 H 0.3989 0.2159 0.0917
H20 H 0.4805 0.3275 0.0364
C13 C 0.5852(2) 0.53450(18) 0.33975(12)
C14 C 0.6553(2) 0.6394(2) 0.35450(14)
H21 H 0.6057 0.7145 0.3512
C15 C 0.7980(3) 0.6333(2) 0.37404(15)
H22 H 0.8458 0.7043 0.3845
C16 C 0.8706(3) 0.5242(3) 0.37825(15)
H23 H 0.9678 0.5203 0.3923
C17 C 0.8022(3) 0.4206(2) 0.36208(16)
H24 H 0.8534 0.3462 0.3642
C18 C 0.6599(2) 0.4246(2) 0.34285(14)
H25 H 0.6132 0.3533 0.3319
C19 C 0.3068(2) 0.40508(18) 0.33789(13)
C20 C 0.2066(3) 0.3653(2) 0.28952(16)
H26 H 0.1952 0.4086 0.2380
C21 C 0.1234(3) 0.2616(3) 0.31732(19)
H27 H 0.0568 0.2332 0.2840
C22 C 0.1368(3) 0.2003(2) 0.39236(19)
H28 H 0.0782 0.1306 0.4111
C23 C 0.2351(3) 0.2394(2) 0.44072(19)
H29 H 0.2443 0.1961 0.4924
C24 C 0.3207(3) 0.3418(2) 0.41426(16)
H30 H 0.3881 0.3685 0.4477
C25 C 0.3075(2) 0.66541(18) 0.34362(13)
C26 C 0.2156(3) 0.7354(2) 0.29612(15)
H31 H 0.2101 0.7230 0.2419
C27 C 0.1313(3) 0.8241(2) 0.32813(17)
H32 H 0.0685 0.8723 0.2956
C28 C 0.1388(3) 0.8422(2) 0.40694(17)
H33 H 0.0812 0.9028 0.4285
C29 C 0.2299(3) 0.7726(2) 0.45462(16)
H34 H 0.2356 0.7858 0.5087
C30 C 0.3136(3) 0.6827(2) 0.42326(15)
H35 H 0.3746 0.6334 0.4563
S1 S 0.76589(6) 0.03209(5) 0.33855(4)
C31 C 0.5724(3) 0.0298(2) 0.3641(2)
F1 F 0.4999(2) 0.0459(2) 0.29895(18)
F2 F 0.5338(2) 0.11627(18) 0.40886(16)
F3 F 0.5284(2) -0.07542(18) 0.40520(16)
O1 O 0.7906(2) 0.15059(16) 0.29327(13)
O2 O 0.7875(2) -0.06791(16) 0.29307(11)
O3 O 0.8266(2) 0.0158(2) 0.41515(12)
C32 C 0.9400(19) 0.0459(18) 0.1164(13)
H36 H 0.8843 0.0354 0.1695
H37 H 0.9790 -0.0335 0.1047
Cl1 Cl 1.0772(5) 0.1557(9) 0.1104(2)
Cl2 Cl 0.8299(12) 0.1162(10) 0.0366(5)
C33? C 0.9022(17) 0.0746(14) 0.1258(11)
H38? H 0.8795 -0.0076 0.1546
H39? H 0.8599 0.1326 0.1608
Cl3? Cl 1.0930(4) 0.0926(12) 0.1231(4)
Cl4? Cl 0.8112(12) 0.0885(7) 0.0486(6)
loop_
_geom_bond_atom_site_label_1
_geom_bond_atom_site_label_2
_geom_bond_site_symmetry_1
_geom_bond_site_symmetry_2
P1 P2 1_555 1_555
P2 C13 1_555 1_555
C1 P1 1_555 1_555
C2 C1 1_555 1_555
C3 C2 1_555 1_555
C4 P1 1_555 1_555
C5 C1 1_555 1_555
H1 C5 1_555 1_555
H2 C5 1_555 1_555
C6 C5 1_555 1_555
H3 C6 1_555 1_555
H4 C6 1_555 1_555
H5 C6 1_555 1_555
C7 C2 1_555 1_555
H6 C7 1_555 1_555
H7 C7 1_555 1_555
C8 C7 1_555 1_555
H8 C8 1_555 1_555
H9 C8 1_555 1_555
H10 C8 1_555 1_555
C9 C3 1_555 1_555
H11 C9 1_555 1_555
H12 C9 1_555 1_555
C10 C9 1_555 1_555
H13 C10 1_555 1_555
H14 C10 1_555 1_555
H15 C10 1_555 1_555
C11 C4 1_555 1_555
H16 C11 1_555 1_555
H17 C11 1_555 1_555
C12 C11 1_555 1_555
H18 C12 1_555 1_555
H19 C12 1_555 1_555
H20 C12 1_555 1_555
C13 C14 1_555 1_555
C14 H21 1_555 1_555
C15 C14 1_555 1_555
H22 C15 1_555 1_555
C16 C15 1_555 1_555
H23 C16 1_555 1_555
C17 C16 1_555 1_555
H24 C17 1_555 1_555
C18 C13 1_555 1_555
H25 C18 1_555 1_555
C19 P2 1_555 1_555
C20 C19 1_555 1_555
H26 C20 1_555 1_555
C21 C20 1_555 1_555
H27 C21 1_555 1_555
C22 C21 1_555 1_555
H28 C22 1_555 1_555
C23 C22 1_555 1_555
H29 C23 1_555 1_555
C24 C19 1_555 1_555
H30 C24 1_555 1_555
C25 P2 1_555 1_555
C26 C25 1_555 1_555
H31 C26 1_555 1_555
C27 C26 1_555 1_555
H32 C27 1_555 1_555
C28 C27 1_555 1_555
H33 C28 1_555 1_555
C29 C28 1_555 1_555
H34 C29 1_555 1_555
C30 C25 1_555 1_555
H35 C30 1_555 1_555
S1 C31 1_555 1_555
C31 F1 1_555 1_555
F2 C31 1_555 1_555
F3 C31 1_555 1_555
O1 S1 1_555 1_555
O2 S1 1_555 1_555
O3 S1 1_555 1_555
C32 H36 1_555 1_555
H37 C32 1_555 1_555
Cl1 C32 1_555 1_555
Cl2 C32 1_555 1_555
C3 C4 1_555 1_555
C17 C18 1_555 1_555
C23 C24 1_555 1_555
C29 C30 1_555 1_555

#END
