
#######################################################################
#
#                 Cambridge Crystallographic Data Centre
#                                CCDC 
#
#######################################################################
#
# If this CIF has been generated from an entry in the Cambridge 
# Structural Database, then it will include bibliographic, chemical, 
# crystal, experimental, refinement or atomic coordinate data resulting 
# from the CCDC's data processing and validation procedures.
#
#######################################################################

data_SIHYEQ
_chemical_formula_moiety         'C43 H37 Cl3 N2 O2'
_chemical_name_systematic        
3-(benzylamino)-2-[{2-[bis(4-chlorophenyl)(hydroxy)methyl]-1H-indol-3-yl}(4-chlorophenyl)methyl]-5,5-dimethylcyclohex-2-en-1-one
_symmetry_cell_setting           monoclinic
_symmetry_space_group_name_H-M   'P 21'
_symmetry_Int_Tables_number      4
_space_group_name_Hall           'P 2yb'
loop_
_symmetry_equiv_pos_site_id
_symmetry_equiv_pos_as_xyz
1 x,y,z
2 -x,1/2+y,-z
_cell_length_a                   10.757(9)
_cell_length_b                   12.558(10)
_cell_length_c                   14.389(12)
_cell_angle_alpha                90
_cell_angle_beta                 99.306(10)
_cell_angle_gamma                90
_cell_volume                     1918.18
_exptl_crystal_description       block
_cell_formula_units_Z            2
loop_
_atom_site_label
_atom_site_type_symbol
_atom_site_fract_x
_atom_site_fract_y
_atom_site_fract_z
Cl1 Cl -0.03128(16) -0.45546(16) -0.38520(18)
Cl2 Cl -0.8467(3) -0.3405(2) -0.13495(16)
Cl3 Cl -0.8400(2) -0.0035(3) -1.03485(18)
O1 O -0.3764(3) -0.0895(3) -0.5666(2)
O2 O -0.5542(3) -0.1661(2) -0.4625(2)
H1 H -0.509206 -0.147560 -0.500512
N1 N -0.7084(4) -0.4122(3) -0.5463(3)
H2 H -0.716935 -0.445344 -0.495440
N2 N -0.4561(4) -0.3888(4) -0.7636(3)
H3 H -0.535848 -0.377127 -0.771403
C1 C -0.3410(4) -0.1623(4) -0.6152(3)
C2 C -0.2007(5) -0.1815(5) -0.6041(4)
H4 H -0.174928 -0.221971 -0.546833
H5 H -0.158119 -0.113218 -0.596360
C3 C -0.1570(5) -0.2399(4) -0.6850(3)
C4 C -0.2410(5) -0.3378(4) -0.7072(4)
H6 H -0.224809 -0.368656 -0.765831
H7 H -0.217593 -0.390314 -0.657979
C5 C -0.3803(5) -0.3162(4) -0.7155(3)
C6 C -0.4263(4) -0.2284(4) -0.6738(3)
C7 C -0.5669(4) -0.2032(4) -0.6783(3)
H8 H -0.568250 -0.146165 -0.632004
C8 C -0.6424(4) -0.2923(4) -0.6432(3)
C9 C -0.6359(4) -0.3232(4) -0.5506(3)
C10 C -0.7280(4) -0.3658(4) -0.6981(3)
C11 C -0.7790(5) -0.3767(5) -0.7931(4)
H9 H -0.759155 -0.327633 -0.836868
C12 C -0.8585(5) -0.4601(5) -0.8217(4)
H10 H -0.891316 -0.468104 -0.885202
C13 C -0.8903(6) -0.5326(5) -0.7567(5)
H11 H -0.943899 -0.588751 -0.777754
C14 C -0.8456(5) -0.5239(4) -0.6631(4)
H12 H -0.868334 -0.572386 -0.619968
C15 C -0.7649(4) -0.4404(4) -0.6345(3)
C16 C -0.5598(5) -0.2797(4) -0.4598(3)
C17 C -0.4262(4) -0.3259(4) -0.4417(3)
C18 C -0.3948(5) -0.4171(4) -0.4852(4)
H13 H -0.456031 -0.451916 -0.527549
C19 C -0.2743(5) -0.4582(4) -0.4674(4)
H14 H -0.254418 -0.520425 -0.496934
C20 C -0.1845(5) -0.4061(5) -0.4058(4)
C21 C -0.2128(6) -0.3173(5) -0.3606(4)
H15 H -0.151197 -0.284109 -0.317479
C22 C -0.3331(5) -0.2758(4) -0.3782(4)
H16 H -0.352008 -0.214137 -0.347575
C23 C -0.6308(5) -0.3020(4) -0.3776(3)
C24 C -0.5942(6) -0.3769(4) -0.3088(3)
H17 H -0.524314 -0.419548 -0.311817
C25 C -0.6619(8) -0.3889(5) -0.2342(4)
H18 H -0.637342 -0.440124 -0.188292
C26 C -0.7640(7) -0.3257(6) -0.2285(4)
C27 C -0.8023(7) -0.2530(5) -0.2971(5)
H19 H -0.872254 -0.210517 -0.293697
C28 C -0.7379(6) -0.2421(5) -0.3714(4)
H20 H -0.766585 -0.193516 -0.418821
C29 C -0.6316(5) -0.1543(4) -0.7709(3)
C30 C -0.7465(6) -0.1071(5) -0.7728(4)
H21 H -0.782311 -0.106492 -0.718119
C31 C -0.8110(6) -0.0602(6) -0.8531(5)
H22 H -0.888726 -0.028023 -0.852656
C32 C -0.7587(7) -0.0620(7) -0.9326(5)
C33 C -0.6462(7) -0.1092(8) -0.9343(5)
H23 H -0.612224 -0.110432 -0.989746
C34 C -0.5812(5) -0.1557(6) -0.8532(4)
H24 H -0.503640 -0.187832 -0.854391
C35 C -0.1660(6) -0.1693(6) -0.7715(4)
H25 H -0.133987 -0.207005 -0.820676
H26 H -0.117248 -0.105893 -0.755963
H27 H -0.252432 -0.150459 -0.792580
C36 C -0.0205(6) -0.2756(6) -0.6565(5)
H28 H -0.013356 -0.318455 -0.600635
H29 H 0.032739 -0.214146 -0.644316
H30 H 0.004843 -0.316519 -0.706540
C37 C -0.4137(6) -0.4864(6) -0.8039(6)
H31 H -0.370098 -0.530613 -0.753693
H32 H -0.354353 -0.468404 -0.845582
C38 C -0.5206(6) -0.5481(5) -0.8578(4)
C39 C -0.5940(7) -0.5102(5) -0.9378(5)
H33 H -0.580613 -0.441557 -0.958415
C40 C -0.6872(8) -0.5721(7) -0.9882(5)
H34 H -0.736902 -0.544762 -1.041827
C41 C -0.7064(9) -0.6726(8) -0.9596(6)
H35 H -0.768028 -0.715142 -0.994163
C42 C -0.6362(10) -0.7104(7) -0.8815(6)
H36 H -0.650471 -0.778945 -0.861105
C43 C -0.5431(8) -0.6491(6) -0.8307(5)
H37 H -0.494648 -0.677205 -0.776953
loop_
_geom_bond_atom_site_label_1
_geom_bond_atom_site_label_2
_geom_bond_site_symmetry_1
_geom_bond_site_symmetry_2
Cl1 C20 1_555 1_555
Cl2 C26 1_555 1_555
Cl3 C32 1_555 1_555
O1 C1 1_555 1_555
O2 H1 1_555 1_555
N1 H2 1_555 1_555
N2 H3 1_555 1_555
C1 C2 1_555 1_555
C2 H4 1_555 1_555
H5 C2 1_555 1_555
C3 C2 1_555 1_555
C4 C3 1_555 1_555
H6 C4 1_555 1_555
H7 C4 1_555 1_555
C5 N2 1_555 1_555
C6 C1 1_555 1_555
C7 C6 1_555 1_555
H8 C7 1_555 1_555
C8 C7 1_555 1_555
C9 N1 1_555 1_555
C10 C8 1_555 1_555
C11 C10 1_555 1_555
H9 C11 1_555 1_555
C12 C11 1_555 1_555
H10 C12 1_555 1_555
C13 C12 1_555 1_555
H11 C13 1_555 1_555
C14 C13 1_555 1_555
H12 C14 1_555 1_555
C15 N1 1_555 1_555
C16 O2 1_555 1_555
C17 C16 1_555 1_555
C18 C17 1_555 1_555
H13 C18 1_555 1_555
C19 C18 1_555 1_555
H14 C19 1_555 1_555
C20 C19 1_555 1_555
C21 C20 1_555 1_555
H15 C21 1_555 1_555
C22 C17 1_555 1_555
H16 C22 1_555 1_555
C23 C16 1_555 1_555
C24 C23 1_555 1_555
H17 C24 1_555 1_555
C25 C24 1_555 1_555
H18 C25 1_555 1_555
C26 C25 1_555 1_555
C27 C26 1_555 1_555
H19 C27 1_555 1_555
C28 C23 1_555 1_555
H20 C28 1_555 1_555
C29 C7 1_555 1_555
C30 C29 1_555 1_555
H21 C30 1_555 1_555
C31 C30 1_555 1_555
H22 C31 1_555 1_555
C32 C31 1_555 1_555
C33 C32 1_555 1_555
H23 C33 1_555 1_555
C34 C29 1_555 1_555
H24 C34 1_555 1_555
C35 C3 1_555 1_555
H25 C35 1_555 1_555
H26 C35 1_555 1_555
H27 C35 1_555 1_555
C36 C3 1_555 1_555
H28 C36 1_555 1_555
H29 C36 1_555 1_555
H30 C36 1_555 1_555
C37 N2 1_555 1_555
H31 C37 1_555 1_555
H32 C37 1_555 1_555
C38 C37 1_555 1_555
C39 C38 1_555 1_555
H33 C39 1_555 1_555
C40 C39 1_555 1_555
H34 C40 1_555 1_555
C41 C40 1_555 1_555
H35 C41 1_555 1_555
C42 C41 1_555 1_555
H36 C42 1_555 1_555
C43 C38 1_555 1_555
H37 C43 1_555 1_555
C4 C5 1_555 1_555
C5 C6 1_555 1_555
C8 C9 1_555 1_555
C9 C16 1_555 1_555
C10 C15 1_555 1_555
C14 C15 1_555 1_555
C21 C22 1_555 1_555
C27 C28 1_555 1_555
C33 C34 1_555 1_555
C42 C43 1_555 1_555

#END
