
#######################################################################
#
#                 Cambridge Crystallographic Data Centre
#                                CCDC 
#
#######################################################################
#
# If this CIF has been generated from an entry in the Cambridge 
# Structural Database, then it will include bibliographic, chemical, 
# crystal, experimental, refinement or atomic coordinate data resulting 
# from the CCDC's data processing and validation procedures.
#
#######################################################################

data_SIHZIT
_chemical_formula_moiety         'C32 H32 N2 O2'
_chemical_name_systematic        
(+)-(2R,5S)-2-(hydroxy(diphenyl)methyl)-N-phenyl-1-((1S)-1-phenylethyl)pyrrolidine-5-carboxamide
_symmetry_cell_setting           monoclinic
_symmetry_space_group_name_H-M   'P 21'
_symmetry_Int_Tables_number      4
_space_group_name_Hall           'P 2yb'
loop_
_symmetry_equiv_pos_site_id
_symmetry_equiv_pos_as_xyz
1 x,y,z
2 -x,1/2+y,-z
_cell_length_a                   9.7201(10)
_cell_length_b                   14.5490(16)
_cell_length_c                   9.9744(11)
_cell_angle_alpha                90
_cell_angle_beta                 115.898(2)
_cell_angle_gamma                90
_cell_volume                     1268.9
_exptl_crystal_colour            colorless
_exptl_crystal_description       block
_chemical_melting_point          '151-153 deg.C'
_cell_formula_units_Z            2
_exptl_crystal_recrystallization_method 'hexane/ethyl acetate'
loop_
_atom_site_label
_atom_site_type_symbol
_atom_site_fract_x
_atom_site_fract_y
_atom_site_fract_z
O1 O 0.32130(16) 0.23731(9) 0.32224(14)
H1 H 0.3823 0.2366 0.4106
O2 O 0.51273(18) 0.26719(12) 0.62066(16)
N1 N 0.54861(17) 0.10102(11) 0.48202(16)
N2 N 0.74761(19) 0.23444(11) 0.80263(17)
H2 H 0.8314 0.2064 0.8193
C1 C 0.3158(2) 0.14878(13) 0.2594(2)
C2 C 0.4820(2) 0.10933(14) 0.3191(2)
H3 H 0.4776 0.0483 0.2759
C3 C 0.5954(2) 0.16863(16) 0.2895(2)
H4 H 0.6711 0.1307 0.2771
H5 H 0.5430 0.2056 0.2006
C4 C 0.6701(3) 0.22929(15) 0.4270(2)
H6 H 0.6114 0.2850 0.4160
H7 H 0.7734 0.2458 0.4449
C5 C 0.6707(2) 0.16939(14) 0.5539(2)
H8 H 0.7698 0.1387 0.6062
C6 C 0.6353(2) 0.22732(14) 0.6628(2)
C7 C 0.7457(2) 0.28218(14) 0.9258(2)
C8 C 0.8826(3) 0.29059(17) 1.0517(2)
H9 H 0.9717 0.2665 1.0528
C9 C 0.8873(3) 0.33516(18) 1.1769(3)
H10 H 0.9797 0.3403 1.2618
C10 C 0.7574(3) 0.37149(17) 1.1764(3)
H11 H 0.7609 0.4018 1.2599
C11 C 0.6222(3) 0.36254(18) 1.0513(3)
H12 H 0.5334 0.3868 1.0505
C12 C 0.6150(3) 0.31825(16) 0.9259(3)
H13 H 0.5220 0.3128 0.8418
C13 C 0.5864(2) 0.00730(13) 0.5457(2)
H14 H 0.4923 -0.0290 0.4997
C14 C 0.7062(3) -0.04190(15) 0.5109(2)
H15 H 0.6698 -0.0467 0.4049
H16 H 0.7240 -0.1023 0.5539
H17 H 0.7999 -0.0076 0.5521
C15 C 0.6268(2) 0.01424(14) 0.7106(2)
C16 C 0.7693(2) -0.00729(15) 0.8215(2)
H18 H 0.8428 -0.0320 0.7960
C17 C 0.8046(3) 0.00723(18) 0.9698(3)
H19 H 0.9016 -0.0070 1.0430
C18 C 0.6968(3) 0.04263(19) 1.0088(3)
H20 H 0.7207 0.0528 1.1086
C19 C 0.5537(3) 0.06305(18) 0.9011(3)
H21 H 0.4804 0.0870 0.9276
C20 C 0.5183(2) 0.04806(16) 0.7532(2)
H22 H 0.4201 0.0608 0.6807
C21 C 0.2492(2) 0.16441(14) 0.0900(2)
C22 C 0.2516(2) 0.25213(16) 0.0349(2)
H23 H 0.2897 0.3011 0.1010
C23 C 0.1986(3) 0.26750(18) -0.1156(2)
H24 H 0.2023 0.3265 -0.1499
C24 C 0.1405(3) 0.19694(19) -0.2153(3)
H25 H 0.1046 0.2077 -0.3170
C25 C 0.1360(3) 0.11042(18) -0.1637(2)
H26 H 0.0963 0.0622 -0.2310
C26 C 0.1896(2) 0.09386(16) -0.0134(2)
H27 H 0.1858 0.0345 0.0195
C27 C 0.2161(2) 0.08503(14) 0.3027(2)
C28 C 0.2150(2) -0.01029(14) 0.2866(2)
H28 H 0.2753 -0.0369 0.2460
C29 C 0.1261(2) -0.06623(16) 0.3299(2)
H29 H 0.1275 -0.1296 0.3184
C30 C 0.0356(3) -0.02813(19) 0.3899(2)
H30 H -0.0239 -0.0654 0.4195
C31 C 0.0346(3) 0.06536(19) 0.4053(3)
H31 H -0.0266 0.0916 0.4453
C32 C 0.1230(2) 0.12124(16) 0.3625(2)
H32 H 0.1201 0.1845 0.3740
loop_
_geom_bond_atom_site_label_1
_geom_bond_atom_site_label_2
_geom_bond_site_symmetry_1
_geom_bond_site_symmetry_2
O1 H1 1_555 1_555
O2 C6 1_555 1_555
N1 C2 1_555 1_555
N2 H2 1_555 1_555
C1 O1 1_555 1_555
C2 C1 1_555 1_555
H3 C2 1_555 1_555
C3 C2 1_555 1_555
H4 C3 1_555 1_555
H5 C3 1_555 1_555
C4 C3 1_555 1_555
H6 C4 1_555 1_555
H7 C4 1_555 1_555
C5 N1 1_555 1_555
H8 C5 1_555 1_555
C6 N2 1_555 1_555
C7 N2 1_555 1_555
C8 C7 1_555 1_555
H9 C8 1_555 1_555
C9 C8 1_555 1_555
H10 C9 1_555 1_555
C10 C9 1_555 1_555
H11 C10 1_555 1_555
C11 C10 1_555 1_555
H12 C11 1_555 1_555
C12 C7 1_555 1_555
H13 C12 1_555 1_555
C13 N1 1_555 1_555
H14 C13 1_555 1_555
C14 C13 1_555 1_555
H15 C14 1_555 1_555
H16 C14 1_555 1_555
H17 C14 1_555 1_555
C15 C13 1_555 1_555
C16 C15 1_555 1_555
H18 C16 1_555 1_555
C17 C16 1_555 1_555
H19 C17 1_555 1_555
C18 C17 1_555 1_555
H20 C18 1_555 1_555
C19 C18 1_555 1_555
H21 C19 1_555 1_555
C20 C15 1_555 1_555
H22 C20 1_555 1_555
C21 C1 1_555 1_555
C22 C21 1_555 1_555
H23 C22 1_555 1_555
C23 C22 1_555 1_555
H24 C23 1_555 1_555
C24 C23 1_555 1_555
H25 C24 1_555 1_555
C25 C24 1_555 1_555
H26 C25 1_555 1_555
C26 C21 1_555 1_555
H27 C26 1_555 1_555
C27 C1 1_555 1_555
C28 C27 1_555 1_555
H28 C28 1_555 1_555
C29 C28 1_555 1_555
H29 C29 1_555 1_555
C30 C29 1_555 1_555
H30 C30 1_555 1_555
C31 C30 1_555 1_555
H31 C31 1_555 1_555
C32 C27 1_555 1_555
H32 C32 1_555 1_555
C4 C5 1_555 1_555
C5 C6 1_555 1_555
C11 C12 1_555 1_555
C19 C20 1_555 1_555
C25 C26 1_555 1_555
C31 C32 1_555 1_555

#END
