
#######################################################################
#
#                 Cambridge Crystallographic Data Centre
#                                CCDC 
#
#######################################################################
#
# If this CIF has been generated from an entry in the Cambridge 
# Structural Database, then it will include bibliographic, chemical, 
# crystal, experimental, refinement or atomic coordinate data resulting 
# from the CCDC's data processing and validation procedures.
#
#######################################################################

data_SIKJOO
_chemical_formula_moiety         'C24 H22 N2 O2'
_chemical_name_systematic        
'methyl 3-methyl-2-(4-methylphenyl)-6,11-dihydro-5H-indolizino[8,7-b]indole-1-carboxylate'
_symmetry_cell_setting           orthorhombic
_symmetry_space_group_name_H-M   'P 21 21 21'
_symmetry_Int_Tables_number      19
_space_group_name_Hall           'P 2ac 2ab'
loop_
_symmetry_equiv_pos_site_id
_symmetry_equiv_pos_as_xyz
1 x,y,z
2 1/2-x,-y,1/2+z
3 -x,1/2+y,1/2-z
4 1/2+x,1/2-y,-z
_cell_length_a                   8.5245(8)
_cell_length_b                   9.0785(9)
_cell_length_c                   25.005(3)
_cell_angle_alpha                90
_cell_angle_beta                 90
_cell_angle_gamma                90
_cell_volume                     1935.13
_exptl_crystal_colour            colorless
_exptl_crystal_description       block
_cell_formula_units_Z            4
loop_
_atom_site_label
_atom_site_type_symbol
_atom_site_fract_x
_atom_site_fract_y
_atom_site_fract_z
C1 C 0.6343(4) 0.5988(4) 0.00773(13)
C2 C 0.6786(5) 0.7363(4) -0.01137(15)
H1 H 0.7430 0.7985 0.0084
C3 C 0.6229(6) 0.7766(5) -0.06094(17)
H2 H 0.6483 0.8688 -0.0746
C4 C 0.5297(7) 0.6825(5) -0.09107(17)
H3 H 0.4953 0.7132 -0.1246
C5 C 0.4870(5) 0.5466(5) -0.07298(15)
H4 H 0.4244 0.4850 -0.0937
C6 C 0.5398(4) 0.5019(4) -0.02231(13)
C7 C 0.5220(4) 0.3714(4) 0.00887(13)
C8 C 0.6004(4) 0.3937(4) 0.05586(12)
C9 C 0.4417(5) 0.2283(4) -0.00100(16)
H5 H 0.3311 0.2392 0.0072
H6 H 0.4504 0.2042 -0.0387
C10 C 0.5036(6) 0.1084(5) 0.02977(14)
H7 H 0.5927 0.0673 0.0108
H8 H 0.4242 0.0322 0.0321
C11 C 0.6121(4) 0.2832(4) 0.09679(13)
C12 C 0.6639(4) 0.2753(4) 0.14950(13)
C13 C 0.7282(4) 0.4014(4) 0.17901(16)
C14 C 0.7949(5) 0.4917(5) 0.26433(17)
H9 H 0.8870 0.5361 0.2493
H10 H 0.8185 0.4550 0.2994
H11 H 0.7128 0.5638 0.2667
C15 C 0.6075(4) 0.0979(4) 0.26804(14)
H12 H 0.5333 0.1729 0.2688
C16 C 0.6479(5) 0.0265(5) 0.31527(15)
H13 H 0.5993 0.0541 0.3470
C17 C 0.7579(5) -0.0839(4) 0.31611(16)
C18 C 0.8044(6) -0.1634(5) 0.36652(17)
H14 H 0.7745 -0.2651 0.3639
H15 H 0.7523 -0.1192 0.3966
H16 H 0.9159 -0.1565 0.3713
C19 C 0.8265(5) -0.1232(5) 0.26839(18)
H17 H 0.9016 -0.1976 0.2680
C20 C 0.7860(5) -0.0542(4) 0.22094(17)
H18 H 0.8331 -0.0843 0.1892
C21 C 0.6768(4) 0.0586(4) 0.21978(14)
C22 C 0.6360(4) 0.1278(4) 0.16791(13)
C23 C 0.5690(4) 0.0524(4) 0.12634(14)
C24 C 0.5161(6) -0.1046(4) 0.12345(16)
H19 H 0.5158 -0.1464 0.1587
H20 H 0.5864 -0.1593 0.1010
H21 H 0.4121 -0.1086 0.1088
N1 N 0.6697(4) 0.5306(3) 0.05520(12)
H22 H 0.7259 0.5674 0.0804
N2 N 0.5531(3) 0.1468(3) 0.08345(10)
O1 O 0.7641(3) 0.5192(3) 0.15982(11)
O2 O 0.7446(3) 0.3724(3) 0.23094(10)
loop_
_geom_bond_atom_site_label_1
_geom_bond_atom_site_label_2
_geom_bond_site_symmetry_1
_geom_bond_site_symmetry_2
C1 C2 1_555 1_555
C2 H1 1_555 1_555
C3 C2 1_555 1_555
H2 C3 1_555 1_555
C4 C3 1_555 1_555
H3 C4 1_555 1_555
C5 C4 1_555 1_555
H4 C5 1_555 1_555
C6 C1 1_555 1_555
C7 C6 1_555 1_555
C8 C7 1_555 1_555
C9 C7 1_555 1_555
H5 C9 1_555 1_555
H6 C9 1_555 1_555
C10 C9 1_555 1_555
H7 C10 1_555 1_555
H8 C10 1_555 1_555
C11 C8 1_555 1_555
C12 C11 1_555 1_555
C13 C12 1_555 1_555
C14 H9 1_555 1_555
H10 C14 1_555 1_555
H11 C14 1_555 1_555
C15 H12 1_555 1_555
C16 C15 1_555 1_555
H13 C16 1_555 1_555
C17 C16 1_555 1_555
C18 C17 1_555 1_555
H14 C18 1_555 1_555
H15 C18 1_555 1_555
H16 C18 1_555 1_555
C19 C17 1_555 1_555
H17 C19 1_555 1_555
C20 C19 1_555 1_555
H18 C20 1_555 1_555
C21 C15 1_555 1_555
C22 C12 1_555 1_555
C23 C22 1_555 1_555
C24 C23 1_555 1_555
H19 C24 1_555 1_555
H20 C24 1_555 1_555
H21 C24 1_555 1_555
N1 C1 1_555 1_555
H22 N1 1_555 1_555
N2 C10 1_555 1_555
O1 C13 1_555 1_555
O2 C13 1_555 1_555
C5 C6 1_555 1_555
C8 N1 1_555 1_555
C11 N2 1_555 1_555
C14 O2 1_555 1_555
C20 C21 1_555 1_555
C21 C22 1_555 1_555
C23 N2 1_555 1_555

#END
