
#######################################################################
#
#                 Cambridge Crystallographic Data Centre
#                                CCDC 
#
#######################################################################
#
# If this CIF has been generated from an entry in the Cambridge 
# Structural Database, then it will include bibliographic, chemical, 
# crystal, experimental, refinement or atomic coordinate data resulting 
# from the CCDC's data processing and validation procedures.
#
#######################################################################

data_SIKJUU
_chemical_formula_moiety         'C30 H22 Br1 Cl1 N2 O4'
_chemical_name_systematic        
"methyl 2-bromo-6-(4-chlorophenyl)-11-methoxy-6,8,9,14-tetrahydro[1]benzopyrano[4',3':2,3]indolizino[8,7-b]indole-15-carboxylate"
_symmetry_cell_setting           monoclinic
_symmetry_space_group_name_H-M   'P 21/c'
_symmetry_Int_Tables_number      14
_space_group_name_Hall           '-P 2ybc'
loop_
_symmetry_equiv_pos_site_id
_symmetry_equiv_pos_as_xyz
1 x,y,z
2 -x,1/2+y,1/2-z
3 -x,-y,-z
4 x,1/2-y,1/2+z
_cell_length_a                   14.2605(5)
_cell_length_b                   13.5158(5)
_cell_length_c                   14.5519(5)
_cell_angle_alpha                90
_cell_angle_beta                 115.1110(9)
_cell_angle_gamma                90
_cell_volume                     2539.68
_exptl_crystal_colour            yellow
_exptl_crystal_description       block
_cell_formula_units_Z            4
loop_
_atom_site_label
_atom_site_type_symbol
_atom_site_fract_x
_atom_site_fract_y
_atom_site_fract_z
Br1 Br 0.21124(3) -0.07912(4) 1.04070(3)
C1 C -0.24195(19) 0.1176(2) 0.2970(2)
C2 C -0.3373(2) 0.0820(2) 0.2274(2)
H1 H -0.3696 0.0294 0.2436
C3 C -0.3819(2) 0.1270(2) 0.1345(2)
H2 H -0.4451 0.1037 0.0863
C4 C -0.3346(2) 0.2072(2) 0.1104(2)
C5 C -0.3417(3) 0.3192(3) -0.0190(3)
H3 H -0.3248 0.3742 0.0269
H4 H -0.3883 0.3406 -0.0858
H5 H -0.2796 0.2937 -0.0206
C6 C -0.2405(2) 0.2430(2) 0.1781(2)
H6 H -0.2093 0.2960 0.1612
C7 C -0.1925(2) 0.1974(2) 0.2738(2)
C8 C -0.09740(19) 0.2129(2) 0.3616(2)
C9 C -0.09327(18) 0.14477(19) 0.43292(19)
C10 C -0.0149(2) 0.2885(3) 0.3847(3)
H7 H -0.0037 0.3004 0.3243
H8 H -0.0377 0.3501 0.4028
C11 C 0.0820(2) 0.2586(3) 0.4669(3)
H9 H 0.1225 0.3175 0.4962
H10 H 0.1203 0.2192 0.4386
C12 C -0.00925(18) 0.14035(19) 0.53303(19)
C13 C 0.01057(18) 0.09318(19) 0.6246(2)
C14 C -0.06420(19) 0.0281(2) 0.6379(2)
C15 C -0.1142(3) -0.0494(3) 0.7559(3)
H11 H -0.1849 -0.0290 0.7190
H12 H -0.0964 -0.0482 0.8274
H13 H -0.1058 -0.1153 0.7360
C16 C 0.3210(2) 0.1341(2) 0.6011(2)
H14 H 0.2553 0.1325 0.5476
C17 C 0.4004(2) 0.0829(2) 0.5927(2)
H15 H 0.3891 0.0481 0.5338
C18 C 0.4968(2) 0.0839(3) 0.6728(3)
C19 C 0.5151(2) 0.1383(3) 0.7576(3)
H16 H 0.5812 0.1403 0.8102
C20 C 0.4356(2) 0.1902(3) 0.7654(3)
H17 H 0.4483 0.2271 0.8234
C21 C 0.33649(19) 0.1879(2) 0.6868(2)
C22 C 0.2488(2) 0.2434(2) 0.6967(2)
H18 H 0.2427 0.3084 0.6649
C23 C 0.14522(19) 0.1924(2) 0.6468(2)
C24 C 0.11078(19) 0.1272(2) 0.6972(2)
C25 C 0.17806(19) 0.1084(2) 0.8040(2)
C26 C 0.1703(2) 0.0293(2) 0.8619(2)
H19 H 0.1205 -0.0193 0.8318
C27 C 0.2365(2) 0.0229(3) 0.9641(2)
C28 C 0.3152(2) 0.0893(3) 1.0107(2)
H20 H 0.3597 0.0829 1.0791
C29 C 0.3270(2) 0.1661(3) 0.9536(2)
H21 H 0.3806 0.2113 0.9835
C30 C 0.2592(2) 0.1760(2) 0.8519(2)
Cl1 Cl 0.59517(8) 0.01133(10) 0.66695(9)
N1 N -0.18050(16) 0.08635(16) 0.39392(17)
H22 H -0.1942 0.0383 0.4250
N2 N 0.07326(15) 0.20201(17) 0.54806(17)
O1 O -0.38956(17) 0.24416(19) 0.01396(16)
O2 O -0.13682(16) -0.01211(17) 0.57058(15)
O3 O -0.04737(16) 0.01718(17) 0.73409(15)
O4 O 0.27032(14) 0.25842(15) 0.80133(15)
loop_
_geom_bond_atom_site_label_1
_geom_bond_atom_site_label_2
_geom_bond_site_symmetry_1
_geom_bond_site_symmetry_2
Br1 C27 1_555 1_555
C1 C2 1_555 1_555
C2 H1 1_555 1_555
C3 C2 1_555 1_555
H2 C3 1_555 1_555
C4 C3 1_555 1_555
C5 H3 1_555 1_555
H4 C5 1_555 1_555
H5 C5 1_555 1_555
C6 C4 1_555 1_555
H6 C6 1_555 1_555
C7 C1 1_555 1_555
C8 C7 1_555 1_555
C9 C8 1_555 1_555
C10 C8 1_555 1_555
H7 C10 1_555 1_555
H8 C10 1_555 1_555
C11 C10 1_555 1_555
H9 C11 1_555 1_555
H10 C11 1_555 1_555
C12 C9 1_555 1_555
C13 C12 1_555 1_555
C14 C13 1_555 1_555
C15 H11 1_555 1_555
H12 C15 1_555 1_555
H13 C15 1_555 1_555
C16 H14 1_555 1_555
C17 C16 1_555 1_555
H15 C17 1_555 1_555
C18 C17 1_555 1_555
C19 C18 1_555 1_555
H16 C19 1_555 1_555
C20 C19 1_555 1_555
H17 C20 1_555 1_555
C21 C16 1_555 1_555
C22 C21 1_555 1_555
H18 C22 1_555 1_555
C23 C22 1_555 1_555
C24 C13 1_555 1_555
C25 C24 1_555 1_555
C26 C25 1_555 1_555
H19 C26 1_555 1_555
C27 C26 1_555 1_555
C28 C27 1_555 1_555
H20 C28 1_555 1_555
C29 C28 1_555 1_555
H21 C29 1_555 1_555
C30 C25 1_555 1_555
Cl1 C18 1_555 1_555
N1 C1 1_555 1_555
H22 N1 1_555 1_555
N2 C11 1_555 1_555
O1 C4 1_555 1_555
O2 C14 1_555 1_555
O3 C14 1_555 1_555
O4 C22 1_555 1_555
C5 O1 1_555 1_555
C6 C7 1_555 1_555
C9 N1 1_555 1_555
C12 N2 1_555 1_555
C15 O3 1_555 1_555
C20 C21 1_555 1_555
C23 C24 1_555 1_555
C23 N2 1_555 1_555
C29 C30 1_555 1_555
C30 O4 1_555 1_555

#END
