
#######################################################################
#
#                 Cambridge Crystallographic Data Centre
#                                CCDC 
#
#######################################################################
#
# If this CIF has been generated from an entry in the Cambridge 
# Structural Database, then it will include bibliographic, chemical, 
# crystal, experimental, refinement or atomic coordinate data resulting 
# from the CCDC's data processing and validation procedures.
#
#######################################################################

data_SIKLED
_chemical_formula_moiety         'C26 H35 N3 O6 S1'
_chemical_name_systematic        
'(R)-3,6-Dihydro-4-methyl-6-(3-nitrophenyl)-2-thioxo-1,5(2H)-pyrimidinedicarboxylic acid 5-(1-methylethyl) 1-((1S-(1\a,2\a,3\b))-5-methyl-2-(1-methylethyl)cyclohexyl)diester'
_symmetry_cell_setting           monoclinic
_symmetry_space_group_name_H-M   'P 21'
_symmetry_Int_Tables_number      4
_space_group_name_Hall           'P 2yb'
loop_
_symmetry_equiv_pos_site_id
_symmetry_equiv_pos_as_xyz
1 x,y,z
2 -x,1/2+y,-z
_cell_length_a                   15.490(2)
_cell_length_b                   7.278(1)
_cell_length_c                   13.521(2)
_cell_angle_alpha                90
_cell_angle_beta                 110.39(1)
_cell_angle_gamma                90
_cell_volume                     1428.8
_cell_formula_units_Z            2
loop_
_atom_site_label
_atom_site_type_symbol
_atom_site_fract_x
_atom_site_fract_y
_atom_site_fract_z
N1 N 0.2502(2) 0.244 0.2216(2)
C1 C 0.2923(2) 0.3789(5) 0.1869(3)
S1 S 0.35921(7) 0.3355(2) 0.11837(8)
N2 N 0.2757(2) 0.5531(5) 0.2198(2)
C2 C 0.2683(2) 0.5636(5) 0.3261(2)
C3 C 0.1941(2) 0.4297(6) 0.3273(3)
C4 C 0.1881(2) 0.2715(6) 0.2744(3)
C5 C 0.3613(2) 0.5354(6) 0.4133(3)
C6 C 0.4430(2) 0.5384(6) 0.3925(3)
C7 C 0.5254(3) 0.5232(7) 0.4769(3)
N3 N 0.6118(2) 0.5268(7) 0.4536(3)
O1 O 0.6071(2) 0.5404(9) 0.3633(3)
O2 O 0.6839(2) 0.5157(8) 0.5268(3)
C8 C 0.5312(3) 0.5083(8) 0.5787(4)
C9 C 0.4504(3) 0.5020(9) 0.5988(3)
C10 C 0.3662(3) 0.5169(8) 0.5173(3)
C11 C 0.2718(2) 0.7149(6) 0.1652(3)
O3 O 0.2828(2) 0.8624(4) 0.2111(2)
O4 O 0.2508(2) 0.6938(4) 0.0636(2)
C12 C 0.2401(3) 0.8632(6) 0.0007(3)
C13 C 0.2631(3) 0.8211(7) -0.0972(3)
C14 C 0.2477(3) 0.9980(9) -0.1623(3)
C15 C 0.1505(4) 1.0733(9) -0.1898(4)
C16 C 0.1266(4) 1.1089(9) -0.0917(4)
C17 C 0.1417(3) 0.9338(8) -0.0265(3)
C18 C 0.3591(3) 0.7357(8) -0.0714(3)
C19 C 0.4369(4) 0.858(1) -0.0099(5)
C20 C 0.3750(4) 0.665(1) -0.1688(4)
C21 C 0.0286(5) 1.182(1) -0.1179(5)
C22 C 0.1288(3) 0.4744(7) 0.3822(3)
O5 O 0.0626(2) 0.3855(5) 0.3795(2)
O6 O 0.1531(2) 0.6317(5) 0.4368(2)
C23 C 0.0994(3) 0.6880(8) 0.5027(3)
C24 C 0.1249(4) 0.570(1) 0.5992(4)
C25 C 0.1218(3) 0.8849(9) 0.5275(4)
C26 C 0.1239(3) 0.1133(7) 0.2657(4)
loop_
_geom_bond_atom_site_label_1
_geom_bond_atom_site_label_2
_geom_bond_site_symmetry_1
_geom_bond_site_symmetry_2
N1 C1 1_555 1_555
C1 S1 1_555 1_555
N2 C1 1_555 1_555
C2 N2 1_555 1_555
C3 C2 1_555 1_555
C4 N1 1_555 1_555
C5 C2 1_555 1_555
C6 C5 1_555 1_555
C7 C6 1_555 1_555
N3 C7 1_555 1_555
O1 N3 1_555 1_555
O2 N3 1_555 1_555
C8 C7 1_555 1_555
C9 C8 1_555 1_555
C10 C5 1_555 1_555
C11 N2 1_555 1_555
O3 C11 1_555 1_555
O4 C11 1_555 1_555
C12 O4 1_555 1_555
C13 C12 1_555 1_555
C14 C13 1_555 1_555
C15 C14 1_555 1_555
C16 C15 1_555 1_555
C17 C12 1_555 1_555
C18 C13 1_555 1_555
C19 C18 1_555 1_555
C20 C18 1_555 1_555
C21 C16 1_555 1_555
C22 C3 1_555 1_555
O5 C22 1_555 1_555
O6 C22 1_555 1_555
C23 O6 1_555 1_555
C24 C23 1_555 1_555
C25 C23 1_555 1_555
C26 C4 1_555 1_555
C3 C4 1_555 1_555
C9 C10 1_555 1_555
C16 C17 1_555 1_555

#END
