
#######################################################################
#
#                 Cambridge Crystallographic Data Centre
#                                CCDC 
#
#######################################################################
#
# If this CIF has been generated from an entry in the Cambridge 
# Structural Database, then it will include bibliographic, chemical, 
# crystal, experimental, refinement or atomic coordinate data resulting 
# from the CCDC's data processing and validation procedures.
#
#######################################################################

data_SIKRUA
_chemical_name_common            
'6-(2-Acetylhydrazinylidene)hexane-1,2,3,4,5-pentayl pentaacetate'
_chemical_formula_moiety         'C18 H26 N2 O11'
_chemical_name_systematic        'Hexaacetyl D-mannose hydrazine'
_symmetry_cell_setting           orthorhombic
_symmetry_space_group_name_H-M   'P 21 21 21'
_symmetry_Int_Tables_number      19
_space_group_name_Hall           'P 2ac 2ab'
loop_
_symmetry_equiv_pos_site_id
_symmetry_equiv_pos_as_xyz
1 x,y,z
2 1/2-x,-y,1/2+z
3 -x,1/2+y,1/2-z
4 1/2+x,1/2-y,-z
_cell_length_a                   16.267(3)
_cell_length_b                   19.263(3)
_cell_length_c                   7.1948(12)
_cell_angle_alpha                90
_cell_angle_beta                 90
_cell_angle_gamma                90
_cell_volume                     2254.5
_exptl_crystal_colour            colorless
_exptl_crystal_description       plate
_cell_formula_units_Z            4
loop_
_atom_site_label
_atom_site_type_symbol
_atom_site_fract_x
_atom_site_fract_y
_atom_site_fract_z
O1 O 0.4493(2) 0.09628(19) 0.4320(5)
O2 O 0.4702(2) 0.19083(18) -0.0026(5)
O3 O 0.3218(2) 0.18950(19) 0.1613(6)
O4 O 0.4642(2) 0.32204(18) 0.3148(6)
O5 O 0.3186(2) 0.3275(2) 0.4936(6)
O6 O 0.3388(3) 0.0290(2) 0.3724(7)
O7 O 0.5958(3) 0.2373(3) 0.0110(7)
O8 O 0.2477(3) 0.1763(3) 0.4232(8)
O9 O 0.4907(3) 0.3972(3) 0.0858(8)
O10 O 0.1821(2) 0.3376(2) 0.5060(7)
O11 O 0.7451(2) -0.0149(2) -0.1666(6)
N1 N 0.5653(3) 0.0469(2) 0.0443(7)
N2 N 0.6456(3) 0.0244(2) 0.0191(7)
H1 H 0.6790 0.0245 0.1117
C1 C 0.4662(3) 0.1037(3) 0.2354(8)
H2 H 0.4245 0.0802 0.1601
C2 C 0.4670(3) 0.1826(3) 0.1975(7)
H3 H 0.5153 0.2041 0.2554
C3 C 0.3888(3) 0.2188(3) 0.2613(9)
H4 H 0.3809 0.2110 0.3947
C4 C 0.3912(3) 0.2973(3) 0.2218(9)
H5 H 0.3961 0.3052 0.0878
C5 C 0.3179(4) 0.3349(3) 0.2954(9)
H6 H 0.3204 0.3836 0.2615
H7 H 0.2678 0.3153 0.2442
C6 C 0.3812(4) 0.0580(3) 0.4817(10)
C7 C 0.3706(4) 0.0595(4) 0.6867(9)
H8 H 0.3232 0.0325 0.7203
H9 H 0.3631 0.1066 0.7269
H10 H 0.4185 0.0403 0.7452
C8 C 0.5368(4) 0.2212(3) -0.0782(9)
C9 C 0.5270(4) 0.2308(4) -0.2819(8)
H11 H 0.5753 0.2528 -0.3314
H12 H 0.4799 0.2595 -0.3057
H13 H 0.5196 0.1864 -0.3402
C10 C 0.2554(4) 0.1662(3) 0.2591(12)
C11 C 0.1986(3) 0.1286(3) 0.1330(12)
H14 H 0.1518 0.1126 0.2022
H15 H 0.2265 0.0896 0.0792
H16 H 0.1806 0.1593 0.0361
C12 C 0.5076(4) 0.3724(4) 0.2326(12)
C13 C 0.5791(4) 0.3923(3) 0.3523(12)
H17 H 0.6093 0.4291 0.2936
H18 H 0.6144 0.3528 0.3688
H19 H 0.5595 0.4077 0.4712
C14 C 0.2462(4) 0.3274(3) 0.5838(10)
C15 C 0.2592(5) 0.3140(4) 0.7855(10)
H20 H 0.2071 0.3143 0.8485
H21 H 0.2939 0.3494 0.8366
H22 H 0.2849 0.2695 0.8015
C16 C 0.5495(3) 0.0739(3) 0.2020(8)
H23 H 0.5893 0.0750 0.2948
C17 C 0.6721(4) 0.0023(3) -0.1504(9)
C18 C 0.6124(4) -0.0005(4) -0.3057(9)
H24 H 0.6399 -0.0156 -0.4166
H25 H 0.5896 0.0449 -0.3255
H26 H 0.5691 -0.0324 -0.2756
loop_
_geom_bond_atom_site_label_1
_geom_bond_atom_site_label_2
_geom_bond_site_symmetry_1
_geom_bond_site_symmetry_2
O1 C1 1_555 1_555
O2 C2 1_555 1_555
O3 C3 1_555 1_555
O4 C4 1_555 1_555
O5 C5 1_555 1_555
O6 C6 1_555 1_555
O7 C8 1_555 1_555
O8 C10 1_555 1_555
O9 C12 1_555 1_555
O10 C14 1_555 1_555
O11 C17 1_555 1_555
N1 N2 1_555 1_555
N2 H1 1_555 1_555
C1 H2 1_555 1_555
C2 C1 1_555 1_555
H3 C2 1_555 1_555
C3 C2 1_555 1_555
H4 C3 1_555 1_555
C4 C3 1_555 1_555
H5 C4 1_555 1_555
C5 C4 1_555 1_555
H6 C5 1_555 1_555
H7 C5 1_555 1_555
C6 O1 1_555 1_555
C7 C6 1_555 1_555
H8 C7 1_555 1_555
H9 C7 1_555 1_555
H10 C7 1_555 1_555
C8 O2 1_555 1_555
C9 C8 1_555 1_555
H11 C9 1_555 1_555
H12 C9 1_555 1_555
H13 C9 1_555 1_555
C10 O3 1_555 1_555
C11 C10 1_555 1_555
H14 C11 1_555 1_555
H15 C11 1_555 1_555
H16 C11 1_555 1_555
C12 O4 1_555 1_555
C13 C12 1_555 1_555
H17 C13 1_555 1_555
H18 C13 1_555 1_555
H19 C13 1_555 1_555
C14 O5 1_555 1_555
C15 C14 1_555 1_555
H20 C15 1_555 1_555
H21 C15 1_555 1_555
H22 C15 1_555 1_555
C16 N1 1_555 1_555
H23 C16 1_555 1_555
C17 N2 1_555 1_555
C18 C17 1_555 1_555
H24 C18 1_555 1_555
H25 C18 1_555 1_555
H26 C18 1_555 1_555
C1 C16 1_555 1_555

#END
