
#######################################################################
#
#                 Cambridge Crystallographic Data Centre
#                                CCDC 
#
#######################################################################
#
# If this CIF has been generated from an entry in the Cambridge 
# Structural Database, then it will include bibliographic, chemical, 
# crystal, experimental, refinement or atomic coordinate data resulting 
# from the CCDC's data processing and validation procedures.
#
#######################################################################

data_SIKVUD
_chemical_formula_moiety         'C19 H22 F1 N1 O2 S1'
_chemical_name_systematic        
N-Methyl-((2-fluoro-1-hydroxy-2-methyl-1,2,3,4-tetrahydronaphthyl)methyl)(phenyl)sulfoximine
_symmetry_cell_setting           monoclinic
_symmetry_space_group_name_H-M   'P 21'
_symmetry_Int_Tables_number      4
_space_group_name_Hall           'P 2yb'
loop_
_symmetry_equiv_pos_site_id
_symmetry_equiv_pos_as_xyz
1 x,y,z
2 -x,1/2+y,-z
_cell_length_a                   8.5209(6)
_cell_length_b                   10.1330(8)
_cell_length_c                   10.8060(5)
_cell_angle_alpha                90
_cell_angle_beta                 112.900(3)
_cell_angle_gamma                90
_cell_volume                     859.48
_chemical_melting_point          124-125deg.C
_cell_formula_units_Z            2
_exptl_crystal_recrystallization_method dichloromethane/ether
loop_
_atom_site_label
_atom_site_type_symbol
_atom_site_fract_x
_atom_site_fract_y
_atom_site_fract_z
S1 S 0.4628(1) 0.2500 1.07950(8)
F1 F 0.0568(2) 0.1823(2) 0.7129(2)
O1 O 0.2647(3) 0.3896(2) 0.8227(2)
O2 O 0.5439(3) 0.3775(2) 1.0837(2)
N1 N 0.5664(4) 0.1375(3) 1.1669(3)
C1 C 0.4844(4) 0.3025(3) 0.7525(3)
C2 C 0.6547(5) 0.2971(4) 0.8445(4)
C3 C 0.7868(5) 0.3283(4) 0.8055(4)
C4 C 0.7526(5) 0.3684(4) 0.6753(4)
C5 C 0.5858(5) 0.3731(4) 0.5838(4)
C6 C 0.4511(5) 0.3384(4) 0.6208(3)
C7 C 0.2756(5) 0.3333(5) 0.5110(4)
C8 C 0.1331(5) 0.3001(4) 0.5582(4)
C9 C 0.1957(4) 0.2050(4) 0.6742(3)
C10 C 0.3373(4) 0.2702(3) 0.7951(3)
C11 C 0.3852(5) 0.1771(4) 0.9165(3)
C12 C 0.2772(4) 0.2829(3) 1.1134(3)
C13 C 0.1846(5) 0.1768(4) 1.1303(4)
C14 C 0.0409(5) 0.2021(5) 1.1578(4)
C15 C -0.0058(6) 0.3297(6) 1.1698(4)
C16 C 0.0874(5) 0.4341(5) 1.1547(4)
C17 C 0.2296(5) 0.4119(4) 1.1258(4)
C18 C 0.2444(6) 0.0713(4) 0.6383(4)
C19 C 0.6337(6) 0.1647(5) 1.3125(4)
H1 H 0.354(6) 0.453(5) 0.855(4)
H2 H 0.682(4) 0.272(3) 0.941(3)
H3 H 0.905(5) 0.321(4) 0.875(4)
H4 H 0.852(4) 0.395(4) 0.647(3)
H5 H 0.553(5) 0.398(4) 0.479(4)
H6 H 0.272(5) 0.269(4) 0.444(4)
H7 H 0.257(5) 0.409(4) 0.464(4)
H8 H 0.041(5) 0.269(4) 0.486(4)
H9 H 0.100(5) 0.382(5) 0.594(4)
H10 H 0.294(4) 0.133(3) 0.914(3)
H11 H 0.473(5) 0.115(4) 0.921(3)
H12 H 0.231(5) 0.083(4) 1.125(4)
H13 H -0.019(5) 0.134(4) 1.171(4)
H14 H -0.107(6) 0.339(5) 1.184(4)
H15 H 0.055(5) 0.524(5) 1.162(4)
H16 H 0.297(5) 0.485(4) 1.116(4)
H17 H 0.343(5) 0.073(4) 0.609(4)
H18 H 0.158(6) 0.044(5) 0.565(5)
H19 H 0.266(5) 0.007(5) 0.722(5)
H20 H 0.707(6) 0.105(5) 1.356(5)
H21 H 0.547(6) 0.167(5) 1.355(5)
H22 H 0.685(5) 0.249(5) 1.335(4)
loop_
_geom_bond_atom_site_label_1
_geom_bond_atom_site_label_2
_geom_bond_site_symmetry_1
_geom_bond_site_symmetry_2
S1 O2 1_555 1_555
F1 C9 1_555 1_555
O1 C10 1_555 1_555
N1 S1 1_555 1_555
C1 C2 1_555 1_555
C2 C3 1_555 1_555
C3 C4 1_555 1_555
C4 C5 1_555 1_555
C5 C6 1_555 1_555
C6 C1 1_555 1_555
C7 C6 1_555 1_555
C8 C7 1_555 1_555
C9 C8 1_555 1_555
C10 C1 1_555 1_555
C11 S1 1_555 1_555
C12 S1 1_555 1_555
C13 C12 1_555 1_555
C14 C13 1_555 1_555
C15 C14 1_555 1_555
C16 C15 1_555 1_555
C17 C12 1_555 1_555
C18 C9 1_555 1_555
C19 N1 1_555 1_555
H1 O1 1_555 1_555
H2 C2 1_555 1_555
H3 C3 1_555 1_555
H4 C4 1_555 1_555
H5 C5 1_555 1_555
H6 C7 1_555 1_555
H7 C7 1_555 1_555
H8 C8 1_555 1_555
H9 C8 1_555 1_555
H10 C11 1_555 1_555
H11 C11 1_555 1_555
H12 C13 1_555 1_555
H13 C14 1_555 1_555
H14 C15 1_555 1_555
H15 C16 1_555 1_555
H16 C17 1_555 1_555
H17 C18 1_555 1_555
H18 C18 1_555 1_555
H19 C18 1_555 1_555
H20 C19 1_555 1_555
H21 C19 1_555 1_555
H22 C19 1_555 1_555
C9 C10 1_555 1_555
C10 C11 1_555 1_555
C16 C17 1_555 1_555

#END
