
#######################################################################
#
#                 Cambridge Crystallographic Data Centre
#                                CCDC 
#
#######################################################################
#
# If this CIF has been generated from an entry in the Cambridge 
# Structural Database, then it will include bibliographic, chemical, 
# crystal, experimental, refinement or atomic coordinate data resulting 
# from the CCDC's data processing and validation procedures.
#
#######################################################################

data_SIKYAM01
_chemical_formula_moiety         'C19 H15 N3 O2'
_chemical_name_systematic        6-Cyano-5,6-acenaphthenyl-1,3-dimethyluracil
_symmetry_cell_setting           triclinic
_symmetry_space_group_name_H-M   'P -1'
_symmetry_Int_Tables_number      2
_space_group_name_Hall           '-P 1'
loop_
_symmetry_equiv_pos_site_id
_symmetry_equiv_pos_as_xyz
1 x,y,z
2 -x,-y,-z
_cell_length_a                   8.735(1)
_cell_length_b                   15.315(2)
_cell_length_c                   18.094(4)
_cell_angle_alpha                94.96(2)
_cell_angle_beta                 93.89(1)
_cell_angle_gamma                103.79(1)
_cell_volume                     2332.17
_exptl_crystal_colour            colorless
_cell_formula_units_Z            6
loop_
_atom_site_label
_atom_site_type_symbol
_atom_site_fract_x
_atom_site_fract_y
_atom_site_fract_z
C1 C 0.7721(2) 0.1162(2) 0.6832(2)
N1 N 0.7585(3) 0.2005(1) 0.6693(1)
C2 C 0.8824(3) 0.2776(2) 0.6733(2)
N2 N 1.0330(3) 0.2692(1) 0.6841(1)
C3 C 1.0752(3) 0.1847(2) 0.6901(2)
C4 C 0.9354(3) 0.1020(2) 0.6887(2)
C5 C 0.8863(3) 0.0658(2) 0.5429(2)
C6 C 0.7430(4) 0.0160(2) 0.5094(2)
C7 C 0.6890(4) 0.0388(2) 0.4400(2)
C8 C 0.7750(4) 0.1073(2) 0.4049(2)
C9 C 1.0284(5) 0.2306(2) 0.4087(2)
C10 C 1.1690(5) 0.2725(2) 0.4466(2)
C11 C 1.2176(4) 0.2497(2) 0.5157(2)
C12 C 1.1174(3) 0.1816(2) 0.5468(2)
C13 C 0.9724(3) 0.1375(2) 0.5073(2)
C14 C 0.9223(4) 0.1598(2) 0.4377(2)
C15 C 1.1318(3) 0.1393(2) 0.6177(2)
C16 C 0.9817(3) 0.0595(2) 0.6142(2)
O1 O 0.6573(2) 0.0541(1) 0.6864(1)
C17 C 0.5969(4) 0.2116(2) 0.6539(3)
O2 O 0.8533(3) 0.3505(1) 0.6673(1)
C18 C 1.1607(4) 0.3517(2) 0.6900(2)
C19 C 1.1938(3) 0.1922(2) 0.7539(2)
N3 N 1.2913(3) 0.1931(2) 0.7985(2)
C20 C 0.6310(3) 0.4654(2) 0.6395(2)
N4 N 0.7635(3) 0.5017(2) 0.6057(1)
C21 C 0.9114(3) 0.5440(2) 0.6432(2)
N5 N 0.9194(2) 0.5690(1) 0.7180(1)
C22 C 0.8018(3) 0.5282(2) 0.7651(1)
C23 C 0.6415(3) 0.4791(2) 0.7225(2)
C24 C 0.5352(3) 0.6244(2) 0.7118(2)
C25 C 0.4219(3) 0.6260(2) 0.6567(2)
C26 C 0.4256(3) 0.7086(2) 0.6262(2)
C27 C 0.5385(4) 0.7860(2) 0.6509(2)
C28 C 0.7762(4) 0.8611(2) 0.7418(2)
C29 C 0.8806(4) 0.8504(2) 0.7978(2)
C30 C 0.8752(3) 0.7659(2) 0.8249(2)
C31 C 0.7610(3) 0.6929(2) 0.7939(2)
C32 C 0.6522(3) 0.7036(2) 0.7366(2)
C33 C 0.6568(3) 0.7866(2) 0.7085(2)
C34 C 0.7168(3) 0.5947(2) 0.8090(2)
C35 C 0.5607(3) 0.5509(2) 0.7582(2)
O3 O 0.5081(2) 0.4239(2) 0.6043(1)
C36 C 0.7588(4) 0.4814(3) 0.5247(2)
O4 O 1.0277(2) 0.5631(2) 0.6092(1)
C37 C 1.0756(3) 0.6132(2) 0.7550(2)
C38 C 0.8663(3) 0.4696(2) 0.8128(2)
N6 N 0.9156(3) 0.4240(2) 0.8488(2)
C39 C 0.8636(3) 0.2341(2) 0.8871(2)
N7 N 0.9556(2) 0.2745(2) 0.9501(1)
C40 C 0.9165(3) 0.3358(2) 1.0036(2)
N8 N 0.7686(3) 0.3489(2) 0.9971(1)
C41 C 0.6431(3) 0.2979(2) 0.9441(2)
C42 C 0.6932(3) 0.2363(2) 0.8827(2)
C43 C 0.6579(3) 0.0889(2) 0.9494(2)
C44 C 0.7244(4) 0.0202(2) 0.9255(2)
C45 C 0.7865(4) -0.0258(2) 0.9801(2)
C46 C 0.7810(4) -0.0059(2) 1.0543(2)
C47 C 0.6937(4) 0.0927(2) 1.1550(2)
C48 C 0.6212(4) 0.1613(3) 1.1707(2)
C49 C 0.5618(4) 0.2059(2) 1.1148(2)
C50 C 0.5788(3) 0.1813(2) 1.0424(2)
C51 C 0.6534(3) 0.1103(2) 1.0259(2)
C52 C 0.7125(3) 0.0649(2) 1.0808(2)
C53 C 0.5274(3) 0.2114(2) 0.9697(2)
C54 C 0.5804(3) 0.1509(2) 0.9080(2)
O5 O 0.9128(2) 0.1928(1) 0.8373(1)
C55 C 1.1207(4) 0.2676(3) 0.9560(2)
O6 O 1.0140(2) 0.3471(2) 1.0538(1)
C56 C 0.7328(4) 0.4167(2) 1.0509(2)
C57 C 0.5556(3) 0.3596(2) 0.9118(2)
N9 N 0.4864(3) 0.4057(2) 0.8874(2)
loop_
_geom_bond_atom_site_label_1
_geom_bond_atom_site_label_2
_geom_bond_site_symmetry_1
_geom_bond_site_symmetry_2
C1 N1 1_555 1_555
N1 C2 1_555 1_555
C2 N2 1_555 1_555
N2 C3 1_555 1_555
C3 C4 1_555 1_555
C4 C1 1_555 1_555
C5 C6 1_555 1_555
C6 C7 1_555 1_555
C7 C8 1_555 1_555
C8 C14 1_555 1_555
C9 C10 1_555 1_555
C10 C11 1_555 1_555
C11 C12 1_555 1_555
C12 C13 1_555 1_555
C13 C5 1_555 1_555
C14 C9 1_555 1_555
C15 C3 1_555 1_555
C16 C4 1_555 1_555
O1 C1 1_555 1_555
C17 N1 1_555 1_555
O2 C2 1_555 1_555
C18 N2 1_555 1_555
C19 C3 1_555 1_555
N3 C19 1_555 1_555
C20 N4 1_555 1_555
N4 C21 1_555 1_555
C21 N5 1_555 1_555
N5 C22 1_555 1_555
C22 C23 1_555 1_555
C23 C20 1_555 1_555
C24 C25 1_555 1_555
C25 C26 1_555 1_555
C26 C27 1_555 1_555
C27 C33 1_555 1_555
C28 C29 1_555 1_555
C29 C30 1_555 1_555
C30 C31 1_555 1_555
C31 C32 1_555 1_555
C32 C24 1_555 1_555
C33 C28 1_555 1_555
C34 C22 1_555 1_555
C35 C23 1_555 1_555
O3 C20 1_555 1_555
C36 N4 1_555 1_555
O4 C21 1_555 1_555
C37 N5 1_555 1_555
C38 C22 1_555 1_555
N6 C38 1_555 1_555
C39 N7 1_555 1_555
N7 C40 1_555 1_555
C40 N8 1_555 1_555
N8 C41 1_555 1_555
C41 C42 1_555 1_555
C42 C39 1_555 1_555
C43 C44 1_555 1_555
C44 C45 1_555 1_555
C45 C46 1_555 1_555
C46 C52 1_555 1_555
C47 C48 1_555 1_555
C48 C49 1_555 1_555
C49 C50 1_555 1_555
C50 C51 1_555 1_555
C51 C43 1_555 1_555
C52 C47 1_555 1_555
C53 C41 1_555 1_555
C54 C42 1_555 1_555
O5 C39 1_555 1_555
C55 N7 1_555 1_555
O6 C40 1_555 1_555
C56 N8 1_555 1_555
C57 C41 1_555 1_555
N9 C57 1_555 1_555
C5 C16 1_555 1_555
C12 C15 1_555 1_555
C13 C14 1_555 1_555
C15 C16 1_555 1_555
C24 C35 1_555 1_555
C31 C34 1_555 1_555
C32 C33 1_555 1_555
C34 C35 1_555 1_555
C43 C54 1_555 1_555
C50 C53 1_555 1_555
C51 C52 1_555 1_555
C53 C54 1_555 1_555

#END
