
#######################################################################
#
#                 Cambridge Crystallographic Data Centre
#                                CCDC 
#
#######################################################################
#
# If this CIF has been generated from an entry in the Cambridge 
# Structural Database, then it will include bibliographic, chemical, 
# crystal, experimental, refinement or atomic coordinate data resulting 
# from the CCDC's data processing and validation procedures.
#
#######################################################################

data_SILWAN
_chemical_formula_moiety         'C40 H36 N2'
_chemical_name_systematic        
rac-N,N'-Butane-2,3-diylidenebis(2-(1-phenylethyl)naphthalen-1-amine)
_symmetry_cell_setting           orthorhombic
_symmetry_space_group_name_H-M   'P c c n'
_symmetry_Int_Tables_number      56
_space_group_name_Hall           '-P 2ab 2ac'
loop_
_symmetry_equiv_pos_site_id
_symmetry_equiv_pos_as_xyz
1 x,y,z
2 1/2-x,1/2-y,z
3 1/2+x,-y,1/2-z
4 -x,1/2+y,1/2-z
5 -x,-y,-z
6 1/2+x,1/2+y,-z
7 1/2-x,y,1/2+z
8 x,1/2-y,1/2+z
_cell_length_a                   18.79(3)
_cell_length_b                   21.41(3)
_cell_length_c                   7.767(10)
_cell_angle_alpha                90
_cell_angle_beta                 90
_cell_angle_gamma                90
_cell_volume                     3124.62
_exptl_crystal_colour            yellow
_exptl_crystal_description       block
_cell_formula_units_Z            4
loop_
_atom_site_label
_atom_site_type_symbol
_atom_site_fract_x
_atom_site_fract_y
_atom_site_fract_z
C1 C 0.17277(15) 0.00822(16) -0.0281(4)
H1 H 0.1931 0.0400 -0.0933
C2 C 0.19962(15) -0.05108(18) -0.0404(4)
H2 H 0.2381 -0.0587 -0.1128
C3 C 0.17036(14) -0.10039(15) 0.0537(4)
C4 C 0.19466(17) -0.16292(18) 0.0376(5)
H3 H 0.2317 -0.1721 -0.0377
C5 C 0.1645(2) -0.20908(18) 0.1302(6)
H4 H 0.1808 -0.2498 0.1167
C6 C 0.10967(18) -0.19712(15) 0.2456(5)
H5 H 0.0899 -0.2295 0.3095
C7 C 0.08491(15) -0.13753(13) 0.2646(4)
H6 H 0.0482 -0.1298 0.3419
C8 C 0.11390(13) -0.08761(13) 0.1696(3)
C9 C 0.08743(13) -0.02498(12) 0.1827(3)
C10 C 0.11445(14) 0.02244(13) 0.0822(3)
C11 C 0.07899(15) 0.08642(13) 0.0860(4)
H7 H 0.0277 0.0789 0.0955
C12 C 0.09980(16) 0.12573(13) 0.2426(4)
C13 C 0.16940(19) 0.13222(14) 0.2935(4)
H8 H 0.2047 0.1099 0.2362
C14 C 0.1882(2) 0.17132(17) 0.4288(5)
H9 H 0.2358 0.1753 0.4605
C15 C 0.1371(3) 0.20393(16) 0.5151(5)
H10 H 0.1495 0.2300 0.6060
C16 C 0.0674(3) 0.19800(16) 0.4674(6)
H11 H 0.0323 0.2201 0.5255
C17 C 0.04927(19) 0.15896(15) 0.3322(5)
H12 H 0.0017 0.1551 0.3011
C18 C 0.08996(19) 0.12430(15) -0.0785(4)
H13 H 0.0613 0.1614 -0.0741
H14 H 0.0763 0.0996 -0.1763
H15 H 0.1392 0.1357 -0.0885
C19 C 0.03352(12) -0.00637(12) 0.4510(3)
C20 C 0.10192(13) -0.01050(16) 0.5502(4)
H16 H 0.1392 -0.0246 0.4754
H17 H 0.0964 -0.0395 0.6436
H18 H 0.1139 0.0299 0.5951
N1 N 0.02737(10) -0.01263(9) 0.2885(3)
C1D C -0.17277(15) -0.00822(16) 1.0281(4)
H1D H -0.1931 -0.0400 1.0933
C2D C -0.19962(15) 0.05108(18) 1.0404(4)
H2D H -0.2381 0.0587 1.1128
C3D C -0.17036(14) 0.10039(15) 0.9463(4)
C4D C -0.19466(17) 0.16292(18) 0.9624(5)
H3D H -0.2317 0.1721 1.0377
C5D C -0.1645(2) 0.20908(18) 0.8698(6)
H4D H -0.1808 0.2498 0.8833
C6D C -0.10967(18) 0.19712(15) 0.7544(5)
H5D H -0.0899 0.2295 0.6905
C7D C -0.08491(15) 0.13753(13) 0.7354(4)
H6D H -0.0482 0.1298 0.6581
C8D C -0.11390(13) 0.08761(13) 0.8304(3)
C9D C -0.08743(13) 0.02498(12) 0.8173(3)
C10D C -0.11445(14) -0.02244(13) 0.9178(3)
C11D C -0.07899(15) -0.08642(13) 0.9140(4)
H7D H -0.0277 -0.0789 0.9045
C12D C -0.09980(16) -0.12573(13) 0.7574(4)
C13D C -0.16940(19) -0.13222(14) 0.7065(4)
H8D H -0.2047 -0.1099 0.7638
C14D C -0.1882(2) -0.17132(17) 0.5712(5)
H9D H -0.2358 -0.1753 0.5395
C15D C -0.1371(3) -0.20393(16) 0.4849(5)
H10D H -0.1495 -0.2300 0.3940
C16D C -0.0674(3) -0.19800(16) 0.5326(6)
H11D H -0.0323 -0.2201 0.4745
C17D C -0.04927(19) -0.15896(15) 0.6678(5)
H12D H -0.0017 -0.1551 0.6989
C18D C -0.08996(19) -0.12430(15) 1.0785(4)
H13D H -0.0613 -0.1614 1.0741
H14D H -0.0763 -0.0996 1.1763
H15D H -0.1392 -0.1357 1.0885
C19D C -0.03352(12) 0.00637(12) 0.5490(3)
C20D C -0.10192(13) 0.01050(16) 0.4498(4)
H16D H -0.1392 0.0246 0.5246
H17D H -0.0964 0.0395 0.3564
H18D H -0.1139 -0.0299 0.4049
N1D N -0.02737(10) 0.01263(9) 0.7115(3)
loop_
_geom_bond_atom_site_label_1
_geom_bond_atom_site_label_2
_geom_bond_site_symmetry_1
_geom_bond_site_symmetry_2
C1 H1 1_555 1_555
C2 C1 1_555 1_555
H2 C2 1_555 1_555
C3 C2 1_555 1_555
C4 C3 1_555 1_555
H3 C4 1_555 1_555
C5 C4 1_555 1_555
H4 C5 1_555 1_555
C6 C5 1_555 1_555
H5 C6 1_555 1_555
C7 C6 1_555 1_555
H6 C7 1_555 1_555
C8 C3 1_555 1_555
C9 C8 1_555 1_555
C10 C1 1_555 1_555
C11 C10 1_555 1_555
H7 C11 1_555 1_555
C12 C11 1_555 1_555
C13 C12 1_555 1_555
H8 C13 1_555 1_555
C14 C13 1_555 1_555
H9 C14 1_555 1_555
C15 C14 1_555 1_555
H10 C15 1_555 1_555
C16 C15 1_555 1_555
H11 C16 1_555 1_555
C17 C12 1_555 1_555
H12 C17 1_555 1_555
C18 C11 1_555 1_555
H13 C18 1_555 1_555
H14 C18 1_555 1_555
H15 C18 1_555 1_555
C19 C20 1_555 1_555
C20 H16 1_555 1_555
H17 C20 1_555 1_555
H18 C20 1_555 1_555
N1 C9 1_555 1_555
C1D H1D 1_555 1_555
C2D C1D 1_555 1_555
H2D C2D 1_555 1_555
C3D C2D 1_555 1_555
C4D C3D 1_555 1_555
H3D C4D 1_555 1_555
C5D C4D 1_555 1_555
H4D C5D 1_555 1_555
C6D C5D 1_555 1_555
H5D C6D 1_555 1_555
C7D C6D 1_555 1_555
H6D C7D 1_555 1_555
C8D C3D 1_555 1_555
C9D C8D 1_555 1_555
C10D C1D 1_555 1_555
C11D C10D 1_555 1_555
H7D C11D 1_555 1_555
C12D C11D 1_555 1_555
C13D C12D 1_555 1_555
H8D C13D 1_555 1_555
C14D C13D 1_555 1_555
H9D C14D 1_555 1_555
C15D C14D 1_555 1_555
H10D C15D 1_555 1_555
C16D C15D 1_555 1_555
H11D C16D 1_555 1_555
C17D C12D 1_555 1_555
H12D C17D 1_555 1_555
C18D C11D 1_555 1_555
H13D C18D 1_555 1_555
H14D C18D 1_555 1_555
H15D C18D 1_555 1_555
C19D C19 1_555 1_555
C20D C19D 1_555 1_555
H16D C20D 1_555 1_555
H17D C20D 1_555 1_555
H18D C20D 1_555 1_555
N1D C9D 1_555 1_555
C7 C8 1_555 1_555
C9 C10 1_555 1_555
C16 C17 1_555 1_555
C19 N1 1_555 1_555
C7D C8D 1_555 1_555
C9D C10D 1_555 1_555
C16D C17D 1_555 1_555
C19D N1D 1_555 1_555

#END
