
#######################################################################
#
#                 Cambridge Crystallographic Data Centre
#                                CCDC 
#
#######################################################################
#
# If this CIF has been generated from an entry in the Cambridge 
# Structural Database, then it will include bibliographic, chemical, 
# crystal, experimental, refinement or atomic coordinate data resulting 
# from the CCDC's data processing and validation procedures.
#
#######################################################################

data_SIMNIM01
_chemical_name_common            1,1'-Dibutyl-isoindigo
_chemical_formula_moiety         'C24 H26 N2 O2'
_chemical_name_systematic        
(E)-1,1'-Dibutyl-3,3'-biindolinylidene-2,2'-dione
_symmetry_cell_setting           monoclinic
_symmetry_space_group_name_H-M   'P 21'
_symmetry_Int_Tables_number      4
_space_group_name_Hall           'P 2yb'
loop_
_symmetry_equiv_pos_site_id
_symmetry_equiv_pos_as_xyz
1 x,y,z
2 -x,1/2+y,-z
_cell_length_a                   8.9224(3)
_cell_length_b                   11.9605(5)
_cell_length_c                   9.6827(4)
_cell_angle_alpha                90
_cell_angle_beta                 110.7820(10)
_cell_angle_gamma                90
_cell_volume                     966.073
_exptl_crystal_colour            purple
_exptl_crystal_description       plank
_cell_formula_units_Z            2
loop_
_atom_site_label
_atom_site_type_symbol
_atom_site_fract_x
_atom_site_fract_y
_atom_site_fract_z
O1 O 0.5183(2) 0.40482(16) 0.3409(2)
O2 O 0.9572(2) 0.57182(16) 0.1333(2)
N1 N 0.7459(2) 0.30308(16) 0.4455(2)
N2 N 0.7454(2) 0.69090(16) 0.0617(2)
C1 C 0.6589(3) 0.3867(2) 0.3584(2)
C2 C 0.7669(2) 0.44723(18) 0.2919(2)
C3 C 0.9220(2) 0.38775(19) 0.3518(2)
C4 C 1.0726(3) 0.3982(2) 0.3403(3)
H1 H 1.0912 0.4548 0.2795
C5 C 1.1959(3) 0.3257(2) 0.4182(3)
H2 H 1.2985 0.3338 0.4103
C6 C 1.1715(3) 0.2420(2) 0.5069(3)
H3 H 1.2570 0.1932 0.5587
C7 C 1.0227(3) 0.2291(2) 0.5203(3)
H4 H 1.0049 0.1719 0.5809
C8 C 0.9016(3) 0.30130(19) 0.4437(2)
C9 C 0.6854(3) 0.2281(2) 0.5331(2)
H5 H 0.5909 0.2631 0.5466
H6 H 0.7690 0.2188 0.6321
C10 C 0.6377(3) 0.1131(2) 0.4634(3)
H7 H 0.7291 0.0810 0.4414
H8 H 0.6157 0.0633 0.5356
C11 C 0.4915(3) 0.1152(2) 0.3223(3)
H9 H 0.4000 0.1472 0.3440
H10 H 0.5135 0.1646 0.2496
C12 C 0.4457(4) 0.0003(2) 0.2548(3)
H11 H 0.3545 0.0068 0.1617
H12 H 0.4161 -0.0474 0.3233
H13 H 0.5370 -0.0328 0.2358
C13 C 0.8248(2) 0.59781(19) 0.1318(2)
C14 C 0.7168(2) 0.53754(18) 0.1994(2)
C15 C 0.5658(2) 0.60189(19) 0.1468(2)
C16 C 0.4134(2) 0.5911(2) 0.1555(2)
H14 H 0.3907 0.5296 0.2070
C17 C 0.2947(3) 0.6699(2) 0.0894(3)
H15 H 0.1908 0.6605 0.0940
C18 C 0.3261(3) 0.7618(2) 0.0169(2)
H16 H 0.2445 0.8158 -0.0254
C19 C 0.4764(3) 0.7760(2) 0.0054(3)
H17 H 0.4993 0.8391 -0.0432
C20 C 0.5909(2) 0.69476(18) 0.0674(2)
C21 C 0.8118(3) 0.7658(2) -0.0215(2)
H18 H 0.7229 0.8062 -0.0964
H19 H 0.8676 0.7207 -0.0742
C22 C 0.9289(3) 0.8506(2) 0.0767(3)
H20 H 1.0197 0.8098 0.1487
H21 H 0.9724 0.8966 0.0146
C23 C 0.8570(3) 0.9279(2) 0.1606(3)
H22 H 0.8193 0.8831 0.2279
H23 H 0.7631 0.9667 0.0898
C24 C 0.9782(4) 1.0145(3) 0.2504(3)
H24 H 1.0220 1.0551 0.1853
H25 H 0.9249 1.0674 0.2953
H26 H 1.0654 0.9769 0.3283
loop_
_geom_bond_atom_site_label_1
_geom_bond_atom_site_label_2
_geom_bond_site_symmetry_1
_geom_bond_site_symmetry_2
O1 C1 1_555 1_555
O2 C13 1_555 1_555
N1 C1 1_555 1_555
N2 C13 1_555 1_555
C1 C2 1_555 1_555
C2 C3 1_555 1_555
C3 C4 1_555 1_555
C4 H1 1_555 1_555
C5 C4 1_555 1_555
H2 C5 1_555 1_555
C6 C5 1_555 1_555
H3 C6 1_555 1_555
C7 C6 1_555 1_555
H4 C7 1_555 1_555
C8 N1 1_555 1_555
C9 N1 1_555 1_555
H5 C9 1_555 1_555
H6 C9 1_555 1_555
C10 C9 1_555 1_555
H7 C10 1_555 1_555
H8 C10 1_555 1_555
C11 C10 1_555 1_555
H9 C11 1_555 1_555
H10 C11 1_555 1_555
C12 C11 1_555 1_555
H11 C12 1_555 1_555
H12 C12 1_555 1_555
H13 C12 1_555 1_555
C13 C14 1_555 1_555
C14 C2 1_555 1_555
C15 C14 1_555 1_555
C16 C15 1_555 1_555
H14 C16 1_555 1_555
C17 C16 1_555 1_555
H15 C17 1_555 1_555
C18 C17 1_555 1_555
H16 C18 1_555 1_555
C19 C18 1_555 1_555
H17 C19 1_555 1_555
C20 N2 1_555 1_555
C21 N2 1_555 1_555
H18 C21 1_555 1_555
H19 C21 1_555 1_555
C22 C21 1_555 1_555
H20 C22 1_555 1_555
H21 C22 1_555 1_555
C23 C22 1_555 1_555
H22 C23 1_555 1_555
H23 C23 1_555 1_555
C24 C23 1_555 1_555
H24 C24 1_555 1_555
H25 C24 1_555 1_555
H26 C24 1_555 1_555
C3 C8 1_555 1_555
C7 C8 1_555 1_555
C15 C20 1_555 1_555
C19 C20 1_555 1_555

#END
