
#######################################################################
#
#                 Cambridge Crystallographic Data Centre
#                                CCDC 
#
#######################################################################
#
# If this CIF has been generated from an entry in the Cambridge 
# Structural Database, then it will include bibliographic, chemical, 
# crystal, experimental, refinement or atomic coordinate data resulting 
# from the CCDC's data processing and validation procedures.
#
#######################################################################

data_SIMPIQ
_chemical_formula_moiety         'C61 H74 N10 O7,H2 O1'
_chemical_name_systematic        
'2-(ethyl{4-[(4-nitrophenyl)diazenyl]phenyl}amino)ethyl 3,7,12-tris[(phenylcarbamoyl)amino]cholan-24-oate monohydrate'
_symmetry_cell_setting           hexagonal
_symmetry_space_group_name_H-M   'P 61'
_symmetry_Int_Tables_number      169
_space_group_name_Hall           'P 61'
loop_
_symmetry_equiv_pos_site_id
_symmetry_equiv_pos_as_xyz
1 x,y,z
2 -y,x-y,1/3+z
3 -x+y,-x,2/3+z
4 -x,-y,1/2+z
5 y,-x+y,5/6+z
6 x-y,x,1/6+z
_cell_length_a                   29.4598(10)
_cell_length_b                   29.4598(10)
_cell_length_c                   11.4907(4)
_cell_angle_alpha                90
_cell_angle_beta                 90
_cell_angle_gamma                120
_cell_volume                     8636.48
_exptl_crystal_colour            red
_exptl_crystal_description       needle
_cell_formula_units_Z            6
loop_
_atom_site_label
_atom_site_type_symbol
_atom_site_fract_x
_atom_site_fract_y
_atom_site_fract_z
C1 C 0.4597(2) 0.5957(2) 0.4878(5)
H1 H 0.4472 0.6108 0.4275
H2 H 0.4805 0.5823 0.4483
C2 C 0.4123(2) 0.5497(2) 0.5451(6)
H3 H 0.3908 0.5236 0.4853
H4 H 0.4241 0.5326 0.6019
C3 C 0.3795(2) 0.5692(2) 0.6069(5)
H5 H 0.3695 0.5870 0.5465
C4 C 0.4129(2) 0.6112(2) 0.6974(5)
H6 H 0.3914 0.6245 0.7344
H7 H 0.4241 0.5953 0.7589
C5 C 0.4615(2) 0.6571(2) 0.6410(5)
H8 H 0.4483 0.6730 0.5828
C6 C 0.4941(2) 0.7004(2) 0.7304(5)
H9 H 0.4701 0.7075 0.7773
H10 H 0.5181 0.7330 0.6879
C7 C 0.5270(2) 0.6867(2) 0.8137(5)
H11 H 0.5530 0.7199 0.8533
C8 C 0.5576(2) 0.6658(2) 0.7476(5)
H12 H 0.5848 0.6956 0.7008
C9 C 0.4956(2) 0.6395(2) 0.5726(5)
C10 C 0.5232(2) 0.6219(2) 0.6609(5)
H13 H 0.4949 0.5930 0.7076
C11 C 0.5551(2) 0.5990(2) 0.6032(5)
H14 H 0.5311 0.5686 0.5546
H15 H 0.5817 0.6259 0.5511
C12 C 0.5827(2) 0.5814(2) 0.6907(5)
H16 H 0.6042 0.5698 0.6461
C13 C 0.6196(2) 0.6273(2) 0.7700(5)
C14 C 0.5865(2) 0.6484(2) 0.8297(5)
H17 H 0.5591 0.6188 0.8767
C15 C 0.6250(2) 0.6882(2) 0.9160(6)
H18 H 0.6062 0.6943 0.9800
H19 H 0.6484 0.7219 0.8772
C16 C 0.6563(2) 0.6628(2) 0.9625(6)
H20 H 0.6459 0.6505 1.0435
H21 H 0.6943 0.6883 0.9610
C17 C 0.6431(2) 0.6152(2) 0.8800(6)
H22 H 0.6144 0.5830 0.9174
C18 C 0.5357(2) 0.6856(2) 0.4961(6)
H23 H 0.5566 0.6743 0.4512
H24 H 0.5589 0.7152 0.5461
H25 H 0.5169 0.6964 0.4427
C19 C 0.6639(2) 0.6696(2) 0.6959(6)
H26 H 0.6823 0.6543 0.6552
H27 H 0.6885 0.6981 0.7464
H28 H 0.6491 0.6833 0.6389
C20 C 0.6901(2) 0.6070(2) 0.8650(7)
H29 H 0.7199 0.6402 0.8332
C21 C 0.6790(3) 0.5627(3) 0.7804(8)
H30 H 0.6460 0.5314 0.8019
H31 H 0.7077 0.5549 0.7838
H32 H 0.6762 0.5734 0.7012
C22 C 0.7067(3) 0.5967(3) 0.9855(8)
H33 H 0.7049 0.6209 1.0428
H34 H 0.6811 0.5605 1.0098
C23 C 0.3264(2) 0.4941(2) 0.7423(5)
C24 C 0.4716(2) 0.6644(2) 0.9872(5)
C25 C 0.5212(2) 0.4868(2) 0.7177(5)
C26 C 0.2616(2) 0.4263(2) 0.8736(6)
C27 C 0.2747(3) 0.3873(3) 0.8672(8)
H35 H 0.2945 0.3857 0.8035
C28 C 0.2584(4) 0.3508(4) 0.9550(10)
H36 H 0.2697 0.3257 0.9542
C29 C 0.2264(4) 0.3491(4) 1.0437(9)
H37 H 0.2144 0.3225 1.1015
C30 C 0.2126(3) 0.3859(3) 1.0466(7)
H38 H 0.1897 0.3849 1.1059
C31 C 0.2312(3) 0.4252(3) 0.9647(6)
H39 H 0.2227 0.4523 0.9718
C32 C 0.4064(2) 0.6273(2) 1.1507(5)
C33 C 0.3728(2) 0.5810(2) 1.2050(6)
H40 H 0.3705 0.5493 1.1785
C34 C 0.3424(3) 0.5797(3) 1.2973(6)
H41 H 0.3193 0.5472 1.3335
C35 C 0.3450(2) 0.6247(3) 1.3379(6)
H42 H 0.3238 0.6236 1.4015
C36 C 0.3787(3) 0.6714(3) 1.2846(7)
H43 H 0.3812 0.7028 1.3129
C37 C 0.4093(3) 0.6737(3) 1.1904(6)
H44 H 0.4318 0.7062 1.1534
C38 C 0.4430(2) 0.3992(2) 0.7576(5)
C39 C 0.4597(3) 0.3670(2) 0.7055(5)
H45 H 0.4939 0.3821 0.6732
C40 C 0.4267(3) 0.3138(2) 0.7010(6)
H46 H 0.4385 0.2923 0.6667
C41 C 0.3764(3) 0.2911(3) 0.7457(7)
H47 H 0.3537 0.2542 0.7411
C42 C 0.3595(3) 0.3221(3) 0.7969(7)
H48 H 0.3251 0.3067 0.8285
C43 C 0.3927(2) 0.3761(2) 0.8022(6)
H49 H 0.3806 0.3975 0.8370
N1 N 0.33019(18) 0.52673(19) 0.6557(4)
H50 H 0.3041(17) 0.531(3) 0.642(7)
N2 N 0.27704(18) 0.4652(2) 0.7866(5)
H51 H 0.255(2) 0.474(3) 0.761(6)
N3 N 0.49397(18) 0.65012(17) 0.9041(4)
H52 H 0.484(2) 0.6171(10) 0.896(6)
N4 N 0.43548(19) 0.62480(17) 1.0551(4)
H53 H 0.425(2) 0.5941(14) 1.027(6)
N5 N 0.54299(19) 0.53636(18) 0.7584(4)
H54 H 0.524(2) 0.547(2) 0.788(6)
N6 N 0.47515(19) 0.45359(18) 0.7715(4)
H55 H 0.458(2) 0.466(2) 0.808(5)
O1 O 0.36391(15) 0.48929(16) 0.7777(4)
O2 O 0.48415(15) 0.71128(14) 1.0022(3)
O3 O 0.54150(16) 0.47303(16) 0.6410(4)
C44 C 0.7611(3) 0.6034(3) 0.9898(8)
H56 H 0.7633 0.5789 0.9340
H57 H 0.7679 0.5947 1.0687
C45 C 0.8030(8) 0.6601(6) 0.959(2)
O4 O 0.8030(9) 0.7001(8) 0.970(2)
O5 O 0.8299(18) 0.6511(16) 0.877(4)
C46 C 0.871(4) 0.705(2) 0.865(12)
H58 H 0.8959 0.7106 0.9268
H59 H 0.8533 0.7253 0.8904
C47 C 0.905(4) 0.738(3) 0.764(12)
H60 H 0.9210 0.7178 0.7325
H61 H 0.8807 0.7370 0.7033
N7 N 0.947(3) 0.792(3) 0.772(7)
C48 C 0.995(3) 0.798(3) 0.824(8)
H62 H 1.0230 0.8266 0.7777
H63 H 0.9948 0.7658 0.8013
C49 C 1.015(4) 0.809(4) 0.947(8)
H64 H 1.0427 0.7991 0.9550
H65 H 0.9867 0.7877 1.0013
C50 C 0.9354(14) 0.8409(10) 0.819(3)
C51 C 0.8859(11) 0.8320(8) 0.849(3)
H66 H 0.8580 0.7972 0.8599
C52 C 0.8773(8) 0.8740(11) 0.862(3)
H67 H 0.8434 0.8678 0.8823
C53 C 0.9182(9) 0.9249(9) 0.845(3)
C54 C 0.9677(8) 0.9338(9) 0.815(2)
H68 H 0.9957 0.9687 0.8039
C55 C 0.9763(10) 0.8919(12) 0.802(3)
H69 H 1.0102 0.8980 0.7816
N8 N 0.9113(10) 0.9711(10) 0.848(3)
N9 N 0.8640(10) 0.9629(9) 0.849(3)
C56 C 0.8626(7) 1.0091(6) 0.857(2)
C57 C 0.9060(5) 1.0575(7) 0.8827(17)
H70 H 0.9394 1.0605 0.8929
C58 C 0.9005(6) 1.1016(5) 0.8932(19)
H71 H 0.9302 1.1346 0.9107
C59 C 0.8517(7) 1.0972(6) 0.878(2)
C60 C 0.8083(5) 1.0488(7) 0.853(2)
H72 H 0.7749 1.0458 0.8423
C61 C 0.8137(6) 1.0047(6) 0.842(2)
H73 H 0.7841 0.9716 0.8246
N10 N 0.8451(7) 1.1363(8) 0.9012(17)
O6 O 0.8807(10) 1.1806(10) 0.918(3)
O7 O 0.8069(7) 1.1394(8) 0.868(2)
O8 O 0.45270(15) 0.53163(15) 0.9054(3)
H74 H 0.4221(16) 0.517(3) 0.873(7)
H75 H 0.458(3) 0.521(3) 0.969(4)
H76? H 0.7718 0.5979 0.9117
H77? H 0.7621 0.5780 1.0446
C62? C 0.7980(4) 0.6607(5) 1.0320(16)
O9? O 0.7856(4) 0.6920(4) 1.0607(11)
O10? O 0.8465(4) 0.6686(4) 1.0377(11)
C63? C 0.8861(7) 0.7217(7) 1.0874(16)
H78? H 0.9207 0.7328 1.0520
H79? H 0.8757 0.7476 1.0648
C64? C 0.8907(10) 0.7222(10) 1.202(2)
H80? H 0.9007 0.6958 1.2225
H81? H 0.8555 0.7100 1.2352
N11? N 0.9255(12) 0.7687(12) 1.258(3)
C65? C 0.9752(13) 0.7736(14) 1.295(3)
H82? H 1.0047 0.8071 1.2663
H83? H 0.9789 0.7446 1.2617
C66? C 0.9769(18) 0.7719(18) 1.427(3)
H84? H 0.9800 0.8042 1.4588
H85? H 1.0071 0.7687 1.4511
H86? H 0.9445 0.7416 1.4554
C67? C 0.9130(6) 0.8089(5) 1.2831(18)
C68? C 0.9535(5) 0.8577(6) 1.3178(19)
H87? H 0.9881 0.8633 1.3255
C69? C 0.9434(5) 0.8981(5) 1.3412(18)
H88? H 0.9711 0.9314 1.3649
C70? C 0.8929(6) 0.8898(5) 1.3299(17)
C71? C 0.8524(5) 0.8410(6) 1.2952(17)
H89? H 0.8178 0.8353 1.2874
C72? C 0.8624(6) 0.8006(5) 1.2717(18)
H90? H 0.8347 0.7673 1.2480
N12? N 0.8893(9) 0.9361(9) 1.350(2)
N13? N 0.8414(7) 0.9282(7) 1.348(2)
C73? C 0.8341(7) 1.0648(5) 1.405(2)
C74? C 0.7894(6) 1.0175(6) 1.3789(17)
H91? H 0.7565 1.0158 1.3726
C75? C 0.7929(5) 0.9727(5) 1.3619(16)
H92? H 0.7624 0.9403 1.3441
C76? C 0.8412(6) 0.9751(5) 1.3711(18)
C77? C 0.8859(5) 1.0224(7) 1.3973(19)
H93? H 0.9188 1.0241 1.4036
C78? C 0.8824(6) 1.0673(5) 1.414(2)
H94? H 0.9129 1.0996 1.4321
N14? N 0.8287(6) 1.1099(7) 1.4342(16)
O11? O 0.7858(7) 1.1054(7) 1.4171(19)
O12? O 0.8687(7) 1.1487(7) 1.4570(18)
H95? H 1.0302 0.8460 0.9650
loop_
_geom_bond_atom_site_label_1
_geom_bond_atom_site_label_2
_geom_bond_site_symmetry_1
_geom_bond_site_symmetry_2
C1 H1 1_555 1_555
H2 C1 1_555 1_555
C2 C1 1_555 1_555
H3 C2 1_555 1_555
H4 C2 1_555 1_555
C3 C2 1_555 1_555
H5 C3 1_555 1_555
C4 C3 1_555 1_555
H6 C4 1_555 1_555
H7 C4 1_555 1_555
C5 C4 1_555 1_555
H8 C5 1_555 1_555
C6 C5 1_555 1_555
H9 C6 1_555 1_555
H10 C6 1_555 1_555
C7 C6 1_555 1_555
H11 C7 1_555 1_555
C8 C7 1_555 1_555
H12 C8 1_555 1_555
C9 C1 1_555 1_555
C10 C8 1_555 1_555
H13 C10 1_555 1_555
C11 C10 1_555 1_555
H14 C11 1_555 1_555
H15 C11 1_555 1_555
C12 C11 1_555 1_555
H16 C12 1_555 1_555
C13 C12 1_555 1_555
C14 C8 1_555 1_555
H17 C14 1_555 1_555
C15 C14 1_555 1_555
H18 C15 1_555 1_555
H19 C15 1_555 1_555
C16 C15 1_555 1_555
H20 C16 1_555 1_555
H21 C16 1_555 1_555
C17 C13 1_555 1_555
H22 C17 1_555 1_555
C18 C9 1_555 1_555
H23 C18 1_555 1_555
H24 C18 1_555 1_555
H25 C18 1_555 1_555
C19 C13 1_555 1_555
H26 C19 1_555 1_555
H27 C19 1_555 1_555
H28 C19 1_555 1_555
C20 C17 1_555 1_555
H29 C20 1_555 1_555
C21 C20 1_555 1_555
H30 C21 1_555 1_555
H31 C21 1_555 1_555
H32 C21 1_555 1_555
C22 C20 1_555 1_555
H33 C22 1_555 1_555
H34 C22 1_555 1_555
C23 N1 1_555 1_555
C24 N3 1_555 1_555
C25 N5 1_555 1_555
C26 C27 1_555 1_555
C27 H35 1_555 1_555
C28 C27 1_555 1_555
H36 C28 1_555 1_555
C29 C28 1_555 1_555
H37 C29 1_555 1_555
C30 C29 1_555 1_555
H38 C30 1_555 1_555
C31 C26 1_555 1_555
H39 C31 1_555 1_555
C32 C33 1_555 1_555
C33 H40 1_555 1_555
C34 C33 1_555 1_555
H41 C34 1_555 1_555
C35 C34 1_555 1_555
H42 C35 1_555 1_555
C36 C35 1_555 1_555
H43 C36 1_555 1_555
C37 C32 1_555 1_555
H44 C37 1_555 1_555
C38 C39 1_555 1_555
C39 H45 1_555 1_555
C40 C39 1_555 1_555
H46 C40 1_555 1_555
C41 C40 1_555 1_555
H47 C41 1_555 1_555
C42 C41 1_555 1_555
H48 C42 1_555 1_555
C43 C38 1_555 1_555
H49 C43 1_555 1_555
N1 C3 1_555 1_555
H50 N1 1_555 1_555
N2 C23 1_555 1_555
H51 N2 1_555 1_555
N3 C7 1_555 1_555
H52 N3 1_555 1_555
N4 C24 1_555 1_555
H53 N4 1_555 1_555
N5 C12 1_555 1_555
H54 N5 1_555 1_555
N6 C25 1_555 1_555
H55 N6 1_555 1_555
O1 C23 1_555 1_555
O2 C24 1_555 1_555
O3 C25 1_555 1_555
C44 C22 1_555 1_555
H56 C44 1_555 1_555
H57 C44 1_555 1_555
C45 C44 1_555 1_555
O4 C45 1_555 1_555
O5 C45 1_555 1_555
C46 O5 1_555 1_555
H58 C46 1_555 1_555
H59 C46 1_555 1_555
C47 C46 1_555 1_555
H60 C47 1_555 1_555
H61 C47 1_555 1_555
N7 C47 1_555 1_555
C48 N7 1_555 1_555
H62 C48 1_555 1_555
H63 C48 1_555 1_555
C49 C48 1_555 1_555
H64 C49 1_555 1_555
H65 C49 1_555 1_555
C50 N7 1_555 1_555
C51 C50 1_555 1_555
H66 C51 1_555 1_555
C52 C51 1_555 1_555
H67 C52 1_555 1_555
C53 C52 1_555 1_555
C54 C53 1_555 1_555
H68 C54 1_555 1_555
C55 C50 1_555 1_555
H69 C55 1_555 1_555
N8 C53 1_555 1_555
N9 N8 1_555 1_555
C56 N9 1_555 1_555
C57 C56 1_555 1_555
H70 C57 1_555 1_555
C58 C57 1_555 1_555
H71 C58 1_555 1_555
C59 C58 1_555 1_555
C60 C59 1_555 1_555
H72 C60 1_555 1_555
C61 C56 1_555 1_555
H73 C61 1_555 1_555
N10 C59 1_555 1_555
O6 N10 1_555 1_555
O7 N10 1_555 1_555
O8 H74 1_555 1_555
H75 O8 1_555 1_555
C5 C9 1_555 1_555
C9 C10 1_555 1_555
C13 C14 1_555 1_555
C16 C17 1_555 1_555
C26 N2 1_555 1_555
C30 C31 1_555 1_555
C32 N4 1_555 1_555
C36 C37 1_555 1_555
C38 N6 1_555 1_555
C42 C43 1_555 1_555
C54 C55 1_555 1_555
C60 C61 1_555 1_555

#END
