
#######################################################################
#
#                 Cambridge Crystallographic Data Centre
#                                CCDC 
#
#######################################################################
#
# If this CIF has been generated from an entry in the Cambridge 
# Structural Database, then it will include bibliographic, chemical, 
# crystal, experimental, refinement or atomic coordinate data resulting 
# from the CCDC's data processing and validation procedures.
#
#######################################################################

data_SIMQIP
_chemical_formula_moiety         'C7 H5 Cl1 F3 N1 O1'
_chemical_name_systematic        2-Chloro-3-(2,2,2-trifluoroethoxy)pyridine
_chemical_properties_biological  'good fungicidal activity'
_symmetry_cell_setting           orthorhombic
_symmetry_space_group_name_H-M   'P b c a'
_symmetry_Int_Tables_number      61
_space_group_name_Hall           '-P 2ac 2ab'
loop_
_symmetry_equiv_pos_site_id
_symmetry_equiv_pos_as_xyz
1 x,y,z
2 1/2-x,-y,1/2+z
3 -x,1/2+y,1/2-z
4 1/2+x,1/2-y,-z
5 -x,-y,-z
6 1/2+x,y,1/2-z
7 x,1/2-y,1/2+z
8 1/2-x,1/2+y,z
_cell_length_a                   12.907(3)
_cell_length_b                   7.469(2)
_cell_length_c                   18.520(4)
_cell_angle_alpha                90
_cell_angle_beta                 90
_cell_angle_gamma                90
_cell_volume                     1785.37
_exptl_crystal_colour            colorless
_exptl_crystal_description       block
_cell_formula_units_Z            8
_exptl_crystal_recrystallization_method ethanol
loop_
_atom_site_label
_atom_site_type_symbol
_atom_site_fract_x
_atom_site_fract_y
_atom_site_fract_z
C1 C 0.3876(8) 0.2387(13) 0.4626(4)
C2 C 0.3770(5) 0.2123(10) 0.3840(4)
H1 H 0.4131 0.3065 0.3581
H2 H 0.4065 0.0980 0.3700
C3 C 0.2438(5) 0.1764(7) 0.2976(3)
C4 C 0.1336(4) 0.1758(8) 0.2832(3)
C5 C 0.1602(5) 0.1046(11) 0.1698(4)
H3 H 0.1328 0.0785 0.1245
C6 C 0.2693(5) 0.1007(9) 0.1781(3)
H4 H 0.3129 0.0767 0.1393
C7 C 0.3077(4) 0.1340(8) 0.2457(3)
H5 H 0.3785 0.1265 0.2546
Cl1 Cl 0.04948(12) 0.2192(3) 0.35288(11)
F1 F 0.3504(4) 0.3979(8) 0.4816(3)
F2 F 0.4852(4) 0.2529(7) 0.4787(2)
F3 F 0.3469(4) 0.1264(8) 0.4989(3)
N1 N 0.0970(4) 0.1421(7) 0.2211(3)
O1 O 0.2678(3) 0.2168(6) 0.36733(19)
loop_
_geom_bond_atom_site_label_1
_geom_bond_atom_site_label_2
_geom_bond_site_symmetry_1
_geom_bond_site_symmetry_2
C1 C2 1_555 1_555
C2 H1 1_555 1_555
H2 C2 1_555 1_555
C3 C4 1_555 1_555
C4 Cl1 1_555 1_555
C5 H3 1_555 1_555
C6 C5 1_555 1_555
H4 C6 1_555 1_555
C7 C3 1_555 1_555
H5 C7 1_555 1_555
F1 C1 1_555 1_555
F2 C1 1_555 1_555
F3 C1 1_555 1_555
N1 C4 1_555 1_555
O1 C2 1_555 1_555
C3 O1 1_555 1_555
C5 N1 1_555 1_555
C6 C7 1_555 1_555

#END
