
#######################################################################
#
#                 Cambridge Crystallographic Data Centre
#                                CCDC 
#
#######################################################################
#
# If this CIF has been generated from an entry in the Cambridge 
# Structural Database, then it will include bibliographic, chemical, 
# crystal, experimental, refinement or atomic coordinate data resulting 
# from the CCDC's data processing and validation procedures.
#
#######################################################################

data_SIMTEQ
_chemical_name_common            'bis(collidine)bromanium hexafluorophosphate'
_chemical_formula_moiety         'C16 H22 Br1 N2 1+,F6 P1 1-'
_chemical_name_systematic        
'bis(2,4,6-trimethylpyridine)bromanium hexafluorophosphate'
_symmetry_cell_setting           triclinic
_symmetry_space_group_name_H-M   'P -1'
_symmetry_Int_Tables_number      2
_space_group_name_Hall           '-P 1'
loop_
_symmetry_equiv_pos_site_id
_symmetry_equiv_pos_as_xyz
1 x,y,z
2 -x,-y,-z
_cell_length_a                   8.0237(2)
_cell_length_b                   8.3951(2)
_cell_length_c                   15.2556(4)
_cell_angle_alpha                99.420(2)
_cell_angle_beta                 98.926(2)
_cell_angle_gamma                97.070(2)
_cell_volume                     989.788
_exptl_crystal_colour            colorless
_exptl_crystal_description       block
_cell_formula_units_Z            2
loop_
_atom_site_label
_atom_site_type_symbol
_atom_site_fract_x
_atom_site_fract_y
_atom_site_fract_z
Br1 Br 0.47882(3) 0.51736(3) 0.222944(16)
N1 N 0.3557(3) 0.5333(3) 0.08953(14)
C1 C 0.2700(4) 0.3972(3) 0.03300(18)
C2 C 0.1811(4) 0.4088(4) -0.04988(19)
C3 C 0.1765(4) 0.5572(4) -0.07667(18)
C4 C 0.2672(4) 0.6942(4) -0.0174(2)
C5 C 0.3573(4) 0.6811(3) 0.06551(19)
C6 C 0.2755(5) 0.2356(4) 0.0620(2)
C7 C 0.0785(5) 0.5687(5) -0.1670(2)
C8 C 0.4569(5) 0.8284(4) 0.1295(2)
N2 N 0.5980(3) 0.4985(3) 0.35269(14)
C9 C 0.6429(4) 0.6348(3) 0.41792(18)
C10 C 0.7290(4) 0.6230(4) 0.50151(19)
C11 C 0.7710(4) 0.4759(4) 0.52023(18)
C12 C 0.7209(4) 0.3398(4) 0.4520(2)
C13 C 0.6339(3) 0.3520(3) 0.36812(18)
C14 C 0.5981(5) 0.7944(4) 0.3974(2)
C15 C 0.8675(5) 0.4649(5) 0.6107(2)
C16 C 0.5770(5) 0.2047(4) 0.2950(2)
H1 H 0.2105 0.1510 0.0153
H2 H 0.2269 0.2360 0.1157
H3 H 0.3916 0.2151 0.0748
H4 H 0.1246 0.3136 -0.0887
H5 H 0.2674 0.7970 -0.0340
H6 H 0.5729 0.8110 0.1447
H7 H 0.4080 0.8419 0.1830
H8 H 0.4510 0.9221 0.1023
H9 H 0.1388 0.5290 -0.2134
H10 H 0.0675 0.6803 -0.1685
H11 H -0.0345 0.5050 -0.1772
H12 H 0.6362 0.8751 0.4499
H13 H 0.7583 0.7163 0.5466
H14 H 0.7465 0.2381 0.4621
H15 H 0.4778 0.7884 0.3796
H16 H 0.6535 0.8219 0.3498
H17 H 0.8932 0.3577 0.6117
H18 H 0.9717 0.5383 0.6256
H19 H 0.8017 0.4932 0.6560
H20 H 0.6251 0.2232 0.2437
H21 H 0.4560 0.1879 0.2779
H22 H 0.6129 0.1116 0.3154
P1 P 0.03741(10) -0.02113(10) 0.27307(6)
F1 F -0.0442(4) 0.0840(5) 0.3425(3)
F2 F -0.1100(5) -0.0009(5) 0.1955(3)
F3 F 0.1461(4) 0.1421(4) 0.2635(3)
F4 F 0.1831(5) -0.0357(5) 0.3489(3)
F5 F -0.0792(5) -0.1795(4) 0.2780(3)
F6 F 0.1154(5) -0.1257(7) 0.2042(4)
loop_
_geom_bond_atom_site_label_1
_geom_bond_atom_site_label_2
_geom_bond_site_symmetry_1
_geom_bond_site_symmetry_2
Br1 N1 1_555 1_555
N1 C1 1_555 1_555
C1 C2 1_555 1_555
C2 C3 1_555 1_555
C3 C4 1_555 1_555
C4 C5 1_555 1_555
C5 N1 1_555 1_555
C6 C1 1_555 1_555
C7 C3 1_555 1_555
C8 C5 1_555 1_555
N2 Br1 1_555 1_555
C9 N2 1_555 1_555
C10 C9 1_555 1_555
C11 C10 1_555 1_555
C12 C11 1_555 1_555
C13 N2 1_555 1_555
C14 C9 1_555 1_555
C15 C11 1_555 1_555
C16 C13 1_555 1_555
H1 C6 1_555 1_555
H2 C6 1_555 1_555
H3 C6 1_555 1_555
H4 C2 1_555 1_555
H5 C4 1_555 1_555
H6 C8 1_555 1_555
H7 C8 1_555 1_555
H8 C8 1_555 1_555
H9 C7 1_555 1_555
H10 C7 1_555 1_555
H11 C7 1_555 1_555
H12 C14 1_555 1_555
H13 C10 1_555 1_555
H14 C12 1_555 1_555
H15 C14 1_555 1_555
H16 C14 1_555 1_555
H17 C15 1_555 1_555
H18 C15 1_555 1_555
H19 C15 1_555 1_555
H20 C16 1_555 1_555
H21 C16 1_555 1_555
H22 C16 1_555 1_555
P1 F1 1_555 1_555
F2 P1 1_555 1_555
F3 P1 1_555 1_555
F4 P1 1_555 1_555
F5 P1 1_555 1_555
F6 P1 1_555 1_555
C12 C13 1_555 1_555

#END
