
#######################################################################
#
#                 Cambridge Crystallographic Data Centre
#                                CCDC 
#
#######################################################################
#
# If this CIF has been generated from an entry in the Cambridge 
# Structural Database, then it will include bibliographic, chemical, 
# crystal, experimental, refinement or atomic coordinate data resulting 
# from the CCDC's data processing and validation procedures.
#
#######################################################################

data_SINBIB
_chemical_formula_moiety         'C10 H9 N2 O1 1+,I3 1-'
_chemical_name_systematic        "2,2'-Bipyridinium 1-oxide triiodide"
_symmetry_cell_setting           monoclinic
_symmetry_space_group_name_H-M   'P 21/c'
_symmetry_Int_Tables_number      14
_space_group_name_Hall           '-P 2ybc'
loop_
_symmetry_equiv_pos_site_id
_symmetry_equiv_pos_as_xyz
1 x,y,z
2 -x,1/2+y,1/2-z
3 -x,-y,-z
4 x,1/2-y,1/2+z
_cell_length_a                   7.9714(16)
_cell_length_b                   12.045(2)
_cell_length_c                   15.434(3)
_cell_angle_alpha                90
_cell_angle_beta                 91.44(3)
_cell_angle_gamma                90
_cell_volume                     1481.44
_exptl_crystal_colour            blue
_exptl_crystal_description       cube
_cell_formula_units_Z            4
loop_
_atom_site_label
_atom_site_type_symbol
_atom_site_fract_x
_atom_site_fract_y
_atom_site_fract_z
I1 I 0.27866(5) 0.31326(4) 0.13335(3)
I2 I 0.41434(6) 0.48743(5) 0.24785(3)
I3 I 0.14733(7) 0.14252(5) 0.01697(4)
N1 N 0.8457(5) 0.3845(4) 0.2042(3)
O1 O 0.8225(5) 0.2820(3) 0.2317(2)
N2 N 0.7180(6) 0.2285(4) 0.0877(3)
H1 H 0.7394 0.2144 0.1415
C1 C 0.9078(7) 0.4603(6) 0.2609(4)
H2 H 0.9334 0.4388 0.3175
C2 C 0.9336(9) 0.5660(6) 0.2373(5)
H3 H 0.9770 0.6164 0.2777
C3 C 0.8969(10) 0.6006(6) 0.1549(6)
H4 H 0.9159 0.6736 0.1381
C4 C 0.8312(9) 0.5244(5) 0.0974(4)
H5 H 0.8023 0.5472 0.0414
C5 C 0.8065(7) 0.4149(5) 0.1202(3)
C6 C 0.7418(7) 0.3317(5) 0.0591(3)
C7 C 0.7041(9) 0.3532(6) -0.0261(4)
H6 H 0.7169 0.4246 -0.0479
C8 C 0.6471(9) 0.2690(8) -0.0799(4)
H7 H 0.6225 0.2834 -0.1380
C9 C 0.6267(9) 0.1642(7) -0.0472(5)
H8 H 0.5887 0.1066 -0.0828
C10 C 0.6627(8) 0.1462(5) 0.0369(4)
H9 H 0.6489 0.0756 0.0600
loop_
_geom_bond_atom_site_label_1
_geom_bond_atom_site_label_2
_geom_bond_site_symmetry_1
_geom_bond_site_symmetry_2
I1 I2 1_555 1_555
I3 I1 1_555 1_555
N1 O1 1_555 1_555
N2 H1 1_555 1_555
C1 N1 1_555 1_555
H2 C1 1_555 1_555
C2 C1 1_555 1_555
H3 C2 1_555 1_555
C3 C2 1_555 1_555
H4 C3 1_555 1_555
C4 C3 1_555 1_555
H5 C4 1_555 1_555
C5 N1 1_555 1_555
C6 N2 1_555 1_555
C7 C6 1_555 1_555
H6 C7 1_555 1_555
C8 C7 1_555 1_555
H7 C8 1_555 1_555
C9 C8 1_555 1_555
H8 C9 1_555 1_555
C10 N2 1_555 1_555
H9 C10 1_555 1_555
C4 C5 1_555 1_555
C5 C6 1_555 1_555
C9 C10 1_555 1_555

#END
