
#######################################################################
#
#                 Cambridge Crystallographic Data Centre
#                                CCDC 
#
#######################################################################
#
# If this CIF has been generated from an entry in the Cambridge 
# Structural Database, then it will include bibliographic, chemical, 
# crystal, experimental, refinement or atomic coordinate data resulting 
# from the CCDC's data processing and validation procedures.
#
#######################################################################

data_SINMEJ
_chemical_formula_moiety         'C29 H20 N2 O1'
_chemical_name_systematic        
3-Methyl-5,6-diphenyl-8H-isoquinolino[1,2-b]quinazolin-8-one
_symmetry_cell_setting           triclinic
_symmetry_space_group_name_H-M   'P -1'
_symmetry_Int_Tables_number      2
_space_group_name_Hall           '-P 1'
loop_
_symmetry_equiv_pos_site_id
_symmetry_equiv_pos_as_xyz
1 x,y,z
2 -x,-y,-z
_cell_length_a                   10.233(4)
_cell_length_b                   10.817(4)
_cell_length_c                   10.864(4)
_cell_angle_alpha                62.661(4)
_cell_angle_beta                 78.149(4)
_cell_angle_gamma                89.945(4)
_cell_volume                     1039.41
_cell_formula_units_Z            2
loop_
_atom_site_label
_atom_site_type_symbol
_atom_site_fract_x
_atom_site_fract_y
_atom_site_fract_z
O1 O 0.16208(11) 0.31563(10) 0.38077(9)
N1 N 0.34293(11) 0.21835(11) 0.07378(12)
N2 N 0.23996(10) 0.38280(10) 0.14172(10)
C1 C 0.28820(13) 0.11161(13) 0.20875(14)
C2 C 0.30537(16) -0.02787(14) 0.23927(17)
H1 H 0.3505 -0.0478 0.1681
C3 C 0.25535(17) -0.13428(15) 0.37433(18)
H2 H 0.2661 -0.2263 0.3935
C4 C 0.18897(17) -0.10710(15) 0.48295(18)
H3 H 0.1559 -0.1806 0.5740
C5 C 0.17219(15) 0.02815(15) 0.45588(16)
H4 H 0.1291 0.0469 0.5287
C6 C 0.22048(13) 0.13813(13) 0.31766(13)
C7 C 0.20316(12) 0.28130(13) 0.28960(13)
C8 C 0.20606(12) 0.52236(12) 0.09869(12)
C9 C 0.26601(12) 0.62728(12) -0.03122(12)
C10 C 0.36086(12) 0.59852(13) -0.13213(12)
C11 C 0.42235(13) 0.70407(14) -0.26971(13)
H5 H 0.4077 0.7966 -0.2948
C12 C 0.50374(13) 0.67390(15) -0.36837(14)
C13 C 0.52643(14) 0.53427(16) -0.32794(15)
H6 H 0.5818 0.5124 -0.3929
C14 C 0.46859(14) 0.42903(15) -0.19428(14)
H7 H 0.4857 0.3371 -0.1695
C15 C 0.38384(12) 0.45940(13) -0.09490(12)
C16 C 0.32033(12) 0.34598(12) 0.04482(12)
C17 C 0.56586(16) 0.78730(18) -0.51665(15)
H8 H 0.5394 0.8759 -0.5264
H9 H 0.5359 0.7679 -0.5847
H10 H 0.6619 0.7903 -0.5332
C18 C 0.09310(12) 0.54542(12) 0.19406(12)
C19 C -0.03595(13) 0.48791(14) 0.21645(14)
H11 H -0.0508 0.4336 0.1736
C20 C -0.14278(13) 0.51066(15) 0.30207(15)
H12 H -0.2291 0.4714 0.3170
C21 C -0.12128(14) 0.59151(14) 0.36534(14)
H13 H -0.1928 0.6058 0.4240
C22 C 0.00632(14) 0.65110(14) 0.34151(14)
H14 H 0.0205 0.7066 0.3833
C23 C 0.11307(13) 0.62898(13) 0.25603(13)
H15 H 0.1988 0.6702 0.2398
C24 C 0.23103(13) 0.77363(13) -0.07443(13)
C25 C 0.10818(16) 0.81345(16) -0.10671(16)
H16 H 0.0464 0.7491 -0.1046
C26 C 0.0775(2) 0.94860(18) -0.14199(19)
H17 H -0.0044 0.9751 -0.1646
C27 C 0.1673(2) 1.04348(17) -0.14368(18)
H18 H 0.1453 1.1335 -0.1653
C28 C 0.2896(2) 1.00596(16) -0.11350(17)
H19 H 0.3507 1.0709 -0.1157
C29 C 0.32235(16) 0.87127(14) -0.07971(15)
H20 H 0.4058 0.8466 -0.0606
loop_
_geom_bond_atom_site_label_1
_geom_bond_atom_site_label_2
_geom_bond_site_symmetry_1
_geom_bond_site_symmetry_2
O1 C7 1_555 1_555
N1 C1 1_555 1_555
N2 C7 1_555 1_555
C1 C2 1_555 1_555
C2 H1 1_555 1_555
C3 C2 1_555 1_555
H2 C3 1_555 1_555
C4 C3 1_555 1_555
H3 C4 1_555 1_555
C5 C4 1_555 1_555
H4 C5 1_555 1_555
C6 C1 1_555 1_555
C7 C6 1_555 1_555
C8 N2 1_555 1_555
C9 C8 1_555 1_555
C10 C9 1_555 1_555
C11 C10 1_555 1_555
H5 C11 1_555 1_555
C12 C11 1_555 1_555
C13 C12 1_555 1_555
H6 C13 1_555 1_555
C14 C13 1_555 1_555
H7 C14 1_555 1_555
C15 C10 1_555 1_555
C16 N1 1_555 1_555
C17 C12 1_555 1_555
H8 C17 1_555 1_555
H9 C17 1_555 1_555
H10 C17 1_555 1_555
C18 C8 1_555 1_555
C19 C18 1_555 1_555
H11 C19 1_555 1_555
C20 C19 1_555 1_555
H12 C20 1_555 1_555
C21 C20 1_555 1_555
H13 C21 1_555 1_555
C22 C21 1_555 1_555
H14 C22 1_555 1_555
C23 C18 1_555 1_555
H15 C23 1_555 1_555
C24 C9 1_555 1_555
C25 C24 1_555 1_555
H16 C25 1_555 1_555
C26 C25 1_555 1_555
H17 C26 1_555 1_555
C27 C26 1_555 1_555
H18 C27 1_555 1_555
C28 C27 1_555 1_555
H19 C28 1_555 1_555
C29 C24 1_555 1_555
H20 C29 1_555 1_555
N2 C16 1_555 1_555
C5 C6 1_555 1_555
C14 C15 1_555 1_555
C15 C16 1_555 1_555
C22 C23 1_555 1_555
C28 C29 1_555 1_555

#END
