
#######################################################################
#
#                 Cambridge Crystallographic Data Centre
#                                CCDC 
#
#######################################################################
#
# If this CIF has been generated from an entry in the Cambridge 
# Structural Database, then it will include bibliographic, chemical, 
# crystal, experimental, refinement or atomic coordinate data resulting 
# from the CCDC's data processing and validation procedures.
#
#######################################################################

data_SINPIP
_chemical_formula_moiety         'C23 H31 F3 N4 O2'
_chemical_name_systematic        
(+-)-N-((E)-5-Hydroxy-2-adamantyl)-2-(4-(5-(trifluoromethyl)pyridin-2-yl)piperazin-1-yl)propionamide
_chemical_properties_biological  
'liver, adipose and brain tissue 11beta-HSD1 inhibition in a murine ex vivo assay'
_symmetry_cell_setting           triclinic
_symmetry_space_group_name_H-M   'P -1'
_symmetry_Int_Tables_number      2
_space_group_name_Hall           '-P 1'
loop_
_symmetry_equiv_pos_site_id
_symmetry_equiv_pos_as_xyz
1 x,y,z
2 -x,-y,-z
_cell_length_a                   6.768(2)
_cell_length_b                   11.021(4)
_cell_length_c                   15.119(5)
_cell_angle_alpha                82.765(6)
_cell_angle_beta                 89.952(6)
_cell_angle_gamma                80.959(6)
_cell_volume                     1104.64
_cell_formula_units_Z            2
loop_
_atom_site_label
_atom_site_type_symbol
_atom_site_fract_x
_atom_site_fract_y
_atom_site_fract_z
F1 F -0.0525(3) 0.1804(2) -0.06755(16)
F2 F 0.1685(5) 0.2076(3) -0.16305(14)
F3 F 0.2178(4) 0.05364(19) -0.06602(19)
O1 O 0.1532(3) 1.28348(16) 0.36479(13)
H1 H 0.2243 1.2914 0.4069
O2 O 0.5720(4) 0.71429(18) 0.49245(13)
N1 N 0.5291(3) 0.79048(18) 0.34653(14)
N2 N 0.6276(3) 0.56229(17) 0.29469(13)
N3 N 0.4775(3) 0.44041(19) 0.15844(14)
N4 N 0.2052(3) 0.4051(2) 0.07793(14)
C1 C 0.1421(4) 0.1732(3) -0.07696(18)
C2 C 0.5279(4) 0.2893(2) 0.05344(17)
H2 H 0.6657 0.2761 0.0631
C3 C 0.2376(4) 0.2453(2) -0.01746(16)
C4 C 0.1275(4) 0.3385(2) 0.02281(17)
H3 H -0.0095 0.3561 0.0109
C5 C 0.4440(4) 0.2218(2) -0.00177(17)
H4 H 0.5238 0.1607 -0.0287
C6 C 0.4042(4) 0.3794(2) 0.09583(15)
C7 C 0.7517(4) 0.4580(2) 0.25970(18)
H5 H 0.7386 0.3815 0.2970
H6 H 0.8911 0.4690 0.2612
C8 C 0.6888(4) 0.4499(3) 0.16508(18)
H7 H 0.7151 0.5229 0.1268
H8 H 0.7677 0.3780 0.1443
C9 C 0.4203(4) 0.5377(2) 0.29471(18)
H9 H 0.3346 0.6018 0.3214
H10 H 0.4132 0.4589 0.3302
C10 C 0.3475(4) 0.5349(3) 0.20069(19)
H11 H 0.2117 0.5168 0.2018
H12 H 0.3467 0.6154 0.1662
C11 C 0.5897(4) 0.7001(2) 0.41306(17)
C12 C 0.6961(4) 0.5786(2) 0.38436(17)
H13 H 0.6662 0.5096 0.4270
C13 C 0.9154(5) 0.5847(3) 0.3905(3)
H14 H 0.9906 0.5036 0.3886
H15 H 0.9445 0.6138 0.4456
H16 H 0.9515 0.6405 0.3414
C14 C 0.4515(3) 0.9169(2) 0.36298(15)
H17 H 0.5306 0.9358 0.4122
C15 C 0.1765(4) 1.0639(2) 0.41813(17)
H18 H 0.0382 1.0765 0.4364
H19 H 0.2603 1.0721 0.4684
C16 C 0.2056(4) 1.1616(2) 0.34037(16)
C17 C 0.4230(4) 1.1405(2) 0.31012(17)
H20 H 0.5116 1.1492 0.3585
H21 H 0.4409 1.2024 0.2604
C18 C 0.0674(4) 1.1499(2) 0.26345(18)
H22 H 0.0830 1.2120 0.2136
H23 H -0.0707 1.1636 0.2820
C19 C 0.2313(4) 0.9332(2) 0.39079(16)
H24 H 0.2139 0.8711 0.4413
C20 C 0.4766(4) 1.0105(2) 0.28174(17)
H25 H 0.6158 0.9977 0.2625
C21 C 0.3371(4) 0.9978(2) 0.20493(16)
H26 H 0.3693 0.9155 0.1871
H27 H 0.3554 1.0576 0.1540
C22 C 0.0946(4) 0.9209(2) 0.3129(2)
H28 H -0.0436 0.9309 0.3315
H29 H 0.1288 0.8392 0.2944
C23 C 0.1189(4) 1.0198(2) 0.23466(18)
H30 H 0.0299 1.0123 0.1852
H31 H 0.547(4) 0.772(3) 0.296(2)
C24? C 0.727(3) 0.4701(14) 0.4519(10)
H32? H 0.6023 0.4406 0.4633
H33? H 0.7778 0.4923 0.5060
H34? H 0.8218 0.4062 0.4309
loop_
_geom_bond_atom_site_label_1
_geom_bond_atom_site_label_2
_geom_bond_site_symmetry_1
_geom_bond_site_symmetry_2
F1 C1 1_555 1_555
F2 C1 1_555 1_555
F3 C1 1_555 1_555
O1 H1 1_555 1_555
O2 C11 1_555 1_555
N1 C11 1_555 1_555
N2 C7 1_555 1_555
N3 C6 1_555 1_555
N4 C4 1_555 1_555
C1 C3 1_555 1_555
C2 H2 1_555 1_555
C3 C4 1_555 1_555
C4 H3 1_555 1_555
C5 C2 1_555 1_555
H4 C5 1_555 1_555
C6 N4 1_555 1_555
C7 H5 1_555 1_555
H6 C7 1_555 1_555
C8 N3 1_555 1_555
H7 C8 1_555 1_555
H8 C8 1_555 1_555
C9 N2 1_555 1_555
H9 C9 1_555 1_555
H10 C9 1_555 1_555
C10 N3 1_555 1_555
H11 C10 1_555 1_555
H12 C10 1_555 1_555
C11 C12 1_555 1_555
C12 N2 1_555 1_555
H13 C12 1_555 1_555
C13 C12 1_555 1_555
H14 C13 1_555 1_555
H15 C13 1_555 1_555
H16 C13 1_555 1_555
C14 N1 1_555 1_555
H17 C14 1_555 1_555
C15 H18 1_555 1_555
H19 C15 1_555 1_555
C16 O1 1_555 1_555
C17 C16 1_555 1_555
H20 C17 1_555 1_555
H21 C17 1_555 1_555
C18 C16 1_555 1_555
H22 C18 1_555 1_555
H23 C18 1_555 1_555
C19 C14 1_555 1_555
H24 C19 1_555 1_555
C20 C14 1_555 1_555
H25 C20 1_555 1_555
C21 C20 1_555 1_555
H26 C21 1_555 1_555
H27 C21 1_555 1_555
C22 C19 1_555 1_555
H28 C22 1_555 1_555
H29 C22 1_555 1_555
C23 C18 1_555 1_555
H30 C23 1_555 1_555
H31 N1 1_555 1_555
C2 C6 1_555 1_555
C3 C5 1_555 1_555
C7 C8 1_555 1_555
C9 C10 1_555 1_555
C15 C16 1_555 1_555
C15 C19 1_555 1_555
C17 C20 1_555 1_555
C21 C23 1_555 1_555
C22 C23 1_555 1_555

#END
