
#######################################################################
#
#                 Cambridge Crystallographic Data Centre
#                                CCDC 
#
#######################################################################
#
# If this CIF has been generated from an entry in the Cambridge 
# Structural Database, then it will include bibliographic, chemical, 
# crystal, experimental, refinement or atomic coordinate data resulting 
# from the CCDC's data processing and validation procedures.
#
#######################################################################

data_SINYET
_chemical_formula_moiety         'C7 H4 Cl2 N2 S1'
_chemical_name_systematic        4,5-Dichlorobenzimidazolene-2-thione
_symmetry_cell_setting           orthorhombic
_symmetry_space_group_name_H-M   'P n m a'
_symmetry_Int_Tables_number      62
_space_group_name_Hall           '-P 2ac 2n'
loop_
_symmetry_equiv_pos_site_id
_symmetry_equiv_pos_as_xyz
1 x,y,z
2 1/2-x,-y,1/2+z
3 1/2+x,1/2-y,1/2-z
4 -x,1/2+y,-z
5 -x,-y,-z
6 1/2+x,y,1/2-z
7 1/2-x,1/2+y,1/2+z
8 x,1/2-y,z
_cell_length_a                   29.5371(5)
_cell_length_b                   8.0059(2)
_cell_length_c                   3.87930(10)
_cell_angle_alpha                90
_cell_angle_beta                 90
_cell_angle_gamma                90
_cell_volume                     917.342
_exptl_crystal_description       needles
_chemical_melting_point          349deg.C(dec.)
_cell_formula_units_Z            4
loop_
_atom_site_label
_atom_site_type_symbol
_atom_site_fract_x
_atom_site_fract_y
_atom_site_fract_z
S1 S 0.46781(5) 0.2500 0.5566(4)
C1 C 0.5194(2) 0.2500 0.7456(16)
N1 N 0.54391(13) 0.1147(5) 0.8404(10)
C2 C 0.58463(13) 0.1622(5) 0.9856(11)
C3 C 0.6209(2) 0.0734(8) 1.1133(14)
C4 C 0.65731(15) 0.1629(7) 1.2381(13)
Cl1 Cl 0.70293(5) 0.0531(3) 1.3986(4)
H1 H 0.5388(17) 0.0408(61) 0.789(14)
H2 H 0.6223(14) -0.0337(66) 1.101(12)
C2G C 0.58463(13) 0.3378(5) 0.9856(11)
N1G N 0.54391(13) 0.3853(5) 0.8404(10)
H1G H 0.5388(17) 0.4592(61) 0.789(14)
C3G C 0.6209(2) 0.4266(8) 1.1133(14)
C4G C 0.65731(15) 0.3371(7) 1.2381(13)
Cl1G Cl 0.70293(5) 0.4469(3) 1.3986(4)
H2G H 0.6223(14) 0.5337(66) 1.101(12)
loop_
_geom_bond_atom_site_label_1
_geom_bond_atom_site_label_2
_geom_bond_site_symmetry_1
_geom_bond_site_symmetry_2
S1 C1 1_555 1_555
C1 N1 1_555 1_555
N1 C2 1_555 1_555
C2 C3 1_555 1_555
C3 C4 1_555 1_555
C4 Cl1 1_555 1_555
H1 N1 1_555 1_555
H2 C3 1_555 1_555
C2G C2 1_555 1_555
N1G C1 1_555 1_555
H1G N1G 1_555 1_555
C3G C2G 1_555 1_555
C4G C4 1_555 1_555
Cl1G C4G 1_555 1_555
H2G C3G 1_555 1_555
C2G N1G 1_555 1_555
C3G C4G 1_555 1_555

#END
