
#######################################################################
#
#                 Cambridge Crystallographic Data Centre
#                                CCDC 
#
#######################################################################
#
# If this CIF has been generated from an entry in the Cambridge 
# Structural Database, then it will include bibliographic, chemical, 
# crystal, experimental, refinement or atomic coordinate data resulting 
# from the CCDC's data processing and validation procedures.
#
#######################################################################

data_SIPHII
_chemical_formula_moiety         'C17 H7 N1 O14 S2 2-,C12 H14 N2 2+,2(H2 O1)'
_chemical_name_systematic        
'Paraquat 1,8-disulfonato-acridine-3,4,5,6-tetracarboxylic acid dihydrate'
_symmetry_cell_setting           triclinic
_symmetry_space_group_name_H-M   'P -1'
_symmetry_Int_Tables_number      2
_space_group_name_Hall           '-P 1'
loop_
_symmetry_equiv_pos_site_id
_symmetry_equiv_pos_as_xyz
1 x,y,z
2 -x,-y,-z
_cell_length_a                   9.940(1)
_cell_length_b                   11.543(1)
_cell_length_c                   14.033(1)
_cell_angle_alpha                105.45(1)
_cell_angle_beta                 95.82(1)
_cell_angle_gamma                100.14(1)
_cell_volume                     1508.91
_exptl_crystal_colour            brown
_exptl_crystal_description       prism
_cell_formula_units_Z            2
loop_
_atom_site_label
_atom_site_type_symbol
_atom_site_fract_x
_atom_site_fract_y
_atom_site_fract_z
N1 N 0.6336(3) 0.5158(3) 0.7764(3)
C1 C 0.5689(4) 0.3972(3) 0.7396(3)
C2 C 0.6531(4) 0.3069(3) 0.7363(3)
C3 C 0.5949(4) 0.1844(3) 0.6939(3)
C4 C 0.4496(4) 0.1474(4) 0.6536(3)
C5 C 0.3673(4) 0.2302(3) 0.6575(3)
C6 C 0.4249(4) 0.3583(3) 0.7027(3)
C7 C 0.3462(4) 0.4495(3) 0.7134(3)
C8 C 0.4102(4) 0.5729(3) 0.7569(3)
C9 C 0.3379(4) 0.6724(4) 0.7770(3)
C10 C 0.4097(4) 0.7902(4) 0.8150(3)
C11 C 0.5571(4) 0.8203(4) 0.8354(4)
C12 C 0.6301(4) 0.7276(3) 0.8184(3)
C13 C 0.5564(4) 0.6018(3) 0.7831(3)
C14 C 0.7861(4) 0.7469(3) 0.8351(3)
O1 O 0.8522(3) 0.7489(3) 0.9129(3)
O2 O 0.8364(3) 0.7543(3) 0.7538(3)
C15 C 0.8011(4) 0.3585(3) 0.7875(3)
O3 O 0.8801(3) 0.3986(3) 0.7294(3)
O4 O 0.8371(4) 0.3684(3) 0.8745(3)
C16 C 0.6227(5) 0.9535(4) 0.8761(4)
O5 O 0.7547(4) 0.9768(3) 0.9052(4)
O6 O 0.5578(4) 1.0320(3) 0.8790(5)
C17 C 0.6734(4) 0.0833(4) 0.6805(4)
O7 O 0.8045(3) 0.1205(3) 0.7145(3)
O8 O 0.6173(4) -0.0230(3) 0.6392(4)
S1 S 0.1529(1) 0.6405(1) 0.7558(1)
O9 O 0.1090(3) 0.5745(3) 0.6511(3)
O10 O 0.1150(3) 0.7593(3) 0.7846(3)
O11 O 0.1131(3) 0.5646(3) 0.8203
S2 S 0.191 0.179 0.6008
O12 O 0.1119(3) 0.2295(3) 0.6767(3)
O13 O 0.1655(3) 0.0464(3) 0.5714(3)
O14 O 0.1828(3) 0.2299(3) 0.5166(3)
H1 H 0.4107 0.0615 0.6231
H2 H 0.2480 0.4270 0.6916
H3 H 0.3596 0.8552 0.8282
H4 H 0.9309 0.7702 0.7582
H5 H 0.9607 0.4556 0.7583
H6 H 0.8041 1.0591 0.9286
H7 H 0.8478 0.0585 0.6982
N2 N 0.2495(4) 0.6795(3) 0.5012(3)
C18 C 0.3828(5) 0.7342(4) 0.5361(4)
C19 C 0.4829(5) 0.6669(4) 0.5361(4)
C20 C 0.4451(4) 0.5395(4) 0.4996(3)
C21 C 0.3085(4) 0.4851(4) 0.4636(3)
C22 C 0.2117(4) 0.5569(4) 0.4647(4)
C23 C 0.1420(6) 0.7538(5) 0.5047(5)
H8 H 0.4067 0.8222 0.5615
H9 H 0.5779 0.7078 0.5603
H11 H 0.2800 0.3973 0.4374
H12 H 0.1161 0.5199 0.4386
H13 H 0.1368 0.7849 0.5836
H14 H 0.1538 0.8218 0.4819
H15 H 0.0670 0.7096 0.4514
C20A C 0.5549(4) 0.4605(4) 0.5004(3)
C19A C 0.5171(5) 0.3331(4) 0.4639(4)
C18A C 0.6172(5) 0.2658(4) 0.4639(4)
N2A N 0.7505(4) 0.3205(3) 0.4988(3)
C22A C 0.7883(4) 0.4431(4) 0.5353(4)
C21A C 0.6915(4) 0.5149(4) 0.5364(3)
H11A H 0.7200 0.6027 0.5626
H12A H 0.8839 0.4801 0.5614
C23A C 0.8580(6) 0.2462(5) 0.4953(5)
H13A H 0.8632 0.2151 0.4164
H14A H 0.8462 0.1782 0.5181
H15A H 0.9330 0.2904 0.5486
H8A H 0.5933 0.1778 0.4385
H9A H 0.4221 0.2922 0.4397
N3 N 0.2513(5) 0.2260(4) 0.8961(3)
C24 C 0.2135(6) 0.3327(6) 0.9129(4)
C25 C 0.3073(6) 0.4422(5) 0.9533(4)
C26 C 0.4455(6) 0.4399(5) 0.9764(4)
C27 C 0.4836(7) 0.3274(5) 0.9563(5)
C28 C 0.3838(7) 0.2228(6) 0.9171(4)
C29 C 0.1469(8) 0.1107(6) 0.8581(5)
H16 H 0.1183 0.3334 0.8936
H17 H 0.2770 0.5186 0.9664
H19 H 0.5782 0.3215 0.9712
H20 H 0.4089 0.1441 0.9024
H21 H 0.1675 0.0421 0.9031
H22 H 0.1495 0.0742 0.7885
H23 H 0.0565 0.1276 0.8643
C26A C 0.5545(6) 0.5601(5) 1.0236(4)
C25A C 0.6927(6) 0.5578(5) 1.0467(4)
C24A C 0.7865(6) 0.6673(6) 1.0871(4)
N3A N 0.7487(5) 0.7740(4) 1.1039(3)
C28A C 0.6162(7) 0.7772(6) 1.0829(4)
C27A C 0.5164(7) 0.6726(5) 1.0437(5)
H19A H 0.4218 0.6785 1.0288
H20A H 0.5911 0.8559 1.0976
C29A C 0.8531(8) 0.8893(6) 1.1419(5)
H21A H 0.8325 0.9579 1.0969
H22A H 0.8505 0.9258 1.2115
H23A H 0.9435 0.8724 1.1357
H16A H 0.8817 0.6666 1.1064
H17A H 0.7230 0.4814 1.0336
O15 O 0.8630(5) 1.2024(3) 0.9803(4)
H24 H 0.8717 1.2824 0.9585
H25 H 0.9298 1.2369 1.0475
O16 O 0.9421(3) -0.0444(3) 0.6595(3)
H26 H 0.8854 -0.1172 0.6049
H27 H 0.9991 -0.0277 0.6092
H10? H 0.5135 0.4903 0.4997
H18? H 0.5135 0.5148 1.0054
loop_
_geom_bond_atom_site_label_1
_geom_bond_atom_site_label_2
_geom_bond_site_symmetry_1
_geom_bond_site_symmetry_2
N1 C1 1_555 1_555
C1 C2 1_555 1_555
C2 C3 1_555 1_555
C3 C4 1_555 1_555
C4 C5 1_555 1_555
C5 C6 1_555 1_555
C6 C1 1_555 1_555
C7 C6 1_555 1_555
C8 C7 1_555 1_555
C9 C8 1_555 1_555
C10 C9 1_555 1_555
C11 C10 1_555 1_555
C12 C11 1_555 1_555
C13 N1 1_555 1_555
C14 C12 1_555 1_555
O1 C14 1_555 1_555
O2 C14 1_555 1_555
C15 C2 1_555 1_555
O3 C15 1_555 1_555
O4 C15 1_555 1_555
C16 C11 1_555 1_555
O5 C16 1_555 1_555
O6 C16 1_555 1_555
C17 C3 1_555 1_555
O7 C17 1_555 1_555
O8 C17 1_555 1_555
N2 C18 1_555 1_555
C18 C19 1_555 1_555
C19 C20 1_555 1_555
C20 C21 1_555 1_555
C21 C22 1_555 1_555
C22 N2 1_555 1_555
C23 N2 1_555 1_555
N3 C24 1_555 1_555
C24 C25 1_555 1_555
C25 C26 1_555 1_555
C26 C27 1_555 1_555
C27 C28 1_555 1_555
C28 N3 1_555 1_555
C29 N3 1_555 1_555
S1 C9 1_555 1_555
O9 S1 1_555 1_555
O10 S1 1_555 1_555
O11 S1 1_555 1_555
S2 C5 1_555 1_555
O12 S2 1_555 1_555
O13 S2 1_555 1_555
O14 S2 1_555 1_555
O15 H24 1_555 1_555
O16 H26 1_555 1_555
H1 C4 1_555 1_555
H2 C7 1_555 1_555
H3 C10 1_555 1_555
H4 O2 1_555 1_555
H5 O3 1_555 1_555
H6 O5 1_555 1_555
H7 O7 1_555 1_555
H8 C18 1_555 1_555
H9 C19 1_555 1_555
H11 C21 1_555 1_555
H12 C22 1_555 1_555
H13 C23 1_555 1_555
H14 C23 1_555 1_555
H15 C23 1_555 1_555
H16 C24 1_555 1_555
H17 C25 1_555 1_555
H19 C27 1_555 1_555
H20 C28 1_555 1_555
H21 C29 1_555 1_555
H22 C29 1_555 1_555
H23 C29 1_555 1_555
H25 O15 1_555 1_555
H27 O16 1_555 1_555
C20A C20 1_555 1_555
C19A C20A 1_555 1_555
C18A C19A 1_555 1_555
N2A C18A 1_555 1_555
C22A N2A 1_555 1_555
C21A C20A 1_555 1_555
H11A C21A 1_555 1_555
H12A C22A 1_555 1_555
C23A N2A 1_555 1_555
H13A C23A 1_555 1_555
H14A C23A 1_555 1_555
H15A C23A 1_555 1_555
H8A C18A 1_555 1_555
H9A C19A 1_555 1_555
C26A C26 1_555 1_555
C25A C26A 1_555 1_555
C24A C25A 1_555 1_555
N3A C24A 1_555 1_555
C28A N3A 1_555 1_555
C27A C26A 1_555 1_555
H19A C27A 1_555 1_555
H20A C28A 1_555 1_555
C29A N3A 1_555 1_555
H21A C29A 1_555 1_555
H22A C29A 1_555 1_555
H23A C29A 1_555 1_555
H16A C24A 1_555 1_555
H17A C25A 1_555 1_555
C8 C13 1_555 1_555
C12 C13 1_555 1_555
C22A C21A 1_555 1_555
C28A C27A 1_555 1_555

#END
