
#######################################################################
#
#                 Cambridge Crystallographic Data Centre
#                                CCDC 
#
#######################################################################
#
# If this CIF has been generated from an entry in the Cambridge 
# Structural Database, then it will include bibliographic, chemical, 
# crystal, experimental, refinement or atomic coordinate data resulting 
# from the CCDC's data processing and validation procedures.
#
#######################################################################

data_SIPQIS
_chemical_formula_moiety         'C9 H17 N1 O1'
_chemical_name_systematic        (2S,3S)-(E)-2,3,4-trimethylhex-4-enamide
_symmetry_cell_setting           monoclinic
_symmetry_space_group_name_H-M   'P 21/c'
_symmetry_Int_Tables_number      14
_space_group_name_Hall           '-P 2ybc'
loop_
_symmetry_equiv_pos_site_id
_symmetry_equiv_pos_as_xyz
1 x,y,z
2 -x,1/2+y,1/2-z
3 -x,-y,-z
4 x,1/2-y,1/2+z
_cell_length_a                   15.2653(5)
_cell_length_b                   6.7207(2)
_cell_length_c                   9.7681(3)
_cell_angle_alpha                90
_cell_angle_beta                 99.762(2)
_cell_angle_gamma                90
_cell_volume                     987.633
_exptl_crystal_colour            colorless
_exptl_crystal_description       plate
_chemical_melting_point          '461-463 K'
_cell_formula_units_Z            4
_exptl_crystal_recrystallization_method 'hexanes/ethyl acetate'
loop_
_atom_site_label
_atom_site_type_symbol
_atom_site_fract_x
_atom_site_fract_y
_atom_site_fract_z
C1 C 0.5963(6) 0.2322(15) 0.5716(12)
C2 C 0.6595(2) 0.3913(6) 0.6322(3)
H1 H 0.6567 0.4038 0.7314
C3 C 0.7543(2) 0.3252(5) 0.6166(3)
H2 H 0.7557 0.3133 0.5170
C4 C 0.8242(4) 0.4736(9) 0.6753(7)
C5 C 0.8739(7) 0.5569(16) 0.5976(9)
H3 H 0.8580 0.5353 0.5026
C6 C 0.9522(7) 0.6813(15) 0.6408(8)
H4 H 0.9553 0.7187 0.7363
H5 H 0.9481 0.7987 0.5841
H6 H 1.0047 0.6081 0.6303
C7 C 0.6391(7) 0.5942(16) 0.5631(11)
H7 H 0.6477 0.5874 0.4681
H8 H 0.6782 0.6925 0.6115
H9 H 0.5786 0.6299 0.5663
C8 C 0.7776(10) 0.1202(18) 0.6825(12)
H10 H 0.8378 0.0870 0.6750
H11 H 0.7381 0.0217 0.6350
H12 H 0.7715 0.1237 0.7787
C9 C 0.8286(8) 0.5334(19) 0.8209(13)
H13 H 0.7793 0.6191 0.8287
H14 H 0.8832 0.6031 0.8519
H15 H 0.8260 0.4173 0.8772
N1 N 0.5539(9) 0.141(3) 0.6685(13)
H16 H 0.5159 0.0482 0.6435
H17 H 0.5654 0.1776 0.7541
O1 O 0.5798(8) 0.1797(17) 0.4454(11)
C10? C 0.5965(17) 0.184(4) 0.593(2)
C11? C 0.6903(6) 0.2686(15) 0.6657(8)
H18? H 0.6844 0.3076 0.7604
C12? C 0.7136(6) 0.4540(14) 0.5918(8)
H19? H 0.7245 0.4075 0.5011
C13? C 0.8032(12) 0.545(2) 0.6630(16)
C14? C 0.881(2) 0.551(5) 0.591(3)
H20? H 0.8834 0.4708 0.5145
C15? C 0.965(2) 0.704(7) 0.651(4)
H21? H 0.9934 0.7467 0.5754
H22? H 1.0076 0.6357 0.7186
H23? H 0.9427 0.8180 0.6934
C16? C 0.6289(14) 0.592(3) 0.5585(16)
H24? H 0.5991 0.5953 0.6375
H25? H 0.5894 0.5395 0.4798
H26? H 0.6468 0.7238 0.5381
C17? C 0.763(2) 0.112(4) 0.677(2)
H27? H 0.7655 0.0581 0.5871
H28? H 0.7504 0.0072 0.7380
H29? H 0.8192 0.1715 0.7146
C18? C 0.810(3) 0.589(6) 0.827(4)
H30? H 0.8585 0.5139 0.8775
H31? H 0.7556 0.5497 0.8560
H32? H 0.8201 0.7281 0.8441
N2? N 0.537(2) 0.134(6) 0.656(3)
H33? H 0.4897 0.0771 0.6128
H34? H 0.5421 0.1567 0.7440
O2? O 0.597(2) 0.162(5) 0.476(3)
loop_
_geom_bond_atom_site_label_1
_geom_bond_atom_site_label_2
_geom_bond_site_symmetry_1
_geom_bond_site_symmetry_2
C1 C2 1_555 1_555
C2 H1 1_555 1_555
C3 C2 1_555 1_555
H2 C3 1_555 1_555
C4 C3 1_555 1_555
C5 C4 1_555 1_555
H3 C5 1_555 1_555
C6 C5 1_555 1_555
H4 C6 1_555 1_555
H5 C6 1_555 1_555
H6 C6 1_555 1_555
C7 C2 1_555 1_555
H7 C7 1_555 1_555
H8 C7 1_555 1_555
H9 C7 1_555 1_555
C8 C3 1_555 1_555
H10 C8 1_555 1_555
H11 C8 1_555 1_555
H12 C8 1_555 1_555
C9 C4 1_555 1_555
H13 C9 1_555 1_555
H14 C9 1_555 1_555
H15 C9 1_555 1_555
N1 C1 1_555 1_555
H16 N1 1_555 1_555
H17 N1 1_555 1_555
O1 C1 1_555 1_555

#END
