
#######################################################################
#
#                 Cambridge Crystallographic Data Centre
#                                CCDC 
#
#######################################################################
#
# If this CIF has been generated from an entry in the Cambridge 
# Structural Database, then it will include bibliographic, chemical, 
# crystal, experimental, refinement or atomic coordinate data resulting 
# from the CCDC's data processing and validation procedures.
#
#######################################################################

data_SIPVAP
_chemical_name_common            
penta-aqua-bis(salicylaldehyde-4-aminobenzenesulfonato)-calcium(ii)
_chemical_formula_moiety         'C26 H30 Ca1 N2 O13 S2'
_chemical_name_systematic        
penta-aqua-bis(4-(2-hydroxyphenylmethyleneamino)benzenesulfonato)-calcium(ii)
_symmetry_cell_setting           orthorhombic
_symmetry_space_group_name_H-M   'P c a 21'
_symmetry_Int_Tables_number      29
_space_group_name_Hall           'P 2c -2ac'
loop_
_symmetry_equiv_pos_site_id
_symmetry_equiv_pos_as_xyz
1 x,y,z
2 -x,-y,1/2+z
3 1/2+x,-y,z
4 1/2-x,y,1/2+z
_cell_length_a                   11.6247(18)
_cell_length_b                   7.2591(10)
_cell_length_c                   35.163(3)
_cell_angle_alpha                90
_cell_angle_beta                 90
_cell_angle_gamma                90
_cell_volume                     2967.22
_cell_formula_units_Z            4
loop_
_atom_site_label
_atom_site_type_symbol
_atom_site_fract_x
_atom_site_fract_y
_atom_site_fract_z
Ca1 Ca 0.71115(8) 0.36614(13) 0.28854(3)
N1 N 0.9072(4) 0.6196(6) 0.52141(12)
N2 N 0.6511(3) 0.1184(5) 0.06071(13)
O1 O 0.8095(3) 0.5233(5) 0.33789(10)
O2 O 0.8865(3) 0.8287(5) 0.34515(11)
O3 O 0.6828(3) 0.7777(5) 0.35473(11)
O4 O 1.0579(3) 0.7003(6) 0.57432(11)
H1 H 1.0338 0.6897 0.5525
O5 O 0.6077(4) 0.2211(7) 0.24172(13)
O6 O 0.5126(4) -0.0695(5) 0.23774(12)
O7 O 0.4085(4) 0.2111(6) 0.22620(13)
O8 O 0.8046(3) 0.2036(6) 0.00888(11)
H2 H 0.7794 0.1844 0.0303
O9 O 0.6280(3) 0.1529(5) 0.33351(13)
H3 H 0.6565 0.0456 0.3313
H4 H 0.5552 0.1475 0.3316
O10 O 0.5470(3) 0.5259(5) 0.31383(12)
H5 H 0.5637 0.5883 0.3335
H6 H 0.4914 0.4536 0.3186
O11 O 0.7012(3) 0.6763(5) 0.26002(12)
H7 H 0.6352 0.7009 0.2509
H8 H 0.7531 0.6946 0.2434
O12 O 0.8640(3) 0.4005(6) 0.24118(13)
H9 H 0.9174 0.3220 0.2443
H10 H 0.8920 0.5086 0.2410
O13 O 0.8517(4) 0.1322(6) 0.29848(13)
H11 H 0.8811 0.0936 0.2778
H12 H 0.8264 0.0424 0.3115
S1 S 0.79831(10) 0.70120(16) 0.35730(4)
S2 S 0.51773(10) 0.11974(17) 0.22399(4)
C1 C 0.8246(4) 0.6563(6) 0.40581(14)
C2 C 0.7410(4) 0.6991(7) 0.43254(15)
H13 H 0.6688 0.7394 0.4248
C3 C 0.7658(4) 0.6813(7) 0.47079(16)
H14 H 0.7098 0.7087 0.4888
C4 C 0.8740(4) 0.6227(7) 0.48255(15)
C5 C 0.9555(4) 0.5775(7) 0.45535(15)
H15 H 1.0275 0.5358 0.4630
C6 C 0.9317(4) 0.5931(7) 0.41746(15)
H16 H 0.9870 0.5616 0.3995
C7 C 0.8350(4) 0.5816(7) 0.54753(15)
H17 H 0.7612 0.5446 0.5408
C8 C 0.8650(4) 0.5946(7) 0.58733(14)
C9 C 0.9735(4) 0.6540(7) 0.59918(15)
C10 C 0.9996(4) 0.6653(7) 0.63789(16)
H18 H 1.0717 0.7056 0.6458
C11 C 0.9169(5) 0.6157(8) 0.66430(15)
H19 H 0.9341 0.6239 0.6901
C12 C 0.8093(5) 0.5542(8) 0.65325(16)
H20 H 0.7550 0.5198 0.6713
C13 C 0.7843(5) 0.5450(7) 0.61505(16)
H21 H 0.7119 0.5047 0.6075
C14 C 0.5545(4) 0.1133(7) 0.17542(14)
C15 C 0.4749(4) 0.1634(7) 0.14819(16)
H22 H 0.4009 0.1965 0.1555
C16 C 0.5043(4) 0.1647(7) 0.11031(16)
H23 H 0.4507 0.2015 0.0922
C17 C 0.6142(4) 0.1111(6) 0.09900(14)
C18 C 0.6929(4) 0.0603(7) 0.12622(15)
H24 H 0.7665 0.0253 0.1188
C19 C 0.6647(4) 0.0603(7) 0.16474(15)
H25 H 0.7185 0.0254 0.1829
C20 C 0.5805(4) 0.0855(7) 0.03341(15)
H26 H 0.5064 0.0466 0.0393
C21 C 0.6118(4) 0.1064(7) -0.00608(15)
C22 C 0.7227(4) 0.1675(7) -0.01687(16)
C23 C 0.7478(5) 0.1909(7) -0.05525(17)
H27 H 0.8202 0.2330 -0.0624
C24 C 0.6677(5) 0.1531(7) -0.08266(17)
H28 H 0.6862 0.1695 -0.1082
C25 C 0.5585(5) 0.0898(7) -0.07253(17)
H29 H 0.5043 0.0635 -0.0912
C26 C 0.5317(5) 0.0668(7) -0.03490(17)
H30 H 0.4589 0.0242 -0.0283
loop_
_geom_bond_atom_site_label_1
_geom_bond_atom_site_label_2
_geom_bond_site_symmetry_1
_geom_bond_site_symmetry_2
Ca1 O1 1_555 1_555
N1 C4 1_555 1_555
N2 C17 1_555 1_555
O1 S1 1_555 1_555
O2 S1 1_555 1_555
O3 S1 1_555 1_555
O4 H1 1_555 1_555
O5 Ca1 1_555 1_555
O6 S2 1_555 1_555
O7 S2 1_555 1_555
O8 H2 1_555 1_555
O9 Ca1 1_555 1_555
H3 O9 1_555 1_555
H4 O9 1_555 1_555
O10 Ca1 1_555 1_555
H5 O10 1_555 1_555
H6 O10 1_555 1_555
O11 Ca1 1_555 1_555
H7 O11 1_555 1_555
H8 O11 1_555 1_555
O12 Ca1 1_555 1_555
H9 O12 1_555 1_555
H10 O12 1_555 1_555
O13 Ca1 1_555 1_555
H11 O13 1_555 1_555
H12 O13 1_555 1_555
S1 C1 1_555 1_555
S2 O5 1_555 1_555
C1 C2 1_555 1_555
C2 H13 1_555 1_555
C3 C2 1_555 1_555
H14 C3 1_555 1_555
C4 C3 1_555 1_555
C5 C4 1_555 1_555
H15 C5 1_555 1_555
C6 C1 1_555 1_555
H16 C6 1_555 1_555
C7 N1 1_555 1_555
H17 C7 1_555 1_555
C8 C7 1_555 1_555
C9 O4 1_555 1_555
C10 C9 1_555 1_555
H18 C10 1_555 1_555
C11 C10 1_555 1_555
H19 C11 1_555 1_555
C12 C11 1_555 1_555
H20 C12 1_555 1_555
C13 C8 1_555 1_555
H21 C13 1_555 1_555
C14 S2 1_555 1_555
C15 C14 1_555 1_555
H22 C15 1_555 1_555
C16 C15 1_555 1_555
H23 C16 1_555 1_555
C17 C16 1_555 1_555
C18 C17 1_555 1_555
H24 C18 1_555 1_555
C19 C14 1_555 1_555
H25 C19 1_555 1_555
C20 N2 1_555 1_555
H26 C20 1_555 1_555
C21 C20 1_555 1_555
C22 O8 1_555 1_555
C23 C22 1_555 1_555
H27 C23 1_555 1_555
C24 C23 1_555 1_555
H28 C24 1_555 1_555
C25 C24 1_555 1_555
H29 C25 1_555 1_555
C26 C21 1_555 1_555
H30 C26 1_555 1_555
C5 C6 1_555 1_555
C8 C9 1_555 1_555
C12 C13 1_555 1_555
C18 C19 1_555 1_555
C21 C22 1_555 1_555
C25 C26 1_555 1_555

#END
