
#######################################################################
#
#                 Cambridge Crystallographic Data Centre
#                                CCDC 
#
#######################################################################
#
# If this CIF has been generated from an entry in the Cambridge 
# Structural Database, then it will include bibliographic, chemical, 
# crystal, experimental, refinement or atomic coordinate data resulting 
# from the CCDC's data processing and validation procedures.
#
#######################################################################

data_SIQFOQ
_chemical_formula_moiety         'C21 H21 N1 O4'
_chemical_name_systematic        
'dimethyl 8-(cyanomethyl)-5-methyl-5,6,7,8-tetrahydrophenanthrene-2,5-dicarboxylate'
_symmetry_cell_setting           monoclinic
_symmetry_space_group_name_H-M   'P 21/c'
_symmetry_Int_Tables_number      14
_space_group_name_Hall           '-P 2ybc'
loop_
_symmetry_equiv_pos_site_id
_symmetry_equiv_pos_as_xyz
1 x,y,z
2 -x,1/2+y,1/2-z
3 -x,-y,-z
4 x,1/2-y,1/2+z
_cell_length_a                   8.712(3)
_cell_length_b                   23.551(7)
_cell_length_c                   9.110(3)
_cell_angle_alpha                90
_cell_angle_beta                 106.515(5)
_cell_angle_gamma                90
_cell_volume                     1792.04
_exptl_crystal_colour            colorless
_exptl_crystal_description       block
_cell_formula_units_Z            4
loop_
_atom_site_label
_atom_site_type_symbol
_atom_site_fract_x
_atom_site_fract_y
_atom_site_fract_z
C1 C 0.4171(3) 0.48918(9) 0.6999(2)
C2 C 0.3247(3) 0.51208(9) 0.5665(2)
H1 H 0.3439 0.5492 0.5414
C3 C 0.2010(2) 0.48093(8) 0.4662(2)
C4 C 0.1041(3) 0.50527(8) 0.3298(2)
H2 H 0.1227 0.5424 0.3047
C5 C -0.0152(3) 0.47517(9) 0.2359(2)
H3 H -0.0786 0.4922 0.1472
C6 C -0.0469(2) 0.41832(8) 0.2682(2)
C7 C 0.0447(3) 0.39233(8) 0.3994(2)
C8 C 0.1700(3) 0.42425(8) 0.5030(2)
C9 C 0.2685(3) 0.40196(9) 0.6424(2)
H4 H 0.2517 0.3650 0.6700
C10 C 0.3874(3) 0.43341(10) 0.7370(3)
H5 H 0.4498 0.4175 0.8279
C11 C 0.0078(3) 0.33158(9) 0.4394(3)
C12 C -0.1031(3) 0.30087(9) 0.2996(3)
H6 H -0.0419 0.2902 0.2300
H7 H -0.1435 0.2664 0.3334
C13 C -0.2427(3) 0.33760(10) 0.2154(3)
H8 H -0.3028 0.3493 0.2850
H9 H -0.3137 0.3160 0.1329
C14 C -0.1827(3) 0.38944(9) 0.1508(2)
H10 H -0.2715 0.4165 0.1195
C15 C 0.5515(3) 0.51985(10) 0.8068(3)
C16 C 0.6806(3) 0.60810(12) 0.8705(3)
H11 H 0.6730 0.6080 0.9736
H12 H 0.6729 0.6464 0.8331
H13 H 0.7814 0.5921 0.8686
C17 C 0.1534(3) 0.29304(9) 0.4825(3)
C18 C 0.3958(4) 0.26848(13) 0.4302(3)
H14 H 0.4541 0.2682 0.5369
H15 H 0.4641 0.2819 0.3714
H16 H 0.3602 0.2307 0.3983
C19 C -0.1276(3) 0.37503(10) 0.0086(3)
H17 H -0.0959 0.4097 -0.0321
H18 H -0.0347 0.3504 0.0388
C20 C -0.2521(3) 0.34718(11) -0.1106(3)
C21 C -0.0736(4) 0.33257(11) 0.5686(3)
H19 H -0.1059 0.2948 0.5860
H20 H -0.1660 0.3568 0.5398
H21 H 0.0003 0.3467 0.6606
N1 N -0.3496(3) 0.32396(12) -0.2001(3)
O1 O 0.55276(18) 0.57496(7) 0.77517(19)
O2 O 0.6486(2) 0.49791(8) 0.9108(2)
O3 O 0.1673(3) 0.25294(7) 0.5664(2)
O4 O 0.2584(2) 0.30568(6) 0.40620(18)
loop_
_geom_bond_atom_site_label_1
_geom_bond_atom_site_label_2
_geom_bond_site_symmetry_1
_geom_bond_site_symmetry_2
C1 C2 1_555 1_555
C2 H1 1_555 1_555
C3 C2 1_555 1_555
C4 C3 1_555 1_555
H2 C4 1_555 1_555
C5 C4 1_555 1_555
H3 C5 1_555 1_555
C6 C5 1_555 1_555
C7 C6 1_555 1_555
C8 C3 1_555 1_555
C9 C8 1_555 1_555
H4 C9 1_555 1_555
C10 C1 1_555 1_555
H5 C10 1_555 1_555
C11 C7 1_555 1_555
C12 C11 1_555 1_555
H6 C12 1_555 1_555
H7 C12 1_555 1_555
C13 C12 1_555 1_555
H8 C13 1_555 1_555
H9 C13 1_555 1_555
C14 C6 1_555 1_555
H10 C14 1_555 1_555
C15 C1 1_555 1_555
C16 H11 1_555 1_555
H12 C16 1_555 1_555
H13 C16 1_555 1_555
C17 C11 1_555 1_555
C18 H14 1_555 1_555
H15 C18 1_555 1_555
H16 C18 1_555 1_555
C19 C14 1_555 1_555
H17 C19 1_555 1_555
H18 C19 1_555 1_555
C20 C19 1_555 1_555
C21 C11 1_555 1_555
H19 C21 1_555 1_555
H20 C21 1_555 1_555
H21 C21 1_555 1_555
N1 C20 1_555 1_555
O1 C15 1_555 1_555
O2 C15 1_555 1_555
O3 C17 1_555 1_555
O4 C17 1_555 1_555
C7 C8 1_555 1_555
C9 C10 1_555 1_555
C13 C14 1_555 1_555
C16 O1 1_555 1_555
C18 O4 1_555 1_555

#END
