
#######################################################################
#
#                 Cambridge Crystallographic Data Centre
#                                CCDC 
#
#######################################################################
#
# If this CIF has been generated from an entry in the Cambridge 
# Structural Database, then it will include bibliographic, chemical, 
# crystal, experimental, refinement or atomic coordinate data resulting 
# from the CCDC's data processing and validation procedures.
#
#######################################################################

data_SIQRAM
_chemical_formula_moiety         'C22 H25 F3 N2 O4 S1'
_chemical_name_systematic        
'(S)-1,3,4,10b-Tetrahydro-7-trifluoromethylpyrazino(2,1-a)isoindol-6(2H)-one (S)-10-camphor sulfamide'
_chemical_properties_biological  'orally-active 5-HT!2C$ receptor agonist'
_symmetry_cell_setting           orthorhombic
_symmetry_space_group_name_H-M   'P 21 21 21'
_symmetry_Int_Tables_number      19
_space_group_name_Hall           'P 2ac 2ab'
loop_
_symmetry_equiv_pos_site_id
_symmetry_equiv_pos_as_xyz
1 x,y,z
2 1/2-x,-y,1/2+z
3 1/2+x,1/2-y,-z
4 -x,1/2+y,1/2-z
_cell_length_a                   7.5047(2)
_cell_length_b                   11.0816(3)
_cell_length_c                   25.4259(7)
_cell_angle_alpha                90
_cell_angle_beta                 90
_cell_angle_gamma                90
_cell_volume                     2114.52
_exptl_crystal_colour            colorless
_exptl_crystal_description       plate
_chemical_melting_point          214-225deg.C
_cell_formula_units_Z            4
_exptl_crystal_recrystallization_method chloroform/hexane
loop_
_atom_site_label
_atom_site_type_symbol
_atom_site_fract_x
_atom_site_fract_y
_atom_site_fract_z
S1 S 0.73134 0.09902 0.67426
F1 F 0.07239 0.49453 0.45363
F2 F 0.07647 0.60821 0.52199
F3 F 0.17133 0.67488 0.44787
O1 O 0.80141 0.41108 0.75113
O2 O 0.09321 0.34719 0.55011
O3 O 0.85355 0.08403 0.63112
O4 O 0.63324 -0.00269 0.69307
N1 N 0.58685 0.20268 0.65943
N2 N 0.36227 0.27114 0.57846
C1 C 0.86538 0.15933 0.72585
C2 C 0.78031 0.19947 0.77722
C3 C 0.78338 0.33637 0.78512
C4 C 0.76412 0.35859 0.84416
C5 C 0.75106 0.23067 0.86467
C6 C 0.56561 0.18497 0.84969
C7 C 0.58158 0.16937 0.78894
C8 C 0.87728 0.15912 0.82834
C9 C 0.86986 0.02300 0.83682
C10 C 1.07028 0.19809 0.83060
C11 C 0.39398 0.18950 0.66636
C12 C 0.29903 0.17729 0.61420
C13 C 0.25777 0.34930 0.55173
C14 C 0.38277 0.43422 0.52522
C15 C 0.35369 0.53462 0.49295
C16 C 0.49846 0.59746 0.47408
C17 C 0.67078 0.56452 0.48733
C18 C 0.70259 0.46377 0.51907
C19 C 0.55567 0.40185 0.53751
C20 C 0.55448 0.29028 0.57180
C21 C 0.64028 0.30522 0.62593
C22 C 0.16959 0.57688 0.47898
H1 H 0.95435 0.09899 0.73448
H2 H 0.92870 0.22826 0.71159
H3 H 0.86724 0.40007 0.85838
H4 H 0.65751 0.40459 0.85210
H5 H 0.77882 0.22270 0.90217
H6 H 0.47426 0.24332 0.85873
H7 H 0.53908 0.10881 0.86678
H8 H 0.50266 0.22454 0.77065
H9 H 0.55327 0.08739 0.77850
H10 H 0.95106 -0.01599 0.81310
H11 H 0.75105 -0.00536 0.83027
H12 H 0.90282 0.00466 0.87241
H13 H 1.11572 0.18538 0.86545
H14 H 1.07898 0.28213 0.82180
H15 H 1.13862 0.15149 0.80597
H16 H 0.34800 0.25938 0.68490
H17 H 0.37008 0.11873 0.68766
H18 H 0.32245 0.09834 0.59924
H19 H 0.17148 0.18525 0.61932
H20 H 0.48022 0.66326 0.45202
H21 H 0.76629 0.60989 0.47499
H22 H 0.81780 0.43950 0.52741
H23 H 0.60810 0.22204 0.55307
H24 H 0.76897 0.30729 0.62249
H25 H 0.60166 0.38044 0.64176
loop_
_geom_bond_atom_site_label_1
_geom_bond_atom_site_label_2
_geom_bond_site_symmetry_1
_geom_bond_site_symmetry_2
S1 O3 1_555 1_555
F1 C22 1_555 1_555
F2 C22 1_555 1_555
F3 C22 1_555 1_555
O1 C3 1_555 1_555
O2 C13 1_555 1_555
O4 S1 1_555 1_555
N1 S1 1_555 1_555
N2 C12 1_555 1_555
C1 S1 1_555 1_555
C2 C1 1_555 1_555
C3 C2 1_555 1_555
C4 C3 1_555 1_555
C5 C4 1_555 1_555
C6 C5 1_555 1_555
C7 C2 1_555 1_555
C8 C2 1_555 1_555
C9 C8 1_555 1_555
C10 C8 1_555 1_555
C11 N1 1_555 1_555
C12 C11 1_555 1_555
C13 N2 1_555 1_555
C14 C13 1_555 1_555
C15 C14 1_555 1_555
C16 C15 1_555 1_555
C17 C16 1_555 1_555
C18 C17 1_555 1_555
C19 C14 1_555 1_555
C20 N2 1_555 1_555
C21 N1 1_555 1_555
C22 C15 1_555 1_555
H1 C1 1_555 1_555
H2 C1 1_555 1_555
H3 C4 1_555 1_555
H4 C4 1_555 1_555
H5 C5 1_555 1_555
H6 C6 1_555 1_555
H7 C6 1_555 1_555
H8 C7 1_555 1_555
H9 C7 1_555 1_555
H10 C9 1_555 1_555
H11 C9 1_555 1_555
H12 C9 1_555 1_555
H13 C10 1_555 1_555
H14 C10 1_555 1_555
H15 C10 1_555 1_555
H16 C11 1_555 1_555
H17 C11 1_555 1_555
H18 C12 1_555 1_555
H19 C12 1_555 1_555
H20 C16 1_555 1_555
H21 C17 1_555 1_555
H22 C18 1_555 1_555
H23 C20 1_555 1_555
H24 C21 1_555 1_555
H25 C21 1_555 1_555
C5 C8 1_555 1_555
C6 C7 1_555 1_555
C18 C19 1_555 1_555
C19 C20 1_555 1_555
C20 C21 1_555 1_555

#END
