
#######################################################################
#
#                 Cambridge Crystallographic Data Centre
#                                CCDC 
#
#######################################################################
#
# If this CIF has been generated from an entry in the Cambridge 
# Structural Database, then it will include bibliographic, chemical, 
# crystal, experimental, refinement or atomic coordinate data resulting 
# from the CCDC's data processing and validation procedures.
#
#######################################################################

data_SIQSUI
_chemical_formula_moiety         'C44 H48 N2'
_chemical_name_systematic        
5,11-Dihexyl-6,12-bis(4-methylphenyl)-5,11-dihydroindolo[3,2-b]carbazole
_symmetry_cell_setting           triclinic
_symmetry_space_group_name_H-M   'P -1'
_symmetry_Int_Tables_number      2
_space_group_name_Hall           '-P 1'
loop_
_symmetry_equiv_pos_site_id
_symmetry_equiv_pos_as_xyz
1 x,y,z
2 -x,-y,-z
_cell_length_a                   12.006(5)
_cell_length_b                   12.382(5)
_cell_length_c                   13.368(5)
_cell_angle_alpha                89.150(5)
_cell_angle_beta                 72.736(5)
_cell_angle_gamma                73.853(5)
_cell_volume                     1817.9
_cell_formula_units_Z            2
loop_
_atom_site_label
_atom_site_type_symbol
_atom_site_fract_x
_atom_site_fract_y
_atom_site_fract_z
C1 C 0.4967(3) -0.0784(3) -0.2047(2)
C2 C 0.4971(3) -0.0408(2) -0.0997(2)
C3 C 0.4324(3) -0.0725(2) -0.0044(3)
N1 N 0.3553(2) -0.1422(2) 0.0153(2)
C4 C 0.4354(3) -0.0327(2) 0.0935(2)
C5 C 0.3591(3) -0.0824(3) 0.1742(3)
C6 C 0.3139(3) -0.1494(3) 0.1228(3)
C7 C 0.4083(3) -0.0231(3) -0.2489(3)
H1 H 0.3465 0.0392 -0.2120
C8 C 0.5880(3) -0.1692(3) -0.2645(3)
H2 H 0.6501 -0.2077 -0.2378
C9 C 0.4186(3) -0.3265(3) -0.0837(3)
H3 H 0.5010 -0.3206 -0.1107
H4 H 0.4125 -0.3651 -0.0195
C10 C 0.3312(3) -0.2098(3) -0.0586(3)
H5 H 0.3358 -0.1719 -0.1231
H6 H 0.2490 -0.2156 -0.0298
C11 C 0.4996(5) -0.1497(4) -0.4049(3)
C12 C 0.3266(3) -0.0773(3) 0.2839(3)
H7 H 0.3554 -0.0326 0.3196
C13 C 0.4095(4) -0.0584(4) -0.3469(3)
H8 H 0.3482 -0.0196 -0.3743
C14 C 0.5891(4) -0.2036(3) -0.3619(3)
H9 H 0.6518 -0.2649 -0.3997
C15 C 0.3955(4) -0.3957(3) -0.1627(3)
H10 H 0.3988 -0.3557 -0.2260
H11 H 0.3139 -0.4033 -0.1346
C16 C 0.2386(3) -0.2119(3) 0.1777(4)
H12 H 0.2092 -0.2568 0.1428
C17 C 0.2521(4) -0.1384(4) 0.3386(3)
H13 H 0.2304 -0.1352 0.4115
C18 C 0.2089(4) -0.2050(4) 0.2854(4)
H14 H 0.1586 -0.2460 0.3237
C19 C 0.4852(5) -0.5126(4) -0.1918(5)
H15 H 0.5660 -0.5037 -0.2220
H16 H 0.4846 -0.5499 -0.1274
C20 C 0.4999(5) -0.1897(4) -0.5119(3)
H17 H 0.4389 -0.1355 -0.5339
H18 H 0.4824 -0.2610 -0.5074
H19 H 0.5784 -0.1978 -0.5620
C21 C 0.4664(6) -0.5883(5) -0.2650(6)
H20 H 0.5070 -0.6007 -0.3367
C22 C 0.3766(6) -0.6392(7) -0.2091(5)
H21 H 0.3924 -0.6648 -0.1452
H22 H 0.3788 -0.7022 -0.2515
H23 H 0.2977 -0.5852 -0.1928
C1A C 0.5033(3) 0.0784(3) 0.2047(2)
C2A C 0.5029(3) 0.0408(2) 0.0997(2)
C3A C 0.5676(3) 0.0725(2) 0.0044(3)
N1A N 0.6447(2) 0.1422(2) -0.0153(2)
C4A C 0.5646(3) 0.0327(2) -0.0935(2)
C5A C 0.6409(3) 0.0824(3) -0.1742(3)
C6A C 0.6861(3) 0.1494(3) -0.1228(3)
C7A C 0.5917(3) 0.0231(3) 0.2489(3)
H1A H 0.6535 -0.0392 0.2120
C8A C 0.4120(3) 0.1692(3) 0.2645(3)
H2A H 0.3499 0.2077 0.2378
C9A C 0.5814(3) 0.3265(3) 0.0837(3)
H3A H 0.4990 0.3206 0.1107
H4A H 0.5875 0.3651 0.0195
C10A C 0.6688(3) 0.2098(3) 0.0586(3)
H5A H 0.6642 0.1719 0.1231
H6A H 0.7510 0.2156 0.0298
C11A C 0.5004(5) 0.1497(4) 0.4049(3)
C12A C 0.6734(3) 0.0773(3) -0.2839(3)
H7A H 0.6446 0.0326 -0.3196
C13A C 0.5905(4) 0.0584(4) 0.3469(3)
H8A H 0.6518 0.0196 0.3743
C14A C 0.4109(4) 0.2036(3) 0.3619(3)
H9A H 0.3482 0.2649 0.3997
C15A C 0.6045(4) 0.3957(3) 0.1627(3)
H10A H 0.6012 0.3557 0.2260
H11A H 0.6861 0.4033 0.1346
C16A C 0.7614(3) 0.2119(3) -0.1777(4)
H12A H 0.7908 0.2568 -0.1428
C17A C 0.7479(4) 0.1384(4) -0.3386(3)
H13A H 0.7696 0.1352 -0.4115
C18A C 0.7911(4) 0.2050(4) -0.2854(4)
H14A H 0.8414 0.2460 -0.3237
C19A C 0.5148(5) 0.5126(4) 0.1918(5)
H15A H 0.4340 0.5037 0.2220
H16A H 0.5154 0.5499 0.1274
C20A C 0.5001(5) 0.1897(4) 0.5119(3)
H17A H 0.5611 0.1355 0.5339
H18A H 0.5176 0.2610 0.5074
H19A H 0.4216 0.1978 0.5620
C21A C 0.5336(6) 0.5883(5) 0.2650(6)
H20A H 0.4930 0.6007 0.3367
C22A C 0.6234(6) 0.6392(7) 0.2091(5)
H21A H 0.6076 0.6648 0.1452
H22A H 0.6212 0.7022 0.2515
H23A H 0.7023 0.5852 0.1928
C23 C 0.0340(3) 1.0973(3) 0.0289(3)
C24 C 0.0698(3) 1.1979(3) 0.0523(3)
C25 C 0.0066(3) 0.9762(3) -0.1028(3)
C26 C 0.0753(3) 1.1260(3) -0.1708(3)
C27 C 0.0391(3) 1.0707(3) -0.0744(3)
N2 N 0.0211(3) 0.9734(2) -0.2104(2)
C28 C 0.1150(3) 1.2225(3) -0.1960(3)
H24 H 0.1228 1.2668 -0.1444
C29 C -0.0137(3) 1.3025(3) 0.0802(3)
H25 H -0.0947 1.3105 0.0855
C30 C 0.1890(3) 1.1909(3) 0.0439(3)
H26 H 0.2480 1.1215 0.0248
C31 C 0.0644(3) 1.0622(3) -0.2514(3)
C32 C 0.1378(4) 1.3881(3) 0.0931(3)
C33 C 0.0934(3) 1.0907(4) -0.3556(3)
H27 H 0.0874 1.0466 -0.4085
C34 C 0.0196(4) 1.3951(3) 0.1004(3)
H28 H -0.0393 1.4644 0.1194
C35 C 0.2221(3) 1.2833(4) 0.0629(3)
H29 H 0.3034 1.2758 0.0553
C36 C -0.0010(4) 0.8930(4) -0.2752(3)
H30 H -0.0337 0.9327 -0.3279
H31 H -0.0617 0.8604 -0.2314
C37 C 0.1421(4) 1.2498(4) -0.2991(4)
H32 H 0.1687 1.3133 -0.3166
C38 C 0.1129(5) 0.7985(4) -0.3296(4)
H33 H 0.1483 0.7620 -0.2770
H34 H 0.1718 0.8311 -0.3763
C39 C 0.1758(4) 1.4907(3) 0.1155(3)
H35 H 0.2576 1.4666 0.1194
H36 H 0.1218 1.5295 0.1811
H37 H 0.1721 1.5405 0.0601
C40 C 0.1308(4) 1.1852(4) -0.3773(4)
H38 H 0.1491 1.2067 -0.4459
C41 C 0.0906(7) 0.7085(5) -0.3937(4)
H39 H 0.0275 0.6793 -0.3489
H40 H 0.0624 0.7430 -0.4507
C42 C 0.2067(9) 0.6112(6) -0.4389(6)
H41 H 0.2580 0.6425 -0.4949
H42 H 0.2457 0.5996 -0.3840
C43 C 0.2218(17) 0.5027(10) -0.4789(9)
H43 H 0.2576 0.4346 -0.4554
C44 C 0.1704(11) 0.5187(8) -0.5635(9)
H44 H 0.0938 0.5764 -0.5421
H45 H 0.1578 0.4495 -0.5823
H46 H 0.2249 0.5410 -0.6229
C23A C -0.0340(3) 0.9027(3) -0.0289(3)
C24A C -0.0698(3) 0.8021(3) -0.0523(3)
C25A C -0.0066(3) 1.0238(3) 0.1028(3)
C26A C -0.0753(3) 0.8740(3) 0.1708(3)
C27A C -0.0391(3) 0.9293(3) 0.0744(3)
N2A N -0.0211(3) 1.0266(2) 0.2104(2)
C28A C -0.1150(3) 0.7775(3) 0.1960(3)
H24A H -0.1228 0.7332 0.1444
C29A C 0.0137(3) 0.6975(3) -0.0802(3)
H25A H 0.0947 0.6895 -0.0855
C30A C -0.1890(3) 0.8091(3) -0.0439(3)
H26A H -0.2480 0.8785 -0.0248
C31A C -0.0644(3) 0.9378(3) 0.2514(3)
C32A C -0.1378(4) 0.6119(3) -0.0931(3)
C33A C -0.0934(3) 0.9093(4) 0.3556(3)
H27A H -0.0874 0.9534 0.4085
C34A C -0.0196(4) 0.6049(3) -0.1004(3)
H28A H 0.0393 0.5356 -0.1194
C35A C -0.2221(3) 0.7167(4) -0.0629(3)
H29A H -0.3034 0.7242 -0.0553
C36A C 0.0010(4) 1.1070(4) 0.2752(3)
H30A H 0.0337 1.0673 0.3279
H31A H 0.0617 1.1396 0.2314
C37A C -0.1421(4) 0.7502(4) 0.2991(4)
H32A H -0.1687 0.6867 0.3166
C38A C -0.1129(5) 1.2015(4) 0.3296(4)
H33A H -0.1483 1.2380 0.2770
H34A H -0.1718 1.1689 0.3763
C39A C -0.1758(4) 0.5093(3) -0.1155(3)
H35A H -0.2576 0.5334 -0.1194
H36A H -0.1218 0.4705 -0.1811
H37A H -0.1721 0.4595 -0.0601
C40A C -0.1308(4) 0.8148(4) 0.3773(4)
H38A H -0.1491 0.7933 0.4459
C41A C -0.0906(7) 1.2915(5) 0.3937(4)
H39A H -0.0275 1.3207 0.3489
H40A H -0.0624 1.2570 0.4507
C42A C -0.2067(9) 1.3888(6) 0.4389(6)
H41A H -0.2580 1.3575 0.4949
H42A H -0.2457 1.4004 0.3840
C43A C -0.2218(17) 1.4973(10) 0.4789(9)
H43A H -0.2576 1.5654 0.4554
C44A C -0.1704(11) 1.4813(8) 0.5635(9)
H44A H -0.0938 1.4236 0.5421
H45A H -0.1578 1.5505 0.5823
H46A H -0.2249 1.4590 0.6229
loop_
_geom_bond_atom_site_label_1
_geom_bond_atom_site_label_2
_geom_bond_site_symmetry_1
_geom_bond_site_symmetry_2
C1 C2 1_555 1_555
C2 C3 1_555 1_555
C3 N1 1_555 1_555
N1 C6 1_555 1_555
C4 C3 1_555 1_555
C5 C4 1_555 1_555
C6 C5 1_555 1_555
C7 C1 1_555 1_555
H1 C7 1_555 1_555
C8 C1 1_555 1_555
H2 C8 1_555 1_555
C9 H3 1_555 1_555
H4 C9 1_555 1_555
C10 N1 1_555 1_555
H5 C10 1_555 1_555
H6 C10 1_555 1_555
C11 C13 1_555 1_555
C12 C5 1_555 1_555
H7 C12 1_555 1_555
C13 C7 1_555 1_555
H8 C13 1_555 1_555
C14 C8 1_555 1_555
H9 C14 1_555 1_555
C15 C9 1_555 1_555
H10 C15 1_555 1_555
H11 C15 1_555 1_555
C16 C6 1_555 1_555
H12 C16 1_555 1_555
C17 C12 1_555 1_555
H13 C17 1_555 1_555
C18 C16 1_555 1_555
H14 C18 1_555 1_555
C19 C15 1_555 1_555
H15 C19 1_555 1_555
H16 C19 1_555 1_555
C20 C11 1_555 1_555
H17 C20 1_555 1_555
H18 C20 1_555 1_555
H19 C20 1_555 1_555
C21 C19 1_555 1_555
H20 C21 1_555 1_555
C22 C21 1_555 1_555
H21 C22 1_555 1_555
H22 C22 1_555 1_555
H23 C22 1_555 1_555
C23 C24 1_555 1_555
C24 C29 1_555 1_555
C25 C27 1_555 1_555
C26 C27 1_555 1_555
C27 C23 1_555 1_555
N2 C25 1_555 1_555
C28 C26 1_555 1_555
H24 C28 1_555 1_555
C29 H25 1_555 1_555
C30 C24 1_555 1_555
H26 C30 1_555 1_555
C31 C26 1_555 1_555
C32 C34 1_555 1_555
C33 C31 1_555 1_555
H27 C33 1_555 1_555
C34 C29 1_555 1_555
H28 C34 1_555 1_555
C35 C30 1_555 1_555
H29 C35 1_555 1_555
C36 N2 1_555 1_555
H30 C36 1_555 1_555
H31 C36 1_555 1_555
C37 C28 1_555 1_555
H32 C37 1_555 1_555
C38 C36 1_555 1_555
H33 C38 1_555 1_555
H34 C38 1_555 1_555
C39 C32 1_555 1_555
H35 C39 1_555 1_555
H36 C39 1_555 1_555
H37 C39 1_555 1_555
C40 C33 1_555 1_555
H38 C40 1_555 1_555
C41 C38 1_555 1_555
H39 C41 1_555 1_555
H40 C41 1_555 1_555
C42 C41 1_555 1_555
H41 C42 1_555 1_555
H42 C42 1_555 1_555
C43 C42 1_555 1_555
H43 C43 1_555 1_555
C44 C43 1_555 1_555
H44 C44 1_555 1_555
H45 C44 1_555 1_555
H46 C44 1_555 1_555
C1A C2A 1_555 1_555
C2A C4 1_555 1_555
C3A C2A 1_555 1_555
N1A C3A 1_555 1_555
C4A C2 1_555 1_555
C5A C4A 1_555 1_555
C6A N1A 1_555 1_555
C7A C1A 1_555 1_555
H1A C7A 1_555 1_555
C8A C1A 1_555 1_555
H2A C8A 1_555 1_555
C9A H3A 1_555 1_555
H4A C9A 1_555 1_555
C10A N1A 1_555 1_555
H5A C10A 1_555 1_555
H6A C10A 1_555 1_555
C11A C13A 1_555 1_555
C12A C5A 1_555 1_555
H7A C12A 1_555 1_555
C13A C7A 1_555 1_555
H8A C13A 1_555 1_555
C14A C8A 1_555 1_555
H9A C14A 1_555 1_555
C15A C9A 1_555 1_555
H10A C15A 1_555 1_555
H11A C15A 1_555 1_555
C16A C6A 1_555 1_555
H12A C16A 1_555 1_555
C17A C12A 1_555 1_555
H13A C17A 1_555 1_555
C18A C16A 1_555 1_555
H14A C18A 1_555 1_555
C19A C15A 1_555 1_555
H15A C19A 1_555 1_555
H16A C19A 1_555 1_555
C20A C11A 1_555 1_555
H17A C20A 1_555 1_555
H18A C20A 1_555 1_555
H19A C20A 1_555 1_555
C21A C19A 1_555 1_555
H20A C21A 1_555 1_555
C22A C21A 1_555 1_555
H21A C22A 1_555 1_555
H22A C22A 1_555 1_555
H23A C22A 1_555 1_555
C23A C25 1_555 1_555
C24A C23A 1_555 1_555
C25A C23 1_555 1_555
C26A C27A 1_555 1_555
C27A C23A 1_555 1_555
N2A C25A 1_555 1_555
C28A C26A 1_555 1_555
H24A C28A 1_555 1_555
C29A C24A 1_555 1_555
H25A C29A 1_555 1_555
C30A C24A 1_555 1_555
H26A C30A 1_555 1_555
C31A C26A 1_555 1_555
C32A C34A 1_555 1_555
C33A C31A 1_555 1_555
H27A C33A 1_555 1_555
C34A C29A 1_555 1_555
H28A C34A 1_555 1_555
C35A C30A 1_555 1_555
H29A C35A 1_555 1_555
C36A N2A 1_555 1_555
H30A C36A 1_555 1_555
H31A C36A 1_555 1_555
C37A C28A 1_555 1_555
H32A C37A 1_555 1_555
C38A C36A 1_555 1_555
H33A C38A 1_555 1_555
H34A C38A 1_555 1_555
C39A C32A 1_555 1_555
H35A C39A 1_555 1_555
H36A C39A 1_555 1_555
H37A C39A 1_555 1_555
C40A C33A 1_555 1_555
H38A C40A 1_555 1_555
C41A C38A 1_555 1_555
H39A C41A 1_555 1_555
H40A C41A 1_555 1_555
C42A C41A 1_555 1_555
H41A C42A 1_555 1_555
H42A C42A 1_555 1_555
C43A C42A 1_555 1_555
H43A C43A 1_555 1_555
C44A C43A 1_555 1_555
H44A C44A 1_555 1_555
H45A C44A 1_555 1_555
H46A C44A 1_555 1_555
C9 C10 1_555 1_555
C11 C14 1_555 1_555
C17 C18 1_555 1_555
N2 C31 1_555 1_555
C32 C35 1_555 1_555
C37 C40 1_555 1_555
C3A C4A 1_555 1_555
C5A C6A 1_555 1_555
C9A C10A 1_555 1_555
C11A C14A 1_555 1_555
C17A C18A 1_555 1_555
C25A C27A 1_555 1_555
N2A C31A 1_555 1_555
C32A C35A 1_555 1_555
C37A C40A 1_555 1_555

#END
