
#######################################################################
#
#                 Cambridge Crystallographic Data Centre
#                                CCDC 
#
#######################################################################
#
# If this CIF has been generated from an entry in the Cambridge 
# Structural Database, then it will include bibliographic, chemical, 
# crystal, experimental, refinement or atomic coordinate data resulting 
# from the CCDC's data processing and validation procedures.
#
#######################################################################

data_SIQTAQ
_chemical_formula_moiety         'C26 H21 N1 O2 S1'
_chemical_name_systematic        
1',4'-diphenyl-2'-sulfanylidene-3,4-dihydro-1H,6'H-spiro[naphthalene-2,3'-piperidine]-1,6'-dione
_symmetry_cell_setting           orthorhombic
_symmetry_space_group_name_H-M   'P 21 21 21'
_symmetry_Int_Tables_number      19
_space_group_name_Hall           'P 2ac 2ab'
loop_
_symmetry_equiv_pos_site_id
_symmetry_equiv_pos_as_xyz
1 x,y,z
2 1/2-x,-y,1/2+z
3 1/2+x,1/2-y,-z
4 -x,1/2+y,1/2-z
_cell_length_a                   6.4402(2)
_cell_length_b                   16.5039(6)
_cell_length_c                   19.2685(7)
_cell_angle_alpha                90
_cell_angle_beta                 90
_cell_angle_gamma                90
_cell_volume                     2048.02
_exptl_crystal_colour            'light colorless'
_exptl_crystal_description       block
_cell_formula_units_Z            4
loop_
_atom_site_label
_atom_site_type_symbol
_atom_site_fract_x
_atom_site_fract_y
_atom_site_fract_z
S1 S -0.01088(13) -0.96115(4) -0.55065(4)
O1 O -0.0990(4) -0.93920(14) -0.37346(11)
O2 O 0.0249(5) -1.25649(13) -0.52765(12)
N1 N 0.0266(5) -1.11905(16) -0.53460(12)
C1 C 0.0647(5) -0.95259(18) -0.40252(14)
C2 C 0.2243(5) -0.88837(18) -0.41213(15)
C3 C 0.1764(6) -0.8093(2) -0.39023(15)
H1 H 0.0476 -0.7987 -0.3680
C4 C 0.3163(6) -0.74705(19) -0.40087(17)
H2 H 0.2850 -0.6939 -0.3851
C5 C 0.5028(6) -0.7624(2) -0.43472(17)
H3 H 0.5973 -0.7193 -0.4432
C6 C 0.5513(6) -0.84022(19) -0.45609(17)
H4 H 0.6799 -0.8503 -0.4786
C7 C 0.4132(5) -0.90407(18) -0.44493(15)
C8 C 0.4682(5) -0.98873(18) -0.46775(16)
H5 H 0.6191 -0.9975 -0.4613
H6 H 0.4368 -0.9947 -0.5178
C9 C 0.3497(5) -1.05248(19) -0.42728(16)
H7 H 0.3965 -1.0517 -0.3783
H8 H 0.3817 -1.1066 -0.4466
C10 C 0.1130(5) -1.03870(18) -0.42969(14)
C11 C -0.0103(5) -1.10340(17) -0.38755(15)
H9 H -0.1613 -1.0912 -0.3937
C12 C 0.0290(6) -1.18744(18) -0.41900(16)
H10 H 0.1657 -1.2069 -0.4024
H11 H -0.0776 -1.2251 -0.4008
C13 C 0.0267(5) -1.19243(18) -0.49700(17)
C14 C 0.0403(5) -1.04243(17) -0.50526(15)
C15 C 0.0330(6) -1.10397(17) -0.31006(15)
C16 C -0.1111(6) -1.0695(2) -0.26441(18)
H12 H -0.2336 -1.0452 -0.2823
C17 C -0.0772(7) -1.0703(2) -0.19349(19)
H13 H -0.1748 -1.0453 -0.1633
C18 C 0.0957(7) -1.1067(2) -0.16643(18)
H14 H 0.1167 -1.1077 -0.1176
C19 C 0.2397(7) -1.1419(2) -0.21010(18)
H15 H 0.3603 -1.1669 -0.1915
C20 C 0.2076(6) -1.1407(2) -0.28168(18)
H16 H 0.3067 -1.1653 -0.3115
C21 C -0.0008(6) -1.12483(17) -0.60962(15)
C22 C -0.1969(6) -1.1355(2) -0.63640(18)
H17 H -0.3134 -1.1405 -0.6065
C23 C -0.2219(7) -1.1389(2) -0.70813(19)
H18 H -0.3559 -1.1474 -0.7274
C24 C -0.0523(7) -1.1301(2) -0.75121(18)
H19 H -0.0699 -1.1325 -0.8001
C25 C 0.1431(7) -1.1179(3) -0.7235(2)
H20 H 0.2593 -1.1109 -0.7533
C26 C 0.1691(6) -1.1158(3) -0.65157(19)
H21 H 0.3031 -1.1082 -0.6320
loop_
_geom_bond_atom_site_label_1
_geom_bond_atom_site_label_2
_geom_bond_site_symmetry_1
_geom_bond_site_symmetry_2
S1 C14 1_555 1_555
O1 C1 1_555 1_555
O2 C13 1_555 1_555
N1 C13 1_555 1_555
C1 C2 1_555 1_555
C2 C3 1_555 1_555
C3 H1 1_555 1_555
C4 C3 1_555 1_555
H2 C4 1_555 1_555
C5 C4 1_555 1_555
H3 C5 1_555 1_555
C6 C5 1_555 1_555
H4 C6 1_555 1_555
C7 C2 1_555 1_555
C8 C7 1_555 1_555
H5 C8 1_555 1_555
H6 C8 1_555 1_555
C9 C8 1_555 1_555
H7 C9 1_555 1_555
H8 C9 1_555 1_555
C10 C1 1_555 1_555
C11 C10 1_555 1_555
H9 C11 1_555 1_555
C12 C11 1_555 1_555
H10 C12 1_555 1_555
H11 C12 1_555 1_555
C13 C12 1_555 1_555
C14 N1 1_555 1_555
C15 C11 1_555 1_555
C16 C15 1_555 1_555
H12 C16 1_555 1_555
C17 C16 1_555 1_555
H13 C17 1_555 1_555
C18 C17 1_555 1_555
H14 C18 1_555 1_555
C19 C18 1_555 1_555
H15 C19 1_555 1_555
C20 C15 1_555 1_555
H16 C20 1_555 1_555
C21 N1 1_555 1_555
C22 C21 1_555 1_555
H17 C22 1_555 1_555
C23 C22 1_555 1_555
H18 C23 1_555 1_555
C24 C23 1_555 1_555
H19 C24 1_555 1_555
C25 C24 1_555 1_555
H20 C25 1_555 1_555
C26 C21 1_555 1_555
H21 C26 1_555 1_555
C6 C7 1_555 1_555
C9 C10 1_555 1_555
C10 C14 1_555 1_555
C19 C20 1_555 1_555
C25 C26 1_555 1_555

#END
