
#######################################################################
#
#                 Cambridge Crystallographic Data Centre
#                                CCDC 
#
#######################################################################
#
# If this CIF has been generated from an entry in the Cambridge 
# Structural Database, then it will include bibliographic, chemical, 
# crystal, experimental, refinement or atomic coordinate data resulting 
# from the CCDC's data processing and validation procedures.
#
#######################################################################

data_SIQWEX
_chemical_formula_moiety         'C56 H62 B2 F4 N4 O8'
_chemical_name_systematic        
"diethyl 10-[4-(2-{4-[3,7-bis(ethoxycarbonyl)-2,8-diethyl-5,5-difluoro-1,9-dimethyl-5H-4,5-dipyrrolo[1,2-c:2',1'-f][1,3,2]diazaborinin-10-yl]phenyl}ethenyl)phenyl]-2,8-diethyl-5,5-difluoro-1,9-dimethyl-5H-6,5-dipyrrolo[1,2-c:2',1'-f][1,3,2]diazaborinine-3,7-dicarboxylate"
_symmetry_cell_setting           monoclinic
_symmetry_space_group_name_H-M   'I 2/a'
_symmetry_Int_Tables_number      15
_space_group_name_Hall           '-I 2ya'
loop_
_symmetry_equiv_pos_site_id
_symmetry_equiv_pos_as_xyz
1 x,y,z
2 1/2-x,y,-z
3 1/2+x,1/2+y,1/2+z
4 -x,1/2+y,1/2-z
5 -x,-y,-z
6 1/2+x,-y,z
7 1/2-x,1/2-y,1/2-z
8 x,1/2-y,1/2+z
_cell_length_a                   17.4387(4)
_cell_length_b                   13.6958(2)
_cell_length_c                   21.7973(3)
_cell_angle_alpha                90
_cell_angle_beta                 96.513(2)
_cell_angle_gamma                90
_cell_volume                     5172.4
_exptl_crystal_colour            orange
_exptl_crystal_description       plate
_cell_formula_units_Z            4
_exptl_crystal_recrystallization_method dichloromethane/hexane
loop_
_atom_site_label
_atom_site_type_symbol
_atom_site_fract_x
_atom_site_fract_y
_atom_site_fract_z
F1 F 0.44391(7) 0.67391(7) 0.57320(4)
F2 F 0.53929(5) 0.63251(7) 0.64765(5)
O1 O 0.37809(8) 0.49690(9) 0.54297(6)
O2 O 0.55605(6) 0.82789(8) 0.57895(5)
O3 O 0.45660(8) 0.92635(10) 0.54808(6)
N1 N 0.41132(6) 0.58778(8) 0.66498(5)
N2 N 0.45144(6) 0.76163(7) 0.66799(5)
C1 C 0.40315(8) 0.49201(10) 0.65015(7)
C2 C 0.37941(9) 0.43844(10) 0.69953(8)
C3 C 0.37174(8) 0.50432(10) 0.74686(7)
C4 C 0.39151(7) 0.59814(9) 0.72489(6)
C5 C 0.39443(7) 0.69002(9) 0.75364(5)
C6 C 0.42125(7) 0.77233(9) 0.72408(5)
C7 C 0.41439(7) 0.87426(9) 0.73645(6)
C8 C 0.43897(7) 0.92369(9) 0.68634(6)
C9 C 0.46173(7) 0.85198(9) 0.64582(6)
C10 C 0.36564(7) 0.70085(9) 0.81483(5)
C11 C 0.28754(8) 0.68754(10) 0.82074(6)
H1 H 0.2525 0.6735 0.7852
C12 C 0.26054(8) 0.69453(11) 0.87783(6)
H2 H 0.2070 0.6862 0.8810
C13 C 0.31124(8) 0.71374(10) 0.93128(6)
C14 C 0.38913(8) 0.72816(10) 0.92451(6)
H3 H 0.4244 0.7420 0.9599
C15 C 0.41612(7) 0.72274(10) 0.86713(6)
H4 H 0.4692 0.7340 0.8635
C16 C 0.28628(8) 0.71658(12) 0.99323(6)
H5 H 0.3257 0.7186 1.0270
C17 C 0.41573(10) 0.44987(13) 0.58893(8)
O4 O 0.4467(15) 0.3727(15) 0.583(2)
C18 C 0.3826(4) 0.4465(5) 0.4853(2)
H6 H 0.3607 0.3799 0.4868
H7 H 0.4368 0.4415 0.4763
C19 C 0.3364(6) 0.5068(4) 0.4380(3)
H8 H 0.3370 0.4765 0.3973
H9 H 0.2831 0.5112 0.4479
H10 H 0.3587 0.5724 0.4375
C20 C 0.36101(12) 0.33118(12) 0.69954(12)
H11 H 0.3928 0.2970 0.6714
H12 H 0.3748 0.3048 0.7416
C21 C 0.27745(14) 0.31072(16) 0.67960(16)
H13 H 0.2676 0.2406 0.6831
H14 H 0.2646 0.3313 0.6366
H15 H 0.2455 0.3469 0.7060
C22 C 0.34982(10) 0.47666(11) 0.80890(8)
H16 H 0.3803 0.5150 0.8409
H17 H 0.3599 0.4070 0.8162
H18 H 0.2948 0.4898 0.8103
C23 C 0.49035(9) 0.87240(10) 0.58530(7)
C24 C 0.58892(11) 0.84539(14) 0.52113(8)
H19 H 0.5626 0.8043 0.4878
H20 H 0.5823 0.9148 0.5089
C25 C 0.6704(3) 0.8209(6) 0.5313(2)
H21 H 0.6940 0.8319 0.4932
H22 H 0.6958 0.8621 0.5643
H23 H 0.6762 0.7521 0.5433
C26 C 0.38486(9) 0.92321(10) 0.79054(6)
H24 H 0.3372 0.8911 0.7996
H25 H 0.3744 0.9921 0.7808
H26 H 0.4237 0.9184 0.8266
C27 C 0.43917(9) 1.03165(10) 0.67478(7)
H27 H 0.4819 1.0479 0.6503
H28 H 0.4486 1.0663 0.7148
C28 C 0.36344(10) 1.06714(12) 0.64048(9)
H29 H 0.3686 1.1358 0.6289
H30 H 0.3222 1.0607 0.6672
H31 H 0.3508 1.0278 0.6032
B1 B 0.46373(9) 0.66309(11) 0.63529(7)
F1A F 0.05609(7) 0.67391(7) 1.42680(4)
F2A F -0.03929(5) 0.63251(7) 1.35235(5)
O1A O 0.12191(8) 0.49690(9) 1.45703(6)
O2A O -0.05605(6) 0.82789(8) 1.42105(5)
O3A O 0.04340(8) 0.92635(10) 1.45192(6)
N1A N 0.08868(6) 0.58778(8) 1.33502(5)
N2A N 0.04856(6) 0.76163(7) 1.33201(5)
C1A C 0.09685(8) 0.49201(10) 1.34985(7)
C2A C 0.12059(9) 0.43844(10) 1.30047(8)
C3A C 0.12826(8) 0.50432(10) 1.25314(7)
C4A C 0.10849(7) 0.59814(9) 1.27511(6)
C5A C 0.10557(7) 0.69002(9) 1.24636(5)
C6A C 0.07875(7) 0.77233(9) 1.27592(5)
C7A C 0.08561(7) 0.87426(9) 1.26355(6)
C8A C 0.06103(7) 0.92369(9) 1.31366(6)
C9A C 0.03827(7) 0.85198(9) 1.35418(6)
C10A C 0.13436(7) 0.70085(9) 1.18517(5)
C11A C 0.21246(8) 0.68754(10) 1.17926(6)
H1A H 0.2475 0.6735 1.2148
C12A C 0.23946(8) 0.69453(11) 1.12217(6)
H2A H 0.2930 0.6862 1.1190
C13A C 0.18876(8) 0.71374(10) 1.06872(6)
C14A C 0.11087(8) 0.72816(10) 1.07549(6)
H3A H 0.0756 0.7420 1.0401
C15A C 0.08388(7) 0.72274(10) 1.13287(6)
H4A H 0.0308 0.7340 1.1365
C16A C 0.21372(8) 0.71658(12) 1.00677(6)
H5A H 0.1743 0.7186 0.9730
C17A C 0.08427(10) 0.44987(13) 1.41107(8)
O4A O 0.0533(15) 0.3727(15) 1.417(2)
C18A C 0.1174(4) 0.4465(5) 1.5147(2)
H6A H 0.1393 0.3799 1.5132
H7A H 0.0632 0.4415 1.5237
C19A C 0.1636(6) 0.5068(4) 1.5620(3)
H8A H 0.1630 0.4765 1.6027
H9A H 0.2169 0.5112 1.5521
H10A H 0.1413 0.5724 1.5625
C20A C 0.13899(12) 0.33118(12) 1.30046(12)
H11A H 0.1072 0.2970 1.3286
H12A H 0.1252 0.3048 1.2584
C21A C 0.22255(14) 0.31072(16) 1.32040(16)
H13A H 0.2324 0.2406 1.3169
H14A H 0.2354 0.3313 1.3634
H15A H 0.2545 0.3469 1.2940
C22A C 0.15018(10) 0.47666(11) 1.19110(8)
H16A H 0.1197 0.5150 1.1591
H17A H 0.1401 0.4070 1.1838
H18A H 0.2052 0.4898 1.1897
C23A C 0.00965(9) 0.87240(10) 1.41470(7)
C24A C -0.08892(11) 0.84539(14) 1.47887(8)
H19A H -0.0626 0.8043 1.5122
H20A H -0.0823 0.9148 1.4911
C25A C -0.1704(3) 0.8209(6) 1.4687(2)
H21A H -0.1940 0.8319 1.5068
H22A H -0.1958 0.8621 1.4357
H23A H -0.1762 0.7521 1.4567
C26A C 0.11514(9) 0.92321(10) 1.20946(6)
H24A H 0.1628 0.8911 1.2004
H25A H 0.1256 0.9921 1.2192
H26A H 0.0763 0.9184 1.1734
C27A C 0.06083(9) 1.03165(10) 1.32522(7)
H27A H 0.0181 1.0479 1.3497
H28A H 0.0514 1.0663 1.2852
C28A C 0.13656(10) 1.06714(12) 1.35952(9)
H29A H 0.1314 1.1358 1.3711
H30A H 0.1778 1.0607 1.3328
H31A H 0.1492 1.0278 1.3968
B1A B 0.03627(9) 0.66309(11) 1.36471(7)
O5? O 0.4594(18) 0.3836(18) 0.585(3)
C29? C 0.3917(4) 0.4848(6) 0.4751(2)
H32? H 0.4253 0.5377 0.4625
H33? H 0.4169 0.4213 0.4688
C30? C 0.3168(6) 0.4890(10) 0.4395(4)
H34? H 0.3227 0.4815 0.3955
H35? H 0.2843 0.4362 0.4525
H36? H 0.2926 0.5521 0.4462
H37? H 0.5491 0.8711 0.4893
H38? H 0.6099 0.7841 0.5057
C31? C 0.6546(2) 0.9219(5) 0.53633(18)
H39? H 0.6788 0.9364 0.4989
H40? H 0.6329 0.9820 0.5516
H41? H 0.6935 0.8955 0.5680
loop_
_geom_bond_atom_site_label_1
_geom_bond_atom_site_label_2
_geom_bond_site_symmetry_1
_geom_bond_site_symmetry_2
F1 B1 1_555 1_555
F2 B1 1_555 1_555
O1 C17 1_555 1_555
O2 C23 1_555 1_555
O3 C23 1_555 1_555
N1 C1 1_555 1_555
N2 C6 1_555 1_555
C1 C2 1_555 1_555
C2 C3 1_555 1_555
C3 C4 1_555 1_555
C4 N1 1_555 1_555
C5 C4 1_555 1_555
C6 C5 1_555 1_555
C7 C6 1_555 1_555
C8 C7 1_555 1_555
C9 N2 1_555 1_555
C10 C5 1_555 1_555
C11 C10 1_555 1_555
H1 C11 1_555 1_555
C12 C11 1_555 1_555
H2 C12 1_555 1_555
C13 C12 1_555 1_555
C14 C13 1_555 1_555
H3 C14 1_555 1_555
C15 C10 1_555 1_555
H4 C15 1_555 1_555
C16 C13 1_555 1_555
H5 C16 1_555 1_555
C17 C1 1_555 1_555
O4 C17 1_555 1_555
C18 O1 1_555 1_555
H6 C18 1_555 1_555
H7 C18 1_555 1_555
C19 C18 1_555 1_555
H8 C19 1_555 1_555
H9 C19 1_555 1_555
H10 C19 1_555 1_555
C20 C2 1_555 1_555
H11 C20 1_555 1_555
H12 C20 1_555 1_555
C21 C20 1_555 1_555
H13 C21 1_555 1_555
H14 C21 1_555 1_555
H15 C21 1_555 1_555
C22 C3 1_555 1_555
H16 C22 1_555 1_555
H17 C22 1_555 1_555
H18 C22 1_555 1_555
C23 C9 1_555 1_555
C24 O2 1_555 1_555
H19 C24 1_555 1_555
H20 C24 1_555 1_555
C25 C24 1_555 1_555
H21 C25 1_555 1_555
H22 C25 1_555 1_555
H23 C25 1_555 1_555
C26 C7 1_555 1_555
H24 C26 1_555 1_555
H25 C26 1_555 1_555
H26 C26 1_555 1_555
C27 C8 1_555 1_555
H27 C27 1_555 1_555
H28 C27 1_555 1_555
C28 C27 1_555 1_555
H29 C28 1_555 1_555
H30 C28 1_555 1_555
H31 C28 1_555 1_555
B1 N1 1_555 1_555
F1A B1A 1_555 1_555
F2A B1A 1_555 1_555
O1A C17A 1_555 1_555
O2A C23A 1_555 1_555
O3A C23A 1_555 1_555
N1A C1A 1_555 1_555
N2A C6A 1_555 1_555
C1A C2A 1_555 1_555
C2A C3A 1_555 1_555
C3A C4A 1_555 1_555
C4A N1A 1_555 1_555
C5A C4A 1_555 1_555
C6A C5A 1_555 1_555
C7A C6A 1_555 1_555
C8A C7A 1_555 1_555
C9A N2A 1_555 1_555
C10A C5A 1_555 1_555
C11A C10A 1_555 1_555
H1A C11A 1_555 1_555
C12A C11A 1_555 1_555
H2A C12A 1_555 1_555
C13A C12A 1_555 1_555
C14A C13A 1_555 1_555
H3A C14A 1_555 1_555
C15A C10A 1_555 1_555
H4A C15A 1_555 1_555
C16A C16 1_555 1_555
H5A C16A 1_555 1_555
C17A C1A 1_555 1_555
O4A C17A 1_555 1_555
C18A O1A 1_555 1_555
H6A C18A 1_555 1_555
H7A C18A 1_555 1_555
C19A C18A 1_555 1_555
H8A C19A 1_555 1_555
H9A C19A 1_555 1_555
H10A C19A 1_555 1_555
C20A C2A 1_555 1_555
H11A C20A 1_555 1_555
H12A C20A 1_555 1_555
C21A C20A 1_555 1_555
H13A C21A 1_555 1_555
H14A C21A 1_555 1_555
H15A C21A 1_555 1_555
C22A C3A 1_555 1_555
H16A C22A 1_555 1_555
H17A C22A 1_555 1_555
H18A C22A 1_555 1_555
C23A C9A 1_555 1_555
C24A O2A 1_555 1_555
H19A C24A 1_555 1_555
H20A C24A 1_555 1_555
C25A C24A 1_555 1_555
H21A C25A 1_555 1_555
H22A C25A 1_555 1_555
H23A C25A 1_555 1_555
C26A C7A 1_555 1_555
H24A C26A 1_555 1_555
H25A C26A 1_555 1_555
H26A C26A 1_555 1_555
C27A C8A 1_555 1_555
H27A C27A 1_555 1_555
H28A C27A 1_555 1_555
C28A C27A 1_555 1_555
H29A C28A 1_555 1_555
H30A C28A 1_555 1_555
H31A C28A 1_555 1_555
B1A N1A 1_555 1_555
N2 B1 1_555 1_555
C8 C9 1_555 1_555
C14 C15 1_555 1_555
N2A B1A 1_555 1_555
C8A C9A 1_555 1_555
C13A C16A 1_555 1_555
C14A C15A 1_555 1_555

#END
