
#######################################################################
#
#                 Cambridge Crystallographic Data Centre
#                                CCDC 
#
#######################################################################
#
# If this CIF has been generated from an entry in the Cambridge 
# Structural Database, then it will include bibliographic, chemical, 
# crystal, experimental, refinement or atomic coordinate data resulting 
# from the CCDC's data processing and validation procedures.
#
#######################################################################

data_SIQWOH
_chemical_formula_moiety         'C52 H52 B2 F4 N4 O8'
_chemical_name_systematic        
"tetraethyl 10,10'-[ethyne-1,2-diylbis(4,1-phenylene)]bis(5,5-difluoro-1,2,8,9-tetramethyl-5H-4,5-dipyrrolo[1,2-c:2',1'-f][1,3,2]diazaborinine-3,7-dicarboxylate)"
_symmetry_cell_setting           monoclinic
_symmetry_space_group_name_H-M   'P 21/n'
_symmetry_Int_Tables_number      14
_space_group_name_Hall           '-P 2yn'
loop_
_symmetry_equiv_pos_site_id
_symmetry_equiv_pos_as_xyz
1 x,y,z
2 1/2-x,1/2+y,1/2-z
3 -x,-y,-z
4 1/2+x,1/2-y,1/2+z
_cell_length_a                   14.1888(4)
_cell_length_b                   20.3677(6)
_cell_length_c                   16.9823(5)
_cell_angle_alpha                90
_cell_angle_beta                 94.375(2)
_cell_angle_gamma                90
_cell_volume                     4893.47
_exptl_crystal_colour            orange
_exptl_crystal_description       needle
_cell_formula_units_Z            4
_exptl_crystal_recrystallization_method dichloromethane/hexane
loop_
_atom_site_label
_atom_site_type_symbol
_atom_site_fract_x
_atom_site_fract_y
_atom_site_fract_z
F1 F -0.15459(13) 0.23574(10) 0.81569(13)
F2 F -0.13364(13) 0.13316(10) 0.76372(13)
F3 F 1.18743(12) 0.49008(10) 0.83590(12)
F4 F 1.16826(14) 0.58739(10) 0.77069(12)
O1 O -0.18438(19) 0.13002(15) 0.91447(18)
O2 O -0.0991(2) 0.0547(2) 0.9817(3)
O3 O -0.23241(16) 0.22474(12) 0.65533(15)
O4 O -0.17696(19) 0.15973(14) 0.56154(17)
O5 O 1.23041(17) 0.59751(13) 0.93970(16)
O6 O 1.1567(2) 0.69560(14) 0.9399(2)
O7 O 1.25426(18) 0.48505(19) 0.67552(17)
O8 O 1.1852(2) 0.53867(18) 0.57191(19)
N1 N -0.01331(19) 0.17716(14) 0.85881(19)
N2 N -0.03837(19) 0.22039(14) 0.72199(18)
N3 N 1.05125(19) 0.55586(13) 0.85924(17)
N4 N 1.06365(18) 0.49810(14) 0.73225(16)
C1 C -0.0207(3) 0.14257(19) 0.9268(3)
C2 C 0.0644(3) 0.1453(2) 0.9754(3)
C3 C 0.1254(3) 0.18479(18) 0.9365(2)
C4 C 0.0777(2) 0.20365(17) 0.8629(2)
C5 C 0.1089(2) 0.23854(16) 0.7986(2)
C6 C 0.0534(2) 0.24491(17) 0.7282(2)
C7 C 0.0767(2) 0.26394(19) 0.6501(2)
C8 C 0.0003(3) 0.24723(19) 0.5982(2)
C9 C -0.0694(2) 0.22192(18) 0.6455(2)
C10 C -0.1057(3) 0.1050(2) 0.9442(3)
C11 C 0.0833(3) 0.1104(3) 1.0523(3)
H1 H 0.0860 0.0629 1.0429
H2 H 0.0325 0.1200 1.0866
H3 H 0.1438 0.1252 1.0779
C12 C 0.2250(3) 0.2009(2) 0.9676(3)
H4 H 0.2318 0.1938 1.0248
H5 H 0.2386 0.2469 0.9561
H6 H 0.2693 0.1725 0.9420
C13 C 0.1673(2) 0.2947(2) 0.6274(2)
H7 H 0.1668 0.2968 0.5697
H8 H 0.2211 0.2680 0.6483
H9 H 0.1730 0.3391 0.6493
C14 C -0.0112(3) 0.2508(2) 0.5094(2)
H10 H -0.0566 0.2854 0.4933
H11 H -0.0344 0.2085 0.4882
H12 H 0.0500 0.2607 0.4890
C15 C -0.1649(3) 0.19717(19) 0.6160(2)
C16 C -0.2684(3) 0.0893(3) 0.9191(3)
H13 H -0.2852 0.0859 0.9745
H14 H -0.2570 0.0446 0.8990
C17 C -0.3457(3) 0.1221(3) 0.8694(3)
H15 H -0.3556 0.1664 0.8897
H16 H -0.4041 0.0966 0.8711
H17 H -0.3283 0.1248 0.8148
C18 C -0.3268(2) 0.1984(2) 0.6368(2)
H18 H -0.3281 0.1510 0.6495
H19 H -0.3457 0.2040 0.5799
C19 C -0.3931(3) 0.2353(2) 0.6854(3)
H20 H -0.3728 0.2304 0.7416
H21 H -0.4572 0.2177 0.6754
H22 H -0.3928 0.2819 0.6711
C20 C 1.0661(2) 0.59789(17) 0.9203(2)
C21 C 0.9888(3) 0.59855(18) 0.9661(2)
C22 C 0.9247(2) 0.55299(17) 0.9342(2)
C23 C 0.9624(2) 0.52765(17) 0.8646(2)
C24 C 0.9241(2) 0.48613(16) 0.8046(2)
C25 C 0.9735(2) 0.47271(17) 0.7377(2)
C26 C 0.9453(2) 0.44136(18) 0.6644(2)
C27 C 1.0189(3) 0.44931(18) 0.6162(2)
C28 C 1.0903(2) 0.48413(18) 0.6600(2)
C29 C 1.1553(3) 0.63673(18) 0.9327(2)
C30 C 0.9785(3) 0.6398(2) 1.0386(2)
H23 H 0.9162 0.6608 1.0348
H24 H 1.0278 0.6735 1.0426
H25 H 0.9847 0.6117 1.0857
C31 C 0.8344(2) 0.53502(19) 0.9695(2)
H26 H 0.8431 0.5389 1.0272
H27 H 0.8173 0.4897 0.9552
H28 H 0.7839 0.5647 0.9493
C32 C 0.8543(3) 0.4066(2) 0.6394(2)
H29 H 0.8503 0.3995 0.5821
H30 H 0.8008 0.4335 0.6532
H31 H 0.8527 0.3642 0.6664
C33 C 1.0248(3) 0.4250(2) 0.5331(2)
H32 H 1.0486 0.3798 0.5343
H33 H 1.0678 0.4532 0.5058
H34 H 0.9618 0.4262 0.5051
C34 C 1.1818(3) 0.5065(2) 0.6314(2)
C35 C 1.3231(3) 0.6281(2) 0.9479(3)
H35 H 1.3276 0.6586 0.9935
H36 H 1.3346 0.6533 0.8996
C36 C 1.3951(3) 0.5735(2) 0.9607(3)
H37 H 1.3828 0.5489 1.0084
H38 H 1.4588 0.5924 0.9668
H39 H 1.3903 0.5440 0.9150
C37 C 1.3468(4) 0.5087(5) 0.6548(3)
H40 H 1.3774 0.4737 0.6254
H41 H 1.3370 0.5469 0.6190
C38 C 1.4026(4) 0.5256(4) 0.7135(4)
H42 H 1.4657 0.5339 0.6958
H43 H 1.4063 0.4903 0.7529
H44 H 1.3789 0.5657 0.7372
C39 C 0.2060(2) 0.26778(17) 0.8044(2)
C40 C 0.2841(2) 0.22809(18) 0.7954(2)
H45 H 0.2760 0.1823 0.7868
C41 C 0.3733(2) 0.25536(19) 0.7990(2)
H46 H 0.4264 0.2282 0.7919
C42 C 0.3864(2) 0.32233(18) 0.8128(2)
C43 C 0.3069(2) 0.36133(17) 0.8218(2)
H47 H 0.3145 0.4071 0.8312
C44 C 0.2178(2) 0.33437(17) 0.8173(2)
H48 H 0.1644 0.3615 0.8230
C45 C 0.4788(3) 0.35109(18) 0.8146(2)
C46 C 0.5555(2) 0.37553(19) 0.8153(2)
C47 C 0.6474(2) 0.40431(18) 0.8137(2)
C48 C 0.7275(2) 0.36403(19) 0.8255(2)
H49 H 0.7205 0.3185 0.8358
C49 C 0.8168(2) 0.39095(18) 0.8221(2)
H50 H 0.8708 0.3634 0.8289
C50 C 0.8283(2) 0.45815(18) 0.8088(2)
C51 C 0.7482(2) 0.49744(18) 0.7971(2)
H51 H 0.7551 0.5431 0.7876
C52 C 0.6593(2) 0.47107(18) 0.7992(2)
H52 H 0.6054 0.4986 0.7906
B1 B -0.0905(3) 0.1907(2) 0.7908(3)
B2 B 1.1234(3) 0.5334(2) 0.8001(2)
loop_
_geom_bond_atom_site_label_1
_geom_bond_atom_site_label_2
_geom_bond_site_symmetry_1
_geom_bond_site_symmetry_2
F1 B1 1_555 1_555
F2 B1 1_555 1_555
F3 B2 1_555 1_555
F4 B2 1_555 1_555
O1 C10 1_555 1_555
O2 C10 1_555 1_555
O3 C15 1_555 1_555
O4 C15 1_555 1_555
O5 C29 1_555 1_555
O6 C29 1_555 1_555
O7 C34 1_555 1_555
O8 C34 1_555 1_555
N1 C1 1_555 1_555
N2 C6 1_555 1_555
N3 C20 1_555 1_555
N4 C25 1_555 1_555
C1 C2 1_555 1_555
C2 C3 1_555 1_555
C3 C4 1_555 1_555
C4 N1 1_555 1_555
C5 C4 1_555 1_555
C6 C5 1_555 1_555
C7 C6 1_555 1_555
C8 C7 1_555 1_555
C9 N2 1_555 1_555
C10 C1 1_555 1_555
C11 C2 1_555 1_555
H1 C11 1_555 1_555
H2 C11 1_555 1_555
H3 C11 1_555 1_555
C12 C3 1_555 1_555
H4 C12 1_555 1_555
H5 C12 1_555 1_555
H6 C12 1_555 1_555
C13 C7 1_555 1_555
H7 C13 1_555 1_555
H8 C13 1_555 1_555
H9 C13 1_555 1_555
C14 C8 1_555 1_555
H10 C14 1_555 1_555
H11 C14 1_555 1_555
H12 C14 1_555 1_555
C15 C9 1_555 1_555
C16 O1 1_555 1_555
H13 C16 1_555 1_555
H14 C16 1_555 1_555
C17 C16 1_555 1_555
H15 C17 1_555 1_555
H16 C17 1_555 1_555
H17 C17 1_555 1_555
C18 O3 1_555 1_555
H18 C18 1_555 1_555
H19 C18 1_555 1_555
C19 C18 1_555 1_555
H20 C19 1_555 1_555
H21 C19 1_555 1_555
H22 C19 1_555 1_555
C20 C21 1_555 1_555
C21 C22 1_555 1_555
C22 C23 1_555 1_555
C23 N3 1_555 1_555
C24 C23 1_555 1_555
C25 C24 1_555 1_555
C26 C25 1_555 1_555
C27 C26 1_555 1_555
C28 N4 1_555 1_555
C29 C20 1_555 1_555
C30 C21 1_555 1_555
H23 C30 1_555 1_555
H24 C30 1_555 1_555
H25 C30 1_555 1_555
C31 C22 1_555 1_555
H26 C31 1_555 1_555
H27 C31 1_555 1_555
H28 C31 1_555 1_555
C32 C26 1_555 1_555
H29 C32 1_555 1_555
H30 C32 1_555 1_555
H31 C32 1_555 1_555
C33 C27 1_555 1_555
H32 C33 1_555 1_555
H33 C33 1_555 1_555
H34 C33 1_555 1_555
C34 C28 1_555 1_555
C35 O5 1_555 1_555
H35 C35 1_555 1_555
H36 C35 1_555 1_555
C36 C35 1_555 1_555
H37 C36 1_555 1_555
H38 C36 1_555 1_555
H39 C36 1_555 1_555
C37 O7 1_555 1_555
H40 C37 1_555 1_555
H41 C37 1_555 1_555
C38 C37 1_555 1_555
H42 C38 1_555 1_555
H43 C38 1_555 1_555
H44 C38 1_555 1_555
C39 C5 1_555 1_555
C40 C39 1_555 1_555
H45 C40 1_555 1_555
C41 C40 1_555 1_555
H46 C41 1_555 1_555
C42 C41 1_555 1_555
C43 C42 1_555 1_555
H47 C43 1_555 1_555
C44 C39 1_555 1_555
H48 C44 1_555 1_555
C45 C42 1_555 1_555
C46 C45 1_555 1_555
C47 C46 1_555 1_555
C48 C47 1_555 1_555
H49 C48 1_555 1_555
C49 C48 1_555 1_555
H50 C49 1_555 1_555
C50 C24 1_555 1_555
C51 C50 1_555 1_555
H51 C51 1_555 1_555
C52 C47 1_555 1_555
H52 C52 1_555 1_555
B1 N1 1_555 1_555
B2 N3 1_555 1_555
N2 B1 1_555 1_555
N4 B2 1_555 1_555
C8 C9 1_555 1_555
C27 C28 1_555 1_555
C43 C44 1_555 1_555
C49 C50 1_555 1_555
C51 C52 1_555 1_555

#END
