
#######################################################################
#
#                 Cambridge Crystallographic Data Centre
#                                CCDC 
#
#######################################################################
#
# If this CIF has been generated from an entry in the Cambridge 
# Structural Database, then it will include bibliographic, chemical, 
# crystal, experimental, refinement or atomic coordinate data resulting 
# from the CCDC's data processing and validation procedures.
#
#######################################################################

data_SIQYUN
_chemical_formula_moiety         'C46 H34,2(C1 H2 Cl2)'
_chemical_name_systematic        
'1,4-bis(Triphenylethenyl)benzene dichloromethane solvate'
_symmetry_cell_setting           orthorhombic
_symmetry_space_group_name_H-M   'P n n m'
_symmetry_Int_Tables_number      58
_space_group_name_Hall           '-P 2 2n'
loop_
_symmetry_equiv_pos_site_id
_symmetry_equiv_pos_as_xyz
1 x,y,z
2 -x,-y,z
3 1/2-x,1/2+y,1/2-z
4 1/2+x,1/2-y,1/2-z
5 -x,-y,-z
6 x,y,-z
7 1/2+x,1/2-y,1/2+z
8 1/2-x,1/2+y,1/2+z
_cell_length_a                   5.8309(2)
_cell_length_b                   15.9227(5)
_cell_length_c                   20.9840(6)
_cell_angle_alpha                90
_cell_angle_beta                 90
_cell_angle_gamma                90
_cell_volume                     1948.23
_exptl_crystal_colour            colorless
_exptl_crystal_description       plate
_chemical_melting_point          '242-244 deg.C'
_cell_formula_units_Z            2
loop_
_atom_site_label
_atom_site_type_symbol
_atom_site_fract_x
_atom_site_fract_y
_atom_site_fract_z
Cl1 Cl 1.6199(3) 0.89200(10) 0.5000
Cl2 Cl 1.1928(3) 0.80202(13) 0.5000
C15 C 1.4883(11) 0.7931(4) 0.5000
H10 H 1.5377 0.7613 0.4618
H11 H 1.5377 0.7613 0.5382
C1 C 0.5277(11) 0.5359(4) 0.3637(3)
C2 C 0.5841(12) 0.6259(5) 0.3493(4)
C3 C 0.7889(13) 0.6601(6) 0.3719(4)
H1 H 0.8932 0.6259 0.3951
C4 C 0.8398(14) 0.7435(5) 0.3605(3)
H2 H 0.9818 0.7665 0.3742
C5 C 0.6809(13) 0.7933(5) 0.3289(4)
H3 H 0.7132 0.8510 0.3221
C6 C 0.4754(14) 0.7599(4) 0.3069(4)
H4 H 0.3681 0.7948 0.2854
C7 C 0.4281(17) 0.6764(5) 0.3164(5)
H5 H 0.2893 0.6530 0.3007
C8 C 0.5114(14) 0.5162(4) 0.4339(2)
C9 C 0.3850(13) 0.5676(5) 0.4750(3)
H6 H 0.3037 0.6142 0.4580
C10 C 0.4857(12) 0.4787(3) 0.3186(3)
C11 C 0.512(2) 0.4964(11) 0.2483(2)
C12 C 0.5577(10) 0.5151(4) 0.1168(3)
H7 H 0.5746 0.5223 0.0721
C13 C 0.7344(13) 0.5397(5) 0.1579(3)
H8 H 0.8710 0.5633 0.1410
C14 C 0.7105(14) 0.5296(5) 0.2230(4)
H9 H 0.8320 0.5457 0.2506
C1A C 0.4723(11) 0.4641(4) 0.3637(3)
C1E C 0.5277(11) 0.5359(4) 0.6363(3)
C1D C 0.4723(11) 0.4641(4) 0.6363(3)
C2A C 0.4159(12) 0.3741(5) 0.3493(4)
C2E C 0.5841(12) 0.6259(5) 0.6507(4)
C2D C 0.4159(12) 0.3741(5) 0.6507(4)
C3A C 0.2111(13) 0.3399(6) 0.3719(4)
C3E C 0.7889(13) 0.6601(6) 0.6281(4)
C3D C 0.2111(13) 0.3399(6) 0.6281(4)
H1A H 0.1068 0.3741 0.3951
H1E H 0.8932 0.6259 0.6049
H1D H 0.1068 0.3741 0.6049
C4A C 0.1602(14) 0.2565(5) 0.3605(3)
C4E C 0.8398(14) 0.7435(5) 0.6395(3)
C4D C 0.1602(14) 0.2565(5) 0.6395(3)
H2A H 0.0182 0.2335 0.3742
H2E H 0.9818 0.7665 0.6258
H2D H 0.0182 0.2335 0.6258
C5A C 0.3191(13) 0.2067(5) 0.3289(4)
C5E C 0.6809(13) 0.7933(5) 0.6711(4)
C5D C 0.3191(13) 0.2067(5) 0.6711(4)
H3A H 0.2868 0.1490 0.3221
H3E H 0.7132 0.8510 0.6779
H3D H 0.2868 0.1490 0.6779
C6A C 0.5246(14) 0.2401(4) 0.3069(4)
C6E C 0.4754(14) 0.7599(4) 0.6931(4)
C6D C 0.5246(14) 0.2401(4) 0.6931(4)
H4A H 0.6319 0.2052 0.2854
H4E H 0.3681 0.7948 0.7146
H4D H 0.6319 0.2052 0.7146
C7A C 0.5719(17) 0.3236(5) 0.3164(5)
C7E C 0.4281(17) 0.6764(5) 0.6836(5)
C7D C 0.5719(17) 0.3236(5) 0.6836(5)
H5A H 0.7107 0.3470 0.3007
H5E H 0.2893 0.6530 0.6993
H5D H 0.7107 0.3470 0.6993
C8A C 0.4886(14) 0.4838(4) 0.4339(2)
C8E C 0.5114(14) 0.5162(4) 0.5661(2)
C8D C 0.4886(14) 0.4838(4) 0.5661(2)
C9A C 0.6150(13) 0.4324(5) 0.4750(3)
C9E C 0.3850(13) 0.5676(5) 0.5250(3)
C9D C 0.6150(13) 0.4324(5) 0.5250(3)
H6E H 0.3037 0.6142 0.5420
H6A H 0.6963 0.3858 0.4580
H6D H 0.6963 0.3858 0.5420
C10A C 0.5143(12) 0.5213(3) 0.3186(3)
C10D C 0.5143(12) 0.5213(3) 0.6814(3)
C10E C 0.4857(12) 0.4787(3) 0.6814(3)
C11A C 0.488(2) 0.5036(11) 0.2483(2)
C11E C 0.512(2) 0.4964(11) 0.7517(2)
C11D C 0.488(2) 0.5036(11) 0.7517(2)
C12A C 0.4423(10) 0.4849(4) 0.1168(3)
C12D C 0.4423(10) 0.4849(4) 0.8832(3)
C12E C 0.5577(10) 0.5151(4) 0.8832(3)
H7A H 0.4254 0.4777 0.0721
H7E H 0.5746 0.5223 0.9279
H7D H 0.4254 0.4777 0.9279
C13A C 0.2656(13) 0.4603(5) 0.1579(3)
C13D C 0.2656(13) 0.4603(5) 0.8421(3)
C13E C 0.7344(13) 0.5397(5) 0.8421(3)
H8A H 0.1290 0.4367 0.1410
H8E H 0.8710 0.5633 0.8590
H8D H 0.1290 0.4367 0.8590
C14A C 0.2895(14) 0.4704(5) 0.2230(4)
C14E C 0.7105(14) 0.5296(5) 0.7770(4)
C14D C 0.2895(14) 0.4704(5) 0.7770(4)
H9A H 0.1680 0.4543 0.2506
H9E H 0.8320 0.5457 0.7494
H9D H 0.1680 0.4543 0.7494
C16? C 0.5277(11) 0.5359(4) 0.3637(3)
C17? C 0.3754(14) 0.5523(4) 0.5398(3)
H12? H 0.2905 0.5890 0.5666
C18? C 0.4886(14) 0.4838(4) 0.5661(2)
C19? C 0.6150(13) 0.4324(5) 0.5250(3)
H13? H 0.6963 0.3858 0.5420
C20? C 0.6246(14) 0.4477(4) 0.4602(3)
H14? H 0.7095 0.4110 0.4334
C21? C 0.4036(12) 0.3914(4) 0.3336(4)
C22? C 0.1933(13) 0.3760(6) 0.3632(4)
H15? H 0.1018 0.4220 0.3767
C23? C 0.1158(14) 0.2953(6) 0.3732(4)
H16? H -0.0256 0.2864 0.3946
C24? C 0.2421(14) 0.2272(5) 0.3523(4)
H17? H 0.1868 0.1717 0.3585
C25? C 0.4502(15) 0.2408(4) 0.3222(4)
H18? H 0.5412 0.1949 0.3082
C26? C 0.5228(18) 0.3226(5) 0.3129(5)
H19? H 0.6631 0.3314 0.2908
C27? C 0.4857(12) 0.4787(3) 0.3186(3)
C28? C 0.3389(13) 0.4701(5) 0.2063(4)
H20? H 0.2046 0.4447 0.2232
C29? C 0.3584(12) 0.4803(4) 0.1409(3)
H21? H 0.2376 0.4638 0.1133
loop_
_geom_bond_atom_site_label_1
_geom_bond_atom_site_label_2
_geom_bond_site_symmetry_1
_geom_bond_site_symmetry_2
C1 C2 1_555 1_555
C2 C3 1_555 1_555
C3 H1 1_555 1_555
C4 C3 1_555 1_555
H2 C4 1_555 1_555
C5 C4 1_555 1_555
H3 C5 1_555 1_555
C6 C5 1_555 1_555
H4 C6 1_555 1_555
C7 C2 1_555 1_555
H5 C7 1_555 1_555
C8 C1 1_555 1_555
C9 C8 1_555 1_555
H6 C9 1_555 1_555
C10 C1 1_555 1_555
C11 C10 1_555 1_555
C12 H7 1_555 1_555
C13 C12 1_555 1_555
H8 C13 1_555 1_555
C14 C11 1_555 1_555
H9 C14 1_555 1_555
Cl1 C15 1_555 1_555
Cl2 C15 1_555 1_555
C15 H10 1_555 1_555
H11 C15 1_555 1_555
C1A C1 1_555 1_555
C1E C1D 1_555 1_555
C1D C2D 1_555 1_555
C2A C1A 1_555 1_555
C2E C1E 1_555 1_555
C2D C3D 1_555 1_555
C3A C2A 1_555 1_555
C3E C2E 1_555 1_555
C3D H1D 1_555 1_555
H1A C3A 1_555 1_555
H1E C3E 1_555 1_555
C4A C3A 1_555 1_555
C4E C3E 1_555 1_555
C4D C3D 1_555 1_555
H2A C4A 1_555 1_555
H2E C4E 1_555 1_555
H2D C4D 1_555 1_555
C5A C4A 1_555 1_555
C5E C4E 1_555 1_555
C5D C4D 1_555 1_555
H3A C5A 1_555 1_555
H3E C5E 1_555 1_555
H3D C5D 1_555 1_555
C6A C5A 1_555 1_555
C6E C5E 1_555 1_555
C6D C5D 1_555 1_555
H4A C6A 1_555 1_555
H4E C6E 1_555 1_555
H4D C6D 1_555 1_555
C7A C2A 1_555 1_555
C7E C2E 1_555 1_555
C7D C2D 1_555 1_555
H5A C7A 1_555 1_555
H5E C7E 1_555 1_555
H5D C7D 1_555 1_555
C8A C1 1_555 1_555
C8E C1E 1_555 1_555
C8D C1E 1_555 1_555
C9A C8 1_555 1_555
C9E C9 1_555 1_555
C9D C8E 1_555 1_555
H6E C9E 1_555 1_555
H6A C9A 1_555 1_555
H6D C9D 1_555 1_555
C10A C1 1_555 1_555
C10D C1E 1_555 1_555
C10E C1E 1_555 1_555
C11A C10 1_555 1_555
C11E C10D 1_555 1_555
C11D C10D 1_555 1_555
C12A C12 1_555 1_555
C12D C12E 1_555 1_555
C12E H7E 1_555 1_555
H7A C12A 1_555 1_555
H7D C12D 1_555 1_555
C13A C12A 1_555 1_555
C13D C12D 1_555 1_555
C13E C12E 1_555 1_555
H8A C13A 1_555 1_555
H8E C13E 1_555 1_555
H8D C13D 1_555 1_555
C14A C11 1_555 1_555
C14E C11E 1_555 1_555
C14D C11E 1_555 1_555
H9A C14A 1_555 1_555
H9E C14E 1_555 1_555
H9D C14D 1_555 1_555
C6 C7 1_555 1_555
C8 C1A 1_555 1_555
C8 C8A 1_555 1_555
C9 C8A 1_555 1_555
C10 C1A 1_555 1_555
C10 C10A 1_555 1_555
C11 C10A 1_555 1_555
C11 C11A 1_555 1_555
C13 C14 1_555 1_555
C14 C11A 1_555 1_555
C1A C8A 1_555 1_555
C1A C10A 1_555 1_555
C1D C8E 1_555 1_555
C1D C8D 1_555 1_555
C1D C10D 1_555 1_555
C1D C10E 1_555 1_555
C6A C7A 1_555 1_555
C6E C7E 1_555 1_555
C6D C7D 1_555 1_555
C8A C9A 1_555 1_555
C8E C8D 1_555 1_555
C8E C9E 1_555 1_555
C8D C9E 1_555 1_555
C8D C9D 1_555 1_555
C9A C9D 1_555 1_555
C10A C11A 1_555 1_555
C10D C10E 1_555 1_555
C10E C11E 1_555 1_555
C10E C11D 1_555 1_555
C11A C14A 1_555 1_555
C11E C11D 1_555 1_555
C11D C14E 1_555 1_555
C11D C14D 1_555 1_555
C13A C14A 1_555 1_555
C13D C14D 1_555 1_555
C13E C14E 1_555 1_555

#END
