
#######################################################################
#
#                 Cambridge Crystallographic Data Centre
#                                CCDC 
#
#######################################################################
#
# If this CIF has been generated from an entry in the Cambridge 
# Structural Database, then it will include bibliographic, chemical, 
# crystal, experimental, refinement or atomic coordinate data resulting 
# from the CCDC's data processing and validation procedures.
#
#######################################################################

data_SIQYOJ
_chemical_formula_moiety         'C14 H18 N2 O3 S1'
_chemical_name_systematic        
2-ethyl-4-methyl-5-[(phenylsulfonyl)amino]penta-2,3-dienamide
_symmetry_cell_setting           triclinic
_symmetry_space_group_name_H-M   'P -1'
_symmetry_Int_Tables_number      2
_space_group_name_Hall           '-P 1'
loop_
_symmetry_equiv_pos_site_id
_symmetry_equiv_pos_as_xyz
1 x,y,z
2 -x,-y,-z
_cell_length_a                   6.486(3)
_cell_length_b                   11.357(5)
_cell_length_c                   11.886(6)
_cell_angle_alpha                117.010(17)
_cell_angle_beta                 96.72(4)
_cell_angle_gamma                92.20(3)
_cell_volume                     770.528
_exptl_crystal_colour            colorless
_exptl_crystal_description       Prism
_cell_formula_units_Z            2
loop_
_atom_site_label
_atom_site_type_symbol
_atom_site_fract_x
_atom_site_fract_y
_atom_site_fract_z
S1 S 0.50536(11) 0.25345(7) 0.82346(7)
O1 O 0.5937(3) 0.3859(2) 0.8605(2)
O2 O 0.5647(3) 0.1449(2) 0.71230(19)
O3 O -0.0529(3) 0.00849(19) 0.30339(17)
N1 N 0.2578(4) 0.2516(2) 0.8052(2)
H1 H 0.184295 0.176178 0.774969
N2 N -0.2256(4) 0.0746(2) 0.4726(2)
H2 H -0.319632 0.008095 0.432401
H3 H -0.232594 0.131974 0.549933
C1 C 0.7082(6) 0.1263(4) 0.9477(4)
H4 H 0.769014 0.079453 0.874916
C2 C 0.7530(7) 0.1045(5) 1.0550(5)
H5 H 0.843220 0.042154 1.053084
C3 C 0.6650(8) 0.1743(5) 1.1618(4)
H6 H 0.693818 0.158081 1.231750
C4 C 0.5376(7) 0.2658(4) 1.1671(4)
H7 H 0.481939 0.314416 1.241575
C5 C 0.4881(5) 0.2888(4) 1.0638(3)
H8 H 0.397491 0.351840 1.068379
C6 C 0.5723(4) 0.2185(3) 0.9524(3)
C7 C 0.1478(5) 0.3697(3) 0.8366(3)
H9 H 0.243502 0.447551 0.893351
H10 H 0.035319 0.365866 0.882279
C8 C 0.0579(4) 0.3854(3) 0.7217(3)
C9 C -0.0507(5) 0.5100(3) 0.7502(3)
H11 H -0.092523 0.514454 0.672158
H12 H 0.043478 0.586908 0.807681
H13 H -0.171578 0.507412 0.788862
C10 C 0.0713(4) 0.2958(3) 0.6050(3)
C11 C 0.0915(4) 0.2058(3) 0.4893(3)
C12 C -0.0683(4) 0.0890(3) 0.4147(2)
C13 C 0.2741(5) 0.2131(3) 0.4236(3)
H14 H 0.343218 0.132883 0.400960
H15 H 0.221475 0.215752 0.345077
C14 C 0.4324(6) 0.3319(3) 0.5035(3)
H16 H 0.368500 0.411882 0.520201
H17 H 0.547533 0.327248 0.458242
H18 H 0.481863 0.331958 0.582913
loop_
_geom_bond_atom_site_label_1
_geom_bond_atom_site_label_2
_geom_bond_site_symmetry_1
_geom_bond_site_symmetry_2
S1 O1 1_555 1_555
O2 S1 1_555 1_555
O3 C12 1_555 1_555
N1 S1 1_555 1_555
H1 N1 1_555 1_555
N2 H2 1_555 1_555
H3 N2 1_555 1_555
C1 H4 1_555 1_555
C2 C1 1_555 1_555
H5 C2 1_555 1_555
C3 C2 1_555 1_555
H6 C3 1_555 1_555
C4 C3 1_555 1_555
H7 C4 1_555 1_555
C5 C4 1_555 1_555
H8 C5 1_555 1_555
C6 S1 1_555 1_555
C7 N1 1_555 1_555
H9 C7 1_555 1_555
H10 C7 1_555 1_555
C8 C7 1_555 1_555
C9 C8 1_555 1_555
H11 C9 1_555 1_555
H12 C9 1_555 1_555
H13 C9 1_555 1_555
C10 C8 1_555 1_555
C11 C10 1_555 1_555
C12 N2 1_555 1_555
C13 C11 1_555 1_555
H14 C13 1_555 1_555
H15 C13 1_555 1_555
C14 C13 1_555 1_555
H16 C14 1_555 1_555
H17 C14 1_555 1_555
H18 C14 1_555 1_555
C1 C6 1_555 1_555
C5 C6 1_555 1_555
C11 C12 1_555 1_555

#END
