
#######################################################################
#
#                 Cambridge Crystallographic Data Centre
#                                CCDC 
#
#######################################################################
#
# If this CIF has been generated from an entry in the Cambridge 
# Structural Database, then it will include bibliographic, chemical, 
# crystal, experimental, refinement or atomic coordinate data resulting 
# from the CCDC's data processing and validation procedures.
#
#######################################################################

data_SIQZEA
_chemical_formula_moiety         'C27 H24 N2 O4 S2'
_chemical_name_systematic        
N-[2-(2-cyano-2-phenylethenylidene)cyclohexyl]-N-(phenylsulfonyl)benzenesulfonamide
_symmetry_cell_setting           orthorhombic
_symmetry_space_group_name_H-M   'P c a 21'
_symmetry_Int_Tables_number      29
_space_group_name_Hall           'P 2c -2ac'
loop_
_symmetry_equiv_pos_site_id
_symmetry_equiv_pos_as_xyz
1 x,y,z
2 -x,-y,1/2+z
3 1/2-x,y,1/2+z
4 1/2+x,-y,z
_cell_length_a                   20.66(2)
_cell_length_b                   10.256(12)
_cell_length_c                   25.26(3)
_cell_angle_alpha                90
_cell_angle_beta                 90
_cell_angle_gamma                90
_cell_volume                     5352.32
_exptl_crystal_colour            white
_exptl_crystal_description       Prism
_cell_formula_units_Z            8
loop_
_atom_site_label
_atom_site_type_symbol
_atom_site_fract_x
_atom_site_fract_y
_atom_site_fract_z
S1 S 0.21312(14) 0.5083(3) 0.42504(11)
S2 S 0.14251(15) 0.3119(3) 0.36041(14)
O1 O 0.1812(5) 0.4312(8) 0.4646(3)
O2 O 0.2822(4) 0.5206(10) 0.4264(4)
O3 O 0.1677(5) 0.2106(8) 0.3941(4)
O4 O 0.1369(5) 0.2908(8) 0.3042(4)
N1 N 0.1910(5) 0.4429(8) 0.3654(4)
N2 N 0.2326(7) 0.0060(14) 0.2582(5)
C1 C 0.3603(7) 0.199(2) 0.3982(6)
H1 H 0.351516 0.290183 0.398861
C2 C 0.3988(9) 0.138(3) 0.4381(6)
H2 H 0.414268 0.188583 0.467003
C3 C 0.4135(9) 0.010(2) 0.4355(7)
H3 H 0.440764 -0.026276 0.462036
C4 C 0.3907(10) -0.0715(18) 0.3958(7)
H4 H 0.399763 -0.162332 0.395042
C5 C 0.3532(8) -0.0098(15) 0.3568(6)
H5 H 0.339205 -0.061636 0.327852
C6 C 0.3353(6) 0.1161(14) 0.3569(5)
C7 C 0.2944(6) 0.1759(12) 0.3148(5)
C8 C 0.2862(6) 0.3002(12) 0.3043(5)
C9 C 0.2750(6) 0.4238(12) 0.2940(5)
C10 C 0.3154(7) 0.5022(12) 0.2529(6)
H6 H 0.346225 0.443465 0.234741
H7 H 0.340508 0.571116 0.271178
C11 C 0.2675(8) 0.5667(15) 0.2107(5)
H8 H 0.292624 0.619572 0.185120
H9 H 0.244636 0.497438 0.190778
C12 C 0.2189(8) 0.6520(16) 0.2386(6)
H10 H 0.190201 0.693671 0.212134
H11 H 0.241861 0.721866 0.258050
C13 C 0.1772(6) 0.5706(12) 0.2782(4)
H12 H 0.153247 0.501712 0.258944
H13 H 0.145438 0.627688 0.296160
C14 C 0.2236(6) 0.5079(10) 0.3196(5)
H14 H 0.247761 0.582892 0.335461
C15 C 0.1779(6) 0.6679(10) 0.4233(4)
C16 C 0.2180(8) 0.7763(14) 0.4175(6)
H15 H 0.263773 0.767499 0.415789
C17 C 0.1873(10) 0.9023(15) 0.4141(7)
H16 H 0.212867 0.978601 0.409892
C18 C 0.1226(10) 0.9116(15) 0.4170(6)
H17 H 0.103327 0.995545 0.414788
C19 C 0.0833(9) 0.8064(13) 0.4229(6)
H18 H 0.037725 0.817876 0.424380
C20 C 0.1100(7) 0.6800(12) 0.4269(5)
H19 H 0.083134 0.605750 0.431826
C21 C 0.0260(7) 0.4321(13) 0.3538(5)
H20 H 0.039620 0.453870 0.319013
C22 C -0.0357(8) 0.4742(19) 0.3737(8)
H21 H -0.064452 0.525030 0.352876
C23 C -0.0508(8) 0.4371(18) 0.4244(8)
H22 H -0.091141 0.465290 0.438409
C24 C -0.0116(8) 0.3615(16) 0.4568(7)
H23 H -0.026100 0.336247 0.490928
C25 C 0.0490(7) 0.3229(12) 0.4389(5)
H24 H 0.077915 0.274983 0.460773
C26 C 0.0653(6) 0.3584(12) 0.3871(5)
C27 C 0.2582(7) 0.0810(14) 0.2826(5)
S3 S 0.60352(16) 0.8001(3) 0.62984(13)
S4 S 0.52834(16) 0.9926(3) 0.56781(12)
O5 O 0.5781(5) 0.6971(8) 0.5955(4)
O6 O 0.6108(5) 0.7761(9) 0.6866(4)
O7 O 0.5589(5) 0.9169(9) 0.5269(3)
O8 O 0.4584(4) 1.0018(11) 0.5694(5)
N3 N 0.5522(5) 0.9323(8) 0.6257(3)
N4 N 0.5236(8) 0.4746(15) 0.7291(7)
C28 C 0.3847(8) 0.6710(17) 0.5954(5)
H25 H 0.398722 0.759044 0.593001
C29 C 0.3418(9) 0.6244(19) 0.5572(6)
H26 H 0.325847 0.679312 0.529825
C30 C 0.3238(9) 0.499(2) 0.5607(6)
H27 H 0.294983 0.463887 0.534966
C31 C 0.3454(10) 0.422(2) 0.5993(7)
H28 H 0.330685 0.333775 0.599951
C32 C 0.3889(8) 0.4625(15) 0.6394(6)
H29 H 0.404069 0.404803 0.666136
C33 C 0.4084(6) 0.5945(14) 0.6372(4)
C34 C 0.4546(6) 0.6495(13) 0.6772(4)
C35 C 0.4629(7) 0.7746(14) 0.6892(5)
C36 C 0.4716(6) 0.8978(14) 0.7027(5)
C37 C 0.4354(8) 0.9660(18) 0.7491(6)
H30 H 0.405442 1.032471 0.734642
H31 H 0.409318 0.900775 0.768593
C38 C 0.4809(9) 1.0285(16) 0.7855(6)
H32 H 0.506092 0.959895 0.803912
H33 H 0.456065 1.076809 0.812692
C39 C 0.5287(8) 1.1238(14) 0.7583(6)
H34 H 0.504270 1.197951 0.743145
H35 H 0.559209 1.158768 0.784983
C40 C 0.5674(7) 1.0546(11) 0.7136(5)
H36 H 0.594345 1.118940 0.694471
H37 H 0.596408 0.987870 0.729133
C41 C 0.5195(6) 0.9897(12) 0.6751(5)
H38 H 0.492262 1.062922 0.661445
C42 C 0.5608(7) 1.1489(10) 0.5681(4)
C43 C 0.5196(9) 1.2626(13) 0.5752(6)
H39 H 0.473956 1.254625 0.578672
C44 C 0.5508(11) 1.3865(15) 0.5767(8)
H40 H 0.524691 1.461969 0.581275
C45 C 0.6183(11) 1.4033(17) 0.5718(7)
H41 H 0.637471 1.487402 0.573235
C46 C 0.6553(9) 1.2929(14) 0.5649(6)
H42 H 0.700997 1.301266 0.562567
C47 C 0.6273(8) 1.1680(11) 0.5611(5)
H43 H 0.654211 1.095110 0.553617
C48 C 0.6773(6) 0.8582(13) 0.6026(5)
C49 C 0.7185(7) 0.9374(13) 0.6337(5)
H44 H 0.706997 0.958189 0.669107
C50 C 0.7756(8) 0.9844(19) 0.6125(8)
H45 H 0.802571 1.039441 0.633259
C51 C 0.7946(7) 0.9517(17) 0.5602(7)
H46 H 0.833662 0.984323 0.545509
C52 C 0.7538(8) 0.8697(15) 0.5309(6)
H47 H 0.766526 0.844160 0.496255
C53 C 0.6949(7) 0.8244(14) 0.5512(5)
H48 H 0.667293 0.771340 0.530226
C54 C 0.4931(8) 0.5548(16) 0.7069(6)
loop_
_geom_bond_atom_site_label_1
_geom_bond_atom_site_label_2
_geom_bond_site_symmetry_1
_geom_bond_site_symmetry_2
S1 O1 1_555 1_555
S2 O3 1_555 1_555
O2 S1 1_555 1_555
O4 S2 1_555 1_555
N1 S1 1_555 1_555
N2 C27 1_555 1_555
C1 H1 1_555 1_555
C2 C1 1_555 1_555
H2 C2 1_555 1_555
C3 C2 1_555 1_555
H3 C3 1_555 1_555
C4 C3 1_555 1_555
H4 C4 1_555 1_555
C5 C4 1_555 1_555
H5 C5 1_555 1_555
C6 C1 1_555 1_555
C7 C6 1_555 1_555
C8 C7 1_555 1_555
C9 C8 1_555 1_555
C10 C9 1_555 1_555
H6 C10 1_555 1_555
H7 C10 1_555 1_555
C11 C10 1_555 1_555
H8 C11 1_555 1_555
H9 C11 1_555 1_555
C12 C11 1_555 1_555
H10 C12 1_555 1_555
H11 C12 1_555 1_555
C13 C12 1_555 1_555
H12 C13 1_555 1_555
H13 C13 1_555 1_555
C14 N1 1_555 1_555
H14 C14 1_555 1_555
C15 S1 1_555 1_555
C16 C15 1_555 1_555
H15 C16 1_555 1_555
C17 C16 1_555 1_555
H16 C17 1_555 1_555
C18 C17 1_555 1_555
H17 C18 1_555 1_555
C19 C18 1_555 1_555
H18 C19 1_555 1_555
C20 C15 1_555 1_555
H19 C20 1_555 1_555
C21 H20 1_555 1_555
C22 C21 1_555 1_555
H21 C22 1_555 1_555
C23 C22 1_555 1_555
H22 C23 1_555 1_555
C24 C23 1_555 1_555
H23 C24 1_555 1_555
C25 C24 1_555 1_555
H24 C25 1_555 1_555
C26 S2 1_555 1_555
C27 C7 1_555 1_555
S3 O5 1_555 1_555
S4 O7 1_555 1_555
O6 S3 1_555 1_555
O8 S4 1_555 1_555
N3 S3 1_555 1_555
N4 C54 1_555 1_555
C28 H25 1_555 1_555
C29 C28 1_555 1_555
H26 C29 1_555 1_555
C30 C29 1_555 1_555
H27 C30 1_555 1_555
C31 C30 1_555 1_555
H28 C31 1_555 1_555
C32 C31 1_555 1_555
H29 C32 1_555 1_555
C33 C28 1_555 1_555
C34 C33 1_555 1_555
C35 C34 1_555 1_555
C36 C35 1_555 1_555
C37 C36 1_555 1_555
H30 C37 1_555 1_555
H31 C37 1_555 1_555
C38 C37 1_555 1_555
H32 C38 1_555 1_555
H33 C38 1_555 1_555
C39 C38 1_555 1_555
H34 C39 1_555 1_555
H35 C39 1_555 1_555
C40 C39 1_555 1_555
H36 C40 1_555 1_555
H37 C40 1_555 1_555
C41 N3 1_555 1_555
H38 C41 1_555 1_555
C42 S4 1_555 1_555
C43 C42 1_555 1_555
H39 C43 1_555 1_555
C44 C43 1_555 1_555
H40 C44 1_555 1_555
C45 C44 1_555 1_555
H41 C45 1_555 1_555
C46 C45 1_555 1_555
H42 C46 1_555 1_555
C47 C42 1_555 1_555
H43 C47 1_555 1_555
C48 S3 1_555 1_555
C49 C48 1_555 1_555
H44 C49 1_555 1_555
C50 C49 1_555 1_555
H45 C50 1_555 1_555
C51 C50 1_555 1_555
H46 C51 1_555 1_555
C52 C51 1_555 1_555
H47 C52 1_555 1_555
C53 C48 1_555 1_555
H48 C53 1_555 1_555
C54 C34 1_555 1_555
S2 N1 1_555 1_555
C5 C6 1_555 1_555
C9 C14 1_555 1_555
C13 C14 1_555 1_555
C19 C20 1_555 1_555
C21 C26 1_555 1_555
C25 C26 1_555 1_555
S4 N3 1_555 1_555
C32 C33 1_555 1_555
C36 C41 1_555 1_555
C40 C41 1_555 1_555
C46 C47 1_555 1_555
C52 C53 1_555 1_555

#END
