
#######################################################################
#
#                 Cambridge Crystallographic Data Centre
#                                CCDC 
#
#######################################################################
#
# If this CIF has been generated from an entry in the Cambridge 
# Structural Database, then it will include bibliographic, chemical, 
# crystal, experimental, refinement or atomic coordinate data resulting 
# from the CCDC's data processing and validation procedures.
#
#######################################################################

data_SIRLEL
_chemical_formula_moiety         'C52 H54 O2 Si2,2(C1 H4 O1)'
_chemical_name_systematic        
'6,13-bis(2-(Di-isopropyl(4-(hydroxymethyl)phenyl)silyl)ethynyl)pentacene methanol solvate'
_symmetry_cell_setting           monoclinic
_symmetry_space_group_name_H-M   'P 21/c'
_symmetry_Int_Tables_number      14
_space_group_name_Hall           '-P 2ybc'
loop_
_symmetry_equiv_pos_site_id
_symmetry_equiv_pos_as_xyz
1 x,y,z
2 -x,1/2+y,1/2-z
3 -x,-y,-z
4 x,1/2-y,1/2+z
_cell_length_a                   8.8223(6)
_cell_length_b                   19.0409(13)
_cell_length_c                   14.6224(10)
_cell_angle_alpha                90
_cell_angle_beta                 103.5400(16)
_cell_angle_gamma                90
_cell_volume                     2388.07
_exptl_crystal_colour            blue
_exptl_crystal_description       prism
_cell_formula_units_Z            2
loop_
_atom_site_label
_atom_site_type_symbol
_atom_site_fract_x
_atom_site_fract_y
_atom_site_fract_z
Si1 Si -0.05375(4) 0.207820(19) 0.19544(3)
O1 O 0.37356(13) 0.46543(3) 0.46169(8)
H1 H 0.4557 0.4883 0.4831
C1 C -0.00312(15) 0.04863(6) 0.42627(9)
C2 C 0.12029(15) -0.00014(6) 0.44931(9)
C3 C -0.12330(15) 0.04980(6) 0.47575(9)
C4 C -0.24728(15) 0.09779(6) 0.45358(9)
H3 H -0.2501 0.1304 0.4040
C5 C -0.36526(15) 0.09943(6) 0.50118(9)
C6 C -0.49145(16) 0.14831(7) 0.47845(10)
H4 H -0.4956 0.1808 0.4286
C7 C -0.60450(17) 0.14916(7) 0.52638(10)
H5 H -0.6870 0.1823 0.5102
C8 C -0.60126(17) 0.10106(8) 0.60074(10)
H6 H -0.6818 0.1021 0.6339
C9 C -0.48443(16) 0.05356(7) 0.62500(10)
H7 H -0.4841 0.0218 0.6751
C10 C -0.36191(15) 0.05051(7) 0.57649(9)
C11 C 0.24071(15) -0.00241(6) 0.40122(9)
H8 H 0.2391 0.0301 0.3517
C12 C -0.01059(15) 0.09803(7) 0.35070(9)
C13 C -0.02370(15) 0.14019(7) 0.28750(9)
C14 C 0.01855(17) 0.17451(7) 0.09316(10)
H9 H -0.0350 0.1289 0.0729
C15 C 0.19331(19) 0.16080(9) 0.11922(12)
H10 H 0.2263 0.1426 0.0643
H11 H 0.2175 0.1263 0.1703
H12 H 0.2486 0.2047 0.1399
C16 C -0.0237(2) 0.22573(9) 0.00945(11)
H13 H 0.0131 0.2067 -0.0438
H14 H 0.0261 0.2712 0.0277
H15 H -0.1370 0.2318 -0.0089
C17 C -0.26555(16) 0.23035(7) 0.16194(10)
H16 H -0.2776 0.2690 0.1145
C18 C -0.36516(18) 0.16912(9) 0.11416(13)
H17 H -0.4751 0.1831 0.0981
H18 H -0.3514 0.1288 0.1570
H19 H -0.3328 0.1561 0.0567
C19 C -0.32744(18) 0.25858(8) 0.24420(11)
H20 H -0.4385 0.2697 0.2224
H21 H -0.2699 0.3012 0.2691
H22 H -0.3135 0.2230 0.2938
C20 C 0.06407(15) 0.28565(6) 0.24692(9)
C21 C 0.20325(16) 0.27864(7) 0.31468(10)
H23 H 0.2378 0.2330 0.3361
C22 C 0.29227(18) 0.33577(8) 0.35153(10)
H24 H 0.3870 0.3290 0.3974
C23 C 0.24467(18) 0.40320(8) 0.32226(10)
C24 C 0.10835(18) 0.41119(7) 0.25516(10)
H25 H 0.0743 0.4570 0.2341
C25 C 0.01980(17) 0.35373(7) 0.21768(10)
H26 H -0.0736 0.3608 0.1708
C26 C 0.3401(2) 0.46613(9) 0.36300(11)
H27 H 0.4389 0.4663 0.3419
H28 H 0.2822 0.5095 0.3395
Si1B Si 0.05375(4) -0.207820(19) 0.80456(3)
O1B O -0.37356(13) -0.46543(3) 0.53831(8)
H1B H -0.4557 -0.4883 0.5169
C1B C 0.00312(15) -0.04863(6) 0.57373(9)
C2B C -0.12029(15) 0.00014(6) 0.55069(9)
C3B C 0.12330(15) -0.04980(6) 0.52425(9)
C4B C 0.24728(15) -0.09779(6) 0.54642(9)
H3B H 0.2501 -0.1304 0.5960
C5B C 0.36526(15) -0.09943(6) 0.49882(9)
C6B C 0.49145(16) -0.14831(7) 0.52155(10)
H4B H 0.4956 -0.1808 0.5714
C7B C 0.60450(17) -0.14916(7) 0.47362(10)
H5B H 0.6870 -0.1823 0.4898
C8B C 0.60126(17) -0.10106(8) 0.39926(10)
H6B H 0.6818 -0.1021 0.3661
C9B C 0.48443(16) -0.05356(7) 0.37500(10)
H7B H 0.4841 -0.0218 0.3249
C10B C 0.36191(15) -0.05051(7) 0.42351(9)
C11B C -0.24071(15) 0.00241(6) 0.59878(9)
H8B H -0.2391 -0.0301 0.6483
C12B C 0.01059(15) -0.09803(7) 0.64930(9)
C13B C 0.02370(15) -0.14019(7) 0.71250(9)
C14B C -0.01855(17) -0.17451(7) 0.90684(10)
H9B H 0.0350 -0.1289 0.9271
C15B C -0.19331(19) -0.16080(9) 0.88078(12)
H10B H -0.2263 -0.1426 0.9357
H11B H -0.2175 -0.1263 0.8297
H12B H -0.2486 -0.2047 0.8601
C16B C 0.0237(2) -0.22573(9) 0.99055(11)
H13B H -0.0131 -0.2067 1.0438
H14B H -0.0261 -0.2712 0.9723
H15B H 0.1370 -0.2318 1.0089
C17B C 0.26555(16) -0.23035(7) 0.83806(10)
H16B H 0.2776 -0.2690 0.8855
C18B C 0.36516(18) -0.16912(9) 0.88584(13)
H17B H 0.4751 -0.1831 0.9019
H18B H 0.3514 -0.1288 0.8430
H19B H 0.3328 -0.1561 0.9433
C19B C 0.32744(18) -0.25858(8) 0.75580(11)
H20B H 0.4385 -0.2697 0.7776
H21B H 0.2699 -0.3012 0.7309
H22B H 0.3135 -0.2230 0.7062
C20B C -0.06407(15) -0.28565(6) 0.75308(9)
C21B C -0.20325(16) -0.27864(7) 0.68532(10)
H23B H -0.2378 -0.2330 0.6639
C22B C -0.29227(18) -0.33577(8) 0.64847(10)
H24B H -0.3870 -0.3290 0.6026
C23B C -0.24467(18) -0.40320(8) 0.67774(10)
C24B C -0.10835(18) -0.41119(7) 0.74484(10)
H25B H -0.0743 -0.4570 0.7659
C25B C -0.01980(17) -0.35373(7) 0.78232(10)
H26B H 0.0736 -0.3608 0.8292
C26B C -0.3401(2) -0.46613(9) 0.63700(11)
H27B H -0.4389 -0.4663 0.6581
H28B H -0.2822 -0.5095 0.6605
O2 O 0.14632(17) 0.51647(4) 0.53028(10)
H29 H 0.2264 0.5020 0.5144
C27 C 0.1887(3) 0.54882(14) 0.61595(17)
H31 H 0.2804 0.5784 0.6180
H32 H 0.2138 0.5132 0.6656
H33 H 0.1024 0.5780 0.6257
H2? H 0.2977 0.4822 0.4800
H30? H 0.0501 0.5082 0.5175
loop_
_geom_bond_atom_site_label_1
_geom_bond_atom_site_label_2
_geom_bond_site_symmetry_1
_geom_bond_site_symmetry_2
Si1 C13 1_555 1_555
O1 H1 1_555 1_555
C1 C2 1_555 1_555
C2 C11 1_555 1_555
C3 C1 1_555 1_555
C4 C3 1_555 1_555
H3 C4 1_555 1_555
C5 C4 1_555 1_555
C6 C5 1_555 1_555
H4 C6 1_555 1_555
C7 C6 1_555 1_555
H5 C7 1_555 1_555
C8 C7 1_555 1_555
H6 C8 1_555 1_555
C9 C8 1_555 1_555
H7 C9 1_555 1_555
C10 C5 1_555 1_555
C11 H8 1_555 1_555
C12 C1 1_555 1_555
C13 C12 1_555 1_555
C14 Si1 1_555 1_555
H9 C14 1_555 1_555
C15 C14 1_555 1_555
H10 C15 1_555 1_555
H11 C15 1_555 1_555
H12 C15 1_555 1_555
C16 C14 1_555 1_555
H13 C16 1_555 1_555
H14 C16 1_555 1_555
H15 C16 1_555 1_555
C17 Si1 1_555 1_555
H16 C17 1_555 1_555
C18 C17 1_555 1_555
H17 C18 1_555 1_555
H18 C18 1_555 1_555
H19 C18 1_555 1_555
C19 C17 1_555 1_555
H20 C19 1_555 1_555
H21 C19 1_555 1_555
H22 C19 1_555 1_555
C20 Si1 1_555 1_555
C21 C20 1_555 1_555
H23 C21 1_555 1_555
C22 C21 1_555 1_555
H24 C22 1_555 1_555
C23 C22 1_555 1_555
C24 C23 1_555 1_555
H25 C24 1_555 1_555
C25 C20 1_555 1_555
H26 C25 1_555 1_555
C26 O1 1_555 1_555
H27 C26 1_555 1_555
H28 C26 1_555 1_555
O2 H29 1_555 1_555
C27 O2 1_555 1_555
H31 C27 1_555 1_555
H32 C27 1_555 1_555
H33 C27 1_555 1_555
Si1B C13B 1_555 1_555
O1B H1B 1_555 1_555
C1B C2B 1_555 1_555
C2B C3 1_555 1_555
C3B C2 1_555 1_555
C4B C3B 1_555 1_555
H3B C4B 1_555 1_555
C5B C4B 1_555 1_555
C6B C5B 1_555 1_555
H4B C6B 1_555 1_555
C7B C6B 1_555 1_555
H5B C7B 1_555 1_555
C8B C7B 1_555 1_555
H6B C8B 1_555 1_555
C9B C8B 1_555 1_555
H7B C9B 1_555 1_555
C10B C11 1_555 1_555
C11B C10 1_555 1_555
H8B C11B 1_555 1_555
C12B C1B 1_555 1_555
C13B C12B 1_555 1_555
C14B Si1B 1_555 1_555
H9B C14B 1_555 1_555
C15B C14B 1_555 1_555
H10B C15B 1_555 1_555
H11B C15B 1_555 1_555
H12B C15B 1_555 1_555
C16B C14B 1_555 1_555
H13B C16B 1_555 1_555
H14B C16B 1_555 1_555
H15B C16B 1_555 1_555
C17B Si1B 1_555 1_555
H16B C17B 1_555 1_555
C18B C17B 1_555 1_555
H17B C18B 1_555 1_555
H18B C18B 1_555 1_555
H19B C18B 1_555 1_555
C19B C17B 1_555 1_555
H20B C19B 1_555 1_555
H21B C19B 1_555 1_555
H22B C19B 1_555 1_555
C20B Si1B 1_555 1_555
C21B C20B 1_555 1_555
H23B C21B 1_555 1_555
C22B C21B 1_555 1_555
H24B C22B 1_555 1_555
C23B C22B 1_555 1_555
C24B C23B 1_555 1_555
H25B C24B 1_555 1_555
C25B C20B 1_555 1_555
H26B C25B 1_555 1_555
C26B O1B 1_555 1_555
H27B C26B 1_555 1_555
H28B C26B 1_555 1_555
C9 C10 1_555 1_555
C23 C26 1_555 1_555
C24 C25 1_555 1_555
C1B C3B 1_555 1_555
C2B C11B 1_555 1_555
C5B C10B 1_555 1_555
C9B C10B 1_555 1_555
C23B C26B 1_555 1_555
C24B C25B 1_555 1_555

#END
