
#######################################################################
#
#                 Cambridge Crystallographic Data Centre
#                                CCDC 
#
#######################################################################
#
# If this CIF has been generated from an entry in the Cambridge 
# Structural Database, then it will include bibliographic, chemical, 
# crystal, experimental, refinement or atomic coordinate data resulting 
# from the CCDC's data processing and validation procedures.
#
#######################################################################

data_SIRMAI
_chemical_formula_moiety         'C13 H14 O3'
_chemical_name_systematic        3-Benzoyl-3-methylpentane-2,4-dione
_symmetry_cell_setting           monoclinic
_symmetry_space_group_name_H-M   'P 21/n'
_symmetry_Int_Tables_number      14
_space_group_name_Hall           '-P 2yn'
loop_
_symmetry_equiv_pos_site_id
_symmetry_equiv_pos_as_xyz
1 x,y,z
2 1/2-x,1/2+y,1/2-z
3 -x,-y,-z
4 1/2+x,1/2-y,1/2+z
_cell_length_a                   6.215(6)
_cell_length_b                   7.015(6)
_cell_length_c                   26.60(2)
_cell_angle_alpha                90
_cell_angle_beta                 90.404(12)
_cell_angle_gamma                90
_cell_volume                     1159.68
_exptl_crystal_colour            colorless
_cell_formula_units_Z            4
loop_
_atom_site_label
_atom_site_type_symbol
_atom_site_fract_x
_atom_site_fract_y
_atom_site_fract_z
O1 O 0.6220(6) 0.2984(7) 0.14571(15)
O2 O 0.7834(9) 0.2898(9) 0.02456(18)
O3 O 0.9648(9) -0.0083(6) 0.10941(19)
C1 C 0.7870(8) 0.3602(7) 0.24174(19)
H1 H 0.6487 0.4054 0.2355
C2 C 0.8637(10) 0.3550(8) 0.2903(2)
H2 H 0.7781 0.3981 0.3164
C3 C 1.0696(10) 0.2851(8) 0.3003(2)
H3 H 1.1220 0.2804 0.3332
C4 C 1.1949(9) 0.2229(8) 0.2607(2)
H4 H 1.3321 0.1751 0.2670
C5 C 1.1189(8) 0.2311(7) 0.2126(2)
H5 H 1.2058 0.1907 0.1864
C6 C 0.9116(8) 0.2996(6) 0.20221(17)
C7 C 0.8145(8) 0.3063(7) 0.15099(19)
C8 C 0.9561(8) 0.3282(7) 0.10412(18)
C9 C 1.1315(9) 0.4819(8) 0.1113(2)
H6 H 1.0649 0.6022 0.1184
H7 H 1.2144 0.4924 0.0811
H8 H 1.2243 0.4466 0.1387
C10 C 0.8085(9) 0.3922(10) 0.0603(2)
C11 C 0.7116(11) 0.5835(11) 0.0626(3)
H9 H 0.6237 0.6041 0.0333
H10 H 0.8235 0.6778 0.0639
H11 H 0.6245 0.5933 0.0922
C12 C 1.0484(9) 0.1290(8) 0.0921(2)
C13 C 1.2370(11) 0.1143(11) 0.0582(3)
H12 H 1.2764 -0.0172 0.0544
H13 H 1.3559 0.1838 0.0724
H14 H 1.2004 0.1669 0.0259
loop_
_geom_bond_atom_site_label_1
_geom_bond_atom_site_label_2
_geom_bond_site_symmetry_1
_geom_bond_site_symmetry_2
O1 C7 1_555 1_555
O2 C10 1_555 1_555
O3 C12 1_555 1_555
C1 H1 1_555 1_555
C2 C1 1_555 1_555
H2 C2 1_555 1_555
C3 C2 1_555 1_555
H3 C3 1_555 1_555
C4 C3 1_555 1_555
H4 C4 1_555 1_555
C5 C4 1_555 1_555
H5 C5 1_555 1_555
C6 C1 1_555 1_555
C7 C6 1_555 1_555
C8 C7 1_555 1_555
C9 C8 1_555 1_555
H6 C9 1_555 1_555
H7 C9 1_555 1_555
H8 C9 1_555 1_555
C10 C8 1_555 1_555
C11 C10 1_555 1_555
H9 C11 1_555 1_555
H10 C11 1_555 1_555
H11 C11 1_555 1_555
C12 C8 1_555 1_555
C13 C12 1_555 1_555
H12 C13 1_555 1_555
H13 C13 1_555 1_555
H14 C13 1_555 1_555
C5 C6 1_555 1_555

#END
