
#######################################################################
#
#                 Cambridge Crystallographic Data Centre
#                                CCDC 
#
#######################################################################
#
# If this CIF has been generated from an entry in the Cambridge 
# Structural Database, then it will include bibliographic, chemical, 
# crystal, experimental, refinement or atomic coordinate data resulting 
# from the CCDC's data processing and validation procedures.
#
#######################################################################

data_SIRNEM
_chemical_formula_moiety         'C16 H21 B1 F4 O1 Se1'
_chemical_name_systematic        
(1S)-10,10-Dimethyl-5-phenyl-5-selena-5-(tetrafluoroborato-F)-4-oxatricyclo(5.2.1.0^3,7^)decane
_symmetry_cell_setting           orthorhombic
_symmetry_space_group_name_H-M   'P 21 21 21'
_symmetry_Int_Tables_number      19
_space_group_name_Hall           'P 2ac 2ab'
loop_
_symmetry_equiv_pos_site_id
_symmetry_equiv_pos_as_xyz
1 x,y,z
2 1/2-x,-y,1/2+z
3 1/2+x,1/2-y,-z
4 -x,1/2+y,1/2-z
_cell_length_a                   11.351(3)
_cell_length_b                   13.786(2)
_cell_length_c                   10.795(3)
_cell_angle_alpha                90
_cell_angle_beta                 90
_cell_angle_gamma                90
_cell_volume                     1689.25
_exptl_crystal_colour            colorless
_exptl_crystal_description       prismatic
_chemical_melting_point          417-419K
_cell_formula_units_Z            4
_exptl_crystal_recrystallization_method hexane/dichloromethane
loop_
_atom_site_label
_atom_site_type_symbol
_atom_site_fract_x
_atom_site_fract_y
_atom_site_fract_z
Se1 Se -0.58621(7) -0.30796(6) -0.78101(8)
F1 F -0.5910(5) -0.3051(4) -0.5434(4)
F2 F -0.4514(5) -0.2852(4) -0.3983(6)
F3 F -0.4712(6) -0.1762(5) -0.5488(5)
F4 F -0.6032(8) -0.1889(6) -0.4014(7)
O1 O -0.5930(6) -0.2952(4) -0.9449(5)
C1 C -0.6804(6) -0.1900(6) -0.7551(6)
C2 C -0.7077(6) -0.1546(5) -0.8845(7)
C3 C -0.6952(8) -0.2385(6) -0.9773(7)
C4 C -0.6797(9) -0.1866(8) -1.1028(7)
C5 C -0.6921(8) -0.0800(6) -1.0686(8)
C6 C -0.8223(9) -0.0637(8) -1.0332(9)
C7 C -0.8322(7) -0.1145(6) -0.9048(8)
C8 C -0.6286(7) -0.0724(6) -0.9414(8)
C9 C -0.4950(8) -0.0947(7) -0.9484(9)
C10 C -0.6417(9) 0.0254(6) -0.8761(9)
C11 C -0.7025(6) -0.4105(5) -0.7646(7)
C12 C -0.6798(7) -0.4922(6) -0.8344(9)
C13 C -0.7579(9) -0.5682(6) -0.8269(9)
C14 C -0.8557(8) -0.5614(6) -0.7530(9)
C15 C -0.8755(8) -0.4799(7) -0.6829(9)
C16 C -0.7977(7) -0.4017(6) -0.6889(8)
B1 B -0.5274(10) -0.2381(7) -0.4744(9)
H1 H -0.7509 -0.2046 -0.7114
H2 H -0.6366 -0.1428 -0.7105
H3 H -0.7640 -0.2777 -0.9777
H4 H -0.6043 -0.1995 -1.1373
H5 H -0.7391 -0.2056 -1.1598
H6 H -0.6632 -0.0365 -1.1296
H7 H -0.8736 -0.0929 -1.0919
H8 H -0.8397 0.0035 -1.0269
H9 H -0.8888 -0.1653 -0.9067
H10 H -0.8528 -0.0693 -0.8418
H11 H -0.4833 -0.1552 -0.9887
H12 H -0.4634 -0.0977 -0.8670
H13 H -0.4563 -0.0450 -0.9937
H14 H -0.6015 0.0739 -0.9221
H15 H -0.7228 0.0416 -0.8702
H16 H -0.6089 0.0212 -0.7953
H17 H -0.6121 -0.4959 -0.8860
H18 H -0.7441 -0.6256 -0.8733
H19 H -0.9103 -0.6137 -0.7501
H20 H -0.9425 -0.4768 -0.6303
H21 H -0.8107 -0.3444 -0.6418
loop_
_geom_bond_atom_site_label_1
_geom_bond_atom_site_label_2
_geom_bond_site_symmetry_1
_geom_bond_site_symmetry_2
Se1 F1 1_555 1_555
F1 B1 1_555 1_555
F2 B1 1_555 1_555
F3 B1 1_555 1_555
F4 B1 1_555 1_555
O1 Se1 1_555 1_555
C1 Se1 1_555 1_555
C2 C1 1_555 1_555
C3 O1 1_555 1_555
C4 C3 1_555 1_555
C5 C4 1_555 1_555
C6 C5 1_555 1_555
C7 C2 1_555 1_555
C8 C2 1_555 1_555
C9 C8 1_555 1_555
C10 C8 1_555 1_555
C11 Se1 1_555 1_555
C12 C11 1_555 1_555
C13 C12 1_555 1_555
C14 C13 1_555 1_555
C15 C14 1_555 1_555
C16 C11 1_555 1_555
H1 C1 1_555 1_555
H2 C1 1_555 1_555
H3 C3 1_555 1_555
H4 C4 1_555 1_555
H5 C4 1_555 1_555
H6 C5 1_555 1_555
H7 C6 1_555 1_555
H8 C6 1_555 1_555
H9 C7 1_555 1_555
H10 C7 1_555 1_555
H11 C9 1_555 1_555
H12 C9 1_555 1_555
H13 C9 1_555 1_555
H14 C10 1_555 1_555
H15 C10 1_555 1_555
H16 C10 1_555 1_555
H17 C12 1_555 1_555
H18 C13 1_555 1_555
H19 C14 1_555 1_555
H20 C15 1_555 1_555
H21 C16 1_555 1_555
C2 C3 1_555 1_555
C5 C8 1_555 1_555
C6 C7 1_555 1_555
C15 C16 1_555 1_555

#END
