
#######################################################################
#
#                 Cambridge Crystallographic Data Centre
#                                CCDC 
#
#######################################################################
#
# If this CIF has been generated from an entry in the Cambridge 
# Structural Database, then it will include bibliographic, chemical, 
# crystal, experimental, refinement or atomic coordinate data resulting 
# from the CCDC's data processing and validation procedures.
#
#######################################################################

data_SISCUV
_chemical_formula_moiety         'C20 H20 N2 O2'
_chemical_name_systematic        'methyl 4-cyano-2-methyl-4,5-diphenylprolinate'
_symmetry_cell_setting           monoclinic
_symmetry_space_group_name_H-M   'P 21'
_symmetry_Int_Tables_number      4
_space_group_name_Hall           'P 2yb'
loop_
_symmetry_equiv_pos_site_id
_symmetry_equiv_pos_as_xyz
1 x,y,z
2 -x,1/2+y,-z
_cell_length_a                   9.3729(6)
_cell_length_b                   11.9190(13)
_cell_length_c                   15.7115(12)
_cell_angle_alpha                90
_cell_angle_beta                 90.581(7)
_cell_angle_gamma                90
_cell_volume                     1755.13
_exptl_crystal_colour            colorless
_exptl_crystal_description       Block
_cell_formula_units_Z            4
loop_
_atom_site_label
_atom_site_type_symbol
_atom_site_fract_x
_atom_site_fract_y
_atom_site_fract_z
O1 O -0.2286(7) -0.6310(6) -0.4799(3)
N1 N -0.1246(7) -0.6893(7) -0.6969(4)
N2 N -0.4515(8) -0.5279(7) -0.7327(5)
O2 O -0.1518(7) -0.5176(6) -0.5814(4)
C1 C -0.1874(7) -0.7256(7) -0.8487(4)
C2 C -0.1849(8) -0.6106(8) -0.5576(5)
C3 C -0.1830(7) -0.7159(7) -0.6102(4)
C4 C -0.4147(9) -0.6170(8) -0.7292(5)
C5 C -0.2195(7) -0.7507(8) -0.7559(4)
H1 H -0.1957 -0.8301 -0.7480
C6 C -0.4880(7) -0.8142(7) -0.7549(4)
C7 C -0.3381(7) -0.7593(7) -0.6269(4)
H2 H -0.3448 -0.8388 -0.6144
H3 H -0.4054 -0.7193 -0.5916
C8 C -0.6259(9) -0.7980(9) -0.7277(5)
H4 H -0.6447 -0.7401 -0.6898
C9 C -0.3694(8) -0.7375(7) -0.7212(5)
C10 C -0.0918(10) -0.8049(8) -0.5675(5)
H5 H -0.0855 -0.8693 -0.6040
H6 H -0.1341 -0.8263 -0.5145
H7 H 0.0021 -0.7755 -0.5569
C11 C -0.5765(10) -0.9703(9) -0.8355(5)
H8 H -0.5596 -1.0292 -0.8729
C12 C -0.7380(9) -0.8665(12) -0.7556(6)
H9 H -0.8307 -0.8538 -0.7374
C13 C -0.4622(9) -0.9026(8) -0.8074(5)
H10 H -0.3697 -0.9182 -0.8245
C14 C -0.7092(9) -0.9503(10) -0.8088(6)
H11 H -0.7833 -0.9960 -0.8279
C15 C -0.2508(9) -0.6448(10) -0.8964(5)
H12 H -0.3198 -0.5994 -0.8718
C16 C -0.0845(11) -0.7907(11) -0.8866(6)
H13 H -0.0391 -0.8466 -0.8552
C17 C -0.2358(12) -0.5357(9) -0.4207(6)
H14 H -0.3176 -0.4905 -0.4343
H15 H -0.1509 -0.4912 -0.4255
H16 H -0.2435 -0.5632 -0.3635
C18 C -0.2151(12) -0.6276(13) -0.9816(6)
H17 H -0.2588 -0.5705 -1.0126
C19 C -0.1155(13) -0.6955(15) -1.0194(6)
H18 H -0.0951 -0.6875 -1.0769
C20 C -0.0474(14) -0.7742(13) -0.9715(8)
H19 H 0.0244 -0.8174 -0.9955
H20 H -0.058(14) -0.663(14) -0.687(9)
O3 O -0.2399(7) -0.1480(6) -0.4720(3)
N3 N -0.1914(6) -0.2631(6) -0.6196(3)
N4 N -0.0658(8) -0.0284(7) -0.7354(5)
O4 O -0.3683(10) -0.0290(7) -0.5456(5)
C21 C -0.3152(8) -0.1195(8) -0.5380(5)
C22 C -0.3326(7) -0.2131(7) -0.6029(4)
C23 C -0.0505(7) -0.3341(7) -0.7393(4)
C24 C -0.3014(7) -0.2030(8) -0.8442(4)
C25 C -0.1492(9) -0.0993(8) -0.7407(5)
C26 C -0.2559(7) -0.1902(7) -0.7511(4)
C27 C -0.1934(7) -0.2972(7) -0.7084(4)
H21 H -0.2614 -0.3590 -0.7157
C28 C -0.3794(8) -0.1654(8) -0.6900(4)
H22 H -0.4664 -0.2014 -0.7097
H23 H -0.3960 -0.0852 -0.6861
C29 C 0.0775(7) -0.2973(9) -0.7033(5)
H24 H 0.0783 -0.2451 -0.6593
C30 C -0.0451(8) -0.4122(8) -0.8035(5)
H25 H -0.1302 -0.4380 -0.8274
C31 C -0.4431(8) -0.2948(8) -0.5693(5)
H26 H -0.4505 -0.3580 -0.6069
H27 H -0.5340 -0.2580 -0.5660
H28 H -0.4146 -0.3200 -0.5136
C32 C -0.2501(9) -0.1328(10) -0.9060(5)
H29 H -0.1841 -0.0775 -0.8916
C33 C 0.2061(9) -0.3414(11) -0.7355(7)
H30 H 0.2919 -0.3179 -0.7111
C34 C -0.4006(9) -0.2841(9) -0.8648(5)
H31 H -0.4391 -0.3291 -0.8225
C35 C -0.2154(10) -0.0643(9) -0.4071(5)
H32 H -0.1593 -0.0043 -0.4302
H33 H -0.1652 -0.0975 -0.3599
H34 H -0.3052 -0.0353 -0.3882
C36 C 0.2098(10) -0.4152(12) -0.7992(7)
H35 H 0.2968 -0.4403 -0.8199
C37 C 0.0838(12) -0.4540(11) -0.8342(6)
H36 H 0.0845 -0.5072 -0.8775
C38 C -0.4434(12) -0.2986(11) -0.9504(6)
H37 H -0.5062 -0.3559 -0.9653
C39 C -0.2965(12) -0.1436(14) -0.9911(5)
H38 H -0.2635 -0.0948 -1.0326
C40 C -0.3917(13) -0.2275(13) -1.0118(7)
H39 H -0.4214 -0.2362 -1.0680
H40 H -0.195(9) -0.339(8) -0.588(5)
loop_
_geom_bond_atom_site_label_1
_geom_bond_atom_site_label_2
_geom_bond_site_symmetry_1
_geom_bond_site_symmetry_2
O1 C2 1_555 1_555
N1 C3 1_555 1_555
N2 C4 1_555 1_555
O2 C2 1_555 1_555
C1 C5 1_555 1_555
C2 C3 1_555 1_555
C3 C7 1_555 1_555
C4 C9 1_555 1_555
C5 N1 1_555 1_555
H1 C5 1_555 1_555
C6 C8 1_555 1_555
C7 H2 1_555 1_555
H3 C7 1_555 1_555
C8 H4 1_555 1_555
C9 C5 1_555 1_555
C10 C3 1_555 1_555
H5 C10 1_555 1_555
H6 C10 1_555 1_555
H7 C10 1_555 1_555
C11 H8 1_555 1_555
C12 C8 1_555 1_555
H9 C12 1_555 1_555
C13 C6 1_555 1_555
H10 C13 1_555 1_555
C14 C11 1_555 1_555
H11 C14 1_555 1_555
C15 C1 1_555 1_555
H12 C15 1_555 1_555
C16 C1 1_555 1_555
H13 C16 1_555 1_555
C17 O1 1_555 1_555
H14 C17 1_555 1_555
H15 C17 1_555 1_555
H16 C17 1_555 1_555
C18 C15 1_555 1_555
H17 C18 1_555 1_555
C19 C18 1_555 1_555
H18 C19 1_555 1_555
C20 C16 1_555 1_555
H19 C20 1_555 1_555
H20 N1 1_555 1_555
O3 C21 1_555 1_555
N3 C22 1_555 1_555
N4 C25 1_555 1_555
O4 C21 1_555 1_555
C21 C22 1_555 1_555
C22 C28 1_555 1_555
C23 C27 1_555 1_555
C24 C26 1_555 1_555
C25 C26 1_555 1_555
C26 C27 1_555 1_555
C27 N3 1_555 1_555
H21 C27 1_555 1_555
C28 C26 1_555 1_555
H22 C28 1_555 1_555
H23 C28 1_555 1_555
C29 C23 1_555 1_555
H24 C29 1_555 1_555
C30 C23 1_555 1_555
H25 C30 1_555 1_555
C31 C22 1_555 1_555
H26 C31 1_555 1_555
H27 C31 1_555 1_555
H28 C31 1_555 1_555
C32 C24 1_555 1_555
H29 C32 1_555 1_555
C33 C29 1_555 1_555
H30 C33 1_555 1_555
C34 C24 1_555 1_555
H31 C34 1_555 1_555
C35 O3 1_555 1_555
H32 C35 1_555 1_555
H33 C35 1_555 1_555
H34 C35 1_555 1_555
C36 C33 1_555 1_555
H35 C36 1_555 1_555
C37 C30 1_555 1_555
H36 C37 1_555 1_555
C38 C34 1_555 1_555
H37 C38 1_555 1_555
C39 C32 1_555 1_555
H38 C39 1_555 1_555
C40 C38 1_555 1_555
H39 C40 1_555 1_555
H40 N3 1_555 1_555
C6 C9 1_555 1_555
C7 C9 1_555 1_555
C11 C13 1_555 1_555
C12 C14 1_555 1_555
C19 C20 1_555 1_555
C36 C37 1_555 1_555
C39 C40 1_555 1_555

#END
