
#######################################################################
#
#                 Cambridge Crystallographic Data Centre
#                                CCDC 
#
#######################################################################
#
# If this CIF has been generated from an entry in the Cambridge 
# Structural Database, then it will include bibliographic, chemical, 
# crystal, experimental, refinement or atomic coordinate data resulting 
# from the CCDC's data processing and validation procedures.
#
#######################################################################

data_SISLAJ
_chemical_formula_moiety         'C46 H32 F2 O2'
_chemical_name_systematic        
1,10-bis(4-fluorophenyl)-3,4,7,8-tetraphenyldeca-2,4,6,8-tetraene-1,10-dione
_symmetry_cell_setting           triclinic
_symmetry_space_group_name_H-M   'P -1'
_symmetry_Int_Tables_number      2
_space_group_name_Hall           '-P 1'
loop_
_symmetry_equiv_pos_site_id
_symmetry_equiv_pos_as_xyz
1 x,y,z
2 -x,-y,-z
_cell_length_a                   8.5673(11)
_cell_length_b                   12.0055(18)
_cell_length_c                   18.147(2)
_cell_angle_alpha                75.773(10)
_cell_angle_beta                 87.570(10)
_cell_angle_gamma                76.234(10)
_cell_volume                     1757.03
_exptl_crystal_colour            green
_exptl_crystal_description       block
_cell_formula_units_Z            2
loop_
_atom_site_label
_atom_site_type_symbol
_atom_site_fract_x
_atom_site_fract_y
_atom_site_fract_z
C1 C 0.0302(4) 0.1193(3) 0.41646(14)
C2 C 0.0970(3) 0.0038(2) 0.39847(15)
H1 H 0.1781 -0.0484 0.4307
C3 C 0.0529(3) -0.0330(2) 0.34092(14)
C4 C -0.0684(3) 0.04739(19) 0.28231(13)
C5 C -0.0407(3) 0.14621(19) 0.23561(13)
H2 H -0.1251 0.1933 0.2033
C6 C 0.1053(3) 0.1875(2) 0.22989(13)
H3 H 0.1956 0.1353 0.2556
C7 C 0.1232(3) 0.2945(2) 0.19085(13)
C8 C -0.0165(3) 0.3866(2) 0.15111(15)
C9 C -0.0864(4) 0.3819(3) 0.08780(16)
H4 H -0.1750 0.4424 0.0682
C10 C -0.0344(5) 0.2892(4) 0.04738(17)
C11 C 0.1461(4) 0.1814(3) 0.43817(15)
C12 C 0.3107(5) 0.1405(3) 0.43489(17)
H5 H 0.3516 0.0697 0.4209
C13 C 0.4161(5) 0.2025(4) 0.4519(2)
H6 H 0.5266 0.1753 0.4483
C14 C 0.3551(8) 0.3023(4) 0.4737(3)
C15 C 0.1976(8) 0.3459(4) 0.4785(3)
H7 H 0.1602 0.4162 0.4935
C16 C 0.0888(5) 0.2851(3) 0.4609(2)
H8 H -0.0213 0.3145 0.4646
C17 C 0.1252(3) -0.1532(2) 0.33041(15)
C18 C 0.1127(3) -0.1803(3) 0.26179(19)
H9 H 0.0560 -0.1227 0.2218
C19 C 0.1824(4) -0.2908(3) 0.2511(2)
H10 H 0.1714 -0.3074 0.2044
C20 C 0.2678(5) -0.3761(3) 0.3091(3)
H11 H 0.3144 -0.4510 0.3021
C21 C 0.2844(4) -0.3510(3) 0.3768(3)
H12 H 0.3442 -0.4084 0.4160
C22 C 0.2134(3) -0.2416(2) 0.38784(18)
H13 H 0.2246 -0.2261 0.4349
C23 C -0.2207(3) 0.01114(19) 0.27775(14)
C24 C -0.2991(3) 0.0334(2) 0.20860(16)
H14 H -0.2552 0.0713 0.1646
C25 C -0.4420(3) 0.0001(3) 0.20375(19)
H15 H -0.4946 0.0183 0.1570
C26 C -0.5056(3) -0.0589(2) 0.2670(2)
H16 H -0.5997 -0.0832 0.2635
C27 C -0.4301(3) -0.0819(2) 0.33541(19)
H17 H -0.4744 -0.1212 0.3789
C28 C -0.2885(3) -0.0480(2) 0.34159(16)
H18 H -0.2386 -0.0651 0.3889
C29 C 0.2727(3) 0.3356(2) 0.19160(15)
C30 C 0.3922(3) 0.2813(2) 0.24571(16)
H19 H 0.3835 0.2121 0.2807
C31 C 0.5244(3) 0.3265(3) 0.2496(2)
H20 H 0.6040 0.2870 0.2864
C32 C 0.5388(4) 0.4279(3) 0.2001(2)
H21 H 0.6256 0.4601 0.2042
C33 C 0.4254(4) 0.4824(3) 0.1443(3)
H22 H 0.4370 0.5505 0.1089
C34 C 0.2934(3) 0.4371(3) 0.1401(2)
H23 H 0.2165 0.4756 0.1019
C35 C -0.0818(3) 0.4842(2) 0.18909(19)
C36 C -0.0783(4) 0.4615(3) 0.2662(2)
H24 H -0.0290 0.3864 0.2945
C37 C -0.1476(6) 0.5491(5) 0.3034(3)
H25 H -0.1455 0.5330 0.3562
C38 C -0.2174(7) 0.6569(5) 0.2620(5)
H26 H -0.2652 0.7149 0.2872
C39 C -0.2211(6) 0.6851(4) 0.1852(4)
H27 H -0.2691 0.7613 0.1581
C40 C -0.1519(4) 0.5980(3) 0.1475(3)
H28 H -0.1524 0.6157 0.0946
C41 C -0.1637(7) 0.2426(4) 0.01782(18)
C42 C -0.3227(6) 0.2727(4) 0.0380(2)
H29 H -0.3542 0.3255 0.0688
C43 C -0.4374(7) 0.2235(4) 0.0120(3)
H30 H -0.5453 0.2416 0.0246
C44 C -0.3796(13) 0.1484(6) -0.0322(3)
C45 C -0.2277(12) 0.1135(8) -0.0530(4)
H31 H -0.1989 0.0595 -0.0830
C46 C -0.1120(9) 0.1635(5) -0.0266(3)
H32 H -0.0043 0.1432 -0.0391
F1 F 0.4564(4) 0.3647(2) 0.4899(2)
F2 F -0.5034(6) 0.1035(3) -0.0559(2)
O1 O -0.1133(3) 0.1623(2) 0.41448(12)
O2 O 0.1076(4) 0.2485(3) 0.03825(15)
loop_
_geom_bond_atom_site_label_1
_geom_bond_atom_site_label_2
_geom_bond_site_symmetry_1
_geom_bond_site_symmetry_2
C1 C2 1_555 1_555
C2 H1 1_555 1_555
C3 C2 1_555 1_555
C4 C3 1_555 1_555
C5 C4 1_555 1_555
H2 C5 1_555 1_555
C6 C5 1_555 1_555
H3 C6 1_555 1_555
C7 C6 1_555 1_555
C8 C7 1_555 1_555
C9 C8 1_555 1_555
H4 C9 1_555 1_555
C10 C9 1_555 1_555
C11 C1 1_555 1_555
C12 C11 1_555 1_555
H5 C12 1_555 1_555
C13 C12 1_555 1_555
H6 C13 1_555 1_555
C14 C13 1_555 1_555
C15 C14 1_555 1_555
H7 C15 1_555 1_555
C16 C11 1_555 1_555
H8 C16 1_555 1_555
C17 C3 1_555 1_555
C18 C17 1_555 1_555
H9 C18 1_555 1_555
C19 C18 1_555 1_555
H10 C19 1_555 1_555
C20 C19 1_555 1_555
H11 C20 1_555 1_555
C21 C20 1_555 1_555
H12 C21 1_555 1_555
C22 C17 1_555 1_555
H13 C22 1_555 1_555
C23 C4 1_555 1_555
C24 C23 1_555 1_555
H14 C24 1_555 1_555
C25 C24 1_555 1_555
H15 C25 1_555 1_555
C26 C25 1_555 1_555
H16 C26 1_555 1_555
C27 C26 1_555 1_555
H17 C27 1_555 1_555
C28 C23 1_555 1_555
H18 C28 1_555 1_555
C29 C7 1_555 1_555
C30 C29 1_555 1_555
H19 C30 1_555 1_555
C31 C30 1_555 1_555
H20 C31 1_555 1_555
C32 C31 1_555 1_555
H21 C32 1_555 1_555
C33 C32 1_555 1_555
H22 C33 1_555 1_555
C34 C29 1_555 1_555
H23 C34 1_555 1_555
C35 C8 1_555 1_555
C36 C35 1_555 1_555
H24 C36 1_555 1_555
C37 C36 1_555 1_555
H25 C37 1_555 1_555
C38 C37 1_555 1_555
H26 C38 1_555 1_555
C39 C38 1_555 1_555
H27 C39 1_555 1_555
C40 C35 1_555 1_555
H28 C40 1_555 1_555
C41 C10 1_555 1_555
C42 C41 1_555 1_555
H29 C42 1_555 1_555
C43 C42 1_555 1_555
H30 C43 1_555 1_555
C44 C43 1_555 1_555
C45 C44 1_555 1_555
H31 C45 1_555 1_555
C46 C41 1_555 1_555
H32 C46 1_555 1_555
F1 C14 1_555 1_555
F2 C44 1_555 1_555
O1 C1 1_555 1_555
O2 C10 1_555 1_555
C15 C16 1_555 1_555
C21 C22 1_555 1_555
C27 C28 1_555 1_555
C33 C34 1_555 1_555
C39 C40 1_555 1_555
C45 C46 1_555 1_555

#END
