
#######################################################################
#
#                 Cambridge Crystallographic Data Centre
#                                CCDC 
#
#######################################################################
#
# If this CIF has been generated from an entry in the Cambridge 
# Structural Database, then it will include bibliographic, chemical, 
# crystal, experimental, refinement or atomic coordinate data resulting 
# from the CCDC's data processing and validation procedures.
#
#######################################################################

data_SISYIE
_chemical_formula_moiety         'C17 H14 O4'
_chemical_name_systematic        
6-Hydroxy-9b-methyl-3,9b,10,11-tetrahydrophenanthro[1,2-c]furan-1,5-dione
_symmetry_cell_setting           orthorhombic
_symmetry_space_group_name_H-M   'P 21 21 21'
_symmetry_Int_Tables_number      19
_space_group_name_Hall           'P 2ac 2ab'
loop_
_symmetry_equiv_pos_site_id
_symmetry_equiv_pos_as_xyz
1 x,y,z
2 1/2-x,-y,1/2+z
3 -x,1/2+y,1/2-z
4 1/2+x,1/2-y,-z
_cell_length_a                   8.850(3)
_cell_length_b                   12.001(4)
_cell_length_c                   12.727(4)
_cell_angle_alpha                90
_cell_angle_beta                 90
_cell_angle_gamma                90
_cell_volume                     1351.72
_exptl_crystal_colour            yellow
_exptl_crystal_description       block
_cell_formula_units_Z            4
loop_
_atom_site_label
_atom_site_type_symbol
_atom_site_fract_x
_atom_site_fract_y
_atom_site_fract_z
C1 C 0.7113(3) 0.1692(2) 0.2937(2)
C2 C 0.7953(4) 0.0814(2) 0.3329(2)
H1 H 0.7711 0.0083 0.3152
C3 C 0.9151(4) 0.1038(2) 0.3986(2)
H2 H 0.9718 0.0451 0.4253
C4 C 0.9526(3) 0.2120(2) 0.4255(2)
H3 H 1.0336 0.2248 0.4703
C5 C 0.8713(3) 0.3015(2) 0.38657(19)
C6 C 0.7470(3) 0.2795(2) 0.3199(2)
C7 C 0.6561(3) 0.3705(2) 0.2781(2)
C8 C 0.7043(3) 0.4828(2) 0.2982(2)
H4 H 0.6501 0.5410 0.2681
C9 C 0.8237(3) 0.5070(2) 0.35823(19)
C10 C 0.9081(3) 0.4193(2) 0.42179(19)
C11 C 1.0785(3) 0.4451(2) 0.4146(2)
H5 H 1.1335 0.3901 0.4553
H6 H 1.1103 0.4381 0.3420
C12 C 1.1206(3) 0.5612(2) 0.4541(2)
H7 H 1.1180 0.5624 0.5303
H8 H 1.2224 0.5796 0.4317
C13 C 1.0126(3) 0.6446(2) 0.4117(2)
C14 C 0.8798(3) 0.6197(2) 0.3688(2)
C15 C 0.8050(4) 0.7241(2) 0.3320(2)
H9 H 0.7893 0.7224 0.2566
H10 H 0.7083 0.7344 0.3665
C16 C 1.0321(4) 0.7652(3) 0.4088(3)
C17 C 0.8541(4) 0.4314(2) 0.5373(2)
H11 H 0.7500 0.4097 0.5423
H12 H 0.8648 0.5075 0.5592
H13 H 0.9142 0.3844 0.5818
O1 O 0.5941(3) 0.14544(19) 0.2293(2)
H14 H 0.5479 0.2029 0.2156
O2 O 0.5419(3) 0.35264(19) 0.22282(19)
O3 O 1.1333(3) 0.8231(2) 0.4397(2)
O4 O 0.9085(3) 0.81099(17) 0.36059(17)
loop_
_geom_bond_atom_site_label_1
_geom_bond_atom_site_label_2
_geom_bond_site_symmetry_1
_geom_bond_site_symmetry_2
C1 C2 1_555 1_555
C2 H1 1_555 1_555
C3 C2 1_555 1_555
H2 C3 1_555 1_555
C4 C3 1_555 1_555
H3 C4 1_555 1_555
C5 C4 1_555 1_555
C6 C1 1_555 1_555
C7 C6 1_555 1_555
C8 C7 1_555 1_555
H4 C8 1_555 1_555
C9 C8 1_555 1_555
C10 C5 1_555 1_555
C11 C10 1_555 1_555
H5 C11 1_555 1_555
H6 C11 1_555 1_555
C12 C11 1_555 1_555
H7 C12 1_555 1_555
H8 C12 1_555 1_555
C13 C12 1_555 1_555
C14 C9 1_555 1_555
C15 C14 1_555 1_555
H9 C15 1_555 1_555
H10 C15 1_555 1_555
C16 C13 1_555 1_555
C17 C10 1_555 1_555
H11 C17 1_555 1_555
H12 C17 1_555 1_555
H13 C17 1_555 1_555
O1 C1 1_555 1_555
H14 O1 1_555 1_555
O2 C7 1_555 1_555
O3 C16 1_555 1_555
O4 C15 1_555 1_555
C5 C6 1_555 1_555
C9 C10 1_555 1_555
C13 C14 1_555 1_555
C16 O4 1_555 1_555

#END
