
#######################################################################
#
#                 Cambridge Crystallographic Data Centre
#                                CCDC 
#
#######################################################################
#
# If this CIF has been generated from an entry in the Cambridge 
# Structural Database, then it will include bibliographic, chemical, 
# crystal, experimental, refinement or atomic coordinate data resulting 
# from the CCDC's data processing and validation procedures.
#
#######################################################################

data_SITFIL
_chemical_formula_moiety         'C17 H20 N2 O1'
_chemical_name_systematic        
N-(4-(Dimethylamino)benzylidene)-4-ethoxyaniline
_symmetry_cell_setting           monoclinic
_symmetry_space_group_name_H-M   'P 21/c'
_symmetry_Int_Tables_number      14
_space_group_name_Hall           '-P 2ybc'
loop_
_symmetry_equiv_pos_site_id
_symmetry_equiv_pos_as_xyz
1 x,y,z
2 -x,1/2+y,1/2-z
3 -x,-y,-z
4 x,1/2-y,1/2+z
_cell_length_a                   9.586(3)
_cell_length_b                   16.678(7)
_cell_length_c                   9.722(3)
_cell_angle_alpha                90
_cell_angle_beta                 109.319(4)
_cell_angle_gamma                90
_cell_volume                     1466.79
_exptl_crystal_colour            'light yellow'
_exptl_crystal_description       block
_cell_formula_units_Z            4
loop_
_atom_site_label
_atom_site_type_symbol
_atom_site_fract_x
_atom_site_fract_y
_atom_site_fract_z
N1 N 0.5988(3) 0.11288(15) 0.4352(3)
N2 N 0.2098(3) 0.13050(17) -0.2456(3)
O1 O 0.8309(2) 0.13646(13) 1.0402(2)
C1 C 0.4827(3) 0.15105(18) 0.3643(4)
H1 H 0.4384 0.1832 0.4163
C2 C 0.4153(3) 0.14752(18) 0.2077(3)
C3 C 0.2738(3) 0.17601(19) 0.1395(4)
H2 H 0.2237 0.1999 0.1960
C4 C 0.2044(3) 0.17042(19) -0.0081(4)
H3 H 0.1082 0.1893 -0.0488
C5 C 0.2761(3) 0.13677(18) -0.0982(4)
C6 C 0.4203(3) 0.10872(19) -0.0297(4)
H4 H 0.4723 0.0863 -0.0858
C7 C 0.4858(3) 0.11380(19) 0.1179(4)
H5 H 0.5811 0.0939 0.1598
C8 C 0.0542(4) 0.1494(2) -0.3144(4)
H6 H -0.0036 0.1185 -0.2696
H7 H 0.0248 0.1368 -0.4163
H8 H 0.0386 0.2055 -0.3026
C9 C 0.2890(4) 0.1011(2) -0.3392(4)
H9 H 0.3837 0.1269 -0.3137
H10 H 0.2332 0.1127 -0.4390
H11 H 0.3026 0.0442 -0.3268
C10 C 0.6552(3) 0.11975(18) 0.5892(3)
C11 C 0.6938(3) 0.05080(19) 0.6712(4)
H12 H 0.6818 0.0013 0.6245
C12 C 0.7501(3) 0.05387(19) 0.8218(4)
H13 H 0.7724 0.0066 0.8755
C13 C 0.7731(3) 0.12667(18) 0.8921(3)
C14 C 0.7365(3) 0.19622(19) 0.8103(4)
H14 H 0.7519 0.2457 0.8570
C15 C 0.6778(3) 0.19303(19) 0.6611(4)
H15 H 0.6531 0.2403 0.6077
C16 C 0.8842(4) 0.0675(2) 1.1264(3)
H16 H 0.9620 0.0425 1.0981
H17 H 0.8049 0.0290 1.1124
C17 C 0.9428(4) 0.0927(2) 1.2824(4)
H18 H 1.0181 0.1325 1.2944
H19 H 0.9841 0.0470 1.3421
H20 H 0.8639 0.1146 1.3109
loop_
_geom_bond_atom_site_label_1
_geom_bond_atom_site_label_2
_geom_bond_site_symmetry_1
_geom_bond_site_symmetry_2
N1 C1 1_555 1_555
N2 C5 1_555 1_555
O1 C13 1_555 1_555
C1 H1 1_555 1_555
C2 C1 1_555 1_555
C3 C2 1_555 1_555
H2 C3 1_555 1_555
C4 C3 1_555 1_555
H3 C4 1_555 1_555
C5 C4 1_555 1_555
C6 C5 1_555 1_555
H4 C6 1_555 1_555
C7 C2 1_555 1_555
H5 C7 1_555 1_555
C8 N2 1_555 1_555
H6 C8 1_555 1_555
H7 C8 1_555 1_555
H8 C8 1_555 1_555
C9 N2 1_555 1_555
H9 C9 1_555 1_555
H10 C9 1_555 1_555
H11 C9 1_555 1_555
C10 N1 1_555 1_555
C11 C10 1_555 1_555
H12 C11 1_555 1_555
C12 C11 1_555 1_555
H13 C12 1_555 1_555
C13 C12 1_555 1_555
C14 C13 1_555 1_555
H14 C14 1_555 1_555
C15 C10 1_555 1_555
H15 C15 1_555 1_555
C16 O1 1_555 1_555
H16 C16 1_555 1_555
H17 C16 1_555 1_555
C17 C16 1_555 1_555
H18 C17 1_555 1_555
H19 C17 1_555 1_555
H20 C17 1_555 1_555
C6 C7 1_555 1_555
C14 C15 1_555 1_555

#END
