
#######################################################################
#
#                 Cambridge Crystallographic Data Centre
#                                CCDC 
#
#######################################################################
#
# If this CIF has been generated from an entry in the Cambridge 
# Structural Database, then it will include bibliographic, chemical, 
# crystal, experimental, refinement or atomic coordinate data resulting 
# from the CCDC's data processing and validation procedures.
#
#######################################################################

data_SIVMIT
_chemical_formula_moiety         'C44 H56 O2,C1 H4 O1'
_chemical_name_systematic        
'5,11,17,23-Tetra-t-butyl-25,27-dihydroxycalix(4)arene methanol solvate'
_symmetry_cell_setting           monoclinic
_symmetry_space_group_name_H-M   'C 2/c'
_symmetry_Int_Tables_number      15
_space_group_name_Hall           '-C 2yn'
loop_
_symmetry_equiv_pos_site_id
_symmetry_equiv_pos_as_xyz
1 x,y,z
2 1/2+x,1/2+y,z
3 -x,y,1/2-z
4 1/2-x,1/2+y,1/2-z
5 -x,-y,-z
6 1/2-x,1/2-y,-z
7 x,-y,1/2+z
8 1/2+x,1/2-y,1/2+z
_cell_length_a                   15.071(2)
_cell_length_b                   16.568(2)
_cell_length_c                   15.813(2)
_cell_angle_alpha                90
_cell_angle_beta                 97.88(2)
_cell_angle_gamma                90
_cell_volume                     3911.16
_chemical_melting_point          270deg.C
_cell_formula_units_Z            4
loop_
_atom_site_label
_atom_site_type_symbol
_atom_site_fract_x
_atom_site_fract_y
_atom_site_fract_z
O1 O 0.5588(2) 0.5568(2) 0.6369(2)
C1 C 0.5303(3) 0.6233(3) 0.5881(3)
C2 C 0.5929(3) 0.6575(3) 0.5419(3)
C3 C 0.5685(3) 0.7256(3) 0.4927(3)
C4 C 0.4847(3) 0.7606(3) 0.4877(3)
C5 C 0.4240(3) 0.7242(3) 0.5355(3)
C6 C 0.4452(3) 0.6569(3) 0.5863(3)
C7 C 0.3808(3) 0.6259(3) 0.6442(3)
C8 C 0.3442(3) 0.5009(3) 0.5485(3)
C9 C 0.3381(3) 0.5428(3) 0.6235(3)
C10 C 0.2891(3) 0.5097(3) 0.6841(3)
C11 C 0.2467(3) 0.4353(3) 0.6714(3)
C12 C 0.2545(3) 0.3936(3) 0.5957(3)
C13 C 0.3031(3) 0.4254(3) 0.5345(3)
C14 C 0.6866(3) 0.6225(3) 0.5452(3)
C15 C 0.4583(3) 0.8362(3) 0.4342(3)
C16 C 0.5358(5) 0.8727(5) 0.3957(6)
C17 C 0.3858(5) 0.8152(4) 0.3601(5)
C18 C 0.4193(6) 0.9002(4) 0.4872(5)
C19 C 0.1950(3) 0.4002(3) 0.7408(3)
C20 C 0.1271(5) 0.4605(5) 0.7633(6)
C21 C 0.1521(7) 0.3213(5) 0.7176(5)
C22 C 0.2592(5) 0.3908(5) 0.8246(5)
H1 H 0.505 0.539 0.662
H2 H 0.617 0.752 0.457
H3 H 0.358 0.750 0.533
H4 H 0.370 0.663 0.698
H6 H 0.381 0.526 0.501
H7 H 0.285 0.542 0.742
H8 H 0.222 0.336 0.584
H9 H 0.735 0.671 0.551
H10 H 0.700 0.583 0.600
H11 H 0.585 0.891 0.448
H12 H 0.515 0.924 0.356
H13 H 0.564 0.828 0.358
H14 H 0.326 0.787 0.382
H15 H 0.419 0.772 0.324
H16 H 0.363 0.866 0.320
H17 H 0.469 0.911 0.542
H18 H 0.359 0.878 0.509
H19 H 0.405 0.956 0.453
H20 H 0.084 0.462 0.703
H21 H 0.090 0.439 0.812
H22 H 0.152 0.521 0.780
H23 H 0.105 0.349 0.669
H24 H 0.189 0.275 0.689
H25 H 0.116 0.294 0.765
H26 H 0.262 0.339 0.784
H27 H 0.326 0.415 0.842
H28 H 0.232 0.373 0.881
C14D C 0.3134(3) 0.3775(3) 0.4548(3)
C13D C 0.6969(3) 0.5746(3) 0.4655(3)
C2D C 0.4071(3) 0.3425(3) 0.4581(3)
H9D H 0.265 0.329 0.449
H10D H 0.300 0.417 0.400
C8D C 0.6558(3) 0.4991(3) 0.4515(3)
C12D C 0.7455(3) 0.6064(3) 0.4043(3)
C1D C 0.4697(3) 0.3767(3) 0.4119(3)
C3D C 0.4315(3) 0.2744(3) 0.5073(3)
C9D C 0.6619(3) 0.4572(3) 0.3765(3)
H6D H 0.619 0.474 0.499
C11D C 0.7533(3) 0.5647(3) 0.3286(3)
H8D H 0.778 0.664 0.416
O1D O 0.4412(2) 0.4432(2) 0.3631(2)
C6D C 0.5548(3) 0.3431(3) 0.4137(3)
C4D C 0.5153(3) 0.2394(3) 0.5123(3)
H2D H 0.383 0.248 0.543
C7D C 0.6192(3) 0.3741(3) 0.3558(3)
C10D C 0.7109(3) 0.4903(3) 0.3159(3)
C19D C 0.8050(3) 0.5998(3) 0.2592(3)
H1D H 0.495 0.461 0.338
C5D C 0.5760(3) 0.2758(3) 0.4645(3)
C15D C 0.5417(3) 0.1638(3) 0.5658(3)
H4D H 0.630 0.337 0.302
H7D H 0.715 0.458 0.258
C20D C 0.8729(5) 0.5395(5) 0.2367(6)
C21D C 0.8479(7) 0.6787(5) 0.2824(5)
C22D C 0.7408(5) 0.6092(5) 0.1754(5)
H3D H 0.642 0.250 0.467
C16D C 0.4642(5) 0.1273(5) 0.6043(6)
C17D C 0.6142(5) 0.1848(4) 0.6399(5)
C18D C 0.5807(6) 0.0998(4) 0.5128(5)
H20D H 0.916 0.538 0.297
H21D H 0.910 0.561 0.188
H22D H 0.848 0.479 0.220
H23D H 0.895 0.651 0.331
H24D H 0.811 0.725 0.311
H25D H 0.884 0.706 0.235
H26D H 0.738 0.661 0.216
H27D H 0.674 0.585 0.158
H28D H 0.768 0.627 0.119
H11D H 0.415 0.109 0.552
H12D H 0.485 0.076 0.644
H13D H 0.436 0.172 0.642
H14D H 0.674 0.213 0.618
H15D H 0.581 0.228 0.676
H16D H 0.637 0.134 0.680
H17D H 0.531 0.089 0.458
H18D H 0.641 0.122 0.491
H19D H 0.595 0.044 0.547
O2 O 0.00000 0.0500(6) 0.25000
C23 C 0.00000 0.129(1) 0.25000
H5? H 0.318 0.602 0.614
loop_
_geom_bond_atom_site_label_1
_geom_bond_atom_site_label_2
_geom_bond_site_symmetry_1
_geom_bond_site_symmetry_2
O1 C1 1_555 1_555
C1 C2 1_555 1_555
C2 C3 1_555 1_555
C3 C4 1_555 1_555
C4 C5 1_555 1_555
C5 C6 1_555 1_555
C6 C1 1_555 1_555
C7 C6 1_555 1_555
C8 C9 1_555 1_555
C9 C7 1_555 1_555
C10 C9 1_555 1_555
C11 C10 1_555 1_555
C12 C11 1_555 1_555
C13 C8 1_555 1_555
C14 C2 1_555 1_555
C15 C4 1_555 1_555
C16 C15 1_555 1_555
C17 C15 1_555 1_555
C18 C15 1_555 1_555
C19 C11 1_555 1_555
C20 C19 1_555 1_555
C21 C19 1_555 1_555
C22 C19 1_555 1_555
O2 C23 1_555 1_555
H1 O1 1_555 1_555
H2 C3 1_555 1_555
H3 C5 1_555 1_555
H4 C7 1_555 1_555
H6 C8 1_555 1_555
H7 C10 1_555 1_555
H8 C12 1_555 1_555
H9 C14 1_555 1_555
H10 C14 1_555 1_555
H11 C16 1_555 1_555
H12 C16 1_555 1_555
H13 C16 1_555 1_555
H14 C17 1_555 1_555
H15 C17 1_555 1_555
H16 C17 1_555 1_555
H17 C18 1_555 1_555
H18 C18 1_555 1_555
H19 C18 1_555 1_555
H20 C20 1_555 1_555
H21 C20 1_555 1_555
H22 C20 1_555 1_555
H23 C21 1_555 1_555
H24 C21 1_555 1_555
H25 C21 1_555 1_555
H26 C22 1_555 1_555
H27 C22 1_555 1_555
H28 C22 1_555 1_555
C14D C13 1_555 1_555
C13D C14 1_555 1_555
C2D C14D 1_555 1_555
H9D C14D 1_555 1_555
H10D C14D 1_555 1_555
C8D C13D 1_555 1_555
C12D C13D 1_555 1_555
C1D C2D 1_555 1_555
C3D C2D 1_555 1_555
C9D C8D 1_555 1_555
H6D C8D 1_555 1_555
C11D C12D 1_555 1_555
H8D C12D 1_555 1_555
O1D C1D 1_555 1_555
C6D C1D 1_555 1_555
C4D C3D 1_555 1_555
H2D C3D 1_555 1_555
C7D C9D 1_555 1_555
C10D C9D 1_555 1_555
C19D C11D 1_555 1_555
H1D O1D 1_555 1_555
C5D C6D 1_555 1_555
C15D C4D 1_555 1_555
H4D C7D 1_555 1_555
H7D C10D 1_555 1_555
C20D C19D 1_555 1_555
C21D C19D 1_555 1_555
C22D C19D 1_555 1_555
H3D C5D 1_555 1_555
C16D C15D 1_555 1_555
C17D C15D 1_555 1_555
C18D C15D 1_555 1_555
H20D C20D 1_555 1_555
H21D C20D 1_555 1_555
H22D C20D 1_555 1_555
H23D C21D 1_555 1_555
H24D C21D 1_555 1_555
H25D C21D 1_555 1_555
H26D C22D 1_555 1_555
H27D C22D 1_555 1_555
H28D C22D 1_555 1_555
H11D C16D 1_555 1_555
H12D C16D 1_555 1_555
H13D C16D 1_555 1_555
H14D C17D 1_555 1_555
H15D C17D 1_555 1_555
H16D C17D 1_555 1_555
H17D C18D 1_555 1_555
H18D C18D 1_555 1_555
H19D C18D 1_555 1_555
C12 C13 1_555 1_555
C11D C10D 1_555 1_555
C6D C7D 1_555 1_555
C4D C5D 1_555 1_555

#END
