
#######################################################################
#
#                 Cambridge Crystallographic Data Centre
#                                CCDC 
#
#######################################################################
#
# If this CIF has been generated from an entry in the Cambridge 
# Structural Database, then it will include bibliographic, chemical, 
# crystal, experimental, refinement or atomic coordinate data resulting 
# from the CCDC's data processing and validation procedures.
#
#######################################################################

data_SIVMEP
_chemical_formula_moiety         'C44 H56 O3,2(C5 H5 N1)'
_chemical_name_systematic        
'5,11,17,23-Tetra-t-butyl-25,26,27-trihydroxycalix(4)arene pyridine clathrate'
_symmetry_cell_setting           orthorhombic
_symmetry_space_group_name_H-M   'P 21 21 21'
_symmetry_Int_Tables_number      19
_space_group_name_Hall           'P 2ac 2ab'
loop_
_symmetry_equiv_pos_site_id
_symmetry_equiv_pos_as_xyz
1 x,y,z
2 1/2+x,1/2-y,-z
3 -x,1/2+y,1/2-z
4 1/2-x,-y,1/2+z
_cell_length_a                   20.561(2)
_cell_length_b                   24.455(3)
_cell_length_c                   9.452(1)
_cell_angle_alpha                90
_cell_angle_beta                 90
_cell_angle_gamma                90
_cell_volume                     4752.65
_chemical_melting_point          260-262deg.C
_cell_formula_units_Z            4
loop_
_atom_site_label
_atom_site_type_symbol
_atom_site_fract_x
_atom_site_fract_y
_atom_site_fract_z
N1 N 0.5960(5) 0.8246(4) 0.477(1)
C51 C 0.5444(6) 0.7964(5) 0.531(1)
C52 C 0.5373(6) 0.7905(5) 0.681(1)
C53 C 0.5809(6) 0.8119(5) 0.767(1)
C54 C 0.6322(6) 0.8405(5) 0.717(1)
C55 C 0.6398(7) 0.8476(5) 0.574(1)
C56 C 0.2957(9) 0.0120(7) 0.109(2)
C57 C 0.2782(9) 0.0525(7) 0.216(2)
C58 C 0.3263(9) 0.0897(7) 0.252(2)
C59 C 0.3871(8) 0.0874(7) 0.203(2)
C60 C 0.4029(9) 0.0474(8) 0.111(2)
C61 C 0.3568(9) 0.0104(7) 0.057(2)
O1 O 0.4240(7) 0.2290(6) 0.261(2)
O2 O 0.5484(4) 0.2596(3) 0.3754(9)
O4 O 0.4208(4) 0.3520(3) 0.2961(9)
C1 C 0.3927(5) 0.2223(4) 0.381(1)
C2 C 0.3328(5) 0.2465(4) 0.416(1)
C3 C 0.3008(5) 0.2313(4) 0.539(1)
C4 C 0.3252(5) 0.1922(4) 0.634(1)
C5 C 0.3869(5) 0.1693(4) 0.597(1)
C6 C 0.4186(5) 0.1832(4) 0.473(1)
C7 C 0.4866(5) 0.1595(5) 0.447(1)
C8 C 0.5642(5) 0.2364(4) 0.505(1)
C9 C 0.5370(5) 0.1867(4) 0.542(1)
C10 C 0.5533(5) 0.1641(4) 0.672(1)
C11 C 0.5940(5) 0.1888(4) 0.765(1)
C12 C 0.6204(5) 0.2394(4) 0.725(1)
C13 C 0.6055(5) 0.2638(4) 0.598(1)
C14 C 0.6336(5) 0.3199(4) 0.566(1)
C15 C 0.5404(5) 0.3860(4) 0.502(1)
C16 C 0.5855(5) 0.3667(4) 0.600(1)
C17 C 0.5885(5) 0.3871(4) 0.735(1)
C18 C 0.5475(5) 0.4299(4) 0.779(1)
C19 C 0.5021(5) 0.4476(4) 0.680(1)
C20 C 0.4988(5) 0.4274(4) 0.545(1)
C21 C 0.4490(5) 0.4509(4) 0.443(1)
C22 C 0.3701(5) 0.3736(4) 0.378(1)
C23 C 0.3806(5) 0.4225(4) 0.449(1)
C24 C 0.3288(5) 0.4464(4) 0.521(1)
C25 C 0.2686(5) 0.4216(4) 0.526(1)
C26 C 0.2607(5) 0.3717(4) 0.457(1)
C27 C 0.3117(4) 0.3473(4) 0.385(1)
C28 C 0.3018(5) 0.2909(4) 0.327(1)
C29 C 0.2892(6) 0.1757(5) 0.771(1)
C30 C 0.2346(7) 0.2134(5) 0.805(2)
C31 C 0.2652(8) 0.1171(5) 0.736(2)
C32 C 0.3374(7) 0.1755(7) 0.902(2)
C33 C 0.6116(6) 0.1611(5) 0.900(1)
C34 C 0.540(1) 0.146(1) 0.980(4)
C35 C 0.650(1) 0.113(1) 0.874(3)
C36 C 0.643(2) 0.202(1) 1.006(3)
C40 C 0.5549(6) 0.4586(5) 0.923(1)
C41 C 0.5918(9) 0.4236(5) 1.028(2)
C42 C 0.5894(9) 0.5116(6) 0.893(2)
C43 C 0.4891(9) 0.4692(8) 0.996(2)
C44 C 0.2130(6) 0.4502(5) 0.601(1)
C45 C 0.228(20) 0.454(1) 0.762(3)
C46 C 0.194(2) 0.502(2) 0.535(3)
C47 C 0.141(2) 0.418(1) 0.623(4)
H1 H 0.255 0.251 0.565
H2 H 0.408 0.139 0.667
H3 H 0.500 0.164 0.338
H4 H 0.486 0.116 0.473
H5 H 0.533 0.125 0.699
H6 H 0.652 0.260 0.796
H7 H 0.678 0.325 0.627
H8 H 0.645 0.322 0.454
H9 H 0.624 0.371 0.809
H10 H 0.468 0.479 0.713
H11 H 0.443 0.494 0.468
H12 H 0.468 0.447 0.337
H13 H 0.336 0.485 0.574
H14 H 0.214 0.352 0.463
H15 H 0.323 0.289 0.223
H16 H 0.250 0.283 0.319
H17 H 0.196 0.221 0.729
H18 H 0.263 0.250 0.819
H19 H 0.213 0.202 0.905
H20 H 0.234 0.116 0.827
H21 H 0.308 0.093 0.758
H22 H 0.240 0.100 0.646
H23 H 0.364 0.146 0.839
H24 H 0.345 0.167 1.012
H25 H 0.354 0.216 0.877
H26 H 0.549 0.122 1.076
H27 H 0.511 0.122 0.909
H28 H 0.516 0.183 1.007
H29 H 0.627 0.083 0.807
H30 H 0.661 0.094 0.975
H31 H 0.694 0.127 0.826
H32 H 0.622 0.242 1.013
H34 H 0.694 0.205 0.985
H44 H 0.637 0.440 0.986
H45 H 0.591 0.380 1.017
H46 H 0.587 0.434 1.138
H47 H 0.605 0.530 0.991
H48 H 0.548 0.534 0.852
H49 H 0.629 0.513 0.817
H50 H 0.485 0.505 0.929
H51 H 0.490 0.482 1.106
H52 H 0.448 0.443 0.979
H53 H 0.193 0.429 0.820
H54 H 0.210 0.495 0.754
H55 H 0.274 0.454 0.818
H56 H 0.157 0.533 0.521
H57 H 0.178 0.464 0.488
H58 H 0.238 0.515 0.485
H59 H 0.096 0.402 0.585
H60 H 0.132 0.447 0.708
H61 H 0.171 0.385 0.661
O3? O 0.5473(7) 0.3704(6) 0.367(2)
C37? C 0.582(1) 0.198(1) 1.035(3)
C38? C 0.584(2) 0.103(1) 0.921(3)
C39? C 0.688(1) 0.157(1) 0.928(3)
C48? C 0.194(1) 0.415(1) 0.740(3)
C49? C 0.222(1) 0.5108(9) 0.634(2)
C50? C 0.147(1) 0.446(1) 0.496(3)
H33? H 0.619 0.179 0.921
H35? H 0.613 0.207 1.123
H36? H 0.550 0.164 1.063
H37? H 0.552 0.233 1.011
H38? H 0.611 0.078 0.994
H39? H 0.536 0.085 0.904
H40? H 0.579 0.144 0.963
H41? H 0.728 0.128 0.937
H42? H 0.669 0.166 1.032
H43? H 0.706 0.195 0.881
H62? H 0.242 0.411 0.788
H63? H 0.198 0.441 0.647
H64? H 0.176 0.375 0.711
H65? H 0.236 0.551 0.599
H66? H 0.255 0.497 0.716
H67? H 0.173 0.512 0.677
H68? H 0.131 0.407 0.454
H69? H 0.165 0.471 0.410
H70? H 0.108 0.466 0.547
loop_
_geom_bond_atom_site_label_1
_geom_bond_atom_site_label_2
_geom_bond_site_symmetry_1
_geom_bond_site_symmetry_2
O1 C1 1_555 1_555
O2 C8 1_555 1_555
O4 C22 1_555 1_555
C1 C2 1_555 1_555
C2 C3 1_555 1_555
C3 C4 1_555 1_555
C4 C5 1_555 1_555
C5 C6 1_555 1_555
C6 C1 1_555 1_555
C7 C6 1_555 1_555
C8 C9 1_555 1_555
C9 C7 1_555 1_555
C10 C9 1_555 1_555
C11 C10 1_555 1_555
C12 C11 1_555 1_555
C13 C8 1_555 1_555
C14 C13 1_555 1_555
C15 C16 1_555 1_555
C16 C14 1_555 1_555
C17 C16 1_555 1_555
C18 C17 1_555 1_555
C19 C18 1_555 1_555
C20 C15 1_555 1_555
C21 C20 1_555 1_555
C22 C23 1_555 1_555
C23 C21 1_555 1_555
C24 C23 1_555 1_555
C25 C24 1_555 1_555
C26 C25 1_555 1_555
C27 C22 1_555 1_555
C28 C2 1_555 1_555
C29 C4 1_555 1_555
C30 C29 1_555 1_555
C31 C29 1_555 1_555
C32 C29 1_555 1_555
C33 C11 1_555 1_555
C34 C33 1_555 1_555
C35 C33 1_555 1_555
C36 C33 1_555 1_555
C40 C18 1_555 1_555
C41 C40 1_555 1_555
C42 C40 1_555 1_555
C43 C40 1_555 1_555
C44 C25 1_555 1_555
C45 C44 1_555 1_555
C46 C44 1_555 1_555
C47 C44 1_555 1_555
N1 C51 1_555 1_555
C51 C52 1_555 1_555
C52 C53 1_555 1_555
C53 C54 1_555 1_555
C54 C55 1_555 1_555
C55 N1 1_555 1_555
C56 C57 1_555 1_555
C57 C58 1_555 1_555
C58 C59 1_555 1_555
C59 C60 1_555 1_555
C60 C61 1_555 1_555
C61 C56 1_555 1_555
H1 C3 1_555 1_555
H2 C5 1_555 1_555
H3 C7 1_555 1_555
H4 C7 1_555 1_555
H5 C10 1_555 1_555
H6 C12 1_555 1_555
H7 C14 1_555 1_555
H8 C14 1_555 1_555
H9 C17 1_555 1_555
H10 C19 1_555 1_555
H11 C21 1_555 1_555
H12 C21 1_555 1_555
H13 C24 1_555 1_555
H14 C26 1_555 1_555
H15 C28 1_555 1_555
H16 C28 1_555 1_555
H17 C30 1_555 1_555
H18 C30 1_555 1_555
H19 C30 1_555 1_555
H20 C31 1_555 1_555
H21 C31 1_555 1_555
H22 C31 1_555 1_555
H23 C32 1_555 1_555
H24 C32 1_555 1_555
H25 C32 1_555 1_555
H26 C34 1_555 1_555
H27 C34 1_555 1_555
H28 C34 1_555 1_555
H29 C35 1_555 1_555
H30 C35 1_555 1_555
H31 C35 1_555 1_555
H32 C36 1_555 1_555
H34 C36 1_555 1_555
H44 C41 1_555 1_555
H45 C41 1_555 1_555
H46 C41 1_555 1_555
H47 C42 1_555 1_555
H48 C42 1_555 1_555
H49 C42 1_555 1_555
H50 C43 1_555 1_555
H51 C43 1_555 1_555
H52 C43 1_555 1_555
H53 C45 1_555 1_555
H54 C45 1_555 1_555
H55 C45 1_555 1_555
H56 C46 1_555 1_555
H57 C46 1_555 1_555
H58 C46 1_555 1_555
H59 C47 1_555 1_555
H60 C47 1_555 1_555
H61 C47 1_555 1_555
C12 C13 1_555 1_555
C19 C20 1_555 1_555
C26 C27 1_555 1_555
C27 C28 1_555 1_555

#END
