
#######################################################################
#
#                 Cambridge Crystallographic Data Centre
#                                CCDC 
#
#######################################################################
#
# If this CIF has been generated from an entry in the Cambridge 
# Structural Database, then it will include bibliographic, chemical, 
# crystal, experimental, refinement or atomic coordinate data resulting 
# from the CCDC's data processing and validation procedures.
#
#######################################################################

data_SIVZAY
_chemical_formula_moiety         'C18 H19 N1 O4 S1'
_chemical_name_systematic        
'(+)-(2R,3S)-3-(o-(S)-(2-Methylbutoxy)phenyl)-1,2-benzisothiazole 1,1-dioxide oxide'
_symmetry_cell_setting           orthorhombic
_symmetry_space_group_name_H-M   'P 21 21 21'
_symmetry_Int_Tables_number      19
_space_group_name_Hall           'P 2ac 2ab'
loop_
_symmetry_equiv_pos_site_id
_symmetry_equiv_pos_as_xyz
1 x,y,z
2 1/2+x,1/2-y,-z
3 -x,1/2+y,1/2-z
4 1/2-x,-y,1/2+z
_cell_length_a                   8.489(1)
_cell_length_b                   14.429(1)
_cell_length_c                   14.570(2)
_cell_angle_alpha                90
_cell_angle_beta                 90
_cell_angle_gamma                90
_cell_volume                     1784.65
_chemical_melting_point          123-125deg.C
_cell_formula_units_Z            4
loop_
_atom_site_label
_atom_site_type_symbol
_atom_site_fract_x
_atom_site_fract_y
_atom_site_fract_z
S1 S 0.9201(2) 0.2274(1) 0.71556(9)
C1 C 1.1114(7) 0.2351(4) 0.6716(3)
C2 C 1.1649(8) 0.2914(4) 0.6010(4)
C3 C 1.3213(8) 0.2883(4) 0.5808(4)
C4 C 1.4223(7) 0.2311(5) 0.6284(4)
C5 C 1.3655(7) 0.1732(4) 0.6983(4)
C6 C 1.2099(6) 0.1753(3) 0.7190(3)
C7 C 1.1229(6) 0.1160(3) 0.7860(3)
C8 C 1.2036(7) 0.0790(3) 0.8693(3)
C9 C 1.2606(8) 0.1410(4) 0.9339(4)
C10 C 1.3339(9) 0.1090(5) 1.0138(4)
C11 C 1.3489(9) 0.0153(5) 1.0258(5)
C12 C 1.2941(9) -0.0471(4) 0.9613(5)
C13 C 1.2218(8) -0.0151(4) 0.8834(4)
C14 C 1.294(1) 0.3036(4) 0.9715(4)
C15 C 1.2793(9) 0.3939(4) 0.9227(5)
C16 C 1.395(2) 0.3952(5) 0.8367(7)
C17 C 1.374(2) 0.4615(9) 0.776(1)
C18 C 1.312(1) 0.4734(5) 0.9857(6)
N1 N 0.9580(5) 0.1409(3) 0.7937(3)
O1 O 0.8834(6) 0.3053(3) 0.7719(3)
O2 O 0.8111(5) 0.1976(4) 0.6481(3)
O3 O 1.0137(5) 0.0579(2) 0.7424(3)
O4 O 1.2349(6) 0.2321(2) 0.9131(2)
H1 H 1.1737 0.3996 0.8977
H2 H 1.0931 0.3309 0.5676
H3 H 1.3624 0.3268 0.5320
H4 H 1.5334 0.2317 0.6143
H5 H 1.4363 0.1315 0.7305
H6 H 1.3723 0.1515 1.0595
H7 H 1.3989 -0.0063 1.0804
H8 H 1.3089 -0.1107 0.9732
H9 H 1.1814 -0.0585 0.8394
H10 H 1.2405 0.3056 1.0289
H11 H 1.4053 0.2925 0.9848
H12 H 1.4005 0.3377 0.8078
H13 H 1.5042 0.4074 0.8618
H14 H 1.4421 0.4634 0.7265
H15 H 1.2646 0.4534 0.7499
H16 H 1.3683 0.5232 0.8039
H17 H 1.2875 0.5317 0.9561
H18 H 1.4130 0.4733 1.0076
H19 H 1.2381 0.4698 1.0383
loop_
_geom_bond_atom_site_label_1
_geom_bond_atom_site_label_2
_geom_bond_site_symmetry_1
_geom_bond_site_symmetry_2
S1 C1 1_555 1_555
C1 C2 1_555 1_555
C2 C3 1_555 1_555
C3 C4 1_555 1_555
C4 C5 1_555 1_555
C5 C6 1_555 1_555
C6 C1 1_555 1_555
C7 C6 1_555 1_555
C8 C7 1_555 1_555
C9 C8 1_555 1_555
C10 C9 1_555 1_555
C11 C10 1_555 1_555
C12 C11 1_555 1_555
C13 C8 1_555 1_555
C14 C15 1_555 1_555
C15 C16 1_555 1_555
C16 C17 1_555 1_555
C17 H14 1_555 1_555
C18 C15 1_555 1_555
N1 S1 1_555 1_555
O1 S1 1_555 1_555
O2 S1 1_555 1_555
O3 C7 1_555 1_555
O4 C9 1_555 1_555
H1 C15 1_555 1_555
H2 C2 1_555 1_555
H3 C3 1_555 1_555
H4 C4 1_555 1_555
H5 C5 1_555 1_555
H6 C10 1_555 1_555
H7 C11 1_555 1_555
H8 C12 1_555 1_555
H9 C13 1_555 1_555
H10 C14 1_555 1_555
H11 C14 1_555 1_555
H12 C16 1_555 1_555
H13 C16 1_555 1_555
H15 C17 1_555 1_555
H16 C17 1_555 1_555
H17 C18 1_555 1_555
H18 C18 1_555 1_555
H19 C18 1_555 1_555
C7 N1 1_555 1_555
C12 C13 1_555 1_555
C14 O4 1_555 1_555
N1 O3 1_555 1_555

#END
