
#######################################################################
#
#                 Cambridge Crystallographic Data Centre
#                                CCDC 
#
#######################################################################
#
# If this CIF has been generated from an entry in the Cambridge 
# Structural Database, then it will include bibliographic, chemical, 
# crystal, experimental, refinement or atomic coordinate data resulting 
# from the CCDC's data processing and validation procedures.
#
#######################################################################

data_SIWKOB
_chemical_formula_moiety         'C30 H37 O5 P1 S1,C1 H2 Cl2'
_chemical_name_systematic        
"2-{(2',6'-dimethoxy[1,1'-biphenyl]-2-yl)[5-methyl-2-(propan-2-yl)cyclohexyl]phosphaniumyl}benzene-1-sulfonate dichloromethane unknown solvate"
_symmetry_cell_setting           hexagonal
_symmetry_space_group_name_H-M   'P 65'
_symmetry_Int_Tables_number      170
_space_group_name_Hall           'P 65'
loop_
_symmetry_equiv_pos_site_id
_symmetry_equiv_pos_as_xyz
1 x,y,z
2 -y,x-y,2/3+z
3 -x+y,-x,1/3+z
4 -x,-y,1/2+z
5 y,-x+y,1/6+z
6 x-y,x,5/6+z
_cell_length_a                   22.6855(8)
_cell_length_b                   22.6855(8)
_cell_length_c                   10.7563(7)
_cell_angle_alpha                90
_cell_angle_beta                 90
_cell_angle_gamma                120
_cell_volume                     4793.91
_exptl_crystal_colour            white
_exptl_crystal_description       block
_cell_formula_units_Z            6
loop_
_atom_site_label
_atom_site_type_symbol
_atom_site_fract_x
_atom_site_fract_y
_atom_site_fract_z
S1 S 0.37081(7) 0.33395(7) 0.27029(16)
P1 P 0.29131(6) 0.42204(7) 0.32748(14)
C1 C 0.3143(2) 0.3389(2) 0.1610(6)
C2 C 0.2818(3) 0.3772(3) 0.1827(5)
C3 C 0.2390(3) 0.3801(3) 0.0936(6)
H1 H 0.2183 0.4060 0.1083
C4 C 0.2269(3) 0.3449(3) -0.0161(7)
H2 H 0.1977 0.3465 -0.0748
C5 C 0.2583(3) 0.3071(3) -0.0395(6)
H3 H 0.2502 0.2833 -0.1138
C6 C 0.3018(3) 0.3049(3) 0.0485(6)
H4 H 0.3232 0.2800 0.0315
C7 C 0.2303(2) 0.3660(3) 0.4439(6)
H5 H 0.2484 0.3378 0.4761
C8 C 0.2248(3) 0.4049(3) 0.5561(6)
H6 H 0.2040 0.4310 0.5259
C9 C 0.1753(3) 0.3534(3) 0.6505(6)
H7 H 0.1949 0.3272 0.6839
H8 H 0.1692 0.3778 0.7189
C10 C 0.1069(3) 0.3054(3) 0.5943(7)
H9 H 0.0782 0.2729 0.6570
H10 H 0.0853 0.3311 0.5686
C11 C 0.1118(3) 0.2671(3) 0.4837(7)
H11 H 0.1305 0.2388 0.5126
C12 C 0.1601(3) 0.3162(3) 0.3870(6)
H12 H 0.1405 0.3419 0.3517
H13 H 0.1659 0.2907 0.3205
C13 C 0.2942(3) 0.4562(3) 0.6117(6)
H14 H 0.3204 0.4889 0.5461
C14 C 0.2880(4) 0.4964(4) 0.7195(7)
H15 H 0.3325 0.5277 0.7510
H16 H 0.2666 0.5212 0.6909
H17 H 0.2610 0.4656 0.7843
C15 C 0.3365(3) 0.4237(4) 0.6564(8)
H18 H 0.3410 0.3981 0.5896
H19 H 0.3808 0.4589 0.6819
H20 H 0.3139 0.3940 0.7253
C16 C 0.0415(3) 0.2199(4) 0.4273(8)
H21 H 0.0461 0.1963 0.3574
H22 H 0.0127 0.1875 0.4887
H23 H 0.0215 0.2464 0.4006
C17 C 0.2827(3) 0.4955(3) 0.3020(5)
C18 C 0.2168(3) 0.4868(3) 0.2876(5)
H24 H 0.1792 0.4431 0.2864
C19 C 0.2076(3) 0.5419(3) 0.2753(6)
H25 H 0.1641 0.5356 0.2650
C20 C 0.2630(3) 0.6061(3) 0.2785(7)
H26 H 0.2567 0.6435 0.2724
C21 C 0.3282(3) 0.6163(3) 0.2906(7)
H27 H 0.3651 0.6604 0.2914
C22 C 0.3393(3) 0.5614(3) 0.3016(6)
C23 C 0.4109(3) 0.5752(3) 0.3135(6)
C24 C 0.4408(3) 0.5587(3) 0.2162(6)
C25 C 0.5098(3) 0.5775(3) 0.2245(7)
H28 H 0.5306 0.5675 0.1599
C26 C 0.5463(3) 0.6107(3) 0.3284(7)
H29 H 0.5920 0.6233 0.3325
C27 C 0.5175(3) 0.6259(3) 0.4270(7)
H30 H 0.5428 0.6471 0.4979
C28 C 0.4497(3) 0.6089(3) 0.4178(6)
C29 C 0.4246(4) 0.4954(3) 0.0292(7)
H31 H 0.3907 0.4727 -0.0340
H32 H 0.4655 0.5309 -0.0079
H33 H 0.4341 0.4633 0.0693
C30 C 0.4527(3) 0.6515(4) 0.6235(6)
H34 H 0.4242 0.6587 0.6801
H35 H 0.4655 0.6210 0.6603
H36 H 0.4929 0.6942 0.6060
O1 O 0.3800(2) 0.2795(2) 0.2250(6)
O2 O 0.3353(2) 0.3202(3) 0.3870(5)
O3 O 0.4309(2) 0.3993(2) 0.2656(5)
O4 O 0.41642(18) 0.6227(2) 0.5105(4)
O5 O 0.3997(2) 0.5245(2) 0.1197(4)
H37 H 0.350(3) 0.443(2) 0.370(5)
C31 C 0.0694(6) 0.2087(6) 0.0357(12)
H38 H 0.1063 0.2085 0.0808
H39 H 0.0746 0.2536 0.0447
Cl1 Cl -0.00332(17) 0.1522(2) 0.0984(4)
Cl2 Cl 0.07635(18) 0.19324(18) -0.1266(3)
loop_
_geom_bond_atom_site_label_1
_geom_bond_atom_site_label_2
_geom_bond_site_symmetry_1
_geom_bond_site_symmetry_2
S1 C1 1_555 1_555
P1 C2 1_555 1_555
C1 C2 1_555 1_555
C2 C3 1_555 1_555
C3 H1 1_555 1_555
C4 C3 1_555 1_555
H2 C4 1_555 1_555
C5 C4 1_555 1_555
H3 C5 1_555 1_555
C6 C1 1_555 1_555
H4 C6 1_555 1_555
C7 P1 1_555 1_555
H5 C7 1_555 1_555
C8 C7 1_555 1_555
H6 C8 1_555 1_555
C9 C8 1_555 1_555
H7 C9 1_555 1_555
H8 C9 1_555 1_555
C10 C9 1_555 1_555
H9 C10 1_555 1_555
H10 C10 1_555 1_555
C11 C10 1_555 1_555
H11 C11 1_555 1_555
C12 C7 1_555 1_555
H12 C12 1_555 1_555
H13 C12 1_555 1_555
C13 C8 1_555 1_555
H14 C13 1_555 1_555
C14 C13 1_555 1_555
H15 C14 1_555 1_555
H16 C14 1_555 1_555
H17 C14 1_555 1_555
C15 C13 1_555 1_555
H18 C15 1_555 1_555
H19 C15 1_555 1_555
H20 C15 1_555 1_555
C16 C11 1_555 1_555
H21 C16 1_555 1_555
H22 C16 1_555 1_555
H23 C16 1_555 1_555
C17 P1 1_555 1_555
C18 C17 1_555 1_555
H24 C18 1_555 1_555
C19 C18 1_555 1_555
H25 C19 1_555 1_555
C20 C19 1_555 1_555
H26 C20 1_555 1_555
C21 C20 1_555 1_555
H27 C21 1_555 1_555
C22 C17 1_555 1_555
C23 C22 1_555 1_555
C24 C23 1_555 1_555
C25 C24 1_555 1_555
H28 C25 1_555 1_555
C26 C25 1_555 1_555
H29 C26 1_555 1_555
C27 C26 1_555 1_555
H30 C27 1_555 1_555
C28 C23 1_555 1_555
C29 H31 1_555 1_555
H32 C29 1_555 1_555
H33 C29 1_555 1_555
C30 H34 1_555 1_555
H35 C30 1_555 1_555
H36 C30 1_555 1_555
O1 S1 1_555 1_555
O2 S1 1_555 1_555
O3 S1 1_555 1_555
O4 C28 1_555 1_555
O5 C24 1_555 1_555
H37 P1 1_555 1_555
C31 H38 1_555 1_555
H39 C31 1_555 1_555
Cl1 C31 1_555 1_555
Cl2 C31 1_555 1_555
C5 C6 1_555 1_555
C11 C12 1_555 1_555
C21 C22 1_555 1_555
C27 C28 1_555 1_555
C29 O5 1_555 1_555
C30 O4 1_555 1_555

#END
