
#######################################################################
#
#                 Cambridge Crystallographic Data Centre
#                                CCDC 
#
#######################################################################
#
# If this CIF has been generated from an entry in the Cambridge 
# Structural Database, then it will include bibliographic, chemical, 
# crystal, experimental, refinement or atomic coordinate data resulting 
# from the CCDC's data processing and validation procedures.
#
#######################################################################

data_SIWQAT
_chemical_formula_moiety         'C17 H20 N5 O2 1+,2(H2 O1),Cl1 1-'
_chemical_name_systematic        
'bis{2-[(4-methoxyphenyl)methylidene]hydrazinyl}methaniminium chloride dihydrate'
_symmetry_cell_setting           triclinic
_symmetry_space_group_name_H-M   'P -1'
_symmetry_Int_Tables_number      2
_space_group_name_Hall           '-P 1'
loop_
_symmetry_equiv_pos_site_id
_symmetry_equiv_pos_as_xyz
1 x,y,z
2 -x,-y,-z
_cell_length_a                   7.6663(16)
_cell_length_b                   8.3562(17)
_cell_length_c                   16.329(3)
_cell_angle_alpha                90.845(2)
_cell_angle_beta                 96.391(2)
_cell_angle_gamma                100.175(2)
_cell_volume                     1022.57
_exptl_crystal_colour            white
_exptl_crystal_description       block
_cell_formula_units_Z            2
loop_
_atom_site_label
_atom_site_type_symbol
_atom_site_fract_x
_atom_site_fract_y
_atom_site_fract_z
Cl1 Cl 0.27603(7) 0.46885(5) 0.08921(3)
O1 O 0.7610(3) 0.46615(18) 0.48649(9)
O2 O -0.1145(2) -0.01588(16) 1.39200(7)
N1 N 0.3872(2) 0.22678(19) 0.95060(11)
H1 H 0.447(3) 0.291(2) 0.9232(12)
H2 H 0.349(3) 0.261(2) 0.9912(12)
N2 N 0.26314(18) -0.03855(17) 0.97305(8)
H3 H 0.2378 -0.1390 0.9565
N3 N 0.21211(19) 0.01025(17) 1.04695(8)
N4 N 0.40404(19) 0.01952(18) 0.85877(8)
H4 H 0.3919 -0.0828 0.8471
N5 N 0.47777(19) 0.13339(17) 0.80651(8)
C1 C 0.3519(2) 0.0725(2) 0.92811(9)
C2 C 0.1290(2) -0.1040(2) 1.08621(10)
H5 H 0.1089 -0.2094 1.0636
C3 C 0.0642(2) -0.0775(2) 1.16465(10)
C4 C 0.0783(2) 0.0765(2) 1.20213(10)
H6 H 0.1291 0.1685 1.1760
C5 C 0.0176(3) 0.0924(2) 1.27724(11)
H7 H 0.0279 0.1953 1.3018
C6 C -0.0591(2) -0.0439(2) 1.31715(10)
C7 C -0.0765(2) -0.1963(2) 1.27993(11)
H8 H -0.1290 -0.2881 1.3057
C8 C -0.0155(2) -0.2115(2) 1.20464(10)
H9 H -0.0281 -0.3145 1.1799
C9 C -0.1651(3) -0.1544(2) 1.44019(11)
H10 H -0.2738 -0.2189 1.4141
H11 H -0.1830 -0.1187 1.4943
H12 H -0.0724 -0.2185 1.4446
C10 C 0.5225(2) 0.0754(2) 0.74092(10)
H13 H 0.5093 -0.0369 0.7337
C11 C 0.5932(2) 0.1780(2) 0.67721(10)
C12 C 0.6228(3) 0.3472(2) 0.68404(11)
H14 H 0.6039 0.3984 0.7324
C13 C 0.6796(3) 0.4384(2) 0.62002(13)
H15 H 0.6998 0.5513 0.6255
C14 C 0.7074(3) 0.3648(2) 0.54701(11)
C15 C 0.6812(3) 0.1979(2) 0.53969(11)
H16 H 0.7011 0.1471 0.4914
C16 C 0.6253(2) 0.1067(2) 0.60462(10)
H17 H 0.6086 -0.0062 0.5995
C17 C 0.7853(5) 0.3935(3) 0.41011(15)
H18 H 0.8657 0.3181 0.4200
H19 H 0.8341 0.4765 0.3748
H20 H 0.6723 0.3368 0.3841
O3 O 0.4030(3) 0.6867(2) 0.81185(11)
H21 H 0.317(4) 0.640(4) 0.8332(18)
H22 H 0.495(5) 0.644(4) 0.834(2)
O4 O 0.1439(3) 0.61969(18) 0.92139(11)
H23 H 0.179(3) 0.579(3) 0.9616(15)
H24 H 0.030(4) 0.593(3) 0.9135(16)
loop_
_geom_bond_atom_site_label_1
_geom_bond_atom_site_label_2
_geom_bond_site_symmetry_1
_geom_bond_site_symmetry_2
O1 C14 1_555 1_555
O2 C6 1_555 1_555
N1 H1 1_555 1_555
H2 N1 1_555 1_555
N2 H3 1_555 1_555
N3 N2 1_555 1_555
N4 H4 1_555 1_555
N5 N4 1_555 1_555
C1 N1 1_555 1_555
C2 N3 1_555 1_555
H5 C2 1_555 1_555
C3 C2 1_555 1_555
C4 C3 1_555 1_555
H6 C4 1_555 1_555
C5 C4 1_555 1_555
H7 C5 1_555 1_555
C6 C5 1_555 1_555
C7 C6 1_555 1_555
H8 C7 1_555 1_555
C8 C3 1_555 1_555
H9 C8 1_555 1_555
C9 O2 1_555 1_555
H10 C9 1_555 1_555
H11 C9 1_555 1_555
H12 C9 1_555 1_555
C10 N5 1_555 1_555
H13 C10 1_555 1_555
C11 C10 1_555 1_555
C12 C11 1_555 1_555
H14 C12 1_555 1_555
C13 C12 1_555 1_555
H15 C13 1_555 1_555
C14 C13 1_555 1_555
C15 C14 1_555 1_555
H16 C15 1_555 1_555
C16 C11 1_555 1_555
H17 C16 1_555 1_555
C17 O1 1_555 1_555
H18 C17 1_555 1_555
H19 C17 1_555 1_555
H20 C17 1_555 1_555
O3 H21 1_555 1_555
H22 O3 1_555 1_555
O4 H23 1_555 1_555
H24 O4 1_555 1_555
N2 C1 1_555 1_555
N4 C1 1_555 1_555
C7 C8 1_555 1_555
C15 C16 1_555 1_555

#END
