
#######################################################################
#
#                 Cambridge Crystallographic Data Centre
#                                CCDC 
#
#######################################################################
#
# If this CIF has been generated from an entry in the Cambridge 
# Structural Database, then it will include bibliographic, chemical, 
# crystal, experimental, refinement or atomic coordinate data resulting 
# from the CCDC's data processing and validation procedures.
#
#######################################################################

data_SIXDEK
_chemical_formula_moiety         'C40 H36 F2 N4'
_chemical_name_systematic        
5,12-di-n-butyl-N,N'-bis(4-fluorophenyl)-5,12-dihydroquinolino[2,3-b]acridine-7,14-di-imine
_symmetry_cell_setting           triclinic
_symmetry_space_group_name_H-M   'P -1'
_symmetry_Int_Tables_number      2
_space_group_name_Hall           '-P 1'
loop_
_symmetry_equiv_pos_site_id
_symmetry_equiv_pos_as_xyz
1 x,y,z
2 -x,-y,-z
_cell_length_a                   7.1105(14)
_cell_length_b                   9.868(2)
_cell_length_c                   12.576(3)
_cell_angle_alpha                73.23(3)
_cell_angle_beta                 78.56(3)
_cell_angle_gamma                70.79(3)
_cell_volume                     792.605
_exptl_crystal_colour            red
_exptl_crystal_description       needle
_cell_formula_units_Z            1
loop_
_atom_site_label
_atom_site_type_symbol
_atom_site_fract_x
_atom_site_fract_y
_atom_site_fract_z
F1 F 1.15775(17) -0.19158(13) 0.03173(12)
N1 N -0.07131(16) 0.23519(12) 0.31033(9)
N2 N 0.46880(17) -0.09491(12) 0.32550(10)
C1 C 0.2139(2) 0.43773(15) 0.08033(12)
H1 H 0.1910 0.5288 0.0286
C2 C 0.4038(2) 0.33910(15) 0.08046(12)
H2 H 0.5082 0.3630 0.0287
C3 C 0.4371(2) 0.20538(14) 0.15762(11)
H3 H 0.5658 0.1400 0.1580
C4 C 0.28268(19) 0.16447(13) 0.23596(10)
C5 C 0.08855(19) 0.26610(14) 0.23469(10)
C6 C 0.0589(2) 0.40295(14) 0.15553(11)
H4 H -0.0680 0.4709 0.1543
C7 C 0.31683(18) 0.02194(13) 0.32019(10)
C8 C 0.15414(18) 0.01392(13) 0.41276(10)
C9 C -0.03605(19) 0.11869(13) 0.40473(10)
C10 C -0.18656(19) 0.10180(13) 0.49264(11)
H5 H -0.3128 0.1702 0.4878
C11 C -0.27834(19) 0.32393(15) 0.29234(11)
H6 H -0.3648 0.2601 0.3214
H7 H -0.2862 0.3606 0.2125
C12 C -0.3582(2) 0.45469(16) 0.34615(13)
H8 H -0.3452 0.4196 0.4255
H9 H -0.2779 0.5224 0.3140
C13 C -0.5762(3) 0.5368(2) 0.33003(17)
H10 H -0.6120 0.6279 0.3541
H11 H -0.5903 0.5633 0.2509
C14 C -0.7209(3) 0.4514(3) 0.3921(2)
H12 H -0.7054 0.3721 0.3584
H13 H -0.8554 0.5159 0.3890
H14 H -0.6945 0.4116 0.4687
C15 C 0.64054(19) -0.11523(13) 0.24725(12)
C16 C 0.8216(2) -0.12245(17) 0.27777(15)
H15 H 0.8259 -0.1107 0.3479
C17 C 0.9952(2) -0.14685(19) 0.20492(17)
H16 H 1.1158 -0.1490 0.2244
C18 C 0.9863(2) -0.16768(17) 0.10434(16)
C19 C 0.8133(3) -0.16725(17) 0.07265(15)
H17 H 0.8129 -0.1843 0.0037
C20 C 0.6383(2) -0.14092(16) 0.14496(13)
H18 H 0.5191 -0.1405 0.1248
F1A F -1.15775(17) 0.19158(13) 0.96827(12)
N1A N 0.07131(16) -0.23519(12) 0.68967(9)
N2A N -0.46880(17) 0.09491(12) 0.67450(10)
C1A C -0.2139(2) -0.43773(15) 0.91967(12)
H1A H -0.1910 -0.5288 0.9714
C2A C -0.4038(2) -0.33910(15) 0.91954(12)
H2A H -0.5082 -0.3630 0.9713
C3A C -0.4371(2) -0.20538(14) 0.84238(11)
H3A H -0.5658 -0.1400 0.8420
C4A C -0.28268(19) -0.16447(13) 0.76404(10)
C5A C -0.08855(19) -0.26610(14) 0.76531(10)
C6A C -0.0589(2) -0.40295(14) 0.84447(11)
H4A H 0.0680 -0.4709 0.8457
C7A C -0.31683(18) -0.02194(13) 0.67981(10)
C8A C -0.15414(18) -0.01392(13) 0.58724(10)
C9A C 0.03605(19) -0.11869(13) 0.59527(10)
C10A C 0.18656(19) -0.10180(13) 0.50736(11)
H5A H 0.3128 -0.1702 0.5122
C11A C 0.27834(19) -0.32393(15) 0.70766(11)
H6A H 0.3648 -0.2601 0.6786
H7A H 0.2862 -0.3606 0.7875
C12A C 0.3582(2) -0.45469(16) 0.65385(13)
H8A H 0.3452 -0.4196 0.5745
H9A H 0.2779 -0.5224 0.6860
C13A C 0.5762(3) -0.5368(2) 0.66997(17)
H10A H 0.6120 -0.6279 0.6459
H11A H 0.5903 -0.5633 0.7491
C14A C 0.7209(3) -0.4514(3) 0.6079(2)
H12A H 0.7054 -0.3721 0.6416
H13A H 0.8554 -0.5159 0.6110
H14A H 0.6945 -0.4116 0.5313
C15A C -0.64054(19) 0.11523(13) 0.75275(12)
C16A C -0.8216(2) 0.12245(17) 0.72223(15)
H15A H -0.8259 0.1107 0.6521
C17A C -0.9952(2) 0.14685(19) 0.79508(17)
H16A H -1.1158 0.1490 0.7756
C18A C -0.9863(2) 0.16768(17) 0.89566(16)
C19A C -0.8133(3) 0.16725(17) 0.92735(15)
H17A H -0.8129 0.1843 0.9963
C20A C -0.6383(2) 0.14092(16) 0.85504(13)
H18A H -0.5191 0.1405 0.8752
loop_
_geom_bond_atom_site_label_1
_geom_bond_atom_site_label_2
_geom_bond_site_symmetry_1
_geom_bond_site_symmetry_2
F1 C18 1_555 1_555
N1 C5 1_555 1_555
N2 C7 1_555 1_555
C1 H1 1_555 1_555
C2 C1 1_555 1_555
H2 C2 1_555 1_555
C3 C2 1_555 1_555
H3 C3 1_555 1_555
C4 C3 1_555 1_555
C5 C4 1_555 1_555
C6 C1 1_555 1_555
H4 C6 1_555 1_555
C7 C4 1_555 1_555
C8 C7 1_555 1_555
C9 N1 1_555 1_555
C10 C9 1_555 1_555
H5 C10 1_555 1_555
C11 N1 1_555 1_555
H6 C11 1_555 1_555
H7 C11 1_555 1_555
C12 C11 1_555 1_555
H8 C12 1_555 1_555
H9 C12 1_555 1_555
C13 C12 1_555 1_555
H10 C13 1_555 1_555
H11 C13 1_555 1_555
C14 C13 1_555 1_555
H12 C14 1_555 1_555
H13 C14 1_555 1_555
H14 C14 1_555 1_555
C15 N2 1_555 1_555
C16 C15 1_555 1_555
H15 C16 1_555 1_555
C17 C16 1_555 1_555
H16 C17 1_555 1_555
C18 C17 1_555 1_555
C19 C18 1_555 1_555
H17 C19 1_555 1_555
C20 C15 1_555 1_555
H18 C20 1_555 1_555
F1A C18A 1_555 1_555
N1A C5A 1_555 1_555
N2A C7A 1_555 1_555
C1A H1A 1_555 1_555
C2A C1A 1_555 1_555
H2A C2A 1_555 1_555
C3A C2A 1_555 1_555
H3A C3A 1_555 1_555
C4A C3A 1_555 1_555
C5A C4A 1_555 1_555
C6A C1A 1_555 1_555
H4A C6A 1_555 1_555
C7A C4A 1_555 1_555
C8A C10 1_555 1_555
C9A N1A 1_555 1_555
C10A C8 1_555 1_555
H5A C10A 1_555 1_555
C11A N1A 1_555 1_555
H6A C11A 1_555 1_555
H7A C11A 1_555 1_555
C12A C11A 1_555 1_555
H8A C12A 1_555 1_555
H9A C12A 1_555 1_555
C13A C12A 1_555 1_555
H10A C13A 1_555 1_555
H11A C13A 1_555 1_555
C14A C13A 1_555 1_555
H12A C14A 1_555 1_555
H13A C14A 1_555 1_555
H14A C14A 1_555 1_555
C15A N2A 1_555 1_555
C16A C15A 1_555 1_555
H15A C16A 1_555 1_555
C17A C16A 1_555 1_555
H16A C17A 1_555 1_555
C18A C17A 1_555 1_555
C19A C18A 1_555 1_555
H17A C19A 1_555 1_555
C20A C15A 1_555 1_555
H18A C20A 1_555 1_555
C5 C6 1_555 1_555
C8 C9 1_555 1_555
C19 C20 1_555 1_555
C5A C6A 1_555 1_555
C7A C8A 1_555 1_555
C8A C9A 1_555 1_555
C9A C10A 1_555 1_555
C19A C20A 1_555 1_555

#END
