
#######################################################################
#
#                 Cambridge Crystallographic Data Centre
#                                CCDC 
#
#######################################################################
#
# If this CIF has been generated from an entry in the Cambridge 
# Structural Database, then it will include bibliographic, chemical, 
# crystal, experimental, refinement or atomic coordinate data resulting 
# from the CCDC's data processing and validation procedures.
#
#######################################################################

data_SIXJAM
_chemical_formula_moiety         'C24 H19 N3 O2'
_chemical_name_systematic        
(4-((2-Methoxyphenyl)(phenyl)methylene)-4H-[1,2,3]triazolo[1,5-a]indol-3-yl)methanol
_symmetry_cell_setting           triclinic
_symmetry_space_group_name_H-M   'P -1'
_symmetry_Int_Tables_number      2
_space_group_name_Hall           '-P 1'
loop_
_symmetry_equiv_pos_site_id
_symmetry_equiv_pos_as_xyz
1 x,y,z
2 -x,-y,-z
_cell_length_a                   10.5567(5)
_cell_length_b                   13.3138(6)
_cell_length_c                   14.2940(6)
_cell_angle_alpha                106.350(2)
_cell_angle_beta                 93.234(2)
_cell_angle_gamma                90.079(2)
_cell_volume                     1924.39
_exptl_crystal_colour            brown
_exptl_crystal_description       parallelepiped
_cell_formula_units_Z            4
loop_
_atom_site_label
_atom_site_type_symbol
_atom_site_fract_x
_atom_site_fract_y
_atom_site_fract_z
O1 O 0.47645(19) 1.15115(18) 0.45536(16)
O2 O 0.0465(2) 1.36323(15) 0.51992(14)
N1 N 0.14057(18) 0.93765(15) 0.40151(14)
N2 N 0.2346(2) 0.88810(16) 0.43495(16)
N3 N 0.3217(2) 0.96134(17) 0.47379(16)
C1 C 0.0181(2) 0.90511(18) 0.35862(16)
C2 C -0.0372(3) 0.80736(19) 0.33575(19)
H1 H 0.0052 0.7509 0.3481
C3 C -0.1585(3) 0.7971(2) 0.2936(2)
H2 H -0.1998 0.7322 0.2770
C4 C -0.2195(3) 0.8814(2) 0.2758(2)
H3 H -0.3014 0.8722 0.2467
C5 C -0.1625(2) 0.9796(2) 0.29987(19)
H4 H -0.2053 1.0356 0.2869
C6 C -0.0404(2) 0.99359(17) 0.34372(17)
C7 C 0.0505(2) 1.08462(17) 0.37726(16)
C8 C 0.1642(2) 1.04167(18) 0.41639(16)
C9 C 0.2834(2) 1.05651(19) 0.46466(17)
C10 C 0.3677(2) 1.1496(2) 0.50774(19)
H5 H 0.3198 1.2123 0.5104
H6 H 0.3942 1.1511 0.5742
C11 C 0.0358(2) 1.18222(18) 0.36877(17)
C12 C -0.0861(2) 1.21777(17) 0.33159(17)
C13 C -0.0957(2) 1.2310(2) 0.23879(19)
H7 H -0.0254 1.2197 0.2010
C14 C -0.2087(3) 1.2608(2) 0.2020(2)
H8 H -0.2147 1.2683 0.1391
C15 C -0.3116(3) 1.2795(2) 0.2578(2)
H9 H -0.3875 1.2997 0.2327
C16 C -0.3040(2) 1.2685(2) 0.3506(2)
H10 H -0.3741 1.2820 0.3886
C17 C -0.1914(2) 1.2375(2) 0.3875(2)
H11 H -0.1862 1.2297 0.4503
C18 C 0.1429(2) 1.25939(19) 0.38572(18)
C19 C 0.2400(2) 1.2413(2) 0.3207(2)
H12 H 0.2404 1.1794 0.2703
C20 C 0.3358(3) 1.3160(3) 0.3315(3)
H13 H 0.4010 1.3041 0.2888
C21 C 0.3333(3) 1.4065(3) 0.4049(3)
H14 H 0.3973 1.4564 0.4111
C22 C 0.2399(3) 1.4268(2) 0.4700(3)
H15 H 0.2409 1.4892 0.5199
C23 C 0.1434(2) 1.3525(2) 0.4604(2)
C24 C 0.0491(4) 1.4499(3) 0.6052(2)
H16 H -0.0251 1.4474 0.6403
H17 H 0.0507 1.5138 0.5868
H18 H 0.1236 1.4469 0.6460
H19 H 0.519(3) 1.112(3) 0.466(3)
O3 O 0.1700(2) 1.04670(18) 0.09670(18)
H20 H 0.1197 1.0780 0.0697
O4 O 0.50803(19) 0.73602(15) 0.00038(14)
N4 N 0.02301(19) 0.72998(17) 0.07710(15)
N5 N -0.0682(2) 0.7755(2) 0.03607(18)
N6 N -0.0118(2) 0.85603(19) 0.01871(19)
C25 C 0.0264(2) 0.63822(19) 0.10697(17)
C26 C -0.0708(3) 0.5693(2) 0.1057(2)
H21 H -0.1535 0.5803 0.0852
C27 C -0.0392(3) 0.4829(2) 0.1364(2)
H22 H -0.1020 0.4338 0.1365
C28 C 0.0840(3) 0.4677(2) 0.1671(2)
H23 H 0.1027 0.4079 0.1862
C29 C 0.1791(3) 0.5389(2) 0.1698(2)
H24 H 0.2612 0.5285 0.1922
C30 C 0.1513(2) 0.62699(18) 0.13877(17)
C31 C 0.2295(2) 0.71740(18) 0.12931(17)
C32 C 0.1386(2) 0.77947(18) 0.08786(17)
C33 C 0.1147(2) 0.8627(2) 0.0494(2)
C34 C 0.1938(3) 0.9492(2) 0.0330(2)
H25 H 0.2828 0.9335 0.0410
H26 H 0.1772 0.9520 -0.0336
C35 C 0.3537(2) 0.73689(18) 0.15226(17)
C36 C 0.4348(2) 0.66735(19) 0.1953(2)
C37 C 0.4428(3) 0.6830(2) 0.2947(2)
H27 H 0.3969 0.7363 0.3344
C38 C 0.5179(4) 0.6206(3) 0.3362(3)
H28 H 0.5223 0.6316 0.4035
C39 C 0.5850(4) 0.5439(3) 0.2792(4)
H29 H 0.6351 0.5017 0.3077
C40 C 0.5807(3) 0.5268(3) 0.1805(4)
H30 H 0.6279 0.4735 0.1422
C41 C 0.5058(3) 0.5889(2) 0.1372(3)
H31 H 0.5033 0.5781 0.0699
C42 C 0.4199(2) 0.83306(17) 0.14544(17)
C43 C 0.4106(3) 0.9266(2) 0.2181(2)
H32 H 0.3577 0.9299 0.2687
C44 C 0.4784(3) 1.0151(2) 0.2167(2)
H33 H 0.4712 1.0773 0.2659
C45 C 0.5557(3) 1.0100(2) 0.1429(2)
H34 H 0.6008 1.0697 0.1417
C46 C 0.5688(3) 0.9189(2) 0.0701(2)
H35 H 0.6224 0.9169 0.0202
C47 C 0.5020(2) 0.83002(19) 0.07118(18)
C48 C 0.6099(4) 0.7226(3) -0.0625(3)
H36 H 0.6035 0.6543 -0.1085
H37 H 0.6890 0.7296 -0.0246
H38 H 0.6060 0.7749 -0.0971
loop_
_geom_bond_atom_site_label_1
_geom_bond_atom_site_label_2
_geom_bond_site_symmetry_1
_geom_bond_site_symmetry_2
O1 C10 1_555 1_555
O2 C23 1_555 1_555
N1 N2 1_555 1_555
N2 N3 1_555 1_555
N3 C9 1_555 1_555
C1 N1 1_555 1_555
C2 C1 1_555 1_555
H1 C2 1_555 1_555
C3 C2 1_555 1_555
H2 C3 1_555 1_555
C4 C3 1_555 1_555
H3 C4 1_555 1_555
C5 C4 1_555 1_555
H4 C5 1_555 1_555
C6 C1 1_555 1_555
C7 C6 1_555 1_555
C8 N1 1_555 1_555
C9 C8 1_555 1_555
C10 C9 1_555 1_555
H5 C10 1_555 1_555
H6 C10 1_555 1_555
C11 C7 1_555 1_555
C12 C11 1_555 1_555
C13 C12 1_555 1_555
H7 C13 1_555 1_555
C14 C13 1_555 1_555
H8 C14 1_555 1_555
C15 C14 1_555 1_555
H9 C15 1_555 1_555
C16 C15 1_555 1_555
H10 C16 1_555 1_555
C17 C12 1_555 1_555
H11 C17 1_555 1_555
C18 C11 1_555 1_555
C19 C18 1_555 1_555
H12 C19 1_555 1_555
C20 C19 1_555 1_555
H13 C20 1_555 1_555
C21 C20 1_555 1_555
H14 C21 1_555 1_555
C22 C21 1_555 1_555
H15 C22 1_555 1_555
C23 C18 1_555 1_555
C24 O2 1_555 1_555
H16 C24 1_555 1_555
H17 C24 1_555 1_555
H18 C24 1_555 1_555
H19 O1 1_555 1_555
O3 H20 1_555 1_555
O4 C47 1_555 1_555
N4 N5 1_555 1_555
N5 N6 1_555 1_555
N6 C33 1_555 1_555
C25 N4 1_555 1_555
C26 C25 1_555 1_555
H21 C26 1_555 1_555
C27 C26 1_555 1_555
H22 C27 1_555 1_555
C28 C27 1_555 1_555
H23 C28 1_555 1_555
C29 C28 1_555 1_555
H24 C29 1_555 1_555
C30 C25 1_555 1_555
C31 C30 1_555 1_555
C32 N4 1_555 1_555
C33 C32 1_555 1_555
C34 O3 1_555 1_555
H25 C34 1_555 1_555
H26 C34 1_555 1_555
C35 C31 1_555 1_555
C36 C35 1_555 1_555
C37 C36 1_555 1_555
H27 C37 1_555 1_555
C38 C37 1_555 1_555
H28 C38 1_555 1_555
C39 C38 1_555 1_555
H29 C39 1_555 1_555
C40 C39 1_555 1_555
H30 C40 1_555 1_555
C41 C36 1_555 1_555
H31 C41 1_555 1_555
C42 C35 1_555 1_555
C43 C42 1_555 1_555
H32 C43 1_555 1_555
C44 C43 1_555 1_555
H33 C44 1_555 1_555
C45 C44 1_555 1_555
H34 C45 1_555 1_555
C46 C45 1_555 1_555
H35 C46 1_555 1_555
C47 C42 1_555 1_555
C48 O4 1_555 1_555
H36 C48 1_555 1_555
H37 C48 1_555 1_555
H38 C48 1_555 1_555
C5 C6 1_555 1_555
C7 C8 1_555 1_555
C16 C17 1_555 1_555
C22 C23 1_555 1_555
C29 C30 1_555 1_555
C31 C32 1_555 1_555
C33 C34 1_555 1_555
C40 C41 1_555 1_555
C46 C47 1_555 1_555

#END
