
#######################################################################
#
#                 Cambridge Crystallographic Data Centre
#                                CCDC 
#
#######################################################################
#
# If this CIF has been generated from an entry in the Cambridge 
# Structural Database, then it will include bibliographic, chemical, 
# crystal, experimental, refinement or atomic coordinate data resulting 
# from the CCDC's data processing and validation procedures.
#
#######################################################################

data_SIXWUT
_chemical_formula_moiety         'C18 H16 N2 O1'
_chemical_name_systematic        
1,1-Dimethyl-2-phenyl-1,2-dihydro-3H-imidazo[1,5-a]indol-3-one
_symmetry_cell_setting           orthorhombic
_symmetry_space_group_name_H-M   'P 21 21 21'
_symmetry_Int_Tables_number      19
_space_group_name_Hall           'P 2ac 2ab'
loop_
_symmetry_equiv_pos_site_id
_symmetry_equiv_pos_as_xyz
1 x,y,z
2 1/2-x,-y,1/2+z
3 -x,1/2+y,1/2-z
4 1/2+x,1/2-y,-z
_cell_length_a                   7.1082(15)
_cell_length_b                   9.855(2)
_cell_length_c                   20.808(5)
_cell_angle_alpha                90
_cell_angle_beta                 90
_cell_angle_gamma                90
_cell_volume                     1457.63
_exptl_crystal_colour            colorless
_exptl_crystal_description       plate
_cell_formula_units_Z            4
loop_
_atom_site_label
_atom_site_type_symbol
_atom_site_fract_x
_atom_site_fract_y
_atom_site_fract_z
C1 C 0.4178(3) 0.2712(2) 0.11078(10)
O1 O 0.2530(2) 0.23872(15) 0.10669(7)
N1 N 0.5030(2) 0.38574(18) 0.08894(9)
C2 C 0.7091(3) 0.3928(2) 0.10364(11)
C3 C 0.7310(3) 0.2604(2) 0.13926(10)
N2 N 0.5588(2) 0.19532(18) 0.13986(8)
C4 C 0.8599(3) 0.1837(2) 0.16981(10)
H1 H 0.9887 0.2054 0.1765
C5 C 0.8241(3) 0.3947(2) 0.04168(11)
H2 H 0.7919 0.3152 0.0156
H3 H 0.9585 0.3925 0.0522
H4 H 0.7957 0.4775 0.0175
C6 C 0.7538(4) 0.5154(2) 0.14554(11)
H5 H 0.7379 0.5986 0.1203
H6 H 0.8841 0.5093 0.1607
H7 H 0.6684 0.5171 0.1825
C7 C 0.7638(3) 0.0619(2) 0.19047(10)
C8 C 0.5749(3) 0.0715(2) 0.17113(10)
C9 C 0.4436(3) -0.0307(2) 0.18094(10)
H8 H 0.3168 -0.0216 0.1671
C10 C 0.5068(4) -0.1466(2) 0.21191(11)
H9 H 0.4213 -0.2189 0.2196
C11 C 0.6925(4) -0.1594(2) 0.23195(11)
H10 H 0.7312 -0.2403 0.2530
C12 C 0.8219(4) -0.0571(2) 0.22194(10)
H11 H 0.9483 -0.0669 0.2361
C13 C 0.3961(3) 0.4913(2) 0.05884(10)
C14 C 0.3019(3) 0.5843(2) 0.09680(11)
H12 H 0.3113 0.5798 0.1423
C15 C 0.1935(3) 0.6843(3) 0.06789(12)
H13 H 0.1283 0.7485 0.0937
C16 C 0.1803(3) 0.6906(2) 0.00184(12)
H14 H 0.1056 0.7590 -0.0178
C17 C 0.2747(3) 0.5985(2) -0.03572(12)
H15 H 0.2652 0.6035 -0.0812
C18 C 0.3840(3) 0.4979(2) -0.00747(10)
H16 H 0.4498 0.4344 -0.0334
loop_
_geom_bond_atom_site_label_1
_geom_bond_atom_site_label_2
_geom_bond_site_symmetry_1
_geom_bond_site_symmetry_2
C1 O1 1_555 1_555
N1 C1 1_555 1_555
C2 N1 1_555 1_555
C3 C2 1_555 1_555
N2 C1 1_555 1_555
C4 C3 1_555 1_555
H1 C4 1_555 1_555
C5 C2 1_555 1_555
H2 C5 1_555 1_555
H3 C5 1_555 1_555
H4 C5 1_555 1_555
C6 C2 1_555 1_555
H5 C6 1_555 1_555
H6 C6 1_555 1_555
H7 C6 1_555 1_555
C7 C4 1_555 1_555
C8 N2 1_555 1_555
C9 C8 1_555 1_555
H8 C9 1_555 1_555
C10 C9 1_555 1_555
H9 C10 1_555 1_555
C11 C10 1_555 1_555
H10 C11 1_555 1_555
C12 C7 1_555 1_555
H11 C12 1_555 1_555
C13 N1 1_555 1_555
C14 C13 1_555 1_555
H12 C14 1_555 1_555
C15 C14 1_555 1_555
H13 C15 1_555 1_555
C16 C15 1_555 1_555
H14 C16 1_555 1_555
C17 C16 1_555 1_555
H15 C17 1_555 1_555
C18 C13 1_555 1_555
H16 C18 1_555 1_555
C3 N2 1_555 1_555
C7 C8 1_555 1_555
C11 C12 1_555 1_555
C17 C18 1_555 1_555

#END
