
#######################################################################
#
#                 Cambridge Crystallographic Data Centre
#                                CCDC 
#
#######################################################################
#
# If this CIF has been generated from an entry in the Cambridge 
# Structural Database, then it will include bibliographic, chemical, 
# crystal, experimental, refinement or atomic coordinate data resulting 
# from the CCDC's data processing and validation procedures.
#
#######################################################################

data_SIXXON
_chemical_formula_moiety         'C5 H4 N4 S4'
_chemical_name_systematic        
2,2'-(Methylene-dithio)-bis(1,3,4-thiadiazole)
_symmetry_cell_setting           monoclinic
_symmetry_space_group_name_H-M   'C c'
_symmetry_Int_Tables_number      9
_space_group_name_Hall           'C -2yc'
loop_
_symmetry_equiv_pos_site_id
_symmetry_equiv_pos_as_xyz
1 x,y,z
2 x,-y,1/2+z
3 1/2+x,1/2+y,z
4 1/2+x,1/2-y,1/2+z
_cell_length_a                   4.1502(5)
_cell_length_b                   27.381(3)
_cell_length_c                   8.3281(11)
_cell_angle_alpha                90
_cell_angle_beta                 96.673(2)
_cell_angle_gamma                90
_cell_volume                     939.966
_chemical_melting_point          '122.5-124.3 deg.C'
_cell_formula_units_Z            4
_exptl_crystal_recrystallization_method 'chloroform/diethyl ether'
loop_
_atom_site_label
_atom_site_type_symbol
_atom_site_fract_x
_atom_site_fract_y
_atom_site_fract_z
S1 S 0.53681(13) 0.408373(19) 0.70638(7)
S2 S 0.13128(13) 0.369741(19) 0.41180(7)
S3 S 0.08126(12) 0.396138(17) 0.05406(6)
S4 S 0.12778(15) 0.30609(2) -0.15196(8)
N1 N 0.3227(7) 0.49393(8) 0.6393(3)
N2 N 0.1780(6) 0.46437(7) 0.5159(2)
N3 N -0.0948(6) 0.30393(7) 0.1226(2)
N4 N -0.1042(7) 0.25607(8) 0.0659(3)
C1 C 0.5120(7) 0.47000(8) 0.7445(3)
H1 H 0.6265 0.4848 0.8341
C2 C 0.2678(5) 0.41902(7) 0.5347(2)
C3 C -0.0883(6) 0.40231(9) 0.2421(3)
H2 H -0.3102 0.3905 0.2271
H3 H -0.0947 0.4367 0.2693
C4 C 0.0206(5) 0.33352(7) 0.0218(3)
C5 C 0.0052(8) 0.25227(9) -0.0733(4)
H4 H 0.0164 0.2225 -0.1264
loop_
_geom_bond_atom_site_label_1
_geom_bond_atom_site_label_2
_geom_bond_site_symmetry_1
_geom_bond_site_symmetry_2
S1 C1 1_555 1_555
S2 C2 1_555 1_555
S3 C3 1_555 1_555
S4 C4 1_555 1_555
N1 N2 1_555 1_555
N2 C2 1_555 1_555
N3 N4 1_555 1_555
N4 C5 1_555 1_555
C1 N1 1_555 1_555
H1 C1 1_555 1_555
C2 S1 1_555 1_555
C3 S2 1_555 1_555
H2 C3 1_555 1_555
H3 C3 1_555 1_555
C4 S3 1_555 1_555
C5 S4 1_555 1_555
H4 C5 1_555 1_555
N3 C4 1_555 1_555

#END
