
#######################################################################
#
#                 Cambridge Crystallographic Data Centre
#                                CCDC 
#
#######################################################################
#
# If this CIF has been generated from an entry in the Cambridge 
# Structural Database, then it will include bibliographic, chemical, 
# crystal, experimental, refinement or atomic coordinate data resulting 
# from the CCDC's data processing and validation procedures.
#
#######################################################################

data_SIXYIK
_chemical_formula_moiety         'C21 H23 Cl1 N2 O6 S1'
_chemical_name_systematic        
'diethyl 7-chloro-1-(2,5-dioxopyrrolidin-1-yl)-3a-methyl-1,2-dihydropyrrolo[2,1-b][1,3]benzothiazole-3,3(3aH)-dicarboxylate'
_symmetry_cell_setting           orthorhombic
_symmetry_space_group_name_H-M   'P 21 21 21'
_symmetry_Int_Tables_number      19
_space_group_name_Hall           'P 2ac 2ab'
loop_
_symmetry_equiv_pos_site_id
_symmetry_equiv_pos_as_xyz
1 x,y,z
2 1/2-x,-y,1/2+z
3 -x,1/2+y,1/2-z
4 1/2+x,1/2-y,-z
_cell_length_a                   10.7346(2)
_cell_length_b                   10.9557(2)
_cell_length_c                   18.1904(4)
_cell_angle_alpha                90
_cell_angle_beta                 90
_cell_angle_gamma                90
_cell_volume                     2139.28
_exptl_crystal_colour            colorless
_exptl_crystal_description       block
_cell_formula_units_Z            4
loop_
_atom_site_label
_atom_site_type_symbol
_atom_site_fract_x
_atom_site_fract_y
_atom_site_fract_z
Cl1 Cl 0.81614(8) 0.65655(7) 0.75237(5)
S1 S 0.61001(8) 0.41415(7) 0.46666(4)
O1 O 0.2179(2) 0.5583(2) 0.36361(14)
O2 O 0.3865(2) 0.4413(2) 0.57594(13)
O3 O 0.2678(3) 0.3468(2) 0.49167(14)
O4 O 0.3684(3) 0.4176(2) 0.34954(13)
O5 O 0.3627(2) 0.8096(2) 0.67895(14)
O6 O 0.5132(3) 0.8883(2) 0.44898(15)
N1 N 0.4395(3) 0.8204(3) 0.56114(16)
N2 N 0.5438(3) 0.6345(3) 0.51843(15)
C1 C 0.3096(3) 0.5069(3) 0.3849(2)
C2 C 0.6710(3) 0.6425(3) 0.63140(19)
H1 H 0.643390 0.720399 0.643591
C3 C 0.6286(3) 0.5844(3) 0.56826(18)
C4 C 0.7555(3) 0.5815(3) 0.67568(18)
C5 C 0.3362(3) 0.4289(3) 0.50935(19)
C6 C 0.7978(4) 0.4650(3) 0.6593(2)
H2 H 0.854376 0.426053 0.690089
C7 C 0.4296(3) 0.6892(3) 0.5476(2)
H3 H 0.409034 0.648730 0.594074
C8 C 0.3292(3) 0.6572(3) 0.49134(19)
H4 H 0.323670 0.719408 0.453534
H5 H 0.248535 0.648719 0.514809
C9 C 0.7548(3) 0.4071(3) 0.59621(19)
H6 H 0.780984 0.328303 0.585045
C10 C 0.5167(3) 0.5551(3) 0.45469(19)
C11 C 0.4045(3) 0.8694(3) 0.6291(2)
C12 C 0.4794(3) 0.9088(3) 0.5116(2)
C13 C 0.3728(3) 0.5344(3) 0.45858(18)
C14 C 0.6729(3) 0.4672(3) 0.5502(2)
C15 C 0.4729(4) 1.0318(3) 0.5489(2)
H7 H 0.416144 1.085669 0.523027
H8 H 0.554541 1.069670 0.550533
C16 C 0.5559(4) 0.6178(3) 0.3829(2)
H9 H 0.639878 0.647005 0.387415
H10 H 0.501240 0.685293 0.373202
H11 H 0.551098 0.560426 0.343105
C17 C 0.3696(4) 0.3369(3) 0.6251(2)
H12 H 0.400608 0.263018 0.602088
H13 H 0.281991 0.325766 0.636248
C18 C 0.4253(4) 1.0056(3) 0.6267(2)
H14 H 0.486435 1.030011 0.663149
H15 H 0.348193 1.049019 0.636044
C19 C 0.3509(4) 0.4537(4) 0.2173(2)
H16 H 0.309407 0.426593 0.173454
H17 H 0.439413 0.447311 0.210678
H18 H 0.329145 0.537190 0.226883
C20 C 0.3114(4) 0.3754(4) 0.2811(2)
H19 H 0.221438 0.377956 0.285817
H20 H 0.335687 0.291512 0.271997
C21 C 0.4413(4) 0.3634(4) 0.6940(2)
H21 H 0.528237 0.370749 0.682584
H22 H 0.429365 0.298097 0.728498
H23 H 0.412036 0.438446 0.715179
loop_
_geom_bond_atom_site_label_1
_geom_bond_atom_site_label_2
_geom_bond_site_symmetry_1
_geom_bond_site_symmetry_2
Cl1 C4 1_555 1_555
S1 C10 1_555 1_555
O1 C1 1_555 1_555
O2 C5 1_555 1_555
O3 C5 1_555 1_555
O4 C1 1_555 1_555
O5 C11 1_555 1_555
O6 C12 1_555 1_555
N1 C7 1_555 1_555
N2 C3 1_555 1_555
C1 C13 1_555 1_555
C2 H1 1_555 1_555
C3 C2 1_555 1_555
C4 C2 1_555 1_555
C5 C13 1_555 1_555
C6 C4 1_555 1_555
H2 C6 1_555 1_555
C7 N2 1_555 1_555
H3 C7 1_555 1_555
C8 C7 1_555 1_555
H4 C8 1_555 1_555
H5 C8 1_555 1_555
C9 C6 1_555 1_555
H6 C9 1_555 1_555
C10 N2 1_555 1_555
C11 N1 1_555 1_555
C12 N1 1_555 1_555
C13 C8 1_555 1_555
C14 S1 1_555 1_555
C15 C12 1_555 1_555
H7 C15 1_555 1_555
H8 C15 1_555 1_555
C16 C10 1_555 1_555
H9 C16 1_555 1_555
H10 C16 1_555 1_555
H11 C16 1_555 1_555
C17 O2 1_555 1_555
H12 C17 1_555 1_555
H13 C17 1_555 1_555
C18 C11 1_555 1_555
H14 C18 1_555 1_555
H15 C18 1_555 1_555
C19 H16 1_555 1_555
H17 C19 1_555 1_555
H18 C19 1_555 1_555
C20 O4 1_555 1_555
H19 C20 1_555 1_555
H20 C20 1_555 1_555
C21 C17 1_555 1_555
H21 C21 1_555 1_555
H22 C21 1_555 1_555
H23 C21 1_555 1_555
C3 C14 1_555 1_555
C9 C14 1_555 1_555
C10 C13 1_555 1_555
C15 C18 1_555 1_555
C19 C20 1_555 1_555

#END
