
#######################################################################
#
#                 Cambridge Crystallographic Data Centre
#                                CCDC 
#
#######################################################################
#
# If this CIF has been generated from an entry in the Cambridge 
# Structural Database, then it will include bibliographic, chemical, 
# crystal, experimental, refinement or atomic coordinate data resulting 
# from the CCDC's data processing and validation procedures.
#
#######################################################################

data_SIZGEP
_chemical_formula_moiety         'C25 H20 Br1 N1 O2'
_chemical_name_systematic        
"ethyl 3-(4-bromophenyl)-2'-phenylspiro[cyclopropane-1,3'-indole]-2-carboxylate"
_symmetry_cell_setting           orthorhombic
_symmetry_space_group_name_H-M   'P 21 21 21'
_symmetry_Int_Tables_number      19
_space_group_name_Hall           'P 2ac 2ab'
loop_
_symmetry_equiv_pos_site_id
_symmetry_equiv_pos_as_xyz
1 x,y,z
2 1/2+x,1/2-y,-z
3 -x,1/2+y,1/2-z
4 1/2-x,-y,1/2+z
_cell_length_a                   8.5610(18)
_cell_length_b                   11.369(2)
_cell_length_c                   21.080(4)
_cell_angle_alpha                90
_cell_angle_beta                 90
_cell_angle_gamma                90
_cell_volume                     2051.72
_exptl_crystal_colour            colorless
_exptl_crystal_description       plate
_cell_formula_units_Z            4
loop_
_atom_site_label
_atom_site_type_symbol
_atom_site_fract_x
_atom_site_fract_y
_atom_site_fract_z
Br1 Br 1.05830(5) -0.15562(4) 0.60995(2)
N1 N 0.3529(4) 0.0420(3) 0.84440(18)
O1 O 0.8328(4) -0.0370(3) 1.00464(15)
O2 O 0.7953(3) 0.1589(3) 0.99489(13)
C1 C 0.7552(4) -0.0702(3) 0.8710(2)
H1 H 0.7720 -0.1386 0.9000
C2 C 0.6001(4) -0.0044(3) 0.8838(2)
C3 C 0.7602(4) 0.0453(4) 0.90434(19)
H2 H 0.7999 0.1129 0.8786
C4 C 0.4811(4) -0.0489(3) 0.9291(2)
C5 C 0.4880(5) -0.1110(4) 0.9858(2)
H3 H 0.5853 -0.1337 1.0037
C6 C 0.3474(5) -0.1388(4) 1.0156(2)
H4 H 0.3493 -0.1813 1.0544
C7 C 0.2055(5) -0.1061(4) 0.9900(2)
H5 H 0.1115 -0.1256 1.0116
C8 C 0.1989(5) -0.0449(4) 0.9329(2)
H6 H 0.1014 -0.0231 0.9149
C9 C 0.3370(5) -0.0167(4) 0.9034(2)
C10 C 0.5016(5) 0.0506(4) 0.8326(2)
C11 C 0.5549(5) 0.1001(4) 0.7714(2)
C12 C 0.6578(5) 0.1938(4) 0.7663(2)
H7 H 0.6995 0.2285 0.8037
C13 C 0.7009(6) 0.2377(4) 0.7070(2)
H8 H 0.7708 0.3024 0.7042
C14 C 0.6426(6) 0.1878(4) 0.6531(2)
H9 H 0.6724 0.2175 0.6128
C15 C 0.5407(7) 0.0945(4) 0.6571(2)
H10 H 0.5010 0.0597 0.6194
C16 C 0.4954(5) 0.0507(4) 0.7159(2)
H11 H 0.4238 -0.0130 0.7183
C17 C 0.8243(5) -0.0876(4) 0.8070(2)
C18 C 0.9378(5) -0.0120(4) 0.7833(2)
H12 H 0.9695 0.0537 0.8081
C19 C 1.0058(5) -0.0301(4) 0.7246(2)
H13 H 1.0816 0.0231 0.7084
C20 C 0.9603(5) -0.1280(4) 0.6900(2)
C21 C 0.8500(5) -0.2052(4) 0.7120(2)
H14 H 0.8204 -0.2716 0.6875
C22 C 0.7824(5) -0.1849(4) 0.7705(2)
H15 H 0.7061 -0.2382 0.7862
C23 C 0.8001(5) 0.0484(4) 0.9732(2)
C24 C 0.8361(5) 0.1748(4) 1.0612(2)
H16 H 0.7987 0.1066 1.0861
H17 H 0.7843 0.2464 1.0778
C25 C 1.0109(6) 0.1865(5) 1.0685(3)
H18 H 1.0616 0.1142 1.0538
H19 H 1.0366 0.1998 1.1132
H20 H 1.0480 0.2531 1.0431
loop_
_geom_bond_atom_site_label_1
_geom_bond_atom_site_label_2
_geom_bond_site_symmetry_1
_geom_bond_site_symmetry_2
Br1 C20 1_555 1_555
N1 C9 1_555 1_555
O1 C23 1_555 1_555
O2 C23 1_555 1_555
C1 H1 1_555 1_555
C2 C1 1_555 1_555
C3 C1 1_555 1_555
H2 C3 1_555 1_555
C4 C2 1_555 1_555
C5 C4 1_555 1_555
H3 C5 1_555 1_555
C6 C5 1_555 1_555
H4 C6 1_555 1_555
C7 C6 1_555 1_555
H5 C7 1_555 1_555
C8 C7 1_555 1_555
H6 C8 1_555 1_555
C9 C4 1_555 1_555
C10 N1 1_555 1_555
C11 C10 1_555 1_555
C12 C11 1_555 1_555
H7 C12 1_555 1_555
C13 C12 1_555 1_555
H8 C13 1_555 1_555
C14 C13 1_555 1_555
H9 C14 1_555 1_555
C15 C14 1_555 1_555
H10 C15 1_555 1_555
C16 C11 1_555 1_555
H11 C16 1_555 1_555
C17 C1 1_555 1_555
C18 C17 1_555 1_555
H12 C18 1_555 1_555
C19 C18 1_555 1_555
H13 C19 1_555 1_555
C20 C19 1_555 1_555
C21 C20 1_555 1_555
H14 C21 1_555 1_555
C22 C17 1_555 1_555
H15 C22 1_555 1_555
C23 C3 1_555 1_555
C24 O2 1_555 1_555
H16 C24 1_555 1_555
H17 C24 1_555 1_555
C25 C24 1_555 1_555
H18 C25 1_555 1_555
H19 C25 1_555 1_555
H20 C25 1_555 1_555
C2 C3 1_555 1_555
C2 C10 1_555 1_555
C8 C9 1_555 1_555
C15 C16 1_555 1_555
C21 C22 1_555 1_555

#END
