
#######################################################################
#
#                 Cambridge Crystallographic Data Centre
#                                CCDC 
#
#######################################################################
#
# If this CIF has been generated from an entry in the Cambridge 
# Structural Database, then it will include bibliographic, chemical, 
# crystal, experimental, refinement or atomic coordinate data resulting 
# from the CCDC's data processing and validation procedures.
#
#######################################################################

data_SIZHER
_chemical_formula_moiety         'C14 H11 I2 N1 O1 S1'
_chemical_name_systematic        
5-ethyl-7,9-bis(iodo)-5\l^6^-dibenzo[c,e][1,2]thiazin-5-one
_symmetry_cell_setting           monoclinic
_symmetry_space_group_name_H-M   'P 21/c'
_symmetry_Int_Tables_number      14
_space_group_name_Hall           '-P 2ybc'
loop_
_symmetry_equiv_pos_site_id
_symmetry_equiv_pos_as_xyz
1 x,y,z
2 -x,1/2+y,1/2-z
3 -x,-y,-z
4 x,1/2-y,1/2+z
_cell_length_a                   15.4188(3)
_cell_length_b                   5.00910(10)
_cell_length_c                   20.2178(3)
_cell_angle_alpha                90
_cell_angle_beta                 99.157(2)
_cell_angle_gamma                90
_cell_volume                     1541.61
_exptl_crystal_colour            yellow
_exptl_crystal_description       block
_cell_formula_units_Z            4
loop_
_atom_site_label
_atom_site_type_symbol
_atom_site_fract_x
_atom_site_fract_y
_atom_site_fract_z
I1 I 0.54003(4) -0.24759(13) 0.64450(3)
I2 I 0.22523(4) -0.05093(14) 0.77555(2)
S1 S 0.12109(11) 0.4278(4) 0.58456(8)
O1 O 0.0599(4) 0.2517(10) 0.5432(3)
N1 N 0.1776(4) 0.3127(14) 0.6483(3)
C1 C 0.1936(5) 0.5657(14) 0.5352(3)
C2 C 0.1630(6) 0.7602(15) 0.4875(3)
H1 H 0.106087 0.826135 0.483897
C3 C 0.2196(6) 0.853(2) 0.4455(4)
H2 H 0.201122 0.982510 0.413497
C4 C 0.3035(6) 0.7494(16) 0.4519(4)
H3 H 0.341380 0.811837 0.423874
C5 C 0.3328(5) 0.5557(17) 0.4989(3)
H4 H 0.389646 0.489942 0.501744
C6 C 0.2774(5) 0.4560(15) 0.5427(3)
C7 C 0.3091(5) 0.2532(14) 0.5941(3)
C8 C 0.3884(5) 0.1184(17) 0.5943(3)
H5 H 0.421073 0.150540 0.560232
C9 C 0.4189(5) -0.0610(16) 0.6440(4)
C10 C 0.3711(5) -0.1139(18) 0.6944(4)
H6 H 0.391917 -0.234883 0.728123
C11 C 0.2928(5) 0.0131(16) 0.6944(3)
C12 C 0.2575(5) 0.1958(14) 0.6441(3)
C13 C 0.0601(6) 0.6901(15) 0.6137(4)
H7 H 0.099897 0.823663 0.636082
H8 H 0.023399 0.774522 0.576047
C14 C 0.0028(7) 0.580(2) 0.6622(5)
H9 H -0.038062 0.453082 0.639385
H10 H -0.028832 0.723611 0.678867
H11 H 0.039269 0.493760 0.698977
loop_
_geom_bond_atom_site_label_1
_geom_bond_atom_site_label_2
_geom_bond_site_symmetry_1
_geom_bond_site_symmetry_2
I1 C9 1_555 1_555
I2 C11 1_555 1_555
S1 O1 1_555 1_555
N1 S1 1_555 1_555
C1 S1 1_555 1_555
C2 C1 1_555 1_555
H1 C2 1_555 1_555
C3 C2 1_555 1_555
H2 C3 1_555 1_555
C4 C3 1_555 1_555
H3 C4 1_555 1_555
C5 C4 1_555 1_555
H4 C5 1_555 1_555
C6 C1 1_555 1_555
C7 C6 1_555 1_555
C8 C7 1_555 1_555
H5 C8 1_555 1_555
C9 C8 1_555 1_555
C10 C9 1_555 1_555
H6 C10 1_555 1_555
C11 C10 1_555 1_555
C12 N1 1_555 1_555
C13 S1 1_555 1_555
H7 C13 1_555 1_555
H8 C13 1_555 1_555
C14 C13 1_555 1_555
H9 C14 1_555 1_555
H10 C14 1_555 1_555
H11 C14 1_555 1_555
C5 C6 1_555 1_555
C7 C12 1_555 1_555
C11 C12 1_555 1_555

#END
