
#######################################################################
#
#                 Cambridge Crystallographic Data Centre
#                                CCDC 
#
#######################################################################
#
# If this CIF has been generated from an entry in the Cambridge 
# Structural Database, then it will include bibliographic, chemical, 
# crystal, experimental, refinement or atomic coordinate data resulting 
# from the CCDC's data processing and validation procedures.
#
#######################################################################

data_SIZHEP
_chemical_formula_moiety         'C18 H33 P1 Te1'
_chemical_name_systematic        'Tricyclohexylphosphine telluride'
_symmetry_cell_setting           triclinic
_symmetry_space_group_name_H-M   'P -1'
_symmetry_Int_Tables_number      2
_space_group_name_Hall           '-P 1'
loop_
_symmetry_equiv_pos_site_id
_symmetry_equiv_pos_as_xyz
1 x,y,z
2 -x,-y,-z
_cell_length_a                   7.5321(5)
_cell_length_b                   11.0005(7)
_cell_length_c                   11.6752(9)
_cell_angle_alpha                103.579(2)
_cell_angle_beta                 100.226(2)
_cell_angle_gamma                93.186(2)
_cell_volume                     920.597
_exptl_crystal_colour            colorless
_exptl_crystal_description       shard
_cell_formula_units_Z            2
loop_
_atom_site_label
_atom_site_type_symbol
_atom_site_fract_x
_atom_site_fract_y
_atom_site_fract_z
Te1 Te 0.21479(2) 0.737677(17) 0.941451(17)
P1 P -0.09774(9) 0.71151(6) 0.85522(6)
C1 C -0.1700(4) 0.5503(2) 0.7624(2)
H1 H -0.1668 0.4962 0.8205
C2 C -0.0402(4) 0.4980(3) 0.6799(3)
H2 H -0.0417 0.5452 0.6173
H3 H 0.0849 0.5088 0.7274
C3 C -0.0965(4) 0.3589(3) 0.6207(3)
H4 H -0.0130 0.3268 0.5666
H5 H -0.0871 0.3113 0.6833
C4 C -0.2894(4) 0.3380(3) 0.5492(3)
H6 H -0.3239 0.2469 0.5140
H7 H -0.2972 0.3802 0.4826
C5 C -0.4196(4) 0.3903(3) 0.6301(3)
H8 H -0.4198 0.3424 0.6921
H9 H -0.5439 0.3794 0.5816
C6 C -0.3658(4) 0.5301(3) 0.6917(2)
H10 H -0.3773 0.5794 0.6304
H11 H -0.4487 0.5601 0.7470
C7 C -0.1499(3) 0.8303(2) 0.7697(2)
H12 H -0.0826 0.9110 0.8217
C8 C -0.3487(4) 0.8574(3) 0.7423(2)
H13 H -0.4224 0.7821 0.6873
H14 H -0.3962 0.8770 0.8177
C9 C -0.3637(4) 0.9686(3) 0.6844(2)
H15 H -0.4930 0.9824 0.6636
H16 H -0.2998 1.0454 0.7429
C10 C -0.2829(4) 0.9462(3) 0.5714(2)
H17 H -0.3561 0.8757 0.5091
H18 H -0.2873 1.0223 0.5399
C11 C -0.0877(4) 0.9157(3) 0.5970(3)
H19 H -0.0114 0.9903 0.6514
H20 H -0.0421 0.8954 0.5209
C12 C -0.0720(4) 0.8050(3) 0.6544(2)
H21 H 0.0571 0.7901 0.6737
H22 H -0.1384 0.7284 0.5969
C13 C -0.2377(3) 0.7376(2) 0.9702(2)
H23 H -0.3673 0.7295 0.9282
C14 C -0.2196(4) 0.6406(2) 1.0456(2)
H24 H -0.2579 0.5553 0.9926
H25 H -0.0911 0.6432 1.0846
C15 C -0.3357(4) 0.6666(3) 1.1417(2)
H26 H -0.3149 0.6060 1.1923
H27 H -0.4654 0.6536 1.1023
C16 C -0.2922(4) 0.8005(3) 1.2216(2)
H28 H -0.3764 0.8155 1.2785
H29 H -0.1672 0.8105 1.2690
C17 C -0.3096(4) 0.8971(2) 1.1462(2)
H30 H -0.4378 0.8938 1.1063
H31 H -0.2726 0.9824 1.1993
C18 C -0.1916(4) 0.8717(2) 1.0514(2)
H32 H -0.0624 0.8832 1.0916
H33 H -0.2100 0.9330 1.0015
loop_
_geom_bond_atom_site_label_1
_geom_bond_atom_site_label_2
_geom_bond_site_symmetry_1
_geom_bond_site_symmetry_2
Te1 P1 1_555 1_555
P1 C1 1_555 1_555
C1 H1 1_555 1_555
C2 C1 1_555 1_555
H2 C2 1_555 1_555
H3 C2 1_555 1_555
C3 C2 1_555 1_555
H4 C3 1_555 1_555
H5 C3 1_555 1_555
C4 C3 1_555 1_555
H6 C4 1_555 1_555
H7 C4 1_555 1_555
C5 C4 1_555 1_555
H8 C5 1_555 1_555
H9 C5 1_555 1_555
C6 C1 1_555 1_555
H10 C6 1_555 1_555
H11 C6 1_555 1_555
C7 P1 1_555 1_555
H12 C7 1_555 1_555
C8 C7 1_555 1_555
H13 C8 1_555 1_555
H14 C8 1_555 1_555
C9 C8 1_555 1_555
H15 C9 1_555 1_555
H16 C9 1_555 1_555
C10 C9 1_555 1_555
H17 C10 1_555 1_555
H18 C10 1_555 1_555
C11 C10 1_555 1_555
H19 C11 1_555 1_555
H20 C11 1_555 1_555
C12 C7 1_555 1_555
H21 C12 1_555 1_555
H22 C12 1_555 1_555
C13 P1 1_555 1_555
H23 C13 1_555 1_555
C14 C13 1_555 1_555
H24 C14 1_555 1_555
H25 C14 1_555 1_555
C15 C14 1_555 1_555
H26 C15 1_555 1_555
H27 C15 1_555 1_555
C16 C15 1_555 1_555
H28 C16 1_555 1_555
H29 C16 1_555 1_555
C17 C16 1_555 1_555
H30 C17 1_555 1_555
H31 C17 1_555 1_555
C18 C13 1_555 1_555
H32 C18 1_555 1_555
H33 C18 1_555 1_555
C5 C6 1_555 1_555
C11 C12 1_555 1_555
C17 C18 1_555 1_555

#END
