
#######################################################################
#
#                 Cambridge Crystallographic Data Centre
#                                CCDC 
#
#######################################################################
#
# If this CIF has been generated from an entry in the Cambridge 
# Structural Database, then it will include bibliographic, chemical, 
# crystal, experimental, refinement or atomic coordinate data resulting 
# from the CCDC's data processing and validation procedures.
#
#######################################################################

data_SIZNAT
_chemical_formula_moiety         'C23 H20 O4 S1'
_chemical_name_systematic        
13-[(4-methoxyphenyl)sulfonyl]-7,12-dihydro-6H-6,12-methanodibenzo[b,e]oxocine
_symmetry_cell_setting           triclinic
_symmetry_space_group_name_H-M   'P -1'
_symmetry_Int_Tables_number      2
_space_group_name_Hall           '-P 1'
loop_
_symmetry_equiv_pos_site_id
_symmetry_equiv_pos_as_xyz
1 x,y,z
2 -x,-y,-z
_cell_length_a                   7.0055(13)
_cell_length_b                   10.701(2)
_cell_length_c                   13.367(3)
_cell_angle_alpha                71.146(7)
_cell_angle_beta                 75.076(6)
_cell_angle_gamma                85.590(7)
_cell_volume                     916.293
_exptl_crystal_colour            colorless
_exptl_crystal_description       Tabular
_cell_formula_units_Z            2
loop_
_atom_site_label
_atom_site_type_symbol
_atom_site_fract_x
_atom_site_fract_y
_atom_site_fract_z
S1 S 0.35373(9) 0.34530(6) 0.46975(5)
O1 O 0.0428(3) -0.02246(18) 0.30457(15)
O2 O 0.5417(3) 0.29387(18) 0.48987(14)
O3 O 0.2044(3) 0.37021(18) 0.55770(14)
O4 O 0.2111(3) 0.50553(18) 0.22996(14)
C1 C 0.6857(4) 0.9255(3) 0.0813(2)
H1 H 0.7090 1.0157 0.0389
C2 C 0.4986(4) 0.8830(3) 0.1417(2)
H2 H 0.3929 0.9442 0.1404
C3 C 0.4614(4) 0.7508(3) 0.2051(2)
C4 C 0.6196(4) 0.6622(2) 0.2070(2)
C5 C 0.5853(4) 0.5162(2) 0.2748(2)
H3 H 0.7009 0.4806 0.3061
C6 C 0.3983(4) 0.5037(2) 0.3659(2)
H4 H 0.4173 0.5664 0.4042
C7 C 0.2539(4) 0.2370(2) 0.42151(19)
C8 C 0.3763(4) 0.1439(3) 0.3845(2)
H5 H 0.5120 0.1400 0.3850
C9 C 0.3003(4) 0.0577(3) 0.3471(2)
H6 H 0.3829 -0.0068 0.3228
C10 C 0.1017(4) 0.0654(2) 0.3450(2)
C11 C -0.1601(4) -0.0229(3) 0.3026(2)
H7 H -0.2438 -0.0348 0.3762
H8 H -0.1840 -0.0954 0.2775
H9 H -0.1915 0.0613 0.2528
C12 C 0.2531(4) 0.7083(3) 0.2684(2)
H10 H 0.1629 0.7448 0.2200
H11 H 0.2153 0.7461 0.3292
C13 C 0.2255(4) 0.5592(3) 0.3147(2)
H12 H 0.1000 0.5389 0.3733
C14 C 0.3686(4) 0.4400(2) 0.1842(2)
C15 C 0.5542(4) 0.4383(2) 0.2031(2)
C16 C 0.7045(4) 0.3690(3) 0.1539(2)
H13 H 0.8325 0.3669 0.1662
C17 C 0.6686(4) 0.3028(3) 0.0869(2)
H14 H 0.7721 0.2555 0.0537
C18 C 0.4822(4) 0.3052(3) 0.0678(2)
H15 H 0.4585 0.2601 0.0215
C19 C 0.3313(4) 0.3738(3) 0.1166(2)
H16 H 0.2034 0.3758 0.1042
C20 C 0.8418(4) 0.8359(3) 0.0824(2)
H17 H 0.9709 0.8646 0.0397
C21 C 0.8075(4) 0.7054(3) 0.1459(2)
H18 H 0.9140 0.6448 0.1475
C22 C 0.0545(4) 0.2427(2) 0.42253(19)
H19 H -0.0292 0.3044 0.4502
C23 C -0.0213(4) 0.1576(2) 0.3829(2)
H20 H -0.1566 0.1621 0.3816
loop_
_geom_bond_atom_site_label_1
_geom_bond_atom_site_label_2
_geom_bond_site_symmetry_1
_geom_bond_site_symmetry_2
S1 O2 1_555 1_555
O1 C10 1_555 1_555
O3 S1 1_555 1_555
O4 C13 1_555 1_555
C1 H1 1_555 1_555
C2 C1 1_555 1_555
H2 C2 1_555 1_555
C3 C2 1_555 1_555
C4 C3 1_555 1_555
C5 C4 1_555 1_555
H3 C5 1_555 1_555
C6 S1 1_555 1_555
H4 C6 1_555 1_555
C7 S1 1_555 1_555
C8 C7 1_555 1_555
H5 C8 1_555 1_555
C9 C8 1_555 1_555
H6 C9 1_555 1_555
C10 C9 1_555 1_555
C11 O1 1_555 1_555
H7 C11 1_555 1_555
H8 C11 1_555 1_555
H9 C11 1_555 1_555
C12 C3 1_555 1_555
H10 C12 1_555 1_555
H11 C12 1_555 1_555
C13 C6 1_555 1_555
H12 C13 1_555 1_555
C14 O4 1_555 1_555
C15 C5 1_555 1_555
C16 C15 1_555 1_555
H13 C16 1_555 1_555
C17 C16 1_555 1_555
H14 C17 1_555 1_555
C18 C17 1_555 1_555
H15 C18 1_555 1_555
C19 C14 1_555 1_555
H16 C19 1_555 1_555
C20 C1 1_555 1_555
H17 C20 1_555 1_555
C21 C4 1_555 1_555
H18 C21 1_555 1_555
C22 C7 1_555 1_555
H19 C22 1_555 1_555
C23 C10 1_555 1_555
H20 C23 1_555 1_555
C5 C6 1_555 1_555
C12 C13 1_555 1_555
C14 C15 1_555 1_555
C18 C19 1_555 1_555
C20 C21 1_555 1_555
C22 C23 1_555 1_555

#END
