
#######################################################################
#
#                 Cambridge Crystallographic Data Centre
#                                CCDC 
#
#######################################################################
#
# If this CIF has been generated from an entry in the Cambridge 
# Structural Database, then it will include bibliographic, chemical, 
# crystal, experimental, refinement or atomic coordinate data resulting 
# from the CCDC's data processing and validation procedures.
#
#######################################################################

data_SIZNEX
_chemical_formula_moiety         'C14 H9 N1 O2'
_chemical_name_systematic        
2-[(pyridin-2-yl)methylidene]-1-benzofuran-3(2H)-one
_symmetry_cell_setting           orthorhombic
_symmetry_space_group_name_H-M   'P n a 21'
_symmetry_Int_Tables_number      33
_space_group_name_Hall           'P 2c -2n'
loop_
_symmetry_equiv_pos_site_id
_symmetry_equiv_pos_as_xyz
1 x,y,z
2 -x,-y,1/2+z
3 1/2-x,1/2+y,1/2+z
4 1/2+x,1/2-y,z
_cell_length_a                   16.8548(8)
_cell_length_b                   12.1664(6)
_cell_length_c                   5.1458(2)
_cell_angle_alpha                90
_cell_angle_beta                 90
_cell_angle_gamma                90
_cell_volume                     1055.21
_exptl_crystal_colour            yellow
_exptl_crystal_description       columnar
_cell_formula_units_Z            4
loop_
_atom_site_label
_atom_site_type_symbol
_atom_site_fract_x
_atom_site_fract_y
_atom_site_fract_z
O1 O 0.40127(8) 0.87565(12) 0.1234(3)
O2 O 0.19450(9) 0.84292(15) 0.0551(4)
N1 N 0.39071(12) 0.64685(15) -0.5363(4)
C1 C 0.52947(14) 0.62569(19) -0.6226(5)
H1 H 0.5696 0.5951 -0.7301
C2 C 0.45052(14) 0.6063(2) -0.6737(6)
H2 H 0.4380 0.5607 -0.8177
C3 C 0.40942(12) 0.71151(17) -0.3347(5)
C4 C 0.34024(11) 0.75651(19) -0.1973(5)
H3 H 0.2903 0.7309 -0.2580
C5 C 0.33665(12) 0.82730(18) -0.0020(5)
C6 C 0.26172(13) 0.86874(17) 0.1200(5)
C7 C 0.28908(12) 0.94374(18) 0.3237(5)
C8 C 0.24919(13) 1.00822(19) 0.5056(5)
H4 H 0.1929 1.0085 0.5140
C9 C 0.29420(15) 1.07224(19) 0.6746(5)
H5 H 0.2687 1.1167 0.8013
C10 C 0.37691(14) 1.07110(18) 0.6575(5)
H6 H 0.4067 1.1157 0.7734
C11 C 0.41688(13) 1.00730(18) 0.4775(5)
H7 H 0.4732 1.0069 0.4672
C12 C 0.37114(13) 0.94500(18) 0.3156(5)
C13 C 0.54898(13) 0.69047(19) -0.4120(5)
H8 H 0.6029 0.7043 -0.3692
C14 C 0.48786(13) 0.73506(18) -0.2635(5)
H9 H 0.4991 0.7803 -0.1176
loop_
_geom_bond_atom_site_label_1
_geom_bond_atom_site_label_2
_geom_bond_site_symmetry_1
_geom_bond_site_symmetry_2
O1 C5 1_555 1_555
O2 C6 1_555 1_555
N1 C2 1_555 1_555
C1 H1 1_555 1_555
C2 C1 1_555 1_555
H2 C2 1_555 1_555
C3 N1 1_555 1_555
C4 C3 1_555 1_555
H3 C4 1_555 1_555
C5 C4 1_555 1_555
C6 C5 1_555 1_555
C7 C6 1_555 1_555
C8 C7 1_555 1_555
H4 C8 1_555 1_555
C9 C8 1_555 1_555
H5 C9 1_555 1_555
C10 C9 1_555 1_555
H6 C10 1_555 1_555
C11 C10 1_555 1_555
H7 C11 1_555 1_555
C12 O1 1_555 1_555
C13 C1 1_555 1_555
H8 C13 1_555 1_555
C14 C3 1_555 1_555
H9 C14 1_555 1_555
C7 C12 1_555 1_555
C11 C12 1_555 1_555
C13 C14 1_555 1_555

#END
