
#######################################################################
#
#                 Cambridge Crystallographic Data Centre
#                                CCDC 
#
#######################################################################
#
# If this CIF has been generated from an entry in the Cambridge 
# Structural Database, then it will include bibliographic, chemical, 
# crystal, experimental, refinement or atomic coordinate data resulting 
# from the CCDC's data processing and validation procedures.
#
#######################################################################

data_SOBBES
_chemical_formula_moiety         'C30 H52 O4,H2 O1'
_chemical_name_systematic        'dammar-24-ene-3,6,16,20-tetrol monohydrate'
_symmetry_cell_setting           orthorhombic
_symmetry_space_group_name_H-M   'P 21 21 21'
_symmetry_Int_Tables_number      19
_space_group_name_Hall           'P 2ac 2ab'
loop_
_symmetry_equiv_pos_site_id
_symmetry_equiv_pos_as_xyz
1 x,y,z
2 1/2+x,1/2-y,-z
3 -x,1/2+y,1/2-z
4 1/2-x,-y,1/2+z
_cell_length_a                   10.5637(3)
_cell_length_b                   13.2734(3)
_cell_length_c                   20.6274(5)
_cell_angle_alpha                90
_cell_angle_beta                 90
_cell_angle_gamma                90
_cell_volume                     2892.3
_exptl_crystal_colour            colorless
_exptl_crystal_description       block
_cell_formula_units_Z            4
loop_
_atom_site_label
_atom_site_type_symbol
_atom_site_fract_x
_atom_site_fract_y
_atom_site_fract_z
O1 O 0.4950(3) 0.56317(15) 0.85164(11)
H1 H 0.5481 0.5995 0.8688
O2 O 0.5241(3) 0.19127(19) 0.76272(12)
H2 H 0.5106 0.1422 0.7396
O3 O 0.2485(2) -0.21401(18) 0.95934(13)
H3 H 0.2436 -0.2494 0.9268
O4 O 0.1682(2) -0.16546(17) 1.07722(12)
H4 H 0.1488 -0.1951 1.0438
C1 C 0.4044(4) 0.3584(2) 0.96902(16)
H5 H 0.3432 0.3583 1.0041
H6 H 0.4874 0.3468 0.9878
C2 C 0.4034(4) 0.4610(2) 0.93658(17)
H7 H 0.4241 0.5124 0.9682
H8 H 0.3193 0.4749 0.9200
C3 C 0.4983(4) 0.4648(2) 0.88131(16)
H9 H 0.5829 0.4552 0.8998
C4 C 0.4784(4) 0.3829(2) 0.82866(16)
C5 C 0.4679(3) 0.2778(2) 0.86346(14)
H10 H 0.5517 0.2659 0.8824
C6 C 0.4438(4) 0.1868(2) 0.81881(15)
H11 H 0.3551 0.1870 0.8050
C7 C 0.4717(4) 0.0894(2) 0.85463(15)
H12 H 0.5606 0.0887 0.8664
H13 H 0.4571 0.0334 0.8254
C8 C 0.3926(3) 0.0731(2) 0.91610(15)
C9 C 0.4017(3) 0.1699(2) 0.95821(14)
H14 H 0.4914 0.1745 0.9699
C10 C 0.3733(3) 0.2715(2) 0.92201(14)
C11 C 0.3331(4) 0.1561(2) 1.02357(16)
H15 H 0.3499 0.2145 1.0505
H16 H 0.2426 0.1539 1.0156
C12 C 0.3709(4) 0.0611(2) 1.06138(16)
H17 H 0.4573 0.0676 1.0768
H18 H 0.3160 0.0531 1.0987
C13 C 0.3597(3) -0.0306(2) 1.01754(15)
H19 H 0.2725 -0.0301 1.0013
C14 C 0.4450(3) -0.0177(2) 0.95704(16)
C15 C 0.4376(4) -0.1236(2) 0.92447(17)
H20 H 0.3858 -0.1207 0.8857
H21 H 0.5216 -0.1465 0.9125
C16 C 0.3789(3) -0.1951(2) 0.97389(16)
H22 H 0.4264 -0.2585 0.9757
C17 C 0.3851(3) -0.1400(2) 1.03966(16)
H23 H 0.4727 -0.1435 1.0552
C18 C 0.5846(3) -0.0030(2) 0.97686(19)
H24 H 0.6103 -0.0574 1.0046
H25 H 0.5937 0.0597 0.9995
H26 H 0.6368 -0.0024 0.9388
C19 C 0.2322(4) 0.2826(2) 0.9039(2)
H27 H 0.2131 0.3523 0.8964
H28 H 0.1807 0.2577 0.9387
H29 H 0.2150 0.2446 0.8653
C20 C 0.2992(4) -0.1856(2) 1.09241(16)
C21 C 0.3212(5) -0.1382(3) 1.15872(17)
H30 H 0.2707 -0.1724 1.1905
H31 H 0.2977 -0.0683 1.1574
H32 H 0.4091 -0.1439 1.1700
C22 C 0.3128(4) -0.3006(2) 1.09769(19)
H33 H 0.2530 -0.3240 1.1300
H34 H 0.2875 -0.3296 1.0565
C23 C 0.4411(5) -0.3423(3) 1.1148(3)
H35 H 0.4999 -0.3288 1.0797
H36 H 0.4725 -0.3091 1.1535
C24 C 0.4338(5) -0.4533(3) 1.1264(2)
H37 H 0.4147 -0.4919 1.0900
C25 C 0.4504(5) -0.5047(3) 1.1805(3)
C26 C 0.4904(9) -0.4538(6) 1.2416(3)
H38 H 0.4852 -0.3821 1.2361
H39 H 0.5760 -0.4723 1.2517
H40 H 0.4356 -0.4741 1.2764
C27 C 0.4363(8) -0.6174(4) 1.1815(4)
H41 H 0.4094 -0.6404 1.1396
H42 H 0.3742 -0.6360 1.2134
H43 H 0.5160 -0.6478 1.1923
C28 C 0.5995(4) 0.3870(3) 0.78723(18)
H44 H 0.6177 0.4557 0.7760
H45 H 0.5873 0.3484 0.7484
H46 H 0.6690 0.3595 0.8114
C29 C 0.3664(4) 0.4073(3) 0.78555(19)
H47 H 0.3525 0.3527 0.7558
H48 H 0.3834 0.4679 0.7617
H49 H 0.2923 0.4167 0.8118
C30 C 0.2549(4) 0.0490(2) 0.89444(18)
H50 H 0.2457 -0.0223 0.8885
H51 H 0.2372 0.0830 0.8543
H52 H 0.1967 0.0717 0.9271
O5 O 0.2616(4) 0.6728(3) 0.8454(2)
H53 H 0.2249 0.7087 0.8191
H54 H 0.2259 0.6401 0.8738
loop_
_geom_bond_atom_site_label_1
_geom_bond_atom_site_label_2
_geom_bond_site_symmetry_1
_geom_bond_site_symmetry_2
O1 H1 1_555 1_555
O2 H2 1_555 1_555
O3 H3 1_555 1_555
O4 H4 1_555 1_555
C1 H5 1_555 1_555
H6 C1 1_555 1_555
C2 C1 1_555 1_555
H7 C2 1_555 1_555
H8 C2 1_555 1_555
C3 O1 1_555 1_555
H9 C3 1_555 1_555
C4 C3 1_555 1_555
C5 C4 1_555 1_555
H10 C5 1_555 1_555
C6 O2 1_555 1_555
H11 C6 1_555 1_555
C7 C6 1_555 1_555
H12 C7 1_555 1_555
H13 C7 1_555 1_555
C8 C7 1_555 1_555
C9 C8 1_555 1_555
H14 C9 1_555 1_555
C10 C1 1_555 1_555
C11 C9 1_555 1_555
H15 C11 1_555 1_555
H16 C11 1_555 1_555
C12 C11 1_555 1_555
H17 C12 1_555 1_555
H18 C12 1_555 1_555
C13 C12 1_555 1_555
H19 C13 1_555 1_555
C14 C8 1_555 1_555
C15 C14 1_555 1_555
H20 C15 1_555 1_555
H21 C15 1_555 1_555
C16 O3 1_555 1_555
H22 C16 1_555 1_555
C17 C13 1_555 1_555
H23 C17 1_555 1_555
C18 C14 1_555 1_555
H24 C18 1_555 1_555
H25 C18 1_555 1_555
H26 C18 1_555 1_555
C19 C10 1_555 1_555
H27 C19 1_555 1_555
H28 C19 1_555 1_555
H29 C19 1_555 1_555
C20 O4 1_555 1_555
C21 C20 1_555 1_555
H30 C21 1_555 1_555
H31 C21 1_555 1_555
H32 C21 1_555 1_555
C22 C20 1_555 1_555
H33 C22 1_555 1_555
H34 C22 1_555 1_555
C23 C22 1_555 1_555
H35 C23 1_555 1_555
H36 C23 1_555 1_555
C24 C23 1_555 1_555
H37 C24 1_555 1_555
C25 C24 1_555 1_555
C26 C25 1_555 1_555
H38 C26 1_555 1_555
H39 C26 1_555 1_555
H40 C26 1_555 1_555
C27 C25 1_555 1_555
H41 C27 1_555 1_555
H42 C27 1_555 1_555
H43 C27 1_555 1_555
C28 C4 1_555 1_555
H44 C28 1_555 1_555
H45 C28 1_555 1_555
H46 C28 1_555 1_555
C29 C4 1_555 1_555
H47 C29 1_555 1_555
H48 C29 1_555 1_555
H49 C29 1_555 1_555
C30 C8 1_555 1_555
H50 C30 1_555 1_555
H51 C30 1_555 1_555
H52 C30 1_555 1_555
O5 H53 1_555 1_555
H54 O5 1_555 1_555
C2 C3 1_555 1_555
C5 C6 1_555 1_555
C5 C10 1_555 1_555
C9 C10 1_555 1_555
C13 C14 1_555 1_555
C15 C16 1_555 1_555
C16 C17 1_555 1_555
C17 C20 1_555 1_555

#END
