
#######################################################################
#
#                 Cambridge Crystallographic Data Centre
#                                CCDC 
#
#######################################################################
#
# If this CIF has been generated from an entry in the Cambridge 
# Structural Database, then it will include bibliographic, chemical, 
# crystal, experimental, refinement or atomic coordinate data resulting 
# from the CCDC's data processing and validation procedures.
#
#######################################################################

data_SOBVAJ
_chemical_formula_moiety         'C9 H8 Cl1 N3 O3'
_chemical_name_systematic        
6-chloro-2-methoxy-3-methyl-5-nitro-2H-indazole
_symmetry_cell_setting           monoclinic
_symmetry_space_group_name_H-M   'P 21/n'
_symmetry_Int_Tables_number      14
_space_group_name_Hall           '-P 2yn'
loop_
_symmetry_equiv_pos_site_id
_symmetry_equiv_pos_as_xyz
1 x,y,z
2 1/2-x,1/2+y,1/2-z
3 -x,-y,-z
4 1/2+x,1/2-y,1/2+z
_cell_length_a                   3.9433(8)
_cell_length_b                   12.213(2)
_cell_length_c                   21.059(3)
_cell_angle_alpha                90
_cell_angle_beta                 91.23(2)
_cell_angle_gamma                90
_cell_volume                     1013.96
_exptl_crystal_colour            'light colorless'
_exptl_crystal_description       needle
_cell_formula_units_Z            4
loop_
_atom_site_label
_atom_site_type_symbol
_atom_site_fract_x
_atom_site_fract_y
_atom_site_fract_z
Cl1 Cl 0.7270(5) 0.89291(16) 0.03342(9)
C1 C 0.4199(14) 0.5979(5) 0.1466(3)
N1 N 0.4927(13) 0.5750(5) 0.2464(2)
N2 N 0.6329(14) 0.6745(5) 0.2387(2)
C2 C 0.3437(15) 0.5994(5) 0.0820(3)
H1 H 0.2285 0.5412 0.0629
O1 O 0.5071(12) 0.5277(4) 0.3058(2)
N3 N 0.3600(15) 0.6824(6) -0.0216(3)
C3 C 0.3643(14) 0.5241(5) 0.1958(3)
C4 C 0.4403(14) 0.6876(5) 0.0468(3)
C5 C 0.5827(15) 0.6886(5) 0.1757(3)
C6 C 0.6798(14) 0.7803(5) 0.1393(3)
H2 H 0.7885 0.8401 0.1580
C7 C 0.6077(14) 0.7777(5) 0.0757(3)
O2 O 0.479(2) 0.7456(7) -0.0564(3)
C8 C 0.2132(18) 0.4123(6) 0.1970(3)
H3 H 0.0727 0.4017 0.1598
H4 H 0.0783 0.4046 0.2342
H5 H 0.3911 0.3587 0.1980
C9 C 0.3371(19) 0.5980(6) 0.3517(3)
H6 H 0.1232 0.6219 0.3340
H7 H 0.4768 0.6606 0.3611
H8 H 0.2998 0.5576 0.3900
O3 O 0.1775(18) 0.6126(6) -0.0407(2)
loop_
_geom_bond_atom_site_label_1
_geom_bond_atom_site_label_2
_geom_bond_site_symmetry_1
_geom_bond_site_symmetry_2
Cl1 C7 1_555 1_555
C1 C2 1_555 1_555
N1 N2 1_555 1_555
N2 C5 1_555 1_555
C2 H1 1_555 1_555
O1 N1 1_555 1_555
N3 C4 1_555 1_555
C3 C1 1_555 1_555
C4 C2 1_555 1_555
C5 C1 1_555 1_555
C6 C5 1_555 1_555
H2 C6 1_555 1_555
C7 C4 1_555 1_555
O2 N3 1_555 1_555
C8 C3 1_555 1_555
H3 C8 1_555 1_555
H4 C8 1_555 1_555
H5 C8 1_555 1_555
C9 O1 1_555 1_555
H6 C9 1_555 1_555
H7 C9 1_555 1_555
H8 C9 1_555 1_555
O3 N3 1_555 1_555
N1 C3 1_555 1_555
C6 C7 1_555 1_555

#END
