
#######################################################################
#
#                 Cambridge Crystallographic Data Centre
#                                CCDC 
#
#######################################################################
#
# If this CIF has been generated from an entry in the Cambridge 
# Structural Database, then it will include bibliographic, chemical, 
# crystal, experimental, refinement or atomic coordinate data resulting 
# from the CCDC's data processing and validation procedures.
#
#######################################################################

data_SOCBUJ
_chemical_formula_moiety         'C33 H24 N1 O1 S1 1+,Cl1 1-,2(C4 H8 O1)'
_chemical_name_systematic        
'6-Hydroxy-2-(4-(triphenylvinyl)phenyl)-1,3-benzothiazol-3-ium chloride tetrahydrofuran solvate'
_symmetry_cell_setting           monoclinic
_symmetry_space_group_name_H-M   'P 21/c'
_symmetry_Int_Tables_number      14
_space_group_name_Hall           '-P 2ybc'
loop_
_symmetry_equiv_pos_site_id
_symmetry_equiv_pos_as_xyz
1 x,y,z
2 -x,1/2+y,1/2-z
3 -x,-y,-z
4 x,1/2-y,1/2+z
_cell_length_a                   25.4332(6)
_cell_length_b                   13.2344(3)
_cell_length_c                   10.6949(3)
_cell_angle_alpha                90
_cell_angle_beta                 96.568(2)
_cell_angle_gamma                90
_cell_volume                     3576.2
_exptl_crystal_colour            yellow
_exptl_crystal_description       block
_cell_formula_units_Z            4
loop_
_atom_site_label
_atom_site_type_symbol
_atom_site_fract_x
_atom_site_fract_y
_atom_site_fract_z
Cl1 Cl 0.08908(3) 0.49361(6) 0.51543(8)
S1 S 0.11183(3) 0.66314(7) 0.31346(8)
N1 N 0.09595(11) 0.8200(2) 0.1793(3)
O1 O -0.08948(10) 0.7125(2) 0.3604(3)
H1 H -0.0880 0.6527 0.3871
C1 C 0.18827(14) 0.7618(3) 0.1925(3)
C2 C 0.13385(14) 0.7564(3) 0.2203(3)
C3 C 0.04804(14) 0.7142(3) 0.2945(3)
C4 C 0.20477(15) 0.8337(3) 0.1086(4)
H2 H 0.1801 0.8815 0.0702
C5 C 0.00063(14) 0.8549(3) 0.1900(4)
H3 H -0.0002 0.9132 0.1379
C6 C 0.04704(14) 0.7994(3) 0.2182(3)
C7 C -0.04291(14) 0.7367(3) 0.3166(4)
C8 C 0.00305(14) 0.6809(3) 0.3457(3)
H4 H 0.0038 0.6228 0.3980
C9 C 0.27770(15) 0.6958(3) 0.2201(4)
H5 H 0.3027 0.6493 0.2598
C10 C 0.25635(14) 0.8357(3) 0.0814(3)
H6 H 0.2669 0.8858 0.0258
C11 C -0.04392(15) 0.8224(3) 0.2400(4)
H7 H -0.0760 0.8589 0.2221
C12 C 0.22579(14) 0.6936(3) 0.2486(4)
H8 H 0.2157 0.6452 0.3070
C13 C 0.43526(15) 0.6836(3) 0.0783(4)
C14 C 0.34911(15) 0.7684(3) 0.1013(3)
C15 C 0.40130(17) 0.8960(4) -0.0087(4)
H9 H 0.4047 0.8485 -0.0739
C16 C 0.35161(15) 0.5817(3) 0.0684(4)
C17 C 0.29357(14) 0.7653(3) 0.1339(3)
C18 C 0.37256(15) 0.8705(3) 0.0909(4)
C19 C 0.46911(16) 0.7352(4) 0.1674(4)
H10 H 0.4551 0.7699 0.2339
C20 C 0.37683(15) 0.6826(3) 0.0849(4)
C21 C 0.51119(17) 0.6328(4) -0.0222(4)
H11 H 0.5256 0.5968 -0.0871
C22 C 0.36620(18) 0.9442(4) 0.1804(4)
H12 H 0.3454 0.9297 0.2466
C23 C 0.3895(2) 1.0380(5) 0.1753(6)
H13 H 0.3850 1.0872 0.2379
C24 C 0.45756(16) 0.6310(4) -0.0148(4)
H14 H 0.4353 0.5929 -0.0748
C25 C 0.30822(18) 0.5647(4) -0.0214(5)
H15 H 0.2927 0.6194 -0.0700
C26 C 0.54407(17) 0.6872(4) 0.0650(5)
H16 H 0.5810 0.6904 0.0589
C27 C 0.52300(17) 0.7366(4) 0.1604(5)
H17 H 0.5457 0.7720 0.2223
C28 C 0.37315(19) 0.4987(4) 0.1385(5)
H18 H 0.4031 0.5085 0.1989
C29 C 0.2877(2) 0.4675(5) -0.0396(6)
H19 H 0.2585 0.4559 -0.1017
C30 C 0.4247(2) 0.9897(5) -0.0126(5)
H20 H 0.4448 1.0057 -0.0795
C31 C 0.3517(2) 0.4041(4) 0.1214(7)
H21 H 0.3661 0.3494 0.1716
C32 C 0.4191(3) 1.0601(5) 0.0794(6)
H22 H 0.4358 1.1242 0.0767
C33 C 0.3095(3) 0.3881(5) 0.0320(8)
H23 H 0.2952 0.3221 0.0192
H24 H 0.0992(17) 0.874(4) 0.129(4)
O2 O 0.10960(13) 0.6175(3) 0.9875(3)
C34 C 0.0659(2) 0.5508(4) 0.9974(5)
H25 H 0.0321 0.5834 0.9643
H26 H 0.0641 0.5314 1.0862
C35 C 0.1548(2) 0.5578(4) 0.9714(5)
H27 H 0.1759 0.5456 1.0536
H28 H 0.1774 0.5927 0.9156
C36 C 0.0763(3) 0.4594(4) 0.9195(6)
H29 H 0.0652 0.3968 0.9598
H30 H 0.0569 0.4646 0.8340
C37 C 0.1350(3) 0.4597(6) 0.9137(8)
H31 H 0.1519 0.4019 0.9615
H32 H 0.1429 0.4550 0.8254
O3 O 0.2317(3) 0.0341(4) 0.9003(5)
C38 C 0.2306(4) 0.1053(6) 1.0033(7)
H33 H 0.2668 0.1275 1.0352
H34 H 0.2139 0.0747 1.0734
C39 C 0.1988(3) 0.1909(5) 0.9478(8)
H35 H 0.1607 0.1799 0.9535
H36 H 0.2099 0.2550 0.9909
C40 C 0.2098(3) 0.1927(5) 0.8168(7)
H37 H 0.2445 0.2237 0.8071
H38 H 0.1816 0.2274 0.7614
C41 C 0.2098(4) 0.0823(6) 0.7952(8)
H39 H 0.1730 0.0583 0.7728
H40 H 0.2302 0.0666 0.7242
loop_
_geom_bond_atom_site_label_1
_geom_bond_atom_site_label_2
_geom_bond_site_symmetry_1
_geom_bond_site_symmetry_2
S1 C2 1_555 1_555
N1 C2 1_555 1_555
O1 H1 1_555 1_555
C1 C2 1_555 1_555
C3 S1 1_555 1_555
C4 C1 1_555 1_555
H2 C4 1_555 1_555
C5 H3 1_555 1_555
C6 N1 1_555 1_555
C7 O1 1_555 1_555
C8 C3 1_555 1_555
H4 C8 1_555 1_555
C9 H5 1_555 1_555
C10 C4 1_555 1_555
H6 C10 1_555 1_555
C11 C5 1_555 1_555
H7 C11 1_555 1_555
C12 C1 1_555 1_555
H8 C12 1_555 1_555
C13 C19 1_555 1_555
C14 C17 1_555 1_555
C15 H9 1_555 1_555
C16 C20 1_555 1_555
C17 C9 1_555 1_555
C18 C14 1_555 1_555
C19 H10 1_555 1_555
C20 C13 1_555 1_555
C21 H11 1_555 1_555
C22 C18 1_555 1_555
H12 C22 1_555 1_555
C23 C22 1_555 1_555
H13 C23 1_555 1_555
C24 C13 1_555 1_555
H14 C24 1_555 1_555
C25 C16 1_555 1_555
H15 C25 1_555 1_555
C26 C21 1_555 1_555
H16 C26 1_555 1_555
C27 C19 1_555 1_555
H17 C27 1_555 1_555
C28 C16 1_555 1_555
H18 C28 1_555 1_555
C29 C25 1_555 1_555
H19 C29 1_555 1_555
C30 C15 1_555 1_555
H20 C30 1_555 1_555
C31 C28 1_555 1_555
H21 C31 1_555 1_555
C32 C23 1_555 1_555
H22 C32 1_555 1_555
C33 C29 1_555 1_555
H23 C33 1_555 1_555
H24 N1 1_555 1_555
O2 C34 1_555 1_555
C34 H25 1_555 1_555
H26 C34 1_555 1_555
C35 O2 1_555 1_555
H27 C35 1_555 1_555
H28 C35 1_555 1_555
C36 C34 1_555 1_555
H29 C36 1_555 1_555
H30 C36 1_555 1_555
C37 C35 1_555 1_555
H31 C37 1_555 1_555
H32 C37 1_555 1_555
O3 C38 1_555 1_555
C38 H33 1_555 1_555
H34 C38 1_555 1_555
C39 C38 1_555 1_555
H35 C39 1_555 1_555
H36 C39 1_555 1_555
C40 C39 1_555 1_555
H37 C40 1_555 1_555
H38 C40 1_555 1_555
C41 O3 1_555 1_555
H39 C41 1_555 1_555
H40 C41 1_555 1_555
C3 C6 1_555 1_555
C5 C6 1_555 1_555
C7 C8 1_555 1_555
C7 C11 1_555 1_555
C9 C12 1_555 1_555
C10 C17 1_555 1_555
C14 C20 1_555 1_555
C15 C18 1_555 1_555
C21 C24 1_555 1_555
C26 C27 1_555 1_555
C30 C32 1_555 1_555
C31 C33 1_555 1_555
C36 C37 1_555 1_555
C40 C41 1_555 1_555

#END
