
#######################################################################
#
#                 Cambridge Crystallographic Data Centre
#                                CCDC 
#
#######################################################################
#
# If this CIF has been generated from an entry in the Cambridge 
# Structural Database, then it will include bibliographic, chemical, 
# crystal, experimental, refinement or atomic coordinate data resulting 
# from the CCDC's data processing and validation procedures.
#
#######################################################################

data_SOCDUL
_chemical_formula_moiety         'C19 H15 N3 O1'
_chemical_name_systematic        
3-Benzoyl-5-methyl-2-phenyl-3H-pyrazolo[1,2-a][1,2,3]triazol-4-ium-3-ide
_symmetry_cell_setting           orthorhombic
_symmetry_space_group_name_H-M   'P b c a'
_symmetry_Int_Tables_number      61
_space_group_name_Hall           '-P 2ac 2ab'
loop_
_symmetry_equiv_pos_site_id
_symmetry_equiv_pos_as_xyz
1 x,y,z
2 1/2-x,-y,1/2+z
3 -x,1/2+y,1/2-z
4 1/2+x,1/2-y,-z
5 -x,-y,-z
6 1/2+x,y,1/2-z
7 x,1/2-y,1/2+z
8 1/2-x,1/2+y,z
_cell_length_a                   7.8543(7)
_cell_length_b                   18.5471(16)
_cell_length_c                   21.140(2)
_cell_angle_alpha                90
_cell_angle_beta                 90
_cell_angle_gamma                90
_cell_volume                     3079.56
_exptl_crystal_colour            yellow
_exptl_crystal_description       irregular
_cell_formula_units_Z            8
loop_
_atom_site_label
_atom_site_type_symbol
_atom_site_fract_x
_atom_site_fract_y
_atom_site_fract_z
O1 O -0.1513(3) 0.95564(9) 0.72294(8)
N1 N -0.0894(2) 1.07933(8) 0.64657(7)
N2 N 0.0056(2) 1.12519(8) 0.60879(8)
N3 N 0.1349(2) 1.09166(8) 0.57690(8)
C1 C -0.0029(2) 0.87636(9) 0.65389(8)
C2 C -0.0214(3) 0.85323(10) 0.59180(9)
H1 H -0.0711 0.8833 0.5619
C3 C 0.0344(3) 0.78532(11) 0.57462(11)
H2 H 0.0199 0.7695 0.5332
C4 C 0.1108(3) 0.74115(11) 0.61788(12)
H3 H 0.1505 0.6960 0.6056
C5 C 0.1290(3) 0.76346(12) 0.67957(12)
H4 H 0.1809 0.7333 0.7089
C6 C 0.0703(3) 0.83071(11) 0.69818(10)
H5 H 0.0800 0.8451 0.7402
C7 C -0.0628(3) 0.94937(10) 0.67465(9)
C8 C -0.0132(2) 1.01087(9) 0.63775(8)
C9 C 0.1225(2) 1.02332(9) 0.59574(8)
C10 C 0.2563(2) 0.97225(9) 0.57427(8)
C11 C 0.2763(2) 0.95756(10) 0.51007(9)
H6 H 0.2033 0.9783 0.4806
C12 C 0.4056(3) 0.91183(11) 0.49024(10)
H7 H 0.4178 0.9013 0.4475
C13 C 0.5155(3) 0.88201(11) 0.53333(10)
H8 H 0.6028 0.8519 0.5197
C14 C 0.4969(3) 0.89667(12) 0.59689(10)
H9 H 0.5717 0.8765 0.6260
C15 C 0.3668(2) 0.94145(10) 0.61762(9)
H10 H 0.3538 0.9508 0.6606
C16 C -0.0567(3) 1.19294(11) 0.61361(11)
H11 H -0.0157 1.2337 0.5931
C17 C -0.1903(3) 1.18998(11) 0.65408(11)
H12 H -0.2566 1.2291 0.6664
C18 C -0.2124(3) 1.12019(11) 0.67396(9)
C19 C -0.3481(3) 1.08885(16) 0.71635(13)
H13 H -0.4146 1.0546 0.6930
H14 H -0.4207 1.1268 0.7314
H15 H -0.2954 1.0652 0.7517
loop_
_geom_bond_atom_site_label_1
_geom_bond_atom_site_label_2
_geom_bond_site_symmetry_1
_geom_bond_site_symmetry_2
O1 C7 1_555 1_555
N1 N2 1_555 1_555
N2 N3 1_555 1_555
N3 C9 1_555 1_555
C1 C2 1_555 1_555
C2 H1 1_555 1_555
C3 C2 1_555 1_555
H2 C3 1_555 1_555
C4 C3 1_555 1_555
H3 C4 1_555 1_555
C5 C4 1_555 1_555
H4 C5 1_555 1_555
C6 C1 1_555 1_555
H5 C6 1_555 1_555
C7 C1 1_555 1_555
C8 N1 1_555 1_555
C9 C8 1_555 1_555
C10 C9 1_555 1_555
C11 C10 1_555 1_555
H6 C11 1_555 1_555
C12 C11 1_555 1_555
H7 C12 1_555 1_555
C13 C12 1_555 1_555
H8 C13 1_555 1_555
C14 C13 1_555 1_555
H9 C14 1_555 1_555
C15 C10 1_555 1_555
H10 C15 1_555 1_555
C16 N2 1_555 1_555
H11 C16 1_555 1_555
C17 C16 1_555 1_555
H12 C17 1_555 1_555
C18 N1 1_555 1_555
C19 C18 1_555 1_555
H13 C19 1_555 1_555
H14 C19 1_555 1_555
H15 C19 1_555 1_555
C5 C6 1_555 1_555
C7 C8 1_555 1_555
C14 C15 1_555 1_555
C17 C18 1_555 1_555

#END
