
#######################################################################
#
#                 Cambridge Crystallographic Data Centre
#                                CCDC 
#
#######################################################################
#
# If this CIF has been generated from an entry in the Cambridge 
# Structural Database, then it will include bibliographic, chemical, 
# crystal, experimental, refinement or atomic coordinate data resulting 
# from the CCDC's data processing and validation procedures.
#
#######################################################################

data_SOCSIM
_chemical_formula_moiety         'C36 H46 K1 N2 O6 1+,I1 1-,2(C2 H6 O1)'
_chemical_name_systematic        
"(N,N'-bis(2-Methoxy-1-naphthylmethyl)-4,13-diaza-18-crown-6)-potassium iodide ethanol solvate"
_symmetry_cell_setting           orthorhombic
_symmetry_space_group_name_H-M   'P c a b'
_symmetry_Int_Tables_number      61
_space_group_name_Hall           '-P 2bc 2ac'
loop_
_symmetry_equiv_pos_site_id
_symmetry_equiv_pos_as_xyz
1 x,y,z
2 -x,1/2-y,1/2+z
3 1/2+x,-y,1/2-z
4 1/2-x,1/2+y,-z
5 -x,-y,-z
6 x,1/2+y,1/2-z
7 1/2-x,y,1/2+z
8 1/2+x,1/2-y,z
_cell_length_a                   17.531(5)
_cell_length_b                   21.149(8)
_cell_length_c                   23.060(4)
_cell_angle_alpha                90
_cell_angle_beta                 90
_cell_angle_gamma                90
_cell_volume                     8549.8
_exptl_crystal_colour            'pale yellow'
_chemical_melting_point          175-177deg.C
_cell_formula_units_Z            8
loop_
_atom_site_label
_atom_site_type_symbol
_atom_site_fract_x
_atom_site_fract_y
_atom_site_fract_z
I1 I 0.1426(1) 0.5850(1) 0.7369(1)
K1 K -0.0032(2) 0.6463(1) 0.0628(1)
O1 O -0.1275(4) 0.5773(3) 0.1033(3)
O2 O -0.0066(5) 0.6081(3) 0.1781(3)
O3 O 0.1221(5) 0.5760(4) 0.0207(3)
O4 O -0.0012(5) 0.6110(3) -0.0532(3)
O5 O 0.1049(5) 0.7474(4) 0.0357(3)
O6 O -0.1179(5) 0.7431(4) 0.0923(3)
N1 N -0.1486(5) 0.6493(4) -0.0075(4)
N2 N 0.1399(6) 0.6475(4) 0.1312(3)
C1 C -0.1979(7) 0.5854(5) 0.0744(5)
C2 C -0.1360(7) 0.5769(5) 0.1644(4)
C3 C -0.0630(8) 0.5623(6) 0.1916(5)
C4 C 0.0612(7) 0.5971(5) 0.2098(4)
C5 C 0.1203(7) 0.6453(5) 0.1936(4)
C6 C 0.1792(8) 0.5882(5) 0.1141(5)
C7 C 0.1941(8) 0.5820(6) 0.0506(6)
C8 C 0.1311(8) 0.5844(6) -0.0413(5)
C9 C 0.0602(8) 0.5694(6) -0.0708(5)
C10 C -0.0678(7) 0.5984(5) -0.0845(5)
C11 C -0.1275(7) 0.6465(5) -0.0692(4)
C12 C -0.1885(7) 0.5915(5) 0.0109(5)
C13 C 0.1942(7) 0.7012(5) 0.1218(5)
C14 C 0.1584(7) 0.7660(5) 0.1272(4)
C15 C 0.1721(7) 0.8058(6) 0.1753(5)
C16 C 0.2179(7) 0.7877(6) 0.2232(5)
C17 C 0.2291(9) 0.8281(7) 0.2681(6)
C18 C 0.1964(10) 0.8908(7) 0.2668(6)
C19 C 0.1540(10) 0.9087(7) 0.2230(6)
C20 C 0.1404(8) 0.8684(5) 0.1756(5)
C21 C 0.1012(8) 0.8891(6) 0.1273(6)
C22 C 0.0890(8) 0.8506(5) 0.0812(6)
C23 C 0.1177(7) 0.7879(5) 0.0814(5)
C24 C 0.0780(8) 0.7706(4) -0.0193(9)
C25 C -0.2021(6) 0.7034(4) 0.0012(5)
C26 C -0.1636(7) 0.7681(50) -0.0001(4)
C27 C -0.1736(7) 0.8109(5) -0.0467(5)
C28 C -0.2099(8) 0.7978(6) -0.0993(5)
C29 C -0.2193(9) 0.8398(6) -0.1428(5)
C30 C -0.1866(10) 0.9013(7) -0.1365(7)
C31 C -0.1499(10) 0.9176(7) -0.0878(6)
C32 C -0.1416(8) 0.8745(6) -0.0423(5)
C33 C -0.1091(7) 0.8910(5) 0.0103(5)
C34 C -0.0999(7) 0.8503(5) 0.0565(5)
C35 C -0.1278(7) 0.7873(5) 0.0497(5)
C36 C -0.0878(8) 0.7611(6) 0.1469(4)
O7 O 0.3431(6) 0.4426(10) 0.1217(10)
C37 C 0.4629(8) 0.4999(13) 0.1293(10)
C38 C 0.4224(6) 0.4407(8) 0.1066(11)
O8 O 1.0196(14) 0.2305(13) 0.1794(13)
C39 C 0.8890(14) 0.2693(12) 0.1790(13)
C40 C 0.9728(16) 0.2831(13) 0.1919(15)
loop_
_geom_bond_atom_site_label_1
_geom_bond_atom_site_label_2
_geom_bond_site_symmetry_1
_geom_bond_site_symmetry_2
K1 O1 1_555 1_555
O1 C1 1_555 1_555
O2 K1 1_555 1_555
O3 K1 1_555 1_555
O4 K1 1_555 1_555
O5 K1 1_555 1_555
O6 K1 1_555 1_555
N1 K1 1_555 1_555
N2 K1 1_555 1_555
C1 C12 1_555 1_555
C2 O1 1_555 1_555
C3 O2 1_555 1_555
C4 O2 1_555 1_555
C5 N2 1_555 1_555
C6 N2 1_555 1_555
C7 O3 1_555 1_555
C8 O3 1_555 1_555
C9 O4 1_555 1_555
C10 O4 1_555 1_555
C11 N1 1_555 1_555
C12 N1 1_555 1_555
C13 N2 1_555 1_555
C14 C13 1_555 1_555
C15 C14 1_555 1_555
C16 C15 1_555 1_555
C17 C16 1_555 1_555
C18 C17 1_555 1_555
C19 C18 1_555 1_555
C20 C15 1_555 1_555
C21 C20 1_555 1_555
C22 C21 1_555 1_555
C23 O5 1_555 1_555
C24 O5 1_555 1_555
C25 N1 1_555 1_555
C26 C25 1_555 1_555
C27 C26 1_555 1_555
C28 C27 1_555 1_555
C29 C28 1_555 1_555
C30 C29 1_555 1_555
C31 C30 1_555 1_555
C32 C27 1_555 1_555
C33 C32 1_555 1_555
C34 C33 1_555 1_555
C35 O6 1_555 1_555
C36 O6 1_555 1_555
O7 C38 1_555 1_555
C37 C38 1_555 1_555
O8 C40 1_555 1_555
C39 C40 1_555 1_555
C2 C3 1_555 1_555
C4 C5 1_555 1_555
C6 C7 1_555 1_555
C8 C9 1_555 1_555
C10 C11 1_555 1_555
C14 C23 1_555 1_555
C19 C20 1_555 1_555
C22 C23 1_555 1_555
C26 C35 1_555 1_555
C31 C32 1_555 1_555
C34 C35 1_555 1_555

#END
