
#######################################################################
#
#                 Cambridge Crystallographic Data Centre
#                                CCDC 
#
#######################################################################
#
# If this CIF has been generated from an entry in the Cambridge 
# Structural Database, then it will include bibliographic, chemical, 
# crystal, experimental, refinement or atomic coordinate data resulting 
# from the CCDC's data processing and validation procedures.
#
#######################################################################

data_SOCSIO
_chemical_formula_moiety         'C15 H19 N2 O2 S1 1+,C15 H18 N2 O2 S1,I5 1-'
_chemical_name_systematic        
'2-methyl-6-{[(2,4,6-trimethylphenyl)sulfonyl]amino}pyridinium (6-methylpyridinium-2-yl)[(2,4,6-trimethylphenyl)sulfonyl]azanide pentaiodide'
_symmetry_cell_setting           monoclinic
_symmetry_space_group_name_H-M   'P c'
_symmetry_Int_Tables_number      7
_space_group_name_Hall           'P -2yc'
loop_
_symmetry_equiv_pos_site_id
_symmetry_equiv_pos_as_xyz
1 x,y,z
2 x,-y,1/2+z
_cell_length_a                   16.9768(14)
_cell_length_b                   6.0927(5)
_cell_length_c                   25.1670(15)
_cell_angle_alpha                90
_cell_angle_beta                 132.421(3)
_cell_angle_gamma                90
_cell_volume                     1921.66
_exptl_crystal_colour            brown
_exptl_crystal_description       needle
_cell_formula_units_Z            2
loop_
_atom_site_label
_atom_site_type_symbol
_atom_site_fract_x
_atom_site_fract_y
_atom_site_fract_z
I1 I 0.78040(6) 1.38627(12) 0.92237(4)
I2 I 0.91074(6) 1.02603(13) 1.03087(4)
I3 I 1.01651(6) 0.67723(13) 1.13136(4)
I4 I 0.62366(6) 1.02243(13) 0.83102(4)
I5 I 0.48285(6) 0.67329(13) 0.74394(4)
S1 S 0.4253(2) 0.5703(5) 0.96747(15)
O1 O 0.4033(6) 0.6214(12) 1.0124(4)
O2 O 0.4194(6) 0.7458(13) 0.9266(4)
N1 N 0.2660(6) 0.1038(14) 0.8286(4)
H1 H 0.2238 0.0624 0.8364
N2 N 0.3338(7) 0.3846(15) 0.9110(5)
H2 H 0.2952 0.3414 0.9219
C1 C 0.3292(9) 0.286(2) 0.8592(6)
C2 C 0.2530(8) -0.0208(17) 0.7784(5)
C3 C 0.3087(8) 0.0327(18) 0.7590(5)
H3 H 0.3023 -0.0528 0.7246
C4 C 0.3750(8) 0.2155(18) 0.7907(6)
H4 H 0.4143 0.2531 0.7776
C5 C 0.3860(9) 0.3429(19) 0.8398(6)
H5 H 0.4313 0.4679 0.8602
C6 C 0.1791(10) -0.2092(19) 0.7492(7)
H6 H 0.1906 -0.3094 0.7245
H7 H 0.1053 -0.1561 0.7151
H8 H 0.1924 -0.2870 0.7887
C7 C 0.5492(8) 0.4381(18) 1.0194(5)
C8 C 0.5655(9) 0.2502(18) 1.0612(6)
C9 C 0.6625(9) 0.1445(18) 1.1025(6)
H9 H 0.6755 0.0224 1.1310
C10 C 0.7420(9) 0.212(2) 1.1037(6)
C11 C 0.7250(8) 0.3875(18) 1.0644(6)
H10 H 0.7808 0.4331 1.0667
C12 C 0.6285(8) 0.5067(18) 1.0201(5)
C13 C 0.4863(9) 0.1697(19) 1.0656(6)
H11 H 0.4201 0.1269 1.0176
H12 H 0.4713 0.2870 1.0843
H13 H 0.5160 0.0426 1.0979
C14 C 0.8477(9) 0.0906(19) 1.1517(6)
H14 H 0.8994 0.1715 1.1536
H15 H 0.8376 -0.0566 1.1323
H16 H 0.8743 0.0786 1.2003
C15 C 0.6243(9) 0.7070(19) 0.9819(6)
H17 H 0.5619 0.6962 0.9301
H18 H 0.6892 0.7129 0.9898
H19 H 0.6190 0.8404 1.0010
S2 S 0.1239(2) 0.0322(5) 0.89958(15)
O3 O 0.1437(6) -0.0180(13) 0.8529(4)
O4 O 0.1396(6) -0.1463(12) 0.9434(4)
N3 N 0.2640(6) 0.4995(13) 1.0326(4)
H20 H 0.3083 0.5384 1.0266
N4 N 0.2018(7) 0.2361(14) 0.9469(5)
C16 C 0.1964(8) 0.3249(19) 0.9953(6)
C17 C 0.2723(9) 0.6261(18) 1.0805(6)
C18 C 0.2060(9) 0.5810(18) 1.0915(6)
H21 H 0.2070 0.6705 1.1228
C19 C 0.1365(9) 0.4035(19) 1.0568(6)
H22 H 0.0919 0.3684 1.0658
C20 C 0.1327(9) 0.2819(19) 1.0106(6)
H23 H 0.0846 0.1616 0.9874
C21 C 0.3481(9) 0.8138(18) 1.1136(6)
H24 H 0.3401 0.8929 1.0763
H25 H 0.4214 0.7588 1.1500
H26 H 0.3329 0.9133 1.1363
C22 C -0.0107(8) 0.1251(17) 0.8434(5)
C23 C -0.0380(9) 0.3140(17) 0.8007(6)
C24 C -0.1438(8) 0.3820(19) 0.7568(6)
H27 H -0.1651 0.5083 0.7277
C25 C -0.2193(9) 0.278(2) 0.7529(6)
C26 C -0.1888(9) 0.0868(19) 0.7939(6)
H28 H -0.2412 0.0079 0.7895
C27 C -0.0846(8) 0.0086(18) 0.8408(5)
C28 C 0.0353(9) 0.4371(17) 0.7988(6)
H29 H 0.0966 0.4896 0.8472
H30 H -0.0024 0.5626 0.7661
H31 H 0.0604 0.3404 0.7816
C29 C -0.3304(9) 0.370(2) 0.7096(6)
H32 H -0.3808 0.2491 0.6923
H33 H -0.3509 0.4520 0.6684
H34 H -0.3314 0.4677 0.7400
C30 C -0.0652(9) -0.1932(17) 0.8836(6)
H35 H -0.0099 -0.1610 0.9352
H36 H -0.0417 -0.3147 0.8716
H37 H -0.1314 -0.2342 0.8716
loop_
_geom_bond_atom_site_label_1
_geom_bond_atom_site_label_2
_geom_bond_site_symmetry_1
_geom_bond_site_symmetry_2
I1 I2 1_555 1_555
I2 I3 1_555 1_555
I4 I1 1_555 1_555
I5 I4 1_555 1_555
S1 O1 1_555 1_555
O2 S1 1_555 1_555
N1 H1 1_555 1_555
N2 S1 1_555 1_555
H2 N2 1_555 1_555
C1 N1 1_555 1_555
C2 N1 1_555 1_555
C3 C2 1_555 1_555
H3 C3 1_555 1_555
C4 C3 1_555 1_555
H4 C4 1_555 1_555
C5 C1 1_555 1_555
H5 C5 1_555 1_555
C6 C2 1_555 1_555
H6 C6 1_555 1_555
H7 C6 1_555 1_555
H8 C6 1_555 1_555
C7 S1 1_555 1_555
C8 C7 1_555 1_555
C9 C8 1_555 1_555
H9 C9 1_555 1_555
C10 C9 1_555 1_555
C11 C10 1_555 1_555
H10 C11 1_555 1_555
C12 C7 1_555 1_555
C13 C8 1_555 1_555
H11 C13 1_555 1_555
H12 C13 1_555 1_555
H13 C13 1_555 1_555
C14 C10 1_555 1_555
H14 C14 1_555 1_555
H15 C14 1_555 1_555
H16 C14 1_555 1_555
C15 C12 1_555 1_555
H17 C15 1_555 1_555
H18 C15 1_555 1_555
H19 C15 1_555 1_555
S2 O3 1_555 1_555
O4 S2 1_555 1_555
N3 H20 1_555 1_555
N4 S2 1_555 1_555
C16 N3 1_555 1_555
C17 N3 1_555 1_555
C18 C17 1_555 1_555
H21 C18 1_555 1_555
C19 C18 1_555 1_555
H22 C19 1_555 1_555
C20 C16 1_555 1_555
H23 C20 1_555 1_555
C21 C17 1_555 1_555
H24 C21 1_555 1_555
H25 C21 1_555 1_555
H26 C21 1_555 1_555
C22 S2 1_555 1_555
C23 C22 1_555 1_555
C24 C23 1_555 1_555
H27 C24 1_555 1_555
C25 C24 1_555 1_555
C26 C25 1_555 1_555
H28 C26 1_555 1_555
C27 C22 1_555 1_555
C28 C23 1_555 1_555
H29 C28 1_555 1_555
H30 C28 1_555 1_555
H31 C28 1_555 1_555
C29 C25 1_555 1_555
H32 C29 1_555 1_555
H33 C29 1_555 1_555
H34 C29 1_555 1_555
C30 C27 1_555 1_555
H35 C30 1_555 1_555
H36 C30 1_555 1_555
H37 C30 1_555 1_555
N2 C1 1_555 1_555
C4 C5 1_555 1_555
C11 C12 1_555 1_555
N4 C16 1_555 1_555
C19 C20 1_555 1_555
C26 C27 1_555 1_555

#END
