
#######################################################################
#
#                 Cambridge Crystallographic Data Centre
#                                CCDC 
#
#######################################################################
#
# If this CIF has been generated from an entry in the Cambridge 
# Structural Database, then it will include bibliographic, chemical, 
# crystal, experimental, refinement or atomic coordinate data resulting 
# from the CCDC's data processing and validation procedures.
#
#######################################################################

data_SODHOJ
_chemical_formula_moiety         'C24 H29 Cl1 N2 O6'
_chemical_name_systematic        
'1^3^-Chloro-1^4^,1^6^-dihydroxy-3-oxa-1(1,2)benzenacyclotridecaphane-6,10-diene-2,12-dione 12-O-(piperidinoylmethyl)oxime'
_chemical_properties_biological  
'potent inhibitor of the heat-shock protein 90 (HSP90); potential anti-cancer agent'
_symmetry_cell_setting           monoclinic
_symmetry_space_group_name_H-M   'P 21/c'
_symmetry_Int_Tables_number      14
_space_group_name_Hall           '-P 2ybc'
loop_
_symmetry_equiv_pos_site_id
_symmetry_equiv_pos_as_xyz
1 x,y,z
2 -x,1/2+y,1/2-z
3 -x,-y,-z
4 x,1/2-y,1/2+z
_cell_length_a                   12.6681(5)
_cell_length_b                   14.0158(7)
_cell_length_c                   13.9756(6)
_cell_angle_alpha                90
_cell_angle_beta                 103.652(3)
_cell_angle_gamma                90
_cell_volume                     2411.31
_exptl_crystal_colour            colorless
_exptl_crystal_description       plate
_cell_formula_units_Z            4
loop_
_atom_site_label
_atom_site_type_symbol
_atom_site_fract_x
_atom_site_fract_y
_atom_site_fract_z
C1 C 0.6151(2) -0.25773(17) 0.09346(18)
H1 H 0.5406 -0.2620 0.1039
H2 H 0.6632 -0.2330 0.1548
C2 C 0.6529(2) -0.35664(17) 0.0727(2)
H3 H 0.6417 -0.4012 0.1244
H4 H 0.7317 -0.3548 0.0751
C3 C 0.5917(2) -0.39279(18) -0.0274(2)
H5 H 0.6208 -0.4557 -0.0407
H6 H 0.5139 -0.4006 -0.0282
C4 C 0.60422(19) -0.32216(17) -0.10634(19)
H7 H 0.6818 -0.3173 -0.1078
H8 H 0.5633 -0.3452 -0.1715
C5 C 0.56238(18) -0.22471(16) -0.08640(17)
H9 H 0.5760 -0.1787 -0.1359
H10 H 0.4829 -0.2281 -0.0929
C6 C 0.63584(18) -0.09757(17) 0.03406(19)
C7 C 0.61537(18) -0.02772(16) -0.05133(17)
H11 H 0.6574 -0.0476 -0.0994
H12 H 0.5373 -0.0287 -0.0851
C8 C 0.79441(17) 0.15994(16) 0.00820(16)
C9 C 0.91212(18) 0.17432(17) 0.02242(17)
H13 H 0.9351 0.2327 -0.0008
C10 C 0.98806(19) 0.11426(18) 0.06402(18)
H14 H 0.9660 0.0556 0.0872
C11 C 1.10782(17) 0.13139(18) 0.07785(18)
H15 H 1.1193 0.1851 0.0354
H16 H 1.1421 0.0739 0.0573
C12 C 1.16217(19) 0.15461(18) 0.18577(18)
H17 H 1.1440 0.1044 0.2291
H18 H 1.2420 0.1556 0.1947
C13 C 1.12502(19) 0.24828(18) 0.21393(19)
H19 H 1.1467 0.3030 0.1833
C14 C 1.06418(19) 0.26328(18) 0.27806(18)
H20 H 1.0463 0.2100 0.3132
C15 C 1.02223(18) 0.35902(17) 0.29809(17)
H21 H 1.0535 0.4081 0.2619
H22 H 1.0469 0.3731 0.3693
C16 C 0.89983(18) 0.36543(18) 0.26824(17)
H23 H 0.8684 0.3166 0.3046
H24 H 0.8768 0.4289 0.2868
C17 C 0.86181(18) 0.42509(18) 0.10409(18)
C18 C 0.81219(17) 0.41071(16) -0.00151(16)
C19 C 0.82728(17) 0.48575(16) -0.06569(18)
C20 C 0.78311(18) 0.48154(16) -0.16634(18)
H25 H 0.7937 0.5331 -0.2072
C21 C 0.72408(17) 0.40322(17) -0.20727(17)
C22 C 0.71003(16) 0.32800(16) -0.14508(17)
C23 C 0.75046(16) 0.32998(16) -0.04432(16)
C24 C 0.72334(17) 0.24533(15) 0.01349(16)
H26 H 0.7324 0.2641 0.0832
H27 H 0.6463 0.2274 -0.0127
Cl1 Cl 0.63733(5) 0.22938(4) -0.20210(4)
N1 N 0.61553(14) -0.19075(13) 0.01279(14)
N2 N 0.76062(14) 0.07380(13) -0.00836(14)
O1 O 0.66751(13) -0.06902(11) 0.11957(13)
O2 O 0.64590(11) 0.06654(10) -0.01851(12)
O3 O 0.85775(12) 0.35120(11) 0.16294(11)
O4 O 0.90466(14) 0.50004(12) 0.13784(12)
O5 O 0.88428(14) 0.56586(12) -0.03312(15)
O6 O 0.67838(13) 0.39560(13) -0.30383(12)
H28 H 0.908(2) 0.5601(19) 0.032(2)
H29 H 0.676(2) 0.451(2) -0.336(2)
loop_
_geom_bond_atom_site_label_1
_geom_bond_atom_site_label_2
_geom_bond_site_symmetry_1
_geom_bond_site_symmetry_2
C1 H1 1_555 1_555
H2 C1 1_555 1_555
C2 C1 1_555 1_555
H3 C2 1_555 1_555
H4 C2 1_555 1_555
C3 C2 1_555 1_555
H5 C3 1_555 1_555
H6 C3 1_555 1_555
C4 C3 1_555 1_555
H7 C4 1_555 1_555
H8 C4 1_555 1_555
C5 C4 1_555 1_555
H9 C5 1_555 1_555
H10 C5 1_555 1_555
C6 C7 1_555 1_555
C7 H11 1_555 1_555
H12 C7 1_555 1_555
C8 C9 1_555 1_555
C9 H13 1_555 1_555
C10 C9 1_555 1_555
H14 C10 1_555 1_555
C11 C10 1_555 1_555
H15 C11 1_555 1_555
H16 C11 1_555 1_555
C12 C11 1_555 1_555
H17 C12 1_555 1_555
H18 C12 1_555 1_555
C13 C12 1_555 1_555
H19 C13 1_555 1_555
C14 C13 1_555 1_555
H20 C14 1_555 1_555
C15 C14 1_555 1_555
H21 C15 1_555 1_555
H22 C15 1_555 1_555
C16 C15 1_555 1_555
H23 C16 1_555 1_555
H24 C16 1_555 1_555
C17 C18 1_555 1_555
C18 C19 1_555 1_555
C19 C20 1_555 1_555
C20 H25 1_555 1_555
C21 C20 1_555 1_555
C22 C21 1_555 1_555
C23 C18 1_555 1_555
C24 C8 1_555 1_555
H26 C24 1_555 1_555
H27 C24 1_555 1_555
Cl1 C22 1_555 1_555
N1 C1 1_555 1_555
N2 C8 1_555 1_555
O1 C6 1_555 1_555
O2 C7 1_555 1_555
O3 C16 1_555 1_555
O4 C17 1_555 1_555
O5 C19 1_555 1_555
O6 C21 1_555 1_555
H28 O5 1_555 1_555
H29 O6 1_555 1_555
C5 N1 1_555 1_555
C6 N1 1_555 1_555
C17 O3 1_555 1_555
C22 C23 1_555 1_555
C23 C24 1_555 1_555
N2 O2 1_555 1_555

#END
