
#######################################################################
#
#                 Cambridge Crystallographic Data Centre
#                                CCDC 
#
#######################################################################
#
# If this CIF has been generated from an entry in the Cambridge 
# Structural Database, then it will include bibliographic, chemical, 
# crystal, experimental, refinement or atomic coordinate data resulting 
# from the CCDC's data processing and validation procedures.
#
#######################################################################

data_SOFLUW
_chemical_formula_moiety         'C13 H11 N1 O4'
_chemical_name_systematic        
'ethyl 3-oxo-2-(2-oxo-1,2-dihydro-3H-indol-3-ylidene)propanoate'
_symmetry_cell_setting           monoclinic
_symmetry_space_group_name_H-M   'P 21/c'
_symmetry_Int_Tables_number      14
_space_group_name_Hall           '-P 2ybc'
loop_
_symmetry_equiv_pos_site_id
_symmetry_equiv_pos_as_xyz
1 x,y,z
2 -x,1/2+y,1/2-z
3 -x,-y,-z
4 x,1/2-y,1/2+z
_cell_length_a                   8.0546(7)
_cell_length_b                   15.0066(10)
_cell_length_c                   9.9802(7)
_cell_angle_alpha                90
_cell_angle_beta                 112.229(9)
_cell_angle_gamma                90
_cell_volume                     1116.67
_cell_formula_units_Z            4
loop_
_atom_site_label
_atom_site_type_symbol
_atom_site_fract_x
_atom_site_fract_y
_atom_site_fract_z
C1 C 0.07605(16) 0.37107(8) 0.48513(12)
C2 C -0.10951(16) 0.31669(8) 0.59151(12)
C3 C -0.23493(17) 0.31274(9) 0.65448(13)
H1 H -0.288 0.3653 0.6734
C4 C -0.28107(18) 0.22898(9) 0.68942(13)
H2 H -0.3672 0.2241 0.7329
C5 C -0.20264(17) 0.15228(9) 0.66146(13)
H3 H -0.2368 0.0957 0.6853
C6 C -0.07513(16) 0.15720(8) 0.59932(13)
H4 H -0.0213 0.1046 0.5815
C7 C -0.02737(16) 0.24042(8) 0.56357(12)
C8 C 0.09465(16) 0.26971(7) 0.49468(12)
C9 C 0.20404(16) 0.22021(8) 0.45007(12)
C10 C 0.21799(16) 0.12098(8) 0.47429(12)
C11 C 0.36920(19) 0.00952(8) 0.64641(14)
H5 H 0.4196 -0.021 0.5823
H6 H 0.2556 -0.0203 0.6368
C12 C 0.49952(18) 0.00605(10) 0.80028(15)
H7 H 0.6041 0.043 0.8111
H8 H 0.538 -0.0557 0.8263
H9 H 0.4417 0.0285 0.8641
C13 C 0.31655(17) 0.25437(9) 0.37360(13)
H10 H 0.312(2) 0.3206(11) 0.3584(17)
H11 H -0.077(2) 0.4471(11) 0.5549(17)
N1 N -0.04544(14) 0.39230(7) 0.54425(11)
O1 O 0.15472(12) 0.42454(6) 0.43714(9)
O2 O 0.13473(13) 0.06605(6) 0.38735(10)
O3 O 0.33690(11) 0.10343(6) 0.60689(9)
O4 O 0.40656(13) 0.20465(7) 0.33334(11)
loop_
_geom_bond_atom_site_label_1
_geom_bond_atom_site_label_2
_geom_bond_site_symmetry_1
_geom_bond_site_symmetry_2
C1 C8 1_555 1_555
C2 C3 1_555 1_555
C3 H1 1_555 1_555
C4 C3 1_555 1_555
H2 C4 1_555 1_555
C5 C4 1_555 1_555
H3 C5 1_555 1_555
C6 C5 1_555 1_555
H4 C6 1_555 1_555
C7 C2 1_555 1_555
C8 C7 1_555 1_555
C9 C8 1_555 1_555
C10 C9 1_555 1_555
C11 H5 1_555 1_555
H6 C11 1_555 1_555
C12 C11 1_555 1_555
H7 C12 1_555 1_555
H8 C12 1_555 1_555
H9 C12 1_555 1_555
C13 C9 1_555 1_555
H10 C13 1_555 1_555
H11 N1 1_555 1_555
N1 C1 1_555 1_555
O1 C1 1_555 1_555
O2 C10 1_555 1_555
O3 C10 1_555 1_555
O4 C13 1_555 1_555
C2 N1 1_555 1_555
C6 C7 1_555 1_555
C11 O3 1_555 1_555

#END
