
#######################################################################
#
#                 Cambridge Crystallographic Data Centre
#                                CCDC 
#
#######################################################################
#
# If this CIF has been generated from an entry in the Cambridge 
# Structural Database, then it will include bibliographic, chemical, 
# crystal, experimental, refinement or atomic coordinate data resulting 
# from the CCDC's data processing and validation procedures.
#
#######################################################################

data_SOFNOR
_chemical_formula_moiety         'C32 H24 N2 O6,H2 O1'
_chemical_name_systematic        
"2',4',9'-Trimethyl-1',2',3a',4'-tetrahydro-11'H-dispiro(indene-2,3'-chromeno(3,2-c)pyrrolo(3,4-b)pyrrole-5',2''-indene)-1,1'',3,3'',11'-pentone monohydrate"
_symmetry_cell_setting           orthorhombic
_symmetry_space_group_name_H-M   'P b c a'
_symmetry_Int_Tables_number      61
_space_group_name_Hall           '-P 2ac 2ab'
loop_
_symmetry_equiv_pos_site_id
_symmetry_equiv_pos_as_xyz
1 x,y,z
2 1/2-x,-y,1/2+z
3 -x,1/2+y,1/2-z
4 1/2+x,1/2-y,-z
5 -x,-y,-z
6 1/2+x,y,1/2-z
7 x,1/2-y,1/2+z
8 1/2-x,1/2+y,z
_cell_length_a                   11.099(3)
_cell_length_b                   13.014(3)
_cell_length_c                   36.798(10)
_cell_angle_alpha                90
_cell_angle_beta                 90
_cell_angle_gamma                90
_cell_volume                     5315.19
_exptl_crystal_colour            'pale yellow'
_exptl_crystal_description       needle
_cell_formula_units_Z            8
loop_
_atom_site_label
_atom_site_type_symbol
_atom_site_fract_x
_atom_site_fract_y
_atom_site_fract_z
N1 N 0.6116(5) 0.8149(4) 0.86171(14)
N2 N 0.3436(5) 0.9715(4) 0.86143(13)
O1 O 0.3960(4) 0.7678(4) 0.81416(11)
O2 O 0.7007(5) 1.0142(4) 0.83449(13)
O3 O 0.5705(5) 0.9359(4) 0.94461(10)
O4 O 0.2577(4) 0.7740(3) 0.92592(19)
O5 O 0.3038(5) 1.0370(3) 0.93878(13)
O6 O 0.1097(4) 0.8703(4) 0.84138(16)
C1 C 0.6835(6) 0.7436(5) 0.84020(17)
H1 H 0.6311 0.7001 0.8263
H2 H 0.7319 0.7022 0.8561
H3 H 0.7349 0.7816 0.8241
C2 C 0.5331(6) 0.7652(5) 0.88828(17)
H4 H 0.5793 0.7394 0.9087
H5 H 0.4892 0.7087 0.8773
C3 C 0.4463(6) 0.8513(5) 0.90040(19)
C4 C 0.4645(6) 0.9388(5) 0.87283(17)
H6 H 0.5085 0.9961 0.8839
C5 C 0.5396(7) 0.8891(6) 0.84195(18)
C6 C 0.4563(7) 0.8458(7) 0.8121(2)
C7 C 0.4688(9) 0.9113(8) 0.7798(3)
C8 C 0.5624(9) 0.9806(8) 0.7855(3)
C9 C 0.6147(8) 0.9688(5) 0.8215(3)
C10 C 0.4059(7) 0.9114(6) 0.7471(3)
H7 H 0.3430 0.8656 0.7430
C11 C 0.4399(10) 0.9819(9) 0.7209(2)
H8 H 0.3980 0.9839 0.6990
C12 C 0.5347(10) 1.0497(7) 0.7263(3)
H9 H 0.5571 1.0949 0.7079
C13 C 0.5963(6) 1.0496(7) 0.7593(4)
H10 H 0.6590 1.0955 0.7635
C14 C 0.4805(9) 0.8846(6) 0.9387(2)
C15 C 0.4080(10) 0.8419(6) 0.9678(3)
C16 C 0.4415(6) 0.8520(5) 1.0045(3)
H11 H 0.5070 0.8933 1.0104
C17 C 0.3800(9) 0.8022(6) 1.0323(2)
C18 C 0.4228(6) 0.8118(5) 1.07093(19)
H12 H 0.3642 0.8490 1.0849
H13 H 0.4982 0.8479 1.0714
H14 H 0.4334 0.7445 1.0812
C19 C 0.2805(9) 0.7443(5) 1.0228(3)
H15 H 0.2388 0.7091 1.0408
C20 C 0.2411(7) 0.7372(5) 0.9873(4)
H16 H 0.1722 0.6996 0.9817
C21 C 0.3047(10) 0.7865(7) 0.9601(3)
C22 C 0.3136(6) 0.8262(5) 0.89693(19)
H17 H 0.3056 0.7818 0.8756
C23 C 0.2551(7) 0.9307(5) 0.88659(19)
C24 C 0.2261(9) 0.9962(5) 0.9201(2)
C25 C 0.0962(9) 1.0023(6) 0.9245(3)
C26 C 0.0303(11) 1.0449(5) 0.9532(2)
H18 H 0.0684 1.0763 0.9728
C27 C -0.0923(12) 1.0386(6) 0.9513(3)
H19 H -0.1386 1.0652 0.9701
C28 C -0.1490(8) 0.9934(7) 0.9218(4)
H20 H -0.2328 0.9907 0.9213
C29 C -0.0841(12) 0.9523(5) 0.8932(3)
H21 H -0.1227 0.9232 0.8732
C30 C 0.0400(10) 0.9560(6) 0.8953(3)
C31 C 0.1299(8) 0.9136(6) 0.8698(3)
C32 C 0.3309(5) 1.0799(5) 0.85180(16)
H22 H 0.2509 1.0922 0.8429
H23 H 0.3884 1.0971 0.8333
H24 H 0.3450 1.1215 0.8729
O7 O 0.1743(11) 0.7499(8) 0.7690(3)
loop_
_geom_bond_atom_site_label_1
_geom_bond_atom_site_label_2
_geom_bond_site_symmetry_1
_geom_bond_site_symmetry_2
N1 C1 1_555 1_555
N2 C4 1_555 1_555
O1 C6 1_555 1_555
O2 C9 1_555 1_555
O3 C14 1_555 1_555
O4 C21 1_555 1_555
O5 C24 1_555 1_555
O6 C31 1_555 1_555
C1 H1 1_555 1_555
H2 C1 1_555 1_555
H3 C1 1_555 1_555
C2 N1 1_555 1_555
H4 C2 1_555 1_555
H5 C2 1_555 1_555
C3 C2 1_555 1_555
C4 C3 1_555 1_555
H6 C4 1_555 1_555
C5 N1 1_555 1_555
C6 C5 1_555 1_555
C7 C6 1_555 1_555
C8 C7 1_555 1_555
C9 C5 1_555 1_555
C10 C7 1_555 1_555
H7 C10 1_555 1_555
C11 C10 1_555 1_555
H8 C11 1_555 1_555
C12 C11 1_555 1_555
H9 C12 1_555 1_555
C13 C8 1_555 1_555
H10 C13 1_555 1_555
C14 C3 1_555 1_555
C15 C14 1_555 1_555
C16 C15 1_555 1_555
H11 C16 1_555 1_555
C17 C16 1_555 1_555
C18 C17 1_555 1_555
H12 C18 1_555 1_555
H13 C18 1_555 1_555
H14 C18 1_555 1_555
C19 C17 1_555 1_555
H15 C19 1_555 1_555
C20 C19 1_555 1_555
H16 C20 1_555 1_555
C21 C15 1_555 1_555
C22 O4 1_555 1_555
H17 C22 1_555 1_555
C23 N2 1_555 1_555
C24 C23 1_555 1_555
C25 C24 1_555 1_555
C26 C25 1_555 1_555
H18 C26 1_555 1_555
C27 C26 1_555 1_555
H19 C27 1_555 1_555
C28 C27 1_555 1_555
H20 C28 1_555 1_555
C29 C28 1_555 1_555
H21 C29 1_555 1_555
C30 C25 1_555 1_555
C31 C23 1_555 1_555
C32 N2 1_555 1_555
H22 C32 1_555 1_555
H23 C32 1_555 1_555
H24 C32 1_555 1_555
C3 C22 1_555 1_555
C4 C5 1_555 1_555
C8 C9 1_555 1_555
C12 C13 1_555 1_555
C20 C21 1_555 1_555
C22 C23 1_555 1_555
C29 C30 1_555 1_555
C30 C31 1_555 1_555

#END
