
#######################################################################
#
#                 Cambridge Crystallographic Data Centre
#                                CCDC 
#
#######################################################################
#
# If this CIF has been generated from an entry in the Cambridge 
# Structural Database, then it will include bibliographic, chemical, 
# crystal, experimental, refinement or atomic coordinate data resulting 
# from the CCDC's data processing and validation procedures.
#
#######################################################################

data_SOGREL
_chemical_compound_source        'Vinca major'
_chemical_formula_moiety         'C22 H26 N2 O4'
_chemical_name_systematic        11-Methoxytetrahydroalstonine
_symmetry_cell_setting           orthorhombic
_symmetry_space_group_name_H-M   'P 21 21 21'
_symmetry_Int_Tables_number      19
_space_group_name_Hall           'P 2ac 2ab'
loop_
_symmetry_equiv_pos_site_id
_symmetry_equiv_pos_as_xyz
1 x,y,z
2 1/2+x,1/2-y,-z
3 -x,1/2+y,1/2-z
4 1/2-x,-y,1/2+z
_cell_length_a                   31.666(6)
_cell_length_b                   7.641(1)
_cell_length_c                   7.941(1)
_cell_angle_alpha                90
_cell_angle_beta                 90
_cell_angle_gamma                90
_cell_volume                     1921.4
_chemical_melting_point          229deg.C
_cell_formula_units_Z            4
loop_
_atom_site_label
_atom_site_type_symbol
_atom_site_fract_x
_atom_site_fract_y
_atom_site_fract_z
O1 O 0.5770(2) -0.3062(8) 1.7843(7)
O2 O 0.2905(2) 0.1525(8) 0.9623(7)
O3 O 0.3168(2) 0.2783(8) 1.5268(7)
O4 O 0.2670(2) 0.4300(8) 1.3955(8)
N1 N 0.4391(2) -0.1640(8) 1.5313(8)
N2 N 0.3698(2) -0.2802(8) 1.1636(3)
C1 C 0.5449(2) -0.3092(11) 1.6649(10)
C2 C 0.5092(2) -0.2103(10) 1.6790(10)
C3 C 0.4795(2) -0.2335(9) 1.5470(10)
C4 C 0.4861(2) -0.3443(9) 1.4101(10)
C5 C 0.5240(3) -0.4432(10) 1.4057(11)
C6 C 0.5529(3) -0.4238(11) 1.5300(11)
C7 C 0.4489(2) -0.3455(10) 1.3098(10)
C8 C 0.4211(2) -0.2350(9) 1.3876(10)
C9 C 0.3761(2) -0.2034(10) 1.3340(9)
C10 C 0.3622(2) -0.0145(9) 1.3346(9)
C11 C 0.3144(2) -0.0007(11) 1.2835(9)
C12 C 0.2987(2) 0.1870(11) 1.2598(10)
C13 C 0.2853(2) 0.2392(11) 1.1053(11)
C14 C 0.3186(2) 0.0024(10) 0.9732(11)
C15 C 0.3055(2) -0.1053(10) 1.1265(10)
C16 C 0.3251(2) -0.2880(11) 1.1334(11)
C17 C 0.3895(3) -0.4547(10) 1.1464(11)
C18 C 0.4366(3) -0.4471(10) 1.1593(10)
C19 C 0.3196(3) -0.0876(14) 0.8053(10)
C20 C 0.2912(2) 0.3102(11) 1.3956(10)
C21 C 0.3152(3) 0.4033(13) 1.6651(12)
C22 C 0.5724(3) -0.1791(14) 1.9222(12)
H1 H 0.4286 -0.0617 1.6100
H2 H 0.4995 -0.1416 1.7895
H3 H 0.5211 -0.5482 1.3158
H4 H 0.5725 -0.5232 1.5927
H5 H 0.3594 -0.2767 1.4216
H6 H 0.3798 0.0630 1.2673
H7 H 0.3686 0.0432 1.4524
H8 H 0.2995 -0.0685 1.3922
H9 H 0.2721 0.3657 1.0854
H10 H 0.3455 0.0463 1.0010
H11 H 0.2673 -0.1050 1.1090
H12 H 0.3207 -0.3415 1.0074
H13 H 0.3087 -0.3780 1.2073
H14 H 0.3753 -0.4894 1.0352
H15 H 0.3727 -0.5329 1.2397
H16 H 0.4502 -0.4010 1.0640
H17 H 0.4499 -0.5916 1.1480
H18 H 0.3484 -0.1173 0.7606
H19 H 0.2959 -0.1359 0.7612
H20 H 0.3160 0.0116 0.7092
H21 H 0.2894 0.4191 1.7592
H22 H 0.3284 0.5387 1.5880
H23 H 0.5456 -0.2269 1.9872
H24 H 0.5695 -0.0501 1.9139
H25 H 0.5885 -0.2137 2.0125
loop_
_geom_bond_atom_site_label_1
_geom_bond_atom_site_label_2
_geom_bond_site_symmetry_1
_geom_bond_site_symmetry_2
O1 C1 1_555 1_555
O2 C13 1_555 1_555
O3 C20 1_555 1_555
O4 C20 1_555 1_555
N1 C3 1_555 1_555
N2 C9 1_555 1_555
C1 C2 1_555 1_555
C2 C3 1_555 1_555
C3 C4 1_555 1_555
C4 C5 1_555 1_555
C5 C6 1_555 1_555
C6 C1 1_555 1_555
C7 C4 1_555 1_555
C8 N1 1_555 1_555
C9 C8 1_555 1_555
C10 C9 1_555 1_555
C11 C10 1_555 1_555
C12 C11 1_555 1_555
C13 C12 1_555 1_555
C14 O2 1_555 1_555
C15 C11 1_555 1_555
C16 N2 1_555 1_555
C17 N2 1_555 1_555
C18 C7 1_555 1_555
C19 C14 1_555 1_555
C20 C12 1_555 1_555
C21 O3 1_555 1_555
C22 O1 1_555 1_555
H1 N1 1_555 1_555
H2 C2 1_555 1_555
H3 C5 1_555 1_555
H4 C6 1_555 1_555
H5 C9 1_555 1_555
H6 C10 1_555 1_555
H7 C10 1_555 1_555
H8 C11 1_555 1_555
H9 C13 1_555 1_555
H10 C14 1_555 1_555
H11 C15 1_555 1_555
H12 C16 1_555 1_555
H13 C16 1_555 1_555
H14 C17 1_555 1_555
H15 C17 1_555 1_555
H16 C18 1_555 1_555
H17 C18 1_555 1_555
H18 C19 1_555 1_555
H19 C19 1_555 1_555
H20 C19 1_555 1_555
H21 C21 1_555 1_555
H22 C21 1_555 1_555
H23 C22 1_555 1_555
H24 C22 1_555 1_555
H25 C22 1_555 1_555
C7 C8 1_555 1_555
C14 C15 1_555 1_555
C15 C16 1_555 1_555
C17 C18 1_555 1_555

#END
