
#######################################################################
#
#                 Cambridge Crystallographic Data Centre
#                                CCDC 
#
#######################################################################
#
# If this CIF has been generated from an entry in the Cambridge 
# Structural Database, then it will include bibliographic, chemical, 
# crystal, experimental, refinement or atomic coordinate data resulting 
# from the CCDC's data processing and validation procedures.
#
#######################################################################

data_SOGUAN01
_chemical_formula_moiety         'C7 H10 N4 O2 S1,H2 O1'
_chemical_name_systematic        'Sulfaguanidine monohydrate'
_symmetry_cell_setting           monoclinic
_symmetry_space_group_name_H-M   'P 21/c'
_symmetry_Int_Tables_number      14
_space_group_name_Hall           '-P 2ybc'
loop_
_symmetry_equiv_pos_site_id
_symmetry_equiv_pos_as_xyz
1 x,y,z
2 -x,1/2+y,1/2-z
3 -x,-y,-z
4 x,1/2-y,1/2+z
_cell_length_a                   7.57(3)
_cell_length_b                   5.44(2)
_cell_length_c                   24.76(6)
_cell_angle_alpha                90
_cell_angle_beta                 91.0(2)
_cell_angle_gamma                90
_cell_volume                     1019.48
_cell_formula_units_Z            4
loop_
_atom_site_label
_atom_site_type_symbol
_atom_site_fract_x
_atom_site_fract_y
_atom_site_fract_z
C1 C 0.25700 0.41200 0.33390
C2 C 0.33800 0.20500 0.31600
C3 C 0.33800 0.15700 0.26030
C4 C 0.26100 0.32200 0.22300
C5 C 0.17500 0.51900 0.24330
C6 C 0.17500 0.57300 0.29830
C7 C -0.03800 0.29100 0.43020
N1 N 0.26600 0.27300 0.16710
N2 N 0.05500 0.49300 0.42260
N3 N 0.02200 0.06500 0.42610
N4 N -0.21500 0.32400 0.43860
O1 O 0.36600 0.30100 0.43060
O2 O 0.32300 0.72700 0.40980
S1 S 0.25880 0.48350 0.40410
O3 O 0.34900 0.16800 -0.45900
loop_
_geom_bond_atom_site_label_1
_geom_bond_atom_site_label_2
_geom_bond_site_symmetry_1
_geom_bond_site_symmetry_2
C1 C2 1_555 1_555
C2 C3 1_555 1_555
C3 C4 1_555 1_555
C4 C5 1_555 1_555
C5 C6 1_555 1_555
C6 C1 1_555 1_555
C7 N2 1_555 1_555
N1 C4 1_555 1_555
N2 S1 1_555 1_555
N3 C7 1_555 1_555
N4 C7 1_555 1_555
O1 S1 1_555 1_555
O2 S1 1_555 1_555
S1 C1 1_555 1_555

#END
