
#######################################################################
#
#                 Cambridge Crystallographic Data Centre
#                                CCDC 
#
#######################################################################
#
# If this CIF has been generated from an entry in the Cambridge 
# Structural Database, then it will include bibliographic, chemical, 
# crystal, experimental, refinement or atomic coordinate data resulting 
# from the CCDC's data processing and validation procedures.
#
#######################################################################

data_SOHNIM01
_chemical_compound_source        'Bark of Enantia chlorantha'
_chemical_name_common            'Jatrorrhizine hydrochloride dihydrate'
_chemical_formula_moiety         'C20 H20 N1 O4 1+,Cl1 1-,2(H2 O1)'
_chemical_name_systematic        
'5,6-Dihydro-3-hydroxy-2,9,10-trimethoxydibenzo(a,g)quinolizinium chloride dihydrate'
_chemical_properties_biological  'antimalarial activity'
_symmetry_cell_setting           monoclinic
_symmetry_space_group_name_H-M   'P 21/n'
_symmetry_Int_Tables_number      14
_space_group_name_Hall           '-P 2yn'
loop_
_symmetry_equiv_pos_site_id
_symmetry_equiv_pos_as_xyz
1 x,y,z
2 1/2-x,1/2+y,1/2-z
3 -x,-y,-z
4 1/2+x,1/2-y,1/2+z
_cell_length_a                   7.736(8)
_cell_length_b                   12.591(4)
_cell_length_c                   20.196(7)
_cell_angle_alpha                90
_cell_angle_beta                 95.08(6)
_cell_angle_gamma                90
_cell_volume                     1959.44
_exptl_crystal_colour            red
_cell_formula_units_Z            4
loop_
_atom_site_label
_atom_site_type_symbol
_atom_site_fract_x
_atom_site_fract_y
_atom_site_fract_z
Cl1 Cl 0.1178(1) 0.8319 -0.0393
C1 C 0.1828(3) 0.5230(2) 0.0781(1)
C2 C 0.2350(4) 0.3566(2) 0.0278(1)
C3 C 0.2852(3) 0.5173(2) -0.0327(1)
C4 C 0.2856(3) 0.4044(2) -0.0299(1)
C5 C 0.2343(4) 0.5730(2) 0.0225(1)
C6 C 0.3354(4) 0.5666(2) -0.0905(1)
C7 C 0.3736(4) 0.5067(3) -0.1432(2)
C8 C 0.3688(4) 0.3954(2) -0.1424(1)
C9 C 0.3303(4) 0.3434(2) -0.0845(1)
C10 C 0.1695(5) 0.4097(2) 0.2000(2)
C11 C 0.1272(3) 0.5786(2) 0.1367(1)
C12 C 0.1189(4) 0.5249(2) 0.1965(1)
C13 C 0.1189(4) 0.3553(2) 0.1356(1)
C14 C 0.0861(4) 0.6875(2) 0.1329(1)
C15 C 0.0700(4) 0.5795(3) 0.2515(2)
C16 C 0.0393(4) 0.7413(2) 0.1879(1)
C17 C 0.0312(4) 0.6863(2) 0.2485(1)
C18 C 0.0261(6) 0.9066(3) 0.1321(2)
C19 C 0.4516(7) 0.1699(4) -0.0988(3)
C20 C 0.4206(6) 0.3805(4) -0.2569(2)
N1 N 0.1863(3) 0.4126(2) 0.0784(1)
O1 O -0.0171(3) 0.7435(2) 0.3005(1)
O2 O -0.0045(3) 0.8459(2) 0.1896(1)
O3 O 0.3186(3) 0.2368(2) -0.0780(1)
O4 O 0.3951(3) 0.3329(2) -0.1950(1)
H1 H 0.2285 0.2814 0.03310
H2 H 0.2416 0.6430 0.0245
H3 H 0.3201 0.6437 -0.0937
H4 H 0.4006 0.5457 -0.1802
H5 H 0.1247 0.3725 0.2305
H6 H 0.2947 0.4001 0.2090
H7 H -0.0205 0.3500 0.1206
H8 H 0.1706 0.2826 0.1351
H9 H 0.0856 0.7209 0.0917
H10 H 0.0652 0.5356 0.2870
H11 H -0.0658 0.8781 0.0939
H12 H -0.0126 0.9703 0.1353
H13 H 0.1456 0.9059 0.1285
H14 H 0.4355 0.0970 -0.0822
H15 H 0.4165 0.1557 -0.1355
H16 H 0.5217 0.1824 -0.0690
H17 H 0.3246 0.4287 -0.2751
H18 H 0.4073 0.3213 -0.2929
H19 H 0.5199 0.4177 -0.2568
H20 H -0.0112 0.7068 0.3301
O5 O 0.2410(4) 0.0488(2) 0.0308(2)
H21 H 0.1531 0.0819 0.0362
H22 H 0.2173 0.0012 0.0177
O6 O 0.5256(5) 0.1339(4) 0.0933(2)
H23 H 0.6076 0.1424 0.0787
H24 H 0.4598 0.1076 0.0763
loop_
_geom_bond_atom_site_label_1
_geom_bond_atom_site_label_2
_geom_bond_site_symmetry_1
_geom_bond_site_symmetry_2
C1 C5 1_555 1_555
C2 C4 1_555 1_555
C3 C4 1_555 1_555
C4 C9 1_555 1_555
C5 C3 1_555 1_555
C6 C3 1_555 1_555
C7 C6 1_555 1_555
C8 C7 1_555 1_555
C9 C8 1_555 1_555
C10 C12 1_555 1_555
C11 C1 1_555 1_555
C12 C11 1_555 1_555
C13 C10 1_555 1_555
C14 C11 1_555 1_555
C15 C12 1_555 1_555
C16 C14 1_555 1_555
C17 C15 1_555 1_555
C18 O2 1_555 1_555
C19 O3 1_555 1_555
C20 O4 1_555 1_555
N1 C1 1_555 1_555
O1 C17 1_555 1_555
O2 C16 1_555 1_555
O3 C9 1_555 1_555
O4 C8 1_555 1_555
O5 H21 1_555 1_555
O6 H23 1_555 1_555
H1 C2 1_555 1_555
H2 C5 1_555 1_555
H3 C6 1_555 1_555
H4 C7 1_555 1_555
H5 C10 1_555 1_555
H6 C10 1_555 1_555
H7 C13 1_555 1_555
H8 C13 1_555 1_555
H9 C14 1_555 1_555
H10 C15 1_555 1_555
H11 C18 1_555 1_555
H12 C18 1_555 1_555
H13 C18 1_555 1_555
H14 C19 1_555 1_555
H15 C19 1_555 1_555
H16 C19 1_555 1_555
H17 C20 1_555 1_555
H18 C20 1_555 1_555
H19 C20 1_555 1_555
H20 O1 1_555 1_555
H22 O5 1_555 1_555
H24 O6 1_555 1_555
C2 N1 1_555 1_555
C13 N1 1_555 1_555
C16 C17 1_555 1_555

#END
