
#######################################################################
#
#                 Cambridge Crystallographic Data Centre
#                                CCDC 
#
#######################################################################
#
# If this CIF has been generated from an entry in the Cambridge 
# Structural Database, then it will include bibliographic, chemical, 
# crystal, experimental, refinement or atomic coordinate data resulting 
# from the CCDC's data processing and validation procedures.
#
#######################################################################

data_SOHNIM
_chemical_compound_source        'Berberis soulieana Schneid'
_chemical_formula_moiety         'C20 H20 N1 O4 1+,Cl1 1-,2(H2 O1)'
_chemical_name_systematic        'Jatrorrhizine chloride dihydrate'
_symmetry_cell_setting           monoclinic
_symmetry_space_group_name_H-M   'P 21/n'
_symmetry_Int_Tables_number      14
_space_group_name_Hall           '-P 2yn'
loop_
_symmetry_equiv_pos_site_id
_symmetry_equiv_pos_as_xyz
1 x,y,z
2 1/2-x,1/2+y,1/2-z
3 -x,-y,-z
4 1/2+x,1/2-y,1/2+z
_cell_length_a                   7.735(1)
_cell_length_b                   12.615(2)
_cell_length_c                   20.218(2)
_cell_angle_alpha                90
_cell_angle_beta                 95.02
_cell_angle_gamma                90
_cell_volume                     1965.25
_cell_formula_units_Z            4
loop_
_atom_site_label
_atom_site_type_symbol
_atom_site_fract_x
_atom_site_fract_y
_atom_site_fract_z
O1 O 0.3943(7) 0.6679(4) 0.3046(2)
O2 O 0.3181(7) 0.7637(4) 0.4219(2)
O3 O -0.0050(7) 0.1545(4) 0.6894(2)
O4 O -0.0157(7) 0.2578(4) 0.8015(2)
C1 C 0.3677(9) 0.6043(6) 0.3578(3)
C2 C 0.3739(9) 0.4935(6) 0.3564(3)
C3 C 0.336(1) 0.4328(5) 0.4102(3)
C4 C 0.2846(9) 0.4830(5) 0.4672(3)
C5 C 0.2854(9) 0.5951(5) 0.4700(3)
C6 C 0.3312(9) 0.6571(6) 0.4150(3)
C7 C 0.2345(9) 0.6441(5) 0.5277(3)
N1 N 0.1858(7) 0.5870(4) 0.5786(3)
C8 C 0.1832(9) 0.4769(5) 0.5779(3)
C9 C 0.2344(9) 0.4257(5) 0.5229(5)
C10 C 0.116(1) 0.6457(5) 0.6350(3)
C11 C 0.172(1) 0.5893(5) 0.7005(3)
C12 C 0.1201(9) 0.4758(6) 0.6964(3)
C13 C 0.1262(9) 0.4209(5) 0.6365(3)
C14 C 0.0852(9) 0.3122(5) 0.6326(3)
C15 C 0.0388(9) 0.2588(5) 0.6877(3)
C16 C 0.0318(9) 0.3139(6) 0.7485(3)
C17 C 0.072(1) 0.4202(6) 0.7517(3)
C18 C 0.417(1) 0.6163(7) 0.2426(4)
C19 C 0.455(1) 0.8289(7) 0.4034(4)
C20 C 0.023(1) 0.0938(6) 0.6316(4)
H1 H 0.4160 0.4570 0.3164
H2 H 0.3320 0.3535 0.3984
H3 H 0.2500 0.7285 0.5351
H4 H 0.2500 0.3320 0.5156
H5 H -0.0410 0.6445 0.6347
H6 H 0.1679 0.7285 0.6247
H7 H 0.1250 0.6445 0.7344
H8 H 0.2929 0.6250 0.7167
H9 H 0.0830 0.2714 0.5820
H10 H 0.0410 0.4375 0.7988
H11 H 0.4590 0.6680 0.2168
H12 H 0.2930 0.5625 0.2168
H13 H 0.4590 0.8555 0.3516
H14 H 0.5839 0.7929 0.3847
H15 H 0.4464 0.9034 0.3923
H16 H 0.0000 0.0195 0.6347
H17 H -0.0429 0.1250 0.5820
H18 H 0.1660 0.0839 0.6328
Cl1 Cl 0.1178(3) 0.1680(2) 0.4608(1)
O5 O 0.7633(8) 0.0486(4) 0.4695(3)
H19 H 0.7929 -0.0429 0.4843
H22 H 0.7501 0.0410 0.5010
O6 O 0.4775(8) 0.1328(5) 0.4078(3)
H20 H 0.5820 0.0802 0.4492
H21 H 0.3320 0.1250 0.4316
loop_
_geom_bond_atom_site_label_1
_geom_bond_atom_site_label_2
_geom_bond_site_symmetry_1
_geom_bond_site_symmetry_2
O1 C1 1_555 1_555
O2 C6 1_555 1_555
O3 C15 1_555 1_555
O4 C16 1_555 1_555
C1 C2 1_555 1_555
C2 C3 1_555 1_555
C3 C4 1_555 1_555
C4 C5 1_555 1_555
C5 C6 1_555 1_555
C6 C1 1_555 1_555
C7 C5 1_555 1_555
N1 C7 1_555 1_555
C8 N1 1_555 1_555
C9 C4 1_555 1_555
C10 N1 1_555 1_555
C11 C10 1_555 1_555
C12 C11 1_555 1_555
C13 C8 1_555 1_555
C14 C13 1_555 1_555
C15 C14 1_555 1_555
C16 C15 1_555 1_555
C17 C12 1_555 1_555
C18 O1 1_555 1_555
C19 O2 1_555 1_555
C20 O3 1_555 1_555
O5 H19 1_555 1_555
O6 H20 1_555 1_555
H1 C2 1_555 1_555
H2 C3 1_555 1_555
H3 C7 1_555 1_555
H4 C9 1_555 1_555
H5 C10 1_555 1_555
H6 C10 1_555 1_555
H7 C11 1_555 1_555
H8 C11 1_555 1_555
H9 C14 1_555 1_555
H10 C17 1_555 1_555
H11 C18 1_555 1_555
H12 C18 1_555 1_555
H13 C19 1_555 1_555
H14 C19 1_555 1_555
H15 C19 1_555 1_555
H16 C20 1_555 1_555
H17 C20 1_555 1_555
H18 C20 1_555 1_555
H21 O6 1_555 1_555
H22 O5 1_555 1_555
C8 C9 1_555 1_555
C12 C13 1_555 1_555
C16 C17 1_555 1_555

#END
