
#######################################################################
#
#                 Cambridge Crystallographic Data Centre
#                                CCDC 
#
#######################################################################
#
# If this CIF has been generated from an entry in the Cambridge 
# Structural Database, then it will include bibliographic, chemical, 
# crystal, experimental, refinement or atomic coordinate data resulting 
# from the CCDC's data processing and validation procedures.
#
#######################################################################

data_SOJREP
_chemical_formula_moiety         'C38 H40 B1 N1,C1 H2 Cl2'
_chemical_name_systematic        
'2-(2-mesitylphenyl)-5-(dimesitylboryl)pyridine dichloromethane solvate'
_symmetry_cell_setting           triclinic
_symmetry_space_group_name_H-M   'P -1'
_symmetry_Int_Tables_number      2
_space_group_name_Hall           '-P 1'
loop_
_symmetry_equiv_pos_site_id
_symmetry_equiv_pos_as_xyz
1 x,y,z
2 -x,-y,-z
_cell_length_a                   12.021(8)
_cell_length_b                   12.104(8)
_cell_length_c                   13.193(9)
_cell_angle_alpha                107.380(8)
_cell_angle_beta                 101.907(8)
_cell_angle_gamma                102.516(8)
_cell_volume                     1711.07
_exptl_crystal_description       Block
_cell_formula_units_Z            2
loop_
_atom_site_label
_atom_site_type_symbol
_atom_site_fract_x
_atom_site_fract_y
_atom_site_fract_z
B1 B 0.3542(5) -0.2986(5) -0.1298(5)
N1 N 0.0850(4) -0.3304(4) -0.3634(3)
C1 C 0.4268(4) -0.3701(4) -0.1964(4)
C2 C 0.4442(4) -0.4769(4) -0.1816(4)
C3 C 0.5154(5) -0.5333(5) -0.2347(5)
H1 H 0.5262 -0.6047 -0.2236
C4 C 0.5707(5) -0.4921(5) -0.3018(5)
C5 C 0.5509(5) -0.3899(5) -0.3201(4)
H2 H 0.5873 -0.3598 -0.3678
C6 C 0.4793(4) -0.3315(4) -0.2701(4)
C7 C 0.3786(5) -0.5340(5) -0.1163(4)
H3 H 0.4082 -0.6007 -0.1068
H4 H 0.2933 -0.5655 -0.1560
H5 H 0.3912 -0.4732 -0.0432
C8 C 0.6480(6) -0.5562(6) -0.3583(6)
H6 H 0.6218 -0.6425 -0.3689
H7 H 0.7311 -0.5205 -0.3120
H8 H 0.6415 -0.5474 -0.4306
C9 C 0.4648(5) -0.2207(5) -0.2958(5)
H9 H 0.4654 -0.1580 -0.2283
H10 H 0.3891 -0.2428 -0.3529
H11 H 0.5306 -0.1896 -0.3227
C10 C 0.3936(4) -0.2451(4) -0.0003(4)
C11 C 0.3182(5) -0.2711(4) 0.0633(5)
C12 C 0.3546(6) -0.2129(5) 0.1781(5)
H12 H 0.3018 -0.2320 0.2191
C13 C 0.4645(6) -0.1286(5) 0.2341(5)
C14 C 0.5382(5) -0.1045(5) 0.1731(5)
H13 H 0.6148 -0.0474 0.2105
C15 C 0.5070(4) -0.1589(4) 0.0593(4)
C16 C 0.1972(5) -0.3646(5) 0.0117(5)
H14 H 0.1367 -0.3280 0.0337
H15 H 0.1972 -0.4328 0.0372
H16 H 0.1792 -0.3938 -0.0693
C17 C 0.4974(7) -0.0685(6) 0.3578(4)
H17 H 0.5772 -0.0102 0.3848
H18 H 0.4968 -0.1299 0.3922
H19 H 0.4398 -0.0259 0.3772
C18 C 0.5952(4) -0.1220(5) -0.0007(4)
H20 H 0.6729 -0.0745 0.0535
H21 H 0.5667 -0.0729 -0.0413
H22 H 0.6030 -0.1947 -0.0531
C19 C 0.2402(4) -0.2802(4) -0.1924(4)
C20 C 0.1851(4) -0.1987(4) -0.1389(4)
H23 H 0.2187 -0.1521 -0.0619
C21 C 0.0831(4) -0.1860(4) -0.1970(4)
H24 H 0.0454 -0.1320 -0.1598
C22 C 0.0353(4) -0.2507(4) -0.3084(4)
C23 C 0.1843(4) -0.3419(4) -0.3040(4)
H25 H 0.2192 -0.3979 -0.3428
C24 C -0.0744(4) -0.2434(4) -0.3770(4)
C25 C -0.1466(5) -0.3453(5) -0.4676(4)
H26 H -0.1234 -0.4173 -0.4829
C26 C -0.2491(5) -0.3462(5) -0.5352(5)
H27 H -0.2976 -0.4186 -0.5947
C27 C -0.2821(5) -0.2416(5) -0.5168(5)
H28 H -0.3526 -0.2406 -0.5645
C28 C -0.2125(5) -0.1391(5) -0.4292(5)
H29 H -0.2364 -0.0675 -0.4164
C29 C -0.1071(4) -0.1360(4) -0.3576(4)
C30 C -0.0391(4) -0.0190(4) -0.2637(4)
C31 C 0.0694(4) 0.0495(5) -0.2643(4)
C32 C 0.1327(5) 0.1552(5) -0.1738(5)
H30 H 0.2063 0.2033 -0.1743
C33 C 0.0916(6) 0.1912(5) -0.0844(5)
C34 C -0.0158(5) 0.1233(5) -0.0848(5)
H31 H -0.0457 0.1491 -0.0233
C35 C -0.0816(4) 0.0169(5) -0.1739(5)
C36 C 0.1196(5) 0.0131(5) -0.3606(4)
H32 H 0.0580 -0.0065 -0.4302
H33 H 0.1463 -0.0581 -0.3617
H34 H 0.1873 0.0803 -0.3527
C37 C 0.1643(6) 0.3056(5) 0.0169(5)
H35 H 0.2276 0.3538 -0.0024
H36 H 0.1998 0.2822 0.0781
H37 H 0.1120 0.3539 0.0398
C38 C -0.1969(5) -0.0535(5) -0.1659(5)
H38 H -0.2109 -0.1403 -0.2044
H39 H -0.2624 -0.0283 -0.2004
H40 H -0.1925 -0.0378 -0.0877
C39 C 0.0664(16) -0.316(2) 0.3884(11)
H41 H 0.0764 -0.3653 0.4360
H42 H 0.0038 -0.2783 0.4042
Cl1 Cl 0.0210(3) -0.4092(3) 0.2538(3)
Cl2 Cl 0.1970(2) -0.2054(2) 0.4220(2)
C40? C 0.0502(12) -0.2694(18) 0.3533(19)
H43? H 0.0218 -0.2153 0.3177
H44? H 0.0055 -0.2775 0.4071
loop_
_geom_bond_atom_site_label_1
_geom_bond_atom_site_label_2
_geom_bond_site_symmetry_1
_geom_bond_site_symmetry_2
B1 C1 1_555 1_555
N1 C22 1_555 1_555
C1 C2 1_555 1_555
C2 C3 1_555 1_555
C3 H1 1_555 1_555
C4 C3 1_555 1_555
C5 C4 1_555 1_555
H2 C5 1_555 1_555
C6 C1 1_555 1_555
C7 C2 1_555 1_555
H3 C7 1_555 1_555
H4 C7 1_555 1_555
H5 C7 1_555 1_555
C8 C4 1_555 1_555
H6 C8 1_555 1_555
H7 C8 1_555 1_555
H8 C8 1_555 1_555
C9 C6 1_555 1_555
H9 C9 1_555 1_555
H10 C9 1_555 1_555
H11 C9 1_555 1_555
C10 B1 1_555 1_555
C11 C10 1_555 1_555
C12 C11 1_555 1_555
H12 C12 1_555 1_555
C13 C12 1_555 1_555
C14 C13 1_555 1_555
H13 C14 1_555 1_555
C15 C10 1_555 1_555
C16 C11 1_555 1_555
H14 C16 1_555 1_555
H15 C16 1_555 1_555
H16 C16 1_555 1_555
C17 C13 1_555 1_555
H17 C17 1_555 1_555
H18 C17 1_555 1_555
H19 C17 1_555 1_555
C18 C15 1_555 1_555
H20 C18 1_555 1_555
H21 C18 1_555 1_555
H22 C18 1_555 1_555
C19 B1 1_555 1_555
C20 C19 1_555 1_555
H23 C20 1_555 1_555
C21 C20 1_555 1_555
H24 C21 1_555 1_555
C22 C21 1_555 1_555
C23 N1 1_555 1_555
H25 C23 1_555 1_555
C24 C22 1_555 1_555
C25 C24 1_555 1_555
H26 C25 1_555 1_555
C26 C25 1_555 1_555
H27 C26 1_555 1_555
C27 C26 1_555 1_555
H28 C27 1_555 1_555
C28 C27 1_555 1_555
H29 C28 1_555 1_555
C29 C24 1_555 1_555
C30 C29 1_555 1_555
C31 C30 1_555 1_555
C32 C31 1_555 1_555
H30 C32 1_555 1_555
C33 C32 1_555 1_555
C34 C33 1_555 1_555
H31 C34 1_555 1_555
C35 C30 1_555 1_555
C36 C31 1_555 1_555
H32 C36 1_555 1_555
H33 C36 1_555 1_555
H34 C36 1_555 1_555
C37 C33 1_555 1_555
H35 C37 1_555 1_555
H36 C37 1_555 1_555
H37 C37 1_555 1_555
C38 C35 1_555 1_555
H38 C38 1_555 1_555
H39 C38 1_555 1_555
H40 C38 1_555 1_555
C39 H41 1_555 1_555
H42 C39 1_555 1_555
Cl1 C39 1_555 1_555
Cl2 C39 1_555 1_555
C5 C6 1_555 1_555
C14 C15 1_555 1_555
C19 C23 1_555 1_555
C28 C29 1_555 1_555
C34 C35 1_555 1_555

#END
