
#######################################################################
#
#                 Cambridge Crystallographic Data Centre
#                                CCDC 
#
#######################################################################
#
# If this CIF has been generated from an entry in the Cambridge 
# Structural Database, then it will include bibliographic, chemical, 
# crystal, experimental, refinement or atomic coordinate data resulting 
# from the CCDC's data processing and validation procedures.
#
#######################################################################

data_SOLGOR
_chemical_formula_moiety         'C7 H11 N2 1+,C7 H6 N1 O2 1-,2(H2 O1)'
_chemical_name_systematic        
'4-(dimethylamino)pyridinium 4-aminobenzoate dihydrate'
_symmetry_cell_setting           triclinic
_symmetry_space_group_name_H-M   'P -1'
_symmetry_Int_Tables_number      2
_space_group_name_Hall           '-P 1'
loop_
_symmetry_equiv_pos_site_id
_symmetry_equiv_pos_as_xyz
1 x,y,z
2 -x,-y,-z
_cell_length_a                   9.3411(16)
_cell_length_b                   9.6823(17)
_cell_length_c                   10.1738(17)
_cell_angle_alpha                67.609(5)
_cell_angle_beta                 67.912(5)
_cell_angle_gamma                88.549(6)
_cell_volume                     780.835
_cell_formula_units_Z            2
loop_
_atom_site_label
_atom_site_type_symbol
_atom_site_fract_x
_atom_site_fract_y
_atom_site_fract_z
H1 H 0.281(3) 0.324(3) 0.537(3)
N1 N 0.27298(17) 0.22287(17) 0.59909(18)
N2 N 0.26262(19) -0.22670(17) 0.8599(2)
C1 C 0.4071(2) 0.01968(19) 0.6839(2)
H2 H 0.5033 -0.0164 0.6810
C2 C 0.4057(2) 0.1667(2) 0.5985(2)
H3 H 0.5020 0.2317 0.5363
C3 C 0.2656(2) -0.07964(19) 0.7772(2)
C4 C 0.1357(2) 0.1328(2) 0.6886(2)
H4 H 0.0419 0.1738 0.6900
C5 C 0.1279(2) -0.0153(2) 0.7769(2)
H5 H 0.0293 -0.0763 0.8390
C6 C 0.4050(3) -0.2905(2) 0.8634(3)
H6 H 0.4716 -0.2845 0.7600
H7 H 0.3782 -0.3962 0.9372
H8 H 0.4609 -0.2336 0.8954
C7 C 0.1176(3) -0.3301(3) 0.9449(3)
H9 H 0.0480 -0.3024 1.0281
H10 H 0.1397 -0.4332 0.9897
H11 H 0.0673 -0.3244 0.8744
O1 O 0.82645(16) 0.44863(15) 0.37711(14)
O2 O 0.69001(14) 0.48592(13) 0.59049(15)
C8 C 0.75576(18) -0.06482(18) 0.80371(18)
C9 C 0.76130(18) 0.24159(18) 0.61951(19)
C10 C 0.76070(18) 0.40235(19) 0.52149(19)
C11 C 0.81228(18) -0.01133(18) 0.64130(19)
H12 H 0.8487 -0.0790 0.5924
C12 C 0.70247(19) 0.03918(19) 0.87172(19)
H13 H 0.6653 0.0065 0.9809
C13 C 0.81534(18) 0.13849(19) 0.55233(19)
H14 H 0.8551 0.1723 0.4429
C14 C 0.70376(19) 0.18847(19) 0.78100(19)
H15 H 0.6648 0.2562 0.8293
N3 N 0.75817(18) -0.21204(17) 0.89012(19)
H16 H 0.721(3) -0.247(3) 0.987(3)
H17 H 0.782(3) -0.279(3) 0.839(3)
O3 O 0.36310(19) 0.39833(17) 0.78180(16)
H18 H 0.307(3) 0.439(3) 0.735(3)
H19 H 0.464(3) 0.425(3) 0.719(3)
O4 O 0.1475(2) 0.41330(18) 0.26913(18)
H20 H 0.195(3) 0.454(3) 0.311(3)
H21 H 0.060(4) 0.427(3) 0.298(3)
loop_
_geom_bond_atom_site_label_1
_geom_bond_atom_site_label_2
_geom_bond_site_symmetry_1
_geom_bond_site_symmetry_2
H1 N1 1_555 1_555
N1 C2 1_555 1_555
N2 C3 1_555 1_555
C1 H2 1_555 1_555
C2 C1 1_555 1_555
H3 C2 1_555 1_555
C3 C1 1_555 1_555
C4 N1 1_555 1_555
H4 C4 1_555 1_555
C5 C3 1_555 1_555
H5 C5 1_555 1_555
C6 N2 1_555 1_555
H6 C6 1_555 1_555
H7 C6 1_555 1_555
H8 C6 1_555 1_555
C7 N2 1_555 1_555
H9 C7 1_555 1_555
H10 C7 1_555 1_555
H11 C7 1_555 1_555
O1 C10 1_555 1_555
O2 C10 1_555 1_555
C8 C11 1_555 1_555
C9 C10 1_555 1_555
C11 H12 1_555 1_555
C12 C8 1_555 1_555
H13 C12 1_555 1_555
C13 C9 1_555 1_555
H14 C13 1_555 1_555
C14 C9 1_555 1_555
H15 C14 1_555 1_555
N3 C8 1_555 1_555
H16 N3 1_555 1_555
H17 N3 1_555 1_555
O3 H18 1_555 1_555
H19 O3 1_555 1_555
O4 H20 1_555 1_555
H21 O4 1_555 1_555
C4 C5 1_555 1_555
C11 C13 1_555 1_555
C12 C14 1_555 1_555

#END
