
#######################################################################
#
#                 Cambridge Crystallographic Data Centre
#                                CCDC 
#
#######################################################################
#
# If this CIF has been generated from an entry in the Cambridge 
# Structural Database, then it will include bibliographic, chemical, 
# crystal, experimental, refinement or atomic coordinate data resulting 
# from the CCDC's data processing and validation procedures.
#
#######################################################################

data_SOMVUL
_chemical_formula_moiety         'C9 H12 F1 N3 O3'
_chemical_name_systematic        
(+-)-1-(2,3-Dideoxy-3-fluoroapio-\b-furanosyl)cytosine
_symmetry_cell_setting           monoclinic
_symmetry_space_group_name_H-M   'P 21/c'
_symmetry_Int_Tables_number      14
_space_group_name_Hall           '-P 2ybc'
loop_
_symmetry_equiv_pos_site_id
_symmetry_equiv_pos_as_xyz
1 x,y,z
2 -x,1/2+y,1/2-z
3 -x,-y,-z
4 x,1/2-y,1/2+z
_cell_length_a                   5.1519(10)
_cell_length_b                   10.7326(13)
_cell_length_c                   17.756(2)
_cell_angle_alpha                90
_cell_angle_beta                 92.39(2)
_cell_angle_gamma                90
_cell_volume                     980.933
_chemical_melting_point          219-220deg.C
_cell_formula_units_Z            4
loop_
_atom_site_label
_atom_site_type_symbol
_atom_site_fract_x
_atom_site_fract_y
_atom_site_fract_z
F1 F 0.5339(2) 1.0809(1) 0.3740(1)
O1 O -0.1113(3) 1.1478(1) 0.1534(1)
O2 O 0.5123(2) 0.9510(1) 0.2332(1)
O3 O 0.0120(3) 0.8670(1) 0.4098(1)
N1 N 0.1253(3) 0.9710(1) 0.1581(1)
N2 N -0.2354(3) 0.9936(1) 0.0719(1)
N3 N -0.3382(3) 0.8377(2) -0.0120(1)
C1 C 0.1781(4) 0.8567(2) 0.1290(1)
C2 C 0.0290(4) 0.8085(2) 0.0730(1)
C3 C -0.1843(3) 0.8809(2) 0.0444(1)
C4 C -0.0796(3) 1.0414(2) 0.1277(1)
C5 C 0.3016(3) 1.0310(2) 0.2159(1)
C6 C 0.4734(3) 0.8947(2) 0.3052(1)
C7 C 0.3409(4) 0.9939(2) 0.3495(1)
C8 C 0.1668(4) 1.0567(2) 0.2900(1)
C9 C 0.2196(4) 0.9508(2) 0.4216(1)
H1 H 0.0668(8) 0.8010(9) 0.3934(14)
H2 H -0.3037(46) 0.7619(25) -0.034(91)
H3 H -0.4632(47) 0.8773(22) -0.0303(13)
H4 H 0.3198(4) 0.8116(2) 0.1485(1)
H5 H 0.0635(4) 0.7302(2) 0.0533(1)
H6 H 0.3669(3) 1.1095(2) 0.1958(1)
H7 H 0.6381(3) 0.8714(2) 0.3296(1)
H8 H 0.3649(3) 0.8211(2) 0.2998(1)
H9 H 0.1546(4) 1.1455(2) 0.2993(1)
H10 H -0.0063(4) 1.0210(2) 0.2887(1)
H11 H 0.3527(4) 0.9113(2) 0.4536(1)
H12 H 0.1578(4) 1.0232(2) 0.4482(1)
loop_
_geom_bond_atom_site_label_1
_geom_bond_atom_site_label_2
_geom_bond_site_symmetry_1
_geom_bond_site_symmetry_2
F1 C7 1_555 1_555
O1 C4 1_555 1_555
O2 C5 1_555 1_555
O3 C9 1_555 1_555
N1 C1 1_555 1_555
N2 C3 1_555 1_555
N3 C3 1_555 1_555
C1 C2 1_555 1_555
C2 C3 1_555 1_555
C4 N1 1_555 1_555
C5 N1 1_555 1_555
C6 O2 1_555 1_555
C7 C6 1_555 1_555
C8 C5 1_555 1_555
C9 C7 1_555 1_555
H1 O3 1_555 1_555
H2 N3 1_555 1_555
H3 N3 1_555 1_555
H4 C1 1_555 1_555
H5 C2 1_555 1_555
H6 C5 1_555 1_555
H7 C6 1_555 1_555
H8 C6 1_555 1_555
H9 C8 1_555 1_555
H10 C8 1_555 1_555
H11 C9 1_555 1_555
H12 C9 1_555 1_555
N2 C4 1_555 1_555
C7 C8 1_555 1_555

#END
