
#######################################################################
#
#                 Cambridge Crystallographic Data Centre
#                                CCDC 
#
#######################################################################
#
# If this CIF has been generated from an entry in the Cambridge 
# Structural Database, then it will include bibliographic, chemical, 
# crystal, experimental, refinement or atomic coordinate data resulting 
# from the CCDC's data processing and validation procedures.
#
#######################################################################

data_SONJAG
_chemical_formula_moiety         'C15 H33 Li1 N5 1+,C24 H20 B1 1-'
_chemical_name_systematic        
'(4,10,15-Trimethyl-1,4,7,10,15-penta-azabicyclo(5.5.5)heptadecane)-lithium tetraphenylborate'
_symmetry_cell_setting           monoclinic
_symmetry_space_group_name_H-M   'P 21/c'
_symmetry_Int_Tables_number      14
_space_group_name_Hall           '-P 2ybc'
loop_
_symmetry_equiv_pos_site_id
_symmetry_equiv_pos_as_xyz
1 x,y,z
2 -x,1/2+y,1/2-z
3 -x,-y,-z
4 x,1/2-y,1/2+z
_cell_length_a                   14.483(4)
_cell_length_b                   12.762(8)
_cell_length_c                   19.22(3)
_cell_angle_alpha                90
_cell_angle_beta                 93.42(7)
_cell_angle_gamma                90
_cell_volume                     3546.15
_exptl_crystal_colour            colorless
_cell_formula_units_Z            4
loop_
_atom_site_label
_atom_site_type_symbol
_atom_site_fract_x
_atom_site_fract_y
_atom_site_fract_z
Li1 Li 0.2406(8) 0.3069(10) 0.0853(7)
N1 N 0.2178(4) 0.1521(5) 0.0948(3)
N2 N 0.2665(4) 0.3168(5) 0.1927(3)
N3 N 0.2632(5) 0.4620(5) 0.0761(4)
N4 N 0.1085(4) 0.3257(5) 0.0404(3)
N5 N 0.3498(4) 0.2768(5) 0.0228(3)
C1 C 0.2227(6) 0.1336(7) 0.1708(4)
C2 C 0.2000(5) 0.2368(6) 0.2084(4)
C3 C 0.3502(5) 0.3058(7) 0.2362(4)
C4 C 0.2295(6) 0.4219(6) 0.1983(5)
C5 C 0.2769(6) 0.4979(7) 0.1497(4)
C6 C 0.1786(5) 0.5035(7) 0.0394(4)
C7 C 0.1333(6) 0.4137(6) -0.0046(4)
C8 C 0.0204(5) 0.3468(7) 0.0732(4)
C9 C 0.1055(6) 0.2229(6) 0.0055(4)
C10 C 0.1251(5) 0.1349(7) 0.0596(4)
C11 C 0.2939(5) 0.1037(6) 0.0579(4)
C12 C 0.3778(5) 0.1773(6) 0.0584(4)
C13 C 0.3518(5) 0.2635(7) -0.0537(4)
C14 C 0.4049(6) 0.3690(7) 0.0470(5)
C15 C 0.3470(5) 0.4691(7) 0.0364(4)
H1 H 0.173(1) 0.074(1) 0.183(1)
H2 H 0.291(1) 0.108(1) 0.188(1)
H3 H 0.202(1) 0.223(1) 0.264(1)
H4 H 0.132(1) 0.264(1) 0.190(1)
H5 H 0.377(1) 0.227(1) 0.232(1)
H6 H 0.336(1) 0.322(1) 0.290(1)
H7 H 0.400(1) 0.361(1) 0.219(1)
H8 H 0.156(1) 0.419(1) 0.183(1)
H9 H 0.239(1) 0.450(1) 0.251(1)
H10 H 0.350(1) 0.500(1) 0.164(1)
H11 H 0.248(1) 0.575(1) 0.155(1)
H12 H 0.132(1) 0.531(1) 0.077(1)
H13 H 0.195(1) 0.567(1) 0.005(1)
H14 H 0.181(1) 0.387(1) -0.042(1)
H15 H 0.071(1) 0.443(1) -0.032(1)
H16 H 0.004(1) 0.280(1) 0.105(1)
H17 H -0.035(1) 0.359(1) 0.034(1)
H18 H 0.028(1) 0.415(1) 0.106(1)
H19 H 0.038(1) 0.211(1) -0.020(1)
H20 H 0.157(1) 0.220(1) -0.032(1)
H21 H 0.122(1) 0.059(1) 0.035(1)
H22 H 0.074(1) 0.138(1) 0.098(1)
H23 H 0.315(1) 0.032(1) 0.085(1)
H24 H 0.271(1) 0.085(1) 0.005(1)
H25 H 0.432(1) 0.140(1) 0.031(1)
H26 H 0.403(1) 0.194(1) 0.111(1)
H27 H 0.312(1) 0.195(1) -0.070(1)
H28 H 0.422(1) 0.255(1) -0.069(1)
H29 H 0.321(1) 0.332(1) -0.079(1)
H30 H 0.426(1) 0.361(1) 0.102(1)
H31 H 0.465(1) 0.375(1) 0.017(1)
H32 H 0.327(1) 0.479(1) -0.018(1)
H33 H 0.388(1) 0.535(1) 0.054(1)
B1 B 0.2611(6) 0.8203(7) -0.1128(5)
C16 C 0.1718(5) 0.8790(6) -0.1517(4)
C17 C 0.1442(5) 0.9758(6) -0.1278(4)
C18 C 0.0706(5) 1.0334(7) -0.1594(4)
C19 C 0.0230(6) 0.9924(7) -0.2178(4)
C20 C 0.0487(5) 0.8999(7) -0.2449(5)
C21 C 0.1239(5) 0.8424(7) -0.2128(4)
C22 C 0.3516(5) 0.8887(5) -0.1351(4)
C23 C 0.3970(4) 0.9631(5) -0.0928(4)
C24 C 0.4736(5) 1.0195(6) -0.1141(4)
C25 C 0.5068(5) 1.0016(6) -0.1789(4)
C26 C 0.4633(5) 0.9277(6) -0.2217(4)
C27 C 0.3864(5) 0.8725(6) -0.2012(4)
C28 C 0.2563(5) 0.8166(5) -0.0269(3)
C29 C 0.3338(5) 0.7893(5) 0.0165(4)
C30 C 0.3330(6) 0.7827(6) 0.0890(4)
C31 C 0.2516(5) 0.8030(6) 0.1204(5)
C32 C 0.1730(6) 0.8284(6) 0.0809(4)
C33 C 0.1757(6) 0.8346(6) 0.0077(4)
C34 C 0.2726(5) 0.6966(5) -0.1353(3)
C35 C 0.1990(5) 0.6277(6) -0.1474(4)
C36 C 0.2131(5) 0.5231(7) -0.1646(4)
C37 C 0.2998(5) 0.4842(7) -0.1692(4)
C38 C 0.3743(6) 0.5472(6) -0.1551(4)
C39 C 0.3617(5) 0.6520(6) -0.1388(4)
H34 H 0.181(1) 1.010(1) -0.083(1)
H35 H 0.051(1) 1.108(1) -0.138(1)
H36 H -0.035(1) 1.035(1) -0.242(1)
H37 H 0.013(1) 0.870(1) -0.291(1)
H38 H 0.144(1) 0.770(1) -0.236(1)
H39 H 0.374(1) 0.977(1) -0.041(1)
H40 H 0.505(1) 1.080(1) -0.081(1)
H41 H 0.568(1) 1.041(1) -0.194(1)
H42 H 0.488(1) 0.915(1) -0.273(1)
H43 H 0.354(1) 0.815(1) -0.236(1)
H44 H 0.398(1) 0.773(1) -0.008(1)
H45 H 0.395(1) 0.762(1) 0.120(1)
H46 H 0.250(1) 0.798(1) 0.176(1)
H47 H 0.110(1) 0.844(1) 0.106(1)
H48 H 0.113(1) 0.854(1) -0.023(1)
H49 H 0.129(1) 0.656(1) -0.144(1)
H50 H 0.155(1) 0.471(1) -0.174(1)
H51 H 0.310(1) 0.404(1) -0.184(1)
H52 H 0.443(1) 0.515(1) -0.156(1)
H53 H 0.422(1) 0.701(1) -0.130(1)
loop_
_geom_bond_atom_site_label_1
_geom_bond_atom_site_label_2
_geom_bond_site_symmetry_1
_geom_bond_site_symmetry_2
Li1 N1 1_555 1_555
N1 C1 1_555 1_555
N2 Li1 1_555 1_555
N3 Li1 1_555 1_555
N4 Li1 1_555 1_555
N5 Li1 1_555 1_555
C1 C2 1_555 1_555
C2 N2 1_555 1_555
C3 N2 1_555 1_555
C4 N2 1_555 1_555
C5 N3 1_555 1_555
C6 N3 1_555 1_555
C7 N4 1_555 1_555
C8 N4 1_555 1_555
C9 N4 1_555 1_555
C10 N1 1_555 1_555
C11 N1 1_555 1_555
C12 N5 1_555 1_555
C13 N5 1_555 1_555
C14 N5 1_555 1_555
C15 N3 1_555 1_555
B1 C16 1_555 1_555
C16 C17 1_555 1_555
C17 C18 1_555 1_555
C18 C19 1_555 1_555
C19 C20 1_555 1_555
C20 C21 1_555 1_555
C21 C16 1_555 1_555
C22 B1 1_555 1_555
C23 C22 1_555 1_555
C24 C23 1_555 1_555
C25 C24 1_555 1_555
C26 C25 1_555 1_555
C27 C22 1_555 1_555
C28 B1 1_555 1_555
C29 C28 1_555 1_555
C30 C29 1_555 1_555
C31 C30 1_555 1_555
C32 C31 1_555 1_555
C33 C28 1_555 1_555
C34 B1 1_555 1_555
C35 C34 1_555 1_555
C36 C35 1_555 1_555
C37 C36 1_555 1_555
C38 C37 1_555 1_555
C39 C34 1_555 1_555
H1 C1 1_555 1_555
H2 C1 1_555 1_555
H3 C2 1_555 1_555
H4 C2 1_555 1_555
H5 C3 1_555 1_555
H6 C3 1_555 1_555
H7 C3 1_555 1_555
H8 C4 1_555 1_555
H9 C4 1_555 1_555
H10 C5 1_555 1_555
H11 C5 1_555 1_555
H12 C6 1_555 1_555
H13 C6 1_555 1_555
H14 C7 1_555 1_555
H15 C7 1_555 1_555
H16 C8 1_555 1_555
H17 C8 1_555 1_555
H18 C8 1_555 1_555
H19 C9 1_555 1_555
H20 C9 1_555 1_555
H21 C10 1_555 1_555
H22 C10 1_555 1_555
H23 C11 1_555 1_555
H24 C11 1_555 1_555
H25 C12 1_555 1_555
H26 C12 1_555 1_555
H27 C13 1_555 1_555
H28 C13 1_555 1_555
H29 C13 1_555 1_555
H30 C14 1_555 1_555
H31 C14 1_555 1_555
H32 C15 1_555 1_555
H33 C15 1_555 1_555
H34 C17 1_555 1_555
H35 C18 1_555 1_555
H36 C19 1_555 1_555
H37 C20 1_555 1_555
H38 C21 1_555 1_555
H39 C23 1_555 1_555
H40 C24 1_555 1_555
H41 C25 1_555 1_555
H42 C26 1_555 1_555
H43 C27 1_555 1_555
H44 C29 1_555 1_555
H45 C30 1_555 1_555
H46 C31 1_555 1_555
H47 C32 1_555 1_555
H48 C33 1_555 1_555
H49 C35 1_555 1_555
H50 C36 1_555 1_555
H51 C37 1_555 1_555
H52 C38 1_555 1_555
H53 C39 1_555 1_555
C4 C5 1_555 1_555
C6 C7 1_555 1_555
C9 C10 1_555 1_555
C11 C12 1_555 1_555
C14 C15 1_555 1_555
C26 C27 1_555 1_555
C32 C33 1_555 1_555
C38 C39 1_555 1_555

#END
