
#######################################################################
#
#                 Cambridge Crystallographic Data Centre
#                                CCDC 
#
#######################################################################
#
# If this CIF has been generated from an entry in the Cambridge 
# Structural Database, then it will include bibliographic, chemical, 
# crystal, experimental, refinement or atomic coordinate data resulting 
# from the CCDC's data processing and validation procedures.
#
#######################################################################

data_SONLOX
_chemical_formula_moiety         'C68 H22 Si2'
_chemical_name_systematic        
1,7-bis(Trimethylsilylmethyl)-1,7-dihydro-C60(5,6)fullerene
_symmetry_cell_setting           monoclinic
_symmetry_space_group_name_H-M   'P 21/c'
_symmetry_Int_Tables_number      14
_space_group_name_Hall           '-P 2ybc'
loop_
_symmetry_equiv_pos_site_id
_symmetry_equiv_pos_as_xyz
1 x,y,z
2 -x,1/2+y,1/2-z
3 -x,-y,-z
4 x,1/2-y,1/2+z
_cell_length_a                   10.2560(6)
_cell_length_b                   19.2380(10)
_cell_length_c                   19.9820(14)
_cell_angle_alpha                90
_cell_angle_beta                 98.016(4)
_cell_angle_gamma                90
_cell_volume                     3904.03
_exptl_crystal_colour            orange
_exptl_crystal_description       prism
_cell_formula_units_Z            4
_exptl_crystal_recrystallization_method 'ethanol/carbon disulfide'
loop_
_atom_site_label
_atom_site_type_symbol
_atom_site_fract_x
_atom_site_fract_y
_atom_site_fract_z
C1 C 0.2410(4) 0.1856(2) 0.7977(2)
C2 C 0.2170(5) 0.2545(2) 0.8318(2)
C3 C 0.3062(6) 0.3072(3) 0.8126(3)
C4 C 0.3717(5) 0.2782(3) 0.7544(3)
C5 C 0.3200(4) 0.2076(2) 0.7428(2)
C6 C 0.1074(4) 0.1598(2) 0.7639(2)
C7 C 0.0950(6) 0.2724(4) 0.8475(3)
C8 C 0.2739(8) 0.3785(3) 0.8141(4)
C9 C 0.4014(6) 0.3221(4) 0.7065(4)
C10 C 0.2948(5) 0.1849(2) 0.6770(3)
C11 C -0.0104(5) 0.1849(3) 0.7875(3)
C12 C -0.0215(7) 0.2397(4) 0.8252(3)
C13 C 0.0673(7) 0.3542(4) 0.8481(3)
C14 C 0.1589(9) 0.3961(4) 0.8331(3)
C15 C 0.3138(7) 0.4185(4) 0.7610(3)
C16 C 0.3688(5) 0.3967(3) 0.7067(4)
C17 C 0.3815(5) 0.2949(3) 0.6430(4)
C18 C 0.3270(5) 0.2325(3) 0.6253(3)
C19 C 0.1858(5) 0.1336(2) 0.6504(2)
C20 C 0.0835(5) 0.1375(2) 0.6992(2)
C21 C -0.1266(7) 0.1733(3) 0.7215(4)
C22 C -0.1294(6) 0.2930(4) 0.8096(3)
C23 C -0.0744(8) 0.3559(4) 0.8249(3)
C24 C 0.1061(9) 0.4591(3) 0.7889(4)
C25 C 0.1969(7) 0.4731(3) 0.7458(3)
C26 C 0.3308(7) 0.4169(4) 0.6407(4)
C27 C 0.3308(8) 0.3578(3) 0.5941(4)
C28 C 0.2297(6) 0.2255(3) 0.5655(3)
C29 C 0.1285(8) 0.1667(3) 0.5852(3)
C30 C -0.0570(5) 0.1444(2) 0.6708(3)
C31 C -0.2210(6) 0.2201(4) 0.7092(4)
C32 C -0.2243(10) 0.2794(5) 0.7558(6)
C33 C -0.1160(9) 0.4131(4) 0.7864(5)
C34 C -0.0129(8) 0.4670(3) 0.7661(3)
C35 C 0.1665(6) 0.4921(2) 0.6809(3)
C36 C 0.2312(8) 0.4628(4) 0.6241(6)
C37 C 0.2414(6) 0.3436(4) 0.5425(3)
C38 C 0.1877(8) 0.2795(5) 0.5262(3)
C39 C 0.0082(8) 0.1764(3) 0.5624(4)
C40 C -0.0855(6) 0.1624(3) 0.6038(3)
C41 C -0.2612(5) 0.2382(4) 0.6458(5)
C42 C -0.2727(5) 0.3423(4) 0.7072(4)
C43 C -0.2175(5) 0.4047(3) 0.7276(3)
C44 C -0.0627(6) 0.4875(3) 0.6993(3)
C45 C 0.0282(6) 0.5007(2) 0.6532(3)
C46 C 0.1213(7) 0.4517(3) 0.5643(3)
C47 C 0.1307(10) 0.3973(4) 0.5261(4)
C48 C 0.0459(7) 0.2826(4) 0.5017(3)
C49 C -0.0417(9) 0.2390(4) 0.5176(3)
C50 C -0.1974(7) 0.2133(4) 0.5867(4)
C51 C -0.2924(6) 0.3156(4) 0.6436(5)
C52 C -0.1820(6) 0.4511(3) 0.6758(3)
C53 C 0.0026(6) 0.4761(2) 0.5860(3)
C54 C 0.0185(7) 0.3629(4) 0.5024(3)
C55 C -0.1577(8) 0.2581(3) 0.5340(3)
C56 C -0.2636(6) 0.3568(4) 0.5928(5)
C57 C -0.2063(5) 0.4281(3) 0.6090(3)
C58 C -0.1147(5) 0.4402(3) 0.5641(3)
C59 C -0.1052(6) 0.3815(3) 0.5201(3)
C60 C -0.1910(6) 0.3277(3) 0.5333(3)
C61 C 0.3103(5) 0.1314(2) 0.8480(2)
H1 H 0.3086 0.0875 0.8241
H2 H 0.2555 0.1257 0.8835
C62 C 0.5984(6) 0.1397(4) 0.8290(4)
H3 H 0.5833 0.1782 0.7983
H4 H 0.585 0.097 0.8043
H5 H 0.6872 0.1415 0.8518
C63 C 0.5140(5) 0.0696(3) 0.9493(3)
H6 H 0.4538 0.0716 0.982
H7 H 0.6027 0.0714 0.9721
H8 H 0.5008 0.0271 0.9241
C64 C 0.5002(7) 0.2291(3) 0.9404(4)
H9 H 0.438 0.2294 0.9721
H10 H 0.4828 0.2675 0.9098
H11 H 0.5878 0.233 0.9642
C65 C 0.2320(6) 0.0573(2) 0.6431(3)
H12 H 0.154 0.0303 0.6269
H13 H 0.2634 0.0407 0.6883
C66 C 0.3126(10) 0.0603(5) 0.5010(4)
H14 H 0.3073 0.1101 0.4989
H15 H 0.2282 0.0408 0.4842
H16 H 0.3767 0.0444 0.4738
C67 C 0.3719(7) -0.0632(3) 0.5948(4)
H17 H 0.3991 -0.0763 0.641
H18 H 0.4349 -0.08 0.5673
H19 H 0.2872 -0.0831 0.5793
C68 C 0.5222(7) 0.0738(4) 0.6210(5)
H20 H 0.5486 0.0597 0.667
H21 H 0.5138 0.1234 0.619
H22 H 0.5874 0.0591 0.5938
Si1 Si 0.48429(14) 0.14452(7) 0.89090(8)
Si2 Si 0.36114(19) 0.03311(8) 0.58847(9)
Si3? Si 0.2529(19) 0.0188(10) 0.5542(10)
C69? C 0.147(5) 0.007(3) 0.491(3)
C70? C -0.1243(15) 0.2037(8) 0.7696(8)
C71? C -0.0080(19) 0.4282(10) 0.8114(10)
C72? C -0.0001(19) 0.3128(10) 0.8480(10)
C73? C -0.2603(19) 0.3074(11) 0.5737(10)
C74? C 0.3646(19) 0.3275(10) 0.7756(10)
C75? C 0.1180(19) 0.2107(10) 0.5433(10)
C76? C 0.221(2) 0.4266(11) 0.5781(11)
C77? C 0.246(2) 0.4272(12) 0.7892(12)
C78? C 0.102(2) 0.3245(10) 0.5068(10)
C79? C 0.3785(19) 0.3576(10) 0.6481(11)
C80? C -0.275(2) 0.2823(13) 0.7058(14)
C81? C -0.163(6) 0.162(3) 0.667(3)
C82? C -0.133(3) 0.2056(14) 0.5568(14)
C83? C -0.141(2) 0.3879(13) 0.7924(13)
C84? C 0.380(4) 0.261(2) 0.706(2)
C85? C -0.248(3) 0.2437(15) 0.6010(16)
C86? C -0.284(3) 0.3705(14) 0.6320(15)
C87? C 0.261(3) 0.3137(14) 0.8317(14)
C88? C -0.186(5) 0.259(3) 0.773(3)
Si4? Si 0.564(6) 0.263(4) 0.888(3)
C89? C 0.264(3) 0.4602(14) 0.6507(13)
loop_
_geom_bond_atom_site_label_1
_geom_bond_atom_site_label_2
_geom_bond_site_symmetry_1
_geom_bond_site_symmetry_2
C1 C2 1_555 1_555
C2 C3 1_555 1_555
C3 C4 1_555 1_555
C4 C5 1_555 1_555
C5 C1 1_555 1_555
C6 C1 1_555 1_555
C7 C2 1_555 1_555
C8 C3 1_555 1_555
C9 C4 1_555 1_555
C10 C5 1_555 1_555
C11 C6 1_555 1_555
C12 C7 1_555 1_555
C13 C7 1_555 1_555
C14 C8 1_555 1_555
C15 C8 1_555 1_555
C16 C9 1_555 1_555
C17 C9 1_555 1_555
C18 C10 1_555 1_555
C19 C10 1_555 1_555
C20 C6 1_555 1_555
C21 C11 1_555 1_555
C22 C12 1_555 1_555
C23 C13 1_555 1_555
C24 C14 1_555 1_555
C25 C15 1_555 1_555
C26 C16 1_555 1_555
C27 C17 1_555 1_555
C28 C18 1_555 1_555
C29 C19 1_555 1_555
C30 C20 1_555 1_555
C31 C21 1_555 1_555
C32 C22 1_555 1_555
C33 C23 1_555 1_555
C34 C24 1_555 1_555
C35 C25 1_555 1_555
C36 C26 1_555 1_555
C37 C27 1_555 1_555
C38 C28 1_555 1_555
C39 C29 1_555 1_555
C40 C30 1_555 1_555
C41 C31 1_555 1_555
C42 C32 1_555 1_555
C43 C33 1_555 1_555
C44 C34 1_555 1_555
C45 C35 1_555 1_555
C46 C36 1_555 1_555
C47 C37 1_555 1_555
C48 C38 1_555 1_555
C49 C39 1_555 1_555
C50 C40 1_555 1_555
C51 C41 1_555 1_555
C52 C43 1_555 1_555
C53 C45 1_555 1_555
C54 C47 1_555 1_555
C55 C49 1_555 1_555
C56 C51 1_555 1_555
C57 C52 1_555 1_555
C58 C53 1_555 1_555
C59 C54 1_555 1_555
C60 C55 1_555 1_555
C61 C1 1_555 1_555
H1 C61 1_555 1_555
H2 C61 1_555 1_555
C62 H3 1_555 1_555
H4 C62 1_555 1_555
H5 C62 1_555 1_555
C63 H6 1_555 1_555
H7 C63 1_555 1_555
H8 C63 1_555 1_555
C64 H9 1_555 1_555
H10 C64 1_555 1_555
H11 C64 1_555 1_555
C65 C19 1_555 1_555
H12 C65 1_555 1_555
H13 C65 1_555 1_555
C66 H14 1_555 1_555
H15 C66 1_555 1_555
H16 C66 1_555 1_555
C67 H17 1_555 1_555
H18 C67 1_555 1_555
H19 C67 1_555 1_555
C68 H20 1_555 1_555
H21 C68 1_555 1_555
H22 C68 1_555 1_555
Si1 C61 1_555 1_555
Si2 C65 1_555 1_555
C11 C12 1_555 1_555
C13 C14 1_555 1_555
C15 C16 1_555 1_555
C17 C18 1_555 1_555
C19 C20 1_555 1_555
C21 C30 1_555 1_555
C22 C23 1_555 1_555
C24 C25 1_555 1_555
C26 C27 1_555 1_555
C28 C29 1_555 1_555
C31 C32 1_555 1_555
C33 C34 1_555 1_555
C35 C36 1_555 1_555
C37 C38 1_555 1_555
C39 C40 1_555 1_555
C41 C50 1_555 1_555
C42 C43 1_555 1_555
C42 C51 1_555 1_555
C44 C45 1_555 1_555
C44 C52 1_555 1_555
C46 C47 1_555 1_555
C46 C53 1_555 1_555
C48 C49 1_555 1_555
C48 C54 1_555 1_555
C50 C55 1_555 1_555
C56 C57 1_555 1_555
C56 C60 1_555 1_555
C57 C58 1_555 1_555
C58 C59 1_555 1_555
C59 C60 1_555 1_555
C62 Si1 1_555 1_555
C63 Si1 1_555 1_555
C64 Si1 1_555 1_555
C66 Si2 1_555 1_555
C67 Si2 1_555 1_555
C68 Si2 1_555 1_555

#END
