
#######################################################################
#
#                 Cambridge Crystallographic Data Centre
#                                CCDC 
#
#######################################################################
#
# If this CIF has been generated from an entry in the Cambridge 
# Structural Database, then it will include bibliographic, chemical, 
# crystal, experimental, refinement or atomic coordinate data resulting 
# from the CCDC's data processing and validation procedures.
#
#######################################################################

data_SOQPAR
_chemical_formula_moiety         'C24 H30 N2 O2 S1'
_chemical_name_systematic        
N-(1-benzyl-3-(2-methylbut-3-en-2-yl)piperidin-2-ylidene)-4-methylbenzenesulfonamide
_symmetry_cell_setting           orthorhombic
_symmetry_space_group_name_H-M   'P 21 21 21'
_symmetry_Int_Tables_number      19
_space_group_name_Hall           'P 2ac 2ab'
loop_
_symmetry_equiv_pos_site_id
_symmetry_equiv_pos_as_xyz
1 x,y,z
2 1/2-x,-y,1/2+z
3 1/2+x,1/2-y,-z
4 -x,1/2+y,1/2-z
_cell_length_a                   8.051(3)
_cell_length_b                   16.601(6)
_cell_length_c                   16.664(6)
_cell_angle_alpha                90
_cell_angle_beta                 90
_cell_angle_gamma                90
_cell_volume                     2227.22
_cell_formula_units_Z            4
loop_
_atom_site_label
_atom_site_type_symbol
_atom_site_fract_x
_atom_site_fract_y
_atom_site_fract_z
C1 C 0.8064(7) 0.2820(3) -0.1266(3)
H1 H 0.8121 0.2839 -0.1842
H2 H 0.7993 0.2269 -0.1093
H3 H 0.9042 0.3063 -0.1043
C2 C 0.6559(5) 0.3270(3) -0.0987(2)
C3 C 0.6574(5) 0.4094(3) -0.0924(3)
H4 H 0.7544 0.4373 -0.1044
C4 C 0.5184(5) 0.4520(3) -0.0688(3)
H5 H 0.5227 0.5078 -0.0644
C5 C 0.3726(4) 0.4114(2) -0.0516(2)
C6 C 0.3667(5) 0.3284(2) -0.0573(3)
H6 H 0.2692 0.3005 -0.0459
C7 C 0.5102(5) 0.2873(3) -0.0803(3)
H7 H 0.5076 0.2314 -0.0834
C8 C 0.2261(4) 0.5378(2) 0.1161(2)
C9 C 0.3319(7) 0.5919(3) 0.2426(3)
H8 H 0.4232 0.5747 0.2765
H9 H 0.2390 0.6055 0.2772
C10 C 0.3823(7) 0.6638(3) 0.1972(3)
H10 H 0.3914 0.7086 0.2344
H11 H 0.4920 0.6543 0.1751
C11 C 0.2765(7) 0.6870(3) 0.1342(3)
H12 H 0.3441 0.7126 0.0934
H13 H 0.2013 0.7277 0.1549
C12 C 0.1716(5) 0.6222(2) 0.0931(2)
H14 H 0.1926 0.6275 0.0354
C13 C -0.0217(5) 0.6351(3) 0.1050(3)
C14 C -0.0795(7) 0.6133(3) 0.1895(3)
H15 H -0.0276 0.6486 0.2276
H16 H -0.0493 0.5586 0.2011
H17 H -0.1979 0.6191 0.1928
C15 C -0.1234(6) 0.5822(4) 0.0476(4)
H18 H -0.2394 0.5938 0.0542
H19 H -0.1034 0.5264 0.0596
H20 H -0.0910 0.5932 -0.0067
C16 C -0.0592(8) 0.7216(3) 0.0838(4)
H21 H -0.0141 0.7401 0.0359
C17 C -0.1466(11) 0.7734(4) 0.1242(5)
H22 H -0.1950 0.7584 0.1727
H23 H -0.1609 0.8254 0.1047
C18 C 0.3182(5) 0.4449(2) 0.2206(2)
H24 H 0.2566 0.4062 0.1887
H25 H 0.2782 0.4412 0.2754
C19 C 0.5008(5) 0.4225(2) 0.2190(2)
C20 C 0.5894(6) 0.4148(3) 0.2904(3)
H26 H 0.5371 0.4238 0.3393
C21 C 0.7563(6) 0.3934(3) 0.2882(3)
H27 H 0.8157 0.3888 0.3358
C22 C 0.8326(6) 0.3793(3) 0.2177(4)
H28 H 0.9439 0.3642 0.2167
C23 C 0.7459(6) 0.3872(3) 0.1475(3)
H29 H 0.7992 0.3783 0.0988
C24 C 0.5817(6) 0.4081(3) 0.1484(3)
H30 H 0.5242 0.4125 0.1002
N1 N 0.2155(4) 0.4728(2) 0.07103(18)
N2 N 0.2843(4) 0.52628(19) 0.18993(17)
O1 O 0.0524(4) 0.4141(2) -0.0382(2)
O2 O 0.1999(4) 0.54045(19) -0.06639(16)
S1 S 0.19263(12) 0.46526(6) -0.02333(6)
loop_
_geom_bond_atom_site_label_1
_geom_bond_atom_site_label_2
_geom_bond_site_symmetry_1
_geom_bond_site_symmetry_2
C1 H1 1_555 1_555
H2 C1 1_555 1_555
H3 C1 1_555 1_555
C2 C1 1_555 1_555
C3 C2 1_555 1_555
H4 C3 1_555 1_555
C4 C3 1_555 1_555
H5 C4 1_555 1_555
C5 C4 1_555 1_555
C6 C5 1_555 1_555
H6 C6 1_555 1_555
C7 C2 1_555 1_555
H7 C7 1_555 1_555
C8 C12 1_555 1_555
C9 H8 1_555 1_555
H9 C9 1_555 1_555
C10 C9 1_555 1_555
H10 C10 1_555 1_555
H11 C10 1_555 1_555
C11 C10 1_555 1_555
H12 C11 1_555 1_555
H13 C11 1_555 1_555
C12 C11 1_555 1_555
H14 C12 1_555 1_555
C13 C12 1_555 1_555
C14 C13 1_555 1_555
H15 C14 1_555 1_555
H16 C14 1_555 1_555
H17 C14 1_555 1_555
C15 C13 1_555 1_555
H18 C15 1_555 1_555
H19 C15 1_555 1_555
H20 C15 1_555 1_555
C16 C13 1_555 1_555
H21 C16 1_555 1_555
C17 C16 1_555 1_555
H22 C17 1_555 1_555
H23 C17 1_555 1_555
C18 H24 1_555 1_555
H25 C18 1_555 1_555
C19 C18 1_555 1_555
C20 C19 1_555 1_555
H26 C20 1_555 1_555
C21 C20 1_555 1_555
H27 C21 1_555 1_555
C22 C21 1_555 1_555
H28 C22 1_555 1_555
C23 C22 1_555 1_555
H29 C23 1_555 1_555
C24 C19 1_555 1_555
H30 C24 1_555 1_555
N1 C8 1_555 1_555
N2 C8 1_555 1_555
O1 S1 1_555 1_555
O2 S1 1_555 1_555
S1 C5 1_555 1_555
C6 C7 1_555 1_555
C9 N2 1_555 1_555
C18 N2 1_555 1_555
C23 C24 1_555 1_555
N1 S1 1_555 1_555

#END
