
#######################################################################
#
#                 Cambridge Crystallographic Data Centre
#                                CCDC 
#
#######################################################################
#
# If this CIF has been generated from an entry in the Cambridge 
# Structural Database, then it will include bibliographic, chemical, 
# crystal, experimental, refinement or atomic coordinate data resulting 
# from the CCDC's data processing and validation procedures.
#
#######################################################################

data_SOQSAS
_chemical_formula_moiety         'C26 H27 N2 1+,I1 1-'
_chemical_name_systematic        
'(+-)-(R~N~,R~N~:S~N~S~N~)-1-Benzylmethylammonio-8-benzylmethylaminonaphthalene iodide'
_symmetry_cell_setting           monoclinic
_symmetry_space_group_name_H-M   'P 21/c'
_symmetry_Int_Tables_number      14
_space_group_name_Hall           '-P 2ybc'
loop_
_symmetry_equiv_pos_site_id
_symmetry_equiv_pos_as_xyz
1 x,y,z
2 -x,1/2+y,1/2-z
3 -x,-y,-z
4 x,1/2-y,1/2+z
_cell_length_a                   10.2523(2)
_cell_length_b                   16.2983(2)
_cell_length_c                   14.7421(2)
_cell_angle_alpha                90
_cell_angle_beta                 109.66
_cell_angle_gamma                90
_cell_volume                     2319.73
_exptl_crystal_colour            'pale yellow'
_exptl_crystal_description       needles
_cell_formula_units_Z            4
_exptl_crystal_recrystallization_method 'dichloromethane/diethyl ether'
loop_
_atom_site_label
_atom_site_type_symbol
_atom_site_fract_x
_atom_site_fract_y
_atom_site_fract_z
C1 C 0.7587(2) 0.2179(1) -0.0950(2)
C2 C 0.8064(3) 0.1474(1) -0.1239(2)
C3 C 0.9196(3) 0.1039(1) -0.0616(2)
C4 C 0.9855(2) 0.1321(1) 0.0286(2)
C5 C 0.9425(2) 0.2058(1) 0.0624(2)
C6 C 1.0140(2) 0.2354(1) 0.1554(2)
C7 C 0.9751(2) 0.3060(1) 0.1886(2)
C8 C 0.8607(2) 0.3510(1) 0.1285(2)
C9 C 0.7894(2) 0.3234(1) 0.0380(1)
C10 C 0.8261(2) 0.2501(1) -0.0004(1)
C11 C 0.6698(2) 0.2922(1) -0.2467(1)
C12 C 0.5566(2) 0.3727(1) 0.0206(2)
C13 C 0.7057(2) 0.4580(1) -0.0430(2)
C14 C 0.7877(2) 0.4618(1) -0.1112(2)
C15 C 0.9226(2) 0.4311(1) -0.0866(2)
C16 C 0.9926(2) 0.4338(1) -0.1519(2)
C17 C 0.9307(3) 0.4693(1) -0.2421(2)
C18 C 0.7989(3) 0.5019(2) -0.2666(2)
C19 C 0.7279(2) 0.4975(1) -0.2013(2)
C20 C 0.5111(2) 0.2096(1) -0.1957(2)
C21 C 0.4520(2) 0.1879(1) -0.1179(2)
C22 C 0.3361(2) 0.2287(2) -0.1131(2)
C23 C 0.2782(3) 0.2100(2) -0.0435(2)
C24 C 0.3373(3) 0.1502(2) 0.0236(2)
C25 C 0.4529(3) 0.1087(2) 0.0202(2)
C26 C 0.5095(3) 0.1259(1) -0.0505(2)
N1 N 0.6391(2) 0.2617(1) -0.1613(1)
N2 N 0.6691(2) 0.3713(1) -0.0229(1)
H1 H 0.7618(3) 0.1274(1) -0.1874(2)
H2 H 0.9500(3) 0.0547(1) -0.0829(2)
H3 H 1.0618(2) 0.1022(1) 0.0702(2)
H4 H 1.0912(2) 0.2056(1) 0.1960(2)
H5 H 1.0245(2) 0.3248(1) 0.2519(2)
H6 H 0.8336(2) 0.4006(1) 0.1511(2)
H7 H 0.5959(7) 0.3294(7) -0.2836(5)
H8 H 0.6755(14) 0.2457(2) -0.2873(5)
H9 H 0.7583(7) 0.3217(7) -0.2256(2)
H10 H 0.4729(5) 0.3971(8) -0.0252(4)
H11 H 0.5866(6) 0.4054(7) 0.0799(5)
H12 H 0.5365(10) 0.3165(2) 0.0356(9)
H13 H 0.6191(2) 0.4898(1) -0.0708(2)
H14 H 0.7602(2) 0.4843(1) 0.0187(2)
H15 H 0.9664(2) 0.4082(1) -0.0245(2)
H16 H 1.0832(2) 0.4114(1) -0.1352(2)
H17 H 0.9791(3) 0.4711(1) -0.2869(2)
H18 H 0.7571(3) 0.5271(2) -0.3277(2)
H19 H 0.6368(2) 0.5194(1) -0.2186(2)
H20 H 0.4396(2) 0.2392(1) -0.2477(2)
H21 H 0.5331(2) 0.1583(1) -0.2234(2)
H22 H 0.2954(2) 0.2705(2) -0.1587(2)
H23 H 0.1979(3) 0.2383(2) -0.0420(2)
H24 H 0.2986(3) 0.1375(2) 0.0721(2)
H25 H 0.4940(3) 0.0678(2) 0.0671(2)
H26 H 0.5874(3) 0.0958(1) -0.0533(2)
H27 H 0.6355(27) 0.3418(16) -0.0876(20)
I1 I 0.3276(1) 0.0478(1) 0.2661(1)
loop_
_geom_bond_atom_site_label_1
_geom_bond_atom_site_label_2
_geom_bond_site_symmetry_1
_geom_bond_site_symmetry_2
C1 C2 1_555 1_555
C2 C3 1_555 1_555
C3 C4 1_555 1_555
C4 C5 1_555 1_555
C5 C6 1_555 1_555
C6 C7 1_555 1_555
C7 C8 1_555 1_555
C8 C9 1_555 1_555
C9 C10 1_555 1_555
C10 C1 1_555 1_555
C11 N1 1_555 1_555
C12 N2 1_555 1_555
C13 C14 1_555 1_555
C14 C15 1_555 1_555
C15 C16 1_555 1_555
C16 C17 1_555 1_555
C17 C18 1_555 1_555
C18 C19 1_555 1_555
C19 C14 1_555 1_555
C20 C21 1_555 1_555
C21 C22 1_555 1_555
C22 C23 1_555 1_555
C23 C24 1_555 1_555
C24 C25 1_555 1_555
C25 C26 1_555 1_555
C26 C21 1_555 1_555
N1 C1 1_555 1_555
N2 C9 1_555 1_555
H1 C2 1_555 1_555
H2 C3 1_555 1_555
H3 C4 1_555 1_555
H4 C6 1_555 1_555
H5 C7 1_555 1_555
H6 C8 1_555 1_555
H7 C11 1_555 1_555
H8 C11 1_555 1_555
H9 C11 1_555 1_555
H10 C12 1_555 1_555
H11 C12 1_555 1_555
H12 C12 1_555 1_555
H13 C13 1_555 1_555
H14 C13 1_555 1_555
H15 C15 1_555 1_555
H16 C16 1_555 1_555
H17 C17 1_555 1_555
H18 C18 1_555 1_555
H19 C19 1_555 1_555
H20 C20 1_555 1_555
H21 C20 1_555 1_555
H22 C22 1_555 1_555
H23 C23 1_555 1_555
H24 C24 1_555 1_555
H25 C25 1_555 1_555
H26 C26 1_555 1_555
H27 N2 1_555 1_555
C5 C10 1_555 1_555
C13 N2 1_555 1_555
C20 N1 1_555 1_555

#END
