
#######################################################################
#
#                 Cambridge Crystallographic Data Centre
#                                CCDC 
#
#######################################################################
#
# If this CIF has been generated from an entry in the Cambridge 
# Structural Database, then it will include bibliographic, chemical, 
# crystal, experimental, refinement or atomic coordinate data resulting 
# from the CCDC's data processing and validation procedures.
#
#######################################################################

data_SORBPY20
_chemical_formula_moiety         'C6 H14 O6,C5 H5 N1'
_chemical_name_systematic        'D-Glucitol pyridine'
_symmetry_cell_setting           monoclinic
_symmetry_space_group_name_H-M   'P 21'
_symmetry_Int_Tables_number      4
_space_group_name_Hall           'P 2yb'
loop_
_symmetry_equiv_pos_site_id
_symmetry_equiv_pos_as_xyz
1 x,y,z
2 -x,1/2+y,-z
_cell_length_a                   4.652(3)
_cell_length_b                   10.207(4)
_cell_length_c                   13.439(5)
_cell_angle_alpha                90
_cell_angle_beta                 90.3(3)
_cell_angle_gamma                90
_cell_volume                     638.115
_chemical_melting_point          76deg.C
_cell_formula_units_Z            2
loop_
_atom_site_label
_atom_site_type_symbol
_atom_site_fract_x
_atom_site_fract_y
_atom_site_fract_z
C1 C -0.29190 0.38580 0.17380
C2 C -0.38280 0.52490 0.14880
C3 C -0.54480 0.53330 0.04910
C4 C -0.35200 0.50770 -0.04110
C5 C -0.53340 0.47240 -0.13300
C6 C -0.35730 0.44860 -0.22690
H1 H -0.17200 0.36300 0.12000
H2 H -0.17000 0.39300 0.23400
H3 H -0.57600 0.29200 0.22600
H4 H -0.56400 0.64900 0.22700
H5 H -0.83700 0.65500 0.01700
H6 H -0.26000 0.67100 -0.06100
H7 H -0.61200 0.30700 -0.09500
H8 H -0.05300 0.34600 -0.17900
H9 H -0.19100 0.57400 0.14300
H10 H -0.70100 0.46800 0.05200
H11 H -0.21700 0.43500 -0.02200
H12 H -0.65500 0.53600 -0.14300
H13 H -0.23000 0.52400 -0.23900
H14 H -0.46600 0.44200 -0.28700
O1 O -0.52820 0.29830 0.17920
O2 O -0.56020 0.56850 0.22790
O3 O -0.66630 0.66150 0.04060
O4 O -0.17270 0.61790 -0.06140
O5 O -0.70520 0.36010 -0.11060
O6 O -0.19570 0.33050 -0.22280
C7 C 0.38490 0.16820 -0.46540
C8 C 0.44200 0.18930 -0.56490
C9 C 0.14810 0.36560 -0.57020
C10 C 0.07820 0.35020 -0.47240
C11 C 0.19770 0.25070 -0.41910
H15 H 0.47100 0.09700 -0.42500
H16 H 0.60400 0.14100 -0.61000
H17 H 0.04400 0.43900 -0.60200
H18 H -0.05100 0.43500 -0.43800
H19 H 0.14300 0.24200 -0.35100
N1 N 0.32570 0.28560 -0.61810
loop_
_geom_bond_atom_site_label_1
_geom_bond_atom_site_label_2
_geom_bond_site_symmetry_1
_geom_bond_site_symmetry_2
C1 C2 1_555 1_555
C2 C3 1_555 1_555
C3 C4 1_555 1_555
C4 C5 1_555 1_555
C5 C6 1_555 1_555
C6 H13 1_555 1_555
H1 C1 1_555 1_555
H2 C1 1_555 1_555
H3 O1 1_555 1_555
H4 O2 1_555 1_555
H5 O3 1_555 1_555
H6 O4 1_555 1_555
H7 O5 1_555 1_555
H8 O6 1_555 1_555
H9 C2 1_555 1_555
H10 C3 1_555 1_555
H11 C4 1_555 1_555
H12 C5 1_555 1_555
H14 C6 1_555 1_555
O1 C1 1_555 1_555
O2 C2 1_555 1_555
O3 C3 1_555 1_555
O4 C4 1_555 1_555
O5 C5 1_555 1_555
O6 C6 1_555 1_555
C7 C8 1_555 1_555
C8 H16 1_555 1_555
C9 C10 1_555 1_555
C10 C11 1_555 1_555
C11 C7 1_555 1_555
H15 C7 1_555 1_555
H17 C9 1_555 1_555
H18 C10 1_555 1_555
H19 C11 1_555 1_555
N1 C8 1_555 1_555
C9 N1 1_555 1_555

#END
