
#######################################################################
#
#                 Cambridge Crystallographic Data Centre
#                                CCDC 
#
#######################################################################
#
# If this CIF has been generated from an entry in the Cambridge 
# Structural Database, then it will include bibliographic, chemical, 
# crystal, experimental, refinement or atomic coordinate data resulting 
# from the CCDC's data processing and validation procedures.
#
#######################################################################

data_SORDAF
_chemical_formula_moiety         'C21 H14 Cl1 N3 O2'
_chemical_name_systematic        
4-(4-Chlorophenyl)-3-methyl-1-phenyl-1,7-dihydro-5H-furo[3,4-b]pyrazolo[4,3-e]pyridin-5-one
_symmetry_cell_setting           monoclinic
_symmetry_space_group_name_H-M   'P 21/n'
_symmetry_Int_Tables_number      14
_space_group_name_Hall           '-P 2yn'
loop_
_symmetry_equiv_pos_site_id
_symmetry_equiv_pos_as_xyz
1 x,y,z
2 1/2-x,1/2+y,1/2-z
3 -x,-y,-z
4 1/2+x,1/2-y,1/2+z
_cell_length_a                   8.599(16)
_cell_length_b                   21.95(4)
_cell_length_c                   9.900(18)
_cell_angle_alpha                90
_cell_angle_beta                 109.38(3)
_cell_angle_gamma                90
_cell_volume                     1762.73
_cell_formula_units_Z            4
loop_
_atom_site_label
_atom_site_type_symbol
_atom_site_fract_x
_atom_site_fract_y
_atom_site_fract_z
Cl1 Cl 0.0743(2) 0.06549(6) 0.04585(19)
N1 N 0.1636(6) 0.46994(17) 0.1791(5)
N2 N 0.2302(6) 0.46806(19) -0.0401(5)
N3 N 0.2293(6) 0.4253(2) -0.1464(4)
O1 O 0.0397(5) 0.39389(17) 0.4497(4)
O2 O 0.0221(5) 0.29353(16) 0.3977(4)
C1 C 0.1877(7) 0.4406(2) 0.0657(6)
C2 C 0.1932(7) 0.3722(3) -0.1012(6)
C3 C 0.1649(7) 0.3773(2) 0.0320(5)
C4 C 0.1195(7) 0.3380(2) 0.1273(6)
C5 C 0.0931(7) 0.3679(2) 0.2433(6)
C6 C 0.0499(7) 0.3445(3) 0.3652(6)
C7 C 0.0814(7) 0.4498(2) 0.3932(5)
H1 H 0.1774 0.4686 0.4617
H2 H -0.0098 0.4784 0.3701
C8 C 0.1166(7) 0.4311(2) 0.2620(5)
C9 C 0.2821(7) 0.5299(2) -0.0542(6)
C10 C 0.2732(7) 0.5749(3) 0.0411(6)
H3 H 0.2331 0.5661 0.1154
C11 C 0.3257(8) 0.6345(3) 0.0237(7)
H4 H 0.3237 0.6646 0.0892
C12 C 0.3793(8) 0.6484(3) -0.0877(8)
H5 H 0.4091 0.6881 -0.1013
C13 C 0.3884(8) 0.6025(3) -0.1797(7)
H6 H 0.4277 0.6114 -0.2543
C14 C 0.3403(8) 0.5433(3) -0.1638(7)
H7 H 0.3476 0.5130 -0.2270
C15 C 0.1809(8) 0.3168(2) -0.1954(6)
H8 H 0.2067 0.3282 -0.2792
H9 H 0.0709 0.3007 -0.2235
H10 H 0.2574 0.2863 -0.1433
C16 C 0.1061(8) 0.2703(2) 0.1048(5)
C17 C -0.0362(8) 0.2388(2) 0.1009(6)
H11 H -0.1262 0.2597 0.1103
C18 C -0.0425(8) 0.1759(3) 0.0830(6)
H12 H -0.1376 0.1548 0.0796
C19 C 0.0904(9) 0.1448(2) 0.0705(6)
C20 C 0.2332(8) 0.1740(3) 0.0751(6)
H13 H 0.3228 0.1527 0.0663
C21 C 0.2382(8) 0.2374(2) 0.0936(6)
H14 H 0.3343 0.2581 0.0986
loop_
_geom_bond_atom_site_label_1
_geom_bond_atom_site_label_2
_geom_bond_site_symmetry_1
_geom_bond_site_symmetry_2
Cl1 C19 1_555 1_555
N1 C1 1_555 1_555
N2 N3 1_555 1_555
N3 C2 1_555 1_555
O1 C6 1_555 1_555
O2 C6 1_555 1_555
C1 N2 1_555 1_555
C2 C3 1_555 1_555
C3 C1 1_555 1_555
C4 C3 1_555 1_555
C5 C4 1_555 1_555
C6 C5 1_555 1_555
C7 O1 1_555 1_555
H1 C7 1_555 1_555
H2 C7 1_555 1_555
C8 N1 1_555 1_555
C9 N2 1_555 1_555
C10 C9 1_555 1_555
H3 C10 1_555 1_555
C11 C10 1_555 1_555
H4 C11 1_555 1_555
C12 C11 1_555 1_555
H5 C12 1_555 1_555
C13 C12 1_555 1_555
H6 C13 1_555 1_555
C14 C9 1_555 1_555
H7 C14 1_555 1_555
C15 C2 1_555 1_555
H8 C15 1_555 1_555
H9 C15 1_555 1_555
H10 C15 1_555 1_555
C16 C4 1_555 1_555
C17 C16 1_555 1_555
H11 C17 1_555 1_555
C18 C17 1_555 1_555
H12 C18 1_555 1_555
C19 C18 1_555 1_555
C20 C19 1_555 1_555
H13 C20 1_555 1_555
C21 C16 1_555 1_555
H14 C21 1_555 1_555
C5 C8 1_555 1_555
C7 C8 1_555 1_555
C13 C14 1_555 1_555
C20 C21 1_555 1_555

#END
