
#######################################################################
#
#                 Cambridge Crystallographic Data Centre
#                                CCDC 
#
#######################################################################
#
# If this CIF has been generated from an entry in the Cambridge 
# Structural Database, then it will include bibliographic, chemical, 
# crystal, experimental, refinement or atomic coordinate data resulting 
# from the CCDC's data processing and validation procedures.
#
#######################################################################

data_SORGEM
_chemical_formula_moiety         'C19 H33 N1 O3'
_chemical_name_systematic        
4-(L)-(1'R,2'S,5'R)-5-((5'-Methyl-2'-(isopropyl)cyclohexyl)oxy)-4-(1-piperidinyl)-dihydro-2(3H)-furanone
_symmetry_cell_setting           monoclinic
_symmetry_space_group_name_H-M   'P 21'
_symmetry_Int_Tables_number      4
_space_group_name_Hall           'P 2yb'
loop_
_symmetry_equiv_pos_site_id
_symmetry_equiv_pos_as_xyz
1 x,y,z
2 -x,1/2+y,-z
_cell_length_a                   8.9214(11)
_cell_length_b                   9.6670(12)
_cell_length_c                   11.2350(14)
_cell_angle_alpha                90
_cell_angle_beta                 99.118(2)
_cell_angle_gamma                90
_cell_volume                     956.699
_exptl_crystal_colour            colorless
_exptl_crystal_description       block
_chemical_melting_point          '168-169 deg.C'
_cell_formula_units_Z            2
_exptl_crystal_recrystallization_method 'ethyl acetate/petroleum ether'
loop_
_atom_site_label
_atom_site_type_symbol
_atom_site_fract_x
_atom_site_fract_y
_atom_site_fract_z
O1 O 0.94063(12) 0.18489(11) 0.85981(9)
O2 O 0.92013(15) 0.00400(12) 0.72346(11)
O3 O 1.0510(2) -0.03656(19) 0.57387(16)
N1 N 0.65282(13) 0.20340(14) 0.59953(11)
C1 C 0.98031(18) 0.10819(18) 0.97155(13)
H1 H 0.9957 0.0108 0.9524
C2 C 0.8546(2) 0.1178(2) 1.04601(15)
H2 H 0.7638 0.0753 1.0021
H3 H 0.8322 0.2145 1.0583
C3 C 0.8945(2) 0.0474(2) 1.16801(16)
H4 H 0.9109 -0.0511 1.1541
C4 C 1.0419(3) 0.1077(2) 1.23379(16)
H5 H 1.0265 0.2042 1.2520
H6 H 1.0710 0.0590 1.3094
C5 C 1.1687(2) 0.0962(2) 1.15895(17)
H7 H 1.1897 -0.0008 1.1468
H8 H 1.2599 0.1378 1.2028
C6 C 1.12890(17) 0.16749(18) 1.03536(14)
H9 H 1.1092 0.2648 1.0518
C7 C 0.7648(3) 0.0601(3) 1.2413(2)
H10 H 0.7435 0.1561 1.2527
H11 H 0.7936 0.0166 1.3183
H12 H 0.6759 0.0157 1.1988
C8 C 1.3942(3) 0.2502(3) 1.0191(3)
H13 H 1.4431 0.2024 1.0896
H14 H 1.3610 0.3395 1.0418
H15 H 1.4644 0.2613 0.9634
C9 C 1.2573(2) 0.1666(2) 0.95964(18)
H16 H 1.2181 0.2135 0.8838
C10 C 1.3050(3) 0.0220(3) 0.9262(3)
H17 H 1.2181 -0.0270 0.8856
H18 H 1.3470 -0.0271 0.9980
H19 H 1.3800 0.0292 0.8739
C11 C 0.84484(18) 0.11893(18) 0.76846(14)
H20 H 0.7519 0.0886 0.7969
C12 C 0.80753(17) 0.22129(18) 0.66389(14)
H21 H 0.8218 0.3163 0.6938
C13 C 0.92984(19) 0.1848(2) 0.58943(18)
H22 H 0.8903 0.1907 0.5040
H23 H 1.0154 0.2474 0.6074
C14 C 0.9765(2) 0.0417(2) 0.62284(18)
C15 C 0.6241(2) 0.2944(2) 0.49363(17)
H24 H 0.6988 0.2763 0.4415
H25 H 0.6347 0.3901 0.5195
C16 C 0.4672(2) 0.2718(3) 0.42424(19)
H26 H 0.4518 0.3328 0.3548
H27 H 0.4586 0.1772 0.3951
C17 C 0.3470(2) 0.2985(3) 0.4999(2)
H28 H 0.2486 0.2725 0.4560
H29 H 0.3444 0.3962 0.5191
C18 C 0.3812(2) 0.2149(3) 0.6147(2)
H30 H 0.3673 0.1174 0.5959
H31 H 0.3106 0.2404 0.6684
C19 C 0.5414(2) 0.2391(2) 0.67735(17)
H32 H 0.5534 0.3356 0.7006
H33 H 0.5600 0.1835 0.7501
loop_
_geom_bond_atom_site_label_1
_geom_bond_atom_site_label_2
_geom_bond_site_symmetry_1
_geom_bond_site_symmetry_2
O1 C1 1_555 1_555
O2 C11 1_555 1_555
O3 C14 1_555 1_555
N1 C12 1_555 1_555
C1 H1 1_555 1_555
C2 C1 1_555 1_555
H2 C2 1_555 1_555
H3 C2 1_555 1_555
C3 C2 1_555 1_555
H4 C3 1_555 1_555
C4 C3 1_555 1_555
H5 C4 1_555 1_555
H6 C4 1_555 1_555
C5 C4 1_555 1_555
H7 C5 1_555 1_555
H8 C5 1_555 1_555
C6 C1 1_555 1_555
H9 C6 1_555 1_555
C7 C3 1_555 1_555
H10 C7 1_555 1_555
H11 C7 1_555 1_555
H12 C7 1_555 1_555
C8 H13 1_555 1_555
H14 C8 1_555 1_555
H15 C8 1_555 1_555
C9 C6 1_555 1_555
H16 C9 1_555 1_555
C10 C9 1_555 1_555
H17 C10 1_555 1_555
H18 C10 1_555 1_555
H19 C10 1_555 1_555
C11 O1 1_555 1_555
H20 C11 1_555 1_555
C12 C11 1_555 1_555
H21 C12 1_555 1_555
C13 C12 1_555 1_555
H22 C13 1_555 1_555
H23 C13 1_555 1_555
C14 O2 1_555 1_555
C15 N1 1_555 1_555
H24 C15 1_555 1_555
H25 C15 1_555 1_555
C16 C15 1_555 1_555
H26 C16 1_555 1_555
H27 C16 1_555 1_555
C17 C16 1_555 1_555
H28 C17 1_555 1_555
H29 C17 1_555 1_555
C18 C17 1_555 1_555
H30 C18 1_555 1_555
H31 C18 1_555 1_555
C19 N1 1_555 1_555
H32 C19 1_555 1_555
H33 C19 1_555 1_555
C5 C6 1_555 1_555
C8 C9 1_555 1_555
C13 C14 1_555 1_555
C18 C19 1_555 1_555

#END
