
#######################################################################
#
#                 Cambridge Crystallographic Data Centre
#                                CCDC 
#
#######################################################################
#
# If this CIF has been generated from an entry in the Cambridge 
# Structural Database, then it will include bibliographic, chemical, 
# crystal, experimental, refinement or atomic coordinate data resulting 
# from the CCDC's data processing and validation procedures.
#
#######################################################################

data_SOSHEP
_chemical_formula_moiety         'C16 H16 O6 S3'
_chemical_name_systematic        
'4-(4-((thiiran-2-ylmethyl)sulfonyl)phenoxy)phenyl methanesulfonate'
_symmetry_cell_setting           triclinic
_symmetry_space_group_name_H-M   'P -1'
_symmetry_Int_Tables_number      2
_space_group_name_Hall           '-P 1'
loop_
_symmetry_equiv_pos_site_id
_symmetry_equiv_pos_as_xyz
1 x,y,z
2 -x,-y,-z
_cell_length_a                   6.7992(3)
_cell_length_b                   9.8011(5)
_cell_length_c                   13.6894(6)
_cell_angle_alpha                86.163(2)
_cell_angle_beta                 78.506(2)
_cell_angle_gamma                77.540(2)
_cell_volume                     872.633
_exptl_crystal_colour            colorless
_exptl_crystal_description       block
_cell_formula_units_Z            2
loop_
_atom_site_label
_atom_site_type_symbol
_atom_site_fract_x
_atom_site_fract_y
_atom_site_fract_z
S1 S 0.38419(8) 0.09547(5) 0.34958(4)
S2 S 1.47011(12) 0.75467(7) 0.06521(4)
S3 S 1.0588(4) 0.8116(2) -0.15420(14)
O1 O 0.3600(3) 0.18796(17) 0.26602(12)
O2 O 0.2199(3) 0.03136(16) 0.39783(13)
O3 O 0.4288(2) 0.17660(15) 0.43778(10)
O4 O 0.8573(3) 0.60106(17) 0.39657(12)
O5 O 1.5525(3) 0.86018(19) 0.10185(13)
O6 O 1.6075(4) 0.6299(3) 0.02712(16)
C1 C 0.6106(3) -0.0315(2) 0.32000(16)
H1 H 0.6288 -0.0934 0.3782
H2 H 0.7277 0.0143 0.3009
H3 H 0.6017 -0.0865 0.2644
C2 C 0.5493(3) 0.2799(2) 0.41516(14)
C3 C 0.4668(3) 0.4078(2) 0.37584(16)
H4 H 0.3370 0.4232 0.3566
C4 C 0.5761(4) 0.5132(2) 0.36496(16)
H5 H 0.5230 0.6018 0.3374
C5 C 0.7643(3) 0.4880(2) 0.39472(15)
C6 C 0.8480(3) 0.3587(2) 0.43158(16)
H6 H 0.9787 0.3428 0.4500
C7 C 0.7399(3) 0.2521(2) 0.44164(15)
H7 H 0.7957 0.1620 0.4662
C8 C 0.9963(3) 0.6309(2) 0.31489(15)
C9 C 1.0591(3) 0.7560(2) 0.31916(16)
H8 H 1.0061 0.8136 0.3754
C10 C 1.1990(4) 0.7954(2) 0.24104(16)
H9 H 1.2382 0.8827 0.2413
C11 C 1.2823(4) 0.7063(2) 0.16181(16)
C12 C 1.2216(4) 0.5804(2) 0.15821(16)
H10 H 1.2803 0.5205 0.1035
C13 C 1.0749(4) 0.5427(2) 0.23493(15)
H11 H 1.0291 0.4582 0.2328
C14 C 1.3482(11) 0.8334(7) -0.0317(3)
H12 H 1.2410 0.9150 -0.0058
H13 H 1.4498 0.8677 -0.0844
C15 C 1.2521(7) 0.7348(4) -0.0761(3)
H14 H 1.3478 0.6465 -0.1015
C16 C 1.0421(7) 0.7202(5) -0.0331(3)
H15 H 0.9714 0.7765 0.0260
H16 H 1.0137 0.6250 -0.0299
S4? S 1.0257(15) 0.8597(14) -0.1351(8)
C17? C 1.257(2) 0.8606(15) -0.0202(12)
H17? H 1.1895 0.9511 0.0114
H18? H 1.3335 0.8818 -0.0868
C18? C 1.115(2) 0.7988(13) -0.0328(9)
H19? H 1.0105 0.7846 0.0277
C19? C 1.183(3) 0.6774(16) -0.1114(12)
H20? H 1.1117 0.5980 -0.1000
H21? H 1.3287 0.6543 -0.1448
loop_
_geom_bond_atom_site_label_1
_geom_bond_atom_site_label_2
_geom_bond_site_symmetry_1
_geom_bond_site_symmetry_2
S1 O1 1_555 1_555
S2 O5 1_555 1_555
S3 C15 1_555 1_555
O2 S1 1_555 1_555
O3 S1 1_555 1_555
O4 C5 1_555 1_555
O6 S2 1_555 1_555
C1 S1 1_555 1_555
H1 C1 1_555 1_555
H2 C1 1_555 1_555
H3 C1 1_555 1_555
C2 O3 1_555 1_555
C3 C2 1_555 1_555
H4 C3 1_555 1_555
C4 C3 1_555 1_555
H5 C4 1_555 1_555
C5 C4 1_555 1_555
C6 C5 1_555 1_555
H6 C6 1_555 1_555
C7 C2 1_555 1_555
H7 C7 1_555 1_555
C8 O4 1_555 1_555
C9 C8 1_555 1_555
H8 C9 1_555 1_555
C10 C9 1_555 1_555
H9 C10 1_555 1_555
C11 S2 1_555 1_555
C12 C11 1_555 1_555
H10 C12 1_555 1_555
C13 C8 1_555 1_555
H11 C13 1_555 1_555
C14 S2 1_555 1_555
H12 C14 1_555 1_555
H13 C14 1_555 1_555
C15 C14 1_555 1_555
H14 C15 1_555 1_555
C16 S3 1_555 1_555
H15 C16 1_555 1_555
H16 C16 1_555 1_555
C6 C7 1_555 1_555
C10 C11 1_555 1_555
C12 C13 1_555 1_555
C15 C16 1_555 1_555

#END
