
#######################################################################
#
#                 Cambridge Crystallographic Data Centre
#                                CCDC 
#
#######################################################################
#
# If this CIF has been generated from an entry in the Cambridge 
# Structural Database, then it will include bibliographic, chemical, 
# crystal, experimental, refinement or atomic coordinate data resulting 
# from the CCDC's data processing and validation procedures.
#
#######################################################################

data_SOTYEH
_chemical_formula_moiety         'C9 H17 F2 N1 O3 S1'
_chemical_name_systematic        
'(3R,S~S~)-3-((t-Butylsulfinyl)amino)-2,2-difluoropentanoic acid'
_symmetry_cell_setting           monoclinic
_symmetry_space_group_name_H-M   'P 21'
_symmetry_Int_Tables_number      4
_space_group_name_Hall           'P 2yb'
loop_
_symmetry_equiv_pos_site_id
_symmetry_equiv_pos_as_xyz
1 x,y,z
2 -x,1/2+y,-z
_cell_length_a                   5.742(4)
_cell_length_b                   17.689(11)
_cell_length_c                   6.193(4)
_cell_angle_alpha                90
_cell_angle_beta                 100.655(14)
_cell_angle_gamma                90
_cell_volume                     618.179
_exptl_crystal_colour            colorless
_exptl_crystal_description       Prism
_chemical_melting_point          '126-128 deg.C'
_cell_formula_units_Z            2
_exptl_crystal_recrystallization_method chloroform
loop_
_atom_site_label
_atom_site_type_symbol
_atom_site_fract_x
_atom_site_fract_y
_atom_site_fract_z
S1 S 0.55162(7) 0.57008(3) 0.40243(6)
F1 F 0.9975(2) 0.78408(8) 0.7182(2)
F2 F 1.1810(2) 0.71494(9) 0.5094(2)
O1 O 1.2385(3) 0.62330(10) 0.8315(2)
O2 O 0.8769(3) 0.64715(10) 0.9092(2)
H1 H 1.262(5) 0.6001(15) 0.956(4)
O3 O 0.3362(2) 0.57049(11) 0.2212(2)
N1 N 0.7561(3) 0.63018(10) 0.3570(3)
H2 H 0.801(4) 0.6273(16) 0.232(3)
C1 C 1.0317(3) 0.65596(12) 0.8031(3)
C2 C 0.9934(3) 0.71484(13) 0.6158(3)
C3 C 0.7614(3) 0.70636(12) 0.4524(3)
H3 H 0.6269 0.7111 0.5336
C4 C 0.7405(4) 0.76955(12) 0.2801(3)
H4 H 0.7645 0.8189 0.3565
H5 H 0.8683 0.7633 0.1939
C5 C 0.5027(4) 0.77071(15) 0.1227(4)
H6 H 0.3750 0.7777 0.2063
H7 H 0.4797 0.7227 0.0425
H8 H 0.5004 0.8124 0.0182
C6 C 0.7030(3) 0.48047(12) 0.3633(3)
C7 C 0.7574(4) 0.47532(14) 0.1314(3)
H9 H 0.8165 0.4246 0.1075
H10 H 0.8780 0.5129 0.1142
H11 H 0.6127 0.4851 0.0238
C8 C 0.5255(4) 0.41938(14) 0.4011(4)
H12 H 0.4840 0.4263 0.5464
H13 H 0.5969 0.3694 0.3933
H14 H 0.3823 0.4234 0.2878
C9 C 0.9263(4) 0.47619(13) 0.5391(4)
H15 H 0.9935 0.4252 0.5414
H16 H 0.8867 0.4876 0.6829
H17 H 1.0424 0.5130 0.5061
loop_
_geom_bond_atom_site_label_1
_geom_bond_atom_site_label_2
_geom_bond_site_symmetry_1
_geom_bond_site_symmetry_2
S1 O3 1_555 1_555
F1 C2 1_555 1_555
F2 C2 1_555 1_555
O1 H1 1_555 1_555
O2 C1 1_555 1_555
N1 S1 1_555 1_555
H2 N1 1_555 1_555
C1 O1 1_555 1_555
C2 C1 1_555 1_555
C3 N1 1_555 1_555
H3 C3 1_555 1_555
C4 C3 1_555 1_555
H4 C4 1_555 1_555
H5 C4 1_555 1_555
C5 C4 1_555 1_555
H6 C5 1_555 1_555
H7 C5 1_555 1_555
H8 C5 1_555 1_555
C6 S1 1_555 1_555
C7 C6 1_555 1_555
H9 C7 1_555 1_555
H10 C7 1_555 1_555
H11 C7 1_555 1_555
C8 C6 1_555 1_555
H12 C8 1_555 1_555
H13 C8 1_555 1_555
H14 C8 1_555 1_555
C9 C6 1_555 1_555
H15 C9 1_555 1_555
H16 C9 1_555 1_555
H17 C9 1_555 1_555
C2 C3 1_555 1_555

#END
