
#######################################################################
#
#                 Cambridge Crystallographic Data Centre
#                                CCDC 
#
#######################################################################
#
# If this CIF has been generated from an entry in the Cambridge 
# Structural Database, then it will include bibliographic, chemical, 
# crystal, experimental, refinement or atomic coordinate data resulting 
# from the CCDC's data processing and validation procedures.
#
#######################################################################

data_SOWGOC
_chemical_formula_moiety         'C23 H21 Cl1 F1 N1 O2 S1'
_chemical_name_systematic        
N-(1-(4-chlorophenyl)-3-fluoro-2-phenylbut-3-en-1-yl)-4-methylbenzenesulfonamide
_symmetry_cell_setting           orthorhombic
_symmetry_space_group_name_H-M   'P b c a'
_symmetry_Int_Tables_number      61
_space_group_name_Hall           '-P 2ac 2ab'
loop_
_symmetry_equiv_pos_site_id
_symmetry_equiv_pos_as_xyz
1 x,y,z
2 1/2-x,-y,1/2+z
3 1/2+x,1/2-y,-z
4 -x,1/2+y,1/2-z
5 -x,-y,-z
6 1/2+x,y,1/2-z
7 1/2-x,1/2+y,z
8 x,1/2-y,1/2+z
_cell_length_a                   11.2581(13)
_cell_length_b                   22.546(3)
_cell_length_c                   34.795(4)
_cell_angle_alpha                90
_cell_angle_beta                 90
_cell_angle_gamma                90
_cell_volume                     8831.85
_exptl_crystal_colour            colorless
_exptl_crystal_description       prism
_cell_formula_units_Z            16
loop_
_atom_site_label
_atom_site_type_symbol
_atom_site_fract_x
_atom_site_fract_y
_atom_site_fract_z
C1 C 0.9509(3) 0.53189(14) 0.20483(8)
H1 H 1.0234 0.5163 0.1969
C2 C 0.9250(3) 0.53455(15) 0.24363(9)
H2 H 0.9794 0.5212 0.2618
C3 C 0.8175(3) 0.55716(15) 0.25483(9)
C4 C 0.7373(3) 0.57714(14) 0.22874(10)
H3 H 0.665 0.5927 0.2369
C5 C 0.7636(3) 0.57428(12) 0.18987(9)
H4 H 0.7085 0.5875 0.1719
C6 C 0.8717(2) 0.55186(11) 0.17766(8)
C7 C 0.9000(2) 0.54764(11) 0.13523(7)
H5 H 0.8322 0.5634 0.1208
C8 C 1.0113(3) 0.58454(12) 0.12467(8)
H6 H 1.076 0.5701 0.141
C9 C 0.9941(4) 0.64803(15) 0.13438(9)
C10 C 1.0561(6) 0.6813(2) 0.15557(13)
H7 H 1.0359 0.721 0.1585
H8 H 1.1221 0.6661 0.1683
C11 C 1.0526(3) 0.57775(13) 0.08359(8)
C12 C 0.9771(4) 0.58039(18) 0.05286(10)
H9 H 0.8961 0.5858 0.0568
C13 C 1.0219(7) 0.5750(2) 0.01534(12)
H10 H 0.9707 0.5768 -0.0056
C14 C 1.1387(8) 0.5672(2) 0.00985(16)
H11 H 1.1681 0.5637 -0.015
C15 C 1.2144(6) 0.5644(2) 0.03989(18)
H12 H 1.2953 0.5592 0.0356
C16 C 1.1719(4) 0.56938(17) 0.07675(12)
H13 H 1.2244 0.567 0.0973
C17 C 0.7183(2) 0.42999(12) 0.14725(8)
C18 C 0.6003(3) 0.44399(16) 0.14538(9)
H14 H 0.5701 0.4635 0.124
C19 C 0.5260(3) 0.4290(2) 0.17548(12)
H15 H 0.4457 0.4385 0.1741
C20 C 0.5693(3) 0.40028(16) 0.20767(10)
C21 C 0.6876(3) 0.38914(15) 0.20959(10)
H16 H 0.7187 0.3719 0.2317
C22 C 0.7625(3) 0.40275(14) 0.17971(9)
H17 H 0.8429 0.3936 0.1814
C23 C 0.4852(4) 0.3820(2) 0.23950(13)
H18 H 0.4874 0.3397 0.2425
H19 H 0.4059 0.3942 0.2331
H20 H 0.5089 0.4006 0.2631
Cl1 Cl 0.78516(11) 0.55983(7) 0.30378(3)
N1 N 0.92047(19) 0.48618(9) 0.12292(6)
H21 H 0.9913 0.472 0.1236
F1 F 0.8978(3) 0.67128(11) 0.11603(9)
O1 O 0.86862(19) 0.39019(9) 0.09718(6)
O2 O 0.74673(19) 0.47726(10) 0.08047(5)
S1 S 0.81342(6) 0.44480(3) 0.108143(19)
C24 C 1.2118(3) 0.22114(15) 0.06785(11)
H22 H 1.2573 0.2023 0.0865
C25 C 1.2458(4) 0.21752(18) 0.03011(13)
H23 H 1.314 0.1968 0.0233
C26 C 1.1789(3) 0.24456(16) 0.00271(10)
C27 C 1.0807(3) 0.27605(16) 0.01226(10)
H24 H 1.0361 0.2949 -0.0066
C28 C 1.0481(3) 0.27967(15) 0.05046(10)
H25 H 0.9811 0.3015 0.0571
C29 C 1.1121(2) 0.25185(12) 0.07883(9)
C30 C 1.0746(2) 0.25516(12) 0.12106(9)
H26 H 1.1388 0.2384 0.1367
C31 C 0.9614(3) 0.21855(13) 0.12855(9)
H27 H 0.8976 0.2371 0.1136
C32 C 0.9729(3) 0.15685(15) 0.11424(10)
C33 C 0.9042(4) 0.12780(19) 0.09068(12)
H28 H 0.9211 0.0885 0.0846
H29 H 0.8383 0.1463 0.08
C34 C 0.9234(3) 0.22096(13) 0.17044(10)
C35 C 0.9977(4) 0.20303(17) 0.19987(11)
H30 H 1.0737 0.1895 0.1941
C36 C 0.9607(5) 0.2049(2) 0.23763(12)
H31 H 1.0107 0.1925 0.2573
C37 C 0.8475(6) 0.2258(2) 0.24581(16)
H32 H 0.8215 0.2275 0.2712
C38 C 0.7748(5) 0.2435(2) 0.21715(18)
H33 H 0.6993 0.2577 0.2229
C39 C 0.8119(4) 0.24074(16) 0.17973(13)
H34 H 0.7604 0.2525 0.1602
C40 C 1.2586(3) 0.36964(13) 0.11189(9)
C41 C 1.2268(4) 0.40630(19) 0.08248(13)
H35 H 1.1538 0.4257 0.083
C42 C 1.3032(5) 0.4145(2) 0.05201(14)
H36 H 1.2803 0.4392 0.0319
C43 C 1.4114(4) 0.3875(2) 0.05056(14)
C44 C 1.4406(4) 0.3509(2) 0.07966(16)
H37 H 1.5131 0.3312 0.079
C45 C 1.3655(3) 0.34203(17) 0.11029(13)
H38 H 1.3882 0.3168 0.1301
C46 C 1.4955(5) 0.3980(3) 0.01681(17)
H39 H 1.5112 0.3609 0.0042
H40 H 1.5686 0.4145 0.0261
H41 H 1.4594 0.425 -0.001
Cl2 Cl 1.21914(12) 0.23828(7) -0.04553(3)
N2 N 1.0536(2) 0.31592(10) 0.13403(7)
H42 H 0.9828 0.3302 0.1331
F2 F 1.0683(3) 0.12847(10) 0.12937(7)
O3 O 1.10475(19) 0.41206(9) 0.15995(6)
O4 O 1.2220(2) 0.32430(11) 0.17875(7)
S2 S 1.15993(7) 0.35680(3) 0.15004(2)
loop_
_geom_bond_atom_site_label_1
_geom_bond_atom_site_label_2
_geom_bond_site_symmetry_1
_geom_bond_site_symmetry_2
C1 H1 1_555 1_555
C2 C1 1_555 1_555
H2 C2 1_555 1_555
C3 C2 1_555 1_555
C4 C3 1_555 1_555
H3 C4 1_555 1_555
C5 C4 1_555 1_555
H4 C5 1_555 1_555
C6 C1 1_555 1_555
C7 C6 1_555 1_555
H5 C7 1_555 1_555
C8 C7 1_555 1_555
H6 C8 1_555 1_555
C9 C8 1_555 1_555
C10 C9 1_555 1_555
H7 C10 1_555 1_555
H8 C10 1_555 1_555
C11 C8 1_555 1_555
C12 C11 1_555 1_555
H9 C12 1_555 1_555
C13 C12 1_555 1_555
H10 C13 1_555 1_555
C14 C13 1_555 1_555
H11 C14 1_555 1_555
C15 C14 1_555 1_555
H12 C15 1_555 1_555
C16 C11 1_555 1_555
H13 C16 1_555 1_555
C17 C18 1_555 1_555
C18 H14 1_555 1_555
C19 C18 1_555 1_555
H15 C19 1_555 1_555
C20 C19 1_555 1_555
C21 C20 1_555 1_555
H16 C21 1_555 1_555
C22 C17 1_555 1_555
H17 C22 1_555 1_555
C23 C20 1_555 1_555
H18 C23 1_555 1_555
H19 C23 1_555 1_555
H20 C23 1_555 1_555
Cl1 C3 1_555 1_555
N1 C7 1_555 1_555
H21 N1 1_555 1_555
F1 C9 1_555 1_555
O1 S1 1_555 1_555
O2 S1 1_555 1_555
S1 C17 1_555 1_555
C24 H22 1_555 1_555
C25 C24 1_555 1_555
H23 C25 1_555 1_555
C26 C25 1_555 1_555
C27 C26 1_555 1_555
H24 C27 1_555 1_555
C28 C27 1_555 1_555
H25 C28 1_555 1_555
C29 C24 1_555 1_555
C30 C29 1_555 1_555
H26 C30 1_555 1_555
C31 C30 1_555 1_555
H27 C31 1_555 1_555
C32 C31 1_555 1_555
C33 C32 1_555 1_555
H28 C33 1_555 1_555
H29 C33 1_555 1_555
C34 C31 1_555 1_555
C35 C34 1_555 1_555
H30 C35 1_555 1_555
C36 C35 1_555 1_555
H31 C36 1_555 1_555
C37 C36 1_555 1_555
H32 C37 1_555 1_555
C38 C37 1_555 1_555
H33 C38 1_555 1_555
C39 C34 1_555 1_555
H34 C39 1_555 1_555
C40 C41 1_555 1_555
C41 H35 1_555 1_555
C42 C41 1_555 1_555
H36 C42 1_555 1_555
C43 C42 1_555 1_555
C44 C43 1_555 1_555
H37 C44 1_555 1_555
C45 C40 1_555 1_555
H38 C45 1_555 1_555
C46 C43 1_555 1_555
H39 C46 1_555 1_555
H40 C46 1_555 1_555
H41 C46 1_555 1_555
Cl2 C26 1_555 1_555
N2 C30 1_555 1_555
H42 N2 1_555 1_555
F2 C32 1_555 1_555
O3 S2 1_555 1_555
O4 S2 1_555 1_555
S2 C40 1_555 1_555
C5 C6 1_555 1_555
C15 C16 1_555 1_555
C21 C22 1_555 1_555
N1 S1 1_555 1_555
C28 C29 1_555 1_555
C38 C39 1_555 1_555
C44 C45 1_555 1_555
N2 S2 1_555 1_555

#END
