
#######################################################################
#
#                 Cambridge Crystallographic Data Centre
#                                CCDC 
#
#######################################################################
#
# If this CIF has been generated from an entry in the Cambridge 
# Structural Database, then it will include bibliographic, chemical, 
# crystal, experimental, refinement or atomic coordinate data resulting 
# from the CCDC's data processing and validation procedures.
#
#######################################################################

data_SOWLEW01
_chemical_name_common            '(2-Bromoethyl)trimethylammonium bromide'
_chemical_formula_moiety         'C5 H13 Br1 N1 1+,Br1 1-'
_chemical_name_systematic        
'2-bromo-N,N,N-trimethylethan-1-aminium bromide'
_symmetry_cell_setting           monoclinic
_symmetry_space_group_name_H-M   'P 21/m'
_symmetry_Int_Tables_number      11
_space_group_name_Hall           '-P 2yb'
loop_
_symmetry_equiv_pos_site_id
_symmetry_equiv_pos_as_xyz
1 x,y,z
2 -x,1/2+y,-z
3 -x,-y,-z
4 x,1/2-y,z
_cell_length_a                   7.3865(6)
_cell_length_b                   8.6160(6)
_cell_length_c                   7.5120(6)
_cell_angle_alpha                90
_cell_angle_beta                 109.395(9)
_cell_angle_gamma                90
_cell_volume                     450.949
_exptl_crystal_colour            colorless
_exptl_crystal_description       block
_cell_formula_units_Z            2
_exptl_crystal_recrystallization_method methanol
_exptl_crystal_preparation       'high-temperature beta phase'
loop_
_atom_site_label
_atom_site_type_symbol
_atom_site_fract_x
_atom_site_fract_y
_atom_site_fract_z
Br2 Br 0.33043(6) 0.2500 0.75416(6)
C1 C 0.263(2) 0.8855(16) 0.437(2)
H1 H 0.3516 0.8728 0.3691
H2 H 0.2903 0.9803 0.5075
H3 H 0.1342 0.8893 0.3484
C2 C 0.4882(7) 0.725(3) 0.6952(8)
H4 H 0.5717 0.7369 0.6217
H5 H 0.5021 0.6222 0.7475
H6 H 0.5215 0.7998 0.7955
C3 C 0.217(2) 0.6054(18) 0.453(3)
H7 H 0.0833 0.6144 0.3794
H8 H 0.2355 0.5170 0.5346
H9 H 0.2907 0.5928 0.3701
C4 C 0.1498(7) 0.7922(5) 0.6825(7)
H10 H 0.1774 0.8969 0.7314
H11 H 0.0168 0.7881 0.6013
C5 C 0.1824(8) 0.6796(8) 0.8427(9)
H12 H 0.3063 0.6982 0.9380
H13 H 0.1798 0.5739 0.7974
N1 N 0.2811(5) 0.7500 0.5696(5)
Br1 Br -0.02189(9) 0.71113(12) 0.94819(9)
C1C C 0.263(2) 0.6145(16) 0.437(2)
H1C H 0.3516 0.6272 0.3691
H2C H 0.2903 0.5197 0.5075
H3C H 0.1342 0.6107 0.3484
C2C C 0.4882(7) 0.775(3) 0.6952(8)
H4C H 0.5717 0.7631 0.6217
H5C H 0.5021 0.8778 0.7475
H6C H 0.5215 0.7002 0.7955
C3C C 0.217(2) 0.8946(18) 0.453(3)
H7C H 0.0833 0.8856 0.3794
H8C H 0.2355 0.9830 0.5346
H9C H 0.2907 0.9072 0.3701
C4C C 0.1498(7) 0.7078(5) 0.6825(7)
H10C H 0.1774 0.6031 0.7314
H11C H 0.0168 0.7119 0.6013
C5C C 0.1824(8) 0.8204(8) 0.8427(9)
H12C H 0.3063 0.8018 0.9380
H13C H 0.1798 0.9261 0.7974
Br1C Br -0.02189(9) 0.78887(12) 0.94819(9)
loop_
_geom_bond_atom_site_label_1
_geom_bond_atom_site_label_2
_geom_bond_site_symmetry_1
_geom_bond_site_symmetry_2
C1 H1 1_555 1_555
H2 C1 1_555 1_555
H3 C1 1_555 1_555
C2 H4 1_555 1_555
H5 C2 1_555 1_555
H6 C2 1_555 1_555
C3 H7 1_555 1_555
H8 C3 1_555 1_555
H9 C3 1_555 1_555
C4 H10 1_555 1_555
H11 C4 1_555 1_555
C5 C4 1_555 1_555
H12 C5 1_555 1_555
H13 C5 1_555 1_555
N1 C1 1_555 1_555
Br1 C5 1_555 1_555
C1C N1 1_555 1_555
H1C C1C 1_555 1_555
H2C C1C 1_555 1_555
H3C C1C 1_555 1_555
C2C N1 1_555 1_555
H4C C2C 1_555 1_555
H5C C2C 1_555 1_555
H6C C2C 1_555 1_555
C3C N1 1_555 1_555
H7C C3C 1_555 1_555
H8C C3C 1_555 1_555
H9C C3C 1_555 1_555
C4C N1 1_555 1_555
H10C C4C 1_555 1_555
H11C C4C 1_555 1_555
C5C C4C 1_555 1_555
H12C C5C 1_555 1_555
H13C C5C 1_555 1_555
Br1C C5C 1_555 1_555
C2 N1 1_555 1_555
C3 N1 1_555 1_555
C4 N1 1_555 1_555

#END
