
#######################################################################
#
#                 Cambridge Crystallographic Data Centre
#                                CCDC 
#
#######################################################################
#
# If this CIF has been generated from an entry in the Cambridge 
# Structural Database, then it will include bibliographic, chemical, 
# crystal, experimental, refinement or atomic coordinate data resulting 
# from the CCDC's data processing and validation procedures.
#
#######################################################################

data_SOWPAX
_chemical_formula_moiety         'C28 H30 N2 O6,C1 H2 Cl2'
_chemical_name_systematic        
'25-(Phenylhydrazono)-6,9,12,15,18-pentaoxatetracyclo[21.3.1.0^5,26^.0^19,24^]heptacosa-1(26),2,4,19,21,23-hexaen-27-ol dichloromethane solvate'
_symmetry_cell_setting           triclinic
_symmetry_space_group_name_H-M   'P -1'
_symmetry_Int_Tables_number      2
_space_group_name_Hall           '-P 1'
loop_
_symmetry_equiv_pos_site_id
_symmetry_equiv_pos_as_xyz
1 x,y,z
2 -x,-y,-z
_cell_length_a                   7.5495(19)
_cell_length_b                   11.068(3)
_cell_length_c                   17.357(6)
_cell_angle_alpha                105.748(4)
_cell_angle_beta                 100.040(4)
_cell_angle_gamma                96.371(3)
_cell_volume                     1355.19
_exptl_crystal_colour            yellow
_exptl_crystal_description       block
_cell_formula_units_Z            2
loop_
_atom_site_label
_atom_site_type_symbol
_atom_site_fract_x
_atom_site_fract_y
_atom_site_fract_z
Cl1 Cl -0.39127(16) 0.70335(10) 0.78089(6)
Cl2 Cl -0.27594(17) 0.79224(10) 0.95900(6)
C1 C -0.3546(6) 0.6601(4) 0.8717(2)
H1 H -0.2660 0.6028 0.8691
H2 H -0.4679 0.6146 0.8763
O1 O 0.0021(4) 0.3056(2) 0.33568(14)
O2 O 0.2671(3) 0.1098(2) 0.62090(13)
O3 O -0.1921(3) 0.3282(2) 0.66117(13)
O4 O -0.2384(3) 0.2032(2) 0.78742(13)
O5 O 0.0297(3) 0.0572(2) 0.85204(15)
O6 O 0.2714(3) -0.0850(2) 0.75443(14)
N1 N 0.2031(4) 0.3592(3) 0.65144(17)
N2 N 0.1540(4) 0.4651(3) 0.70021(17)
C2 C 0.2359(4) 0.1044(3) 0.5404(2)
C3 C 0.2941(5) -0.0030(3) 0.6429(2)
H3 H 0.4137 -0.0234 0.6373
H4 H 0.2020 -0.0746 0.6089
C4 C 0.0523(5) 0.3193(3) 0.4203(2)
C5 C -0.1063(4) 0.3407(3) 0.4637(2)
C6 C -0.3402(5) 0.3336(3) 0.7035(2)
H5 H -0.4379 0.2627 0.6747
H6 H -0.3878 0.4122 0.7061
C7 C 0.2680(4) 0.0036(3) 0.4784(2)
H7 H 0.3111 -0.0657 0.4911
C8 C -0.0772(4) 0.3377(3) 0.54495(19)
C9 C -0.2244(4) 0.3433(3) 0.5850(2)
C10 C -0.4158(5) 0.3649(3) 0.4656(2)
H8 H -0.5288 0.3754 0.4393
C11 C 0.1635(4) 0.2055(3) 0.52029(19)
C12 C 0.1729(4) 0.1100(3) 0.3784(2)
H9 H 0.1574 0.1131 0.3247
C13 C 0.1365(5) 0.5919(3) 0.8332(2)
H10 H 0.0860 0.6500 0.8098
C14 C -0.2742(4) 0.3565(3) 0.4242(2)
H11 H -0.2916 0.3614 0.3709
C15 C -0.1903(5) 0.1952(3) 0.8679(2)
H12 H -0.2901 0.2125 0.8954
H13 H -0.0845 0.2592 0.8980
C16 C -0.2695(5) 0.3275(3) 0.7881(2)
H14 H -0.1562 0.3871 0.8122
H15 H -0.3569 0.3524 0.8218
C17 C 0.1011(4) 0.3073(3) 0.57971(19)
C18 C 0.2356(4) 0.0076(3) 0.3991(2)
H16 H 0.2562 -0.0600 0.3582
C19 C 0.1641(5) 0.6132(3) 0.9163(2)
H17 H 0.1315 0.6855 0.9486
C20 C 0.2566(5) 0.3972(3) 0.8194(2)
H18 H 0.2864 0.3237 0.7870
C21 C 0.2849(5) 0.4205(4) 0.9037(2)
H19 H 0.3349 0.3628 0.9276
C22 C 0.1334(4) 0.2080(3) 0.4391(2)
C23 C 0.2393(5) 0.5292(4) 0.9526(2)
H20 H 0.2592 0.5450 1.0091
C24 C -0.3933(5) 0.3580(3) 0.5449(2)
H21 H -0.4905 0.3632 0.5713
C25 C 0.0861(5) -0.0583(3) 0.8591(2)
H22 H -0.0007 -0.1302 0.8216
H23 H 0.0903 -0.0628 0.9144
C26 C 0.1837(4) 0.4838(3) 0.7834(2)
C27 C 0.2775(5) 0.0287(3) 0.7308(2)
H24 H 0.3811 0.0912 0.7653
H25 H 0.1672 0.0642 0.7371
C28 C 0.2720(5) -0.0642(3) 0.8395(2)
H26 H 0.3524 0.0150 0.8708
H27 H 0.3210 -0.1323 0.8567
C29 C -0.1480(5) 0.0661(3) 0.8678(2)
H28 H -0.1532 0.0530 0.9204
H29 H -0.2373 0.0009 0.8259
H30 H 0.145(4) 0.397(3) 0.4423(18)
H31 H -0.074(5) 0.242(4) 0.314(2)
H32 H 0.076(4) 0.503(3) 0.674(2)
loop_
_geom_bond_atom_site_label_1
_geom_bond_atom_site_label_2
_geom_bond_site_symmetry_1
_geom_bond_site_symmetry_2
Cl1 C1 1_555 1_555
Cl2 C1 1_555 1_555
C1 H1 1_555 1_555
H2 C1 1_555 1_555
O1 C4 1_555 1_555
O2 C2 1_555 1_555
O3 C6 1_555 1_555
O4 C15 1_555 1_555
O5 C25 1_555 1_555
O6 C27 1_555 1_555
N1 N2 1_555 1_555
N2 C26 1_555 1_555
C2 C7 1_555 1_555
C3 O2 1_555 1_555
H3 C3 1_555 1_555
H4 C3 1_555 1_555
C4 C5 1_555 1_555
C5 C8 1_555 1_555
C6 H5 1_555 1_555
H6 C6 1_555 1_555
C7 H7 1_555 1_555
C8 C9 1_555 1_555
C9 O3 1_555 1_555
C10 H8 1_555 1_555
C11 C2 1_555 1_555
C12 H9 1_555 1_555
C13 H10 1_555 1_555
C14 C5 1_555 1_555
H11 C14 1_555 1_555
C15 H12 1_555 1_555
H13 C15 1_555 1_555
C16 O4 1_555 1_555
H14 C16 1_555 1_555
H15 C16 1_555 1_555
C17 N1 1_555 1_555
C18 C7 1_555 1_555
H16 C18 1_555 1_555
C19 C13 1_555 1_555
H17 C19 1_555 1_555
C20 H18 1_555 1_555
C21 C20 1_555 1_555
H19 C21 1_555 1_555
C22 C4 1_555 1_555
C23 C19 1_555 1_555
H20 C23 1_555 1_555
C24 C9 1_555 1_555
H21 C24 1_555 1_555
C25 H22 1_555 1_555
H23 C25 1_555 1_555
C26 C13 1_555 1_555
C27 C3 1_555 1_555
H24 C27 1_555 1_555
H25 C27 1_555 1_555
C28 O6 1_555 1_555
H26 C28 1_555 1_555
H27 C28 1_555 1_555
C29 O5 1_555 1_555
H28 C29 1_555 1_555
H29 C29 1_555 1_555
H30 C4 1_555 1_555
H31 O1 1_555 1_555
H32 N2 1_555 1_555
C6 C16 1_555 1_555
C8 C17 1_555 1_555
C10 C14 1_555 1_555
C10 C24 1_555 1_555
C11 C17 1_555 1_555
C11 C22 1_555 1_555
C12 C18 1_555 1_555
C12 C22 1_555 1_555
C15 C29 1_555 1_555
C20 C26 1_555 1_555
C21 C23 1_555 1_555
C25 C28 1_555 1_555

#END
