
#######################################################################
#
#                 Cambridge Crystallographic Data Centre
#                                CCDC 
#
#######################################################################
#
# If this CIF has been generated from an entry in the Cambridge 
# Structural Database, then it will include bibliographic, chemical, 
# crystal, experimental, refinement or atomic coordinate data resulting 
# from the CCDC's data processing and validation procedures.
#
#######################################################################

data_SOWTUV
_chemical_formula_moiety         'C23 H18 N2 O2'
_chemical_name_systematic        
4,4-dimethyl-2-(4-methylphenyl)-2,4-dihydropyrrolo[2,3,4-kl]acridine-1,5-dione
_symmetry_cell_setting           monoclinic
_symmetry_space_group_name_H-M   'P 21/c'
_symmetry_Int_Tables_number      14
_space_group_name_Hall           '-P 2ybc'
loop_
_symmetry_equiv_pos_site_id
_symmetry_equiv_pos_as_xyz
1 x,y,z
2 -x,1/2+y,1/2-z
3 -x,-y,-z
4 x,1/2-y,1/2+z
_cell_length_a                   11.0418(8)
_cell_length_b                   11.3456(9)
_cell_length_c                   28.3218(19)
_cell_angle_alpha                90
_cell_angle_beta                 93.790(7)
_cell_angle_gamma                90
_cell_volume                     3540.28
_exptl_crystal_colour            yellow
_exptl_crystal_description       prism
_cell_formula_units_Z            8
loop_
_atom_site_label
_atom_site_type_symbol
_atom_site_fract_x
_atom_site_fract_y
_atom_site_fract_z
O1 O 0.30767(19) 0.0225(2) 0.46766(7)
O2 O 0.1582(2) 0.2160(2) 0.23466(7)
N1 N 0.3637(2) -0.0099(2) 0.39101(8)
N2 N 0.0965(2) 0.2690(2) 0.32798(9)
C1 C 0.4442(3) -0.1065(3) 0.40012(10)
C2 C 0.4318(3) -0.2079(3) 0.37277(10)
H1 H 0.3695 -0.2134 0.3491
C3 C 0.5117(3) -0.3008(3) 0.38068(10)
H2 H 0.5032 -0.3678 0.3618
C4 C 0.6046(3) -0.2961(3) 0.41625(10)
C5 C 0.6135(3) -0.1948(3) 0.44387(11)
H3 H 0.6741 -0.1900 0.4682
C6 C 0.5346(3) -0.1008(3) 0.43608(10)
H4 H 0.5426 -0.0340 0.4551
C7 C 0.6922(3) -0.3971(3) 0.42377(12)
H5 H 0.6482 -0.4679 0.4299
H6 H 0.7482 -0.3802 0.4503
H7 H 0.7361 -0.4077 0.3959
C8 C 0.2990(3) 0.0462(3) 0.42578(11)
C9 C 0.2191(3) 0.1332(3) 0.39972(10)
C10 C 0.1316(3) 0.2162(3) 0.41295(10)
C11 C 0.0996(3) 0.2379(3) 0.45950(11)
H8 H 0.1372 0.1956 0.4845
C12 C 0.0140(3) 0.3202(3) 0.46829(12)
H9 H -0.0058 0.3342 0.4992
C13 C -0.0440(3) 0.3836(3) 0.43092(12)
H10 H -0.1026 0.4392 0.4373
C14 C -0.0164(3) 0.3655(3) 0.38548(12)
H11 H -0.0563 0.4084 0.3612
C15 C 0.0725(3) 0.2819(3) 0.37493(11)
C16 C 0.1801(3) 0.1911(3) 0.31786(10)
C17 C 0.2402(2) 0.1233(3) 0.35301(10)
C18 C 0.3310(3) 0.0361(3) 0.34562(10)
C19 C 0.3704(3) 0.0168(3) 0.30281(10)
H12 H 0.4316 -0.0382 0.2993
C20 C 0.3175(3) 0.0826(3) 0.25986(10)
C21 C 0.2128(3) 0.1680(3) 0.26801(11)
C22 C 0.2711(4) -0.0083(3) 0.22262(12)
H13 H 0.2062 -0.0532 0.2347
H14 H 0.3361 -0.0604 0.2157
H15 H 0.2421 0.0318 0.1943
C23 C 0.4183(3) 0.1567(3) 0.23933(12)
H16 H 0.3860 0.1975 0.2116
H17 H 0.4832 0.1059 0.2311
H18 H 0.4486 0.2130 0.2625
O3 O 0.2192(2) 0.5864(2) 0.46354(7)
O4 O 0.3406(2) 0.4484(2) 0.22881(8)
N3 N 0.1522(2) 0.6364(2) 0.38639(8)
N4 N 0.4191(2) 0.3803(2) 0.32205(9)
C24 C 0.0715(3) 0.7308(3) 0.39638(10)
C25 C 0.1080(3) 0.8174(3) 0.42848(11)
H19 H 0.1840 0.8134 0.4447
C26 C 0.0308(3) 0.9100(3) 0.43640(11)
H20 H 0.0553 0.9673 0.4585
C27 C -0.0822(3) 0.9198(3) 0.41226(10)
C28 C -0.1173(3) 0.8316(3) 0.38037(11)
H21 H -0.1928 0.8362 0.3639
C29 C -0.0421(3) 0.7367(3) 0.37254(11)
H22 H -0.0676 0.6775 0.3515
C30 C -0.1627(3) 1.0241(3) 0.42000(13)
H23 H -0.2345 1.0189 0.3991
H24 H -0.1200 1.0955 0.4137
H25 H -0.1851 1.0245 0.4522
C31 C 0.2230(3) 0.5739(3) 0.42114(11)
C32 C 0.2992(3) 0.4927(3) 0.39416(11)
C33 C 0.3938(3) 0.4128(3) 0.40758(11)
C34 C 0.4365(3) 0.3871(3) 0.45430(12)
H26 H 0.4000 0.4224 0.4794
C35 C 0.5304(3) 0.3111(3) 0.46318(13)
H27 H 0.5579 0.2949 0.4942
C36 C 0.5860(3) 0.2571(3) 0.42568(13)
H28 H 0.6503 0.2054 0.4321
C37 C 0.5470(3) 0.2793(3) 0.37995(13)
H29 H 0.5841 0.2416 0.3556
C38 C 0.4508(3) 0.3589(3) 0.36903(11)
C39 C 0.3289(3) 0.4546(3) 0.31188(11)
C40 C 0.2693(3) 0.5102(3) 0.34761(10)
C41 C 0.1772(3) 0.5995(3) 0.34025(10)
C42 C 0.1368(3) 0.6328(3) 0.29685(11)
H30 H 0.0814 0.6944 0.2932
C43 C 0.1801(3) 0.5714(3) 0.25334(10)
C44 C 0.2889(3) 0.4872(3) 0.26201(11)
C45 C 0.2147(4) 0.6656(3) 0.21774(13)
H31 H 0.2818 0.7110 0.2311
H32 H 0.1466 0.7167 0.2106
H33 H 0.2373 0.6281 0.1892
C46 C 0.0752(3) 0.4964(3) 0.23186(11)
H34 H 0.0993 0.4592 0.2035
H35 H 0.0060 0.5457 0.2244
H36 H 0.0547 0.4371 0.2542
loop_
_geom_bond_atom_site_label_1
_geom_bond_atom_site_label_2
_geom_bond_site_symmetry_1
_geom_bond_site_symmetry_2
O1 C8 1_555 1_555
O2 C21 1_555 1_555
N1 C1 1_555 1_555
N2 C15 1_555 1_555
C1 C2 1_555 1_555
C2 H1 1_555 1_555
C3 C2 1_555 1_555
H2 C3 1_555 1_555
C4 C3 1_555 1_555
C5 C4 1_555 1_555
H3 C5 1_555 1_555
C6 C1 1_555 1_555
H4 C6 1_555 1_555
C7 C4 1_555 1_555
H5 C7 1_555 1_555
H6 C7 1_555 1_555
H7 C7 1_555 1_555
C8 N1 1_555 1_555
C9 C8 1_555 1_555
C10 C9 1_555 1_555
C11 C10 1_555 1_555
H8 C11 1_555 1_555
C12 C11 1_555 1_555
H9 C12 1_555 1_555
C13 C12 1_555 1_555
H10 C13 1_555 1_555
C14 C13 1_555 1_555
H11 C14 1_555 1_555
C15 C10 1_555 1_555
C16 N2 1_555 1_555
C17 C9 1_555 1_555
C18 N1 1_555 1_555
C19 C18 1_555 1_555
H12 C19 1_555 1_555
C20 C19 1_555 1_555
C21 C16 1_555 1_555
C22 C20 1_555 1_555
H13 C22 1_555 1_555
H14 C22 1_555 1_555
H15 C22 1_555 1_555
C23 C20 1_555 1_555
H16 C23 1_555 1_555
H17 C23 1_555 1_555
H18 C23 1_555 1_555
O3 C31 1_555 1_555
O4 C44 1_555 1_555
N3 C24 1_555 1_555
N4 C38 1_555 1_555
C24 C25 1_555 1_555
C25 H19 1_555 1_555
C26 C25 1_555 1_555
H20 C26 1_555 1_555
C27 C26 1_555 1_555
C28 C27 1_555 1_555
H21 C28 1_555 1_555
C29 C24 1_555 1_555
H22 C29 1_555 1_555
C30 C27 1_555 1_555
H23 C30 1_555 1_555
H24 C30 1_555 1_555
H25 C30 1_555 1_555
C31 N3 1_555 1_555
C32 C31 1_555 1_555
C33 C32 1_555 1_555
C34 C33 1_555 1_555
H26 C34 1_555 1_555
C35 C34 1_555 1_555
H27 C35 1_555 1_555
C36 C35 1_555 1_555
H28 C36 1_555 1_555
C37 C36 1_555 1_555
H29 C37 1_555 1_555
C38 C33 1_555 1_555
C39 N4 1_555 1_555
C40 C32 1_555 1_555
C41 N3 1_555 1_555
C42 C41 1_555 1_555
H30 C42 1_555 1_555
C43 C42 1_555 1_555
C44 C39 1_555 1_555
C45 C43 1_555 1_555
H31 C45 1_555 1_555
H32 C45 1_555 1_555
H33 C45 1_555 1_555
C46 C43 1_555 1_555
H34 C46 1_555 1_555
H35 C46 1_555 1_555
H36 C46 1_555 1_555
C5 C6 1_555 1_555
C14 C15 1_555 1_555
C16 C17 1_555 1_555
C17 C18 1_555 1_555
C20 C21 1_555 1_555
C28 C29 1_555 1_555
C37 C38 1_555 1_555
C39 C40 1_555 1_555
C40 C41 1_555 1_555
C43 C44 1_555 1_555

#END
