
#######################################################################
#
#                 Cambridge Crystallographic Data Centre
#                                CCDC 
#
#######################################################################
#
# If this CIF has been generated from an entry in the Cambridge 
# Structural Database, then it will include bibliographic, chemical, 
# crystal, experimental, refinement or atomic coordinate data resulting 
# from the CCDC's data processing and validation procedures.
#
#######################################################################

data_SOWYAG
_chemical_formula_moiety         'C12 H11 I1 O2'
_chemical_name_systematic        
8-Iodo-3a-methyl-3,3a,8,8a-tetrahydro-2H-indeno[2,1-b]furan-2-one
_symmetry_cell_setting           orthorhombic
_symmetry_space_group_name_H-M   'P 21 21 21'
_symmetry_Int_Tables_number      19
_space_group_name_Hall           'P 2ac 2ab'
loop_
_symmetry_equiv_pos_site_id
_symmetry_equiv_pos_as_xyz
1 x,y,z
2 1/2-x,-y,1/2+z
3 -x,1/2+y,1/2-z
4 1/2+x,1/2-y,-z
_cell_length_a                   7.3470(6)
_cell_length_b                   9.4003(13)
_cell_length_c                   16.469(2)
_cell_angle_alpha                90
_cell_angle_beta                 90
_cell_angle_gamma                90
_cell_volume                     1137.42
_exptl_crystal_colour            colorless
_exptl_crystal_description       prismatic
_cell_formula_units_Z            4
loop_
_atom_site_label
_atom_site_type_symbol
_atom_site_fract_x
_atom_site_fract_y
_atom_site_fract_z
I1 I 0.292576(14) 0.797183(10) 0.062340(6)
O1 O 0.2932(3) 0.11778(14) 0.02886(9)
O2 O 0.2986(2) 0.35299(12) 0.02086(7)
C1 C 0.2274(2) 0.57576(16) 0.08500(9)
H1 H 0.1150 0.5497 0.0542
C2 C 0.1972(2) 0.54803(16) 0.17364(9)
C3 C 0.0628(2) 0.6036(2) 0.22415(12)
H2 H -0.0235 0.6701 0.2040
C4 C 0.0578(3) 0.5591(2) 0.30510(12)
H3 H -0.0328 0.5960 0.3405
C5 C 0.1841(3) 0.4615(2) 0.33448(10)
H4 H 0.1771 0.4308 0.3893
C6 C 0.3205(2) 0.40845(18) 0.28430(9)
H5 H 0.4081 0.3432 0.3046
C7 C 0.3261(2) 0.45331(16) 0.20321(8)
C8 C 0.4685(2) 0.41499(16) 0.14044(9)
C9 C 0.4813(3) 0.25474(17) 0.12373(9)
H6 H 0.6067 0.2278 0.1080
H7 H 0.4456 0.1994 0.1723
C10 C 0.3507(3) 0.22873(16) 0.05490(10)
C11 C 0.3828(2) 0.47418(14) 0.06088(10)
H8 H 0.4752 0.5218 0.0255
C12 C 0.6525(2) 0.4820(2) 0.16127(11)
H9 H 0.6390 0.5855 0.1649
H10 H 0.7410 0.4585 0.1188
H11 H 0.6952 0.4448 0.2135
loop_
_geom_bond_atom_site_label_1
_geom_bond_atom_site_label_2
_geom_bond_site_symmetry_1
_geom_bond_site_symmetry_2
I1 C1 1_555 1_555
O1 C10 1_555 1_555
O2 C10 1_555 1_555
C1 H1 1_555 1_555
C2 C1 1_555 1_555
C3 C2 1_555 1_555
H2 C3 1_555 1_555
C4 C3 1_555 1_555
H3 C4 1_555 1_555
C5 C4 1_555 1_555
H4 C5 1_555 1_555
C6 C5 1_555 1_555
H5 C6 1_555 1_555
C7 C2 1_555 1_555
C8 C7 1_555 1_555
C9 C8 1_555 1_555
H6 C9 1_555 1_555
H7 C9 1_555 1_555
C10 C9 1_555 1_555
C11 O2 1_555 1_555
H8 C11 1_555 1_555
C12 C8 1_555 1_555
H9 C12 1_555 1_555
H10 C12 1_555 1_555
H11 C12 1_555 1_555
C1 C11 1_555 1_555
C6 C7 1_555 1_555
C8 C11 1_555 1_555

#END
