
#######################################################################
#
#                 Cambridge Crystallographic Data Centre
#                                CCDC 
#
#######################################################################
#
# If this CIF has been generated from an entry in the Cambridge 
# Structural Database, then it will include bibliographic, chemical, 
# crystal, experimental, refinement or atomic coordinate data resulting 
# from the CCDC's data processing and validation procedures.
#
#######################################################################

data_SOXCOZ
_chemical_formula_moiety         'C17 H13 Cl1 O2'
_chemical_name_systematic        
5-chloro-1-phenyl-9-oxatricyclo[6.3.1.0^2,7^]dodeca-2,4,6-trien-10-one
_symmetry_cell_setting           triclinic
_symmetry_space_group_name_H-M   'P 1'
_symmetry_Int_Tables_number      1
_space_group_name_Hall           'P 1'
loop_
_symmetry_equiv_pos_site_id
_symmetry_equiv_pos_as_xyz
1 x,y,z
_cell_length_a                   10.0577(15)
_cell_length_b                   10.0968(7)
_cell_length_c                   23.378(4)
_cell_angle_alpha                79.765(9)
_cell_angle_beta                 80.599(13)
_cell_angle_gamma                60.080(6)
_cell_volume                     2017.12
_exptl_crystal_colour            colorless
_exptl_crystal_description       prismatic
_cell_formula_units_Z            6
loop_
_atom_site_label
_atom_site_type_symbol
_atom_site_fract_x
_atom_site_fract_y
_atom_site_fract_z
Cl1 Cl 0.58526(18) 0.07775(18) 0.65516(6)
O1 O 0.5376(5) -0.0832(5) 0.42928(19)
O2 O 0.4793(5) -0.2676(6) 0.4335(2)
C1 C 0.6532(6) -0.0384(7) 0.4357(2)
H1 H 0.6209 0.0711 0.4199
C2 C 0.5781(7) -0.2341(7) 0.4358(2)
C3 C 0.7441(7) -0.3557(7) 0.4436(3)
H2 H 0.7862 -0.4126 0.4089
H3 H 0.7452 -0.4299 0.4778
C4 C 0.8520(6) -0.2947(6) 0.4526(2)
C5 C 0.8095(7) -0.1492(7) 0.4075(2)
H4 H 0.8847 -0.1117 0.4043
H5 H 0.8011 -0.1682 0.3685
C6 C 0.7970(6) -0.2205(7) 0.5097(2)
C7 C 0.8462(6) -0.2816(7) 0.5646(2)
H6 H 0.9250 -0.3851 0.5715
C8 C 0.7783(7) -0.1888(8) 0.6098(2)
H7 H 0.8094 -0.2290 0.6481
C9 C 0.6660(7) -0.0388(7) 0.5986(2)
C10 C 0.6132(6) 0.0259(6) 0.5431(2)
H8 H 0.5347 0.1296 0.5360
C11 C 0.6818(6) -0.0698(7) 0.4994(2)
C12 C 1.0216(6) -0.4139(7) 0.4503(2)
C13 C 1.0763(7) -0.5695(7) 0.4460(3)
H9 H 1.0061 -0.6043 0.4427
C14 C 1.2313(7) -0.6725(7) 0.4466(3)
H10 H 1.2672 -0.7781 0.4441
C15 C 1.3359(7) -0.6235(8) 0.4510(2)
H11 H 1.4427 -0.6952 0.4509
C16 C 1.2835(7) -0.4685(7) 0.4554(2)
H12 H 1.3545 -0.4344 0.4583
C17 C 1.1288(7) -0.3661(7) 0.4557(2)
H13 H 1.0931 -0.2613 0.4596
Cl2 Cl -0.59794(17) 0.21457(17) 0.31698(6)
O3 O -0.3008(5) -0.0477(6) 0.09312(18)
O4 O -0.1227(6) -0.2911(6) 0.1055(2)
C18 C -0.3491(7) 0.1116(7) 0.0984(2)
H14 H -0.4488 0.1841 0.0811
C19 C -0.1587(8) -0.1571(8) 0.1042(3)
C20 C -0.0379(7) -0.1107(7) 0.1112(3)
H15 H 0.0193 -0.1750 0.1453
H16 H 0.0369 -0.1339 0.0763
C21 C -0.1043(7) 0.0594(7) 0.1195(2)
C22 C -0.2209(7) 0.1505(7) 0.0722(2)
H17 H -0.2574 0.2623 0.0689
H18 H -0.1767 0.1130 0.0336
C23 C -0.2126(6) 0.0945(6) 0.1747(2)
C24 C -0.1823(7) 0.0925(7) 0.2307(2)
H19 H -0.0818 0.0655 0.2389
C25 C -0.3037(7) 0.1313(7) 0.2749(2)
H20 H -0.2879 0.1353 0.3133
C26 C -0.4474(7) 0.1639(6) 0.2616(2)
C27 C -0.4802(7) 0.1638(7) 0.2055(2)
H21 H -0.5797 0.1874 0.1973
C28 C -0.3580(6) 0.1270(6) 0.1627(2)
C29 C 0.0184(7) 0.1084(7) 0.1175(2)
C30 C 0.1741(8) 0.0093(7) 0.1108(3)
H22 H 0.2107 -0.0956 0.1066
C31 C 0.2796(8) 0.0636(8) 0.1102(3)
H23 H 0.3873 -0.0049 0.1059
C32 C 0.2272(8) 0.2135(8) 0.1160(3)
H24 H 0.2989 0.2494 0.1145
C33 C 0.0701(8) 0.3158(8) 0.1239(2)
H25 H 0.0345 0.4201 0.1287
C34 C -0.0329(7) 0.2624(7) 0.1246(3)
H26 H -0.1402 0.3310 0.1301
Cl3 Cl 0.33116(18) -0.48130(18) 0.06935(6)
O5 O 0.1933(5) -0.2118(5) 0.29286(18)
O6 O 0.1426(5) 0.0268(6) 0.2883(2)
C35 C 0.3096(6) -0.3728(7) 0.2880(2)
H27 H 0.2699 -0.4455 0.3058
C36 C 0.2366(7) -0.0998(8) 0.2854(3)
C37 C 0.4098(6) -0.1507(7) 0.2746(3)
H28 H 0.4404 -0.1266 0.3079
H29 H 0.4255 -0.0878 0.2393
C38 C 0.5200(6) -0.3223(6) 0.2665(2)
C39 C 0.4552(6) -0.4089(7) 0.3135(2)
H30 H 0.5275 -0.5208 0.3179
H31 H 0.4315 -0.3691 0.3517
C40 C 0.4870(6) -0.3567(6) 0.2111(2)
C41 C 0.5583(6) -0.3563(7) 0.1552(2)
H32 H 0.6401 -0.3324 0.1469
C42 C 0.5054(7) -0.3923(7) 0.1113(2)
H33 H 0.5500 -0.3904 0.0723
C43 C 0.3881(7) -0.4309(7) 0.1248(2)
C44 C 0.3117(7) -0.4262(7) 0.1808(2)
H34 H 0.2277 -0.4467 0.1891
C45 C 0.3660(6) -0.3898(6) 0.2235(2)
C46 C 0.6898(6) -0.3737(7) 0.2683(2)
C47 C 0.7451(7) -0.2709(7) 0.2700(2)
H35 H 0.6758 -0.1637 0.2697
C48 C 0.9020(7) -0.3277(8) 0.2722(2)
H36 H 0.9395 -0.2583 0.2727
C49 C 1.0030(6) -0.4812(7) 0.2736(2)
H37 H 1.1092 -0.5177 0.2764
C50 C 0.9514(7) -0.5851(7) 0.2709(3)
H38 H 1.0216 -0.6921 0.2711
C51 C 0.7937(7) -0.5279(7) 0.2678(3)
H39 H 0.7575 -0.5973 0.2653
Cl4 Cl 0.73987(16) -0.70651(17) 0.40266(6)
O7 O 0.9499(5) -0.7076(5) 0.62519(18)
O8 O 1.1365(6) -0.6495(6) 0.6173(2)
C52 C 0.9044(6) -0.8209(7) 0.6193(2)
H40 H 0.7976 -0.7919 0.6374
C53 C 1.0992(7) -0.7453(7) 0.6153(2)
C54 C 1.2210(7) -0.9095(7) 0.6041(3)
H41 H 1.2865 -0.9568 0.6371
H42 H 1.2876 -0.9046 0.5685
C55 C 1.1568(6) -1.0142(7) 0.5964(2)
C56 C 1.0205(6) -0.9792(6) 0.6441(2)
H43 H 0.9825 -1.0541 0.6478
H44 H 1.0486 -0.9775 0.6825
C57 C 1.0699(6) -0.9512(6) 0.5413(2)
C58 C 1.1214(7) -0.9894(7) 0.4843(2)
H45 H 1.2242 -1.0655 0.4748
C59 C 1.0170(7) -0.9120(7) 0.4417(2)
H46 H 1.0482 -0.9350 0.4024
C60 C 0.8697(6) -0.8031(7) 0.4566(2)
C61 C 0.8158(6) -0.7609(6) 0.5131(2)
H47 H 0.7134 -0.6836 0.5223
C62 C 0.9210(6) -0.8387(7) 0.5552(2)
C63 C 1.2764(6) -1.1845(6) 0.5985(2)
C64 C 1.4335(7) -1.2422(7) 0.6022(2)
H48 H 1.4712 -1.1727 0.6022
C65 C 1.5354(7) -1.3986(7) 0.6056(3)
H49 H 1.6420 -1.4352 0.6078
C66 C 1.4820(6) -1.5029(7) 0.6061(2)
H50 H 1.5510 -1.6104 0.6101
C67 C 1.3262(7) -1.4471(7) 0.6006(3)
H51 H 1.2893 -1.5171 0.6001
C68 C 1.2260(6) -1.2919(7) 0.5959(2)
H52 H 1.1210 -1.2556 0.5907
Cl5 Cl 0.03660(17) -0.30954(17) -0.26851(6)
O9 O 0.2960(5) -0.6320(5) -0.04278(18)
O10 O 0.5394(6) -0.8120(6) -0.0488(2)
C69 C 0.1355(7) -0.5841(7) -0.0509(2)
H53 H 0.0607 -0.4874 -0.0332
C70 C 0.4047(7) -0.7738(8) -0.0519(2)
C71 C 0.3627(6) -0.8924(6) -0.0651(3)
H54 H 0.4273 -0.9396 -0.1002
H55 H 0.3888 -0.9752 -0.0321
C72 C 0.1938(6) -0.8271(6) -0.0750(2)
C73 C 0.1004(6) -0.7165(6) -0.0278(2)
H56 H -0.0110 -0.6820 -0.0261
H57 H 0.1375 -0.7643 0.0112
C74 C 0.1566(6) -0.7130(6) -0.1302(2)
C75 C 0.1570(6) -0.7334(7) -0.1876(2)
H58 H 0.1809 -0.8307 -0.1975
C76 C 0.1218(6) -0.6084(7) -0.2303(2)
H59 H 0.1236 -0.6201 -0.2699
C77 C 0.0843(7) -0.4670(7) -0.2148(2)
C78 C 0.0835(6) -0.4427(7) -0.1574(2)
H60 H 0.0583 -0.3450 -0.1476
C79 C 0.1216(6) -0.5694(6) -0.1160(2)
C80 C 0.1445(6) -0.9491(7) -0.0735(2)
C81 C 0.2460(7) -1.1079(7) -0.0645(2)
H61 H 0.3523 -1.1450 -0.0617
C82 C 0.1892(7) -1.2106(7) -0.0597(3)
H62 H 0.2580 -1.3179 -0.0537
C83 C 0.0335(8) -1.1595(8) -0.0635(2)
H63 H -0.0037 -1.2310 -0.0591
C84 C -0.0663(7) -1.0025(8) -0.0738(2)
H64 H -0.1725 -0.9659 -0.0766
C85 C -0.0101(6) -0.8984(6) -0.0800(2)
H65 H -0.0779 -0.7917 -0.0886
Cl6 Cl 0.73485(18) -0.2917(2) -0.00579(6)
O11 O 0.4628(5) -0.1207(5) -0.23353(19)
O12 O 0.2237(6) -0.0695(5) -0.2331(2)
C86 C 0.6239(7) -0.2379(7) -0.2276(2)
H66 H 0.6962 -0.1964 -0.2431
C87 C 0.3528(7) -0.1666(7) -0.2291(2)
C88 C 0.4024(6) -0.3387(7) -0.2205(3)
H67 H 0.3771 -0.3641 -0.2549
H68 H 0.3406 -0.3585 -0.1860
C89 C 0.5740(7) -0.4485(7) -0.2121(2)
C90 C 0.6621(7) -0.3786(7) -0.2560(2)
H69 H 0.7743 -0.4505 -0.2592
H70 H 0.6238 -0.3495 -0.2952
C91 C 0.6090(6) -0.4248(7) -0.1540(2)
C92 C 0.6124(6) -0.5053(6) -0.0993(2)
H71 H 0.5887 -0.5872 -0.0930
C93 C 0.6517(6) -0.4626(7) -0.0535(2)
H72 H 0.6557 -0.5161 -0.0155
C94 C 0.6853(7) -0.3401(7) -0.0639(2)
C95 C 0.6806(6) -0.2585(7) -0.1187(2)
H73 H 0.7033 -0.1760 -0.1254
C96 C 0.6412(6) -0.3029(6) -0.1633(2)
C97 C 0.6242(6) -0.6150(7) -0.2154(2)
C98 C 0.5204(7) -0.6689(8) -0.2157(2)
H74 H 0.4132 -0.5986 -0.2157
C99 C 0.5737(7) -0.8253(7) -0.2161(2)
H75 H 0.5026 -0.8607 -0.2170
C100 C 0.7299(7) -0.9302(7) -0.2151(2)
H76 H 0.7659 -1.0368 -0.2155
C101 C 0.8336(7) -0.8765(7) -0.2134(2)
H77 H 0.9403 -0.9474 -0.2118
C102 C 0.7819(7) -0.7217(7) -0.2140(2)
H78 H 0.8535 -0.6866 -0.2135
loop_
_geom_bond_atom_site_label_1
_geom_bond_atom_site_label_2
_geom_bond_site_symmetry_1
_geom_bond_site_symmetry_2
Cl1 C9 1_555 1_555
O1 C1 1_555 1_555
O2 C2 1_555 1_555
C1 H1 1_555 1_555
C2 O1 1_555 1_555
C3 C2 1_555 1_555
H2 C3 1_555 1_555
H3 C3 1_555 1_555
C4 C3 1_555 1_555
C5 C1 1_555 1_555
H4 C5 1_555 1_555
H5 C5 1_555 1_555
C6 C4 1_555 1_555
C7 C6 1_555 1_555
H6 C7 1_555 1_555
C8 C7 1_555 1_555
H7 C8 1_555 1_555
C9 C8 1_555 1_555
C10 C9 1_555 1_555
H8 C10 1_555 1_555
C11 C1 1_555 1_555
C12 C4 1_555 1_555
C13 C12 1_555 1_555
H9 C13 1_555 1_555
C14 C13 1_555 1_555
H10 C14 1_555 1_555
C15 C14 1_555 1_555
H11 C15 1_555 1_555
C16 C15 1_555 1_555
H12 C16 1_555 1_555
C17 C12 1_555 1_555
H13 C17 1_555 1_555
Cl2 C26 1_555 1_555
O3 C18 1_555 1_555
O4 C19 1_555 1_555
C18 H14 1_555 1_555
C19 O3 1_555 1_555
C20 C19 1_555 1_555
H15 C20 1_555 1_555
H16 C20 1_555 1_555
C21 C20 1_555 1_555
C22 C18 1_555 1_555
H17 C22 1_555 1_555
H18 C22 1_555 1_555
C23 C21 1_555 1_555
C24 C23 1_555 1_555
H19 C24 1_555 1_555
C25 C24 1_555 1_555
H20 C25 1_555 1_555
C26 C25 1_555 1_555
C27 C26 1_555 1_555
H21 C27 1_555 1_555
C28 C18 1_555 1_555
C29 C21 1_555 1_555
C30 C29 1_555 1_555
H22 C30 1_555 1_555
C31 C30 1_555 1_555
H23 C31 1_555 1_555
C32 C31 1_555 1_555
H24 C32 1_555 1_555
C33 C32 1_555 1_555
H25 C33 1_555 1_555
C34 C29 1_555 1_555
H26 C34 1_555 1_555
Cl3 C43 1_555 1_555
O5 C35 1_555 1_555
O6 C36 1_555 1_555
C35 H27 1_555 1_555
C36 O5 1_555 1_555
C37 C36 1_555 1_555
H28 C37 1_555 1_555
H29 C37 1_555 1_555
C38 C37 1_555 1_555
C39 C35 1_555 1_555
H30 C39 1_555 1_555
H31 C39 1_555 1_555
C40 C38 1_555 1_555
C41 C40 1_555 1_555
H32 C41 1_555 1_555
C42 C41 1_555 1_555
H33 C42 1_555 1_555
C43 C42 1_555 1_555
C44 C43 1_555 1_555
H34 C44 1_555 1_555
C45 C35 1_555 1_555
C46 C38 1_555 1_555
C47 C46 1_555 1_555
H35 C47 1_555 1_555
C48 C47 1_555 1_555
H36 C48 1_555 1_555
C49 C48 1_555 1_555
H37 C49 1_555 1_555
C50 C49 1_555 1_555
H38 C50 1_555 1_555
C51 C46 1_555 1_555
H39 C51 1_555 1_555
Cl4 C60 1_555 1_555
O7 C52 1_555 1_555
O8 C53 1_555 1_555
C52 H40 1_555 1_555
C53 O7 1_555 1_555
C54 C53 1_555 1_555
H41 C54 1_555 1_555
H42 C54 1_555 1_555
C55 C54 1_555 1_555
C56 C52 1_555 1_555
H43 C56 1_555 1_555
H44 C56 1_555 1_555
C57 C55 1_555 1_555
C58 C57 1_555 1_555
H45 C58 1_555 1_555
C59 C58 1_555 1_555
H46 C59 1_555 1_555
C60 C59 1_555 1_555
C61 C60 1_555 1_555
H47 C61 1_555 1_555
C62 C52 1_555 1_555
C63 C55 1_555 1_555
C64 C63 1_555 1_555
H48 C64 1_555 1_555
C65 C64 1_555 1_555
H49 C65 1_555 1_555
C66 C65 1_555 1_555
H50 C66 1_555 1_555
C67 C66 1_555 1_555
H51 C67 1_555 1_555
C68 C63 1_555 1_555
H52 C68 1_555 1_555
Cl5 C77 1_555 1_555
O9 C69 1_555 1_555
O10 C70 1_555 1_555
C69 H53 1_555 1_555
C70 O9 1_555 1_555
C71 C70 1_555 1_555
H54 C71 1_555 1_555
H55 C71 1_555 1_555
C72 C71 1_555 1_555
C73 C69 1_555 1_555
H56 C73 1_555 1_555
H57 C73 1_555 1_555
C74 C72 1_555 1_555
C75 C74 1_555 1_555
H58 C75 1_555 1_555
C76 C75 1_555 1_555
H59 C76 1_555 1_555
C77 C76 1_555 1_555
C78 C77 1_555 1_555
H60 C78 1_555 1_555
C79 C69 1_555 1_555
C80 C72 1_555 1_555
C81 C80 1_555 1_555
H61 C81 1_555 1_555
C82 C81 1_555 1_555
H62 C82 1_555 1_555
C83 C82 1_555 1_555
H63 C83 1_555 1_555
C84 C83 1_555 1_555
H64 C84 1_555 1_555
C85 C80 1_555 1_555
H65 C85 1_555 1_555
Cl6 C94 1_555 1_555
O11 C86 1_555 1_555
O12 C87 1_555 1_555
C86 H66 1_555 1_555
C87 O11 1_555 1_555
C88 C87 1_555 1_555
H67 C88 1_555 1_555
H68 C88 1_555 1_555
C89 C88 1_555 1_555
C90 C86 1_555 1_555
H69 C90 1_555 1_555
H70 C90 1_555 1_555
C91 C89 1_555 1_555
C92 C91 1_555 1_555
H71 C92 1_555 1_555
C93 C92 1_555 1_555
H72 C93 1_555 1_555
C94 C93 1_555 1_555
C95 C94 1_555 1_555
H73 C95 1_555 1_555
C96 C86 1_555 1_555
C97 C89 1_555 1_555
C98 C97 1_555 1_555
H74 C98 1_555 1_555
C99 C98 1_555 1_555
H75 C99 1_555 1_555
C100 C99 1_555 1_555
H76 C100 1_555 1_555
C101 C100 1_555 1_555
H77 C101 1_555 1_555
C102 C97 1_555 1_555
H78 C102 1_555 1_555
C4 C5 1_555 1_555
C6 C11 1_555 1_555
C10 C11 1_555 1_555
C16 C17 1_555 1_555
C21 C22 1_555 1_555
C23 C28 1_555 1_555
C27 C28 1_555 1_555
C33 C34 1_555 1_555
C38 C39 1_555 1_555
C40 C45 1_555 1_555
C44 C45 1_555 1_555
C50 C51 1_555 1_555
C55 C56 1_555 1_555
C57 C62 1_555 1_555
C61 C62 1_555 1_555
C67 C68 1_555 1_555
C72 C73 1_555 1_555
C74 C79 1_555 1_555
C78 C79 1_555 1_555
C84 C85 1_555 1_555
C89 C90 1_555 1_555
C91 C96 1_555 1_555
C95 C96 1_555 1_555
C101 C102 1_555 1_555

#END
