
#######################################################################
#
#                 Cambridge Crystallographic Data Centre
#                                CCDC 
#
#######################################################################
#
# If this CIF has been generated from an entry in the Cambridge 
# Structural Database, then it will include bibliographic, chemical, 
# crystal, experimental, refinement or atomic coordinate data resulting 
# from the CCDC's data processing and validation procedures.
#
#######################################################################

data_SOXGOC01
_chemical_formula_moiety         'C20 H39 N2 1+,H2 O1,Br1 1-'
_chemical_name_systematic        
'1-Hexadecyl-3-methyl-1H-imidazol-3-ium bromide monohydrate'
_symmetry_cell_setting           triclinic
_symmetry_space_group_name_H-M   'P -1'
_symmetry_Int_Tables_number      2
_space_group_name_Hall           '-P 1'
loop_
_symmetry_equiv_pos_site_id
_symmetry_equiv_pos_as_xyz
1 x,y,z
2 -x,-y,-z
_cell_length_a                   5.4962(15)
_cell_length_b                   7.839(2)
_cell_length_c                   27.279(8)
_cell_angle_alpha                94.375(4)
_cell_angle_beta                 91.500(5)
_cell_angle_gamma                101.999(4)
_cell_volume                     1145.21
_cell_formula_units_Z            2
_exptl_crystal_recrystallization_method water/chloroform/toluene
loop_
_atom_site_label
_atom_site_type_symbol
_atom_site_fract_x
_atom_site_fract_y
_atom_site_fract_z
Br1 Br 0.17382(8) 0.68649(5) 0.402989(15)
N1 N 1.0721(6) 1.2180(4) 0.45322(12)
N2 N 0.8921(6) 1.0662(4) 0.38815(11)
C1 C 1.2579(8) 1.3391(6) 0.48592(16)
H1 H 1.3936 1.2842 0.4934
H2 H 1.1824 1.3688 0.5158
H3 H 1.3193 1.4435 0.4699
C2 C 0.8448(7) 1.1266(5) 0.46653(15)
H4 H 0.7794 1.1293 0.4976
C3 C 0.7364(8) 1.0324(6) 0.42539(16)
H5 H 0.5809 0.9571 0.4230
C4 C 1.0959(7) 1.1796(5) 0.40579(14)
H6 H 1.2325 1.2245 0.3878
C5 C 0.8528(8) 0.9844(6) 0.33750(14)
H7 H 0.8503 0.8605 0.3380
H8 H 0.9923 1.0350 0.3184
C6 C 0.6165(7) 1.0062(5) 0.31248(14)
H9 H 0.6142 1.1297 0.3130
H10 H 0.4752 0.9497 0.3301
C7 C 0.5949(8) 0.9269(6) 0.25971(15)
H11 H 0.6002 0.8040 0.2597
H12 H 0.7382 0.9836 0.2426
C8 C 0.3616(8) 0.9425(5) 0.23160(14)
H13 H 0.2183 0.8830 0.2482
H14 H 0.3541 1.0652 0.2323
C9 C 0.3443(8) 0.8672(5) 0.17843(14)
H15 H 0.4896 0.9256 0.1622
H16 H 0.3507 0.7444 0.1780
C10 C 0.1158(8) 0.8824(5) 0.14906(14)
H17 H 0.1095 1.0052 0.1492
H18 H -0.0299 0.8243 0.1652
C11 C 0.1025(7) 0.8054(5) 0.09619(14)
H19 H 0.2477 0.8640 0.0800
H20 H 0.1098 0.6828 0.0960
C12 C -0.1281(7) 0.8198(5) 0.06682(14)
H21 H -0.1359 0.9423 0.0669
H22 H -0.2736 0.7606 0.0829
C13 C -0.1379(7) 0.7421(5) 0.01374(14)
H23 H 0.0078 0.8010 -0.0023
H24 H -0.1307 0.6195 0.0136
C14 C -0.3702(7) 0.7573(5) -0.01590(14)
H25 H -0.3765 0.8800 -0.0160
H26 H -0.5158 0.6994 0.0003
C15 C -0.3819(7) 0.6785(5) -0.06880(15)
H27 H -0.2356 0.7361 -0.0849
H28 H -0.3759 0.5558 -0.0686
C16 C -0.6114(8) 0.6934(5) -0.09872(15)
H29 H -0.6171 0.8163 -0.0988
H30 H -0.7574 0.6360 -0.0825
C17 C -0.6254(7) 0.6156(5) -0.15146(14)
H31 H -0.4792 0.6731 -0.1676
H32 H -0.6192 0.4928 -0.1513
C18 C -0.8519(8) 0.6294(5) -0.18135(15)
H33 H -0.8583 0.7521 -0.1814
H34 H -0.9980 0.5718 -0.1652
C19 C -0.8663(8) 0.5522(6) -0.23389(16)
H35 H -0.8611 0.4293 -0.2338
H36 H -0.7199 0.6094 -0.2500
C20 C -1.0931(10) 0.5674(7) -0.26377(18)
H37 H -1.2393 0.5038 -0.2497
H38 H -1.0828 0.5197 -0.2969
H39 H -1.1022 0.6884 -0.2638
O1 O 0.5910(9) 0.4349(6) 0.3749(2)
H40 H 0.726(10) 0.503(11) 0.374(4)
H41 H 0.513(11) 0.512(7) 0.371(3)
loop_
_geom_bond_atom_site_label_1
_geom_bond_atom_site_label_2
_geom_bond_site_symmetry_1
_geom_bond_site_symmetry_2
N1 C1 1_555 1_555
N2 C3 1_555 1_555
O1 H40 1_555 1_555
C1 H1 1_555 1_555
H2 C1 1_555 1_555
H3 C1 1_555 1_555
C2 N1 1_555 1_555
H4 C2 1_555 1_555
C3 C2 1_555 1_555
H5 C3 1_555 1_555
C4 N1 1_555 1_555
H6 C4 1_555 1_555
C5 N2 1_555 1_555
H7 C5 1_555 1_555
H8 C5 1_555 1_555
C6 C5 1_555 1_555
H9 C6 1_555 1_555
H10 C6 1_555 1_555
C7 C6 1_555 1_555
H11 C7 1_555 1_555
H12 C7 1_555 1_555
C8 C7 1_555 1_555
H13 C8 1_555 1_555
H14 C8 1_555 1_555
C9 C8 1_555 1_555
H15 C9 1_555 1_555
H16 C9 1_555 1_555
C10 C9 1_555 1_555
H17 C10 1_555 1_555
H18 C10 1_555 1_555
C11 C10 1_555 1_555
H19 C11 1_555 1_555
H20 C11 1_555 1_555
C12 C11 1_555 1_555
H21 C12 1_555 1_555
H22 C12 1_555 1_555
C13 C12 1_555 1_555
H23 C13 1_555 1_555
H24 C13 1_555 1_555
C14 C13 1_555 1_555
H25 C14 1_555 1_555
H26 C14 1_555 1_555
C15 C14 1_555 1_555
H27 C15 1_555 1_555
H28 C15 1_555 1_555
C16 C15 1_555 1_555
H29 C16 1_555 1_555
H30 C16 1_555 1_555
C17 C16 1_555 1_555
H31 C17 1_555 1_555
H32 C17 1_555 1_555
C18 C17 1_555 1_555
H33 C18 1_555 1_555
H34 C18 1_555 1_555
C19 C18 1_555 1_555
H35 C19 1_555 1_555
H36 C19 1_555 1_555
C20 C19 1_555 1_555
H37 C20 1_555 1_555
H38 C20 1_555 1_555
H39 C20 1_555 1_555
H41 O1 1_555 1_555
N2 C4 1_555 1_555

#END
