
#######################################################################
#
#                 Cambridge Crystallographic Data Centre
#                                CCDC 
#
#######################################################################
#
# If this CIF has been generated from an entry in the Cambridge 
# Structural Database, then it will include bibliographic, chemical, 
# crystal, experimental, refinement or atomic coordinate data resulting 
# from the CCDC's data processing and validation procedures.
#
#######################################################################

data_SOXHAQ
_chemical_formula_moiety         'C17 H16 O2'
_chemical_name_systematic        
2-(4-Methylphenoxy)-1,2-dihydronaphthalen-1-ol
_symmetry_cell_setting           monoclinic
_symmetry_space_group_name_H-M   'P 21'
_symmetry_Int_Tables_number      4
_space_group_name_Hall           'P 2yb'
loop_
_symmetry_equiv_pos_site_id
_symmetry_equiv_pos_as_xyz
1 x,y,z
2 -x,1/2+y,-z
_cell_length_a                   11.449(5)
_cell_length_b                   4.911(2)
_cell_length_c                   12.034(5)
_cell_angle_alpha                90
_cell_angle_beta                 95.046(8)
_cell_angle_gamma                90
_cell_volume                     674.002
_cell_formula_units_Z            2
loop_
_atom_site_label
_atom_site_type_symbol
_atom_site_fract_x
_atom_site_fract_y
_atom_site_fract_z
C1 C 0.4087(3) 0.3022(7) 0.7586(3)
C2 C 0.3106(3) 0.2943(8) 0.6810(3)
C3 C 0.4067(3) 0.5006(7) 0.8535(2)
H1 H 0.4282 0.6770 0.8231
C4 C 0.2066(3) 0.3500(7) 1.0547(3)
C5 C 0.2414(3) 0.1880(9) 1.1437(3)
H2 H 0.2983 0.0551 1.1373
C6 C 0.1060(3) 0.4143(10) 1.2552(3)
C7 C 0.2857(3) 0.5410(7) 0.8938(3)
H3 H 0.2866 0.7028 0.9415
C8 C 0.1964(3) 0.5776(9) 0.7972(3)
H4 H 0.1305 0.6843 0.8051
C9 C 0.5034(4) -0.0217(9) 0.6489(3)
H5 H 0.5684 -0.1294 0.6387
C10 C 0.4088(5) -0.0294(10) 0.5726(3)
H6 H 0.4093 -0.1410 0.5102
C11 C 0.1201(3) 0.5365(9) 1.0637(3)
H7 H 0.0942 0.6429 1.0025
C12 C 0.5040(4) 0.1443(8) 0.7412(3)
H8 H 0.5698 0.1491 0.7923
C13 C 0.1918(4) 0.2225(10) 1.2434(3)
H9 H 0.2170 0.1135 1.3040
C14 C 0.0704(3) 0.5687(10) 1.1640(3)
H10 H 0.0117 0.6978 1.1692
C15 C 0.2098(3) 0.4605(10) 0.7006(3)
H11 H 0.1518 0.4855 0.6424
C16 C 0.3122(4) 0.1281(10) 0.5878(3)
H12 H 0.2475 0.1233 0.5353
C17 C 0.0555(4) 0.4572(14) 1.3654(3)
H13 H 0.0506 0.2855 1.4029
H14 H -0.0215 0.5348 1.3527
H15 H 0.1051 0.5785 1.4108
O1 O 0.2608(2) 0.3051(5) 0.95815(18)
O2 O 0.4924(2) 0.4465(5) 0.94241(19)
H16 H 0.4820 0.2936 0.9671
loop_
_geom_bond_atom_site_label_1
_geom_bond_atom_site_label_2
_geom_bond_site_symmetry_1
_geom_bond_site_symmetry_2
C1 C2 1_555 1_555
C2 C15 1_555 1_555
C3 C1 1_555 1_555
H1 C3 1_555 1_555
C4 C5 1_555 1_555
C5 H2 1_555 1_555
C6 C13 1_555 1_555
C7 C3 1_555 1_555
H3 C7 1_555 1_555
C8 C7 1_555 1_555
H4 C8 1_555 1_555
C9 H5 1_555 1_555
C10 C9 1_555 1_555
H6 C10 1_555 1_555
C11 C4 1_555 1_555
H7 C11 1_555 1_555
C12 C1 1_555 1_555
H8 C12 1_555 1_555
C13 C5 1_555 1_555
H9 C13 1_555 1_555
C14 C6 1_555 1_555
H10 C14 1_555 1_555
C15 C8 1_555 1_555
H11 C15 1_555 1_555
C16 C2 1_555 1_555
H12 C16 1_555 1_555
C17 C6 1_555 1_555
H13 C17 1_555 1_555
H14 C17 1_555 1_555
H15 C17 1_555 1_555
O1 C4 1_555 1_555
O2 C3 1_555 1_555
H16 O2 1_555 1_555
C7 O1 1_555 1_555
C9 C12 1_555 1_555
C10 C16 1_555 1_555
C11 C14 1_555 1_555

#END
