
#######################################################################
#
#                 Cambridge Crystallographic Data Centre
#                                CCDC 
#
#######################################################################
#
# If this CIF has been generated from an entry in the Cambridge 
# Structural Database, then it will include bibliographic, chemical, 
# crystal, experimental, refinement or atomic coordinate data resulting 
# from the CCDC's data processing and validation procedures.
#
#######################################################################

data_SOXNAW
_chemical_formula_moiety         'C21 H24 N2 O4 S1'
_chemical_name_systematic        
"ethyl 1'-benzyl-1-methyl-1H-spiro[2,1-benzothiazole-3,3'-pyrrolidine]-4'-carboxylate 2,2-dioxide"
_symmetry_cell_setting           monoclinic
_symmetry_space_group_name_H-M   'C 2/c'
_symmetry_Int_Tables_number      15
_space_group_name_Hall           '-C 2yn'
loop_
_symmetry_equiv_pos_site_id
_symmetry_equiv_pos_as_xyz
1 x,y,z
2 -x,y,1/2-z
3 1/2+x,1/2+y,z
4 1/2-x,1/2+y,1/2-z
5 -x,-y,-z
6 x,-y,1/2+z
7 1/2-x,1/2-y,-z
8 1/2+x,1/2-y,1/2+z
_cell_length_a                   14.911(3)
_cell_length_b                   11.831(2)
_cell_length_c                   21.951(4)
_cell_angle_alpha                90
_cell_angle_beta                 99.937(2)
_cell_angle_gamma                90
_cell_volume                     3814.33
_exptl_crystal_colour            colorless
_exptl_crystal_description       block
_cell_formula_units_Z            8
loop_
_atom_site_label
_atom_site_type_symbol
_atom_site_fract_x
_atom_site_fract_y
_atom_site_fract_z
S1 S 0.19028(3) 0.38724(4) 0.30276(2)
O1 O 0.13779(10) 0.44158(12) 0.24994(7)
O2 O 0.26984(9) 0.44586(12) 0.33281(7)
O3 O 0.44342(9) 0.28225(15) 0.37950(7)
O4 O 0.31537(9) 0.23547(12) 0.41486(6)
N1 N 0.28913(10) 0.28029(14) 0.20443(7)
N2 N 0.12344(11) 0.35796(14) 0.35404(8)
C1 C 0.21465(12) 0.23886(16) 0.28681(9)
C2 C 0.31648(12) 0.20848(16) 0.30835(9)
H1 H 0.3193 0.1257 0.3099
C3 C 0.36345(13) 0.24378(18) 0.25386(9)
H2 H 0.4059 0.3052 0.2659
H3 H 0.3963 0.1806 0.2401
C4 C 0.20626(12) 0.22533(17) 0.21710(9)
H4 H 0.2045 0.1462 0.2054
H5 H 0.1521 0.2627 0.1954
C5 C 0.14325(12) 0.17637(16) 0.31440(9)
C6 C 0.12183(13) 0.06309(16) 0.30616(9)
H6 H 0.1554 0.0167 0.2843
C7 C 0.04928(14) 0.01932(18) 0.33098(10)
H7 H 0.0346 -0.0569 0.3259
C8 C -0.00089(13) 0.08813(19) 0.36308(10)
H8 H -0.0493 0.0576 0.3792
C9 C 0.01951(13) 0.20212(18) 0.37176(9)
H9 H -0.0149 0.2485 0.3930
C10 C 0.09285(13) 0.24466(16) 0.34772(9)
C11 C 0.36575(13) 0.24915(17) 0.37041(9)
C12 C 0.35619(14) 0.27482(18) 0.47646(9)
H10 H 0.4210 0.2594 0.4835
H11 H 0.3297 0.2339 0.5073
C13 C 0.34093(18) 0.3996(2) 0.48334(11)
H12 H 0.3773 0.4409 0.4589
H13 H 0.3580 0.4207 0.5260
H14 H 0.2778 0.4168 0.4695
C14 C 0.30735(13) 0.25494(18) 0.14263(9)
H15 H 0.3176 0.1744 0.1394
H16 H 0.3625 0.2937 0.1366
C15 C 0.23031(13) 0.29004(18) 0.09229(9)
C16 C 0.18445(13) 0.20938(18) 0.05268(9)
H17 H 0.2005 0.1336 0.0582
C17 C 0.11529(14) 0.2399(2) 0.00507(10)
H18 H 0.0854 0.1850 -0.0212
C18 C 0.09074(14) 0.3519(2) -0.00347(10)
H19 H 0.0443 0.3728 -0.0354
C19 C 0.13588(15) 0.4332(2) 0.03594(11)
H20 H 0.1196 0.5088 0.0303
C20 C 0.20489(15) 0.40252(18) 0.08351(10)
H21 H 0.2345 0.4576 0.1098
C21 C 0.06109(16) 0.44712(19) 0.36659(12)
H22 H 0.0917 0.5188 0.3686
H23 H 0.0417 0.4323 0.4053
H24 H 0.0090 0.4488 0.3341
loop_
_geom_bond_atom_site_label_1
_geom_bond_atom_site_label_2
_geom_bond_site_symmetry_1
_geom_bond_site_symmetry_2
S1 O1 1_555 1_555
O2 S1 1_555 1_555
O3 C11 1_555 1_555
O4 C11 1_555 1_555
N1 C3 1_555 1_555
N2 S1 1_555 1_555
C1 S1 1_555 1_555
C2 C1 1_555 1_555
H1 C2 1_555 1_555
C3 C2 1_555 1_555
H2 C3 1_555 1_555
H3 C3 1_555 1_555
C4 N1 1_555 1_555
H4 C4 1_555 1_555
H5 C4 1_555 1_555
C5 C1 1_555 1_555
C6 C5 1_555 1_555
H6 C6 1_555 1_555
C7 C6 1_555 1_555
H7 C7 1_555 1_555
C8 C7 1_555 1_555
H8 C8 1_555 1_555
C9 C8 1_555 1_555
H9 C9 1_555 1_555
C10 N2 1_555 1_555
C11 C2 1_555 1_555
C12 O4 1_555 1_555
H10 C12 1_555 1_555
H11 C12 1_555 1_555
C13 C12 1_555 1_555
H12 C13 1_555 1_555
H13 C13 1_555 1_555
H14 C13 1_555 1_555
C14 N1 1_555 1_555
H15 C14 1_555 1_555
H16 C14 1_555 1_555
C15 C14 1_555 1_555
C16 C15 1_555 1_555
H17 C16 1_555 1_555
C17 C16 1_555 1_555
H18 C17 1_555 1_555
C18 C17 1_555 1_555
H19 C18 1_555 1_555
C19 C18 1_555 1_555
H20 C19 1_555 1_555
C20 C15 1_555 1_555
H21 C20 1_555 1_555
C21 N2 1_555 1_555
H22 C21 1_555 1_555
H23 C21 1_555 1_555
H24 C21 1_555 1_555
C1 C4 1_555 1_555
C5 C10 1_555 1_555
C9 C10 1_555 1_555
C19 C20 1_555 1_555

#END
