
#######################################################################
#
#                 Cambridge Crystallographic Data Centre
#                                CCDC 
#
#######################################################################
#
# If this CIF has been generated from an entry in the Cambridge 
# Structural Database, then it will include bibliographic, chemical, 
# crystal, experimental, refinement or atomic coordinate data resulting 
# from the CCDC's data processing and validation procedures.
#
#######################################################################

data_SOXPIG
_chemical_formula_moiety         'C18 H32 N2 O8'
_chemical_name_systematic        
(2S*,5R*)-dimethyl-2,5-bis(t-butoxycarbonylamino)hexanedioate
_symmetry_cell_setting           monoclinic
_symmetry_space_group_name_H-M   'P 21/a'
_symmetry_Int_Tables_number      14
_space_group_name_Hall           '-P 2yab'
loop_
_symmetry_equiv_pos_site_id
_symmetry_equiv_pos_as_xyz
1 x,y,z
2 1/2-x,1/2+y,-z
3 -x,-y,-z
4 1/2+x,1/2-y,z
_cell_length_a                   10.081(2)
_cell_length_b                   10.838(2)
_cell_length_c                   10.017(2)
_cell_angle_alpha                90
_cell_angle_beta                 100.472(4)
_cell_angle_gamma                90
_cell_volume                     1076.21
_chemical_melting_point          '124-125 deg.C'
_cell_formula_units_Z            2
loop_
_atom_site_label
_atom_site_type_symbol
_atom_site_fract_x
_atom_site_fract_y
_atom_site_fract_z
C1 C 0.3804(2) 0.7262(2) 0.9933(2)
H1 H 0.4318 0.7550 0.9278
H2 H 0.4397 0.6880 1.0677
H3 H 0.3353 0.7947 1.0264
C2 C 0.1933(2) 0.5842(2) 1.0270(2)
H4 H 0.1287 0.5254 0.9825
H5 H 0.1468 0.6514 1.0606
H6 H 0.2515 0.5449 1.1013
C3 C 0.3406(2) 0.5257(2) 0.8631(2)
H7 H 0.3933 0.5574 0.8000
H8 H 0.2712 0.4727 0.8162
H9 H 0.3978 0.4798 0.9328
C4 C 0.2763(2) 0.63265(18) 0.9271(2)
O1 O 0.17306(14) 0.69550(14) 0.82600(14)
C5 C 0.2079(2) 0.74627(18) 0.7154(2)
O2 O 0.32011(15) 0.74320(16) 0.68439(16)
N1 N 0.09912(18) 0.80420(16) 0.64205(16)
H10 H 0.020(3) 0.786(2) 0.662(3)
C6 C 0.1083(2) 0.84978(19) 0.5089(2)
H11 H 0.192(2) 0.891(2) 0.513(2)
C7 C 0.1101(2) 0.74916(19) 0.4037(2)
O3 O 0.1521(2) 0.76586(16) 0.30153(18)
C8 C -0.0073(2) 0.94007(19) 0.4599(2)
H12 H -0.010(3) 0.958(3) 0.365(3)
H13 H -0.092(3) 0.898(2) 0.463(3)
O4 O 0.05709(17) 0.64288(14) 0.43593(15)
C9 C 0.0506(3) 0.5468(2) 0.3349(2)
H14 H 0.0113 0.4740 0.3661
H15 H 0.1400 0.5283 0.3202
H16 H -0.0037 0.5742 0.2514
C1B C -0.3804(2) 1.2738(2) 0.0067(2)
H1B H -0.4318 1.2450 0.0722
H2B H -0.4397 1.3120 -0.0677
H3B H -0.3353 1.2053 -0.0264
C2B C -0.1933(2) 1.4158(2) -0.0270(2)
H4B H -0.1287 1.4746 0.0175
H5B H -0.1468 1.3486 -0.0606
H6B H -0.2515 1.4551 -0.1013
C3B C -0.3406(2) 1.4743(2) 0.1369(2)
H7B H -0.3933 1.4426 0.2000
H8B H -0.2712 1.5273 0.1838
H9B H -0.3978 1.5202 0.0672
C4B C -0.2763(2) 1.36735(18) 0.0729(2)
O1B O -0.17306(14) 1.30450(14) 0.17400(14)
C5B C -0.2079(2) 1.25373(18) 0.2846(2)
O2B O -0.32011(15) 1.25680(16) 0.31561(16)
N1B N -0.09912(18) 1.19580(16) 0.35795(16)
H10B H -0.020(3) 1.214(2) 0.338(3)
C6B C -0.1083(2) 1.15022(19) 0.4911(2)
H11B H -0.192(2) 1.109(2) 0.487(2)
C7B C -0.1101(2) 1.25084(19) 0.5963(2)
O3B O -0.1521(2) 1.23414(16) 0.69847(18)
C8B C 0.0073(2) 1.05993(19) 0.5401(2)
H12B H 0.010(3) 1.042(3) 0.635(3)
H13B H 0.092(3) 1.102(2) 0.537(3)
O4B O -0.05709(17) 1.35712(14) 0.56407(15)
C9B C -0.0506(3) 1.4532(2) 0.6651(2)
H14B H -0.0113 1.5260 0.6339
H15B H -0.1400 1.4717 0.6798
H16B H 0.0037 1.4258 0.7486
loop_
_geom_bond_atom_site_label_1
_geom_bond_atom_site_label_2
_geom_bond_site_symmetry_1
_geom_bond_site_symmetry_2
C1 H1 1_555 1_555
H2 C1 1_555 1_555
H3 C1 1_555 1_555
C2 H4 1_555 1_555
H5 C2 1_555 1_555
H6 C2 1_555 1_555
C3 H7 1_555 1_555
H8 C3 1_555 1_555
H9 C3 1_555 1_555
C4 C1 1_555 1_555
O1 C4 1_555 1_555
C5 O1 1_555 1_555
O2 C5 1_555 1_555
N1 C5 1_555 1_555
H10 N1 1_555 1_555
C6 N1 1_555 1_555
H11 C6 1_555 1_555
C7 C6 1_555 1_555
O3 C7 1_555 1_555
C8 C6 1_555 1_555
H12 C8 1_555 1_555
H13 C8 1_555 1_555
O4 C7 1_555 1_555
C9 O4 1_555 1_555
H14 C9 1_555 1_555
H15 C9 1_555 1_555
H16 C9 1_555 1_555
C1B H1B 1_555 1_555
H2B C1B 1_555 1_555
H3B C1B 1_555 1_555
C2B H4B 1_555 1_555
H5B C2B 1_555 1_555
H6B C2B 1_555 1_555
C3B H7B 1_555 1_555
H8B C3B 1_555 1_555
H9B C3B 1_555 1_555
C4B C1B 1_555 1_555
O1B C4B 1_555 1_555
C5B O1B 1_555 1_555
O2B C5B 1_555 1_555
N1B C5B 1_555 1_555
H10B N1B 1_555 1_555
C6B N1B 1_555 1_555
H11B C6B 1_555 1_555
C7B C6B 1_555 1_555
O3B C7B 1_555 1_555
C8B C8 1_555 1_555
H12B C8B 1_555 1_555
H13B C8B 1_555 1_555
O4B C7B 1_555 1_555
C9B O4B 1_555 1_555
H14B C9B 1_555 1_555
H15B C9B 1_555 1_555
H16B C9B 1_555 1_555
C2 C4 1_555 1_555
C3 C4 1_555 1_555
C2B C4B 1_555 1_555
C3B C4B 1_555 1_555
C6B C8B 1_555 1_555

#END
