
#######################################################################
#
#                 Cambridge Crystallographic Data Centre
#                                CCDC 
#
#######################################################################
#
# If this CIF has been generated from an entry in the Cambridge 
# Structural Database, then it will include bibliographic, chemical, 
# crystal, experimental, refinement or atomic coordinate data resulting 
# from the CCDC's data processing and validation procedures.
#
#######################################################################

data_SOYGUJ
_chemical_formula_moiety         'C19 H15 N5'
_chemical_name_systematic        
2-(4-(4-Methylphenyl)-5-(4-pyridinyl)-4H-1,2,4-triazol-3-yl)pyridine
_symmetry_cell_setting           monoclinic
_symmetry_space_group_name_H-M   'P 21/c'
_symmetry_Int_Tables_number      14
_space_group_name_Hall           '-P 2ybc'
loop_
_symmetry_equiv_pos_site_id
_symmetry_equiv_pos_as_xyz
1 x,y,z
2 -x,1/2+y,1/2-z
3 -x,-y,-z
4 x,1/2-y,1/2+z
_cell_length_a                   5.6104(11)
_cell_length_b                   16.312(3)
_cell_length_c                   16.902(4)
_cell_angle_alpha                90
_cell_angle_beta                 105.07(3)
_cell_angle_gamma                90
_cell_volume                     1493.62
_exptl_crystal_colour            colorless
_exptl_crystal_description       prism
_cell_formula_units_Z            4
_exptl_crystal_recrystallization_method ethanol
loop_
_atom_site_label
_atom_site_type_symbol
_atom_site_fract_x
_atom_site_fract_y
_atom_site_fract_z
C1 C 1.0349(6) 0.66367(18) 0.84606(18)
C2 C 0.7141(5) 0.73132(19) 0.78095(17)
C3 C 0.5160(6) 0.79095(19) 0.75540(17)
C4 C 0.3738(7) 0.9211(2) 0.7518(2)
H1 H 0.4004 0.9757 0.7673
C5 C 0.1503(6) 0.9004(2) 0.7039(2)
H2 H 0.0273 0.9396 0.6870
C6 C 0.1094(6) 0.8215(2) 0.6810(2)
H3 H -0.0430 0.8056 0.6478
C7 C 0.2918(6) 0.7655(2) 0.70656(19)
H4 H 0.2658 0.7108 0.6914
C8 C 1.2577(6) 0.63716(17) 0.90639(19)
C9 C 1.4365(6) 0.59609(18) 0.8799(2)
H5 H 1.4153 0.5859 0.8243
C10 C 1.6455(6) 0.5704(2) 0.9356(2)
H6 H 1.7648 0.5428 0.9167
C11 C 1.5079(6) 0.6215(2) 1.0397(2)
H7 H 1.5303 0.6301 1.0956
C12 C 1.2956(6) 0.64888(19) 0.98817(19)
H8 H 1.1774 0.6754 1.0086
C13 C 0.9579(5) 0.79279(17) 0.91387(17)
C14 C 1.1613(6) 0.84102(19) 0.92208(19)
H9 H 1.2539 0.8385 0.8838
C15 C 1.2267(6) 0.8930(2) 0.9874(2)
H10 H 1.3659 0.9258 0.9935
C16 C 1.0920(6) 0.89820(18) 1.04469(19)
C17 C 0.8873(6) 0.84945(19) 1.03423(19)
H11 H 0.7930 0.8520 1.0720
C18 C 0.8200(5) 0.79711(19) 0.96907(17)
H12 H 0.6802 0.7645 0.9625
C19 C 1.1735(8) 0.9536(2) 1.1171(2)
H13 H 1.3198 0.9824 1.1138
H14 H 1.2082 0.9216 1.1665
H15 H 1.0450 0.9923 1.1176
N1 N 0.9349(5) 0.62309(16) 0.77955(16)
N2 N 0.7292(5) 0.66575(17) 0.73835(16)
N3 N 0.9026(4) 0.73278(14) 0.84991(14)
N4 N 0.5604(5) 0.86832(16) 0.77874(16)
N5 N 1.6862(5) 0.58304(17) 1.01564(19)
loop_
_geom_bond_atom_site_label_1
_geom_bond_atom_site_label_2
_geom_bond_site_symmetry_1
_geom_bond_site_symmetry_2
C1 C8 1_555 1_555
C2 C3 1_555 1_555
C3 C7 1_555 1_555
C4 H1 1_555 1_555
C5 C4 1_555 1_555
H2 C5 1_555 1_555
C6 C5 1_555 1_555
H3 C6 1_555 1_555
C7 C6 1_555 1_555
H4 C7 1_555 1_555
C8 C9 1_555 1_555
C9 H5 1_555 1_555
C10 C9 1_555 1_555
H6 C10 1_555 1_555
C11 H7 1_555 1_555
C12 C8 1_555 1_555
H8 C12 1_555 1_555
C13 C14 1_555 1_555
C14 H9 1_555 1_555
C15 C14 1_555 1_555
H10 C15 1_555 1_555
C16 C15 1_555 1_555
C17 C16 1_555 1_555
H11 C17 1_555 1_555
C18 C13 1_555 1_555
H12 C18 1_555 1_555
C19 C16 1_555 1_555
H13 C19 1_555 1_555
H14 C19 1_555 1_555
H15 C19 1_555 1_555
N1 C1 1_555 1_555
N2 C2 1_555 1_555
N3 C1 1_555 1_555
N4 C3 1_555 1_555
N5 C10 1_555 1_555
C2 N3 1_555 1_555
C4 N4 1_555 1_555
C11 C12 1_555 1_555
C11 N5 1_555 1_555
C13 N3 1_555 1_555
C17 C18 1_555 1_555
N1 N2 1_555 1_555

#END
