
#######################################################################
#
#                 Cambridge Crystallographic Data Centre
#                                CCDC 
#
#######################################################################
#
# If this CIF has been generated from an entry in the Cambridge 
# Structural Database, then it will include bibliographic, chemical, 
# crystal, experimental, refinement or atomic coordinate data resulting 
# from the CCDC's data processing and validation procedures.
#
#######################################################################

data_SOYHOE
_chemical_formula_moiety         'C22 H26 O1 S2'
_chemical_name_systematic        
'[(1R,3S)-3-(1,3-Dithian-2-yl)-2,2-dimethylcyclopropyl]diphenylmethanol'
_symmetry_cell_setting           monoclinic
_symmetry_space_group_name_H-M   'P 21'
_symmetry_Int_Tables_number      4
_space_group_name_Hall           'P 2yb'
loop_
_symmetry_equiv_pos_site_id
_symmetry_equiv_pos_as_xyz
1 x,y,z
2 -x,1/2+y,-z
_cell_length_a                   9.5578(19)
_cell_length_b                   11.199(2)
_cell_length_c                   9.6512(19)
_cell_angle_alpha                90
_cell_angle_beta                 101.14(3)
_cell_angle_gamma                90
_cell_volume                     1013.58
_exptl_crystal_colour            colorless
_exptl_crystal_description       block
_chemical_melting_point          '427 K'
_cell_formula_units_Z            2
_exptl_crystal_recrystallization_method 'diethyl ether'
loop_
_atom_site_label
_atom_site_type_symbol
_atom_site_fract_x
_atom_site_fract_y
_atom_site_fract_z
C1 C 0.6857(3) 0.2287(2) 0.2178(3)
H1 H 0.6517 0.2825 0.1355
C2 C 0.6466(3) 0.2775(2) 0.3516(3)
C3 C 0.8003(3) 0.2893(2) 0.3280(3)
H2 H 0.8246 0.3717 0.3005
C4 C 0.5595(3) 0.3923(3) 0.3379(3)
H3 H 0.4577 0.3727 0.3176
H4 H 0.5827 0.4407 0.2609
H5 H 0.5822 0.4373 0.4265
C5 C 0.6172(3) 0.1950(3) 0.4668(3)
H6 H 0.5156 0.1745 0.4492
H7 H 0.6432 0.2350 0.5585
H8 H 0.6739 0.1220 0.4674
C6 C 0.9233(2) 0.2264(2) 0.4217(3)
H9 H 0.8867 0.1549 0.4656
C7 C 1.1962(3) 0.1241(3) 0.4492(3)
H10 H 1.1632 0.0529 0.4944
H11 H 1.2751 0.0987 0.4028
C8 C 1.2536(3) 0.2153(2) 0.5636(3)
H12 H 1.3404 0.1827 0.6245
H13 H 1.2811 0.2887 0.5184
C9 C 1.1470(3) 0.2472(3) 0.6542(3)
H14 H 1.1958 0.2940 0.7366
H15 H 1.1109 0.1729 0.6902
C10 C 0.6776(3) 0.0972(2) 0.1726(3)
C11 C 0.7437(3) 0.0754(2) 0.0414(3)
C12 C 0.7434(3) -0.0429(3) -0.0102(3)
H16 H 0.6995 -0.1044 0.0341
C13 C 0.8053(3) -0.0705(3) -0.1232(3)
H17 H 0.8059 -0.1507 -0.1551
C14 C 0.8676(3) 0.0196(4) -0.1912(3)
H18 H 0.9091 0.0014 -0.2705
C15 C 0.8679(4) 0.1346(3) -0.1422(4)
H19 H 0.9100 0.1958 -0.1885
C16 C 0.8079(3) 0.1635(3) -0.0258(3)
H20 H 0.8108 0.2435 0.0074
C17 C 0.5212(3) 0.0589(2) 0.1427(3)
C18 C 0.4713(3) -0.0319(3) 0.2171(3)
H21 H 0.5356 -0.0737 0.2880
C19 C 0.3262(3) -0.0628(3) 0.1886(3)
H22 H 0.2933 -0.1268 0.2385
C20 C 0.2309(3) -0.0007(3) 0.0882(3)
H23 H 0.1323 -0.0203 0.0713
C21 C 0.2790(3) 0.0895(3) 0.0129(3)
H24 H 0.2141 0.1313 -0.0575
C22 C 0.4234(3) 0.1196(3) 0.0402(3)
H25 H 0.4559 0.1825 -0.0117
O1 O 0.75071(18) 0.02068(15) 0.28301(18)
H26 H 0.8381 0.0324 0.2863
S1 S 1.05026(7) 0.17887(6) 0.31479(7)
S2 S 0.99674(7) 0.33324(6) 0.55984(8)
loop_
_geom_bond_atom_site_label_1
_geom_bond_atom_site_label_2
_geom_bond_site_symmetry_1
_geom_bond_site_symmetry_2
C1 H1 1_555 1_555
C2 C1 1_555 1_555
C3 C1 1_555 1_555
H2 C3 1_555 1_555
C4 C2 1_555 1_555
H3 C4 1_555 1_555
H4 C4 1_555 1_555
H5 C4 1_555 1_555
C5 C2 1_555 1_555
H6 C5 1_555 1_555
H7 C5 1_555 1_555
H8 C5 1_555 1_555
C6 C3 1_555 1_555
H9 C6 1_555 1_555
C7 H10 1_555 1_555
H11 C7 1_555 1_555
C8 C7 1_555 1_555
H12 C8 1_555 1_555
H13 C8 1_555 1_555
C9 C8 1_555 1_555
H14 C9 1_555 1_555
H15 C9 1_555 1_555
C10 C1 1_555 1_555
C11 C10 1_555 1_555
C12 C11 1_555 1_555
H16 C12 1_555 1_555
C13 C12 1_555 1_555
H17 C13 1_555 1_555
C14 C13 1_555 1_555
H18 C14 1_555 1_555
C15 C14 1_555 1_555
H19 C15 1_555 1_555
C16 C11 1_555 1_555
H20 C16 1_555 1_555
C17 C10 1_555 1_555
C18 C17 1_555 1_555
H21 C18 1_555 1_555
C19 C18 1_555 1_555
H22 C19 1_555 1_555
C20 C19 1_555 1_555
H23 C20 1_555 1_555
C21 C20 1_555 1_555
H24 C21 1_555 1_555
C22 C17 1_555 1_555
H25 C22 1_555 1_555
O1 C10 1_555 1_555
H26 O1 1_555 1_555
S1 C6 1_555 1_555
S2 C6 1_555 1_555
C2 C3 1_555 1_555
C7 S1 1_555 1_555
C9 S2 1_555 1_555
C15 C16 1_555 1_555
C21 C22 1_555 1_555

#END
