
#######################################################################
#
#                 Cambridge Crystallographic Data Centre
#                                CCDC 
#
#######################################################################
#
# If this CIF has been generated from an entry in the Cambridge 
# Structural Database, then it will include bibliographic, chemical, 
# crystal, experimental, refinement or atomic coordinate data resulting 
# from the CCDC's data processing and validation procedures.
#
#######################################################################

data_SOYQUU
_chemical_formula_moiety         'C32 H27 N1 O2 S1'
_chemical_name_systematic        
2-(2,2-Diphenylvinyl)-3-methyl-1-((4-methylphenyl)sulfonyl)-5-phenyl-1H-pyrrole
_symmetry_cell_setting           monoclinic
_symmetry_space_group_name_H-M   'P 21/c'
_symmetry_Int_Tables_number      14
_space_group_name_Hall           '-P 2ybc'
loop_
_symmetry_equiv_pos_site_id
_symmetry_equiv_pos_as_xyz
1 x,y,z
2 -x,1/2+y,1/2-z
3 -x,-y,-z
4 x,1/2-y,1/2+z
_cell_length_a                   11.4633(5)
_cell_length_b                   12.5751(5)
_cell_length_c                   17.9602(8)
_cell_angle_alpha                90
_cell_angle_beta                 94.224(2)
_cell_angle_gamma                90
_cell_volume                     2581.97
_exptl_crystal_colour            colorless
_exptl_crystal_description       plate
_chemical_melting_point          '138 deg.C'
_cell_formula_units_Z            4
_exptl_crystal_recrystallization_method 'ethyl acetate'
loop_
_atom_site_label
_atom_site_type_symbol
_atom_site_fract_x
_atom_site_fract_y
_atom_site_fract_z
C1 C 0.63133(14) 0.32120(13) 0.36165(9)
H1 H 0.5573 0.3445 0.3758
C2 C 0.73224(15) 0.34366(14) 0.40739(9)
H2 H 0.7265 0.3816 0.4527
C3 C 0.84065(15) 0.31081(14) 0.38685(10)
H3 H 0.9093 0.3268 0.4177
C4 C 0.84860(14) 0.25406(15) 0.32068(10)
H4 H 0.9229 0.2316 0.3064
C5 C 0.74849(14) 0.23033(13) 0.27559(9)
H5 H 0.7544 0.1905 0.2311
C6 C 0.63901(13) 0.26467(12) 0.29535(8)
C7 C 0.53085(13) 0.23105(12) 0.25185(8)
C8 C 0.43561(14) 0.18284(13) 0.27896(9)
H6 H 0.4214 0.1773 0.3303
C9 C 0.36094(13) 0.14218(12) 0.21851(9)
C10 C 0.25359(14) 0.07697(14) 0.22759(9)
H7 H 0.1857 0.1241 0.2293
H8 H 0.2637 0.0361 0.2741
H9 H 0.2411 0.0281 0.1853
C11 C 0.41077(13) 0.16656(12) 0.15307(9)
C12 C 0.37946(13) 0.14180(12) 0.07510(9)
H10 H 0.4429 0.1246 0.0461
C13 C 0.27232(13) 0.13995(12) 0.03830(8)
C14 C 0.16311(13) 0.17409(12) 0.07151(8)
C15 C 0.15599(14) 0.27354(12) 0.10561(9)
H11 H 0.2224 0.3189 0.1095
C16 C 0.05213(15) 0.30658(14) 0.13392(9)
H12 H 0.0480 0.3744 0.1568
C17 C -0.04555(14) 0.24083(16) 0.12881(10)
H13 H -0.1165 0.2640 0.1477
C18 C -0.03922(14) 0.14130(16) 0.09608(10)
H14 H -0.1053 0.0955 0.0935
C19 C 0.06415(14) 0.10862(13) 0.06701(9)
H15 H 0.0676 0.0409 0.0438
C20 C 0.26175(13) 0.11322(12) -0.04275(9)
C21 C 0.33558(14) 0.03889(12) -0.07370(9)
H16 H 0.3897 -0.0001 -0.0417
C22 C 0.33103(15) 0.02116(14) -0.15035(9)
H17 H 0.3822 -0.0291 -0.1703
C23 C 0.25148(15) 0.07699(15) -0.19779(9)
H18 H 0.2485 0.0655 -0.2502
C24 C 0.17662(16) 0.14943(15) -0.16814(10)
H19 H 0.1219 0.1874 -0.2004
C25 C 0.18075(14) 0.16723(13) -0.09144(9)
H20 H 0.1281 0.2165 -0.0719
C26 C 0.46389(13) 0.38306(12) 0.07608(9)
C27 C 0.41832(14) 0.36742(13) 0.00317(9)
H21 H 0.4510 0.3155 -0.0276
C28 C 0.32387(15) 0.42920(13) -0.02400(9)
H22 H 0.2916 0.4187 -0.0737
C29 C 0.27583(14) 0.50591(13) 0.02028(10)
C30 C 0.17081(16) 0.56937(15) -0.00866(12)
H23 H 0.1896 0.6454 -0.0061
H24 H 0.1052 0.5546 0.0219
H25 H 0.1492 0.5495 -0.0606
C31 C 0.32572(14) 0.52243(13) 0.09293(10)
H26 H 0.2950 0.5762 0.1231
C32 C 0.41952(14) 0.46132(12) 0.12139(9)
H27 H 0.4529 0.4725 0.1708
N1 N 0.51856(11) 0.22130(10) 0.17313(7)
O1 O 0.61923(10) 0.23799(9) 0.05400(6)
O2 O 0.66245(10) 0.36809(9) 0.15576(6)
S1 S 0.58023(3) 0.30337(3) 0.11250(2)
loop_
_geom_bond_atom_site_label_1
_geom_bond_atom_site_label_2
_geom_bond_site_symmetry_1
_geom_bond_site_symmetry_2
C1 H1 1_555 1_555
C2 C1 1_555 1_555
H2 C2 1_555 1_555
C3 C2 1_555 1_555
H3 C3 1_555 1_555
C4 C3 1_555 1_555
H4 C4 1_555 1_555
C5 C4 1_555 1_555
H5 C5 1_555 1_555
C6 C1 1_555 1_555
C7 C6 1_555 1_555
C8 C7 1_555 1_555
H6 C8 1_555 1_555
C9 C8 1_555 1_555
C10 C9 1_555 1_555
H7 C10 1_555 1_555
H8 C10 1_555 1_555
H9 C10 1_555 1_555
C11 C9 1_555 1_555
C12 C11 1_555 1_555
H10 C12 1_555 1_555
C13 C12 1_555 1_555
C14 C13 1_555 1_555
C15 C14 1_555 1_555
H11 C15 1_555 1_555
C16 C15 1_555 1_555
H12 C16 1_555 1_555
C17 C16 1_555 1_555
H13 C17 1_555 1_555
C18 C17 1_555 1_555
H14 C18 1_555 1_555
C19 C14 1_555 1_555
H15 C19 1_555 1_555
C20 C13 1_555 1_555
C21 C20 1_555 1_555
H16 C21 1_555 1_555
C22 C21 1_555 1_555
H17 C22 1_555 1_555
C23 C22 1_555 1_555
H18 C23 1_555 1_555
C24 C23 1_555 1_555
H19 C24 1_555 1_555
C25 C20 1_555 1_555
H20 C25 1_555 1_555
C26 C27 1_555 1_555
C27 H21 1_555 1_555
C28 C27 1_555 1_555
H22 C28 1_555 1_555
C29 C28 1_555 1_555
C30 C29 1_555 1_555
H23 C30 1_555 1_555
H24 C30 1_555 1_555
H25 C30 1_555 1_555
C31 C29 1_555 1_555
H26 C31 1_555 1_555
C32 C26 1_555 1_555
H27 C32 1_555 1_555
N1 C7 1_555 1_555
O1 S1 1_555 1_555
O2 S1 1_555 1_555
S1 C26 1_555 1_555
C5 C6 1_555 1_555
C11 N1 1_555 1_555
C18 C19 1_555 1_555
C24 C25 1_555 1_555
C31 C32 1_555 1_555
N1 S1 1_555 1_555

#END
