
#######################################################################
#
#                 Cambridge Crystallographic Data Centre
#                                CCDC 
#
#######################################################################
#
# If this CIF has been generated from an entry in the Cambridge 
# Structural Database, then it will include bibliographic, chemical, 
# crystal, experimental, refinement or atomic coordinate data resulting 
# from the CCDC's data processing and validation procedures.
#
#######################################################################

data_SOYTUW
_chemical_formula_moiety         'C26 H16 Br1 N3 O3'
_chemical_name_systematic        
(Z)-3-(9-Anthryl)-1-(4-bromophenyl)-2-(4-nitro-1H-imidazol-1-yl)prop-2-en-1-one
_symmetry_cell_setting           triclinic
_symmetry_space_group_name_H-M   'P -1'
_symmetry_Int_Tables_number      2
_space_group_name_Hall           '-P 1'
loop_
_symmetry_equiv_pos_site_id
_symmetry_equiv_pos_as_xyz
1 x,y,z
2 -x,-y,-z
_cell_length_a                   8.1438(11)
_cell_length_b                   11.0916(14)
_cell_length_c                   12.7979(17)
_cell_angle_alpha                78.146(2)
_cell_angle_beta                 86.193(2)
_cell_angle_gamma                70.768(2)
_cell_volume                     1068.21
_exptl_crystal_colour            orange
_exptl_crystal_description       block
_cell_formula_units_Z            2
_exptl_crystal_recrystallization_method chloroform/acetone
loop_
_atom_site_label
_atom_site_type_symbol
_atom_site_fract_x
_atom_site_fract_y
_atom_site_fract_z
Br1 Br 0.93749(6) 0.89457(4) 0.12755(3)
C1 C 0.4551(4) 0.4031(3) 0.3854(2)
C2 C 0.3193(4) 0.4914(3) 0.4320(2)
C3 C 0.2357(4) 0.6217(3) 0.3799(3)
H1 H 0.2699 0.6506 0.3111
C4 C 0.1080(5) 0.7050(4) 0.4276(4)
H2 H 0.0565 0.7902 0.3917
C5 C 0.0521(5) 0.6637(5) 0.5312(4)
H3 H -0.0342 0.7224 0.5639
C6 C 0.1223(5) 0.5405(5) 0.5832(3)
H4 H 0.0819 0.5144 0.6509
C7 C 0.2583(4) 0.4483(4) 0.5363(2)
C8 C 0.3318(5) 0.3209(4) 0.5877(3)
H5 H 0.2893 0.2930 0.6543
C9 C 0.4663(5) 0.2335(4) 0.5435(3)
C10 C 0.5444(7) 0.1041(4) 0.5990(3)
H6 H 0.5007 0.0765 0.6653
C11 C 0.6795(8) 0.0206(5) 0.5582(4)
H7 H 0.7273 -0.0642 0.5957
C12 C 0.7504(7) 0.0613(4) 0.4575(4)
H8 H 0.8461 0.0034 0.4305
C13 C 0.6790(5) 0.1839(3) 0.4007(3)
H9 H 0.7270 0.2092 0.3353
C14 C 0.5326(4) 0.2738(3) 0.4394(2)
C15 C 0.5261(4) 0.4522(3) 0.2830(2)
H10 H 0.5626 0.5235 0.2820
C16 C 0.5458(4) 0.4098(2) 0.1916(2)
C17 C 0.3147(4) 0.3086(3) 0.1964(2)
H11 H 0.2215 0.3730 0.2185
C18 C 0.5712(5) 0.1936(3) 0.1475(3)
H12 H 0.6886 0.1698 0.1296
C19 C 0.3157(5) 0.1937(3) 0.1754(2)
C20 C 0.6441(4) 0.4580(3) 0.0995(2)
C21 C 0.7038(4) 0.5703(3) 0.1060(2)
C22 C 0.8822(4) 0.5456(3) 0.1056(2)
H13 H 0.9569 0.4628 0.1014
C23 C 0.9499(4) 0.6436(3) 0.1113(3)
H14 H 1.0696 0.6267 0.1122
C24 C 0.8383(4) 0.7651(3) 0.1157(2)
C25 C 0.6602(4) 0.7937(3) 0.1138(2)
H15 H 0.5861 0.8775 0.1155
C26 C 0.5943(4) 0.6947(3) 0.1094(2)
H16 H 0.4746 0.7121 0.1087
N1 N 0.4811(3) 0.3085(2) 0.17774(18)
N2 N 0.4740(4) 0.1210(2) 0.1464(2)
N3 N 0.1680(5) 0.1482(3) 0.1818(3)
O1 O 0.1909(5) 0.0414(3) 0.1602(3)
O2 O 0.0289(5) 0.2194(4) 0.2088(3)
O3 O 0.6822(3) 0.4034(2) 0.02424(17)
loop_
_geom_bond_atom_site_label_1
_geom_bond_atom_site_label_2
_geom_bond_site_symmetry_1
_geom_bond_site_symmetry_2
Br1 C24 1_555 1_555
C1 C2 1_555 1_555
C2 C3 1_555 1_555
C3 H1 1_555 1_555
C4 C3 1_555 1_555
H2 C4 1_555 1_555
C5 C4 1_555 1_555
H3 C5 1_555 1_555
C6 C5 1_555 1_555
H4 C6 1_555 1_555
C7 C2 1_555 1_555
C8 C7 1_555 1_555
H5 C8 1_555 1_555
C9 C8 1_555 1_555
C10 C9 1_555 1_555
H6 C10 1_555 1_555
C11 C10 1_555 1_555
H7 C11 1_555 1_555
C12 C11 1_555 1_555
H8 C12 1_555 1_555
C13 C12 1_555 1_555
H9 C13 1_555 1_555
C14 C1 1_555 1_555
C15 C1 1_555 1_555
H10 C15 1_555 1_555
C16 C15 1_555 1_555
C17 H11 1_555 1_555
C18 H12 1_555 1_555
C19 C17 1_555 1_555
C20 C16 1_555 1_555
C21 C20 1_555 1_555
C22 C21 1_555 1_555
H13 C22 1_555 1_555
C23 C22 1_555 1_555
H14 C23 1_555 1_555
C24 C23 1_555 1_555
C25 C24 1_555 1_555
H15 C25 1_555 1_555
C26 C21 1_555 1_555
H16 C26 1_555 1_555
N1 C16 1_555 1_555
N2 C18 1_555 1_555
N3 C19 1_555 1_555
O1 N3 1_555 1_555
O2 N3 1_555 1_555
O3 C20 1_555 1_555
C6 C7 1_555 1_555
C9 C14 1_555 1_555
C13 C14 1_555 1_555
C17 N1 1_555 1_555
C18 N1 1_555 1_555
C19 N2 1_555 1_555
C25 C26 1_555 1_555

#END
