
#######################################################################
#
#                 Cambridge Crystallographic Data Centre
#                                CCDC 
#
#######################################################################
#
# If this CIF has been generated from an entry in the Cambridge 
# Structural Database, then it will include bibliographic, chemical, 
# crystal, experimental, refinement or atomic coordinate data resulting 
# from the CCDC's data processing and validation procedures.
#
#######################################################################

data_SOYZIR
_chemical_formula_moiety         'C34 H23 N3'
_chemical_name_systematic        
4-(2-Cyano-2-(4'-(diphenylamino)biphenyl-4-yl)vinyl)benzonitrile
_symmetry_cell_setting           monoclinic
_symmetry_space_group_name_H-M   'P 21/c'
_symmetry_Int_Tables_number      14
_space_group_name_Hall           '-P 2ybc'
loop_
_symmetry_equiv_pos_site_id
_symmetry_equiv_pos_as_xyz
1 x,y,z
2 -x,1/2+y,1/2-z
3 -x,-y,-z
4 x,1/2-y,1/2+z
_cell_length_a                   20.0840(15)
_cell_length_b                   9.9880(6)
_cell_length_c                   13.2270(7)
_cell_angle_alpha                90
_cell_angle_beta                 97.662(6)
_cell_angle_gamma                90
_cell_volume                     2629.63
_cell_formula_units_Z            4
loop_
_atom_site_label
_atom_site_type_symbol
_atom_site_fract_x
_atom_site_fract_y
_atom_site_fract_z
N1 N 0.86310(19) 0.0746(3) -0.3250(3)
C1 C 0.7283(2) 0.0370(4) -0.1616(3)
H1 H 0.6836 0.0097 -0.1688
C2 C 0.7624(2) 0.0383(4) -0.2460(3)
H2 H 0.7403 0.0118 -0.3091
C3 C 0.7598(2) 0.0761(4) -0.0668(3)
C4 C 0.8289(2) 0.0784(4) -0.2379(3)
C5 C 0.7254(2) 0.0659(4) 0.0257(3)
C6 C 0.8609(2) 0.1177(4) -0.1434(3)
H3 H 0.9057 0.1444 -0.1362
C7 C 0.6695(2) 0.0287(4) 0.2077(3)
C8 C 0.8263(2) 0.1171(4) -0.0594(3)
H4 H 0.8482 0.1449 0.0035
C9 C 0.7153(3) 0.1296(5) 0.1994(3)
H5 H 0.7281 0.1857 0.2547
C10 C 0.5603(3) 0.0752(6) 0.6596(3)
C11 C 0.6082(2) 0.0868(5) 0.4726(3)
C12 C 0.6421(2) 0.0042(5) 0.3053(3)
C13 C 0.9151(2) 0.1639(4) -0.3402(3)
C14 C 0.6325(3) 0.0984(5) 0.3731(3)
H6 H 0.6429 0.1850 0.3546
C15 C 0.6267(3) -0.1347(5) 0.3220(3)
C16 C 0.6776(3) -0.0326(5) 0.0328(3)
H7 H 0.6641 -0.0874 -0.0230
C17 C 0.7426(2) 0.1482(5) 0.1096(3)
H8 H 0.7731 0.2175 0.1055
C18 C 0.8448(2) -0.0285(4) -0.3993(3)
C19 C 0.5351(3) 0.0673(7) 0.7576(4)
C20 C 0.9179(3) 0.2937(5) -0.3021(3)
H9 H 0.8860 0.3227 -0.2620
N2 N 0.6163(3) -0.2458(5) 0.3306(3)
C21 C 0.8062(3) -0.0970(6) -0.5703(4)
H10 H 0.7920 -0.0752 -0.6381
C22 C 0.6496(3) -0.0505(5) 0.1226(3)
H11 H 0.6172 -0.1162 0.1257
C23 C 0.5548(3) 0.1932(6) 0.6056(4)
H12 H 0.5349 0.2680 0.6307
C24 C 0.9644(3) 0.1249(6) -0.3989(4)
H13 H 0.9645 0.0378 -0.4237
C25 C 0.6139(3) -0.0293(6) 0.5303(4)
H14 H 0.6346 -0.1042 0.5068
C26 C 0.8237(3) 0.0034(5) -0.4997(4)
H15 H 0.8213 0.0926 -0.5201
C27 C 0.9682(4) 0.3800(6) -0.3236(4)
H16 H 0.9701 0.4664 -0.2972
C28 C 0.5888(3) -0.0344(6) 0.6228(4)
H17 H 0.5916 -0.1137 0.6600
C29 C 0.8489(3) -0.1609(5) -0.3704(4)
H18 H 0.8642 -0.1834 -0.3031
C30 C 0.5799(3) 0.1981(6) 0.5125(4)
H19 H 0.5776 0.2781 0.4762
C31 C 1.0151(4) 0.3396(8) -0.3836(5)
H20 H 1.0484 0.3985 -0.3985
C32 C 0.8096(3) -0.2286(6) -0.5404(5)
H21 H 0.7977 -0.2962 -0.5878
N3 N 0.5177(3) 0.0601(7) 0.8351(4)
C33 C 0.8305(3) -0.2598(5) -0.4407(5)
H22 H 0.8324 -0.3490 -0.4202
C34 C 1.0128(3) 0.2136(8) -0.4207(5)
H23 H 1.0444 0.1864 -0.4617
loop_
_geom_bond_atom_site_label_1
_geom_bond_atom_site_label_2
_geom_bond_site_symmetry_1
_geom_bond_site_symmetry_2
N1 C4 1_555 1_555
C1 H1 1_555 1_555
C2 C1 1_555 1_555
H2 C2 1_555 1_555
C3 C1 1_555 1_555
C4 C2 1_555 1_555
C5 C3 1_555 1_555
C6 C4 1_555 1_555
H3 C6 1_555 1_555
C7 C9 1_555 1_555
C8 C3 1_555 1_555
H4 C8 1_555 1_555
C9 H5 1_555 1_555
C10 C19 1_555 1_555
C11 C14 1_555 1_555
C12 C7 1_555 1_555
C13 N1 1_555 1_555
C14 C12 1_555 1_555
H6 C14 1_555 1_555
C15 C12 1_555 1_555
C16 C5 1_555 1_555
H7 C16 1_555 1_555
C17 C5 1_555 1_555
H8 C17 1_555 1_555
C18 N1 1_555 1_555
C19 N3 1_555 1_555
C20 C13 1_555 1_555
H9 C20 1_555 1_555
N2 C15 1_555 1_555
C21 H10 1_555 1_555
C22 C7 1_555 1_555
H11 C22 1_555 1_555
C23 C10 1_555 1_555
H12 C23 1_555 1_555
C24 C13 1_555 1_555
H13 C24 1_555 1_555
C25 C11 1_555 1_555
H14 C25 1_555 1_555
C26 C18 1_555 1_555
H15 C26 1_555 1_555
C27 C20 1_555 1_555
H16 C27 1_555 1_555
C28 C10 1_555 1_555
H17 C28 1_555 1_555
C29 C18 1_555 1_555
H18 C29 1_555 1_555
C30 C11 1_555 1_555
H19 C30 1_555 1_555
C31 C27 1_555 1_555
H20 C31 1_555 1_555
C32 C21 1_555 1_555
H21 C32 1_555 1_555
C33 C29 1_555 1_555
H22 C33 1_555 1_555
C34 C24 1_555 1_555
H23 C34 1_555 1_555
C6 C8 1_555 1_555
C9 C17 1_555 1_555
C16 C22 1_555 1_555
C21 C26 1_555 1_555
C23 C30 1_555 1_555
C25 C28 1_555 1_555
C31 C34 1_555 1_555
C32 C33 1_555 1_555

#END
