
#######################################################################
#
#                 Cambridge Crystallographic Data Centre
#                                CCDC 
#
#######################################################################
#
# If this CIF has been generated from an entry in the Cambridge 
# Structural Database, then it will include bibliographic, chemical, 
# crystal, experimental, refinement or atomic coordinate data resulting 
# from the CCDC's data processing and validation procedures.
#
#######################################################################

data_SUBBOI
_chemical_formula_moiety         'C32 H26 N2 O2'
_chemical_name_systematic        
1,5'-Dibenzyl-4',5'-dihydro-3'H-spiro[indole-2,2'-pyrano[3,2-b]indol]-3(1H)-one
_symmetry_cell_setting           monoclinic
_symmetry_space_group_name_H-M   'P c'
_symmetry_Int_Tables_number      7
_space_group_name_Hall           'P -2yc'
loop_
_symmetry_equiv_pos_site_id
_symmetry_equiv_pos_as_xyz
1 x,y,z
2 x,-y,1/2+z
_cell_length_a                   8.7615(7)
_cell_length_b                   13.9565(11)
_cell_length_c                   10.6646(9)
_cell_angle_alpha                90
_cell_angle_beta                 109.912(2)
_cell_angle_gamma                90
_cell_volume                     1226.1
_exptl_crystal_colour            green
_exptl_crystal_description       prismatic
_cell_formula_units_Z            2
loop_
_atom_site_label
_atom_site_type_symbol
_atom_site_fract_x
_atom_site_fract_y
_atom_site_fract_z
N1 N -0.0525(3) 0.48307(15) 0.6035(2)
N2 N 0.1691(3) 0.12102(15) 0.7583(2)
O1 O -0.2058(3) 0.26832(14) 0.4411(2)
O2 O 0.10880(19) 0.35167(12) 0.60649(17)
C1 C -0.0460(3) 0.38025(18) 0.6107(3)
C2 C -0.1842(3) 0.34938(19) 0.4817(2)
C3 C -0.2727(3) 0.43641(19) 0.4273(2)
C4 C -0.1911(3) 0.51294(19) 0.5045(2)
C5 C -0.2515(3) 0.60545(19) 0.4786(3)
H1 H -0.1999 0.6568 0.5317
C6 C -0.3917(4) 0.6177(2) 0.3705(3)
H2 H -0.4338 0.6792 0.3502
C7 C -0.4720(4) 0.5428(2) 0.2913(3)
H3 H -0.5657 0.5543 0.2187
C8 C -0.4134(4) 0.4510(2) 0.3197(3)
H4 H -0.4674 0.3997 0.2677
C9 C 0.0865(3) 0.20664(18) 0.7260(3)
C10 C 0.1542(3) 0.26025(17) 0.6533(2)
C11 C 0.2828(3) 0.20748(18) 0.6334(2)
C12 C 0.2883(3) 0.11957(19) 0.7003(3)
C13 C 0.3989(4) 0.0495(2) 0.6984(3)
H5 H 0.4019 -0.0085 0.7421
C14 C 0.5036(4) 0.0668(3) 0.6313(4)
H6 H 0.5791 0.0202 0.6305
C15 C 0.4996(3) 0.1528(3) 0.5640(3)
H7 H 0.5710 0.1621 0.5175
C16 C 0.3921(3) 0.2241(2) 0.5651(3)
H8 H 0.3916 0.2820 0.5218
C17 C -0.0799(3) 0.3433(2) 0.7339(3)
H9 H -0.0089 0.3766 0.8117
H10 H -0.1907 0.3596 0.7250
C18 C -0.0573(3) 0.2366(2) 0.7584(3)
H11 H -0.0417 0.2222 0.8510
H12 H -0.1527 0.2024 0.7027
C19 C 0.0494(3) 0.5445(2) 0.7084(3)
H13 H 0.1260 0.5049 0.7755
H14 H -0.0183 0.5770 0.7506
C20 C 0.1419(3) 0.61817(19) 0.6609(3)
C21 C 0.1661(4) 0.7074(2) 0.7176(4)
H15 H 0.1224 0.7223 0.7834
C22 C 0.2532(6) 0.7744(3) 0.6786(7)
H16 H 0.2686 0.8345 0.7186
C23 C 0.3175(5) 0.7558(4) 0.5836(7)
H17 H 0.3757 0.8026 0.5570
C24 C 0.2957(5) 0.6656(4) 0.5257(4)
H18 H 0.3407 0.6513 0.4605
C25 C 0.2077(4) 0.5969(3) 0.5644(3)
H19 H 0.1929 0.5365 0.5252
C26 C 0.1133(4) 0.0387(2) 0.8135(3)
H20 H 0.0732 0.0607 0.8828
H21 H 0.2052 -0.0030 0.8550
C27 C -0.0191(3) -0.01922(18) 0.7129(3)
C28 C -0.0817(4) -0.09968(18) 0.7531(3)
H22 H -0.0409 -0.1189 0.8418
C29 C -0.2041(4) -0.1518(2) 0.6630(3)
H23 H -0.2462 -0.2055 0.6913
C30 C -0.2633(4) -0.1248(2) 0.5329(3)
H24 H -0.3447 -0.1606 0.4719
C31 C -0.2027(4) -0.0448(2) 0.4916(3)
H25 H -0.2438 -0.0260 0.4027
C32 C -0.0822(3) 0.0075(2) 0.5810(3)
H26 H -0.0423 0.0618 0.5522
loop_
_geom_bond_atom_site_label_1
_geom_bond_atom_site_label_2
_geom_bond_site_symmetry_1
_geom_bond_site_symmetry_2
N1 C1 1_555 1_555
N2 C9 1_555 1_555
O1 C2 1_555 1_555
O2 C1 1_555 1_555
C1 C2 1_555 1_555
C2 C3 1_555 1_555
C3 C4 1_555 1_555
C4 N1 1_555 1_555
C5 C4 1_555 1_555
H1 C5 1_555 1_555
C6 C5 1_555 1_555
H2 C6 1_555 1_555
C7 C6 1_555 1_555
H3 C7 1_555 1_555
C8 C3 1_555 1_555
H4 C8 1_555 1_555
C9 C10 1_555 1_555
C10 O2 1_555 1_555
C11 C10 1_555 1_555
C12 N2 1_555 1_555
C13 C12 1_555 1_555
H5 C13 1_555 1_555
C14 C13 1_555 1_555
H6 C14 1_555 1_555
C15 C14 1_555 1_555
H7 C15 1_555 1_555
C16 C11 1_555 1_555
H8 C16 1_555 1_555
C17 C1 1_555 1_555
H9 C17 1_555 1_555
H10 C17 1_555 1_555
C18 C9 1_555 1_555
H11 C18 1_555 1_555
H12 C18 1_555 1_555
C19 N1 1_555 1_555
H13 C19 1_555 1_555
H14 C19 1_555 1_555
C20 C19 1_555 1_555
C21 C20 1_555 1_555
H15 C21 1_555 1_555
C22 C21 1_555 1_555
H16 C22 1_555 1_555
C23 C22 1_555 1_555
H17 C23 1_555 1_555
C24 C23 1_555 1_555
H18 C24 1_555 1_555
C25 C20 1_555 1_555
H19 C25 1_555 1_555
C26 N2 1_555 1_555
H20 C26 1_555 1_555
H21 C26 1_555 1_555
C27 C26 1_555 1_555
C28 C27 1_555 1_555
H22 C28 1_555 1_555
C29 C28 1_555 1_555
H23 C29 1_555 1_555
C30 C29 1_555 1_555
H24 C30 1_555 1_555
C31 C30 1_555 1_555
H25 C31 1_555 1_555
C32 C27 1_555 1_555
H26 C32 1_555 1_555
C7 C8 1_555 1_555
C11 C12 1_555 1_555
C15 C16 1_555 1_555
C17 C18 1_555 1_555
C24 C25 1_555 1_555
C31 C32 1_555 1_555

#END
