
#######################################################################
#
#                 Cambridge Crystallographic Data Centre
#                                CCDC 
#
#######################################################################
#
# If this CIF has been generated from an entry in the Cambridge 
# Structural Database, then it will include bibliographic, chemical, 
# crystal, experimental, refinement or atomic coordinate data resulting 
# from the CCDC's data processing and validation procedures.
#
#######################################################################

data_SUBSAJ
_chemical_formula_moiety         'C22 H22 F3 N1 O4'
_chemical_name_systematic        
1,3,4,5-Tetrahydro-3-(methoxycarbonyl)-4-(4-methoxyphenyl)-3-ethyl-6-(trifluoromethyl)-2H-1-benzazepin-2-one
_symmetry_cell_setting           triclinic
_symmetry_space_group_name_H-M   'P -1'
_symmetry_Int_Tables_number      2
_space_group_name_Hall           '-P 1'
loop_
_symmetry_equiv_pos_site_id
_symmetry_equiv_pos_as_xyz
1 x,y,z
2 -x,-y,-z
_cell_length_a                   10.936(8)
_cell_length_b                   11.621(2)
_cell_length_c                   8.409(2)
_cell_angle_alpha                82.19(1)
_cell_angle_beta                 98.75(2)
_cell_angle_gamma                85.61(3)
_cell_volume                     1041.27
_cell_formula_units_Z            2
loop_
_atom_site_label
_atom_site_type_symbol
_atom_site_fract_x
_atom_site_fract_y
_atom_site_fract_z
N1 N 0.5306(3) 0.9061(3) 0.1960(4)
C1 C 0.4109(4) 0.8847(3) 0.1484(4)
O1 O 0.3544(3) 0.9392(2) 0.0186(3)
C2 C 0.3416(3) 0.7922(3) 0.2362(4)
C3 C 0.3931(3) 0.7468(3) 0.4222(4)
C4 C 0.4658(3) 0.8365(3) 0.5066(4)
C5 C 0.6974(4) 0.7653(3) 0.5985(5)
C6 C 0.8167(4) 0.7488(4) 0.5630(5)
C7 C 0.8408(4) 0.7874(4) 0.4095(5)
C8 C 0.7448(4) 0.8396(4) 0.2899(5)
C9 C 0.6243(3) 0.8524(3) 0.3252(4)
C10 C 0.5981(3) 0.8208(3) 0.4797(4)
C11 C 0.2954(3) 0.6978(3) 0.5171(4)
C12 C 0.2303(3) 0.7647(3) 0.6075(4)
C13 C 0.1494(3) 0.7155(3) 0.7035(4)
C14 C 0.1311(3) 0.5986(3) 0.7080(4)
C15 C 0.1949(4) 0.5312(3) 0.6205(5)
C16 C 0.2775(4) 0.5812(3) 0.5270(4)
O2 O 0.0488(2) 0.5596(3) 0.8068(3)
C17 C 0.0197(4) 0.44184 0.8072(5)
C18 C 0.2084(4) 0.8485(3) 0.2188(5)
O3 O 0.1173(3) 0.8065(3) 0.1623(4)
O4 O 0.2041(3) 0.9469(2) 0.2799(4)
C19 C 0.0800(5) 1.0086(5) 0.2624(8)
C20 C 0.3395(4) 0.6897(4) 0.1383(5)
C21 C 0.4654(5) 0.6329(4) 0.1235(6)
C22 C 0.6746(4) 0.7228(5) 0.7687(5)
F1 F 0.7760(3) 0.6681(4) 0.8611(4)
F2 F 0.6332(3) 0.8084(3) 0.8434(3)
F3 F 0.5899(3) 0.6455(2) 0.7676(3)
H1 H 0.5558 0.9703 0.1301
H2 H 0.4517 0.6816 0.4237
H3 H 0.4304 0.9132 0.4596
H4 H 0.4625 0.8245 0.6189
H5 H 0.8823 0.7103 0.6451
H6 H 0.9232 0.7792 0.3869
H7 H 0.7604 0.8661 0.1838
H8 H 0.2408 0.8453 0.6032
H9 H 0.1067 0.7619 0.7656
H10 H 0.1826 0.4505 0.6230
H11 H 0.3226 0.5334 0.4679
H12 H -0.0373 0.4257 0.8809
H13 H 0.0940 0.3905 0.8438
H14 H -0.0158 0.4309 0.7020
H15 H 0.0434 1.0296 0.1553
H16 H 0.0285 0.9616 0.3221
H17 H 0.0869 1.0793 0.3143
H18 H 0.2958 0.7161 0.0326
H19 H 0.2976 0.6305 0.1914
H20 H 0.4568 0.5713 0.0615
H21 H 0.5122 0.6050 0.2280
H22 H 0.5102 0.6908 0.0691
loop_
_geom_bond_atom_site_label_1
_geom_bond_atom_site_label_2
_geom_bond_site_symmetry_1
_geom_bond_site_symmetry_2
N1 C1 1_555 1_555
C1 O1 1_555 1_555
C2 C1 1_555 1_555
C3 C2 1_555 1_555
C4 C3 1_555 1_555
C5 C6 1_555 1_555
C6 C7 1_555 1_555
C7 C8 1_555 1_555
C8 C9 1_555 1_555
C9 N1 1_555 1_555
C10 C4 1_555 1_555
C11 C3 1_555 1_555
C12 C11 1_555 1_555
C13 C12 1_555 1_555
C14 C13 1_555 1_555
C15 C14 1_555 1_555
C16 C11 1_555 1_555
O2 C14 1_555 1_555
C17 O2 1_555 1_555
C18 C2 1_555 1_555
O3 C18 1_555 1_555
O4 C18 1_555 1_555
C19 O4 1_555 1_555
C20 C2 1_555 1_555
C21 C20 1_555 1_555
C22 C5 1_555 1_555
F1 C22 1_555 1_555
F2 C22 1_555 1_555
F3 C22 1_555 1_555
H1 N1 1_555 1_555
H2 C3 1_555 1_555
H3 C4 1_555 1_555
H4 C4 1_555 1_555
H5 C6 1_555 1_555
H6 C7 1_555 1_555
H7 C8 1_555 1_555
H8 C12 1_555 1_555
H9 C13 1_555 1_555
H10 C15 1_555 1_555
H11 C16 1_555 1_555
H12 C17 1_555 1_555
H13 C17 1_555 1_555
H14 C17 1_555 1_555
H15 C19 1_555 1_555
H16 C19 1_555 1_555
H17 C19 1_555 1_555
H18 C20 1_555 1_555
H19 C20 1_555 1_555
H20 C21 1_555 1_555
H21 C21 1_555 1_555
H22 C21 1_555 1_555
C5 C10 1_555 1_555
C9 C10 1_555 1_555
C15 C16 1_555 1_555

#END
