
#######################################################################
#
#                 Cambridge Crystallographic Data Centre
#                                CCDC 
#
#######################################################################
#
# If this CIF has been generated from an entry in the Cambridge 
# Structural Database, then it will include bibliographic, chemical, 
# crystal, experimental, refinement or atomic coordinate data resulting 
# from the CCDC's data processing and validation procedures.
#
#######################################################################

data_SUBSUD
_chemical_formula_moiety         'C29 H31 F3 N2 O2'
_chemical_name_systematic        
(3R,4S)-1-(2-(Dimethylamino)ethyl)-1,3,4,5-tetrahydro-4-(4-methoxyphenyl)-3-benzyl-6-(trifluoromethyl)-2H-1-benzazepin-2-one
_symmetry_cell_setting           orthorhombic
_symmetry_space_group_name_H-M   'P 21 21 21'
_symmetry_Int_Tables_number      19
_space_group_name_Hall           'P 2ac 2ab'
loop_
_symmetry_equiv_pos_site_id
_symmetry_equiv_pos_as_xyz
1 x,y,z
2 1/2+x,1/2-y,-z
3 -x,1/2+y,1/2-z
4 1/2-x,-y,1/2+z
_cell_length_a                   9.255(2)
_cell_length_b                   14.895(3)
_cell_length_c                   19.040(3)
_cell_angle_alpha                90
_cell_angle_beta                 90
_cell_angle_gamma                90
_cell_volume                     2624.73
_cell_formula_units_Z            4
loop_
_atom_site_label
_atom_site_type_symbol
_atom_site_fract_x
_atom_site_fract_y
_atom_site_fract_z
N1 N 0.5393(4) 0.6369(2) 0.8005(2)
C1 C 0.5850(5) 0.5715(3) 0.7549(2)
O1 O 0.5040(3) 0.5137(2) 0.7339(2)
C2 C 0.7424(4) 0.5768(3) 0.7332(2)
C3 C 0.8435(4) 0.5429(3) 0.7926(2)
C4 C 0.7999(5) 0.5827(3) 0.8643(2)
C5 C 0.8518(5) 0.7517(3) 0.8855(2)
C6 C 0.8073(6) 0.8420(3) 0.8792(3)
C7 C 0.6798(6) 0.8630(3) 0.8480(3)
C8 C 0.5944(5) 0.7964(3) 0.8211(2)
C9 C 0.6333(5) 0.7058(3) 0.8272(2)
C10 C 0.7621(5) 0.6814(3) 0.8600(2)
C11 C 0.8541(4) 0.4421(3) 0.7975(2)
C12 C 0.7401(5) 0.3902(3) 0.8203(3)
C13 C 0.7515(5) 0.2977(3) 0.8264(3)
C14 C 0.8797(6) 0.2556(3) 0.8098(2)
C15 C 0.9945(6) 0.3060(3) 0.7863(3)
C16 C 0.9810(5) 0.3992(3) 0.7804(2)
O2 O 0.9039(5) 0.1642(2) 0.8155(2)
C17 C 0.8001(7) 0.1112(3) 0.8505(3)
C18 C 0.7701(5) 0.5291(3) 0.6634(2)
C19 C 0.6915(5) 0.5703(3) 0.6022(2)
C20 C 0.5901(6) 0.5233(4) 0.5653(2)
C21 C 0.5189(8) 0.5558(4) 0.5100(3)
C22 C 0.5407(8) 0.6392(5) 0.4900(3)
C23 C 0.646(1) 0.6931(4) 0.5228(3)
C24 C 0.7241(8) 0.6559(3) 0.5810(3)
C25 C 0.3959(5) 0.6299(3) 0.8321(3)
C26 C 0.3998(5) 0.5882(3) 0.9050(3)
N2 N 0.4523(4) 0.4976(3) 0.9057(2)
C27 C 0.4931(8) 0.4715(5) 0.9756(3)
C28 C 0.3474(7) 0.4370(4) 0.8759(3)
C29 C 0.9916(6) 0.7317(3) 0.9188(3)
F1 F 1.0698(4) 0.8061(2) 0.9318(2)
F2 F 0.9802(4) 0.6885(2) 0.9796(2)
F3 F 1.0759(3) 0.6797(2) 0.8780(2)
H1 H 0.7645 0.6384 0.7254
H2 H 0.9370 0.5638 0.7799
H3 H 0.8775 0.5755 0.8963
H4 H 0.7174 0.5511 0.8812
H5 H 0.8673 0.8887 0.8973
H6 H 0.6499 0.9237 0.8452
H7 H 0.5070 0.8119 0.7975
H8 H 0.6512 0.4183 0.8320
H9 H 0.6712 0.2632 0.8417
H10 H 1.0836 0.2775 0.7746
H11 H 1.0607 0.4337 0.7642
H12 H 0.8321 0.0503 0.8502
H13 H 0.7908 0.1313 0.8974
H14 H 0.7110 0.1157 0.8267
H15 H 0.8715 0.5310 0.6543
H16 H 0.7411 0.4683 0.6683
H17 H 0.5706 0.4630 0.5792
H18 H 0.4501 0.5196 0.4862
H19 H 0.4850 0.6636 0.4526
H20 H 0.6638 0.7525 0.5073
H21 H 0.7980 0.6898 0.6036
H22 H 0.3046 0.5888 0.9236
H23 H 0.3368 0.5935 0.8026
H24 H 0.3553 0.6883 0.8353
H25 H 0.4610 0.6237 0.9339
H26 H 0.5602 0.5122 0.9933
H27 H 0.4075 0.4717 1.0041
H28 H 0.5310 0.4126 0.9743
H29 H 0.2608 0.4397 0.9031
H30 H 0.3842 0.3777 0.8773
H31 H 0.3273 0.4539 0.8292
loop_
_geom_bond_atom_site_label_1
_geom_bond_atom_site_label_2
_geom_bond_site_symmetry_1
_geom_bond_site_symmetry_2
N1 C1 1_555 1_555
C1 O1 1_555 1_555
C2 C1 1_555 1_555
C3 C2 1_555 1_555
C4 C3 1_555 1_555
C5 C6 1_555 1_555
C6 C7 1_555 1_555
C7 C8 1_555 1_555
C8 C9 1_555 1_555
C9 N1 1_555 1_555
C10 C4 1_555 1_555
C11 C3 1_555 1_555
C12 C11 1_555 1_555
C13 C12 1_555 1_555
C14 C13 1_555 1_555
C15 C14 1_555 1_555
C16 C11 1_555 1_555
O2 C14 1_555 1_555
C17 O2 1_555 1_555
C18 C2 1_555 1_555
C19 C18 1_555 1_555
C20 C19 1_555 1_555
C21 C20 1_555 1_555
C22 C21 1_555 1_555
C23 C22 1_555 1_555
C24 C19 1_555 1_555
C25 N1 1_555 1_555
C26 C25 1_555 1_555
N2 C26 1_555 1_555
C27 N2 1_555 1_555
C28 N2 1_555 1_555
C29 C5 1_555 1_555
F1 C29 1_555 1_555
F2 C29 1_555 1_555
F3 C29 1_555 1_555
H1 C2 1_555 1_555
H2 C3 1_555 1_555
H3 C4 1_555 1_555
H4 C4 1_555 1_555
H5 C6 1_555 1_555
H6 C7 1_555 1_555
H7 C8 1_555 1_555
H8 C12 1_555 1_555
H9 C13 1_555 1_555
H10 C15 1_555 1_555
H11 C16 1_555 1_555
H12 C17 1_555 1_555
H13 C17 1_555 1_555
H14 C17 1_555 1_555
H15 C18 1_555 1_555
H16 C18 1_555 1_555
H17 C20 1_555 1_555
H18 C21 1_555 1_555
H19 C22 1_555 1_555
H20 C23 1_555 1_555
H21 C24 1_555 1_555
H22 C26 1_555 1_555
H23 C25 1_555 1_555
H24 C25 1_555 1_555
H25 C26 1_555 1_555
H26 C27 1_555 1_555
H27 C27 1_555 1_555
H28 C27 1_555 1_555
H29 C28 1_555 1_555
H30 C28 1_555 1_555
H31 C28 1_555 1_555
C5 C10 1_555 1_555
C9 C10 1_555 1_555
C15 C16 1_555 1_555
C23 C24 1_555 1_555

#END
