
#######################################################################
#
#                 Cambridge Crystallographic Data Centre
#                                CCDC 
#
#######################################################################
#
# If this CIF has been generated from an entry in the Cambridge 
# Structural Database, then it will include bibliographic, chemical, 
# crystal, experimental, refinement or atomic coordinate data resulting 
# from the CCDC's data processing and validation procedures.
#
#######################################################################

data_SUCGIG
_chemical_formula_moiety         'C16 H30 O6 S1 Si1'
_chemical_name_systematic        
9-(t-Butyldimethylsilyloxy)-7-hydroxy-3,8-dimethyl-1,1-dioxo-2,1-oxathiaspiro(5.4)decan-5-one
_symmetry_cell_setting           triclinic
_symmetry_space_group_name_H-M   'P -1'
_symmetry_Int_Tables_number      2
_space_group_name_Hall           '-P 1'
loop_
_symmetry_equiv_pos_site_id
_symmetry_equiv_pos_as_xyz
1 x,y,z
2 -x,-y,-z
_cell_length_a                   6.741(1)
_cell_length_b                   12.232(1)
_cell_length_c                   12.523(2)
_cell_angle_alpha                86.78(1)
_cell_angle_beta                 74.82(1)
_cell_angle_gamma                89.22(1)
_cell_volume                     994.992
_exptl_crystal_colour            colorless
_exptl_crystal_description       plate
_chemical_melting_point          78-80deg.C
_cell_formula_units_Z            2
loop_
_atom_site_label
_atom_site_type_symbol
_atom_site_fract_x
_atom_site_fract_y
_atom_site_fract_z
Si1 Si 0.13959(7) 0.91781(4) 0.25492(4)
C1 C -0.0157(3) 1.0365(2) 0.2178(2)
C2 C 0.1298(4) 1.1238(2) 0.1459(2)
H1 H 0.2136(22) 1.0912(4) 0.0803(9)
H2 H 0.2179(22) 1.1519(12) 0.1881(6)
H3 H 0.0495(4) 1.1832(8) 0.1241(14)
C3 C -0.1623(4) 0.9958(2) 0.1531(2)
H4 H -0.2624(18) 0.9461(12) 0.2008(5)
H5 H -0.0842(5) 0.9578(13) 0.0895(9)
H6 H -0.2327(21) 1.0578(2) 0.1280(13)
C4 C -0.1421(4) 1.0893(2) 0.3226(2)
H7 H -0.2305(22) 1.0345(4) 0.3704(8)
H8 H -0.2256(23) 1.1478(11) 0.3019(2)
H9 H -0.0500(4) 1.1189(14) 0.3617(9)
C5 C 0.3243(3) 0.8675(2) 0.1294(2)
H10 H 0.4190(18) 0.9259(5) 0.0942(9)
H11 H 0.2496(4) 0.8445(14) 0.0780(7)
H12 H 0.4007(20) 0.8060(9) 0.1507(3)
C6 C 0.2778(3) 0.9542(2) 0.3581(2)
H13 H 0.3679(21) 1.0161(10) 0.3287(6)
H14 H 0.3588(22) 0.8921(5) 0.3738(11)
H15 H 0.1791(4) 0.9735(15) 0.4259(6)
O1 O -0.0343(2) 0.82173(11) 0.31115(11)
C7 C -0.1135(3) 0.57893(15) 0.2845(2)
C8 C -0.1135(3) 0.5897(2) 0.1615(2)
O2 O 0.0144(3) 0.6443(2) 0.09592(14)
C9 C -0.2761(4) 0.5271(2) 0.1276(2)
H16 H -0.2563(4) 0.5385(2) 0.0474(2)
H17 H -0.4117(4) 0.5559(2) 0.1643(2)
C10 C -0.2706(3) 0.4057(2) 0.1570(2)
H18 H -0.1351(3) 0.3756(2) 0.1190(2)
C11 C -0.4392(4) 0.3403(2) 0.1316(2)
H19 H -0.4219(20) 0.3429(15) 0.0521(3)
H20 H -0.5717(4) 0.3712(11) 0.1675(15)
H21 H -0.4326(21) 0.2649(5) 0.1588(16)
O3 O -0.3010(2) 0.39256(12) 0.27858(12)
S1 S -0.12124(8) 0.43523(4) 0.32356(5)
O4 O 0.0681(3) 0.38834(14) 0.2651(2)
O5 O -0.1890(3) 0.41793(13) 0.44055(15)
C12 C -0.3069(3) 0.63770(15) 0.3580(2)
H22 H -0.4149(3) 0.58328(15) 0.3933(2)
O6 O -0.3841(2) 0.71725(12) 0.29222(13)
H23 H -0.3052(47) 0.7634(27) 0.2738(26)
C13 C -0.2201(3) 0.6876(2) 0.4459(2)
H24 H -0.2000(3) 0.6269(2) 0.4978(2)
C14 C -0.3572(4) 0.7720(2) 0.5142(2)
H25 H -0.3012(16) 0.7904(12) 0.5748(9)
H26 H -0.4944(8) 0.7421(6) 0.5438(13)
H27 H -0.3634(24) 0.8374(6) 0.4677(4)
C15 C -0.0076(3) 0.72739(15) 0.3800(2)
H28 H 0.0798(3) 0.74430(15) 0.4293(2)
C16 C 0.0761(3) 0.6305(2) 0.3102(2)
H29 H 0.1421(3) 0.5775(2) 0.3515(2)
H30 H 0.1768(3) 0.6551(2) 0.2416(2)
loop_
_geom_bond_atom_site_label_1
_geom_bond_atom_site_label_2
_geom_bond_site_symmetry_1
_geom_bond_site_symmetry_2
Si1 C1 1_555 1_555
C1 C2 1_555 1_555
C2 H1 1_555 1_555
H2 C2 1_555 1_555
H3 C2 1_555 1_555
C3 C1 1_555 1_555
H4 C3 1_555 1_555
H5 C3 1_555 1_555
H6 C3 1_555 1_555
C4 C1 1_555 1_555
H7 C4 1_555 1_555
H8 C4 1_555 1_555
H9 C4 1_555 1_555
C5 Si1 1_555 1_555
H10 C5 1_555 1_555
H11 C5 1_555 1_555
H12 C5 1_555 1_555
C6 Si1 1_555 1_555
H13 C6 1_555 1_555
H14 C6 1_555 1_555
H15 C6 1_555 1_555
O1 Si1 1_555 1_555
C7 C8 1_555 1_555
C8 O2 1_555 1_555
C9 C8 1_555 1_555
H16 C9 1_555 1_555
H17 C9 1_555 1_555
C10 C9 1_555 1_555
H18 C10 1_555 1_555
C11 C10 1_555 1_555
H19 C11 1_555 1_555
H20 C11 1_555 1_555
H21 C11 1_555 1_555
O3 C10 1_555 1_555
S1 C7 1_555 1_555
O4 S1 1_555 1_555
O5 S1 1_555 1_555
C12 C7 1_555 1_555
H22 C12 1_555 1_555
O6 C12 1_555 1_555
H23 O6 1_555 1_555
C13 C12 1_555 1_555
H24 C13 1_555 1_555
C14 C13 1_555 1_555
H25 C14 1_555 1_555
H26 C14 1_555 1_555
H27 C14 1_555 1_555
C15 O1 1_555 1_555
H28 C15 1_555 1_555
C16 C7 1_555 1_555
H29 C16 1_555 1_555
H30 C16 1_555 1_555
O3 S1 1_555 1_555
C13 C15 1_555 1_555
C15 C16 1_555 1_555

#END
