
#######################################################################
#
#                 Cambridge Crystallographic Data Centre
#                                CCDC 
#
#######################################################################
#
# If this CIF has been generated from an entry in the Cambridge 
# Structural Database, then it will include bibliographic, chemical, 
# crystal, experimental, refinement or atomic coordinate data resulting 
# from the CCDC's data processing and validation procedures.
#
#######################################################################

data_SUDFEC
_chemical_formula_moiety         'C16 H14 Br2'
_chemical_name_systematic        cis-2,3-bis(4-Bromophenyl)-2-butene
_symmetry_cell_setting           monoclinic
_symmetry_space_group_name_H-M   'P 21/n'
_symmetry_Int_Tables_number      14
_space_group_name_Hall           '-P 2yn'
loop_
_symmetry_equiv_pos_site_id
_symmetry_equiv_pos_as_xyz
1 x,y,z
2 1/2+x,1/2-y,1/2+z
3 -x,-y,-z
4 1/2-x,1/2+y,1/2-z
_cell_length_a                   12.226(1)
_cell_length_b                   15.976(1)
_cell_length_c                   15.792(1)
_cell_angle_alpha                90
_cell_angle_beta                 98.38(1)
_cell_angle_gamma                90
_cell_volume                     3051.6
_exptl_crystal_colour            colorless
_exptl_crystal_description       plate
_chemical_melting_point          353-355K
_cell_formula_units_Z            8
_exptl_crystal_recrystallization_method hexane
loop_
_atom_site_label
_atom_site_type_symbol
_atom_site_fract_x
_atom_site_fract_y
_atom_site_fract_z
Br1 Br 0.24290(9) 0.85260(6) 0.51257(6)
Br2 Br 0.25896(8) 0.34698(6) 0.55098(7)
C1 C 0.0221(6) 0.6565(6) 0.7798(5)
C2 C 0.0337(6) 0.5743(6) 0.7911(5)
C3 C -0.0434(7) 0.7120(5) 0.8316(5)
H1 H -0.1077(7) 0.7326(5) 0.7955(5)
H2 H 0.0013(7) 0.7582(5) 0.8549(5)
H3 H -0.0658(7) 0.6798(5) 0.8775(5)
C4 C -0.0132(7) 0.5255(6) 0.8619(5)
H4 H 0.0428(7) 0.4885(6) 0.8894(5)
H5 H -0.0765(7) 0.4935(6) 0.8375(5)
H6 H -0.0344(7) 0.5641(6) 0.9033(5)
C5 C 0.0755(6) 0.7028(5) 0.7147(5)
C6 C 0.0151(7) 0.7545(6) 0.6550(5)
H7 H -0.0603(7) 0.7609(6) 0.6561(5)
C7 C 0.0646(8) 0.7980(5) 0.5950(5)
H8 H 0.0213(8) 0.8311(5) 0.5548(5)
C8 C 0.1759(8) 0.7906(5) 0.5939(5)
C9 C 0.2381(6) 0.7416(5) 0.6533(5)
H9 H 0.3141(6) 0.7377(5) 0.6537(5)
C10 C 0.1884(6) 0.6980(4) 0.7128(5)
H10 H 0.2317(6) 0.6643(4) 0.7523(5)
C11 C 0.0903(6) 0.5205(5) 0.7332(5)
C12 C 0.0575(6) 0.5202(5) 0.6455(5)
H11 H -0.0004(6) 0.5548(5) 0.6224(5)
C13 C 0.1083(6) 0.4696(5) 0.5927(5)
H12 H 0.0849(6) 0.4704(5) 0.5340(5)
C14 C 0.1929(6) 0.4185(4) 0.6258(6)
C15 C 0.2293(7) 0.4175(5) 0.7118(6)
H13 H 0.2888(7) 0.3840(5) 0.7340(6)
C16 C 0.1761(7) 0.4678(5) 0.7646(5)
H14 H 0.1986(7) 0.4660(5) 0.8234(5)
Br3 Br 0.23796(9) 0.09402(7) 0.47762(7)
Br4 Br 0.28249(9) 0.60865(6) 0.48158(6)
C17 C 0.4715(6) 0.3824(6) 0.2215(5)
C18 C 0.4605(6) 0.2987(5) 0.2189(5)
C19 C 0.5314(7) 0.4304(6) 0.1576(5)
H15 H 0.5814(7) 0.4702(6) 0.1878(5)
H16 H 0.4779(7) 0.4593(6) 0.1175(5)
H17 H 0.5720(7) 0.3919(6) 0.1274(5)
C20 C 0.5023(7) 0.2450(6) 0.1520(5)
H18 H 0.4577(7) 0.1954(6) 0.1432(5)
H19 H 0.5778(7) 0.2296(6) 0.1707(5)
H20 H 0.4974(7) 0.2756(6) 0.0993(5)
C21 C 0.4052(6) 0.2520(5) 0.2821(5)
C22 C 0.3207(7) 0.1961(5) 0.2556(5)
H21 H 0.2971(7) 0.1901(5) 0.1972(5)
C23 C 0.2690(7) 0.1489(5) 0.3130(6)
H22 H 0.2126(7) 0.1116(5) 0.2930(6)
C24 C 0.3050(7) 0.1590(5) 0.3981(6)
C25 C 0.3907(7) 0.2117(5) 0.4276(5)
H23 H 0.4161(7) 0.2160(5) 0.4858(5)
C26 C 0.4394(6) 0.2587(5) 0.3700(5)
H24 H 0.4961(6) 0.2957(5) 0.3900(5)
C27 C 0.4241(7) 0.4368(5) 0.2840(5)
C28 C 0.3128(6) 0.4372(5) 0.2905(5)
H25 H 0.2650(6) 0.4026(5) 0.2551(5)
C29 C 0.2715(6) 0.4880(5) 0.3488(5)
H26 H 0.1962(6) 0.4875(5) 0.3522(5)
C30 C 0.3410(7) 0.5398(4) 0.4015(5)
C31 C 0.4509(7) 0.5413(5) 0.3960(5)
H27 H 0.4977(7) 0.5763(5) 0.4316(5)
C32 C 0.4933(7) 0.4905(5) 0.3371(5)
H28 H 0.5684(7) 0.4925(5) 0.3331(5)
loop_
_geom_bond_atom_site_label_1
_geom_bond_atom_site_label_2
_geom_bond_site_symmetry_1
_geom_bond_site_symmetry_2
Br1 C8 1_555 1_555
Br2 C14 1_555 1_555
C1 C2 1_555 1_555
C2 C4 1_555 1_555
C3 C1 1_555 1_555
H1 C3 1_555 1_555
H2 C3 1_555 1_555
H3 C3 1_555 1_555
C4 H4 1_555 1_555
H5 C4 1_555 1_555
H6 C4 1_555 1_555
C5 C1 1_555 1_555
C6 C5 1_555 1_555
H7 C6 1_555 1_555
C7 C6 1_555 1_555
H8 C7 1_555 1_555
C8 C7 1_555 1_555
C9 C8 1_555 1_555
H9 C9 1_555 1_555
C10 C5 1_555 1_555
H10 C10 1_555 1_555
C11 C2 1_555 1_555
C12 C11 1_555 1_555
H11 C12 1_555 1_555
C13 C12 1_555 1_555
H12 C13 1_555 1_555
C14 C13 1_555 1_555
C15 C14 1_555 1_555
H13 C15 1_555 1_555
C16 C11 1_555 1_555
H14 C16 1_555 1_555
Br3 C24 1_555 1_555
Br4 C30 1_555 1_555
C17 C18 1_555 1_555
C18 C20 1_555 1_555
C19 C17 1_555 1_555
H15 C19 1_555 1_555
H16 C19 1_555 1_555
H17 C19 1_555 1_555
C20 H18 1_555 1_555
H19 C20 1_555 1_555
H20 C20 1_555 1_555
C21 C18 1_555 1_555
C22 C21 1_555 1_555
H21 C22 1_555 1_555
C23 C22 1_555 1_555
H22 C23 1_555 1_555
C24 C23 1_555 1_555
C25 C24 1_555 1_555
H23 C25 1_555 1_555
C26 C21 1_555 1_555
H24 C26 1_555 1_555
C27 C17 1_555 1_555
C28 C27 1_555 1_555
H25 C28 1_555 1_555
C29 C28 1_555 1_555
H26 C29 1_555 1_555
C30 C29 1_555 1_555
C31 C30 1_555 1_555
H27 C31 1_555 1_555
C32 C27 1_555 1_555
H28 C32 1_555 1_555
C9 C10 1_555 1_555
C15 C16 1_555 1_555
C25 C26 1_555 1_555
C31 C32 1_555 1_555

#END
