
#######################################################################
#
#                 Cambridge Crystallographic Data Centre
#                                CCDC 
#
#######################################################################
#
# If this CIF has been generated from an entry in the Cambridge 
# Structural Database, then it will include bibliographic, chemical, 
# crystal, experimental, refinement or atomic coordinate data resulting 
# from the CCDC's data processing and validation procedures.
#
#######################################################################

data_SUDLOU
_chemical_formula_moiety         'C19 H19 Cl1 F1 N5 O1 S1,C1 H4 O1'
_chemical_name_systematic        
'1-(4-((3-chloro-4-fluorophenyl)amino)-7-ethoxyquinazolin-6-yl)-1,3-dimethylthiourea methanol solvate'
_symmetry_cell_setting           monoclinic
_symmetry_space_group_name_H-M   'C 2/c'
_symmetry_Int_Tables_number      15
_space_group_name_Hall           '-C 2yn'
loop_
_symmetry_equiv_pos_site_id
_symmetry_equiv_pos_as_xyz
1 x,y,z
2 -x,y,1/2-z
3 1/2+x,1/2+y,z
4 1/2-x,1/2+y,1/2-z
5 -x,-y,-z
6 x,-y,1/2+z
7 1/2-x,1/2-y,-z
8 1/2+x,1/2-y,1/2+z
_cell_length_a                   17.682(2)
_cell_length_b                   21.055(3)
_cell_length_c                   13.645(3)
_cell_angle_alpha                90
_cell_angle_beta                 121.1320(10)
_cell_angle_gamma                90
_cell_volume                     4348.34
_exptl_crystal_colour            colorless
_exptl_crystal_description       parallelepiped
_cell_formula_units_Z            8
loop_
_atom_site_label
_atom_site_type_symbol
_atom_site_fract_x
_atom_site_fract_y
_atom_site_fract_z
S1 S 0.13427(4) 0.16817(3) 0.93247(5)
Cl1 Cl -0.38562(7) -0.01058(6) 0.44066(11)
F1 F -0.3535(2) -0.14686(17) 0.4793(3)
O1 O 0.29557(9) 0.16108(7) 0.78308(12)
N1 N 0.12824(11) 0.28210(9) 0.84799(17)
H1 H 0.1363(15) 0.3087(12) 0.805(2)
N2 N 0.13930(10) 0.20084(7) 0.74571(14)
N3 N 0.19275(14) -0.05478(9) 0.69142(15)
N4 N 0.04096(15) -0.07820(9) 0.62471(16)
N5 N -0.05897(13) 0.00051(11) 0.60300(15)
H2 H -0.0708(18) 0.0395(13) 0.602(2)
C1 C 0.12484(17) 0.31059(12) 0.9427(2)
H3 H 0.0672 0.3019 0.9340
H4 H 0.1333 0.3566 0.9429
H5 H 0.1717 0.2925 1.0151
C2 C 0.13356(11) 0.21971(9) 0.83700(16)
C3 C 0.14993(12) 0.13560(9) 0.72801(15)
C4 C 0.23420(12) 0.11449(10) 0.75062(15)
C5 C 0.24689(13) 0.05174(10) 0.73828(16)
H6 H 0.3033 0.0374 0.7553
C6 C 0.17674(14) 0.00823(10) 0.70053(15)
C7 C 0.09234(13) 0.02971(9) 0.67313(15)
C8 C 0.08137(12) 0.09446(9) 0.68813(15)
H7 H 0.0249 0.1096 0.6700
C9 C 0.1244(2) -0.09269(11) 0.6548(2)
H8 H 0.1354 -0.1363 0.6488
C10 C 0.02439(15) -0.01738(10) 0.63300(16)
C11 C -0.13454(17) -0.03737(14) 0.56902(18)
C12 C -0.21335(17) -0.00505(17) 0.52749(19)
H9 H -0.2194 0.0398 0.5196
C13 C -0.2853(4) -0.0487(3) 0.4976(4)
C14 C -0.2797(5) -0.1131(4) 0.5117(5)
C15 C -0.2006(4) -0.1431(3) 0.5544(5)
H10 H -0.1934 -0.1877 0.5667
C16 C -0.1329(2) -0.10306(16) 0.5779(2)
H11 H -0.0773 -0.1226 0.6036
C17 C 0.13998(19) 0.24616(12) 0.6648(2)
H12 H 0.0859 0.2717 0.6304
H13 H 0.1430 0.2230 0.6046
H14 H 0.1915 0.2741 0.7054
C18 C 0.38345(13) 0.14491(13) 0.8107(2)
H15 H 0.3815 0.1209 0.7471
H16 H 0.4130 0.1184 0.8807
C19 C 0.43256(16) 0.20623(15) 0.8299(2)
H17 H 0.4944 0.1972 0.8551
H18 H 0.4299 0.2311 0.8888
H19 H 0.4055 0.2305 0.7583
O2 O 0.14463(19) 0.39474(11) 0.7496(3)
H23 H 0.200(3) 0.4111(19) 0.774(4)
C23 C 0.0760(2) 0.42733(19) 0.6674(4)
H24 H 0.0582 0.4601 0.7025
H25 H 0.0265 0.3983 0.6227
H26 H 0.0932 0.4474 0.6170
H20? H -0.2036 0.0394 0.5290
H21? H -0.0841 -0.1314 0.6095
C20? C -0.3045(6) -0.0174(5) 0.4832(8)
H22? H -0.3518 0.0117 0.4597
C21? C -0.3061(9) -0.0831(6) 0.4835(10)
C22? C -0.2350(9) -0.1178(5) 0.5207(9)
F2? F -0.3891(4) -0.1098(3) 0.4426(5)
Cl2? Cl -0.23995(17) -0.19979(9) 0.5261(2)
loop_
_geom_bond_atom_site_label_1
_geom_bond_atom_site_label_2
_geom_bond_site_symmetry_1
_geom_bond_site_symmetry_2
S1 C2 1_555 1_555
Cl1 C13 1_555 1_555
F1 C14 1_555 1_555
O1 C4 1_555 1_555
N1 H1 1_555 1_555
N2 C2 1_555 1_555
N3 C6 1_555 1_555
N4 C9 1_555 1_555
N5 H2 1_555 1_555
C1 N1 1_555 1_555
H3 C1 1_555 1_555
H4 C1 1_555 1_555
H5 C1 1_555 1_555
C2 N1 1_555 1_555
C3 N2 1_555 1_555
C4 C3 1_555 1_555
C5 C4 1_555 1_555
H6 C5 1_555 1_555
C6 C5 1_555 1_555
C7 C6 1_555 1_555
C8 C3 1_555 1_555
H7 C8 1_555 1_555
C9 N3 1_555 1_555
H8 C9 1_555 1_555
C10 N4 1_555 1_555
C11 N5 1_555 1_555
C12 C11 1_555 1_555
H9 C12 1_555 1_555
C13 C12 1_555 1_555
C14 C13 1_555 1_555
C15 C14 1_555 1_555
H10 C15 1_555 1_555
C16 C11 1_555 1_555
H11 C16 1_555 1_555
C17 N2 1_555 1_555
H12 C17 1_555 1_555
H13 C17 1_555 1_555
H14 C17 1_555 1_555
C18 O1 1_555 1_555
H15 C18 1_555 1_555
H16 C18 1_555 1_555
C19 C18 1_555 1_555
H17 C19 1_555 1_555
H18 C19 1_555 1_555
H19 C19 1_555 1_555
O2 H23 1_555 1_555
C23 O2 1_555 1_555
H24 C23 1_555 1_555
H25 C23 1_555 1_555
H26 C23 1_555 1_555
N5 C10 1_555 1_555
C7 C8 1_555 1_555
C7 C10 1_555 1_555
C15 C16 1_555 1_555

#END
