
#######################################################################
#
#                 Cambridge Crystallographic Data Centre
#                                CCDC 
#
#######################################################################
#
# If this CIF has been generated from an entry in the Cambridge 
# Structural Database, then it will include bibliographic, chemical, 
# crystal, experimental, refinement or atomic coordinate data resulting 
# from the CCDC's data processing and validation procedures.
#
#######################################################################

data_SUDRAM
_chemical_formula_moiety         'C25 H19 N1 O4'
_chemical_name_systematic        
'dimethyl 3,8-diphenylisoquinoline-6,7-dicarboxylate'
_symmetry_cell_setting           monoclinic
_symmetry_space_group_name_H-M   'P 21/a'
_symmetry_Int_Tables_number      14
_space_group_name_Hall           '-P 2yab'
loop_
_symmetry_equiv_pos_site_id
_symmetry_equiv_pos_as_xyz
1 x,y,z
2 1/2-x,1/2+y,-z
3 -x,-y,-z
4 1/2+x,1/2-y,z
_cell_length_a                   12.142(2)
_cell_length_b                   11.193(2)
_cell_length_c                   14.803(3)
_cell_angle_alpha                90
_cell_angle_beta                 104.802(3)
_cell_angle_gamma                90
_cell_volume                     1945.04
_exptl_crystal_colour            colorless
_exptl_crystal_description       Prism
_cell_formula_units_Z            4
loop_
_atom_site_label
_atom_site_type_symbol
_atom_site_fract_x
_atom_site_fract_y
_atom_site_fract_z
O1 O 0.50011(10) 0.47566(11) 0.17292(9)
O2 O 0.34988(11) 0.55311(12) 0.06688(9)
O3 O 0.39626(12) 0.26559(12) 0.05339(10)
O4 O 0.35679(11) 0.10711(11) 0.13251(9)
C1 C 0.10733(14) 0.49745(16) 0.31960(13)
H1 H 0.1157 0.5818 0.3232
C2 C 0.17137(14) 0.43372(15) 0.26780(12)
C3 C 0.25163(14) 0.49036(15) 0.22559(12)
C4 C 0.27463(15) 0.62125(15) 0.23946(13)
C5 C 0.36976(16) 0.66025(16) 0.30672(13)
H2 H 0.4201 0.6034 0.3434
C6 C 0.39207(16) 0.78126(16) 0.32095(13)
H3 H 0.4568 0.8070 0.3678
C7 C 0.32081(16) 0.86383(16) 0.26743(14)
H4 H 0.3367 0.9467 0.2768
C8 C 0.22544(18) 0.82659(18) 0.19959(17)
H5 H 0.1760 0.8838 0.1626
C9 C 0.20277(17) 0.70595(17) 0.18620(16)
H6 H 0.1373 0.6806 0.1400
C10 C 0.31056(14) 0.42082(15) 0.17672(12)
C11 C 0.39891(15) 0.48268(16) 0.13880(12)
C12 C 0.42492(18) 0.63525(19) 0.03622(17)
H7 H 0.4658 0.6840 0.0892
H8 H 0.3800 0.6873 -0.0127
H9 H 0.4798 0.5901 0.0114
C13 C 0.29328(14) 0.29491(15) 0.16872(12)
C14 C 0.35501(15) 0.22352(16) 0.11227(13)
C15 C 0.41145(17) 0.03140(17) 0.07742(14)
H10 H 0.3672 0.0327 0.0120
H11 H 0.4154 -0.0506 0.1012
H12 H 0.4886 0.0609 0.0818
C16 C 0.21719(15) 0.24053(16) 0.21032(12)
H13 H 0.2064 0.1565 0.2052
C17 C 0.15489(14) 0.30911(15) 0.26071(12)
C18 C 0.07793(15) 0.25692(16) 0.30639(12)
H14 H 0.0640 0.1733 0.3017
C19 C 0.02315(14) 0.32663(16) 0.35762(12)
C20 C -0.05435(15) 0.27608(16) 0.41103(12)
C21 C -0.05812(16) 0.15415(16) 0.42692(13)
H15 H -0.0106 0.1021 0.4030
C22 C -0.13006(17) 0.10693(18) 0.47709(14)
H16 H -0.1312 0.0232 0.4874
C23 C -0.20013(16) 0.18145(19) 0.51207(13)
H17 H -0.2497 0.1494 0.5463
C24 C -0.19724(16) 0.30318(19) 0.49660(13)
H18 H -0.2456 0.3547 0.5201
C25 C -0.12506(15) 0.35091(17) 0.44736(13)
H19 H -0.1234 0.4348 0.4381
N1 N 0.03708(12) 0.44808(13) 0.36310(11)
loop_
_geom_bond_atom_site_label_1
_geom_bond_atom_site_label_2
_geom_bond_site_symmetry_1
_geom_bond_site_symmetry_2
O1 C11 1_555 1_555
O2 C11 1_555 1_555
O3 C14 1_555 1_555
O4 C14 1_555 1_555
C1 H1 1_555 1_555
C2 C1 1_555 1_555
C3 C2 1_555 1_555
C4 C3 1_555 1_555
C5 C4 1_555 1_555
H2 C5 1_555 1_555
C6 C5 1_555 1_555
H3 C6 1_555 1_555
C7 C6 1_555 1_555
H4 C7 1_555 1_555
C8 C7 1_555 1_555
H5 C8 1_555 1_555
C9 C4 1_555 1_555
H6 C9 1_555 1_555
C10 C3 1_555 1_555
C11 C10 1_555 1_555
C12 O2 1_555 1_555
H7 C12 1_555 1_555
H8 C12 1_555 1_555
H9 C12 1_555 1_555
C13 C10 1_555 1_555
C14 C13 1_555 1_555
C15 O4 1_555 1_555
H10 C15 1_555 1_555
H11 C15 1_555 1_555
H12 C15 1_555 1_555
C16 C13 1_555 1_555
H13 C16 1_555 1_555
C17 C2 1_555 1_555
C18 C17 1_555 1_555
H14 C18 1_555 1_555
C19 C18 1_555 1_555
C20 C19 1_555 1_555
C21 C20 1_555 1_555
H15 C21 1_555 1_555
C22 C21 1_555 1_555
H16 C22 1_555 1_555
C23 C22 1_555 1_555
H17 C23 1_555 1_555
C24 C23 1_555 1_555
H18 C24 1_555 1_555
C25 C20 1_555 1_555
H19 C25 1_555 1_555
N1 C1 1_555 1_555
C8 C9 1_555 1_555
C16 C17 1_555 1_555
C19 N1 1_555 1_555
C24 C25 1_555 1_555

#END
