
#######################################################################
#
#                 Cambridge Crystallographic Data Centre
#                                CCDC 
#
#######################################################################
#
# If this CIF has been generated from an entry in the Cambridge 
# Structural Database, then it will include bibliographic, chemical, 
# crystal, experimental, refinement or atomic coordinate data resulting 
# from the CCDC's data processing and validation procedures.
#
#######################################################################

data_SUFTOE
_chemical_formula_moiety         'C31 H28 O4 Si1'
_chemical_name_systematic        
3-(2-Methoxyphenyl)-6-(trimethylsilyl)-1,5,12a,12b-tetrahydro-3H-4-oxacyclopenta[3,4]azuleno[8,1-bc]fluorene-7,12-dione
_symmetry_cell_setting           monoclinic
_symmetry_space_group_name_H-M   'P 21/n'
_symmetry_Int_Tables_number      14
_space_group_name_Hall           '-P 2yn'
loop_
_symmetry_equiv_pos_site_id
_symmetry_equiv_pos_as_xyz
1 x,y,z
2 1/2-x,1/2+y,1/2-z
3 -x,-y,-z
4 1/2+x,1/2-y,1/2+z
_cell_length_a                   14.0146(7)
_cell_length_b                   10.5314(5)
_cell_length_c                   16.6752(8)
_cell_angle_alpha                90
_cell_angle_beta                 100.775(3)
_cell_angle_gamma                90
_cell_volume                     2417.76
_exptl_crystal_colour            yellow
_exptl_crystal_description       Prism
_cell_formula_units_Z            4
_exptl_crystal_recrystallization_method cyclohexane/dichloromethane
loop_
_atom_site_label
_atom_site_type_symbol
_atom_site_fract_x
_atom_site_fract_y
_atom_site_fract_z
Si1 Si 0.66457(4) 0.57161(6) 0.77912(3)
O1 O 0.47244(11) 0.47285(17) 0.81576(9)
O2 O 0.75547(10) 0.53872(14) 0.51972(9)
O3 O 0.41177(12) 0.16838(18) 0.46381(11)
O4 O 0.95409(11) 0.26536(15) 0.50500(9)
C1 C 0.38740(14) 0.26678(19) 0.65237(13)
C2 C 0.32033(15) 0.1765(2) 0.61661(15)
H1 H 0.3218 0.1441 0.5637
C3 C 0.25088(16) 0.1351(2) 0.66048(16)
H2 H 0.2055 0.0721 0.6372
C4 C 0.24578(16) 0.1824(2) 0.73659(15)
H3 H 0.1977 0.1517 0.7650
C5 C 0.31111(15) 0.2755(2) 0.77195(14)
H4 H 0.3077 0.3103 0.8239
C6 C 0.38111(14) 0.3154(2) 0.72886(13)
C7 C 0.46033(14) 0.4088(2) 0.75421(13)
C8 C 0.51875(14) 0.41022(19) 0.68723(12)
C9 C 0.47170(14) 0.32799(19) 0.62511(12)
C10 C 0.50966(14) 0.31933(19) 0.55397(12)
C11 C 0.59004(14) 0.39412(19) 0.54561(12)
C12 C 0.63784(14) 0.47284(19) 0.60773(12)
C13 C 0.60339(14) 0.48041(19) 0.68269(12)
C14 C 0.72750(15) 0.5480(2) 0.59700(12)
H5 H 0.7158 0.6386 0.6076
H6 H 0.7828 0.5195 0.6392
C15 C 0.80114(15) 0.4207(2) 0.50716(12)
H7 H 0.8414 0.3916 0.5599
C16 C 0.72293(15) 0.3235(2) 0.47782(12)
C17 C 0.72776(17) 0.1993(2) 0.46464(14)
H8 H 0.7868 0.1527 0.4728
C18 C 0.62966(17) 0.1406(2) 0.43542(15)
H9 H 0.6145 0.0774 0.4751
H10 H 0.6267 0.0986 0.3819
C19 C 0.55832(16) 0.2547(2) 0.42810(13)
H11 H 0.5276 0.2704 0.3698
C20 C 0.48203(15) 0.2376(2) 0.48047(13)
C21 C 0.61970(15) 0.3690(2) 0.46403(12)
H12 H 0.6091 0.4447 0.4272
C22 C 0.86575(14) 0.4410(2) 0.44527(12)
C23 C 0.94449(15) 0.3579(2) 0.44612(12)
C24 C 1.00569(15) 0.3724(2) 0.39000(13)
H13 H 1.0595 0.3171 0.3913
C25 C 0.98739(16) 0.4681(2) 0.33213(14)
H14 H 1.0287 0.4778 0.2934
C26 C 0.90970(16) 0.5496(2) 0.33015(14)
H15 H 0.8976 0.6148 0.2901
C27 C 0.84911(15) 0.5359(2) 0.38711(13)
H16 H 0.7960 0.5923 0.3859
C28 C 1.03467(17) 0.1817(2) 0.51142(15)
H17 H 1.0362 0.1255 0.5585
H18 H 1.0949 0.2312 0.5186
H19 H 1.0285 0.1306 0.4616
C29 C 0.5876(2) 0.7111(3) 0.79245(16)
H20 H 0.6013 0.7805 0.7571
H21 H 0.6020 0.7389 0.8495
H22 H 0.5189 0.6874 0.7778
C30 C 0.68642(17) 0.4574(2) 0.86609(14)
H23 H 0.7552 0.4335 0.8778
H24 H 0.6466 0.3814 0.8517
H25 H 0.6689 0.4973 0.9144
C31 C 0.7881(2) 0.6376(3) 0.77855(16)
H26 H 0.8325 0.5683 0.7717
H27 H 0.8119 0.6813 0.8303
H28 H 0.7847 0.6979 0.7333
loop_
_geom_bond_atom_site_label_1
_geom_bond_atom_site_label_2
_geom_bond_site_symmetry_1
_geom_bond_site_symmetry_2
Si1 C13 1_555 1_555
O1 C7 1_555 1_555
O2 C14 1_555 1_555
O3 C20 1_555 1_555
O4 C23 1_555 1_555
C1 C2 1_555 1_555
C2 H1 1_555 1_555
C3 C2 1_555 1_555
H2 C3 1_555 1_555
C4 C3 1_555 1_555
H3 C4 1_555 1_555
C5 C4 1_555 1_555
H4 C5 1_555 1_555
C6 C1 1_555 1_555
C7 C6 1_555 1_555
C8 C7 1_555 1_555
C9 C1 1_555 1_555
C10 C9 1_555 1_555
C11 C10 1_555 1_555
C12 C11 1_555 1_555
C13 C8 1_555 1_555
C14 C12 1_555 1_555
H5 C14 1_555 1_555
H6 C14 1_555 1_555
C15 O2 1_555 1_555
H7 C15 1_555 1_555
C16 C15 1_555 1_555
C17 C16 1_555 1_555
H8 C17 1_555 1_555
C18 C17 1_555 1_555
H9 C18 1_555 1_555
H10 C18 1_555 1_555
C19 C18 1_555 1_555
H11 C19 1_555 1_555
C20 C10 1_555 1_555
C21 C11 1_555 1_555
H12 C21 1_555 1_555
C22 C15 1_555 1_555
C23 C22 1_555 1_555
C24 C23 1_555 1_555
H13 C24 1_555 1_555
C25 C24 1_555 1_555
H14 C25 1_555 1_555
C26 C25 1_555 1_555
H15 C26 1_555 1_555
C27 C22 1_555 1_555
H16 C27 1_555 1_555
C28 O4 1_555 1_555
H17 C28 1_555 1_555
H18 C28 1_555 1_555
H19 C28 1_555 1_555
C29 Si1 1_555 1_555
H20 C29 1_555 1_555
H21 C29 1_555 1_555
H22 C29 1_555 1_555
C30 Si1 1_555 1_555
H23 C30 1_555 1_555
H24 C30 1_555 1_555
H25 C30 1_555 1_555
C31 Si1 1_555 1_555
H26 C31 1_555 1_555
H27 C31 1_555 1_555
H28 C31 1_555 1_555
C5 C6 1_555 1_555
C8 C9 1_555 1_555
C12 C13 1_555 1_555
C16 C21 1_555 1_555
C19 C20 1_555 1_555
C19 C21 1_555 1_555
C26 C27 1_555 1_555

#END
