
#######################################################################
#
#                 Cambridge Crystallographic Data Centre
#                                CCDC 
#
#######################################################################
#
# If this CIF has been generated from an entry in the Cambridge 
# Structural Database, then it will include bibliographic, chemical, 
# crystal, experimental, refinement or atomic coordinate data resulting 
# from the CCDC's data processing and validation procedures.
#
#######################################################################

data_SUFTEU
_chemical_formula_moiety         'C26 H25 Br1 N2 O3 S1'
_chemical_name_systematic        
't-Butyl (R)-(1-benzyl-5-bromo-2-oxo-3-(phenylsulfanyl)-2,3-dihydro-1H-indol-3-yl)carbamate'
_symmetry_cell_setting           monoclinic
_symmetry_space_group_name_H-M   'P 21'
_symmetry_Int_Tables_number      4
_space_group_name_Hall           'P 2yb'
loop_
_symmetry_equiv_pos_site_id
_symmetry_equiv_pos_as_xyz
1 x,y,z
2 -x,1/2+y,-z
_cell_length_a                   10.8756(8)
_cell_length_b                   10.9785(8)
_cell_length_c                   21.0666(15)
_cell_angle_alpha                90
_cell_angle_beta                 102.1760(10)
_cell_angle_gamma                90
_cell_volume                     2458.72
_exptl_crystal_colour            colorless
_exptl_crystal_description       block
_cell_formula_units_Z            4
loop_
_atom_site_label
_atom_site_type_symbol
_atom_site_fract_x
_atom_site_fract_y
_atom_site_fract_z
Br1 Br 0.01155(4) 0.71818(4) 0.18114(2)
S1 S -0.19860(7) 0.22516(11) 0.14598(4)
O1 O 0.0941(2) 0.2267(3) 0.33355(11)
O2 O -0.0713(2) 0.2540(3) 0.38297(11)
O3 O 0.0143(2) 0.0237(3) 0.22284(13)
N1 N -0.1075(2) 0.2338(3) 0.27649(13)
H1 H -0.189(2) 0.257(4) 0.2738(18)
N2 N 0.1234(3) 0.1804(3) 0.18725(14)
C1 C 0.0524(4) 0.5505(4) 0.18216(17)
C2 C 0.1628(4) 0.5136(4) 0.16457(17)
H2 H 0.2173 0.5729 0.1526
C3 C 0.1945(3) 0.3907(4) 0.16431(17)
H3 H 0.2694 0.3652 0.1518
C4 C 0.1141(3) 0.3071(4) 0.18270(16)
C5 C 0.0042(3) 0.3455(4) 0.20154(17)
C6 C -0.0284(3) 0.4655(4) 0.20117(17)
H4 H -0.1037 0.4905 0.2135
C7 C -0.0660(3) 0.2343(4) 0.21604(15)
C8 C 0.0266(3) 0.1299(4) 0.21085(17)
C9 C 0.2168(3) 0.1027(4) 0.16686(18)
H5 H 0.2435 0.0385 0.1999
H6 H 0.2918 0.1521 0.1643
C10 C 0.1666(3) 0.0434(4) 0.10152(17)
C11 C 0.0881(4) 0.1070(4) 0.05226(18)
H7 H 0.0657 0.1888 0.0593
C12 C 0.0425(4) 0.0523(5) -0.00678(19)
H8 H -0.0118 0.0964 -0.0402
C13 C 0.0749(4) -0.0657(4) -0.0179(2)
H9 H 0.0431 -0.1030 -0.0587
C14 C 0.1536(4) -0.1297(4) 0.03044(19)
H10 H 0.1775 -0.2107 0.0228
C15 C 0.1981(3) -0.0754(4) 0.09047(19)
H11 H 0.2506 -0.1203 0.1242
C16 C -0.2770(3) 0.0857(4) 0.15563(17)
C17 C -0.2384(4) -0.0238(4) 0.13369(17)
H12 H -0.1654 -0.0269 0.1157
C18 C -0.3068(4) -0.1287(4) 0.13810(19)
H13 H -0.2796 -0.2044 0.1241
C19 C -0.4148(4) -0.1232(4) 0.1630(2)
H14 H -0.4622 -0.1951 0.1652
C20 C -0.4537(4) -0.0151(4) 0.1844(2)
H15 H -0.5279 -0.0123 0.2015
C21 C -0.3846(3) 0.0911(4) 0.18134(19)
H16 H -0.4108 0.1662 0.1966
C22 C -0.0170(3) 0.2376(4) 0.33219(16)
C23 C 0.0064(4) 0.2564(4) 0.44954(17)
C24 C 0.0646(4) 0.1328(5) 0.4654(2)
H17 H -0.0017 0.0709 0.4596
H18 H 0.1116 0.1320 0.5106
H19 H 0.1219 0.1151 0.4364
C25 C 0.1023(4) 0.3590(5) 0.4566(2)
H20 H 0.1703 0.3362 0.4349
H21 H 0.1372 0.3737 0.5028
H22 H 0.0613 0.4333 0.4368
C26 C -0.0920(4) 0.2826(5) 0.48976(19)
H23 H -0.1361 0.3585 0.4747
H24 H -0.0505 0.2908 0.5356
H25 H -0.1526 0.2154 0.4848
Br2 Br 0.22965(5) 0.86389(4) 0.31790(3)
S2 S 0.72204(9) 0.56722(10) 0.35552(4)
N3 N 0.6229(3) 0.5709(3) 0.22678(14)
H26 H 0.688(3) 0.620(3) 0.229(2)
N4 N 0.4656(3) 0.3711(3) 0.31063(13)
O4 O 0.4690(2) 0.4568(3) 0.16649(12)
O5 O 0.6000(2) 0.5730(3) 0.11999(11)
O6 O 0.6504(2) 0.3178(3) 0.28244(12)
C27 C 0.2992(4) 0.7071(4) 0.31519(17)
C28 C 0.2343(4) 0.6079(4) 0.33177(19)
H27 H 0.1558 0.6199 0.3438
C29 C 0.2824(3) 0.4910(4) 0.33108(17)
H28 H 0.2376 0.4221 0.3415
C30 C 0.3993(3) 0.4789(4) 0.31450(16)
C31 C 0.4657(3) 0.5791(4) 0.29871(15)
C32 C 0.4151(4) 0.6939(4) 0.29740(17)
H29 H 0.4577 0.7624 0.2847
C33 C 0.5896(3) 0.5341(4) 0.28674(16)
C34 C 0.5755(3) 0.3945(4) 0.29145(16)
C35 C 0.4222(3) 0.2494(3) 0.32134(17)
H30 H 0.4605 0.1911 0.2953
H31 H 0.3299 0.2461 0.3054
C36 C 0.4530(3) 0.2088(4) 0.39175(15)
C37 C 0.5572(4) 0.2508(4) 0.43518(17)
H32 H 0.6089 0.3120 0.4225
C38 C 0.5863(4) 0.2028(5) 0.49810(18)
H33 H 0.6579 0.2319 0.5282
C39 C 0.5132(4) 0.1150(4) 0.51657(18)
H34 H 0.5344 0.0821 0.5592
C40 C 0.4078(4) 0.0736(4) 0.4732(2)
H35 H 0.3560 0.0126 0.4860
C41 C 0.3784(4) 0.1215(4) 0.41118(19)
H36 H 0.3056 0.0937 0.3816
C42 C 0.7295(3) 0.7293(4) 0.35380(16)
C43 C 0.6608(4) 0.8001(4) 0.38805(18)
H37 H 0.6081 0.7622 0.4129
C44 C 0.6682(4) 0.9267(4) 0.38637(19)
H38 H 0.6192 0.9752 0.4091
C45 C 0.7473(4) 0.9810(5) 0.3514(2)
H39 H 0.7527 1.0673 0.3502
C46 C 0.8187(4) 0.9115(4) 0.3182(2)
H40 H 0.8727 0.9501 0.2943
C47 C 0.8118(4) 0.7861(4) 0.31973(18)
H41 H 0.8625 0.7383 0.2978
C48 C 0.5559(4) 0.5270(4) 0.16936(18)
C49 C 0.5344(4) 0.5458(4) 0.05196(17)
C50 C 0.6146(4) 0.6123(4) 0.01262(19)
H42 H 0.6168 0.6992 0.0233
H43 H 0.5788 0.6013 -0.0338
H44 H 0.7003 0.5794 0.0228
C51 C 0.5366(4) 0.4101(4) 0.0391(2)
H45 H 0.6232 0.3800 0.0516
H46 H 0.5042 0.3946 -0.0072
H47 H 0.4839 0.3679 0.0645
C52 C 0.4021(4) 0.5974(5) 0.0400(2)
H48 H 0.3515 0.5501 0.0646
H49 H 0.3639 0.5927 -0.0064
H50 H 0.4054 0.6826 0.0542
loop_
_geom_bond_atom_site_label_1
_geom_bond_atom_site_label_2
_geom_bond_site_symmetry_1
_geom_bond_site_symmetry_2
Br1 C1 1_555 1_555
S1 C7 1_555 1_555
O1 C22 1_555 1_555
O2 C22 1_555 1_555
O3 C8 1_555 1_555
N1 H1 1_555 1_555
N2 C4 1_555 1_555
C1 C2 1_555 1_555
C2 H2 1_555 1_555
C3 C2 1_555 1_555
H3 C3 1_555 1_555
C4 C3 1_555 1_555
C5 C4 1_555 1_555
C6 C1 1_555 1_555
H4 C6 1_555 1_555
C7 N1 1_555 1_555
C8 N2 1_555 1_555
C9 N2 1_555 1_555
H5 C9 1_555 1_555
H6 C9 1_555 1_555
C10 C9 1_555 1_555
C11 C10 1_555 1_555
H7 C11 1_555 1_555
C12 C11 1_555 1_555
H8 C12 1_555 1_555
C13 C12 1_555 1_555
H9 C13 1_555 1_555
C14 C13 1_555 1_555
H10 C14 1_555 1_555
C15 C10 1_555 1_555
H11 C15 1_555 1_555
C16 S1 1_555 1_555
C17 C16 1_555 1_555
H12 C17 1_555 1_555
C18 C17 1_555 1_555
H13 C18 1_555 1_555
C19 C18 1_555 1_555
H14 C19 1_555 1_555
C20 C19 1_555 1_555
H15 C20 1_555 1_555
C21 C16 1_555 1_555
H16 C21 1_555 1_555
C22 N1 1_555 1_555
C23 O2 1_555 1_555
C24 C23 1_555 1_555
H17 C24 1_555 1_555
H18 C24 1_555 1_555
H19 C24 1_555 1_555
C25 C23 1_555 1_555
H20 C25 1_555 1_555
H21 C25 1_555 1_555
H22 C25 1_555 1_555
C26 C23 1_555 1_555
H23 C26 1_555 1_555
H24 C26 1_555 1_555
H25 C26 1_555 1_555
Br2 C27 1_555 1_555
S2 C33 1_555 1_555
N3 H26 1_555 1_555
N4 C30 1_555 1_555
O4 C48 1_555 1_555
O5 C48 1_555 1_555
O6 C34 1_555 1_555
C27 C28 1_555 1_555
C28 H27 1_555 1_555
C29 C28 1_555 1_555
H28 C29 1_555 1_555
C30 C29 1_555 1_555
C31 C30 1_555 1_555
C32 C27 1_555 1_555
H29 C32 1_555 1_555
C33 N3 1_555 1_555
C34 N4 1_555 1_555
C35 N4 1_555 1_555
H30 C35 1_555 1_555
H31 C35 1_555 1_555
C36 C35 1_555 1_555
C37 C36 1_555 1_555
H32 C37 1_555 1_555
C38 C37 1_555 1_555
H33 C38 1_555 1_555
C39 C38 1_555 1_555
H34 C39 1_555 1_555
C40 C39 1_555 1_555
H35 C40 1_555 1_555
C41 C36 1_555 1_555
H36 C41 1_555 1_555
C42 S2 1_555 1_555
C43 C42 1_555 1_555
H37 C43 1_555 1_555
C44 C43 1_555 1_555
H38 C44 1_555 1_555
C45 C44 1_555 1_555
H39 C45 1_555 1_555
C46 C45 1_555 1_555
H40 C46 1_555 1_555
C47 C42 1_555 1_555
H41 C47 1_555 1_555
C48 N3 1_555 1_555
C49 O5 1_555 1_555
C50 C49 1_555 1_555
H42 C50 1_555 1_555
H43 C50 1_555 1_555
H44 C50 1_555 1_555
C51 C49 1_555 1_555
H45 C51 1_555 1_555
H46 C51 1_555 1_555
H47 C51 1_555 1_555
C52 C49 1_555 1_555
H48 C52 1_555 1_555
H49 C52 1_555 1_555
H50 C52 1_555 1_555
C5 C6 1_555 1_555
C5 C7 1_555 1_555
C7 C8 1_555 1_555
C14 C15 1_555 1_555
C20 C21 1_555 1_555
C31 C32 1_555 1_555
C31 C33 1_555 1_555
C33 C34 1_555 1_555
C40 C41 1_555 1_555
C46 C47 1_555 1_555

#END
