
#######################################################################
#
#                 Cambridge Crystallographic Data Centre
#                                CCDC 
#
#######################################################################
#
# If this CIF has been generated from an entry in the Cambridge 
# Structural Database, then it will include bibliographic, chemical, 
# crystal, experimental, refinement or atomic coordinate data resulting 
# from the CCDC's data processing and validation procedures.
#
#######################################################################

data_SUFVIA
_chemical_formula_moiety         'C42 H59 F3 O10'
_chemical_name_systematic        
'2-(12-Ethyl-1-hydroxy-8,10-dimethyl-3,11-dioxo-4,13-dioxabicyclo[8.2.1]tridec-7-en-5-yl)-9-hydroxy-4,6,8,10-tetramethyl-11-oxotridec-6-en-3-yl 3,3,3-trifluoro-2-methoxy-2-phenylpropanoate'
_symmetry_cell_setting           monoclinic
_symmetry_space_group_name_H-M   'P 21'
_symmetry_Int_Tables_number      4
_space_group_name_Hall           'P 2yb'
loop_
_symmetry_equiv_pos_site_id
_symmetry_equiv_pos_as_xyz
1 x,y,z
2 -x,1/2+y,-z
_cell_length_a                   13.4566(3)
_cell_length_b                   8.18811(15)
_cell_length_c                   19.1862(4)
_cell_angle_alpha                90
_cell_angle_beta                 100.6290(7)
_cell_angle_gamma                90
_cell_volume                     2077.74
_exptl_crystal_colour            colorless
_exptl_crystal_description       needle
_cell_formula_units_Z            2
loop_
_atom_site_label
_atom_site_type_symbol
_atom_site_fract_x
_atom_site_fract_y
_atom_site_fract_z
F1 F 0.03620(7) 0.51823(14) 0.46385(5)
F2 F -0.08235(7) 0.36836(15) 0.40723(6)
F3 F -0.00085(7) 0.53064(14) 0.34964(5)
O1 O 0.16186(8) 0.51198(16) 0.18990(6)
O2 O 0.29800(8) 0.59248(15) 0.26907(5)
O3 O 0.29523(9) 0.67726(16) -0.04322(6)
O4 O 0.40181(8) 0.62420(15) 0.13607(6)
O5 O 0.42019(8) 0.36364(16) 0.09000(6)
O6 O 0.20514(8) 0.50483(15) 0.41386(5)
O7 O 0.37233(8) 0.87116(16) 0.85742(5)
O8 O 0.25351(9) 1.22466(17) 0.83358(6)
O9 O 0.24493(9) 0.27793(15) 0.35774(6)
O10 O 0.10178(9) 0.21771(16) 0.46592(6)
C1 C 0.25163(12) 0.5050(3) 0.21341(8)
C2 C 0.32508(12) 0.3982(3) 0.18385(8)
C3 C 0.35502(12) 0.4706(2) 0.11666(8)
C4 C 0.26721(11) 0.5094(3) 0.05590(8)
C5 C 0.31407(12) 0.6433(3) 0.01951(8)
C6 C 0.39284(12) 0.7299(3) 0.07459(8)
C7 C 0.35584(13) 0.9005(3) 0.09427(9)
C8 C 0.26778(12) 0.8958(3) 0.13356(9)
C9 C 0.28707(12) 0.8857(3) 0.20366(8)
C10 C 0.21264(13) 0.8613(3) 0.25253(8)
C11 C 0.23440(12) 0.7075(3) 0.29916(8)
C12 C 0.28946(12) 0.7382(3) 0.37537(8)
C13 C 0.30551(12) 0.5779(3) 0.41685(8)
C14 C 0.35478(12) 0.5890(3) 0.49578(8)
C15 C 0.30709(12) 0.7202(3) 0.53731(8)
C16 C 0.36601(12) 0.7471(3) 0.61173(8)
C17 C 0.32451(11) 0.7211(3) 0.66848(8)
C18 C 0.37480(12) 0.7376(3) 0.74535(8)
C19 C 0.31209(12) 0.8421(2) 0.78810(8)
C20 C 0.28000(12) 1.0092(3) 0.75452(8)
C21 C 0.22192(12) 1.0997(3) 0.80360(8)
C22 C 0.12067(13) 1.0306(3) 0.81324(9)
C23 C 0.11947(16) 0.9777(3) 0.88912(10)
C24 C 0.21956(13) 0.3696(3) 0.00868(9)
C25 C 0.11269(14) 0.4125(3) -0.02814(10)
C26 C 0.49407(13) 0.7437(3) 0.05046(9)
C27 C 0.16277(13) 0.8999(3) 0.08868(9)
C28 C 0.38983(13) 0.8287(3) 0.37876(9)
C29 C 0.35459(13) 0.4231(3) 0.53172(9)
C30 C 0.47291(13) 0.8068(3) 0.61430(9)
C31 C 0.39327(14) 0.5685(3) 0.77936(9)
C32 C 0.36715(14) 1.1107(3) 0.73752(9)
C33 C 0.18746(11) 0.3568(3) 0.38497(8)
C34 C 0.08438(12) 0.2902(3) 0.39750(8)
C35 C 0.00971(12) 0.4294(3) 0.40538(9)
C36 C 0.16844(14) 0.0796(3) 0.47588(10)
C37 C 0.03399(12) 0.1774(3) 0.33769(9)
C38 C 0.04215(12) 0.2093(3) 0.26762(9)
C39 C -0.01271(13) 0.1161(3) 0.21321(9)
C40 C -0.07449(13) -0.0093(3) 0.22782(9)
C41 C -0.08133(14) -0.0425(3) 0.29784(10)
C42 C -0.02801(13) 0.0506(3) 0.35269(9)
H1 H 0.2942 0.2894 0.1726
H2 H 0.3867 0.3833 0.2204
H3 H 0.2124 0.5600 0.0775
H4 H 0.4778 0.3676 0.1158
H5 H 0.4130 0.9582 0.1241
H6 H 0.3356 0.9647 0.0502
H7 H 0.3496 0.8153 0.8877
H8 H 0.3561 0.8949 0.2258
H9 H 0.1437 0.8529 0.2238
H10 H 0.2143 0.9582 0.2836
H11 H 0.1685 0.6527 0.3011
H12 H 0.2448 0.8088 0.3989
H13 H 0.3469 0.5031 0.3925
H14 H 0.4235 0.6165 0.4960
H15 H 0.3032 0.8246 0.5109
H16 H 0.2372 0.6868 0.5402
H17 H 0.2556 0.6886 0.6597
H18 H 0.4418 0.7919 0.7472
H19 H 0.2501 0.7799 0.7937
H20 H 0.2322 0.9886 0.7089
H21 H 0.1039 0.9355 0.7814
H22 H 0.0677 1.1144 0.7991
H23 H 0.1497 1.0635 0.9219
H24 H 0.1584 0.8766 0.8994
H25 H 0.0495 0.9590 0.8949
H26 H 0.2615 0.3457 -0.0274
H27 H 0.2177 0.2702 0.0378
H28 H 0.1143 0.5122 -0.0562
H29 H 0.0702 0.4305 0.0075
H30 H 0.0848 0.3226 -0.0594
H31 H 0.5134 0.6365 0.0345
H32 H 0.5457 0.7814 0.0901
H33 H 0.4883 0.8219 0.0113
H34 H 0.1623 0.8381 0.0449
H35 H 0.1434 1.0134 0.0769
H36 H 0.1146 0.8510 0.1152
H37 H 0.4368 0.7600 0.3584
H38 H 0.4190 0.8534 0.4283
H39 H 0.3779 0.9308 0.3518
H40 H 0.3948 0.4292 0.5797
H41 H 0.3839 0.3411 0.5042
H42 H 0.2850 0.3923 0.5343
H43 H 0.5153 0.7159 0.6040
H44 H 0.4998 0.8500 0.6616
H45 H 0.4730 0.8932 0.5790
H46 H 0.4391 0.5064 0.7551
H47 H 0.3288 0.5102 0.7752
H48 H 0.4237 0.5806 0.8296
H49 H 0.4196 1.1211 0.7801
H50 H 0.3424 1.2194 0.7215
H51 H 0.3956 1.0569 0.7000
H52 H 0.2318 0.1076 0.4604
H53 H 0.1364 -0.0126 0.4479
H54 H 0.1827 0.0496 0.5262
H55 H 0.0850 0.2944 0.2571
H56 H -0.0077 0.1388 0.1654
H57 H -0.1120 -0.0722 0.1903
H58 H -0.1228 -0.1297 0.3082
H59 H -0.0337 0.0281 0.4004
loop_
_geom_bond_atom_site_label_1
_geom_bond_atom_site_label_2
_geom_bond_site_symmetry_1
_geom_bond_site_symmetry_2
F1 C35 1_555 1_555
F2 C35 1_555 1_555
F3 C35 1_555 1_555
O1 C1 1_555 1_555
O2 C1 1_555 1_555
O3 C5 1_555 1_555
O4 C3 1_555 1_555
O5 C3 1_555 1_555
O6 C13 1_555 1_555
O7 C19 1_555 1_555
O8 C21 1_555 1_555
O9 C33 1_555 1_555
O10 C34 1_555 1_555
C1 C2 1_555 1_555
C2 C3 1_555 1_555
C3 C4 1_555 1_555
C4 C5 1_555 1_555
C5 C6 1_555 1_555
C6 O4 1_555 1_555
C7 C6 1_555 1_555
C8 C7 1_555 1_555
C9 C8 1_555 1_555
C10 C9 1_555 1_555
C11 O2 1_555 1_555
C12 C11 1_555 1_555
C13 C12 1_555 1_555
C14 C13 1_555 1_555
C15 C14 1_555 1_555
C16 C15 1_555 1_555
C17 C16 1_555 1_555
C18 C17 1_555 1_555
C19 C18 1_555 1_555
C20 C19 1_555 1_555
C21 C20 1_555 1_555
C22 C21 1_555 1_555
C23 C22 1_555 1_555
C24 C4 1_555 1_555
C25 C24 1_555 1_555
C26 C6 1_555 1_555
C27 C8 1_555 1_555
C28 C12 1_555 1_555
C29 C14 1_555 1_555
C30 C16 1_555 1_555
C31 C18 1_555 1_555
C32 C20 1_555 1_555
C33 O6 1_555 1_555
C34 C33 1_555 1_555
C35 C34 1_555 1_555
C36 O10 1_555 1_555
C37 C34 1_555 1_555
C38 C37 1_555 1_555
C39 C38 1_555 1_555
C40 C39 1_555 1_555
C41 C40 1_555 1_555
C42 C37 1_555 1_555
H1 C2 1_555 1_555
H2 C2 1_555 1_555
H3 C4 1_555 1_555
H4 O5 1_555 1_555
H5 C7 1_555 1_555
H6 C7 1_555 1_555
H7 O7 1_555 1_555
H8 C9 1_555 1_555
H9 C10 1_555 1_555
H10 C10 1_555 1_555
H11 C11 1_555 1_555
H12 C12 1_555 1_555
H13 C13 1_555 1_555
H14 C14 1_555 1_555
H15 C15 1_555 1_555
H16 C15 1_555 1_555
H17 C17 1_555 1_555
H18 C18 1_555 1_555
H19 C19 1_555 1_555
H20 C20 1_555 1_555
H21 C22 1_555 1_555
H22 C22 1_555 1_555
H23 C23 1_555 1_555
H24 C23 1_555 1_555
H25 C23 1_555 1_555
H26 C24 1_555 1_555
H27 C24 1_555 1_555
H28 C25 1_555 1_555
H29 C25 1_555 1_555
H30 C25 1_555 1_555
H31 C26 1_555 1_555
H32 C26 1_555 1_555
H33 C26 1_555 1_555
H34 C27 1_555 1_555
H35 C27 1_555 1_555
H36 C27 1_555 1_555
H37 C28 1_555 1_555
H38 C28 1_555 1_555
H39 C28 1_555 1_555
H40 C29 1_555 1_555
H41 C29 1_555 1_555
H42 C29 1_555 1_555
H43 C30 1_555 1_555
H44 C30 1_555 1_555
H45 C30 1_555 1_555
H46 C31 1_555 1_555
H47 C31 1_555 1_555
H48 C31 1_555 1_555
H49 C32 1_555 1_555
H50 C32 1_555 1_555
H51 C32 1_555 1_555
H52 C36 1_555 1_555
H53 C36 1_555 1_555
H54 C36 1_555 1_555
H55 C38 1_555 1_555
H56 C39 1_555 1_555
H57 C40 1_555 1_555
H58 C41 1_555 1_555
H59 C42 1_555 1_555
C10 C11 1_555 1_555
C41 C42 1_555 1_555

#END
