
#######################################################################
#
#                 Cambridge Crystallographic Data Centre
#                                CCDC 
#
#######################################################################
#
# If this CIF has been generated from an entry in the Cambridge 
# Structural Database, then it will include bibliographic, chemical, 
# crystal, experimental, refinement or atomic coordinate data resulting 
# from the CCDC's data processing and validation procedures.
#
#######################################################################

data_SUHBUT
_chemical_formula_moiety         'C18 H14 Br1 F1 O4'
_chemical_name_systematic        
'Ethyl (2R,3R)-2-(4-bromophenyl)-3-fluoro-4-oxochroman-3-carboxylate'
_symmetry_cell_setting           orthorhombic
_symmetry_space_group_name_H-M   'P 21 21 21'
_symmetry_Int_Tables_number      19
_space_group_name_Hall           'P 2ac 2ab'
loop_
_symmetry_equiv_pos_site_id
_symmetry_equiv_pos_as_xyz
1 x,y,z
2 1/2-x,-y,1/2+z
3 -x,1/2+y,1/2-z
4 1/2+x,1/2-y,-z
_cell_length_a                   8.4648(10)
_cell_length_b                   10.4377(12)
_cell_length_c                   19.042(2)
_cell_angle_alpha                90
_cell_angle_beta                 90
_cell_angle_gamma                90
_cell_volume                     1682.42
_exptl_crystal_colour            colorless
_exptl_crystal_description       prismatic
_cell_formula_units_Z            4
loop_
_atom_site_label
_atom_site_type_symbol
_atom_site_fract_x
_atom_site_fract_y
_atom_site_fract_z
Br1 Br 0.81288(7) 0.61494(6) 1.09763(2)
F1 F 0.7203(2) 0.80827(18) 0.75815(10)
O1 O 0.7662(3) 0.7481(3) 0.62410(14)
O2 O 1.1042(3) 0.6619(3) 0.76803(11)
O3 O 0.8186(3) 0.4862(3) 0.74233(14)
O4 O 0.6279(3) 0.5910(2) 0.79812(13)
C1 C 0.9721(4) 0.7368(3) 0.79087(18)
H1 H 1.0004 0.8276 0.7870
C2 C 0.8270(4) 0.7118(3) 0.74324(17)
C3 C 0.8674(4) 0.7188(4) 0.6656(2)
C4 C 1.0307(4) 0.6902(4) 0.64660(18)
C5 C 1.1407(4) 0.6652(3) 0.69876(19)
C6 C 1.2947(4) 0.6375(4) 0.68100(19)
H2 H 1.3686 0.6193 0.7157
C7 C 1.3381(5) 0.6371(4) 0.6118(2)
H3 H 1.4425 0.6200 0.5998
C8 C 1.2302(5) 0.6614(4) 0.5597(2)
H4 H 1.2605 0.6598 0.5127
C9 C 1.0796(5) 0.6877(4) 0.57760(19)
H5 H 1.0066 0.7045 0.5423
C10 C 0.9405(3) 0.7080(4) 0.86583(17)
C11 C 0.8653(4) 0.7964(4) 0.9083(2)
H6 H 0.8408 0.8766 0.8901
C12 C 0.8262(5) 0.7693(4) 0.9760(2)
H7 H 0.7743 0.8296 1.0035
C13 C 0.8646(4) 0.6521(4) 1.00269(18)
C14 C 0.9406(5) 0.5633(4) 0.9629(2)
H8 H 0.9667 0.4839 0.9818
C15 C 0.9781(4) 0.5919(4) 0.89520(19)
H9 H 1.0306 0.5312 0.8681
C16 C 0.7553(4) 0.5817(4) 0.76003(18)
C17 C 0.5653(6) 0.4715(5) 0.8271(3)
H10 H 0.4958 0.4307 0.7933
H11 H 0.6510 0.4131 0.8378
C18 C 0.4810(8) 0.5017(7) 0.8889(3)
H12 H 0.5514 0.5398 0.9224
H13 H 0.4363 0.4250 0.9083
H14 H 0.3978 0.5610 0.8779
loop_
_geom_bond_atom_site_label_1
_geom_bond_atom_site_label_2
_geom_bond_site_symmetry_1
_geom_bond_site_symmetry_2
Br1 C13 1_555 1_555
F1 C2 1_555 1_555
O1 C3 1_555 1_555
O2 C1 1_555 1_555
O3 C16 1_555 1_555
O4 C16 1_555 1_555
C1 H1 1_555 1_555
C2 C1 1_555 1_555
C3 C2 1_555 1_555
C4 C3 1_555 1_555
C5 O2 1_555 1_555
C6 C5 1_555 1_555
H2 C6 1_555 1_555
C7 C6 1_555 1_555
H3 C7 1_555 1_555
C8 C7 1_555 1_555
H4 C8 1_555 1_555
C9 C4 1_555 1_555
H5 C9 1_555 1_555
C10 C1 1_555 1_555
C11 C10 1_555 1_555
H6 C11 1_555 1_555
C12 C11 1_555 1_555
H7 C12 1_555 1_555
C13 C12 1_555 1_555
C14 C13 1_555 1_555
H8 C14 1_555 1_555
C15 C10 1_555 1_555
H9 C15 1_555 1_555
C16 C2 1_555 1_555
C17 O4 1_555 1_555
H10 C17 1_555 1_555
H11 C17 1_555 1_555
C18 C17 1_555 1_555
H12 C18 1_555 1_555
H13 C18 1_555 1_555
H14 C18 1_555 1_555
C4 C5 1_555 1_555
C8 C9 1_555 1_555
C14 C15 1_555 1_555

#END
