
#######################################################################
#
#                 Cambridge Crystallographic Data Centre
#                                CCDC 
#
#######################################################################
#
# If this CIF has been generated from an entry in the Cambridge 
# Structural Database, then it will include bibliographic, chemical, 
# crystal, experimental, refinement or atomic coordinate data resulting 
# from the CCDC's data processing and validation procedures.
#
#######################################################################

data_SUHQUJ
_chemical_formula_moiety         'C21 H13 Cl2 N1 O1'
_chemical_name_systematic        
2-(2,2-bis(4-Chlorophenyl)vinyl)-1,3-benzoxazole
_symmetry_cell_setting           monoclinic
_symmetry_space_group_name_H-M   'P 21/n'
_symmetry_Int_Tables_number      14
_space_group_name_Hall           '-P 2yn'
loop_
_symmetry_equiv_pos_site_id
_symmetry_equiv_pos_as_xyz
1 x,y,z
2 1/2-x,1/2+y,1/2-z
3 -x,-y,-z
4 1/2+x,1/2-y,1/2+z
_cell_length_a                   15.3129(5)
_cell_length_b                   6.1061(2)
_cell_length_c                   18.3965(7)
_cell_angle_alpha                90
_cell_angle_beta                 97.713(4)
_cell_angle_gamma                90
_cell_volume                     1704.55
_exptl_crystal_colour            colorless
_exptl_crystal_description       block
_cell_formula_units_Z            4
loop_
_atom_site_label
_atom_site_type_symbol
_atom_site_fract_x
_atom_site_fract_y
_atom_site_fract_z
Cl1 Cl 0.96338(6) 0.51096(14) 0.24579(5)
Cl2 Cl 0.45088(5) 1.53152(17) 0.11797(6)
O1 O 0.75725(11) 1.6194(3) -0.05308(10)
N1 N 0.89513(14) 1.6012(4) -0.08178(12)
C1 C 0.84441(16) 1.0613(4) 0.10036(14)
C2 C 0.71778(16) 1.3231(4) 0.06558(14)
C3 C 0.94018(16) 0.7450(4) 0.12031(16)
H1 H 0.9794 0.6475 0.1032
C4 C 0.82292(17) 1.0316(4) 0.17046(16)
H2 H 0.7830 1.1268 0.1877
C5 C 0.80753(15) 1.2469(4) 0.05357(14)
C6 C 0.85618(17) 1.3398(4) 0.00716(15)
H3 H 0.9118 1.2783 0.0076
C7 C 0.83765(17) 1.5185(5) -0.04334(16)
C8 C 0.90351(16) 0.9138(4) 0.07604(15)
H4 H 0.9187 0.9290 0.0290
C9 C 0.85914(18) 0.8640(5) 0.21563(16)
H5 H 0.8439 0.8472 0.2626
C10 C 0.70446(17) 1.5311(4) 0.09152(15)
H6 H 0.7514 1.6287 0.0988
C11 C 0.62228(18) 1.5966(5) 0.10693(16)
H7 H 0.6142 1.7367 0.1247
C12 C 0.91774(17) 0.7235(4) 0.18994(16)
C13 C 0.64646(17) 1.1803(5) 0.05495(16)
H8 H 0.6541 1.0394 0.0377
C14 C 0.56410(18) 1.2460(5) 0.06978(17)
H9 H 0.5166 1.1501 0.0621
C15 C 0.85153(18) 1.7747(5) -0.12023(15)
C16 C 0.55301(17) 1.4527(5) 0.09576(17)
C17 C 0.8793(2) 1.9250(5) -0.16833(16)
H10 H 0.9355 1.9183 -0.1821
C18 C 0.76675(19) 1.7869(5) -0.10202(15)
C19 C 0.7361(3) 2.0939(6) -0.1753(2)
H11 H 0.6982 2.2048 -0.1944
C20 C 0.8203(3) 2.0852(6) -0.19507(18)
H12 H 0.8373 2.1899 -0.2271
C21 C 0.7070(2) 1.9445(6) -0.12850(18)
H13 H 0.6504 1.9495 -0.1155
loop_
_geom_bond_atom_site_label_1
_geom_bond_atom_site_label_2
_geom_bond_site_symmetry_1
_geom_bond_site_symmetry_2
Cl1 C12 1_555 1_555
Cl2 C16 1_555 1_555
O1 C7 1_555 1_555
N1 C7 1_555 1_555
C1 C4 1_555 1_555
C2 C5 1_555 1_555
C3 H1 1_555 1_555
C4 H2 1_555 1_555
C5 C1 1_555 1_555
C6 C5 1_555 1_555
H3 C6 1_555 1_555
C7 C6 1_555 1_555
C8 C1 1_555 1_555
H4 C8 1_555 1_555
C9 C4 1_555 1_555
H5 C9 1_555 1_555
C10 C2 1_555 1_555
H6 C10 1_555 1_555
C11 C10 1_555 1_555
H7 C11 1_555 1_555
C12 C3 1_555 1_555
C13 C2 1_555 1_555
H8 C13 1_555 1_555
C14 C13 1_555 1_555
H9 C14 1_555 1_555
C15 N1 1_555 1_555
C16 C11 1_555 1_555
C17 C15 1_555 1_555
H10 C17 1_555 1_555
C18 O1 1_555 1_555
C19 H11 1_555 1_555
C20 C17 1_555 1_555
H12 C20 1_555 1_555
C21 C18 1_555 1_555
H13 C21 1_555 1_555
C3 C8 1_555 1_555
C9 C12 1_555 1_555
C14 C16 1_555 1_555
C15 C18 1_555 1_555
C19 C20 1_555 1_555
C19 C21 1_555 1_555

#END
