
#######################################################################
#
#                 Cambridge Crystallographic Data Centre
#                                CCDC 
#
#######################################################################
#
# If this CIF has been generated from an entry in the Cambridge 
# Structural Database, then it will include bibliographic, chemical, 
# crystal, experimental, refinement or atomic coordinate data resulting 
# from the CCDC's data processing and validation procedures.
#
#######################################################################

data_SUHTEW
_chemical_formula_moiety         'C34 H28 N6 O2'
_chemical_name_systematic        
5-Hydroxy-1-methyl-7-(1-((3-methyl-1-phenyl-1H-pyrazol-5-yl)amino)ethylidene)-3,8-diphenyl-7,8-dihydrocyclopenta[d]pyrazolo[3,4-b]pyridin-6(3H)-one
_symmetry_cell_setting           triclinic
_symmetry_space_group_name_H-M   'P -1'
_symmetry_Int_Tables_number      2
_space_group_name_Hall           '-P 1'
loop_
_symmetry_equiv_pos_site_id
_symmetry_equiv_pos_as_xyz
1 x,y,z
2 -x,-y,-z
_cell_length_a                   10.1833(8)
_cell_length_b                   11.2946(9)
_cell_length_c                   12.4239(11)
_cell_angle_alpha                102.068(2)
_cell_angle_beta                 91.2250(10)
_cell_angle_gamma                91.2720(10)
_cell_volume                     1396.53
_cell_formula_units_Z            2
loop_
_atom_site_label
_atom_site_type_symbol
_atom_site_fract_x
_atom_site_fract_y
_atom_site_fract_z
N1 N 0.3924(4) 0.9669(3) 0.7068(3)
N2 N 0.6269(4) 0.9540(3) 0.7020(3)
N3 N 0.7220(3) 0.9041(3) 0.6263(3)
N4 N 0.0172(3) 0.7440(3) 0.2723(3)
H1 H -0.0100 0.7891 0.3318
N5 N -0.1078(4) 0.5753(4) 0.1635(3)
N6 N -0.2046(4) 0.5512(4) 0.0832(3)
O1 O 0.1700(3) 0.9681(3) 0.6880(2)
H2 H 0.1111 0.9447 0.6420
O2 O 0.0600(3) 0.8599(3) 0.4856(2)
C1 C 0.2871(5) 0.9339(4) 0.6443(4)
C2 C 0.2886(4) 0.8687(4) 0.5363(4)
C3 C 0.1764(4) 0.8338(4) 0.4601(3)
C4 C 0.2261(4) 0.7729(4) 0.3573(3)
C5 C 0.3735(4) 0.7623(4) 0.3674(3)
H3 H 0.4158 0.8053 0.3161
C6 C 0.4022(4) 0.8321(4) 0.4855(3)
C7 C 0.5185(4) 0.8642(4) 0.5476(3)
C8 C 0.5019(4) 0.9295(4) 0.6558(4)
C9 C 0.6569(4) 0.8519(4) 0.5343(4)
C10 C 0.7329(4) 0.7891(4) 0.4382(3)
H4 H 0.8253 0.8013 0.4551
H5 H 0.7111 0.8217 0.3749
H6 H 0.7111 0.7040 0.4230
C11 C 0.1478(4) 0.7276(4) 0.2680(4)
C12 C 0.2000(4) 0.6603(4) 0.1598(3)
H7 H 0.2860 0.6919 0.1495
H8 H 0.1422 0.6706 0.1005
H9 H 0.2049 0.5757 0.1606
C13 C 0.4200(4) 0.6315(4) 0.3453(3)
C14 C 0.3623(5) 0.5501(5) 0.3988(4)
H10 H 0.2975 0.5749 0.4497
C15 C 0.4008(5) 0.4307(5) 0.3768(4)
H11 H 0.3611 0.3748 0.4119
C16 C 0.4992(5) 0.3951(5) 0.3018(4)
H12 H 0.5257 0.3152 0.2879
C17 C 0.5564(5) 0.4739(5) 0.2495(4)
H13 H 0.6228 0.4497 0.2001
C18 C 0.5154(4) 0.5905(5) 0.2700(3)
H14 H 0.5533 0.6446 0.2319
C19 C 0.6714(5) 1.0110(4) 0.8106(4)
C20 C 0.5849(5) 1.0612(5) 0.8904(4)
H15 H 0.4954 1.0607 0.8740
C21 C 0.6338(6) 1.1125(5) 0.9956(4)
H16 H 0.5755 1.1461 1.0495
C22 C 0.7638(6) 1.1148(5) 1.0219(4)
H17 H 0.7943 1.1475 1.0933
C23 C 0.8489(5) 1.0683(5) 0.9417(5)
H18 H 0.9383 1.0703 0.9591
C24 C 0.8060(5) 1.0185(4) 0.8355(4)
H19 H 0.8659 0.9902 0.7813
C25 C -0.0805(4) 0.6970(5) 0.1919(4)
C26 C -0.1623(4) 0.7525(5) 0.1323(4)
H20 H -0.1670 0.8351 0.1343
C27 C -0.2393(5) 0.6576(5) 0.0660(4)
C28 C -0.3456(4) 0.6663(5) -0.0154(4)
H21 H -0.3417 0.5990 -0.0769
H22 H -0.3346 0.7406 -0.0405
H23 H -0.4293 0.6647 0.0185
C29 C -0.0561(4) 0.4813(5) 0.2095(4)
C30 C -0.0669(5) 0.4829(5) 0.3203(4)
H24 H -0.1074 0.5467 0.3660
C31 C -0.0174(6) 0.3897(6) 0.3624(4)
H25 H -0.0235 0.3923 0.4374
C32 C 0.0408(5) 0.2925(5) 0.2974(5)
H26 H 0.0740 0.2300 0.3272
C33 C 0.0484(5) 0.2908(5) 0.1875(5)
H27 H 0.0867 0.2254 0.1420
C34 C 0.0004(4) 0.3842(5) 0.1415(4)
H28 H 0.0062 0.3812 0.0664
loop_
_geom_bond_atom_site_label_1
_geom_bond_atom_site_label_2
_geom_bond_site_symmetry_1
_geom_bond_site_symmetry_2
N1 C1 1_555 1_555
N2 N3 1_555 1_555
N3 C9 1_555 1_555
N4 H1 1_555 1_555
N5 N6 1_555 1_555
N6 C27 1_555 1_555
O1 H2 1_555 1_555
O2 C3 1_555 1_555
C1 O1 1_555 1_555
C2 C1 1_555 1_555
C3 C2 1_555 1_555
C4 C3 1_555 1_555
C5 C4 1_555 1_555
H3 C5 1_555 1_555
C6 C2 1_555 1_555
C7 C6 1_555 1_555
C8 N1 1_555 1_555
C9 C7 1_555 1_555
C10 C9 1_555 1_555
H4 C10 1_555 1_555
H5 C10 1_555 1_555
H6 C10 1_555 1_555
C11 N4 1_555 1_555
C12 C11 1_555 1_555
H7 C12 1_555 1_555
H8 C12 1_555 1_555
H9 C12 1_555 1_555
C13 C5 1_555 1_555
C14 C13 1_555 1_555
H10 C14 1_555 1_555
C15 C14 1_555 1_555
H11 C15 1_555 1_555
C16 C15 1_555 1_555
H12 C16 1_555 1_555
C17 C16 1_555 1_555
H13 C17 1_555 1_555
C18 C13 1_555 1_555
H14 C18 1_555 1_555
C19 N2 1_555 1_555
C20 C19 1_555 1_555
H15 C20 1_555 1_555
C21 C20 1_555 1_555
H16 C21 1_555 1_555
C22 C21 1_555 1_555
H17 C22 1_555 1_555
C23 C22 1_555 1_555
H18 C23 1_555 1_555
C24 C19 1_555 1_555
H19 C24 1_555 1_555
C25 N4 1_555 1_555
C26 C25 1_555 1_555
H20 C26 1_555 1_555
C27 C26 1_555 1_555
C28 C27 1_555 1_555
H21 C28 1_555 1_555
H22 C28 1_555 1_555
H23 C28 1_555 1_555
C29 N5 1_555 1_555
C30 C29 1_555 1_555
H24 C30 1_555 1_555
C31 C30 1_555 1_555
H25 C31 1_555 1_555
C32 C31 1_555 1_555
H26 C32 1_555 1_555
C33 C32 1_555 1_555
H27 C33 1_555 1_555
C34 C29 1_555 1_555
H28 C34 1_555 1_555
N2 C8 1_555 1_555
N5 C25 1_555 1_555
C4 C11 1_555 1_555
C5 C6 1_555 1_555
C7 C8 1_555 1_555
C17 C18 1_555 1_555
C23 C24 1_555 1_555
C33 C34 1_555 1_555

#END
