
#######################################################################
#
#                 Cambridge Crystallographic Data Centre
#                                CCDC 
#
#######################################################################
#
# If this CIF has been generated from an entry in the Cambridge 
# Structural Database, then it will include bibliographic, chemical, 
# crystal, experimental, refinement or atomic coordinate data resulting 
# from the CCDC's data processing and validation procedures.
#
#######################################################################

data_SUHWEY
_chemical_formula_moiety         'C38 H24 N4 O1'
_chemical_name_systematic        
2,5-bis(3-(9H-Carbazol-9-yl)phenyl)-1,3,4-oxadiazole
_symmetry_cell_setting           monoclinic
_symmetry_space_group_name_H-M   'C 2/c'
_symmetry_Int_Tables_number      15
_space_group_name_Hall           '-C 2yn'
loop_
_symmetry_equiv_pos_site_id
_symmetry_equiv_pos_as_xyz
1 x,y,z
2 -x,y,1/2-z
3 1/2+x,1/2+y,z
4 1/2-x,1/2+y,1/2-z
5 -x,-y,-z
6 x,-y,1/2+z
7 1/2-x,1/2-y,-z
8 1/2+x,1/2-y,1/2+z
_cell_length_a                   19.2195(11)
_cell_length_b                   16.1647(9)
_cell_length_c                   9.4228(6)
_cell_angle_alpha                90
_cell_angle_beta                 107.781(3)
_cell_angle_gamma                90
_cell_volume                     2787.61
_exptl_crystal_colour            colorless
_exptl_crystal_description       block
_cell_formula_units_Z            4
loop_
_atom_site_label
_atom_site_type_symbol
_atom_site_fract_x
_atom_site_fract_y
_atom_site_fract_z
C1 C 0.46027(7) 0.08003(8) 0.30776(14)
C2 C 0.41011(7) 0.04646(7) 0.38069(13)
C3 C 0.36796(7) 0.10043(8) 0.43453(14)
H1 H 0.3720 0.1572 0.4230
C4 C 0.32000(7) 0.07001(8) 0.50523(14)
C5 C 0.31333(7) -0.01501(8) 0.51973(15)
H2 H 0.2813 -0.0358 0.5676
C6 C 0.35402(7) -0.06829(9) 0.46333(14)
H3 H 0.3486 -0.1251 0.4714
C7 C 0.40270(7) -0.03836(8) 0.39500(14)
H4 H 0.4306 -0.0748 0.3585
C8 C 0.20674(9) 0.11194(9) 0.56306(18)
C9 C 0.15525(9) 0.05660(11) 0.4775(2)
H5 H 0.1669 0.0195 0.4129
C10 C 0.08628(10) 0.05932(14) 0.4928(3)
H6 H 0.0505 0.0238 0.4359
C11 C 0.06874(13) 0.11333(16) 0.5903(3)
H7 H 0.0221 0.1120 0.6003
C12 C 0.11880(13) 0.16888(13) 0.6726(3)
H8 H 0.1061 0.2060 0.7360
C13 C 0.18945(9) 0.16883(10) 0.65964(19)
C14 C 0.25316(10) 0.21876(9) 0.72167(17)
C15 C 0.26969(14) 0.28309(11) 0.8253(2)
H9 H 0.2344 0.3027 0.8658
C16 C 0.33726(16) 0.31685(12) 0.8666(2)
H10 H 0.3481 0.3600 0.9352
C17 C 0.39128(13) 0.28765(11) 0.8072(2)
H11 H 0.4376 0.3112 0.8381
C18 C 0.37678(10) 0.22493(9) 0.70425(17)
H12 H 0.4125 0.2060 0.6641
C19 C 0.30722(9) 0.19045(8) 0.66165(16)
N1 N 0.47384(7) 0.15618(7) 0.28808(15)
N2 N 0.27892(6) 0.12478(7) 0.56498(12)
O1 O 0.5000 0.02746(7) 0.2500
C1A C 0.53973(7) 0.08003(8) 0.19224(14)
C2A C 0.58989(7) 0.04646(7) 0.11931(13)
C3A C 0.63204(7) 0.10043(8) 0.06547(14)
H1A H 0.6280 0.1572 0.0770
C4A C 0.68000(7) 0.07001(8) -0.00523(14)
C5A C 0.68667(7) -0.01501(8) -0.01973(15)
H2A H 0.7187 -0.0358 -0.0676
C6A C 0.64598(7) -0.06829(9) 0.03667(14)
H3A H 0.6514 -0.1251 0.0286
C7A C 0.59730(7) -0.03836(8) 0.10500(14)
H4A H 0.5694 -0.0748 0.1415
C8A C 0.79326(9) 0.11194(9) -0.06306(18)
C9A C 0.84475(9) 0.05660(11) 0.0225(2)
H5A H 0.8331 0.0195 0.0871
C10A C 0.91372(10) 0.05932(14) 0.0072(3)
H6A H 0.9495 0.0238 0.0641
C11A C 0.93126(13) 0.11333(16) -0.0903(3)
H7A H 0.9779 0.1120 -0.1003
C12A C 0.88120(13) 0.16888(13) -0.1726(3)
H8A H 0.8939 0.2060 -0.2360
C13A C 0.81055(9) 0.16883(10) -0.15964(19)
C14A C 0.74684(10) 0.21876(9) -0.22167(17)
C15A C 0.73031(14) 0.28309(11) -0.3253(2)
H9A H 0.7656 0.3027 -0.3658
C16A C 0.66274(16) 0.31685(12) -0.3666(2)
H10A H 0.6519 0.3600 -0.4352
C17A C 0.60872(13) 0.28765(11) -0.3072(2)
H11A H 0.5624 0.3112 -0.3381
C18A C 0.62322(10) 0.22493(9) -0.20425(17)
H12A H 0.5875 0.2060 -0.1641
C19A C 0.69278(9) 0.19045(8) -0.16165(16)
N1A N 0.52616(7) 0.15618(7) 0.21192(15)
N2A N 0.72108(6) 0.12478(7) -0.06498(12)
loop_
_geom_bond_atom_site_label_1
_geom_bond_atom_site_label_2
_geom_bond_site_symmetry_1
_geom_bond_site_symmetry_2
C1 C2 1_555 1_555
C2 C3 1_555 1_555
C3 H1 1_555 1_555
C4 C3 1_555 1_555
C5 C4 1_555 1_555
H2 C5 1_555 1_555
C6 C5 1_555 1_555
H3 C6 1_555 1_555
C7 C2 1_555 1_555
H4 C7 1_555 1_555
C8 C9 1_555 1_555
C9 H5 1_555 1_555
C10 C9 1_555 1_555
H6 C10 1_555 1_555
C11 C10 1_555 1_555
H7 C11 1_555 1_555
C12 C11 1_555 1_555
H8 C12 1_555 1_555
C13 C8 1_555 1_555
C14 C13 1_555 1_555
C15 C14 1_555 1_555
H9 C15 1_555 1_555
C16 C15 1_555 1_555
H10 C16 1_555 1_555
C17 C16 1_555 1_555
H11 C17 1_555 1_555
C18 C17 1_555 1_555
H12 C18 1_555 1_555
C19 C14 1_555 1_555
N1 C1 1_555 1_555
N2 C4 1_555 1_555
O1 C1 1_555 1_555
C1A O1 1_555 1_555
C2A C1A 1_555 1_555
C3A C2A 1_555 1_555
H1A C3A 1_555 1_555
C4A C3A 1_555 1_555
C5A C4A 1_555 1_555
H2A C5A 1_555 1_555
C6A C5A 1_555 1_555
H3A C6A 1_555 1_555
C7A C2A 1_555 1_555
H4A C7A 1_555 1_555
C8A C9A 1_555 1_555
C9A H5A 1_555 1_555
C10A C9A 1_555 1_555
H6A C10A 1_555 1_555
C11A C10A 1_555 1_555
H7A C11A 1_555 1_555
C12A C11A 1_555 1_555
H8A C12A 1_555 1_555
C13A C8A 1_555 1_555
C14A C13A 1_555 1_555
C15A C14A 1_555 1_555
H9A C15A 1_555 1_555
C16A C15A 1_555 1_555
H10A C16A 1_555 1_555
C17A C16A 1_555 1_555
H11A C17A 1_555 1_555
C18A C17A 1_555 1_555
H12A C18A 1_555 1_555
C19A C14A 1_555 1_555
N1A N1 1_555 1_555
N2A C4A 1_555 1_555
C6 C7 1_555 1_555
C8 N2 1_555 1_555
C12 C13 1_555 1_555
C18 C19 1_555 1_555
C19 N2 1_555 1_555
C1A N1A 1_555 1_555
C6A C7A 1_555 1_555
C8A N2A 1_555 1_555
C12A C13A 1_555 1_555
C18A C19A 1_555 1_555
C19A N2A 1_555 1_555

#END
