
#######################################################################
#
#                 Cambridge Crystallographic Data Centre
#                                CCDC 
#
#######################################################################
#
# If this CIF has been generated from an entry in the Cambridge 
# Structural Database, then it will include bibliographic, chemical, 
# crystal, experimental, refinement or atomic coordinate data resulting 
# from the CCDC's data processing and validation procedures.
#
#######################################################################

data_SUJJAK
_chemical_formula_moiety         'C25 H25 B1 Cl2 F2 N2 O4'
_chemical_name_systematic        
'difluoro(methyl 3-(5-chloro-2-((5-chloro-3-(3-methoxy-3-oxopropyl)-4-methyl-2H-pyrrol-2-ylidene)(phenyl)methyl)-4-methyl-1H-pyrrol-3-yl)propanoatato)borate'
_symmetry_cell_setting           monoclinic
_symmetry_space_group_name_H-M   'P 21/n'
_symmetry_Int_Tables_number      14
_space_group_name_Hall           '-P 2yn'
loop_
_symmetry_equiv_pos_site_id
_symmetry_equiv_pos_as_xyz
1 x,y,z
2 1/2-x,1/2+y,1/2-z
3 -x,-y,-z
4 1/2+x,1/2-y,1/2+z
_cell_length_a                   10.4141(3)
_cell_length_b                   21.2135(5)
_cell_length_c                   22.6166(6)
_cell_angle_alpha                90
_cell_angle_beta                 97.8970(10)
_cell_angle_gamma                90
_cell_volume                     4949.07
_exptl_crystal_colour            orange
_exptl_crystal_description       lath
_cell_formula_units_Z            8
loop_
_atom_site_label
_atom_site_type_symbol
_atom_site_fract_x
_atom_site_fract_y
_atom_site_fract_z
Cl1 Cl 0.96315(5) 0.45831(2) 0.12445(2)
Cl2 Cl 0.84190(5) 0.44650(2) 0.37599(2)
F1 F 0.97086(11) 0.47788(6) 0.26272(5)
F2 F 0.76918(12) 0.44257(5) 0.22942(5)
O1 O 0.41648(14) 0.73501(7) 0.03359(7)
O2 O 0.60545(16) 0.78506(8) 0.03577(8)
O3 O 0.32937(14) 0.72797(7) 0.39719(7)
O4 O 0.4938(2) 0.78314(9) 0.37379(14)
N1 N 0.83933(15) 0.53886(7) 0.18752(7)
N2 N 0.78940(15) 0.53450(7) 0.29143(7)
C1 C 0.88447(18) 0.52691(9) 0.13609(8)
C2 C 0.85786(19) 0.57579(9) 0.09465(8)
C3 C 0.79158(19) 0.62107(9) 0.12257(8)
C4 C 0.77905(18) 0.59812(8) 0.18094(8)
C5 C 0.72601(18) 0.62495(8) 0.22840(8)
C6 C 0.73285(18) 0.59420(9) 0.28397(8)
C7 C 0.69353(18) 0.61276(9) 0.33932(8)
C8 C 0.72574(19) 0.56349(9) 0.37943(9)
C9 C 0.78316(19) 0.51731(9) 0.34803(8)
C10 C 0.8955(2) 0.57831(10) 0.03319(9)
H1 H 0.8180 0.5851 0.0040
H2 H 0.9365 0.5384 0.0245
H3 H 0.9567 0.6130 0.0308
C11 C 0.74347(19) 0.68177(9) 0.09361(9)
H4 H 0.8001 0.6942 0.0638
H5 H 0.7480 0.7153 0.1242
C12 C 0.6037(2) 0.67552(9) 0.06279(9)
H6 H 0.6020 0.6475 0.0277
H7 H 0.5503 0.6557 0.0907
C13 C 0.5458(2) 0.73810(10) 0.04291(9)
C14 C 0.3513(2) 0.79301(11) 0.01499(11)
H8 H 0.3731 0.8252 0.0458
H9 H 0.2574 0.7861 0.0089
H10 H 0.3791 0.8073 -0.0225
C15 C 0.63647(19) 0.67390(9) 0.35658(9)
H11 H 0.6580 0.7073 0.3290
H12 H 0.6773 0.6855 0.3973
C16 C 0.4896(2) 0.67217(10) 0.35558(10)
H13 H 0.4473 0.6637 0.3144
H14 H 0.4665 0.6376 0.3816
C17 C 0.4409(2) 0.73385(10) 0.37689(11)
C18 C 0.2731(2) 0.78553(11) 0.41639(11)
H15 H 0.3386 0.8088 0.4431
H16 H 0.1998 0.7752 0.4376
H17 H 0.2427 0.8116 0.3815
C19 C 0.7060(2) 0.56005(10) 0.44371(9)
H18 H 0.7860 0.5725 0.4690
H19 H 0.6833 0.5168 0.4534
H20 H 0.6357 0.5886 0.4508
C20 C 0.66119(18) 0.68754(9) 0.22080(8)
C21 C 0.7335(2) 0.74274(9) 0.23217(9)
H21 H 0.8242 0.7403 0.2448
C22 C 0.6733(2) 0.80098(9) 0.22515(9)
H22 H 0.7227 0.8384 0.2333
C23 C 0.5411(2) 0.80484(10) 0.20629(9)
H23 H 0.5002 0.8449 0.2011
C24 C 0.4686(2) 0.75047(10) 0.19497(9)
H24 H 0.3781 0.7532 0.1820
C25 C 0.52840(19) 0.69174(9) 0.20265(8)
H25 H 0.4783 0.6544 0.1955
B1 B 0.8447(2) 0.49493(10) 0.24295(10)
Cl3 Cl 0.12894(5) 0.71479(2) 0.10735(2)
Cl4 Cl 0.00957(5) 0.69227(2) 0.35765(2)
F3 F 0.01364(11) 0.68431(5) 0.22221(5)
F4 F 0.22105(11) 0.71166(5) 0.25696(5)
O5 O 0.64361(16) 0.41150(7) 0.11462(7)
O6 O 0.44529(16) 0.37967(8) 0.07709(8)
O7 O 0.55951(16) 0.41092(7) 0.44871(9)
O8 O 0.37163(15) 0.36152(7) 0.42494(7)
N3 N 0.18622(16) 0.62450(7) 0.18896(7)
N4 N 0.13881(15) 0.61582(7) 0.29299(7)
C26 C 0.1866(2) 0.64261(9) 0.13205(9)
C27 C 0.2395(2) 0.59680(10) 0.09823(9)
C28 C 0.27472(19) 0.54682(9) 0.13718(9)
C29 C 0.24211(18) 0.56430(9) 0.19423(9)
C30 C 0.25189(18) 0.53234(9) 0.24907(8)
C31 C 0.20194(18) 0.55743(8) 0.29805(8)
C32 C 0.19203(19) 0.53280(9) 0.35628(8)
C33 C 0.12403(19) 0.57640(9) 0.38537(9)
C34 C 0.09370(19) 0.62585(9) 0.34485(9)
C35 C 0.2513(2) 0.60065(11) 0.03320(9)
H26 H 0.3429 0.6041 0.0281
H27 H 0.2044 0.6378 0.0159
H28 H 0.2142 0.5626 0.0130
C36 C 0.3284(2) 0.48580(9) 0.11748(9)
H29 H 0.2850 0.4759 0.0768
H30 H 0.3061 0.4518 0.1443
C37 C 0.4749(2) 0.48513(10) 0.11681(10)
H31 H 0.4982 0.5163 0.0875
H32 H 0.5200 0.4970 0.1567
C38 C 0.5177(2) 0.42009(10) 0.10041(9)
C39 C 0.6887(3) 0.34749(11) 0.11110(11)
H33 H 0.6488 0.3211 0.1391
H34 H 0.7832 0.3464 0.1214
H35 H 0.6646 0.3316 0.0704
C40 C 0.23992(19) 0.47120(9) 0.38305(9)
H36 H 0.2304 0.4385 0.3515
H37 H 0.1855 0.4587 0.4137
C41 C 0.38168(19) 0.47389(9) 0.41164(9)
H38 H 0.4345 0.4932 0.3832
H39 H 0.3890 0.5009 0.4477
C42 C 0.4337(2) 0.40931(9) 0.42870(9)
C43 C 0.6203(3) 0.34953(12) 0.46115(17)
H40 H 0.5870 0.3302 0.4954
H41 H 0.7144 0.3548 0.4703
H42 H 0.6005 0.3223 0.4261
C44 C 0.0860(2) 0.57254(10) 0.44687(9)
H43 H 0.0066 0.5475 0.4457
H44 H 0.0708 0.6151 0.4613
H45 H 0.1559 0.5525 0.4739
C45 C 0.31428(19) 0.46887(9) 0.25405(8)
C46 C 0.2384(2) 0.41496(9) 0.24305(9)
H46 H 0.1473 0.4187 0.2322
C47 C 0.2954(2) 0.35582(9) 0.24794(9)
H47 H 0.2435 0.3191 0.2401
C48 C 0.4279(2) 0.35019(10) 0.26428(10)
H48 H 0.4667 0.3096 0.2680
C49 C 0.5040(2) 0.40349(10) 0.27514(10)
H49 H 0.5949 0.3995 0.2865
C50 C 0.44738(19) 0.46295(9) 0.26943(9)
H50 H 0.4999 0.4996 0.2761
B2 B 0.1373(2) 0.66252(10) 0.24003(10)
loop_
_geom_bond_atom_site_label_1
_geom_bond_atom_site_label_2
_geom_bond_site_symmetry_1
_geom_bond_site_symmetry_2
Cl1 C1 1_555 1_555
Cl2 C9 1_555 1_555
F1 B1 1_555 1_555
F2 B1 1_555 1_555
O1 C13 1_555 1_555
O2 C13 1_555 1_555
O3 C17 1_555 1_555
O4 C17 1_555 1_555
N1 C1 1_555 1_555
N2 C6 1_555 1_555
C1 C2 1_555 1_555
C2 C3 1_555 1_555
C3 C4 1_555 1_555
C4 N1 1_555 1_555
C5 C4 1_555 1_555
C6 C5 1_555 1_555
C7 C6 1_555 1_555
C8 C7 1_555 1_555
C9 N2 1_555 1_555
C10 C2 1_555 1_555
H1 C10 1_555 1_555
H2 C10 1_555 1_555
H3 C10 1_555 1_555
C11 C3 1_555 1_555
H4 C11 1_555 1_555
H5 C11 1_555 1_555
C12 C11 1_555 1_555
H6 C12 1_555 1_555
H7 C12 1_555 1_555
C13 C12 1_555 1_555
C14 O1 1_555 1_555
H8 C14 1_555 1_555
H9 C14 1_555 1_555
H10 C14 1_555 1_555
C15 C7 1_555 1_555
H11 C15 1_555 1_555
H12 C15 1_555 1_555
C16 C15 1_555 1_555
H13 C16 1_555 1_555
H14 C16 1_555 1_555
C17 C16 1_555 1_555
C18 O3 1_555 1_555
H15 C18 1_555 1_555
H16 C18 1_555 1_555
H17 C18 1_555 1_555
C19 C8 1_555 1_555
H18 C19 1_555 1_555
H19 C19 1_555 1_555
H20 C19 1_555 1_555
C20 C5 1_555 1_555
C21 C20 1_555 1_555
H21 C21 1_555 1_555
C22 C21 1_555 1_555
H22 C22 1_555 1_555
C23 C22 1_555 1_555
H23 C23 1_555 1_555
C24 C23 1_555 1_555
H24 C24 1_555 1_555
C25 C20 1_555 1_555
H25 C25 1_555 1_555
B1 N1 1_555 1_555
Cl3 C26 1_555 1_555
Cl4 C34 1_555 1_555
F3 B2 1_555 1_555
F4 B2 1_555 1_555
O5 C38 1_555 1_555
O6 C38 1_555 1_555
O7 C42 1_555 1_555
O8 C42 1_555 1_555
N3 C26 1_555 1_555
N4 C31 1_555 1_555
C26 C27 1_555 1_555
C27 C28 1_555 1_555
C28 C29 1_555 1_555
C29 N3 1_555 1_555
C30 C29 1_555 1_555
C31 C30 1_555 1_555
C32 C31 1_555 1_555
C33 C32 1_555 1_555
C34 N4 1_555 1_555
C35 C27 1_555 1_555
H26 C35 1_555 1_555
H27 C35 1_555 1_555
H28 C35 1_555 1_555
C36 C28 1_555 1_555
H29 C36 1_555 1_555
H30 C36 1_555 1_555
C37 C36 1_555 1_555
H31 C37 1_555 1_555
H32 C37 1_555 1_555
C38 C37 1_555 1_555
C39 O5 1_555 1_555
H33 C39 1_555 1_555
H34 C39 1_555 1_555
H35 C39 1_555 1_555
C40 C32 1_555 1_555
H36 C40 1_555 1_555
H37 C40 1_555 1_555
C41 C40 1_555 1_555
H38 C41 1_555 1_555
H39 C41 1_555 1_555
C42 C41 1_555 1_555
C43 O7 1_555 1_555
H40 C43 1_555 1_555
H41 C43 1_555 1_555
H42 C43 1_555 1_555
C44 C33 1_555 1_555
H43 C44 1_555 1_555
H44 C44 1_555 1_555
H45 C44 1_555 1_555
C45 C30 1_555 1_555
C46 C45 1_555 1_555
H46 C46 1_555 1_555
C47 C46 1_555 1_555
H47 C47 1_555 1_555
C48 C47 1_555 1_555
H48 C48 1_555 1_555
C49 C48 1_555 1_555
H49 C49 1_555 1_555
C50 C45 1_555 1_555
H50 C50 1_555 1_555
B2 N3 1_555 1_555
N2 B1 1_555 1_555
C8 C9 1_555 1_555
C24 C25 1_555 1_555
N4 B2 1_555 1_555
C33 C34 1_555 1_555
C49 C50 1_555 1_555

#END
