
#######################################################################
#
#                 Cambridge Crystallographic Data Centre
#                                CCDC 
#
#######################################################################
#
# If this CIF has been generated from an entry in the Cambridge 
# Structural Database, then it will include bibliographic, chemical, 
# crystal, experimental, refinement or atomic coordinate data resulting 
# from the CCDC's data processing and validation procedures.
#
#######################################################################

data_SUJLIU
_chemical_formula_moiety         'C13 H14 O3 S1'
_chemical_name_systematic        
5-methyl-2-(4-methylphenyl)-3-(methylsulfonyl)furan
_symmetry_cell_setting           monoclinic
_symmetry_space_group_name_H-M   'P 21/n'
_symmetry_Int_Tables_number      14
_space_group_name_Hall           '-P 2yn'
loop_
_symmetry_equiv_pos_site_id
_symmetry_equiv_pos_as_xyz
1 x,y,z
2 1/2-x,1/2+y,1/2-z
3 -x,-y,-z
4 1/2+x,1/2-y,1/2+z
_cell_length_a                   12.3057(6)
_cell_length_b                   5.8085(2)
_cell_length_c                   17.1385(8)
_cell_angle_alpha                90
_cell_angle_beta                 93.696(2)
_cell_angle_gamma                90
_cell_volume                     1222.47
_exptl_crystal_colour            colorless
_exptl_crystal_description       columnar
_cell_formula_units_Z            4
loop_
_atom_site_label
_atom_site_type_symbol
_atom_site_fract_x
_atom_site_fract_y
_atom_site_fract_z
C1 C 0.07682(17) 0.8362(3) 0.43887(13)
H1 H 0.1097 0.9727 0.4164
H2 H 0.1137 0.8026 0.4900
H3 H -0.0006 0.8649 0.4451
C2 C 0.29936(16) 0.4236(3) 0.41848(11)
C3 C 0.23092(16) 0.5633(3) 0.37357(11)
C4 C 0.29564(16) 0.6825(3) 0.31958(11)
H4 H 0.2707 0.7925 0.2815
C5 C 0.39847(17) 0.6078(3) 0.33365(12)
C6 C 0.50346(17) 0.6578(4) 0.29968(13)
H5 H 0.5264 0.5235 0.2703
H6 H 0.5587 0.6929 0.3418
H7 H 0.4948 0.7904 0.2645
C7 C 0.29009(15) 0.2649(3) 0.48416(11)
C8 C 0.35458(16) 0.0658(3) 0.48935(11)
H8 H 0.4031 0.0334 0.4498
C9 C 0.34811(17) -0.0837(3) 0.55153(12)
H9 H 0.3920 -0.2183 0.5540
C10 C 0.27831(16) -0.0406(3) 0.61076(11)
C11 C 0.21455(16) 0.1576(3) 0.60514(11)
H10 H 0.1662 0.1896 0.6448
C12 C 0.22006(16) 0.3087(3) 0.54318(11)
H11 H 0.1759 0.4430 0.5408
C13 C 0.2740(2) -0.1987(4) 0.67985(12)
H12 H 0.2818 -0.3585 0.6627
H13 H 0.2041 -0.1800 0.7034
H14 H 0.3335 -0.1608 0.7185
O1 O 0.04340(12) 0.3993(2) 0.41010(8)
O2 O 0.05009(12) 0.6688(3) 0.29908(8)
O3 O 0.40233(11) 0.4485(2) 0.39383(8)
S1 S 0.09068(4) 0.60023(8) 0.37630(3)
loop_
_geom_bond_atom_site_label_1
_geom_bond_atom_site_label_2
_geom_bond_site_symmetry_1
_geom_bond_site_symmetry_2
C1 H1 1_555 1_555
H2 C1 1_555 1_555
H3 C1 1_555 1_555
C2 C3 1_555 1_555
C3 C4 1_555 1_555
C4 H4 1_555 1_555
C5 C4 1_555 1_555
C6 C5 1_555 1_555
H5 C6 1_555 1_555
H6 C6 1_555 1_555
H7 C6 1_555 1_555
C7 C2 1_555 1_555
C8 C7 1_555 1_555
H8 C8 1_555 1_555
C9 C8 1_555 1_555
H9 C9 1_555 1_555
C10 C9 1_555 1_555
C11 C10 1_555 1_555
H10 C11 1_555 1_555
C12 C7 1_555 1_555
H11 C12 1_555 1_555
C13 C10 1_555 1_555
H12 C13 1_555 1_555
H13 C13 1_555 1_555
H14 C13 1_555 1_555
O1 S1 1_555 1_555
O2 S1 1_555 1_555
O3 C2 1_555 1_555
S1 C1 1_555 1_555
C3 S1 1_555 1_555
C5 O3 1_555 1_555
C11 C12 1_555 1_555

#END
