
#######################################################################
#
#                 Cambridge Crystallographic Data Centre
#                                CCDC 
#
#######################################################################
#
# If this CIF has been generated from an entry in the Cambridge 
# Structural Database, then it will include bibliographic, chemical, 
# crystal, experimental, refinement or atomic coordinate data resulting 
# from the CCDC's data processing and validation procedures.
#
#######################################################################

data_SUJLEQ
_chemical_formula_moiety         'C17 H13 F1 O3 S1'
_chemical_name_systematic        
2-(4-fluorophenyl)-5-methyl-3-(phenylsulfonyl)furan
_symmetry_cell_setting           monoclinic
_symmetry_space_group_name_H-M   'P 21/n'
_symmetry_Int_Tables_number      14
_space_group_name_Hall           '-P 2yn'
loop_
_symmetry_equiv_pos_site_id
_symmetry_equiv_pos_as_xyz
1 x,y,z
2 1/2-x,1/2+y,1/2-z
3 -x,-y,-z
4 1/2+x,1/2-y,1/2+z
_cell_length_a                   9.2698(4)
_cell_length_b                   11.0134(5)
_cell_length_c                   15.0573(7)
_cell_angle_alpha                90
_cell_angle_beta                 105.111(2)
_cell_angle_gamma                90
_cell_volume                     1484.08
_exptl_crystal_colour            colorless
_cell_formula_units_Z            4
loop_
_atom_site_label
_atom_site_type_symbol
_atom_site_fract_x
_atom_site_fract_y
_atom_site_fract_z
C1 C 0.18948(18) 0.67373(15) 0.60701(12)
C2 C 0.12221(19) 0.63618(16) 0.51727(12)
H1 H 0.1108 0.5522 0.5028
C3 C 0.0724(2) 0.72249(16) 0.44982(12)
H2 H 0.0249 0.6980 0.3887
C4 C 0.0917(2) 0.84504(16) 0.47120(13)
H3 H 0.0578 0.9041 0.4244
C5 C 0.1600(2) 0.88181(16) 0.56031(13)
H4 H 0.1729 0.9658 0.5744
C6 C 0.2096(2) 0.79590(15) 0.62907(12)
H5 H 0.2565 0.8205 0.6903
C7 C 0.38113(19) 0.47649(15) 0.66094(11)
C8 C 0.3665(2) 0.34792(15) 0.64410(12)
H6 H 0.2857 0.2977 0.6491
C9 C 0.4898(2) 0.31306(16) 0.61995(13)
C10 C 0.5141(2) 0.51198(15) 0.64558(12)
C11 C 0.59721(19) 0.62544(16) 0.64945(12)
C12 C 0.7063(2) 0.63583(18) 0.60135(14)
H7 H 0.7270 0.5686 0.5670
C13 C 0.7850(2) 0.74309(19) 0.60306(14)
H8 H 0.8596 0.7502 0.5705
C14 C 0.7526(2) 0.83901(17) 0.65296(13)
C15 C 0.6474(2) 0.83254(17) 0.70192(13)
H9 H 0.6276 0.9004 0.7358
C16 C 0.5704(2) 0.72437(16) 0.70072(12)
H10 H 0.4984 0.7175 0.7353
C17 C 0.5441(2) 0.19449(17) 0.59391(17)
H11 H 0.4709 0.1310 0.5958
H12 H 0.6399 0.1743 0.6372
H13 H 0.5575 0.2001 0.5316
F1 F 0.82793(15) 0.94467(10) 0.65376(9)
O1 O 0.11976(14) 0.48058(11) 0.68670(9)
O2 O 0.30647(14) 0.62143(11) 0.77983(8)
O3 O 0.58065(14) 0.41184(11) 0.61967(9)
S1 S 0.24395(5) 0.56150(4) 0.69306(3)
loop_
_geom_bond_atom_site_label_1
_geom_bond_atom_site_label_2
_geom_bond_site_symmetry_1
_geom_bond_site_symmetry_2
C1 C2 1_555 1_555
C2 H1 1_555 1_555
C3 C2 1_555 1_555
H2 C3 1_555 1_555
C4 C3 1_555 1_555
H3 C4 1_555 1_555
C5 C4 1_555 1_555
H4 C5 1_555 1_555
C6 C1 1_555 1_555
H5 C6 1_555 1_555
C7 C8 1_555 1_555
C8 H6 1_555 1_555
C9 C8 1_555 1_555
C10 C7 1_555 1_555
C11 C10 1_555 1_555
C12 C11 1_555 1_555
H7 C12 1_555 1_555
C13 C12 1_555 1_555
H8 C13 1_555 1_555
C14 C13 1_555 1_555
C15 C14 1_555 1_555
H9 C15 1_555 1_555
C16 C11 1_555 1_555
H10 C16 1_555 1_555
C17 C9 1_555 1_555
H11 C17 1_555 1_555
H12 C17 1_555 1_555
H13 C17 1_555 1_555
F1 C14 1_555 1_555
O1 S1 1_555 1_555
O2 S1 1_555 1_555
O3 C9 1_555 1_555
S1 C1 1_555 1_555
C5 C6 1_555 1_555
C7 S1 1_555 1_555
C10 O3 1_555 1_555
C15 C16 1_555 1_555

#END
