
#######################################################################
#
#                 Cambridge Crystallographic Data Centre
#                                CCDC 
#
#######################################################################
#
# If this CIF has been generated from an entry in the Cambridge 
# Structural Database, then it will include bibliographic, chemical, 
# crystal, experimental, refinement or atomic coordinate data resulting 
# from the CCDC's data processing and validation procedures.
#
#######################################################################

data_SUJMAM
_chemical_formula_moiety         'C52 H58 S4 Si2'
_chemical_name_systematic        
((2,6-bis(2,2'-Bithiophen-5-yl)anthracene-9,10-diyl)diethyne-2,1-diyl)bis(tri-isopropylsilane)
_symmetry_cell_setting           triclinic
_symmetry_space_group_name_H-M   'P -1'
_symmetry_Int_Tables_number      2
_space_group_name_Hall           '-P 1'
loop_
_symmetry_equiv_pos_site_id
_symmetry_equiv_pos_as_xyz
1 x,y,z
2 -x,-y,-z
_cell_length_a                   8.2340(16)
_cell_length_b                   11.958(2)
_cell_length_c                   12.198(2)
_cell_angle_alpha                81.48(3)
_cell_angle_beta                 85.50(3)
_cell_angle_gamma                87.63(3)
_cell_volume                     1183.59
_exptl_crystal_colour            red
_exptl_crystal_description       plate
_cell_formula_units_Z            1
loop_
_atom_site_label
_atom_site_type_symbol
_atom_site_fract_x
_atom_site_fract_y
_atom_site_fract_z
Si1 Si 0.82125(7) 0.26232(5) 0.86445(4)
S1 S 0.29699(7) 0.20770(4) 0.34584(4)
C1 C 0.7021(2) 0.12655(15) 0.51387(15)
H1 H 0.6789 0.1688 0.5736
C2 C 0.5895(2) 0.12805(15) 0.43629(16)
C3 C 0.6259(3) 0.06460(17) 0.34719(17)
H2 H 0.5494 0.0649 0.2928
C4 C 0.7678(3) 0.00367(16) 0.33825(16)
H3 H 0.7886 -0.0378 0.2777
C5 C 0.8865(2) 0.00052(14) 0.41794(15)
C6 C 0.8515(2) 0.06411(14) 0.50785(14)
C7 C 0.9666(2) 0.06310(14) 0.58888(15)
C8 C 0.4356(2) 0.19346(16) 0.44695(16)
C9 C 0.3760(3) 0.24884(19) 0.53286(19)
H4 H 0.4337 0.2513 0.5969
C10 C 0.2222(3) 0.30164(18) 0.51811(19)
H5 H 0.1658 0.3429 0.5709
C11 C 0.1619(3) 0.28742(16) 0.41969(17)
S2 S -0.06420(12) 0.30446(8) 0.26344(7)
C12 C 0.0056(3) 0.32904(17) 0.38059(18)
C13 C -0.11869(17) 0.39978(12) 0.44294(13)
H6 H -0.1092 0.4258 0.5120
C14 C -0.2546(4) 0.4182(2) 0.3726(3)
H7 H -0.3505 0.4599 0.3922
C15 C -0.2363(4) 0.3734(3) 0.2802(3)
H8 H -0.3169 0.3807 0.2277
C16 C 0.9307(2) 0.12844(16) 0.67789(16)
C17 C 0.8957(3) 0.18442(18) 0.75088(17)
C18 C 0.7631(3) 0.4107(2) 0.7998(2)
H9 H 0.8642 0.4413 0.7569
C19 C 0.6362(4) 0.4183(3) 0.7164(3)
H10 H 0.5300 0.3988 0.7550
H11 H 0.6660 0.3655 0.6634
H12 H 0.6299 0.4956 0.6764
C20 C 0.7185(6) 0.4909(3) 0.8858(3)
H13 H 0.6999 0.5677 0.8473
H14 H 0.8079 0.4905 0.9343
H15 H 0.6191 0.4655 0.9305
C21 C 0.9941(3) 0.2701(2) 0.9547(2)
H16 H 0.9521 0.3141 1.0152
C22 C 1.1355(4) 0.3354(3) 0.8905(3)
H17 H 1.2229 0.3388 0.9399
H18 H 1.0976 0.4123 0.8625
H19 H 1.1767 0.2970 0.8279
C23 C 1.0532(5) 0.1545(3) 1.0113(3)
H20 H 1.0988 0.1095 0.9547
H21 H 0.9614 0.1153 1.0542
H22 H 1.1373 0.1647 1.0612
C24 C 0.6522(4) 0.1743(3) 0.9411(2)
H23 H 0.7107 0.1033 0.9727
C25 C 0.5740(5) 0.2181(4) 1.0431(3)
H24 H 0.5223 0.2926 1.0214
H25 H 0.6575 0.2248 1.0946
H26 H 0.4915 0.1655 1.0796
C26 C 0.5347(5) 0.1329(4) 0.8698(3)
H27 H 0.4547 0.0854 0.9169
H28 H 0.5940 0.0884 0.8174
H29 H 0.4784 0.1977 0.8286
Si1A Si 1.17875(7) -0.26232(5) 0.13555(4)
S1A S 1.70301(7) -0.20770(4) 0.65416(4)
C1A C 1.2979(2) -0.12655(15) 0.48613(15)
H1A H 1.3211 -0.1688 0.4264
C2A C 1.4105(2) -0.12805(15) 0.56371(16)
C3A C 1.3741(3) -0.06460(17) 0.65281(17)
H2A H 1.4506 -0.0649 0.7072
C4A C 1.2322(3) -0.00367(16) 0.66175(16)
H3A H 1.2114 0.0378 0.7223
C5A C 1.1135(2) -0.00052(14) 0.58206(15)
C6A C 1.1485(2) -0.06411(14) 0.49215(14)
C7A C 1.0334(2) -0.06310(14) 0.41112(15)
C8A C 1.5644(2) -0.19346(16) 0.55305(16)
C9A C 1.6240(3) -0.24884(19) 0.46714(19)
H4A H 1.5663 -0.2513 0.4031
C10A C 1.7778(3) -0.30164(18) 0.48189(19)
H5A H 1.8342 -0.3429 0.4291
C11A C 1.8381(3) -0.28742(16) 0.58031(17)
S2A S 2.06420(12) -0.30446(8) 0.73656(7)
C12A C 1.9944(3) -0.32904(17) 0.61941(18)
C13A C 2.11869(17) -0.39978(12) 0.55706(13)
H6A H 2.1092 -0.4258 0.4880
C14A C 2.2546(4) -0.4182(2) 0.6274(3)
H7A H 2.3505 -0.4599 0.6078
C15A C 2.2363(4) -0.3734(3) 0.7198(3)
H8A H 2.3169 -0.3807 0.7723
C16A C 1.0693(2) -0.12844(16) 0.32211(16)
C17A C 1.1043(3) -0.18442(18) 0.24912(17)
C18A C 1.2369(3) -0.4107(2) 0.2002(2)
H9A H 1.1358 -0.4413 0.2431
C19A C 1.3638(4) -0.4183(3) 0.2836(3)
H10A H 1.4700 -0.3988 0.2450
H11A H 1.3340 -0.3655 0.3366
H12A H 1.3701 -0.4956 0.3236
C20A C 1.2815(6) -0.4909(3) 0.1142(3)
H13A H 1.3001 -0.5677 0.1527
H14A H 1.1921 -0.4905 0.0657
H15A H 1.3809 -0.4655 0.0695
C21A C 1.0059(3) -0.2701(2) 0.0453(2)
H16A H 1.0479 -0.3141 -0.0152
C22A C 0.8645(4) -0.3354(3) 0.1095(3)
H17A H 0.7771 -0.3388 0.0601
H18A H 0.9024 -0.4123 0.1375
H19A H 0.8233 -0.2970 0.1721
C23A C 0.9468(5) -0.1545(3) -0.0113(3)
H20A H 0.9012 -0.1095 0.0453
H21A H 1.0386 -0.1153 -0.0542
H22A H 0.8627 -0.1647 -0.0612
C24A C 1.3478(4) -0.1743(3) 0.0589(2)
H23A H 1.2893 -0.1033 0.0273
C25A C 1.4260(5) -0.2181(4) -0.0431(3)
H24A H 1.4777 -0.2926 -0.0214
H25A H 1.3425 -0.2248 -0.0946
H26A H 1.5085 -0.1655 -0.0796
C26A C 1.4653(5) -0.1329(4) 0.1302(3)
H27A H 1.5453 -0.0854 0.0831
H28A H 1.4060 -0.0884 0.1826
H29A H 1.5216 -0.1977 0.1714
C27? C 0.0056(3) 0.32904(17) 0.38059(18)
C28? C -0.06420(12) 0.30446(8) 0.26344(7)
C29? C -0.2363(4) 0.3734(3) 0.2802(3)
C30? C -0.2546(4) 0.4182(2) 0.3726(3)
H30? H -0.0193 0.2641 0.2062
H31? H -0.3169 0.3807 0.2277
H32? H -0.3505 0.4599 0.3922
S3? S -0.11869(17) 0.39978(12) 0.44294(13)
loop_
_geom_bond_atom_site_label_1
_geom_bond_atom_site_label_2
_geom_bond_site_symmetry_1
_geom_bond_site_symmetry_2
Si1 C17 1_555 1_555
S1 C8 1_555 1_555
C1 H1 1_555 1_555
C2 C1 1_555 1_555
C3 C2 1_555 1_555
H2 C3 1_555 1_555
C4 C3 1_555 1_555
H3 C4 1_555 1_555
C5 C4 1_555 1_555
C6 C1 1_555 1_555
C7 C6 1_555 1_555
C8 C2 1_555 1_555
C9 C8 1_555 1_555
H4 C9 1_555 1_555
C10 C9 1_555 1_555
H5 C10 1_555 1_555
C11 S1 1_555 1_555
S2 C12 1_555 1_555
C12 C11 1_555 1_555
C13 C12 1_555 1_555
H6 C13 1_555 1_555
C14 C13 1_555 1_555
H7 C14 1_555 1_555
C15 S2 1_555 1_555
H8 C15 1_555 1_555
C16 C7 1_555 1_555
C17 C16 1_555 1_555
C18 Si1 1_555 1_555
H9 C18 1_555 1_555
C19 C18 1_555 1_555
H10 C19 1_555 1_555
H11 C19 1_555 1_555
H12 C19 1_555 1_555
C20 C18 1_555 1_555
H13 C20 1_555 1_555
H14 C20 1_555 1_555
H15 C20 1_555 1_555
C21 Si1 1_555 1_555
H16 C21 1_555 1_555
C22 C21 1_555 1_555
H17 C22 1_555 1_555
H18 C22 1_555 1_555
H19 C22 1_555 1_555
C23 C21 1_555 1_555
H20 C23 1_555 1_555
H21 C23 1_555 1_555
H22 C23 1_555 1_555
C24 Si1 1_555 1_555
H23 C24 1_555 1_555
C25 C24 1_555 1_555
H24 C25 1_555 1_555
H25 C25 1_555 1_555
H26 C25 1_555 1_555
C26 C24 1_555 1_555
H27 C26 1_555 1_555
H28 C26 1_555 1_555
H29 C26 1_555 1_555
Si1A C17A 1_555 1_555
S1A C8A 1_555 1_555
C1A H1A 1_555 1_555
C2A C1A 1_555 1_555
C3A C2A 1_555 1_555
H2A C3A 1_555 1_555
C4A C3A 1_555 1_555
H3A C4A 1_555 1_555
C5A C7 1_555 1_555
C6A C1A 1_555 1_555
C7A C5 1_555 1_555
C8A C2A 1_555 1_555
C9A C8A 1_555 1_555
H4A C9A 1_555 1_555
C10A C9A 1_555 1_555
H5A C10A 1_555 1_555
C11A S1A 1_555 1_555
S2A C12A 1_555 1_555
C12A C11A 1_555 1_555
C13A C12A 1_555 1_555
H6A C13A 1_555 1_555
C14A C13A 1_555 1_555
H7A C14A 1_555 1_555
C15A S2A 1_555 1_555
H8A C15A 1_555 1_555
C16A C7A 1_555 1_555
C17A C16A 1_555 1_555
C18A Si1A 1_555 1_555
H9A C18A 1_555 1_555
C19A C18A 1_555 1_555
H10A C19A 1_555 1_555
H11A C19A 1_555 1_555
H12A C19A 1_555 1_555
C20A C18A 1_555 1_555
H13A C20A 1_555 1_555
H14A C20A 1_555 1_555
H15A C20A 1_555 1_555
C21A Si1A 1_555 1_555
H16A C21A 1_555 1_555
C22A C21A 1_555 1_555
H17A C22A 1_555 1_555
H18A C22A 1_555 1_555
H19A C22A 1_555 1_555
C23A C21A 1_555 1_555
H20A C23A 1_555 1_555
H21A C23A 1_555 1_555
H22A C23A 1_555 1_555
C24A Si1A 1_555 1_555
H23A C24A 1_555 1_555
C25A C24A 1_555 1_555
H24A C25A 1_555 1_555
H25A C25A 1_555 1_555
H26A C25A 1_555 1_555
C26A C24A 1_555 1_555
H27A C26A 1_555 1_555
H28A C26A 1_555 1_555
H29A C26A 1_555 1_555
C5 C6 1_555 1_555
C10 C11 1_555 1_555
C14 C15 1_555 1_555
C4A C5A 1_555 1_555
C5A C6A 1_555 1_555
C6A C7A 1_555 1_555
C10A C11A 1_555 1_555
C14A C15A 1_555 1_555

#END
