
#######################################################################
#
#                 Cambridge Crystallographic Data Centre
#                                CCDC 
#
#######################################################################
#
# If this CIF has been generated from an entry in the Cambridge 
# Structural Database, then it will include bibliographic, chemical, 
# crystal, experimental, refinement or atomic coordinate data resulting 
# from the CCDC's data processing and validation procedures.
#
#######################################################################

data_SUJMAN
_chemical_formula_moiety         'C24 H20 O3 S1'
_chemical_name_systematic        
2-(biphenyl-4-yl)-5-methyl-3-((4-methylphenyl)sulfonyl)furan
_symmetry_cell_setting           triclinic
_symmetry_space_group_name_H-M   'P -1'
_symmetry_Int_Tables_number      2
_space_group_name_Hall           '-P 1'
loop_
_symmetry_equiv_pos_site_id
_symmetry_equiv_pos_as_xyz
1 x,y,z
2 -x,-y,-z
_cell_length_a                   8.2886(4)
_cell_length_b                   9.6781(4)
_cell_length_c                   12.6714(5)
_cell_angle_alpha                111.375(2)
_cell_angle_beta                 90.214(2)
_cell_angle_gamma                98.662(2)
_cell_volume                     933.859
_exptl_crystal_colour            colorless
_cell_formula_units_Z            2
loop_
_atom_site_label
_atom_site_type_symbol
_atom_site_fract_x
_atom_site_fract_y
_atom_site_fract_z
S1 S 0.30210(5) 0.37901(5) 0.11878(3)
O1 O 0.14449(15) 0.30310(14) 0.13126(10)
O2 O 0.44271(15) 0.71041(14) 0.41116(10)
O3 O 0.32313(15) 0.42283(14) 0.02199(10)
C1 C 0.8213(3) 0.0067(2) 0.13324(17)
H1 H 0.8863 0.0575 0.2056
H2 H 0.8922 -0.0011 0.0703
H3 H 0.7709 -0.0942 0.1276
C2 C 0.6892(2) 0.0961(2) 0.12745(15)
C3 C 0.5342(2) 0.0671(2) 0.16448(16)
H4 H 0.5102 -0.0121 0.1923
C4 C 0.4141(2) 0.1516(2) 0.16156(15)
H5 H 0.3097 0.1324 0.1887
C5 C 0.4495(2) 0.26504(19) 0.11810(14)
C6 C 0.3677(2) 0.54119(19) 0.23874(14)
C7 C 0.3482(2) 0.57357(19) 0.35266(15)
C8 C 0.2661(2) 0.5013(2) 0.42558(15)
C9 C 0.3226(2) 0.5506(2) 0.53992(15)
H6 H 0.4122 0.6306 0.5684
C10 C 0.2499(2) 0.4847(2) 0.61168(15)
H7 H 0.2916 0.5196 0.6885
C11 C 0.1161(2) 0.3676(2) 0.57391(15)
C12 C 0.0340(2) 0.3006(2) 0.65243(15)
C13 C 0.0551(2) 0.3745(2) 0.77020(16)
H8 H 0.1236 0.4697 0.8012
C14 C -0.0220(2) 0.3114(2) 0.84268(16)
H9 H -0.0053 0.3633 0.9225
C15 C -0.1229(2) 0.1737(2) 0.79982(16)
H10 H -0.1764 0.1311 0.8497
C16 C 0.4826(2) 0.66145(19) 0.22839(15)
H11 H 0.5215 0.6693 0.1600
C17 C 0.5244(2) 0.7607(2) 0.33431(15)
C18 C 0.1328(2) 0.3846(2) 0.38710(15)
H12 H 0.0917 0.3493 0.3102
C19 C 0.0602(2) 0.3198(2) 0.45972(15)
H13 H -0.0303 0.2407 0.4314
C20 C -0.1455(3) 0.0984(2) 0.68334(17)
H14 H -0.2141 0.0032 0.6531
C21 C -0.0683(2) 0.1613(2) 0.61073(16)
H15 H -0.0854 0.1086 0.5310
C22 C 0.6371(2) 0.9059(2) 0.38419(15)
H16 H 0.7130 0.9174 0.3277
H17 H 0.6990 0.9076 0.4508
H18 H 0.5737 0.9887 0.4070
C23 C 0.6026(2) 0.2950(2) 0.07849(14)
H19 H 0.6250 0.3714 0.0477
C24 C 0.7214(2) 0.2111(2) 0.08487(15)
H20 H 0.8268 0.2323 0.0598
loop_
_geom_bond_atom_site_label_1
_geom_bond_atom_site_label_2
_geom_bond_site_symmetry_1
_geom_bond_site_symmetry_2
S1 O1 1_555 1_555
O2 C7 1_555 1_555
O3 S1 1_555 1_555
C1 H1 1_555 1_555
H2 C1 1_555 1_555
H3 C1 1_555 1_555
C2 C1 1_555 1_555
C3 C2 1_555 1_555
H4 C3 1_555 1_555
C4 C3 1_555 1_555
H5 C4 1_555 1_555
C5 S1 1_555 1_555
C6 S1 1_555 1_555
C7 C6 1_555 1_555
C8 C7 1_555 1_555
C9 C8 1_555 1_555
H6 C9 1_555 1_555
C10 C9 1_555 1_555
H7 C10 1_555 1_555
C11 C10 1_555 1_555
C12 C11 1_555 1_555
C13 C12 1_555 1_555
H8 C13 1_555 1_555
C14 C13 1_555 1_555
H9 C14 1_555 1_555
C15 C14 1_555 1_555
H10 C15 1_555 1_555
C16 C6 1_555 1_555
H11 C16 1_555 1_555
C17 O2 1_555 1_555
C18 C8 1_555 1_555
H12 C18 1_555 1_555
C19 C11 1_555 1_555
H13 C19 1_555 1_555
C20 C15 1_555 1_555
H14 C20 1_555 1_555
C21 C12 1_555 1_555
H15 C21 1_555 1_555
C22 C17 1_555 1_555
H16 C22 1_555 1_555
H17 C22 1_555 1_555
H18 C22 1_555 1_555
C23 C5 1_555 1_555
H19 C23 1_555 1_555
C24 C2 1_555 1_555
H20 C24 1_555 1_555
C4 C5 1_555 1_555
C16 C17 1_555 1_555
C18 C19 1_555 1_555
C20 C21 1_555 1_555
C23 C24 1_555 1_555

#END
