
#######################################################################
#
#                 Cambridge Crystallographic Data Centre
#                                CCDC 
#
#######################################################################
#
# If this CIF has been generated from an entry in the Cambridge 
# Structural Database, then it will include bibliographic, chemical, 
# crystal, experimental, refinement or atomic coordinate data resulting 
# from the CCDC's data processing and validation procedures.
#
#######################################################################

data_SUKJUD
_chemical_compound_source        
'Lycopodium serratum Thunb. var. longiperiolatum Spring'
_chemical_formula_moiety         'C16 H25 N1 O2'
_chemical_name_systematic        6\a-Hydroxylycopodine
_symmetry_cell_setting           orthorhombic
_symmetry_space_group_name_H-M   'P 21 21 21'
_symmetry_Int_Tables_number      19
_space_group_name_Hall           'P 2ac 2ab'
loop_
_symmetry_equiv_pos_site_id
_symmetry_equiv_pos_as_xyz
1 x,y,z
2 1/2+x,1/2-y,-z
3 -x,1/2+y,1/2-z
4 1/2-x,-y,1/2+z
_cell_length_a                   7.769(2)
_cell_length_b                   13.423(4)
_cell_length_c                   13.528(4)
_cell_angle_alpha                90
_cell_angle_beta                 90
_cell_angle_gamma                90
_cell_volume                     1410.74
_exptl_crystal_colour            yellow
_chemical_melting_point          250-254deg.C
_cell_formula_units_Z            4
loop_
_atom_site_label
_atom_site_type_symbol
_atom_site_fract_x
_atom_site_fract_y
_atom_site_fract_z
O1 O 0.1628(2) 0.0058(1) 0.0983(1)
O2 O -0.1536(2) 0.1152(1) 0.1750(1)
N1 N 0.1020(2) -0.0555(1) 0.4524(1)
C1 C 0.1123(2) 0.0218(1) 0.3728(1)
C2 C -0.0269(3) 0.0760(2) 0.2103(1)
C3 C -0.0390(2) 0.0079(2) 0.2993(1)
C4 C 0.1487(3) 0.0886(2) 0.1636(1)
C5 C 0.2952(3) 0.0947(2) 0.2392(1)
C6 C 0.2868(2) 0.0128(1) 0.3186(1)
C7 C 0.3258(3) -0.0930(2) 0.2833(2)
C8 C 0.3170(3) -0.1635(2) 0.3703(2)
C9 C 0.1431(3) -0.1573(2) 0.4183(2)
C10 C -0.0671(3) -0.0540(2) 0.5030(2)
C11 C -0.2222(3) -0.0643(2) 0.4342(2)
C12 C -0.2137(3) 0.0111(2) 0.3499(2)
C13 C 0.1091(3) 0.1251(1) 0.4228(1)
C14 C 0.1433(3) 0.2137(1) 0.3551(2)
C15 C 0.2977(3) 0.1966(2) 0.2899(2)
C16 C 0.1563(5) 0.3094(2) 0.4151(2)
loop_
_geom_bond_atom_site_label_1
_geom_bond_atom_site_label_2
_geom_bond_site_symmetry_1
_geom_bond_site_symmetry_2
O1 C4 1_555 1_555
O2 C2 1_555 1_555
N1 C1 1_555 1_555
C1 C3 1_555 1_555
C2 C3 1_555 1_555
C3 C12 1_555 1_555
C4 C2 1_555 1_555
C5 C4 1_555 1_555
C6 C1 1_555 1_555
C7 C6 1_555 1_555
C8 C7 1_555 1_555
C9 N1 1_555 1_555
C10 N1 1_555 1_555
C11 C10 1_555 1_555
C12 C11 1_555 1_555
C13 C1 1_555 1_555
C14 C13 1_555 1_555
C15 C5 1_555 1_555
C16 C14 1_555 1_555
C5 C6 1_555 1_555
C8 C9 1_555 1_555
C14 C15 1_555 1_555

#END
