
#######################################################################
#
#                 Cambridge Crystallographic Data Centre
#                                CCDC 
#
#######################################################################
#
# If this CIF has been generated from an entry in the Cambridge 
# Structural Database, then it will include bibliographic, chemical, 
# crystal, experimental, refinement or atomic coordinate data resulting 
# from the CCDC's data processing and validation procedures.
#
#######################################################################

data_SUKVAX
_chemical_formula_moiety         'C32 H31 Cl1 N2 O2 S1'
_chemical_name_systematic        
1-Benzyl-7'-(4-chlorophenyl)-5-methyl-6'-(3-methylbut-2-enoyl)-1',6',7',7a'-tetrahydrospiro[indole-3,5'-pyrrolo[1,2-c][1,3]thiazol]-2(1H)-one
_symmetry_cell_setting           triclinic
_symmetry_space_group_name_H-M   'P -1'
_symmetry_Int_Tables_number      2
_space_group_name_Hall           '-P 1'
loop_
_symmetry_equiv_pos_site_id
_symmetry_equiv_pos_as_xyz
1 x,y,z
2 -x,-y,-z
_cell_length_a                   13.230(3)
_cell_length_b                   16.930(4)
_cell_length_c                   26.266(6)
_cell_angle_alpha                74.120(4)
_cell_angle_beta                 78.231(4)
_cell_angle_gamma                86.531(4)
_cell_volume                     5539.62
_exptl_crystal_colour            colorless
_exptl_crystal_description       prism
_cell_formula_units_Z            8
loop_
_atom_site_label
_atom_site_type_symbol
_atom_site_fract_x
_atom_site_fract_y
_atom_site_fract_z
Cl1 Cl 1.17071(10) 0.56992(8) 0.36626(6)
S1 S 0.82555(10) 0.98536(8) 0.44552(6)
O1 O 0.6705(3) 0.70030(19) 0.44896(14)
O2 O 0.6758(3) 0.9378(2) 0.27145(14)
N1 N 0.5345(3) 0.9553(2) 0.33499(16)
N2 N 0.7743(3) 0.9511(2) 0.36101(16)
C1 C 1.0683(4) 0.6383(3) 0.3762(2)
C2 C 1.0373(4) 0.6898(3) 0.3318(2)
H1 H 1.0698 0.6872 0.2965
C3 C 0.9576(4) 0.7459(3) 0.3389(2)
H2 H 0.9370 0.7826 0.3083
C4 C 0.9080(4) 0.7487(3) 0.3906(2)
C5 C 0.8262(3) 0.8134(3) 0.39723(19)
H3 H 0.8020 0.8073 0.4367
C6 C 0.7300(4) 0.8119(3) 0.3722(2)
H4 H 0.7529 0.8052 0.3349
C7 C 0.6837(4) 0.8995(3) 0.36879(19)
C8 C 0.6338(4) 0.9325(3) 0.3182(2)
C9 C 0.4659(4) 0.9981(3) 0.2983(2)
H5 H 0.5085 1.0241 0.2626
H6 H 0.4284 1.0423 0.3125
C10 C 0.3880(4) 0.9417(3) 0.2911(2)
C11 C 0.2827(4) 0.9543(3) 0.3065(2)
H7 H 0.2592 0.9966 0.3236
C12 C 0.2111(5) 0.9049(4) 0.2971(2)
H8 H 0.1391 0.9128 0.3083
C13 C 0.2455(5) 0.8451(4) 0.2714(2)
H9 H 0.1971 0.8135 0.2633
C14 C 0.9395(4) 0.6947(3) 0.4345(2)
H10 H 0.9064 0.6957 0.4700
C15 C 1.0193(4) 0.6386(3) 0.4273(2)
H11 H 1.0394 0.6009 0.4576
C16 C 0.6557(4) 0.7430(3) 0.4055(2)
C17 C 0.5652(4) 0.7338(3) 0.3822(2)
H12 H 0.5618 0.7688 0.3475
C18 C 0.4878(4) 0.6804(3) 0.4061(2)
C19 C 0.3988(5) 0.6792(4) 0.3785(3)
H13 H 0.4121 0.7180 0.3426
H14 H 0.3352 0.6951 0.3999
H15 H 0.3912 0.6238 0.3751
C20 C 0.4805(4) 0.6182(4) 0.4594(2)
H16 H 0.5501 0.6000 0.4650
H17 H 0.4405 0.5711 0.4599
H18 H 0.4462 0.6428 0.4881
C21 C 0.7653(4) 1.0188(3) 0.3860(2)
H19 H 0.6918 1.0328 0.3969
H20 H 0.8008 1.0680 0.3603
C22 C 0.9231(4) 0.9351(3) 0.4055(2)
H21 H 0.9761 0.9750 0.3821
H22 H 0.9574 0.8905 0.4293
C23 C 0.8664(4) 0.9001(3) 0.3713(2)
H23 H 0.9135 0.9016 0.3360
C24 C 0.5932(4) 0.9050(3) 0.4142(2)
C25 C 0.5848(4) 0.8802(3) 0.4689(2)
H24 H 0.6429 0.8571 0.4840
C26 C 0.4904(4) 0.8889(3) 0.5031(2)
C27 C 0.4803(4) 0.8600(3) 0.5635(2)
H25 H 0.5065 0.9024 0.5764
H26 H 0.5203 0.8093 0.5730
H27 H 0.4075 0.8496 0.5805
C28 C 0.4069(4) 0.9234(3) 0.4796(2)
H28 H 0.3429 0.9300 0.5022
C29 C 0.4144(4) 0.9485(3) 0.4234(2)
H29 H 0.3572 0.9718 0.4077
C30 C 0.5096(4) 0.9378(3) 0.3919(2)
C31 C 0.3500(4) 0.8306(3) 0.2573(2)
H30 H 0.3730 0.7878 0.2406
C32 C 0.4206(4) 0.8774(3) 0.2673(2)
H31 H 0.4922 0.8663 0.2580
Cl2 Cl 1.54532(11) 0.48719(10) 0.37222(7)
S2 S 1.12005(11) 0.08998(8) 0.41678(6)
O3 O 1.0297(3) 0.3924(2) 0.44520(14)
O4 O 0.9858(3) 0.3537(2) 0.26353(14)
N3 N 0.8427(3) 0.3268(2) 0.33214(16)
N4 N 1.0782(3) 0.2224(2) 0.34308(16)
C33 C 1.4322(4) 0.4349(3) 0.3764(2)
C34 C 1.3918(4) 0.3783(4) 0.4233(2)
H32 H 1.4243 0.3671 0.4536
C35 C 1.3033(4) 0.3378(3) 0.4259(2)
H33 H 1.2728 0.3008 0.4591
C36 C 1.2564(4) 0.3492(3) 0.3812(2)
C37 C 1.1625(4) 0.3004(3) 0.38520(19)
H34 H 1.1376 0.2705 0.4239
C38 C 1.0737(4) 0.3503(3) 0.3639(2)
H35 H 1.1015 0.3871 0.3274
C39 C 1.0026(4) 0.2853(3) 0.35701(19)
C40 C 0.9466(4) 0.3259(3) 0.3106(2)
C41 C 0.7665(4) 0.3682(3) 0.3013(2)
H36 H 0.8025 0.3970 0.2645
H37 H 0.7307 0.4101 0.3185
C42 C 0.6865(4) 0.3113(3) 0.29671(19)
C43 C 0.7033(4) 0.2285(3) 0.3043(2)
H38 H 0.7668 0.2053 0.3131
C44 C 0.6280(4) 0.1776(3) 0.2993(2)
H39 H 0.6401 0.1203 0.3047
C45 C 0.5364(4) 0.2121(3) 0.2863(2)
H40 H 0.4854 0.1781 0.2825
C46 C 1.0165(4) 0.4033(3) 0.3994(2)
C47 C 0.9474(4) 0.4657(3) 0.3746(2)
H41 H 0.9638 0.4863 0.3364
C48 C 0.8622(4) 0.4973(3) 0.4004(2)
C49 C 0.8225(4) 0.4712(4) 0.4600(2)
H42 H 0.8465 0.4153 0.4748
H43 H 0.7469 0.4725 0.4673
H44 H 0.8482 0.5087 0.4770
C50 C 0.8002(4) 0.5626(3) 0.3694(3)
H45 H 0.8306 0.5747 0.3308
H46 H 0.8003 0.6125 0.3815
H47 H 0.7292 0.5437 0.3755
C51 C 0.8224(4) 0.2895(3) 0.38856(19)
C52 C 0.9145(4) 0.2595(3) 0.4055(2)
C53 C 0.9126(4) 0.2216(3) 0.4594(2)
H48 H 0.9746 0.2003 0.4711
C54 C 0.8192(4) 0.2147(3) 0.4971(2)
C55 C 0.7295(4) 0.2475(3) 0.4785(2)
H49 H 0.6666 0.2449 0.5039
C56 C 0.7293(4) 0.2839(3) 0.4241(2)
H50 H 0.6674 0.3041 0.4121
C57 C 0.8183(4) 0.1731(3) 0.5559(2)
H51 H 0.7495 0.1785 0.5772
H52 H 0.8694 0.1990 0.5683
H53 H 0.8355 0.1148 0.5603
C58 C 0.5173(4) 0.2942(4) 0.2789(2)
H54 H 0.4530 0.3168 0.2710
C59 C 0.5937(4) 0.3451(3) 0.2831(2)
H55 H 0.5820 0.4026 0.2767
C60 C 1.0488(4) 0.1372(3) 0.3620(2)
H56 H 1.0676 0.1100 0.3324
H57 H 0.9734 0.1320 0.3759
C61 C 1.2283(4) 0.1546(3) 0.3783(2)
H58 H 1.2735 0.1625 0.4023
H59 H 1.2696 0.1297 0.3507
C62 C 1.1813(4) 0.2372(3) 0.3513(2)
H60 H 1.2264 0.2623 0.3156
C63 C 1.2998(4) 0.4073(3) 0.3346(2)
H61 H 1.2690 0.4169 0.3038
C64 C 1.3866(4) 0.4518(3) 0.3313(2)
H62 H 1.4139 0.4926 0.2993
Cl3 Cl 0.41227(13) 0.51969(9) 0.86150(8)
S3 S 0.70751(11) 0.03089(8) 0.96104(6)
O5 O 0.9758(3) 0.2019(2) 0.78162(15)
O6 O 0.8678(3) 0.3358(2) 0.93532(15)
N5 N 1.0680(3) 0.1497(2) 0.84844(16)
N6 N 0.8069(3) 0.1330(3) 0.87223(17)
C65 C 0.5055(5) 0.4433(3) 0.8729(3)
C66 C 0.5205(4) 0.4080(3) 0.9243(3)
H63 H 0.4808 0.4252 0.9539
C67 C 0.5945(4) 0.3467(3) 0.9326(2)
H64 H 0.6047 0.3223 0.9683
C68 C 0.6544(4) 0.3195(3) 0.8904(2)
C69 C 0.7309(4) 0.2494(3) 0.9011(2)
H65 H 0.7311 0.2323 0.9407
C70 C 0.8421(4) 0.2677(3) 0.8706(2)
H66 H 0.8411 0.2933 0.8316
C71 C 0.8923(4) 0.1814(3) 0.8765(2)
C72 C 0.9821(4) 0.1813(3) 0.8292(2)
C73 C 1.1651(4) 0.1324(3) 0.8152(2)
H67 H 1.1502 0.1258 0.7812
H68 H 1.1923 0.0793 0.8344
C74 C 1.2479(4) 0.1956(3) 0.8014(2)
C75 C 1.2430(5) 0.2670(3) 0.7604(2)
H69 H 1.1854 0.2767 0.7429
C76 C 1.3223(5) 0.3246(4) 0.7447(2)
H70 H 1.3193 0.3727 0.7161
C77 C 1.4051(5) 0.3119(4) 0.7706(2)
H71 H 1.4589 0.3512 0.7601
C78 C 0.7059(4) 0.1733(3) 0.8842(2)
H72 H 0.6775 0.1921 0.8504
C79 C 0.9456(4) 0.1513(3) 0.92466(19)
C80 C 0.9112(4) 0.1424(3) 0.9796(2)
H73 H 0.8413 0.1540 0.9930
C81 C 0.9801(4) 0.1161(3) 1.0154(2)
C82 C 1.0811(4) 0.0983(3) 0.9943(2)
H74 H 1.1276 0.0799 1.0183
C83 C 1.1175(4) 0.1063(3) 0.9393(2)
H75 H 1.1870 0.0935 0.9259
C84 C 1.0489(4) 0.1334(3) 0.9056(2)
C85 C 1.4093(4) 0.2422(4) 0.8115(2)
H76 H 1.4658 0.2335 0.8297
C86 C 1.3319(4) 0.1844(3) 0.8267(2)
H77 H 1.3364 0.1360 0.8549
C87 C 0.9455(4) 0.1075(3) 1.0744(2)
H78 H 0.9093 0.0552 1.0915
H79 H 0.8987 0.1529 1.0798
H80 H 1.0057 0.1087 1.0906
C88 C 0.9003(4) 0.3248(3) 0.8908(2)
C89 C 0.9938(4) 0.3637(3) 0.8548(2)
H81 H 0.9980 0.3728 0.8171
C90 C 1.0741(4) 0.3876(3) 0.8709(2)
C91 C 1.0841(5) 0.3738(4) 0.9278(3)
H82 H 1.0637 0.4237 0.9394
H83 H 1.1559 0.3600 0.9310
H84 H 1.0392 0.3284 0.9506
C92 C 1.1642(5) 0.4315(4) 0.8299(3)
H85 H 1.1514 0.4386 0.7935
H86 H 1.2273 0.3989 0.8341
H87 H 1.1725 0.4854 0.8356
C93 C 0.8023(4) 0.0459(3) 0.8984(2)
H88 H 0.8708 0.0253 0.9061
H89 H 0.7817 0.0156 0.8749
C94 C 0.6305(4) 0.1124(3) 0.9266(2)
H90 H 0.5837 0.0900 0.9090
H91 H 0.5882 0.1399 0.9525
C95 C 0.6381(5) 0.3572(3) 0.8383(2)
H92 H 0.6775 0.3408 0.8084
C96 C 0.5631(5) 0.4197(3) 0.8303(2)
H93 H 0.5526 0.4455 0.7948
Cl4 Cl 0.98404(11) 0.40457(9) 0.09791(7)
S4 S 0.56600(11) 0.03847(8) 0.08720(6)
O7 O 0.4968(3) 0.3666(2) 0.05482(16)
O8 O 0.3353(3) 0.1839(2) 0.24152(14)
N7 N 0.2364(3) 0.2070(2) 0.17624(16)
N8 N 0.4786(3) 0.1151(2) 0.16115(16)
C97 C 0.8693(4) 0.3551(3) 0.1016(2)
C98 C 0.8016(4) 0.3318(3) 0.1502(2)
H94 H 0.8153 0.3448 0.1811
C99 C 0.7130(4) 0.2891(3) 0.1538(2)
H95 H 0.6680 0.2698 0.1877
C100 C 0.6898(4) 0.2743(3) 0.1078(2)
C101 C 0.5940(3) 0.2265(3) 0.1114(2)
H96 H 0.5900 0.2245 0.0742
C102 C 0.4922(4) 0.2605(3) 0.1360(2)
H97 H 0.4989 0.2686 0.1715
C103 C 0.4157(4) 0.1889(3) 0.14695(19)
C104 C 0.3265(4) 0.1927(3) 0.1951(2)
C105 C 0.1366(4) 0.2209(3) 0.2084(2)
H98 H 0.1089 0.2748 0.1906
H99 H 0.1465 0.2232 0.2443
C106 C 0.0589(4) 0.1553(3) 0.2157(2)
C107 C 0.0874(4) 0.0740(3) 0.2176(2)
H100 H 0.1583 0.0590 0.2132
C108 C 0.0136(4) 0.0150(3) 0.2258(2)
H101 H 0.0337 -0.0405 0.2281
C109 C -0.0902(4) 0.0373(3) 0.2309(2)
H102 H -0.1410 -0.0029 0.2359
C110 C 0.7572(4) 0.3005(3) 0.0595(2)
H103 H 0.7421 0.2903 0.0280
C111 C 0.8478(4) 0.3420(3) 0.0558(2)
H104 H 0.8936 0.3607 0.0221
C112 C 0.5902(4) 0.1376(3) 0.1478(2)
H105 H 0.6139 0.1368 0.1817
C113 C 0.4557(4) 0.3406(3) 0.1023(2)
C114 C 0.3693(4) 0.3810(3) 0.1314(3)
H106 H 0.3643 0.3704 0.1693
C115 C 0.2981(4) 0.4306(3) 0.1101(3)
C116 C 0.2943(5) 0.4526(4) 0.0519(3)
H107 H 0.3376 0.4144 0.0348
H108 H 0.3198 0.5087 0.0348
H109 H 0.2229 0.4493 0.0477
C117 C 0.2141(5) 0.4662(4) 0.1463(3)
H110 H 0.2318 0.4564 0.1820
H111 H 0.1482 0.4398 0.1499
H112 H 0.2082 0.5254 0.1304
C118 C 0.2523(4) 0.2116(3) 0.1209(2)
C119 C 0.3558(4) 0.1974(3) 0.1016(2)
C120 C 0.3888(4) 0.2001(3) 0.0472(2)
H113 H 0.4595 0.1914 0.0334
C121 C 0.3167(4) 0.2157(3) 0.0131(2)
C122 C 0.3502(4) 0.2155(3) -0.0447(2)
H114 H 0.3723 0.1600 -0.0469
H115 H 0.4079 0.2536 -0.0618
H116 H 0.2924 0.2328 -0.0635
C123 C 0.2149(4) 0.2301(3) 0.0347(2)
H117 H 0.1664 0.2417 0.0115
C124 C 0.1801(4) 0.2285(3) 0.0882(2)
H118 H 0.1097 0.2385 0.1018
C125 C -0.1190(4) 0.1163(3) 0.2286(2)
H119 H -0.1901 0.1310 0.2323
C126 C -0.0450(4) 0.1762(3) 0.2208(3)
H120 H -0.0659 0.2314 0.2191
C127 C 0.4610(4) 0.0434(3) 0.1437(2)
H121 H 0.3936 0.0484 0.1322
H122 H 0.4604 -0.0070 0.1737
C128 C 0.6509(4) 0.0739(3) 0.1226(2)
H123 H 0.6715 0.0275 0.1509
H124 H 0.7140 0.0986 0.0972
loop_
_geom_bond_atom_site_label_1
_geom_bond_atom_site_label_2
_geom_bond_site_symmetry_1
_geom_bond_site_symmetry_2
Cl1 C1 1_555 1_555
S1 C21 1_555 1_555
O1 C16 1_555 1_555
O2 C8 1_555 1_555
N1 C8 1_555 1_555
N2 C7 1_555 1_555
C1 C2 1_555 1_555
C2 H1 1_555 1_555
C3 C2 1_555 1_555
H2 C3 1_555 1_555
C4 C3 1_555 1_555
C5 C4 1_555 1_555
H3 C5 1_555 1_555
C6 C5 1_555 1_555
H4 C6 1_555 1_555
C7 C6 1_555 1_555
C8 C7 1_555 1_555
C9 N1 1_555 1_555
H5 C9 1_555 1_555
H6 C9 1_555 1_555
C10 C9 1_555 1_555
C11 C10 1_555 1_555
H7 C11 1_555 1_555
C12 C11 1_555 1_555
H8 C12 1_555 1_555
C13 C12 1_555 1_555
H9 C13 1_555 1_555
C14 C4 1_555 1_555
H10 C14 1_555 1_555
C15 C1 1_555 1_555
H11 C15 1_555 1_555
C16 C6 1_555 1_555
C17 C16 1_555 1_555
H12 C17 1_555 1_555
C18 C17 1_555 1_555
C19 C18 1_555 1_555
H13 C19 1_555 1_555
H14 C19 1_555 1_555
H15 C19 1_555 1_555
C20 C18 1_555 1_555
H16 C20 1_555 1_555
H17 C20 1_555 1_555
H18 C20 1_555 1_555
C21 N2 1_555 1_555
H19 C21 1_555 1_555
H20 C21 1_555 1_555
C22 S1 1_555 1_555
H21 C22 1_555 1_555
H22 C22 1_555 1_555
C23 N2 1_555 1_555
H23 C23 1_555 1_555
C24 C7 1_555 1_555
C25 C24 1_555 1_555
H24 C25 1_555 1_555
C26 C25 1_555 1_555
C27 C26 1_555 1_555
H25 C27 1_555 1_555
H26 C27 1_555 1_555
H27 C27 1_555 1_555
C28 C26 1_555 1_555
H28 C28 1_555 1_555
C29 C28 1_555 1_555
H29 C29 1_555 1_555
C30 N1 1_555 1_555
C31 C13 1_555 1_555
H30 C31 1_555 1_555
C32 C10 1_555 1_555
H31 C32 1_555 1_555
Cl2 C33 1_555 1_555
S2 C60 1_555 1_555
O3 C46 1_555 1_555
O4 C40 1_555 1_555
N3 C40 1_555 1_555
N4 C39 1_555 1_555
C33 C34 1_555 1_555
C34 H32 1_555 1_555
C35 C34 1_555 1_555
H33 C35 1_555 1_555
C36 C35 1_555 1_555
C37 C36 1_555 1_555
H34 C37 1_555 1_555
C38 C37 1_555 1_555
H35 C38 1_555 1_555
C39 C38 1_555 1_555
C40 C39 1_555 1_555
C41 N3 1_555 1_555
H36 C41 1_555 1_555
H37 C41 1_555 1_555
C42 C41 1_555 1_555
C43 C42 1_555 1_555
H38 C43 1_555 1_555
C44 C43 1_555 1_555
H39 C44 1_555 1_555
C45 C44 1_555 1_555
H40 C45 1_555 1_555
C46 C38 1_555 1_555
C47 C46 1_555 1_555
H41 C47 1_555 1_555
C48 C47 1_555 1_555
C49 C48 1_555 1_555
H42 C49 1_555 1_555
H43 C49 1_555 1_555
H44 C49 1_555 1_555
C50 C48 1_555 1_555
H45 C50 1_555 1_555
H46 C50 1_555 1_555
H47 C50 1_555 1_555
C51 N3 1_555 1_555
C52 C39 1_555 1_555
C53 C52 1_555 1_555
H48 C53 1_555 1_555
C54 C53 1_555 1_555
C55 C54 1_555 1_555
H49 C55 1_555 1_555
C56 C51 1_555 1_555
H50 C56 1_555 1_555
C57 C54 1_555 1_555
H51 C57 1_555 1_555
H52 C57 1_555 1_555
H53 C57 1_555 1_555
C58 C45 1_555 1_555
H54 C58 1_555 1_555
C59 C42 1_555 1_555
H55 C59 1_555 1_555
C60 N4 1_555 1_555
H56 C60 1_555 1_555
H57 C60 1_555 1_555
C61 S2 1_555 1_555
H58 C61 1_555 1_555
H59 C61 1_555 1_555
C62 N4 1_555 1_555
H60 C62 1_555 1_555
C63 C36 1_555 1_555
H61 C63 1_555 1_555
C64 C33 1_555 1_555
H62 C64 1_555 1_555
Cl3 C65 1_555 1_555
S3 C93 1_555 1_555
O5 C72 1_555 1_555
O6 C88 1_555 1_555
N5 C72 1_555 1_555
N6 C71 1_555 1_555
C65 C66 1_555 1_555
C66 H63 1_555 1_555
C67 C66 1_555 1_555
H64 C67 1_555 1_555
C68 C67 1_555 1_555
C69 C68 1_555 1_555
H65 C69 1_555 1_555
C70 C69 1_555 1_555
H66 C70 1_555 1_555
C71 C70 1_555 1_555
C72 C71 1_555 1_555
C73 N5 1_555 1_555
H67 C73 1_555 1_555
H68 C73 1_555 1_555
C74 C73 1_555 1_555
C75 C74 1_555 1_555
H69 C75 1_555 1_555
C76 C75 1_555 1_555
H70 C76 1_555 1_555
C77 C76 1_555 1_555
H71 C77 1_555 1_555
C78 N6 1_555 1_555
H72 C78 1_555 1_555
C79 C71 1_555 1_555
C80 C79 1_555 1_555
H73 C80 1_555 1_555
C81 C80 1_555 1_555
C82 C81 1_555 1_555
H74 C82 1_555 1_555
C83 C82 1_555 1_555
H75 C83 1_555 1_555
C84 N5 1_555 1_555
C85 C77 1_555 1_555
H76 C85 1_555 1_555
C86 C74 1_555 1_555
H77 C86 1_555 1_555
C87 C81 1_555 1_555
H78 C87 1_555 1_555
H79 C87 1_555 1_555
H80 C87 1_555 1_555
C88 C70 1_555 1_555
C89 C88 1_555 1_555
H81 C89 1_555 1_555
C90 C89 1_555 1_555
C91 C90 1_555 1_555
H82 C91 1_555 1_555
H83 C91 1_555 1_555
H84 C91 1_555 1_555
C92 C90 1_555 1_555
H85 C92 1_555 1_555
H86 C92 1_555 1_555
H87 C92 1_555 1_555
C93 N6 1_555 1_555
H88 C93 1_555 1_555
H89 C93 1_555 1_555
C94 S3 1_555 1_555
H90 C94 1_555 1_555
H91 C94 1_555 1_555
C95 C68 1_555 1_555
H92 C95 1_555 1_555
C96 C65 1_555 1_555
H93 C96 1_555 1_555
Cl4 C97 1_555 1_555
S4 C127 1_555 1_555
O7 C113 1_555 1_555
O8 C104 1_555 1_555
N7 C104 1_555 1_555
N8 C103 1_555 1_555
C97 C98 1_555 1_555
C98 H94 1_555 1_555
C99 C98 1_555 1_555
H95 C99 1_555 1_555
C100 C99 1_555 1_555
C101 C100 1_555 1_555
H96 C101 1_555 1_555
C102 C101 1_555 1_555
H97 C102 1_555 1_555
C103 C102 1_555 1_555
C104 C103 1_555 1_555
C105 N7 1_555 1_555
H98 C105 1_555 1_555
H99 C105 1_555 1_555
C106 C105 1_555 1_555
C107 C106 1_555 1_555
H100 C107 1_555 1_555
C108 C107 1_555 1_555
H101 C108 1_555 1_555
C109 C108 1_555 1_555
H102 C109 1_555 1_555
C110 C100 1_555 1_555
H103 C110 1_555 1_555
C111 C97 1_555 1_555
H104 C111 1_555 1_555
C112 N8 1_555 1_555
H105 C112 1_555 1_555
C113 C102 1_555 1_555
C114 C113 1_555 1_555
H106 C114 1_555 1_555
C115 C114 1_555 1_555
C116 C115 1_555 1_555
H107 C116 1_555 1_555
H108 C116 1_555 1_555
H109 C116 1_555 1_555
C117 C115 1_555 1_555
H110 C117 1_555 1_555
H111 C117 1_555 1_555
H112 C117 1_555 1_555
C118 N7 1_555 1_555
C119 C103 1_555 1_555
C120 C119 1_555 1_555
H113 C120 1_555 1_555
C121 C120 1_555 1_555
C122 C121 1_555 1_555
H114 C122 1_555 1_555
H115 C122 1_555 1_555
H116 C122 1_555 1_555
C123 C121 1_555 1_555
H117 C123 1_555 1_555
C124 C118 1_555 1_555
H118 C124 1_555 1_555
C125 C109 1_555 1_555
H119 C125 1_555 1_555
C126 C106 1_555 1_555
H120 C126 1_555 1_555
C127 N8 1_555 1_555
H121 C127 1_555 1_555
H122 C127 1_555 1_555
C128 S4 1_555 1_555
H123 C128 1_555 1_555
H124 C128 1_555 1_555
C5 C23 1_555 1_555
C14 C15 1_555 1_555
C22 C23 1_555 1_555
C24 C30 1_555 1_555
C29 C30 1_555 1_555
C31 C32 1_555 1_555
C37 C62 1_555 1_555
C51 C52 1_555 1_555
C55 C56 1_555 1_555
C58 C59 1_555 1_555
C61 C62 1_555 1_555
C63 C64 1_555 1_555
C69 C78 1_555 1_555
C78 C94 1_555 1_555
C79 C84 1_555 1_555
C83 C84 1_555 1_555
C85 C86 1_555 1_555
C95 C96 1_555 1_555
C101 C112 1_555 1_555
C110 C111 1_555 1_555
C112 C128 1_555 1_555
C118 C119 1_555 1_555
C123 C124 1_555 1_555
C125 C126 1_555 1_555

#END
