
#######################################################################
#
#                 Cambridge Crystallographic Data Centre
#                                CCDC 
#
#######################################################################
#
# If this CIF has been generated from an entry in the Cambridge 
# Structural Database, then it will include bibliographic, chemical, 
# crystal, experimental, refinement or atomic coordinate data resulting 
# from the CCDC's data processing and validation procedures.
#
#######################################################################

data_SUKWUS
_chemical_formula_moiety         'C17 H12 Cl1 N3'
_chemical_name_systematic        
2-(2-Chlorophenyl)-1-methylpyrazolo[1,5-c]quinazoline
_symmetry_cell_setting           monoclinic
_symmetry_space_group_name_H-M   'P 21/c'
_symmetry_Int_Tables_number      14
_space_group_name_Hall           '-P 2ybc'
loop_
_symmetry_equiv_pos_site_id
_symmetry_equiv_pos_as_xyz
1 x,y,z
2 -x,1/2+y,1/2-z
3 -x,-y,-z
4 x,1/2-y,1/2+z
_cell_length_a                   7.4330(15)
_cell_length_b                   24.311(5)
_cell_length_c                   8.0510(15)
_cell_angle_alpha                90
_cell_angle_beta                 101.805(3)
_cell_angle_gamma                90
_cell_volume                     1424.07
_exptl_crystal_description       block
_cell_formula_units_Z            4
loop_
_atom_site_label
_atom_site_type_symbol
_atom_site_fract_x
_atom_site_fract_y
_atom_site_fract_z
C1 C 0.7928(2) 0.25512(6) 0.68556(17)
C2 C 0.9430(2) 0.27195(7) 0.61908(19)
H1 H 0.9631 0.3092 0.6040
C3 C 1.0611(3) 0.23372(9) 0.5759(2)
H2 H 1.1606 0.2452 0.5309
C4 C 1.0332(3) 0.17846(9) 0.5987(2)
H3 H 1.1135 0.1528 0.5681
C5 C 0.8891(3) 0.16100(7) 0.6657(2)
H4 H 0.8734 0.1236 0.6827
C6 C 0.7645(3) 0.19871(6) 0.70926(19)
N1 N 0.6200(2) 0.17821(5) 0.77715(16)
N2 N 0.52487(18) 0.26866(4) 0.80072(14)
C7 C 0.4717(2) 0.35376(5) 0.80140(17)
C8 C 0.6291(2) 0.34831(5) 0.73218(17)
C9 C 0.7390(3) 0.39392(6) 0.6752(2)
H5 H 0.8616 0.3935 0.7422
H6 H 0.6822 0.4286 0.6891
H7 H 0.7432 0.3888 0.5578
C10 C 0.3767(2) 0.40494(5) 0.83480(19)
C11 C 0.3807(2) 0.42098(5) 1.0007(2)
H8 H 0.4445 0.3997 1.0895
C12 C 0.2921(3) 0.46785(6) 1.0363(2)
H9 H 0.2951 0.4777 1.1485
C13 C 0.1999(3) 0.49984(6) 0.9080(3)
H10 H 0.1417 0.5317 0.9330
C14 C 0.1925(3) 0.48537(7) 0.7422(3)
H11 H 0.1292 0.5072 0.6544
C15 C 0.2801(3) 0.43801(6) 0.7074(2)
Cl1 Cl 0.26140(11) 0.41873(2) 0.49672(6)
C16 C 0.5085(3) 0.21293(6) 0.81994(18)
H12 H 0.4119 0.1998 0.8662
C17 C 0.6617(2) 0.29247(5) 0.73283(16)
N3 N 0.40616(18) 0.30589(4) 0.84519(15)
loop_
_geom_bond_atom_site_label_1
_geom_bond_atom_site_label_2
_geom_bond_site_symmetry_1
_geom_bond_site_symmetry_2
C1 C2 1_555 1_555
C2 H1 1_555 1_555
C3 C2 1_555 1_555
H2 C3 1_555 1_555
C4 C3 1_555 1_555
H3 C4 1_555 1_555
C5 C4 1_555 1_555
H4 C5 1_555 1_555
C6 C1 1_555 1_555
N1 C6 1_555 1_555
N2 C16 1_555 1_555
C7 C8 1_555 1_555
C8 C9 1_555 1_555
C9 H5 1_555 1_555
H6 C9 1_555 1_555
H7 C9 1_555 1_555
C10 C7 1_555 1_555
C11 C10 1_555 1_555
H8 C11 1_555 1_555
C12 C11 1_555 1_555
H9 C12 1_555 1_555
C13 C12 1_555 1_555
H10 C13 1_555 1_555
C14 C13 1_555 1_555
H11 C14 1_555 1_555
C15 C10 1_555 1_555
Cl1 C15 1_555 1_555
C16 N1 1_555 1_555
H12 C16 1_555 1_555
C17 C1 1_555 1_555
N3 N2 1_555 1_555
C5 C6 1_555 1_555
N2 C17 1_555 1_555
C7 N3 1_555 1_555
C8 C17 1_555 1_555
C14 C15 1_555 1_555

#END
