
#######################################################################
#
#                 Cambridge Crystallographic Data Centre
#                                CCDC 
#
#######################################################################
#
# If this CIF has been generated from an entry in the Cambridge 
# Structural Database, then it will include bibliographic, chemical, 
# crystal, experimental, refinement or atomic coordinate data resulting 
# from the CCDC's data processing and validation procedures.
#
#######################################################################

data_SUKWEC
_chemical_formula_moiety         'C17 H13 N1 O2 S1'
_chemical_name_systematic        
'methyl benzo[b]indeno[1,2-e][1,4]thiazine-5(11H)-carboxylate'
_symmetry_cell_setting           monoclinic
_symmetry_space_group_name_H-M   'P 21/n'
_symmetry_Int_Tables_number      14
_space_group_name_Hall           '-P 2yn'
loop_
_symmetry_equiv_pos_site_id
_symmetry_equiv_pos_as_xyz
1 x,y,z
2 1/2-x,1/2+y,1/2-z
3 -x,-y,-z
4 1/2+x,1/2-y,1/2+z
_cell_length_a                   14.7058(14)
_cell_length_b                   6.6564(7)
_cell_length_c                   15.1629(15)
_cell_angle_alpha                90
_cell_angle_beta                 112.8020(10)
_cell_angle_gamma                90
_cell_volume                     1368.27
_exptl_crystal_colour            orange
_exptl_crystal_description       block
_cell_formula_units_Z            4
loop_
_atom_site_label
_atom_site_type_symbol
_atom_site_fract_x
_atom_site_fract_y
_atom_site_fract_z
S1 S 0.19337(2) 0.43968(4) -0.00653(2)
O1 O 0.29647(6) -0.03028(14) -0.19544(6)
O2 O 0.13100(6) 0.00959(13) -0.26588(6)
N1 N 0.20411(6) 0.04876(15) -0.10791(7)
C1 C 0.28823(7) 0.08878(18) -0.02114(8)
C2 C 0.36608(8) -0.04715(18) 0.01173(9)
H1 H 0.3625 -0.1700 -0.0214
C3 C 0.44913(8) -0.0031(2) 0.09303(9)
H2 H 0.5032 -0.0940 0.1142
C4 C 0.45356(8) 0.1724(2) 0.14335(9)
H3 H 0.5107 0.2020 0.1986
C5 C 0.37467(8) 0.3053(2) 0.11326(9)
H4 H 0.3770 0.4237 0.1491
C6 C 0.29161(8) 0.26476(18) 0.03010(8)
C7 C 0.09815(7) 0.27168(16) -0.06494(8)
C8 C -0.00419(7) 0.28066(16) -0.06511(8)
H5 H -0.0401 0.4015 -0.0991
H6 H -0.0025 0.2797 0.0008
C9 C -0.04983(7) 0.09137(17) -0.11810(7)
C10 C -0.14454(8) 0.01828(18) -0.14202(8)
H7 H -0.1912 0.0905 -0.1253
C11 C -0.16993(8) -0.16337(19) -0.19110(8)
H8 H -0.2347 -0.2152 -0.2085
C12 C -0.10108(8) -0.26980(18) -0.21499(8)
H9 H -0.1198 -0.3930 -0.2489
C13 C -0.00501(8) -0.19856(17) -0.19003(8)
H10 H 0.0421 -0.2728 -0.2054
C14 C 0.01982(7) -0.01588(16) -0.14210(7)
C15 C 0.11068(7) 0.10341(17) -0.10806(7)
C16 C 0.21782(8) 0.00553(17) -0.19104(8)
C17 C 0.13570(9) -0.03065(19) -0.35734(8)
H11 H 0.0737 0.0108 -0.4085
H12 H 0.1459 -0.1748 -0.3630
H13 H 0.1906 0.0446 -0.3627
loop_
_geom_bond_atom_site_label_1
_geom_bond_atom_site_label_2
_geom_bond_site_symmetry_1
_geom_bond_site_symmetry_2
S1 C6 1_555 1_555
O1 C16 1_555 1_555
O2 C16 1_555 1_555
N1 C1 1_555 1_555
C1 C2 1_555 1_555
C2 H1 1_555 1_555
C3 C2 1_555 1_555
H2 C3 1_555 1_555
C4 C3 1_555 1_555
H3 C4 1_555 1_555
C5 C4 1_555 1_555
H4 C5 1_555 1_555
C6 C1 1_555 1_555
C7 S1 1_555 1_555
C8 C7 1_555 1_555
H5 C8 1_555 1_555
H6 C8 1_555 1_555
C9 C8 1_555 1_555
C10 C9 1_555 1_555
H7 C10 1_555 1_555
C11 C10 1_555 1_555
H8 C11 1_555 1_555
C12 C11 1_555 1_555
H9 C12 1_555 1_555
C13 C12 1_555 1_555
H10 C13 1_555 1_555
C14 C9 1_555 1_555
C15 N1 1_555 1_555
C16 N1 1_555 1_555
C17 O2 1_555 1_555
H11 C17 1_555 1_555
H12 C17 1_555 1_555
H13 C17 1_555 1_555
C5 C6 1_555 1_555
C7 C15 1_555 1_555
C13 C14 1_555 1_555
C14 C15 1_555 1_555

#END
