
#######################################################################
#
#                 Cambridge Crystallographic Data Centre
#                                CCDC 
#
#######################################################################
#
# If this CIF has been generated from an entry in the Cambridge 
# Structural Database, then it will include bibliographic, chemical, 
# crystal, experimental, refinement or atomic coordinate data resulting 
# from the CCDC's data processing and validation procedures.
#
#######################################################################

data_SULDAZ08
_chemical_name_common            sulfadiazine
_chemical_formula_moiety         'C10 H10 N4 O2 S1'
_chemical_name_systematic        
4-amino-N-(pyrimidin-2-yl)benzene-1-sulfonamide
_chemical_properties_biological  'Sulfadiazine is an antibiotic.'
_symmetry_cell_setting           monoclinic
_symmetry_space_group_name_H-M   'P 21/c'
_symmetry_Int_Tables_number      14
_space_group_name_Hall           '-P 2ybc'
loop_
_symmetry_equiv_pos_site_id
_symmetry_equiv_pos_as_xyz
1 x,y,z
2 -x,1/2+y,1/2-z
3 -x,-y,-z
4 x,1/2-y,1/2+z
_cell_length_a                   13.657(3)
_cell_length_b                   5.9307(12)
_cell_length_c                   15.014(3)
_cell_angle_alpha                90
_cell_angle_beta                 114.62(3)
_cell_angle_gamma                90
_cell_volume                     1105.52
_exptl_crystal_colour            colorless
_exptl_crystal_description       prism
_cell_formula_units_Z            4
loop_
_atom_site_label
_atom_site_type_symbol
_atom_site_fract_x
_atom_site_fract_y
_atom_site_fract_z
S1 S 0.23520(4) 0.63349(10) 0.44197(4)
O1 O 0.20626(13) 0.8608(3) 0.41299(12)
O2 O 0.21019(12) 0.4604(3) 0.36910(11)
N1 N 0.39594(15) 0.9198(3) 0.60350(13)
N2 N 0.54027(13) 0.7416(3) 0.57982(11)
N3 N 0.36758(14) 0.6128(3) 0.49883(13)
H1 H 0.3963 0.4944 0.4867
N4 N 0.06582(16) 0.3847(3) 0.73177(14)
H2 H 0.0281 0.4798 0.7475
H3 H 0.0784 0.2528 0.7580
C1 C 0.4677(2) 1.0656(4) 0.66329(16)
H4 H 0.4431 1.1780 0.6921
C2 C 0.57535(19) 1.0594(4) 0.68470(16)
H5 H 0.6235 1.1629 0.7270
C3 C 0.60828(18) 0.8918(4) 0.64024(15)
H6 H 0.6808 0.8828 0.6528
C4 C 0.43689(17) 0.7661(3) 0.56385(14)
C5 C 0.18511(15) 0.5583(4) 0.52699(14)
C6 C 0.12615(18) 0.7138(4) 0.55373(16)
H7 H 0.1134 0.8569 0.5259
C7 C 0.08671(19) 0.6564(4) 0.62126(17)
H8 H 0.0466 0.7609 0.6382
C8 C 0.10599(16) 0.4436(4) 0.66477(15)
C9 C 0.16468(18) 0.2865(4) 0.63610(15)
H9 H 0.1778 0.1431 0.6637
C10 C 0.20287(17) 0.3445(4) 0.56701(16)
H10 H 0.2406 0.2393 0.5475
loop_
_geom_bond_atom_site_label_1
_geom_bond_atom_site_label_2
_geom_bond_site_symmetry_1
_geom_bond_site_symmetry_2
S1 O1 1_555 1_555
O2 S1 1_555 1_555
N1 C1 1_555 1_555
N2 C3 1_555 1_555
N3 S1 1_555 1_555
H1 N3 1_555 1_555
N4 H2 1_555 1_555
H3 N4 1_555 1_555
C1 H4 1_555 1_555
C2 C1 1_555 1_555
H5 C2 1_555 1_555
C3 C2 1_555 1_555
H6 C3 1_555 1_555
C4 N1 1_555 1_555
C5 S1 1_555 1_555
C6 C5 1_555 1_555
H7 C6 1_555 1_555
C7 C6 1_555 1_555
H8 C7 1_555 1_555
C8 N4 1_555 1_555
C9 C8 1_555 1_555
H9 C9 1_555 1_555
C10 C5 1_555 1_555
H10 C10 1_555 1_555
N2 C4 1_555 1_555
N3 C4 1_555 1_555
C7 C8 1_555 1_555
C9 C10 1_555 1_555

#END
