
#######################################################################
#
#                 Cambridge Crystallographic Data Centre
#                                CCDC 
#
#######################################################################
#
# If this CIF has been generated from an entry in the Cambridge 
# Structural Database, then it will include bibliographic, chemical, 
# crystal, experimental, refinement or atomic coordinate data resulting 
# from the CCDC's data processing and validation procedures.
#
#######################################################################

data_SULFAI
_chemical_formula_moiety         'C26 H26 N2 O2'
_chemical_name_systematic        
'Ethyl 3-methyl-2-(13-methyl-1,9-diazatetracyclo[7.7.1.0^2,7^.0^10,15^]heptadeca-2,4,6,10,12,14-hexaen-5-yl)benzoate'
_symmetry_cell_setting           monoclinic
_symmetry_space_group_name_H-M   'P 21/n'
_symmetry_Int_Tables_number      14
_space_group_name_Hall           '-P 2yn'
loop_
_symmetry_equiv_pos_site_id
_symmetry_equiv_pos_as_xyz
1 x,y,z
2 1/2-x,1/2+y,1/2-z
3 -x,-y,-z
4 1/2+x,1/2-y,1/2+z
_cell_length_a                   12.9987(8)
_cell_length_b                   10.6699(6)
_cell_length_c                   14.9873(9)
_cell_angle_alpha                90
_cell_angle_beta                 101.916(2)
_cell_angle_gamma                90
_cell_volume                     2033.87
_exptl_crystal_colour            colorless
_exptl_crystal_description       plate
_cell_formula_units_Z            4
loop_
_atom_site_label
_atom_site_type_symbol
_atom_site_fract_x
_atom_site_fract_y
_atom_site_fract_z
C1 C 0.56818(11) 0.24527(13) 0.07901(10)
H1 H 0.6382 0.2548 0.0635
H2 H 0.5239 0.1944 0.0305
C2 C 0.63513(10) 0.25536(13) 0.23936(9)
C3 C 0.67686(11) 0.19812(13) 0.32290(10)
H3 H 0.6656 0.1112 0.3308
C4 C 0.73445(11) 0.26736(13) 0.39416(10)
H4 H 0.7623 0.2275 0.4507
C5 C 0.75197(11) 0.39520(13) 0.38378(10)
C6 C 0.70792(11) 0.45188(13) 0.30101(10)
H5 H 0.7185 0.5391 0.2937
C7 C 0.64888(10) 0.38455(13) 0.22856(9)
C8 C 0.59796(11) 0.45019(13) 0.14028(9)
H6 H 0.5625 0.5274 0.1548
H7 H 0.6531 0.4749 0.1070
C9 C 0.81792(12) 0.46948(14) 0.45987(10)
H8 H 0.8905 0.4734 0.4510
H9 H 0.8167 0.4289 0.5183
H10 H 0.7896 0.5546 0.4599
C10 C 0.42305(10) 0.35913(13) 0.11155(9)
C11 C 0.35275(11) 0.46029(13) 0.09602(9)
H11 H 0.3721 0.5350 0.0692
C12 C 0.25543(11) 0.45207(13) 0.11948(10)
H12 H 0.2085 0.5212 0.1086
C13 C 0.22545(11) 0.34240(13) 0.15926(9)
C14 C 0.29694(11) 0.24350(12) 0.17658(9)
H13 H 0.2779 0.1694 0.2043
C15 C 0.39601(10) 0.25066(12) 0.15412(9)
C16 C 0.47395(10) 0.14396(13) 0.17859(10)
H14 H 0.4777 0.1195 0.2429
H15 H 0.4489 0.0705 0.1398
C17 C 0.12151(11) 0.33043(12) 0.18610(10)
C18 C 0.02767(11) 0.32309(13) 0.11929(10)
C19 C -0.06716(11) 0.30388(14) 0.14736(11)
H16 H -0.1308 0.3015 0.1028
C20 C -0.07096(12) 0.28824(15) 0.23840(11)
H17 H -0.1364 0.2745 0.2556
C21 C 0.02128(12) 0.29281(14) 0.30428(11)
H18 H 0.0196 0.2801 0.3667
C22 C 0.11661(11) 0.31626(13) 0.27824(10)
C23 C 0.21192(11) 0.32931(13) 0.35346(10)
C24 C 0.02903(12) 0.32885(15) 0.01875(10)
H19 H -0.0432 0.3262 -0.0168
H20 H 0.0685 0.2572 0.0023
H21 H 0.0627 0.4069 0.0056
O1 O 0.26484(10) 0.43530(12) 0.34331(10)
C25 C 0.36273(12) 0.46190(16) 0.40750(11)
H22 H 0.3756 0.3972 0.4559
H23 H 0.3581 0.5444 0.4366
C26 C 0.45158(14) 0.4626(2) 0.35714(13)
H24 H 0.4595 0.3787 0.3328
H25 H 0.5169 0.4866 0.3990
H26 H 0.4362 0.5228 0.3068
N1 N 0.57992(9) 0.17896(11) 0.16623(8)
N2 N 0.52062(9) 0.36876(11) 0.08136(8)
O2 O 0.23500(9) 0.25842(10) 0.41727(7)
loop_
_geom_bond_atom_site_label_1
_geom_bond_atom_site_label_2
_geom_bond_site_symmetry_1
_geom_bond_site_symmetry_2
C1 H1 1_555 1_555
H2 C1 1_555 1_555
C2 C3 1_555 1_555
C3 H3 1_555 1_555
C4 C3 1_555 1_555
H4 C4 1_555 1_555
C5 C4 1_555 1_555
C6 C5 1_555 1_555
H5 C6 1_555 1_555
C7 C2 1_555 1_555
C8 C7 1_555 1_555
H6 C8 1_555 1_555
H7 C8 1_555 1_555
C9 C5 1_555 1_555
H8 C9 1_555 1_555
H9 C9 1_555 1_555
H10 C9 1_555 1_555
C10 C11 1_555 1_555
C11 H11 1_555 1_555
C12 C11 1_555 1_555
H12 C12 1_555 1_555
C13 C12 1_555 1_555
C14 C13 1_555 1_555
H13 C14 1_555 1_555
C15 C10 1_555 1_555
C16 C15 1_555 1_555
H14 C16 1_555 1_555
H15 C16 1_555 1_555
C17 C13 1_555 1_555
C18 C17 1_555 1_555
C19 C18 1_555 1_555
H16 C19 1_555 1_555
C20 C19 1_555 1_555
H17 C20 1_555 1_555
C21 C20 1_555 1_555
H18 C21 1_555 1_555
C22 C17 1_555 1_555
C23 C22 1_555 1_555
C24 C18 1_555 1_555
H19 C24 1_555 1_555
H20 C24 1_555 1_555
H21 C24 1_555 1_555
O1 C23 1_555 1_555
C25 O1 1_555 1_555
H22 C25 1_555 1_555
H23 C25 1_555 1_555
C26 C25 1_555 1_555
H24 C26 1_555 1_555
H25 C26 1_555 1_555
H26 C26 1_555 1_555
N1 C1 1_555 1_555
N2 C1 1_555 1_555
O2 C23 1_555 1_555
C2 N1 1_555 1_555
C6 C7 1_555 1_555
C8 N2 1_555 1_555
C10 N2 1_555 1_555
C14 C15 1_555 1_555
C16 N1 1_555 1_555
C21 C22 1_555 1_555

#END
