
#######################################################################
#
#                 Cambridge Crystallographic Data Centre
#                                CCDC 
#
#######################################################################
#
# If this CIF has been generated from an entry in the Cambridge 
# Structural Database, then it will include bibliographic, chemical, 
# crystal, experimental, refinement or atomic coordinate data resulting 
# from the CCDC's data processing and validation procedures.
#
#######################################################################

data_SULGUD
_chemical_formula_moiety         'C27 H26 F2 N2 O2'
_chemical_name_systematic        
'1,3-Difluoropropan-2-yl 3-methyl-2-(13-methyl-1,9-diazatetracyclo[7.7.1.0^2,7^.0^10,15^]heptadeca-2,4,6,10,12,14-hexaen-5-yl)benzoate'
_symmetry_cell_setting           triclinic
_symmetry_space_group_name_H-M   'P 1'
_symmetry_Int_Tables_number      1
_space_group_name_Hall           'P 1'
loop_
_symmetry_equiv_pos_site_id
_symmetry_equiv_pos_as_xyz
1 x,y,z
_cell_length_a                   8.1742(11)
_cell_length_b                   9.0503(12)
_cell_length_c                   15.703(2)
_cell_angle_alpha                85.672(6)
_cell_angle_beta                 75.381(6)
_cell_angle_gamma                74.812(6)
_cell_volume                     1084.77
_exptl_crystal_colour            colorless
_exptl_crystal_description       rod
_cell_formula_units_Z            2
loop_
_atom_site_label
_atom_site_type_symbol
_atom_site_fract_x
_atom_site_fract_y
_atom_site_fract_z
C1 C 1.0754(10) 0.8638(9) 0.3028(4)
H1 H 1.1810 0.7776 0.2968
H2 H 1.1130 0.9560 0.2764
C2 C 0.9426(10) 0.6709(8) 0.2833(4)
H3 H 1.0528 0.5958 0.2567
H4 H 0.8476 0.6485 0.2620
C3 C 0.9041(9) 0.6532(8) 0.3828(4)
C4 C 0.8430(8) 0.5289(7) 0.4246(4)
H5 H 0.8307 0.4532 0.3896
C5 C 0.8001(8) 0.5128(7) 0.5152(4)
C6 C 0.8157(8) 0.6275(7) 0.5659(4)
H6 H 0.7833 0.6212 0.6283
C7 C 0.8777(9) 0.7491(8) 0.5255(4)
H7 H 0.8893 0.8250 0.5606
C8 C 0.9235(8) 0.7631(7) 0.4347(4)
C9 C 0.7349(8) 0.3801(7) 0.5595(4)
C10 C 0.8457(9) 0.2628(7) 0.5987(4)
C11 C 0.7874(9) 0.1375(7) 0.6381(4)
H8 H 0.8618 0.0606 0.6654
C12 C 0.6227(10) 0.1219(8) 0.6384(5)
H9 H 0.5857 0.0343 0.6647
C13 C 0.5122(9) 0.2358(8) 0.5999(4)
H10 H 0.3994 0.2259 0.5996
C14 C 0.5673(9) 0.3651(7) 0.5614(4)
C15 C 0.4350(9) 0.4802(7) 0.5240(4)
C16 C 1.0262(9) 0.2731(8) 0.5990(5)
H11 H 1.0921 0.1744 0.6176
H12 H 1.0180 0.3528 0.6399
H13 H 1.0863 0.2988 0.5396
C17 C 0.3311(9) 0.7444(7) 0.4913(4)
H14 H 0.2393 0.7033 0.4767
C18 C 0.2454(9) 0.8748(8) 0.5545(5)
H15 H 0.1630 0.9542 0.5284
H16 H 0.1777 0.8371 0.6095
C19 C 0.4416(10) 0.7948(8) 0.4081(5)
H17 H 0.3727 0.8872 0.3835
H18 H 0.5438 0.8202 0.4207
C20 C 0.7937(10) 0.9390(8) 0.2701(4)
C21 C 0.6794(10) 0.9453(8) 0.2151(4)
H19 H 0.7139 0.8760 0.1675
C22 C 0.5203(10) 1.0488(9) 0.2289(5)
H20 H 0.4461 1.0495 0.1910
C23 C 0.4645(11) 1.1534(9) 0.2976(5)
C24 C 0.5794(9) 1.1483(8) 0.3517(5)
H21 H 0.5454 1.2195 0.3983
C25 C 0.7390(10) 1.0439(8) 0.3395(4)
C26 C 0.8576(10) 1.0357(8) 0.4024(4)
H22 H 0.9147 1.1214 0.3888
H23 H 0.7851 1.0482 0.4635
C27 C 0.2859(11) 1.2640(10) 0.3158(6)
H24 H 0.2926 1.3603 0.3376
H25 H 0.2039 1.2196 0.3603
H26 H 0.2453 1.2837 0.2615
N1 N 0.9924(8) 0.8907(7) 0.3961(4)
N2 N 0.9586(8) 0.8284(7) 0.2545(4)
O1 O 0.4421(6) 0.6250(5) 0.5334(3)
O2 O 0.3311(7) 0.4475(6) 0.4906(4)
F1 F 0.3681(6) 0.9389(5) 0.5741(3)
F2 F 0.4971(6) 0.6760(5) 0.3479(3)
C28 C 1.2220(9) 0.3364(8) 1.0818(4)
H27 H 1.3254 0.2521 1.0855
H28 H 1.2317 0.4278 1.1091
C29 C 1.0732(10) 0.1396(8) 1.1009(4)
H29 H 0.9575 0.1172 1.1232
H30 H 1.1591 0.0615 1.1258
C30 C 1.1252(9) 0.1295(8) 1.0012(4)
C31 C 1.1024(9) 0.0076(7) 0.9591(4)
H31 H 1.0615 -0.0721 0.9937
C32 C 1.1380(8) 0.0013(7) 0.8689(4)
C33 C 1.1993(8) 0.1186(8) 0.8178(4)
H32 H 1.2245 0.1151 0.7554
C34 C 1.2231(8) 0.2389(7) 0.8579(4)
H33 H 1.2634 0.3184 0.8229
C35 C 1.1885(8) 0.2455(7) 0.9497(4)
C36 C 1.1140(8) -0.1307(7) 0.8248(4)
C37 C 1.2596(9) -0.2437(7) 0.7858(4)
C38 C 1.2389(9) -0.3700(8) 0.7469(4)
H34 H 1.3387 -0.4470 0.7199
C39 C 1.0724(10) -0.3829(8) 0.7475(4)
H35 H 1.0593 -0.4686 0.7209
C40 C 0.9282(10) -0.2732(8) 0.7861(5)
H36 H 0.8151 -0.2837 0.7871
C41 C 0.9457(9) -0.1454(7) 0.8242(4)
C42 C 0.7804(9) -0.0313(8) 0.8639(4)
C43 C 1.4409(10) -0.2332(9) 0.7856(5)
H37 H 1.5258 -0.3283 0.7625
H38 H 1.4464 -0.2177 0.8458
H39 H 1.4682 -0.1468 0.7483
C44 C 0.6502(9) 0.2305(8) 0.8947(4)
H40 H 0.5444 0.1890 0.9116
C45 C 0.6185(10) 0.3636(8) 0.8314(4)
H41 H 0.6012 0.3272 0.7772
H42 H 0.5110 0.4412 0.8587
C46 C 0.6875(10) 0.2755(8) 0.9764(5)
H43 H 0.8022 0.3008 0.9618
H44 H 0.5968 0.3672 1.0022
C47 C 0.9136(10) 0.4037(8) 1.1184(4)
C48 C 0.7512(10) 0.4015(9) 1.1748(5)
H45 H 0.7438 0.3261 1.2202
C49 C 0.6038(11) 0.5071(9) 1.1648(5)
H46 H 0.4954 0.5033 1.2040
C50 C 0.6056(10) 0.6225(9) 1.0983(5)
C51 C 0.7701(11) 0.6219(8) 1.0421(5)
H47 H 0.7777 0.6974 0.9969
C52 C 0.9187(9) 0.5167(8) 1.0505(4)
C53 C 1.0914(9) 0.5148(8) 0.9849(4)
H48 H 1.0722 0.5301 0.9248
H49 H 1.1357 0.6006 0.9975
C54 C 0.4441(13) 0.7367(11) 1.0870(8)
H50 H 0.4722 0.7983 1.0338
H51 H 0.3965 0.8038 1.1383
H52 H 0.3574 0.6833 1.0814
N3 N 1.2224(8) 0.3703(6) 0.9888(4)
N4 N 1.0653(8) 0.2930(7) 1.1307(4)
O3 O 0.7961(6) 0.1130(5) 0.8517(3)
O4 O 0.6482(7) -0.0679(6) 0.8983(4)
F3 F 0.7602(6) 0.4304(5) 0.8098(3)
F4 F 0.6887(6) 0.1542(5) 1.0366(3)
loop_
_geom_bond_atom_site_label_1
_geom_bond_atom_site_label_2
_geom_bond_site_symmetry_1
_geom_bond_site_symmetry_2
C1 H1 1_555 1_555
H2 C1 1_555 1_555
C2 H3 1_555 1_555
H4 C2 1_555 1_555
C3 C2 1_555 1_555
C4 C3 1_555 1_555
H5 C4 1_555 1_555
C5 C4 1_555 1_555
C6 C5 1_555 1_555
H6 C6 1_555 1_555
C7 C6 1_555 1_555
H7 C7 1_555 1_555
C8 C3 1_555 1_555
C9 C5 1_555 1_555
C10 C9 1_555 1_555
C11 C10 1_555 1_555
H8 C11 1_555 1_555
C12 C11 1_555 1_555
H9 C12 1_555 1_555
C13 C12 1_555 1_555
H10 C13 1_555 1_555
C14 C9 1_555 1_555
C15 C14 1_555 1_555
C16 C10 1_555 1_555
H11 C16 1_555 1_555
H12 C16 1_555 1_555
H13 C16 1_555 1_555
C17 H14 1_555 1_555
C18 C17 1_555 1_555
H15 C18 1_555 1_555
H16 C18 1_555 1_555
C19 C17 1_555 1_555
H17 C19 1_555 1_555
H18 C19 1_555 1_555
C20 C21 1_555 1_555
C21 H19 1_555 1_555
C22 C21 1_555 1_555
H20 C22 1_555 1_555
C23 C22 1_555 1_555
C24 C23 1_555 1_555
H21 C24 1_555 1_555
C25 C20 1_555 1_555
C26 C25 1_555 1_555
H22 C26 1_555 1_555
H23 C26 1_555 1_555
C27 C23 1_555 1_555
H24 C27 1_555 1_555
H25 C27 1_555 1_555
H26 C27 1_555 1_555
N1 C1 1_555 1_555
N2 C1 1_555 1_555
O1 C15 1_555 1_555
O2 C15 1_555 1_555
F1 C18 1_555 1_555
F2 C19 1_555 1_555
C28 H27 1_555 1_555
H28 C28 1_555 1_555
C29 H29 1_555 1_555
H30 C29 1_555 1_555
C30 C29 1_555 1_555
C31 C30 1_555 1_555
H31 C31 1_555 1_555
C32 C31 1_555 1_555
C33 C32 1_555 1_555
H32 C33 1_555 1_555
C34 C33 1_555 1_555
H33 C34 1_555 1_555
C35 C30 1_555 1_555
C36 C32 1_555 1_555
C37 C36 1_555 1_555
C38 C37 1_555 1_555
H34 C38 1_555 1_555
C39 C38 1_555 1_555
H35 C39 1_555 1_555
C40 C39 1_555 1_555
H36 C40 1_555 1_555
C41 C36 1_555 1_555
C42 C41 1_555 1_555
C43 C37 1_555 1_555
H37 C43 1_555 1_555
H38 C43 1_555 1_555
H39 C43 1_555 1_555
C44 H40 1_555 1_555
C45 C44 1_555 1_555
H41 C45 1_555 1_555
H42 C45 1_555 1_555
C46 C44 1_555 1_555
H43 C46 1_555 1_555
H44 C46 1_555 1_555
C47 C48 1_555 1_555
C48 H45 1_555 1_555
C49 C48 1_555 1_555
H46 C49 1_555 1_555
C50 C49 1_555 1_555
C51 C50 1_555 1_555
H47 C51 1_555 1_555
C52 C47 1_555 1_555
C53 C52 1_555 1_555
H48 C53 1_555 1_555
H49 C53 1_555 1_555
C54 C50 1_555 1_555
H50 C54 1_555 1_555
H51 C54 1_555 1_555
H52 C54 1_555 1_555
N3 C28 1_555 1_555
N4 C28 1_555 1_555
O3 C42 1_555 1_555
O4 C42 1_555 1_555
F3 C45 1_555 1_555
F4 C46 1_555 1_555
C2 N2 1_555 1_555
C7 C8 1_555 1_555
C8 N1 1_555 1_555
C13 C14 1_555 1_555
C17 O1 1_555 1_555
C20 N2 1_555 1_555
C24 C25 1_555 1_555
C26 N1 1_555 1_555
C29 N4 1_555 1_555
C34 C35 1_555 1_555
C35 N3 1_555 1_555
C40 C41 1_555 1_555
C44 O3 1_555 1_555
C47 N4 1_555 1_555
C51 C52 1_555 1_555
C53 N3 1_555 1_555

#END
