
#######################################################################
#
#                 Cambridge Crystallographic Data Centre
#                                CCDC 
#
#######################################################################
#
# If this CIF has been generated from an entry in the Cambridge 
# Structural Database, then it will include bibliographic, chemical, 
# crystal, experimental, refinement or atomic coordinate data resulting 
# from the CCDC's data processing and validation procedures.
#
#######################################################################

data_SULHOW
_chemical_formula_moiety         'C18 H12 S6'
_chemical_name_systematic        1,3,5-tris(1,4-Dithiafulven-6-yl)benzene
_symmetry_cell_setting           monoclinic
_symmetry_space_group_name_H-M   'P 21/c'
_symmetry_Int_Tables_number      14
_space_group_name_Hall           '-P 2ybc'
loop_
_symmetry_equiv_pos_site_id
_symmetry_equiv_pos_as_xyz
1 x,y,z
2 -x,1/2+y,1/2-z
3 -x,-y,-z
4 x,1/2-y,1/2+z
_cell_length_a                   3.986(1)
_cell_length_b                   21.312(2)
_cell_length_c                   20.473(2)
_cell_angle_alpha                90
_cell_angle_beta                 94.24(1)
_cell_angle_gamma                90
_cell_volume                     1734.41
_exptl_crystal_colour            colorless
_chemical_melting_point          160-165deg.C
_cell_formula_units_Z            4
loop_
_atom_site_label
_atom_site_type_symbol
_atom_site_fract_x
_atom_site_fract_y
_atom_site_fract_z
S1 S 0.0710(3) 0.16152(4) 0.61172(4)
S2 S 0.9975(3) -0.15136(5) 0.68338(5)
S3 S 0.5926(3) 0.06769(5) 0.96050(5)
S4 S 0.2803(3) 0.19186(5) 0.94819(5)
S5 S 1.1724(3) -0.19822(5) 0.81566(5)
S6 S 0.0658(3) 0.08072(5) 0.49597(5)
C1 C 0.7431(8) -0.0263(2) 0.7699(2)
C2 C 0.6729(9) 0.0203(2) 0.8149(2)
C3 C 0.4975(9) 0.0748(2) 0.7964(2)
C4 C 0.3960(9) 0.0824(2) 0.7298(2)
C5 C 0.4648(8) 0.0378(2) 0.6829(2)
C6 C 0.6385(9) -0.0165(2) 0.7041(2)
C7 C 0.4006(9) 0.1238(2) 0.8408(2)
C8 C 0.9049(9) -0.0826(2) 0.7962(2)
C9 C 0.3580(9) 0.0428(2) 0.6130(2)
C10 C 1.0056(9) -0.1352(2) 0.7674(2)
C11 C 0.4265(9) 0.1260(2) 0.9067(2)
C12 C 0.1906(9) 0.0886(2) 0.5804(2)
C13 C 1.172(1) -0.2264(2) 0.6919(2)
C14 C 0.498(1) 0.1053(2) 1.0321(2)
C15 C -0.128(1) 0.1894(2) 0.5391(2)
C16 C -0.130(1) 0.1529(2) 0.4870(2)
C17 C 0.357(1) 0.1615(2) 1.0260(2)
C18 C 1.248(1) -0.2475(2) 0.7514(2)
H1 H 0.7453 0.0145 0.8603
H2 H 0.2782 0.1195 0.7161
H3 H 0.6932 -0.0475 0.6723
H4 H 0.9502 -0.0819 0.8435
H5 H 0.2992 0.1599 0.8199
H6 H 0.4144 0.0080 0.5868
H7 H 1.2108 -0.2513 0.6541
H8 H 1.3415 -0.2888 0.7586
H9 H 0.5511 0.0866 1.0746
H10 H 0.2977 0.1841 1.0639
H11 H -0.2355 0.2301 0.5366
H12 H -0.2344 0.1657 0.4456
loop_
_geom_bond_atom_site_label_1
_geom_bond_atom_site_label_2
_geom_bond_site_symmetry_1
_geom_bond_site_symmetry_2
S1 C12 1_555 1_555
S2 C10 1_555 1_555
S3 C11 1_555 1_555
S4 C11 1_555 1_555
S5 C10 1_555 1_555
S6 C12 1_555 1_555
C1 C2 1_555 1_555
C2 C3 1_555 1_555
C3 C4 1_555 1_555
C4 C5 1_555 1_555
C5 C6 1_555 1_555
C6 C1 1_555 1_555
C7 C3 1_555 1_555
C8 C1 1_555 1_555
C9 C5 1_555 1_555
C10 C8 1_555 1_555
C11 C7 1_555 1_555
C12 C9 1_555 1_555
C13 S2 1_555 1_555
C14 S3 1_555 1_555
C15 S1 1_555 1_555
C16 S6 1_555 1_555
C17 S4 1_555 1_555
C18 S5 1_555 1_555
H1 C2 1_555 1_555
H2 C4 1_555 1_555
H3 C6 1_555 1_555
H4 C8 1_555 1_555
H5 C7 1_555 1_555
H6 C9 1_555 1_555
H7 C13 1_555 1_555
H8 C18 1_555 1_555
H9 C14 1_555 1_555
H10 C17 1_555 1_555
H11 C15 1_555 1_555
H12 C16 1_555 1_555
C13 C18 1_555 1_555
C14 C17 1_555 1_555
C15 C16 1_555 1_555

#END
