
#######################################################################
#
#                 Cambridge Crystallographic Data Centre
#                                CCDC 
#
#######################################################################
#
# If this CIF has been generated from an entry in the Cambridge 
# Structural Database, then it will include bibliographic, chemical, 
# crystal, experimental, refinement or atomic coordinate data resulting 
# from the CCDC's data processing and validation procedures.
#
#######################################################################

data_SULJUG
_chemical_formula_moiety         'C102 H120 O26,2(C6 H8 N2),2(H2 O1)'
_chemical_name_systematic        
"[3]-bis(1,4-Dicyanobutane)-(4,4':35,35'-bis(1,4,7,10,13-pentaoxatridecane-1,13-diyl)bis(9,14,19,24,26,29,31,33-octamethoxypillar[5]arene))-pseudorotaxane unknown solvate dihydrate"
_symmetry_cell_setting           monoclinic
_symmetry_space_group_name_H-M   'C 2/c'
_symmetry_Int_Tables_number      15
_space_group_name_Hall           '-C 2yn'
loop_
_symmetry_equiv_pos_site_id
_symmetry_equiv_pos_as_xyz
1 x,y,z
2 -x,y,1/2-z
3 1/2+x,1/2+y,z
4 1/2-x,1/2+y,1/2-z
5 -x,-y,-z
6 x,-y,1/2+z
7 1/2-x,1/2-y,-z
8 1/2+x,1/2-y,1/2+z
_cell_length_a                   16.259(2)
_cell_length_b                   17.706(3)
_cell_length_c                   37.855(6)
_cell_angle_alpha                90
_cell_angle_beta                 96.191(2)
_cell_angle_gamma                90
_cell_volume                     10834.2
_exptl_crystal_colour            pink
_exptl_crystal_description       sheet
_cell_formula_units_Z            4
loop_
_atom_site_label
_atom_site_type_symbol
_atom_site_fract_x
_atom_site_fract_y
_atom_site_fract_z
O1 O 0.24965(17) 0.99852(18) 0.00998(8)
O2 O 0.3558(3) 1.0361(3) -0.04293(11)
O3 O 0.3128(5) 1.0640(5) -0.1109(2)
O4 O 0.1334(3) 1.0548(3) -0.12478(10)
O5 O 0.04088(15) 0.98045(19) -0.07336(7)
O6 O 0.22922(18) 1.19331(18) 0.10602(8)
O7 O 0.05095(15) 1.06216(16) 0.20599(7)
O8 O 0.37771(17) 1.0818(2) 0.21843(9)
O9 O 0.20530(17) 0.83061(19) 0.25550(9)
O10 O 0.48025(17) 0.81857(18) 0.19064(8)
O11 O 0.19896(17) 0.65146(17) 0.15151(7)
O12 O 0.39603(17) 0.76568(16) 0.06242(8)
O13 O 0.05489(18) 0.77003(19) 0.03905(9)
C1 C 0.1771(2) 1.0059(2) 0.02560(9)
C2 C 0.1216(2) 0.9467(2) 0.02127(9)
C3 C 0.0477(2) 0.9523(3) 0.03707(10)
H1 H 0.0092 0.9126 0.0341
C4 C 0.0302(2) 1.0138(2) 0.05656(9)
C5 C 0.0849(2) 1.0744(2) 0.06062(9)
C6 C 0.1582(2) 1.0688(2) 0.04477(9)
H2 H 0.1959 1.1092 0.0472
C7 C 0.3075(3) 1.0573(3) 0.01392(13)
H3 H 0.3260 1.0654 0.0391
H4 H 0.2825 1.1042 0.0041
C8 C 0.3798(3) 1.0353(4) -0.00577(16)
H5 H 0.4255 1.0707 0.0000
H6 H 0.3989 0.9846 0.0016
C9 C 0.4093(4) 1.0171(4) -0.0658(2)
H7 H 0.4329 0.9675 -0.0593
H8 H 0.4545 1.0539 -0.0642
C10 C 0.3696(6) 1.0146(4) -0.1021(2)
H9 H 0.4127 1.0204 -0.1182
H10 H 0.3453 0.9643 -0.1063
C11 C 0.2618(9) 1.0452(8) -0.1427(4)
H11 H 0.2483 0.9912 -0.1429
H12 H 0.2907 1.0564 -0.1635
C12 C 0.1832(6) 1.0923(8) -0.1435(3)
H13 H 0.1955 1.1422 -0.1331
H14 H 0.1578 1.0989 -0.1680
C13 C 0.1651(5) 1.0452(5) -0.0879(2)
H15 H 0.2072 1.0835 -0.0808
H16 H 0.1899 0.9951 -0.0840
C14 C 0.0934(5) 1.0541(7) -0.0675(3)
H17 H 0.0605 1.0982 -0.0759
H18 H 0.1119 1.0609 -0.0422
C15 C 0.0678(2) 1.1431(2) 0.08214(10)
H19 H 0.0079 1.1499 0.0815
H20 H 0.0903 1.1878 0.0713
C16 C 0.1855(2) 1.1604(2) 0.13136(11)
C17 C 0.1051(2) 1.1376(2) 0.12051(10)
C18 C 0.0601(2) 1.1046(2) 0.14582(10)
H21 H 0.0055 1.0887 0.1390
C19 C 0.0936(2) 1.0948(2) 0.18055(9)
C20 C 0.1744(2) 1.1177(2) 0.19155(9)
C21 C 0.2196(2) 1.1511(2) 0.16640(11)
H22 H 0.2739 1.1676 0.1732
C22 C 0.2142(2) 1.1039(2) 0.22903(10)
H23 H 0.2557 1.1432 0.2353
H24 H 0.1718 1.1081 0.2455
C23 C 0.3368(2) 1.0172(3) 0.22742(10)
C24 C 0.2545(2) 1.0288(2) 0.23377(9)
C25 C 0.2116(2) 0.9658(3) 0.24353(9)
H25 H 0.1565 0.9719 0.2484
C26 C 0.2463(2) 0.8942(3) 0.24642(10)
C27 C 0.3285(2) 0.8842(3) 0.23995(9)
C28 C 0.3728(2) 0.9467(3) 0.23066(10)
H26 H 0.4284 0.9409 0.2265
C29 C 0.3670(2) 0.8061(3) 0.24058(11)
H27 H 0.4265 0.8104 0.2480
H28 H 0.3427 0.7749 0.2581
C30 C 0.4125(2) 0.7754(2) 0.18016(12)
C31 C 0.3542(2) 0.7680(2) 0.20495(10)
C32 C 0.2835(2) 0.7260(2) 0.19525(10)
H29 H 0.2442 0.7203 0.2115
C33 C 0.2693(2) 0.6921(2) 0.16227(10)
C34 C 0.3277(2) 0.6985(2) 0.13769(11)
C35 C 0.3982(2) 0.7399(2) 0.14744(10)
H30 H 0.4381 0.7442 0.1313
C36 C 0.3114(3) 0.6631(2) 0.10124(11)
H31 H 0.3641 0.6477 0.0931
H32 H 0.2774 0.6177 0.1028
C37 C 0.3110(2) 0.7677(2) 0.05591(10)
C38 C 0.2680(2) 0.7164(2) 0.07482(10)
C39 C 0.1821(3) 0.7157(2) 0.06891(11)
H33 H 0.1517 0.6805 0.0808
C40 C 0.1409(3) 0.7673(2) 0.04519(11)
C41 C 0.1836(2) 0.8184(2) 0.02622(10)
C42 C 0.2689(2) 0.8178(2) 0.03233(10)
H34 H 0.2993 0.8524 0.0201
C43 C 0.1398(3) 0.8756(3) 0.00145(10)
H35 H 0.0878 0.8539 -0.0097
H36 H 0.1744 0.8879 -0.0174
C44 C 0.3166(3) 1.1999(4) 0.11421(17)
H37 H 0.3287 1.2369 0.1329
H38 H 0.3411 1.2160 0.0932
H39 H 0.3394 1.1514 0.1221
C45 C -0.0347(3) 1.0541(3) 0.19889(13)
H40 H -0.0597 1.1034 0.1943
H41 H -0.0566 1.0314 0.2192
H42 H -0.0472 1.0221 0.1782
C46 C 0.4501(3) 1.0753(4) 0.20159(15)
H43 H 0.4939 1.0540 0.2180
H44 H 0.4667 1.1249 0.1941
H45 H 0.4399 1.0426 0.1810
C47 C 0.1202(3) 0.8361(3) 0.25857(15)
H46 H 0.1113 0.8706 0.2777
H47 H 0.0987 0.7867 0.2637
H48 H 0.0918 0.8549 0.2365
C48 C 0.5430(3) 0.8244(3) 0.16810(14)
H49 H 0.5619 0.7743 0.1625
H50 H 0.5888 0.8531 0.1798
H51 H 0.5216 0.8498 0.1463
C49 C 0.1437(3) 0.6348(3) 0.17654(13)
H52 H 0.1725 0.6071 0.1962
H53 H 0.0985 0.6045 0.1654
H54 H 0.1220 0.6815 0.1853
C50 C 0.4428(3) 0.8190(3) 0.04530(13)
H55 H 0.4349 0.8106 0.0198
H56 H 0.5009 0.8133 0.0538
H57 H 0.4248 0.8696 0.0505
C51 C 0.0084(3) 0.7209(4) 0.05751(17)
H58 H 0.0241 0.6692 0.0530
H59 H -0.0499 0.7278 0.0497
H60 H 0.0185 0.7313 0.0828
O1D O -0.24965(17) 1.00148(18) -0.00998(8)
O2D O -0.3558(3) 0.9639(3) 0.04293(11)
O3D O -0.3128(5) 0.9360(5) 0.1109(2)
O4D O -0.1334(3) 0.9452(3) 0.12478(10)
O5D O -0.04088(15) 1.01955(19) 0.07336(7)
O6D O -0.22922(18) 0.80669(18) -0.10602(8)
O7D O -0.05095(15) 0.93784(16) -0.20599(7)
O8D O -0.37771(17) 0.9182(2) -0.21843(9)
O9D O -0.20530(17) 1.16939(19) -0.25550(9)
O10D O -0.48025(17) 1.18143(18) -0.19064(8)
O11D O -0.19896(17) 1.34854(17) -0.15151(7)
O12D O -0.39603(17) 1.23432(16) -0.06242(8)
O13D O -0.05489(18) 1.22997(19) -0.03905(9)
C1D C -0.1771(2) 0.9941(2) -0.02560(9)
C2D C -0.1216(2) 1.0533(2) -0.02127(9)
C3D C -0.0477(2) 1.0477(3) -0.03707(10)
H1D H -0.0092 1.0874 -0.0341
C4D C -0.0302(2) 0.9862(2) -0.05656(9)
C5D C -0.0849(2) 0.9256(2) -0.06062(9)
C6D C -0.1582(2) 0.9312(2) -0.04477(9)
H2D H -0.1959 0.8908 -0.0472
C7D C -0.3075(3) 0.9427(3) -0.01392(13)
H3D H -0.3260 0.9346 -0.0391
H4D H -0.2825 0.8958 -0.0041
C8D C -0.3798(3) 0.9647(4) 0.00577(16)
H5D H -0.4255 0.9293 0.0000
H6D H -0.3989 1.0154 -0.0016
C9D C -0.4093(4) 0.9829(4) 0.0658(2)
H7D H -0.4329 1.0325 0.0593
H8D H -0.4545 0.9461 0.0642
C10D C -0.3696(6) 0.9854(4) 0.1021(2)
H9D H -0.4127 0.9796 0.1182
H10D H -0.3453 1.0357 0.1063
C11D C -0.2618(9) 0.9548(8) 0.1427(4)
H11D H -0.2483 1.0088 0.1429
H12D H -0.2907 0.9436 0.1635
C12D C -0.1832(6) 0.9077(8) 0.1435(3)
H13D H -0.1955 0.8578 0.1331
H14D H -0.1578 0.9011 0.1680
C13D C -0.1651(5) 0.9548(5) 0.0879(2)
H15D H -0.2072 0.9165 0.0808
H16D H -0.1899 1.0049 0.0840
C14D C -0.0934(5) 0.9459(7) 0.0675(3)
H17D H -0.0605 0.9018 0.0759
H18D H -0.1119 0.9391 0.0422
C15D C -0.0678(2) 0.8569(2) -0.08214(10)
H19D H -0.0079 0.8501 -0.0815
H20D H -0.0903 0.8122 -0.0713
C16D C -0.1855(2) 0.8396(2) -0.13136(11)
C17D C -0.1051(2) 0.8624(2) -0.12051(10)
C18D C -0.0601(2) 0.8954(2) -0.14582(10)
H21D H -0.0055 0.9113 -0.1390
C19D C -0.0936(2) 0.9052(2) -0.18055(9)
C20D C -0.1744(2) 0.8823(2) -0.19155(9)
C21D C -0.2196(2) 0.8489(2) -0.16640(11)
H22D H -0.2739 0.8324 -0.1732
C22D C -0.2142(2) 0.8961(2) -0.22903(10)
H23D H -0.2557 0.8568 -0.2353
H24D H -0.1718 0.8919 -0.2455
C23D C -0.3368(2) 0.9828(3) -0.22742(10)
C24D C -0.2545(2) 0.9712(2) -0.23377(9)
C25D C -0.2116(2) 1.0342(3) -0.24353(9)
H25D H -0.1565 1.0281 -0.2484
C26D C -0.2463(2) 1.1058(3) -0.24642(10)
C27D C -0.3285(2) 1.1158(3) -0.23995(9)
C28D C -0.3728(2) 1.0533(3) -0.23066(10)
H26D H -0.4284 1.0591 -0.2265
C29D C -0.3670(2) 1.1939(3) -0.24058(11)
H27D H -0.4265 1.1896 -0.2480
H28D H -0.3427 1.2251 -0.2581
C30D C -0.4125(2) 1.2246(2) -0.18016(12)
C31D C -0.3542(2) 1.2320(2) -0.20495(10)
C32D C -0.2835(2) 1.2740(2) -0.19525(10)
H29D H -0.2442 1.2797 -0.2115
C33D C -0.2693(2) 1.3079(2) -0.16227(10)
C34D C -0.3277(2) 1.3015(2) -0.13769(11)
C35D C -0.3982(2) 1.2601(2) -0.14744(10)
H30D H -0.4381 1.2558 -0.1313
C36D C -0.3114(3) 1.3369(2) -0.10124(11)
H31D H -0.3641 1.3523 -0.0931
H32D H -0.2774 1.3823 -0.1028
C37D C -0.3110(2) 1.2323(2) -0.05591(10)
C38D C -0.2680(2) 1.2836(2) -0.07482(10)
C39D C -0.1821(3) 1.2843(2) -0.06891(11)
H33D H -0.1517 1.3195 -0.0808
C40D C -0.1409(3) 1.2327(2) -0.04519(11)
C41D C -0.1836(2) 1.1816(2) -0.02622(10)
C42D C -0.2689(2) 1.1822(2) -0.03233(10)
H34D H -0.2993 1.1476 -0.0201
C43D C -0.1398(3) 1.1244(3) -0.00145(10)
H35D H -0.0878 1.1461 0.0097
H36D H -0.1744 1.1121 0.0174
C44D C -0.3166(3) 0.8001(4) -0.11421(17)
H37D H -0.3287 0.7631 -0.1329
H38D H -0.3411 0.7840 -0.0932
H39D H -0.3394 0.8486 -0.1221
C45D C 0.0347(3) 0.9459(3) -0.19889(13)
H40D H 0.0597 0.8966 -0.1943
H41D H 0.0566 0.9686 -0.2192
H42D H 0.0472 0.9779 -0.1782
C46D C -0.4501(3) 0.9247(4) -0.20159(15)
H43D H -0.4939 0.9460 -0.2180
H44D H -0.4667 0.8751 -0.1941
H45D H -0.4399 0.9574 -0.1810
C47D C -0.1202(3) 1.1639(3) -0.25857(15)
H46D H -0.1113 1.1294 -0.2777
H47D H -0.0987 1.2133 -0.2637
H48D H -0.0918 1.1451 -0.2365
C48D C -0.5430(3) 1.1756(3) -0.16810(14)
H49D H -0.5619 1.2257 -0.1625
H50D H -0.5888 1.1469 -0.1798
H51D H -0.5216 1.1502 -0.1463
C49D C -0.1437(3) 1.3652(3) -0.17654(13)
H52D H -0.1725 1.3929 -0.1962
H53D H -0.0985 1.3955 -0.1654
H54D H -0.1220 1.3185 -0.1853
C50D C -0.4428(3) 1.1810(3) -0.04530(13)
H55D H -0.4349 1.1894 -0.0198
H56D H -0.5009 1.1867 -0.0538
H57D H -0.4248 1.1304 -0.0505
C51D C -0.0084(3) 1.2791(4) -0.05751(17)
H58D H -0.0241 1.3308 -0.0530
H59D H 0.0499 1.2722 -0.0497
H60D H -0.0185 1.2687 -0.0828
C56 C 0.0306(5) 0.8294(5) 0.1564(2)
C57 C 0.0815(6) 0.8928(6) 0.1452(4)
H69 H 0.0546 0.9118 0.1225
H70 H 0.0793 0.9335 0.1626
C58 C 0.1591(6) 0.8811(4) 0.1412(2)
H71 H 0.1601 0.8385 0.1248
H72 H 0.1850 0.8631 0.1643
C59 C 0.2174(4) 0.9397(4) 0.1288(2)
H73 H 0.1906 0.9615 0.1067
H74 H 0.2224 0.9803 0.1465
C60 C 0.2939(8) 0.9197(6) 0.1229(3)
H75 H 0.2874 0.8799 0.1048
H76 H 0.3185 0.8956 0.1448
C61 C 0.3550(6) 0.9690(6) 0.1123(2)
N1 N -0.0101(4) 0.7867(4) 0.16619(16)
N2 N 0.4012(4) 1.0037(6) 0.1024(2)
O14 O 0.1896(5) 0.3039(4) 0.0521(2)
C52? C 0.1102(8) 1.0820(6) -0.0914(3)
H61? H 0.0540 1.1027 -0.0946
H62? H 0.1483 1.1219 -0.0820
C53? C 0.1145(7) 1.0160(7) -0.0665(3)
H63? H 0.1601 0.9823 -0.0710
H64? H 0.1228 1.0331 -0.0418
C54? C 0.2797(12) 1.0807(14) -0.1454(5)
H65? H 0.3158 1.0636 -0.1629
H66? H 0.2685 1.1348 -0.1486
C55? C 0.2000(10) 1.0343(12) -0.1471(4)
H67? H 0.1753 1.0347 -0.1719
H68? H 0.2159 0.9820 -0.1414
loop_
_geom_bond_atom_site_label_1
_geom_bond_atom_site_label_2
_geom_bond_site_symmetry_1
_geom_bond_site_symmetry_2
O1 C1 1_555 1_555
O2 C8 1_555 1_555
O3 C10 1_555 1_555
O4 C12 1_555 1_555
O5 C14 1_555 1_555
O6 C16 1_555 1_555
O7 C19 1_555 1_555
O8 C23 1_555 1_555
O9 C26 1_555 1_555
O10 C30 1_555 1_555
O11 C33 1_555 1_555
O12 C37 1_555 1_555
O13 C40 1_555 1_555
C1 C2 1_555 1_555
C2 C3 1_555 1_555
C3 H1 1_555 1_555
C4 C3 1_555 1_555
C5 C4 1_555 1_555
C6 C1 1_555 1_555
H2 C6 1_555 1_555
C7 O1 1_555 1_555
H3 C7 1_555 1_555
H4 C7 1_555 1_555
C8 C7 1_555 1_555
H5 C8 1_555 1_555
H6 C8 1_555 1_555
C9 O2 1_555 1_555
H7 C9 1_555 1_555
H8 C9 1_555 1_555
C10 C9 1_555 1_555
H9 C10 1_555 1_555
H10 C10 1_555 1_555
C11 O3 1_555 1_555
H11 C11 1_555 1_555
H12 C11 1_555 1_555
C12 C11 1_555 1_555
H13 C12 1_555 1_555
H14 C12 1_555 1_555
C13 O4 1_555 1_555
H15 C13 1_555 1_555
H16 C13 1_555 1_555
C14 C13 1_555 1_555
H17 C14 1_555 1_555
H18 C14 1_555 1_555
C15 C5 1_555 1_555
H19 C15 1_555 1_555
H20 C15 1_555 1_555
C16 C17 1_555 1_555
C17 C15 1_555 1_555
C18 C17 1_555 1_555
H21 C18 1_555 1_555
C19 C18 1_555 1_555
C20 C19 1_555 1_555
C21 C16 1_555 1_555
H22 C21 1_555 1_555
C22 C20 1_555 1_555
H23 C22 1_555 1_555
H24 C22 1_555 1_555
C23 C24 1_555 1_555
C24 C22 1_555 1_555
C25 C24 1_555 1_555
H25 C25 1_555 1_555
C26 C25 1_555 1_555
C27 C26 1_555 1_555
C28 C23 1_555 1_555
H26 C28 1_555 1_555
C29 C27 1_555 1_555
H27 C29 1_555 1_555
H28 C29 1_555 1_555
C30 C31 1_555 1_555
C31 C29 1_555 1_555
C32 C31 1_555 1_555
H29 C32 1_555 1_555
C33 C32 1_555 1_555
C34 C33 1_555 1_555
C35 C30 1_555 1_555
H30 C35 1_555 1_555
C36 C34 1_555 1_555
H31 C36 1_555 1_555
H32 C36 1_555 1_555
C37 C38 1_555 1_555
C38 C36 1_555 1_555
C39 C38 1_555 1_555
H33 C39 1_555 1_555
C40 C39 1_555 1_555
C41 C40 1_555 1_555
C42 C37 1_555 1_555
H34 C42 1_555 1_555
C43 C2 1_555 1_555
H35 C43 1_555 1_555
H36 C43 1_555 1_555
C44 O6 1_555 1_555
H37 C44 1_555 1_555
H38 C44 1_555 1_555
H39 C44 1_555 1_555
C45 O7 1_555 1_555
H40 C45 1_555 1_555
H41 C45 1_555 1_555
H42 C45 1_555 1_555
C46 O8 1_555 1_555
H43 C46 1_555 1_555
H44 C46 1_555 1_555
H45 C46 1_555 1_555
C47 O9 1_555 1_555
H46 C47 1_555 1_555
H47 C47 1_555 1_555
H48 C47 1_555 1_555
C48 O10 1_555 1_555
H49 C48 1_555 1_555
H50 C48 1_555 1_555
H51 C48 1_555 1_555
C49 O11 1_555 1_555
H52 C49 1_555 1_555
H53 C49 1_555 1_555
H54 C49 1_555 1_555
C50 O12 1_555 1_555
H55 C50 1_555 1_555
H56 C50 1_555 1_555
H57 C50 1_555 1_555
C51 O13 1_555 1_555
H58 C51 1_555 1_555
H59 C51 1_555 1_555
H60 C51 1_555 1_555
C56 C57 1_555 1_555
C57 H69 1_555 1_555
H70 C57 1_555 1_555
C58 C57 1_555 1_555
H71 C58 1_555 1_555
H72 C58 1_555 1_555
C59 C58 1_555 1_555
H73 C59 1_555 1_555
H74 C59 1_555 1_555
C60 C59 1_555 1_555
H75 C60 1_555 1_555
H76 C60 1_555 1_555
C61 C60 1_555 1_555
N1 C56 1_555 1_555
N2 C61 1_555 1_555
O1D C1D 1_555 1_555
O2D C8D 1_555 1_555
O3D C10D 1_555 1_555
O4D C12D 1_555 1_555
O5D C4 1_555 1_555
O6D C16D 1_555 1_555
O7D C19D 1_555 1_555
O8D C23D 1_555 1_555
O9D C26D 1_555 1_555
O10D C30D 1_555 1_555
O11D C33D 1_555 1_555
O12D C37D 1_555 1_555
O13D C40D 1_555 1_555
C1D C2D 1_555 1_555
C2D C3D 1_555 1_555
C3D H1D 1_555 1_555
C4D O5 1_555 1_555
C5D C4D 1_555 1_555
C6D C1D 1_555 1_555
H2D C6D 1_555 1_555
C7D O1D 1_555 1_555
H3D C7D 1_555 1_555
H4D C7D 1_555 1_555
C8D C7D 1_555 1_555
H5D C8D 1_555 1_555
H6D C8D 1_555 1_555
C9D O2D 1_555 1_555
H7D C9D 1_555 1_555
H8D C9D 1_555 1_555
C10D C9D 1_555 1_555
H9D C10D 1_555 1_555
H10D C10D 1_555 1_555
C11D O3D 1_555 1_555
H11D C11D 1_555 1_555
H12D C11D 1_555 1_555
C12D C11D 1_555 1_555
H13D C12D 1_555 1_555
H14D C12D 1_555 1_555
C13D O4D 1_555 1_555
H15D C13D 1_555 1_555
H16D C13D 1_555 1_555
C14D O5D 1_555 1_555
H17D C14D 1_555 1_555
H18D C14D 1_555 1_555
C15D C5D 1_555 1_555
H19D C15D 1_555 1_555
H20D C15D 1_555 1_555
C16D C17D 1_555 1_555
C17D C15D 1_555 1_555
C18D C17D 1_555 1_555
H21D C18D 1_555 1_555
C19D C18D 1_555 1_555
C20D C19D 1_555 1_555
C21D C16D 1_555 1_555
H22D C21D 1_555 1_555
C22D C20D 1_555 1_555
H23D C22D 1_555 1_555
H24D C22D 1_555 1_555
C23D C24D 1_555 1_555
C24D C22D 1_555 1_555
C25D C24D 1_555 1_555
H25D C25D 1_555 1_555
C26D C25D 1_555 1_555
C27D C26D 1_555 1_555
C28D C23D 1_555 1_555
H26D C28D 1_555 1_555
C29D C27D 1_555 1_555
H27D C29D 1_555 1_555
H28D C29D 1_555 1_555
C30D C31D 1_555 1_555
C31D C29D 1_555 1_555
C32D C31D 1_555 1_555
H29D C32D 1_555 1_555
C33D C32D 1_555 1_555
C34D C33D 1_555 1_555
C35D C30D 1_555 1_555
H30D C35D 1_555 1_555
C36D C34D 1_555 1_555
H31D C36D 1_555 1_555
H32D C36D 1_555 1_555
C37D C38D 1_555 1_555
C38D C36D 1_555 1_555
C39D C38D 1_555 1_555
H33D C39D 1_555 1_555
C40D C39D 1_555 1_555
C41D C40D 1_555 1_555
C42D C37D 1_555 1_555
H34D C42D 1_555 1_555
C43D C2D 1_555 1_555
H35D C43D 1_555 1_555
H36D C43D 1_555 1_555
C44D O6D 1_555 1_555
H37D C44D 1_555 1_555
H38D C44D 1_555 1_555
H39D C44D 1_555 1_555
C45D O7D 1_555 1_555
H40D C45D 1_555 1_555
H41D C45D 1_555 1_555
H42D C45D 1_555 1_555
C46D O8D 1_555 1_555
H43D C46D 1_555 1_555
H44D C46D 1_555 1_555
H45D C46D 1_555 1_555
C47D O9D 1_555 1_555
H46D C47D 1_555 1_555
H47D C47D 1_555 1_555
H48D C47D 1_555 1_555
C48D O10D 1_555 1_555
H49D C48D 1_555 1_555
H50D C48D 1_555 1_555
H51D C48D 1_555 1_555
C49D O11D 1_555 1_555
H52D C49D 1_555 1_555
H53D C49D 1_555 1_555
H54D C49D 1_555 1_555
C50D O12D 1_555 1_555
H55D C50D 1_555 1_555
H56D C50D 1_555 1_555
H57D C50D 1_555 1_555
C51D O13D 1_555 1_555
H58D C51D 1_555 1_555
H59D C51D 1_555 1_555
H60D C51D 1_555 1_555
C5 C6 1_555 1_555
C20 C21 1_555 1_555
C27 C28 1_555 1_555
C34 C35 1_555 1_555
C41 C42 1_555 1_555
C41 C43 1_555 1_555
C3D C4D 1_555 1_555
C5D C6D 1_555 1_555
C13D C14D 1_555 1_555
C20D C21D 1_555 1_555
C27D C28D 1_555 1_555
C34D C35D 1_555 1_555
C41D C42D 1_555 1_555
C41D C43D 1_555 1_555

#END
