
#######################################################################
#
#                 Cambridge Crystallographic Data Centre
#                                CCDC 
#
#######################################################################
#
# If this CIF has been generated from an entry in the Cambridge 
# Structural Database, then it will include bibliographic, chemical, 
# crystal, experimental, refinement or atomic coordinate data resulting 
# from the CCDC's data processing and validation procedures.
#
#######################################################################

data_SULMOB
_chemical_formula_moiety         'C16 H24 N2 O3'
_chemical_name_systematic        
(S)-1,2,3,5,6,7-Hexahydro-6,6-bis(hydroxymethyl)-3-(1-methylethyl)-4H-2,5-benzodiazonin-4-one
_symmetry_cell_setting           orthorhombic
_symmetry_space_group_name_H-M   'P 21 21 21'
_symmetry_Int_Tables_number      19
_space_group_name_Hall           'P 2ac 2ab'
loop_
_symmetry_equiv_pos_site_id
_symmetry_equiv_pos_as_xyz
1 x,y,z
2 1/2+x,1/2-y,-z
3 -x,1/2+y,1/2-z
4 1/2-x,-y,1/2+z
_cell_length_a                   11.9658(9)
_cell_length_b                   16.240(1)
_cell_length_c                   8.0479(8)
_cell_angle_alpha                90
_cell_angle_beta                 90
_cell_angle_gamma                90
_cell_volume                     1563.9
_exptl_crystal_colour            colorless
_chemical_melting_point          191-192deg.C
_cell_formula_units_Z            4
loop_
_atom_site_label
_atom_site_type_symbol
_atom_site_fract_x
_atom_site_fract_y
_atom_site_fract_z
O1 O -0.0875(3) 0.2214(1) 0.3914(3)
O2 O -0.0053(2) 0.1030(1) 0.1992(3)
O3 O -0.0609(3) 0.1873(2) -0.2699(3)
N1 N -0.0477(2) 0.4228(2) 0.2595(4)
N2 N -0.1077(2) 0.2807(2) 0.1352(3)
C1 C 0.0990(3) 0.4000(2) 0.0465(4)
C2 C 0.0975(3) 0.3295(2) -0.0519(4)
C3 C 0.1223(3) 0.3379(2) -0.2200(5)
C4 C 0.1455(4) 0.4133(3) -0.2906(5)
C5 C 0.1451(4) 0.4826(2) -0.1927(5)
C6 C 0.1226(3) 0.4755(2) -0.0255(5)
C7 C 0.0713(3) 0.4015(2) 0.2316(4)
C8 C -0.1069(3) 0.3694(2) 0.3751(4)
C9 C -0.2282(3) 0.3982(2) 0.4001(5)
C10 C -0.2899(4) 0.3430(3) 0.5204(5)
C11 C -0.2309(5) 0.4878(3) 0.4621(7)
C12 C -0.1004(3) 0.2823(2) 0.3020(4)
C13 C -0.0536(3) 0.2220(2) 0.0197(4)
C14 C -0.0721(3) 0.1316(2) 0.0662(4)
C15 C -0.1126(3) 0.2370(2) -0.1468(4)
C16 C 0.0719(3) 0.2434(2) 0.0117(5)
H1 H 0.1230 0.2901 -0.2886
H2 H 0.1614 0.4172 -0.4064
H3 H 0.1601 0.5351 -0.2403
H4 H 0.1237 0.5234 0.0425
H5 H 0.0854 0.3486 0.2774
H6 H 0.1169 0.4412 0.2851
H7 H -0.0737 0.3708 0.4824
H8 H -0.2648 0.3949 0.2951
H9 H -0.2682 0.3563 0.6312
H10 H -0.3681 0.3508 0.5089
H11 H -0.2718 0.2871 0.4986
H12 H -0.2730 0.4908 0.5621
H13 H -0.1581 0.5072 0.4791
H14 H -0.2674 0.5214 0.3787
H15 H -0.1485 0.1249 0.0953
H16 H -0.0557 0.0990 -0.0287
H17 H -0.1893 0.2226 -0.1377
H18 H -0.1063 0.2933 -0.1770
H19 H 0.1024 0.2383 0.1204
H20 H 0.1075 0.2048 -0.0600
H21 H -0.0547 0.4805 0.2910
H22 H -0.1094 0.3340 0.0820
H23 H 0.0840 0.1055 0.2070
H24 H -0.0840 0.2090 -0.3750
H25? H -0.0273 0.1465 0.2910
loop_
_geom_bond_atom_site_label_1
_geom_bond_atom_site_label_2
_geom_bond_site_symmetry_1
_geom_bond_site_symmetry_2
O1 C12 1_555 1_555
O2 C14 1_555 1_555
O3 C15 1_555 1_555
N1 C7 1_555 1_555
N2 C12 1_555 1_555
C1 C2 1_555 1_555
C2 C3 1_555 1_555
C3 C4 1_555 1_555
C4 C5 1_555 1_555
C5 C6 1_555 1_555
C6 C1 1_555 1_555
C7 C1 1_555 1_555
C8 N1 1_555 1_555
C9 C8 1_555 1_555
C10 C9 1_555 1_555
C11 C9 1_555 1_555
C12 C8 1_555 1_555
C13 N2 1_555 1_555
C14 C13 1_555 1_555
C15 C13 1_555 1_555
C16 C2 1_555 1_555
H1 C3 1_555 1_555
H2 C4 1_555 1_555
H3 C5 1_555 1_555
H4 C6 1_555 1_555
H5 C7 1_555 1_555
H6 C7 1_555 1_555
H7 C8 1_555 1_555
H8 C9 1_555 1_555
H9 C10 1_555 1_555
H10 C10 1_555 1_555
H11 C10 1_555 1_555
H12 C11 1_555 1_555
H13 C11 1_555 1_555
H14 C11 1_555 1_555
H15 C14 1_555 1_555
H16 C14 1_555 1_555
H17 C15 1_555 1_555
H18 C15 1_555 1_555
H19 C16 1_555 1_555
H20 C16 1_555 1_555
H21 N1 1_555 1_555
H22 N2 1_555 1_555
H23 O2 1_555 1_555
H24 O3 1_555 1_555
C13 C16 1_555 1_555

#END
