
#######################################################################
#
#                 Cambridge Crystallographic Data Centre
#                                CCDC 
#
#######################################################################
#
# If this CIF has been generated from an entry in the Cambridge 
# Structural Database, then it will include bibliographic, chemical, 
# crystal, experimental, refinement or atomic coordinate data resulting 
# from the CCDC's data processing and validation procedures.
#
#######################################################################

data_SUMMAQ
_chemical_formula_moiety         'C21 H21 N1 O3'
_chemical_name_systematic        
'Ethyl 4-methoxy-7-methyl-6,7-dihydro-5H-benzo[c]carbazole-5-carboxylate'
_symmetry_cell_setting           orthorhombic
_symmetry_space_group_name_H-M   'P b c a'
_symmetry_Int_Tables_number      61
_space_group_name_Hall           '-P 2ac 2ab'
loop_
_symmetry_equiv_pos_site_id
_symmetry_equiv_pos_as_xyz
1 x,y,z
2 1/2-x,-y,1/2+z
3 -x,1/2+y,1/2-z
4 1/2+x,1/2-y,-z
5 -x,-y,-z
6 1/2+x,y,1/2-z
7 x,1/2-y,1/2+z
8 1/2-x,1/2+y,z
_cell_length_a                   8.1336(8)
_cell_length_b                   16.8844(17)
_cell_length_c                   25.540(3)
_cell_angle_alpha                90
_cell_angle_beta                 90
_cell_angle_gamma                90
_cell_volume                     3507.43
_exptl_crystal_colour            green
_exptl_crystal_description       prismatic
_cell_formula_units_Z            8
loop_
_atom_site_label
_atom_site_type_symbol
_atom_site_fract_x
_atom_site_fract_y
_atom_site_fract_z
N1 N 0.38646(16) 0.77702(8) 0.36811(6)
O1 O 0.14340(18) 0.84215(10) 0.48627(6)
O2 O -0.10975(16) 0.88515(8) 0.47310(5)
O3 O -0.17497(15) 1.02931(7) 0.40055(5)
C1 C 0.3315(2) 0.71215(10) 0.34039(6)
C2 C 0.4087(2) 0.64039(12) 0.33132(7)
H1 H 0.5146 0.6308 0.3435
C3 C 0.3240(3) 0.58376(12) 0.30375(8)
H2 H 0.3732 0.5350 0.2972
C4 C 0.1666(2) 0.59803(12) 0.28548(8)
H3 H 0.1122 0.5588 0.2667
C5 C 0.0891(2) 0.66896(11) 0.29450(7)
H4 H -0.0167 0.6777 0.2819
C6 C 0.1703(2) 0.72774(10) 0.32265(6)
C7 C 0.12995(19) 0.80546(10) 0.34111(6)
C8 C 0.26264(19) 0.83213(10) 0.36862(6)
C9 C 0.2660(2) 0.90989(11) 0.39558(8)
H5 H 0.3056 0.9506 0.3719
H6 H 0.3390 0.9077 0.4256
C10 C 0.0915(2) 0.92906(10) 0.41329(7)
H7 H 0.0894 0.9849 0.4237
C11 C -0.03273(19) 0.91857(10) 0.36976(6)
C12 C -0.01421(18) 0.85587(10) 0.33460(6)
C13 C -0.1278(2) 0.84668(12) 0.29405(7)
H8 H -0.1164 0.8055 0.2702
C14 C -0.2567(2) 0.89902(12) 0.28969(7)
H9 H -0.3318 0.8926 0.2626
C15 C -0.2773(2) 0.96018(12) 0.32413(7)
H10 H -0.3654 0.9948 0.3204
C16 C -0.1661(2) 0.97002(10) 0.36445(7)
C17 C -0.3181(3) 1.07492(15) 0.40269(12)
H11 H -0.3320 1.1026 0.3702
H12 H -0.3096 1.1125 0.4308
H13 H -0.4110 1.0410 0.4086
C18 C 0.0477(2) 0.88023(10) 0.46109(7)
C19 C -0.1632(3) 0.84424(14) 0.51981(8)
H14 H -0.0896 0.8562 0.5486
H15 H -0.1616 0.7875 0.5140
C20 C -0.3307(3) 0.87011(16) 0.53266(10)
H16 H -0.3333 0.9268 0.5355
H17 H -0.3637 0.8471 0.5654
H18 H -0.4047 0.8534 0.5056
C21 C 0.5492(2) 0.78545(12) 0.39054(8)
H19 H 0.5607 0.7499 0.4196
H20 H 0.5643 0.8390 0.4023
H21 H 0.6304 0.7731 0.3645
loop_
_geom_bond_atom_site_label_1
_geom_bond_atom_site_label_2
_geom_bond_site_symmetry_1
_geom_bond_site_symmetry_2
N1 C1 1_555 1_555
O1 C18 1_555 1_555
O2 C18 1_555 1_555
O3 C16 1_555 1_555
C1 C2 1_555 1_555
C2 H1 1_555 1_555
C3 C2 1_555 1_555
H2 C3 1_555 1_555
C4 C3 1_555 1_555
H3 C4 1_555 1_555
C5 C4 1_555 1_555
H4 C5 1_555 1_555
C6 C1 1_555 1_555
C7 C6 1_555 1_555
C8 N1 1_555 1_555
C9 C8 1_555 1_555
H5 C9 1_555 1_555
H6 C9 1_555 1_555
C10 C9 1_555 1_555
H7 C10 1_555 1_555
C11 C10 1_555 1_555
C12 C7 1_555 1_555
C13 C12 1_555 1_555
H8 C13 1_555 1_555
C14 C13 1_555 1_555
H9 C14 1_555 1_555
C15 C14 1_555 1_555
H10 C15 1_555 1_555
C16 C11 1_555 1_555
C17 O3 1_555 1_555
H11 C17 1_555 1_555
H12 C17 1_555 1_555
H13 C17 1_555 1_555
C18 C10 1_555 1_555
C19 O2 1_555 1_555
H14 C19 1_555 1_555
H15 C19 1_555 1_555
C20 C19 1_555 1_555
H16 C20 1_555 1_555
H17 C20 1_555 1_555
H18 C20 1_555 1_555
C21 N1 1_555 1_555
H19 C21 1_555 1_555
H20 C21 1_555 1_555
H21 C21 1_555 1_555
C5 C6 1_555 1_555
C7 C8 1_555 1_555
C11 C12 1_555 1_555
C15 C16 1_555 1_555

#END
