
#######################################################################
#
#                 Cambridge Crystallographic Data Centre
#                                CCDC 
#
#######################################################################
#
# If this CIF has been generated from an entry in the Cambridge 
# Structural Database, then it will include bibliographic, chemical, 
# crystal, experimental, refinement or atomic coordinate data resulting 
# from the CCDC's data processing and validation procedures.
#
#######################################################################

data_SUNDAG
_chemical_formula_moiety         'C7 H10 N2 O1'
_chemical_name_systematic        
8-Hydroxy-5,6,7,8-tetrahydroimidazo(1,2-a)pyridine
_symmetry_cell_setting           monoclinic
_symmetry_space_group_name_H-M   'P 21/n'
_symmetry_Int_Tables_number      14
_space_group_name_Hall           '-P 2yn'
loop_
_symmetry_equiv_pos_site_id
_symmetry_equiv_pos_as_xyz
1 x,y,z
2 1/2-x,1/2+y,1/2-z
3 -x,-y,-z
4 1/2+x,1/2-y,1/2+z
_cell_length_a                   7.827(3)
_cell_length_b                   7.721(4)
_cell_length_c                   12.190(5)
_cell_angle_alpha                90
_cell_angle_beta                 102.35(3)
_cell_angle_gamma                90
_cell_volume                     719.622
_exptl_crystal_colour            colorless
_chemical_melting_point          151.5-152.5deg.C
_cell_formula_units_Z            4
loop_
_atom_site_label
_atom_site_type_symbol
_atom_site_fract_x
_atom_site_fract_y
_atom_site_fract_z
O1 O -0.0848(2) 0.4401(2) 0.6506(1)
N1 N 0.1681(3) 0.3005(2) 0.5062(1)
N2 N 0.1829(2) 0.1103(2) 0.6420(1)
C1 C 0.3305(3) 0.2246(3) 0.5296(2)
C2 C 0.3414(3) 0.1074(3) 0.6121(2)
C3 C 0.1276(3) 0.0040(3) 0.7276(2)
C4 C -0.0213(3) 0.0912(3) 0.7654(2)
C5 C -0.1618(3) 0.1441(3) 0.6659(2)
C6 C -0.0945(3) 0.2780(3) 0.5941(2)
C7 C 0.0823(3) 0.2288(2) 0.5767(2)
H1 H 0.4224 0.2515 0.4926
H2 H 0.4393 0.0370 0.6433
H3 H 0.0907 -0.1063 0.6968
H4 H 0.2229 -0.0101 0.7899
H5 H 0.0212 0.1913 0.8080
H6 H -0.0696 0.0133 0.8110
H7 H -0.1998 0.0446 0.6214
H8 H -0.2576 0.1918 0.6922
H9 H -0.1736 0.2869 0.5234
H10 H -0.110(2) 0.527(3) 0.590(2)
loop_
_geom_bond_atom_site_label_1
_geom_bond_atom_site_label_2
_geom_bond_site_symmetry_1
_geom_bond_site_symmetry_2
O1 C6 1_555 1_555
N1 C1 1_555 1_555
N2 C2 1_555 1_555
C1 C2 1_555 1_555
C2 H2 1_555 1_555
C3 N2 1_555 1_555
C4 C3 1_555 1_555
C5 C4 1_555 1_555
C6 C5 1_555 1_555
C7 N1 1_555 1_555
H1 C1 1_555 1_555
H3 C3 1_555 1_555
H4 C3 1_555 1_555
H5 C4 1_555 1_555
H6 C4 1_555 1_555
H7 C5 1_555 1_555
H8 C5 1_555 1_555
H9 C6 1_555 1_555
H10 O1 1_555 1_555
N2 C7 1_555 1_555
C6 C7 1_555 1_555

#END
