
#######################################################################
#
#                 Cambridge Crystallographic Data Centre
#                                CCDC 
#
#######################################################################
#
# If this CIF has been generated from an entry in the Cambridge 
# Structural Database, then it will include bibliographic, chemical, 
# crystal, experimental, refinement or atomic coordinate data resulting 
# from the CCDC's data processing and validation procedures.
#
#######################################################################

data_SUNPEW
_chemical_formula_moiety         'C14 H25 N1 O5'
_chemical_name_systematic        
'(2S-(2R*,\a(R*),\b(S*)))-(1-(1,1-Dimethylethoxycarbonyl)pyrrolidin-2-yl)-\b-methoxy-\a-methylpropanoic acid'
_symmetry_cell_setting           orthorhombic
_symmetry_space_group_name_H-M   'P 21 21 21'
_symmetry_Int_Tables_number      19
_space_group_name_Hall           'P 2ac 2ab'
loop_
_symmetry_equiv_pos_site_id
_symmetry_equiv_pos_as_xyz
1 x,y,z
2 1/2+x,1/2-y,-z
3 -x,1/2+y,1/2-z
4 1/2-x,-y,1/2+z
_cell_length_a                   10.027(1)
_cell_length_b                   10.763(2)
_cell_length_c                   15.332(2)
_cell_angle_alpha                90
_cell_angle_beta                 90
_cell_angle_gamma                90
_cell_volume                     1654.64
_exptl_crystal_colour            colorless
_chemical_melting_point          105-108deg.C
_cell_formula_units_Z            4
loop_
_atom_site_label
_atom_site_type_symbol
_atom_site_fract_x
_atom_site_fract_y
_atom_site_fract_z
O1 O -0.5988(2) 1.0148(3) 0.2473(2)
O2 O -0.4836(3) 1.0731(4) 0.1312(2)
O3 O -0.2666(2) 1.1346(2) 0.2719(2)
O4 O 0.1690(2) 1.0918(3) 0.1783(2)
O5 O 0.0051(2) 0.9702(3) 0.1204(1)
N1 N -0.0023(3) 1.0216(3) 0.2596(2)
C1 C -0.4882(3) 1.0183(4) 0.1992(2)
C2 C -0.1269(3) 0.9506(3) 0.2719(2)
C3 C -0.3755(3) 0.9458(4) 0.2391(2)
C4 C -0.3704(4) 0.8198(5) 0.1937(5)
C5 C -0.2472(3) 1.0184(3) 0.2306(2)
C6 C -0.1365(4) 0.9354(5) 0.3712(2)
C7 C -0.2247(5) 1.2394(4) 0.2220(4)
C8 C -0.0224(6) 1.0001(8) 0.4080(3)
C9 C 0.0511(4) 1.0681(5) 0.3415(2)
C10 C 0.0649(3) 1.0329(4) 0.1860(2)
C11 C 0.0548(4) 0.9713(5) 0.0311(2)
C12 C 0.1919(4) 0.9068(6) 0.0297(3)
C13 C 0.0558(9) 1.0985(6) -0.0049(3)
C14 C -0.0457(5) 0.8909(5) -0.0152(2)
H1 H -0.389 0.932 0.300
H2 H -0.300 0.772 0.218
H3 H -0.355 0.832 0.133
H4 H -0.453 0.778 0.202
H5 H -0.227 1.028 0.170
H6 H -0.241 1.313 0.254
H7 H -0.273 1.242 0.169
H8 H -0.132 1.233 0.210
H9 H -0.127 0.872 0.244
H10 H -0.217 0.971 0.392
H11 H -0.134 0.850 0.386
H12 H -0.052 1.057 0.451
H13 H 0.036 0.941 0.434
H14 H 0.144 1.052 0.346
H15 H 0.036 1.155 0.347
H16 H 0.226 0.907 -0.028
H17 H 0.183 0.824 0.050
H18 H 0.252 0.950 0.067
H19 H 0.089 1.096 -0.063
H20 H 0.112 1.150 0.030
H21 H -0.032 1.131 -0.005
H22 H -0.023 0.885 -0.075
H23 H -0.132 0.927 -0.010
H24 H -0.046 0.810 0.010
loop_
_geom_bond_atom_site_label_1
_geom_bond_atom_site_label_2
_geom_bond_site_symmetry_1
_geom_bond_site_symmetry_2
O1 C1 1_555 1_555
O2 C1 1_555 1_555
O3 C5 1_555 1_555
O4 C10 1_555 1_555
O5 C10 1_555 1_555
N1 C2 1_555 1_555
C1 C3 1_555 1_555
C2 C5 1_555 1_555
C3 C4 1_555 1_555
C4 H2 1_555 1_555
C5 C3 1_555 1_555
C6 C2 1_555 1_555
C7 O3 1_555 1_555
C8 C6 1_555 1_555
C9 N1 1_555 1_555
C10 N1 1_555 1_555
C11 O5 1_555 1_555
C12 C11 1_555 1_555
C13 C11 1_555 1_555
C14 C11 1_555 1_555
H1 C3 1_555 1_555
H3 C4 1_555 1_555
H4 C4 1_555 1_555
H5 C5 1_555 1_555
H6 C7 1_555 1_555
H7 C7 1_555 1_555
H8 C7 1_555 1_555
H9 C2 1_555 1_555
H10 C6 1_555 1_555
H11 C6 1_555 1_555
H12 C8 1_555 1_555
H13 C8 1_555 1_555
H14 C9 1_555 1_555
H15 C9 1_555 1_555
H16 C12 1_555 1_555
H17 C12 1_555 1_555
H18 C12 1_555 1_555
H19 C13 1_555 1_555
H20 C13 1_555 1_555
H21 C13 1_555 1_555
H22 C14 1_555 1_555
H23 C14 1_555 1_555
H24 C14 1_555 1_555
C8 C9 1_555 1_555

#END
