
#######################################################################
#
#                 Cambridge Crystallographic Data Centre
#                                CCDC 
#
#######################################################################
#
# If this CIF has been generated from an entry in the Cambridge 
# Structural Database, then it will include bibliographic, chemical, 
# crystal, experimental, refinement or atomic coordinate data resulting 
# from the CCDC's data processing and validation procedures.
#
#######################################################################

data_SUPCOV01
_chemical_name_common            
1,4-benzoquinonebis(1,2-diphenylethyleneketal)
_chemical_formula_moiety         'C34 H28 O4'
_chemical_name_systematic        
'1,4,9,12-Tetraoxa-2,3,10,11-tetraphenyldispiro(4.2.4.2) tetradeca-6,13-diene'
_symmetry_cell_setting           trigonal
_symmetry_space_group_name_H-M   'P 32 2 1'
_symmetry_Int_Tables_number      154
_space_group_name_Hall           'P 32 2"'
loop_
_symmetry_equiv_pos_site_id
_symmetry_equiv_pos_as_xyz
1 x,y,z
2 -y,x-y,2/3+z
3 y,x,-z
4 -x+y,-x,1/3+z
5 -x,-x+y,2/3-z
6 x-y,-y,1/3-z
_cell_length_a                   9.691(2)
_cell_length_b                   9.691(2)
_cell_length_c                   24.841(6)
_cell_angle_alpha                90
_cell_angle_beta                 90
_cell_angle_gamma                120
_cell_volume                     2020.4
_exptl_crystal_colour            'light orange'
_chemical_melting_point          475-477K
_cell_formula_units_Z            3
loop_
_atom_site_label
_atom_site_type_symbol
_atom_site_fract_x
_atom_site_fract_y
_atom_site_fract_z
O1 O 0.38457(15) 0.89924(14) 0.06650(5)
O2 O 0.28960(15) 0.70660(13) 0.13176(4)
C1 C 0.3362(2) 0.7499(2) 0.03983(7)
C2 C 0.3295(2) 0.6406(2) 0.08617(7)
C3 C 0.4498(2) 0.7706(2) -0.00524(7)
C4 C 0.6105(2) 0.8854(2) -0.00196(8)
C5 C 0.7148(2) 0.9055(2) -0.04297(8)
C6 C 0.6608(3) 0.8082(3) -0.08825(8)
C7 C 0.5018(3) 0.6924(3) -0.09192(8)
C8 C 0.3972(2) 0.6740(2) -0.05079(7)
C9 C 0.2092(2) 0.4661(2) 0.08189(7)
C10 C 0.0483(2) 0.4107(2) 0.08956(8)
C11 C -0.0606(3) 0.2491(2) 0.08699(8)
C12 C -0.0108(3) 0.1419(3) 0.07689(8)
C13 C 0.1492(3) 0.1962(2) 0.06840(9)
C14 C 0.2582(3) 0.3574(2) 0.07111(8)
C15 C 0.3748(2) 0.8750(2) 0.12464(7)
C16 C 0.2799(2) 0.9429(2) 0.14825(7)
C17 C 0.5389(2) 0.9448(2) 0.14762(7)
H1 H 0.2268(20) 0.7117(17) 0.0248(5)
H2 H 0.4361(22) 0.6580(20) 0.0906(6)
H3 H 0.6424(24) 0.9549(24) 0.0263(8)
H4 H 0.8338(26) 0.9927(25) -0.0394(7)
H5 H 0.7286(25) 0.8208(24) -0.1186(7)
H6 H 0.4624(23) 0.6254(24) -0.1245(8)
H7 H 0.2872(23) 0.5936(22) -0.0530(6)
H8 H 0.0115(21) 0.4812(21) 0.0992(7)
H9 H -0.1693(26) 0.2148(22) 0.0951(7)
H10 H -0.0835(22) 0.0290(23) 0.0773(6)
H11 H 0.1807(28) 0.1248(28) 0.0627(8)
H12 H 0.3685(25) 0.3969(23) 0.0648(7)
H13 H 0.1717(23) 0.8976(20) 0.1341(6)
H14 H 0.6067(21) 0.9045(20) 0.1341(6)
C16E C 0.3370(3) 1.0571(2) 0.18508(7)
C17E C 0.5941(3) 1.0552(2) 0.18571(7)
C15E C 0.4998(3) 1.1250(2) 0.20869(7)
H13E H 0.2741(30) 1.1024(20) 0.1992(6)
H14E H 0.7022(29) 1.0955(20) 0.1992(6)
O1E O 0.48533(21) 1.10076(14) 0.26683(5)
O2E O 0.58300(20) 1.29340(13) 0.20157(4)
C1E C 0.5863(3) 1.2501(2) 0.29350(7)
C2E C 0.6889(3) 1.3594(2) 0.24716(7)
C3E C 0.6792(3) 1.2294(2) 0.33857(7)
H1E H 0.5151(26) 1.2883(17) 0.3085(5)
C9E C 0.7431(3) 1.5339(2) 0.25144(7)
H2E H 0.7781(30) 1.3420(20) 0.2427(6)
C4E C 0.7251(3) 1.1146(2) 0.33529(8)
C8E C 0.7232(3) 1.3260(2) 0.38412(7)
C10E C 0.6376(3) 1.5893(2) 0.24377(8)
C14E C 0.9008(4) 1.6426(2) 0.26222(8)
C5E C 0.8093(3) 1.0945(2) 0.37630(8)
H3E H 0.6875(34) 1.0451(24) 0.3070(8)
C7E C 0.8094(4) 1.3076(3) 0.42525(8)
H7E H 0.6936(32) 1.4064(22) 0.3863(6)
C11E C 0.6903(4) 1.7509(2) 0.24634(8)
H8E H 0.5303(30) 1.5188(21) 0.2341(7)
C13E C 0.9530(4) 1.8038(2) 0.26493(9)
H12E H 0.9716(34) 1.6031(23) 0.2685(7)
C6E C 0.8526(4) 1.1918(3) 0.42158(8)
H4E H 0.8411(36) 1.0073(25) 0.3727(7)
H6E H 0.8370(33) 1.3746(24) 0.4578(8)
C12E C 0.8473(4) 1.8581(3) 0.25644(8)
H9E H 0.6159(34) 1.7852(22) 0.2382(7)
H11E H 1.0559(40) 1.8752(28) 0.2706(8)
H5E H 0.9078(35) 1.1792(24) 0.4519(7)
H10E H 0.8875(32) 1.9710(23) 0.2560(6)
loop_
_geom_bond_atom_site_label_1
_geom_bond_atom_site_label_2
_geom_bond_site_symmetry_1
_geom_bond_site_symmetry_2
O1 C1 1_555 1_555
O2 C2 1_555 1_555
C1 C2 1_555 1_555
C2 C9 1_555 1_555
C3 C1 1_555 1_555
C4 C3 1_555 1_555
C5 C4 1_555 1_555
C6 C5 1_555 1_555
C7 C6 1_555 1_555
C8 C3 1_555 1_555
C9 C10 1_555 1_555
C10 C11 1_555 1_555
C11 C12 1_555 1_555
C12 C13 1_555 1_555
C13 C14 1_555 1_555
C14 C9 1_555 1_555
C15 O1 1_555 1_555
C16 C15 1_555 1_555
C17 C15 1_555 1_555
H1 C1 1_555 1_555
H2 C2 1_555 1_555
H3 C4 1_555 1_555
H4 C5 1_555 1_555
H5 C6 1_555 1_555
H6 C7 1_555 1_555
H7 C8 1_555 1_555
H8 C10 1_555 1_555
H9 C11 1_555 1_555
H10 C12 1_555 1_555
H11 C13 1_555 1_555
H12 C14 1_555 1_555
H13 C16 1_555 1_555
H14 C17 1_555 1_555
C16E C16 1_555 1_555
C17E C17 1_555 1_555
C15E C16E 1_555 1_555
H13E C16E 1_555 1_555
H14E C17E 1_555 1_555
O1E C15E 1_555 1_555
O2E C15E 1_555 1_555
C1E O1E 1_555 1_555
C2E O2E 1_555 1_555
C3E C1E 1_555 1_555
H1E C1E 1_555 1_555
C9E C2E 1_555 1_555
H2E C2E 1_555 1_555
C4E C3E 1_555 1_555
C8E C3E 1_555 1_555
C10E C9E 1_555 1_555
C14E C9E 1_555 1_555
C5E C4E 1_555 1_555
H3E C4E 1_555 1_555
C7E C8E 1_555 1_555
H7E C8E 1_555 1_555
C11E C10E 1_555 1_555
H8E C10E 1_555 1_555
C13E C14E 1_555 1_555
H12E C14E 1_555 1_555
C6E C5E 1_555 1_555
H4E C5E 1_555 1_555
H6E C7E 1_555 1_555
C12E C11E 1_555 1_555
H9E C11E 1_555 1_555
H11E C13E 1_555 1_555
H5E C6E 1_555 1_555
H10E C12E 1_555 1_555
O2 C15 1_555 1_555
C7 C8 1_555 1_555
C17E C15E 1_555 1_555
C1E C2E 1_555 1_555
C7E C6E 1_555 1_555
C13E C12E 1_555 1_555

#END
