
#######################################################################
#
#                 Cambridge Crystallographic Data Centre
#                                CCDC 
#
#######################################################################
#
# If this CIF has been generated from an entry in the Cambridge 
# Structural Database, then it will include bibliographic, chemical, 
# crystal, experimental, refinement or atomic coordinate data resulting 
# from the CCDC's data processing and validation procedures.
#
#######################################################################

data_SUPJOE
_chemical_formula_moiety         'C8 H8 B1 N1'
_chemical_name_systematic        1H-borinino[1,2-b][1,2]azaborinine
_symmetry_cell_setting           monoclinic
_symmetry_space_group_name_H-M   'P 21/c'
_symmetry_Int_Tables_number      14
_space_group_name_Hall           '-P 2ybc'
loop_
_symmetry_equiv_pos_site_id
_symmetry_equiv_pos_as_xyz
1 x,y,z
2 -x,1/2+y,1/2-z
3 -x,-y,-z
4 x,1/2-y,1/2+z
_cell_length_a                   8.1542(6)
_cell_length_b                   5.7395(4)
_cell_length_c                   7.7590(5)
_cell_angle_alpha                90
_cell_angle_beta                 107.059(6)
_cell_angle_gamma                90
_cell_volume                     347.153
_exptl_crystal_colour            colorless
_exptl_crystal_description       block
_cell_formula_units_Z            2
loop_
_atom_site_label
_atom_site_type_symbol
_atom_site_fract_x
_atom_site_fract_y
_atom_site_fract_z
C1 C 0.7870(3) 0.3221(4) 0.5226(3)
C2 C 0.8243(3) 0.5287(4) 0.6204(3)
C3 C 0.6967(3) 0.6800(4) 0.6397(3)
H1 H 0.720(4) 0.812(7) 0.702(4)
H2 H 0.948(3) 0.558(5) 0.676(4)
H3 H 0.880(4) 0.216(5) 0.515(4)
B1 B 0.5162(3) 0.6124(4) 0.5503(3)
H4 H 0.616(3) 0.089(5) 0.373(4)
N1 N 0.6285(3) 0.2507(3) 0.4400(3)
C1B C 0.2130(3) 0.6779(4) 0.4774(3)
C2B C 0.1757(3) 0.4713(4) 0.3796(3)
C3B C 0.3033(3) 0.3200(4) 0.3603(3)
H1B H 0.280(4) 0.188(7) 0.298(4)
H2B H 0.052(3) 0.442(5) 0.324(4)
H3B H 0.120(4) 0.784(5) 0.485(4)
B1B B 0.4838(3) 0.3876(4) 0.4497(3)
H4B H 0.384(3) 0.911(5) 0.627(4)
N1B N 0.3715(3) 0.7493(3) 0.5600(3)
C4? C 0.4838(3) 0.3876(4) 0.4497(3)
C5? C 0.6285(3) 0.2507(3) 0.4400(3)
loop_
_geom_bond_atom_site_label_1
_geom_bond_atom_site_label_2
_geom_bond_site_symmetry_1
_geom_bond_site_symmetry_2
C1 C2 1_555 1_555
C2 C3 1_555 1_555
C3 H1 1_555 1_555
H2 C2 1_555 1_555
H3 C1 1_555 1_555
B1 C3 1_555 1_555
H4 N1 1_555 1_555
N1 C1 1_555 1_555
C1B C2B 1_555 1_555
C2B C3B 1_555 1_555
C3B H1B 1_555 1_555
H2B C2B 1_555 1_555
H3B C1B 1_555 1_555
B1B B1 1_555 1_555
H4B N1B 1_555 1_555
N1B B1 1_555 1_555
N1 B1B 1_555 1_555
C1B N1B 1_555 1_555
C3B B1B 1_555 1_555

#END
