
#######################################################################
#
#                 Cambridge Crystallographic Data Centre
#                                CCDC 
#
#######################################################################
#
# If this CIF has been generated from an entry in the Cambridge 
# Structural Database, then it will include bibliographic, chemical, 
# crystal, experimental, refinement or atomic coordinate data resulting 
# from the CCDC's data processing and validation procedures.
#
#######################################################################

data_SURKOF
_chemical_formula_moiety         'C9 H9 N1 O1 S4'
_chemical_name_systematic        4-(N,N-Dimethylcarbamoyl)tetrathiafulvalene
_symmetry_cell_setting           monoclinic
_symmetry_space_group_name_H-M   'P 21/n'
_symmetry_Int_Tables_number      14
_space_group_name_Hall           '-P 2yn'
loop_
_symmetry_equiv_pos_site_id
_symmetry_equiv_pos_as_xyz
1 x,y,z
2 1/2-x,1/2+y,1/2-z
3 -x,-y,-z
4 1/2+x,1/2-y,1/2+z
_cell_length_a                   9.048(3)
_cell_length_b                   8.971(1)
_cell_length_c                   14.996(2)
_cell_angle_alpha                90
_cell_angle_beta                 106.29(2)
_cell_angle_gamma                90
_cell_volume                     1168.35
_exptl_crystal_colour            orange
_chemical_melting_point          169-170deg.C
_cell_formula_units_Z            4
loop_
_atom_site_label
_atom_site_type_symbol
_atom_site_fract_x
_atom_site_fract_y
_atom_site_fract_z
S1 S 0.15727(12) 0.21136(11) 0.56576(6)
S2 S -0.01166(12) -0.00168(11) 0.65163(6)
S3 S -0.17389(13) 0.34760(13) 0.44253(7)
S4 S -0.33486(12) 0.12954(13) 0.52857(7)
O1 O 0.4592(3) 0.2906(3) 0.6848(2)
N1 N 0.5330(4) 0.0656(4) 0.7496(2)
C1 C -0.0208(4) 0.1412(4) 0.5698(2)
C2 C 0.2637(4) 0.1153(4) 0.6650(2)
C3 C 0.1832(4) 0.0209(4) 0.7020(2)
H1 H 0.2325(4) -0.0326(4) 0.7552(2)
C4 C -0.1579(4) 0.1960(4) 0.5195(2)
C5 C -0.3649(5) 0.3844(5) 0.4389(3)
H2 H -0.4146(5) 0.4701(5) 0.4107(3)
C6 C -0.4364(6) 0.2866(5) 0.4776(3)
H3 H -0.5381(6) 0.3008(5) 0.4779(3)
C7 C 0.4268(4) 0.1611(4) 0.7005(2)
C8 C 0.6857(5) 0.1222(5) 0.7975(3)
H4 H 0.7558(8) 0.1010(27) 0.7614(10)
H5 H 0.7220(14) 0.0754(23) 0.8573(8)
H6 H 0.6801(7) 0.2281(7) 0.8055(17)
C9 C 0.5150(5) -0.0949(5) 0.7540(3)
H7 H 0.4878(34) -0.1202(6) 0.8095(11)
H8 H 0.6102(12) -0.1428(5) 0.7546(21)
H9 H 0.4353(25) -0.1276(6) 0.7007(12)
loop_
_geom_bond_atom_site_label_1
_geom_bond_atom_site_label_2
_geom_bond_site_symmetry_1
_geom_bond_site_symmetry_2
S1 C1 1_555 1_555
S2 C1 1_555 1_555
S3 C4 1_555 1_555
S4 C4 1_555 1_555
O1 C7 1_555 1_555
N1 C7 1_555 1_555
C1 C4 1_555 1_555
C2 S1 1_555 1_555
C3 S2 1_555 1_555
H1 C3 1_555 1_555
C5 S3 1_555 1_555
H2 C5 1_555 1_555
C6 S4 1_555 1_555
H3 C6 1_555 1_555
C7 C2 1_555 1_555
C8 N1 1_555 1_555
H4 C8 1_555 1_555
H5 C8 1_555 1_555
H6 C8 1_555 1_555
C9 N1 1_555 1_555
H7 C9 1_555 1_555
H8 C9 1_555 1_555
H9 C9 1_555 1_555
C2 C3 1_555 1_555
C5 C6 1_555 1_555

#END
