
#######################################################################
#
#                 Cambridge Crystallographic Data Centre
#                                CCDC 
#
#######################################################################
#
# If this CIF has been generated from an entry in the Cambridge 
# Structural Database, then it will include bibliographic, chemical, 
# crystal, experimental, refinement or atomic coordinate data resulting 
# from the CCDC's data processing and validation procedures.
#
#######################################################################

data_SURQIH01
_chemical_formula_moiety         'C18 H20 Br1 N1'
_chemical_name_systematic        9-(6-bromohexyl)-9H-carbazole
_symmetry_cell_setting           orthorhombic
_symmetry_space_group_name_H-M   'P b c a'
_symmetry_Int_Tables_number      61
_space_group_name_Hall           '-P 2ac 2ab'
loop_
_symmetry_equiv_pos_site_id
_symmetry_equiv_pos_as_xyz
1 x,y,z
2 1/2-x,-y,1/2+z
3 1/2+x,1/2-y,-z
4 -x,1/2+y,1/2-z
5 -x,-y,-z
6 1/2+x,y,1/2-z
7 1/2-x,1/2+y,z
8 x,1/2-y,1/2+z
_cell_length_a                   16.3828(18)
_cell_length_b                   8.1068(7)
_cell_length_c                   24.499(3)
_cell_angle_alpha                90
_cell_angle_beta                 90
_cell_angle_gamma                90
_cell_volume                     3253.76
_exptl_crystal_description       block
_cell_formula_units_Z            8
loop_
_atom_site_label
_atom_site_type_symbol
_atom_site_fract_x
_atom_site_fract_y
_atom_site_fract_z
Br1 Br 0.84276(4) 0.20041(7) 0.52255(3)
N1 N 0.9227(2) 1.1279(4) 0.34919(15)
C1 C 0.9455(3) 1.3416(5) 0.2914(2)
C2 C 0.8846(3) 0.9858(4) 0.37508(18)
H1 H 0.8262 1.0043 0.3771
H2 H 0.9050 0.9764 0.4121
C3 C 0.8964(3) 0.6164(5) 0.42287(18)
H3 H 0.8973 0.7030 0.4502
H4 H 0.9525 0.5878 0.4143
C4 C 0.9970(3) 1.1964(5) 0.3631(2)
C5 C 1.0129(3) 1.3305(5) 0.3284(2)
C6 C 0.9001(3) 0.8249(4) 0.34553(18)
H5 H 0.9582 0.8027 0.3451
H6 H 0.8819 0.8351 0.3080
C7 C 0.8530(3) 0.4646(5) 0.4464(2)
H7 H 0.7991 0.4963 0.4589
H8 H 0.8464 0.3828 0.4179
C8 C 0.8910(3) 1.2138(5) 0.30497(19)
C9 C 0.8556(3) 0.6798(5) 0.3725(2)
H9 H 0.8006 0.7142 0.3818
H10 H 0.8513 0.5904 0.3463
C10 C 0.8019(4) 1.2957(7) 0.2349(2)
H11 H 0.7539 1.2819 0.2152
C11 C 1.0852(4) 1.4196(6) 0.3362(3)
H12 H 1.0973 1.5104 0.3144
C12 C 0.8548(5) 1.4216(7) 0.2206(2)
H13 H 0.8416 1.4908 0.1917
C13 C 0.8187(3) 1.1905(5) 0.2773(2)
H14 H 0.7827 1.1068 0.2870
C14 C 0.9263(4) 1.4460(6) 0.2487(2)
H15 H 0.9613 1.5314 0.2391
C15 C 0.8986(3) 0.3913(6) 0.4921(2)
H16 H 0.9059 0.4735 0.5204
H17 H 0.9523 0.3582 0.4794
C16 C 1.1205(4) 1.2368(10) 0.4098(3)
H18 H 1.1575 1.2071 0.4369
C17 C 1.0508(4) 1.1479(6) 0.4038(2)
H19 H 1.0395 1.0579 0.4261
C18 C 1.1379(4) 1.3703(10) 0.3766(3)
H20 H 1.1864 1.4280 0.3818
loop_
_geom_bond_atom_site_label_1
_geom_bond_atom_site_label_2
_geom_bond_site_symmetry_1
_geom_bond_site_symmetry_2
Br1 C15 1_555 1_555
N1 C2 1_555 1_555
C1 C5 1_555 1_555
C2 H1 1_555 1_555
H2 C2 1_555 1_555
C3 H3 1_555 1_555
H4 C3 1_555 1_555
C4 N1 1_555 1_555
C5 C4 1_555 1_555
C6 C2 1_555 1_555
H5 C6 1_555 1_555
H6 C6 1_555 1_555
C7 C3 1_555 1_555
H7 C7 1_555 1_555
H8 C7 1_555 1_555
C8 N1 1_555 1_555
C9 C3 1_555 1_555
H9 C9 1_555 1_555
H10 C9 1_555 1_555
C10 H11 1_555 1_555
C11 C5 1_555 1_555
H12 C11 1_555 1_555
C12 C10 1_555 1_555
H13 C12 1_555 1_555
C13 C8 1_555 1_555
H14 C13 1_555 1_555
C14 C1 1_555 1_555
H15 C14 1_555 1_555
C15 C7 1_555 1_555
H16 C15 1_555 1_555
H17 C15 1_555 1_555
C16 H18 1_555 1_555
C17 C4 1_555 1_555
H19 C17 1_555 1_555
C18 C11 1_555 1_555
H20 C18 1_555 1_555
C1 C8 1_555 1_555
C6 C9 1_555 1_555
C10 C13 1_555 1_555
C12 C14 1_555 1_555
C16 C17 1_555 1_555
C16 C18 1_555 1_555

#END
