
#######################################################################
#
#                 Cambridge Crystallographic Data Centre
#                                CCDC 
#
#######################################################################
#
# If this CIF has been generated from an entry in the Cambridge 
# Structural Database, then it will include bibliographic, chemical, 
# crystal, experimental, refinement or atomic coordinate data resulting 
# from the CCDC's data processing and validation procedures.
#
#######################################################################

data_SUSSUW
_chemical_formula_moiety         'C19 H15 Cl1 N2 O3'
_chemical_name_systematic        
1-Benzoyl-3-(4-chlorophenyl)-4,4a,7,7a-tetrahydrofuro[3,2-c]pyridazin-6(1H)-one
_symmetry_cell_setting           orthorhombic
_symmetry_space_group_name_H-M   'P 21 21 21'
_symmetry_Int_Tables_number      19
_space_group_name_Hall           'P 2ac 2ab'
loop_
_symmetry_equiv_pos_site_id
_symmetry_equiv_pos_as_xyz
1 x,y,z
2 1/2-x,-y,1/2+z
3 -x,1/2+y,1/2-z
4 1/2+x,1/2-y,-z
_cell_length_a                   6.2235(6)
_cell_length_b                   16.6092(17)
_cell_length_c                   16.7213(17)
_cell_angle_alpha                90
_cell_angle_beta                 90
_cell_angle_gamma                90
_cell_volume                     1728.44
_exptl_crystal_description       block
_cell_formula_units_Z            4
loop_
_atom_site_label
_atom_site_type_symbol
_atom_site_fract_x
_atom_site_fract_y
_atom_site_fract_z
C1 C 0.0571(3) 0.87061(13) 0.39071(14)
C2 C 0.1554(4) 0.92291(13) 0.33921(13)
H1 H 0.1006 0.9305 0.2880
C3 C 0.3364(3) 0.96448(11) 0.36347(11)
H2 H 0.4021 1.0004 0.3285
C4 C 0.4216(3) 0.95336(10) 0.43964(10)
C5 C 0.3217(3) 0.89776(11) 0.48886(11)
H3 H 0.3782 0.8879 0.5394
C6 C 0.1409(4) 0.85679(13) 0.46487(12)
H4 H 0.0761 0.8198 0.4990
C7 C 0.6111(3) 0.99903(10) 0.46729(9)
C8 C 0.7063(4) 1.06327(11) 0.41554(10)
H5 H 0.5913 1.0931 0.3900
H6 H 0.7916 1.0382 0.3738
C9 C 0.8447(4) 1.12044(10) 0.46151(10)
H7 H 0.9386 1.1493 0.4242
C10 C 0.9804(3) 1.08395(9) 0.52743(10)
H8 H 1.1204 1.0664 0.5070
C11 C 1.0043(3) 1.15491(10) 0.58434(12)
H9 H 1.0141 1.1368 0.6394
H10 H 1.1310 1.1864 0.5715
C12 C 0.8057(4) 1.20236(12) 0.57116(13)
C13 C 0.9644(3) 0.97995(9) 0.63012(10)
C14 C 0.8512(3) 0.91305(9) 0.67219(9)
C15 C 0.6408(3) 0.91796(11) 0.69854(9)
H11 H 0.5570 0.9625 0.6858
C16 C 0.5564(3) 0.85593(13) 0.74400(10)
H12 H 0.4168 0.8599 0.7635
C17 C 0.6757(4) 0.78902(12) 0.76061(11)
H13 H 0.6166 0.7473 0.7904
C18 C 0.8825(4) 0.78347(12) 0.73331(12)
H14 H 0.9632 0.7376 0.7440
C19 C 0.9710(3) 0.84555(10) 0.69021(10)
H15 H 1.1128 0.8421 0.6730
Cl1 Cl -0.17715(10) 0.82227(4) 0.36153(5)
N1 N 0.8659(2) 1.01720(7) 0.56644(8)
N2 N 0.6881(2) 0.97819(7) 0.53531(7)
O1 O 0.7083(2) 1.17817(7) 0.50276(9)
O2 O 0.7324(3) 1.25498(11) 0.61106(11)
O3 O 1.14333(18) 1.00213(7) 0.65138(7)
loop_
_geom_bond_atom_site_label_1
_geom_bond_atom_site_label_2
_geom_bond_site_symmetry_1
_geom_bond_site_symmetry_2
C1 C2 1_555 1_555
C2 H1 1_555 1_555
C3 C2 1_555 1_555
H2 C3 1_555 1_555
C4 C3 1_555 1_555
C5 C4 1_555 1_555
H3 C5 1_555 1_555
C6 C1 1_555 1_555
H4 C6 1_555 1_555
C7 C4 1_555 1_555
C8 C7 1_555 1_555
H5 C8 1_555 1_555
H6 C8 1_555 1_555
C9 C8 1_555 1_555
H7 C9 1_555 1_555
C10 C9 1_555 1_555
H8 C10 1_555 1_555
C11 C10 1_555 1_555
H9 C11 1_555 1_555
H10 C11 1_555 1_555
C12 C11 1_555 1_555
C13 C14 1_555 1_555
C14 C15 1_555 1_555
C15 H11 1_555 1_555
C16 C15 1_555 1_555
H12 C16 1_555 1_555
C17 C16 1_555 1_555
H13 C17 1_555 1_555
C18 C17 1_555 1_555
H14 C18 1_555 1_555
C19 C14 1_555 1_555
H15 C19 1_555 1_555
Cl1 C1 1_555 1_555
N1 C10 1_555 1_555
N2 C7 1_555 1_555
O1 C9 1_555 1_555
O2 C12 1_555 1_555
O3 C13 1_555 1_555
C5 C6 1_555 1_555
C12 O1 1_555 1_555
C13 N1 1_555 1_555
C18 C19 1_555 1_555
N1 N2 1_555 1_555

#END
