
#######################################################################
#
#                 Cambridge Crystallographic Data Centre
#                                CCDC 
#
#######################################################################
#
# If this CIF has been generated from an entry in the Cambridge 
# Structural Database, then it will include bibliographic, chemical, 
# crystal, experimental, refinement or atomic coordinate data resulting 
# from the CCDC's data processing and validation procedures.
#
#######################################################################

data_SUTCOB
_chemical_formula_moiety         'C19 H29 B10 N1 Si1'
_chemical_name_systematic        
2,3-(1,2-Dicarba-closo-dodecaborane-1,2-diyl)-2-phenyl-1-(trimethylsilyl)indole
_symmetry_cell_setting           monoclinic
_symmetry_space_group_name_H-M   'P 21/n'
_symmetry_Int_Tables_number      14
_space_group_name_Hall           '-P 2yn'
loop_
_symmetry_equiv_pos_site_id
_symmetry_equiv_pos_as_xyz
1 x,y,z
2 1/2-x,1/2+y,1/2-z
3 -x,-y,-z
4 1/2+x,1/2-y,1/2+z
_cell_length_a                   10.8368(8)
_cell_length_b                   10.2916(8)
_cell_length_c                   21.5505(15)
_cell_angle_alpha                90
_cell_angle_beta                 95.704(2)
_cell_angle_gamma                90
_cell_volume                     2391.58
_exptl_crystal_colour            colorless
_exptl_crystal_description       block
_cell_formula_units_Z            4
loop_
_atom_site_label
_atom_site_type_symbol
_atom_site_fract_x
_atom_site_fract_y
_atom_site_fract_z
N1 N 0.73532(12) 0.89565(13) 0.10693(6)
Si1 Si 0.60404(5) 0.80640(5) 0.12529(3)
C1 C 0.94554(14) 0.78934(15) 0.14669(7)
C2 C 1.02867(14) 0.91918(16) 0.14134(7)
C3 C 0.85251(14) 0.84189(16) 0.08976(7)
C4 C 0.83157(15) 0.75995(16) 0.03119(7)
C5 C 0.86171(17) 0.63028(18) 0.02689(8)
H1 H 0.9007 0.5877 0.0615
C6 C 0.8345(2) 0.5627(2) -0.02851(9)
H2 H 0.8546 0.4750 -0.0305
C7 C 0.7783(2) 0.6239(2) -0.08016(9)
H3 H 0.7598 0.5781 -0.1171
C8 C 0.7495(2) 0.7539(2) -0.07703(9)
H4 H 0.7125 0.7964 -0.1122
C9 C 0.77531(19) 0.82128(19) -0.02204(8)
H5 H 0.7549 0.9089 -0.0204
C10 C 0.6405(2) 0.6304(2) 0.12726(13)
H6 H 0.7074 0.6139 0.1589
H7 H 0.6644 0.6038 0.0875
H8 H 0.5686 0.5822 0.1364
C11 C 0.4747(2) 0.8360(3) 0.06367(12)
H9 H 0.4989 0.8083 0.0241
H10 H 0.4555 0.9271 0.0620
H11 H 0.4030 0.7880 0.0731
C12 C 0.5657(2) 0.8569(2) 0.20384(11)
H12 H 0.6350 0.8394 0.2340
H13 H 0.4947 0.8092 0.2145
H14 H 0.5476 0.9482 0.2036
C13 C 0.74081(16) 1.03216(17) 0.10464(8)
C14 C 0.6472(2) 1.12034(19) 0.11314(9)
H15 H 0.5690 1.0920 0.1214
C15 C 0.6729(2) 1.2516(2) 0.10898(11)
H16 H 0.6109 1.3115 0.1149
C16 C 0.7870(3) 1.2957(2) 0.09644(12)
H17 H 0.8011 1.3846 0.0935
C17 C 0.8814(2) 1.20917(18) 0.08811(10)
H18 H 0.9594 1.2386 0.0799
C18 C 0.85715(16) 1.07789(17) 0.09222(8)
C19 C 0.94016(15) 0.96524(16) 0.08486(7)
H19 H 0.9797 0.9678 0.0459
B1 B 0.94398(18) 0.90783(19) 0.20487(8)
H20 H 0.8636 0.9681 0.2135
B2 B 0.94816(18) 0.7397(2) 0.22294(9)
H21 H 0.8706 0.6909 0.2427
B3 B 1.03689(18) 0.6574(2) 0.16975(9)
H22 H 1.0160 0.5562 0.1560
B4 B 1.08762(18) 0.77402(19) 0.11705(9)
H23 H 1.1000 0.7481 0.0685
B5 B 1.09610(18) 0.9735(2) 0.21122(9)
H24 H 1.1141 1.0760 0.2233
B6 B 1.04974(19) 0.8553(2) 0.26519(9)
H25 H 1.0393 0.8808 0.3140
B7 B 1.1074(2) 0.7015(2) 0.24473(10)
H26 H 1.1342 0.6274 0.2804
B8 B 1.19158(19) 0.7223(2) 0.17839(10)
H27 H 1.2724 0.6620 0.1707
B9 B 1.18374(17) 0.8914(2) 0.15771(9)
H28 H 1.2576 0.9419 0.1358
B10 B 1.1986(2) 0.8447(2) 0.23737(10)
H29 H 1.2842 0.8632 0.2679
loop_
_geom_bond_atom_site_label_1
_geom_bond_atom_site_label_2
_geom_bond_site_symmetry_1
_geom_bond_site_symmetry_2
N1 Si1 1_555 1_555
Si1 C10 1_555 1_555
C1 C2 1_555 1_555
C2 C19 1_555 1_555
C3 N1 1_555 1_555
C4 C3 1_555 1_555
C5 C4 1_555 1_555
H1 C5 1_555 1_555
C6 C5 1_555 1_555
H2 C6 1_555 1_555
C7 C6 1_555 1_555
H3 C7 1_555 1_555
C8 C7 1_555 1_555
H4 C8 1_555 1_555
C9 C4 1_555 1_555
H5 C9 1_555 1_555
C10 H6 1_555 1_555
H7 C10 1_555 1_555
H8 C10 1_555 1_555
C11 Si1 1_555 1_555
H9 C11 1_555 1_555
H10 C11 1_555 1_555
H11 C11 1_555 1_555
C12 Si1 1_555 1_555
H12 C12 1_555 1_555
H13 C12 1_555 1_555
H14 C12 1_555 1_555
C13 N1 1_555 1_555
C14 C13 1_555 1_555
H15 C14 1_555 1_555
C15 C14 1_555 1_555
H16 C15 1_555 1_555
C16 C15 1_555 1_555
H17 C16 1_555 1_555
C17 C16 1_555 1_555
H18 C17 1_555 1_555
C18 C13 1_555 1_555
C19 C3 1_555 1_555
H19 C19 1_555 1_555
B1 C1 1_555 1_555
H20 B1 1_555 1_555
B2 C1 1_555 1_555
H21 B2 1_555 1_555
B3 C1 1_555 1_555
H22 B3 1_555 1_555
B4 C1 1_555 1_555
H23 B4 1_555 1_555
B5 C2 1_555 1_555
H24 B5 1_555 1_555
B6 B1 1_555 1_555
H25 B6 1_555 1_555
B7 B2 1_555 1_555
H26 B7 1_555 1_555
B8 B3 1_555 1_555
H27 B8 1_555 1_555
B9 C2 1_555 1_555
H28 B9 1_555 1_555
B10 B5 1_555 1_555
H29 B10 1_555 1_555
C1 C3 1_555 1_555
C2 B1 1_555 1_555
C2 B4 1_555 1_555
C8 C9 1_555 1_555
C17 C18 1_555 1_555
C18 C19 1_555 1_555
B1 B2 1_555 1_555
B1 B5 1_555 1_555
B2 B3 1_555 1_555
B2 B6 1_555 1_555
B3 B4 1_555 1_555
B3 B7 1_555 1_555
B4 B8 1_555 1_555
B4 B9 1_555 1_555
B5 B6 1_555 1_555
B5 B9 1_555 1_555
B6 B7 1_555 1_555
B6 B10 1_555 1_555
B7 B8 1_555 1_555
B7 B10 1_555 1_555
B8 B9 1_555 1_555
B8 B10 1_555 1_555
B9 B10 1_555 1_555

#END
