
#######################################################################
#
#                 Cambridge Crystallographic Data Centre
#                                CCDC 
#
#######################################################################
#
# If this CIF has been generated from an entry in the Cambridge 
# Structural Database, then it will include bibliographic, chemical, 
# crystal, experimental, refinement or atomic coordinate data resulting 
# from the CCDC's data processing and validation procedures.
#
#######################################################################

data_SUTGIZ
_chemical_formula_moiety         'C33 H61 F1 O1 Si1'
_chemical_name_systematic        
3-((t-Butyl(dimethyl)silyl)oxy)-6-fluorocholestane
_symmetry_cell_setting           monoclinic
_symmetry_space_group_name_H-M   'P 21'
_symmetry_Int_Tables_number      4
_space_group_name_Hall           'P 2yb'
loop_
_symmetry_equiv_pos_site_id
_symmetry_equiv_pos_as_xyz
1 x,y,z
2 -x,1/2+y,-z
_cell_length_a                   23.0752(8)
_cell_length_b                   6.2109(2)
_cell_length_c                   23.7697(7)
_cell_angle_alpha                90
_cell_angle_beta                 107.145(2)
_cell_angle_gamma                90
_cell_volume                     3255.24
_exptl_crystal_colour            colorless
_exptl_crystal_description       block
_cell_formula_units_Z            4
loop_
_atom_site_label
_atom_site_type_symbol
_atom_site_fract_x
_atom_site_fract_y
_atom_site_fract_z
Si1 Si 0.85207(6) 0.43288(18) 0.61263(5)
O1 O 0.82121(14) 0.5861(4) 0.55486(12)
F1 F 0.99370(12) 0.7053(5) 0.44888(12)
C1 C 0.9757(2) 0.5282(7) 0.24267(19)
H1 H 0.9912 0.3837 0.2572
H2 H 1.0075 0.6367 0.2595
C2 C 0.7947(3) 0.6862(8) 0.6780(3)
H3 H 0.8348 0.7408 0.7000
H4 H 0.7674 0.6952 0.7026
H5 H 0.7784 0.7729 0.6424
C3 C 0.8912(2) 0.6270(8) 0.0479(2)
H6 H 0.9270 0.5337 0.0646
H7 H 0.8555 0.5321 0.0330
C4 C 0.9009(3) 0.7509(9) -0.0037(2)
H8 H 0.8640 0.8360 -0.0224
H9 H 0.9348 0.8533 0.0113
C5 C 0.9146(2) 0.6108(8) -0.0494(2)
H10 H 0.9494 0.5186 -0.0290
H11 H 0.8794 0.5142 -0.0649
C6 C 0.85671(19) 0.6677(6) 0.32562(18)
H12 H 0.8374 0.5225 0.3167
C7 C 0.8839(2) 0.7430(6) 0.21053(18)
C8 C 0.9581(2) 0.4812(7) 0.36456(19)
H13 H 0.9421 0.3353 0.3522
H14 H 1.0007 0.4855 0.3636
C9 C 0.9570(2) 0.5194(7) 0.42720(19)
H15 H 0.9754 0.3921 0.4518
C10 C 0.9555(2) 0.5361(7) 0.17424(19)
H16 H 0.9839 0.6258 0.1602
H17 H 0.9551 0.3892 0.1580
C11 C 0.8913(2) 0.6338(7) 0.15414(18)
H18 H 0.8620 0.5112 0.1443
C12 C 0.9213(2) 0.6444(6) 0.32076(18)
H19 H 0.9420 0.7874 0.3292
C13 C 0.7909(2) 0.7081(7) 0.39418(19)
H20 H 0.7659 0.8243 0.3704
H21 H 0.7732 0.5689 0.3771
C14 C 0.8189(2) 0.8207(8) 0.27797(19)
H22 H 0.7765 0.8197 0.2795
H23 H 0.8347 0.9688 0.2869
C15 C 0.8559(2) 0.7254(6) 0.38915(18)
C16 C 0.8814(2) 0.7688(8) 0.0978(2)
H24 H 0.9130 0.8842 0.1064
C17 C 0.7872(2) 0.7235(7) 0.45715(19)
H25 H 0.7996 0.8697 0.4727
H26 H 0.7446 0.7013 0.4569
C18 C 0.82719(19) 0.5589(7) 0.49740(18)
H27 H 0.8120 0.4121 0.4830
C19 C 0.8193(2) 0.7620(8) 0.2155(2)
H28 H 0.7970 0.8737 0.1878
H29 H 0.7979 0.6234 0.2041
C20 C 0.9436(3) 0.5506(9) -0.1422(2)
H30 H 0.9802 0.4705 -0.1215
H31 H 0.9505 0.6285 -0.1755
H32 H 0.9097 0.4501 -0.1567
C21 C 0.89451(18) 0.5546(6) 0.43196(17)
H33 H 0.8731 0.4155 0.4184
C22 C 0.9174(2) 0.5797(6) 0.25789(18)
H34 H 0.8926 0.4451 0.2498
C23 C 0.89204(19) 0.5791(6) 0.49514(17)
H35 H 0.9174 0.4667 0.5202
H36 H 0.9085 0.7215 0.5107
C24 C 0.8792(2) 0.9558(7) 0.40598(19)
H37 H 0.9186 0.9741 0.3988
H38 H 0.8837 0.9806 0.4478
H39 H 0.8502 1.0595 0.3821
C25 C 0.9156(2) 0.9631(7) 0.21888(19)
H40 H 0.9560 0.9480 0.2138
H41 H 0.9193 1.0172 0.2585
H42 H 0.8916 1.0646 0.1896
C26 C 0.7376(2) 0.3634(9) 0.6275(2)
H43 H 0.7195 0.4542 0.5931
H44 H 0.7117 0.3644 0.6535
H45 H 0.7415 0.2157 0.6146
C27 C 0.8261(3) 0.3171(9) 0.7165(2)
H46 H 0.8290 0.1659 0.7058
H47 H 0.7993 0.3288 0.7416
H48 H 0.8665 0.3709 0.7379
C28 C 0.8002(2) 0.4506(8) 0.66062(19)
C29 C 0.8196(3) 0.8787(10) 0.0782(2)
H49 H 0.8146 0.9513 0.0405
H50 H 0.8169 0.9848 0.1078
H51 H 0.7876 0.7707 0.0737
C30 C 0.9286(3) 0.7088(8) -0.1005(2)
H52 H 0.9719 0.7393 -0.0786
C31 C 0.9286(2) 0.5394(8) 0.6527(2)
H53 H 0.9561 0.5180 0.6287
H54 H 0.9444 0.4627 0.6901
H55 H 0.9256 0.6934 0.6603
C32 C 0.8587(2) 0.1497(7) 0.5896(2)
H56 H 0.8185 0.0952 0.5679
H57 H 0.8758 0.0603 0.6245
H58 H 0.8853 0.1444 0.5642
C33 C 0.9126(7) 0.9421(14) -0.1153(6)
H59 H 0.8687 0.9615 -0.1242
H60 H 0.9254 0.9834 -0.1496
H61 H 0.9335 1.0327 -0.0816
O2 O 0.33385(16) 0.7383(5) 1.06487(16)
F2 F 0.5029(4) 0.7531(13) 0.9515(4)
Si2 Si 0.29763(15) 0.6170(4) 1.10858(13)
C35 C 0.4022(3) 0.3712(9) 0.4598(3)
H66 H 0.3719 0.2557 0.4570
H67 H 0.4424 0.3102 0.4809
C36 C 0.3609(2) 0.7023(7) 0.8315(2)
H68 H 0.3406 0.5583 0.8258
C37 C 0.3916(2) 0.5605(7) 0.6619(2)
H69 H 0.3646 0.4328 0.6597
C38 C 0.3355(2) 0.6848(8) 1.0061(3)
H70 H 0.3210 0.5333 0.9973
C39 C 0.3879(2) 0.4748(8) 0.5578(2)
H71 H 0.4270 0.4027 0.5772
H72 H 0.3555 0.3657 0.5528
C40 C 0.3841(2) 0.7055(7) 0.7127(2)
C41 C 0.4783(2) 0.5152(10) 0.7515(3)
H73 H 0.4964 0.3828 0.7726
H74 H 0.5084 0.6332 0.7622
C42 C 0.3202(2) 0.7254(11) 0.7186(2)
H75 H 0.3025 0.5813 0.7203
H76 H 0.2936 0.8054 0.6848
C43 C 0.3602(2) 0.7927(7) 0.8923(2)
C44 C 0.4577(2) 0.4787(8) 0.6852(3)
H77 H 0.4597 0.3236 0.6762
H78 H 0.4841 0.5589 0.6664
C45 C 0.4247(2) 0.6765(7) 0.8251(2)
H79 H 0.4459 0.8186 0.8292
C46 C 0.3140(3) 0.7429(11) 0.5762(3)
H80 H 0.2844 0.6346 0.5798
H81 H 0.3059 0.7833 0.5348
H82 H 0.3106 0.8704 0.5993
C47 C 0.3888(3) 0.5482(9) 0.4972(2)
H83 H 0.3489 0.6119 0.4765
H84 H 0.4198 0.6625 0.5018
C48 C 0.4129(3) 0.9260(8) 0.7093(2)
H85 H 0.4529 0.9059 0.7036
H86 H 0.4173 1.0050 0.7460
H87 H 0.3869 1.0079 0.6762
C49 C 0.4411(5) 0.6210(16) 0.3953(6)
H88 H 0.4292 0.7422 0.4158
H89 H 0.4352 0.6599 0.3540
H90 H 0.4839 0.5869 0.4140
C50 C 0.4206(2) 0.5750(7) 0.7662(2)
H91 H 0.3978 0.4373 0.7650
C51 C 0.4612(9) 0.515(3) 0.8710(5)
H92 H 0.4428 0.3704 0.8622
H93 H 0.5032 0.5070 0.8684
C52 C 0.3780(2) 0.6497(8) 0.5992(2)
H94 H 0.4074 0.7686 0.5999
C53 C 0.3989(2) 0.6994(9) 1.0022(2)
H95 H 0.4253 0.5980 1.0306
H96 H 0.4147 0.8469 1.0127
C54 C 0.4026(2) 0.4269(9) 0.3983(2)
H97 H 0.3600 0.4660 0.3761
C55 C 0.4629(4) 0.5796(19) 0.9332(6)
H98 H 0.4786 0.4549 0.9600
C56 C 0.4009(2) 0.6455(8) 0.9399(2)
H99 H 0.3781 0.5064 0.9321
C57 C 0.3829(4) 1.0252(9) 0.8993(3)
H100 H 0.4214 1.0342 0.8898
H101 H 0.3891 1.0721 0.9400
H102 H 0.3528 1.1184 0.8726
C58 C 0.4166(7) 0.215(3) 0.3712(6)
H103 H 0.4578 0.1673 0.3924
H104 H 0.4135 0.2379 0.3297
H105 H 0.3874 0.1042 0.3744
C59 C 0.2939(3) 0.8309(12) 0.9618(2)
H106 H 0.3079 0.9821 0.9679
H107 H 0.2519 0.8224 0.9645
C60 C 0.2742(5) 0.3387(13) 1.0856(5)
H108 H 0.2512 0.3371 1.0438
H109 H 0.2487 0.2835 1.1089
H110 H 0.3103 0.2477 1.0921
C61 C 0.3582(6) 0.863(2) 1.2083(9)
H111 H 0.3725 0.9402 1.1789
H112 H 0.3903 0.8624 1.2460
H113 H 0.3223 0.9359 1.2131
C62 C 0.3099(6) 0.527(2) 1.2284(5)
H114 H 0.2699 0.5928 1.2219
H115 H 0.3340 0.5481 1.2695
H116 H 0.3053 0.3728 1.2197
C63 C 0.2241(4) 0.758(2) 1.0956(5)
H117 H 0.2311 0.9139 1.0990
H118 H 0.2045 0.7115 1.1249
H119 H 0.1978 0.7238 1.0561
C64 C 0.3421(4) 0.6330(14) 1.1879(4)
C65 C 0.4036(5) 0.523(2) 1.1960(5)
H120 H 0.3971 0.3793 1.1780
H121 H 0.4249 0.5087 1.2381
H122 H 0.4281 0.6093 1.1771
C66 C 0.3277(5) 0.8517(15) 0.7776(3)
H123 H 0.2874 0.8943 0.7806
H124 H 0.3518 0.9839 0.7781
C67 C 0.2972(4) 0.7461(19) 0.9023(4)
H125 H 0.2649 0.8146 0.8704
H126 H 0.2899 0.5889 0.9003
H62? H 0.9668 0.7924 -0.0834
C34? C 0.8846(6) 0.8676(18) -0.1380(5)
H63? H 0.8461 0.7949 -0.1572
H64? H 0.9015 0.9265 -0.1681
H65? H 0.8775 0.9849 -0.1132
H127? H 0.3478 0.5496 0.8333
C68? C 0.2966(4) 0.826(2) 0.8968(4)
H128? H 0.2702 0.7083 0.8754
H129? H 0.2803 0.9633 0.8773
H130? H 0.3000 0.5846 0.7075
H131? H 0.2981 0.8309 0.6888
H132? H 0.4396 0.8264 0.8227
C69? C 0.3110(5) 0.792(2) 0.7786(3)
H133? H 0.3108 0.9514 0.7812
H134? H 0.2711 0.7395 0.7803
H135? H 0.3685 0.5291 0.3810
H136? H 0.3879 0.4927 0.9307
H137? H 0.3022 0.9804 0.9764
H138? H 0.2518 0.7969 0.9612
Si3? Si 0.33861(13) 0.5591(4) 1.11152(11)
C70? C 0.3020(4) 0.6739(13) 1.1654(4)
C71? C 0.4200(4) 0.511(2) 1.1484(5)
H139? H 0.4392 0.4537 1.1198
H140? H 0.4245 0.4068 1.1803
H141? H 0.4396 0.6466 1.1645
C72? C 0.3092(7) 0.3009(15) 1.0771(5)
H142? H 0.2675 0.3201 1.0519
H143? H 0.3099 0.1947 1.1077
H144? H 0.3347 0.2503 1.0532
C73? C 0.2408(5) 0.773(2) 1.1343(6)
H145? H 0.2455 0.8791 1.1054
H146? H 0.2247 0.8449 1.1633
H147? H 0.2126 0.6603 1.1142
C74? C 0.3359(7) 0.864(2) 1.1989(8)
H148? H 0.3738 0.8145 1.2270
H149? H 0.3109 0.9355 1.2202
H150? H 0.3452 0.9660 1.1712
C75? C 0.2932(7) 0.496(2) 1.2067(6)
H151? H 0.2661 0.3854 1.1839
H152? H 0.2754 0.5578 1.2358
H153? H 0.3326 0.4314 1.2270
C76? C 0.4691(11) 0.578(3) 0.8804(5)
H154? H 0.4611 0.4209 0.8803
H155? H 0.5108 0.5964 0.8778
C77? C 0.4662(5) 0.670(2) 0.9387(8)
H156? H 0.4923 0.5791 0.9709
F3? F 0.4892(5) 0.8789(15) 0.9464(5)
C78? C 0.4626(5) 0.544(2) 0.4028(8)
H157? H 0.4655 0.6736 0.4268
H158? H 0.4639 0.5836 0.3633
H159? H 0.4967 0.4478 0.4212
C79? C 0.4011(9) 0.250(4) 0.3529(8)
H160? H 0.4309 0.1387 0.3707
H161? H 0.4107 0.3124 0.3189
H162? H 0.3605 0.1858 0.3401
loop_
_geom_bond_atom_site_label_1
_geom_bond_atom_site_label_2
_geom_bond_site_symmetry_1
_geom_bond_site_symmetry_2
Si1 O1 1_555 1_555
O1 C18 1_555 1_555
F1 C9 1_555 1_555
C1 H1 1_555 1_555
H2 C1 1_555 1_555
C2 H3 1_555 1_555
H4 C2 1_555 1_555
H5 C2 1_555 1_555
C3 H6 1_555 1_555
H7 C3 1_555 1_555
C4 C3 1_555 1_555
H8 C4 1_555 1_555
H9 C4 1_555 1_555
C5 C4 1_555 1_555
H10 C5 1_555 1_555
H11 C5 1_555 1_555
C6 H12 1_555 1_555
C7 C11 1_555 1_555
C8 H13 1_555 1_555
H14 C8 1_555 1_555
C9 C8 1_555 1_555
H15 C9 1_555 1_555
C10 C1 1_555 1_555
H16 C10 1_555 1_555
H17 C10 1_555 1_555
C11 C10 1_555 1_555
H18 C11 1_555 1_555
C12 C6 1_555 1_555
H19 C12 1_555 1_555
C13 H20 1_555 1_555
H21 C13 1_555 1_555
C14 C6 1_555 1_555
H22 C14 1_555 1_555
H23 C14 1_555 1_555
C15 C6 1_555 1_555
C16 C3 1_555 1_555
H24 C16 1_555 1_555
C17 C13 1_555 1_555
H25 C17 1_555 1_555
H26 C17 1_555 1_555
C18 C17 1_555 1_555
H27 C18 1_555 1_555
C19 C7 1_555 1_555
H28 C19 1_555 1_555
H29 C19 1_555 1_555
C20 H30 1_555 1_555
H31 C20 1_555 1_555
H32 C20 1_555 1_555
C21 C9 1_555 1_555
H33 C21 1_555 1_555
C22 C1 1_555 1_555
H34 C22 1_555 1_555
C23 C18 1_555 1_555
H35 C23 1_555 1_555
H36 C23 1_555 1_555
C24 C15 1_555 1_555
H37 C24 1_555 1_555
H38 C24 1_555 1_555
H39 C24 1_555 1_555
C25 C7 1_555 1_555
H40 C25 1_555 1_555
H41 C25 1_555 1_555
H42 C25 1_555 1_555
C26 H43 1_555 1_555
H44 C26 1_555 1_555
H45 C26 1_555 1_555
C27 H46 1_555 1_555
H47 C27 1_555 1_555
H48 C27 1_555 1_555
C28 Si1 1_555 1_555
C29 C16 1_555 1_555
H49 C29 1_555 1_555
H50 C29 1_555 1_555
H51 C29 1_555 1_555
C30 C5 1_555 1_555
H52 C30 1_555 1_555
C31 Si1 1_555 1_555
H53 C31 1_555 1_555
H54 C31 1_555 1_555
H55 C31 1_555 1_555
C32 Si1 1_555 1_555
H56 C32 1_555 1_555
H57 C32 1_555 1_555
H58 C32 1_555 1_555
C33 C30 1_555 1_555
H59 C33 1_555 1_555
H60 C33 1_555 1_555
H61 C33 1_555 1_555
O2 Si2 1_555 1_555
F2 C55 1_555 1_555
Si2 C60 1_555 1_555
C35 H66 1_555 1_555
H67 C35 1_555 1_555
C36 H68 1_555 1_555
C37 H69 1_555 1_555
C38 O2 1_555 1_555
H70 C38 1_555 1_555
C39 H71 1_555 1_555
H72 C39 1_555 1_555
C40 C37 1_555 1_555
C41 H73 1_555 1_555
H74 C41 1_555 1_555
C42 C40 1_555 1_555
H75 C42 1_555 1_555
H76 C42 1_555 1_555
C43 C36 1_555 1_555
C44 C37 1_555 1_555
H77 C44 1_555 1_555
H78 C44 1_555 1_555
C45 C36 1_555 1_555
H79 C45 1_555 1_555
C46 H80 1_555 1_555
H81 C46 1_555 1_555
H82 C46 1_555 1_555
C47 C35 1_555 1_555
H83 C47 1_555 1_555
H84 C47 1_555 1_555
C48 C40 1_555 1_555
H85 C48 1_555 1_555
H86 C48 1_555 1_555
H87 C48 1_555 1_555
C49 H88 1_555 1_555
H89 C49 1_555 1_555
H90 C49 1_555 1_555
C50 C40 1_555 1_555
H91 C50 1_555 1_555
C51 C45 1_555 1_555
H92 C51 1_555 1_555
H93 C51 1_555 1_555
C52 C37 1_555 1_555
H94 C52 1_555 1_555
C53 C38 1_555 1_555
H95 C53 1_555 1_555
H96 C53 1_555 1_555
C54 C35 1_555 1_555
H97 C54 1_555 1_555
C55 C51 1_555 1_555
H98 C55 1_555 1_555
C56 C43 1_555 1_555
H99 C56 1_555 1_555
C57 C43 1_555 1_555
H100 C57 1_555 1_555
H101 C57 1_555 1_555
H102 C57 1_555 1_555
C58 C54 1_555 1_555
H103 C58 1_555 1_555
H104 C58 1_555 1_555
H105 C58 1_555 1_555
C59 C38 1_555 1_555
H106 C59 1_555 1_555
H107 C59 1_555 1_555
C60 H108 1_555 1_555
H109 C60 1_555 1_555
H110 C60 1_555 1_555
C61 H111 1_555 1_555
H112 C61 1_555 1_555
H113 C61 1_555 1_555
C62 H114 1_555 1_555
H115 C62 1_555 1_555
H116 C62 1_555 1_555
C63 Si2 1_555 1_555
H117 C63 1_555 1_555
H118 C63 1_555 1_555
H119 C63 1_555 1_555
C64 Si2 1_555 1_555
C65 C64 1_555 1_555
H120 C65 1_555 1_555
H121 C65 1_555 1_555
H122 C65 1_555 1_555
C66 C36 1_555 1_555
H123 C66 1_555 1_555
H124 C66 1_555 1_555
C67 C43 1_555 1_555
H125 C67 1_555 1_555
H126 C67 1_555 1_555
C2 C28 1_555 1_555
C7 C22 1_555 1_555
C8 C12 1_555 1_555
C11 C16 1_555 1_555
C12 C22 1_555 1_555
C13 C15 1_555 1_555
C14 C19 1_555 1_555
C15 C21 1_555 1_555
C20 C30 1_555 1_555
C21 C23 1_555 1_555
C26 C28 1_555 1_555
C27 C28 1_555 1_555
C39 C47 1_555 1_555
C39 C52 1_555 1_555
C41 C44 1_555 1_555
C41 C50 1_555 1_555
C42 C66 1_555 1_555
C45 C50 1_555 1_555
C46 C52 1_555 1_555
C49 C54 1_555 1_555
C53 C56 1_555 1_555
C55 C56 1_555 1_555
C59 C67 1_555 1_555
C61 C64 1_555 1_555
C62 C64 1_555 1_555

#END
