
#######################################################################
#
#                 Cambridge Crystallographic Data Centre
#                                CCDC 
#
#######################################################################
#
# If this CIF has been generated from an entry in the Cambridge 
# Structural Database, then it will include bibliographic, chemical, 
# crystal, experimental, refinement or atomic coordinate data resulting 
# from the CCDC's data processing and validation procedures.
#
#######################################################################

data_SUTMAX
_chemical_formula_moiety         'C30 H28 Cl1 N1 O3 S1'
_chemical_name_systematic        
1'-(4-Chlorophenyl)-3a'-methyl-5'-(phenylsulfonyl)-3',3a'-dihydrospiro[cyclohexane-1,2'-cyclopenta[c]quinolin]-4'(5'H)-one
_symmetry_cell_setting           monoclinic
_symmetry_space_group_name_H-M   'P 21/n'
_symmetry_Int_Tables_number      14
_space_group_name_Hall           '-P 2yn'
loop_
_symmetry_equiv_pos_site_id
_symmetry_equiv_pos_as_xyz
1 x,y,z
2 1/2-x,1/2+y,1/2-z
3 -x,-y,-z
4 1/2+x,1/2-y,1/2+z
_cell_length_a                   12.2443(7)
_cell_length_b                   11.5289(6)
_cell_length_c                   18.6517(10)
_cell_angle_alpha                90
_cell_angle_beta                 95.401(3)
_cell_angle_gamma                90
_cell_volume                     2621.25
_exptl_crystal_colour            white
_exptl_crystal_description       block
_cell_formula_units_Z            4
loop_
_atom_site_label
_atom_site_type_symbol
_atom_site_fract_x
_atom_site_fract_y
_atom_site_fract_z
S1 S 0.56042(4) -0.08983(4) 0.16422(3)
Cl1 Cl 0.14672(6) 0.49667(5) -0.12858(3)
N1 N 0.48403(11) 0.01757(12) 0.19640(8)
O1 O 0.36174(10) -0.11569(11) 0.23138(7)
C1 C 0.31597(13) 0.16884(15) 0.16910(9)
C2 C 0.38251(13) -0.01452(15) 0.22144(8)
C3 C 0.30600(13) 0.08638(15) 0.23143(9)
O2 O 0.60183(12) -0.16201(13) 0.22227(8)
C4 C 0.13264(13) 0.09998(15) 0.14974(9)
C5 C 0.51207(13) 0.13794(15) 0.18599(9)
O3 O 0.63513(11) -0.03311(13) 0.12168(8)
C6 C 0.22316(13) 0.17918(15) 0.12651(9)
C7 C 0.20652(13) 0.25678(15) 0.06247(9)
C8 C 0.33975(17) 0.14247(17) 0.30521(9)
H1 H 0.4170 0.1586 0.3094
H2 H 0.3234 0.0903 0.3429
H3 H 0.2999 0.2135 0.3093
C9 C 0.61921(15) 0.17680(17) 0.19884(10)
H4 H 0.6746 0.1259 0.2158
C10 C 0.64309(16) 0.29186(19) 0.18621(11)
H5 H 0.7149 0.3183 0.1944
C11 C 0.23996(16) 0.22595(18) -0.00384(10)
H6 H 0.2747 0.1551 -0.0090
C12 C 0.13986(18) 0.43798(18) 0.01051(11)
H7 H 0.1067 0.5097 0.0156
C13 C 0.02481(14) 0.16540(17) 0.15733(11)
H8 H 0.0374 0.2244 0.1942
H9 H 0.0017 0.2040 0.1122
C14 C 0.46781(15) -0.16876(16) 0.10517(9)
C15 C 0.17243(16) 0.40445(18) -0.05484(10)
C16 C 0.42690(13) 0.21494(15) 0.16539(8)
C17 C 0.15688(17) 0.36386(17) 0.06865(10)
H10 H 0.1345 0.3863 0.1129
C18 C 0.45321(16) 0.33002(17) 0.15260(10)
H11 H 0.3978 0.3824 0.1379
C19 C 0.56105(17) 0.36714(18) 0.16163(11)
H12 H 0.5781 0.4435 0.1510
C20 C 0.10997(16) 0.00203(17) 0.09451(11)
H13 H 0.0909 0.0357 0.0473
H14 H 0.1763 -0.0433 0.0922
C21 C 0.41209(18) -0.11303(19) 0.04722(11)
H15 H 0.4199 -0.0335 0.0411
C22 C 0.22244(18) 0.29916(19) -0.06247(10)
H16 H 0.2444 0.2772 -0.1069
C23 C -0.06593(15) 0.08517(19) 0.17692(12)
H17 H -0.0456 0.0516 0.2240
H18 H -0.1327 0.1296 0.1797
C24 C 0.18405(14) 0.05282(18) 0.22329(10)
H19 H 0.1471 0.0861 0.2622
H20 H 0.1763 -0.0308 0.2250
C25 C 0.01695(17) -0.07839(19) 0.11311(13)
H21 H 0.0024 -0.1352 0.0750
H22 H 0.0395 -0.1198 0.1573
C26 C 0.4584(2) -0.28651(19) 0.11466(12)
H23 H 0.4961 -0.3233 0.1539
C27 C -0.08721(17) -0.0109(2) 0.12234(14)
H24 H -0.1153 0.0220 0.0764
H25 H -0.1424 -0.0631 0.1380
C28 C 0.3450(2) -0.1764(2) -0.00139(12)
H26 H 0.3061 -0.1396 -0.0402
C29 C 0.3918(3) -0.3489(2) 0.06477(14)
H27 H 0.3852 -0.4288 0.0701
C30 C 0.3354(2) -0.2942(3) 0.00752(13)
H28 H 0.2903 -0.3370 -0.0255
loop_
_geom_bond_atom_site_label_1
_geom_bond_atom_site_label_2
_geom_bond_site_symmetry_1
_geom_bond_site_symmetry_2
S1 N1 1_555 1_555
Cl1 C15 1_555 1_555
N1 C2 1_555 1_555
O1 C2 1_555 1_555
C1 C3 1_555 1_555
C2 C3 1_555 1_555
C3 C8 1_555 1_555
O2 S1 1_555 1_555
C4 C6 1_555 1_555
C5 N1 1_555 1_555
O3 S1 1_555 1_555
C6 C1 1_555 1_555
C7 C6 1_555 1_555
C8 H1 1_555 1_555
H2 C8 1_555 1_555
H3 C8 1_555 1_555
C9 C5 1_555 1_555
H4 C9 1_555 1_555
C10 C9 1_555 1_555
H5 C10 1_555 1_555
C11 C7 1_555 1_555
H6 C11 1_555 1_555
C12 H7 1_555 1_555
C13 C4 1_555 1_555
H8 C13 1_555 1_555
H9 C13 1_555 1_555
C14 S1 1_555 1_555
C15 C12 1_555 1_555
C16 C1 1_555 1_555
C17 C7 1_555 1_555
H10 C17 1_555 1_555
C18 C16 1_555 1_555
H11 C18 1_555 1_555
C19 C10 1_555 1_555
H12 C19 1_555 1_555
C20 C4 1_555 1_555
H13 C20 1_555 1_555
H14 C20 1_555 1_555
C21 C14 1_555 1_555
H15 C21 1_555 1_555
C22 C11 1_555 1_555
H16 C22 1_555 1_555
C23 C13 1_555 1_555
H17 C23 1_555 1_555
H18 C23 1_555 1_555
C24 C3 1_555 1_555
H19 C24 1_555 1_555
H20 C24 1_555 1_555
C25 C20 1_555 1_555
H21 C25 1_555 1_555
H22 C25 1_555 1_555
C26 C14 1_555 1_555
H23 C26 1_555 1_555
C27 C23 1_555 1_555
H24 C27 1_555 1_555
H25 C27 1_555 1_555
C28 C21 1_555 1_555
H26 C28 1_555 1_555
C29 C26 1_555 1_555
H27 C29 1_555 1_555
C30 C28 1_555 1_555
H28 C30 1_555 1_555
C4 C24 1_555 1_555
C5 C16 1_555 1_555
C12 C17 1_555 1_555
C15 C22 1_555 1_555
C18 C19 1_555 1_555
C25 C27 1_555 1_555
C29 C30 1_555 1_555

#END
