
#######################################################################
#
#                 Cambridge Crystallographic Data Centre
#                                CCDC 
#
#######################################################################
#
# If this CIF has been generated from an entry in the Cambridge 
# Structural Database, then it will include bibliographic, chemical, 
# crystal, experimental, refinement or atomic coordinate data resulting 
# from the CCDC's data processing and validation procedures.
#
#######################################################################

data_SUTTOR
_chemical_name_common            BMS-488043
_chemical_formula_moiety         'C22 H22 N4 O5'
_chemical_name_systematic        
1-(4-Benzoylpiperazin-1-yl)-2-(4,7-dimethoxy-1H-pyrrolo[2,3-c]pyridin-3-yl)ethane-1,2-dione
_symmetry_cell_setting           monoclinic
_symmetry_space_group_name_H-M   'P 21/n'
_symmetry_Int_Tables_number      14
_space_group_name_Hall           '-P 2yn'
loop_
_symmetry_equiv_pos_site_id
_symmetry_equiv_pos_as_xyz
1 x,y,z
2 1/2-x,1/2+y,1/2-z
3 -x,-y,-z
4 1/2+x,1/2-y,1/2+z
_cell_length_a                   14.5146(2)
_cell_length_b                   7.2752(1)
_cell_length_c                   20.0768(3)
_cell_angle_alpha                90
_cell_angle_beta                 107.066(1)
_cell_angle_gamma                90
_cell_volume                     2026.69
_exptl_crystal_colour            colorless
_exptl_crystal_description       grain
_chemical_melting_point          '244 deg.C'
_cell_formula_units_Z            4
loop_
_atom_site_label
_atom_site_type_symbol
_atom_site_fract_x
_atom_site_fract_y
_atom_site_fract_z
O1 O 0.88995(12) 0.2635(3) 0.46441(10)
O2 O 0.56805(12) 0.2242(2) 0.23916(8)
O3 O 0.40923(12) 0.4447(3) 0.38742(9)
O4 O 0.38987(11) 0.1274(2) 0.28090(8)
O5 O 0.31728(11) 0.9289(2) 0.07956(8)
N1 N 0.82203(16) 0.1941(3) 0.34661(13)
N2 N 0.70128(13) 0.3553(2) 0.47260(10)
H1 H 0.7415 0.3689 0.5133
C1 C 0.72356(17) 0.2972(3) 0.41380(12)
C2 C 0.81263(18) 0.2495(4) 0.40651(15)
C3 C 0.7402(2) 0.1857(4) 0.29187(14)
H2 H 0.7463 0.1453 0.2494
C4 C 0.64990(19) 0.2316(3) 0.29417(12)
C5 C 0.63941(16) 0.2895(3) 0.35860(11)
C6 C 0.9825(2) 0.2320(5) 0.45530(18)
H3 H 1.0312 0.2442 0.4993
H4 H 0.9938 0.3202 0.4230
H5 H 0.9847 0.1102 0.4374
C7 C 0.5736(2) 0.1477(5) 0.17617(15)
H6 H 0.5113 0.1526 0.1422
H7 H 0.5944 0.0221 0.1837
H8 H 0.6190 0.2162 0.1596
C8 C 0.60618(15) 0.3873(3) 0.45550(11)
H9 H 0.5739 0.4305 0.4861
C9 C 0.56277(15) 0.3469(3) 0.38601(10)
C10 C 0.46008(17) 0.3724(3) 0.35534(12)
C11 C 0.40678(16) 0.2918(3) 0.28430(12)
N3 N 0.3872(9) 0.3972(17) 0.2268(6)
N4 N 0.2839(3) 0.6557(6) 0.1289(2)
C12 C 0.4235(4) 0.5864(7) 0.2294(3)
H10 H 0.4690 0.5957 0.2025
H11 H 0.4564 0.6204 0.2772
C13 C 0.3377(4) 0.7162(6) 0.1990(2)
H12 H 0.2957 0.7161 0.2287
H13 H 0.3609 0.8406 0.1972
C14 C 0.3350(5) 0.3339(12) 0.1581(4)
H14 H 0.3109 0.2106 0.1609
H15 H 0.3776 0.3302 0.1289
C15 C 0.2508(3) 0.4635(5) 0.1263(2)
H16 H 0.2201 0.4286 0.0782
H17 H 0.2034 0.4525 0.1515
C16 C 0.2850(2) 0.7708(4) 0.07269(12)
C17 C 0.21652(18) 0.7111(3) 0.00496(11)
C18 C 0.1235(2) 0.6589(3) -0.00034(14)
H18 H 0.1042 0.6475 0.0398
C19 C 0.05819(19) 0.6230(3) -0.06481(16)
H19 H -0.0047 0.5891 -0.0679
C20 C 0.0863(2) 0.6374(3) -0.12334(14)
H20 H 0.0431 0.6107 -0.1666
C21 C 0.1775(2) 0.6908(3) -0.11888(12)
H21 H 0.1962 0.7014 -0.1592
C22 C 0.24296(17) 0.7297(3) -0.05505(12)
H22 H 0.3049 0.7683 -0.0527
C23? C 0.3717(5) 0.6247(8) 0.2452(3)
C24? C 0.4040(4) 0.7072(8) 0.1881(3)
C25? C 0.2964(7) 0.3644(15) 0.1696(5)
C26? C 0.3288(4) 0.4487(7) 0.1119(2)
H23? H 0.4184 0.6533 0.2895
H24? H 0.3107 0.6794 0.2451
H25? H 0.4033 0.8402 0.1915
H26? H 0.4694 0.6685 0.1923
H27? H 0.2305 0.4008 0.1648
H28? H 0.2983 0.2315 0.1664
H29? H 0.3902 0.3957 0.1120
H30? H 0.2823 0.4209 0.0675
N5? N 0.3601(11) 0.425(2) 0.2386(8)
N6? N 0.3391(3) 0.6480(7) 0.1202(2)
loop_
_geom_bond_atom_site_label_1
_geom_bond_atom_site_label_2
_geom_bond_site_symmetry_1
_geom_bond_site_symmetry_2
O1 C2 1_555 1_555
O2 C4 1_555 1_555
O3 C10 1_555 1_555
O4 C11 1_555 1_555
O5 C16 1_555 1_555
N1 C2 1_555 1_555
N2 H1 1_555 1_555
C1 N2 1_555 1_555
C2 C1 1_555 1_555
C3 N1 1_555 1_555
H2 C3 1_555 1_555
C4 C3 1_555 1_555
C5 C1 1_555 1_555
C6 O1 1_555 1_555
H3 C6 1_555 1_555
H4 C6 1_555 1_555
H5 C6 1_555 1_555
C7 O2 1_555 1_555
H6 C7 1_555 1_555
H7 C7 1_555 1_555
H8 C7 1_555 1_555
C8 N2 1_555 1_555
H9 C8 1_555 1_555
C9 C5 1_555 1_555
C10 C9 1_555 1_555
C11 C10 1_555 1_555
N3 C11 1_555 1_555
N4 C13 1_555 1_555
C12 N3 1_555 1_555
H10 C12 1_555 1_555
H11 C12 1_555 1_555
C13 C12 1_555 1_555
H12 C13 1_555 1_555
H13 C13 1_555 1_555
C14 N3 1_555 1_555
H14 C14 1_555 1_555
H15 C14 1_555 1_555
C15 N4 1_555 1_555
H16 C15 1_555 1_555
H17 C15 1_555 1_555
C16 N4 1_555 1_555
C17 C16 1_555 1_555
C18 C17 1_555 1_555
H18 C18 1_555 1_555
C19 C18 1_555 1_555
H19 C19 1_555 1_555
C20 C19 1_555 1_555
H20 C20 1_555 1_555
C21 C20 1_555 1_555
H21 C21 1_555 1_555
C22 C17 1_555 1_555
H22 C22 1_555 1_555
C4 C5 1_555 1_555
C8 C9 1_555 1_555
C14 C15 1_555 1_555
C21 C22 1_555 1_555

#END
