
#######################################################################
#
#                 Cambridge Crystallographic Data Centre
#                                CCDC 
#
#######################################################################
#
# If this CIF has been generated from an entry in the Cambridge 
# Structural Database, then it will include bibliographic, chemical, 
# crystal, experimental, refinement or atomic coordinate data resulting 
# from the CCDC's data processing and validation procedures.
#
#######################################################################

data_SUTZEO
_chemical_formula_moiety         'C19 H22 N1 O4 P1 S1'
_chemical_name_systematic        
'diethyl (4,5-diphenyl-2-thioxo-1,3-oxazolidin-4-yl)phosphonate'
_symmetry_cell_setting           orthorhombic
_symmetry_space_group_name_H-M   'P 21 21 21'
_symmetry_Int_Tables_number      19
_space_group_name_Hall           'P 2ac 2ab'
loop_
_symmetry_equiv_pos_site_id
_symmetry_equiv_pos_as_xyz
1 x,y,z
2 1/2-x,-y,1/2+z
3 1/2+x,1/2-y,-z
4 -x,1/2+y,1/2-z
_cell_length_a                   6.0940(5)
_cell_length_b                   16.4155(18)
_cell_length_c                   19.6133(12)
_cell_angle_alpha                90
_cell_angle_beta                 90
_cell_angle_gamma                90
_cell_volume                     1962.04
_cell_formula_units_Z            4
loop_
_atom_site_label
_atom_site_type_symbol
_atom_site_fract_x
_atom_site_fract_y
_atom_site_fract_z
P1 P 0.64306(19) 0.87627(8) 0.59358(6)
S1 S 1.2032(2) 0.98449(10) 0.44817(6)
O1 O 0.8244(5) 1.0342(2) 0.49513(13)
O2 O 0.4093(4) 0.8876(2) 0.60737(14)
N1 N 1.0153(6) 0.9641(2) 0.56976(15)
H1 H 1.1297 0.9434 0.5887
O3 O 0.7086(6) 0.8518(2) 0.52051(14)
O4 O 0.7526(5) 0.81008(19) 0.63934(16)
C1 C 0.8186(7) 0.9869(3) 0.67935(19)
C2 C 1.0129(8) 0.9940(3) 0.50612(19)
C3 C 1.0049(8) 0.9666(3) 0.7147(2)
H2 H 1.1307 0.9517 0.6909
C4 C 0.8013(7) 0.9708(3) 0.60347(19)
C5 C 0.6794(8) 1.1244(3) 0.5802(2)
C6 C 1.0084(10) 0.9679(4) 0.7855(2)
H3 H 1.1354 0.9538 0.8090
C7 C 0.8237(10) 0.9901(3) 0.8202(2)
H4 H 0.8242 0.9891 0.8676
C8 C 0.6917(7) 1.0374(3) 0.55716(19)
H5 H 0.5429 1.0193 0.5458
C9 C 0.5901(9) 0.8024(4) 0.4730(2)
H6 H 0.4398 0.8214 0.4697
H7 H 0.5879 0.7464 0.4887
C10 C 0.6961(11) 0.8069(4) 0.4058(2)
H8 H 0.6448 0.7629 0.3777
H9 H 0.8523 0.8028 0.4111
H10 H 0.6604 0.8579 0.3845
C11 C 0.6350(8) 1.0110(3) 0.7156(2)
H11 H 0.5081 1.0257 0.6923
C12 C 0.6376(10) 1.0136(3) 0.7864(2)
H12 H 0.5148 1.0311 0.8105
C13 C 0.8515(10) 1.1641(3) 0.6114(3)
H13 H 0.9799 1.1363 0.6223
C14 C 0.6672(11) 0.7893(3) 0.7070(3)
H14 H 0.7285 0.8261 0.7408
H15 H 0.5089 0.7955 0.7075
C15 C 0.4918(9) 1.1686(4) 0.5631(3)
H16 H 0.3743 1.1426 0.5421
C16 C 0.7251(15) 0.7056(4) 0.7241(4)
H17 H 0.6865 0.6704 0.6869
H18 H 0.6469 0.6892 0.7643
H19 H 0.8801 0.7021 0.7323
C17 C 0.6474(15) 1.2881(4) 0.6088(3)
H20 H 0.6380 1.3434 0.6187
C18 C 0.4804(14) 1.2501(4) 0.5772(3)
H21 H 0.3561 1.2794 0.5649
C19 C 0.8296(13) 1.2453(4) 0.6261(3)
H22 H 0.9431 1.2719 0.6487
loop_
_geom_bond_atom_site_label_1
_geom_bond_atom_site_label_2
_geom_bond_site_symmetry_1
_geom_bond_site_symmetry_2
P1 O2 1_555 1_555
S1 C2 1_555 1_555
O1 C2 1_555 1_555
N1 H1 1_555 1_555
O3 P1 1_555 1_555
O4 P1 1_555 1_555
C1 C3 1_555 1_555
C2 N1 1_555 1_555
C3 H2 1_555 1_555
C4 P1 1_555 1_555
C5 C8 1_555 1_555
C6 C3 1_555 1_555
H3 C6 1_555 1_555
C7 C6 1_555 1_555
H4 C7 1_555 1_555
C8 O1 1_555 1_555
H5 C8 1_555 1_555
C9 O3 1_555 1_555
H6 C9 1_555 1_555
H7 C9 1_555 1_555
C10 C9 1_555 1_555
H8 C10 1_555 1_555
H9 C10 1_555 1_555
H10 C10 1_555 1_555
C11 C1 1_555 1_555
H11 C11 1_555 1_555
C12 C7 1_555 1_555
H12 C12 1_555 1_555
C13 C5 1_555 1_555
H13 C13 1_555 1_555
C14 O4 1_555 1_555
H14 C14 1_555 1_555
H15 C14 1_555 1_555
C15 C5 1_555 1_555
H16 C15 1_555 1_555
C16 C14 1_555 1_555
H17 C16 1_555 1_555
H18 C16 1_555 1_555
H19 C16 1_555 1_555
C17 H20 1_555 1_555
C18 C15 1_555 1_555
H21 C18 1_555 1_555
C19 C13 1_555 1_555
H22 C19 1_555 1_555
N1 C4 1_555 1_555
C1 C4 1_555 1_555
C4 C8 1_555 1_555
C11 C12 1_555 1_555
C17 C18 1_555 1_555
C17 C19 1_555 1_555

#END
