
#######################################################################
#
#                 Cambridge Crystallographic Data Centre
#                                CCDC 
#
#######################################################################
#
# If this CIF has been generated from an entry in the Cambridge 
# Structural Database, then it will include bibliographic, chemical, 
# crystal, experimental, refinement or atomic coordinate data resulting 
# from the CCDC's data processing and validation procedures.
#
#######################################################################

data_SUVBOC
_chemical_formula_moiety         'C22 H18 Cl1 N1 O4'
_chemical_name_systematic        
'ethyl 6-(4-chlorophenyl)-1,3-dioxo-2-phenyl-1,2,3,3a,4,6a-hexahydrocyclopenta[c]pyrrole-5-carboxylate'
_symmetry_cell_setting           monoclinic
_symmetry_space_group_name_H-M   'P 21/c'
_symmetry_Int_Tables_number      14
_space_group_name_Hall           '-P 2ybc'
loop_
_symmetry_equiv_pos_site_id
_symmetry_equiv_pos_as_xyz
1 x,y,z
2 -x,1/2+y,1/2-z
3 -x,-y,-z
4 x,1/2-y,1/2+z
_cell_length_a                   17.561(4)
_cell_length_b                   7.9588(16)
_cell_length_c                   13.637(3)
_cell_angle_alpha                90
_cell_angle_beta                 91.70(3)
_cell_angle_gamma                90
_cell_volume                     1905.13
_cell_formula_units_Z            4
loop_
_atom_site_label
_atom_site_type_symbol
_atom_site_fract_x
_atom_site_fract_y
_atom_site_fract_z
Cl1 Cl 0.45582(4) 0.52625(12) 0.10164(6)
O1 O 0.16593(10) 0.51223(19) 0.38414(12)
O2 O 0.07665(10) 0.8990(2) 0.59962(12)
O3 O 0.33686(13) 1.1781(3) 0.30673(15)
O4 O 0.31757(9) 1.2454(2) 0.46268(13)
N1 N 0.11996(10) 0.6774(2) 0.50846(12)
C1 C 0.11035(12) 0.5465(3) 0.57981(15)
C2 C 0.17086(14) 0.4449(3) 0.60706(17)
H1 H 0.2183 0.4614 0.5800
C3 C 0.16092(18) 0.3182(3) 0.67477(18)
H2 H 0.2013 0.2474 0.6922
C4 C 0.0907(2) 0.2970(4) 0.71660(18)
H3 H 0.0840 0.2121 0.7624
C5 C 0.03126(17) 0.4004(4) 0.69079(18)
H4 H -0.0154 0.3865 0.7202
C6 C 0.03981(13) 0.5253(3) 0.62143(16)
H5 H -0.0010 0.5940 0.6030
C7 C 0.14865(12) 0.6492(3) 0.41493(15)
C8 C 0.15145(11) 0.8167(3) 0.36233(15)
H6 H 0.1237 0.8109 0.2990
C9 C 0.23198(12) 0.8851(3) 0.34948(14)
C10 C 0.23967(12) 1.0363(3) 0.39312(16)
C11 C 0.17032(14) 1.0897(3) 0.44699(17)
H7 H 0.1496 1.1935 0.4202
H8 H 0.1823 1.1054 0.5163
C12 C 0.11364(12) 0.9433(3) 0.43085(16)
H9 H 0.0653 0.9839 0.4019
C13 C 0.10053(12) 0.8444(3) 0.52348(16)
C14 C 0.28782(12) 0.7902(3) 0.29172(15)
C15 C 0.26303(13) 0.6864(3) 0.21510(16)
H10 H 0.2111 0.6726 0.2025
C16 C 0.31454(14) 0.6031(3) 0.15714(18)
H11 H 0.2975 0.5348 0.1057
C17 C 0.39091(14) 0.6229(3) 0.17700(18)
C18 C 0.41733(14) 0.7199(4) 0.2546(2)
H12 H 0.4693 0.7298 0.2683
C19 C 0.36555(13) 0.8017(3) 0.31143(18)
H13 H 0.3831 0.8663 0.3643
C20 C 0.30326(14) 1.1567(3) 0.38077(18)
C21 C 0.37683(18) 1.3734(4) 0.4569(2)
H14 H 0.4237 1.3222 0.4356
H15 H 0.3615 1.4579 0.4091
C22 C 0.3899(2) 1.4515(6) 0.5515(3)
H16 H 0.3438 1.5046 0.5717
H17 H 0.4294 1.5343 0.5469
H18 H 0.4051 1.3676 0.5987
loop_
_geom_bond_atom_site_label_1
_geom_bond_atom_site_label_2
_geom_bond_site_symmetry_1
_geom_bond_site_symmetry_2
Cl1 C17 1_555 1_555
O1 C7 1_555 1_555
O2 C13 1_555 1_555
O3 C20 1_555 1_555
O4 C20 1_555 1_555
N1 C1 1_555 1_555
C1 C2 1_555 1_555
C2 H1 1_555 1_555
C3 C2 1_555 1_555
H2 C3 1_555 1_555
C4 C3 1_555 1_555
H3 C4 1_555 1_555
C5 C4 1_555 1_555
H4 C5 1_555 1_555
C6 C1 1_555 1_555
H5 C6 1_555 1_555
C7 N1 1_555 1_555
C8 C7 1_555 1_555
H6 C8 1_555 1_555
C9 C8 1_555 1_555
C10 C9 1_555 1_555
C11 C10 1_555 1_555
H7 C11 1_555 1_555
H8 C11 1_555 1_555
C12 C8 1_555 1_555
H9 C12 1_555 1_555
C13 N1 1_555 1_555
C14 C9 1_555 1_555
C15 C14 1_555 1_555
H10 C15 1_555 1_555
C16 C15 1_555 1_555
H11 C16 1_555 1_555
C17 C16 1_555 1_555
C18 C17 1_555 1_555
H12 C18 1_555 1_555
C19 C14 1_555 1_555
H13 C19 1_555 1_555
C20 C10 1_555 1_555
C21 O4 1_555 1_555
H14 C21 1_555 1_555
H15 C21 1_555 1_555
C22 C21 1_555 1_555
H16 C22 1_555 1_555
H17 C22 1_555 1_555
H18 C22 1_555 1_555
C5 C6 1_555 1_555
C11 C12 1_555 1_555
C12 C13 1_555 1_555
C18 C19 1_555 1_555

#END
