
#######################################################################
#
#                 Cambridge Crystallographic Data Centre
#                                CCDC 
#
#######################################################################
#
# If this CIF has been generated from an entry in the Cambridge 
# Structural Database, then it will include bibliographic, chemical, 
# crystal, experimental, refinement or atomic coordinate data resulting 
# from the CCDC's data processing and validation procedures.
#
#######################################################################

data_SUVNUS
_chemical_formula_moiety         'C9 H11 N1 O3 S1'
_chemical_name_systematic        N-Acetyl-4-(methylsulfonyl)aniline
_symmetry_cell_setting           monoclinic
_symmetry_space_group_name_H-M   'P 21/n'
_symmetry_Int_Tables_number      14
_space_group_name_Hall           '-P 2yn'
loop_
_symmetry_equiv_pos_site_id
_symmetry_equiv_pos_as_xyz
1 x,y,z
2 1/2-x,1/2+y,1/2-z
3 -x,-y,-z
4 1/2+x,1/2-y,1/2+z
_cell_length_a                   10.922(4)
_cell_length_b                   8.414(2)
_cell_length_c                   11.017(4)
_cell_angle_alpha                90
_cell_angle_beta                 94.91(3)
_cell_angle_gamma                90
_cell_volume                     1008.72
_cell_formula_units_Z            4
loop_
_atom_site_label
_atom_site_type_symbol
_atom_site_fract_x
_atom_site_fract_y
_atom_site_fract_z
S1 S 0.2382(1) 0.3911(1) 0.9139(1)
O1 O 0.4158(3) -0.3212(3) 1.1747(3)
O2 O 0.2167(3) 0.3182(3) 0.7962(2)
O3 O 0.1341(3) 0.4601(4) 0.9656(3)
N1 N 0.4481(3) -0.0859(3) 1.2693(3)
C1 C 0.3975(3) 0.0209(4) 1.1819(3)
C2 C 0.3622(4) -0.0197(4) 1.0613(3)
C3 C 0.3170(4) 0.0942(4) 0.9799(3)
C4 C 0.3038(3) 0.2489(4) 1.0168(3)
C5 C 0.3391(4) 0.2915(4) 1.1377(3)
C6 C 0.3861(4) 0.1782(5) 1.2172(3)
C7 C 0.4542(4) -0.2453(4) 1.2636(3)
C8 C 0.5127(6) -0.3255(6) 1.3762(4)
C9 C 0.3495(4) 0.5389(5) 0.9050(4)
loop_
_geom_bond_atom_site_label_1
_geom_bond_atom_site_label_2
_geom_bond_site_symmetry_1
_geom_bond_site_symmetry_2
S1 O2 1_555 1_555
O1 C7 1_555 1_555
O3 S1 1_555 1_555
N1 C1 1_555 1_555
C1 C2 1_555 1_555
C2 C3 1_555 1_555
C3 C4 1_555 1_555
C4 S1 1_555 1_555
C5 C4 1_555 1_555
C6 C1 1_555 1_555
C7 N1 1_555 1_555
C8 C7 1_555 1_555
C9 S1 1_555 1_555
C5 C6 1_555 1_555

#END
