
#######################################################################
#
#                 Cambridge Crystallographic Data Centre
#                                CCDC 
#
#######################################################################
#
# If this CIF has been generated from an entry in the Cambridge 
# Structural Database, then it will include bibliographic, chemical, 
# crystal, experimental, refinement or atomic coordinate data resulting 
# from the CCDC's data processing and validation procedures.
#
#######################################################################

data_SUVREG
_chemical_formula_moiety         'C18 H21 N1 O4'
_chemical_name_systematic        
3,4-Dimethoxyl-6,7,9,10,11-pentahydro-2-hydroxy-2-methyl-1H-cyclopenta(jk)pyrrolo(2,1-b)(3)benzazepine-1-one
_chemical_properties_biological  'potential antitumour activity'
_symmetry_cell_setting           monoclinic
_symmetry_space_group_name_H-M   'P 21/c'
_symmetry_Int_Tables_number      14
_space_group_name_Hall           '-P 2ybc'
loop_
_symmetry_equiv_pos_site_id
_symmetry_equiv_pos_as_xyz
1 x,y,z
2 -x,1/2+y,1/2-z
3 -x,-y,-z
4 x,1/2-y,1/2+z
_cell_length_a                   8.486(1)
_cell_length_b                   9.571(1)
_cell_length_c                   19.680(2)
_cell_angle_alpha                90
_cell_angle_beta                 101.54(1)
_cell_angle_gamma                90
_cell_volume                     1566.09
_exptl_crystal_colour            colorless
_exptl_crystal_description       column
_cell_formula_units_Z            4
_exptl_crystal_recrystallization_method methanol
loop_
_atom_site_label
_atom_site_type_symbol
_atom_site_fract_x
_atom_site_fract_y
_atom_site_fract_z
O1 O 0.14121(13) 0.42715(10) 0.14416(5)
O2 O 0.01174(14) 0.22642(12) 0.21120(6)
O3 O 0.63046(13) 0.30488(11) 0.01473(6)
O4 O 0.31871(13) 0.42304(11) 0.02274(5)
N1 N 0.6690(2) -0.09356(12) 0.12016(6)
C1 C -0.0033(3) 0.4408(3) 0.09229(11)
C2 C -0.0613(3) 0.1225(2) 0.24545(12)
C3 C 0.2050(2) 0.29424(14) 0.14774(7)
C4 C 0.1401(2) 0.1880(2) 0.18289(7)
C5 C 0.2084(2) 0.0559(2) 0.18721(8)
C6 C 0.3414(2) 0.02501(14) 0.15792(7)
C7 C 0.4083(2) 0.13242(14) 0.12514(7)
C8 C 0.3369(2) 0.26571(14) 0.11976(7)
C9 C 0.4079(2) -0.1214(2) 0.16056(9)
C10 C 0.5904(2) -0.1293(2) 0.17730(9)
C11 C 0.6546(2) 0.02718(14) 0.08496(7)
C12 C 0.5436(2) 0.13125(14) 0.08877(7)
C13 C 0.8018(2) -0.1802(2) 0.10744(11)
C14 C 0.8650(3) -0.1070(2) 0.05114(10)
C15 C 0.7815(2) 0.0339(2) 0.04200(9)
C16 C 0.5470(2) 0.26592(14) 0.05598(7)
C17 C 0.4255(2) 0.36406(14) 0.08048(7)
C18 C 0.5170(2) 0.4764(2) 0.12771(10)
H1 H 0.3508(22) 0.5062(20) 0.0132(9)
H2 H -0.0319(29) 0.5357(27) 0.0873(12)
H3 H 0.0122(28) 0.3975(23) 0.0456(13)
H4 H -0.0979(37) 0.3967(27) 0.1104(15)
H5 H -0.0985(24) 0.0464(22) 0.2159(10)
H6 H -0.1430(26) 0.1648(21) 0.2656(11)
H7 H 0.0290(35) 0.0858(25) 0.2853(14)
H8 H 0.1634(20) -0.0179(17) 0.2119(8)
H9 H 0.3646(18) -0.1740(16) 0.1956(8)
H10 H 0.3694(20) -0.1729(17) 0.1134(9)
H11 H 0.6316(21) -0.0650(18) 0.2186(9)
H12 H 0.6196(19) -0.2286(19) 0.1884(8)
H13 H 0.7641(23) -0.2719(21) 0.0961(9)
H14 H 0.8815(26) -0.1849(20) 0.1495(11)
H15 H 0.8367(24) -0.1582(21) 0.0083(11)
H16 H 0.9773(29) -0.0984(20) 0.0592(10)
H17 H 0.8534(24) 0.1096(21) 0.0583(10)
H18 H 0.7360(23) 0.0553(18) -0.0055(10)
H19 H 0.5806(22) 0.5357(19) 0.1011(9)
H20 H 0.4449(23) 0.5304(18) 0.1480(9)
H21 H 0.5957(24) 0.4295(19) 0.1677(10)
loop_
_geom_bond_atom_site_label_1
_geom_bond_atom_site_label_2
_geom_bond_site_symmetry_1
_geom_bond_site_symmetry_2
O1 C1 1_555 1_555
O2 C2 1_555 1_555
O3 C16 1_555 1_555
O4 C17 1_555 1_555
N1 C10 1_555 1_555
C1 H2 1_555 1_555
C2 H5 1_555 1_555
C3 O1 1_555 1_555
C4 O2 1_555 1_555
C5 C4 1_555 1_555
C6 C5 1_555 1_555
C7 C6 1_555 1_555
C8 C3 1_555 1_555
C9 C6 1_555 1_555
C10 C9 1_555 1_555
C11 N1 1_555 1_555
C12 C7 1_555 1_555
C13 N1 1_555 1_555
C14 C13 1_555 1_555
C15 C11 1_555 1_555
C16 C12 1_555 1_555
C17 C8 1_555 1_555
C18 C17 1_555 1_555
H1 O4 1_555 1_555
H3 C1 1_555 1_555
H4 C1 1_555 1_555
H6 C2 1_555 1_555
H7 C2 1_555 1_555
H8 C5 1_555 1_555
H9 C9 1_555 1_555
H10 C9 1_555 1_555
H11 C10 1_555 1_555
H12 C10 1_555 1_555
H13 C13 1_555 1_555
H14 C13 1_555 1_555
H15 C14 1_555 1_555
H16 C14 1_555 1_555
H17 C15 1_555 1_555
H18 C15 1_555 1_555
H19 C18 1_555 1_555
H20 C18 1_555 1_555
H21 C18 1_555 1_555
C3 C4 1_555 1_555
C7 C8 1_555 1_555
C11 C12 1_555 1_555
C14 C15 1_555 1_555
C16 C17 1_555 1_555

#END
