
#######################################################################
#
#                 Cambridge Crystallographic Data Centre
#                                CCDC 
#
#######################################################################
#
# If this CIF has been generated from an entry in the Cambridge 
# Structural Database, then it will include bibliographic, chemical, 
# crystal, experimental, refinement or atomic coordinate data resulting 
# from the CCDC's data processing and validation procedures.
#
#######################################################################

data_SUVSUY
_chemical_name_common            
2-Benzoyl-3,5-diphenyl-4-trifluoromethylsulfonyl-trans-2,3-dihydrofuran
_chemical_formula_moiety         'C24 H17 F3 O4 S1'
_chemical_name_systematic        
trans-(3,5-Diphenyl-4-((trifluoromethyl)sulfonyl)-2,3-dihydrofuran-2-yl)(phenyl)methanone
_symmetry_cell_setting           orthorhombic
_symmetry_space_group_name_H-M   'P 21 21 21'
_symmetry_Int_Tables_number      19
_space_group_name_Hall           'P 2ac 2ab'
loop_
_symmetry_equiv_pos_site_id
_symmetry_equiv_pos_as_xyz
1 x,y,z
2 1/2-x,-y,1/2+z
3 -x,1/2+y,1/2-z
4 1/2+x,1/2-y,-z
_cell_length_a                   10.189(4)
_cell_length_b                   11.037(4)
_cell_length_c                   19.179(7)
_cell_angle_alpha                90
_cell_angle_beta                 90
_cell_angle_gamma                90
_cell_volume                     2156.79
_exptl_crystal_colour            colorless
_exptl_crystal_description       block
_chemical_melting_point          '139.4-140.0 deg.C'
_cell_formula_units_Z            4
loop_
_atom_site_label
_atom_site_type_symbol
_atom_site_fract_x
_atom_site_fract_y
_atom_site_fract_z
S1 S 0.77820(7) 0.10217(5) 0.13355(3)
O1 O 0.85205(18) 0.41777(15) 0.21265(9)
O2 O 0.6819(2) 0.12195(19) 0.08177(11)
C1 C 1.0912(2) 0.2392(2) 0.17405(12)
C2 C 0.8428(2) 0.2320(2) 0.16726(12)
O3 O 0.8805(2) 0.01564(17) 0.12468(12)
C3 C 0.6942(2) 0.4070(2) 0.12262(12)
O4 O 0.7346(2) 0.3364(2) 0.32414(12)
C4 C 0.7912(3) 0.3449(2) 0.16611(12)
F1 F 0.7590(2) 0.0225(2) 0.26163(11)
C5 C 0.9625(3) 0.2296(2) 0.21365(12)
C6 C 0.6149(3) 0.4951(3) 0.15250(14)
H1 H 0.6197 0.5106 0.2001
C7 C 1.0245(5) 0.1184(3) 0.48999(17)
H2 H 1.0612 0.0749 0.5267
C8 C 1.1141(3) 0.3316(3) 0.12651(15)
H3 H 1.0485 0.3881 0.1175
C9 C 0.8489(3) 0.3109(3) 0.32279(14)
F2 F 0.5926(2) 0.1181(2) 0.22659(12)
C10 C 0.9143(3) 0.2447(2) 0.38015(12)
C11 C 0.6875(3) 0.3859(2) 0.05181(13)
H4 H 0.7409 0.3273 0.0315
C12 C 1.1027(4) 0.1591(3) 0.43738(16)
H5 H 1.1925 0.1441 0.4385
C13 C 0.6017(3) 0.4517(3) 0.01130(15)
H6 H 0.5971 0.4372 -0.0364
C14 C 0.9302(3) 0.3419(2) 0.25812(13)
C15 C 1.0487(3) 0.2228(2) 0.38234(13)
H7 H 1.1024 0.2510 0.3467
C16 C 0.8928(4) 0.1408(3) 0.48935(17)
H8 H 0.8404 0.1144 0.5261
C17 C 0.5232(3) 0.5385(3) 0.04081(15)
H9 H 0.4659 0.5828 0.0130
C18 C 1.3071(3) 0.1651(4) 0.1500(2)
H10 H 1.3714 0.1067 0.1571
C19 C 1.3297(3) 0.2585(3) 0.10489(17)
H11 H 1.4105 0.2662 0.0827
C20 C 1.2321(3) 0.3405(3) 0.09280(16)
H12 H 1.2459 0.4032 0.0613
C21 C 0.6844(3) 0.0414(3) 0.20698(17)
C22 C 0.8375(3) 0.2025(3) 0.43429(15)
H13 H 0.7474 0.2158 0.4335
C23 C 0.5284(3) 0.5602(3) 0.11090(16)
H14 H 0.4740 0.6184 0.1307
C24 C 1.1889(3) 0.1571(3) 0.18520(16)
H15 H 1.1759 0.0946 0.2170
F3 F 0.6273(3) -0.0591(2) 0.18884(15)
H16 H 0.965(2) 0.1574(14) 0.2409(11)
H17 H 1.0111(15) 0.383(2) 0.2668(13)
loop_
_geom_bond_atom_site_label_1
_geom_bond_atom_site_label_2
_geom_bond_site_symmetry_1
_geom_bond_site_symmetry_2
S1 O2 1_555 1_555
O1 C4 1_555 1_555
C1 C5 1_555 1_555
C2 S1 1_555 1_555
O3 S1 1_555 1_555
C3 C4 1_555 1_555
O4 C9 1_555 1_555
C4 C2 1_555 1_555
F1 C21 1_555 1_555
C5 C2 1_555 1_555
C6 C3 1_555 1_555
H1 C6 1_555 1_555
C7 H2 1_555 1_555
C8 C1 1_555 1_555
H3 C8 1_555 1_555
C9 C10 1_555 1_555
F2 C21 1_555 1_555
C10 C15 1_555 1_555
C11 C3 1_555 1_555
H4 C11 1_555 1_555
C12 C7 1_555 1_555
H5 C12 1_555 1_555
C13 C11 1_555 1_555
H6 C13 1_555 1_555
C14 O1 1_555 1_555
C15 C12 1_555 1_555
H7 C15 1_555 1_555
C16 C7 1_555 1_555
H8 C16 1_555 1_555
C17 C13 1_555 1_555
H9 C17 1_555 1_555
C18 H10 1_555 1_555
C19 C18 1_555 1_555
H11 C19 1_555 1_555
C20 C8 1_555 1_555
H12 C20 1_555 1_555
C21 S1 1_555 1_555
C22 C10 1_555 1_555
H13 C22 1_555 1_555
C23 C6 1_555 1_555
H14 C23 1_555 1_555
C24 C1 1_555 1_555
H15 C24 1_555 1_555
F3 C21 1_555 1_555
H16 C5 1_555 1_555
H17 C14 1_555 1_555
C5 C14 1_555 1_555
C9 C14 1_555 1_555
C16 C22 1_555 1_555
C17 C23 1_555 1_555
C18 C24 1_555 1_555
C19 C20 1_555 1_555

#END
