
#######################################################################
#
#                 Cambridge Crystallographic Data Centre
#                                CCDC 
#
#######################################################################
#
# If this CIF has been generated from an entry in the Cambridge 
# Structural Database, then it will include bibliographic, chemical, 
# crystal, experimental, refinement or atomic coordinate data resulting 
# from the CCDC's data processing and validation procedures.
#
#######################################################################

data_SUVVEL
_chemical_formula_moiety         'C36 H34 O3'
_chemical_name_systematic        
2-(2,4-Dimethylpent-2-en-3-yl)-6-methoxy-3-(4-methoxyphenyl)spiro[indene-1,9'-xanthene]
_symmetry_cell_setting           triclinic
_symmetry_space_group_name_H-M   'P -1'
_symmetry_Int_Tables_number      2
_space_group_name_Hall           '-P 1'
loop_
_symmetry_equiv_pos_site_id
_symmetry_equiv_pos_as_xyz
1 x,y,z
2 -x,-y,-z
_cell_length_a                   9.4647(10)
_cell_length_b                   11.3691(11)
_cell_length_c                   14.6352(14)
_cell_angle_alpha                84.563(2)
_cell_angle_beta                 89.929(2)
_cell_angle_gamma                66.560(2)
_cell_volume                     1437.22
_exptl_crystal_colour            colorless
_exptl_crystal_description       prismatic
_chemical_melting_point          '182-184 deg.C'
_cell_formula_units_Z            2
loop_
_atom_site_label
_atom_site_type_symbol
_atom_site_fract_x
_atom_site_fract_y
_atom_site_fract_z
O1 O 0.6257(3) 0.9808(2) 0.35107(16)
O2 O 0.5425(3) 0.3967(2) 0.3933(2)
O3 O 1.4981(3) 0.3299(3) 0.0300(2)
C1 C 0.7006(4) 0.8822(3) 0.4200(2)
C2 C 0.7104(5) 0.9189(4) 0.5059(2)
H1 H 0.6695 1.0058 0.5151
C3 C 0.7797(4) 0.8286(4) 0.5770(2)
H2 H 0.7887 0.8533 0.6347
C4 C 0.8371(4) 0.6991(4) 0.5634(2)
H3 H 0.8823 0.6363 0.6123
C5 C 0.8264(4) 0.6646(3) 0.4774(2)
H4 H 0.8647 0.5776 0.4687
C6 C 0.7609(3) 0.7547(3) 0.4034(2)
C7 C 0.7610(3) 0.7168(3) 0.3058(2)
C8 C 0.6315(3) 0.8252(3) 0.24799(19)
C9 C 0.5714(4) 0.8045(3) 0.1674(2)
H5 H 0.6059 0.7213 0.1501
C10 C 0.4622(4) 0.9039(4) 0.1128(2)
H6 H 0.4233 0.8880 0.0592
C11 C 0.4106(5) 1.0279(4) 0.1382(3)
H7 H 0.3389 1.0960 0.1006
C12 C 0.4648(4) 1.0507(3) 0.2188(3)
H8 H 0.4279 1.1337 0.2368
C13 C 0.5745(4) 0.9496(3) 0.2729(2)
C14 C 0.7451(3) 0.5888(3) 0.3060(2)
C15 C 0.6361(4) 0.5537(3) 0.3480(2)
H9 H 0.5542 0.6132 0.3763
C16 C 0.6512(4) 0.4268(3) 0.3474(2)
C17 C 0.7716(4) 0.3407(3) 0.3021(3)
H10 H 0.7797 0.2567 0.3002
C18 C 0.8796(4) 0.3787(3) 0.2598(2)
H11 H 0.9599 0.3207 0.2295
C19 C 0.8673(3) 0.5034(3) 0.26280(19)
C20 C 0.9724(3) 0.5659(3) 0.23448(19)
C21 C 0.9184(3) 0.6867(3) 0.26015(19)
C22 C 1.1155(4) 0.5005(3) 0.1850(2)
C23 C 1.1104(4) 0.4405(3) 0.1072(2)
H12 H 1.0175 0.4391 0.0879
C24 C 1.2394(5) 0.3833(4) 0.0583(3)
H13 H 1.2338 0.3426 0.0070
C25 C 1.3779(4) 0.3861(4) 0.0852(3)
C26 C 1.3871(4) 0.4409(4) 0.1630(2)
H14 H 1.4809 0.4399 0.1827
C27 C 1.2581(4) 0.4972(3) 0.2117(2)
H15 H 1.2660 0.5345 0.2643
C28 C 0.9908(4) 0.7807(3) 0.2459(2)
C29 C 1.0868(6) 0.7886(5) 0.3143(4)
C30 C 1.1783(8) 0.8677(8) 0.3074(6)
H16 H 1.2859 0.8127 0.3157
H17 H 1.1492 0.9260 0.3541
H18 H 1.1594 0.9160 0.2480
C31 C 1.1353(6) 0.6951(6) 0.3997(4)
H19 H 1.1086 0.6235 0.3921
H20 H 1.0835 0.7376 0.4513
H21 H 1.2447 0.6647 0.4104
C32 C 0.9729(7) 0.8564(4) 0.1562(3)
H22 H 1.0758 0.8555 0.1464
C33 C 0.9408(9) 0.8068(6) 0.0748(4)
H23 H 1.0222 0.7245 0.0679
H24 H 0.9341 0.8657 0.0218
H25 H 0.8449 0.7971 0.0806
C34 C 0.8693(10) 1.0007(6) 0.1546(5)
H26 H 0.7862 1.0233 0.1099
H27 H 0.9288 1.0506 0.1388
H28 H 0.8282 1.0183 0.2142
C35 C 0.5622(6) 0.2683(4) 0.4047(4)
H29 H 0.5579 0.2392 0.3456
H30 H 0.4818 0.2600 0.4413
H31 H 0.6605 0.2170 0.4349
C36 C 1.6427(5) 0.3299(5) 0.0550(4)
H32 H 1.6280 0.4131 0.0726
H33 H 1.7085 0.3113 0.0036
H34 H 1.6894 0.2654 0.1056
loop_
_geom_bond_atom_site_label_1
_geom_bond_atom_site_label_2
_geom_bond_site_symmetry_1
_geom_bond_site_symmetry_2
O1 C1 1_555 1_555
O2 C16 1_555 1_555
O3 C25 1_555 1_555
C1 C2 1_555 1_555
C2 H1 1_555 1_555
C3 C2 1_555 1_555
H2 C3 1_555 1_555
C4 C3 1_555 1_555
H3 C4 1_555 1_555
C5 C4 1_555 1_555
H4 C5 1_555 1_555
C6 C1 1_555 1_555
C7 C6 1_555 1_555
C8 C7 1_555 1_555
C9 C8 1_555 1_555
H5 C9 1_555 1_555
C10 C9 1_555 1_555
H6 C10 1_555 1_555
C11 C10 1_555 1_555
H7 C11 1_555 1_555
C12 C11 1_555 1_555
H8 C12 1_555 1_555
C13 O1 1_555 1_555
C14 C7 1_555 1_555
C15 C14 1_555 1_555
H9 C15 1_555 1_555
C16 C15 1_555 1_555
C17 C16 1_555 1_555
H10 C17 1_555 1_555
C18 C17 1_555 1_555
H11 C18 1_555 1_555
C19 C14 1_555 1_555
C20 C19 1_555 1_555
C21 C7 1_555 1_555
C22 C20 1_555 1_555
C23 C22 1_555 1_555
H12 C23 1_555 1_555
C24 C23 1_555 1_555
H13 C24 1_555 1_555
C25 C24 1_555 1_555
C26 C25 1_555 1_555
H14 C26 1_555 1_555
C27 C22 1_555 1_555
H15 C27 1_555 1_555
C28 C21 1_555 1_555
C29 C28 1_555 1_555
C30 C29 1_555 1_555
H16 C30 1_555 1_555
H17 C30 1_555 1_555
H18 C30 1_555 1_555
C31 C29 1_555 1_555
H19 C31 1_555 1_555
H20 C31 1_555 1_555
H21 C31 1_555 1_555
C32 C28 1_555 1_555
H22 C32 1_555 1_555
C33 C32 1_555 1_555
H23 C33 1_555 1_555
H24 C33 1_555 1_555
H25 C33 1_555 1_555
C34 C32 1_555 1_555
H26 C34 1_555 1_555
H27 C34 1_555 1_555
H28 C34 1_555 1_555
C35 O2 1_555 1_555
H29 C35 1_555 1_555
H30 C35 1_555 1_555
H31 C35 1_555 1_555
C36 O3 1_555 1_555
H32 C36 1_555 1_555
H33 C36 1_555 1_555
H34 C36 1_555 1_555
C5 C6 1_555 1_555
C8 C13 1_555 1_555
C12 C13 1_555 1_555
C18 C19 1_555 1_555
C20 C21 1_555 1_555
C26 C27 1_555 1_555

#END
