
#######################################################################
#
#                 Cambridge Crystallographic Data Centre
#                                CCDC 
#
#######################################################################
#
# If this CIF has been generated from an entry in the Cambridge 
# Structural Database, then it will include bibliographic, chemical, 
# crystal, experimental, refinement or atomic coordinate data resulting 
# from the CCDC's data processing and validation procedures.
#
#######################################################################

data_SUWNUT
_chemical_name_common            'Thiabendazolium bromide dihydrate'
_chemical_formula_moiety         'C10 H8 N3 S1 1+,2(H2 O1),Br1 1-'
_chemical_name_systematic        
'(4-(2-Benzimidazolium)thiazole) bromide dihydrate'
_symmetry_cell_setting           triclinic
_symmetry_space_group_name_H-M   'P -1'
_symmetry_Int_Tables_number      2
_space_group_name_Hall           '-P 1'
loop_
_symmetry_equiv_pos_site_id
_symmetry_equiv_pos_as_xyz
1 x,y,z
2 -x,-y,-z
_cell_length_a                   7.492(1)
_cell_length_b                   9.349(1)
_cell_length_c                   9.793(1)
_cell_angle_alpha                74.3(1)
_cell_angle_beta                 85.5(1)
_cell_angle_gamma                72.7(1)
_cell_volume                     630.463
_exptl_crystal_colour            'pale yellow'
_exptl_crystal_description       'thin plate'
_cell_formula_units_Z            2
loop_
_atom_site_label
_atom_site_type_symbol
_atom_site_fract_x
_atom_site_fract_y
_atom_site_fract_z
S1 S 0.08733(11) 0.98092(9) 0.83468(7)
N1 N 0.4208(3) 1.2338(2) 0.4319(2)
N2 N 0.5416(3) 1.2274(2) 0.6288(2)
N3 N 0.1779(3) 1.0576(3) 0.5745(2)
C1 C 0.4147(3) 1.1861(3) 0.5731(2)
C2 C 0.7771(4) 1.3727(3) 0.5224(3)
C3 C 0.8375(4) 1.4431(3) 0.3931(3)
C4 C 0.7591(4) 1.4486(3) 0.2655(3)
C5 C 0.6175(4) 1.3824(3) 0.2633(3)
C6 C 0.5578(3) 1.3103(3) 0.3943(3)
C7 C 0.6342(3) 1.3062(3) 0.5206(3)
C8 C 0.2848(3) 1.1058(3) 0.6508(2)
C9 C 0.2558(4) 1.0738(4) 0.7924(3)
C10 C 0.0693(4) 0.9900(3) 0.6601(3)
H1 H 0.355(4) 1.217(3) 0.382(3)
H2 H 0.555(4) 1.218(3) 0.707(3)
H3 H 0.832(4) 1.366(3) 0.607(3)
H4 H 0.931(4) 1.482(3) 0.390(3)
H5 H 0.808(4) 1.501(4) 0.177(3)
H6 H 0.562(4) 1.389(3) 0.171(3)
H7 H 0.314(5) 1.088(4) 0.868(4)
H8 H -0.018(5) 0.955(4) 0.630(3)
O1 O 0.6056(3) 1.2133(3) -0.0996(2)
H9 H 0.663(7) 1.268(5) -0.095(5)
H10 H 0.513(6) 1.231(5) -0.040(5)
O2 O -0.1395(4) 1.3791(4) -0.1048(3)
H11 H -0.165(6) 1.461(5) -0.101(4)
H12 H -0.045(8) 1.339(6) -0.039(6)
Br1 Br 0.24332(4) 1.23853(3) 0.12697(3)
loop_
_geom_bond_atom_site_label_1
_geom_bond_atom_site_label_2
_geom_bond_site_symmetry_1
_geom_bond_site_symmetry_2
S1 C9 1_555 1_555
N1 C1 1_555 1_555
N2 C1 1_555 1_555
N3 C8 1_555 1_555
C1 C8 1_555 1_555
C2 C3 1_555 1_555
C3 C4 1_555 1_555
C4 C5 1_555 1_555
C5 C6 1_555 1_555
C6 N1 1_555 1_555
C7 N2 1_555 1_555
C8 C9 1_555 1_555
C9 H7 1_555 1_555
C10 S1 1_555 1_555
O1 H9 1_555 1_555
O2 H11 1_555 1_555
H1 N1 1_555 1_555
H2 N2 1_555 1_555
H3 C2 1_555 1_555
H4 C3 1_555 1_555
H5 C4 1_555 1_555
H6 C5 1_555 1_555
H8 C10 1_555 1_555
H10 O1 1_555 1_555
H12 O2 1_555 1_555
N3 C10 1_555 1_555
C2 C7 1_555 1_555
C6 C7 1_555 1_555

#END
