
#######################################################################
#
#                 Cambridge Crystallographic Data Centre
#                                CCDC 
#
#######################################################################
#
# If this CIF has been generated from an entry in the Cambridge 
# Structural Database, then it will include bibliographic, chemical, 
# crystal, experimental, refinement or atomic coordinate data resulting 
# from the CCDC's data processing and validation procedures.
#
#######################################################################

data_SUWNON
_chemical_name_common            'Thiabendazolium chloride dihydrate'
_chemical_formula_moiety         'C10 H8 N3 S1 1+,2(H2 O1),Cl1 1-'
_chemical_name_systematic        
'(4-(2-Benzimidazolium)thiazole) chloride dihydrate'
_symmetry_cell_setting           triclinic
_symmetry_space_group_name_H-M   'P -1'
_symmetry_Int_Tables_number      2
_space_group_name_Hall           '-P 1'
loop_
_symmetry_equiv_pos_site_id
_symmetry_equiv_pos_as_xyz
1 x,y,z
2 -x,-y,-z
_cell_length_a                   8.360(4)
_cell_length_b                   9.541(5)
_cell_length_c                   8.162(10)
_cell_angle_alpha                99.1(1)
_cell_angle_beta                 100.8(1)
_cell_angle_gamma                89.7(1)
_cell_volume                     631.244
_exptl_crystal_colour            'pale yellow'
_exptl_crystal_description       'thin plate'
_cell_formula_units_Z            2
loop_
_atom_site_label
_atom_site_type_symbol
_atom_site_fract_x
_atom_site_fract_y
_atom_site_fract_z
S1 S 0.16132(8) 0.82807(6) 0.52742(8)
N1 N 0.3947(2) 0.3985(2) 0.2467(2)
N2 N 0.5540(2) 0.5827(2) 0.2627(2)
N3 N 0.1751(3) 0.5625(2) 0.4251(3)
C1 C 0.4172(3) 0.5384(2) 0.3016(3)
C2 C 0.7652(3) 0.4580(3) 0.1104(3)
C3 C 0.7970(4) 0.3250(4) 0.0294(4)
C4 C 0.6944(4) 0.2085(4) 0.0168(4)
C5 C 0.5541(4) 0.2170(3) 0.0840(4)
C6 C 0.5218(3) 0.3509(2) 0.1667(3)
C7 C 0.6234(3) 0.4675(3) 0.1771(3)
C8 C 0.3073(3) 0.6272(2) 0.3875(3)
C9 C 0.3195(3) 0.7707(3) 0.4330(3)
C10 C 0.0897(3) 0.6577(3) 0.4991(3)
H1 H 0.308(4) 0.345(3) 0.257(4)
H2 H 0.591(4) 0.661(4) 0.291(4)
H3 H 0.835(4) 0.544(3) 0.116(4)
H4 H 0.884(5) 0.324(4) -0.010(5)
H5 H 0.723(4) 0.128(4) -0.035(4)
H6 H 0.477(5) 0.130(4) 0.078(5)
H7 H 0.399(4) 0.836(4) 0.428(4)
H8 H -0.006(4) 0.636(4) 0.536(4)
O1 O 0.3168(3) 0.1549(2) 0.6546(3)
H9 H 0.251(5) 0.139(4) 0.714(5)
H10 H 0.261(5) 0.145(4) 0.558(5)
O2 O 0.0995(3) 0.1209(3) -0.1395(3)
H11 H 0.119(5) 0.121(4) -0.037(6)
H12 H 0.019(6) 0.047(6) -0.182(6)
Cl1 Cl 0.17771(8) 0.13507(6) 0.26519(7)
loop_
_geom_bond_atom_site_label_1
_geom_bond_atom_site_label_2
_geom_bond_site_symmetry_1
_geom_bond_site_symmetry_2
S1 C9 1_555 1_555
N1 C1 1_555 1_555
N2 C1 1_555 1_555
N3 C8 1_555 1_555
C1 C8 1_555 1_555
C2 C3 1_555 1_555
C3 C4 1_555 1_555
C4 C5 1_555 1_555
C5 C6 1_555 1_555
C6 N1 1_555 1_555
C7 N2 1_555 1_555
C8 C9 1_555 1_555
C9 H7 1_555 1_555
C10 S1 1_555 1_555
O1 H9 1_555 1_555
O2 H11 1_555 1_555
H1 N1 1_555 1_555
H2 N2 1_555 1_555
H3 C2 1_555 1_555
H4 C3 1_555 1_555
H5 C4 1_555 1_555
H6 C5 1_555 1_555
H8 C10 1_555 1_555
H10 O1 1_555 1_555
H12 O2 1_555 1_555
N3 C10 1_555 1_555
C2 C7 1_555 1_555
C6 C7 1_555 1_555

#END
