
#######################################################################
#
#                 Cambridge Crystallographic Data Centre
#                                CCDC 
#
#######################################################################
#
# If this CIF has been generated from an entry in the Cambridge 
# Structural Database, then it will include bibliographic, chemical, 
# crystal, experimental, refinement or atomic coordinate data resulting 
# from the CCDC's data processing and validation procedures.
#
#######################################################################

data_SUWPOQ
_chemical_formula_moiety         'C17 H17 Cl1 F1 N1 O4 S1'
_chemical_name_systematic        
4-Chloro-4-(4-fluorophenyl)-1-(phenylsulfonyl)piperidine-3,3-diol
_symmetry_cell_setting           monoclinic
_symmetry_space_group_name_H-M   'P 21/n'
_symmetry_Int_Tables_number      14
_space_group_name_Hall           '-P 2yn'
loop_
_symmetry_equiv_pos_site_id
_symmetry_equiv_pos_as_xyz
1 x,y,z
2 1/2-x,1/2+y,1/2-z
3 -x,-y,-z
4 1/2+x,1/2-y,1/2+z
_cell_length_a                   16.1031(3)
_cell_length_b                   6.36830(10)
_cell_length_c                   17.2585(3)
_cell_angle_alpha                90
_cell_angle_beta                 104.9440(10)
_cell_angle_gamma                90
_cell_volume                     1709.99
_exptl_crystal_colour            colorless
_exptl_crystal_description       tabular
_cell_formula_units_Z            4
loop_
_atom_site_label
_atom_site_type_symbol
_atom_site_fract_x
_atom_site_fract_y
_atom_site_fract_z
C1 C 0.74067(12) 0.3695(3) 0.45916(11)
C2 C 0.75530(18) 0.1700(4) 0.43493(14)
H1 H 0.7812 0.0682 0.4720
C3 C 0.7301(2) 0.1254(5) 0.35317(19)
H2 H 0.7385 -0.0086 0.3351
C4 C 0.6932(2) 0.2770(7) 0.29933(15)
H3 H 0.6773 0.2453 0.2449
C5 C 0.67934(17) 0.4728(7) 0.32392(15)
H4 H 0.6542 0.5744 0.2865
C6 C 0.70248(16) 0.5213(4) 0.40443(14)
H5 H 0.6925 0.6550 0.4217
C7 C 0.60794(14) 0.4581(4) 0.57322(13)
H6 H 0.5718 0.3842 0.5277
H7 H 0.6150 0.6016 0.5572
C8 C 0.56639(14) 0.4559(3) 0.64320(12)
H8 H 0.5097 0.5184 0.6257
H9 H 0.6003 0.5432 0.6858
C9 C 0.55768(11) 0.2380(3) 0.67704(10)
C10 C 0.64641(11) 0.1235(3) 0.69323(10)
C11 C 0.68578(12) 0.1355(3) 0.62176(11)
H10 H 0.7425 0.0721 0.6357
H11 H 0.6502 0.0587 0.5768
C12 C 0.52566(11) 0.2408(3) 0.75283(11)
C13 C 0.53799(14) 0.4165(3) 0.80229(12)
H12 H 0.5621 0.5371 0.7868
C14 C 0.51488(15) 0.4146(4) 0.87451(14)
H13 H 0.5232 0.5324 0.9075
C15 C 0.47980(15) 0.2366(4) 0.89588(13)
C16 C 0.46595(15) 0.0615(4) 0.84929(14)
H14 H 0.4412 -0.0574 0.8652
C17 C 0.48945(14) 0.0638(3) 0.77761(13)
H15 H 0.4808 -0.0556 0.7455
F1 F 0.45824(11) 0.2321(3) 0.96711(9)
N1 N 0.69219(10) 0.3544(3) 0.59939(9)
O1 O 0.84298(9) 0.3008(3) 0.59904(9)
O2 O 0.77605(12) 0.6510(3) 0.57037(9)
O3 O 0.70406(8) 0.2296(2) 0.75720(7)
H16 H 0.6902 0.2082 0.7990
O4 O 0.63611(8) -0.0839(2) 0.71286(9)
H17 H 0.6833 -0.1409 0.7268
S1 S 0.77065(3) 0.42796(8) 0.56225(3)
Cl1 Cl 0.48200(3) 0.09036(9) 0.59916(3)
loop_
_geom_bond_atom_site_label_1
_geom_bond_atom_site_label_2
_geom_bond_site_symmetry_1
_geom_bond_site_symmetry_2
C1 C2 1_555 1_555
C2 H1 1_555 1_555
C3 C2 1_555 1_555
H2 C3 1_555 1_555
C4 C3 1_555 1_555
H3 C4 1_555 1_555
C5 C4 1_555 1_555
H4 C5 1_555 1_555
C6 C1 1_555 1_555
H5 C6 1_555 1_555
C7 H6 1_555 1_555
H7 C7 1_555 1_555
C8 C7 1_555 1_555
H8 C8 1_555 1_555
H9 C8 1_555 1_555
C9 C8 1_555 1_555
C10 C9 1_555 1_555
C11 C10 1_555 1_555
H10 C11 1_555 1_555
H11 C11 1_555 1_555
C12 C9 1_555 1_555
C13 C12 1_555 1_555
H12 C13 1_555 1_555
C14 C13 1_555 1_555
H13 C14 1_555 1_555
C15 C14 1_555 1_555
C16 C15 1_555 1_555
H14 C16 1_555 1_555
C17 C12 1_555 1_555
H15 C17 1_555 1_555
F1 C15 1_555 1_555
N1 C7 1_555 1_555
O1 S1 1_555 1_555
O2 S1 1_555 1_555
O3 C10 1_555 1_555
H16 O3 1_555 1_555
O4 C10 1_555 1_555
H17 O4 1_555 1_555
S1 C1 1_555 1_555
Cl1 C9 1_555 1_555
C5 C6 1_555 1_555
C11 N1 1_555 1_555
C16 C17 1_555 1_555
N1 S1 1_555 1_555

#END
