
#######################################################################
#
#                 Cambridge Crystallographic Data Centre
#                                CCDC 
#
#######################################################################
#
# If this CIF has been generated from an entry in the Cambridge 
# Structural Database, then it will include bibliographic, chemical, 
# crystal, experimental, refinement or atomic coordinate data resulting 
# from the CCDC's data processing and validation procedures.
#
#######################################################################

data_SUWQEH
_chemical_formula_moiety         'C11 H10 N1 1+,C6 H5 O3 S1 1-'
_chemical_name_systematic        '4-phenylpyridinium benzenesulfonate'
_symmetry_cell_setting           monoclinic
_symmetry_space_group_name_H-M   'P 21/c'
_symmetry_Int_Tables_number      14
_space_group_name_Hall           '-P 2ybc'
loop_
_symmetry_equiv_pos_site_id
_symmetry_equiv_pos_as_xyz
1 x,y,z
2 -x,1/2+y,1/2-z
3 -x,-y,-z
4 x,1/2-y,1/2+z
_cell_length_a                   8.0677(4)
_cell_length_b                   9.6427(4)
_cell_length_c                   19.5952(9)
_cell_angle_alpha                90
_cell_angle_beta                 96.8670(10)
_cell_angle_gamma                90
_cell_volume                     1513.46
_exptl_crystal_colour            colorless
_cell_formula_units_Z            4
loop_
_atom_site_label
_atom_site_type_symbol
_atom_site_fract_x
_atom_site_fract_y
_atom_site_fract_z
C1 C 0.26906(16) 0.70347(13) 0.31650(6)
C2 C 0.29083(18) 0.81860(14) 0.27635(7)
H1 H 0.3960 0.8395 0.2642
C3 C 0.1554(2) 0.90269(16) 0.25427(9)
H2 H 0.1702 0.9806 0.2277
C4 C -0.0004(2) 0.87141(18) 0.27156(9)
H3 H -0.0911 0.9271 0.2559
C5 C -0.02240(19) 0.75755(18) 0.31215(10)
H4 H -0.1279 0.7369 0.3240
C6 C 0.11274(18) 0.67357(15) 0.33538(8)
H5 H 0.0984 0.5978 0.3634
O1 O 0.44778(16) 0.57569(12) 0.41586(5)
O2 O 0.58413(12) 0.65667(12) 0.31956(6)
O3 O 0.39707(14) 0.46047(10) 0.30626(5)
S1 S 0.43926(4) 0.59123(3) 0.342288(16)
C7 C 0.68659(17) 1.02946(14) 0.46112(6)
C8 C 0.6203(2) 1.00849(15) 0.39246(7)
H6 H 0.6317 0.9225 0.3720
C9 C 0.5389(2) 1.11335(16) 0.35526(8)
H7 H 0.4959 1.0983 0.3097
C10 C 0.5805(2) 1.26266(15) 0.44929(8)
H8 H 0.5661 1.3497 0.4682
C11 C 0.6630(2) 1.16096(15) 0.48858(7)
H9 H 0.7039 1.1795 0.5341
C12 C 0.77631(18) 0.91838(14) 0.50275(7)
C13 C 0.8628(2) 0.94495(17) 0.56721(8)
H10 H 0.8654 1.0347 0.5847
C14 C 0.9448(2) 0.8401(2) 0.60549(9)
H11 H 1.0007 0.8597 0.6487
C15 C 0.9447(2) 0.70720(19) 0.58037(10)
H12 H 1.0028 0.6375 0.6059
C16 C 0.8585(3) 0.67796(18) 0.51745(11)
H13 H 0.8559 0.5876 0.5008
C17 C 0.7749(2) 0.78215(17) 0.47833(9)
H14 H 0.7176 0.7611 0.4356
N1 N 0.52070(16) 1.23760(13) 0.38404(6)
H15 H 0.4694 1.3025 0.3599
loop_
_geom_bond_atom_site_label_1
_geom_bond_atom_site_label_2
_geom_bond_site_symmetry_1
_geom_bond_site_symmetry_2
C1 C2 1_555 1_555
C2 H1 1_555 1_555
C3 C2 1_555 1_555
H2 C3 1_555 1_555
C4 C3 1_555 1_555
H3 C4 1_555 1_555
C5 C4 1_555 1_555
H4 C5 1_555 1_555
C6 C1 1_555 1_555
H5 C6 1_555 1_555
C7 C8 1_555 1_555
C8 H6 1_555 1_555
C9 C8 1_555 1_555
H7 C9 1_555 1_555
C10 H8 1_555 1_555
C11 C7 1_555 1_555
H9 C11 1_555 1_555
C12 C7 1_555 1_555
C13 C12 1_555 1_555
H10 C13 1_555 1_555
C14 C13 1_555 1_555
H11 C14 1_555 1_555
C15 C14 1_555 1_555
H12 C15 1_555 1_555
C16 C15 1_555 1_555
H13 C16 1_555 1_555
C17 C12 1_555 1_555
H14 C17 1_555 1_555
O1 S1 1_555 1_555
N1 C9 1_555 1_555
H15 N1 1_555 1_555
O2 S1 1_555 1_555
O3 S1 1_555 1_555
S1 C1 1_555 1_555
C5 C6 1_555 1_555
C10 C11 1_555 1_555
C10 N1 1_555 1_555
C16 C17 1_555 1_555

#END
