
#######################################################################
#
#                 Cambridge Crystallographic Data Centre
#                                CCDC 
#
#######################################################################
#
# If this CIF has been generated from an entry in the Cambridge 
# Structural Database, then it will include bibliographic, chemical, 
# crystal, experimental, refinement or atomic coordinate data resulting 
# from the CCDC's data processing and validation procedures.
#
#######################################################################

data_SUXCEU
_chemical_formula_moiety         'C31 H28 N2 O2'
_chemical_name_systematic        
3-(1-Benzyl-1H-indol-3-yl)-1-cyclohexyl-4-phenyl-1H-pyrrole-2,5-dione
_symmetry_cell_setting           monoclinic
_symmetry_space_group_name_H-M   'C 2/c'
_symmetry_Int_Tables_number      15
_space_group_name_Hall           '-C 2yn'
loop_
_symmetry_equiv_pos_site_id
_symmetry_equiv_pos_as_xyz
1 x,y,z
2 -x,y,1/2-z
3 1/2+x,1/2+y,z
4 1/2-x,1/2+y,1/2-z
5 -x,-y,-z
6 x,-y,1/2+z
7 1/2-x,1/2-y,-z
8 1/2+x,1/2-y,1/2+z
_cell_length_a                   21.519(3)
_cell_length_b                   21.451(2)
_cell_length_c                   10.6889(16)
_cell_angle_alpha                90
_cell_angle_beta                 92.090(12)
_cell_angle_gamma                90
_cell_volume                     4930.76
_exptl_crystal_colour            yellow
_exptl_crystal_description       plate
_cell_formula_units_Z            8
loop_
_atom_site_label
_atom_site_type_symbol
_atom_site_fract_x
_atom_site_fract_y
_atom_site_fract_z
C1 C 0.26852(10) 1.04262(13) 0.6650(2)
C2 C 0.31553(10) 0.96079(13) 0.5724(2)
C3 C 0.26146(10) 0.93612(12) 0.6433(2)
C4 C 0.23415(10) 0.98542(12) 0.6987(2)
C5 C 0.36335(10) 1.06876(12) 0.5446(2)
H1 H 0.3475 1.1116 0.5623
C6 C 0.37229(13) 1.06550(16) 0.4060(2)
H2 H 0.3320 1.0726 0.3606
H3 H 0.3874 1.0235 0.3837
C7 C 0.41900(12) 1.11442(15) 0.3667(3)
H4 H 0.4262 1.1100 0.2761
H5 H 0.4017 1.1565 0.3807
C8 C 0.48004(12) 1.10788(16) 0.4394(3)
H6 H 0.5000 1.0680 0.4168
H7 H 0.5081 1.1423 0.4165
C9 C 0.47108(13) 1.10929(16) 0.5779(3)
H8 H 0.4571 1.1514 0.6019
H9 H 0.5115 1.1012 0.6222
C10 C 0.42392(11) 1.06163(13) 0.6195(3)
H10 H 0.4406 1.0191 0.6077
H11 H 0.4164 1.0674 0.7096
C11 C 0.18477(10) 0.98724(12) 0.7907(2)
C12 C 0.14346(12) 1.03764(14) 0.7948(2)
H12 H 0.1470 1.0713 0.7378
C13 C 0.09725(13) 1.03849(17) 0.8823(3)
H13 H 0.0690 1.0725 0.8840
C14 C 0.09209(14) 0.99054(17) 0.9662(3)
H14 H 0.0604 0.9913 1.0257
C15 C 0.13294(13) 0.94144(15) 0.9639(2)
H15 H 0.1297 0.9084 1.0224
C16 C 0.17848(11) 0.93997(13) 0.8770(2)
H16 H 0.2063 0.9056 0.8764
C17 C 0.29498(11) 0.82504(12) 0.6438(2)
H17 H 0.3382 0.8336 0.6394
C18 C 0.24945(10) 0.87022(12) 0.6448(2)
C19 C 0.19156(10) 0.83580(13) 0.64933(19)
C20 C 0.12882(11) 0.85428(15) 0.6443(2)
H18 H 0.1174 0.8971 0.6422
C21 C 0.08439(12) 0.80770(18) 0.6426(3)
H19 H 0.0416 0.8189 0.6396
C22 C 0.10061(14) 0.74497(18) 0.6451(3)
H20 H 0.0685 0.7146 0.6432
C23 C 0.16142(13) 0.72541(15) 0.6503(2)
H21 H 0.1722 0.6825 0.6527
C24 C 0.20673(11) 0.77243(12) 0.65180(19)
C25 C 0.30767(11) 0.71063(12) 0.6667(2)
H22 H 0.3359 0.7063 0.5961
H23 H 0.2798 0.6739 0.6663
C26 C 0.34578(6) 0.71224(9) 0.78874(10)
C27 C 0.31638(5) 0.72181(9) 0.90079(12)
H24 H 0.2725 0.7263 0.9009
C28 C 0.35123(7) 0.72480(10) 1.01270(10)
H25 H 0.3311 0.7313 1.0893
C29 C 0.41549(6) 0.71822(11) 1.01256(13)
H26 H 0.4393 0.7203 1.0890
C30 C 0.44489(5) 0.70865(12) 0.90051(17)
H27 H 0.4888 0.7042 0.9004
C31 C 0.41004(7) 0.70566(11) 0.78860(13)
H28 H 0.4301 0.6991 0.7120
N1 N 0.31602(8) 1.02469(9) 0.58750(18)
N2 N 0.27064(9) 0.76687(9) 0.64968(16)
O1 O 0.26055(8) 1.09583(9) 0.69836(17)
O2 O 0.35248(7) 0.93086(9) 0.51393(17)
loop_
_geom_bond_atom_site_label_1
_geom_bond_atom_site_label_2
_geom_bond_site_symmetry_1
_geom_bond_site_symmetry_2
C1 C4 1_555 1_555
C2 C3 1_555 1_555
C3 C4 1_555 1_555
C4 C11 1_555 1_555
C5 H1 1_555 1_555
C6 C5 1_555 1_555
H2 C6 1_555 1_555
H3 C6 1_555 1_555
C7 C6 1_555 1_555
H4 C7 1_555 1_555
H5 C7 1_555 1_555
C8 C7 1_555 1_555
H6 C8 1_555 1_555
H7 C8 1_555 1_555
C9 C8 1_555 1_555
H8 C9 1_555 1_555
H9 C9 1_555 1_555
C10 C5 1_555 1_555
H10 C10 1_555 1_555
H11 C10 1_555 1_555
C11 C12 1_555 1_555
C12 H12 1_555 1_555
C13 C12 1_555 1_555
H13 C13 1_555 1_555
C14 C13 1_555 1_555
H14 C14 1_555 1_555
C15 C14 1_555 1_555
H15 C15 1_555 1_555
C16 C11 1_555 1_555
H16 C16 1_555 1_555
C17 H17 1_555 1_555
C18 C3 1_555 1_555
C19 C18 1_555 1_555
C20 C19 1_555 1_555
H18 C20 1_555 1_555
C21 C20 1_555 1_555
H19 C21 1_555 1_555
C22 C21 1_555 1_555
H20 C22 1_555 1_555
C23 C22 1_555 1_555
H21 C23 1_555 1_555
C24 C19 1_555 1_555
C25 H22 1_555 1_555
H23 C25 1_555 1_555
C26 C25 1_555 1_555
C27 C26 1_555 1_555
H24 C27 1_555 1_555
C28 C27 1_555 1_555
H25 C28 1_555 1_555
C29 C28 1_555 1_555
H26 C29 1_555 1_555
C30 C29 1_555 1_555
H27 C30 1_555 1_555
C31 C26 1_555 1_555
H28 C31 1_555 1_555
N1 C1 1_555 1_555
N2 C17 1_555 1_555
O1 C1 1_555 1_555
O2 C2 1_555 1_555
C2 N1 1_555 1_555
C5 N1 1_555 1_555
C9 C10 1_555 1_555
C15 C16 1_555 1_555
C17 C18 1_555 1_555
C23 C24 1_555 1_555
C24 N2 1_555 1_555
C25 N2 1_555 1_555
C30 C31 1_555 1_555

#END
