
#######################################################################
#
#                 Cambridge Crystallographic Data Centre
#                                CCDC 
#
#######################################################################
#
# If this CIF has been generated from an entry in the Cambridge 
# Structural Database, then it will include bibliographic, chemical, 
# crystal, experimental, refinement or atomic coordinate data resulting 
# from the CCDC's data processing and validation procedures.
#
#######################################################################

data_SUXFOI
_chemical_formula_moiety         'C20 H17 Cl1 O4'
_chemical_name_systematic        
'ethyl 4-(4-chlorophenyl)-6-oxo-5-phenyl-3,6-dihydro-2H-pyran-2-carboxylate'
_symmetry_cell_setting           monoclinic
_symmetry_space_group_name_H-M   'P 21/c'
_symmetry_Int_Tables_number      14
_space_group_name_Hall           '-P 2ybc'
loop_
_symmetry_equiv_pos_site_id
_symmetry_equiv_pos_as_xyz
1 x,y,z
2 -x,1/2+y,1/2-z
3 -x,-y,-z
4 x,1/2-y,1/2+z
_cell_length_a                   6.2163(6)
_cell_length_b                   23.306(2)
_cell_length_c                   11.8875(12)
_cell_angle_alpha                90
_cell_angle_beta                 96.9600(10)
_cell_angle_gamma                90
_cell_volume                     1709.54
_exptl_crystal_colour            colorless
_exptl_crystal_description       block
_cell_formula_units_Z            4
_chemical_properties_physical    Heat-sensitive
_exptl_crystal_recrystallization_method ethanol
loop_
_atom_site_label
_atom_site_type_symbol
_atom_site_fract_x
_atom_site_fract_y
_atom_site_fract_z
Cl1 Cl 0.29879(5) 0.469661(14) 0.33393(3)
O1 O 0.83638(15) 0.14353(4) 0.55554(7)
O2 O 1.04899(16) 0.18322(4) 0.70140(8)
O3 O 1.33025(14) 0.22125(4) 0.56264(8)
O4 O 1.47465(15) 0.27919(4) 0.69763(9)
C1 C 0.49714(19) 0.42030(5) 0.38648(10)
C2 C 0.44553(19) 0.36236(6) 0.38628(10)
H1 H 0.3034 0.3497 0.3592
C3 C 0.60582(19) 0.32319(5) 0.42643(10)
H2 H 0.5728 0.2834 0.4255
C4 C 0.81487(18) 0.34145(5) 0.46819(9)
C5 C 0.98590(19) 0.29939(5) 0.50991(10)
C6 C 1.0011(2) 0.24597(5) 0.43979(10)
H3 H 1.0740 0.2551 0.3724
H4 H 0.8535 0.2318 0.4132
C7 C 1.12742(19) 0.19965(5) 0.50904(10)
H5 H 1.1576 0.1678 0.4569
C8 C 1.00247(19) 0.17504(5) 0.60131(10)
C9 C 0.6994(2) 0.11968(6) 0.63544(11)
H6 H 0.6260 0.1508 0.6728
H7 H 0.7874 0.0969 0.6945
C10 C 0.5356(2) 0.08208(6) 0.56729(12)
H8 H 0.4593 0.1044 0.5048
H9 H 0.4311 0.0678 0.6161
H10 H 0.6097 0.0496 0.5366
C11 C 0.8613(2) 0.40024(5) 0.46590(10)
H11 H 1.0029 0.4133 0.4929
C12 C 0.7040(2) 0.43979(5) 0.42483(10)
H12 H 0.7374 0.4795 0.4230
C13 C 1.32121(19) 0.26912(5) 0.62810(11)
C14 C 1.13077(18) 0.30807(5) 0.60322(10)
C15 C 1.11583(18) 0.35643(5) 0.68376(9)
C16 C 0.92609(19) 0.36329(5) 0.73464(10)
H13 H 0.8113 0.3364 0.7195
C17 C 0.9044(2) 0.40913(6) 0.80721(10)
H14 H 0.7750 0.4135 0.8415
C18 C 1.0716(2) 0.44866(6) 0.82976(11)
H15 H 1.0564 0.4801 0.8790
C19 C 1.2609(2) 0.44200(5) 0.77998(11)
H16 H 1.3753 0.4690 0.7954
C20 C 1.28430(19) 0.39610(5) 0.70761(10)
H17 H 1.4148 0.3917 0.6743
loop_
_geom_bond_atom_site_label_1
_geom_bond_atom_site_label_2
_geom_bond_site_symmetry_1
_geom_bond_site_symmetry_2
Cl1 C1 1_555 1_555
O1 C8 1_555 1_555
O2 C8 1_555 1_555
O3 C7 1_555 1_555
O4 C13 1_555 1_555
C1 C2 1_555 1_555
C2 H1 1_555 1_555
C3 C2 1_555 1_555
H2 C3 1_555 1_555
C4 C3 1_555 1_555
C5 C4 1_555 1_555
C6 C5 1_555 1_555
H3 C6 1_555 1_555
H4 C6 1_555 1_555
C7 C6 1_555 1_555
H5 C7 1_555 1_555
C8 C7 1_555 1_555
C9 O1 1_555 1_555
H6 C9 1_555 1_555
H7 C9 1_555 1_555
C10 C9 1_555 1_555
H8 C10 1_555 1_555
H9 C10 1_555 1_555
H10 C10 1_555 1_555
C11 C4 1_555 1_555
H11 C11 1_555 1_555
C12 C1 1_555 1_555
H12 C12 1_555 1_555
C13 O3 1_555 1_555
C14 C5 1_555 1_555
C15 C14 1_555 1_555
C16 C15 1_555 1_555
H13 C16 1_555 1_555
C17 C16 1_555 1_555
H14 C17 1_555 1_555
C18 C17 1_555 1_555
H15 C18 1_555 1_555
C19 C18 1_555 1_555
H16 C19 1_555 1_555
C20 C15 1_555 1_555
H17 C20 1_555 1_555
C11 C12 1_555 1_555
C13 C14 1_555 1_555
C19 C20 1_555 1_555

#END
