
#######################################################################
#
#                 Cambridge Crystallographic Data Centre
#                                CCDC 
#
#######################################################################
#
# If this CIF has been generated from an entry in the Cambridge 
# Structural Database, then it will include bibliographic, chemical, 
# crystal, experimental, refinement or atomic coordinate data resulting 
# from the CCDC's data processing and validation procedures.
#
#######################################################################

data_SUXZEQ
_chemical_name_common            
3-(4-Methoxybenzoylmethylidene)-5-(4-methoxybenzoylmethyl)-1,2,4-trithiole
_chemical_formula_moiety         'C20 H18 O4 S3'
_chemical_name_systematic        
1-(4-Methoxyphenyl)-2-(5-(2-(4-methoxyphenyl)-2-oxoethyl)-(1,2,4)trithiolan-3-yliden)ethanone
_symmetry_cell_setting           monoclinic
_symmetry_space_group_name_H-M   'P 21/c'
_symmetry_Int_Tables_number      14
_space_group_name_Hall           '-P 2ybc'
loop_
_symmetry_equiv_pos_site_id
_symmetry_equiv_pos_as_xyz
1 x,y,z
2 x,1/2-y,1/2+z
3 -x,-y,-z
4 -x,1/2+y,1/2-z
_cell_length_a                   8.535(2)
_cell_length_b                   5.462(1)
_cell_length_c                   40.658(1)
_cell_angle_alpha                90
_cell_angle_beta                 90.59(3)
_cell_angle_gamma                90
_cell_volume                     1895.3
_exptl_crystal_colour            yellow
_exptl_crystal_description       plates
_cell_formula_units_Z            4
_exptl_crystal_recrystallization_method methanol/dichloromethane
loop_
_atom_site_label
_atom_site_type_symbol
_atom_site_fract_x
_atom_site_fract_y
_atom_site_fract_z
S1 S 0.1244(2) 0.0936(4) 0.03217(4)
S2 S 0.2317(2) 0.0514(3) 0.07797(4)
C1 C 0.3421(7) 0.3243(12) 0.07805(15)
S3 S 0.33872(19) 0.4965(3) 0.04175(4)
C2 C 0.2875(7) 0.2497(11) 0.01344(15)
H1 H 0.3761 0.1366 0.0117
C3 C 0.4272(7) 0.3924(12) 0.10462(15)
H2 H 0.4867 0.5350 0.1041
C4 C 0.4259(7) 0.2458(13) 0.13353(16)
O1 O 0.3497(6) 0.0497(10) 0.13362(12)
C5 C 0.5154(7) 0.3096(12) 0.16365(15)
C6 C 0.6124(7) 0.5149(13) 0.16617(16)
H3 H 0.6192 0.6213 0.1484
C7 C 0.6992(8) 0.5649(14) 0.19462(17)
H4 H 0.7652 0.7003 0.1956
C8 C 0.6859(7) 0.4099(12) 0.22146(15)
C9 C 0.5870(8) 0.2090(13) 0.21953(17)
H5 H 0.5767 0.1061 0.2376
C10 C 0.5033(8) 0.1601(14) 0.19094(17)
H6 H 0.4378 0.0242 0.1901
O2 O 0.7668(5) 0.4354(10) 0.25021(11)
C11 C 0.8646(8) 0.6453(15) 0.25424(18)
H7 H 0.9153 0.6394 0.2754
H8 H 0.8020 0.7909 0.2526
H9 H 0.9425 0.6469 0.2374
C12 C 0.2434(7) 0.3415(12) -0.02018(15)
H10 H 0.3100 0.4791 -0.0257
H11 H 0.1359 0.3992 -0.0200
C13 C 0.2596(7) 0.1428(13) -0.04657(17)
O3 O 0.3397(6) -0.0355(10) -0.04043(12)
C14 C 0.1823(7) 0.1763(12) -0.07886(15)
C15 C 0.0816(7) 0.3694(12) -0.08633(16)
H12 H 0.0649 0.4906 -0.0707
C16 C 0.0060(7) 0.3851(13) -0.11635(15)
H13 H -0.0602 0.5162 -0.1210
C17 C 0.0295(7) 0.2038(13) -0.13956(15)
C18 C 0.1304(7) 0.0103(13) -0.13327(15)
H14 H 0.1472 -0.1097 -0.1491
C19 C 0.2061(7) -0.0009(12) -0.10286(15)
H15 H 0.2742 -0.1299 -0.0985
O4 O -0.0404(5) 0.1974(9) -0.16997(10)
C20 C -0.1620(8) 0.3715(14) -0.17606(17)
H16 H -0.2027 0.3495 -0.1979
H17 H -0.1205 0.5341 -0.1738
H18 H -0.2444 0.3480 -0.1605
loop_
_geom_bond_atom_site_label_1
_geom_bond_atom_site_label_2
_geom_bond_site_symmetry_1
_geom_bond_site_symmetry_2
S1 S2 1_555 1_555
S2 C1 1_555 1_555
C1 S3 1_555 1_555
S3 C2 1_555 1_555
C2 S1 1_555 1_555
H1 C2 1_555 1_555
C3 C1 1_555 1_555
H2 C3 1_555 1_555
C4 C3 1_555 1_555
O1 C4 1_555 1_555
C5 C4 1_555 1_555
C6 C5 1_555 1_555
H3 C6 1_555 1_555
C7 C6 1_555 1_555
H4 C7 1_555 1_555
C8 C7 1_555 1_555
C9 C8 1_555 1_555
H5 C9 1_555 1_555
C10 C5 1_555 1_555
H6 C10 1_555 1_555
O2 C8 1_555 1_555
C11 O2 1_555 1_555
H7 C11 1_555 1_555
H8 C11 1_555 1_555
H9 C11 1_555 1_555
C12 C2 1_555 1_555
H10 C12 1_555 1_555
H11 C12 1_555 1_555
C13 C12 1_555 1_555
O3 C13 1_555 1_555
C14 C13 1_555 1_555
C15 C14 1_555 1_555
H12 C15 1_555 1_555
C16 C15 1_555 1_555
H13 C16 1_555 1_555
C17 C16 1_555 1_555
C18 C17 1_555 1_555
H14 C18 1_555 1_555
C19 C14 1_555 1_555
H15 C19 1_555 1_555
O4 C17 1_555 1_555
C20 O4 1_555 1_555
H16 C20 1_555 1_555
H17 C20 1_555 1_555
H18 C20 1_555 1_555
C9 C10 1_555 1_555
C18 C19 1_555 1_555

#END
