
#######################################################################
#
#                 Cambridge Crystallographic Data Centre
#                                CCDC 
#
#######################################################################
#
# If this CIF has been generated from an entry in the Cambridge 
# Structural Database, then it will include bibliographic, chemical, 
# crystal, experimental, refinement or atomic coordinate data resulting 
# from the CCDC's data processing and validation procedures.
#
#######################################################################

data_SUYMOQ
_chemical_formula_moiety         'C9 H14 N2 O1'
_chemical_name_systematic        4-(1H-pyrrol-2-ylmethyl)morpholine
_symmetry_cell_setting           monoclinic
_symmetry_space_group_name_H-M   'P 21'
_symmetry_Int_Tables_number      4
_space_group_name_Hall           'P 2yb'
loop_
_symmetry_equiv_pos_site_id
_symmetry_equiv_pos_as_xyz
1 x,y,z
2 -x,1/2+y,-z
_cell_length_a                   10.0266(10)
_cell_length_b                   10.4376(9)
_cell_length_c                   10.0266(10)
_cell_angle_alpha                90
_cell_angle_beta                 117.43
_cell_angle_gamma                90
_cell_volume                     931.35
_exptl_crystal_colour            colorless
_exptl_crystal_description       columnar
_cell_formula_units_Z            4
loop_
_atom_site_label
_atom_site_type_symbol
_atom_site_fract_x
_atom_site_fract_y
_atom_site_fract_z
O1 O 0.0815(2) 0.1741(2) 0.0613(3)
C1 C 0.2853(3) 0.1899(3) 0.3137(3)
H1 H 0.2182 0.2182 0.3530
H2 H 0.3660 0.1411 0.3915
C2 C 0.2238(3) 0.3696(3) 0.1521(3)
H3 H 0.2634 0.4422 0.1211
H4 H 0.1555 0.4020 0.1880
C3 C 0.6059(3) 0.2801(3) 0.6569(3)
H5 H 0.5420 0.2685 0.6998
C4 C 0.2005(3) 0.1058(3) 0.1782(4)
H6 H 0.2690 0.0743 0.1419
H7 H 0.1599 0.0325 0.2067
N1 N 0.3476(2) 0.30107(19) 0.2737(3)
C5 C 0.1402(3) 0.2829(3) 0.0202(4)
H8 H 0.0583 0.3299 -0.0585
H9 H 0.2073 0.2545 -0.0192
C6 C 0.4244(3) 0.3873(2) 0.4027(3)
H10 H 0.3578 0.4049 0.4463
H11 H 0.4445 0.4679 0.3672
C7 C 0.5689(3) 0.3350(3) 0.5221(3)
N2 N 0.6945(2) 0.3340(2) 0.5028(3)
H12 H 0.6999 0.3644 0.4258
C8 C 0.7600(3) 0.2431(3) 0.7218(4)
H13 H 0.8151 0.2030 0.8140
C9 C 0.8101(3) 0.2779(2) 0.6224(4)
H14 H 0.9068 0.2656 0.6342
C10 C 0.6697(3) 0.2080(3) 0.1445(3)
N3 N 0.7128(2) 0.4339(2) 0.2236(3)
C11 C 0.9423(3) 0.5342(3) 0.4070(5)
H15 H 0.9232 0.5067 0.4891
H16 H 1.0503 0.5374 0.4436
C12 C 0.6378(3) 0.0319(3) 0.2489(4)
H17 H 0.6018 -0.0249 0.2962
N4 N 0.5906(2) 0.1547(2) 0.2087(3)
H18 H 0.5214 0.1923 0.2221
C13 C 0.6511(3) 0.5637(2) 0.1752(4)
H19 H 0.5432 0.5624 0.1392
H20 H 0.6704 0.5915 0.0934
C14 C 0.6442(3) 0.3444(3) 0.0970(4)
H21 H 0.6853 0.3603 0.0279
H22 H 0.5369 0.3605 0.0437
C15 C 0.8754(3) 0.4411(3) 0.2820(4)
H23 H 0.8986 0.4666 0.2020
H24 H 0.9189 0.3572 0.3171
C16 C 0.7220(3) 0.6553(3) 0.3035(4)
H25 H 0.6799 0.7401 0.2709
H26 H 0.6999 0.6288 0.3840
O2 O 0.8794(2) 0.66008(19) 0.3576(3)
C17 C 0.7457(4) 0.0073(3) 0.2083(4)
H27 H 0.7964 -0.0699 0.2206
C18 C 0.7676(3) 0.1192(3) 0.1441(4)
H28 H 0.8370 0.1305 0.1077
loop_
_geom_bond_atom_site_label_1
_geom_bond_atom_site_label_2
_geom_bond_site_symmetry_1
_geom_bond_site_symmetry_2
O1 C4 1_555 1_555
C1 H1 1_555 1_555
H2 C1 1_555 1_555
C2 H3 1_555 1_555
H4 C2 1_555 1_555
C3 H5 1_555 1_555
C4 C1 1_555 1_555
H6 C4 1_555 1_555
H7 C4 1_555 1_555
N1 C1 1_555 1_555
C5 O1 1_555 1_555
H8 C5 1_555 1_555
H9 C5 1_555 1_555
C6 N1 1_555 1_555
H10 C6 1_555 1_555
H11 C6 1_555 1_555
C7 C3 1_555 1_555
N2 C7 1_555 1_555
H12 N2 1_555 1_555
C8 C3 1_555 1_555
H13 C8 1_555 1_555
C9 N2 1_555 1_555
H14 C9 1_555 1_555
C10 N4 1_555 1_555
N3 C13 1_555 1_555
C11 H15 1_555 1_555
H16 C11 1_555 1_555
C12 H17 1_555 1_555
N4 C12 1_555 1_555
H18 N4 1_555 1_555
C13 H19 1_555 1_555
H20 C13 1_555 1_555
C14 C10 1_555 1_555
H21 C14 1_555 1_555
H22 C14 1_555 1_555
C15 N3 1_555 1_555
H23 C15 1_555 1_555
H24 C15 1_555 1_555
C16 C13 1_555 1_555
H25 C16 1_555 1_555
H26 C16 1_555 1_555
O2 C11 1_555 1_555
C17 C12 1_555 1_555
H27 C17 1_555 1_555
C18 C10 1_555 1_555
H28 C18 1_555 1_555
C2 N1 1_555 1_555
C2 C5 1_555 1_555
C6 C7 1_555 1_555
C8 C9 1_555 1_555
N3 C14 1_555 1_555
C11 C15 1_555 1_555
C16 O2 1_555 1_555
C17 C18 1_555 1_555

#END
