
#######################################################################
#
#                 Cambridge Crystallographic Data Centre
#                                CCDC 
#
#######################################################################
#
# If this CIF has been generated from an entry in the Cambridge 
# Structural Database, then it will include bibliographic, chemical, 
# crystal, experimental, refinement or atomic coordinate data resulting 
# from the CCDC's data processing and validation procedures.
#
#######################################################################

data_SUYVAJ
_chemical_formula_moiety         'C36 H54 N8,12.64(H2 O1)'
_chemical_name_systematic        
'(1,4,12,15,18,26,31,39-Octa-azapentacyclo-(13.13.13.1^6,10^.1^20,24^)tetratetraconta-6,7,9,20(43),21,23,33(42),34,36-nonaene) hydrate'
_symmetry_cell_setting           monoclinic
_symmetry_space_group_name_H-M   'C c'
_symmetry_Int_Tables_number      9
_space_group_name_Hall           'C -2yc'
loop_
_symmetry_equiv_pos_site_id
_symmetry_equiv_pos_as_xyz
1 x,y,z
2 x,-y,1/2+z
3 1/2+x,1/2+y,z
4 1/2+x,1/2-y,1/2+z
_cell_length_a                   10.6236(9)
_cell_length_b                   18.5875(15)
_cell_length_c                   23.978(2)
_cell_angle_alpha                90
_cell_angle_beta                 100.325(2)
_cell_angle_gamma                90
_cell_volume                     4658.17
_exptl_crystal_colour            colorless
_exptl_crystal_description       prism
_cell_formula_units_Z            4
loop_
_atom_site_label
_atom_site_type_symbol
_atom_site_fract_x
_atom_site_fract_y
_atom_site_fract_z
N1 N 0.7587(3) 0.63820(17) 0.19622(14)
C1 C 0.8702(4) 0.6546(2) 0.17153(18)
H1 H 0.8827 0.7074 0.1716
H2 H 0.8552 0.6381 0.1316
C2 C 0.9907(4) 0.6194(2) 0.20326(17)
H3 H 1.0178 0.6436 0.2402
H4 H 0.9735 0.5682 0.2105
N2 N 1.0935(3) 0.62465(18) 0.16934(15)
H5 H 1.0663 0.6046 0.1352
C3 C 1.2130(4) 0.5894(2) 0.19556(19)
H6 H 1.2748 0.5932 0.1693
H7 H 1.1955 0.5376 0.2002
C4 C 1.2749(3) 0.6195(2) 0.25262(18)
C5 C 1.2545(3) 0.58830(18) 0.30254(18)
H8 H 1.2018 0.5468 0.3008
C6 C 1.3517(4) 0.6805(2) 0.25539(19)
H9 H 1.3647 0.7032 0.2214
C7 C 1.4097(4) 0.7088(2) 0.3074(2)
H10 H 1.4640 0.7496 0.3090
C8 C 1.3873(4) 0.6767(2) 0.35688(19)
H11 H 1.4259 0.6965 0.3924
C9 C 1.3099(4) 0.6163(2) 0.35599(18)
C10 C 1.2882(4) 0.5816(2) 0.4096(2)
H12 H 1.2577 0.5319 0.4007
H13 H 1.3715 0.5783 0.4357
N3 N 1.1985(4) 0.6171(2) 0.43915(16)
H14 H 1.2225 0.6632 0.4458
C11 C 1.0712(4) 0.6160(3) 0.40851(19)
H15 H 1.0448 0.5658 0.3990
H16 H 1.0667 0.6430 0.3726
C12 C 0.9788(4) 0.6506(2) 0.44460(19)
H17 H 1.0026 0.6332 0.4841
H18 H 0.9914 0.7034 0.4451
N4 N 0.8452(3) 0.63549(15) 0.42476(14)
C13 C 0.7627(4) 0.68639(19) 0.44795(17)
H19 H 0.7970 0.6939 0.4887
H20 H 0.6761 0.6653 0.4447
C14 C 0.7524(4) 0.7583(2) 0.41806(17)
H21 H 0.8384 0.7744 0.4128
H22 H 0.6978 0.7536 0.3802
N5 N 0.6968(3) 0.81166(16) 0.45181(15)
H23 H 0.6187 0.7961 0.4559
C15 C 0.6842(4) 0.88380(19) 0.42710(19)
H24 H 0.7703 0.9010 0.4231
H25 H 0.6516 0.9165 0.4539
C16 C 0.5970(3) 0.88932(16) 0.36998(16)
C17 C 0.6470(4) 0.88708(17) 0.32036(17)
H26 H 0.7369 0.8824 0.3228
C18 C 0.4661(4) 0.89779(17) 0.36596(17)
H27 H 0.4300 0.8999 0.3994
C19 C 0.3873(4) 0.9032(2) 0.31330(18)
H28 H 0.2976 0.9087 0.3110
C20 C 0.4387(4) 0.90073(18) 0.26404(17)
H29 H 0.3843 0.9054 0.2282
C21 C 0.5694(4) 0.89143(18) 0.26716(16)
C22 C 0.6252(5) 0.8879(2) 0.21316(19)
H30 H 0.5825 0.9247 0.1864
H31 H 0.7171 0.9006 0.2224
N6 N 0.6130(4) 0.81902(18) 0.18512(16)
H32 H 0.6414 0.8238 0.1521
C23 C 0.6834(4) 0.7605(2) 0.21594(19)
H33 H 0.6543 0.7528 0.2525
H34 H 0.7760 0.7716 0.2239
C24 C 0.6583(4) 0.6928(2) 0.1789(2)
H35 H 0.5739 0.6724 0.1822
H36 H 0.6562 0.7059 0.1387
C25 C 0.7099(4) 0.5676(2) 0.1730(2)
H37 H 0.7835 0.5355 0.1713
H38 H 0.6632 0.5746 0.1338
C26 C 0.6204(5) 0.5306(2) 0.20810(19)
H39 H 0.6706 0.5127 0.2442
H40 H 0.5566 0.5656 0.2171
N7 N 0.5549(4) 0.47016(19) 0.17525(17)
H41 H 0.6147 0.4383 0.1691
C27 C 0.4642(4) 0.4338(2) 0.2005(2)
H42 H 0.4232 0.3968 0.1736
H43 H 0.3969 0.4686 0.2060
C28 C 0.5121(3) 0.3977(2) 0.25657(18)
C29 C 0.5053(3) 0.43090(19) 0.30664(19)
H44 H 0.4716 0.4783 0.3059
C30 C 0.5626(4) 0.3282(2) 0.2580(2)
H45 H 0.5687 0.3043 0.2236
C31 C 0.6035(4) 0.2942(2) 0.3090(2)
H46 H 0.6371 0.2468 0.3095
C32 C 0.5963(4) 0.3284(2) 0.35949(19)
H47 H 0.6255 0.3047 0.3946
C33 C 0.5459(4) 0.39799(19) 0.35874(17)
C34 C 0.5367(4) 0.4358(2) 0.4137(2)
H48 H 0.4678 0.4722 0.4061
H49 H 0.5117 0.4001 0.4404
N8 N 0.6549(3) 0.47139(17) 0.44127(15)
H50 H 0.7177 0.4383 0.4479
C35 C 0.6966(4) 0.5294(2) 0.40866(18)
H51 H 0.6290 0.5666 0.4007
H52 H 0.7139 0.5109 0.3721
C36 C 0.8182(4) 0.56188(19) 0.44301(18)
H53 H 0.8100 0.5631 0.4835
H54 H 0.8916 0.5304 0.4395
O4 O 1.1296(6) 0.7678(4) 0.1376(3)
H61 H 1.1176 0.7221 0.1477
H62 H 1.0721 0.7759 0.1058
O6 O 0.9912(3) 0.52978(16) 0.07551(13)
H65 H 1.0630 0.5062 0.0716
H66 H 0.9330 0.5011 0.0874
O7 O 1.1915(3) 0.53916(15) 0.53832(13)
H67 H 1.1822 0.5702 0.5091
H68 H 1.2605 0.5117 0.5509
O8 O 1.1410(4) 0.78531(19) 0.51900(15)
H69 H 1.2143 0.8107 0.5236
H70 H 1.0844 0.7943 0.5419
O9 O 0.9044(4) 0.82664(17) 0.54777(14)
H71 H 0.8296 0.8185 0.5244
H72 H 0.8872 0.7915 0.5711
O11 O 0.9504(9) 0.7939(6) 0.0393(5)
H75 H 0.8842 0.8055 0.0563
H76 H 0.9887 0.8367 0.0371
O12 O 0.3481(7) 0.7819(2) 0.1204(2)
H77 H 0.4266 0.7928 0.1396
H78 H 0.2677 0.7774 0.1269
O13 O 0.7471(4) 0.82894(18) 0.09001(15)
H79 H 0.7301 0.8750 0.0796
H80 H 0.7130 0.7926 0.0675
O14 O 0.4147(3) 0.53045(16) 0.07637(14)
H81 H 0.4683 0.5156 0.1077
H82 H 0.4191 0.5788 0.0784
O15 O 0.8149(3) 0.42844(17) 0.10483(15)
H83 H 0.8061 0.3804 0.1012
H84 H 0.7432 0.4366 0.0793
O16 O 0.5775(4) 0.5598(3) 0.53102(18)
H85 H 0.5963 0.5277 0.5056
H86 H 0.5266 0.5282 0.5448
O17 O 0.8439(5) 0.3734(3) 0.50206(18)
H87 H 0.8789 0.4074 0.5268
H88 H 0.8993 0.3373 0.4999
O1? O 0.8519(14) 0.5936(8) 0.3112(6)
H55? H 0.7955 0.6021 0.2791
H56? H 0.8502 0.6069 0.3471
O2? O 0.715(2) 0.6404(13) 0.3120(10)
H57? H 0.7280 0.6397 0.2760
H58? H 0.7841 0.6382 0.3398
O3? O 0.865(3) 0.6728(18) 0.3125(12)
H59? H 0.8121 0.6496 0.2848
H60? H 0.8752 0.6532 0.3473
O5? O 0.5276(11) 0.6805(6) 0.5784(5)
H63? H 0.4452 0.6783 0.5826
H64? H 0.5471 0.6390 0.5627
O10? O 0.4566(7) 0.7630(4) 0.4793(3)
H73? H 0.4784 0.7362 0.5109
H74? H 0.3999 0.7405 0.4526
loop_
_geom_bond_atom_site_label_1
_geom_bond_atom_site_label_2
_geom_bond_site_symmetry_1
_geom_bond_site_symmetry_2
N1 C1 1_555 1_555
C1 H1 1_555 1_555
H2 C1 1_555 1_555
C2 C1 1_555 1_555
H3 C2 1_555 1_555
H4 C2 1_555 1_555
N2 C2 1_555 1_555
H5 N2 1_555 1_555
C3 N2 1_555 1_555
H6 C3 1_555 1_555
H7 C3 1_555 1_555
C4 C3 1_555 1_555
C5 C4 1_555 1_555
H8 C5 1_555 1_555
C6 C4 1_555 1_555
H9 C6 1_555 1_555
C7 C6 1_555 1_555
H10 C7 1_555 1_555
C8 C7 1_555 1_555
H11 C8 1_555 1_555
C9 C5 1_555 1_555
C10 C9 1_555 1_555
H12 C10 1_555 1_555
H13 C10 1_555 1_555
N3 C10 1_555 1_555
H14 N3 1_555 1_555
C11 N3 1_555 1_555
H15 C11 1_555 1_555
H16 C11 1_555 1_555
C12 C11 1_555 1_555
H17 C12 1_555 1_555
H18 C12 1_555 1_555
N4 C12 1_555 1_555
C13 N4 1_555 1_555
H19 C13 1_555 1_555
H20 C13 1_555 1_555
C14 C13 1_555 1_555
H21 C14 1_555 1_555
H22 C14 1_555 1_555
N5 C14 1_555 1_555
H23 N5 1_555 1_555
C15 N5 1_555 1_555
H24 C15 1_555 1_555
H25 C15 1_555 1_555
C16 C15 1_555 1_555
C17 C16 1_555 1_555
H26 C17 1_555 1_555
C18 C16 1_555 1_555
H27 C18 1_555 1_555
C19 C18 1_555 1_555
H28 C19 1_555 1_555
C20 C19 1_555 1_555
H29 C20 1_555 1_555
C21 C17 1_555 1_555
C22 C21 1_555 1_555
H30 C22 1_555 1_555
H31 C22 1_555 1_555
N6 C22 1_555 1_555
H32 N6 1_555 1_555
C23 N6 1_555 1_555
H33 C23 1_555 1_555
H34 C23 1_555 1_555
C24 N1 1_555 1_555
H35 C24 1_555 1_555
H36 C24 1_555 1_555
C25 N1 1_555 1_555
H37 C25 1_555 1_555
H38 C25 1_555 1_555
C26 C25 1_555 1_555
H39 C26 1_555 1_555
H40 C26 1_555 1_555
N7 C26 1_555 1_555
H41 N7 1_555 1_555
C27 N7 1_555 1_555
H42 C27 1_555 1_555
H43 C27 1_555 1_555
C28 C27 1_555 1_555
C29 C28 1_555 1_555
H44 C29 1_555 1_555
C30 C28 1_555 1_555
H45 C30 1_555 1_555
C31 C30 1_555 1_555
H46 C31 1_555 1_555
C32 C31 1_555 1_555
H47 C32 1_555 1_555
C33 C29 1_555 1_555
C34 C33 1_555 1_555
H48 C34 1_555 1_555
H49 C34 1_555 1_555
N8 C34 1_555 1_555
H50 N8 1_555 1_555
C35 N8 1_555 1_555
H51 C35 1_555 1_555
H52 C35 1_555 1_555
C36 N4 1_555 1_555
H53 C36 1_555 1_555
H54 C36 1_555 1_555
O4 H61 1_555 1_555
H62 O4 1_555 1_555
O6 H65 1_555 1_555
H66 O6 1_555 1_555
O7 H67 1_555 1_555
H68 O7 1_555 1_555
O8 H69 1_555 1_555
H70 O8 1_555 1_555
O9 H71 1_555 1_555
H72 O9 1_555 1_555
O11 H75 1_555 1_555
H76 O11 1_555 1_555
O12 H77 1_555 1_555
H78 O12 1_555 1_555
O13 H79 1_555 1_555
H80 O13 1_555 1_555
O14 H81 1_555 1_555
H82 O14 1_555 1_555
O15 H83 1_555 1_555
H84 O15 1_555 1_555
O16 H85 1_555 1_555
H86 O16 1_555 1_555
O17 H87 1_555 1_555
H88 O17 1_555 1_555
C8 C9 1_555 1_555
C20 C21 1_555 1_555
C23 C24 1_555 1_555
C32 C33 1_555 1_555
C35 C36 1_555 1_555

#END
