
#######################################################################
#
#                 Cambridge Crystallographic Data Centre
#                                CCDC 
#
#######################################################################
#
# If this CIF has been generated from an entry in the Cambridge 
# Structural Database, then it will include bibliographic, chemical, 
# crystal, experimental, refinement or atomic coordinate data resulting 
# from the CCDC's data processing and validation procedures.
#
#######################################################################

data_SUYYOC
_chemical_formula_moiety         'C9 H11 N1 O1,C8 H5 N1 O6'
_chemical_name_systematic        
'4-nitrophthalic acid 4-(dimethylamino)benzaldehyde'
_symmetry_cell_setting           triclinic
_symmetry_space_group_name_H-M   'P -1'
_symmetry_Int_Tables_number      2
_space_group_name_Hall           '-P 1'
loop_
_symmetry_equiv_pos_site_id
_symmetry_equiv_pos_as_xyz
1 x,y,z
2 -x,-y,-z
_cell_length_a                   7.6200(7)
_cell_length_b                   8.9299(8)
_cell_length_c                   13.9601(12)
_cell_angle_alpha                75.7310(10)
_cell_angle_beta                 78.722(2)
_cell_angle_gamma                64.8700(10)
_cell_volume                     828.996
_exptl_crystal_colour            colorless
_exptl_crystal_description       block
_cell_formula_units_Z            2
loop_
_atom_site_label
_atom_site_type_symbol
_atom_site_fract_x
_atom_site_fract_y
_atom_site_fract_z
N1 N 0.2640(7) 0.3427(7) 0.5760(4)
O1 O 0.2014(6) 1.0780(6) 0.3462(3)
C1 C 0.2078(8) 0.9525(9) 0.3227(5)
H1 H 0.2062 0.9573 0.2555
C2 C 0.2171(8) 0.8013(9) 0.3874(4)
C3 C 0.2175(8) 0.7774(9) 0.4915(5)
H2 H 0.2084 0.8658 0.5188
C4 C 0.2305(8) 0.6310(8) 0.5525(5)
H3 H 0.2273 0.6222 0.6205
C5 C 0.2487(8) 0.4906(8) 0.5157(4)
C6 C 0.2462(8) 0.5137(9) 0.4112(5)
H4 H 0.2546 0.4261 0.3833
C7 C 0.2317(8) 0.6631(9) 0.3525(5)
H5 H 0.2316 0.6739 0.2845
C8 C 0.2956(10) 0.1964(8) 0.5378(5)
H6 H 0.1839 0.2172 0.5065
H7 H 0.3154 0.1018 0.5914
H8 H 0.4087 0.1728 0.4900
C9 C 0.2532(10) 0.3226(9) 0.6849(4)
H9 H 0.3593 0.3393 0.7014
H10 H 0.2612 0.2114 0.7155
H11 H 0.1318 0.4042 0.7086
N2 N 0.7950(10) 0.1462(9) 0.1871(5)
O2 O 0.8480(7) 0.6765(6) -0.2029(3)
H12 H 0.8248 0.7597 -0.2474
O3 O 0.5795(6) 0.8425(5) -0.1240(3)
O4 O 0.6390(6) 0.8462(5) 0.0752(3)
H13 H 0.5686 0.9378 0.0907
O5 O 0.3618(7) 0.8098(6) 0.1061(3)
O6 O 0.7116(9) 0.1758(7) 0.2685(4)
O7 O 0.8811(8) 0.0058(6) 0.1675(4)
C10 C 0.7165(10) 0.7108(8) -0.1277(5)
C11 C 0.5321(11) 0.7607(8) 0.0772(4)
C12 C 0.7519(9) 0.5618(8) -0.0415(5)
C13 C 0.6498(8) 0.5918(8) 0.0517(5)
C14 C 0.6658(9) 0.4518(9) 0.1256(5)
H14 H 0.5974 0.4658 0.1879
C15 C 0.7815(10) 0.2937(8) 0.1075(5)
C16 C 0.8846(10) 0.2636(9) 0.0177(5)
H15 H 0.9642 0.1550 0.0073
C17 C 0.8654(9) 0.4022(9) -0.0573(5)
H16 H 0.9314 0.3862 -0.1199
loop_
_geom_bond_atom_site_label_1
_geom_bond_atom_site_label_2
_geom_bond_site_symmetry_1
_geom_bond_site_symmetry_2
N1 C5 1_555 1_555
O1 C1 1_555 1_555
C1 H1 1_555 1_555
C2 C1 1_555 1_555
C3 C2 1_555 1_555
H2 C3 1_555 1_555
C4 C3 1_555 1_555
H3 C4 1_555 1_555
C5 C4 1_555 1_555
C6 C5 1_555 1_555
H4 C6 1_555 1_555
C7 C2 1_555 1_555
H5 C7 1_555 1_555
C8 N1 1_555 1_555
H6 C8 1_555 1_555
H7 C8 1_555 1_555
H8 C8 1_555 1_555
C9 N1 1_555 1_555
H9 C9 1_555 1_555
H10 C9 1_555 1_555
H11 C9 1_555 1_555
N2 O6 1_555 1_555
O2 H12 1_555 1_555
O3 C10 1_555 1_555
O4 H13 1_555 1_555
O5 C11 1_555 1_555
O7 N2 1_555 1_555
C10 O2 1_555 1_555
C11 O4 1_555 1_555
C12 C10 1_555 1_555
C13 C11 1_555 1_555
C14 C13 1_555 1_555
H14 C14 1_555 1_555
C15 N2 1_555 1_555
C16 C15 1_555 1_555
H15 C16 1_555 1_555
C17 C12 1_555 1_555
H16 C17 1_555 1_555
C6 C7 1_555 1_555
C12 C13 1_555 1_555
C14 C15 1_555 1_555
C16 C17 1_555 1_555

#END
