
#######################################################################
#
#                 Cambridge Crystallographic Data Centre
#                                CCDC 
#
#######################################################################
#
# If this CIF has been generated from an entry in the Cambridge 
# Structural Database, then it will include bibliographic, chemical, 
# crystal, experimental, refinement or atomic coordinate data resulting 
# from the CCDC's data processing and validation procedures.
#
#######################################################################

data_SUZQIP
_chemical_formula_moiety         'C52 H43 N5'
_chemical_name_systematic        
2-(4-(2-(4-(diethylamino)phenyl)-4,5-diphenyl-1H-imidazol-1-yl)phenyl)-3-(4-(diphenylamino)phenyl)acrylonitrile
_symmetry_cell_setting           monoclinic
_symmetry_space_group_name_H-M   'P 21/c'
_symmetry_Int_Tables_number      14
_space_group_name_Hall           '-P 2ybc'
loop_
_symmetry_equiv_pos_site_id
_symmetry_equiv_pos_as_xyz
1 x,y,z
2 -x,1/2+y,1/2-z
3 -x,-y,-z
4 x,1/2-y,1/2+z
_cell_length_a                   14.689(5)
_cell_length_b                   18.897(5)
_cell_length_c                   15.282(5)
_cell_angle_alpha                90
_cell_angle_beta                 98.117(5)
_cell_angle_gamma                90
_cell_volume                     4199.45
_cell_formula_units_Z            4
loop_
_atom_site_label
_atom_site_type_symbol
_atom_site_fract_x
_atom_site_fract_y
_atom_site_fract_z
N1 N 0.38445(18) 0.14147(13) -0.16439(17)
N2 N 0.47517(18) 0.16052(13) -0.26615(18)
C1 C 0.3541(2) 0.12107(17) -0.0824(2)
N3 N 0.2421(2) -0.09615(16) 0.54929(19)
C2 C 0.4736(2) 0.15153(16) -0.1810(2)
C3 C 0.2920(2) 0.07916(17) 0.0741(2)
C4 C 0.5566(2) 0.15322(16) -0.1154(2)
C5 C 0.3793(2) 0.05589(17) -0.0452(2)
H1 H 0.4167 0.0260 -0.0729
C6 C 0.3846(2) 0.15666(16) -0.3074(2)
C7 C 0.3495(2) 0.03472(17) 0.0328(2)
H2 H 0.3677 -0.0088 0.0578
C8 C 0.2974(2) 0.16500(18) -0.0421(2)
H3 H 0.2801 0.2088 -0.0669
C9 C 0.2860(2) -0.01550(18) 0.3005(2)
C10 C 0.6414(2) 0.14615(16) -0.1464(2)
H4 H 0.6425 0.1403 -0.2067
C11 C 0.5593(2) 0.16459(18) -0.0256(2)
H5 H 0.5043 0.1709 -0.0029
C12 C 0.3162(2) -0.09930(19) 0.6217(2)
C13 C 0.1528(2) -0.1160(2) 0.5672(2)
C14 C 0.3263(2) 0.14593(16) -0.2454(2)
C15 C 0.3667(2) 0.15848(16) -0.4054(2)
C16 C 0.2560(2) -0.07012(18) 0.4671(2)
C17 C 0.3073(2) 0.01430(18) 0.2183(2)
H6 H 0.3650 0.0019 0.2049
C18 C 0.1829(2) -0.0491(2) 0.4040(2)
H7 H 0.1230 -0.0532 0.4166
C19 C 0.2251(2) 0.14268(19) -0.2496(2)
C20 C 0.2660(2) 0.14368(17) 0.0355(2)
H8 H 0.2271 0.1732 0.0619
C21 C 0.7237(2) 0.14766(17) -0.0896(3)
H9 H 0.7786 0.1421 -0.1125
C22 C 0.1806(3) 0.0825(2) -0.2260(3)
H10 H 0.2143 0.0419 -0.2090
C23 C 0.2588(2) 0.05672(17) 0.1578(2)
C24 C 0.2831(3) 0.13801(19) -0.4537(3)
H11 H 0.2336 0.1267 -0.4245
C25 C 0.1720(3) 0.0859(2) 0.1713(2)
C26 C 0.3448(2) -0.06507(19) 0.4441(2)
H12 H 0.3949 -0.0796 0.4841
C27 C 0.6415(3) 0.1668(2) 0.0317(2)
H13 H 0.6402 0.1749 0.0916
C28 C 0.7262(2) 0.15728(19) 0.0015(3)
C29 C 0.1980(2) -0.02245(19) 0.3229(2)
H14 H 0.1478 -0.0088 0.2824
N4 N 0.8079(2) 0.15818(19) 0.0590(2)
C30 C 0.1730(3) 0.2018(2) -0.2743(3)
H15 H 0.2015 0.2428 -0.2901
C31 C 0.3585(3) -0.03885(19) 0.3632(2)
H16 H 0.4182 -0.0365 0.3495
C32 C 0.4378(2) 0.17580(19) -0.4526(2)
H17 H 0.4941 0.1900 -0.4220
C33 C 0.4170(3) -0.1674(2) 0.7270(3)
H18 H 0.4374 -0.2110 0.7500
C34 C 0.4251(3) -0.0417(2) 0.7290(3)
H19 H 0.4511 -0.0001 0.7539
C35 C 0.3469(3) -0.1640(2) 0.6560(3)
H20 H 0.3205 -0.2055 0.6314
C36 C 0.2734(3) 0.1345(2) -0.5453(3)
H21 H 0.2175 0.1205 -0.5767
C37 C 0.3563(3) -0.03787(19) 0.6584(3)
H22 H 0.3365 0.0059 0.6352
C38 C 0.4272(3) 0.1724(2) -0.5434(3)
H23 H 0.4761 0.1845 -0.5730
N5 N 0.1034(3) 0.1110(2) 0.1806(2)
C39 C 0.4564(3) -0.1059(2) 0.7636(3)
H24 H 0.5035 -0.1079 0.8111
C40 C 0.3456(3) 0.1515(2) -0.5906(3)
H25 H 0.3387 0.1488 -0.6519
C41 C 0.0212(4) -0.1916(3) 0.5467(5)
H26 H -0.0100 -0.2294 0.5172
C42 C 0.0859(3) 0.0826(3) -0.2277(3)
H27 H 0.0566 0.0421 -0.2109
C43 C 0.8941(3) 0.1407(3) 0.0284(4)
H28 H 0.9442 0.1583 0.0711
H29 H 0.8970 0.1651 -0.0270
C44 C 0.9082(4) 0.0636(3) 0.0150(5)
H30 H 0.9047 0.0388 0.0692
H31 H 0.9675 0.0561 -0.0028
H32 H 0.8613 0.0463 -0.0301
C45 C 0.8081(3) 0.1627(3) 0.1548(3)
H33 H 0.8633 0.1401 0.1846
H34 H 0.7556 0.1369 0.1704
C46 C 0.0787(3) 0.2007(3) -0.2759(3)
H35 H 0.0446 0.2412 -0.2925
C47 C 0.1120(3) -0.0795(3) 0.6272(3)
H36 H 0.1418 -0.0408 0.6558
C48 C 0.0269(4) -0.0992(5) 0.6465(5)
H37 H -0.0008 -0.0725 0.6865
C49 C 0.0353(3) 0.1413(3) -0.2537(4)
H38 H -0.0283 0.1407 -0.2561
C50 C 0.1066(3) -0.1720(3) 0.5268(4)
H39 H 0.1330 -0.1976 0.4849
C51 C -0.0168(4) -0.1561(4) 0.6087(5)
H40 H -0.0725 -0.1707 0.6251
C52 C 0.8045(4) 0.2377(4) 0.1870(3)
H41 H 0.8552 0.2639 0.1700
H42 H 0.8082 0.2380 0.2502
H43 H 0.7478 0.2592 0.1613
loop_
_geom_bond_atom_site_label_1
_geom_bond_atom_site_label_2
_geom_bond_site_symmetry_1
_geom_bond_site_symmetry_2
N1 C1 1_555 1_555
N2 C2 1_555 1_555
C1 C5 1_555 1_555
N3 C12 1_555 1_555
C2 N1 1_555 1_555
C3 C7 1_555 1_555
C4 C2 1_555 1_555
C5 H1 1_555 1_555
C6 N2 1_555 1_555
C7 C5 1_555 1_555
H2 C7 1_555 1_555
C8 C1 1_555 1_555
H3 C8 1_555 1_555
C9 C17 1_555 1_555
C10 C4 1_555 1_555
H4 C10 1_555 1_555
C11 C4 1_555 1_555
H5 C11 1_555 1_555
C12 C35 1_555 1_555
C13 N3 1_555 1_555
C14 N1 1_555 1_555
C15 C6 1_555 1_555
C16 N3 1_555 1_555
C17 H6 1_555 1_555
C18 C16 1_555 1_555
H7 C18 1_555 1_555
C19 C14 1_555 1_555
C20 C3 1_555 1_555
H8 C20 1_555 1_555
C21 C10 1_555 1_555
H9 C21 1_555 1_555
C22 C19 1_555 1_555
H10 C22 1_555 1_555
C23 C3 1_555 1_555
C24 C15 1_555 1_555
H11 C24 1_555 1_555
C25 C23 1_555 1_555
C26 C16 1_555 1_555
H12 C26 1_555 1_555
C27 C11 1_555 1_555
H13 C27 1_555 1_555
C28 C21 1_555 1_555
C29 C9 1_555 1_555
H14 C29 1_555 1_555
N4 C28 1_555 1_555
C30 C19 1_555 1_555
H15 C30 1_555 1_555
C31 C9 1_555 1_555
H16 C31 1_555 1_555
C32 C15 1_555 1_555
H17 C32 1_555 1_555
C33 H18 1_555 1_555
C34 H19 1_555 1_555
C35 C33 1_555 1_555
H20 C35 1_555 1_555
C36 C24 1_555 1_555
H21 C36 1_555 1_555
C37 C12 1_555 1_555
H22 C37 1_555 1_555
C38 C32 1_555 1_555
H23 C38 1_555 1_555
N5 C25 1_555 1_555
C39 C33 1_555 1_555
H24 C39 1_555 1_555
C40 C36 1_555 1_555
H25 C40 1_555 1_555
C41 H26 1_555 1_555
C42 C22 1_555 1_555
H27 C42 1_555 1_555
C43 N4 1_555 1_555
H28 C43 1_555 1_555
H29 C43 1_555 1_555
C44 C43 1_555 1_555
H30 C44 1_555 1_555
H31 C44 1_555 1_555
H32 C44 1_555 1_555
C45 N4 1_555 1_555
H33 C45 1_555 1_555
H34 C45 1_555 1_555
C46 C30 1_555 1_555
H35 C46 1_555 1_555
C47 C13 1_555 1_555
H36 C47 1_555 1_555
C48 C47 1_555 1_555
H37 C48 1_555 1_555
C49 C42 1_555 1_555
H38 C49 1_555 1_555
C50 C13 1_555 1_555
H39 C50 1_555 1_555
C51 C41 1_555 1_555
H40 C51 1_555 1_555
C52 C45 1_555 1_555
H41 C52 1_555 1_555
H42 C52 1_555 1_555
H43 C52 1_555 1_555
C6 C14 1_555 1_555
C8 C20 1_555 1_555
C17 C23 1_555 1_555
C18 C29 1_555 1_555
C26 C31 1_555 1_555
C27 C28 1_555 1_555
C34 C37 1_555 1_555
C34 C39 1_555 1_555
C38 C40 1_555 1_555
C41 C50 1_555 1_555
C46 C49 1_555 1_555
C48 C51 1_555 1_555

#END
