
#######################################################################
#
#                 Cambridge Crystallographic Data Centre
#                                CCDC 
#
#######################################################################
#
# If this CIF has been generated from an entry in the Cambridge 
# Structural Database, then it will include bibliographic, chemical, 
# crystal, experimental, refinement or atomic coordinate data resulting 
# from the CCDC's data processing and validation procedures.
#
#######################################################################

data_SUZSEN
_chemical_formula_moiety         'C20 H15 N1 O4'
_chemical_name_systematic        
'methyl 2-benzyl-4-oxo-2,4-dihydrochromeno[3,4-c]pyrrole-3-carboxylate'
_symmetry_cell_setting           orthorhombic
_symmetry_space_group_name_H-M   'P b c a'
_symmetry_Int_Tables_number      61
_space_group_name_Hall           '-P 2ac 2ab'
loop_
_symmetry_equiv_pos_site_id
_symmetry_equiv_pos_as_xyz
1 x,y,z
2 1/2-x,-y,1/2+z
3 -x,1/2+y,1/2-z
4 1/2+x,1/2-y,-z
5 -x,-y,-z
6 1/2+x,y,1/2-z
7 x,1/2-y,1/2+z
8 1/2-x,1/2+y,z
_cell_length_a                   16.874(3)
_cell_length_b                   10.8932(19)
_cell_length_c                   17.308(3)
_cell_angle_alpha                90
_cell_angle_beta                 90
_cell_angle_gamma                90
_cell_volume                     3181.42
_exptl_crystal_colour            white
_exptl_crystal_description       block
_cell_formula_units_Z            8
loop_
_atom_site_label
_atom_site_type_symbol
_atom_site_fract_x
_atom_site_fract_y
_atom_site_fract_z
O1 O 0.10175(11) 0.90161(17) 1.01001(12)
C1 C 0.26315(16) 0.9253(2) 1.02482(15)
N1 N 0.36215(13) 0.8189(2) 0.97487(14)
C2 C 0.13192(17) 0.9896(2) 1.05935(17)
O2 O 0.11024(13) 0.7543(3) 0.92565(16)
O3 O 0.23628(15) 0.6669(2) 0.84164(15)
C3 C 0.23166(15) 0.8396(2) 0.97239(15)
C4 C 0.14696(18) 0.8248(3) 0.96438(19)
C5 C 0.29502(16) 0.7740(2) 0.94102(16)
C6 C 0.21273(16) 1.0062(2) 1.06850(16)
C7 C 0.44538(16) 0.7852(3) 0.95910(18)
H1 H 0.4484 0.6975 0.9499
H2 H 0.4772 0.8036 1.0043
O4 O 0.35137(17) 0.6001(2) 0.88153(16)
C8 C 0.34369(18) 0.9103(3) 1.02489(17)
H3 H 0.3796 0.9552 1.0542
C9 C 0.53151(18) 0.7918(3) 0.84228(18)
H4 H 0.5426 0.7091 0.8504
C10 C 0.47923(16) 0.8517(3) 0.89067(17)
C11 C 0.0780(2) 1.0589(3) 1.09979(19)
H5 H 0.0239 1.0458 1.0933
C12 C 0.2378(2) 1.0980(3) 1.11891(17)
H6 H 0.2917 1.1122 1.1254
C13 C 0.2987(2) 0.6733(3) 0.88556(18)
C14 C 0.46296(18) 0.9738(3) 0.8767(2)
H7 H 0.4277 1.0155 0.9087
C15 C 0.4980(2) 1.0345(4) 0.8164(2)
H8 H 0.4862 1.1166 0.8074
C16 C 0.1840(2) 1.1679(3) 1.15920(19)
H9 H 0.2016 1.2288 1.1927
C17 C 0.5501(2) 0.9747(4) 0.7698(2)
H10 H 0.5742 1.0166 0.7292
C18 C 0.1044(2) 1.1474(3) 1.1499(2)
H11 H 0.0681 1.1939 1.1777
C19 C 0.5676(2) 0.8531(4) 0.7819(2)
H12 H 0.6033 0.8126 0.7498
C20 C 0.2297(2) 0.5623(3) 0.7911(2)
H13 H 0.2701 0.5665 0.7522
H14 H 0.1785 0.5624 0.7669
H15 H 0.2360 0.4883 0.8206
loop_
_geom_bond_atom_site_label_1
_geom_bond_atom_site_label_2
_geom_bond_site_symmetry_1
_geom_bond_site_symmetry_2
O1 C2 1_555 1_555
C1 C3 1_555 1_555
N1 C5 1_555 1_555
C2 C6 1_555 1_555
O2 C4 1_555 1_555
O3 C13 1_555 1_555
C3 C4 1_555 1_555
C4 O1 1_555 1_555
C5 C3 1_555 1_555
C6 C1 1_555 1_555
C7 N1 1_555 1_555
H1 C7 1_555 1_555
H2 C7 1_555 1_555
O4 C13 1_555 1_555
C8 C1 1_555 1_555
H3 C8 1_555 1_555
C9 H4 1_555 1_555
C10 C7 1_555 1_555
C11 C2 1_555 1_555
H5 C11 1_555 1_555
C12 C6 1_555 1_555
H6 C12 1_555 1_555
C13 C5 1_555 1_555
C14 C10 1_555 1_555
H7 C14 1_555 1_555
C15 C14 1_555 1_555
H8 C15 1_555 1_555
C16 C12 1_555 1_555
H9 C16 1_555 1_555
C17 C15 1_555 1_555
H10 C17 1_555 1_555
C18 C11 1_555 1_555
H11 C18 1_555 1_555
C19 C9 1_555 1_555
H12 C19 1_555 1_555
C20 O3 1_555 1_555
H13 C20 1_555 1_555
H14 C20 1_555 1_555
H15 C20 1_555 1_555
N1 C8 1_555 1_555
C9 C10 1_555 1_555
C16 C18 1_555 1_555
C17 C19 1_555 1_555

#END
