
#######################################################################
#
#                 Cambridge Crystallographic Data Centre
#                                CCDC 
#
#######################################################################
#
# If this CIF has been generated from an entry in the Cambridge 
# Structural Database, then it will include bibliographic, chemical, 
# crystal, experimental, refinement or atomic coordinate data resulting 
# from the CCDC's data processing and validation procedures.
#
#######################################################################

data_SUZXOC
_chemical_formula_moiety         'C12 H28 N1 1+,C4 H1 O4 1-'
_chemical_name_systematic        'Tetra-n-propylammonium hydrogen squarate'
_symmetry_cell_setting           orthorhombic
_symmetry_space_group_name_H-M   'P b c a'
_symmetry_Int_Tables_number      61
_space_group_name_Hall           '-P 2ac 2ab'
loop_
_symmetry_equiv_pos_site_id
_symmetry_equiv_pos_as_xyz
1 x,y,z
2 1/2-x,-y,1/2+z
3 1/2+x,1/2-y,-z
4 -x,1/2+y,1/2-z
5 -x,-y,-z
6 1/2+x,y,1/2-z
7 1/2-x,1/2+y,z
8 x,1/2-y,1/2+z
_cell_length_a                   16.1735(6)
_cell_length_b                   12.5353(4)
_cell_length_c                   34.1861(18)
_cell_angle_alpha                90
_cell_angle_beta                 90
_cell_angle_gamma                90
_cell_volume                     6930.88
_exptl_crystal_colour            colorless
_exptl_crystal_description       block
_cell_formula_units_Z            16
loop_
_atom_site_label
_atom_site_type_symbol
_atom_site_fract_x
_atom_site_fract_y
_atom_site_fract_z
O1 O 0.35058(7) 0.80336(8) 0.00551(3)
O2 O 0.48933(6) 0.70589(9) 0.06078(3)
H1 H 0.5124 0.6912 0.0814
O3 O 0.38438(6) 0.78704(8) 0.13852(3)
C1 C 0.35912(9) 0.79843(10) 0.04135(4)
C2 C 0.41994(8) 0.75607(10) 0.06811(4)
O4 O 0.24556(7) 0.88335(11) 0.08152(3)
C3 C 0.31035(9) 0.83537(12) 0.07614(4)
C4 C 0.37568(8) 0.79062(10) 0.10173(4)
O5 O 0.65984(7) 0.71744(8) 0.23759(3)
O6 O 0.59385(6) 0.64507(8) 0.10996(3)
O7 O 0.50048(6) 0.75817(8) 0.18580(3)
H2 H 0.4713 0.7570 0.1662
O8 O 0.75056(6) 0.59484(9) 0.16463(3)
C5 C 0.68450(9) 0.64015(11) 0.16986(4)
C6 C 0.57169(9) 0.71275(10) 0.17810(4)
C7 C 0.64234(9) 0.69535(10) 0.20351(4)
C8 C 0.61050(9) 0.66331(10) 0.14546(4)
N1 N 0.21199(7) 1.00233(8) 0.20159(3)
C9 C 0.26380(9) 0.91495(10) 0.22047(4)
H3 H 0.2269 0.8592 0.2295
H4 H 0.2992 0.8841 0.2006
C10 C 0.26533(8) 1.09135(10) 0.18497(4)
H5 H 0.2290 1.1445 0.1736
H6 H 0.2943 1.1251 0.2065
C11 C 0.15540(9) 1.05656(11) 0.23102(4)
H7 H 0.1897 1.0903 0.2507
H8 H 0.1256 1.1128 0.2176
C12 C 0.16292(9) 0.94732(11) 0.16948(4)
H9 H 0.2018 0.9140 0.1516
H10 H 0.1306 0.8908 0.1813
C13 C 0.32860(9) 1.05974(12) 0.15442(4)
H11 H 0.3012 1.0298 0.1317
H12 H 0.3660 1.0065 0.1650
C14 C 0.36801(10) 0.85495(13) 0.26896(5)
H13 H 0.4018 0.8771 0.2906
H14 H 0.4027 0.8293 0.2482
H15 H 0.3315 0.7989 0.2773
C15 C 0.31727(9) 0.94925(11) 0.25440(4)
H16 H 0.2827 0.9760 0.2754
H17 H 0.3539 1.0063 0.2462
C16 C 0.03568(10) 1.05736(15) 0.27543(5)
H18 H -0.0043 1.0139 0.2887
H19 H 0.0077 1.1062 0.2583
H20 H 0.0674 1.0967 0.2943
C17 C 0.09291(10) 0.98665(13) 0.25170(5)
H21 H 0.1211 0.9367 0.2688
H22 H 0.0613 0.9463 0.2327
C18 C 0.37631(11) 1.15995(13) 0.14305(5)
H23 H 0.4169 1.1423 0.1236
H24 H 0.4034 1.1886 0.1657
H25 H 0.3387 1.2120 0.1326
C19 C 0.05598(11) 0.94885(15) 0.11839(5)
H26 H 0.0193 0.9933 0.1035
H27 H 0.0244 0.8979 0.1331
H28 H 0.0927 0.9119 0.1010
C20 C 0.10528(11) 1.01663(13) 0.14587(5)
H29 H 0.0683 1.0549 0.1633
H30 H 0.1370 1.0686 0.1311
N2 N 0.72813(7) 0.92147(9) 0.04802(3)
C21 C 0.77604(9) 0.83419(10) 0.06906(4)
H31 H 0.7368 0.7813 0.0783
H32 H 0.8117 0.7994 0.0501
C22 C 0.67284(9) 0.98257(11) 0.07618(4)
H33 H 0.7071 1.0121 0.0968
H34 H 0.6481 1.0419 0.0622
C23 C 0.67779(9) 0.86388(11) 0.01688(4)
H35 H 0.7155 0.8229 0.0007
H36 H 0.6413 0.8137 0.0299
C24 C 0.78577(9) 1.00470(10) 0.03043(4)
H37 H 0.7522 1.0581 0.0174
H38 H 0.8146 1.0400 0.0517
C25 C 0.84970(9) 0.96476(11) 0.00152(4)
H39 H 0.8226 0.9323 -0.0208
H40 H 0.8847 0.9115 0.0138
C26 C 0.90159(9) 1.05951(12) -0.01166(4)
H41 H 0.9424 1.0359 -0.0301
H42 H 0.9286 1.0907 0.0106
H43 H 0.8665 1.1117 -0.0238
C27 C 0.82869(10) 0.86855(12) 0.10344(5)
H44 H 0.7938 0.8944 0.1245
H45 H 0.8657 0.9256 0.0956
C28 C 0.87832(10) 0.77197(12) 0.11710(5)
H46 H 0.9123 0.7918 0.1390
H47 H 0.9128 0.7472 0.0961
H48 H 0.8411 0.7161 0.1248
C29 C 0.62597(10) 0.93389(12) -0.00968(5)
H49 H 0.6617 0.9746 -0.0269
H50 H 0.5940 0.9837 0.0059
C30 C 0.56298(11) 0.98088(14) 0.12655(5)
H51 H 0.5196 0.9389 0.1380
H52 H 0.5400 1.0450 0.1157
H53 H 0.6028 0.9990 0.1463
C31 C 0.60450(11) 0.91798(13) 0.09479(6)
H54 H 0.5641 0.8985 0.0751
H55 H 0.6273 0.8529 0.1057
C32 C 0.56816(12) 0.86413(15) -0.03378(5)
H56 H 0.5353 0.9083 -0.0507
H57 H 0.5326 0.8247 -0.0166
H58 H 0.6001 0.8154 -0.0493
loop_
_geom_bond_atom_site_label_1
_geom_bond_atom_site_label_2
_geom_bond_site_symmetry_1
_geom_bond_site_symmetry_2
O1 C1 1_555 1_555
O2 H1 1_555 1_555
O3 C4 1_555 1_555
C1 C2 1_555 1_555
C2 O2 1_555 1_555
O4 C3 1_555 1_555
C3 C1 1_555 1_555
C4 C2 1_555 1_555
O5 C7 1_555 1_555
O6 C8 1_555 1_555
O7 H2 1_555 1_555
O8 C5 1_555 1_555
C5 C7 1_555 1_555
C6 O7 1_555 1_555
C7 C6 1_555 1_555
C8 C5 1_555 1_555
N1 C9 1_555 1_555
C9 H3 1_555 1_555
H4 C9 1_555 1_555
C10 N1 1_555 1_555
H5 C10 1_555 1_555
H6 C10 1_555 1_555
C11 N1 1_555 1_555
H7 C11 1_555 1_555
H8 C11 1_555 1_555
C12 N1 1_555 1_555
H9 C12 1_555 1_555
H10 C12 1_555 1_555
C13 C10 1_555 1_555
H11 C13 1_555 1_555
H12 C13 1_555 1_555
C14 H13 1_555 1_555
H14 C14 1_555 1_555
H15 C14 1_555 1_555
C15 C9 1_555 1_555
H16 C15 1_555 1_555
H17 C15 1_555 1_555
C16 H18 1_555 1_555
H19 C16 1_555 1_555
H20 C16 1_555 1_555
C17 C11 1_555 1_555
H21 C17 1_555 1_555
H22 C17 1_555 1_555
C18 C13 1_555 1_555
H23 C18 1_555 1_555
H24 C18 1_555 1_555
H25 C18 1_555 1_555
C19 H26 1_555 1_555
H27 C19 1_555 1_555
H28 C19 1_555 1_555
C20 C12 1_555 1_555
H29 C20 1_555 1_555
H30 C20 1_555 1_555
N2 C21 1_555 1_555
C21 H31 1_555 1_555
H32 C21 1_555 1_555
C22 N2 1_555 1_555
H33 C22 1_555 1_555
H34 C22 1_555 1_555
C23 N2 1_555 1_555
H35 C23 1_555 1_555
H36 C23 1_555 1_555
C24 N2 1_555 1_555
H37 C24 1_555 1_555
H38 C24 1_555 1_555
C25 C24 1_555 1_555
H39 C25 1_555 1_555
H40 C25 1_555 1_555
C26 C25 1_555 1_555
H41 C26 1_555 1_555
H42 C26 1_555 1_555
H43 C26 1_555 1_555
C27 C21 1_555 1_555
H44 C27 1_555 1_555
H45 C27 1_555 1_555
C28 C27 1_555 1_555
H46 C28 1_555 1_555
H47 C28 1_555 1_555
H48 C28 1_555 1_555
C29 C23 1_555 1_555
H49 C29 1_555 1_555
H50 C29 1_555 1_555
C30 H51 1_555 1_555
H52 C30 1_555 1_555
H53 C30 1_555 1_555
C31 C22 1_555 1_555
H54 C31 1_555 1_555
H55 C31 1_555 1_555
C32 C29 1_555 1_555
H56 C32 1_555 1_555
H57 C32 1_555 1_555
H58 C32 1_555 1_555
C3 C4 1_555 1_555
C6 C8 1_555 1_555
C14 C15 1_555 1_555
C16 C17 1_555 1_555
C19 C20 1_555 1_555
C30 C31 1_555 1_555

#END
