
#######################################################################
#
#                 Cambridge Crystallographic Data Centre
#                                CCDC 
#
#######################################################################
#
# If this CIF has been generated from an entry in the Cambridge 
# Structural Database, then it will include bibliographic, chemical, 
# crystal, experimental, refinement or atomic coordinate data resulting 
# from the CCDC's data processing and validation procedures.
#
#######################################################################

data_TABMUF
_chemical_formula_moiety         'C26 H20 N2 O2 S2'
_chemical_name_systematic        
(N,N'-(1,1'-Dithio-bis(phenylene))-bis(salicylideneimine))
_symmetry_cell_setting           triclinic
_symmetry_space_group_name_H-M   'P -1'
_symmetry_Int_Tables_number      2
_space_group_name_Hall           '-P 1'
loop_
_symmetry_equiv_pos_site_id
_symmetry_equiv_pos_as_xyz
1 x,y,z
2 -x,-y,-z
_cell_length_a                   12.166(10)
_cell_length_b                   12.380(12)
_cell_length_c                   16.843(17)
_cell_angle_alpha                70.50(7)
_cell_angle_beta                 69.35(7)
_cell_angle_gamma                89.84(7)
_cell_volume                     2218.59
_exptl_crystal_colour            brown
_exptl_crystal_description       needle
_cell_formula_units_Z            4
loop_
_atom_site_label
_atom_site_type_symbol
_atom_site_fract_x
_atom_site_fract_y
_atom_site_fract_z
S1 S 0.07452(4) 0.73328(4) 0.01441(3)
S2 S -0.07053(4) 0.81507(4) 0.01720(3)
O1 O 0.32625(13) 0.65557(11) 0.08010(10)
H1 H 0.285(2) 0.647(2) 0.0472(19)
O2 O -0.37423(13) 0.81551(12) 0.11751(11)
H2 H -0.299(3) 0.858(3) 0.067(3)
N1 N 0.23270(13) 0.56756(13) -0.00618(10)
N2 N -0.21874(13) 0.98227(13) -0.01801(10)
C1 C 0.08918(16) 0.66117(15) -0.06367(13)
C2 C 0.02898(18) 0.68306(17) -0.12287(14)
H3 H -0.0245 0.7391 -0.1230
C3 C 0.0473(2) 0.6231(2) -0.18153(16)
H4 H 0.0065 0.6383 -0.2221
C4 C 0.1246(2) 0.5409(2) -0.18148(16)
H5 H 0.1353 0.4987 -0.2209
C5 C 0.18666(19) 0.52025(18) -0.12386(15)
H6 H 0.2411 0.4651 -0.1250
C6 C 0.16957(16) 0.57974(16) -0.06447(13)
C7 C 0.27751(16) 0.47469(16) 0.02075(13)
H7 H 0.2637 0.4111 0.0043
C8 C 0.34845(16) 0.46433(15) 0.07545(12)
C9 C 0.39948(18) 0.36307(17) 0.10000(14)
H8 H 0.3872 0.3025 0.0800
C10 C 0.46716(19) 0.34929(18) 0.15251(15)
H9 H 0.4999 0.2794 0.1696
C11 C 0.48697(18) 0.4388(2) 0.18015(14)
H10 H 0.5321 0.4290 0.2175
C12 C 0.44213(18) 0.54182(18) 0.15422(13)
H11 H 0.4594 0.6036 0.1714
C13 C 0.37140(16) 0.55493(16) 0.10273(12)
C14 C -0.01949(16) 0.94604(15) -0.07929(12)
C15 C 0.09492(17) 0.97562(17) -0.14349(13)
H12 H 0.1529 0.9253 -0.1373
C16 C 0.12462(18) 1.07881(18) -0.21673(13)
H13 H 0.2031 1.0992 -0.2607
C17 C 0.03985(18) 1.15264(18) -0.22611(13)
H14 H 0.0606 1.2231 -0.2766
C18 C -0.07452(17) 1.12370(16) -0.16199(13)
H15 H -0.1322 1.1742 -0.1689
C19 C -0.10560(16) 1.02075(15) -0.08719(12)
C20 C -0.29763(16) 1.05165(15) -0.00666(12)
H16 H -0.2780 1.1308 -0.0449
C21 C -0.41493(16) 1.01174(15) 0.06277(12)
C22 C -0.49893(17) 1.08942(16) 0.06988(13)
H17 H -0.4775 1.1675 0.0294
C23 C -0.61183(17) 1.05432(17) 0.13455(14)
H18 H -0.6680 1.1077 0.1380
C24 C -0.64345(17) 0.94074(17) 0.19473(13)
H19 H -0.7207 0.9171 0.2404
C25 C -0.56273(17) 0.86183(17) 0.18844(14)
H20 H -0.5851 0.7841 0.2294
C26 C -0.44959(17) 0.89598(16) 0.12254(13)
S3 S 0.20562(4) 0.92413(4) 0.48414(3)
S4 S 0.28737(4) 1.06374(4) 0.48794(3)
O3 O 0.20579(12) 0.72442(14) 0.38131(11)
H21 H 0.158(3) 0.750(3) 0.429(3)
O4 O 0.34208(12) 1.37910(13) 0.43963(11)
H22 H 0.346(3) 1.305(3) 0.473(2)
N3 N 0.02750(13) 0.75807(13) 0.50882(10)
N4 N 0.42756(13) 1.20465(13) 0.52595(10)
C27 C 0.06303(16) 0.89332(16) 0.57294(12)
C28 C 0.02944(18) 0.94654(18) 0.63708(14)
H23 H 0.0831 1.0045 0.6344
C29 C -0.08199(19) 0.9151(2) 0.70473(15)
H24 H -0.1051 0.9514 0.7487
C30 C -0.16040(19) 0.8304(2) 0.70854(15)
H25 H -0.2371 0.8091 0.7551
C31 C -0.12772(18) 0.77686(18) 0.64527(14)
H26 H -0.1818 0.7186 0.6488
C32 C -0.01591(16) 0.80772(15) 0.57624(12)
C33 C -0.04091(16) 0.69252(15) 0.49544(12)
H27 H -0.1234 0.6788 0.5308
C34 C 0.00484(15) 0.63941(14) 0.42789(11)
C35 C -0.07250(16) 0.56601(15) 0.41743(12)
H28 H -0.1541 0.5516 0.4552
C36 C -0.03191(17) 0.51465(16) 0.35336(13)
H29 H -0.0849 0.4638 0.3479
C37 C 0.08681(18) 0.53757(17) 0.29669(14)
H30 H 0.1144 0.5042 0.2511
C38 C 0.16537(17) 0.60866(18) 0.30614(14)
H31 H 0.2465 0.6236 0.2672
C39 C 0.12570(16) 0.65804(16) 0.37239(13)
C40 C 0.34125(16) 1.00783(16) 0.57761(13)
C41 C 0.31664(18) 0.89476(17) 0.63736(14)
H32 H 0.2698 0.8392 0.6311
C42 C 0.3606(2) 0.86230(18) 0.70693(15)
H33 H 0.3429 0.7848 0.7483
C43 C 0.4299(2) 0.94253(19) 0.71590(15)
H34 H 0.4599 0.9200 0.7633
C44 C 0.45559(18) 1.05588(18) 0.65565(14)
H35 H 0.5032 1.1109 0.6619
C45 C 0.41201(15) 1.08944(16) 0.58617(12)
C46 C 0.52478(16) 1.27143(16) 0.49711(13)
H36 H 0.5881 1.2416 0.5146
C47 C 0.54022(16) 1.39095(16) 0.43858(12)
C48 C 0.64823(17) 1.46013(18) 0.40814(15)
H37 H 0.7102 1.4277 0.4263
C49 C 0.66638(18) 1.57451(18) 0.35236(14)
H38 H 0.7407 1.6200 0.3312
C50 C 0.57483(19) 1.62245(18) 0.32747(14)
H39 H 0.5869 1.7011 0.2889
C51 C 0.46630(19) 1.55691(18) 0.35819(14)
H40 H 0.4037 1.5914 0.3421
C52 C 0.44841(16) 1.44114(17) 0.41240(13)
loop_
_geom_bond_atom_site_label_1
_geom_bond_atom_site_label_2
_geom_bond_site_symmetry_1
_geom_bond_site_symmetry_2
S1 S2 1_555 1_555
S2 C14 1_555 1_555
O1 H1 1_555 1_555
O2 H2 1_555 1_555
N1 C6 1_555 1_555
N2 C19 1_555 1_555
C1 S1 1_555 1_555
C2 C1 1_555 1_555
H3 C2 1_555 1_555
C3 C2 1_555 1_555
H4 C3 1_555 1_555
C4 C3 1_555 1_555
H5 C4 1_555 1_555
C5 C4 1_555 1_555
H6 C5 1_555 1_555
C6 C1 1_555 1_555
C7 N1 1_555 1_555
H7 C7 1_555 1_555
C8 C7 1_555 1_555
C9 C8 1_555 1_555
H8 C9 1_555 1_555
C10 C9 1_555 1_555
H9 C10 1_555 1_555
C11 C10 1_555 1_555
H10 C11 1_555 1_555
C12 C11 1_555 1_555
H11 C12 1_555 1_555
C13 O1 1_555 1_555
C14 C15 1_555 1_555
C15 H12 1_555 1_555
C16 C15 1_555 1_555
H13 C16 1_555 1_555
C17 C16 1_555 1_555
H14 C17 1_555 1_555
C18 C17 1_555 1_555
H15 C18 1_555 1_555
C19 C14 1_555 1_555
C20 N2 1_555 1_555
H16 C20 1_555 1_555
C21 C20 1_555 1_555
C22 C21 1_555 1_555
H17 C22 1_555 1_555
C23 C22 1_555 1_555
H18 C23 1_555 1_555
C24 C23 1_555 1_555
H19 C24 1_555 1_555
C25 C24 1_555 1_555
H20 C25 1_555 1_555
C26 O2 1_555 1_555
S3 S4 1_555 1_555
S4 C40 1_555 1_555
O3 H21 1_555 1_555
O4 H22 1_555 1_555
N3 C32 1_555 1_555
N4 C45 1_555 1_555
C27 S3 1_555 1_555
C28 C27 1_555 1_555
H23 C28 1_555 1_555
C29 C28 1_555 1_555
H24 C29 1_555 1_555
C30 C29 1_555 1_555
H25 C30 1_555 1_555
C31 C30 1_555 1_555
H26 C31 1_555 1_555
C32 C27 1_555 1_555
C33 N3 1_555 1_555
H27 C33 1_555 1_555
C34 C33 1_555 1_555
C35 C34 1_555 1_555
H28 C35 1_555 1_555
C36 C35 1_555 1_555
H29 C36 1_555 1_555
C37 C36 1_555 1_555
H30 C37 1_555 1_555
C38 C37 1_555 1_555
H31 C38 1_555 1_555
C39 O3 1_555 1_555
C40 C41 1_555 1_555
C41 H32 1_555 1_555
C42 C41 1_555 1_555
H33 C42 1_555 1_555
C43 C42 1_555 1_555
H34 C43 1_555 1_555
C44 C43 1_555 1_555
H35 C44 1_555 1_555
C45 C40 1_555 1_555
C46 N4 1_555 1_555
H36 C46 1_555 1_555
C47 C46 1_555 1_555
C48 C47 1_555 1_555
H37 C48 1_555 1_555
C49 C48 1_555 1_555
H38 C49 1_555 1_555
C50 C49 1_555 1_555
H39 C50 1_555 1_555
C51 C50 1_555 1_555
H40 C51 1_555 1_555
C52 O4 1_555 1_555
C5 C6 1_555 1_555
C8 C13 1_555 1_555
C12 C13 1_555 1_555
C18 C19 1_555 1_555
C21 C26 1_555 1_555
C25 C26 1_555 1_555
C31 C32 1_555 1_555
C34 C39 1_555 1_555
C38 C39 1_555 1_555
C44 C45 1_555 1_555
C47 C52 1_555 1_555
C51 C52 1_555 1_555

#END
