
#######################################################################
#
#                 Cambridge Crystallographic Data Centre
#                                CCDC 
#
#######################################################################
#
# If this CIF has been generated from an entry in the Cambridge 
# Structural Database, then it will include bibliographic, chemical, 
# crystal, experimental, refinement or atomic coordinate data resulting 
# from the CCDC's data processing and validation procedures.
#
#######################################################################

data_TABVIB
_chemical_formula_moiety         'C18 H36 B2 N2 Se3'
_chemical_name_systematic        
3,5-bis(Quinuclidine)-3,5-diethyl-1,2,4,3,5-triselenadiborolane
_symmetry_cell_setting           monoclinic
_symmetry_space_group_name_H-M   'P 21/c'
_symmetry_Int_Tables_number      14
_space_group_name_Hall           '-P 2ybc'
loop_
_symmetry_equiv_pos_site_id
_symmetry_equiv_pos_as_xyz
1 x,y,z
2 -x,1/2+y,1/2-z
3 -x,-y,-z
4 x,1/2-y,1/2+z
_cell_length_a                   12.084(2)
_cell_length_b                   9.133(1)
_cell_length_c                   19.191(4)
_cell_angle_alpha                90
_cell_angle_beta                 95.12(1)
_cell_angle_gamma                90
_cell_volume                     2109.53
_cell_formula_units_Z            4
loop_
_atom_site_label
_atom_site_type_symbol
_atom_site_fract_x
_atom_site_fract_y
_atom_site_fract_z
Se1 Se 0.31998(5) 0.21153(6) 0.90030(3)
Se2 Se 0.44003(5) 0.01666(6) 0.88220(3)
Se3 Se 0.17656(5) -0.07002(6) 0.82191(3)
N1 N 0.30845(40) -0.23751(48) 0.93679(25)
N2 N 0.18919(42) 0.22808(50) 0.75587(26)
B1 B 0.32819(63) -0.15349(67) 0.86302(35)
B2 B 0.18110(56) 0.15451(63) 0.83410(34)
C1 C 0.25551(51) -0.14042(60) 0.98841(29)
H1 H 0.17932(51) -0.12256(60) 0.97201(29)
H2 H 0.29349(51) -0.04802(60) 0.99171(29)
C2 C 0.26126(53) -0.21196(60) 1.06021(30)
H3 H 0.19410(53) -0.19280(60) 1.08184(30)
H4 H 0.32250(53) -0.17243(60) 1.08960(30)
C3 C 0.27626(52) -0.37559(64) 1.05182(31)
H5 H 0.26462(52) -0.42672(64) 1.09426(31)
C4 C 0.19439(51) -0.42707(59) 0.99152(31)
H6 H 0.12176(51) -0.38951(59) 0.99783(31)
H7 H 0.19047(51) -0.53204(59) 0.99038(31)
C5 C 0.23230(51) -0.36930(58) 0.92354(33)
H8 H 0.27139(51) -0.44534(58) 0.90141(33)
H9 H 0.16914(51) -0.34169(58) 0.89241(33)
C6 C 0.41606(49) -0.29306(61) 0.97327(31)
H10 H 0.45829(49) -0.21245(61) 0.99379(31)
H11 H 0.45896(49) -0.33942(61) 0.93974(31)
C7 C 0.39188(53) -0.40333(64) 1.03051(33)
H12 H 0.39720(53) -0.50138(64) 1.01309(33)
H13 H 0.44523(53) -0.39237(64) 1.07033(33)
C8 C 0.37784(52) -0.26438(64) 0.80903(30)
H14 H 0.32942(52) -0.34752(64) 0.80246(30)
H15 H 0.44771(52) -0.29873(64) 0.83071(30)
C9 C 0.39844(56) -0.20410(63) 0.73737(32)
H16 H 0.42975(56) -0.27830(63) 0.70963(32)
H17 H 0.32884(56) -0.17200(63) 0.71438(32)
H18 H 0.44861(56) -0.12260(63) 0.74298(32)
C10 C 0.18754(67) 0.39151(63) 0.75975(35)
H19 H 0.25273(67) 0.42438(63) 0.78762(35)
H20 H 0.12395(67) 0.42153(63) 0.78278(35)
C11 C 0.18376(63) 0.46146(65) 0.68959(35)
H21 H 0.24157(63) 0.53350(65) 0.68934(35)
H22 H 0.11361(63) 0.50988(65) 0.67968(35)
C12 C 0.19885(56) 0.34622(61) 0.63453(32)
H23 H 0.20243(56) 0.39077(61) 0.58948(32)
C13 C 0.10138(54) 0.23879(69) 0.63321(32)
H24 H 0.11336(54) 0.15825(69) 0.60263(32)
H25 H 0.03401(54) 0.28744(69) 0.61596(32)
C14 C 0.09164(55) 0.18301(71) 0.70649(33)
H26 H 0.02496(55) 0.22119(71) 0.72332(33)
H27 H 0.08609(55) 0.07816(71) 0.70558(33)
C15 C 0.29284(55) 0.18385(74) 0.72426(34)
H28 H 0.29094(55) 0.08029(74) 0.71567(34)
H29 H 0.35583(55) 0.20402(74) 0.75695(34)
C16 C 0.30562(53) 0.26381(72) 0.65581(33)
H30 H 0.36640(53) 0.33159(72) 0.66222(33)
H31 H 0.32148(53) 0.19492(72) 0.62025(33)
C17 C 0.07604(51) 0.21866(59) 0.87018(30)
H32 H 0.01142(51) 0.20930(59) 0.83757(30)
H33 H 0.08800(51) 0.32128(59) 0.87865(30)
C18 C 0.05107(54) 0.14636(66) 0.93808(30)
H34 H -0.01263(54) 0.19206(66) 0.95532(30)
H35 H 0.03608(54) 0.04429(66) 0.92987(30)
H36 H 0.11391(54) 0.15673(66) 0.97202(30)
loop_
_geom_bond_atom_site_label_1
_geom_bond_atom_site_label_2
_geom_bond_site_symmetry_1
_geom_bond_site_symmetry_2
Se1 Se2 1_555 1_555
Se2 B1 1_555 1_555
Se3 B1 1_555 1_555
N1 B1 1_555 1_555
N2 B2 1_555 1_555
B1 C8 1_555 1_555
B2 Se1 1_555 1_555
C1 N1 1_555 1_555
H1 C1 1_555 1_555
H2 C1 1_555 1_555
C2 C1 1_555 1_555
H3 C2 1_555 1_555
H4 C2 1_555 1_555
C3 C2 1_555 1_555
H5 C3 1_555 1_555
C4 C3 1_555 1_555
H6 C4 1_555 1_555
H7 C4 1_555 1_555
C5 N1 1_555 1_555
H8 C5 1_555 1_555
H9 C5 1_555 1_555
C6 N1 1_555 1_555
H10 C6 1_555 1_555
H11 C6 1_555 1_555
C7 C3 1_555 1_555
H12 C7 1_555 1_555
H13 C7 1_555 1_555
C8 H14 1_555 1_555
H15 C8 1_555 1_555
C9 C8 1_555 1_555
H16 C9 1_555 1_555
H17 C9 1_555 1_555
H18 C9 1_555 1_555
C10 N2 1_555 1_555
H19 C10 1_555 1_555
H20 C10 1_555 1_555
C11 C10 1_555 1_555
H21 C11 1_555 1_555
H22 C11 1_555 1_555
C12 C11 1_555 1_555
H23 C12 1_555 1_555
C13 C12 1_555 1_555
H24 C13 1_555 1_555
H25 C13 1_555 1_555
C14 N2 1_555 1_555
H26 C14 1_555 1_555
H27 C14 1_555 1_555
C15 N2 1_555 1_555
H28 C15 1_555 1_555
H29 C15 1_555 1_555
C16 C12 1_555 1_555
H30 C16 1_555 1_555
H31 C16 1_555 1_555
C17 B2 1_555 1_555
H32 C17 1_555 1_555
H33 C17 1_555 1_555
C18 C17 1_555 1_555
H34 C18 1_555 1_555
H35 C18 1_555 1_555
H36 C18 1_555 1_555
Se3 B2 1_555 1_555
C4 C5 1_555 1_555
C6 C7 1_555 1_555
C13 C14 1_555 1_555
C15 C16 1_555 1_555

#END
