
#######################################################################
#
#                 Cambridge Crystallographic Data Centre
#                                CCDC 
#
#######################################################################
#
# If this CIF has been generated from an entry in the Cambridge 
# Structural Database, then it will include bibliographic, chemical, 
# crystal, experimental, refinement or atomic coordinate data resulting 
# from the CCDC's data processing and validation procedures.
#
#######################################################################

data_TABWUR
_chemical_formula_moiety         'C16 H21 N3 O2'
_chemical_name_systematic        
1-(5-(2-hydroxyphenyl)-3-methyl-4,5-dihydro-1H-pyrazol-1-yl)-2-(pyrrolidin-1-yl)ethanone
_chemical_properties_biological  'antiproliferative activity'
_symmetry_cell_setting           triclinic
_symmetry_space_group_name_H-M   'P -1'
_symmetry_Int_Tables_number      2
_space_group_name_Hall           '-P 1'
loop_
_symmetry_equiv_pos_site_id
_symmetry_equiv_pos_as_xyz
1 x,y,z
2 -x,-y,-z
_cell_length_a                   10.034(4)
_cell_length_b                   10.880(4)
_cell_length_c                   15.438(6)
_cell_angle_alpha                109.603(4)
_cell_angle_beta                 96.330(4)
_cell_angle_gamma                93.664(4)
_cell_volume                     1568.81
_exptl_crystal_colour            colorless
_exptl_crystal_description       block
_chemical_melting_point          '200-201 deg.C'
_cell_formula_units_Z            4
loop_
_atom_site_label
_atom_site_type_symbol
_atom_site_fract_x
_atom_site_fract_y
_atom_site_fract_z
O1 O 0.60753(17) -0.07628(16) -0.23595(11)
H1 H 0.6595 -0.1029 -0.2739
N1 N 0.2342(2) 0.0270(2) -0.03736(14)
C1 C 0.1555(3) -0.2004(3) -0.0692(2)
H2 H 0.0903 -0.1620 -0.0300
H3 H 0.2070 -0.2529 -0.0420
H4 H 0.1098 -0.2546 -0.1292
O2 O 0.47625(17) 0.28938(16) -0.00615(12)
N2 N 0.33782(19) 0.10217(18) -0.05700(13)
C2 C 0.3074(4) 0.6492(3) 0.1342(2)
H5 H 0.3979 0.6918 0.1599
H6 H 0.2586 0.7049 0.1073
N3 N 0.30449(18) 0.42627(17) 0.11342(11)
C3 C 0.2372(3) 0.6243(3) 0.2069(2)
H7 H 0.1549 0.6668 0.2126
H8 H 0.2945 0.6574 0.2665
C4 C 0.3118(3) 0.5167(3) 0.06203(18)
H9 H 0.2360 0.4964 0.0129
H10 H 0.3950 0.5133 0.0350
C5 C 0.3484(3) 0.1559(3) -0.31762(19)
H11 H 0.2895 0.2089 -0.3349
C6 C 0.3414(3) 0.1305(2) -0.23628(18)
H12 H 0.2767 0.1666 -0.1994
C7 C 0.3609(3) -0.1168(2) -0.13443(18)
H13 H 0.3286 -0.1639 -0.1996
H14 H 0.4249 -0.1664 -0.1123
C8 C 0.2058(3) 0.4774(2) 0.17609(18)
H15 H 0.2163 0.4475 0.2287
H16 H 0.1145 0.4501 0.1439
C9 C 0.2476(3) -0.0941(2) -0.07924(17)
C10 C 0.4430(3) 0.1023(2) -0.37242(18)
H17 H 0.4483 0.1187 -0.4274
C11 C 0.2675(3) 0.2893(2) 0.05819(18)
H18 H 0.1820 0.2805 0.0195
H19 H 0.2551 0.2403 0.0994
C12 C 0.5300(3) 0.0245(2) -0.34665(16)
H20 H 0.5938 -0.0118 -0.3843
C13 C 0.4255(3) 0.0226(2) -0.11944(16)
H21 H 0.5174 0.0357 -0.0865
C14 C 0.4281(2) 0.0526(2) -0.20792(15)
C15 C 0.3709(2) 0.2297(2) -0.00316(15)
C16 C 0.5234(2) -0.0003(2) -0.26480(16)
O3 O 0.32892(18) 1.26397(17) 0.47551(12)
O4 O 0.50392(17) 1.56591(18) 0.74485(11)
H22 H 0.5418 1.5717 0.7961
N4 N 0.28019(19) 1.46472(19) 0.48485(12)
N5 N 0.1582(2) 1.13922(18) 0.31249(13)
N6 N 0.2150(2) 1.5488(2) 0.44696(13)
C17 C 0.1687(3) 1.2809(2) 0.35370(17)
H23 H 0.0802 1.3073 0.3661
H24 H 0.1979 1.3191 0.3096
C18 C 0.2654(2) 1.3340(2) 0.44233(16)
C19 C 0.0477(4) 0.9441(3) 0.2033(3)
H25 H -0.0402 0.9085 0.1673
H26 H 0.1162 0.8978 0.1698
C20 C 0.3599(3) 1.6769(3) 0.57924(18)
H27 H 0.3349 1.7336 0.6371
H28 H 0.4480 1.7104 0.5715
C21 C 0.0955(3) 1.0681(3) 0.3659(2)
H29 H 0.0175 1.1086 0.3898
H30 H 0.1591 1.0667 0.4175
C22 C 0.0548(4) 0.9330(3) 0.2982(3)
H31 H -0.0323 0.8991 0.3073
H32 H 0.1207 0.8746 0.3057
C23 C 0.3588(2) 1.5345(2) 0.57699(15)
H33 H 0.4508 1.5092 0.5784
C24 C 0.1560(2) 1.4706(2) 0.64340(17)
H34 H 0.1019 1.4614 0.5882
C25 C 0.2580(2) 1.6667(2) 0.49968(17)
C26 C 0.3712(2) 1.5240(2) 0.73680(16)
C27 C 0.1779(3) 1.4595(3) 0.79515(19)
H35 H 0.1398 1.4414 0.8424
C28 C 0.2929(2) 1.5083(2) 0.65319(15)
C29 C 0.0984(3) 1.4466(3) 0.71363(19)
H36 H 0.0062 1.4218 0.7060
C30 C 0.3144(3) 1.4992(2) 0.80735(17)
H37 H 0.3677 1.5092 0.8630
C31 C 0.2111(3) 1.7822(3) 0.4788(2)
H38 H 0.1449 1.7527 0.4242
H39 H 0.2864 1.8318 0.4683
H40 H 0.1720 1.8366 0.5304
C32 C 0.0726(3) 1.0898(3) 0.22202(19)
H41 H 0.1184 1.1071 0.1745
H42 H -0.0114 1.1296 0.2248
loop_
_geom_bond_atom_site_label_1
_geom_bond_atom_site_label_2
_geom_bond_site_symmetry_1
_geom_bond_site_symmetry_2
O1 H1 1_555 1_555
N1 N2 1_555 1_555
C1 H2 1_555 1_555
H3 C1 1_555 1_555
H4 C1 1_555 1_555
O2 C15 1_555 1_555
N2 C13 1_555 1_555
C2 H5 1_555 1_555
H6 C2 1_555 1_555
N3 C4 1_555 1_555
C3 C2 1_555 1_555
H7 C3 1_555 1_555
H8 C3 1_555 1_555
C4 C2 1_555 1_555
H9 C4 1_555 1_555
H10 C4 1_555 1_555
C5 H11 1_555 1_555
C6 C5 1_555 1_555
H12 C6 1_555 1_555
C7 H13 1_555 1_555
H14 C7 1_555 1_555
C8 N3 1_555 1_555
H15 C8 1_555 1_555
H16 C8 1_555 1_555
C9 N1 1_555 1_555
C10 C5 1_555 1_555
H17 C10 1_555 1_555
C11 N3 1_555 1_555
H18 C11 1_555 1_555
H19 C11 1_555 1_555
C12 C10 1_555 1_555
H20 C12 1_555 1_555
C13 C7 1_555 1_555
H21 C13 1_555 1_555
C14 C6 1_555 1_555
C15 N2 1_555 1_555
C16 O1 1_555 1_555
O3 C18 1_555 1_555
O4 H22 1_555 1_555
N4 N6 1_555 1_555
N5 C17 1_555 1_555
N6 C25 1_555 1_555
C17 H23 1_555 1_555
H24 C17 1_555 1_555
C18 N4 1_555 1_555
C19 H25 1_555 1_555
H26 C19 1_555 1_555
C20 H27 1_555 1_555
H28 C20 1_555 1_555
C21 N5 1_555 1_555
H29 C21 1_555 1_555
H30 C21 1_555 1_555
C22 C19 1_555 1_555
H31 C22 1_555 1_555
H32 C22 1_555 1_555
C23 N4 1_555 1_555
H33 C23 1_555 1_555
C24 H34 1_555 1_555
C25 C20 1_555 1_555
C26 O4 1_555 1_555
C27 H35 1_555 1_555
C28 C23 1_555 1_555
C29 C24 1_555 1_555
H36 C29 1_555 1_555
C30 C26 1_555 1_555
H37 C30 1_555 1_555
C31 C25 1_555 1_555
H38 C31 1_555 1_555
H39 C31 1_555 1_555
H40 C31 1_555 1_555
C32 N5 1_555 1_555
H41 C32 1_555 1_555
H42 C32 1_555 1_555
C1 C9 1_555 1_555
C3 C8 1_555 1_555
C7 C9 1_555 1_555
C11 C15 1_555 1_555
C12 C16 1_555 1_555
C13 C14 1_555 1_555
C14 C16 1_555 1_555
C17 C18 1_555 1_555
C19 C32 1_555 1_555
C20 C23 1_555 1_555
C21 C22 1_555 1_555
C24 C28 1_555 1_555
C26 C28 1_555 1_555
C27 C29 1_555 1_555
C27 C30 1_555 1_555

#END
