
#######################################################################
#
#                 Cambridge Crystallographic Data Centre
#                                CCDC 
#
#######################################################################
#
# If this CIF has been generated from an entry in the Cambridge 
# Structural Database, then it will include bibliographic, chemical, 
# crystal, experimental, refinement or atomic coordinate data resulting 
# from the CCDC's data processing and validation procedures.
#
#######################################################################

data_TABXEC
_chemical_formula_moiety         'C19 H19 Br1 N2 O2'
_chemical_name_systematic        
1-(5-(5-bromo-2-hydroxyphenyl)-3-methyl-4,5-dihydro-1H-pyrazol-1-yl)-3-phenylpropan-1-one
_chemical_properties_biological  'antiproliferative activity'
_symmetry_cell_setting           monoclinic
_symmetry_space_group_name_H-M   'P 21/n'
_symmetry_Int_Tables_number      14
_space_group_name_Hall           '-P 2yn'
loop_
_symmetry_equiv_pos_site_id
_symmetry_equiv_pos_as_xyz
1 x,y,z
2 1/2-x,1/2+y,1/2-z
3 -x,-y,-z
4 1/2+x,1/2-y,1/2+z
_cell_length_a                   11.185(6)
_cell_length_b                   11.709(6)
_cell_length_c                   13.401(7)
_cell_angle_alpha                90
_cell_angle_beta                 90.296(7)
_cell_angle_gamma                90
_cell_volume                     1755.04
_exptl_crystal_colour            colorless
_exptl_crystal_description       block
_chemical_melting_point          '179-180 deg.C'
_cell_formula_units_Z            4
loop_
_atom_site_label
_atom_site_type_symbol
_atom_site_fract_x
_atom_site_fract_y
_atom_site_fract_z
Br1 Br 0.25774(5) 0.31886(4) 0.24252(3)
O1 O -0.1745(2) 0.2304(2) 0.0391(2)
N1 N -0.0458(3) 0.3014(2) -0.0715(2)
O2 O 0.1265(2) -0.0143(2) -0.08024(18)
C1 C 0.2211(4) 0.2133(3) 0.1393(3)
C2 C 0.1080(3) 0.1669(3) -0.0066(3)
C3 C 0.0210(3) 0.1950(3) -0.0895(3)
H1 H -0.0344 0.1313 -0.1001
C4 C 0.1595(3) 0.0590(3) -0.0069(3)
C5 C 0.1395(3) 0.2437(3) 0.0675(3)
H2 H 0.1052 0.3160 0.0686
N2 N -0.0070(3) 0.3917(3) -0.1324(2)
C6 C -0.1398(3) 0.3121(3) -0.0112(3)
C7 C 0.0851(4) 0.2248(4) -0.1873(3)
H3 H 0.1695 0.2063 -0.1835
H4 H 0.0495 0.1849 -0.2435
C8 C -0.3273(4) 0.4215(4) 0.0322(3)
H5 H -0.3292 0.3767 0.0931
H6 H -0.3540 0.4981 0.0483
C9 C 0.2426(3) 0.0298(3) 0.0662(3)
H7 H 0.2777 -0.0422 0.0654
C10 C 0.0661(4) 0.3499(4) -0.1952(3)
C11 C 0.2731(4) 0.1061(3) 0.1395(3)
H8 H 0.3281 0.0861 0.1888
C12 C -0.4127(4) 0.3699(4) -0.0420(3)
C13 C -0.4281(4) 0.4182(4) -0.1351(3)
H9 H -0.3858 0.4840 -0.1511
C14 C -0.1987(4) 0.4272(3) -0.0050(4)
H10 H -0.1982 0.4622 -0.0706
H11 H -0.1524 0.4755 0.0395
C15 C -0.4782(5) 0.2747(4) -0.0216(4)
H12 H -0.4707 0.2402 0.0406
C16 C -0.5044(5) 0.3717(5) -0.2047(4)
H13 H -0.5128 0.4060 -0.2670
C17 C -0.5547(5) 0.2287(5) -0.0905(5)
H14 H -0.5990 0.1641 -0.0743
C18 C 0.1267(5) 0.4254(4) -0.2695(4)
H15 H 0.1005 0.5028 -0.2604
H16 H 0.1067 0.4006 -0.3358
H17 H 0.2117 0.4213 -0.2600
C19 C -0.5669(5) 0.2771(5) -0.1834(5)
H18 H -0.6176 0.2447 -0.2308
loop_
_geom_bond_atom_site_label_1
_geom_bond_atom_site_label_2
_geom_bond_site_symmetry_1
_geom_bond_site_symmetry_2
Br1 C1 1_555 1_555
O1 C6 1_555 1_555
N1 C3 1_555 1_555
O2 C4 1_555 1_555
C1 C5 1_555 1_555
C2 C3 1_555 1_555
C3 H1 1_555 1_555
C4 C2 1_555 1_555
C5 C2 1_555 1_555
H2 C5 1_555 1_555
N2 N1 1_555 1_555
C6 N1 1_555 1_555
C7 C3 1_555 1_555
H3 C7 1_555 1_555
H4 C7 1_555 1_555
C8 H5 1_555 1_555
H6 C8 1_555 1_555
C9 C4 1_555 1_555
H7 C9 1_555 1_555
C10 N2 1_555 1_555
C11 C1 1_555 1_555
H8 C11 1_555 1_555
C12 C8 1_555 1_555
C13 C12 1_555 1_555
H9 C13 1_555 1_555
C14 C6 1_555 1_555
H10 C14 1_555 1_555
H11 C14 1_555 1_555
C15 C12 1_555 1_555
H12 C15 1_555 1_555
C16 C13 1_555 1_555
H13 C16 1_555 1_555
C17 C15 1_555 1_555
H14 C17 1_555 1_555
C18 C10 1_555 1_555
H15 C18 1_555 1_555
H16 C18 1_555 1_555
H17 C18 1_555 1_555
C19 C16 1_555 1_555
H18 C19 1_555 1_555
C7 C10 1_555 1_555
C8 C14 1_555 1_555
C9 C11 1_555 1_555
C17 C19 1_555 1_555

#END
