
#######################################################################
#
#                 Cambridge Crystallographic Data Centre
#                                CCDC 
#
#######################################################################
#
# If this CIF has been generated from an entry in the Cambridge 
# Structural Database, then it will include bibliographic, chemical, 
# crystal, experimental, refinement or atomic coordinate data resulting 
# from the CCDC's data processing and validation procedures.
#
#######################################################################

data_TABXAY
_chemical_formula_moiety         'C19 H21 N3 O3'
_chemical_name_systematic        
1-(5-(2-hydroxyphenyl)-3-methyl-4,5-dihydro-1H-pyrazol-1-yl)-2-((4-methoxyphenyl)amino)ethanone
_chemical_properties_biological  'antiproliferative activity'
_symmetry_cell_setting           monoclinic
_symmetry_space_group_name_H-M   'P 21/n'
_symmetry_Int_Tables_number      14
_space_group_name_Hall           '-P 2yn'
loop_
_symmetry_equiv_pos_site_id
_symmetry_equiv_pos_as_xyz
1 x,y,z
2 1/2-x,1/2+y,1/2-z
3 -x,-y,-z
4 1/2+x,1/2-y,1/2+z
_cell_length_a                   10.743(17)
_cell_length_b                   9.807(15)
_cell_length_c                   16.85(3)
_cell_angle_alpha                90
_cell_angle_beta                 102.552(14)
_cell_angle_gamma                90
_cell_volume                     1732.83
_exptl_crystal_colour            colorless
_exptl_crystal_description       block
_chemical_melting_point          '225-226 deg.C'
_cell_formula_units_Z            4
loop_
_atom_site_label
_atom_site_type_symbol
_atom_site_fract_x
_atom_site_fract_y
_atom_site_fract_z
N1 N 0.0487(3) 0.7982(4) 0.19773(17)
O1 O -0.0312(3) 0.8434(2) -0.05178(13)
H1 H -0.0475 0.8846 -0.0951
O2 O 0.0712(2) 1.0256(3) 0.19527(14)
O3 O 0.2473(3) 1.1970(3) 0.68058(14)
N2 N 0.0555(3) 0.6767(4) 0.24180(18)
C1 C -0.1103(4) 0.8228(4) 0.0661(2)
C2 C -0.1330(4) 0.8518(4) -0.0154(2)
C3 C 0.0211(3) 0.7771(4) 0.1085(2)
H2 H 0.0858 0.8226 0.0849
C4 C 0.1454(3) 1.0911(4) 0.4355(2)
C5 C 0.1936(4) 1.0352(4) 0.5775(2)
H3 H 0.2020 0.9694 0.6180
C6 C 0.0926(3) 0.9196(4) 0.32539(19)
H4 H 0.0193 0.8808 0.3421
H5 H 0.1668 0.8650 0.3485
N3 N 0.1118(3) 1.0571(3) 0.35359(18)
H6 H 0.1021 1.1216 0.3183
C7 C 0.0710(3) 0.9193(5) 0.2344(2)
C8 C 0.2150(3) 1.1691(4) 0.5985(2)
C9 C -0.2539(5) 0.8847(4) -0.0588(2)
H7 H -0.2680 0.9052 -0.1139
C10 C 0.0370(3) 0.6207(4) 0.1057(2)
H8 H -0.0368 0.5788 0.0708
H9 H 0.1126 0.5966 0.0862
C11 C -0.3518(4) 0.8866(4) -0.0194(3)
H10 H -0.4337 0.9066 -0.0484
C12 C 0.1598(3) 0.9962(4) 0.4975(2)
H11 H 0.1463 0.9044 0.4848
C13 C 0.2028(3) 1.2649(4) 0.5384(2)
H12 H 0.2179 1.3562 0.5519
C14 C 0.1682(3) 1.2265(4) 0.4578(2)
H13 H 0.1601 1.2929 0.4175
C15 C -0.2104(4) 0.8282(4) 0.1053(2)
H14 H -0.1958 0.8107 0.1607
C16 C -0.3319(4) 0.8593(4) 0.0629(3)
H15 H -0.3995 0.8619 0.0893
C17 C 0.0492(4) 0.5778(5) 0.1920(3)
C18 C 0.0552(4) 0.4340(4) 0.2195(2)
H16 H 0.0636 0.4311 0.2773
H17 H 0.1273 0.3900 0.2055
H18 H -0.0215 0.3876 0.1934
C19 C 0.2739(4) 1.3350(4) 0.7036(2)
H19 H 0.2949 1.3417 0.7618
H20 H 0.2003 1.3900 0.6824
H21 H 0.3446 1.3666 0.6822
loop_
_geom_bond_atom_site_label_1
_geom_bond_atom_site_label_2
_geom_bond_site_symmetry_1
_geom_bond_site_symmetry_2
N1 N2 1_555 1_555
O1 H1 1_555 1_555
O2 C7 1_555 1_555
O3 C8 1_555 1_555
N2 C17 1_555 1_555
C1 C2 1_555 1_555
C2 O1 1_555 1_555
C3 N1 1_555 1_555
H2 C3 1_555 1_555
C4 N3 1_555 1_555
C5 H3 1_555 1_555
C6 H4 1_555 1_555
H5 C6 1_555 1_555
N3 C6 1_555 1_555
H6 N3 1_555 1_555
C7 N1 1_555 1_555
C8 C5 1_555 1_555
C9 C2 1_555 1_555
H7 C9 1_555 1_555
C10 C3 1_555 1_555
H8 C10 1_555 1_555
H9 C10 1_555 1_555
C11 C9 1_555 1_555
H10 C11 1_555 1_555
C12 C4 1_555 1_555
H11 C12 1_555 1_555
C13 C8 1_555 1_555
H12 C13 1_555 1_555
C14 C4 1_555 1_555
H13 C14 1_555 1_555
C15 C1 1_555 1_555
H14 C15 1_555 1_555
C16 C11 1_555 1_555
H15 C16 1_555 1_555
C17 C10 1_555 1_555
C18 C17 1_555 1_555
H16 C18 1_555 1_555
H17 C18 1_555 1_555
H18 C18 1_555 1_555
C19 O3 1_555 1_555
H19 C19 1_555 1_555
H20 C19 1_555 1_555
H21 C19 1_555 1_555
C1 C3 1_555 1_555
C5 C12 1_555 1_555
C6 C7 1_555 1_555
C13 C14 1_555 1_555
C15 C16 1_555 1_555

#END
