
#######################################################################
#
#                 Cambridge Crystallographic Data Centre
#                                CCDC 
#
#######################################################################
#
# If this CIF has been generated from an entry in the Cambridge 
# Structural Database, then it will include bibliographic, chemical, 
# crystal, experimental, refinement or atomic coordinate data resulting 
# from the CCDC's data processing and validation procedures.
#
#######################################################################

data_TADREW01
_chemical_formula_moiety         'C16 H14 O4'
_chemical_name_systematic        1,2-bis(2-Formylphenoxy)ethane
_symmetry_cell_setting           triclinic
_symmetry_space_group_name_H-M   'P -1'
_symmetry_Int_Tables_number      2
_space_group_name_Hall           '-P 1'
loop_
_symmetry_equiv_pos_site_id
_symmetry_equiv_pos_as_xyz
1 x,y,z
2 -x,-y,-z
_cell_length_a                   7.80(2)
_cell_length_b                   8.46(2)
_cell_length_c                   11.5(2)
_cell_angle_alpha                82.88(3)
_cell_angle_beta                 74.95(3)
_cell_angle_gamma                67.07(3)
_cell_volume                     674.704
_cell_formula_units_Z            2
loop_
_atom_site_label
_atom_site_type_symbol
_atom_site_fract_x
_atom_site_fract_y
_atom_site_fract_z
O1 O 0.2145(3) 0.5864(2) 1.1191(2)
O2 O 0.4017(2) 0.8689(2) 0.8560(1)
O3 O 0.4717(2) 0.8203(2) 0.5975(1)
O4 O 0.0785(2) 0.7889(2) 0.4539(2)
C1 C 0.2651(3) 0.6782(3) 1.0411(2)
C2 C 0.2198(3) 0.8614(3) 1.0529(2)
C3 C 0.1031(3) 0.9440(3) 1.1562(2)
C4 C 0.0612(3) 1.1149(3) 1.1710(2)
C5 C 0.1377(3) 1.2055(3) 1.0790(2)
C6 C 0.2526(3) 1.1282(3) 0.9727(2)
C7 C 0.2930(3) 0.9561(2) 0.9582(2)
C8 C 0.4851(3) 0.9590(3) 0.7593(2)
C9 C 0.6006(3) 0.8389(3) 0.6586(2)
C10 C 0.5440(3) 0.7308(2) 0.4937(2)
C11 C 0.7374(3) 0.6564(3) 0.4408(2)
C12 C 0.7951(3) 0.5689(3) 0.3357(2)
C13 C 0.6640(4) 0.5505(3) 0.2832(2)
C14 C 0.4723(3) 0.6248(3) 0.3343(2)
C15 C 0.4091(3) 0.7171(2) 0.4393(2)
C16 C 0.2037(3) 0.8010(3) 0.4910(2)
loop_
_geom_bond_atom_site_label_1
_geom_bond_atom_site_label_2
_geom_bond_site_symmetry_1
_geom_bond_site_symmetry_2
O1 C1 1_555 1_555
O2 C7 1_555 1_555
O3 C9 1_555 1_555
O4 C16 1_555 1_555
C1 C2 1_555 1_555
C2 C3 1_555 1_555
C3 C4 1_555 1_555
C4 C5 1_555 1_555
C5 C6 1_555 1_555
C6 C7 1_555 1_555
C7 C2 1_555 1_555
C8 O2 1_555 1_555
C9 C8 1_555 1_555
C10 O3 1_555 1_555
C11 C10 1_555 1_555
C12 C11 1_555 1_555
C13 C12 1_555 1_555
C14 C13 1_555 1_555
C15 C10 1_555 1_555
C16 C15 1_555 1_555
C14 C15 1_555 1_555

#END
