
#######################################################################
#
#                 Cambridge Crystallographic Data Centre
#                                CCDC 
#
#######################################################################
#
# If this CIF has been generated from an entry in the Cambridge 
# Structural Database, then it will include bibliographic, chemical, 
# crystal, experimental, refinement or atomic coordinate data resulting 
# from the CCDC's data processing and validation procedures.
#
#######################################################################

data_TADVIE
_chemical_formula_moiety         'C12 Cl10 S2'
_chemical_name_systematic        'bis(Pentachlorophenyl) disulfide'
_symmetry_cell_setting           monoclinic
_symmetry_space_group_name_H-M   'C 2/c'
_symmetry_Int_Tables_number      15
_space_group_name_Hall           '-C 2yn'
loop_
_symmetry_equiv_pos_site_id
_symmetry_equiv_pos_as_xyz
1 x,y,z
2 x,-y,1/2+z
3 1/2+x,1/2+y,z
4 1/2+x,1/2-y,1/2+z
5 -x,-y,-z
6 -x,y,1/2-z
7 1/2-x,1/2-y,-z
8 1/2-x,1/2+y,1/2-z
_cell_length_a                   15.188(4)
_cell_length_b                   8.685(3)
_cell_length_c                   14.645(3)
_cell_angle_alpha                90
_cell_angle_beta                 111.120(10)
_cell_angle_gamma                90
_cell_volume                     1802.03
_exptl_crystal_colour            yellow
_exptl_crystal_description       block
_cell_formula_units_Z            4
_exptl_crystal_recrystallization_method toluene
loop_
_atom_site_label
_atom_site_type_symbol
_atom_site_fract_x
_atom_site_fract_y
_atom_site_fract_z
Cl1 Cl 0.53200(10) 0.86840(10) 0.12690(10)
Cl2 Cl 0.39230(10) 1.13760(10) 0.10120(10)
Cl3 Cl 0.18790(10) 1.07370(10) 0.08950(10)
Cl4 Cl 0.12720(10) 0.74270(10) 0.12030(10)
Cl5 Cl 0.26860(10) 0.47360(10) 0.15540(10)
S1 S 0.47980(10) 0.53190(10) 0.17480(10)
C1 C 0.3955(2) 0.6824(3) 0.1443(2)
C2 C 0.4210(2) 0.8316(3) 0.1283(2)
C3 C 0.3582(2) 0.9531(3) 0.1128(2)
C4 C 0.2668(2) 0.9252(3) 0.1107(2)
C5 C 0.2397(2) 0.7770(3) 0.1239(2)
C6 C 0.3033(2) 0.6567(3) 0.1404(2)
S1E S 0.52020(10) 0.53190(10) 0.32520(10)
C1E C 0.6045(2) 0.6824(3) 0.3557(2)
C2E C 0.5790(2) 0.8316(3) 0.3717(2)
Cl1E Cl 0.46800(10) 0.86840(10) 0.37310(10)
C3E C 0.6418(2) 0.9531(3) 0.3872(2)
Cl2E Cl 0.60770(10) 1.13760(10) 0.39880(10)
C4E C 0.7332(2) 0.9252(3) 0.3893(2)
Cl3E Cl 0.81210(10) 1.07370(10) 0.41050(10)
C5E C 0.7603(2) 0.7770(3) 0.3761(2)
Cl4E Cl 0.87280(10) 0.74270(10) 0.37970(10)
C6E C 0.6967(2) 0.6567(3) 0.3596(2)
Cl5E Cl 0.73140(10) 0.47360(10) 0.34460(10)
loop_
_geom_bond_atom_site_label_1
_geom_bond_atom_site_label_2
_geom_bond_site_symmetry_1
_geom_bond_site_symmetry_2
Cl1 C2 1_555 1_555
Cl2 C3 1_555 1_555
Cl3 C4 1_555 1_555
Cl4 C5 1_555 1_555
Cl5 C6 1_555 1_555
S1 C1 1_555 1_555
C1 C2 1_555 1_555
C2 C3 1_555 1_555
C3 C4 1_555 1_555
C4 C5 1_555 1_555
C5 C6 1_555 1_555
C6 C1 1_555 1_555
S1E S1 1_555 1_555
C1E S1E 1_555 1_555
C2E C1E 1_555 1_555
Cl1E C2E 1_555 1_555
C3E C2E 1_555 1_555
Cl2E C3E 1_555 1_555
C4E C3E 1_555 1_555
Cl3E C4E 1_555 1_555
C5E C4E 1_555 1_555
Cl4E C5E 1_555 1_555
C6E C1E 1_555 1_555
Cl5E C6E 1_555 1_555
C5E C6E 1_555 1_555

#END
