
#######################################################################
#
#                 Cambridge Crystallographic Data Centre
#                                CCDC 
#
#######################################################################
#
# If this CIF has been generated from an entry in the Cambridge 
# Structural Database, then it will include bibliographic, chemical, 
# crystal, experimental, refinement or atomic coordinate data resulting 
# from the CCDC's data processing and validation procedures.
#
#######################################################################

data_TAFBUZ
_chemical_formula_moiety         'C18 H10 Cl2 O2,C6 H16 N1 1+,C2 H3 O2 1-'
_chemical_name_systematic        
'1,5-Dichloro-trans-9,10-diethynyl-9,10-dihydroxy-9,10-dihydroanthracene triethylammonium acetate'
_symmetry_cell_setting           monoclinic
_symmetry_space_group_name_H-M   'P 21/n'
_symmetry_Int_Tables_number      14
_space_group_name_Hall           '-P 2yn'
loop_
_symmetry_equiv_pos_site_id
_symmetry_equiv_pos_as_xyz
1 x,y,z
2 1/2-x,1/2+y,1/2-z
3 -x,-y,-z
4 1/2+x,1/2-y,1/2+z
_cell_length_a                   14.6450(5)
_cell_length_b                   11.5719(4)
_cell_length_c                   15.0033(5)
_cell_angle_alpha                90
_cell_angle_beta                 102.8960(10)
_cell_angle_gamma                90
_cell_volume                     2478.48
_exptl_crystal_colour            colorless
_exptl_crystal_description       plate
_cell_formula_units_Z            4
loop_
_atom_site_label
_atom_site_type_symbol
_atom_site_fract_x
_atom_site_fract_y
_atom_site_fract_z
Cl1 Cl 0.64202(3) 0.13026(4) 1.24507(3)
O1 O 0.47139(8) 0.18766(9) 1.09113(8)
H1 H 0.4798(16) 0.212(2) 1.0453(16)
C1 C 0.65614(12) 0.06095(13) 1.14591(10)
C3 C 0.74642(12) 0.03309(14) 1.14119(12)
H4 H 0.7952(13) 0.0546(16) 1.1870(13)
C5 C 0.76226(12) -0.02699(15) 1.06621(12)
H6 H 0.8216(14) -0.0514(16) 1.0608(13)
C7 C 0.68778(12) -0.05607(14) 0.99680(12)
H8 H 0.7005(12) -0.0980(16) 0.9436(13)
C9 C 0.47906(11) 0.06550(13) 1.08144(10)
C11 C 0.57825(11) 0.03287(13) 1.07529(10)
C13 C 0.59649(11) -0.02607(13) 1.00053(10)
C15 C 0.45629(11) 0.00905(14) 1.16288(10)
C17 C 0.43504(14) -0.04618(16) 1.22119(12)
H10 H 0.4163(16) -0.089(2) 1.2657(17)
Cl1B Cl 0.35798(3) -0.13026(4) 0.75493(3)
O1B O 0.52861(8) -0.18766(9) 0.90887(8)
H1B H 0.5202(16) -0.212(2) 0.9547(16)
C1B C 0.34386(12) -0.06095(13) 0.85409(10)
C3B C 0.25358(12) -0.03309(14) 0.85881(12)
H4B H 0.2048(13) -0.0546(16) 0.8130(13)
C5B C 0.23774(12) 0.02699(15) 0.93379(12)
H6B H 0.1784(14) 0.0514(16) 0.9392(13)
C7B C 0.31222(12) 0.05607(14) 1.00320(12)
H8B H 0.2995(12) 0.0980(16) 1.0564(13)
C9B C 0.52094(11) -0.06550(13) 0.91856(10)
C11B C 0.42175(11) -0.03287(13) 0.92471(10)
C13B C 0.40351(11) 0.02607(13) 0.99947(10)
C15B C 0.54371(11) -0.00905(14) 0.83712(10)
C17B C 0.56496(14) 0.04618(16) 0.77881(12)
H10B H 0.5837(16) 0.089(2) 0.7343(17)
Cl2 Cl 0.51001(4) 0.15019(4) 0.54537(3)
O2 O 0.45020(8) 0.36902(10) 0.62360(8)
H2 H 0.4667(16) 0.3615(19) 0.6791(17)
C2 C 0.49433(12) 0.25619(14) 0.46075(11)
C4 C 0.47800(13) 0.21679(16) 0.37214(12)
H5 H 0.4815(16) 0.1364(19) 0.3637(15)
C6 C 0.46267(13) 0.29448(16) 0.30040(12)
H7 H 0.4498(16) 0.2699(19) 0.2416(16)
C8 C 0.46240(13) 0.41145(15) 0.31874(11)
H9 H 0.4512(14) 0.4687(18) 0.2704(15)
C10 C 0.51980(11) 0.41563(14) 0.58101(10)
C12 C 0.49706(11) 0.37539(13) 0.48201(10)
C14 C 0.47967(11) 0.45206(13) 0.40888(10)
C16 C 0.61485(12) 0.37424(14) 0.62683(11)
C18 C 0.69030(15) 0.34398(18) 0.66616(13)
H11 H 0.7527(18) 0.320(2) 0.6994(17)
Cl2B Cl 0.48999(4) 0.84981(4) 0.45463(3)
O2B O 0.54980(8) 0.63098(10) 0.37640(8)
H2B H 0.5333(16) 0.6385(19) 0.3209(17)
C2B C 0.50567(12) 0.74381(14) 0.53925(11)
C4B C 0.52200(13) 0.78321(16) 0.62786(12)
H5B H 0.5185(16) 0.8636(19) 0.6363(15)
C6B C 0.53733(13) 0.70552(16) 0.69960(12)
H7B H 0.5502(16) 0.7301(19) 0.7584(16)
C8B C 0.53760(13) 0.58855(15) 0.68126(11)
H9B H 0.5488(14) 0.5313(18) 0.7296(15)
C10B C 0.48020(11) 0.58437(14) 0.41899(10)
C12B C 0.50294(11) 0.62461(13) 0.51799(10)
C14B C 0.52033(11) 0.54794(13) 0.59112(10)
C16B C 0.38515(12) 0.62576(14) 0.37317(11)
C18B C 0.30970(15) 0.65602(18) 0.33384(13)
H11B H 0.2473(18) 0.680(2) 0.3006(17)
N1 N 0.67583(12) 0.40249(13) 0.98181(10)
H3 H 0.6266(14) 0.3672(17) 0.9693(14)
C19 C 0.6509(2) 0.4125(2) 1.14096(15)
H12 H 0.6364(19) 0.499(3) 1.1382(17)
H13 H 0.593(2) 0.378(2) 1.1226(19)
H14 H 0.6769(19) 0.384(2) 1.2030(19)
C20 C 0.71568(16) 0.37842(18) 1.08086(13)
H15 H 0.7789(17) 0.418(2) 1.0986(16)
H16 H 0.7289(16) 0.295(2) 1.0849(16)
C21 C 0.64932(14) 0.52719(16) 0.96202(14)
H17 H 0.6237(16) 0.5290(19) 0.8966(16)
H18 H 0.6009(16) 0.5505(19) 0.9973(16)
C22 C 0.73043(18) 0.61083(19) 0.98659(19)
H19 H 0.7787(18) 0.588(2) 0.9526(16)
H20 H 0.7609(19) 0.608(2) 1.056(2)
H21 H 0.7017(17) 0.686(2) 0.9674(16)
C23 C 0.73657(15) 0.35885(16) 0.92106(14)
H22 H 0.7066(14) 0.3845(18) 0.8604(15)
H23 H 0.7973(15) 0.4009(18) 0.9366(13)
C24 C 0.74608(17) 0.22860(18) 0.92433(17)
H24 H 0.7728(16) 0.2080(19) 0.8771(17)
H25 H 0.7824(16) 0.2045(19) 0.9844(16)
H26 H 0.6840(16) 0.1948(18) 0.9149(14)
O3 O 0.51734(9) 0.35241(11) 0.80491(8)
O4 O 0.50835(8) 0.29338(10) 0.94276(7)
C25 C 0.38461(14) 0.24003(18) 0.81699(14)
H27 H 0.383(3) 0.153(4) 0.823(4)
H28 H 0.341(3) 0.259(4) 0.859(3)
H29 H 0.363(3) 0.251(4) 0.749(3)
C26 C 0.47609(12) 0.29929(14) 0.85682(11)
H30? H 0.397(3) 0.187(5) 0.775(4)
H31? H 0.339(3) 0.288(4) 0.790(4)
H32? H 0.361(3) 0.191(5) 0.859(3)
loop_
_geom_bond_atom_site_label_1
_geom_bond_atom_site_label_2
_geom_bond_site_symmetry_1
_geom_bond_site_symmetry_2
Cl1 C1 1_555 1_555
Cl2 C2 1_555 1_555
O1 H1 1_555 1_555
O2 H2 1_555 1_555
C1 C3 1_555 1_555
N1 H3 1_555 1_555
C2 C4 1_555 1_555
O3 C26 1_555 1_555
C3 H4 1_555 1_555
C4 H5 1_555 1_555
O4 C26 1_555 1_555
C5 C3 1_555 1_555
H6 C5 1_555 1_555
C6 C4 1_555 1_555
H7 C6 1_555 1_555
C7 C5 1_555 1_555
H8 C7 1_555 1_555
C8 C6 1_555 1_555
H9 C8 1_555 1_555
C9 O1 1_555 1_555
C10 O2 1_555 1_555
C11 C1 1_555 1_555
C12 C2 1_555 1_555
C13 C7 1_555 1_555
C14 C8 1_555 1_555
C15 C9 1_555 1_555
C16 C10 1_555 1_555
C17 C15 1_555 1_555
H10 C17 1_555 1_555
C18 C16 1_555 1_555
H11 C18 1_555 1_555
C19 H12 1_555 1_555
H13 C19 1_555 1_555
H14 C19 1_555 1_555
C20 N1 1_555 1_555
H15 C20 1_555 1_555
H16 C20 1_555 1_555
C21 N1 1_555 1_555
H17 C21 1_555 1_555
H18 C21 1_555 1_555
C22 C21 1_555 1_555
H19 C22 1_555 1_555
H20 C22 1_555 1_555
H21 C22 1_555 1_555
C23 N1 1_555 1_555
H22 C23 1_555 1_555
H23 C23 1_555 1_555
C24 C23 1_555 1_555
H24 C24 1_555 1_555
H25 C24 1_555 1_555
H26 C24 1_555 1_555
C25 H27 1_555 1_555
H28 C25 1_555 1_555
H29 C25 1_555 1_555
C26 C25 1_555 1_555
Cl1B C1B 1_555 1_555
Cl2B C2B 1_555 1_555
O1B H1B 1_555 1_555
O2B H2B 1_555 1_555
C1B C3B 1_555 1_555
C2B C4B 1_555 1_555
C3B H4B 1_555 1_555
C4B H5B 1_555 1_555
C5B C3B 1_555 1_555
H6B C5B 1_555 1_555
C6B C4B 1_555 1_555
H7B C6B 1_555 1_555
C7B C5B 1_555 1_555
H8B C7B 1_555 1_555
C8B C6B 1_555 1_555
H9B C8B 1_555 1_555
C9B C13 1_555 1_555
C10B C14 1_555 1_555
C11B C1B 1_555 1_555
C12B C2B 1_555 1_555
C13B C9 1_555 1_555
C14B C10 1_555 1_555
C15B C9B 1_555 1_555
C16B C10B 1_555 1_555
C17B C15B 1_555 1_555
H10B C17B 1_555 1_555
C18B C16B 1_555 1_555
H11B C18B 1_555 1_555
C9 C11 1_555 1_555
C10 C12 1_555 1_555
C11 C13 1_555 1_555
C12 C14 1_555 1_555
C19 C20 1_555 1_555
O1B C9B 1_555 1_555
O2B C10B 1_555 1_555
C7B C13B 1_555 1_555
C8B C14B 1_555 1_555
C9B C11B 1_555 1_555
C10B C12B 1_555 1_555
C11B C13B 1_555 1_555
C12B C14B 1_555 1_555

#END
