
#######################################################################
#
#                 Cambridge Crystallographic Data Centre
#                                CCDC 
#
#######################################################################
#
# If this CIF has been generated from an entry in the Cambridge 
# Structural Database, then it will include bibliographic, chemical, 
# crystal, experimental, refinement or atomic coordinate data resulting 
# from the CCDC's data processing and validation procedures.
#
#######################################################################

data_TAFHAM
_chemical_formula_moiety         'C22 H13 Cl1 N2 O2,0.5(C4 H8 O2)'
_chemical_name_systematic        
'7-chloro-10-(quinolin-8-yl)dibenzo[b,f][1,4]oxazepin-11(10H)-one 1,4-dioxane solvate'
_symmetry_cell_setting           monoclinic
_symmetry_space_group_name_H-M   'P 21/c'
_symmetry_Int_Tables_number      14
_space_group_name_Hall           '-P 2ybc'
loop_
_symmetry_equiv_pos_site_id
_symmetry_equiv_pos_as_xyz
1 x,y,z
2 -x,1/2+y,1/2-z
3 -x,-y,-z
4 x,1/2-y,1/2+z
_cell_length_a                   14.8316(3)
_cell_length_b                   16.4395(3)
_cell_length_c                   7.8011(2)
_cell_angle_alpha                90
_cell_angle_beta                 93.2770(10)
_cell_angle_gamma                90
_cell_volume                     1898.99
_exptl_crystal_description       block
_cell_formula_units_Z            4
loop_
_atom_site_label
_atom_site_type_symbol
_atom_site_fract_x
_atom_site_fract_y
_atom_site_fract_z
O1 O 0.27349(8) 0.47343(7) 0.33788(14)
Cl1 Cl 0.09632(3) 0.63432(3) 1.23471(5)
N1 N 0.29140(8) 0.35875(8) 0.67726(17)
C1 C 0.33689(11) 0.72498(10) 0.6115(2)
H1 H 0.3140 0.7717 0.6603
O2 O 0.19281(7) 0.66249(6) 0.62389(13)
C2 C 0.20921(9) 0.34251(9) 0.59544(18)
N2 N 0.18941(8) 0.49033(7) 0.56721(15)
C3 C 0.28301(10) 0.65727(9) 0.58337(18)
C4 C 0.31021(11) 0.21495(10) 0.7238(2)
H2 H 0.3466 0.1732 0.7690
C5 C 0.33831(10) 0.29629(10) 0.7377(2)
H3 H 0.3941 0.3067 0.7938
C6 C 0.15534(10) 0.40903(9) 0.53481(18)
C7 C 0.25819(10) 0.51365(9) 0.46469(19)
C8 C 0.31469(10) 0.58669(9) 0.50996(19)
C9 C 0.42570(12) 0.72197(12) 0.5657(2)
H4 H 0.4627 0.7673 0.5828
C10 C 0.22856(10) 0.19830(9) 0.64258(19)
H5 H 0.2086 0.1448 0.6318
C11 C 0.17445(10) 0.26262(9) 0.57488(18)
C12 C 0.17230(9) 0.60941(9) 0.75492(18)
C13 C 0.16975(9) 0.52576(9) 0.72770(18)
C14 C 0.14282(10) 0.47702(10) 0.8618(2)
H6 H 0.1400 0.4209 0.8467
C15 C 0.12021(11) 0.50991(10) 1.0167(2)
H7 H 0.1023 0.4764 1.1044
C16 C 0.12460(10) 0.59333(10) 1.03971(19)
C17 C 0.15049(10) 0.64360(9) 0.90986(18)
H8 H 0.1533 0.6996 0.9259
C18 C 0.45980(12) 0.65196(13) 0.4946(2)
H9 H 0.5199 0.6499 0.4666
C19 C 0.40443(11) 0.58507(11) 0.4651(2)
H10 H 0.4272 0.5386 0.4150
C20 C 0.07233(10) 0.39645(9) 0.45480(19)
H11 H 0.0380 0.4405 0.4147
C21 C 0.03841(10) 0.31643(10) 0.4327(2)
H12 H -0.0180 0.3081 0.3772
C22 C 0.08791(10) 0.25159(9) 0.49237(19)
H13 H 0.0645 0.1994 0.4787
O3 O 0.50996(8) 0.57760(8) 1.07562(18)
C23 C 0.58304(13) 0.53706(13) 1.0005(3)
H14 H 0.6394 0.5526 1.0609
H15 H 0.5856 0.5540 0.8818
C24 C 0.42699(13) 0.55208(12) 0.9926(3)
H16 H 0.4246 0.5696 0.8737
H17 H 0.3772 0.5775 1.0478
O3B O 0.49004(8) 0.42240(8) 0.92438(18)
C23B C 0.41696(13) 0.46294(13) 0.9995(3)
H14B H 0.3606 0.4474 0.9391
H15B H 0.4144 0.4460 1.1182
C24B C 0.57301(13) 0.44792(12) 1.0074(3)
H16B H 0.5754 0.4304 1.1263
H17B H 0.6228 0.4225 0.9522
loop_
_geom_bond_atom_site_label_1
_geom_bond_atom_site_label_2
_geom_bond_site_symmetry_1
_geom_bond_site_symmetry_2
O1 C7 1_555 1_555
Cl1 C16 1_555 1_555
N1 C2 1_555 1_555
C1 H1 1_555 1_555
O2 C3 1_555 1_555
C2 C6 1_555 1_555
N2 C6 1_555 1_555
C3 C1 1_555 1_555
C4 H2 1_555 1_555
C5 N1 1_555 1_555
H3 C5 1_555 1_555
C6 C20 1_555 1_555
C7 N2 1_555 1_555
C8 C3 1_555 1_555
C9 C1 1_555 1_555
H4 C9 1_555 1_555
C10 C4 1_555 1_555
H5 C10 1_555 1_555
C11 C2 1_555 1_555
C12 O2 1_555 1_555
C13 N2 1_555 1_555
C14 C13 1_555 1_555
H6 C14 1_555 1_555
C15 C14 1_555 1_555
H7 C15 1_555 1_555
C16 C15 1_555 1_555
C17 C12 1_555 1_555
H8 C17 1_555 1_555
C18 C9 1_555 1_555
H9 C18 1_555 1_555
C19 C8 1_555 1_555
H10 C19 1_555 1_555
C20 H11 1_555 1_555
C21 C20 1_555 1_555
H12 C21 1_555 1_555
C22 C11 1_555 1_555
H13 C22 1_555 1_555
O3 C23 1_555 1_555
C23 H14 1_555 1_555
H15 C23 1_555 1_555
C24 O3 1_555 1_555
H16 C24 1_555 1_555
H17 C24 1_555 1_555
O3B C23B 1_555 1_555
C23B C24 1_555 1_555
H14B C23B 1_555 1_555
H15B C23B 1_555 1_555
C24B C23 1_555 1_555
H16B C24B 1_555 1_555
H17B C24B 1_555 1_555
C4 C5 1_555 1_555
C7 C8 1_555 1_555
C10 C11 1_555 1_555
C12 C13 1_555 1_555
C16 C17 1_555 1_555
C18 C19 1_555 1_555
C21 C22 1_555 1_555
O3B C24B 1_555 1_555

#END
