
#######################################################################
#
#                 Cambridge Crystallographic Data Centre
#                                CCDC 
#
#######################################################################
#
# If this CIF has been generated from an entry in the Cambridge 
# Structural Database, then it will include bibliographic, chemical, 
# crystal, experimental, refinement or atomic coordinate data resulting 
# from the CCDC's data processing and validation procedures.
#
#######################################################################

data_TAGSAV01
_chemical_compound_source        'roots of Euphorbia ebracteolata'
_chemical_formula_moiety         'C15 H26 O2,H2 O1'
_chemical_name_systematic        
'(1aR,2R,4aS,5S,7aS,7bR)-decahydro-1a,4a,7,7-tetramethyl-1H-cycloprop(e)azulene-2,5-diol monohydrate'
_symmetry_cell_setting           monoclinic
_symmetry_space_group_name_H-M   'P 21/c'
_symmetry_Int_Tables_number      14
_space_group_name_Hall           '-P 2ybc'
loop_
_symmetry_equiv_pos_site_id
_symmetry_equiv_pos_as_xyz
1 x,y,z
2 -x,1/2+y,1/2-z
3 -x,-y,-z
4 x,1/2-y,1/2+z
_cell_length_a                   15.3521(10)
_cell_length_b                   6.3107(4)
_cell_length_c                   16.7357(11)
_cell_angle_alpha                90
_cell_angle_beta                 109.8390(10)
_cell_angle_gamma                90
_cell_volume                     1525.17
_exptl_crystal_colour            colorless
_exptl_crystal_description       plate
_chemical_melting_point          '231-232 deg.C'
_cell_formula_units_Z            4
_exptl_crystal_recrystallization_method methanol
loop_
_atom_site_label
_atom_site_type_symbol
_atom_site_fract_x
_atom_site_fract_y
_atom_site_fract_z
O1 O 0.43023(10) 0.7285(3) 0.18154(12)
H1 H 0.4161 0.8329 0.2037
H2 H 0.4898 0.7099 0.2044
O2 O 0.30925(11) 0.0957(2) 0.63046(8)
H3 H 0.3417 -0.0107 0.6379
O3 O 0.37887(8) 0.1052(2) 0.25011(8)
H4 H 0.3544 0.1841 0.2098
C1 C 0.15345(12) 0.1638(4) 0.23889(11)
H5 H 0.1010 0.1024 0.1947
H6 H 0.1644 0.3125 0.2311
C2 C 0.23632(11) 0.0248(3) 0.27936(11)
C3 C 0.33164(11) 0.1233(3) 0.31085(10)
H7 H 0.3252 0.2740 0.3219
C4 C 0.39278(12) 0.0200(4) 0.39268(12)
H8 H 0.4459 0.1106 0.4188
H9 H 0.4156 -0.1136 0.3789
C5 C 0.34385(12) -0.0213(3) 0.45720(11)
H10 H 0.3898 -0.0699 0.5096
H11 H 0.3001 -0.1360 0.4358
C6 C 0.29175(12) 0.1668(3) 0.47834(10)
C7 C 0.24800(13) 0.1012(3) 0.54501(11)
H12 H 0.2198 -0.0391 0.5300
C8 C 0.17198(15) 0.2615(4) 0.53595(12)
H13 H 0.1975 0.3921 0.5652
H14 H 0.1268 0.2064 0.5594
C9 C 0.12720(13) 0.3003(3) 0.44017(11)
C10 C 0.20517(11) 0.2398(3) 0.40231(10)
H15 H 0.2227 0.3709 0.3803
C11 C 0.17415(11) 0.0848(3) 0.32855(10)
H16 H 0.1334 -0.0288 0.3347
C12 C 0.23164(16) -0.2007(4) 0.24786(15)
H17 H 0.2879 -0.2733 0.2789
H18 H 0.2239 -0.2003 0.1885
H19 H 0.1801 -0.2718 0.2562
C13 C 0.35806(15) 0.3537(4) 0.51155(13)
H20 H 0.4110 0.3072 0.5580
H21 H 0.3268 0.4641 0.5307
H22 H 0.3779 0.4069 0.4668
C14 C 0.03952(14) 0.1656(4) 0.40583(15)
H23 H -0.0047 0.2108 0.4313
H24 H 0.0547 0.0194 0.4193
H25 H 0.0136 0.1822 0.3453
C15 C 0.10017(16) 0.5324(4) 0.42119(15)
H26 H 0.0527 0.5684 0.4442
H27 H 0.0775 0.5543 0.3608
H28 H 0.1534 0.6205 0.4466
loop_
_geom_bond_atom_site_label_1
_geom_bond_atom_site_label_2
_geom_bond_site_symmetry_1
_geom_bond_site_symmetry_2
O1 H1 1_555 1_555
H2 O1 1_555 1_555
O2 H3 1_555 1_555
O3 H4 1_555 1_555
C1 H5 1_555 1_555
H6 C1 1_555 1_555
C2 C1 1_555 1_555
C3 O3 1_555 1_555
H7 C3 1_555 1_555
C4 C3 1_555 1_555
H8 C4 1_555 1_555
H9 C4 1_555 1_555
C5 C4 1_555 1_555
H10 C5 1_555 1_555
H11 C5 1_555 1_555
C6 C5 1_555 1_555
C7 O2 1_555 1_555
H12 C7 1_555 1_555
C8 C7 1_555 1_555
H13 C8 1_555 1_555
H14 C8 1_555 1_555
C9 C8 1_555 1_555
C10 C6 1_555 1_555
H15 C10 1_555 1_555
C11 C1 1_555 1_555
H16 C11 1_555 1_555
C12 C2 1_555 1_555
H17 C12 1_555 1_555
H18 C12 1_555 1_555
H19 C12 1_555 1_555
C13 C6 1_555 1_555
H20 C13 1_555 1_555
H21 C13 1_555 1_555
H22 C13 1_555 1_555
C14 C9 1_555 1_555
H23 C14 1_555 1_555
H24 C14 1_555 1_555
H25 C14 1_555 1_555
C15 C9 1_555 1_555
H26 C15 1_555 1_555
H27 C15 1_555 1_555
H28 C15 1_555 1_555
C2 C3 1_555 1_555
C2 C11 1_555 1_555
C6 C7 1_555 1_555
C9 C10 1_555 1_555
C10 C11 1_555 1_555

#END
