
#######################################################################
#
#                 Cambridge Crystallographic Data Centre
#                                CCDC 
#
#######################################################################
#
# If this CIF has been generated from an entry in the Cambridge 
# Structural Database, then it will include bibliographic, chemical, 
# crystal, experimental, refinement or atomic coordinate data resulting 
# from the CCDC's data processing and validation procedures.
#
#######################################################################

data_TAGYAC
_chemical_formula_moiety         'C20 H8 F18 N2 O4'
_chemical_name_systematic        
19,20-Diaza-8,17-bis(1,2,2,2-(tetrafluoromethyl)ethyl)-7,9,16,18-tetrafluoro-2,5,11,14-tetraoxatricyclo(13.3.1.1^6,10^)icosa-1(19),6,8,10(20),15,17-hexaene
_symmetry_cell_setting           monoclinic
_symmetry_space_group_name_H-M   'P 21/c'
_symmetry_Int_Tables_number      14
_space_group_name_Hall           '-P 2ybc'
loop_
_symmetry_equiv_pos_site_id
_symmetry_equiv_pos_as_xyz
1 x,y,z
2 x,1/2-y,1/2+z
3 -x,-y,-z
4 -x,1/2+y,1/2-z
_cell_length_a                   14.2011(5)
_cell_length_b                   8.4725(3)
_cell_length_c                   9.4479(3)
_cell_angle_alpha                90
_cell_angle_beta                 102.114(1)
_cell_angle_gamma                90
_cell_volume                     1111.45
_exptl_crystal_colour            colorless
_exptl_crystal_description       plate
_chemical_melting_point          191-194deg.C
_cell_formula_units_Z            2
_exptl_crystal_recrystallization_method toluene
loop_
_atom_site_label
_atom_site_type_symbol
_atom_site_fract_x
_atom_site_fract_y
_atom_site_fract_z
O1 O 0.51872(9) 0.13881(15) 0.29736(14)
O2 O 0.29223(9) 0.00787(16) -0.11802(13)
N1 N 0.40769(11) 0.06509(17) 0.09001(16)
C1 C 0.42879(12) 0.09422(19) 0.23045(18)
C2 C 0.35994(12) 0.0861(2) 0.31611(18)
C3 C 0.26340(12) 0.05577(19) 0.25212(18)
C4 C 0.24413(12) 0.0264(2) 0.10363(19)
C5 C 0.31743(12) 0.0324(2) 0.02638(19)
C6 C 0.36758(13) 0.0154(2) -0.1991(2)
C7 C 0.58996(12) 0.1479(2) 0.2079(2)
C8 C 0.18606(13) 0.0516(2) 0.34206(19)
C9 C 0.17167(13) -0.1189(2) 0.3917(2)
C10 C 0.08771(13) 0.1305(2) 0.2694(2)
F1 F 0.38989(7) 0.10973(13) 0.45937(11)
F2 F 0.15446(7) -0.00653(14) 0.03138(12)
F3 F 0.21673(8) 0.13771(13) 0.46709(11)
F4 F 0.25331(8) -0.16754(13) 0.47931(12)
F5 F 0.15175(9) -0.21708(13) 0.27968(13)
F6 F 0.10178(9) -0.12737(15) 0.46524(14)
F7 F 0.02822(8) 0.03105(16) 0.18697(13)
F8 F 0.10340(9) 0.25387(14) 0.19011(13)
F9 F 0.04452(8) 0.18250(16) 0.37266(13)
H1 H 0.6386(15) 0.216(2) 0.258(2)
H2 H 0.5601(14) 0.187(2) 0.115(2)
H3 H 0.3348(17) 0.048(3) -0.293(3)
H4 H 0.4180(16) 0.087(3) -0.155(2)
C7B C 0.41004(12) -0.1479(2) -0.2079(2)
O1B O 0.48128(9) -0.13881(15) -0.29736(14)
C1B C 0.57121(12) -0.09422(19) -0.23045(18)
N1B N 0.59231(11) -0.06509(17) -0.09001(16)
C5B C 0.68257(12) -0.0324(2) -0.02638(19)
O2B O 0.70777(9) -0.00787(16) 0.11802(13)
C6B C 0.63242(13) -0.0154(2) 0.1991(2)
H3B H 0.6652(17) -0.048(3) 0.293(3)
H4B H 0.5820(16) -0.087(3) 0.155(2)
C4B C 0.75587(12) -0.0264(2) -0.10363(19)
C3B C 0.73660(12) -0.05577(19) -0.25212(18)
C2B C 0.64006(12) -0.0861(2) -0.31611(18)
F1B F 0.61011(7) -0.10973(13) -0.45937(11)
C8B C 0.81394(13) -0.0516(2) -0.34206(19)
C9B C 0.82833(13) 0.1189(2) -0.3917(2)
F4B F 0.74669(8) 0.16754(13) -0.47931(12)
F5B F 0.84825(9) 0.21708(13) -0.27968(13)
F6B F 0.89822(9) 0.12737(15) -0.46524(14)
C10B C 0.91229(13) -0.1305(2) -0.2694(2)
F7B F 0.97178(8) -0.03105(16) -0.18697(13)
F8B F 0.89660(9) -0.25387(14) -0.19011(13)
F9B F 0.95548(8) -0.18250(16) -0.37266(13)
F3B F 0.78327(8) -0.13771(13) -0.46709(11)
F2B F 0.84554(7) 0.00653(14) -0.03138(12)
H1B H 0.3614(15) -0.216(2) -0.258(2)
H2B H 0.4399(14) -0.187(2) -0.115(2)
loop_
_geom_bond_atom_site_label_1
_geom_bond_atom_site_label_2
_geom_bond_site_symmetry_1
_geom_bond_site_symmetry_2
O1 C1 1_555 1_555
O2 C5 1_555 1_555
N1 C1 1_555 1_555
C1 C2 1_555 1_555
C2 C3 1_555 1_555
C3 C4 1_555 1_555
C4 C5 1_555 1_555
C5 N1 1_555 1_555
C6 O2 1_555 1_555
C7 O1 1_555 1_555
C8 C3 1_555 1_555
C9 C8 1_555 1_555
C10 C8 1_555 1_555
F1 C2 1_555 1_555
F2 C4 1_555 1_555
F3 C8 1_555 1_555
F4 C9 1_555 1_555
F5 C9 1_555 1_555
F6 C9 1_555 1_555
F7 C10 1_555 1_555
F8 C10 1_555 1_555
F9 C10 1_555 1_555
H1 C7 1_555 1_555
H2 C7 1_555 1_555
H3 C6 1_555 1_555
H4 C6 1_555 1_555
C7B C6 1_555 1_555
O1B C7B 1_555 1_555
C1B O1B 1_555 1_555
N1B C1B 1_555 1_555
C5B N1B 1_555 1_555
O2B C5B 1_555 1_555
C6B C7 1_555 1_555
H3B C6B 1_555 1_555
H4B C6B 1_555 1_555
C4B C5B 1_555 1_555
C3B C4B 1_555 1_555
C2B C1B 1_555 1_555
F1B C2B 1_555 1_555
C8B C3B 1_555 1_555
C9B C8B 1_555 1_555
F4B C9B 1_555 1_555
F5B C9B 1_555 1_555
F6B C9B 1_555 1_555
C10B C8B 1_555 1_555
F7B C10B 1_555 1_555
F8B C10B 1_555 1_555
F9B C10B 1_555 1_555
F3B C8B 1_555 1_555
F2B C4B 1_555 1_555
H1B C7B 1_555 1_555
H2B C7B 1_555 1_555
O2B C6B 1_555 1_555
C3B C2B 1_555 1_555

#END
