
#######################################################################
#
#                 Cambridge Crystallographic Data Centre
#                                CCDC 
#
#######################################################################
#
# If this CIF has been generated from an entry in the Cambridge 
# Structural Database, then it will include bibliographic, chemical, 
# crystal, experimental, refinement or atomic coordinate data resulting 
# from the CCDC's data processing and validation procedures.
#
#######################################################################

data_TAHHEP
_chemical_formula_moiety         'C15 H12 Cl2'
_chemical_name_systematic        1,1-Dichloro-cis-2,3-diphenylcyclopropane
_chemical_properties_biological  'antiestrogenic activity'
_symmetry_cell_setting           orthorhombic
_symmetry_space_group_name_H-M   'P b c a'
_symmetry_Int_Tables_number      61
_space_group_name_Hall           '-P 2ac 2ab'
loop_
_symmetry_equiv_pos_site_id
_symmetry_equiv_pos_as_xyz
1 x,y,z
2 1/2-x,1/2+y,z
3 x,1/2-y,1/2+z
4 1/2-x,-y,1/2+z
5 -x,-y,-z
6 1/2+x,1/2-y,-z
7 -x,1/2+y,1/2-z
8 1/2+x,y,1/2-z
_cell_length_a                   19.627(7)
_cell_length_b                   19.460(6)
_cell_length_c                   6.670(2)
_cell_angle_alpha                90
_cell_angle_beta                 90
_cell_angle_gamma                90
_cell_volume                     2547.55
_cell_formula_units_Z            8
loop_
_atom_site_label
_atom_site_type_symbol
_atom_site_fract_x
_atom_site_fract_y
_atom_site_fract_z
Cl1 Cl 0.34583(2) 0.16503(2) 0.61048(6)
Cl2 Cl 0.22365(2) 0.20521(2) 0.39736(6)
C1 C 0.29868(8) 0.15472(7) 0.3896(2)
C2 C 0.33151(8) 0.14631(8) 0.1893(2)
C3 C 0.29270(8) 0.08581(8) 0.2867(2)
C4 C 0.40630(8) 0.14465(8) 0.1489(2)
C5 C 0.45071(8) 0.19472(8) 0.2213(2)
C6 C 0.51847(8) 0.19501(9) 0.1624(3)
C7 C 0.54274(9) 0.1453(1) 0.0315(3)
C8 C 0.49938(9) 0.0950(1) -0.0401(3)
C9 C 0.43139(9) 0.09427(9) 0.0185(2)
C10 C 0.32497(8) 0.02020(7) 0.3531(2)
C11 C 0.38693(8) 0.01481(8) 0.4552(2)
C12 C 0.41168(8) -0.04930(9) 0.5130(3)
C13 C 0.37628(8) -0.10868(9) 0.4657(3)
C14 C 0.31573(9) -0.10414(8) 0.3603(2)
C15 C 0.28988(8) -0.04042(8) 0.3066(2)
H1 H 0.3048(8) 0.1669(8) 0.087(2)
H2 H 0.2497(9) 0.0790(8) 0.233(3)
H3 H 0.4348(8) 0.2286(9) 0.308(3)
H4 H 0.5494(8) 0.2304(9) 0.211(3)
H5 H 0.591(1) 0.145(1) -0.011(3)
H6 H 0.514(1) 0.062(1) -0.130(3)
H7 H 0.4013(8) 0.058(1) -0.029(3)
H8 H 0.4123(8) 0.054(1) 0.481(3)
H9 H 0.4553(9) -0.0506(9) 0.590(3)
H10 H 0.396(1) -0.152(1) 0.508(3)
H11 H 0.2922(8) -0.1434(9) 0.326(3)
H12 H 0.2460(9) -0.0370(8) 0.237(3)
loop_
_geom_bond_atom_site_label_1
_geom_bond_atom_site_label_2
_geom_bond_site_symmetry_1
_geom_bond_site_symmetry_2
Cl1 C1 1_555 1_555
Cl2 C1 1_555 1_555
C1 C2 1_555 1_555
C2 C3 1_555 1_555
C3 C1 1_555 1_555
C4 C2 1_555 1_555
C5 C4 1_555 1_555
C6 C5 1_555 1_555
C7 C6 1_555 1_555
C8 C7 1_555 1_555
C9 C4 1_555 1_555
C10 C3 1_555 1_555
C11 C10 1_555 1_555
C12 C11 1_555 1_555
C13 C12 1_555 1_555
C14 C13 1_555 1_555
C15 C10 1_555 1_555
H1 C2 1_555 1_555
H2 C3 1_555 1_555
H3 C5 1_555 1_555
H4 C6 1_555 1_555
H5 C7 1_555 1_555
H6 C8 1_555 1_555
H7 C9 1_555 1_555
H8 C11 1_555 1_555
H9 C12 1_555 1_555
H10 C13 1_555 1_555
H11 C14 1_555 1_555
H12 C15 1_555 1_555
C8 C9 1_555 1_555
C14 C15 1_555 1_555

#END
