
#######################################################################
#
#                 Cambridge Crystallographic Data Centre
#                                CCDC 
#
#######################################################################
#
# If this CIF has been generated from an entry in the Cambridge 
# Structural Database, then it will include bibliographic, chemical, 
# crystal, experimental, refinement or atomic coordinate data resulting 
# from the CCDC's data processing and validation procedures.
#
#######################################################################

data_TAJHOB
_chemical_formula_moiety         'C7 H9 N3 O2'
_chemical_name_systematic        
4-Methyl-2,4,6-triazatricyclo(5.1.1.0^2,6^)nonane-3,5-dione
_symmetry_cell_setting           orthorhombic
_symmetry_space_group_name_H-M   'P c c n'
_symmetry_Int_Tables_number      56
_space_group_name_Hall           '-P 2ab 2ac'
loop_
_symmetry_equiv_pos_site_id
_symmetry_equiv_pos_as_xyz
1 x,y,z
2 1/2-x,y,1/2+z
3 x,1/2-y,1/2+z
4 1/2-x,1/2-y,z
5 -x,-y,-z
6 1/2+x,-y,1/2-z
7 -x,1/2+y,1/2-z
8 1/2+x,1/2+y,-z
_cell_length_a                   13.392(7)
_cell_length_b                   11.433(6)
_cell_length_c                   10.098(5)
_cell_angle_alpha                90
_cell_angle_beta                 90
_cell_angle_gamma                90
_cell_volume                     1546.11
_cell_formula_units_Z            8
loop_
_atom_site_label
_atom_site_type_symbol
_atom_site_fract_x
_atom_site_fract_y
_atom_site_fract_z
O1 O -0.0557(2) 0.5883(3) 0.3868(3)
O2 O 0.2840(2) 0.6105(3) 0.3592(3)
N1 N 0.0549(2) 0.5416(3) 0.2168(3)
N2 N 0.1134(2) 0.6305(3) 0.3972(3)
N3 N 0.1641(2) 0.5503(3) 0.2073(3)
C1 C 0.0413(3) 0.4144(4) 0.1852(4)
C2 C 0.1115(3) 0.4028(5) 0.0667(5)
C3 C 0.1909(3) 0.4280(4) 0.1734(4)
C4 C 0.1254(3) 0.3561(4) 0.2692(5)
C5 C 0.0274(3) 0.5857(3) 0.3398(4)
C6 C 0.1974(3) 0.5981(3) 0.3265(4)
C7 C 0.1154(3) 0.6874(4) 0.5251(5)
H1 H -0.027(4) 0.390(4) 0.193(5)
H2 H 0.122(3) 0.325(5) 0.031(5)
H3 H 0.106(3) 0.452(4) -0.004(5)
H4 H 0.257(3) 0.418(3) 0.168(4)
H5 H 0.125(4) 0.270(5) 0.260(5)
H6 H 0.130(3) 0.376(4) 0.363(5)
H7 H 0.129(4) 0.630(5) 0.583(6)
H8 H 0.129(4) 0.761(6) 0.525(5)
H9 H 0.039(6) 0.705(6) 0.561(7)
loop_
_geom_bond_atom_site_label_1
_geom_bond_atom_site_label_2
_geom_bond_site_symmetry_1
_geom_bond_site_symmetry_2
O1 C5 1_555 1_555
O2 C6 1_555 1_555
N1 N3 1_555 1_555
N2 C5 1_555 1_555
N3 C3 1_555 1_555
C1 N1 1_555 1_555
C2 C1 1_555 1_555
C3 C2 1_555 1_555
C4 C1 1_555 1_555
C5 N1 1_555 1_555
C6 N2 1_555 1_555
C7 N2 1_555 1_555
H1 C1 1_555 1_555
H2 C2 1_555 1_555
H3 C2 1_555 1_555
H4 C3 1_555 1_555
H5 C4 1_555 1_555
H6 C4 1_555 1_555
H7 C7 1_555 1_555
H8 C7 1_555 1_555
H9 C7 1_555 1_555
N3 C6 1_555 1_555
C3 C4 1_555 1_555

#END
