
#######################################################################
#
#                 Cambridge Crystallographic Data Centre
#                                CCDC 
#
#######################################################################
#
# If this CIF has been generated from an entry in the Cambridge 
# Structural Database, then it will include bibliographic, chemical, 
# crystal, experimental, refinement or atomic coordinate data resulting 
# from the CCDC's data processing and validation procedures.
#
#######################################################################

data_TAJHER
_chemical_formula_moiety         'C12 H24 N1 1+,C4 H3 O4 1-'
_chemical_name_systematic        'Bicyclohexylammonium hydrogen maleate'
_symmetry_cell_setting           monoclinic
_symmetry_space_group_name_H-M   'C c'
_symmetry_Int_Tables_number      9
_space_group_name_Hall           'C -2yc'
loop_
_symmetry_equiv_pos_site_id
_symmetry_equiv_pos_as_xyz
1 x,y,z
2 1/2+x,1/2+y,z
3 x,-y,1/2+z
4 1/2+x,1/2-y,1/2+z
_cell_length_a                   16.364(3)
_cell_length_b                   9.766(2)
_cell_length_c                   11.144(1)
_cell_angle_alpha                90
_cell_angle_beta                 105.06(1)
_cell_angle_gamma                90
_cell_volume                     1719.76
_cell_formula_units_Z            4
loop_
_atom_site_label
_atom_site_type_symbol
_atom_site_fract_x
_atom_site_fract_y
_atom_site_fract_z
N1 N 0.2500 0.0813(3) 0.2500
C1 C 0.1727(4) 0.0043(5) 0.1859(5)
C2 C 0.1431(5) -0.0891(6) 0.2739(6)
C3 C 0.0636(5) -0.1623(7) 0.2106(7)
C4 C -0.0079(5) -0.0642(8) 0.1483(7)
C5 C 0.0220(5) 0.0318(7) 0.0646(7)
C6 C 0.1034(4) 0.1048(6) 0.1291(6)
C7 C 0.3288(4) 0.0015(5) 0.3101(5)
C8 C 0.3545(4) -0.0853(6) 0.2137(5)
C9 C 0.4375(5) -0.1630(7) 0.2750(7)
C10 C 0.5050(4) -0.0687(7) 0.3411(7)
C11 C 0.4776(5) 0.0199(7) 0.4321(6)
C12 C 0.3981(4) 0.0977(5) 0.3737(6)
H1 H 0.2372 0.1331 0.3094
H2 H 0.2635 0.1386 0.1949
H3 H 0.1849 -0.0502 0.1210
H4 H 0.1327 -0.0350 0.3403
H5 H 0.1867 -0.1542 0.3095
H6 H 0.0452 -0.2161 0.2708
H7 H 0.0753 -0.2234 0.1497
H8 H -0.0556 -0.1150 0.1006
H9 H -0.0259 -0.0125 0.2101
H10 H 0.0323 -0.0199 -0.0033
H11 H -0.0216 0.0973 0.0305
H12 H 0.1206 0.1616 0.0698
H13 H 0.0928 0.1627 0.1930
H14 H 0.3166 -0.0575 0.3723
H15 H 0.3639 -0.0269 0.1494
H16 H 0.3106 -0.1491 0.1765
H17 H 0.4558 -0.2135 0.2127
H18 H 0.4264 -0.2273 0.3339
H19 H 0.5539 -0.1213 0.3815
H20 H 0.5202 -0.0113 0.2804
H21 H 0.4676 -0.0358 0.4978
H22 H 0.5223 0.0831 0.4674
H23 H 0.3800 0.1522 0.4337
H24 H 0.4095 0.1580 0.3119
O1 O 0.2867(4) 0.7783(4) 0.5469(4)
O2 O 0.2876(3) 0.6297(3) 0.4009(4)
C13 C 0.2340(4) 0.3370(5) 0.4541(5)
C14 C 0.2301(4) 0.4247(5) 0.5621(5)
C15 C 0.2474(4) 0.5554(5) 0.5813(5)
C16 C 0.2755(4) 0.6618(5) 0.5058(5)
O3 O 0.2594(4) 0.3878(3) 0.3680(4)
O4 O 0.2102(3) 0.2171(3) 0.4538(4)
H26 H 0.2134 0.3784 0.6280
H27 H 0.2383 0.5892 0.6578
H25? H 0.2745 0.5096 0.3851
loop_
_geom_bond_atom_site_label_1
_geom_bond_atom_site_label_2
_geom_bond_site_symmetry_1
_geom_bond_site_symmetry_2
N1 C1 1_555 1_555
C1 C2 1_555 1_555
C2 C3 1_555 1_555
C3 C4 1_555 1_555
C4 C5 1_555 1_555
C5 C6 1_555 1_555
C6 C1 1_555 1_555
C7 N1 1_555 1_555
C8 C7 1_555 1_555
C9 C8 1_555 1_555
C10 C9 1_555 1_555
C11 C10 1_555 1_555
C12 C7 1_555 1_555
O1 C16 1_555 1_555
O2 C16 1_555 1_555
C13 C14 1_555 1_555
C14 C15 1_555 1_555
C15 C16 1_555 1_555
O3 C13 1_555 1_555
O4 C13 1_555 1_555
H1 N1 1_555 1_555
H2 N1 1_555 1_555
H3 C1 1_555 1_555
H4 C2 1_555 1_555
H5 C2 1_555 1_555
H6 C3 1_555 1_555
H7 C3 1_555 1_555
H8 C4 1_555 1_555
H9 C4 1_555 1_555
H10 C5 1_555 1_555
H11 C5 1_555 1_555
H12 C6 1_555 1_555
H13 C6 1_555 1_555
H14 C7 1_555 1_555
H15 C8 1_555 1_555
H16 C8 1_555 1_555
H17 C9 1_555 1_555
H18 C9 1_555 1_555
H19 C10 1_555 1_555
H20 C10 1_555 1_555
H21 C11 1_555 1_555
H22 C11 1_555 1_555
H23 C12 1_555 1_555
H24 C12 1_555 1_555
H26 C14 1_555 1_555
H27 C15 1_555 1_555
C11 C12 1_555 1_555

#END
