
#######################################################################
#
#                 Cambridge Crystallographic Data Centre
#                                CCDC 
#
#######################################################################
#
# If this CIF has been generated from an entry in the Cambridge 
# Structural Database, then it will include bibliographic, chemical, 
# crystal, experimental, refinement or atomic coordinate data resulting 
# from the CCDC's data processing and validation procedures.
#
#######################################################################

data_TAKGAN
_chemical_formula_moiety         'C13 H18 N2 O4 S1'
_chemical_name_systematic        
"(2R,4S)-2-(2'-Methyl-3'-hydroxy-5'-hydroxymethylenepyridin-4'-yl)-5,5-dimethylthiazolidine-4-carboxylic acid"
_chemical_properties_biological  'metabolic product of antiarthritic drug'
_symmetry_cell_setting           orthorhombic
_symmetry_space_group_name_H-M   'P 21 21 21'
_symmetry_Int_Tables_number      19
_space_group_name_Hall           'P 2ac 2ab'
loop_
_symmetry_equiv_pos_site_id
_symmetry_equiv_pos_as_xyz
1 x,y,z
2 1/2+x,1/2-y,-z
3 -x,1/2+y,1/2-z
4 1/2-x,-y,1/2+z
_cell_length_a                   9.507(5)
_cell_length_b                   19.185(5)
_cell_length_c                   7.766(2)
_cell_angle_alpha                90
_cell_angle_beta                 90
_cell_angle_gamma                90
_cell_volume                     1416.45
_exptl_crystal_colour            'pale yellow'
_cell_formula_units_Z            4
loop_
_atom_site_label
_atom_site_type_symbol
_atom_site_fract_x
_atom_site_fract_y
_atom_site_fract_z
S1 S 0.0281(2) 0.1024(1) 0.2522(2)
C1 C 0.1004(5) 0.1009(2) 0.4722(6)
N1 N 0.0603(5) 0.1681(2) 0.5524(5)
C2 C -0.0298(5) 0.2115(2) 0.4408(6)
C3 C 0.0104(5) 0.1975(2) 0.2509(7)
C4 C -0.0124(5) 0.2890(2) 0.4917(6)
O1 O 0.0858(4) 0.3043(2) 0.5901(5)
O2 O -0.1023(5) 0.3303(2) 0.4304(5)
C5 C 0.1489(7) 0.2320(3) 0.1991(8)
C6 C -0.1102(8) 0.2157(3) 0.1266(8)
N2 N -0.0369(4) -0.0779(2) 0.7499(6)
C7 C -0.0838(5) -0.0160(2) 0.8020(6)
C8 C -0.0433(5) 0.0436(2) 0.7113(5)
C9 C 0.0476(5) 0.0372(2) 0.5706(6)
C10 C 0.0948(5) -0.0298(2) 0.5230(6)
C11 C 0.0505(6) -0.0856(2) 0.6166(6)
C12 C -0.1805(6) -0.0135(3) 0.9532(7)
O3 O -0.0940(4) 0.1041(2) 0.7667(5)
C13 C 0.1964(7) -0.0405(3) 0.3736(8)
O4 O 0.2304(5) -0.1101(2) 0.3460(6)
H1 H 0.183 0.102 0.479
H2 H 0.126 0.196 0.590
H3 H -0.120 0.185 0.460
H4 H 0.210 0.216 0.268
H5 H 0.142 0.286 0.204
H6 H 0.189 0.207 0.045
H7 H -0.188 0.173 0.171
H8 H -0.074 0.202 0.021
H9 H -0.126 0.273 0.123
H10 H -0.065 -0.121 0.801
H11 H -0.159 -0.069 0.998
H12 H -0.252 -0.011 0.928
H13 H -0.150 0.025 1.018
H14 H -0.046 0.127 0.731
H15 H 0.281 -0.006 0.331
H16 H 0.146 -0.023 0.261
H17 H 0.104 -0.128 0.581
loop_
_geom_bond_atom_site_label_1
_geom_bond_atom_site_label_2
_geom_bond_site_symmetry_1
_geom_bond_site_symmetry_2
S1 C1 1_555 1_555
C1 N1 1_555 1_555
N1 C2 1_555 1_555
C2 C3 1_555 1_555
C3 S1 1_555 1_555
C4 C2 1_555 1_555
O1 C4 1_555 1_555
O2 C4 1_555 1_555
C5 C3 1_555 1_555
C6 C3 1_555 1_555
N2 C7 1_555 1_555
C7 C8 1_555 1_555
C8 C9 1_555 1_555
C9 C1 1_555 1_555
C10 C9 1_555 1_555
C11 N2 1_555 1_555
C12 C7 1_555 1_555
O3 C8 1_555 1_555
C13 C10 1_555 1_555
O4 C13 1_555 1_555
H1 C1 1_555 1_555
H2 N1 1_555 1_555
H3 C2 1_555 1_555
H4 C5 1_555 1_555
H5 C5 1_555 1_555
H6 C5 1_555 1_555
H7 C6 1_555 1_555
H8 C6 1_555 1_555
H9 C6 1_555 1_555
H10 N2 1_555 1_555
H11 C12 1_555 1_555
H12 C12 1_555 1_555
H13 C12 1_555 1_555
H14 O3 1_555 1_555
H15 C13 1_555 1_555
H16 C13 1_555 1_555
H17 C11 1_555 1_555
C10 C11 1_555 1_555

#END
