
#######################################################################
#
#                 Cambridge Crystallographic Data Centre
#                                CCDC 
#
#######################################################################
#
# If this CIF has been generated from an entry in the Cambridge 
# Structural Database, then it will include bibliographic, chemical, 
# crystal, experimental, refinement or atomic coordinate data resulting 
# from the CCDC's data processing and validation procedures.
#
#######################################################################

data_TAKHOF
_chemical_formula_moiety         'C52 H30 F12 N4'
_chemical_name_systematic        
3,3'-(2,5-bis(diphenylamino)-1,4-phenylene)bis(2-(3,5-bis(trifluoromethyl)phenyl)acrylonitrile)
_symmetry_cell_setting           monoclinic
_symmetry_space_group_name_H-M   'P 21/c'
_symmetry_Int_Tables_number      14
_space_group_name_Hall           '-P 2ybc'
loop_
_symmetry_equiv_pos_site_id
_symmetry_equiv_pos_as_xyz
1 x,y,z
2 -x,1/2+y,1/2-z
3 -x,-y,-z
4 x,1/2-y,1/2+z
_cell_length_a                   13.247(3)
_cell_length_b                   22.183(4)
_cell_length_c                   15.416(3)
_cell_angle_alpha                90
_cell_angle_beta                 106.77(3)
_cell_angle_gamma                90
_cell_volume                     4337.46
_cell_formula_units_Z            4
loop_
_atom_site_label
_atom_site_type_symbol
_atom_site_fract_x
_atom_site_fract_y
_atom_site_fract_z
F1 F 0.11019(14) 0.27712(9) -0.16568(14)
F2 F 0.16548(15) 0.28276(9) -0.02100(14)
F3 F 0.15177(15) 0.36306(8) -0.10187(15)
F4 F 0.5236(2) 0.39957(11) -0.19643(17)
F5 F 0.50511(17) 0.43482(9) -0.07458(19)
F6 F 0.62919(15) 0.37348(9) -0.07111(18)
N1 N 0.6714(2) 0.15280(12) -0.0766(2)
N2 N 0.66888(19) -0.00416(11) 0.16143(18)
C1 C 0.5847(3) 0.15668(13) -0.0769(2)
C2 C 0.4751(2) 0.16360(13) -0.0820(2)
C3 C 0.4187(2) 0.11451(13) -0.0740(2)
H1 H 0.3441 0.1183 -0.0922
C4 C 0.4632(2) 0.05566(13) -0.0397(2)
C5 C 0.5474(2) 0.05256(13) 0.0385(2)
H2 H 0.5802 0.0889 0.0648
C6 C 0.5854(2) -0.00200(13) 0.0797(2)
C7 C 0.7460(2) 0.04282(14) 0.1805(2)
C8 C 0.7885(2) 0.06217(14) 0.1135(2)
H3 H 0.7696 0.0425 0.0563
C9 C 0.8590(2) 0.11025(14) 0.1290(3)
H4 H 0.8854 0.1245 0.0817
C10 C 0.8905(3) 0.13716(15) 0.2133(3)
H5 H 0.9394 0.1696 0.2243
C11 C 0.8508(3) 0.11683(15) 0.2813(3)
H6 H 0.8736 0.1349 0.3396
C12 C 0.7775(3) 0.07008(14) 0.2654(2)
H7 H 0.7493 0.0569 0.3123
C13 C 0.6549(3) -0.03968(14) 0.2344(2)
C14 C 0.7405(3) -0.07052(16) 0.2901(2)
H8 H 0.8080 -0.0671 0.2805
C15 C 0.7272(3) -0.10632(18) 0.3596(3)
H9 H 0.7859 -0.1269 0.3984
C16 C 0.6295(4) -0.11206(18) 0.3726(3)
H10 H 0.6204 -0.1377 0.4192
C17 C 0.5444(3) -0.08100(17) 0.3186(3)
H11 H 0.4771 -0.0846 0.3285
C18 C 0.5575(3) -0.04442(14) 0.2497(2)
H12 H 0.4991 -0.0225 0.2128
C19 C 0.4319(2) 0.22624(13) -0.0955(2)
C20 C 0.3291(2) 0.23741(13) -0.0937(2)
H13 H 0.2848 0.2048 -0.0883
C21 C 0.2913(2) 0.29611(14) -0.0998(2)
C22 C 0.3550(2) 0.34460(14) -0.1061(2)
H14 H 0.3285 0.3846 -0.1102
C23 C 0.4578(2) 0.33359(14) -0.1064(2)
C24 C 0.4958(2) 0.27476(14) -0.1021(2)
H15 H 0.5660 0.2677 -0.1037
C25 C 0.1811(3) 0.30515(15) -0.0968(2)
C26 C 0.5287(3) 0.38448(15) -0.1122(3)
F1B F 0.88981(14) -0.27712(9) 0.16568(14)
F2B F 0.83452(15) -0.28276(9) 0.02100(14)
F3B F 0.84823(15) -0.36306(8) 0.10187(15)
F4B F 0.4764(2) -0.39957(11) 0.19643(17)
F5B F 0.49489(17) -0.43482(9) 0.07458(19)
F6B F 0.37081(15) -0.37348(9) 0.07111(18)
N1B N 0.3286(2) -0.15280(12) 0.0766(2)
N2B N 0.33112(19) 0.00416(11) -0.16143(18)
C1B C 0.4153(3) -0.15668(13) 0.0769(2)
C2B C 0.5249(2) -0.16360(13) 0.0820(2)
C3B C 0.5813(2) -0.11451(13) 0.0740(2)
H1B H 0.6559 -0.1183 0.0922
C4B C 0.5368(2) -0.05566(13) 0.0397(2)
C5B C 0.4526(2) -0.05256(13) -0.0385(2)
H2B H 0.4198 -0.0889 -0.0648
C6B C 0.4146(2) 0.00200(13) -0.0797(2)
C7B C 0.2540(2) -0.04282(14) -0.1805(2)
C8B C 0.2115(2) -0.06217(14) -0.1135(2)
H3B H 0.2304 -0.0425 -0.0563
C9B C 0.1410(2) -0.11025(14) -0.1290(3)
H4B H 0.1146 -0.1245 -0.0817
C10B C 0.1095(3) -0.13716(15) -0.2133(3)
H5B H 0.0606 -0.1696 -0.2243
C11B C 0.1492(3) -0.11683(15) -0.2813(3)
H6B H 0.1264 -0.1349 -0.3396
C12B C 0.2225(3) -0.07008(14) -0.2654(2)
H7B H 0.2507 -0.0569 -0.3123
C13B C 0.3451(3) 0.03968(14) -0.2344(2)
C14B C 0.2595(3) 0.07052(16) -0.2901(2)
H8B H 0.1920 0.0671 -0.2805
C15B C 0.2728(3) 0.10632(18) -0.3596(3)
H9B H 0.2141 0.1269 -0.3984
C16B C 0.3705(4) 0.11206(18) -0.3726(3)
H10B H 0.3796 0.1377 -0.4192
C17B C 0.4556(3) 0.08100(17) -0.3186(3)
H11B H 0.5229 0.0846 -0.3285
C18B C 0.4425(3) 0.04442(14) -0.2497(2)
H12B H 0.5009 0.0225 -0.2128
C19B C 0.5681(2) -0.22624(13) 0.0955(2)
C20B C 0.6709(2) -0.23741(13) 0.0937(2)
H13B H 0.7152 -0.2048 0.0883
C21B C 0.7087(2) -0.29611(14) 0.0998(2)
C22B C 0.6450(2) -0.34460(14) 0.1061(2)
H14B H 0.6715 -0.3846 0.1102
C23B C 0.5422(2) -0.33359(14) 0.1064(2)
C24B C 0.5042(2) -0.27476(14) 0.1021(2)
H15B H 0.4340 -0.2677 0.1037
C25B C 0.8189(3) -0.30515(15) 0.0968(2)
C26B C 0.4713(3) -0.38448(15) 0.1122(3)
F7 F 0.5582(5) 0.2852(3) 0.1789(10)
F8 F 0.5930(11) 0.2069(5) 0.1127(7)
F9 F 0.6428(6) 0.2145(4) 0.2574(4)
F10 F 0.97121(16) 0.32429(9) 0.01483(14)
F11 F 0.97704(19) 0.22956(10) 0.04125(17)
F12 F 0.83921(18) 0.26876(11) -0.04941(14)
N3 N 1.1487(2) 0.37275(13) 0.3628(2)
N4 N 0.83315(19) 0.53403(11) 0.34662(17)
C27 C 1.0588(3) 0.37232(14) 0.3484(2)
C28 C 0.9452(2) 0.37109(13) 0.3283(2)
C29 C 0.8970(2) 0.41140(13) 0.3685(2)
H16 H 0.8222 0.4103 0.3524
C30 C 0.9511(2) 0.45691(13) 0.4354(2)
C31 C 0.9161(2) 0.51749(13) 0.4243(2)
C32 C 0.9656(2) 0.55875(14) 0.4900(2)
H17 H 0.9417 0.5993 0.4839
C33 C 0.8368(3) 0.51639(13) 0.2575(2)
C34 C 0.9312(3) 0.50967(14) 0.2359(2)
H18 H 0.9965 0.5173 0.2802
C35 C 0.9293(3) 0.49180(15) 0.1497(2)
H19 H 0.9938 0.4870 0.1351
C36 C 0.8353(3) 0.48077(16) 0.0845(3)
H20 H 0.8349 0.4682 0.0255
C37 C 0.7420(3) 0.48812(16) 0.1056(3)
H21 H 0.6769 0.4815 0.0605
C38 C 0.7422(3) 0.50517(14) 0.1921(2)
H22 H 0.6775 0.5092 0.2066
C39 C 0.7812(2) 0.59104(14) 0.3501(2)
C40 C 0.6933(3) 0.59292(15) 0.3805(2)
H23 H 0.6674 0.5571 0.4003
C41 C 0.6426(3) 0.64741(16) 0.3822(2)
H24 H 0.5810 0.6486 0.4018
C42 C 0.6811(3) 0.69990(16) 0.3555(2)
H25 H 0.6461 0.7371 0.3569
C43 C 0.7707(3) 0.69824(15) 0.3266(2)
H26 H 0.7982 0.7344 0.3093
C44 C 0.8205(2) 0.64359(14) 0.3230(2)
H27 H 0.8812 0.6422 0.3021
C45 C 0.8878(2) 0.33130(13) 0.2534(2)
C46 C 0.7902(2) 0.30669(13) 0.2518(2)
H28 H 0.7623 0.3128 0.3015
C47 C 0.7344(2) 0.27347(14) 0.1778(2)
C48 C 0.7728(2) 0.26388(14) 0.1041(2)
H29 H 0.7335 0.2411 0.0535
C49 C 0.8695(2) 0.28821(14) 0.1061(2)
C50 C 0.9275(2) 0.32080(13) 0.1810(2)
H30 H 0.9951 0.3360 0.1825
C51 C 0.6312(3) 0.24693(16) 0.1772(2)
C52 C 0.9137(3) 0.27776(16) 0.0286(3)
F7B F 1.4418(5) 0.7148(3) 0.8211(10)
F8B F 1.4070(11) 0.7931(5) 0.8873(7)
F9B F 1.3572(6) 0.7855(4) 0.7426(4)
F10B F 1.02879(16) 0.67571(9) 0.98517(14)
F11B F 1.02296(19) 0.77044(10) 0.95875(17)
F12B F 1.16079(18) 0.73124(11) 1.04941(14)
N3B N 0.8513(2) 0.62725(13) 0.6372(2)
N4B N 1.16685(19) 0.46597(11) 0.65338(17)
C27B C 0.9412(3) 0.62768(14) 0.6516(2)
C28B C 1.0548(2) 0.62891(13) 0.6717(2)
C29B C 1.1030(2) 0.58860(13) 0.6315(2)
H16B H 1.1778 0.5897 0.6476
C30B C 1.0489(2) 0.54309(13) 0.5646(2)
C31B C 1.0839(2) 0.48251(13) 0.5757(2)
C32B C 1.0344(2) 0.44125(14) 0.5100(2)
H17B H 1.0583 0.4007 0.5161
C33B C 1.1632(3) 0.48361(13) 0.7425(2)
C34B C 1.0688(3) 0.49033(14) 0.7641(2)
H18B H 1.0035 0.4827 0.7198
C35B C 1.0707(3) 0.50820(15) 0.8503(2)
H19B H 1.0062 0.5130 0.8649
C36B C 1.1647(3) 0.51923(16) 0.9155(3)
H20B H 1.1651 0.5318 0.9745
C37B C 1.2580(3) 0.51188(16) 0.8944(3)
H21B H 1.3231 0.5185 0.9395
C38B C 1.2578(3) 0.49483(14) 0.8079(2)
H22B H 1.3225 0.4908 0.7934
C39B C 1.2188(2) 0.40896(14) 0.6499(2)
C40B C 1.3067(3) 0.40708(15) 0.6195(2)
H23B H 1.3326 0.4429 0.5997
C41B C 1.3574(3) 0.35259(16) 0.6178(2)
H24B H 1.4190 0.3514 0.5982
C42B C 1.3189(3) 0.30010(16) 0.6445(2)
H25B H 1.3539 0.2629 0.6431
C43B C 1.2293(3) 0.30176(15) 0.6734(2)
H26B H 1.2018 0.2656 0.6907
C44B C 1.1795(2) 0.35641(14) 0.6770(2)
H27B H 1.1188 0.3578 0.6979
C45B C 1.1122(2) 0.66870(13) 0.7466(2)
C46B C 1.2098(2) 0.69331(13) 0.7482(2)
H28B H 1.2377 0.6872 0.6985
C47B C 1.2656(2) 0.72653(14) 0.8222(2)
C48B C 1.2272(2) 0.73612(14) 0.8959(2)
H29B H 1.2665 0.7589 0.9465
C49B C 1.1305(2) 0.71179(14) 0.8939(2)
C50B C 1.0725(2) 0.67920(13) 0.8190(2)
H30B H 1.0049 0.6640 0.8175
C51B C 1.3688(3) 0.75307(16) 0.8228(2)
C52B C 1.0863(3) 0.72224(16) 0.9714(3)
F13? F 0.6055(7) 0.2481(6) 0.2504(5)
F14? F 0.5503(4) 0.2818(3) 0.1184(7)
F15? F 0.6142(11) 0.1932(4) 0.1377(8)
loop_
_geom_bond_atom_site_label_1
_geom_bond_atom_site_label_2
_geom_bond_site_symmetry_1
_geom_bond_site_symmetry_2
F1 C25 1_555 1_555
F2 C25 1_555 1_555
F3 C25 1_555 1_555
F4 C26 1_555 1_555
F5 C26 1_555 1_555
F6 C26 1_555 1_555
N1 C1 1_555 1_555
N2 C6 1_555 1_555
C1 C2 1_555 1_555
C2 C3 1_555 1_555
C3 H1 1_555 1_555
C4 C3 1_555 1_555
C5 C4 1_555 1_555
H2 C5 1_555 1_555
C6 C5 1_555 1_555
C7 N2 1_555 1_555
C8 C7 1_555 1_555
H3 C8 1_555 1_555
C9 C8 1_555 1_555
H4 C9 1_555 1_555
C10 C9 1_555 1_555
H5 C10 1_555 1_555
C11 C10 1_555 1_555
H6 C11 1_555 1_555
C12 C7 1_555 1_555
H7 C12 1_555 1_555
C13 N2 1_555 1_555
C14 C13 1_555 1_555
H8 C14 1_555 1_555
C15 C14 1_555 1_555
H9 C15 1_555 1_555
C16 C15 1_555 1_555
H10 C16 1_555 1_555
C17 C16 1_555 1_555
H11 C17 1_555 1_555
C18 C13 1_555 1_555
H12 C18 1_555 1_555
C19 C2 1_555 1_555
C20 C19 1_555 1_555
H13 C20 1_555 1_555
C21 C20 1_555 1_555
C22 C21 1_555 1_555
H14 C22 1_555 1_555
C23 C22 1_555 1_555
C24 C19 1_555 1_555
H15 C24 1_555 1_555
C25 C21 1_555 1_555
C26 C23 1_555 1_555
F7 C51 1_555 1_555
F8 C51 1_555 1_555
F9 C51 1_555 1_555
F10 C52 1_555 1_555
F11 C52 1_555 1_555
F12 C52 1_555 1_555
N3 C27 1_555 1_555
N4 C31 1_555 1_555
C27 C28 1_555 1_555
C28 C29 1_555 1_555
C29 H16 1_555 1_555
C30 C29 1_555 1_555
C31 C30 1_555 1_555
C32 C31 1_555 1_555
H17 C32 1_555 1_555
C33 N4 1_555 1_555
C34 C33 1_555 1_555
H18 C34 1_555 1_555
C35 C34 1_555 1_555
H19 C35 1_555 1_555
C36 C35 1_555 1_555
H20 C36 1_555 1_555
C37 C36 1_555 1_555
H21 C37 1_555 1_555
C38 C33 1_555 1_555
H22 C38 1_555 1_555
C39 N4 1_555 1_555
C40 C39 1_555 1_555
H23 C40 1_555 1_555
C41 C40 1_555 1_555
H24 C41 1_555 1_555
C42 C41 1_555 1_555
H25 C42 1_555 1_555
C43 C42 1_555 1_555
H26 C43 1_555 1_555
C44 C39 1_555 1_555
H27 C44 1_555 1_555
C45 C28 1_555 1_555
C46 C45 1_555 1_555
H28 C46 1_555 1_555
C47 C46 1_555 1_555
C48 C47 1_555 1_555
H29 C48 1_555 1_555
C49 C48 1_555 1_555
C50 C45 1_555 1_555
H30 C50 1_555 1_555
C51 C47 1_555 1_555
C52 C49 1_555 1_555
F1B C25B 1_555 1_555
F2B C25B 1_555 1_555
F3B C25B 1_555 1_555
F4B C26B 1_555 1_555
F5B C26B 1_555 1_555
F6B C26B 1_555 1_555
N1B C1B 1_555 1_555
N2B C6B 1_555 1_555
C1B C2B 1_555 1_555
C2B C3B 1_555 1_555
C3B H1B 1_555 1_555
C4B C6 1_555 1_555
C5B C4B 1_555 1_555
H2B C5B 1_555 1_555
C6B C4 1_555 1_555
C7B N2B 1_555 1_555
C8B C7B 1_555 1_555
H3B C8B 1_555 1_555
C9B C8B 1_555 1_555
H4B C9B 1_555 1_555
C10B C9B 1_555 1_555
H5B C10B 1_555 1_555
C11B C10B 1_555 1_555
H6B C11B 1_555 1_555
C12B C7B 1_555 1_555
H7B C12B 1_555 1_555
C13B N2B 1_555 1_555
C14B C13B 1_555 1_555
H8B C14B 1_555 1_555
C15B C14B 1_555 1_555
H9B C15B 1_555 1_555
C16B C15B 1_555 1_555
H10B C16B 1_555 1_555
C17B C16B 1_555 1_555
H11B C17B 1_555 1_555
C18B C13B 1_555 1_555
H12B C18B 1_555 1_555
C19B C2B 1_555 1_555
C20B C19B 1_555 1_555
H13B C20B 1_555 1_555
C21B C20B 1_555 1_555
C22B C21B 1_555 1_555
H14B C22B 1_555 1_555
C23B C22B 1_555 1_555
C24B C19B 1_555 1_555
H15B C24B 1_555 1_555
C25B C21B 1_555 1_555
C26B C23B 1_555 1_555
F7B C51B 1_555 1_555
F8B C51B 1_555 1_555
F9B C51B 1_555 1_555
F10B C52B 1_555 1_555
F11B C52B 1_555 1_555
F12B C52B 1_555 1_555
N3B C27B 1_555 1_555
N4B C31B 1_555 1_555
C27B C28B 1_555 1_555
C28B C29B 1_555 1_555
C29B H16B 1_555 1_555
C30B C32 1_555 1_555
C31B C30B 1_555 1_555
C32B C30 1_555 1_555
H17B C32B 1_555 1_555
C33B N4B 1_555 1_555
C34B C33B 1_555 1_555
H18B C34B 1_555 1_555
C35B C34B 1_555 1_555
H19B C35B 1_555 1_555
C36B C35B 1_555 1_555
H20B C36B 1_555 1_555
C37B C36B 1_555 1_555
H21B C37B 1_555 1_555
C38B C33B 1_555 1_555
H22B C38B 1_555 1_555
C39B N4B 1_555 1_555
C40B C39B 1_555 1_555
H23B C40B 1_555 1_555
C41B C40B 1_555 1_555
H24B C41B 1_555 1_555
C42B C41B 1_555 1_555
H25B C42B 1_555 1_555
C43B C42B 1_555 1_555
H26B C43B 1_555 1_555
C44B C39B 1_555 1_555
H27B C44B 1_555 1_555
C45B C28B 1_555 1_555
C46B C45B 1_555 1_555
H28B C46B 1_555 1_555
C47B C46B 1_555 1_555
C48B C47B 1_555 1_555
H29B C48B 1_555 1_555
C49B C48B 1_555 1_555
C50B C45B 1_555 1_555
H30B C50B 1_555 1_555
C51B C47B 1_555 1_555
C52B C49B 1_555 1_555
C11 C12 1_555 1_555
C17 C18 1_555 1_555
C23 C24 1_555 1_555
C37 C38 1_555 1_555
C43 C44 1_555 1_555
C49 C50 1_555 1_555
C3B C4B 1_555 1_555
C5B C6B 1_555 1_555
C11B C12B 1_555 1_555
C17B C18B 1_555 1_555
C23B C24B 1_555 1_555
C29B C30B 1_555 1_555
C31B C32B 1_555 1_555
C37B C38B 1_555 1_555
C43B C44B 1_555 1_555
C49B C50B 1_555 1_555

#END
