
#######################################################################
#
#                 Cambridge Crystallographic Data Centre
#                                CCDC 
#
#######################################################################
#
# If this CIF has been generated from an entry in the Cambridge 
# Structural Database, then it will include bibliographic, chemical, 
# crystal, experimental, refinement or atomic coordinate data resulting 
# from the CCDC's data processing and validation procedures.
#
#######################################################################

data_TAKLOG
_chemical_formula_moiety         'C25 H22 B1 N1 O2,0.5(C3 H6 O1)'
_chemical_name_systematic        
'(3-Hydroxy-2-methyl-1-(p-tolyl)-4-pyridinonato)-diphenylboron acetone solvate'
_symmetry_cell_setting           triclinic
_symmetry_space_group_name_H-M   'P -1'
_symmetry_Int_Tables_number      2
_space_group_name_Hall           '-P 1'
loop_
_symmetry_equiv_pos_site_id
_symmetry_equiv_pos_as_xyz
1 x,y,z
2 -x,-y,-z
_cell_length_a                   15.119(2)
_cell_length_b                   16.528(1)
_cell_length_c                   9.5802(9)
_cell_angle_alpha                98.721(6)
_cell_angle_beta                 93.344(8)
_cell_angle_gamma                102.443(6)
_cell_volume                     2300.41
_exptl_crystal_colour            white
_chemical_melting_point          160-161deg.C
_cell_formula_units_Z            4
loop_
_atom_site_label
_atom_site_type_symbol
_atom_site_fract_x
_atom_site_fract_y
_atom_site_fract_z
O1 O 0.5032(1) 0.2704(1) 0.4040(2)
O2 O 0.3983(1) 0.3495(1) 0.3342(2)
N1 N 0.6649(2) 0.4609(1) 0.3749(3)
C1 C 0.7027(2) 0.3355(2) 0.4562(4)
C2 C 0.6361(2) 0.3811(2) 0.4054(3)
C3 C 0.5449(2) 0.3478(2) 0.3854(3)
C4 C 0.4825(2) 0.3925(2) 0.3411(3)
C5 C 0.5146(2) 0.4724(2) 0.3116(4)
C6 C 0.6060(2) 0.5041(2) 0.3289(4)
C7 C 0.7610(2) 0.5020(2) 0.3946(3)
C8 C 0.7980(3) 0.5445(3) 0.5241(4)
C9 C 0.8887(3) 0.5852(3) 0.5416(4)
C10 C 0.9424(2) 0.5844(2) 0.4327(4)
C11 C 0.9025(2) 0.5418(2) 0.3032(4)
C12 C 0.8117(2) 0.5003(2) 0.2836(4)
C13 C 1.0416(3) 0.6293(3) 0.4525(5)
C14 C 0.3454(2) 0.1873(2) 0.2814(3)
C15 C 0.3509(3) 0.1058(2) 0.2955(4)
C16 C 0.3025(3) 0.0363(2) 0.2019(5)
C17 C 0.2468(3) 0.0455(3) 0.0902(5)
C18 C 0.2402(3) 0.1244(3) 0.0728(5)
C19 C 0.2883(2) 0.1936(2) 0.1671(4)
C20 C 0.3666(2) 0.2749(2) 0.5484(4)
C21 C 0.4258(3) 0.2922(2) 0.6709(4)
C22 C 0.3967(4) 0.3010(3) 0.8048(5)
C23 C 0.3066(5) 0.2933(3) 0.8193(6)
C24 C 0.2449(4) 0.2773(3) 0.7016(7)
C25 C 0.2752(3) 0.2671(2) 0.5668(4)
B1 B 0.4003(2) 0.2665(2) 0.3928(4)
H1 H 0.6704 0.2802 0.4729
H2 H 0.7452 0.3284 0.3844
H3 H 0.7364 0.3678 0.5448
H4 H 0.4729 0.5050 0.2793
H5 H 0.6300 0.5603 0.3071
H6 H 0.7608 0.5463 0.6044
H7 H 0.9152 0.6156 0.6357
H8 H 0.9390 0.5406 0.2221
H9 H 0.7845 0.4699 0.1897
H10 H 1.0739 0.6062 0.5231
H11 H 1.0683 0.6213 0.3620
H12 H 1.0471 0.6894 0.4852
H13 H 0.3903 0.0975 0.3744
H14 H 0.3082 -0.0200 0.2154
H15 H 0.2122 -0.0038 0.0240
H16 H 0.2011 0.1320 -0.0071
H17 H 0.2817 0.2495 0.1525
H18 H 0.4911 0.2983 0.6618
H19 H 0.4406 0.3128 0.8887
H20 H 0.2855 0.2991 0.9143
H21 H 0.1801 0.2731 0.7126
H22 H 0.2308 0.2540 0.4833
O3 O 0.3050(1) 0.7488(1) 0.1974(2)
O4 O 0.3115(1) 0.7047(1) -0.0508(2)
N2 N 0.5206(2) 0.8835(1) 0.1578(3)
C26 C 0.4417(2) 0.8836(2) 0.3805(4)
C27 C 0.4473(2) 0.8511(2) 0.2281(3)
C28 C 0.3805(2) 0.7898(2) 0.1501(3)
C29 C 0.3840(2) 0.7622(2) 0.0043(3)
C30 C 0.4586(2) 0.7955(2) -0.0615(3)
C31 C 0.5257(2) 0.8556(2) 0.0186(3)
C32 C 0.5952(2) 0.9504(2) 0.2311(3)
C33 C 0.6576(2) 0.9337(2) 0.3230(4)
C34 C 0.7281(2) 0.9987(2) 0.3900(4)
C35 C 0.7372(2) 1.0789(2) 0.3641(4)
C36 C 0.6737(3) 1.0934(2) 0.2691(5)
C37 C 0.6019(3) 1.0301(2) 0.2026(4)
C38 C 0.8128(3) 1.1492(2) 0.4392(5)
C39 C 0.1585(2) 0.7280(2) 0.0326(4)
C40 C 0.1134(4) 0.7629(3) 0.1386(5)
C41 C 0.0354(4) 0.7909(4) 0.1099(7)
C42 C 0.0007(4) 0.7850(3) -0.0255(8)
C43 C 0.0427(3) 0.7505(3) -0.1328(5)
C44 C 0.1194(3) 0.7220(3) -0.1028(4)
C45 C 0.2259(2) 0.5951(2) 0.0880(3)
C46 C 0.2964(2) 0.5541(3) 0.1005(4)
C47 C 0.2814(3) 0.4689(3) 0.1065(4)
C48 C 0.1940(3) 0.4227(2) 0.1005(4)
C49 C 0.1228(3) 0.4605(2) 0.0899(4)
C50 C 0.1386(2) 0.5458(2) 0.0842(4)
B2 B 0.2454(3) 0.6922(3) 0.0691(4)
H23 H 0.4936 0.8750 0.4379
H24 H 0.4427 0.9438 0.3925
H25 H 0.3850 0.8535 0.4114
H26 H 0.4632 0.7765 -0.1623
H27 H 0.5798 0.8796 -0.0260
H28 H 0.6531 0.8763 0.3419
H29 H 0.7727 0.9868 0.4579
H30 H 0.6793 1.1503 0.2476
H31 H 0.5566 1.0420 0.1361
H32 H 0.8512 1.1270 0.5029
H33 H 0.8496 1.1745 0.3694
H34 H 0.7870 1.1919 0.4946
H35 H 0.1374 0.7680 0.2377
H36 H 0.0052 0.8152 0.1882
H37 H -0.0542 0.8053 -0.0458
H38 H 0.0184 0.7459 -0.2314
H39 H 0.1477 0.6961 -0.1820
H40 H 0.3592 0.5867 0.1053
H41 H 0.3329 0.4420 0.1150
H42 H 0.1826 0.3624 0.1037
H43 H 0.0603 0.4275 0.0863
H44 H 0.0866 0.5721 0.0773
O5 O 0.9399(4) 0.0355(4) 0.6195(6)
C51 C 0.9645(5) -0.0227(5) 0.6704(7)
C52 C 0.9196(5) -0.1076(5) 0.6187(9)
C53 C 1.0376(5) -0.0013(5) 0.7812(8)
H45 H 0.8551 -0.1160 0.6357
H46 H 0.9247 -0.1206 0.5167
H47 H 0.9476 -0.1448 0.6681
H48 H 1.0499 -0.0528 0.8087
H49 H 1.0923 0.0303 0.7470
H50 H 1.0207 0.0332 0.8632
loop_
_geom_bond_atom_site_label_1
_geom_bond_atom_site_label_2
_geom_bond_site_symmetry_1
_geom_bond_site_symmetry_2
O1 C3 1_555 1_555
O2 C4 1_555 1_555
N1 C2 1_555 1_555
C1 C2 1_555 1_555
C2 C3 1_555 1_555
C3 C4 1_555 1_555
C4 C5 1_555 1_555
C5 C6 1_555 1_555
C6 N1 1_555 1_555
C7 N1 1_555 1_555
C8 C7 1_555 1_555
C9 C8 1_555 1_555
C10 C9 1_555 1_555
C11 C10 1_555 1_555
C12 C7 1_555 1_555
C13 C10 1_555 1_555
C14 C15 1_555 1_555
C15 C16 1_555 1_555
C16 C17 1_555 1_555
C17 C18 1_555 1_555
C18 C19 1_555 1_555
C19 C14 1_555 1_555
C20 C21 1_555 1_555
C21 C22 1_555 1_555
C22 C23 1_555 1_555
C23 C24 1_555 1_555
C24 C25 1_555 1_555
C25 C20 1_555 1_555
B1 O1 1_555 1_555
H1 C1 1_555 1_555
H2 C1 1_555 1_555
H3 C1 1_555 1_555
H4 C5 1_555 1_555
H5 C6 1_555 1_555
H6 C8 1_555 1_555
H7 C9 1_555 1_555
H8 C11 1_555 1_555
H9 C12 1_555 1_555
H10 C13 1_555 1_555
H11 C13 1_555 1_555
H12 C13 1_555 1_555
H13 C15 1_555 1_555
H14 C16 1_555 1_555
H15 C17 1_555 1_555
H16 C18 1_555 1_555
H17 C19 1_555 1_555
H18 C21 1_555 1_555
H19 C22 1_555 1_555
H20 C23 1_555 1_555
H21 C24 1_555 1_555
H22 C25 1_555 1_555
O3 C28 1_555 1_555
O4 C29 1_555 1_555
N2 C27 1_555 1_555
C26 C27 1_555 1_555
C27 C28 1_555 1_555
C28 C29 1_555 1_555
C29 C30 1_555 1_555
C30 C31 1_555 1_555
C31 N2 1_555 1_555
C32 N2 1_555 1_555
C33 C32 1_555 1_555
C34 C33 1_555 1_555
C35 C34 1_555 1_555
C36 C35 1_555 1_555
C37 C32 1_555 1_555
C38 C35 1_555 1_555
C39 C40 1_555 1_555
C40 C41 1_555 1_555
C41 C42 1_555 1_555
C42 C43 1_555 1_555
C43 C44 1_555 1_555
C44 C39 1_555 1_555
C45 C46 1_555 1_555
C46 C47 1_555 1_555
C47 C48 1_555 1_555
C48 C49 1_555 1_555
C49 C50 1_555 1_555
C50 C45 1_555 1_555
B2 O3 1_555 1_555
H23 C26 1_555 1_555
H24 C26 1_555 1_555
H25 C26 1_555 1_555
H26 C30 1_555 1_555
H27 C31 1_555 1_555
H28 C33 1_555 1_555
H29 C34 1_555 1_555
H30 C36 1_555 1_555
H31 C37 1_555 1_555
H32 C38 1_555 1_555
H33 C38 1_555 1_555
H34 C38 1_555 1_555
H35 C40 1_555 1_555
H36 C41 1_555 1_555
H37 C42 1_555 1_555
H38 C43 1_555 1_555
H39 C44 1_555 1_555
H40 C46 1_555 1_555
H41 C47 1_555 1_555
H42 C48 1_555 1_555
H43 C49 1_555 1_555
H44 C50 1_555 1_555
O5 C51 1_555 1_555
C51 C52 1_555 1_555
C52 H45 1_555 1_555
C53 C51 1_555 1_555
H46 C52 1_555 1_555
H47 C52 1_555 1_555
H48 C53 1_555 1_555
H49 C53 1_555 1_555
H50 C53 1_555 1_555
O2 B1 1_555 1_555
C11 C12 1_555 1_555
C14 B1 1_555 1_555
C20 B1 1_555 1_555
O4 B2 1_555 1_555
C36 C37 1_555 1_555
C39 B2 1_555 1_555
C45 B2 1_555 1_555

#END
