
#######################################################################
#
#                 Cambridge Crystallographic Data Centre
#                                CCDC 
#
#######################################################################
#
# If this CIF has been generated from an entry in the Cambridge 
# Structural Database, then it will include bibliographic, chemical, 
# crystal, experimental, refinement or atomic coordinate data resulting 
# from the CCDC's data processing and validation procedures.
#
#######################################################################

data_TAKSAC
_chemical_formula_moiety         'C19 H26 N2 O4,0.5(C1 H4 O1)'
_chemical_name_systematic        
'6,8-bis(hydroxyimino)-10a,12a-dimethyl-1,4,4a,4b,5,6,8,9,10,10a,10b,11,12,12a-tetradecahydro-3H-naphtho[2,1-f]isochromen-3-one methanol solvate'
_symmetry_cell_setting           monoclinic
_symmetry_space_group_name_H-M   'P 21'
_symmetry_Int_Tables_number      4
_space_group_name_Hall           'P 2yb'
loop_
_symmetry_equiv_pos_site_id
_symmetry_equiv_pos_as_xyz
1 x,y,z
2 -x,1/2+y,-z
_cell_length_a                   11.2815(5)
_cell_length_b                   13.1512(4)
_cell_length_c                   13.7145(8)
_cell_angle_alpha                90
_cell_angle_beta                 110.890(5)
_cell_angle_gamma                90
_cell_volume                     1901
_exptl_crystal_colour            colorless
_exptl_crystal_description       plate
_cell_formula_units_Z            4
loop_
_atom_site_label
_atom_site_type_symbol
_atom_site_fract_x
_atom_site_fract_y
_atom_site_fract_z
O1 O -0.0018(2) 0.47873(18) 0.6870(2)
O2 O -0.4870(2) 0.8730(2) 0.5226(2)
N1 N 0.1021(2) 0.5404(2) 0.6959(2)
O3 O 0.6052(2) 0.7837(2) 0.7957(3)
O4 O -0.5572(2) 0.7188(2) 0.4833(3)
C1 C 0.1726(3) 0.7084(2) 0.6900(2)
C2 C 0.0692(3) 0.6343(2) 0.6777(2)
N2 N 0.5126(2) 0.7138(2) 0.7985(2)
C3 C 0.2941(3) 0.6829(3) 0.7441(3)
C4 C -0.2653(3) 0.9125(3) 0.5416(2)
C5 C -0.2260(3) 0.8099(2) 0.5972(2)
H1 H -0.2130 0.8212 0.6709
C6 C 0.0073(3) 0.8486(2) 0.6390(2)
H2 H 0.0193 0.8559 0.7130
C7 C 0.1299(3) 0.7949(3) 0.5215(3)
H3 H 0.2112 0.7729 0.5218
H4 H 0.1072 0.8578 0.4838
H5 H 0.0673 0.7442 0.4883
C8 C 0.1364(2) 0.8106(2) 0.6340(2)
C9 C -0.2966(3) 0.9072(3) 0.4240(3)
H6 H -0.3629 0.8583 0.3941
H7 H -0.2224 0.8871 0.4100
H8 H -0.3243 0.9728 0.3937
C10 C -0.0991(2) 0.7702(2) 0.5931(2)
H9 H -0.1095 0.7586 0.5199
C11 C 0.2391(3) 0.8886(3) 0.6905(3)
H10 H 0.2221 0.9514 0.6508
H11 H 0.2341 0.9030 0.7583
C12 C -0.0321(3) 0.9536(2) 0.5886(3)
H12 H 0.0329 1.0028 0.6243
H13 H -0.0379 0.9506 0.5163
C13 C -0.3331(3) 0.7320(3) 0.5560(3)
H14 H -0.3216 0.6957 0.4984
H15 H -0.3247 0.6829 0.6108
C14 C -0.4669(3) 0.7739(3) 0.5189(3)
C15 C 0.3998(3) 0.7493(2) 0.7523(2)
C16 C 0.3738(3) 0.8530(3) 0.7057(3)
H16 H 0.3849 0.8526 0.6387
H17 H 0.4345 0.9005 0.7509
C17 C -0.1596(3) 0.9892(3) 0.5927(3)
H18 H -0.1514 0.9989 0.6649
H19 H -0.1819 1.0541 0.5573
C18 C -0.0659(3) 0.6693(3) 0.6510(3)
H20 H -0.0831 0.6750 0.7152
H21 H -0.1218 0.6174 0.6087
C19 C -0.3836(3) 0.9449(3) 0.5644(3)
H22 H -0.3621 0.9506 0.6392
H23 H -0.4110 1.0114 0.5339
H24 H 0.311(3) 0.619(3) 0.773(2)
H25 H 0.677(4) 0.758(4) 0.841(3)
H26 H 0.036(4) 0.422(4) 0.715(3)
O5 O 0.6044(2) 0.51741(19) 0.8752(2)
N3 N 0.4999(2) 0.4518(2) 0.8443(2)
O6 O -0.0098(2) 0.2154(2) 0.7391(2)
O7 O 1.0854(2) 0.1211(2) 1.0718(2)
N4 N 0.0854(2) 0.2898(2) 0.7635(2)
C20 C 0.7561(3) 0.0107(2) 1.0081(3)
H27 H 0.7741 -0.0606 1.0014
H28 H 0.7610 0.0222 1.0793
C21 C 0.8552(3) 0.0759(2) 0.9859(2)
O8 O 1.1536(2) 0.2730(3) 1.0627(3)
C22 C 0.5892(3) 0.1485(2) 0.9366(2)
H29 H 0.5849 0.1612 1.0056
C23 C 0.4554(3) 0.1738(2) 0.8548(2)
C24 C 0.6225(3) 0.0351(2) 0.9335(3)
H30 H 0.5620 -0.0058 0.9518
H31 H 0.6155 0.0172 0.8630
C25 C 0.4250(3) 0.2871(2) 0.8567(2)
C26 C 0.6919(3) 0.2193(2) 0.9259(2)
H32 H 0.6899 0.2153 0.8540
C27 C 0.4463(3) 0.1490(3) 0.7432(3)
H33 H 0.3624 0.1642 0.6956
H34 H 0.4638 0.0781 0.7384
H35 H 0.5070 0.1890 0.7257
C28 C 0.9830(3) 0.0521(3) 1.0696(3)
H36 H 0.9737 0.0540 1.1372
H37 H 1.0072 -0.0166 1.0589
C29 C 0.5292(3) 0.3614(2) 0.8811(2)
C30 C 0.8608(3) 0.0522(3) 0.8782(3)
H38 H 0.9344 0.0838 0.8719
H39 H 0.7859 0.0779 0.8250
H40 H 0.8657 -0.0201 0.8704
C31 C 0.1970(3) 0.2501(3) 0.8025(3)
C32 C 0.3040(3) 0.3188(2) 0.8300(3)
C33 C 0.8253(3) 0.1879(2) 1.0001(2)
H41 H 0.8270 0.1955 1.0717
C34 C 0.3559(3) 0.1134(3) 0.8844(3)
H42 H 0.3706 0.0413 0.8789
H43 H 0.3675 0.1276 0.9567
C35 C 0.2189(3) 0.1380(3) 0.8163(3)
H44 H 0.1994 0.1064 0.7484
H45 H 0.1620 0.1096 0.8482
C36 C 0.6622(3) 0.3291(2) 0.9475(3)
H46 H 0.6727 0.3356 1.0205
H47 H 0.7225 0.3745 0.9341
C37 C 1.0635(3) 0.2177(3) 1.0452(3)
C38 C 0.9303(3) 0.2554(3) 0.9892(3)
H48 H 0.9170 0.2621 0.9156
H49 H 0.9225 0.3226 1.0154
H50 H 0.286(3) 0.390(3) 0.825(2)
H51 H 0.573(4) 0.572(4) 0.847(3)
H52 H -0.081(4) 0.250(4) 0.723(3)
O9 O -0.2404(2) 0.3025(3) 0.6862(3)
C39 C -0.2716(4) 0.4037(5) 0.6999(4)
H53 H -0.2139 0.4289 0.7653
H54 H -0.3567 0.4065 0.6998
H55 H -0.2655 0.4448 0.6441
H56 H -0.301(5) 0.282(5) 0.631(4)
loop_
_geom_bond_atom_site_label_1
_geom_bond_atom_site_label_2
_geom_bond_site_symmetry_1
_geom_bond_site_symmetry_2
O1 N1 1_555 1_555
O2 C14 1_555 1_555
N1 C2 1_555 1_555
O3 N2 1_555 1_555
O4 C14 1_555 1_555
C1 C2 1_555 1_555
C2 C18 1_555 1_555
N2 C15 1_555 1_555
C3 C1 1_555 1_555
C4 C5 1_555 1_555
C5 H1 1_555 1_555
C6 H2 1_555 1_555
C7 H3 1_555 1_555
H4 C7 1_555 1_555
H5 C7 1_555 1_555
C8 C1 1_555 1_555
C9 C4 1_555 1_555
H6 C9 1_555 1_555
H7 C9 1_555 1_555
H8 C9 1_555 1_555
C10 C5 1_555 1_555
H9 C10 1_555 1_555
C11 C8 1_555 1_555
H10 C11 1_555 1_555
H11 C11 1_555 1_555
C12 C6 1_555 1_555
H12 C12 1_555 1_555
H13 C12 1_555 1_555
C13 C5 1_555 1_555
H14 C13 1_555 1_555
H15 C13 1_555 1_555
C14 C13 1_555 1_555
C15 C3 1_555 1_555
C16 C11 1_555 1_555
H16 C16 1_555 1_555
H17 C16 1_555 1_555
C17 C4 1_555 1_555
H18 C17 1_555 1_555
H19 C17 1_555 1_555
C18 C10 1_555 1_555
H20 C18 1_555 1_555
H21 C18 1_555 1_555
C19 O2 1_555 1_555
H22 C19 1_555 1_555
H23 C19 1_555 1_555
H24 C3 1_555 1_555
H25 O3 1_555 1_555
H26 O1 1_555 1_555
O5 N3 1_555 1_555
N3 C29 1_555 1_555
O6 N4 1_555 1_555
O7 C28 1_555 1_555
N4 C31 1_555 1_555
C20 H27 1_555 1_555
H28 C20 1_555 1_555
C21 C20 1_555 1_555
O8 C37 1_555 1_555
C22 H29 1_555 1_555
C23 C22 1_555 1_555
C24 C20 1_555 1_555
H30 C24 1_555 1_555
H31 C24 1_555 1_555
C25 C23 1_555 1_555
C26 C22 1_555 1_555
H32 C26 1_555 1_555
C27 C23 1_555 1_555
H33 C27 1_555 1_555
H34 C27 1_555 1_555
H35 C27 1_555 1_555
C28 C21 1_555 1_555
H36 C28 1_555 1_555
H37 C28 1_555 1_555
C29 C25 1_555 1_555
C30 C21 1_555 1_555
H38 C30 1_555 1_555
H39 C30 1_555 1_555
H40 C30 1_555 1_555
C31 C32 1_555 1_555
C32 C25 1_555 1_555
C33 C21 1_555 1_555
H41 C33 1_555 1_555
C34 C23 1_555 1_555
H42 C34 1_555 1_555
H43 C34 1_555 1_555
C35 C31 1_555 1_555
H44 C35 1_555 1_555
H45 C35 1_555 1_555
C36 C26 1_555 1_555
H46 C36 1_555 1_555
H47 C36 1_555 1_555
C37 O7 1_555 1_555
C38 C33 1_555 1_555
H48 C38 1_555 1_555
H49 C38 1_555 1_555
H50 C32 1_555 1_555
H51 O5 1_555 1_555
H52 O6 1_555 1_555
O9 C39 1_555 1_555
C39 H53 1_555 1_555
H54 C39 1_555 1_555
H55 C39 1_555 1_555
H56 O9 1_555 1_555
C4 C19 1_555 1_555
C6 C8 1_555 1_555
C6 C10 1_555 1_555
C7 C8 1_555 1_555
C12 C17 1_555 1_555
C15 C16 1_555 1_555
C22 C24 1_555 1_555
C26 C33 1_555 1_555
C29 C36 1_555 1_555
C34 C35 1_555 1_555
C37 C38 1_555 1_555

#END
