
#######################################################################
#
#                 Cambridge Crystallographic Data Centre
#                                CCDC 
#
#######################################################################
#
# If this CIF has been generated from an entry in the Cambridge 
# Structural Database, then it will include bibliographic, chemical, 
# crystal, experimental, refinement or atomic coordinate data resulting 
# from the CCDC's data processing and validation procedures.
#
#######################################################################

data_TAMFEU
_chemical_formula_moiety         'C32 H38 N2 O2'
_chemical_name_systematic        
2,2,7,7,13,13,18,18-Octamethyl-24,26-diazapentacyclo[17.3.1.1^3,6^.1^8,12^.1^14,17^]hexacosa-1(23),3,5,8(25),9,11,14,16,19,21-decaene-10,21-diol
_symmetry_cell_setting           monoclinic
_symmetry_space_group_name_H-M   'P 21/n'
_symmetry_Int_Tables_number      14
_space_group_name_Hall           '-P 2yn'
loop_
_symmetry_equiv_pos_site_id
_symmetry_equiv_pos_as_xyz
1 x,y,z
2 1/2-x,1/2+y,1/2-z
3 -x,-y,-z
4 1/2+x,1/2-y,1/2+z
_cell_length_a                   7.3075(2)
_cell_length_b                   17.5050(4)
_cell_length_c                   9.9498(3)
_cell_angle_alpha                90
_cell_angle_beta                 91.307(1)
_cell_angle_gamma                90
_cell_volume                     1272.43
_exptl_crystal_colour            'light brown'
_exptl_crystal_description       prisms
_cell_formula_units_Z            2
loop_
_atom_site_label
_atom_site_type_symbol
_atom_site_fract_x
_atom_site_fract_y
_atom_site_fract_z
O1 O 1.23114(13) 0.56528(7) 0.54408(12)
N1 N 0.51532(15) 0.55788(6) 0.28805(11)
C1 C 0.36745(17) 0.53086(7) 0.21351(13)
C2 C 0.26802(19) 0.59341(8) 0.17174(14)
C3 C 0.35775(19) 0.65984(8) 0.22200(14)
C4 C 0.51068(18) 0.63717(7) 0.29332(13)
C5 C 0.66942(18) 0.68499(7) 0.34781(13)
C6 C 0.77439(17) 0.64285(7) 0.46004(13)
C7 C 0.68354(18) 0.62140(7) 0.57705(13)
C8 C 0.77336(17) 0.58242(7) 0.68100(13)
C9 C 0.95917(18) 0.56440(8) 0.66773(14)
C10 C 1.04907(18) 0.58576(8) 0.55296(14)
C11 C 0.95892(18) 0.62487(8) 0.44966(14)
C12 C 0.67101(18) 0.55383(7) 0.80565(13)
C13 C 0.7914(2) 0.70326(9) 0.22720(15)
C14 C 0.5968(2) 0.76087(8) 0.40286(16)
C15 C 0.4934(2) 0.59787(8) 0.82817(16)
C16 C 0.7913(2) 0.56416(10) 0.93337(15)
H1 H 0.606(2) 0.5282(10) 0.3312(17)
H2 H 0.152(2) 0.5926(9) 0.1176(17)
H3 H 0.322(2) 0.7131(11) 0.2060(18)
H4 H 0.554(2) 0.6339(9) 0.5862(15)
H5 H 1.026(2) 0.5348(9) 0.7378(17)
H6 H 1.027(2) 0.6382(10) 0.3700(17)
H7 H 0.838(2) 0.6539(10) 0.1847(18)
H8 H 0.712(2) 0.7306(9) 0.1629(16)
H9 H 0.900(2) 0.7358(10) 0.2568(17)
H10 H 0.505(2) 0.7503(9) 0.4735(17)
H11 H 0.699(2) 0.7923(10) 0.4370(17)
H12 H 0.533(3) 0.7900(11) 0.333(2)
H13 H 0.401(2) 0.5929(10) 0.7528(19)
H14 H 0.432(2) 0.5799(10) 0.9088(19)
H15 H 0.528(2) 0.6532(10) 0.8439(17)
H16 H 0.726(2) 0.5481(10) 1.0105(18)
H17 H 0.905(2) 0.5371(10) 0.9287(18)
H18 H 0.817(2) 0.6194(11) 0.9494(18)
H19 H 1.265(4) 0.5776(16) 0.463(3)
O1B O -0.23114(13) 0.43472(7) 0.45592(12)
N1B N 0.48468(15) 0.44212(6) 0.71195(11)
C1B C 0.63255(17) 0.46914(7) 0.78649(13)
C2B C 0.73198(19) 0.40659(8) 0.82826(14)
C3B C 0.64225(19) 0.34016(8) 0.77800(14)
C4B C 0.48932(18) 0.36283(7) 0.70668(13)
C5B C 0.33058(18) 0.31501(7) 0.65219(13)
C6B C 0.22561(17) 0.35715(7) 0.53996(13)
C7B C 0.31646(18) 0.37860(7) 0.42295(13)
C8B C 0.22664(17) 0.41758(7) 0.31900(13)
C9B C 0.04083(18) 0.43560(8) 0.33227(14)
C10B C -0.04907(18) 0.41424(8) 0.44704(14)
C11B C 0.04108(18) 0.37513(8) 0.55034(14)
C12B C 0.32899(18) 0.44617(7) 0.19435(13)
C13B C 0.2086(2) 0.29674(9) 0.77280(15)
C14B C 0.4032(2) 0.23913(8) 0.59714(16)
C15B C 0.5066(2) 0.40213(8) 0.17183(16)
C16B C 0.2087(2) 0.43584(10) 0.06663(15)
H1B H 0.394(2) 0.4718(10) 0.6688(17)
H2B H 0.848(2) 0.4074(9) 0.8824(17)
H3B H 0.678(2) 0.2869(11) 0.7940(18)
H4B H 0.446(2) 0.3661(9) 0.4138(15)
H5B H -0.026(2) 0.4652(9) 0.2622(17)
H6B H -0.027(2) 0.3618(10) 0.6300(17)
H7B H 0.162(2) 0.3461(10) 0.8153(18)
H8B H 0.288(2) 0.2694(9) 0.8371(16)
H9B H 0.100(2) 0.2642(10) 0.7432(17)
H10B H 0.495(2) 0.2497(9) 0.5265(17)
H11B H 0.301(2) 0.2077(10) 0.5630(17)
H12B H 0.467(3) 0.2100(11) 0.667(2)
H13B H 0.599(2) 0.4071(10) 0.2472(19)
H14B H 0.568(2) 0.4201(10) 0.0912(19)
H15B H 0.472(2) 0.3468(10) 0.1561(17)
H16B H 0.274(2) 0.4519(10) -0.0105(18)
H17B H 0.095(2) 0.4629(10) 0.0713(18)
H18B H 0.183(2) 0.3806(11) 0.0506(18)
H19B H -0.265(4) 0.4224(16) 0.537(3)
loop_
_geom_bond_atom_site_label_1
_geom_bond_atom_site_label_2
_geom_bond_site_symmetry_1
_geom_bond_site_symmetry_2
O1 C10 1_555 1_555
N1 C1 1_555 1_555
C1 C2 1_555 1_555
C2 C3 1_555 1_555
C3 C4 1_555 1_555
C4 N1 1_555 1_555
C5 C4 1_555 1_555
C6 C5 1_555 1_555
C7 C6 1_555 1_555
C8 C7 1_555 1_555
C9 C8 1_555 1_555
C10 C9 1_555 1_555
C11 C6 1_555 1_555
C12 C8 1_555 1_555
C13 C5 1_555 1_555
C14 C5 1_555 1_555
C15 C12 1_555 1_555
C16 C12 1_555 1_555
H1 N1 1_555 1_555
H2 C2 1_555 1_555
H3 C3 1_555 1_555
H4 C7 1_555 1_555
H5 C9 1_555 1_555
H6 C11 1_555 1_555
H7 C13 1_555 1_555
H8 C13 1_555 1_555
H9 C13 1_555 1_555
H10 C14 1_555 1_555
H11 C14 1_555 1_555
H12 C14 1_555 1_555
H13 C15 1_555 1_555
H14 C15 1_555 1_555
H15 C15 1_555 1_555
H16 C16 1_555 1_555
H17 C16 1_555 1_555
H18 C16 1_555 1_555
H19 O1 1_555 1_555
O1B C10B 1_555 1_555
N1B C1B 1_555 1_555
C1B C12 1_555 1_555
C2B C1B 1_555 1_555
C3B C2B 1_555 1_555
C4B N1B 1_555 1_555
C5B C4B 1_555 1_555
C6B C5B 1_555 1_555
C7B C6B 1_555 1_555
C8B C7B 1_555 1_555
C9B C8B 1_555 1_555
C10B C9B 1_555 1_555
C11B C6B 1_555 1_555
C12B C1 1_555 1_555
C13B C5B 1_555 1_555
C14B C5B 1_555 1_555
C15B C12B 1_555 1_555
C16B C12B 1_555 1_555
H1B N1B 1_555 1_555
H2B C2B 1_555 1_555
H3B C3B 1_555 1_555
H4B C7B 1_555 1_555
H5B C9B 1_555 1_555
H6B C11B 1_555 1_555
H7B C13B 1_555 1_555
H8B C13B 1_555 1_555
H9B C13B 1_555 1_555
H10B C14B 1_555 1_555
H11B C14B 1_555 1_555
H12B C14B 1_555 1_555
H13B C15B 1_555 1_555
H14B C15B 1_555 1_555
H15B C15B 1_555 1_555
H16B C16B 1_555 1_555
H17B C16B 1_555 1_555
H18B C16B 1_555 1_555
H19B O1B 1_555 1_555
C10 C11 1_555 1_555
C3B C4B 1_555 1_555
C8B C12B 1_555 1_555
C10B C11B 1_555 1_555

#END
