
#######################################################################
#
#                 Cambridge Crystallographic Data Centre
#                                CCDC 
#
#######################################################################
#
# If this CIF has been generated from an entry in the Cambridge 
# Structural Database, then it will include bibliographic, chemical, 
# crystal, experimental, refinement or atomic coordinate data resulting 
# from the CCDC's data processing and validation procedures.
#
#######################################################################

data_TAMGAQ
_chemical_formula_moiety         'C27 H33 N1 O4 S1'
_chemical_name_systematic        
7\a-((S)-1-Hydroxy-1-(2-thienyl)ethyl)-6,14-endoethanotetrahydrothebaine
_chemical_properties_biological  'analgesic activity in mice'
_symmetry_cell_setting           orthorhombic
_symmetry_space_group_name_H-M   'P 21 21 21'
_symmetry_Int_Tables_number      19
_space_group_name_Hall           'P 2ac 2ab'
loop_
_symmetry_equiv_pos_site_id
_symmetry_equiv_pos_as_xyz
1 x,y,z
2 1/2-x,-y,1/2+z
3 -x,1/2+y,1/2-z
4 1/2+x,1/2-y,-z
_cell_length_a                   12.840(3)
_cell_length_b                   15.845(5)
_cell_length_c                   23.296(7)
_cell_angle_alpha                90
_cell_angle_beta                 90
_cell_angle_gamma                90
_cell_volume                     4739.57
_exptl_crystal_colour            colorless
_chemical_melting_point          216-218deg.C
_cell_formula_units_Z            8
_exptl_crystal_recrystallization_method methanol
loop_
_atom_site_label
_atom_site_type_symbol
_atom_site_fract_x
_atom_site_fract_y
_atom_site_fract_z
S1 S 0.47914(8) 0.66451(7) 0.60460(5)
O1 O 0.55920(16) 0.50694(14) 0.64063(10)
H1 H 0.6023 0.4691 0.6373
O2 O 0.75017(15) 0.44408(12) 0.65535(9)
O3 O 0.97438(14) 0.49355(12) 0.62903(8)
O4 O 1.17487(17) 0.42571(16) 0.65145(10)
N1 N 0.89465(18) 0.81678(15) 0.66617(11)
C1 C 0.7966(2) 0.52246(18) 0.67198(12)
C2 C 0.7112(2) 0.59290(17) 0.66445(12)
H2 H 0.7093 0.6044 0.6231
C3 C 0.7489(2) 0.67617(18) 0.69217(12)
H3 H 0.7319 0.7234 0.6674
H4 H 0.7142 0.6845 0.7287
C4 C 0.8676(2) 0.67206(18) 0.70137(11)
C5 C 0.9208(2) 0.63897(18) 0.64648(11)
C6 C 0.8827(2) 0.54930(18) 0.62945(12)
H5 H 0.8532 0.5515 0.5907
C7 C 0.8432(2) 0.5204(2) 0.73254(12)
H6 H 0.9007 0.4807 0.7335
H7 H 0.7908 0.5011 0.7595
C8 C 0.8822(2) 0.60830(19) 0.75080(12)
H8 H 0.9554 0.6051 0.7610
H9 H 0.8438 0.6272 0.7843
C9 C 0.9204(2) 0.75848(19) 0.71329(12)
H10 H 0.8891 0.7814 0.7484
C10 C 1.0401(2) 0.7496(2) 0.72441(13)
H11 H 1.0744 0.8003 0.7106
H12 H 1.0515 0.7465 0.7655
C11 C 1.0914(2) 0.6741(2) 0.69670(12)
C12 C 1.1891(2) 0.6426(2) 0.71130(14)
H13 H 1.2339 0.6758 0.7331
C13 C 1.2212(2) 0.5627(2) 0.69410(15)
H14 H 1.2889 0.5454 0.7021
C14 C 1.1545(2) 0.5078(2) 0.66516(13)
C15 C 1.0566(2) 0.5406(2) 0.65081(12)
C16 C 1.0308(2) 0.62260(18) 0.66238(11)
C17 C 0.9065(2) 0.70218(18) 0.59648(12)
H15 H 0.9455 0.6826 0.5634
H16 H 0.8335 0.7044 0.5859
C18 C 0.9429(2) 0.7896(2) 0.61238(13)
H17 H 1.0181 0.7897 0.6166
H18 H 0.9248 0.8288 0.5820
C19 C 0.9210(3) 0.9048(2) 0.67921(16)
H19 H 0.9953 0.9110 0.6807
H20 H 0.8915 0.9202 0.7156
H21 H 0.8933 0.9409 0.6498
C20 C 0.8112(3) 0.3694(2) 0.6586(2)
H22 H 0.8797 0.3806 0.6439
H23 H 0.7790 0.3258 0.6362
H24 H 0.8162 0.3515 0.6979
C21 C 1.2745(3) 0.3933(3) 0.6647(2)
H25 H 1.3269 0.4284 0.6475
H26 H 1.2806 0.3369 0.6499
H27 H 1.2838 0.3925 0.7056
C22 C 0.5971(2) 0.5687(2) 0.68053(13)
C23 C 0.5842(3) 0.5352(2) 0.74156(15)
H28 H 0.5115 0.5300 0.7503
H29 H 0.6162 0.5736 0.7681
H30 H 0.6170 0.4809 0.7446
C24 C 0.5271(2) 0.6442(2) 0.67109(13)
C25 C 0.4958(2) 0.7079(2) 0.70963(15)
H31 H 0.5123 0.7091 0.7485
C26 C 0.4360(3) 0.7694(3) 0.6810(2)
H32 H 0.4092 0.8167 0.6995
C27 C 0.4210(3) 0.7543(3) 0.6258(2)
H33 H 0.3828 0.7892 0.6016
S2 S -0.25259(8) 0.52163(7) 0.38678(4)
O5 O -0.00007(14) 0.28092(12) 0.37263(9)
O6 O -0.19416(15) 0.34050(14) 0.37376(9)
H34 H -0.1490 0.3100 0.3599
O7 O 0.22524(14) 0.34902(12) 0.36340(8)
O8 O 0.43644(15) 0.29006(14) 0.36699(9)
N2 N 0.12148(19) 0.62744(15) 0.47505(11)
C28 C 0.0449(2) 0.34640(17) 0.40805(11)
C29 C -0.0446(2) 0.41152(17) 0.41758(11)
H35 H -0.0484 0.4438 0.3818
C30 C -0.0122(2) 0.47658(17) 0.46405(11)
H36 H -0.0327 0.5329 0.4522
H37 H -0.0469 0.4637 0.5000
C31 C 0.1052(2) 0.47299(17) 0.47223(11)
C32 C 0.1598(2) 0.47324(17) 0.41291(11)
C33 C 0.1292(2) 0.39664(17) 0.37578(12)
H38 H 0.0999 0.4171 0.3395
C34 C 0.0915(2) 0.31408(18) 0.46431(13)
H39 H 0.1511 0.2785 0.4561
H40 H 0.0402 0.2803 0.4845
C35 C 0.1257(2) 0.38866(18) 0.50277(12)
H41 H 0.0874 0.3870 0.5387
H42 H 0.1993 0.3836 0.5115
C36 C 0.1521(2) 0.54953(19) 0.50486(12)
H43 H 0.1193 0.5509 0.5428
C37 C 0.2710(2) 0.5408(2) 0.51475(13)
H44 H 0.3013 0.5969 0.5157
H45 H 0.2822 0.5155 0.5521
C38 C 0.3287(2) 0.4890(2) 0.47037(13)
C39 C 0.4284(2) 0.4596(2) 0.47713(14)
H46 H 0.4700 0.4813 0.5063
C40 C 0.4682(2) 0.3973(2) 0.44074(14)
H47 H 0.5379 0.3822 0.4439
C41 C 0.4064(2) 0.35734(19) 0.40003(13)
C42 C 0.3047(2) 0.38682(18) 0.39402(12)
C43 C 0.2720(2) 0.45629(18) 0.42473(11)
C44 C 0.1407(2) 0.55707(18) 0.38210(12)
H48 H 0.1816 0.5583 0.3471
H49 H 0.0678 0.5606 0.3714
C45 C 0.1684(3) 0.63269(19) 0.41813(13)
H50 H 0.2435 0.6362 0.4219
H51 H 0.1444 0.6836 0.3991
C46 C 0.1468(3) 0.7035(2) 0.50842(15)
H52 H 0.1271 0.6952 0.5478
H53 H 0.1096 0.7509 0.4930
H54 H 0.2203 0.7141 0.5063
C47 C 0.0566(3) 0.2059(2) 0.36169(19)
H55 H 0.1162 0.2188 0.3384
H56 H 0.0128 0.1664 0.3419
H57 H 0.0791 0.1818 0.3974
C48 C 0.5362(2) 0.2560(2) 0.37727(13)
H58 H 0.5883 0.2967 0.3669
H59 H 0.5453 0.2059 0.3547
H60 H 0.5430 0.2424 0.4172
C49 C -0.1572(2) 0.37553(19) 0.42684(13)
C50 C -0.1654(3) 0.3090(2) 0.47403(17)
H61 H -0.2375 0.2979 0.4821
H62 H -0.1317 0.3292 0.5081
H63 H -0.1323 0.2579 0.4615
C51 C -0.2272(2) 0.4493(2) 0.43976(13)
C52 C -0.2695(2) 0.4753(2) 0.49148(14)
H64 H -0.2659 0.4446 0.5255
C53 C -0.3193(3) 0.5550(3) 0.4858(2)
H65 H -0.3517 0.5825 0.5162
C54 C -0.3154(3) 0.5864(3) 0.4332(2)
H66 H -0.3439 0.6382 0.4228
loop_
_geom_bond_atom_site_label_1
_geom_bond_atom_site_label_2
_geom_bond_site_symmetry_1
_geom_bond_site_symmetry_2
S1 C24 1_555 1_555
O1 H1 1_555 1_555
O2 C1 1_555 1_555
O3 C6 1_555 1_555
O4 C14 1_555 1_555
N1 C9 1_555 1_555
C1 C2 1_555 1_555
C2 H2 1_555 1_555
C3 C2 1_555 1_555
H3 C3 1_555 1_555
H4 C3 1_555 1_555
C4 C3 1_555 1_555
C5 C4 1_555 1_555
C6 C1 1_555 1_555
H5 C6 1_555 1_555
C7 C1 1_555 1_555
H6 C7 1_555 1_555
H7 C7 1_555 1_555
C8 C4 1_555 1_555
H8 C8 1_555 1_555
H9 C8 1_555 1_555
C9 C4 1_555 1_555
H10 C9 1_555 1_555
C10 C9 1_555 1_555
H11 C10 1_555 1_555
H12 C10 1_555 1_555
C11 C10 1_555 1_555
C12 C11 1_555 1_555
H13 C12 1_555 1_555
C13 C12 1_555 1_555
H14 C13 1_555 1_555
C14 C13 1_555 1_555
C15 O3 1_555 1_555
C16 C5 1_555 1_555
C17 C5 1_555 1_555
H15 C17 1_555 1_555
H16 C17 1_555 1_555
C18 N1 1_555 1_555
H17 C18 1_555 1_555
H18 C18 1_555 1_555
C19 N1 1_555 1_555
H19 C19 1_555 1_555
H20 C19 1_555 1_555
H21 C19 1_555 1_555
C20 O2 1_555 1_555
H22 C20 1_555 1_555
H23 C20 1_555 1_555
H24 C20 1_555 1_555
C21 O4 1_555 1_555
H25 C21 1_555 1_555
H26 C21 1_555 1_555
H27 C21 1_555 1_555
C22 O1 1_555 1_555
C23 C22 1_555 1_555
H28 C23 1_555 1_555
H29 C23 1_555 1_555
H30 C23 1_555 1_555
C24 C22 1_555 1_555
C25 C24 1_555 1_555
H31 C25 1_555 1_555
C26 C25 1_555 1_555
H32 C26 1_555 1_555
C27 S1 1_555 1_555
H33 C27 1_555 1_555
S2 C51 1_555 1_555
O5 C28 1_555 1_555
O6 H34 1_555 1_555
O7 C33 1_555 1_555
O8 C41 1_555 1_555
N2 C36 1_555 1_555
C28 C29 1_555 1_555
C29 H35 1_555 1_555
C30 C29 1_555 1_555
H36 C30 1_555 1_555
H37 C30 1_555 1_555
C31 C30 1_555 1_555
C32 C31 1_555 1_555
C33 C28 1_555 1_555
H38 C33 1_555 1_555
C34 C28 1_555 1_555
H39 C34 1_555 1_555
H40 C34 1_555 1_555
C35 C31 1_555 1_555
H41 C35 1_555 1_555
H42 C35 1_555 1_555
C36 C31 1_555 1_555
H43 C36 1_555 1_555
C37 C36 1_555 1_555
H44 C37 1_555 1_555
H45 C37 1_555 1_555
C38 C37 1_555 1_555
C39 C38 1_555 1_555
H46 C39 1_555 1_555
C40 C39 1_555 1_555
H47 C40 1_555 1_555
C41 C40 1_555 1_555
C42 O7 1_555 1_555
C43 C32 1_555 1_555
C44 C32 1_555 1_555
H48 C44 1_555 1_555
H49 C44 1_555 1_555
C45 N2 1_555 1_555
H50 C45 1_555 1_555
H51 C45 1_555 1_555
C46 N2 1_555 1_555
H52 C46 1_555 1_555
H53 C46 1_555 1_555
H54 C46 1_555 1_555
C47 O5 1_555 1_555
H55 C47 1_555 1_555
H56 C47 1_555 1_555
H57 C47 1_555 1_555
C48 O8 1_555 1_555
H58 C48 1_555 1_555
H59 C48 1_555 1_555
H60 C48 1_555 1_555
C49 O6 1_555 1_555
C50 C49 1_555 1_555
H61 C50 1_555 1_555
H62 C50 1_555 1_555
H63 C50 1_555 1_555
C51 C49 1_555 1_555
C52 C51 1_555 1_555
H64 C52 1_555 1_555
C53 C52 1_555 1_555
H65 C53 1_555 1_555
C54 S2 1_555 1_555
H66 C54 1_555 1_555
C2 C22 1_555 1_555
C5 C6 1_555 1_555
C7 C8 1_555 1_555
C11 C16 1_555 1_555
C14 C15 1_555 1_555
C15 C16 1_555 1_555
C17 C18 1_555 1_555
C26 C27 1_555 1_555
C29 C49 1_555 1_555
C32 C33 1_555 1_555
C34 C35 1_555 1_555
C38 C43 1_555 1_555
C41 C42 1_555 1_555
C42 C43 1_555 1_555
C44 C45 1_555 1_555
C53 C54 1_555 1_555

#END
