
#######################################################################
#
#                 Cambridge Crystallographic Data Centre
#                                CCDC 
#
#######################################################################
#
# If this CIF has been generated from an entry in the Cambridge 
# Structural Database, then it will include bibliographic, chemical, 
# crystal, experimental, refinement or atomic coordinate data resulting 
# from the CCDC's data processing and validation procedures.
#
#######################################################################

data_TAMHEW
_chemical_formula_moiety         'C80 H26 N2 O5,3(C7 H8)'
_chemical_name_systematic        
'(7-t-butyl-3-(4-t-butylphenylimino)-3,4,5,10-tetrahydro-1H-pyrano[3,4-b]quinolin-1-one)open-cage-C60fullerentetraone toluene solvate'
_symmetry_cell_setting           orthorhombic
_symmetry_space_group_name_H-M   'P b c a'
_symmetry_Int_Tables_number      61
_space_group_name_Hall           '-P 2ac 2ab'
loop_
_symmetry_equiv_pos_site_id
_symmetry_equiv_pos_as_xyz
1 x,y,z
2 1/2-x,-y,1/2+z
3 -x,1/2+y,1/2-z
4 1/2+x,1/2-y,-z
5 -x,-y,-z
6 1/2+x,y,1/2-z
7 x,1/2-y,1/2+z
8 1/2-x,1/2+y,z
_cell_length_a                   32.301(7)
_cell_length_b                   11.246(2)
_cell_length_c                   36.097(7)
_cell_angle_alpha                90
_cell_angle_beta                 90
_cell_angle_gamma                90
_cell_volume                     13112.5
_exptl_crystal_colour            black
_exptl_crystal_description       block
_cell_formula_units_Z            8
loop_
_atom_site_label
_atom_site_type_symbol
_atom_site_fract_x
_atom_site_fract_y
_atom_site_fract_z
C1 C 0.43695(5) 0.48062(12) 0.11588(4)
C2 C 0.40632(5) 0.54227(12) 0.09284(4)
C3 C 0.40937(4) 0.52830(12) 0.05353(4)
C4 C 0.44263(4) 0.46688(12) 0.03921(4)
C5 C 0.47880(5) 0.43616(12) 0.06221(4)
C6 C 0.37755(4) 0.57711(12) 0.02603(4)
C7 C 0.37326(4) 0.48592(12) -0.00574(4)
C8 C 0.40955(4) 0.43097(12) -0.01832(4)
C9 C 0.40950(5) 0.36455(13) -0.05099(4)
H1 H 0.4344 0.3298 -0.0598
C10 C 0.37301(5) 0.34964(13) -0.07048(5)
H2 H 0.3734 0.3059 -0.0930
C11 C 0.33559(5) 0.39741(13) -0.05786(4)
C12 C 0.33650(5) 0.46528(13) -0.02532(4)
H3 H 0.3114 0.4983 -0.0162
C13 C 0.29443(5) 0.37312(14) -0.07798(5)
C14 C 0.30098(6) 0.3356(2) -0.11829(6)
H4 H 0.3168 0.2614 -0.1190
H5 H 0.3162 0.3980 -0.1314
H6 H 0.2741 0.3235 -0.1302
C15 C 0.26655(5) 0.48414(16) -0.07800(5)
H7 H 0.2810 0.5499 -0.0903
H8 H 0.2601 0.5066 -0.0524
H9 H 0.2408 0.4666 -0.0913
C16 C 0.27191(6) 0.27375(16) -0.05716(6)
H10 H 0.2447 0.2605 -0.0684
H11 H 0.2684 0.2967 -0.0312
H12 H 0.2882 0.2004 -0.0586
C17 C 0.45474(5) 0.37166(13) 0.16981(4)
C18 C 0.49719(6) 0.35083(16) 0.16439(5)
H13 H 0.5120 0.3947 0.1462
C19 C 0.51756(6) 0.26587(16) 0.18572(5)
H14 H 0.5461 0.2518 0.1813
C20 C 0.49779(6) 0.20143(14) 0.21297(5)
C21 C 0.45613(6) 0.22760(14) 0.21989(5)
H15 H 0.4420 0.1872 0.2392
C22 C 0.43502(6) 0.31194(13) 0.19885(5)
H16 H 0.4069 0.3291 0.2043
C23 C 0.52058(6) 0.10701(16) 0.23622(5)
C24 C 0.56078(10) 0.0680(3) 0.21789(9)
H17 H 0.5817 0.1302 0.2210
H18 H 0.5560 0.0544 0.1914
H19 H 0.5705 -0.0057 0.2294
C25 C 0.52936(9) 0.15961(19) 0.27429(6)
H20 H 0.5446 0.1016 0.2893
H21 H 0.5032 0.1791 0.2865
H22 H 0.5460 0.2320 0.2715
C26 C 0.37214(5) 0.59965(12) 0.10816(4)
C27 C 0.49316(9) -0.00206(19) 0.24119(8)
H23 H 0.4839 -0.0303 0.2169
H24 H 0.4690 0.0190 0.2563
H25 H 0.5089 -0.0650 0.2536
C28 C 0.33602(4) 0.61474(12) 0.08433(4)
C29 C 0.33760(4) 0.60849(12) 0.04633(4)
C30 C 0.38434(4) 0.69899(12) 0.00528(4)
C31 C 0.41789(4) 0.77357(13) -0.00012(4)
C32 C 0.46019(4) 0.77281(13) 0.01801(4)
C33 C 0.47007(5) 0.90287(13) 0.02511(5)
C34 C 0.48715(4) 0.94997(13) 0.05701(5)
C35 C 0.50149(5) 0.88450(14) 0.09087(5)
C36 C 0.47863(5) 0.94564(14) 0.12226(5)
C37 C 0.45358(5) 0.89209(14) 0.14808(5)
C38 C 0.44219(5) 0.76093(14) 0.14743(4)
C39 C 0.39669(5) 0.75589(14) 0.15639(4)
C40 C 0.36699(5) 0.68294(13) 0.13935(4)
C41 C 0.32479(5) 0.73045(13) 0.13629(4)
C42 C 0.30647(4) 0.68991(13) 0.10261(4)
C43 C 0.27966(4) 0.76114(13) 0.08209(5)
C44 C 0.28435(4) 0.76604(13) 0.04261(5)
C45 C 0.31478(4) 0.69493(13) 0.02584(4)
C46 C 0.34290(4) 0.74776(13) -0.00075(4)
C47 C 0.33630(5) 0.86438(14) -0.01238(4)
C48 C 0.37101(5) 0.93978(13) -0.01874(4)
C49 C 0.41038(5) 0.89546(13) -0.01172(4)
C50 C 0.44127(5) 0.97236(13) 0.00397(5)
C51 C 0.43132(5) 1.08999(13) 0.01351(5)
C52 C 0.44737(5) 1.13613(13) 0.04751(5)
C53 C 0.47334(5) 1.06672(13) 0.06938(5)
C54 C 0.46808(5) 1.06294(13) 0.10910(5)
C55 C 0.43605(5) 1.12825(13) 0.12547(5)
C56 C 0.41138(5) 1.07341(14) 0.15376(5)
C57 C 0.41908(5) 0.95547(14) 0.16317(5)
C58 C 0.38507(5) 0.87357(14) 0.16889(4)
C59 C 0.34435(5) 0.91580(14) 0.16719(4)
C60 C 0.31343(5) 0.84231(14) 0.14999(4)
C61 C 0.28579(5) 0.91768(14) 0.12916(5)
C62 C 0.26950(4) 0.87901(14) 0.09539(5)
C63 C 0.26857(4) 0.95763(14) 0.06386(5)
C64 C 0.27850(4) 0.88799(14) 0.03121(5)
C65 C 0.30337(5) 0.93598(14) 0.00348(5)
C66 C 0.36010(5) 1.06009(13) -0.00797(5)
C67 C 0.38973(5) 1.13369(13) 0.00824(5)
C68 C 0.37924(5) 1.20606(13) 0.04015(5)
C69 C 0.41488(5) 1.20712(13) 0.06481(5)
C70 C 0.40951(5) 1.20221(12) 0.10288(6)
C71 C 0.36793(5) 1.19554(12) 0.11843(5)
C72 C 0.36922(5) 1.11616(13) 0.15008(5)
C73 C 0.33641(5) 1.03841(14) 0.15682(5)
C74 C 0.30045(5) 1.03941(14) 0.13266(5)
C75 C 0.29920(5) 1.11575(13) 0.10223(5)
C76 C 0.33364(5) 1.19504(13) 0.09483(5)
C77 C 0.33928(5) 1.20045(13) 0.05496(5)
C78 C 0.30849(5) 1.12502(13) 0.03778(5)
C79 C 0.28360(5) 1.07370(14) 0.06712(5)
C80 C 0.31863(5) 1.05659(14) 0.00678(5)
N1 N 0.44533(4) 0.43624(11) 0.00330(4)
H52 H 0.4681(7) 0.4012(19) -0.0060(6)
N2 N 0.42862(4) 0.44490(11) 0.14834(4)
O1 O 0.51077(3) 0.39802(10) 0.05011(3)
O2 O 0.47499(3) 0.45394(10) 0.09921(3)
O3 O 0.46482(4) 0.68214(10) 0.13685(3)
O4 O 0.52553(4) 0.80216(11) 0.09292(4)
O5 O 0.48118(3) 0.68881(9) 0.02765(3)
C81 C 0.59381(8) 0.5675(2) 0.18554(7)
H26 H 0.5771 0.5096 0.1735
C82 C 0.59000(10) 0.6869(2) 0.17612(9)
H27 H 0.5707 0.7105 0.1577
C83 C 0.61442(13) 0.7716(2) 0.19368(12)
H28 H 0.6118 0.8532 0.1872
C84 C 0.64266(13) 0.7370(3) 0.22066(12)
H29 H 0.6593 0.7949 0.2327
C85 C 0.64647(11) 0.6177(4) 0.23009(10)
H30 H 0.6658 0.5940 0.2485
C86 C 0.62205(10) 0.5329(3) 0.21253(8)
C87 C 0.62783(19) 0.4101(5) 0.22474(18)
H31 H 0.6548 0.4023 0.2369
H32 H 0.6267 0.3569 0.2033
H33 H 0.6058 0.3888 0.2422
C89 C 0.58547(7) 0.2012(2) 0.09983(7)
H34 H 0.5602 0.1791 0.0882
C90 C 0.59676(9) 0.3203(2) 0.10177(9)
H35 H 0.5793 0.3796 0.0915
C91 C 0.63367(10) 0.3528(3) 0.11880(11)
H36 H 0.6414 0.4342 0.1201
C92 C 0.65930(9) 0.2661(3) 0.13388(11)
H37 H 0.6845 0.2882 0.1455
C93 C 0.64801(10) 0.1470(3) 0.13195(10)
C94 C 0.61109(9) 0.1145(2) 0.11492(9)
H38 H 0.6034 0.0331 0.1136
C95 C 0.67083(12) 0.0410(4) 0.15042(12)
H39 H 0.6529 -0.0293 0.1500
H40 H 0.6776 0.0613 0.1761
H41 H 0.6964 0.0241 0.1368
C96 C 0.28791(12) 0.3465(3) 0.19434(11)
H42 H 0.2806 0.2876 0.1766
C97 C 0.32103(13) 0.4223(4) 0.18758(13)
H43 H 0.3364 0.4153 0.1652
C98 C 0.33167(17) 0.5086(4) 0.21348(17)
H44 H 0.3543 0.5604 0.2088
C99 C 0.3092(2) 0.5189(5) 0.24615(16)
C100 C 0.2761(2) 0.4431(6) 0.25291(13)
C101 C 0.26542(15) 0.3569(5) 0.22701(14)
H46 H 0.2428 0.3050 0.2316
C102 C 0.2520(5) 0.4102(14) 0.2950(5)
C88? C 0.59078(12) -0.0113(3) 0.10892(10)
H45? H 0.2607 0.4502 0.2752
C103? C 0.30187(18) 0.3493(5) 0.19117(15)
H47? H 0.3116 0.3034 0.1709
C104? C 0.3197(2) 0.4590(5) 0.1989(2)
H48? H 0.3417 0.4881 0.1839
C105? C 0.3054(3) 0.5261(6) 0.2286(2)
C106? C 0.2733(3) 0.4836(8) 0.2506(2)
H49? H 0.2635 0.5294 0.2709
C107? C 0.2555(3) 0.3739(9) 0.2428(2)
H50? H 0.2335 0.3448 0.2578
C108? C 0.2698(2) 0.3068(6) 0.2131(2)
H51? H 0.2576 0.2318 0.2078
C109? C 0.3270(3) 0.6414(9) 0.2376(3)
H53? H 0.3516 0.6497 0.2219
H54? H 0.3353 0.6414 0.2637
H55? H 0.3082 0.7081 0.2330
C110? C 0.59020(13) 0.5494(3) 0.18166(12)
C111? C 0.57494(14) 0.6527(4) 0.16552(13)
C112? C 0.59063(17) 0.7627(3) 0.17604(15)
C113? C 0.62158(18) 0.7695(4) 0.20271(17)
C114? C 0.63685(17) 0.6662(5) 0.21885(16)
C115? C 0.62116(15) 0.5561(4) 0.20832(14)
C116? C 0.6434(4) 0.4752(11) 0.2326(3)
C117? C 0.57230(8) 0.2184(2) 0.10032(9)
C118? C 0.59586(10) 0.3218(2) 0.10032(12)
C119? C 0.63710(10) 0.3181(3) 0.11126(15)
C120? C 0.65478(9) 0.2110(4) 0.12220(14)
C121? C 0.63121(10) 0.1076(3) 0.12220(13)
C122? C 0.58997(9) 0.1113(2) 0.11126(11)
C123? C 0.3229(8) 0.6063(17) 0.2743(5)
H56? H 0.5795 0.4742 0.1745
H57? H 0.5538 0.6481 0.1473
H58? H 0.5802 0.8333 0.1650
H59? H 0.6323 0.8447 0.2099
H60? H 0.6580 0.6708 0.2371
H61? H 0.6616 0.5209 0.2490
H62? H 0.6600 0.4203 0.2177
H63? H 0.6235 0.4300 0.2476
H64? H 0.5441 0.2209 0.0928
H65? H 0.5838 0.3950 0.0928
H66? H 0.6532 0.3888 0.1113
H67? H 0.6830 0.2085 0.1297
H68? H 0.5739 0.0406 0.1113
H69? H 0.3483 0.5776 0.2863
H70? H 0.3012 0.6162 0.2930
H71? H 0.3284 0.6829 0.2624
loop_
_geom_bond_atom_site_label_1
_geom_bond_atom_site_label_2
_geom_bond_site_symmetry_1
_geom_bond_site_symmetry_2
C1 C2 1_555 1_555
C2 C3 1_555 1_555
C3 C4 1_555 1_555
C4 C5 1_555 1_555
C5 O1 1_555 1_555
C6 C3 1_555 1_555
C7 C6 1_555 1_555
C8 C7 1_555 1_555
C9 C8 1_555 1_555
H1 C9 1_555 1_555
C10 C9 1_555 1_555
H2 C10 1_555 1_555
C11 C10 1_555 1_555
C12 C7 1_555 1_555
H3 C12 1_555 1_555
C13 C11 1_555 1_555
C14 C13 1_555 1_555
H4 C14 1_555 1_555
H5 C14 1_555 1_555
H6 C14 1_555 1_555
C15 C13 1_555 1_555
H7 C15 1_555 1_555
H8 C15 1_555 1_555
H9 C15 1_555 1_555
C16 C13 1_555 1_555
H10 C16 1_555 1_555
H11 C16 1_555 1_555
H12 C16 1_555 1_555
C17 C18 1_555 1_555
C18 H13 1_555 1_555
C19 C18 1_555 1_555
H14 C19 1_555 1_555
C20 C19 1_555 1_555
C21 C20 1_555 1_555
H15 C21 1_555 1_555
C22 C17 1_555 1_555
H16 C22 1_555 1_555
C23 C20 1_555 1_555
C24 C23 1_555 1_555
H17 C24 1_555 1_555
H18 C24 1_555 1_555
H19 C24 1_555 1_555
C25 C23 1_555 1_555
H20 C25 1_555 1_555
H21 C25 1_555 1_555
H22 C25 1_555 1_555
C26 C2 1_555 1_555
C27 C23 1_555 1_555
H23 C27 1_555 1_555
H24 C27 1_555 1_555
H25 C27 1_555 1_555
C28 C26 1_555 1_555
C29 C6 1_555 1_555
C30 C6 1_555 1_555
C31 C30 1_555 1_555
C32 C31 1_555 1_555
C33 C32 1_555 1_555
C34 C33 1_555 1_555
C35 C34 1_555 1_555
C36 C35 1_555 1_555
C37 C36 1_555 1_555
C38 C37 1_555 1_555
C39 C38 1_555 1_555
C40 C26 1_555 1_555
C41 C40 1_555 1_555
C42 C28 1_555 1_555
C43 C42 1_555 1_555
C44 C43 1_555 1_555
C45 C29 1_555 1_555
C46 C30 1_555 1_555
C47 C46 1_555 1_555
C48 C47 1_555 1_555
C49 C31 1_555 1_555
C50 C33 1_555 1_555
C51 C50 1_555 1_555
C52 C51 1_555 1_555
C53 C34 1_555 1_555
C54 C36 1_555 1_555
C55 C54 1_555 1_555
C56 C55 1_555 1_555
C57 C37 1_555 1_555
C58 C39 1_555 1_555
C59 C58 1_555 1_555
C60 C41 1_555 1_555
C61 C60 1_555 1_555
C62 C43 1_555 1_555
C63 C62 1_555 1_555
C64 C44 1_555 1_555
C65 C47 1_555 1_555
C66 C48 1_555 1_555
C67 C51 1_555 1_555
C68 C67 1_555 1_555
C69 C52 1_555 1_555
C70 C55 1_555 1_555
C71 C70 1_555 1_555
C72 C56 1_555 1_555
C73 C59 1_555 1_555
C74 C61 1_555 1_555
C75 C74 1_555 1_555
C76 C71 1_555 1_555
C77 C68 1_555 1_555
C78 C77 1_555 1_555
C79 C63 1_555 1_555
C80 C65 1_555 1_555
C81 H26 1_555 1_555
C82 C81 1_555 1_555
H27 C82 1_555 1_555
C83 C82 1_555 1_555
H28 C83 1_555 1_555
C84 C83 1_555 1_555
H29 C84 1_555 1_555
C85 C84 1_555 1_555
H30 C85 1_555 1_555
C86 C81 1_555 1_555
C87 C86 1_555 1_555
H31 C87 1_555 1_555
H32 C87 1_555 1_555
H33 C87 1_555 1_555
C89 H34 1_555 1_555
C90 C89 1_555 1_555
H35 C90 1_555 1_555
C91 C90 1_555 1_555
H36 C91 1_555 1_555
C92 C91 1_555 1_555
H37 C92 1_555 1_555
C93 C92 1_555 1_555
C94 C89 1_555 1_555
H38 C94 1_555 1_555
C95 C93 1_555 1_555
H39 C95 1_555 1_555
H40 C95 1_555 1_555
H41 C95 1_555 1_555
C96 H42 1_555 1_555
C97 C96 1_555 1_555
H43 C97 1_555 1_555
C98 C97 1_555 1_555
H44 C98 1_555 1_555
C99 C98 1_555 1_555
C100 C99 1_555 1_555
C101 C96 1_555 1_555
H46 C101 1_555 1_555
C102 C100 1_555 1_555
N1 C4 1_555 1_555
H52 N1 1_555 1_555
N2 C1 1_555 1_555
O2 C1 1_555 1_555
O3 C38 1_555 1_555
O4 C35 1_555 1_555
O5 C32 1_555 1_555
C5 O2 1_555 1_555
C8 N1 1_555 1_555
C11 C12 1_555 1_555
C17 N2 1_555 1_555
C21 C22 1_555 1_555
C28 C29 1_555 1_555
C39 C40 1_555 1_555
C41 C42 1_555 1_555
C44 C45 1_555 1_555
C45 C46 1_555 1_555
C48 C49 1_555 1_555
C49 C50 1_555 1_555
C52 C53 1_555 1_555
C53 C54 1_555 1_555
C56 C57 1_555 1_555
C57 C58 1_555 1_555
C59 C60 1_555 1_555
C61 C62 1_555 1_555
C63 C64 1_555 1_555
C64 C65 1_555 1_555
C66 C67 1_555 1_555
C66 C80 1_555 1_555
C68 C69 1_555 1_555
C69 C70 1_555 1_555
C71 C72 1_555 1_555
C72 C73 1_555 1_555
C73 C74 1_555 1_555
C75 C76 1_555 1_555
C75 C79 1_555 1_555
C76 C77 1_555 1_555
C78 C79 1_555 1_555
C78 C80 1_555 1_555
C85 C86 1_555 1_555
C93 C94 1_555 1_555
C100 C101 1_555 1_555

#END
