
#######################################################################
#
#                 Cambridge Crystallographic Data Centre
#                                CCDC 
#
#######################################################################
#
# If this CIF has been generated from an entry in the Cambridge 
# Structural Database, then it will include bibliographic, chemical, 
# crystal, experimental, refinement or atomic coordinate data resulting 
# from the CCDC's data processing and validation procedures.
#
#######################################################################

data_TAMQAB
_chemical_formula_moiety         'C16 H12 B1 Br1 F2 N2 O1'
_chemical_name_systematic        
2-Bromo-5,5-difluoro-10-(4-methoxyphenyl)-5H-6\l^5^,5\l^5^-dipyrrolo[1,2-c:2',1'-f][1,3,2]diazaborinine
_symmetry_cell_setting           tetragonal
_symmetry_space_group_name_H-M   'P 42 b c'
_symmetry_Int_Tables_number      106
_space_group_name_Hall           'P 4c -2ab'
loop_
_symmetry_equiv_pos_site_id
_symmetry_equiv_pos_as_xyz
1 x,y,z
2 -x,-y,z
3 -y,x,1/2+z
4 y,-x,1/2+z
5 1/2+x,1/2-y,z
6 1/2-x,1/2+y,z
7 1/2-y,1/2-x,1/2+z
8 1/2+y,1/2+x,1/2+z
_cell_length_a                   21.8928(7)
_cell_length_b                   21.8928(7)
_cell_length_c                   6.3572(4)
_cell_angle_alpha                90
_cell_angle_beta                 90
_cell_angle_gamma                90
_cell_volume                     3046.97
_exptl_crystal_colour            red
_exptl_crystal_description       block
_cell_formula_units_Z            8
_exptl_crystal_recrystallization_method dichloromethane/hexane
loop_
_atom_site_label
_atom_site_type_symbol
_atom_site_fract_x
_atom_site_fract_y
_atom_site_fract_z
B1 B 0.7655(3) 0.0759(3) 0.6806(12)
Br1 Br 0.92965(4) 0.05804(4) 0.03529(19)
C1 C 0.8384(3) 0.0586(3) 0.3660(12)
H1 H 0.8213 0.0219 0.3211
F1 F 0.71018(16) 0.08486(19) 0.5801(8)
N1 N 0.8190(2) 0.09162(19) 0.5345(9)
O1 O 0.9906(3) 0.3994(2) 0.6792(10)
C2 C 0.8869(3) 0.0874(3) 0.2721(11)
F2 F 0.7699(2) 0.01695(16) 0.7503(7)
N2 N 0.7709(2) 0.1219(2) 0.8670(9)
C3 C 0.8988(3) 0.1409(3) 0.3820(10)
H2 H 0.9295 0.1691 0.3545
C4 C 0.8552(2) 0.1438(2) 0.5425(13)
C5 C 0.8470(2) 0.1864(2) 0.7055(9)
C6 C 0.8045(3) 0.1748(3) 0.8660(10)
C7 C 0.7878(2) 0.2086(3) 1.0460(13)
H3 H 0.8030 0.2466 1.0843
C8 C 0.7455(3) 0.1756(3) 1.1534(11)
H4 H 0.7269 0.1865 1.2795
C9 C 0.7354(3) 0.1226(3) 1.0386(14)
H5 H 0.7080 0.0919 1.0757
C10 C 0.8836(2) 0.2434(3) 0.7049(10)
C11 C 0.8873(3) 0.2792(3) 0.5255(11)
H6 H 0.8658 0.2679 0.4055
C12 C 0.9227(3) 0.3316(3) 0.5230(13)
H7 H 0.9240 0.3558 0.4028
C13 C 0.9561(3) 0.3481(3) 0.6983(11)
C14 C 0.9526(3) 0.3130(3) 0.8777(12)
H8 H 0.9746 0.3242 0.9969
C15 C 0.9166(3) 0.2611(3) 0.8808(10)
H9 H 0.9145 0.2378 1.0028
C16 C 1.0254(5) 0.4178(4) 0.8609(18)
H10 H 0.9982 0.4251 0.9767
H11 H 1.0475 0.4545 0.8292
H12 H 1.0536 0.3860 0.8976
loop_
_geom_bond_atom_site_label_1
_geom_bond_atom_site_label_2
_geom_bond_site_symmetry_1
_geom_bond_site_symmetry_2
B1 F1 1_555 1_555
Br1 C2 1_555 1_555
C1 H1 1_555 1_555
N1 B1 1_555 1_555
O1 C13 1_555 1_555
C2 C1 1_555 1_555
F2 B1 1_555 1_555
N2 B1 1_555 1_555
C3 C2 1_555 1_555
H2 C3 1_555 1_555
C4 N1 1_555 1_555
C5 C4 1_555 1_555
C6 N2 1_555 1_555
C7 C6 1_555 1_555
H3 C7 1_555 1_555
C8 C7 1_555 1_555
H4 C8 1_555 1_555
C9 N2 1_555 1_555
H5 C9 1_555 1_555
C10 C5 1_555 1_555
C11 C10 1_555 1_555
H6 C11 1_555 1_555
C12 C11 1_555 1_555
H7 C12 1_555 1_555
C13 C12 1_555 1_555
C14 C13 1_555 1_555
H8 C14 1_555 1_555
C15 C10 1_555 1_555
H9 C15 1_555 1_555
C16 O1 1_555 1_555
H10 C16 1_555 1_555
H11 C16 1_555 1_555
H12 C16 1_555 1_555
C1 N1 1_555 1_555
C3 C4 1_555 1_555
C5 C6 1_555 1_555
C8 C9 1_555 1_555
C14 C15 1_555 1_555

#END
