
#######################################################################
#
#                 Cambridge Crystallographic Data Centre
#                                CCDC 
#
#######################################################################
#
# If this CIF has been generated from an entry in the Cambridge 
# Structural Database, then it will include bibliographic, chemical, 
# crystal, experimental, refinement or atomic coordinate data resulting 
# from the CCDC's data processing and validation procedures.
#
#######################################################################

data_TAMQUV
_chemical_formula_moiety         'C16 H6 B1 Br7 F2 N2 O1'
_chemical_name_systematic        
1,2,3,7,8,9-Hexabromo-10-(3-bromo-4-methoxyphenyl)-5,5-difluoro-5H-6\l^5^,5\l^5^-dipyrrolo[1,2-c:2',1'-f][1,3,2]diazaborinine
_symmetry_cell_setting           monoclinic
_symmetry_space_group_name_H-M   'P 21/c'
_symmetry_Int_Tables_number      14
_space_group_name_Hall           '-P 2ybc'
loop_
_symmetry_equiv_pos_site_id
_symmetry_equiv_pos_as_xyz
1 x,y,z
2 -x,1/2+y,1/2-z
3 -x,-y,-z
4 x,1/2-y,1/2+z
_cell_length_a                   10.403(4)
_cell_length_b                   12.637(4)
_cell_length_c                   19.408(6)
_cell_angle_alpha                90
_cell_angle_beta                 106.107(16)
_cell_angle_gamma                90
_cell_volume                     2451.27
_exptl_crystal_colour            red
_exptl_crystal_description       block
_cell_formula_units_Z            4
_exptl_crystal_recrystallization_method dichloromethane/hexane
loop_
_atom_site_label
_atom_site_type_symbol
_atom_site_fract_x
_atom_site_fract_y
_atom_site_fract_z
B1 B 0.1717(16) 0.6092(14) 0.0332(10)
Br1 Br 0.23613(18) 0.66814(13) -0.12077(9)
Br2 Br 0.40940(18) 0.44231(14) -0.15970(10)
Br3 Br 0.41660(18) 0.25097(13) -0.02788(10)
Br4 Br 0.1874(2) 0.32024(15) 0.24514(10)
Br5 Br -0.00778(19) 0.54059(16) 0.26765(11)
Br6 Br -0.00999(18) 0.72416(13) 0.12895(10)
Br7 Br 0.63935(17) 0.13663(14) 0.23003(10)
C1 C 0.2704(15) 0.5450(11) -0.0667(9)
C2 C 0.3447(14) 0.4583(12) -0.0795(8)
C3 C 0.3467(14) 0.3852(10) -0.0265(8)
C4 C 0.2799(13) 0.4297(10) 0.0200(8)
C5 C 0.2558(11) 0.3931(11) 0.0842(8)
C6 C 0.1870(12) 0.4554(10) 0.1208(7)
C7 C 0.1469(15) 0.4342(13) 0.1838(8)
C8 C 0.0702(15) 0.5180(13) 0.1951(8)
C9 C 0.0688(13) 0.5941(11) 0.1378(9)
C10 C 0.2939(15) 0.2819(13) 0.1076(8)
C11 C 0.2063(14) 0.1993(11) 0.0857(10)
H1 H 0.1209 0.2119 0.0558
C12 C 0.2449(18) 0.0988(13) 0.1078(10)
H2 H 0.1839 0.0438 0.0934
C13 C 0.375(2) 0.0756(14) 0.1520(10)
C14 C 0.4620(13) 0.1630(12) 0.1712(8)
C15 C 0.4229(14) 0.2618(11) 0.1511(8)
H3 H 0.4822 0.3177 0.1663
C16 C 0.3502(19) -0.1039(13) 0.1503(11)
H4 H 0.2691 -0.0995 0.1645
H5 H 0.3981 -0.1668 0.1700
H6 H 0.3289 -0.1062 0.0989
F1 F 0.2440(8) 0.7005(6) 0.0528(4)
F2 F 0.0465(8) 0.6413(6) -0.0163(5)
N1 N 0.2425(10) 0.5322(8) -0.0025(6)
N2 N 0.1368(10) 0.5556(9) 0.0954(6)
O1 O 0.4261(11) -0.0191(8) 0.1745(6)
loop_
_geom_bond_atom_site_label_1
_geom_bond_atom_site_label_2
_geom_bond_site_symmetry_1
_geom_bond_site_symmetry_2
B1 F1 1_555 1_555
Br1 C1 1_555 1_555
Br2 C2 1_555 1_555
Br3 C3 1_555 1_555
Br4 C7 1_555 1_555
Br5 C8 1_555 1_555
Br6 C9 1_555 1_555
Br7 C14 1_555 1_555
C1 C2 1_555 1_555
C2 C3 1_555 1_555
C3 C4 1_555 1_555
C4 C5 1_555 1_555
C5 C6 1_555 1_555
C6 C7 1_555 1_555
C7 C8 1_555 1_555
C8 C9 1_555 1_555
C9 N2 1_555 1_555
C10 C5 1_555 1_555
C11 C10 1_555 1_555
H1 C11 1_555 1_555
C12 C11 1_555 1_555
H2 C12 1_555 1_555
C13 C12 1_555 1_555
C14 C13 1_555 1_555
C15 C10 1_555 1_555
H3 C15 1_555 1_555
C16 H4 1_555 1_555
H5 C16 1_555 1_555
H6 C16 1_555 1_555
F2 B1 1_555 1_555
N1 B1 1_555 1_555
N2 B1 1_555 1_555
O1 C13 1_555 1_555
C1 N1 1_555 1_555
C4 N1 1_555 1_555
C6 N2 1_555 1_555
C14 C15 1_555 1_555
C16 O1 1_555 1_555

#END
