
#######################################################################
#
#                 Cambridge Crystallographic Data Centre
#                                CCDC 
#
#######################################################################
#
# If this CIF has been generated from an entry in the Cambridge 
# Structural Database, then it will include bibliographic, chemical, 
# crystal, experimental, refinement or atomic coordinate data resulting 
# from the CCDC's data processing and validation procedures.
#
#######################################################################

data_TAMVUA
_chemical_formula_moiety         'C16 H23 N1 O2'
_chemical_name_systematic        
3-Ethynyl-9-hydroxy-9a-(2-methylenebutyl)octahydro-5H-pyrrolo[1,2-a]azepin-5-one
_symmetry_cell_setting           monoclinic
_symmetry_space_group_name_H-M   'P 21/n'
_symmetry_Int_Tables_number      14
_space_group_name_Hall           '-P 2yn'
loop_
_symmetry_equiv_pos_site_id
_symmetry_equiv_pos_as_xyz
1 x,y,z
2 1/2-x,1/2+y,1/2-z
3 -x,-y,-z
4 1/2+x,1/2-y,1/2+z
_cell_length_a                   11.987(4)
_cell_length_b                   10.059(4)
_cell_length_c                   12.949(5)
_cell_angle_alpha                90
_cell_angle_beta                 111.838(4)
_cell_angle_gamma                90
_cell_volume                     1449.31
_exptl_crystal_colour            colorless
_exptl_crystal_description       block
_cell_formula_units_Z            4
loop_
_atom_site_label
_atom_site_type_symbol
_atom_site_fract_x
_atom_site_fract_y
_atom_site_fract_z
C1 C 0.83014(17) 0.2486(2) 1.12779(16)
C2 C 0.8195(2) 0.1037(2) 1.15264(19)
H1 H 0.8442 0.0935 1.2325
H2 H 0.8756 0.0536 1.1298
C3 C 0.6950(2) 0.0419(3) 1.0975(2)
H3 H 0.6918 -0.0387 1.1374
H4 H 0.6360 0.1031 1.1051
C4 C 0.6596(2) 0.0082(2) 0.9761(2)
H5 H 0.5860 -0.0435 0.9525
H6 H 0.7216 -0.0473 0.9674
C5 C 0.64039(18) 0.1279(2) 0.90030(18)
H7 H 0.6113 0.0944 0.8238
C6 C 0.75225(17) 0.2145(2) 0.91631(15)
C7 C 0.7186(2) 0.3266(2) 0.82987(17)
H8 H 0.7321 0.2991 0.7636
H9 H 0.6347 0.3507 0.8090
C8 C 0.7986(2) 0.4424(2) 0.88455(19)
H10 H 0.7640 0.5257 0.8494
H11 H 0.8779 0.4321 0.8817
C9 C 0.80408(18) 0.4362(2) 1.00378(17)
H12 H 0.8822 0.4690 1.0547
C10 C 0.7070(2) 0.5133(2) 1.01871(18)
C11 C 0.6300(2) 0.5800(3) 1.0252(2)
H13 H 0.5688 0.6331 1.0304
C12 C 0.85364(18) 0.1241(2) 0.90793(17)
H14 H 0.8801 0.0663 0.9725
H15 H 0.8186 0.0678 0.8430
C13 C 0.96328(19) 0.1891(2) 0.90021(18)
C14 C 1.0544(2) 0.2273(2) 0.9925(2)
H16 H 1.1244 0.2611 0.9875
H17 H 1.0475 0.2200 1.0615
C15 C 0.9651(2) 0.1966(3) 0.7861(2)
H18 H 0.9543 0.1071 0.7561
H19 H 0.8956 0.2478 0.7407
C16 C 1.0722(3) 0.2543(3) 0.7710(3)
H20 H 1.0770 0.3475 0.7877
H21 H 1.0653 0.2418 0.6953
H22 H 1.1434 0.2107 0.8200
N1 N 0.79383(14) 0.29209(16) 1.02180(12)
O1 O 0.87192(14) 0.32877(16) 1.20439(11)
O2 O 0.54758(13) 0.20847(18) 0.91047(13)
H23 H 0.4872 0.2023 0.8537
loop_
_geom_bond_atom_site_label_1
_geom_bond_atom_site_label_2
_geom_bond_site_symmetry_1
_geom_bond_site_symmetry_2
C1 C2 1_555 1_555
C2 H1 1_555 1_555
H2 C2 1_555 1_555
C3 C2 1_555 1_555
H3 C3 1_555 1_555
H4 C3 1_555 1_555
C4 C3 1_555 1_555
H5 C4 1_555 1_555
H6 C4 1_555 1_555
C5 C4 1_555 1_555
H7 C5 1_555 1_555
C6 C5 1_555 1_555
C7 C6 1_555 1_555
H8 C7 1_555 1_555
H9 C7 1_555 1_555
C8 C7 1_555 1_555
H10 C8 1_555 1_555
H11 C8 1_555 1_555
C9 C8 1_555 1_555
H12 C9 1_555 1_555
C10 C9 1_555 1_555
C11 C10 1_555 1_555
H13 C11 1_555 1_555
C12 C6 1_555 1_555
H14 C12 1_555 1_555
H15 C12 1_555 1_555
C13 C12 1_555 1_555
C14 C13 1_555 1_555
H16 C14 1_555 1_555
H17 C14 1_555 1_555
C15 C13 1_555 1_555
H18 C15 1_555 1_555
H19 C15 1_555 1_555
C16 C15 1_555 1_555
H20 C16 1_555 1_555
H21 C16 1_555 1_555
H22 C16 1_555 1_555
N1 C1 1_555 1_555
O1 C1 1_555 1_555
O2 C5 1_555 1_555
H23 O2 1_555 1_555
C6 N1 1_555 1_555
C9 N1 1_555 1_555

#END
