
#######################################################################
#
#                 Cambridge Crystallographic Data Centre
#                                CCDC 
#
#######################################################################
#
# If this CIF has been generated from an entry in the Cambridge 
# Structural Database, then it will include bibliographic, chemical, 
# crystal, experimental, refinement or atomic coordinate data resulting 
# from the CCDC's data processing and validation procedures.
#
#######################################################################

data_TAMZIQ01
_chemical_formula_moiety         'C44 H62 N2 Si2'
_chemical_name_systematic        
E-1,6-bis(4-N,N-Dimethylaminophenyl)-3,4-bis((tri-isopropylsilyl)ethynyl)-3-hexene-1,5-diyne
_symmetry_cell_setting           triclinic
_symmetry_space_group_name_H-M   'P -1'
_symmetry_Int_Tables_number      2
_space_group_name_Hall           '-P 1'
loop_
_symmetry_equiv_pos_site_id
_symmetry_equiv_pos_as_xyz
1 x,y,z
2 -x,-y,-z
_cell_length_a                   12.684(9)
_cell_length_b                   13.059(10)
_cell_length_c                   14.512(16)
_cell_angle_alpha                99.48(8)
_cell_angle_beta                 91.86(8)
_cell_angle_gamma                111.77(6)
_cell_volume                     2190.34
_exptl_crystal_colour            colorless
_exptl_crystal_description       needle
_chemical_melting_point          217-218deg.C
_cell_formula_units_Z            2
_exptl_crystal_recrystallization_method 'hexane/dichloromethane at 0 deg'
loop_
_atom_site_label
_atom_site_type_symbol
_atom_site_fract_x
_atom_site_fract_y
_atom_site_fract_z
Si1 Si -0.1333(2) 0.2161(2) 0.2412(1)
C1 C -0.0442(6) -0.0192(6) 0.0278(4)
C2 C -0.3772(7) -0.4771(8) 0.0978(6)
C3 C -0.2479(7) -0.4311(7) -0.0476(6)
N1 N -0.4556(7) -0.6735(6) 0.0300(6)
C4 C -0.1098(6) -0.1323(7) 0.0221(4)
C5 C -0.0688(6) 0.0609(6) 0.0964(5)
C6 C -0.2727(9) 0.1316(9) 0.2752(8)
C7 C -0.0935(6) 0.1231(6) 0.1539(5)
C8 C -0.0198(11) 0.2681(9) 0.3417(6)
C9 C -0.5249(8) -0.7006(8) 0.1047(8)
C10 C -0.2413(6) -0.3439(6) 0.0227(5)
C11 C -0.3078(7) -0.3702(7) 0.0961(6)
C12 C -0.3188(8) -0.5391(7) -0.0450(6)
C13 C -0.1934(9) 0.4056(8) 0.2380(8)
C14 C -0.3668(11) 0.0929(11) 0.1944(14)
C15 C -0.2725(12) 0.0353(10) 0.3151(9)
C16 C -0.1696(7) -0.2294(7) 0.0211(5)
C17 C -0.1367(11) 0.3336(9) 0.1877(8)
C18 C -0.3856(6) -0.5666(7) 0.0269(6)
C19 C -0.4730(10) -0.7617(8) -0.0471(8)
C20 C 0.1007(11) 0.3179(10) 0.3162(9)
C21 C -0.0366(13) 0.3463(11) 0.4225(8)
C22 C -0.1306(15) 0.3365(11) 0.0992(9)
H1 H -0.4228 -0.4916 0.1493
H2 H -0.2031 -0.4164 -0.0995
H3 H -0.2926 0.1800 0.3227
H4 H -0.0240 0.2023 0.3652
H5 H -0.5065 -0.6352 0.1531
H6 H -0.6039 -0.7269 0.0811
H7 H -0.5113 -0.7585 0.1301
H8 H -0.3036 -0.3115 0.1473
H9 H -0.3214 -0.5952 -0.0952
H10 H -0.1903 0.4629 0.2032
H11 H -0.2715 0.3610 0.2437
H12 H -0.1536 0.4399 0.2995
H13 H -0.4381 0.0490 0.2146
H14 H -0.3730 0.1569 0.1740
H15 H -0.3481 0.0479 0.1433
H16 H -0.3473 -0.0069 0.3306
H17 H -0.2477 -0.0127 0.2716
H18 H -0.2203 0.0647 0.3712
H19 H -0.0594 0.3837 0.2089
H20 H -0.4222 -0.7340 -0.0928
H21 H -0.4579 -0.8212 -0.0258
H22 H -0.5505 -0.7896 -0.0749
H23 H 0.1527 0.3429 0.3723
H24 H 0.1168 0.2617 0.2743
H25 H 0.1096 0.3804 0.2861
H26 H 0.0266 0.3688 0.4697
H27 H -0.0408 0.4115 0.4030
H28 H -0.1061 0.3070 0.4477
H29 H -0.1348 0.4052 0.0875
H30 H -0.0591 0.3333 0.0824
H31 H -0.1922 0.2738 0.0623
C1A C 0.0442(6) 0.0192(6) -0.0278(4)
C4A C 0.1098(6) 0.1323(7) -0.0221(4)
C16A C 0.1696(7) 0.2294(7) -0.0211(5)
C10A C 0.2413(6) 0.3439(6) -0.0227(5)
C3A C 0.2479(7) 0.4311(7) 0.0476(6)
C12A C 0.3188(8) 0.5391(7) 0.0450(6)
C18A C 0.3856(6) 0.5666(7) -0.0269(6)
C2A C 0.3772(7) 0.4771(8) -0.0978(6)
C11A C 0.3078(7) 0.3702(7) -0.0961(6)
H8A H 0.3036 0.3115 -0.1473
H1A H 0.4228 0.4916 -0.1493
N1A N 0.4556(7) 0.6735(6) -0.0300(6)
C9A C 0.5249(8) 0.7006(8) -0.1047(8)
H5A H 0.5065 0.6352 -0.1531
H6A H 0.6039 0.7269 -0.0811
H7A H 0.5113 0.7585 -0.1301
C19A C 0.4730(10) 0.7617(8) 0.0471(8)
H20A H 0.4222 0.7340 0.0928
H21A H 0.4579 0.8212 0.0258
H22A H 0.5505 0.7896 0.0749
H9A H 0.3214 0.5952 0.0952
H2A H 0.2031 0.4164 0.0995
C5A C 0.0688(6) -0.0609(6) -0.0964(5)
C7A C 0.0935(6) -0.1231(6) -0.1539(5)
Si1A Si 0.1333(2) -0.2161(2) -0.2412(1)
C6A C 0.2727(9) -0.1316(9) -0.2752(8)
C14A C 0.3668(11) -0.0929(11) -0.1944(14)
H13A H 0.4381 -0.0490 -0.2146
H14A H 0.3730 -0.1569 -0.1740
H15A H 0.3481 -0.0479 -0.1433
C15A C 0.2725(12) -0.0353(10) -0.3151(9)
H16A H 0.3473 0.0069 -0.3306
H17A H 0.2477 0.0127 -0.2716
H18A H 0.2203 -0.0647 -0.3712
H3A H 0.2926 -0.1800 -0.3227
C8A C 0.0198(11) -0.2681(9) -0.3417(6)
C20A C -0.1007(11) -0.3179(10) -0.3162(9)
H23A H -0.1527 -0.3429 -0.3723
H24A H -0.1168 -0.2617 -0.2743
H25A H -0.1096 -0.3804 -0.2861
C21A C 0.0366(13) -0.3463(11) -0.4225(8)
H26A H -0.0266 -0.3688 -0.4697
H27A H 0.0408 -0.4115 -0.4030
H28A H 0.1061 -0.3070 -0.4477
H4A H 0.0240 -0.2023 -0.3652
C17A C 0.1367(11) -0.3336(9) -0.1877(8)
C13A C 0.1934(9) -0.4056(8) -0.2380(8)
H10A H 0.1903 -0.4629 -0.2032
H11A H 0.2715 -0.3610 -0.2437
H12A H 0.1536 -0.4399 -0.2995
C22A C 0.1306(15) -0.3365(11) -0.0992(9)
H29A H 0.1348 -0.4052 -0.0875
H30A H 0.0591 -0.3333 -0.0824
H31A H 0.1922 -0.2738 -0.0623
H19A H 0.0594 -0.3837 -0.2089
Si2 Si 0.8351(2) 1.1301(2) -0.2719(2)
C23 C 0.5418(6) 1.0511(6) -0.4844(5)
C24 C 0.5596(7) 1.3350(7) -0.5707(5)
C25 C 0.5676(12) 1.5364(10) -0.6209(7)
C26 C 0.5449(6) 1.1480(7) -0.5181(5)
C27 C 0.4703(9) 1.3437(8) -0.6215(6)
C28 C 0.6536(8) 1.4319(9) -0.5454(7)
C29 C 0.6582(9) 1.5301(8) -0.5712(8)
C30 C 0.7070(8) 1.0847(6) -0.3562(6)
C31 C 0.5533(6) 1.2337(7) -0.5427(5)
C32 C 0.4741(13) 1.6443(10) -0.6880(7)
N2 N 0.5743(11) 1.6369(10) -0.6419(7)
C33 C 0.9656(11) 1.3308(9) -0.1441(8)
C34 C 0.9527(18) 1.1112(26) -0.4142(13)
C35 C 0.6294(7) 1.0656(6) -0.4146(6)
C36 C 0.8576(10) 1.2777(8) -0.2128(8)
C37 C 0.8441(11) 1.3520(9) -0.2708(9)
C38 C 0.8046(7) 1.0385(7) -0.1821(6)
C39 C 0.9524(10) 1.1166(13) -0.3393(8)
C40 C 0.6636(12) 1.7403(11) -0.6065(11)
C41 C 1.0506(10) 1.1153(14) -0.2888(9)
C42 C 0.7170(11) 1.0490(11) -0.1179(8)
C43 C 0.4747(11) 1.4392(11) -0.6443(6)
C44 C 0.7764(10) 0.9216(9) -0.2186(9)
H32 H 0.4025 1.2775 -0.6413
H33 H 0.7184 1.4314 -0.5098
H34 H 0.7270 1.5959 -0.5540
H35 H 0.4156 1.5707 -0.7077
H36 H 0.4454 1.6898 -0.6454
H37 H 0.4962 1.6782 -0.7418
H38 H 0.9729 1.4058 -0.1177
H39 H 0.9590 1.2885 -0.0948
H40 H 1.0318 1.3334 -0.1754
H41 H 1.0212 1.1025 -0.4333
H42 H 0.8875 1.0482 -0.4461
H43 H 0.9505 1.1791 -0.4298
H44 H 0.7973 1.2667 -0.1726
H45 H 0.8605 1.4238 -0.2313
H46 H 0.8934 1.3607 -0.3202
H47 H 0.7660 1.3216 -0.2975
H48 H 0.8745 1.0626 -0.1421
H49 H 0.9180 1.0363 -0.3471
H50 H 0.7250 1.7276 -0.5764
H51 H 0.6895 1.7761 -0.6588
H52 H 0.6386 1.7877 -0.5624
H53 H 1.1032 1.1057 -0.3322
H54 H 1.0858 1.1864 -0.2468
H55 H 1.0301 1.0560 -0.2534
H56 H 0.7072 0.9984 -0.0749
H57 H 0.7417 1.1246 -0.0834
H58 H 0.6459 1.0301 -0.1548
H59 H 0.4093 1.4388 -0.6798
H60 H 0.7622 0.8812 -0.1678
H61 H 0.7091 0.8938 -0.2623
H62 H 0.8383 0.9114 -0.2500
C23A C 0.4582(6) 0.9489(6) -0.5156(5)
C26A C 0.4551(6) 0.8520(7) -0.4819(5)
C31A C 0.4467(6) 0.7663(7) -0.4573(5)
C24A C 0.4404(7) 0.6650(7) -0.4293(5)
C27A C 0.5297(9) 0.6563(8) -0.3785(6)
C43A C 0.5253(11) 0.5608(11) -0.3557(6)
C25A C 0.4324(12) 0.4636(10) -0.3791(7)
C29A C 0.3418(9) 0.4699(8) -0.4288(8)
C28A C 0.3464(8) 0.5681(9) -0.4546(7)
H33A H 0.2816 0.5686 -0.4902
H34A H 0.2730 0.4041 -0.4460
N2A N 0.4257(11) 0.3631(10) -0.3581(7)
C32A C 0.5259(13) 0.3557(10) -0.3120(7)
H35A H 0.5844 0.4293 -0.2923
H36A H 0.5546 0.3102 -0.3546
H37A H 0.5038 0.3218 -0.2582
C40A C 0.3364(12) 0.2597(11) -0.3935(11)
H50A H 0.2750 0.2724 -0.4236
H51A H 0.3105 0.2239 -0.3412
H52A H 0.3614 0.2123 -0.4376
H59A H 0.5907 0.5612 -0.3202
H32A H 0.5975 0.7225 -0.3587
C35A C 0.3706(7) 0.9344(6) -0.5854(6)
C30A C 0.2930(8) 0.9153(6) -0.6438(6)
Si2A Si 0.1649(2) 0.8699(2) -0.7281(2)
C36A C 0.1424(10) 0.7223(8) -0.7872(8)
C33A C 0.0344(11) 0.6692(9) -0.8559(8)
H38A H 0.0271 0.5942 -0.8823
H39A H 0.0410 0.7115 -0.9052
H40A H -0.0318 0.6666 -0.8246
C37A C 0.1559(11) 0.6480(9) -0.7292(9)
H45A H 0.1395 0.5762 -0.7687
H46A H 0.1066 0.6393 -0.6798
H47A H 0.2340 0.6784 -0.7025
H44A H 0.2027 0.7333 -0.8274
C38A C 0.1954(7) 0.9615(7) -0.8179(6)
C42A C 0.2830(11) 0.9510(11) -0.8821(8)
H56A H 0.2928 1.0016 -0.9251
H57A H 0.2583 0.8754 -0.9166
H58A H 0.3541 0.9699 -0.8452
C44A C 0.2236(10) 1.0784(9) -0.7814(9)
H60A H 0.2378 1.1188 -0.8322
H61A H 0.2909 1.1062 -0.7377
H62A H 0.1617 1.0886 -0.7500
H48A H 0.1255 0.9374 -0.8579
C39A C 0.0476(10) 0.8834(13) -0.6607(8)
C34A C 0.0473(18) 0.8888(26) -0.5858(13)
H41A H -0.0212 0.8975 -0.5667
H42A H 0.1125 0.9518 -0.5539
H43A H 0.0495 0.8209 -0.5702
C41A C -0.0506(10) 0.8847(14) -0.7112(9)
H53A H -0.1032 0.8943 -0.6678
H54A H -0.0858 0.8136 -0.7532
H55A H -0.0301 0.9440 -0.7466
H49A H 0.0820 0.9637 -0.6529
loop_
_geom_bond_atom_site_label_1
_geom_bond_atom_site_label_2
_geom_bond_site_symmetry_1
_geom_bond_site_symmetry_2
Si1 C6 1_555 1_555
C1 C4 1_555 1_555
C2 C11 1_555 1_555
C3 C10 1_555 1_555
N1 C9 1_555 1_555
C4 C16 1_555 1_555
C5 C1 1_555 1_555
C6 C14 1_555 1_555
C7 Si1 1_555 1_555
C8 Si1 1_555 1_555
C9 H5 1_555 1_555
C10 C11 1_555 1_555
C11 H8 1_555 1_555
C12 C3 1_555 1_555
C13 C17 1_555 1_555
C14 H13 1_555 1_555
C15 C6 1_555 1_555
C16 C10 1_555 1_555
C17 Si1 1_555 1_555
C18 C2 1_555 1_555
C19 N1 1_555 1_555
C20 C8 1_555 1_555
C21 C8 1_555 1_555
C22 C17 1_555 1_555
H1 C2 1_555 1_555
H2 C3 1_555 1_555
H3 C6 1_555 1_555
H4 C8 1_555 1_555
H6 C9 1_555 1_555
H7 C9 1_555 1_555
H9 C12 1_555 1_555
H10 C13 1_555 1_555
H11 C13 1_555 1_555
H12 C13 1_555 1_555
H14 C14 1_555 1_555
H15 C14 1_555 1_555
H16 C15 1_555 1_555
H17 C15 1_555 1_555
H18 C15 1_555 1_555
H19 C17 1_555 1_555
H20 C19 1_555 1_555
H21 C19 1_555 1_555
H22 C19 1_555 1_555
H23 C20 1_555 1_555
H24 C20 1_555 1_555
H25 C20 1_555 1_555
H26 C21 1_555 1_555
H27 C21 1_555 1_555
H28 C21 1_555 1_555
H29 C22 1_555 1_555
H30 C22 1_555 1_555
H31 C22 1_555 1_555
Si2 C30 1_555 1_555
C23 C26 1_555 1_555
C24 C27 1_555 1_555
C25 C29 1_555 1_555
C26 C31 1_555 1_555
C27 C43 1_555 1_555
C28 C24 1_555 1_555
C29 C28 1_555 1_555
C30 C35 1_555 1_555
C31 C24 1_555 1_555
C32 N2 1_555 1_555
N2 C25 1_555 1_555
C33 C36 1_555 1_555
C34 C39 1_555 1_555
C35 C23 1_555 1_555
C36 Si2 1_555 1_555
C37 C36 1_555 1_555
C38 Si2 1_555 1_555
C39 Si2 1_555 1_555
C40 N2 1_555 1_555
C41 C39 1_555 1_555
C42 C38 1_555 1_555
C43 C25 1_555 1_555
C44 C38 1_555 1_555
H32 C27 1_555 1_555
H33 C28 1_555 1_555
H34 C29 1_555 1_555
H35 C32 1_555 1_555
H36 C32 1_555 1_555
H37 C32 1_555 1_555
H38 C33 1_555 1_555
H39 C33 1_555 1_555
H40 C33 1_555 1_555
H41 C34 1_555 1_555
H42 C34 1_555 1_555
H43 C34 1_555 1_555
H44 C36 1_555 1_555
H45 C37 1_555 1_555
H46 C37 1_555 1_555
H47 C37 1_555 1_555
H48 C38 1_555 1_555
H49 C39 1_555 1_555
H50 C40 1_555 1_555
H51 C40 1_555 1_555
H52 C40 1_555 1_555
H53 C41 1_555 1_555
H54 C41 1_555 1_555
H55 C41 1_555 1_555
H56 C42 1_555 1_555
H57 C42 1_555 1_555
H58 C42 1_555 1_555
H59 C43 1_555 1_555
H60 C44 1_555 1_555
H61 C44 1_555 1_555
H62 C44 1_555 1_555
C1A C1 1_555 1_555
C4A C1A 1_555 1_555
C16A C4A 1_555 1_555
C10A C16A 1_555 1_555
C3A C10A 1_555 1_555
C12A C3A 1_555 1_555
C18A C12A 1_555 1_555
C2A C18A 1_555 1_555
C11A C10A 1_555 1_555
H8A C11A 1_555 1_555
H1A C2A 1_555 1_555
N1A C18A 1_555 1_555
C9A N1A 1_555 1_555
H5A C9A 1_555 1_555
H6A C9A 1_555 1_555
H7A C9A 1_555 1_555
C19A N1A 1_555 1_555
H20A C19A 1_555 1_555
H21A C19A 1_555 1_555
H22A C19A 1_555 1_555
H9A C12A 1_555 1_555
H2A C3A 1_555 1_555
C5A C1A 1_555 1_555
C7A C5A 1_555 1_555
Si1A C7A 1_555 1_555
C6A Si1A 1_555 1_555
C14A C6A 1_555 1_555
H13A C14A 1_555 1_555
H14A C14A 1_555 1_555
H15A C14A 1_555 1_555
C15A C6A 1_555 1_555
H16A C15A 1_555 1_555
H17A C15A 1_555 1_555
H18A C15A 1_555 1_555
H3A C6A 1_555 1_555
C8A Si1A 1_555 1_555
C20A C8A 1_555 1_555
H23A C20A 1_555 1_555
H24A C20A 1_555 1_555
H25A C20A 1_555 1_555
C21A C8A 1_555 1_555
H26A C21A 1_555 1_555
H27A C21A 1_555 1_555
H28A C21A 1_555 1_555
H4A C8A 1_555 1_555
C17A Si1A 1_555 1_555
C13A C17A 1_555 1_555
H10A C13A 1_555 1_555
H11A C13A 1_555 1_555
H12A C13A 1_555 1_555
C22A C17A 1_555 1_555
H29A C22A 1_555 1_555
H30A C22A 1_555 1_555
H31A C22A 1_555 1_555
H19A C17A 1_555 1_555
C23A C23 1_555 1_555
C26A C23A 1_555 1_555
C31A C26A 1_555 1_555
C24A C31A 1_555 1_555
C27A C24A 1_555 1_555
C43A C27A 1_555 1_555
C25A C43A 1_555 1_555
C29A C25A 1_555 1_555
C28A C24A 1_555 1_555
H33A C28A 1_555 1_555
H34A C29A 1_555 1_555
N2A C25A 1_555 1_555
C32A N2A 1_555 1_555
H35A C32A 1_555 1_555
H36A C32A 1_555 1_555
H37A C32A 1_555 1_555
C40A N2A 1_555 1_555
H50A C40A 1_555 1_555
H51A C40A 1_555 1_555
H52A C40A 1_555 1_555
H59A C43A 1_555 1_555
H32A C27A 1_555 1_555
C35A C23A 1_555 1_555
C30A C35A 1_555 1_555
Si2A C30A 1_555 1_555
C36A Si2A 1_555 1_555
C33A C36A 1_555 1_555
H38A C33A 1_555 1_555
H39A C33A 1_555 1_555
H40A C33A 1_555 1_555
C37A C36A 1_555 1_555
H45A C37A 1_555 1_555
H46A C37A 1_555 1_555
H47A C37A 1_555 1_555
H44A C36A 1_555 1_555
C38A Si2A 1_555 1_555
C42A C38A 1_555 1_555
H56A C42A 1_555 1_555
H57A C42A 1_555 1_555
H58A C42A 1_555 1_555
C44A C38A 1_555 1_555
H60A C44A 1_555 1_555
H61A C44A 1_555 1_555
H62A C44A 1_555 1_555
H48A C38A 1_555 1_555
C39A Si2A 1_555 1_555
C34A C39A 1_555 1_555
H41A C34A 1_555 1_555
H42A C34A 1_555 1_555
H43A C34A 1_555 1_555
C41A C39A 1_555 1_555
H53A C41A 1_555 1_555
H54A C41A 1_555 1_555
H55A C41A 1_555 1_555
H49A C39A 1_555 1_555
N1 C18 1_555 1_555
C5 C7 1_555 1_555
C12 C18 1_555 1_555
C2A C11A 1_555 1_555
C29A C28A 1_555 1_555

#END
