
#######################################################################
#
#                 Cambridge Crystallographic Data Centre
#                                CCDC 
#
#######################################################################
#
# If this CIF has been generated from an entry in the Cambridge 
# Structural Database, then it will include bibliographic, chemical, 
# crystal, experimental, refinement or atomic coordinate data resulting 
# from the CCDC's data processing and validation procedures.
#
#######################################################################

data_TANKEB
_chemical_name_common            
'1-acetyl-3-(3-chlorophenyl)-5-(4-isopropylphenyl)-4,5- dihydro-(1H)-pyrazole'
_chemical_formula_moiety         'C20 H21 Cl1 N2 O1'
_chemical_name_systematic        
1-(3-(3-chlorophenyl)-5-(4-isopropylphenyl)-4,5-dihydro-1H-pyrazol-1-yl)ethanone
_symmetry_cell_setting           monoclinic
_symmetry_space_group_name_H-M   'P 21/n'
_symmetry_Int_Tables_number      14
_space_group_name_Hall           '-P 2yn'
loop_
_symmetry_equiv_pos_site_id
_symmetry_equiv_pos_as_xyz
1 x,y,z
2 1/2-x,1/2+y,1/2-z
3 -x,-y,-z
4 1/2+x,1/2-y,1/2+z
_cell_length_a                   13.3888(15)
_cell_length_b                   9.6869(10)
_cell_length_c                   13.7238(17)
_cell_angle_alpha                90
_cell_angle_beta                 96.445(12)
_cell_angle_gamma                90
_cell_volume                     1768.67
_cell_formula_units_Z            4
loop_
_atom_site_label
_atom_site_type_symbol
_atom_site_fract_x
_atom_site_fract_y
_atom_site_fract_z
C1 C 0.55300(16) 0.6100(2) 0.90104(18)
C2 C 0.53192(17) 0.7549(2) 0.93277(18)
H1 H 0.5924 0.8139 0.9336
H2 H 0.5083 0.7559 0.9986
C3 C 0.44833(17) 0.8023(2) 0.85305(18)
H3 H 0.3868 0.8282 0.8840
C4 C 0.34745(17) 0.6542(2) 0.72821(18)
C5 C 0.33804(17) 0.5177(2) 0.67767(19)
H4 H 0.3119 0.4494 0.7210
H5 H 0.4042 0.4881 0.6615
H6 H 0.2918 0.5259 0.6173
C6 C 0.63006(16) 0.5203(2) 0.95120(18)
C7 C 0.64386(17) 0.3867(2) 0.91664(19)
H7 H 0.6044 0.3541 0.8594
C8 C 0.71544(19) 0.3031(2) 0.9666(2)
C9 C 0.77487(18) 0.3472(2) 1.04955(19)
H8 H 0.8235 0.2873 1.0829
C10 C 0.76237(18) 0.4789(2) 1.08289(19)
H9 H 0.8032 0.5112 1.1394
C11 C 0.69054(17) 0.5650(2) 1.03461(18)
H10 H 0.6823 0.6557 1.0586
C12 C 0.47954(16) 0.9208(2) 0.79161(18)
C13 C 0.54696(18) 0.9025(2) 0.72323(19)
H11 H 0.5715 0.8126 0.7117
C14 C 0.57907(18) 1.0137(2) 0.6716(2)
H12 H 0.6250 0.9990 0.6246
C15 C 0.54503(17) 1.1465(2) 0.68734(19)
C16 C 0.47722(16) 1.1634(2) 0.75461(18)
H13 H 0.4523 1.2531 0.7660
C17 C 0.44460(16) 1.0525(2) 0.80593(17)
H14 H 0.3974 1.0671 0.8517
C18 C 0.58222(19) 1.2693(2) 0.6331(2)
H15 H 0.5507 1.3539 0.6581
C19 C 0.6961(2) 1.2853(3) 0.6548(2)
H16 H 0.7139 1.3005 0.7252
H17 H 0.7183 1.3644 0.6182
H18 H 0.7292 1.2013 0.6348
C20 C 0.5506(3) 1.2614(4) 0.5232(3)
H19 H 0.5807 1.1795 0.4963
H20 H 0.5736 1.3443 0.4914
H21 H 0.4772 1.2552 0.5110
Cl1 Cl 0.73012(6) 0.13562(6) 0.92401(6)
N1 N 0.42942(13) 0.67437(16) 0.79503(15)
N2 N 0.49511(13) 0.56832(16) 0.82576(15)
O1 O 0.28650(11) 0.74757(14) 0.71185(12)
loop_
_geom_bond_atom_site_label_1
_geom_bond_atom_site_label_2
_geom_bond_site_symmetry_1
_geom_bond_site_symmetry_2
C1 C2 1_555 1_555
C2 H1 1_555 1_555
H2 C2 1_555 1_555
C3 C2 1_555 1_555
H3 C3 1_555 1_555
C4 C5 1_555 1_555
C5 H4 1_555 1_555
H5 C5 1_555 1_555
H6 C5 1_555 1_555
C6 C1 1_555 1_555
C7 C6 1_555 1_555
H7 C7 1_555 1_555
C8 C7 1_555 1_555
C9 C8 1_555 1_555
H8 C9 1_555 1_555
C10 C9 1_555 1_555
H9 C10 1_555 1_555
C11 C6 1_555 1_555
H10 C11 1_555 1_555
C12 C3 1_555 1_555
C13 C12 1_555 1_555
H11 C13 1_555 1_555
C14 C13 1_555 1_555
H12 C14 1_555 1_555
C15 C14 1_555 1_555
C16 C15 1_555 1_555
H13 C16 1_555 1_555
C17 C12 1_555 1_555
H14 C17 1_555 1_555
C18 C15 1_555 1_555
H15 C18 1_555 1_555
C19 C18 1_555 1_555
H16 C19 1_555 1_555
H17 C19 1_555 1_555
H18 C19 1_555 1_555
C20 C18 1_555 1_555
H19 C20 1_555 1_555
H20 C20 1_555 1_555
H21 C20 1_555 1_555
Cl1 C8 1_555 1_555
N1 C3 1_555 1_555
N2 C1 1_555 1_555
O1 C4 1_555 1_555
C4 N1 1_555 1_555
C10 C11 1_555 1_555
C16 C17 1_555 1_555
N1 N2 1_555 1_555

#END
