
#######################################################################
#
#                 Cambridge Crystallographic Data Centre
#                                CCDC 
#
#######################################################################
#
# If this CIF has been generated from an entry in the Cambridge 
# Structural Database, then it will include bibliographic, chemical, 
# crystal, experimental, refinement or atomic coordinate data resulting 
# from the CCDC's data processing and validation procedures.
#
#######################################################################

data_TANLEZ
_chemical_formula_moiety         'C12 H31 Li1 N2 Si2'
_chemical_name_systematic        
(1,1,3,3-Tetramethyl-1,3-disilacyclobutan-2-yl)-(N,N,N',N'-tetramethylethylenediamine-N,N')-lithium
_symmetry_cell_setting           monoclinic
_symmetry_space_group_name_H-M   'P 21/n'
_symmetry_Int_Tables_number      14
_space_group_name_Hall           '-P 2yn'
loop_
_symmetry_equiv_pos_site_id
_symmetry_equiv_pos_as_xyz
1 x,y,z
2 1/2-x,1/2+y,1/2-z
3 -x,-y,-z
4 1/2+x,1/2-y,1/2+z
_cell_length_a                   9.408(6)
_cell_length_b                   16.63(1)
_cell_length_c                   11.849(7)
_cell_angle_alpha                90
_cell_angle_beta                 108.51(4)
_cell_angle_gamma                90
_cell_volume                     1757.93
_exptl_crystal_colour            colorless
_cell_formula_units_Z            4
loop_
_atom_site_label
_atom_site_type_symbol
_atom_site_fract_x
_atom_site_fract_y
_atom_site_fract_z
Si1 Si 0.5359(2) 0.2309(1) 0.4592(1)
Si2 Si 0.7750(2) 0.1676(1) 0.4400(1)
N1 N 0.8201(6) 0.0164(3) 0.7579(4)
N2 N 0.5441(6) 0.0834(3) 0.7776(4)
C1 C 0.7141(8) 0.2731(3) 0.4445(5)
C2 C 0.6223(7) 0.1339(3) 0.4908(4)
C3 C 0.3757(8) 0.2470(3) 0.3187(5)
C4 C 0.7679(9) 0.1407(4) 0.2847(6)
C5 C 0.4665(7) 0.2801(4) 0.5735(5)
C6 C 0.9742(8) 0.1494(4) 0.5326(6)
C7 C 0.751(1) -0.0114(5) 0.8458(7)
C8 C 0.594(1) 0.0019(5) 0.8144(7)
C9 C 0.8078(8) -0.0420(4) 0.6651(6)
C10 C 0.385(1) 0.0785(4) 0.7070(7)
C11 C 0.9794(8) 0.0307(4) 0.8202(5)
C12 C 0.5577(9) 0.1367(5) 0.8774(6)
Li1 Li 0.680(1) 0.1107(6) 0.6738(8)
H1 H 0.6994 0.3051 0.3740
H2 H 0.7700 0.3051 0.5114
H3 H 0.5596 0.0922 0.4393
H4 H 0.3560 0.3030 0.2978
H5 H 0.3977 0.2232 0.2481
H6 H 0.2844 0.2227 0.3188
H7 H 0.6683 0.1466 0.2292
H8 H 0.8344 0.1725 0.2574
H9 H 0.7957 0.0845 0.2799
H10 H 0.5405 0.2781 0.6524
H11 H 0.4482 0.3381 0.5569
H12 H 0.3764 0.2580 0.5782
H13 H 1.0047 0.0940 0.5284
H14 H 1.0440 0.1818 0.5056
H15 H 0.9929 0.1619 0.6147
H16 H 0.7725 -0.0647 0.8650
H17 H 0.7915 0.0215 0.9177
H18 H 0.5585 -0.0153 0.8778
H19 H 0.5476 -0.0358 0.7476
H20 H 0.7082 -0.0538 0.6217
H21 H 0.8575 -0.0219 0.6094
H22 H 0.8593 -0.0917 0.6967
H23 H 0.3460 0.1304 0.6810
H24 H 0.3703 0.0445 0.6394
H25 H 0.3292 0.0562 0.7552
H26 H 1.0288 -0.0191 0.8511
H27 H 1.0259 0.0510 0.7639
H28 H 0.9932 0.0677 0.8820
H29 H 0.6629 0.1422 0.9243
H30 H 0.5236 0.1898 0.8482
H31 H 0.5041 0.1178 0.9253
loop_
_geom_bond_atom_site_label_1
_geom_bond_atom_site_label_2
_geom_bond_site_symmetry_1
_geom_bond_site_symmetry_2
Si1 C1 1_555 1_555
Si2 C1 1_555 1_555
N1 C7 1_555 1_555
N2 C8 1_555 1_555
C1 H1 1_555 1_555
C2 Si1 1_555 1_555
C3 Si1 1_555 1_555
C4 Si2 1_555 1_555
C5 Si1 1_555 1_555
C6 Si2 1_555 1_555
C7 C8 1_555 1_555
C8 H18 1_555 1_555
C9 N1 1_555 1_555
C10 N2 1_555 1_555
C11 N1 1_555 1_555
C12 N2 1_555 1_555
Li1 N1 1_555 1_555
H2 C1 1_555 1_555
H3 C2 1_555 1_555
H4 C3 1_555 1_555
H5 C3 1_555 1_555
H6 C3 1_555 1_555
H7 C4 1_555 1_555
H8 C4 1_555 1_555
H9 C4 1_555 1_555
H10 C5 1_555 1_555
H11 C5 1_555 1_555
H12 C5 1_555 1_555
H13 C6 1_555 1_555
H14 C6 1_555 1_555
H15 C6 1_555 1_555
H16 C7 1_555 1_555
H17 C7 1_555 1_555
H19 C8 1_555 1_555
H20 C9 1_555 1_555
H21 C9 1_555 1_555
H22 C9 1_555 1_555
H23 C10 1_555 1_555
H24 C10 1_555 1_555
H25 C10 1_555 1_555
H26 C11 1_555 1_555
H27 C11 1_555 1_555
H28 C11 1_555 1_555
H29 C12 1_555 1_555
H30 C12 1_555 1_555
H31 C12 1_555 1_555
Si2 C2 1_555 1_555
N2 Li1 1_555 1_555
C2 Li1 1_555 1_555

#END
