
#######################################################################
#
#                 Cambridge Crystallographic Data Centre
#                                CCDC 
#
#######################################################################
#
# If this CIF has been generated from an entry in the Cambridge 
# Structural Database, then it will include bibliographic, chemical, 
# crystal, experimental, refinement or atomic coordinate data resulting 
# from the CCDC's data processing and validation procedures.
#
#######################################################################

data_TAPSOV
_chemical_formula_moiety         'C24 H21 N3 O5'
_chemical_name_systematic        
'methyl 3-((1-(2-(methoxycarbonyl) benzyl)-1H-1,2,3-triazol-4-yl)methoxy)-2-naphthoate'
_symmetry_cell_setting           monoclinic
_symmetry_space_group_name_H-M   'P 21/n'
_symmetry_Int_Tables_number      14
_space_group_name_Hall           '-P 2yn'
loop_
_symmetry_equiv_pos_site_id
_symmetry_equiv_pos_as_xyz
1 x,y,z
2 1/2-x,1/2+y,1/2-z
3 -x,-y,-z
4 1/2+x,1/2-y,1/2+z
_cell_length_a                   5.8731(6)
_cell_length_b                   12.4675(10)
_cell_length_c                   28.912(3)
_cell_angle_alpha                90
_cell_angle_beta                 90.271(7)
_cell_angle_gamma                90
_cell_volume                     2117
_exptl_crystal_colour            colorless
_exptl_crystal_description       block
_cell_formula_units_Z            4
loop_
_atom_site_label
_atom_site_type_symbol
_atom_site_fract_x
_atom_site_fract_y
_atom_site_fract_z
O1 O 0.3280(6) 0.0699(3) 0.10043(12)
O2 O 0.6888(5) 0.0892(2) 0.07974(11)
O3 O 0.7194(5) 0.2874(2) 0.04533(10)
O4 O 1.7567(7) 0.2237(3) 0.20920(13)
O5 O 1.7817(6) 0.2529(3) 0.28410(12)
N1 N 1.1935(6) 0.4664(3) 0.06565(13)
N2 N 1.3469(6) 0.4501(3) 0.09827(14)
N3 N 1.2827(6) 0.3604(3) 0.12074(12)
C1 C 0.4100(7) 0.1698(3) 0.03266(15)
C2 C 0.2185(7) 0.1419(3) 0.00837(14)
H1 H 0.1300 0.0853 0.0191
C3 C 0.1503(7) 0.1958(3) -0.03227(16)
C4 C -0.0488(8) 0.1677(3) -0.05728(16)
H2 H -0.1395 0.1116 -0.0470
C5 C -0.1088(9) 0.2222(4) -0.09632(17)
H3 H -0.2411 0.2040 -0.1123
C6 C 0.0291(8) 0.3058(4) -0.11228(17)
H4 H -0.0112 0.3418 -0.1393
C7 C 0.2224(8) 0.3355(3) -0.08892(16)
H5 H 0.3125 0.3908 -0.1002
C8 C 0.2851(7) 0.2825(3) -0.04790(15)
C9 C 0.4791(7) 0.3148(3) -0.02184(14)
H6 H 0.5651 0.3734 -0.0313
C10 C 0.5391(7) 0.2595(3) 0.01732(15)
C11 C 0.8407(7) 0.3826(3) 0.03432(15)
H7 H 0.7428 0.4449 0.0372
H8 H 0.8975 0.3794 0.0029
C12 C 1.0328(7) 0.3885(3) 0.06798(15)
C13 C 1.0878(7) 0.3212(3) 0.10318(14)
H9 H 1.0079 0.2610 0.1130
C14 C 1.4242(8) 0.3197(3) 0.15869(15)
H10 H 1.5828 0.3342 0.1519
H11 H 1.4058 0.2425 0.1606
C15 C 1.3662(7) 0.3689(3) 0.20507(16)
C16 C 1.4966(8) 0.3462(3) 0.24503(16)
C17 C 1.4378(9) 0.3940(4) 0.28658(16)
H12 H 1.5251 0.3795 0.3128
C18 C 1.2559(9) 0.4617(4) 0.29033(18)
H13 H 1.2199 0.4925 0.3187
C19 C 1.1262(9) 0.4838(4) 0.25163(18)
H14 H 1.0007 0.5290 0.2539
C20 C 1.1823(8) 0.4389(4) 0.20964(17)
H15 H 1.0953 0.4558 0.1837
C21 C 0.4668(8) 0.1048(3) 0.07396(17)
C22 C 0.7543(8) 0.0270(4) 0.12022(15)
H16 H 0.6930 -0.0442 0.1177
H17 H 0.6957 0.0608 0.1475
H18 H 0.9173 0.0233 0.1222
C23 C 1.6885(8) 0.2682(4) 0.24267(19)
C24 C 1.9697(9) 0.1777(4) 0.28644(19)
H19 H 2.0821 0.1968 0.2639
H20 H 1.9149 0.1066 0.2802
H21 H 2.0368 0.1799 0.3168
loop_
_geom_bond_atom_site_label_1
_geom_bond_atom_site_label_2
_geom_bond_site_symmetry_1
_geom_bond_site_symmetry_2
O1 C21 1_555 1_555
O2 C21 1_555 1_555
O3 C10 1_555 1_555
O4 C23 1_555 1_555
O5 C23 1_555 1_555
N1 N2 1_555 1_555
N2 N3 1_555 1_555
N3 C13 1_555 1_555
C1 C2 1_555 1_555
C2 H1 1_555 1_555
C3 C2 1_555 1_555
C4 C3 1_555 1_555
H2 C4 1_555 1_555
C5 C4 1_555 1_555
H3 C5 1_555 1_555
C6 C5 1_555 1_555
H4 C6 1_555 1_555
C7 C6 1_555 1_555
H5 C7 1_555 1_555
C8 C3 1_555 1_555
C9 C8 1_555 1_555
H6 C9 1_555 1_555
C10 C1 1_555 1_555
C11 O3 1_555 1_555
H7 C11 1_555 1_555
H8 C11 1_555 1_555
C12 N1 1_555 1_555
C13 C12 1_555 1_555
H9 C13 1_555 1_555
C14 N3 1_555 1_555
H10 C14 1_555 1_555
H11 C14 1_555 1_555
C15 C14 1_555 1_555
C16 C15 1_555 1_555
C17 C16 1_555 1_555
H12 C17 1_555 1_555
C18 C17 1_555 1_555
H13 C18 1_555 1_555
C19 C18 1_555 1_555
H14 C19 1_555 1_555
C20 C15 1_555 1_555
H15 C20 1_555 1_555
C21 C1 1_555 1_555
C22 O2 1_555 1_555
H16 C22 1_555 1_555
H17 C22 1_555 1_555
H18 C22 1_555 1_555
C23 C16 1_555 1_555
C24 O5 1_555 1_555
H19 C24 1_555 1_555
H20 C24 1_555 1_555
H21 C24 1_555 1_555
C7 C8 1_555 1_555
C9 C10 1_555 1_555
C11 C12 1_555 1_555
C19 C20 1_555 1_555

#END
