
#######################################################################
#
#                 Cambridge Crystallographic Data Centre
#                                CCDC 
#
#######################################################################
#
# If this CIF has been generated from an entry in the Cambridge 
# Structural Database, then it will include bibliographic, chemical, 
# crystal, experimental, refinement or atomic coordinate data resulting 
# from the CCDC's data processing and validation procedures.
#
#######################################################################

data_TAPZUG01
_chemical_name_common            1-Benzofuran-2-yl(phenyl)methanone
_chemical_formula_moiety         'C15 H10 O2'
_chemical_name_systematic        2-Benzoyl-1-benzofuran
_symmetry_cell_setting           triclinic
_symmetry_space_group_name_H-M   'P -1'
_symmetry_Int_Tables_number      2
_space_group_name_Hall           '-P 1'
loop_
_symmetry_equiv_pos_site_id
_symmetry_equiv_pos_as_xyz
1 x,y,z
2 -x,-y,-z
_cell_length_a                   6.1454(13)
_cell_length_b                   8.9699(18)
_cell_length_c                   10.263(2)
_cell_angle_alpha                98.629(3)
_cell_angle_beta                 94.024(3)
_cell_angle_gamma                100.737(3)
_cell_volume                     546.726
_exptl_crystal_description       block
_cell_formula_units_Z            2
loop_
_atom_site_label
_atom_site_type_symbol
_atom_site_fract_x
_atom_site_fract_y
_atom_site_fract_z
C1 C 0.2902(5) 0.9915(4) 0.6476(3)
H1 H 0.1818 1.0514 0.6520
C2 C 0.4850(6) 1.0315(4) 0.7301(3)
H2 H 0.5092 1.1209 0.7927
C3 C 0.6470(5) 0.9420(4) 0.7224(3)
H3 H 0.7765 0.9726 0.7803
C4 C 0.6199(5) 0.8094(4) 0.6313(3)
H4 H 0.7296 0.7506 0.6260
C5 C 0.4228(5) 0.7656(3) 0.5469(3)
C6 C 0.2650(5) 0.8574(4) 0.5581(3)
C7 C 0.3326(5) 0.6432(3) 0.4412(3)
H5 H 0.3999 0.5623 0.4092
C8 C 0.1309(5) 0.6656(3) 0.3955(3)
C9 C -0.0456(5) 0.5769(4) 0.2955(3)
C10 C 0.0065(5) 0.4533(3) 0.1966(3)
C11 C -0.1594(5) 0.3238(4) 0.1523(3)
H6 H -0.2951 0.3144 0.1882
C12 C -0.1240(6) 0.2094(4) 0.0558(3)
H7 H -0.2348 0.1222 0.0279
C13 C 0.0741(6) 0.2236(4) 0.0004(3)
H8 H 0.0966 0.1469 -0.0661
C14 C 0.2396(5) 0.3516(4) 0.0435(3)
H9 H 0.3740 0.3611 0.0061
C15 C 0.2073(5) 0.4662(3) 0.1421(3)
H10 H 0.3204 0.5517 0.1716
O1 O 0.0825(3) 0.7967(2) 0.46748(19)
O2 O -0.2326(3) 0.6049(3) 0.2946(2)
loop_
_geom_bond_atom_site_label_1
_geom_bond_atom_site_label_2
_geom_bond_site_symmetry_1
_geom_bond_site_symmetry_2
C1 H1 1_555 1_555
C2 C1 1_555 1_555
H2 C2 1_555 1_555
C3 C2 1_555 1_555
H3 C3 1_555 1_555
C4 C3 1_555 1_555
H4 C4 1_555 1_555
C5 C4 1_555 1_555
C6 C1 1_555 1_555
C7 C5 1_555 1_555
H5 C7 1_555 1_555
C8 C7 1_555 1_555
C9 C8 1_555 1_555
C10 C9 1_555 1_555
C11 C10 1_555 1_555
H6 C11 1_555 1_555
C12 C11 1_555 1_555
H7 C12 1_555 1_555
C13 C12 1_555 1_555
H8 C13 1_555 1_555
C14 C13 1_555 1_555
H9 C14 1_555 1_555
C15 C10 1_555 1_555
H10 C15 1_555 1_555
O1 C6 1_555 1_555
O2 C9 1_555 1_555
C5 C6 1_555 1_555
C8 O1 1_555 1_555
C14 C15 1_555 1_555

#END
