
#######################################################################
#
#                 Cambridge Crystallographic Data Centre
#                                CCDC 
#
#######################################################################
#
# If this CIF has been generated from an entry in the Cambridge 
# Structural Database, then it will include bibliographic, chemical, 
# crystal, experimental, refinement or atomic coordinate data resulting 
# from the CCDC's data processing and validation procedures.
#
#######################################################################

data_TAQJED
_chemical_formula_moiety         'C7 H10 O4'
_chemical_name_systematic        4,5,6-trihydroxy-3-methylcyclohex-2-en-1-one
_symmetry_cell_setting           monoclinic
_symmetry_space_group_name_H-M   'P 21'
_symmetry_Int_Tables_number      4
_space_group_name_Hall           'P 2yb'
loop_
_symmetry_equiv_pos_site_id
_symmetry_equiv_pos_as_xyz
1 x,y,z
2 -x,1/2+y,-z
_cell_length_a                   5.4143(2)
_cell_length_b                   5.4176(2)
_cell_length_c                   11.9200(5)
_cell_angle_alpha                90
_cell_angle_beta                 90.9770(10)
_cell_angle_gamma                90
_cell_volume                     349.593
_exptl_crystal_colour            colorless
_exptl_crystal_description       parallelepiped
_cell_formula_units_Z            2
loop_
_atom_site_label
_atom_site_type_symbol
_atom_site_fract_x
_atom_site_fract_y
_atom_site_fract_z
C1 C 0.4992(3) 0.2954(4) 0.22586(16)
C2 C 0.3815(4) 0.1293(4) 0.14457(16)
H1 H 0.4304 0.1373 0.0702
C3 C 0.2068(3) -0.0338(3) 0.17173(15)
C4 C 0.0921(4) -0.2029(5) 0.08715(17)
H2 H 0.1711 -0.1813 0.0163
H3 H -0.0807 -0.1656 0.0790
H4 H 0.1119 -0.3706 0.1116
C5 C 0.1234(3) -0.0631(3) 0.29155(15)
H5 H 0.2190 -0.1965 0.3269
C6 C 0.1658(3) 0.1719(4) 0.35829(15)
H6 H 0.0534 0.3005 0.3302
C7 C 0.4314(3) 0.2607(3) 0.34819(14)
H7 H 0.5418 0.1368 0.3818
O1 O 0.6472(3) 0.4524(3) 0.19769(14)
O2 O -0.1316(3) -0.1192(3) 0.29994(14)
H8 H -0.172(6) -0.273(8) 0.269(3)
O3 O 0.1120(3) 0.1206(3) 0.47319(11)
H9 H 0.096(5) 0.263(7) 0.502(3)
O4 O 0.4549(3) 0.4821(3) 0.40965(13)
H10 H 0.606(7) 0.485(7) 0.437(3)
loop_
_geom_bond_atom_site_label_1
_geom_bond_atom_site_label_2
_geom_bond_site_symmetry_1
_geom_bond_site_symmetry_2
C1 C2 1_555 1_555
C2 H1 1_555 1_555
C3 C2 1_555 1_555
C4 C3 1_555 1_555
H2 C4 1_555 1_555
H3 C4 1_555 1_555
H4 C4 1_555 1_555
C5 C3 1_555 1_555
H5 C5 1_555 1_555
C6 C5 1_555 1_555
H6 C6 1_555 1_555
C7 C1 1_555 1_555
H7 C7 1_555 1_555
O1 C1 1_555 1_555
O2 C5 1_555 1_555
H8 O2 1_555 1_555
O3 C6 1_555 1_555
H9 O3 1_555 1_555
O4 C7 1_555 1_555
H10 O4 1_555 1_555
C6 C7 1_555 1_555

#END
