
#######################################################################
#
#                 Cambridge Crystallographic Data Centre
#                                CCDC 
#
#######################################################################
#
# If this CIF has been generated from an entry in the Cambridge 
# Structural Database, then it will include bibliographic, chemical, 
# crystal, experimental, refinement or atomic coordinate data resulting 
# from the CCDC's data processing and validation procedures.
#
#######################################################################

data_TAQMAB
_chemical_formula_moiety         'C17 H15 Cl1 O2 S1'
_chemical_name_systematic        
(2-(3-Chlorophenyl)-4-hydroxytetrahydrothiophen-3-yl)(phenyl)methanone
_symmetry_cell_setting           tetragonal
_symmetry_space_group_name_H-M   'P 43'
_symmetry_Int_Tables_number      78
_space_group_name_Hall           'P 4cw'
loop_
_symmetry_equiv_pos_site_id
_symmetry_equiv_pos_as_xyz
1 x,y,z
2 -x,-y,1/2+z
3 -y,x,3/4+z
4 y,-x,1/4+z
_cell_length_a                   10.964(4)
_cell_length_b                   10.964(4)
_cell_length_c                   13.249(5)
_cell_angle_alpha                90
_cell_angle_beta                 90
_cell_angle_gamma                90
_cell_volume                     1592.65
_exptl_crystal_colour            colorless
_exptl_crystal_description       block
_cell_formula_units_Z            4
loop_
_atom_site_label
_atom_site_type_symbol
_atom_site_fract_x
_atom_site_fract_y
_atom_site_fract_z
S1 S 0.70071(8) 0.49731(6) 0.08736(6)
Cl1 Cl 0.71333(17) 0.59865(17) 0.50107(10)
O1 O 0.79755(19) 0.24609(17) -0.01708(14)
H1 H 0.7915 0.1785 -0.0430
O2 O 1.00152(16) 0.24159(18) 0.16814(19)
C1 C 0.6258(3) 0.3569(3) 0.0503(2)
H2 H 0.5538 0.3434 0.0914
H3 H 0.6011 0.3611 -0.0199
C2 C 0.7167(2) 0.2544(2) 0.0655(2)
H4 H 0.6739 0.1768 0.0753
C3 C 0.7894(2) 0.2881(2) 0.16113(17)
H5 H 0.7350 0.2829 0.2197
C4 C 0.8309(2) 0.4214(2) 0.14849(17)
H6 H 0.9006 0.4233 0.1022
C5 C 0.8669(2) 0.48450(19) 0.24542(18)
C6 C 0.7824(3) 0.5076(2) 0.3213(2)
H7 H 0.7018 0.4828 0.3137
C7 C 0.8187(4) 0.5676(3) 0.4082(2)
C8 C 0.9386(4) 0.6048(3) 0.4214(3)
H8 H 0.9618 0.6464 0.4795
C9 C 1.0217(3) 0.5795(3) 0.3478(3)
H9 H 1.1027 0.6025 0.3565
C10 C 0.9867(3) 0.5201(2) 0.2604(3)
H10 H 1.0446 0.5038 0.2108
C11 C 0.8969(2) 0.2034(2) 0.1780(2)
C12 C 0.8732(3) 0.0736(2) 0.20215(19)
C13 C 0.9718(3) -0.0077(3) 0.1999(2)
H11 H 1.0496 0.0210 0.1849
C14 C 0.9546(5) -0.1291(3) 0.2195(3)
H12 H 1.0207 -0.1822 0.2193
C15 C 0.8406(6) -0.1721(3) 0.2393(3)
H13 H 0.8288 -0.2552 0.2491
C16 C 0.7411(5) -0.0930(4) 0.2451(3)
H14 H 0.6643 -0.1229 0.2618
C17 C 0.7572(4) 0.0307(3) 0.2259(3)
H15 H 0.6914 0.0840 0.2289
loop_
_geom_bond_atom_site_label_1
_geom_bond_atom_site_label_2
_geom_bond_site_symmetry_1
_geom_bond_site_symmetry_2
S1 C1 1_555 1_555
Cl1 C7 1_555 1_555
O1 H1 1_555 1_555
O2 C11 1_555 1_555
C1 H2 1_555 1_555
H3 C1 1_555 1_555
C2 O1 1_555 1_555
H4 C2 1_555 1_555
C3 C2 1_555 1_555
H5 C3 1_555 1_555
C4 S1 1_555 1_555
H6 C4 1_555 1_555
C5 C4 1_555 1_555
C6 C5 1_555 1_555
H7 C6 1_555 1_555
C7 C6 1_555 1_555
C8 C7 1_555 1_555
H8 C8 1_555 1_555
C9 C8 1_555 1_555
H9 C9 1_555 1_555
C10 C5 1_555 1_555
H10 C10 1_555 1_555
C11 C3 1_555 1_555
C12 C11 1_555 1_555
C13 C12 1_555 1_555
H11 C13 1_555 1_555
C14 C13 1_555 1_555
H12 C14 1_555 1_555
C15 C14 1_555 1_555
H13 C15 1_555 1_555
C16 C15 1_555 1_555
H14 C16 1_555 1_555
C17 C12 1_555 1_555
H15 C17 1_555 1_555
C1 C2 1_555 1_555
C3 C4 1_555 1_555
C9 C10 1_555 1_555
C16 C17 1_555 1_555

#END
