
#######################################################################
#
#                 Cambridge Crystallographic Data Centre
#                                CCDC 
#
#######################################################################
#
# If this CIF has been generated from an entry in the Cambridge 
# Structural Database, then it will include bibliographic, chemical, 
# crystal, experimental, refinement or atomic coordinate data resulting 
# from the CCDC's data processing and validation procedures.
#
#######################################################################

data_TAQREK
_chemical_compound_source        'stems of Schisandra lancifolia'
_chemical_name_common            
"12a-Hydroxy-5-(hydroxymethyl)-5,11a-dimethyl-8a-(1-(4-methyl-5-oxofuran-2(5H)-ylidene)propan-2-yl)tetradecahydro-2H-furo[3,2-b]furo[3'',2'':4',5']furo[2',3':1,2]azuleno[5,6-c]furan-2,10(8aH)-dione sesquihydrate"
_chemical_formula_moiety         'C29 H36 O10,1.5(H2 O1)'
_chemical_name_systematic        'Schilancitrilactone A sesquihydrate'
_chemical_properties_biological  'tested for anti-feedant activity'
_symmetry_cell_setting           monoclinic
_symmetry_space_group_name_H-M   'P 21'
_symmetry_Int_Tables_number      4
_space_group_name_Hall           'P 2yb'
loop_
_symmetry_equiv_pos_site_id
_symmetry_equiv_pos_as_xyz
1 x,y,z
2 -x,1/2+y,-z
_cell_length_a                   20.2712(5)
_cell_length_b                   6.8588(2)
_cell_length_c                   21.9489(6)
_cell_angle_alpha                90
_cell_angle_beta                 109.7560(10)
_cell_angle_gamma                90
_cell_volume                     2872.07
_exptl_crystal_colour            colorless
_exptl_crystal_description       needle
_cell_formula_units_Z            4
loop_
_atom_site_label
_atom_site_type_symbol
_atom_site_fract_x
_atom_site_fract_y
_atom_site_fract_z
O1 O 0.93971(14) 0.3434(5) 0.44156(16)
O2 O 0.23952(18) 0.2921(6) 0.54218(12)
O3 O 0.21332(13) 0.3766(4) 0.43928(10)
O5 O 0.27807(12) 0.3626(4) 0.17701(11)
O7 O 0.47435(12) 0.0397(4) 0.14114(11)
O8 O 0.58221(13) -0.0823(5) 0.18907(14)
O9 O 0.05659(13) 0.3564(4) 0.39254(12)
O10 O 0.32046(13) 0.3218(5) 0.38819(11)
H1 H 0.3023 0.3377 0.4170
O11 O 0.22001(12) 0.1970(4) 0.08208(11)
O12 O 0.13302(14) -0.0055(5) 0.03235(13)
C1 C 0.2021(2) 0.2726(6) 0.48709(16)
C2 C 0.16380(18) 0.3207(5) 0.37532(14)
C3 C 0.20142(17) 0.1900(6) 0.34204(15)
H3 H 0.1669 0.1530 0.2997
H4 H 0.2140 0.0690 0.3680
C4 C 0.26765(18) 0.2596(6) 0.32935(15)
C5 C 0.2557(2) 0.4180(6) 0.27713(16)
H5 H 0.3033 0.4715 0.2827
C6 C 0.23374(19) 0.3059(5) 0.21326(15)
H6 H 0.1831 0.3266 0.1878
C7 C 0.28379(17) 0.2038(5) 0.13891(14)
C8 C 0.34486(18) 0.2441(5) 0.11569(16)
H7 H 0.3879 0.2543 0.1550
C9 C 0.35720(16) 0.0822(5) 0.07444(15)
H8 H 0.3192 0.0426 0.0375
C10 C 0.41771(17) -0.0075(5) 0.08677(15)
C11 C 0.52804(17) -0.0892(6) 0.14572(17)
C12 C 0.5470(3) -0.3893(8) 0.0808(3)
H9 H 0.5196 -0.4648 0.0427
H10 H 0.5607 -0.4738 0.1190
H11 H 0.5890 -0.3374 0.0741
C13 C 0.5036(2) -0.2248(6) 0.0907(2)
C14 C 0.43843(19) -0.1707(5) 0.05543(16)
H12 H 0.4103 -0.2298 0.0161
C15 C 0.1275(2) 0.5075(5) 0.34070(16)
H13 H 0.1492 0.6195 0.3698
C16 C 0.0512(2) 0.4897(6) 0.34006(15)
C17 C -0.0001(2) 0.4064(7) 0.27824(18)
H14 H 0.0168 0.2791 0.2694
H15 H -0.0041 0.4951 0.2422
H16 H -0.0461 0.3910 0.2831
C18 C 0.10599(18) 0.2129(6) 0.39219(17)
H17 H 0.0847 0.1054 0.3610
C19 C 0.1413(2) 0.1381(7) 0.46019(19)
H18 H 0.1093 0.1448 0.4856
H19 H 0.1572 0.0018 0.4598
C20 C 0.0256(2) 0.6801(6) 0.3582(2)
H20 H 0.0575 0.7226 0.4011
H21 H 0.0260 0.7813 0.3261
O21 O -0.04235(16) 0.6603(5) 0.35998(16)
H22 H -0.0473 0.7338 0.3887
C21 C 0.1358(2) 0.5494(6) 0.27562(17)
H23 H 0.1060 0.6624 0.2555
H24 H 0.1187 0.4355 0.2469
C22 C 0.2115(3) 0.5929(6) 0.2803(2)
H25 H 0.2104 0.6830 0.2447
H26 H 0.2349 0.6621 0.3216
C23 C 0.29738(17) 0.0946(6) 0.30086(14)
H27 H 0.2951 -0.0302 0.3227
H28 H 0.3467 0.1210 0.3050
C24 C 0.25035(16) 0.0884(5) 0.22930(14)
H29 H 0.2062 0.0160 0.2249
C25 C 0.28139(16) 0.0146(5) 0.17815(14)
C26 C 0.35083(17) -0.0919(5) 0.20813(16)
H30 H 0.3451 -0.1962 0.2364
H31 H 0.3865 0.0002 0.2335
H32 H 0.3655 -0.1482 0.1737
C27 C 0.22802(18) -0.1136(5) 0.12701(15)
H33 H 0.2524 -0.2106 0.1088
H34 H 0.1972 -0.1834 0.1463
C28 C 0.18664(17) 0.0236(6) 0.07587(15)
C29 C 0.3366(3) 0.4388(7) 0.0794(3)
H35 H 0.3775 0.4607 0.0661
H36 H 0.3329 0.5450 0.1080
H37 H 0.2941 0.4352 0.0411
O4 O 0.9554(2) 0.9373(7) 0.4433(2)
O6 O 0.4375(2) 0.0493(8) 0.45944(18)
O13 O 0.71638(17) 0.2996(5) 0.56146(12)
O14 O 0.68884(12) 0.3827(4) 0.45810(10)
O15 O 0.76985(11) 0.3958(3) 0.20379(10)
O16 O 0.96654(12) 0.0834(4) 0.14822(12)
O17 O 0.53065(12) 0.3221(4) 0.40409(11)
O18 O 0.79879(12) 0.3509(5) 0.41352(11)
H2 H 0.7799 0.3434 0.4421
O19 O 0.62857(14) 0.0186(5) 0.06146(12)
O20 O 0.71338(11) 0.2294(4) 0.10929(10)
C30 C 0.6793(2) 0.2745(6) 0.50607(16)
C31 C 0.64247(16) 0.3167(5) 0.39393(14)
C32 C 0.68493(17) 0.1962(5) 0.36232(15)
H38 H 0.6529 0.1563 0.3191
H39 H 0.6995 0.0756 0.3882
C33 C 0.75069(16) 0.2831(6) 0.35294(13)
C34 C 0.73863(17) 0.4438(5) 0.30111(15)
H40 H 0.7851 0.5081 0.3094
C35 C 0.72338(17) 0.3311(5) 0.23759(14)
H41 H 0.6731 0.3441 0.2097
C36 C 0.77800(16) 0.2409(5) 0.16616(14)
C37 C 0.83846(17) 0.2844(5) 0.14170(14)
H42 H 0.8825 0.2815 0.1801
C38 C 0.84549(17) 0.1323(5) 0.09549(15)
H43 H 0.8044 0.0965 0.0610
C39 C 0.90457(17) 0.0439(5) 0.09908(15)
C40 C 1.01825(19) -0.0419(6) 0.1426(2)
O22 O 1.07674(14) -0.0336(6) 0.17853(17)
O23 O 0.52303(16) 0.7352(5) 0.42136(15)
H44 H 0.5296 0.6598 0.4530
C41 C 0.4871(2) 0.6374(7) 0.36479(19)
H45 H 0.4784 0.7289 0.3280
H46 H 0.4410 0.5965 0.3666
C42 C 0.52489(18) 0.4572(6) 0.35146(15)
C43 C 0.58720(19) 0.1940(6) 0.40958(17)
H47 H 0.5721 0.0797 0.3798
C44 C 0.78733(18) 0.1268(6) 0.32633(15)
H48 H 0.7874 -0.0002 0.3477
H49 H 0.8363 0.1646 0.3325
C45 C 0.74329(16) 0.1172(5) 0.25414(14)
H50 H 0.7000 0.0386 0.2482
C46 C 0.68756(19) 0.6063(5) 0.30135(17)
H51 H 0.7070 0.6788 0.3426
H52 H 0.6855 0.6980 0.2659
C47 C 0.61291(18) 0.5463(5) 0.29373(15)
H53 H 0.6000 0.4319 0.2646
H54 H 0.5808 0.6542 0.2727
C48 C 0.60201(16) 0.4953(5) 0.35756(14)
H55 H 0.6182 0.6102 0.3869
C49 C 0.77833(16) 0.0492(5) 0.20487(14)
C50 C 0.85006(18) -0.0439(5) 0.23660(15)
H56 H 0.8456 -0.1561 0.2626
H57 H 0.8821 0.0519 0.2646
H58 H 0.8686 -0.0872 0.2030
C51 C 0.72930(17) -0.0836(5) 0.15284(14)
H59 H 0.7565 -0.1681 0.1334
H60 H 0.7013 -0.1673 0.1716
C52 C 0.68300(17) 0.0504(5) 0.10338(14)
C53 C 0.98549(19) -0.1679(6) 0.08535(19)
C54 C 1.0255(3) -0.3293(8) 0.0689(3)
H61 H 0.9944 -0.4032 0.0322
H62 H 1.0440 -0.4159 0.1063
H63 H 1.0644 -0.2751 0.0573
C55 C 0.91881(18) -0.1123(6) 0.06012(17)
H64 H 0.8855 -0.1663 0.0224
C56 C 0.8330(2) 0.4876(6) 0.1118(2)
H65 H 0.8685 0.5017 0.0908
H66 H 0.8408 0.5864 0.1457
H67 H 0.7862 0.5051 0.0795
C57 C 0.6213(2) 0.1313(7) 0.47891(19)
H68 H 0.5876 0.1365 0.5026
H69 H 0.6400 -0.0030 0.4813
C58 C 0.4808(2) 0.3640(8) 0.28774(19)
H70 H 0.5033 0.2433 0.2811
H71 H 0.4767 0.4544 0.2521
H72 H 0.4340 0.3343 0.2891
loop_
_geom_bond_atom_site_label_1
_geom_bond_atom_site_label_2
_geom_bond_site_symmetry_1
_geom_bond_site_symmetry_2
O2 C1 1_555 1_555
O3 C1 1_555 1_555
O5 C6 1_555 1_555
O7 C10 1_555 1_555
O8 C11 1_555 1_555
O9 C16 1_555 1_555
O10 H1 1_555 1_555
O11 C7 1_555 1_555
O12 C28 1_555 1_555
O13 C30 1_555 1_555
O14 C30 1_555 1_555
O15 C35 1_555 1_555
O16 C39 1_555 1_555
O17 C42 1_555 1_555
O18 H2 1_555 1_555
O19 C52 1_555 1_555
O20 C36 1_555 1_555
C1 C19 1_555 1_555
C2 O3 1_555 1_555
C3 C2 1_555 1_555
H3 C3 1_555 1_555
H4 C3 1_555 1_555
C4 O10 1_555 1_555
C5 C4 1_555 1_555
H5 C5 1_555 1_555
C6 C5 1_555 1_555
H6 C6 1_555 1_555
C7 O5 1_555 1_555
C8 C7 1_555 1_555
H7 C8 1_555 1_555
C9 C8 1_555 1_555
H8 C9 1_555 1_555
C10 C9 1_555 1_555
C11 O7 1_555 1_555
C12 H9 1_555 1_555
H10 C12 1_555 1_555
H11 C12 1_555 1_555
C13 C11 1_555 1_555
C14 C10 1_555 1_555
H12 C14 1_555 1_555
C15 C2 1_555 1_555
H13 C15 1_555 1_555
C16 C15 1_555 1_555
C17 C16 1_555 1_555
H14 C17 1_555 1_555
H15 C17 1_555 1_555
H16 C17 1_555 1_555
C18 O9 1_555 1_555
H17 C18 1_555 1_555
C19 C18 1_555 1_555
H18 C19 1_555 1_555
H19 C19 1_555 1_555
C20 C16 1_555 1_555
H20 C20 1_555 1_555
H21 C20 1_555 1_555
O21 C20 1_555 1_555
H22 O21 1_555 1_555
C21 C15 1_555 1_555
H23 C21 1_555 1_555
H24 C21 1_555 1_555
C22 C5 1_555 1_555
H25 C22 1_555 1_555
H26 C22 1_555 1_555
C23 C4 1_555 1_555
H27 C23 1_555 1_555
H28 C23 1_555 1_555
C24 C6 1_555 1_555
H29 C24 1_555 1_555
C25 C7 1_555 1_555
C26 C25 1_555 1_555
H30 C26 1_555 1_555
H31 C26 1_555 1_555
H32 C26 1_555 1_555
C27 C25 1_555 1_555
H33 C27 1_555 1_555
H34 C27 1_555 1_555
C28 O11 1_555 1_555
C29 C8 1_555 1_555
H35 C29 1_555 1_555
H36 C29 1_555 1_555
H37 C29 1_555 1_555
C30 C57 1_555 1_555
C31 O14 1_555 1_555
C32 C31 1_555 1_555
H38 C32 1_555 1_555
H39 C32 1_555 1_555
C33 O18 1_555 1_555
C34 C33 1_555 1_555
H40 C34 1_555 1_555
C35 C34 1_555 1_555
H41 C35 1_555 1_555
C36 O15 1_555 1_555
C37 C36 1_555 1_555
H42 C37 1_555 1_555
C38 C37 1_555 1_555
H43 C38 1_555 1_555
C39 C38 1_555 1_555
C40 O16 1_555 1_555
O22 C40 1_555 1_555
O23 H44 1_555 1_555
C41 O23 1_555 1_555
H45 C41 1_555 1_555
H46 C41 1_555 1_555
C42 C41 1_555 1_555
C43 O17 1_555 1_555
H47 C43 1_555 1_555
C44 C33 1_555 1_555
H48 C44 1_555 1_555
H49 C44 1_555 1_555
C45 C35 1_555 1_555
H50 C45 1_555 1_555
C46 C34 1_555 1_555
H51 C46 1_555 1_555
H52 C46 1_555 1_555
C47 C46 1_555 1_555
H53 C47 1_555 1_555
H54 C47 1_555 1_555
C48 C31 1_555 1_555
H55 C48 1_555 1_555
C49 C36 1_555 1_555
C50 C49 1_555 1_555
H56 C50 1_555 1_555
H57 C50 1_555 1_555
H58 C50 1_555 1_555
C51 C49 1_555 1_555
H59 C51 1_555 1_555
H60 C51 1_555 1_555
C52 O20 1_555 1_555
C53 C40 1_555 1_555
C54 C53 1_555 1_555
H61 C54 1_555 1_555
H62 C54 1_555 1_555
H63 C54 1_555 1_555
C55 C39 1_555 1_555
H64 C55 1_555 1_555
C56 C37 1_555 1_555
H65 C56 1_555 1_555
H66 C56 1_555 1_555
H67 C56 1_555 1_555
C57 C43 1_555 1_555
H68 C57 1_555 1_555
H69 C57 1_555 1_555
C58 C42 1_555 1_555
H70 C58 1_555 1_555
H71 C58 1_555 1_555
H72 C58 1_555 1_555
C2 C18 1_555 1_555
C3 C4 1_555 1_555
C12 C13 1_555 1_555
C13 C14 1_555 1_555
C21 C22 1_555 1_555
C23 C24 1_555 1_555
C24 C25 1_555 1_555
C27 C28 1_555 1_555
C31 C43 1_555 1_555
C32 C33 1_555 1_555
C42 C48 1_555 1_555
C44 C45 1_555 1_555
C45 C49 1_555 1_555
C47 C48 1_555 1_555
C51 C52 1_555 1_555
C53 C55 1_555 1_555

#END
