
#######################################################################
#
#                 Cambridge Crystallographic Data Centre
#                                CCDC 
#
#######################################################################
#
# If this CIF has been generated from an entry in the Cambridge 
# Structural Database, then it will include bibliographic, chemical, 
# crystal, experimental, refinement or atomic coordinate data resulting 
# from the CCDC's data processing and validation procedures.
#
#######################################################################

data_TAQWUE
_chemical_formula_moiety         'C8 H13 N1 O2 S2'
_chemical_name_systematic        'Acetonyl morpholine-4-carbodithioate'
_chemical_properties_biological  fungicide
_symmetry_cell_setting           monoclinic
_symmetry_space_group_name_H-M   'P 21/c'
_symmetry_Int_Tables_number      14
_space_group_name_Hall           '-P 2ybc'
loop_
_symmetry_equiv_pos_site_id
_symmetry_equiv_pos_as_xyz
1 x,y,z
2 -x,1/2+y,1/2-z
3 -x,-y,-z
4 x,1/2-y,1/2+z
_cell_length_a                   15.043(2)
_cell_length_b                   4.9119(7)
_cell_length_c                   17.1097(17)
_cell_angle_alpha                90
_cell_angle_beta                 123.848(8)
_cell_angle_gamma                90
_cell_volume                     1049.97
_exptl_crystal_colour            colorless
_exptl_crystal_description       block
_cell_formula_units_Z            4
_exptl_crystal_recrystallization_method 'ethyl acetate/petroleum ether'
loop_
_atom_site_label
_atom_site_type_symbol
_atom_site_fract_x
_atom_site_fract_y
_atom_site_fract_z
S1 S 0.34990(3) -0.40882(10) -0.28135(3)
S2 S 0.16710(4) -0.56402(10) -0.47601(3)
O1 O 0.09755(14) -0.9550(4) -0.22966(12)
N1 N 0.19435(11) -0.7322(3) -0.31665(9)
C1 C 0.40725(14) -0.3467(4) -0.41015(13)
O2 O 0.45425(12) -0.5599(3) -0.38385(11)
C2 C 0.25426(15) -0.7714(5) -0.21403(12)
H1 H 0.3080 -0.6300 -0.1825
H2 H 0.2905 -0.9460 -0.1974
C3 C 0.17967(17) -0.7611(5) -0.18258(14)
H3 H 0.2195 -0.7944 -0.1154
H4 H 0.1484 -0.5807 -0.1944
C4 C 0.03533(17) -0.8969(5) -0.32760(16)
H5 H 0.0043 -0.7168 -0.3376
H6 H -0.0229 -1.0270 -0.3596
C5 C 0.09967(16) -0.9088(4) -0.36932(14)
H7 H 0.1222 -1.0948 -0.3679
H8 H 0.0560 -0.8505 -0.4345
C6 C 0.22899(12) -0.5862(3) -0.36005(11)
C7 C 0.36472(14) -0.2036(4) -0.35938(13)
H9 H 0.2955 -0.1261 -0.4061
H10 H 0.4124 -0.0539 -0.3237
C8 C 0.3897(2) -0.1986(5) -0.49329(18)
H11 H 0.4188 -0.3027 -0.5215
H12 H 0.4247 -0.0247 -0.4738
H13 H 0.3144 -0.1726 -0.5383
loop_
_geom_bond_atom_site_label_1
_geom_bond_atom_site_label_2
_geom_bond_site_symmetry_1
_geom_bond_site_symmetry_2
S1 C6 1_555 1_555
S2 C6 1_555 1_555
O1 C3 1_555 1_555
N1 C2 1_555 1_555
C1 O2 1_555 1_555
C2 H1 1_555 1_555
H2 C2 1_555 1_555
C3 C2 1_555 1_555
H3 C3 1_555 1_555
H4 C3 1_555 1_555
C4 O1 1_555 1_555
H5 C4 1_555 1_555
H6 C4 1_555 1_555
C5 N1 1_555 1_555
H7 C5 1_555 1_555
H8 C5 1_555 1_555
C6 N1 1_555 1_555
C7 S1 1_555 1_555
H9 C7 1_555 1_555
H10 C7 1_555 1_555
C8 C1 1_555 1_555
H11 C8 1_555 1_555
H12 C8 1_555 1_555
H13 C8 1_555 1_555
C1 C7 1_555 1_555
C4 C5 1_555 1_555

#END
