
#######################################################################
#
#                 Cambridge Crystallographic Data Centre
#                                CCDC 
#
#######################################################################
#
# If this CIF has been generated from an entry in the Cambridge 
# Structural Database, then it will include bibliographic, chemical, 
# crystal, experimental, refinement or atomic coordinate data resulting 
# from the CCDC's data processing and validation procedures.
#
#######################################################################

data_TASLOR
_chemical_formula_moiety         'C12 H15 I1 O3 S1'
_chemical_name_systematic        
5-(iodomethyl)-3-(methylsulfonyl)-2-phenyloxolane
_symmetry_cell_setting           triclinic
_symmetry_space_group_name_H-M   'P -1'
_symmetry_Int_Tables_number      2
_space_group_name_Hall           '-P 1'
loop_
_symmetry_equiv_pos_site_id
_symmetry_equiv_pos_as_xyz
1 x,y,z
2 -x,-y,-z
_cell_length_a                   5.7932(2)
_cell_length_b                   14.9376(5)
_cell_length_c                   16.8206(6)
_cell_angle_alpha                110.2490(10)
_cell_angle_beta                 97.1000(10)
_cell_angle_gamma                90.9180(10)
_cell_volume                     1352.46
_exptl_crystal_colour            colorless
_cell_formula_units_Z            4
loop_
_atom_site_label
_atom_site_type_symbol
_atom_site_fract_x
_atom_site_fract_y
_atom_site_fract_z
C1 C 0.3539(4) 0.82325(18) 0.38032(16)
H1 H 0.3873 0.8465 0.4429
H2 H 0.2116 0.8503 0.3630
H3 H 0.4845 0.8429 0.3569
C2 C 0.0505(4) 0.66489(17) 0.37225(15)
H4 H -0.0825 0.6971 0.3522
C3 C 0.0061(4) 0.55570(17) 0.33163(15)
H5 H 0.1053 0.5288 0.2862
H6 H -0.1594 0.5382 0.3067
C4 C 0.0704(5) 0.51896(18) 0.40645(16)
H7 H -0.0738 0.4925 0.4197
C5 C 0.2506(5) 0.44516(19) 0.39150(18)
H8 H 0.3035 0.4336 0.4452
H9 H 0.3873 0.4680 0.3722
C6 C 0.0536(4) 0.68060(18) 0.46825(15)
H10 H -0.1115 0.6747 0.4784
C7 C 0.1615(4) 0.77400(17) 0.53183(15)
C8 C 0.3827(5) 0.78313(18) 0.57757(16)
H11 H 0.4700 0.7283 0.5710
C9 C 0.4762(5) 0.8723(2) 0.63281(17)
H12 H 0.6274 0.8783 0.6640
C10 C 0.3501(5) 0.95278(19) 0.64279(17)
H13 H 0.4152 1.0137 0.6804
C11 C 0.1281(5) 0.94385(19) 0.59757(17)
H14 H 0.0415 0.9988 0.6040
C12 C 0.0330(5) 0.85474(19) 0.54303(17)
H15 H -0.1201 0.8486 0.5132
I1 I 0.09268(4) 0.31510(2) 0.29483(2)
O1 O 0.5110(3) 0.65894(13) 0.37717(12)
O2 O 0.2722(3) 0.66786(12) 0.24831(11)
O3 O 0.1675(3) 0.60078(12) 0.47879(11)
S1 S 0.31507(10) 0.69766(4) 0.34108(4)
C13 C 1.1026(4) 1.05145(17) 0.12338(16)
H16 H 1.1501 1.0615 0.0724
H17 H 1.2039 1.0951 0.1743
C14 C 1.1423(4) 0.94987(17) 0.11670(15)
H18 H 1.3086 0.9379 0.1085
C15 C 1.0903(4) 0.92000(17) 0.19131(15)
H19 H 0.9564 0.9530 0.2171
H20 H 1.2275 0.9342 0.2360
C16 C 1.0318(4) 0.81084(17) 0.14872(15)
H21 H 1.1610 0.7764 0.1682
C17 C 1.0311(4) 0.79330(17) 0.05147(15)
H22 H 1.1915 0.7762 0.0380
C18 C 0.7226(5) 0.65784(17) 0.14437(17)
H23 H 0.5921 0.6396 0.1687
H24 H 0.8635 0.6293 0.1606
H25 H 0.6861 0.6349 0.0819
C19 C 0.8626(4) 0.71824(17) -0.01417(15)
C20 C 0.9269(5) 0.62425(19) -0.04509(16)
H26 H 1.0766 0.6087 -0.0256
C21 C 0.7738(5) 0.5531(2) -0.10421(17)
H27 H 0.8168 0.4888 -0.1237
C22 C 0.5580(5) 0.5759(2) -0.13481(17)
H28 H 0.4536 0.5274 -0.1757
C23 C 0.4940(5) 0.6700(2) -0.10565(17)
H29 H 0.3469 0.6858 -0.1272
C24 C 0.6453(4) 0.74082(18) -0.04511(16)
H30 H 0.6005 0.8048 -0.0247
I2 I 0.74691(3) 1.08888(2) 0.13303(2)
O4 O 0.8206(3) 0.81319(12) 0.27648(11)
O5 O 0.5741(3) 0.82439(13) 0.15008(11)
O6 O 0.9969(3) 0.88440(12) 0.04421(11)
S2 S 0.76944(10) 0.78336(4) 0.18382(4)
loop_
_geom_bond_atom_site_label_1
_geom_bond_atom_site_label_2
_geom_bond_site_symmetry_1
_geom_bond_site_symmetry_2
C1 H1 1_555 1_555
H2 C1 1_555 1_555
H3 C1 1_555 1_555
C2 H4 1_555 1_555
C3 C2 1_555 1_555
H5 C3 1_555 1_555
H6 C3 1_555 1_555
C4 C3 1_555 1_555
H7 C4 1_555 1_555
C5 C4 1_555 1_555
H8 C5 1_555 1_555
H9 C5 1_555 1_555
C6 C2 1_555 1_555
H10 C6 1_555 1_555
C7 C6 1_555 1_555
C8 C7 1_555 1_555
H11 C8 1_555 1_555
C9 C8 1_555 1_555
H12 C9 1_555 1_555
C10 C9 1_555 1_555
H13 C10 1_555 1_555
C11 C10 1_555 1_555
H14 C11 1_555 1_555
C12 C7 1_555 1_555
H15 C12 1_555 1_555
I1 C5 1_555 1_555
O1 S1 1_555 1_555
O2 S1 1_555 1_555
O3 C4 1_555 1_555
S1 C1 1_555 1_555
C13 H16 1_555 1_555
H17 C13 1_555 1_555
C14 C13 1_555 1_555
H18 C14 1_555 1_555
C15 C14 1_555 1_555
H19 C15 1_555 1_555
H20 C15 1_555 1_555
C16 C15 1_555 1_555
H21 C16 1_555 1_555
C17 C16 1_555 1_555
H22 C17 1_555 1_555
C18 H23 1_555 1_555
H24 C18 1_555 1_555
H25 C18 1_555 1_555
C19 C17 1_555 1_555
C20 C19 1_555 1_555
H26 C20 1_555 1_555
C21 C20 1_555 1_555
H27 C21 1_555 1_555
C22 C21 1_555 1_555
H28 C22 1_555 1_555
C23 C22 1_555 1_555
H29 C23 1_555 1_555
C24 C19 1_555 1_555
H30 C24 1_555 1_555
I2 C13 1_555 1_555
O4 S2 1_555 1_555
O5 S2 1_555 1_555
O6 C14 1_555 1_555
S2 C16 1_555 1_555
C2 S1 1_555 1_555
C6 O3 1_555 1_555
C11 C12 1_555 1_555
C17 O6 1_555 1_555
C18 S2 1_555 1_555
C23 C24 1_555 1_555

#END
