
#######################################################################
#
#                 Cambridge Crystallographic Data Centre
#                                CCDC 
#
#######################################################################
#
# If this CIF has been generated from an entry in the Cambridge 
# Structural Database, then it will include bibliographic, chemical, 
# crystal, experimental, refinement or atomic coordinate data resulting 
# from the CCDC's data processing and validation procedures.
#
#######################################################################

data_TASPOS
_chemical_formula_moiety         'C19 H24 N2 O4 S2'
_chemical_name_systematic        
'3-(3-Phenyl-2-mercaptopropanoylamino)-1-aza-8-thiabicyclo(5.4.0)undecan-2-one-11-carboxylic acid'
_chemical_properties_biological  
'some activity versus ACE and neutral endopeptidase'
_symmetry_cell_setting           monoclinic
_symmetry_space_group_name_H-M   'P 21'
_symmetry_Int_Tables_number      4
_space_group_name_Hall           'P 2yb'
loop_
_symmetry_equiv_pos_site_id
_symmetry_equiv_pos_as_xyz
1 x,y,z
2 -x,1/2+y,-z
_cell_length_a                   6.032(1)
_cell_length_b                   19.932(3)
_cell_length_c                   8.332(1)
_cell_angle_alpha                90
_cell_angle_beta                 97.18(1)
_cell_angle_gamma                90
_cell_volume                     993.9
_cell_formula_units_Z            2
loop_
_atom_site_label
_atom_site_type_symbol
_atom_site_fract_x
_atom_site_fract_y
_atom_site_fract_z
N1 N 0.9991(6) 0.1277(2) 0.7668(4)
C1 C 0.9412(8) 0.1221(3) 0.9326(5)
C2 C 0.7742(9) 0.0662(3) 0.9496(6)
C3 C 0.843(1) -0.0017(3) 0.8941(6)
S1 S 0.8997(2) -0.00132(8) 0.6859(2)
C4 C 1.1026(8) 0.0662(3) 0.7121(5)
C5 C 1.2317(9) 0.0711(3) 0.5652(6)
C6 C 1.3570(9) 0.1365(3) 0.5612(6)
C7 C 1.2119(9) 0.1946(3) 0.4842(6)
C8 C 0.9627(8) 0.1856(3) 0.5040(5)
C9 C 0.9254(7) 0.1823(2) 0.6806(5)
C10 C 1.1545(9) 0.1180(3) 1.0533(5)
O1 O 1.1784(8) 0.0803(3) 1.1659(5)
O2 O 1.3050(7) 0.1615(2) 1.0181(5)
O3 O 0.8305(7) 0.2285(2) 0.7397(4)
N2 N 0.8360(7) 0.2417(2) 0.4289(5)
C11 C 0.6979(7) 0.2345(3) 0.2905(5)
O4 O 0.6705(6) 0.1804(2) 0.2222(4)
C12 C 0.5757(9) 0.2959(3) 0.2179(6)
S2 S 0.5807(4) 0.3693(1) 0.3465(2)
C13 C 0.6572(9) 0.3109(3) 0.0551(6)
C14 C 0.5024(9) 0.3533(3) -0.0606(6)
C15 C 0.286(1) 0.3295(3) -0.1119(7)
C16 C 0.142(1) 0.3667(4) -0.2219(7)
C17 C 0.211(1) 0.4259(4) -0.2816(7)
C18 C 0.421(1) 0.4498(3) -0.2348(7)
C19 C 0.570(1) 0.4127(4) -0.1211(7)
H1 H 0.871 0.170 0.967
H2 H 0.615 0.078 0.878
H3 H 0.746 0.062 1.077
H4 H 0.711 -0.039 0.907
H5 H 0.995 -0.019 0.972
H6 H 1.242 0.050 0.803
H7 H 1.111 0.067 0.456
H8 H 1.349 0.029 0.568
H9 H 1.497 0.128 0.491
H10 H 1.422 0.150 0.684
H11 H 1.229 0.196 0.356
H12 H 1.272 0.241 0.542
H13 H 0.905 0.139 0.443
H14 H 1.444 0.164 1.116
H15 H 0.850 0.291 0.486
H16 H 0.400 0.282 0.184
H17 H 0.535 0.370 0.480
H18 H 0.818 0.335 0.079
H19 H 0.682 0.262 -0.003
H20 H 0.230 0.282 -0.064
H21 H -0.028 0.348 -0.261
H22 H 0.099 0.454 -0.370
H23 H 0.479 0.498 -0.282
H24 H 0.739 0.431 -0.083
loop_
_geom_bond_atom_site_label_1
_geom_bond_atom_site_label_2
_geom_bond_site_symmetry_1
_geom_bond_site_symmetry_2
N1 C1 1_555 1_555
C1 C2 1_555 1_555
C2 C3 1_555 1_555
C3 S1 1_555 1_555
S1 C4 1_555 1_555
C4 N1 1_555 1_555
C5 C4 1_555 1_555
C6 C5 1_555 1_555
C7 C6 1_555 1_555
C8 C7 1_555 1_555
C9 N1 1_555 1_555
C10 C1 1_555 1_555
O1 C10 1_555 1_555
O2 C10 1_555 1_555
O3 C9 1_555 1_555
N2 C8 1_555 1_555
C11 N2 1_555 1_555
O4 C11 1_555 1_555
C12 C11 1_555 1_555
S2 C12 1_555 1_555
C13 C12 1_555 1_555
C14 C13 1_555 1_555
C15 C14 1_555 1_555
C16 C15 1_555 1_555
C17 C16 1_555 1_555
C18 C17 1_555 1_555
C19 C14 1_555 1_555
H1 C1 1_555 1_555
H2 C2 1_555 1_555
H3 C2 1_555 1_555
H4 C3 1_555 1_555
H5 C3 1_555 1_555
H6 C4 1_555 1_555
H7 C5 1_555 1_555
H8 C5 1_555 1_555
H9 C6 1_555 1_555
H10 C6 1_555 1_555
H11 C7 1_555 1_555
H12 C7 1_555 1_555
H13 C8 1_555 1_555
H14 O2 1_555 1_555
H15 N2 1_555 1_555
H16 C12 1_555 1_555
H17 S2 1_555 1_555
H18 C13 1_555 1_555
H19 C13 1_555 1_555
H20 C15 1_555 1_555
H21 C16 1_555 1_555
H22 C17 1_555 1_555
H23 C18 1_555 1_555
H24 C19 1_555 1_555
C8 C9 1_555 1_555
C18 C19 1_555 1_555

#END
