
#######################################################################
#
#                 Cambridge Crystallographic Data Centre
#                                CCDC 
#
#######################################################################
#
# If this CIF has been generated from an entry in the Cambridge 
# Structural Database, then it will include bibliographic, chemical, 
# crystal, experimental, refinement or atomic coordinate data resulting 
# from the CCDC's data processing and validation procedures.
#
#######################################################################

data_TATBEX01
_chemical_compound_source        'Peganum harmala'
_chemical_name_common            (-)-peganin
_chemical_formula_moiety         'C11 H12 N2 O1'
_chemical_name_systematic        
1,2,3,9-Tetrahydropyrrolo[2,1-b]quinazolin-3-ol
_symmetry_cell_setting           orthorhombic
_symmetry_space_group_name_H-M   'P 21 21 21'
_symmetry_Int_Tables_number      19
_space_group_name_Hall           'P 2ac 2ab'
loop_
_symmetry_equiv_pos_site_id
_symmetry_equiv_pos_as_xyz
1 x,y,z
2 1/2-x,-y,1/2+z
3 -x,1/2+y,1/2-z
4 1/2+x,1/2-y,-z
_cell_length_a                   10.432(2)
_cell_length_b                   13.209(3)
_cell_length_c                   14.059(3)
_cell_angle_alpha                90
_cell_angle_beta                 90
_cell_angle_gamma                90
_cell_volume                     1937.28
_exptl_crystal_colour            'light red'
_exptl_crystal_description       prism
_chemical_melting_point          '446 K'
_cell_formula_units_Z            8
_exptl_crystal_recrystallization_method acetone
loop_
_atom_site_label
_atom_site_type_symbol
_atom_site_fract_x
_atom_site_fract_y
_atom_site_fract_z
N1 N 0.7251(5) 0.3827(5) 0.5937(5)
C1 C 0.9341(6) 0.4384(6) 0.4911(6)
N3 N 0.8143(5) 0.4860(5) 0.4740(4)
C2 C 0.9503(6) 0.3666(6) 0.5632(6)
O1 O 0.5377(5) 0.5021(5) 0.4250(5)
H1 H 0.530(9) 0.574(7) 0.409(7)
C4 C 0.6018(6) 0.3657(7) 0.6399(6)
H2 H 0.5994 0.3974 0.7021
H3 H 0.5847 0.2939 0.6469
C7 C 0.8426(6) 0.3413(6) 0.6304(6)
H5 H 0.8349 0.2685 0.6369
H6 H 0.8603 0.3696 0.6928
C8 C 1.0698(7) 0.3210(6) 0.5744(6)
H7 H 1.0809 0.2728 0.6220
C9 C 0.7205(7) 0.4526(6) 0.5253(6)
C11 C 1.1722(8) 0.3458(7) 0.5164(7)
H9 H 1.2508 0.3136 0.5242
C12 C 1.1573(8) 0.4187(7) 0.4468(7)
H10 H 1.2266 0.4376 0.4092
C14 C 0.5838(7) 0.4932(7) 0.5181(6)
H12 H 0.5782 0.5589 0.5503
C15 C 1.0386(7) 0.4635(6) 0.4334(6)
H13 H 1.0283 0.5111 0.3853
C20 C 0.5066(7) 0.4142(8) 0.5737(8)
H19 H 0.4379 0.4461 0.6092
H20 H 0.4699 0.3643 0.5310
N2 N 0.3778(5) 0.3518(5) 0.1649(5)
C3 C 0.6024(7) 0.3358(7) 0.2036(5)
C5 C 0.5962(7) 0.2416(7) 0.1647(6)
N4 N 0.4828(6) 0.2011(5) 0.1227(5)
C6 C 0.2509(8) 0.2301(8) 0.0903(8)
H4 H 0.2549 0.2135 0.0224
C10 C 0.7164(8) 0.3694(7) 0.2446(5)
H8 H 0.7199 0.4333 0.2722
C13 C 0.8246(9) 0.3086(9) 0.2445(7)
H11 H 0.9006 0.3313 0.2715
C16 C 0.4858(8) 0.4016(7) 0.2061(7)
H14 H 0.4664 0.4193 0.2716
H15 H 0.5028 0.4638 0.1717
C17 C 0.3846(8) 0.2595(7) 0.1266(6)
C18 C 0.8178(9) 0.2155(9) 0.2043(8)
H16 H 0.8904 0.1746 0.2030
O2 O 0.1997(5) 0.1493(6) 0.1408(4)
H17 H 0.198(10) 0.083(7) 0.096(7)
C19 C 0.7038(8) 0.1801(8) 0.1648(7)
H18 H 0.6999 0.1155 0.1387
C21 C 0.1728(10) 0.3276(9) 0.1052(10)
H21 H 0.1479 0.3559 0.0443
H22 H 0.0957 0.3130 0.1413
C22 C 0.2530(8) 0.3991(7) 0.1569(7)
H23 H 0.2592 0.4625 0.1225
H24 H 0.2175 0.4124 0.2194
loop_
_geom_bond_atom_site_label_1
_geom_bond_atom_site_label_2
_geom_bond_site_symmetry_1
_geom_bond_site_symmetry_2
N1 C4 1_555 1_555
N2 C16 1_555 1_555
C1 N3 1_555 1_555
N3 C9 1_555 1_555
C2 C1 1_555 1_555
C3 C5 1_555 1_555
O1 H1 1_555 1_555
C4 H2 1_555 1_555
H3 C4 1_555 1_555
C5 N4 1_555 1_555
N4 C17 1_555 1_555
C6 H4 1_555 1_555
C7 N1 1_555 1_555
H5 C7 1_555 1_555
H6 C7 1_555 1_555
C8 C2 1_555 1_555
H7 C8 1_555 1_555
C9 N1 1_555 1_555
C10 C3 1_555 1_555
H8 C10 1_555 1_555
C11 C8 1_555 1_555
H9 C11 1_555 1_555
C12 C11 1_555 1_555
H10 C12 1_555 1_555
C13 C10 1_555 1_555
H11 C13 1_555 1_555
C14 O1 1_555 1_555
H12 C14 1_555 1_555
C15 C1 1_555 1_555
H13 C15 1_555 1_555
C16 C3 1_555 1_555
H14 C16 1_555 1_555
H15 C16 1_555 1_555
C17 N2 1_555 1_555
C18 C13 1_555 1_555
H16 C18 1_555 1_555
O2 C6 1_555 1_555
H17 O2 1_555 1_555
C19 C5 1_555 1_555
H18 C19 1_555 1_555
C20 C4 1_555 1_555
H19 C20 1_555 1_555
H20 C20 1_555 1_555
C21 C6 1_555 1_555
H21 C21 1_555 1_555
H22 C21 1_555 1_555
C22 N2 1_555 1_555
H23 C22 1_555 1_555
H24 C22 1_555 1_555
C2 C7 1_555 1_555
C6 C17 1_555 1_555
C9 C14 1_555 1_555
C12 C15 1_555 1_555
C14 C20 1_555 1_555
C18 C19 1_555 1_555
C21 C22 1_555 1_555

#END
