
#######################################################################
#
#                 Cambridge Crystallographic Data Centre
#                                CCDC 
#
#######################################################################
#
# If this CIF has been generated from an entry in the Cambridge 
# Structural Database, then it will include bibliographic, chemical, 
# crystal, experimental, refinement or atomic coordinate data resulting 
# from the CCDC's data processing and validation procedures.
#
#######################################################################

data_TATBOH
_chemical_formula_moiety         'C33 H28 O3,C1 H2 Cl2'
_chemical_name_systematic        
'6,7-Dimethyl-1,12-diphenyl-19-oxahexacyclo[10.6.1.1^14,17^.0^2,11^.0^4,9^.0^13,18^]icosa-2(11),3,6,9-tetraene-5,8-dione dichloromethane solvate'
_symmetry_cell_setting           monoclinic
_symmetry_space_group_name_H-M   'C 2/c'
_symmetry_Int_Tables_number      15
_space_group_name_Hall           '-C 2yn'
loop_
_symmetry_equiv_pos_site_id
_symmetry_equiv_pos_as_xyz
1 x,y,z
2 -x,y,1/2-z
3 1/2+x,1/2+y,z
4 1/2-x,1/2+y,1/2-z
5 -x,-y,-z
6 x,-y,1/2+z
7 1/2-x,1/2-y,-z
8 1/2+x,1/2-y,1/2+z
_cell_length_a                   32.3255(11)
_cell_length_b                   13.7211(4)
_cell_length_c                   13.1621(4)
_cell_angle_alpha                90
_cell_angle_beta                 108.675(2)
_cell_angle_gamma                90
_cell_volume                     5530.57
_exptl_crystal_colour            'light yellow'
_exptl_crystal_description       block
_cell_formula_units_Z            8
loop_
_atom_site_label
_atom_site_type_symbol
_atom_site_fract_x
_atom_site_fract_y
_atom_site_fract_z
C1 C 0.1609(3) 0.3011(5) 0.8418(3)
H1 H 0.1816 0.2947 0.8007
H2 H 0.1332 0.2688 0.8005
Cl1 Cl 0.18280(5) 0.24244(9) 0.96734(13)
Cl2 Cl 0.15086(7) 0.42537(12) 0.85749(17)
O1 O 0.14737(4) 0.78437(9) 0.74997(10)
O2 O -0.04977(4) 0.92383(9) 0.56406(10)
O3 O 0.06656(4) 1.21023(10) 0.69107(11)
C4 C 0.14708(6) 0.69163(16) 1.07147(16)
H7 H 0.1573 0.6326 1.1156
H8 H 0.1192 0.7135 1.0800
C5 C 0.18205(7) 0.77391(17) 1.10256(17)
H9 H 0.1703 0.8335 1.1256
H10 H 0.2084 0.7526 1.1607
C6 C 0.19217(6) 0.79115(15) 0.99755(16)
H11 H 0.2207 0.8243 1.0064
C7 C 0.15204(6) 0.84299(13) 0.92096(15)
H12 H 0.1421 0.8976 0.9578
C8 C 0.11717(6) 0.75934(13) 0.88893(15)
H13 H 0.0908 0.7757 0.9095
C9 C 0.14189(6) 0.67212(14) 0.95309(15)
H14 H 0.1291 0.6071 0.9259
C10 C 0.18888(6) 0.68700(15) 0.95345(18)
H15 H 0.1917 0.6839 0.8808
H16 H 0.2098 0.6417 1.0024
C11 C 0.15422(6) 0.87522(13) 0.80914(15)
C12 C 0.11058(6) 0.92485(13) 0.75445(14)
C13 C 0.07998(6) 0.84926(13) 0.72556(13)
C14 C 0.10635(5) 0.75665(13) 0.76453(14)
C15 C 0.09856(6) 1.02050(13) 0.73480(14)
H17 H 0.1196 1.0713 0.7545
C16 C 0.05415(6) 1.04113(13) 0.68457(13)
C17 C 0.02354(5) 0.96584(13) 0.65449(13)
C18 C 0.03634(5) 0.86847(13) 0.67544(13)
H18 H 0.0156 0.8172 0.6557
C19 C 0.03989(6) 1.14413(13) 0.66426(14)
C20 C -0.00734(6) 1.16573(13) 0.61424(14)
C21 C -0.03697(6) 1.09315(14) 0.58399(14)
C22 C -0.02325(6) 0.98917(13) 0.59861(13)
C23 C -0.01968(7) 1.27163(14) 0.59913(18)
H19 H -0.0283 1.2880 0.5227
H20 H 0.0054 1.3117 0.6388
H21 H -0.0441 1.2842 0.6261
C24 C -0.08491(6) 1.11154(15) 0.53332(16)
H22 H -0.0976 1.1303 0.5888
H23 H -0.0991 1.0521 0.4975
H24 H -0.0893 1.1642 0.4806
C25 C 0.08964(6) 0.66378(13) 0.70549(15)
C26 C 0.10845(6) 0.62565(14) 0.63302(15)
H25 H 0.1327 0.6576 0.6217
C27 C 0.09198(7) 0.54126(14) 0.57717(17)
H26 H 0.1052 0.5154 0.5281
C28 C 0.05669(7) 0.49429(15) 0.59175(18)
H27 H 0.0456 0.4364 0.5530
C29 C 0.03765(7) 0.53218(16) 0.66325(19)
H28 H 0.0131 0.5006 0.6732
C30 C 0.05419(6) 0.61607(15) 0.72056(17)
H29 H 0.0412 0.6411 0.7705
C31 C 0.19398(6) 0.92724(14) 0.80149(15)
C32 C 0.21294(7) 1.00104(16) 0.87317(18)
H30 H 0.2018 1.0165 0.9298
C33 C 0.24834(8) 1.05253(19) 0.8622(2)
H31 H 0.2613 1.1029 0.9116
C34 C 0.26463(7) 1.03089(19) 0.7803(2)
H32 H 0.2889 1.0660 0.7732
C35 C 0.24576(8) 0.9587(2) 0.7093(2)
H33 H 0.2568 0.9441 0.6523
C36 C 0.21057(7) 0.90665(18) 0.7194(2)
H34 H 0.1978 0.8564 0.6696
C2? C 0.165(2) 0.301(3) 0.8433(19)
H3? H 0.1892 0.3198 0.8173
H4? H 0.1456 0.2560 0.7898
Cl3? Cl 0.1858(6) 0.2396(11) 0.9659(16)
Cl4? Cl 0.1352(3) 0.4049(7) 0.8534(8)
C3? C 0.1404(4) 0.3161(9) 0.8637(19)
H5? H 0.1241 0.3021 0.7876
H6? H 0.1207 0.3033 0.9064
Cl5? Cl 0.1861(2) 0.2391(5) 0.9072(8)
Cl6? Cl 0.1564(5) 0.4385(7) 0.8775(14)
loop_
_geom_bond_atom_site_label_1
_geom_bond_atom_site_label_2
_geom_bond_site_symmetry_1
_geom_bond_site_symmetry_2
C1 H1 1_555 1_555
H2 C1 1_555 1_555
Cl1 C1 1_555 1_555
Cl2 C1 1_555 1_555
O1 C11 1_555 1_555
O2 C22 1_555 1_555
O3 C19 1_555 1_555
C4 H7 1_555 1_555
H8 C4 1_555 1_555
C5 C4 1_555 1_555
H9 C5 1_555 1_555
H10 C5 1_555 1_555
C6 C5 1_555 1_555
H11 C6 1_555 1_555
C7 C6 1_555 1_555
H12 C7 1_555 1_555
C8 C7 1_555 1_555
H13 C8 1_555 1_555
C9 C4 1_555 1_555
H14 C9 1_555 1_555
C10 C6 1_555 1_555
H15 C10 1_555 1_555
H16 C10 1_555 1_555
C11 C7 1_555 1_555
C12 C11 1_555 1_555
C13 C12 1_555 1_555
C14 O1 1_555 1_555
C15 C12 1_555 1_555
H17 C15 1_555 1_555
C16 C15 1_555 1_555
C17 C16 1_555 1_555
C18 C13 1_555 1_555
H18 C18 1_555 1_555
C19 C16 1_555 1_555
C20 C19 1_555 1_555
C21 C20 1_555 1_555
C22 C17 1_555 1_555
C23 C20 1_555 1_555
H19 C23 1_555 1_555
H20 C23 1_555 1_555
H21 C23 1_555 1_555
C24 C21 1_555 1_555
H22 C24 1_555 1_555
H23 C24 1_555 1_555
H24 C24 1_555 1_555
C25 C14 1_555 1_555
C26 C25 1_555 1_555
H25 C26 1_555 1_555
C27 C26 1_555 1_555
H26 C27 1_555 1_555
C28 C27 1_555 1_555
H27 C28 1_555 1_555
C29 C28 1_555 1_555
H28 C29 1_555 1_555
C30 C25 1_555 1_555
H29 C30 1_555 1_555
C31 C11 1_555 1_555
C32 C31 1_555 1_555
H30 C32 1_555 1_555
C33 C32 1_555 1_555
H31 C33 1_555 1_555
C34 C33 1_555 1_555
H32 C34 1_555 1_555
C35 C34 1_555 1_555
H33 C35 1_555 1_555
C36 C31 1_555 1_555
H34 C36 1_555 1_555
C8 C9 1_555 1_555
C8 C14 1_555 1_555
C9 C10 1_555 1_555
C13 C14 1_555 1_555
C17 C18 1_555 1_555
C21 C22 1_555 1_555
C29 C30 1_555 1_555
C35 C36 1_555 1_555

#END
