
#######################################################################
#
#                 Cambridge Crystallographic Data Centre
#                                CCDC 
#
#######################################################################
#
# If this CIF has been generated from an entry in the Cambridge 
# Structural Database, then it will include bibliographic, chemical, 
# crystal, experimental, refinement or atomic coordinate data resulting 
# from the CCDC's data processing and validation procedures.
#
#######################################################################

data_TAVKUZ
_chemical_formula_moiety         'C35 H42 O4'
_chemical_name_systematic        
'dimethyl (4,4-bis(4-t-butylphenyl)-2-phenylbut-3-en-1-yl)malonate'
_symmetry_cell_setting           triclinic
_symmetry_space_group_name_H-M   'P -1'
_symmetry_Int_Tables_number      2
_space_group_name_Hall           '-P 1'
loop_
_symmetry_equiv_pos_site_id
_symmetry_equiv_pos_as_xyz
1 x,y,z
2 -x,-y,-z
_cell_length_a                   9.726(2)
_cell_length_b                   12.037(2)
_cell_length_c                   14.660(3)
_cell_angle_alpha                113.553(4)
_cell_angle_beta                 99.326(4)
_cell_angle_gamma                95.148(4)
_cell_volume                     1529.69
_exptl_crystal_colour            colorless
_exptl_crystal_description       prismatic
_cell_formula_units_Z            2
loop_
_atom_site_label
_atom_site_type_symbol
_atom_site_fract_x
_atom_site_fract_y
_atom_site_fract_z
O1 O -0.0487(3) 0.5589(2) -0.25318(17)
O2 O -0.0911(2) 0.74601(19) -0.19247(15)
O3 O 0.2751(2) 0.80830(16) -0.09313(14)
O4 O 0.12270(18) 0.91279(14) -0.01126(14)
C1 C 0.0681(2) 0.69683(19) -0.08176(16)
H1 H 0.0107 0.7190 -0.0300
C2 C 0.1430(2) 0.59401(19) -0.07568(15)
H2 H 0.2231 0.5907 -0.1078
H3 H 0.0787 0.5163 -0.1136
C3 C 0.1951(2) 0.60992(18) 0.03412(15)
H4 H 0.1118 0.6097 0.0638
C4 C 0.2900(2) 0.73131(18) 0.09761(15)
H5 H 0.3746 0.7431 0.0782
C5 C 0.2677(2) 0.82443(18) 0.17855(15)
C6 C 0.3707(2) 0.94149(19) 0.23322(15)
C7 C 0.3833(2) 1.0110(2) 0.33569(16)
H6 H 0.3251 0.9847 0.3702
C8 C 0.4799(2) 1.1184(2) 0.38890(17)
H7 H 0.4858 1.1618 0.4584
C9 C 0.5676(2) 1.1635(2) 0.34230(17)
C10 C 0.5535(3) 1.0942(2) 0.23823(18)
H8 H 0.6098 1.1218 0.2034
C11 C 0.4588(2) 0.9863(2) 0.18552(17)
H9 H 0.4537 0.9421 0.1162
C12 C 0.6729(3) 1.2834(2) 0.3999(2)
C13 C 0.6739(7) 1.3418(5) 0.5120(5)
H10 H 0.7508 1.4098 0.5463
H11 H 0.6854 1.2822 0.5396
H12 H 0.5862 1.3706 0.5217
C14 C 0.6424(6) 1.3709(4) 0.3523(4)
H13 H 0.5478 1.3868 0.3546
H14 H 0.6520 1.3351 0.2828
H15 H 0.7081 1.4466 0.3893
C15 C 0.8233(5) 1.2515(5) 0.3836(5)
H16 H 0.8198 1.2083 0.3120
H17 H 0.8506 1.2007 0.4175
H18 H 0.8911 1.3262 0.4113
C16 C 0.1422(2) 0.81616(18) 0.22292(14)
C17 C 0.1187(2) 0.73200(19) 0.26315(15)
H19 H 0.1797 0.6757 0.2587
C18 C 0.0073(2) 0.7294(2) 0.30965(16)
H20 H -0.0057 0.6706 0.3351
C19 C -0.0859(2) 0.8113(2) 0.31965(15)
C20 C -0.0628(2) 0.8949(2) 0.27801(17)
H21 H -0.1245 0.9506 0.2817
C21 C 0.0485(2) 0.8977(2) 0.23145(17)
H22 H 0.0610 0.9556 0.2052
C22 C -0.2074(2) 0.8075(2) 0.37254(18)
C23 C -0.3102(6) 0.6907(7) 0.3096(5)
H23 H -0.3865 0.6872 0.3431
H24 H -0.2631 0.6217 0.3015
H25 H -0.3471 0.6883 0.2439
C24 C -0.1527(5) 0.8062(6) 0.4758(3)
H26 H -0.2302 0.8032 0.5082
H27 H -0.0849 0.8794 0.5179
H28 H -0.1085 0.7353 0.4660
C25 C -0.2785(6) 0.9192(6) 0.3968(5)
H29 H -0.3273 0.9196 0.3346
H30 H -0.2084 0.9922 0.4332
H31 H -0.3449 0.9167 0.4381
C26 C 0.2673(2) 0.50468(19) 0.03935(15)
C27 C 0.2379(3) 0.3881(2) -0.03858(18)
H32 H 0.1716 0.3719 -0.0976
C28 C 0.3044(3) 0.2953(2) -0.0310(2)
H33 H 0.2830 0.2177 -0.0852
C29 C 0.4010(3) 0.3152(2) 0.0546(2)
H34 H 0.4463 0.2522 0.0592
C30 C 0.4299(3) 0.4289(3) 0.1329(2)
H35 H 0.4950 0.4440 0.1923
C31 C 0.3635(3) 0.5223(2) 0.1251(2)
H36 H 0.3848 0.5995 0.1798
C32 C -0.0297(3) 0.6564(2) -0.18553(19)
C33 C -0.1900(4) 0.7193(4) -0.2865(3)
H37 H -0.1419 0.6944 -0.3419
H38 H -0.2288 0.7915 -0.2816
H39 H -0.2649 0.6541 -0.2986
C34 C 0.1686(3) 0.8106(2) -0.06260(17)
C35 C 0.2010(3) 1.0258(2) -0.0028(3)
H40 H 0.2980 1.0349 0.0295
H41 H 0.1609 1.0943 0.0372
H42 H 0.1961 1.0231 -0.0696
C36? C 0.7363(16) 1.2993(15) 0.5028(14)
H43? H 0.7856 1.2324 0.4988
H44? H 0.6634 1.3004 0.5399
H45? H 0.8017 1.3755 0.5371
C37? C 0.5880(16) 1.3932(11) 0.4188(12)
H46? H 0.6525 1.4699 0.4540
H47? H 0.5213 1.3888 0.4594
H48? H 0.5385 1.3879 0.3546
C38? C 0.7835(17) 1.3033(13) 0.3510(12)
H49? H 0.8634 1.3584 0.4017
H50? H 0.7497 1.3385 0.3052
H51? H 0.8114 1.2262 0.3136
C39? C -0.2192(14) 0.6988(15) 0.3996(12)
H52? H -0.3076 0.6896 0.4192
H53? H -0.1427 0.7123 0.4552
H54? H -0.2149 0.6256 0.3416
C40? C -0.1957(16) 0.9325(16) 0.4549(12)
H55? H -0.2833 0.9407 0.4771
H56? H -0.1751 0.9930 0.4295
H57? H -0.1210 0.9446 0.5112
C41? C -0.3450(11) 0.7917(16) 0.2983(10)
H58? H -0.3583 0.7143 0.2400
H59? H -0.3404 0.8573 0.2768
H60? H -0.4228 0.7937 0.3314
loop_
_geom_bond_atom_site_label_1
_geom_bond_atom_site_label_2
_geom_bond_site_symmetry_1
_geom_bond_site_symmetry_2
O1 C32 1_555 1_555
O2 C32 1_555 1_555
O3 C34 1_555 1_555
O4 C34 1_555 1_555
C1 H1 1_555 1_555
C2 C1 1_555 1_555
H2 C2 1_555 1_555
H3 C2 1_555 1_555
C3 C2 1_555 1_555
H4 C3 1_555 1_555
C4 C3 1_555 1_555
H5 C4 1_555 1_555
C5 C4 1_555 1_555
C6 C5 1_555 1_555
C7 C6 1_555 1_555
H6 C7 1_555 1_555
C8 C7 1_555 1_555
H7 C8 1_555 1_555
C9 C8 1_555 1_555
C10 C9 1_555 1_555
H8 C10 1_555 1_555
C11 C6 1_555 1_555
H9 C11 1_555 1_555
C12 C9 1_555 1_555
C13 C12 1_555 1_555
H10 C13 1_555 1_555
H11 C13 1_555 1_555
H12 C13 1_555 1_555
C14 C12 1_555 1_555
H13 C14 1_555 1_555
H14 C14 1_555 1_555
H15 C14 1_555 1_555
C15 C12 1_555 1_555
H16 C15 1_555 1_555
H17 C15 1_555 1_555
H18 C15 1_555 1_555
C16 C5 1_555 1_555
C17 C16 1_555 1_555
H19 C17 1_555 1_555
C18 C17 1_555 1_555
H20 C18 1_555 1_555
C19 C18 1_555 1_555
C20 C19 1_555 1_555
H21 C20 1_555 1_555
C21 C16 1_555 1_555
H22 C21 1_555 1_555
C22 C19 1_555 1_555
C23 C22 1_555 1_555
H23 C23 1_555 1_555
H24 C23 1_555 1_555
H25 C23 1_555 1_555
C24 C22 1_555 1_555
H26 C24 1_555 1_555
H27 C24 1_555 1_555
H28 C24 1_555 1_555
C25 C22 1_555 1_555
H29 C25 1_555 1_555
H30 C25 1_555 1_555
H31 C25 1_555 1_555
C26 C3 1_555 1_555
C27 C26 1_555 1_555
H32 C27 1_555 1_555
C28 C27 1_555 1_555
H33 C28 1_555 1_555
C29 C28 1_555 1_555
H34 C29 1_555 1_555
C30 C29 1_555 1_555
H35 C30 1_555 1_555
C31 C26 1_555 1_555
H36 C31 1_555 1_555
C32 C1 1_555 1_555
C33 O2 1_555 1_555
H37 C33 1_555 1_555
H38 C33 1_555 1_555
H39 C33 1_555 1_555
C34 C1 1_555 1_555
C35 O4 1_555 1_555
H40 C35 1_555 1_555
H41 C35 1_555 1_555
H42 C35 1_555 1_555
C10 C11 1_555 1_555
C20 C21 1_555 1_555
C30 C31 1_555 1_555

#END
