
#######################################################################
#
#                 Cambridge Crystallographic Data Centre
#                                CCDC 
#
#######################################################################
#
# If this CIF has been generated from an entry in the Cambridge 
# Structural Database, then it will include bibliographic, chemical, 
# crystal, experimental, refinement or atomic coordinate data resulting 
# from the CCDC's data processing and validation procedures.
#
#######################################################################

data_TAVKIM
_chemical_formula_moiety         'C15 H17 N1 O4'
_chemical_name_systematic        
(S)-4-(3,4-Dimethoxybenzyl)-3-propadienyl-1,3-oxazolidin-2-one
_symmetry_cell_setting           orthorhombic
_symmetry_space_group_name_H-M   'P 21 21 21'
_symmetry_Int_Tables_number      19
_space_group_name_Hall           'P 2ac 2ab'
loop_
_symmetry_equiv_pos_site_id
_symmetry_equiv_pos_as_xyz
1 x,y,z
2 1/2-x,-y,1/2+z
3 -x,1/2+y,1/2-z
4 1/2+x,1/2-y,-z
_cell_length_a                   7.2379(10)
_cell_length_b                   11.5884(15)
_cell_length_c                   16.677(2)
_cell_angle_alpha                90
_cell_angle_beta                 90
_cell_angle_gamma                90
_cell_volume                     1398.79
_exptl_crystal_colour            colorless
_exptl_crystal_description       block
_chemical_melting_point          '118-120 deg.C'
_cell_formula_units_Z            4
loop_
_atom_site_label
_atom_site_type_symbol
_atom_site_fract_x
_atom_site_fract_y
_atom_site_fract_z
N1 N 0.7705(2) 0.30403(11) 0.48678(9)
C1 C 0.7838(3) 0.27738(15) 0.40811(12)
O1 O 0.8156(2) 0.18422(12) 0.37865(9)
O2 O 0.7552(2) 0.37345(11) 0.36349(8)
C2 C 0.6896(3) 0.46506(15) 0.41545(11)
H1 H 0.5541 0.4740 0.4106
H2 H 0.7493 0.5393 0.4015
C3 C 0.7427(2) 0.42786(13) 0.50078(10)
H3 H 0.6367 0.4404 0.5383
C4 C 0.7842(3) 0.22116(14) 0.54788(12)
H4 H 0.7994 0.1426 0.5329
C5 C 0.7774(3) 0.24622(15) 0.62403(12)
C6 C 0.7684(4) 0.2697(2) 0.69979(14)
H5 H 0.639(5) 0.277(3) 0.7285(19)
H6 H 0.876(5) 0.281(3) 0.7333(18)
C7 C 0.9181(2) 0.48606(14) 0.53354(11)
H7 H 0.9691 0.4388 0.5778
H8 H 1.0122 0.4898 0.4905
C8 C 0.8796(2) 0.60687(13) 0.56408(11)
C9 C 0.8815(2) 0.70046(13) 0.51099(11)
H9 H 0.9129 0.6881 0.4563
C10 C 0.8383(2) 0.81098(13) 0.53690(10)
C11 C 0.7919(2) 0.82979(13) 0.61793(10)
C12 C 0.7946(3) 0.73834(14) 0.67100(10)
H10 H 0.7668 0.7507 0.7260
C13 C 0.8384(2) 0.62688(14) 0.64359(11)
H11 H 0.8396 0.5644 0.6805
O3 O 0.83559(18) 0.90716(9) 0.48955(7)
C14 C 0.8502(3) 0.88972(16) 0.40463(10)
H12 H 0.9706 0.8555 0.3921
H13 H 0.8384 0.9640 0.3770
H14 H 0.7517 0.8377 0.3868
O4 O 0.7437(2) 0.94145(9) 0.63626(7)
C15 C 0.6923(4) 0.96286(17) 0.71733(12)
H15 H 0.5884 0.9129 0.7319
H16 H 0.6557 1.0438 0.7233
H17 H 0.7974 0.9466 0.7526
loop_
_geom_bond_atom_site_label_1
_geom_bond_atom_site_label_2
_geom_bond_site_symmetry_1
_geom_bond_site_symmetry_2
N1 C1 1_555 1_555
C1 O1 1_555 1_555
O2 C1 1_555 1_555
C2 O2 1_555 1_555
H1 C2 1_555 1_555
H2 C2 1_555 1_555
C3 N1 1_555 1_555
H3 C3 1_555 1_555
C4 N1 1_555 1_555
H4 C4 1_555 1_555
C5 C4 1_555 1_555
C6 C5 1_555 1_555
H5 C6 1_555 1_555
H6 C6 1_555 1_555
C7 C3 1_555 1_555
H7 C7 1_555 1_555
H8 C7 1_555 1_555
C8 C7 1_555 1_555
C9 C8 1_555 1_555
H9 C9 1_555 1_555
C10 C9 1_555 1_555
C11 C10 1_555 1_555
C12 C11 1_555 1_555
H10 C12 1_555 1_555
C13 C8 1_555 1_555
H11 C13 1_555 1_555
O3 C10 1_555 1_555
C14 O3 1_555 1_555
H12 C14 1_555 1_555
H13 C14 1_555 1_555
H14 C14 1_555 1_555
O4 C11 1_555 1_555
C15 O4 1_555 1_555
H15 C15 1_555 1_555
H16 C15 1_555 1_555
H17 C15 1_555 1_555
C2 C3 1_555 1_555
C12 C13 1_555 1_555

#END
