
#######################################################################
#
#                 Cambridge Crystallographic Data Centre
#                                CCDC 
#
#######################################################################
#
# If this CIF has been generated from an entry in the Cambridge 
# Structural Database, then it will include bibliographic, chemical, 
# crystal, experimental, refinement or atomic coordinate data resulting 
# from the CCDC's data processing and validation procedures.
#
#######################################################################

data_TAVTIV
_chemical_formula_moiety         'C16 H16 N4 O1'
_chemical_name_systematic        
2-Methyl-1-(3-(pyridin-2-ylamino)imidazo[1,2-a]pyridin-2-yl)propan-1-one
_symmetry_cell_setting           orthorhombic
_symmetry_space_group_name_H-M   'P 21 21 21'
_symmetry_Int_Tables_number      19
_space_group_name_Hall           'P 2ac 2ab'
loop_
_symmetry_equiv_pos_site_id
_symmetry_equiv_pos_as_xyz
1 x,y,z
2 1/2-x,-y,1/2+z
3 -x,1/2+y,1/2-z
4 1/2+x,1/2-y,-z
_cell_length_a                   8.4100(17)
_cell_length_b                   10.721(2)
_cell_length_c                   15.596(3)
_cell_angle_alpha                90
_cell_angle_beta                 90
_cell_angle_gamma                90
_cell_volume                     1406.19
_exptl_crystal_colour            colorless
_exptl_crystal_description       plate
_cell_formula_units_Z            4
loop_
_atom_site_label
_atom_site_type_symbol
_atom_site_fract_x
_atom_site_fract_y
_atom_site_fract_z
N1 N 0.07216(19) 0.59145(13) 0.61678(10)
N2 N -0.0364(2) 0.71781(14) 0.71619(10)
N3 N 0.20278(19) 0.43459(14) 0.70394(11)
N4 N 0.4405(2) 0.53010(14) 0.66510(10)
O1 O 0.18352(18) 0.56094(14) 0.87966(9)
C1 C 0.1030(2) 0.54775(17) 0.53558(11)
H1 H 0.1670 0.4758 0.5272
C2 C 0.0402(2) 0.60956(19) 0.46788(12)
H2 H 0.0581 0.5795 0.4114
C3 C -0.0525(3) 0.71927(18) 0.48060(12)
H3 H -0.0945 0.7623 0.4324
C4 C -0.0817(2) 0.76323(17) 0.56112(12)
H4 H -0.1427 0.8368 0.5693
C5 C -0.0196(2) 0.69756(16) 0.63199(12)
C6 C 0.0507(2) 0.62476(16) 0.75523(12)
C7 C 0.1188(2) 0.54600(17) 0.69575(12)
C8 C 0.3677(2) 0.43160(17) 0.69937(11)
C9 C 0.4478(2) 0.32457(17) 0.72859(12)
H5 H 0.3909 0.2559 0.7518
C10 C 0.6109(3) 0.3222(2) 0.72257(14)
H6 H 0.6691 0.2521 0.7426
C11 C 0.6895(3) 0.4237(2) 0.68680(15)
H7 H 0.8020 0.4241 0.6816
C12 C 0.6002(2) 0.5237(2) 0.65896(14)
H8 H 0.6546 0.5923 0.6339
C13 C 0.0679(2) 0.61315(16) 0.84946(12)
C14 C -0.0662(3) 0.66152(18) 0.90469(12)
H9 H -0.1190 0.7326 0.8745
C15 C -0.0061(3) 0.7063(2) 0.99093(14)
H10 H 0.0481 0.6377 1.0204
H11 H -0.0960 0.7349 1.0258
H12 H 0.0686 0.7754 0.9824
C16 C -0.1862(3) 0.5547(3) 0.91445(18)
H13 H -0.2251 0.5298 0.8577
H14 H -0.2758 0.5826 0.9497
H15 H -0.1343 0.4834 0.9421
H16 H 0.150(3) 0.373(2) 0.7357(13)
loop_
_geom_bond_atom_site_label_1
_geom_bond_atom_site_label_2
_geom_bond_site_symmetry_1
_geom_bond_site_symmetry_2
N1 C1 1_555 1_555
N2 C5 1_555 1_555
N3 C7 1_555 1_555
N4 C8 1_555 1_555
O1 C13 1_555 1_555
C1 H1 1_555 1_555
C2 C1 1_555 1_555
H2 C2 1_555 1_555
C3 C2 1_555 1_555
H3 C3 1_555 1_555
C4 C3 1_555 1_555
H4 C4 1_555 1_555
C5 N1 1_555 1_555
C6 N2 1_555 1_555
C7 N1 1_555 1_555
C8 N3 1_555 1_555
C9 C8 1_555 1_555
H5 C9 1_555 1_555
C10 C9 1_555 1_555
H6 C10 1_555 1_555
C11 C10 1_555 1_555
H7 C11 1_555 1_555
C12 N4 1_555 1_555
H8 C12 1_555 1_555
C13 C6 1_555 1_555
C14 C13 1_555 1_555
H9 C14 1_555 1_555
C15 C14 1_555 1_555
H10 C15 1_555 1_555
H11 C15 1_555 1_555
H12 C15 1_555 1_555
C16 C14 1_555 1_555
H13 C16 1_555 1_555
H14 C16 1_555 1_555
H15 C16 1_555 1_555
H16 N3 1_555 1_555
C4 C5 1_555 1_555
C6 C7 1_555 1_555
C11 C12 1_555 1_555

#END
