
#######################################################################
#
#                 Cambridge Crystallographic Data Centre
#                                CCDC 
#
#######################################################################
#
# If this CIF has been generated from an entry in the Cambridge 
# Structural Database, then it will include bibliographic, chemical, 
# crystal, experimental, refinement or atomic coordinate data resulting 
# from the CCDC's data processing and validation procedures.
#
#######################################################################

data_TAWWIA
_chemical_formula_moiety         'C34 H19 F4 N1 O1'
_chemical_name_systematic        
1-(2,7,11,16-tetrafluorotribenzo[f,k,m]tetraphen-9-yl)pyrrolidin-2-one
_symmetry_cell_setting           monoclinic
_symmetry_space_group_name_H-M   'P 21/c'
_symmetry_Int_Tables_number      14
_space_group_name_Hall           '-P 2ybc'
loop_
_symmetry_equiv_pos_site_id
_symmetry_equiv_pos_as_xyz
1 x,y,z
2 -x,1/2+y,1/2-z
3 -x,-y,-z
4 x,1/2-y,1/2+z
_cell_length_a                   27.519(6)
_cell_length_b                   7.2070(14)
_cell_length_c                   26.668(5)
_cell_angle_alpha                90
_cell_angle_beta                 118.34(3)
_cell_angle_gamma                90
_cell_volume                     4655.14
_exptl_crystal_colour            yellow
_exptl_crystal_description       needle
_cell_formula_units_Z            8
loop_
_atom_site_label
_atom_site_type_symbol
_atom_site_fract_x
_atom_site_fract_y
_atom_site_fract_z
F1 F -0.05552(7) 0.0884(3) 0.46245(7)
F2 F -0.23322(6) 0.5980(3) 0.67073(8)
F3 F 0.03125(9) 0.2901(3) 0.93662(7)
O1 O 0.09914(7) 0.1128(3) 0.69244(8)
F4 F 0.20983(8) 0.7445(3) 0.72380(10)
N1 N 0.05399(8) 0.3661(3) 0.63686(9)
C1 C -0.15178(9) 0.5044(4) 0.67023(11)
H1 H -0.1321 0.5227 0.7094
C2 C -0.04678(9) 0.2232(4) 0.54647(10)
H2 H -0.0093 0.1958 0.5644
C3 C -0.12486(8) 0.4414(4) 0.63974(10)
C4 C 0.02158(8) 0.4022(3) 0.66477(10)
C5 C 0.02270(8) 0.4361(3) 0.75599(10)
C6 C -0.07000(9) 0.3155(4) 0.57692(10)
C7 C 0.05355(9) 0.4200(4) 0.81783(10)
C8 C -0.06477(8) 0.4176(3) 0.66842(10)
C9 C -0.07955(11) 0.1740(4) 0.49052(11)
C10 C -0.03643(9) 0.3780(3) 0.63652(10)
C11 C -0.15959(10) 0.2846(4) 0.49199(11)
H3 H -0.1976 0.3027 0.4739
C12 C 0.05082(8) 0.4491(4) 0.72323(10)
C13 C -0.20737(10) 0.5379(4) 0.64113(13)
C14 C -0.12797(9) 0.3391(4) 0.54949(10)
C15 C -0.03473(8) 0.4326(4) 0.72733(10)
H4 H -0.0537 0.4405 0.7483
C16 C -0.15557(9) 0.4120(4) 0.58069(11)
C17 C 0.11191(9) 0.4315(4) 0.84531(11)
C18 C 0.02667(10) 0.3750(4) 0.84970(11)
H5 H -0.0117 0.3715 0.8325
C19 C 0.09291(9) 0.2263(4) 0.65618(11)
C20 C 0.10879(9) 0.5088(4) 0.75279(11)
C21 C 0.13359(10) 0.5996(4) 0.72384(13)
H6 H 0.1132 0.6229 0.6850
C22 C 0.19542(10) 0.5462(5) 0.84010(14)
H7 H 0.2162 0.5300 0.8793
C23 C 0.13942(9) 0.4910(4) 0.81272(12)
C24 C 0.05338(11) 0.4752(4) 0.58984(12)
H8 H 0.0693 0.5973 0.6027
H9 H 0.0162 0.4885 0.5587
C25 C -0.13577(11) 0.2056(4) 0.46193(11)
H10 H -0.1568 0.1745 0.4237
C26 C 0.22012(11) 0.6232(5) 0.81066(15)
H11 H 0.2574 0.6538 0.8291
C27 C 0.11516(13) 0.3418(5) 0.93441(12)
H12 H 0.1352 0.3129 0.9729
C28 C -0.21243(10) 0.4530(4) 0.55308(12)
H13 H -0.2328 0.4373 0.5138
C29 C 0.12604(11) 0.2433(4) 0.62465(13)
H14 H 0.1335 0.1221 0.6140
H15 H 0.1608 0.3062 0.6478
C30 C 0.18800(11) 0.6537(5) 0.75311(15)
C31 C 0.05782(13) 0.3363(4) 0.90659(11)
C32 C 0.14159(11) 0.3907(5) 0.90392(12)
H16 H 0.1799 0.3970 0.9223
C33 C -0.23849(10) 0.5157(5) 0.58287(13)
H17 H -0.2761 0.5424 0.5643
C34 C 0.08923(14) 0.3574(5) 0.57207(14)
H18 H 0.0664 0.2772 0.5403
H19 H 0.1113 0.4360 0.5611
F5 F 0.45255(8) 0.7587(3) 0.90859(8)
F6 F 0.71671(7) 1.0396(3) 0.91002(7)
F7 F 0.55186(8) 0.6122(3) 0.51880(8)
O2 O 0.40320(9) 0.5603(3) 0.58218(9)
F8 F 0.27133(9) 1.1459(4) 0.51300(8)
N2 N 0.43925(8) 0.8501(4) 0.58605(9)
C35 C 0.55255(9) 0.8733(3) 0.73666(10)
C36 C 0.52069(9) 0.8816(4) 0.76441(10)
H20 H 0.5385 0.8861 0.8040
C37 C 0.46325(9) 0.8834(4) 0.73542(10)
C38 C 0.52618(9) 0.8418(3) 0.67690(10)
C39 C 0.43174(9) 0.8679(4) 0.76674(11)
C40 C 0.43614(9) 0.8979(4) 0.67514(10)
C41 C 0.46803(9) 0.8642(4) 0.64702(10)
C42 C 0.61270(9) 0.8979(4) 0.76929(10)
C43 C 0.40739(10) 0.6990(4) 0.55901(11)
C44 C 0.63758(9) 0.9510(4) 0.82678(11)
H21 H 0.6167 0.9619 0.8457
C45 C 0.70205(10) 0.9215(4) 0.77252(12)
H22 H 0.7237 0.9114 0.7544
C46 C 0.34668(9) 0.9386(4) 0.67726(12)
C47 C 0.64507(9) 0.8808(4) 0.74161(11)
C48 C 0.56139(10) 0.7934(4) 0.65081(11)
C49 C 0.37382(9) 0.8854(4) 0.73739(12)
C50 C 0.37697(9) 0.9494(4) 0.64657(11)
C51 C 0.45808(10) 0.8252(4) 0.82503(12)
H23 H 0.4963 0.8150 0.8452
C52 C 0.72634(10) 0.9757(4) 0.82871(13)
H24 H 0.7638 1.0040 0.8486
C53 C 0.54030(11) 0.7140(4) 0.59578(11)
H25 H 0.5030 0.6851 0.5752
C54 C 0.61945(9) 0.8192(4) 0.68246(11)
C55 C 0.44169(12) 0.9901(5) 0.54768(12)
H26 H 0.4773 0.9886 0.5485
H27 H 0.4351 1.1132 0.5579
C56 C 0.38001(13) 0.7384(5) 0.49567(13)
H28 H 0.3928 0.6512 0.4768
H29 H 0.3403 0.7267 0.4792
C57 C 0.65255(11) 0.7765(4) 0.65654(13)
H30 H 0.6905 0.7940 0.6773
C58 C 0.69320(10) 0.9867(4) 0.85461(11)
C59 C 0.42667(11) 0.7985(4) 0.85205(13)
C60 C 0.34386(10) 0.8568(4) 0.76744(14)
H31 H 0.3056 0.8675 0.7482
C61 C 0.57428(12) 0.6795(5) 0.57266(12)
C62 C 0.34997(12) 1.0264(5) 0.59112(12)
H32 H 0.3696 1.0457 0.5712
C63 C 0.63086(12) 0.7106(5) 0.60205(13)
H33 H 0.6532 0.6874 0.5853
C64 C 0.36985(11) 0.8136(4) 0.82442(14)
H34 H 0.3497 0.7950 0.8439
C65 C 0.29032(10) 0.9904(5) 0.64970(14)
H35 H 0.2703 0.9803 0.6695
C66 C 0.26407(11) 1.0552(5) 0.59441(16)
H36 H 0.2268 1.0860 0.5766
C67 C 0.29511(12) 1.0728(5) 0.56659(13)
C68 C 0.39525(18) 0.9331(7) 0.48846(14)
H37 H 0.3637 1.0153 0.4764
H38 H 0.4082 0.9371 0.4604
loop_
_geom_bond_atom_site_label_1
_geom_bond_atom_site_label_2
_geom_bond_site_symmetry_1
_geom_bond_site_symmetry_2
F1 C9 1_555 1_555
F2 C13 1_555 1_555
F3 C31 1_555 1_555
O1 C19 1_555 1_555
F4 C30 1_555 1_555
N1 C4 1_555 1_555
C1 H1 1_555 1_555
C2 H2 1_555 1_555
C3 C1 1_555 1_555
C4 C10 1_555 1_555
C5 C7 1_555 1_555
C6 C2 1_555 1_555
C7 C17 1_555 1_555
C8 C3 1_555 1_555
C9 C2 1_555 1_555
C10 C6 1_555 1_555
C11 H3 1_555 1_555
C12 C4 1_555 1_555
C13 C1 1_555 1_555
C14 C6 1_555 1_555
C15 C5 1_555 1_555
H4 C15 1_555 1_555
C16 C3 1_555 1_555
C17 C23 1_555 1_555
C18 C7 1_555 1_555
H5 C18 1_555 1_555
C19 N1 1_555 1_555
C20 C12 1_555 1_555
C21 C20 1_555 1_555
H6 C21 1_555 1_555
C22 H7 1_555 1_555
C23 C20 1_555 1_555
C24 N1 1_555 1_555
H8 C24 1_555 1_555
H9 C24 1_555 1_555
C25 C9 1_555 1_555
H10 C25 1_555 1_555
C26 C22 1_555 1_555
H11 C26 1_555 1_555
C27 H12 1_555 1_555
C28 C16 1_555 1_555
H13 C28 1_555 1_555
C29 C19 1_555 1_555
H14 C29 1_555 1_555
H15 C29 1_555 1_555
C30 C21 1_555 1_555
C31 C18 1_555 1_555
C32 C17 1_555 1_555
H16 C32 1_555 1_555
C33 C13 1_555 1_555
H17 C33 1_555 1_555
C34 C24 1_555 1_555
H18 C34 1_555 1_555
H19 C34 1_555 1_555
F5 C59 1_555 1_555
F6 C58 1_555 1_555
F7 C61 1_555 1_555
O2 C43 1_555 1_555
F8 C67 1_555 1_555
N2 C41 1_555 1_555
C35 C36 1_555 1_555
C36 H20 1_555 1_555
C37 C36 1_555 1_555
C38 C35 1_555 1_555
C39 C37 1_555 1_555
C40 C37 1_555 1_555
C41 C38 1_555 1_555
C42 C35 1_555 1_555
C43 N2 1_555 1_555
C44 C42 1_555 1_555
H21 C44 1_555 1_555
C45 H22 1_555 1_555
C46 C49 1_555 1_555
C47 C42 1_555 1_555
C48 C38 1_555 1_555
C49 C39 1_555 1_555
C50 C40 1_555 1_555
C51 C39 1_555 1_555
H23 C51 1_555 1_555
C52 C45 1_555 1_555
H24 C52 1_555 1_555
C53 C48 1_555 1_555
H25 C53 1_555 1_555
C54 C47 1_555 1_555
C55 N2 1_555 1_555
H26 C55 1_555 1_555
H27 C55 1_555 1_555
C56 C43 1_555 1_555
H28 C56 1_555 1_555
H29 C56 1_555 1_555
C57 C54 1_555 1_555
H30 C57 1_555 1_555
C58 C44 1_555 1_555
C59 C51 1_555 1_555
C60 C49 1_555 1_555
H31 C60 1_555 1_555
C61 C53 1_555 1_555
C62 C50 1_555 1_555
H32 C62 1_555 1_555
C63 C57 1_555 1_555
H33 C63 1_555 1_555
C64 C59 1_555 1_555
H34 C64 1_555 1_555
C65 C46 1_555 1_555
H35 C65 1_555 1_555
C66 C65 1_555 1_555
H36 C66 1_555 1_555
C67 C62 1_555 1_555
C68 C55 1_555 1_555
H37 C68 1_555 1_555
H38 C68 1_555 1_555
C5 C12 1_555 1_555
C8 C10 1_555 1_555
C8 C15 1_555 1_555
C11 C14 1_555 1_555
C11 C25 1_555 1_555
C14 C16 1_555 1_555
C22 C23 1_555 1_555
C26 C30 1_555 1_555
C27 C31 1_555 1_555
C27 C32 1_555 1_555
C28 C33 1_555 1_555
C29 C34 1_555 1_555
C40 C41 1_555 1_555
C45 C47 1_555 1_555
C46 C50 1_555 1_555
C48 C54 1_555 1_555
C52 C58 1_555 1_555
C56 C68 1_555 1_555
C60 C64 1_555 1_555
C61 C63 1_555 1_555
C66 C67 1_555 1_555

#END
