
#######################################################################
#
#                 Cambridge Crystallographic Data Centre
#                                CCDC 
#
#######################################################################
#
# If this CIF has been generated from an entry in the Cambridge 
# Structural Database, then it will include bibliographic, chemical, 
# crystal, experimental, refinement or atomic coordinate data resulting 
# from the CCDC's data processing and validation procedures.
#
#######################################################################

data_TAWZOJ
_chemical_formula_moiety         'C2 N8 O2 2-,2(C3 H5 N2 1+)'
_chemical_name_systematic        
"bis(1H-imidazol-3-ium) 1H,1'H-5,5'-bitetrazole-1,1'-diolate"
_symmetry_cell_setting           monoclinic
_symmetry_space_group_name_H-M   'P 21/n'
_symmetry_Int_Tables_number      14
_space_group_name_Hall           '-P 2yn'
loop_
_symmetry_equiv_pos_site_id
_symmetry_equiv_pos_as_xyz
1 x,y,z
2 1/2-x,1/2+y,1/2-z
3 -x,-y,-z
4 1/2+x,1/2-y,1/2+z
_cell_length_a                   3.818(3)
_cell_length_b                   10.654(8)
_cell_length_c                   15.830(12)
_cell_angle_alpha                90
_cell_angle_beta                 95.89(2)
_cell_angle_gamma                90
_cell_volume                     640.517
_exptl_crystal_colour            colorless
_exptl_crystal_description       Block
_cell_formula_units_Z            2
loop_
_atom_site_label
_atom_site_type_symbol
_atom_site_fract_x
_atom_site_fract_y
_atom_site_fract_z
C1 C 0.0422(5) 0.55645(18) 0.02415(12)
N1 N 0.2403(5) 0.56026(16) 0.09954(11)
N2 N 0.2635(5) 0.68043(17) 0.12585(12)
N3 N 0.0829(6) 0.74784(17) 0.06717(12)
N4 N -0.0577(5) 0.67320(16) 0.00381(12)
O1 O 0.3957(5) 0.46803(15) 0.14455(9)
C1B C -0.0422(5) 0.44355(18) -0.02415(12)
N1B N -0.2403(5) 0.43974(16) -0.09954(11)
N2B N -0.2635(5) 0.31957(17) -0.12585(12)
N3B N -0.0829(6) 0.25216(17) -0.06717(12)
N4B N 0.0577(5) 0.32680(16) -0.00381(12)
O1B O -0.3957(5) 0.53197(15) -0.14455(9)
C2 C 1.0776(7) 0.5917(2) 0.40529(16)
H1 H 1.2051 0.5776 0.4577
C3 C 0.9260(7) 0.5043(2) 0.35285(15)
H2 H 0.9292 0.4180 0.3617
C4 C 0.8200(7) 0.6872(2) 0.29476(15)
H3 H 0.7370 0.7499 0.2570
N5 N 0.7658(5) 0.56622(17) 0.28381(12)
H4 H 0.6491 0.5318 0.2405
N6 N 1.0102(5) 0.70529(19) 0.36754(12)
H5 H 1.0804 0.7768 0.3880
loop_
_geom_bond_atom_site_label_1
_geom_bond_atom_site_label_2
_geom_bond_site_symmetry_1
_geom_bond_site_symmetry_2
C1 N1 1_555 1_555
N1 N2 1_555 1_555
N2 N3 1_555 1_555
N3 N4 1_555 1_555
N4 C1 1_555 1_555
O1 N1 1_555 1_555
C2 H1 1_555 1_555
C3 C2 1_555 1_555
H2 C3 1_555 1_555
C4 H3 1_555 1_555
N5 C3 1_555 1_555
H4 N5 1_555 1_555
N6 C2 1_555 1_555
H5 N6 1_555 1_555
C1B C1 1_555 1_555
N1B C1B 1_555 1_555
N2B N1B 1_555 1_555
N3B N2B 1_555 1_555
N4B C1B 1_555 1_555
O1B N1B 1_555 1_555
C4 N5 1_555 1_555
C4 N6 1_555 1_555
N3B N4B 1_555 1_555

#END
