
#######################################################################
#
#                 Cambridge Crystallographic Data Centre
#                                CCDC 
#
#######################################################################
#
# If this CIF has been generated from an entry in the Cambridge 
# Structural Database, then it will include bibliographic, chemical, 
# crystal, experimental, refinement or atomic coordinate data resulting 
# from the CCDC's data processing and validation procedures.
#
#######################################################################

data_TAXNAJ
_chemical_formula_moiety         'C14 H16 O3'
_chemical_name_systematic        
6-Methoxy-1,2,3,4,9,10-hexahydro-8H-indeno[5,4-b]oxepin-8-one
_symmetry_cell_setting           triclinic
_symmetry_space_group_name_H-M   'P -1'
_symmetry_Int_Tables_number      2
_space_group_name_Hall           '-P 1'
loop_
_symmetry_equiv_pos_site_id
_symmetry_equiv_pos_as_xyz
1 x,y,z
2 -x,-y,-z
_cell_length_a                   8.4193(10)
_cell_length_b                   8.6260(10)
_cell_length_c                   9.7658(12)
_cell_angle_alpha                69.781(2)
_cell_angle_beta                 73.915(2)
_cell_angle_gamma                64.392(2)
_cell_volume                     593.29
_exptl_crystal_colour            colorless
_exptl_crystal_description       columnar
_cell_formula_units_Z            2
loop_
_atom_site_label
_atom_site_type_symbol
_atom_site_fract_x
_atom_site_fract_y
_atom_site_fract_z
O1 O 0.6449(3) -0.0076(2) 0.6316(2)
O2 O 0.5639(2) 0.7106(2) 0.1052(2)
O3 O 0.8645(2) 0.4466(2) 0.1552(2)
C1 C 0.5301(4) 0.1289(3) 0.5767(3)
C2 C 0.5598(3) 0.2688(3) 0.4455(2)
C3 C 0.3985(3) 0.4032(3) 0.4135(2)
C4 C 0.3920(3) 0.5553(3) 0.2979(3)
C5 C 0.2181(3) 0.7104(4) 0.2679(3)
H1 H 0.1219 0.6803 0.3377
H2 H 0.2211 0.8126 0.2860
C6 C 0.1760(4) 0.7630(4) 0.1141(3)
H3 H 0.0511 0.8390 0.1135
H4 H 0.1947 0.6566 0.0886
C7 C 0.2869(4) 0.8598(4) -0.0027(3)
H5 H 0.2465 0.8942 -0.0965
H6 H 0.2643 0.9682 0.0216
C8 C 0.7206(3) 0.2755(3) 0.3628(3)
H7 H 0.8276 0.1832 0.3857
C9 C 0.7184(3) 0.4210(3) 0.2465(3)
C10 C 0.5530(3) 0.5617(3) 0.2149(3)
C11 C 0.4838(4) 0.7570(4) -0.0214(3)
H8 H 0.5070 0.6486 -0.0460
H9 H 0.5402 0.8271 -0.1040
C12 C 0.2448(3) 0.3606(4) 0.5194(3)
H10 H 0.1715 0.3450 0.4679
H11 H 0.1710 0.4550 0.5679
C13 C 0.3318(4) 0.1880(4) 0.6306(3)
H12 H 0.3054 0.2075 0.7278
H13 H 0.2884 0.0983 0.6361
C14 C 1.0321(4) 0.3054(4) 0.1762(3)
H14 H 1.0581 0.2868 0.2716
H15 H 1.1232 0.3354 0.1012
H16 H 1.0282 0.1984 0.1699
loop_
_geom_bond_atom_site_label_1
_geom_bond_atom_site_label_2
_geom_bond_site_symmetry_1
_geom_bond_site_symmetry_2
O1 C1 1_555 1_555
O2 C10 1_555 1_555
O3 C9 1_555 1_555
C1 C2 1_555 1_555
C2 C3 1_555 1_555
C3 C4 1_555 1_555
C4 C5 1_555 1_555
C5 H1 1_555 1_555
H2 C5 1_555 1_555
C6 C5 1_555 1_555
H3 C6 1_555 1_555
H4 C6 1_555 1_555
C7 C6 1_555 1_555
H5 C7 1_555 1_555
H6 C7 1_555 1_555
C8 C2 1_555 1_555
H7 C8 1_555 1_555
C9 C8 1_555 1_555
C10 C4 1_555 1_555
C11 O2 1_555 1_555
H8 C11 1_555 1_555
H9 C11 1_555 1_555
C12 C3 1_555 1_555
H10 C12 1_555 1_555
H11 C12 1_555 1_555
C13 C1 1_555 1_555
H12 C13 1_555 1_555
H13 C13 1_555 1_555
C14 O3 1_555 1_555
H14 C14 1_555 1_555
H15 C14 1_555 1_555
H16 C14 1_555 1_555
C7 C11 1_555 1_555
C9 C10 1_555 1_555
C12 C13 1_555 1_555

#END
