
#######################################################################
#
#                 Cambridge Crystallographic Data Centre
#                                CCDC 
#
#######################################################################
#
# If this CIF has been generated from an entry in the Cambridge 
# Structural Database, then it will include bibliographic, chemical, 
# crystal, experimental, refinement or atomic coordinate data resulting 
# from the CCDC's data processing and validation procedures.
#
#######################################################################

data_TAXQUF
_chemical_formula_moiety         'C21 H18 N2 O3 S1'
_chemical_name_systematic        
4-Methoxy-N-(2-phenyl-1H-indol-7-yl)benzenesulfonamide
_symmetry_cell_setting           orthorhombic
_symmetry_space_group_name_H-M   'P b c a'
_symmetry_Int_Tables_number      61
_space_group_name_Hall           '-P 2ac 2ab'
loop_
_symmetry_equiv_pos_site_id
_symmetry_equiv_pos_as_xyz
1 x,y,z
2 1/2-x,-y,1/2+z
3 -x,1/2+y,1/2-z
4 1/2+x,1/2-y,-z
5 -x,-y,-z
6 1/2+x,y,1/2-z
7 x,1/2-y,1/2+z
8 1/2-x,1/2+y,z
_cell_length_a                   5.0176(16)
_cell_length_b                   20.010(7)
_cell_length_c                   35.343(11)
_cell_angle_alpha                90
_cell_angle_beta                 90
_cell_angle_gamma                90
_cell_volume                     3548.51
_exptl_crystal_colour            colorless
_exptl_crystal_description       bar
_cell_formula_units_Z            8
_exptl_crystal_recrystallization_method 'ethyl acetate'
loop_
_atom_site_label
_atom_site_type_symbol
_atom_site_fract_x
_atom_site_fract_y
_atom_site_fract_z
S1 S 0.40251(19) 0.63567(5) 0.43556(3)
O1 O 0.1304(5) 0.61978(12) 0.42746(7)
O2 O 0.5312(5) 0.60737(13) 0.46791(6)
O3 O 0.4700(5) 0.92876(12) 0.44175(7)
N1 N 0.5747(6) 0.61123(14) 0.39901(8)
H1 H 0.7759 0.6196 0.4036
N2 N 0.1493(6) 0.54755(15) 0.35099(9)
H2 H 0.1537 0.5241 0.3761
C1 C 0.3345(7) 0.6819(2) 0.29021(11)
H3 H 0.2796 0.6983 0.2662
C2 C 0.5361(8) 0.71310(19) 0.30995(11)
H4 H 0.6228 0.7507 0.2991
C3 C 0.6158(7) 0.69051(18) 0.34568(10)
H5 H 0.7544 0.7133 0.3587
C4 C 0.4978(7) 0.6360(2) 0.36240(10)
C5 C 0.2942(7) 0.60370(19) 0.34223(11)
C6 C 0.2121(7) 0.62583(19) 0.30611(10)
C7 C 0.0119(7) 0.58050(19) 0.29375(10)
H6 H -0.0816 0.5826 0.2704
C8 C -0.0229(7) 0.53296(19) 0.32150(11)
C9 C -0.1922(7) 0.47349(19) 0.32220(11)
C10 C -0.3951(8) 0.4649(2) 0.29584(11)
H7 H -0.4273 0.4987 0.2776
C11 C -0.5498(8) 0.4081(2) 0.29582(11)
H8 H -0.6892 0.4036 0.2778
C12 C -0.5037(8) 0.3572(2) 0.32200(11)
H9 H -0.6081 0.3176 0.3217
C13 C -0.3040(7) 0.3656(2) 0.34823(11)
H10 H -0.2712 0.3315 0.3664
C14 C -0.1491(7) 0.42333(19) 0.34860(11)
H11 H -0.0129 0.4284 0.3671
C15 C 0.4228(7) 0.72405(17) 0.43896(10)
C16 C 0.2478(8) 0.7632(2) 0.41891(11)
H12 H 0.1123 0.7430 0.4040
C17 C 0.2696(8) 0.8320(2) 0.42047(11)
H13 H 0.1502 0.8596 0.4067
C18 C 0.4683(7) 0.8600(2) 0.44250(10)
C19 C 0.6453(8) 0.8218(2) 0.46241(11)
H14 H 0.7819 0.8419 0.4771
C20 C 0.6198(8) 0.7519(2) 0.46053(10)
H15 H 0.7392 0.7241 0.4742
C21 C 0.6834(8) 0.9620(2) 0.46127(13)
H16 H 0.8543 0.9483 0.4503
H17 H 0.6790 0.9498 0.4881
H18 H 0.6624 1.0105 0.4587
loop_
_geom_bond_atom_site_label_1
_geom_bond_atom_site_label_2
_geom_bond_site_symmetry_1
_geom_bond_site_symmetry_2
S1 O1 1_555 1_555
O2 S1 1_555 1_555
O3 C18 1_555 1_555
N1 S1 1_555 1_555
H1 N1 1_555 1_555
N2 H2 1_555 1_555
C1 H3 1_555 1_555
C2 C1 1_555 1_555
H4 C2 1_555 1_555
C3 C2 1_555 1_555
H5 C3 1_555 1_555
C4 N1 1_555 1_555
C5 N2 1_555 1_555
C6 C1 1_555 1_555
C7 C6 1_555 1_555
H6 C7 1_555 1_555
C8 N2 1_555 1_555
C9 C8 1_555 1_555
C10 C9 1_555 1_555
H7 C10 1_555 1_555
C11 C10 1_555 1_555
H8 C11 1_555 1_555
C12 C11 1_555 1_555
H9 C12 1_555 1_555
C13 C12 1_555 1_555
H10 C13 1_555 1_555
C14 C9 1_555 1_555
H11 C14 1_555 1_555
C15 S1 1_555 1_555
C16 C15 1_555 1_555
H12 C16 1_555 1_555
C17 C16 1_555 1_555
H13 C17 1_555 1_555
C18 C17 1_555 1_555
C19 C18 1_555 1_555
H14 C19 1_555 1_555
C20 C15 1_555 1_555
H15 C20 1_555 1_555
C21 O3 1_555 1_555
H16 C21 1_555 1_555
H17 C21 1_555 1_555
H18 C21 1_555 1_555
C3 C4 1_555 1_555
C4 C5 1_555 1_555
C5 C6 1_555 1_555
C7 C8 1_555 1_555
C13 C14 1_555 1_555
C19 C20 1_555 1_555

#END
