
#######################################################################
#
#                 Cambridge Crystallographic Data Centre
#                                CCDC 
#
#######################################################################
#
# If this CIF has been generated from an entry in the Cambridge 
# Structural Database, then it will include bibliographic, chemical, 
# crystal, experimental, refinement or atomic coordinate data resulting 
# from the CCDC's data processing and validation procedures.
#
#######################################################################

data_TAXXIC
_chemical_formula_moiety         'C12 H13 N2 1+,C7 H7 O3 S1 1-'
_chemical_name_systematic        
"4'-aminobiphenyl-4-aminium 4-methylbenzenesulfonate"
_symmetry_cell_setting           monoclinic
_symmetry_space_group_name_H-M   'P 2/c'
_symmetry_Int_Tables_number      13
_space_group_name_Hall           '-P 2yc'
loop_
_symmetry_equiv_pos_site_id
_symmetry_equiv_pos_as_xyz
1 x,y,z
2 -x,y,1/2-z
3 -x,-y,-z
4 x,-y,1/2+z
_cell_length_a                   11.036(5)
_cell_length_b                   5.946(5)
_cell_length_c                   27.498(5)
_cell_angle_alpha                90
_cell_angle_beta                 93.037(5)
_cell_angle_gamma                90
_cell_volume                     1801.89
_exptl_crystal_colour            colorless
_exptl_crystal_description       block
_cell_formula_units_Z            4
loop_
_atom_site_label
_atom_site_type_symbol
_atom_site_fract_x
_atom_site_fract_y
_atom_site_fract_z
C8 C 0.1924(4) 0.4430(8) 0.53009(16)
C9 C 0.2474(4) 0.2786(9) 0.50426(18)
H8 H 0.2039 0.1510 0.4945
C10 C 0.3673(4) 0.3008(9) 0.49264(17)
H9 H 0.4031 0.1868 0.4752
C11 C 0.4355(4) 0.4879(8) 0.50626(16)
C12 C 0.3772(5) 0.6515(9) 0.5318(2)
H10 H 0.4199 0.7803 0.5414
C13 C 0.2577(4) 0.6310(9) 0.5437(2)
H11 H 0.2214 0.7449 0.5610
N1 N 0.0668(3) 0.4240(7) 0.54051(15)
H12 H 0.0209 0.4621 0.5142
H13 H 0.0510 0.5153 0.5650
H14 H 0.0507 0.2828 0.5487
C8B C 0.8076(4) 0.5570(8) 0.46991(16)
C9B C 0.7526(4) 0.7214(9) 0.49574(18)
H8B H 0.7961 0.8490 0.5055
C10B C 0.6327(4) 0.6992(9) 0.50736(17)
H9B H 0.5969 0.8132 0.5248
C11B C 0.5645(4) 0.5121(8) 0.49374(16)
C12B C 0.6228(5) 0.3485(9) 0.4682(2)
H10B H 0.5801 0.2197 0.4586
C13B C 0.7423(4) 0.3690(9) 0.4563(2)
H11B H 0.7786 0.2551 0.4390
N1B N 0.9332(3) 0.5760(7) 0.45949(15)
H12B H 0.9791 0.5379 0.4858
H13B H 0.9490 0.4847 0.4350
H14B H 0.9493 0.7172 0.4513
C14 C 0.8150(4) 0.5674(8) 0.28037(16)
C15 C 0.7492(4) 0.3756(9) 0.28893(18)
H15 H 0.7874 0.2512 0.3034
C16 C 0.6277(4) 0.3682(8) 0.27621(18)
H16 H 0.5850 0.2364 0.2816
C17 C 0.5661(4) 0.5512(8) 0.25555(15)
C18 C 0.6352(4) 0.7403(8) 0.24562(17)
H17 H 0.5976 0.8638 0.2306
C19 C 0.7583(4) 0.7482(9) 0.25762(17)
H18 H 0.8028 0.8755 0.2503
N2 N 0.9428(3) 0.5793(8) 0.29273(15)
H19 H 0.9836 0.5682 0.2658
H20 H 0.9640 0.4671 0.3128
H21 H 0.9600 0.7101 0.3072
C14A C 0.1850(4) 0.5674(8) 0.21963(16)
C15A C 0.2508(4) 0.3756(9) 0.21107(18)
H15A H 0.2126 0.2512 0.1966
C16A C 0.3723(4) 0.3682(8) 0.22379(18)
H16A H 0.4150 0.2364 0.2184
C17A C 0.4339(4) 0.5512(8) 0.24445(15)
C18A C 0.3648(4) 0.7403(8) 0.25438(17)
H17A H 0.4024 0.8638 0.2694
C19A C 0.2417(4) 0.7482(9) 0.24238(17)
H18A H 0.1972 0.8755 0.2497
N2A N 0.0572(3) 0.5793(8) 0.20727(15)
H19A H 0.0164 0.5682 0.2342
H20A H 0.0360 0.4671 0.1872
H21A H 0.0400 0.7101 0.1928
C1 C 0.5813(5) -0.1126(11) 0.3753(2)
H1 H 0.6081 -0.1866 0.4050
H2 H 0.6266 0.0237 0.3718
H3 H 0.5940 -0.2100 0.3482
C2 C 0.4483(4) -0.0579(9) 0.37675(16)
C3 C 0.4019(5) 0.1476(9) 0.36112(19)
H4 H 0.4546 0.2562 0.3502
C4 C 0.2800(5) 0.1953(9) 0.36136(18)
H5 H 0.2509 0.3333 0.3499
C5 C 0.2013(4) 0.0384(8) 0.37858(16)
C6 C 0.2458(5) -0.1670(9) 0.39491(19)
H6 H 0.1934 -0.2739 0.4068
C7 C 0.3671(5) -0.2126(9) 0.39357(18)
H7 H 0.3957 -0.3520 0.4043
O1 O 0.0327(3) 0.3407(6) 0.37905(14)
O2 O 0.0040(4) 0.0081(8) 0.4247(2)
O3 O -0.0103(4) 0.0043(11) 0.3360(2)
S1 S 0.04440(12) 0.0991(2) 0.37972(6)
loop_
_geom_bond_atom_site_label_1
_geom_bond_atom_site_label_2
_geom_bond_site_symmetry_1
_geom_bond_site_symmetry_2
C1 H1 1_555 1_555
H2 C1 1_555 1_555
H3 C1 1_555 1_555
C2 C1 1_555 1_555
C3 C2 1_555 1_555
H4 C3 1_555 1_555
C4 C3 1_555 1_555
H5 C4 1_555 1_555
C5 C4 1_555 1_555
C6 C5 1_555 1_555
H6 C6 1_555 1_555
C7 C2 1_555 1_555
H7 C7 1_555 1_555
O1 S1 1_555 1_555
O2 S1 1_555 1_555
O3 S1 1_555 1_555
S1 C5 1_555 1_555
C8 C9 1_555 1_555
C9 H8 1_555 1_555
C10 C9 1_555 1_555
H9 C10 1_555 1_555
C11 C10 1_555 1_555
C12 C11 1_555 1_555
H10 C12 1_555 1_555
C13 C8 1_555 1_555
H11 C13 1_555 1_555
N1 C8 1_555 1_555
H12 N1 1_555 1_555
H13 N1 1_555 1_555
H14 N1 1_555 1_555
C14 C15 1_555 1_555
C15 H15 1_555 1_555
C16 C15 1_555 1_555
H16 C16 1_555 1_555
C17 C16 1_555 1_555
C18 C17 1_555 1_555
H17 C18 1_555 1_555
C19 C14 1_555 1_555
H18 C19 1_555 1_555
N2 C14 1_555 1_555
H19 N2 1_555 1_555
H20 N2 1_555 1_555
H21 N2 1_555 1_555
C8B C9B 1_555 1_555
C9B H8B 1_555 1_555
C10B C9B 1_555 1_555
H9B C10B 1_555 1_555
C11B C11 1_555 1_555
C12B C11B 1_555 1_555
H10B C12B 1_555 1_555
C13B C8B 1_555 1_555
H11B C13B 1_555 1_555
N1B C8B 1_555 1_555
H12B N1B 1_555 1_555
H13B N1B 1_555 1_555
H14B N1B 1_555 1_555
C14A C15A 1_555 1_555
C15A H15A 1_555 1_555
C16A C15A 1_555 1_555
H16A C16A 1_555 1_555
C17A C17 1_555 1_555
C18A C17A 1_555 1_555
H17A C18A 1_555 1_555
C19A C14A 1_555 1_555
H18A C19A 1_555 1_555
N2A C14A 1_555 1_555
H19A N2A 1_555 1_555
H20A N2A 1_555 1_555
H21A N2A 1_555 1_555
C6 C7 1_555 1_555
C12 C13 1_555 1_555
C18 C19 1_555 1_555
C10B C11B 1_555 1_555
C12B C13B 1_555 1_555
C16A C17A 1_555 1_555
C18A C19A 1_555 1_555

#END
