
#######################################################################
#
#                 Cambridge Crystallographic Data Centre
#                                CCDC 
#
#######################################################################
#
# If this CIF has been generated from an entry in the Cambridge 
# Structural Database, then it will include bibliographic, chemical, 
# crystal, experimental, refinement or atomic coordinate data resulting 
# from the CCDC's data processing and validation procedures.
#
#######################################################################

data_TAXYAV
_chemical_formula_moiety         'C12 H14 N4 2+,2(C7 H7 O3 S1 1-)'
_chemical_name_systematic        
"4,4'-(diazene-1,2-diyl)dianilinium bis(4-methylbenzene-1-sulfonate)"
_symmetry_cell_setting           monoclinic
_symmetry_space_group_name_H-M   'P 21/n'
_symmetry_Int_Tables_number      14
_space_group_name_Hall           '-P 2yn'
loop_
_symmetry_equiv_pos_site_id
_symmetry_equiv_pos_as_xyz
1 x,y,z
2 1/2-x,1/2+y,1/2-z
3 -x,-y,-z
4 1/2+x,1/2-y,1/2+z
_cell_length_a                   17.4620(6)
_cell_length_b                   7.1855(2)
_cell_length_c                   22.0942(7)
_cell_angle_alpha                90
_cell_angle_beta                 90.221(3)
_cell_angle_gamma                90
_cell_volume                     2772.21
_exptl_crystal_colour            red
_exptl_crystal_description       block
_cell_formula_units_Z            4
loop_
_atom_site_label
_atom_site_type_symbol
_atom_site_fract_x
_atom_site_fract_y
_atom_site_fract_z
C1 C 0.0769(3) 0.6034(8) 0.2016(2)
H1 H 0.082869 0.716274 0.178841
H2 H 0.025996 0.597857 0.217795
H3 H 0.085228 0.498409 0.175584
C2 C 0.1344(3) 0.5999(6) 0.25286(19)
C3 C 0.1181(3) 0.6895(7) 0.30727(19)
H4 H 0.071084 0.748276 0.312051
C4 C 0.1702(3) 0.6925(6) 0.35388(19)
H5 H 0.158979 0.754867 0.389646
C5 C 0.2390(3) 0.6030(6) 0.34737(18)
C6 C 0.2561(3) 0.5134(7) 0.2944(2)
H6 H 0.302661 0.452019 0.290047
C7 C 0.2036(3) 0.5152(7) 0.2478(2)
H7 H 0.215953 0.456558 0.211558
O1 O 0.3521(2) 0.7823(5) 0.39642(15)
O2 O 0.2658(2) 0.6233(6) 0.46257(15)
O3 O 0.3537(2) 0.4473(5) 0.40171(17)
S1 S 0.30747(7) 0.61383(16) 0.40650(5)
C8 C 0.4227(6) 0.5070(11) 0.7128(4)
H8 H 0.450197 0.459783 0.678538
H9 H 0.417665 0.639583 0.709327
H10 H 0.372717 0.451314 0.714039
C9 C 0.4655(4) 0.4604(7) 0.7698(3)
C10 C 0.4352(3) 0.5148(7) 0.8245(3)
H11 H 0.388144 0.575473 0.825291
C11 C 0.4741(3) 0.4802(6) 0.8790(2)
H12 H 0.453583 0.518867 0.915696
C12 C 0.5429(3) 0.3882(6) 0.87723(19)
C13 C 0.5737(3) 0.3319(7) 0.8222(2)
H13 H 0.620392 0.269881 0.821110
C14 C 0.5346(4) 0.3687(8) 0.7693(2)
H14 H 0.555317 0.330767 0.732585
O4 O 0.54223(19) 0.2196(4) 0.98054(14)
O5 O 0.66291(19) 0.2521(5) 0.93052(15)
O6 O 0.6036(2) 0.5188(4) 0.97531(15)
S2 S 0.59161(6) 0.34324(14) 0.94586(5)
C15 C 0.6372(2) 0.9029(5) 0.07737(17)
C16 C 0.5864(3) 0.9900(6) 0.11581(19)
H15 H 0.542649 1.047147 0.100387
C17 C 0.6007(3) 0.9919(7) 0.1768(2)
H16 H 0.566637 1.049654 0.203029
C18 C 0.6665(3) 0.9071(6) 0.19945(18)
C19 C 0.7174(3) 0.8242(7) 0.1608(2)
H17 H 0.761907 0.770299 0.175984
C20 C 0.7028(3) 0.8206(7) 0.09938(19)
H18 H 0.736928 0.763186 0.073125
C21 C 0.6549(3) 0.9384(6) 0.35982(19)
C22 C 0.6099(3) 1.0368(8) 0.4000(2)
H19 H 0.571219 1.114041 0.385579
C23 C 0.6222(3) 1.0207(7) 0.4616(2)
H20 H 0.592030 1.086717 0.488724
C24 C 0.6794(3) 0.9062(6) 0.48219(19)
C25 C 0.7254(3) 0.8089(7) 0.4431(2)
H21 H 0.764571 0.733789 0.457833
C26 C 0.7126(3) 0.8242(7) 0.3817(2)
H22 H 0.742852 0.757417 0.354763
N1 N 0.6211(2) 0.8916(5) 0.01273(15)
H23 H 0.664910 0.881500 -0.007455
H24 H 0.596569 0.993924 0.000869
H25 H 0.592008 0.792425 0.005288
N2 N 0.6934(2) 0.8883(5) 0.54718(15)
H26 H 0.743416 0.874405 0.553829
H27 H 0.668509 0.789457 0.561275
H28 H 0.676981 0.990150 0.566004
N3 N 0.6849(2) 0.8926(5) 0.26236(17)
N4 N 0.6372(2) 0.9628(6) 0.29705(17)
loop_
_geom_bond_atom_site_label_1
_geom_bond_atom_site_label_2
_geom_bond_site_symmetry_1
_geom_bond_site_symmetry_2
C1 H1 1_555 1_555
H2 C1 1_555 1_555
H3 C1 1_555 1_555
C2 C1 1_555 1_555
C3 C2 1_555 1_555
H4 C3 1_555 1_555
C4 C3 1_555 1_555
H5 C4 1_555 1_555
C5 C4 1_555 1_555
C6 C5 1_555 1_555
H6 C6 1_555 1_555
C7 C2 1_555 1_555
H7 C7 1_555 1_555
O1 S1 1_555 1_555
O2 S1 1_555 1_555
O3 S1 1_555 1_555
S1 C5 1_555 1_555
C8 H8 1_555 1_555
H9 C8 1_555 1_555
H10 C8 1_555 1_555
C9 C8 1_555 1_555
C10 C9 1_555 1_555
H11 C10 1_555 1_555
C11 C10 1_555 1_555
H12 C11 1_555 1_555
C12 C11 1_555 1_555
C13 C12 1_555 1_555
H13 C13 1_555 1_555
C14 C9 1_555 1_555
H14 C14 1_555 1_555
O4 S2 1_555 1_555
O5 S2 1_555 1_555
O6 S2 1_555 1_555
S2 C12 1_555 1_555
C15 C16 1_555 1_555
C16 H15 1_555 1_555
C17 C16 1_555 1_555
H16 C17 1_555 1_555
C18 C17 1_555 1_555
C19 C18 1_555 1_555
H17 C19 1_555 1_555
C20 C15 1_555 1_555
H18 C20 1_555 1_555
C21 C22 1_555 1_555
C22 H19 1_555 1_555
C23 C22 1_555 1_555
H20 C23 1_555 1_555
C24 C23 1_555 1_555
C25 C24 1_555 1_555
H21 C25 1_555 1_555
C26 C21 1_555 1_555
H22 C26 1_555 1_555
N1 C15 1_555 1_555
H23 N1 1_555 1_555
H24 N1 1_555 1_555
H25 N1 1_555 1_555
N2 C24 1_555 1_555
H26 N2 1_555 1_555
H27 N2 1_555 1_555
H28 N2 1_555 1_555
N3 C18 1_555 1_555
N4 C21 1_555 1_555
C6 C7 1_555 1_555
C13 C14 1_555 1_555
C19 C20 1_555 1_555
C25 C26 1_555 1_555
N3 N4 1_555 1_555

#END
