
#######################################################################
#
#                 Cambridge Crystallographic Data Centre
#                                CCDC 
#
#######################################################################
#
# If this CIF has been generated from an entry in the Cambridge 
# Structural Database, then it will include bibliographic, chemical, 
# crystal, experimental, refinement or atomic coordinate data resulting 
# from the CCDC's data processing and validation procedures.
#
#######################################################################

data_TAYBUS
_chemical_formula_moiety         'C18 H18 O4'
_chemical_name_systematic        
'Methyl 4-(4-methoxyphenyl)-4-oxo-2-phenylbutanoate'
_symmetry_cell_setting           orthorhombic
_symmetry_space_group_name_H-M   'P 21 21 21'
_symmetry_Int_Tables_number      19
_space_group_name_Hall           'P 2ac 2ab'
loop_
_symmetry_equiv_pos_site_id
_symmetry_equiv_pos_as_xyz
1 x,y,z
2 1/2+x,1/2-y,-z
3 -x,1/2+y,1/2-z
4 1/2-x,-y,1/2+z
_cell_length_a                   7.7714(4)
_cell_length_b                   7.9651(4)
_cell_length_c                   24.9654(14)
_cell_angle_alpha                90
_cell_angle_beta                 90
_cell_angle_gamma                90
_cell_volume                     1545.36
_exptl_crystal_colour            colorless
_exptl_crystal_description       prism
_cell_formula_units_Z            4
_exptl_crystal_recrystallization_method acetonitrile
loop_
_atom_site_label
_atom_site_type_symbol
_atom_site_fract_x
_atom_site_fract_y
_atom_site_fract_z
C1 C 0.14582(15) 0.64383(14) 0.39020(4)
H1 H 0.0302 0.6053 0.3896
C2 C 0.20626(19) 0.73267(16) 0.43447(4)
H2 H 0.1316 0.7544 0.4638
C3 C 0.37478(19) 0.78951(15) 0.43590(5)
H3 H 0.4155 0.8507 0.466
C4 C 0.48319(16) 0.75662(14) 0.39331(5)
H4 H 0.599 0.7947 0.3943
C5 C 0.42354(14) 0.66784(12) 0.34885(4)
H5 H 0.499 0.6458 0.3198
C6 C 0.25346(13) 0.61115(11) 0.34688(4)
C7 C 0.18622(12) 0.51884(11) 0.29757(4)
H6 H 0.0624 0.4896 0.3033
C8 C 0.20215(12) 0.62835(11) 0.24743(3)
H7 H 0.1267 0.7277 0.2514
H8 H 0.3222 0.6687 0.2443
C9 C 0.15386(12) 0.53592(12) 0.19677(4)
C10 C 0.17974(12) 0.62255(12) 0.14449(4)
C11 C 0.24550(13) 0.78586(12) 0.14066(4)
H9 H 0.2747 0.8457 0.1723
C12 C 0.26821(14) 0.86066(12) 0.09107(4)
H10 H 0.312 0.9718 0.0889
C13 C 0.22685(13) 0.77315(12) 0.04427(4)
C14 C 0.16175(13) 0.61029(13) 0.04732(4)
H11 H 0.1339 0.5499 0.0157
C15 C 0.13833(13) 0.53786(13) 0.09731(4)
H12 H 0.0928 0.4274 0.0995
C16 C 0.28906(12) 0.35815(11) 0.29052(3)
C17 C 0.30340(14) 0.06984(12) 0.31070(4)
H13 H 0.323 0.0407 0.2731
H14 H 0.2356 -0.0188 0.3279
H15 H 0.4143 0.0811 0.3291
C18 C 0.23028(17) 0.77043(15) -0.05150(4)
H16 H 0.3014 0.6688 -0.0517
H17 H 0.2634 0.8429 -0.0815
H18 H 0.1088 0.7392 -0.055
O1 O 0.42759(9) 0.34961(9) 0.26872(3)
O2 O 0.21085(9) 0.22713(8) 0.31377(3)
O3 O 0.09695(11) 0.39292(9) 0.19852(3)
O4 O 0.25541(11) 0.85867(10) -0.00209(3)
loop_
_geom_bond_atom_site_label_1
_geom_bond_atom_site_label_2
_geom_bond_site_symmetry_1
_geom_bond_site_symmetry_2
C1 H1 1_555 1_555
C2 C1 1_555 1_555
H2 C2 1_555 1_555
C3 C2 1_555 1_555
H3 C3 1_555 1_555
C4 C3 1_555 1_555
H4 C4 1_555 1_555
C5 C4 1_555 1_555
H5 C5 1_555 1_555
C6 C1 1_555 1_555
C7 C6 1_555 1_555
H6 C7 1_555 1_555
C8 C7 1_555 1_555
H7 C8 1_555 1_555
H8 C8 1_555 1_555
C9 C8 1_555 1_555
C10 C9 1_555 1_555
C11 C10 1_555 1_555
H9 C11 1_555 1_555
C12 C11 1_555 1_555
H10 C12 1_555 1_555
C13 C12 1_555 1_555
C14 C13 1_555 1_555
H11 C14 1_555 1_555
C15 C10 1_555 1_555
H12 C15 1_555 1_555
C16 C7 1_555 1_555
C17 H13 1_555 1_555
H14 C17 1_555 1_555
H15 C17 1_555 1_555
C18 H16 1_555 1_555
H17 C18 1_555 1_555
H18 C18 1_555 1_555
O1 C16 1_555 1_555
O2 C16 1_555 1_555
O3 C9 1_555 1_555
O4 C13 1_555 1_555
C5 C6 1_555 1_555
C14 C15 1_555 1_555
C17 O2 1_555 1_555
C18 O4 1_555 1_555

#END
