
#######################################################################
#
#                 Cambridge Crystallographic Data Centre
#                                CCDC 
#
#######################################################################
#
# If this CIF has been generated from an entry in the Cambridge 
# Structural Database, then it will include bibliographic, chemical, 
# crystal, experimental, refinement or atomic coordinate data resulting 
# from the CCDC's data processing and validation procedures.
#
#######################################################################

data_TAYBIG
_chemical_formula_moiety         'C17 H15 N1 O5'
_chemical_name_systematic        
'Methyl 2-(4-nitrophenyl)-4-oxo-4-phenylbutanoate'
_symmetry_cell_setting           monoclinic
_symmetry_space_group_name_H-M   'P 21'
_symmetry_Int_Tables_number      4
_space_group_name_Hall           'P 2yb'
loop_
_symmetry_equiv_pos_site_id
_symmetry_equiv_pos_as_xyz
1 x,y,z
2 -x,1/2+y,-z
_cell_length_a                   7.4205(4)
_cell_length_b                   12.6395(7)
_cell_length_c                   7.9161(5)
_cell_angle_alpha                90
_cell_angle_beta                 104.4190(10)
_cell_angle_gamma                90
_cell_volume                     719.075
_exptl_crystal_colour            colorless
_exptl_crystal_description       prism
_cell_formula_units_Z            2
_exptl_crystal_recrystallization_method ethanol/water
loop_
_atom_site_label
_atom_site_type_symbol
_atom_site_fract_x
_atom_site_fract_y
_atom_site_fract_z
C1 C 0.9446(2) 0.14730(12) 1.54350(19)
H1 H 0.9735 0.0745 1.5356
C2 C 0.9974(2) 0.19928(13) 1.7027(2)
H2 H 1.0624 0.1618 1.8036
C3 C 0.9559(2) 0.30570(13) 1.71548(19)
H3 H 0.9933 0.3409 1.8246
C4 C 0.8596(2) 0.36071(13) 1.5683(2)
H4 H 0.8303 0.4333 1.577
C5 C 0.8063(2) 0.30918(12) 1.40820(18)
H5 H 0.7408 0.3469 1.3078
C6 C 0.84845(19) 0.20242(12) 1.39425(19)
C7 C 0.7870(2) 0.14311(12) 1.22593(19)
C8 C 0.6823(2) 0.20317(12) 1.06613(18)
H6 H 0.7642 0.2589 1.0384
H7 H 0.5732 0.2384 1.0923
C9 C 0.6163(2) 0.13171(12) 0.90730(18)
H8 H 0.7286 0.0978 0.8821
C10 C 0.51266(19) 0.19057(12) 0.74268(18)
C11 C 0.4368(2) 0.29102(12) 0.74726(19)
H9 H 0.4508 0.3258 0.8561
C12 C 0.3406(2) 0.34121(12) 0.59480(18)
H10 H 0.2917 0.4104 0.598
C13 C 0.3182(2) 0.28756(13) 0.43856(18)
C14 C 0.3911(2) 0.18696(13) 0.42905(19)
H11 H 0.3735 0.1516 0.3202
C15 C 0.4899(2) 0.13951(12) 0.58173(19)
H12 H 0.5429 0.0715 0.5773
C16 C 0.4870(2) 0.04369(12) 0.93763(18)
C17 C 0.2267(2) 0.00422(13) 1.0500(2)
H13 H 0.1619 -0.0246 0.9361
H14 H 0.1369 0.0401 1.1026
H15 H 0.2863 -0.0535 1.1264
N1 N 0.20819(18) 0.33706(11) 0.27780(16)
O1 O 0.81741(16) 0.04865(9) 1.21790(14)
O2 O 0.16377(16) 0.43054(9) 0.28311(14)
O3 O 0.16182(18) 0.28179(10) 0.14623(15)
O4 O 0.36731(14) 0.07933(8) 1.02778(14)
O5 O 0.48425(15) -0.04523(9) 0.88186(14)
loop_
_geom_bond_atom_site_label_1
_geom_bond_atom_site_label_2
_geom_bond_site_symmetry_1
_geom_bond_site_symmetry_2
C1 H1 1_555 1_555
C2 C1 1_555 1_555
H2 C2 1_555 1_555
C3 C2 1_555 1_555
H3 C3 1_555 1_555
C4 C3 1_555 1_555
H4 C4 1_555 1_555
C5 C4 1_555 1_555
H5 C5 1_555 1_555
C6 C1 1_555 1_555
C7 C6 1_555 1_555
C8 C7 1_555 1_555
H6 C8 1_555 1_555
H7 C8 1_555 1_555
C9 C8 1_555 1_555
H8 C9 1_555 1_555
C10 C9 1_555 1_555
C11 C10 1_555 1_555
H9 C11 1_555 1_555
C12 C11 1_555 1_555
H10 C12 1_555 1_555
C13 C12 1_555 1_555
C14 C13 1_555 1_555
H11 C14 1_555 1_555
C15 C10 1_555 1_555
H12 C15 1_555 1_555
C16 C9 1_555 1_555
C17 H13 1_555 1_555
H14 C17 1_555 1_555
H15 C17 1_555 1_555
N1 C13 1_555 1_555
O1 C7 1_555 1_555
O2 N1 1_555 1_555
O3 N1 1_555 1_555
O4 C16 1_555 1_555
O5 C16 1_555 1_555
C5 C6 1_555 1_555
C14 C15 1_555 1_555
C17 O4 1_555 1_555

#END
