
#######################################################################
#
#                 Cambridge Crystallographic Data Centre
#                                CCDC 
#
#######################################################################
#
# If this CIF has been generated from an entry in the Cambridge 
# Structural Database, then it will include bibliographic, chemical, 
# crystal, experimental, refinement or atomic coordinate data resulting 
# from the CCDC's data processing and validation procedures.
#
#######################################################################

data_TAYGIL
_chemical_formula_moiety         'C26 H24 F1 N1 O3 S1'
_chemical_name_systematic        
5-Fluoro-12-((4-methylphenyl)sulfonyl)-8-phenyl-15-oxa-12-azatetracyclo[6.6.1.0^1,10^.0^2,7^]pentadeca-2,4,6-triene
_symmetry_cell_setting           monoclinic
_symmetry_space_group_name_H-M   'P 21/c'
_symmetry_Int_Tables_number      14
_space_group_name_Hall           '-P 2ybc'
loop_
_symmetry_equiv_pos_site_id
_symmetry_equiv_pos_as_xyz
1 x,y,z
2 -x,1/2+y,1/2-z
3 -x,-y,-z
4 x,1/2-y,1/2+z
_cell_length_a                   13.030(13)
_cell_length_b                   12.205(12)
_cell_length_c                   15.586(15)
_cell_angle_alpha                90
_cell_angle_beta                 114.153(11)
_cell_angle_gamma                90
_cell_volume                     2261.67
_exptl_crystal_colour            colorless
_exptl_crystal_description       block
_cell_formula_units_Z            4
loop_
_atom_site_label
_atom_site_type_symbol
_atom_site_fract_x
_atom_site_fract_y
_atom_site_fract_z
C1 C 0.1178(4) -0.0096(5) 0.1845(4)
H1 H 0.1171 -0.0673 0.1453
C2 C 0.0743(5) -0.0198(6) 0.2510(4)
C3 C 0.0715(5) 0.0636(6) 0.3079(4)
H2 H 0.0382 0.0534 0.3499
C4 C 0.1184(5) 0.1636(5) 0.3030(4)
H3 H 0.1184 0.2212 0.3421
C5 C 0.1653(4) 0.1760(5) 0.2390(3)
C6 C 0.1622(4) 0.0910(4) 0.1794(3)
C7 C 0.2078(4) 0.1395(4) 0.1125(3)
C8 C 0.1162(4) 0.2210(4) 0.0495(3)
H4 H 0.1308 0.2446 -0.0038
H5 H 0.0419 0.1885 0.0270
C9 C 0.1280(4) 0.3165(4) 0.1171(3)
H6 H 0.0568 0.3296 0.1229
C10 C 0.2173(4) 0.2717(4) 0.2097(3)
C11 C 0.2778(5) 0.3556(4) 0.2827(4)
H7 H 0.3442 0.3226 0.3306
H8 H 0.2293 0.3795 0.3126
C12 C 0.3125(4) 0.4545(4) 0.2416(4)
H9 H 0.3448 0.5102 0.2895
H10 H 0.3687 0.4332 0.2188
C13 C 0.1678(4) 0.4199(4) 0.0862(3)
H11 H 0.2256 0.4014 0.0646
H12 H 0.1055 0.4530 0.0342
C14 C 0.2534(4) 0.0616(4) 0.0630(4)
C15 C 0.3641(5) 0.0361(5) 0.0963(5)
H13 H 0.4144 0.0692 0.1511
C16 C 0.4036(6) -0.0380(7) 0.0501(6)
H14 H 0.4800 -0.0542 0.0743
C17 C 0.3333(6) -0.0870(5) -0.0292(5)
H15 H 0.3607 -0.1369 -0.0597
C18 C 0.2230(6) -0.0635(5) -0.0640(4)
H16 H 0.1736 -0.0973 -0.1189
C19 C 0.1831(5) 0.0109(5) -0.0183(4)
H17 H 0.1067 0.0271 -0.0433
C20 C 0.3081(4) 0.6352(4) 0.0785(4)
C21 C 0.4232(5) 0.6456(4) 0.1301(5)
H18 H 0.4529 0.6510 0.1953
C22 C 0.4927(5) 0.6479(5) 0.0830(7)
H19 H 0.5700 0.6536 0.1176
C23 C 0.4518(7) 0.6420(5) -0.0130(7)
C24 C 0.3377(6) 0.6315(5) -0.0626(5)
H20 H 0.3081 0.6269 -0.1278
C25 C 0.2661(5) 0.6276(4) -0.0177(4)
H21 H 0.1891 0.6198 -0.0526
C26 C 0.5317(7) 0.6495(6) -0.0611(7)
H22 H 0.5903 0.7010 -0.0283
H23 H 0.4912 0.6733 -0.1249
H24 H 0.5642 0.5788 -0.0607
F1 F 0.0299(3) -0.1187(3) 0.2582(3)
N1 N 0.2127(3) 0.4981(3) 0.1638(3)
O1 O 0.2916(2) 0.2146(3) 0.1750(2)
O2 O 0.1055(3) 0.6537(3) 0.0685(3)
O3 O 0.2649(4) 0.6871(3) 0.2223(3)
S1 S 0.21642(13) 0.62761(13) 0.13615(11)
loop_
_geom_bond_atom_site_label_1
_geom_bond_atom_site_label_2
_geom_bond_site_symmetry_1
_geom_bond_site_symmetry_2
C1 H1 1_555 1_555
C2 C1 1_555 1_555
C3 C2 1_555 1_555
H2 C3 1_555 1_555
C4 C3 1_555 1_555
H3 C4 1_555 1_555
C5 C4 1_555 1_555
C6 C1 1_555 1_555
C7 C6 1_555 1_555
C8 C7 1_555 1_555
H4 C8 1_555 1_555
H5 C8 1_555 1_555
C9 C8 1_555 1_555
H6 C9 1_555 1_555
C10 C5 1_555 1_555
C11 C10 1_555 1_555
H7 C11 1_555 1_555
H8 C11 1_555 1_555
C12 C11 1_555 1_555
H9 C12 1_555 1_555
H10 C12 1_555 1_555
C13 C9 1_555 1_555
H11 C13 1_555 1_555
H12 C13 1_555 1_555
C14 C7 1_555 1_555
C15 C14 1_555 1_555
H13 C15 1_555 1_555
C16 C15 1_555 1_555
H14 C16 1_555 1_555
C17 C16 1_555 1_555
H15 C17 1_555 1_555
C18 C17 1_555 1_555
H16 C18 1_555 1_555
C19 C14 1_555 1_555
H17 C19 1_555 1_555
C20 C21 1_555 1_555
C21 H18 1_555 1_555
C22 C21 1_555 1_555
H19 C22 1_555 1_555
C23 C22 1_555 1_555
C24 C23 1_555 1_555
H20 C24 1_555 1_555
C25 C20 1_555 1_555
H21 C25 1_555 1_555
C26 C23 1_555 1_555
H22 C26 1_555 1_555
H23 C26 1_555 1_555
H24 C26 1_555 1_555
F1 C2 1_555 1_555
N1 C12 1_555 1_555
O1 C7 1_555 1_555
O2 S1 1_555 1_555
O3 S1 1_555 1_555
S1 C20 1_555 1_555
C5 C6 1_555 1_555
C9 C10 1_555 1_555
C10 O1 1_555 1_555
C13 N1 1_555 1_555
C18 C19 1_555 1_555
C24 C25 1_555 1_555
N1 S1 1_555 1_555

#END
