
#######################################################################
#
#                 Cambridge Crystallographic Data Centre
#                                CCDC 
#
#######################################################################
#
# If this CIF has been generated from an entry in the Cambridge 
# Structural Database, then it will include bibliographic, chemical, 
# crystal, experimental, refinement or atomic coordinate data resulting 
# from the CCDC's data processing and validation procedures.
#
#######################################################################

data_TAYHEI
_chemical_formula_moiety         'C24 H17 Cl2 N3 O4,C1 H1 Cl3'
_chemical_name_systematic        
'Dimethyl 3,4-bis(5-chloro-1H-indol-3-yl)-1H-pyrrole-2,5-dicarboxylate chloroform solvate'
_symmetry_cell_setting           monoclinic
_symmetry_space_group_name_H-M   'P 21/c'
_symmetry_Int_Tables_number      14
_space_group_name_Hall           '-P 2ybc'
loop_
_symmetry_equiv_pos_site_id
_symmetry_equiv_pos_as_xyz
1 x,y,z
2 -x,1/2+y,1/2-z
3 -x,-y,-z
4 x,1/2-y,1/2+z
_cell_length_a                   11.9232(5)
_cell_length_b                   14.2445(6)
_cell_length_c                   16.5078(6)
_cell_angle_alpha                90
_cell_angle_beta                 113.755(2)
_cell_angle_gamma                90
_cell_volume                     2566.15
_exptl_crystal_colour            colorless
_exptl_crystal_description       block
_cell_formula_units_Z            4
_exptl_crystal_recrystallization_method Chloroform
loop_
_atom_site_label
_atom_site_type_symbol
_atom_site_fract_x
_atom_site_fract_y
_atom_site_fract_z
Cl1 Cl 0.20128(4) 0.37616(3) 0.33382(3)
Cl2 Cl 0.31817(5) 0.87661(3) 0.39102(3)
N1 N 0.09522(12) 0.62356(9) 0.65596(9)
H1 H 0.0173 0.6238 0.6470
C1 C 0.16003(14) 0.54663(11) 0.64935(10)
C2 C 0.27995(14) 0.57455(11) 0.66654(10)
C3 C 0.28669(14) 0.67213(11) 0.68612(10)
C4 C 0.17109(14) 0.69979(11) 0.67873(10)
C5 C 0.13062(14) 0.79367(11) 0.69237(10)
C6 C -0.04039(17) 0.88635(13) 0.67727(14)
H2 H 0.0107 0.9180 0.7326
H3 H -0.1237 0.8790 0.6742
H4 H -0.0426 0.9240 0.6270
C7 C 0.10883(14) 0.45167(11) 0.63229(10)
C8 C -0.07215(16) 0.36110(12) 0.58528(14)
H5 H -0.0645 0.3348 0.5329
H6 H -0.1590 0.3674 0.5739
H7 H -0.0321 0.3192 0.6359
N2 N 0.56548(12) 0.45809(10) 0.68975(9)
H8 H 0.6435 0.4442 0.7188
C9 C 0.49626(15) 0.51095(11) 0.72175(11)
H9 H 0.5256 0.5385 0.7790
C10 C 0.37818(14) 0.51834(11) 0.65898(10)
C11 C 0.37421(14) 0.46639(11) 0.58317(11)
C12 C 0.28214(14) 0.44863(11) 0.49908(11)
H10 H 0.2009 0.4708 0.4831
C13 C 0.31410(15) 0.39782(12) 0.44058(11)
C14 C 0.43218(16) 0.36232(12) 0.46162(12)
H11 H 0.4497 0.3278 0.4189
C15 C 0.52307(16) 0.37775(11) 0.54489(12)
H12 H 0.6033 0.3533 0.5608
C16 C 0.49343(14) 0.43034(11) 0.60489(11)
N3 N 0.58411(12) 0.79363(9) 0.76640(9)
H13 H 0.6575 0.8075 0.8064
C17 C 0.49835(14) 0.73943(11) 0.78069(11)
H14 H 0.5092 0.7116 0.8356
C18 C 0.39484(14) 0.73150(11) 0.70383(10)
C19 C 0.41693(14) 0.78495(11) 0.63830(11)
C20 C 0.34739(15) 0.80256(11) 0.54854(11)
H15 H 0.2662 0.7794 0.5196
C21 C 0.40141(17) 0.85495(12) 0.50368(11)
C22 C 0.52079(18) 0.89051(12) 0.54423(13)
H16 H 0.5550 0.9248 0.5103
C23 C 0.58856(16) 0.87588(11) 0.63296(12)
H17 H 0.6686 0.9014 0.6616
C24 C 0.53677(14) 0.82267(11) 0.67972(11)
O1 O 0.16757(11) 0.38055(8) 0.64230(9)
O2 O -0.01420(10) 0.45260(8) 0.60469(8)
O3 O 0.19590(11) 0.86160(8) 0.71663(9)
O4 O 0.01062(10) 0.79484(8) 0.67435(8)
Cl3 Cl 0.77579(4) 0.78562(3) 0.47204(3)
Cl4 Cl 0.75703(4) 0.98323(3) 0.42908(3)
Cl5 Cl 0.96814(5) 0.87802(4) 0.43677(5)
C25 C 0.80957(18) 0.87308(13) 0.41001(13)
H18 H 0.7663 0.8575 0.3458
loop_
_geom_bond_atom_site_label_1
_geom_bond_atom_site_label_2
_geom_bond_site_symmetry_1
_geom_bond_site_symmetry_2
Cl1 C13 1_555 1_555
Cl2 C21 1_555 1_555
N1 H1 1_555 1_555
C1 N1 1_555 1_555
C2 C1 1_555 1_555
C3 C2 1_555 1_555
C4 N1 1_555 1_555
C5 C4 1_555 1_555
C6 H2 1_555 1_555
H3 C6 1_555 1_555
H4 C6 1_555 1_555
C7 C1 1_555 1_555
C8 H5 1_555 1_555
H6 C8 1_555 1_555
H7 C8 1_555 1_555
N2 H8 1_555 1_555
C9 N2 1_555 1_555
H9 C9 1_555 1_555
C10 C2 1_555 1_555
C11 C10 1_555 1_555
C12 C11 1_555 1_555
H10 C12 1_555 1_555
C13 C12 1_555 1_555
C14 C13 1_555 1_555
H11 C14 1_555 1_555
C15 C14 1_555 1_555
H12 C15 1_555 1_555
C16 N2 1_555 1_555
N3 H13 1_555 1_555
C17 N3 1_555 1_555
H14 C17 1_555 1_555
C18 C3 1_555 1_555
C19 C18 1_555 1_555
C20 C19 1_555 1_555
H15 C20 1_555 1_555
C21 C20 1_555 1_555
C22 C21 1_555 1_555
H16 C22 1_555 1_555
C23 C22 1_555 1_555
H17 C23 1_555 1_555
C24 N3 1_555 1_555
O1 C7 1_555 1_555
O2 C7 1_555 1_555
O3 C5 1_555 1_555
O4 C5 1_555 1_555
Cl3 C25 1_555 1_555
Cl4 C25 1_555 1_555
Cl5 C25 1_555 1_555
C25 H18 1_555 1_555
C3 C4 1_555 1_555
C6 O4 1_555 1_555
C8 O2 1_555 1_555
C9 C10 1_555 1_555
C11 C16 1_555 1_555
C15 C16 1_555 1_555
C17 C18 1_555 1_555
C19 C24 1_555 1_555
C23 C24 1_555 1_555

#END
