
#######################################################################
#
#                 Cambridge Crystallographic Data Centre
#                                CCDC 
#
#######################################################################
#
# If this CIF has been generated from an entry in the Cambridge 
# Structural Database, then it will include bibliographic, chemical, 
# crystal, experimental, refinement or atomic coordinate data resulting 
# from the CCDC's data processing and validation procedures.
#
#######################################################################

data_TAYHOS
_chemical_formula_moiety         'C24 H17 Cl1 N2 O1'
_chemical_name_systematic        
1-(4-Chlorophenyl)-2,2-bis(1H-indol-3-yl)ethanone
_symmetry_cell_setting           monoclinic
_symmetry_space_group_name_H-M   'P 21/n'
_symmetry_Int_Tables_number      14
_space_group_name_Hall           '-P 2yn'
loop_
_symmetry_equiv_pos_site_id
_symmetry_equiv_pos_as_xyz
1 x,y,z
2 1/2-x,1/2+y,1/2-z
3 -x,-y,-z
4 1/2+x,1/2-y,1/2+z
_cell_length_a                   10.7869(10)
_cell_length_b                   12.4394(11)
_cell_length_c                   14.7593(14)
_cell_angle_alpha                90
_cell_angle_beta                 103.442(2)
_cell_angle_gamma                90
_cell_volume                     1926.19
_exptl_crystal_colour            yellow
_exptl_crystal_description       block
_cell_formula_units_Z            4
loop_
_atom_site_label
_atom_site_type_symbol
_atom_site_fract_x
_atom_site_fract_y
_atom_site_fract_z
C1 C 1.3571(5) 0.5854(5) 0.2163(7)
C2 C 1.3370(6) 0.4976(7) 0.2694(7)
H1 H 1.4061 0.4597 0.3042
C3 C 1.2136(7) 0.4666(9) 0.2704(8)
H2 H 1.2001 0.4078 0.3059
C4 C 1.1102(5) 0.5233(12) 0.2184(10)
C5 C 1.1303(5) 0.6111(10) 0.1653(9)
H3 H 1.0612 0.6491 0.1305
C6 C 1.2538(7) 0.6422(6) 0.1643(7)
H4 H 1.2673 0.7009 0.1288
Cl1 Cl 1.5104(4) 0.6219(4) 0.2173(4)
C7 C 0.9761(2) 0.48842(15) 0.20832(15)
C8 C 0.87643(19) 0.51500(16) 0.12000(14)
H5 H 0.9217 0.5248 0.0702
C9 C 0.81310(19) 0.62080(16) 0.13171(14)
C10 C 0.8058(2) 0.67299(18) 0.21129(15)
H6 H 0.8380 0.6471 0.2713
C11 C 0.75151(18) 0.68898(15) 0.05581(14)
C12 C 0.7103(2) 0.78122(16) 0.09574(16)
C13 C 0.6481(2) 0.86470(18) 0.04173(18)
H7 H 0.6200 0.9247 0.0688
C14 C 0.6292(2) 0.85576(19) -0.05291(19)
H8 H 0.5893 0.9115 -0.0906
C15 C 0.6685(2) 0.76507(19) -0.09421(17)
H9 H 0.6539 0.7612 -0.1588
C16 C 0.7283(2) 0.68138(18) -0.04089(15)
H10 H 0.7530 0.6205 -0.0688
C17 C 0.7865(2) 0.42201(16) 0.09228(15)
C18 C 0.6588(2) 0.41868(18) 0.08029(18)
H11 H 0.6083 0.4761 0.0901
C19 C 0.8254(2) 0.31733(17) 0.06953(15)
C20 C 0.7146(2) 0.25420(18) 0.04401(16)
C21 C 0.7180(3) 0.1483(2) 0.01603(19)
H12 H 0.6442 0.1071 -0.0001
C22 C 0.8344(3) 0.1066(2) 0.0131(2)
H13 H 0.8394 0.0355 -0.0052
C23 C 0.9456(3) 0.1677(2) 0.03675(19)
H14 H 1.0229 0.1372 0.0329
C24 C 0.9427(2) 0.27225(19) 0.06554(17)
H15 H 1.0173 0.3124 0.0821
N1 N 0.74430(19) 0.76891(15) 0.19031(13)
H16 H 0.7293 0.8144 0.2303
N2 N 0.61467(19) 0.31815(16) 0.05150(16)
H17 H 0.5362 0.2984 0.0399
O1 O 0.94693(16) 0.44180(14) 0.27239(12)
C25? C 1.3725(5) 0.5421(7) 0.2339(8)
C26? C 1.3260(8) 0.4610(7) 0.2818(8)
C27? C 1.1953(9) 0.4465(11) 0.2690(10)
C28? C 1.1112(5) 0.5130(13) 0.2084(11)
C29? C 1.1577(6) 0.5940(11) 0.1605(9)
C30? C 1.2883(7) 0.6086(7) 0.1733(8)
Cl2? Cl 1.5301(5) 0.5656(4) 0.2377(5)
H18? H 1.3823 0.4166 0.3224
H19? H 1.1642 0.3923 0.3011
H20? H 1.1013 0.6385 0.1199
H21? H 1.3195 0.6628 0.1413
loop_
_geom_bond_atom_site_label_1
_geom_bond_atom_site_label_2
_geom_bond_site_symmetry_1
_geom_bond_site_symmetry_2
C1 C2 1_555 1_555
C2 H1 1_555 1_555
C3 C2 1_555 1_555
H2 C3 1_555 1_555
C4 C3 1_555 1_555
C5 C4 1_555 1_555
H3 C5 1_555 1_555
C6 C1 1_555 1_555
H4 C6 1_555 1_555
Cl1 C1 1_555 1_555
C7 C4 1_555 1_555
C8 C7 1_555 1_555
H5 C8 1_555 1_555
C9 C8 1_555 1_555
C10 C9 1_555 1_555
H6 C10 1_555 1_555
C11 C9 1_555 1_555
C12 C11 1_555 1_555
C13 C12 1_555 1_555
H7 C13 1_555 1_555
C14 C13 1_555 1_555
H8 C14 1_555 1_555
C15 C14 1_555 1_555
H9 C15 1_555 1_555
C16 C11 1_555 1_555
H10 C16 1_555 1_555
C17 C8 1_555 1_555
C18 C17 1_555 1_555
H11 C18 1_555 1_555
C19 C17 1_555 1_555
C20 C19 1_555 1_555
C21 C20 1_555 1_555
H12 C21 1_555 1_555
C22 C21 1_555 1_555
H13 C22 1_555 1_555
C23 C22 1_555 1_555
H14 C23 1_555 1_555
C24 C19 1_555 1_555
H15 C24 1_555 1_555
N1 C10 1_555 1_555
H16 N1 1_555 1_555
N2 C18 1_555 1_555
H17 N2 1_555 1_555
O1 C7 1_555 1_555
C5 C6 1_555 1_555
C12 N1 1_555 1_555
C15 C16 1_555 1_555
C20 N2 1_555 1_555
C23 C24 1_555 1_555

#END
