
#######################################################################
#
#                 Cambridge Crystallographic Data Centre
#                                CCDC 
#
#######################################################################
#
# If this CIF has been generated from an entry in the Cambridge 
# Structural Database, then it will include bibliographic, chemical, 
# crystal, experimental, refinement or atomic coordinate data resulting 
# from the CCDC's data processing and validation procedures.
#
#######################################################################

data_TAYJUA
_chemical_formula_moiety         'C17 H25 N3 O4'
_chemical_name_systematic        N,N-Diethyl-N^2^-(3-nitrobenzoyl)leucinamide
_symmetry_cell_setting           monoclinic
_symmetry_space_group_name_H-M   'P 21/n'
_symmetry_Int_Tables_number      14
_space_group_name_Hall           '-P 2yn'
loop_
_symmetry_equiv_pos_site_id
_symmetry_equiv_pos_as_xyz
1 x,y,z
2 1/2-x,1/2+y,1/2-z
3 -x,-y,-z
4 1/2+x,1/2-y,1/2+z
_cell_length_a                   12.0999(6)
_cell_length_b                   20.0216(10)
_cell_length_c                   16.0201(8)
_cell_angle_alpha                90
_cell_angle_beta                 97.1570(10)
_cell_angle_gamma                90
_cell_volume                     3850.78
_exptl_crystal_colour            colorless
_exptl_crystal_description       parallelepiped
_cell_formula_units_Z            8
loop_
_atom_site_label
_atom_site_type_symbol
_atom_site_fract_x
_atom_site_fract_y
_atom_site_fract_z
O1 O 0.46677(12) 0.20858(6) 0.09361(7)
O2 O 0.65518(19) 0.49665(8) 0.12618(13)
O3 O 0.5981(2) 0.42776(9) 0.02906(13)
O4 O 0.19567(11) 0.16710(6) 0.18728(8)
N1 N 0.42307(12) 0.18560(7) 0.22212(10)
H1 H 0.4164(15) 0.1977(9) 0.2690(12)
N2 N 0.61686(17) 0.44304(9) 0.10204(14)
N3 N 0.21830(13) 0.08133(7) 0.10001(9)
C1 C 0.46649(13) 0.22459(8) 0.16730(10)
C2 C 0.51723(13) 0.28966(7) 0.19908(10)
C3 C 0.54352(17) 0.30470(9) 0.28317(11)
H2 H 0.5280 0.2740 0.3237
C4 C 0.5925(2) 0.36474(11) 0.30758(13)
H3 H 0.6094 0.3742 0.3646
C5 C 0.61676(19) 0.41087(10) 0.24932(14)
H4 H 0.6497 0.4515 0.2658
C6 C 0.59080(15) 0.39506(8) 0.16606(12)
C7 C 0.54155(14) 0.33553(7) 0.13968(11)
H5 H 0.5249 0.3263 0.0826
C8 C 0.37865(15) 0.12030(7) 0.19704(10)
H6 H 0.4216 0.1018 0.1545
C9 C 0.25718(16) 0.12536(8) 0.15976(10)
C10 C 0.09901(19) 0.08148(10) 0.06962(14)
H7 H 0.0883 0.0690 0.0106
H8 H 0.0697 0.1262 0.0744
C11 C 0.0357(2) 0.03386(13) 0.11860(18)
H9 H -0.0419 0.0351 0.0969
H10 H 0.0448 0.0466 0.1768
H11 H 0.0638 -0.0106 0.1133
C12 C 0.28635(19) 0.03142(9) 0.06350(13)
H12 H 0.2409 -0.0075 0.0474
H13 H 0.3464 0.0176 0.1058
C13 C 0.3353(3) 0.05735(14) -0.01286(16)
H14 H 0.3788 0.0228 -0.0346
H15 H 0.3820 0.0952 0.0030
H16 H 0.2762 0.0704 -0.0553
C14 C 0.38903(15) 0.07332(8) 0.27287(11)
H17 H 0.3522 0.0937 0.3169
H18 H 0.3501 0.0321 0.2565
C15 C 0.5083(2) 0.05655(12) 0.30856(14)
H19 H 0.5504 0.0983 0.3174
C16 C 0.5650(3) 0.0124(2) 0.2483(2)
H20 H 0.5653 0.0350 0.1955
H21 H 0.5250 -0.0289 0.2394
H22 H 0.6403 0.0034 0.2722
C17 C 0.5087(2) 0.02192(15) 0.39301(17)
H23 H 0.4749 0.0505 0.4307
H24 H 0.5840 0.0124 0.4163
H25 H 0.4674 -0.0190 0.3854
O5 O 0.25223(16) 0.39182(6) 0.33153(9)
O6 O 0.19415(15) 0.31473(10) -0.09974(9)
O7 O 0.17849(16) 0.23609(9) -0.01112(9)
O8 O 0.38278(11) 0.21903(7) 0.39831(8)
N4 N 0.21866(14) 0.28496(8) 0.29628(9)
H26 H 0.2157(15) 0.2553(9) 0.2628(12)
N5 N 0.19985(14) 0.29347(11) -0.02788(10)
N6 N 0.31774(13) 0.25478(8) 0.51646(9)
C18 C 0.24226(15) 0.34780(8) 0.27818(11)
C19 C 0.25445(14) 0.36364(8) 0.18813(10)
C20 C 0.29542(16) 0.42643(9) 0.17077(13)
H27 H 0.3163 0.4561 0.2145
C21 C 0.30522(18) 0.44498(10) 0.08881(14)
H28 H 0.3329 0.4870 0.0780
C22 C 0.27438(17) 0.40185(11) 0.02326(13)
H29 H 0.2805 0.4142 -0.0320
C23 C 0.23445(15) 0.34021(9) 0.04144(11)
C24 C 0.22402(14) 0.31984(8) 0.12249(10)
H30 H 0.1971 0.2775 0.1327
C25 C 0.19901(15) 0.26534(8) 0.38040(10)
H31 H 0.1662 0.3030 0.4076
C26 C 0.30848(15) 0.24546(9) 0.43278(11)
C27 C 0.41813(18) 0.23229(12) 0.56839(13)
H32 H 0.4367 0.2639 0.6139
H33 H 0.4793 0.2316 0.5346
C28 C 0.4056(3) 0.16487(15) 0.6045(2)
H34 H 0.4736 0.1524 0.6382
H35 H 0.3890 0.1331 0.5597
H36 H 0.3460 0.1654 0.6388
C29 C 0.23339(18) 0.28692(10) 0.56081(12)
H37 H 0.2342 0.2664 0.6157
H38 H 0.1605 0.2792 0.5297
C30 C 0.2514(3) 0.36106(13) 0.57183(19)
H39 H 0.1938 0.3796 0.6009
H40 H 0.2493 0.3818 0.5176
H41 H 0.3226 0.3690 0.6039
C31 C 0.11828(16) 0.20648(10) 0.37522(11)
H42 H 0.1525 0.1691 0.3496
H43 H 0.1080 0.1934 0.4320
C32 C 0.00458(19) 0.21876(14) 0.32636(13)
H44 H 0.0160 0.2314 0.2690
C33 C -0.0617(2) 0.15404(18) 0.3210(2)
H45 H -0.1339 0.1617 0.2902
H46 H -0.0700 0.1388 0.3767
H47 H -0.0230 0.1208 0.2926
C34 C -0.0574(2) 0.27545(17) 0.3627(2)
H48 H -0.0129 0.3152 0.3650
H49 H -0.0720 0.2639 0.4185
H50 H -0.1266 0.2831 0.3278
loop_
_geom_bond_atom_site_label_1
_geom_bond_atom_site_label_2
_geom_bond_site_symmetry_1
_geom_bond_site_symmetry_2
O1 C1 1_555 1_555
O2 N2 1_555 1_555
O3 N2 1_555 1_555
O4 C9 1_555 1_555
N1 H1 1_555 1_555
N2 C6 1_555 1_555
N3 C9 1_555 1_555
C1 N1 1_555 1_555
C2 C1 1_555 1_555
C3 C2 1_555 1_555
H2 C3 1_555 1_555
C4 C3 1_555 1_555
H3 C4 1_555 1_555
C5 C4 1_555 1_555
H4 C5 1_555 1_555
C6 C5 1_555 1_555
C7 C2 1_555 1_555
H5 C7 1_555 1_555
C8 N1 1_555 1_555
H6 C8 1_555 1_555
C9 C8 1_555 1_555
C10 N3 1_555 1_555
H7 C10 1_555 1_555
H8 C10 1_555 1_555
C11 C10 1_555 1_555
H9 C11 1_555 1_555
H10 C11 1_555 1_555
H11 C11 1_555 1_555
C12 N3 1_555 1_555
H12 C12 1_555 1_555
H13 C12 1_555 1_555
C13 C12 1_555 1_555
H14 C13 1_555 1_555
H15 C13 1_555 1_555
H16 C13 1_555 1_555
C14 C8 1_555 1_555
H17 C14 1_555 1_555
H18 C14 1_555 1_555
C15 C14 1_555 1_555
H19 C15 1_555 1_555
C16 C15 1_555 1_555
H20 C16 1_555 1_555
H21 C16 1_555 1_555
H22 C16 1_555 1_555
C17 C15 1_555 1_555
H23 C17 1_555 1_555
H24 C17 1_555 1_555
H25 C17 1_555 1_555
O5 C18 1_555 1_555
O6 N5 1_555 1_555
O7 N5 1_555 1_555
O8 C26 1_555 1_555
N4 H26 1_555 1_555
N5 C23 1_555 1_555
N6 C26 1_555 1_555
C18 N4 1_555 1_555
C19 C18 1_555 1_555
C20 C19 1_555 1_555
H27 C20 1_555 1_555
C21 C20 1_555 1_555
H28 C21 1_555 1_555
C22 C21 1_555 1_555
H29 C22 1_555 1_555
C23 C22 1_555 1_555
C24 C19 1_555 1_555
H30 C24 1_555 1_555
C25 N4 1_555 1_555
H31 C25 1_555 1_555
C26 C25 1_555 1_555
C27 N6 1_555 1_555
H32 C27 1_555 1_555
H33 C27 1_555 1_555
C28 C27 1_555 1_555
H34 C28 1_555 1_555
H35 C28 1_555 1_555
H36 C28 1_555 1_555
C29 N6 1_555 1_555
H37 C29 1_555 1_555
H38 C29 1_555 1_555
C30 C29 1_555 1_555
H39 C30 1_555 1_555
H40 C30 1_555 1_555
H41 C30 1_555 1_555
C31 C25 1_555 1_555
H42 C31 1_555 1_555
H43 C31 1_555 1_555
C32 C31 1_555 1_555
H44 C32 1_555 1_555
C33 C32 1_555 1_555
H45 C33 1_555 1_555
H46 C33 1_555 1_555
H47 C33 1_555 1_555
C34 C32 1_555 1_555
H48 C34 1_555 1_555
H49 C34 1_555 1_555
H50 C34 1_555 1_555
C6 C7 1_555 1_555
C23 C24 1_555 1_555

#END
