
#######################################################################
#
#                 Cambridge Crystallographic Data Centre
#                                CCDC 
#
#######################################################################
#
# If this CIF has been generated from an entry in the Cambridge 
# Structural Database, then it will include bibliographic, chemical, 
# crystal, experimental, refinement or atomic coordinate data resulting 
# from the CCDC's data processing and validation procedures.
#
#######################################################################

data_TAYLUC
_chemical_formula_moiety         'C17 H32 N2 O2'
_chemical_name_systematic        
N^2^-(Cyclohexylcarbonyl)-N,N-diethylleucinamide
_symmetry_cell_setting           monoclinic
_symmetry_space_group_name_H-M   'P 21/n'
_symmetry_Int_Tables_number      14
_space_group_name_Hall           '-P 2yn'
loop_
_symmetry_equiv_pos_site_id
_symmetry_equiv_pos_as_xyz
1 x,y,z
2 1/2-x,1/2+y,1/2-z
3 -x,-y,-z
4 1/2+x,1/2-y,1/2+z
_cell_length_a                   11.4887(4)
_cell_length_b                   9.1041(3)
_cell_length_c                   17.7238(5)
_cell_angle_alpha                90
_cell_angle_beta                 102.535(3)
_cell_angle_gamma                90
_cell_volume                     1809.62
_exptl_crystal_colour            colorless
_exptl_crystal_description       parallelepiped
_cell_formula_units_Z            4
loop_
_atom_site_label
_atom_site_type_symbol
_atom_site_fract_x
_atom_site_fract_y
_atom_site_fract_z
O1 O 0.47275(7) 0.84363(9) 0.18048(5)
O2 O 0.62838(7) 0.40865(10) 0.06545(5)
N1 N 0.48040(8) 0.66541(11) 0.09272(6)
H1 H 0.4546(10) 0.6362(14) 0.0451(7)
N2 N 0.75956(8) 0.52721(11) 0.15839(5)
C1 C 0.23404(10) 0.84130(13) 0.04623(7)
H2 H 0.2232 0.7344 0.0371
H3 H 0.2137 0.8645 0.0964
C2 C 0.15107(10) 0.92520(14) -0.01815(7)
H4 H 0.1652 0.8928 -0.0687
H5 H 0.0673 0.9021 -0.0169
C3 C 0.17019(10) 1.09063(14) -0.01023(8)
H6 H 0.1460 1.1252 0.0371
H7 H 0.1192 1.1405 -0.0551
C4 C 0.30036(11) 1.13146(13) -0.00582(7)
H8 H 0.3221 1.1074 -0.0555
H9 H 0.3110 1.2385 0.0029
C5 C 0.38211(10) 1.04827(13) 0.05973(7)
H10 H 0.4662 1.0736 0.0606
H11 H 0.3645 1.0783 0.1098
C6 C 0.36484(9) 0.88271(12) 0.04942(6)
H12 H 0.3849 0.8541 -0.0007
C7 C 0.44516(9) 0.79750(13) 0.11370(7)
C8 C 0.54307(10) 0.56098(13) 0.14917(6)
H13 H 0.5742 0.6136 0.1990
C9 C 0.64820(10) 0.49490(13) 0.12064(7)
C10 C 0.78962(11) 0.64529(14) 0.21602(7)
H14 H 0.7279 0.7228 0.2044
H15 H 0.8668 0.6896 0.2120
C11 C 0.79829(11) 0.59124(15) 0.29773(7)
H16 H 0.8185 0.6736 0.3338
H17 H 0.8604 0.5158 0.3100
H18 H 0.7216 0.5493 0.3023
C12 C 0.86005(10) 0.44410(14) 0.14045(7)
H19 H 0.8315 0.3455 0.1213
H20 H 0.9214 0.4305 0.1886
C13 C 0.91693(12) 0.51758(16) 0.08091(9)
H21 H 0.9826 0.4566 0.0715
H22 H 0.9477 0.6141 0.1000
H23 H 0.8573 0.5296 0.0326
C14 C 0.46079(11) 0.43676(13) 0.16341(7)
H24 H 0.5098 0.3594 0.1944
H25 H 0.4223 0.3929 0.1130
C15 C 0.36339(10) 0.48453(14) 0.20523(7)
H26 H 0.3202 0.5701 0.1767
C16 C 0.41513(12) 0.53235(15) 0.28816(7)
H27 H 0.4717 0.6129 0.2881
H28 H 0.4564 0.4492 0.3175
H29 H 0.3505 0.5657 0.3122
C17 C 0.27384(13) 0.35988(16) 0.20380(9)
H30 H 0.2119 0.3911 0.2307
H31 H 0.3151 0.2734 0.2297
H32 H 0.2371 0.3351 0.1501
loop_
_geom_bond_atom_site_label_1
_geom_bond_atom_site_label_2
_geom_bond_site_symmetry_1
_geom_bond_site_symmetry_2
O1 C7 1_555 1_555
O2 C9 1_555 1_555
N1 H1 1_555 1_555
N2 C9 1_555 1_555
C1 H2 1_555 1_555
H3 C1 1_555 1_555
C2 C1 1_555 1_555
H4 C2 1_555 1_555
H5 C2 1_555 1_555
C3 C2 1_555 1_555
H6 C3 1_555 1_555
H7 C3 1_555 1_555
C4 C3 1_555 1_555
H8 C4 1_555 1_555
H9 C4 1_555 1_555
C5 C4 1_555 1_555
H10 C5 1_555 1_555
H11 C5 1_555 1_555
C6 C1 1_555 1_555
H12 C6 1_555 1_555
C7 N1 1_555 1_555
C8 N1 1_555 1_555
H13 C8 1_555 1_555
C9 C8 1_555 1_555
C10 N2 1_555 1_555
H14 C10 1_555 1_555
H15 C10 1_555 1_555
C11 C10 1_555 1_555
H16 C11 1_555 1_555
H17 C11 1_555 1_555
H18 C11 1_555 1_555
C12 N2 1_555 1_555
H19 C12 1_555 1_555
H20 C12 1_555 1_555
C13 C12 1_555 1_555
H21 C13 1_555 1_555
H22 C13 1_555 1_555
H23 C13 1_555 1_555
C14 C8 1_555 1_555
H24 C14 1_555 1_555
H25 C14 1_555 1_555
C15 C14 1_555 1_555
H26 C15 1_555 1_555
C16 C15 1_555 1_555
H27 C16 1_555 1_555
H28 C16 1_555 1_555
H29 C16 1_555 1_555
C17 C15 1_555 1_555
H30 C17 1_555 1_555
H31 C17 1_555 1_555
H32 C17 1_555 1_555
C5 C6 1_555 1_555
C6 C7 1_555 1_555

#END
