
#######################################################################
#
#                 Cambridge Crystallographic Data Centre
#                                CCDC 
#
#######################################################################
#
# If this CIF has been generated from an entry in the Cambridge 
# Structural Database, then it will include bibliographic, chemical, 
# crystal, experimental, refinement or atomic coordinate data resulting 
# from the CCDC's data processing and validation procedures.
#
#######################################################################

data_TAYQIW
_chemical_formula_moiety         'C21 H13 B1 F2 N4'
_chemical_name_systematic        
3-cyano-1,1-difluoro-2-(phenylimino)-1,2-dihydro[1,3,2]diazaborolo[1,5-f]phenanthridin-2-ium-1-ide
_symmetry_cell_setting           monoclinic
_symmetry_space_group_name_H-M   'P 21/n'
_symmetry_Int_Tables_number      14
_space_group_name_Hall           '-P 2yn'
loop_
_symmetry_equiv_pos_site_id
_symmetry_equiv_pos_as_xyz
1 x,y,z
2 1/2-x,1/2+y,1/2-z
3 -x,-y,-z
4 1/2+x,1/2-y,1/2+z
_cell_length_a                   14.6614(2)
_cell_length_b                   6.76028(10)
_cell_length_c                   17.1457(2)
_cell_angle_alpha                90
_cell_angle_beta                 92.7294(12)
_cell_angle_gamma                90
_cell_volume                     1697.47
_exptl_crystal_colour            red
_exptl_crystal_description       needle
_chemical_melting_point          '512.8 K'
_cell_formula_units_Z            4
_chemical_properties_physical    ', Light-sensitive,Photo-sensitive'
_exptl_crystal_recrystallization_method dichloromethane
loop_
_atom_site_label
_atom_site_type_symbol
_atom_site_fract_x
_atom_site_fract_y
_atom_site_fract_z
F1 F 0.52608(9) 0.8465(2) 0.25617(8)
F2 F 0.51709(9) 0.5111(2) 0.26157(8)
N1 N 0.51837(12) 0.7045(3) 0.38652(10)
N2 N 0.59522(13) 0.7365(3) 0.42292(11)
N3 N 0.38590(12) 0.6940(3) 0.29993(10)
N4 N 0.45436(14) 0.7778(3) 0.57304(11)
C1 C 0.44006(14) 0.7108(3) 0.42618(12)
C2 C 0.36119(14) 0.6982(3) 0.37422(12)
C3 C 0.26669(14) 0.6894(3) 0.39285(12)
C4 C 0.23998(15) 0.6768(3) 0.47001(13)
H1 H 0.2851 0.6740 0.5117
C5 C 0.14870(16) 0.6685(4) 0.48603(14)
H2 H 0.1309 0.6587 0.5385
C6 C 0.08250(16) 0.6747(4) 0.42451(15)
H3 H 0.0196 0.6726 0.4354
C7 C 0.10783(15) 0.6837(3) 0.34876(14)
H4 H 0.0619 0.6865 0.3078
C8 C 0.19980(15) 0.6889(3) 0.33018(13)
C9 C 0.22835(14) 0.6906(3) 0.25010(12)
C10 C 0.16687(15) 0.6920(3) 0.18396(13)
H5 H 0.1030 0.6939 0.1912
C11 C 0.19723(16) 0.6907(3) 0.11011(13)
H6 H 0.1545 0.6921 0.0667
C12 C 0.29107(16) 0.6874(3) 0.09777(13)
H7 H 0.3117 0.6856 0.0461
C13 C 0.35328(16) 0.6868(3) 0.16040(13)
H8 H 0.4169 0.6848 0.1521
C14 C 0.32230(14) 0.6892(3) 0.23649(12)
C15 C 0.67598(15) 0.7155(4) 0.38166(12)
C16 C 0.69801(15) 0.5465(4) 0.34045(13)
H9 H 0.6549 0.4424 0.3336
C17 C 0.78318(16) 0.5305(4) 0.30935(13)
H10 H 0.7989 0.4141 0.2820
C18 C 0.84548(16) 0.6840(4) 0.31803(14)
H11 H 0.9032 0.6741 0.2953
C19 C 0.82384(17) 0.8517(4) 0.35972(15)
H12 H 0.8669 0.9563 0.3659
C20 C 0.74006(16) 0.8671(4) 0.39220(13)
H13 H 0.7258 0.9808 0.4218
C21 C 0.44568(15) 0.7469(3) 0.50698(13)
B1 B 0.49172(17) 0.6867(4) 0.29293(14)
loop_
_geom_bond_atom_site_label_1
_geom_bond_atom_site_label_2
_geom_bond_site_symmetry_1
_geom_bond_site_symmetry_2
F1 B1 1_555 1_555
F2 B1 1_555 1_555
N1 N2 1_555 1_555
N2 C15 1_555 1_555
N3 C2 1_555 1_555
N4 C21 1_555 1_555
C1 N1 1_555 1_555
C2 C1 1_555 1_555
C3 C2 1_555 1_555
C4 C3 1_555 1_555
H1 C4 1_555 1_555
C5 C4 1_555 1_555
H2 C5 1_555 1_555
C6 C5 1_555 1_555
H3 C6 1_555 1_555
C7 C6 1_555 1_555
H4 C7 1_555 1_555
C8 C3 1_555 1_555
C9 C8 1_555 1_555
C10 C9 1_555 1_555
H5 C10 1_555 1_555
C11 C10 1_555 1_555
H6 C11 1_555 1_555
C12 C11 1_555 1_555
H7 C12 1_555 1_555
C13 C12 1_555 1_555
H8 C13 1_555 1_555
C14 N3 1_555 1_555
C15 C16 1_555 1_555
C16 H9 1_555 1_555
C17 C16 1_555 1_555
H10 C17 1_555 1_555
C18 C17 1_555 1_555
H11 C18 1_555 1_555
C19 C18 1_555 1_555
H12 C19 1_555 1_555
C20 C15 1_555 1_555
H13 C20 1_555 1_555
C21 C1 1_555 1_555
B1 N1 1_555 1_555
N3 B1 1_555 1_555
C7 C8 1_555 1_555
C9 C14 1_555 1_555
C13 C14 1_555 1_555
C19 C20 1_555 1_555

#END
