
#######################################################################
#
#                 Cambridge Crystallographic Data Centre
#                                CCDC 
#
#######################################################################
#
# If this CIF has been generated from an entry in the Cambridge 
# Structural Database, then it will include bibliographic, chemical, 
# crystal, experimental, refinement or atomic coordinate data resulting 
# from the CCDC's data processing and validation procedures.
#
#######################################################################

data_TAYTUI02
_chemical_formula_moiety         'C18 H16 N1 P1'
_chemical_name_systematic        Imino(triphenyl)phosphorane
_symmetry_cell_setting           monoclinic
_symmetry_space_group_name_H-M   'P 21/c'
_symmetry_Int_Tables_number      14
_space_group_name_Hall           '-P 2ybc'
loop_
_symmetry_equiv_pos_site_id
_symmetry_equiv_pos_as_xyz
1 x,y,z
2 -x,1/2+y,1/2-z
3 -x,-y,-z
4 x,1/2-y,1/2+z
_cell_length_a                   14.301(5)
_cell_length_b                   9.541(4)
_cell_length_c                   10.686(3)
_cell_angle_alpha                90
_cell_angle_beta                 90.72(3)
_cell_angle_gamma                90
_cell_volume                     1457.95
_exptl_crystal_colour            colorless
_exptl_crystal_description       'rectangular prism'
_cell_formula_units_Z            4
_chemical_properties_physical    'crystals are air-sensitive'
loop_
_atom_site_label
_atom_site_type_symbol
_atom_site_fract_x
_atom_site_fract_y
_atom_site_fract_z
P1 P 0.2710(1) 0.1249(2) 0.7500(2)
N1 N 0.2947(1) 0.0679(1) 0.6151(1)
C1 C 0.3648(1) 0.2186(2) 0.8260(1)
C2 C 0.3922(1) 0.3496(2) 0.7779(1)
C3 C 0.4717(1) 0.4153(2) 0.8232(2)
C4 C 0.5243(1) 0.3517(2) 0.9170(1)
C5 C 0.4961(1) 0.2235(2) 0.9666(1)
C6 C 0.4167(1) 0.1566(2) 0.9211(1)
C7 C 0.1704(1) 0.2417(2) 0.7582(1)
C8 C 0.1014(1) 0.2190(2) 0.6691(1)
C9 C 0.0205(1) 0.3000(2) 0.6689(2)
C10 C 0.0089(1) 0.4058(2) 0.7585(2)
C11 C 0.0779(1) 0.4302(2) 0.8462(1)
C12 C 0.1587(1) 0.3483(2) 0.8469(1)
C13 C 0.2432(1) -0.0216(2) 0.8506(1)
C14 C 0.1940(1) -0.0037(2) 0.9638(1)
C15 C 0.1784(1) -0.1181(2) 1.0426(1)
C16 C 0.2112(1) -0.2510(2) 1.0086(1)
C17 C 0.2597(1) -0.2693(2) 0.8958(1)
C18 C 0.2762(1) -0.1546(2) 0.8171(1)
H1 H 0.3308(3) 0.1341(4) 0.5616(4)
H2 H 0.3516(2) 0.3991(4) 0.7044(3)
H3 H 0.4935(2) 0.5165(4) 0.7861(3)
H4 H 0.5871(2) 0.4043(4) 0.9497(3)
H5 H 0.5361(2) 0.1757(4) 1.0410(3)
H6 H 0.3955(2) 0.0555(3) 0.9603(3)
H7 H 0.1125(2) 0.1380(4) 0.5986(3)
H8 H -0.0329(2) 0.2822(4) 0.5990(3)
H9 H -0.0542(2) 0.4686(4) 0.7572(4)
H10 H 0.0692(2) 0.5140(4) 0.9143(3)
H11 H 0.2121(2) 0.3689(3) 0.9171(3)
H12 H 0.1677(2) 0.0993(4) 0.9906(3)
H13 H 0.1398(3) -0.1029(4) 1.1306(3)
H14 H 0.2000(2) -0.3406(3) 1.0696(3)
H15 H 0.2853(2) -0.3724(2) 0.8700(3)
H16 H 0.3147(2) -0.1673(4) 0.7303(3)
loop_
_geom_bond_atom_site_label_1
_geom_bond_atom_site_label_2
_geom_bond_site_symmetry_1
_geom_bond_site_symmetry_2
P1 N1 1_555 1_555
N1 H1 1_555 1_555
C1 P1 1_555 1_555
C2 C1 1_555 1_555
C3 C2 1_555 1_555
C4 C3 1_555 1_555
C5 C4 1_555 1_555
C6 C1 1_555 1_555
C7 P1 1_555 1_555
C8 C7 1_555 1_555
C9 C8 1_555 1_555
C10 C9 1_555 1_555
C11 C10 1_555 1_555
C12 C7 1_555 1_555
C13 P1 1_555 1_555
C14 C13 1_555 1_555
C15 C14 1_555 1_555
C16 C15 1_555 1_555
C17 C16 1_555 1_555
C18 C13 1_555 1_555
H2 C2 1_555 1_555
H3 C3 1_555 1_555
H4 C4 1_555 1_555
H5 C5 1_555 1_555
H6 C6 1_555 1_555
H7 C8 1_555 1_555
H8 C9 1_555 1_555
H9 C10 1_555 1_555
H10 C11 1_555 1_555
H11 C12 1_555 1_555
H12 C14 1_555 1_555
H13 C15 1_555 1_555
H14 C16 1_555 1_555
H15 C17 1_555 1_555
H16 C18 1_555 1_555
C5 C6 1_555 1_555
C11 C12 1_555 1_555
C17 C18 1_555 1_555

#END
