
#######################################################################
#
#                 Cambridge Crystallographic Data Centre
#                                CCDC 
#
#######################################################################
#
# If this CIF has been generated from an entry in the Cambridge 
# Structural Database, then it will include bibliographic, chemical, 
# crystal, experimental, refinement or atomic coordinate data resulting 
# from the CCDC's data processing and validation procedures.
#
#######################################################################

data_TAYYIE
_chemical_formula_moiety         'C14 H18 N2 O2 2+,2(C7 H7 O3 S1 1-)'
_chemical_name_systematic        
"3,3'-dimethoxybiphenyl-4,4'-diaminium bis(4-methylbenzenesulfonate)"
_symmetry_cell_setting           monoclinic
_symmetry_space_group_name_H-M   'C 2/c'
_symmetry_Int_Tables_number      15
_space_group_name_Hall           '-C 2yn'
loop_
_symmetry_equiv_pos_site_id
_symmetry_equiv_pos_as_xyz
1 x,y,z
2 -x,y,1/2-z
3 1/2+x,1/2+y,z
4 1/2-x,1/2+y,1/2-z
5 -x,-y,-z
6 x,-y,1/2+z
7 1/2-x,1/2-y,-z
8 1/2+x,1/2-y,1/2+z
_cell_length_a                   21.814(5)
_cell_length_b                   5.665(5)
_cell_length_c                   23.078(5)
_cell_angle_alpha                90
_cell_angle_beta                 101.570(5)
_cell_angle_gamma                90
_cell_volume                     2793.94
_exptl_crystal_colour            yellow
_exptl_crystal_description       block
_cell_formula_units_Z            4
loop_
_atom_site_label
_atom_site_type_symbol
_atom_site_fract_x
_atom_site_fract_y
_atom_site_fract_z
C1 C 0.09159(19) 0.2553(9) 0.28953(18)
H1 H 0.0722 0.1032 0.2821
H2 H 0.0598 0.3746 0.2863
H3 H 0.1170 0.2580 0.3286
C2 C 0.13192(18) 0.3024(7) 0.24492(16)
C3 C 0.16523(18) 0.5107(7) 0.24588(16)
H4 H 0.1627 0.6231 0.2747
C4 C 0.20221(17) 0.5552(7) 0.20482(15)
H5 H 0.2242 0.6963 0.2061
C5 C 0.20634(17) 0.3878(7) 0.16162(15)
C6 C 0.17476(18) 0.1758(7) 0.16059(16)
H6 H 0.1783 0.0619 0.1324
C7 C 0.13770(18) 0.1343(7) 0.20197(16)
H7 H 0.1163 -0.0081 0.2011
O1 O 0.31578(12) 0.3558(5) 0.13249(11)
O2 O 0.25184(13) 0.6996(5) 0.10044(11)
O3 O 0.22336(12) 0.3179(5) 0.05539(10)
S1 S 0.25319(4) 0.44478(17) 0.10872(4)
C8 C 0.12018(17) 0.6547(7) -0.03991(15)
C9 C 0.13499(17) 0.8496(7) -0.00446(16)
H8 H 0.1767 0.8895 0.0093
C10 C 0.08844(17) 0.9865(7) 0.01089(16)
H9 H 0.0991 1.1180 0.0349
C11 C 0.02558(16) 0.9303(7) -0.00923(15)
C12 C 0.01108(17) 0.7355(7) -0.04674(15)
H10 H -0.0306 0.6983 -0.0619
C13 C 0.05824(17) 0.5968(6) -0.06168(15)
C14 C -0.01335(18) 0.3513(8) -0.12827(19)
H11 H -0.0130 0.2114 -0.1516
H12 H -0.0292 0.4812 -0.1536
H13 H -0.0396 0.3266 -0.1001
N1 N 0.17020(14) 0.5087(5) -0.05390(13)
H14 H 0.1537 0.3897 -0.0771
H15 H 0.1932 0.4516 -0.0206
H16 H 0.1942 0.5955 -0.0726
O4 O 0.04894(12) 0.4033(5) -0.09770(11)
C8D C -0.12018(17) 1.3453(7) 0.03991(15)
C9D C -0.13499(17) 1.1504(7) 0.00446(16)
H8D H -0.1767 1.1105 -0.0093
C10D C -0.08844(17) 1.0135(7) -0.01089(16)
H9D H -0.0991 0.8820 -0.0349
C11D C -0.02558(16) 1.0697(7) 0.00923(15)
C12D C -0.01108(17) 1.2645(7) 0.04674(15)
H10D H 0.0306 1.3017 0.0619
C13D C -0.05824(17) 1.4032(6) 0.06168(15)
C14D C 0.01335(18) 1.6487(8) 0.12827(19)
H11D H 0.0130 1.7886 0.1516
H12D H 0.0292 1.5188 0.1536
H13D H 0.0396 1.6734 0.1001
N1D N -0.17020(14) 1.4913(5) 0.05390(13)
H14D H -0.1537 1.6103 0.0771
H15D H -0.1932 1.5484 0.0206
H16D H -0.1942 1.4045 0.0726
O4D O -0.04894(12) 1.5967(5) 0.09770(11)
loop_
_geom_bond_atom_site_label_1
_geom_bond_atom_site_label_2
_geom_bond_site_symmetry_1
_geom_bond_site_symmetry_2
C1 H1 1_555 1_555
H2 C1 1_555 1_555
H3 C1 1_555 1_555
C2 C1 1_555 1_555
C3 C2 1_555 1_555
H4 C3 1_555 1_555
C4 C3 1_555 1_555
H5 C4 1_555 1_555
C5 C4 1_555 1_555
C6 C5 1_555 1_555
H6 C6 1_555 1_555
C7 C2 1_555 1_555
H7 C7 1_555 1_555
O1 S1 1_555 1_555
O2 S1 1_555 1_555
O3 S1 1_555 1_555
S1 C5 1_555 1_555
C8 C9 1_555 1_555
C9 H8 1_555 1_555
C10 C9 1_555 1_555
H9 C10 1_555 1_555
C11 C10 1_555 1_555
C12 C11 1_555 1_555
H10 C12 1_555 1_555
C13 C8 1_555 1_555
C14 H11 1_555 1_555
H12 C14 1_555 1_555
H13 C14 1_555 1_555
N1 C8 1_555 1_555
H14 N1 1_555 1_555
H15 N1 1_555 1_555
H16 N1 1_555 1_555
O4 C13 1_555 1_555
C8D C9D 1_555 1_555
C9D H8D 1_555 1_555
C10D C9D 1_555 1_555
H9D C10D 1_555 1_555
C11D C11 1_555 1_555
C12D C11D 1_555 1_555
H10D C12D 1_555 1_555
C13D C8D 1_555 1_555
C14D H11D 1_555 1_555
H12D C14D 1_555 1_555
H13D C14D 1_555 1_555
N1D C8D 1_555 1_555
H14D N1D 1_555 1_555
H15D N1D 1_555 1_555
H16D N1D 1_555 1_555
O4D C13D 1_555 1_555
C6 C7 1_555 1_555
C12 C13 1_555 1_555
C14 O4 1_555 1_555
C10D C11D 1_555 1_555
C12D C13D 1_555 1_555
C14D O4D 1_555 1_555

#END
