
#######################################################################
#
#                 Cambridge Crystallographic Data Centre
#                                CCDC 
#
#######################################################################
#
# If this CIF has been generated from an entry in the Cambridge 
# Structural Database, then it will include bibliographic, chemical, 
# crystal, experimental, refinement or atomic coordinate data resulting 
# from the CCDC's data processing and validation procedures.
#
#######################################################################

data_TAYZEA
_chemical_formula_moiety         'C25 H21 N1'
_chemical_name_systematic        
N-Methyl-2-(1-phenyl-3-vinyl-2-naphthyl)aniline
_symmetry_cell_setting           orthorhombic
_symmetry_space_group_name_H-M   'P b c a'
_symmetry_Int_Tables_number      61
_space_group_name_Hall           '-P 2ac 2ab'
loop_
_symmetry_equiv_pos_site_id
_symmetry_equiv_pos_as_xyz
1 x,y,z
2 1/2-x,-y,1/2+z
3 -x,1/2+y,1/2-z
4 1/2+x,1/2-y,-z
5 -x,-y,-z
6 1/2+x,y,1/2-z
7 x,1/2-y,1/2+z
8 1/2-x,1/2+y,z
_cell_length_a                   18.558(5)
_cell_length_b                   8.345(2)
_cell_length_c                   24.333(6)
_cell_angle_alpha                90
_cell_angle_beta                 90
_cell_angle_gamma                90
_cell_volume                     3768.37
_exptl_crystal_colour            'light yellow'
_exptl_crystal_description       block
_cell_formula_units_Z            8
loop_
_atom_site_label
_atom_site_type_symbol
_atom_site_fract_x
_atom_site_fract_y
_atom_site_fract_z
N1 N 0.96988(11) 0.5720(2) 0.23774(7)
H1 H 1.0078(12) 0.520(3) 0.2295(9)
C1 C 0.93265(10) 0.3780(2) 0.08447(8)
C2 C 0.88233(11) 0.3358(3) 0.12376(10)
H2 H 0.8960 0.3287 0.1604
C3 C 0.81221(13) 0.3043(3) 0.10914(11)
H3 H 0.7789 0.2756 0.1360
C4 C 0.79089(13) 0.3147(3) 0.05510(12)
H4 H 0.7435 0.2930 0.0452
C5 C 0.84022(13) 0.3573(3) 0.01620(10)
H5 H 0.8262 0.3656 -0.0204
C6 C 0.91008(12) 0.3879(3) 0.03044(9)
H6 H 0.9430 0.4159 0.0033
C7 C 1.06273(10) 0.2910(2) 0.08582(7)
C8 C 1.04626(11) 0.1471(3) 0.05821(8)
H7 H 0.9989 0.1266 0.0479
C9 C 1.09830(12) 0.0375(3) 0.04641(9)
H8 H 1.0861 -0.0568 0.0283
C10 C 1.16974(12) 0.0653(3) 0.06118(9)
H9 H 1.2051 -0.0094 0.0523
C11 C 1.18781(11) 0.2009(3) 0.08845(9)
H10 H 1.2356 0.2184 0.0983
C12 C 1.13499(10) 0.3162(2) 0.10210(8)
C13 C 1.15195(11) 0.4543(3) 0.13245(8)
H11 H 1.1995 0.4704 0.1432
C14 C 1.10157(11) 0.5658(3) 0.14679(8)
C15 C 1.02826(10) 0.5425(3) 0.12951(8)
C16 C 1.00927(10) 0.4075(2) 0.10007(7)
C17 C 1.12138(13) 0.7087(3) 0.17896(11)
H12 H 1.0914 0.7974 0.1752
C18 C 1.17596(15) 0.7249(4) 0.21195(12)
H13 H 1.2077 0.6400 0.2172
H14 H 1.1833 0.8213 0.2303
C19 C 0.97206(10) 0.6645(2) 0.14377(8)
C20 C 0.94501(12) 0.7659(3) 0.10385(9)
H15 H 0.9623 0.7573 0.0681
C21 C 0.89332(13) 0.8792(3) 0.11544(11)
H16 H 0.8756 0.9460 0.0880
C22 C 0.86846(12) 0.8914(3) 0.16855(11)
H17 H 0.8339 0.9682 0.1770
C23 C 0.89370(12) 0.7925(3) 0.20914(10)
H18 H 0.8759 0.8025 0.2447
C24 C 0.94590(11) 0.6765(3) 0.19762(9)
C25 C 0.95907(13) 0.6059(3) 0.29530(9)
H19 H 0.9738 0.7138 0.3030
H20 H 0.9872 0.5329 0.3170
H21 H 0.9090 0.5934 0.3042
loop_
_geom_bond_atom_site_label_1
_geom_bond_atom_site_label_2
_geom_bond_site_symmetry_1
_geom_bond_site_symmetry_2
N1 H1 1_555 1_555
C1 C2 1_555 1_555
C2 H2 1_555 1_555
C3 C2 1_555 1_555
H3 C3 1_555 1_555
C4 C3 1_555 1_555
H4 C4 1_555 1_555
C5 C4 1_555 1_555
H5 C5 1_555 1_555
C6 C1 1_555 1_555
H6 C6 1_555 1_555
C7 C8 1_555 1_555
C8 H7 1_555 1_555
C9 C8 1_555 1_555
H8 C9 1_555 1_555
C10 C9 1_555 1_555
H9 C10 1_555 1_555
C11 C10 1_555 1_555
H10 C11 1_555 1_555
C12 C7 1_555 1_555
C13 C12 1_555 1_555
H11 C13 1_555 1_555
C14 C13 1_555 1_555
C15 C14 1_555 1_555
C16 C1 1_555 1_555
C17 C14 1_555 1_555
H12 C17 1_555 1_555
C18 C17 1_555 1_555
H13 C18 1_555 1_555
H14 C18 1_555 1_555
C19 C15 1_555 1_555
C20 C19 1_555 1_555
H15 C20 1_555 1_555
C21 C20 1_555 1_555
H16 C21 1_555 1_555
C22 C21 1_555 1_555
H17 C22 1_555 1_555
C23 C22 1_555 1_555
H18 C23 1_555 1_555
C24 N1 1_555 1_555
C25 N1 1_555 1_555
H19 C25 1_555 1_555
H20 C25 1_555 1_555
H21 C25 1_555 1_555
C5 C6 1_555 1_555
C7 C16 1_555 1_555
C11 C12 1_555 1_555
C15 C16 1_555 1_555
C19 C24 1_555 1_555
C23 C24 1_555 1_555

#END
