
#######################################################################
#
#                 Cambridge Crystallographic Data Centre
#                                CCDC 
#
#######################################################################
#
# If this CIF has been generated from an entry in the Cambridge 
# Structural Database, then it will include bibliographic, chemical, 
# crystal, experimental, refinement or atomic coordinate data resulting 
# from the CCDC's data processing and validation procedures.
#
#######################################################################

data_TAZGOT
_chemical_formula_moiety         'C42 H32 N2 O2,0.5(C1 H2 Cl2)'
_chemical_name_systematic        
'7,16-dioxa-1,22-diazanonacyclo[20.14.6.2^2,5^.2^18,21^.0^9,14^.0^23,36^.0^24,29^.0^30,35^.0^37,42^]hexatetraconta-2,4,9,11,13,18,20,23,25,27,29,31,33,35,37,39,41,43,45-nonadecaene dichloromethane solvate'
_symmetry_cell_setting           monoclinic
_symmetry_space_group_name_H-M   'C 2/c'
_symmetry_Int_Tables_number      15
_space_group_name_Hall           '-C 2yn'
loop_
_symmetry_equiv_pos_site_id
_symmetry_equiv_pos_as_xyz
1 x,y,z
2 -x,y,1/2-z
3 1/2+x,1/2+y,z
4 1/2-x,1/2+y,1/2-z
5 -x,-y,-z
6 x,-y,1/2+z
7 1/2-x,1/2-y,-z
8 1/2+x,1/2-y,1/2+z
_cell_length_a                   32.3784(6)
_cell_length_b                   9.7018(2)
_cell_length_c                   20.6093(3)
_cell_angle_alpha                90
_cell_angle_beta                 93.1710(6)
_cell_angle_gamma                90
_cell_volume                     6464.06
_exptl_crystal_colour            colorless
_exptl_crystal_description       block
_cell_formula_units_Z            8
loop_
_atom_site_label
_atom_site_type_symbol
_atom_site_fract_x
_atom_site_fract_y
_atom_site_fract_z
O1 O 0.21313(4) 0.83649(15) 0.14736(7)
O2 O 0.30307(5) 0.82831(16) 0.31732(7)
N1 N 0.37331(5) 1.04385(17) 0.00257(8)
N2 N 0.41881(5) 1.11665(18) 0.11118(8)
C1 C 0.41036(6) 0.9662(2) 0.01952(10)
C2 C 0.42364(6) 0.8572(2) -0.02183(10)
C3 C 0.39948(7) 0.8135(2) -0.07695(11)
H1 H 0.3734 0.8555 -0.0870
C4 C 0.41316(9) 0.7106(3) -0.11636(13)
H2 H 0.3968 0.6827 -0.1537
C5 C 0.45132(9) 0.6473(3) -0.10114(13)
H3 H 0.4608 0.5762 -0.1283
C6 C 0.47512(7) 0.6872(2) -0.04716(12)
H4 H 0.5008 0.6426 -0.0374
C7 C 0.46233(6) 0.7928(2) -0.00592(11)
C8 C 0.48791(6) 0.8394(2) 0.05019(10)
C9 C 0.52728(7) 0.7843(3) 0.06764(12)
H5 H 0.5376 0.7100 0.0432
C10 C 0.55107(7) 0.8362(3) 0.11943(12)
H6 H 0.5775 0.7972 0.1301
C11 C 0.53700(7) 0.9448(3) 0.15634(13)
H7 H 0.5539 0.9810 0.1914
C12 C 0.49857(7) 0.9994(3) 0.14182(11)
H8 H 0.4886 1.0723 0.1675
C13 C 0.47367(6) 0.9481(2) 0.08897(10)
C14 C 0.43371(6) 1.0060(2) 0.07252(10)
C15 C 0.38013(6) 1.1889(2) 0.01359(10)
C16 C 0.36713(6) 1.2890(2) -0.03134(11)
H9 H 0.3510 1.2643 -0.0695
C17 C 0.37807(7) 1.4256(2) -0.01973(12)
H10 H 0.3692 1.4947 -0.0501
C18 C 0.40167(7) 1.4620(2) 0.03554(12)
H11 H 0.4091 1.5557 0.0427
C19 C 0.41462(7) 1.3626(2) 0.08054(11)
H12 H 0.4309 1.3877 0.1185
C20 C 0.40350(6) 1.2261(2) 0.06944(10)
C21 C 0.33460(6) 0.9892(2) 0.02082(9)
C22 C 0.29803(6) 1.0616(2) 0.00664(11)
H13 H 0.2988 1.1468 -0.0160
C23 C 0.26062(6) 1.0101(2) 0.02535(11)
H14 H 0.2361 1.0613 0.0156
C24 C 0.25810(6) 0.8857(2) 0.05798(9)
C25 C 0.29470(6) 0.8138(2) 0.07123(10)
H15 H 0.2938 0.7282 0.0934
C26 C 0.33221(6) 0.8635(2) 0.05307(10)
H16 H 0.3567 0.8116 0.0626
C27 C 0.21765(6) 0.8289(2) 0.07871(10)
H17 H 0.1947 0.8806 0.0562
H18 H 0.2153 0.7314 0.0649
C28 C 0.21382(7) 0.9742(2) 0.17097(11)
H19 H 0.1925 1.0301 0.1467
H20 H 0.2412 1.0164 0.1651
C29 C 0.20523(7) 0.9701(2) 0.24205(10)
C30 C 0.16933(7) 1.0316(2) 0.26269(11)
H21 H 0.1507 1.0748 0.2318
C31 C 0.16039(7) 1.0305(2) 0.32757(12)
H22 H 0.1362 1.0746 0.3413
C32 C 0.18701(7) 0.9649(3) 0.37216(11)
H23 H 0.1808 0.9622 0.4167
C33 C 0.22265(7) 0.9031(3) 0.35234(11)
H24 H 0.2408 0.8585 0.3835
C34 C 0.23237(6) 0.9053(2) 0.28735(10)
C35 C 0.27103(6) 0.8333(2) 0.26687(10)
H25 H 0.2638 0.7380 0.2532
H26 H 0.2815 0.8819 0.2289
C36 C 0.32347(7) 0.9577(2) 0.32677(10)
H27 H 0.3420 0.9526 0.3666
H28 H 0.3025 1.0297 0.3337
C37 C 0.34857(6) 0.9994(2) 0.27031(9)
C38 C 0.34749(7) 1.1325(2) 0.24669(11)
H29 H 0.3304 1.1987 0.2661
C39 C 0.37082(8) 1.1721(2) 0.19516(11)
H30 H 0.3699 1.2649 0.1805
C40 C 0.39539(6) 1.0777(2) 0.16510(9)
C41 C 0.39711(6) 0.9428(2) 0.18911(10)
H31 H 0.4142 0.8766 0.1698
C42 C 0.37404(6) 0.9056(2) 0.24074(10)
H32 H 0.3756 0.8136 0.2565
C43 C 0.5000 0.3345(7) -0.2500
H33 H 0.5040 0.2739 -0.2878
Cl1 Cl 0.45492(5) 0.42643(17) -0.26563(7)
H33A H 0.4960 0.2739 -0.2122
Cl1A Cl 0.54508(5) 0.42643(17) -0.23437(7)
H34? H 0.5040 0.2739 -0.2878
loop_
_geom_bond_atom_site_label_1
_geom_bond_atom_site_label_2
_geom_bond_site_symmetry_1
_geom_bond_site_symmetry_2
O1 C27 1_555 1_555
O2 C35 1_555 1_555
N1 C1 1_555 1_555
N2 C14 1_555 1_555
C1 C2 1_555 1_555
C2 C3 1_555 1_555
C3 H1 1_555 1_555
C4 C3 1_555 1_555
H2 C4 1_555 1_555
C5 C4 1_555 1_555
H3 C5 1_555 1_555
C6 C5 1_555 1_555
H4 C6 1_555 1_555
C7 C2 1_555 1_555
C8 C7 1_555 1_555
C9 C8 1_555 1_555
H5 C9 1_555 1_555
C10 C9 1_555 1_555
H6 C10 1_555 1_555
C11 C10 1_555 1_555
H7 C11 1_555 1_555
C12 C11 1_555 1_555
H8 C12 1_555 1_555
C13 C8 1_555 1_555
C14 C1 1_555 1_555
C15 N1 1_555 1_555
C16 C15 1_555 1_555
H9 C16 1_555 1_555
C17 C16 1_555 1_555
H10 C17 1_555 1_555
C18 C17 1_555 1_555
H11 C18 1_555 1_555
C19 C18 1_555 1_555
H12 C19 1_555 1_555
C20 N2 1_555 1_555
C21 N1 1_555 1_555
C22 C21 1_555 1_555
H13 C22 1_555 1_555
C23 C22 1_555 1_555
H14 C23 1_555 1_555
C24 C23 1_555 1_555
C25 C24 1_555 1_555
H15 C25 1_555 1_555
C26 C21 1_555 1_555
H16 C26 1_555 1_555
C27 C24 1_555 1_555
H17 C27 1_555 1_555
H18 C27 1_555 1_555
C28 O1 1_555 1_555
H19 C28 1_555 1_555
H20 C28 1_555 1_555
C29 C28 1_555 1_555
C30 C29 1_555 1_555
H21 C30 1_555 1_555
C31 C30 1_555 1_555
H22 C31 1_555 1_555
C32 C31 1_555 1_555
H23 C32 1_555 1_555
C33 C32 1_555 1_555
H24 C33 1_555 1_555
C34 C29 1_555 1_555
C35 C34 1_555 1_555
H25 C35 1_555 1_555
H26 C35 1_555 1_555
C36 O2 1_555 1_555
H27 C36 1_555 1_555
H28 C36 1_555 1_555
C37 C36 1_555 1_555
C38 C37 1_555 1_555
H29 C38 1_555 1_555
C39 C38 1_555 1_555
H30 C39 1_555 1_555
C40 N2 1_555 1_555
C41 C40 1_555 1_555
H31 C41 1_555 1_555
C42 C37 1_555 1_555
H32 C42 1_555 1_555
C43 H33 1_555 1_555
Cl1 C43 1_555 1_555
H33A C43 1_555 1_555
Cl1A C43 1_555 1_555
C6 C7 1_555 1_555
C12 C13 1_555 1_555
C13 C14 1_555 1_555
C15 C20 1_555 1_555
C19 C20 1_555 1_555
C25 C26 1_555 1_555
C33 C34 1_555 1_555
C39 C40 1_555 1_555
C41 C42 1_555 1_555

#END
