
#######################################################################
#
#                 Cambridge Crystallographic Data Centre
#                                CCDC 
#
#######################################################################
#
# If this CIF has been generated from an entry in the Cambridge 
# Structural Database, then it will include bibliographic, chemical, 
# crystal, experimental, refinement or atomic coordinate data resulting 
# from the CCDC's data processing and validation procedures.
#
#######################################################################

data_TAZHAG
_chemical_formula_moiety         'C56 H56 N2 O6,C1 H2 Cl2'
_chemical_name_systematic        
'7,16,23,32-tetraoxa-1,38-diazanonacyclo[36.14.6.2^2,5^.2^34,37^.0^17,22^.0^39,52^.0^40,45^.0^46,51^.0^53,58^]dohexaconta-2,4,17,19,21,34,36,39,41,43,45,47,49,51,53,55,57,59,61-nonadecaene-8,31-dione dichloromethane solvate'
_symmetry_cell_setting           triclinic
_symmetry_space_group_name_H-M   'P -1'
_symmetry_Int_Tables_number      2
_space_group_name_Hall           '-P 1'
loop_
_symmetry_equiv_pos_site_id
_symmetry_equiv_pos_as_xyz
1 x,y,z
2 -x,-y,-z
_cell_length_a                   9.4122(3)
_cell_length_b                   10.5185(3)
_cell_length_c                   24.5962(7)
_cell_angle_alpha                97.5528(9)
_cell_angle_beta                 90.6450(10)
_cell_angle_gamma                102.0971(10)
_cell_volume                     2358.46
_exptl_crystal_colour            colorless
_exptl_crystal_description       plate
_cell_formula_units_Z            2
loop_
_atom_site_label
_atom_site_type_symbol
_atom_site_fract_x
_atom_site_fract_y
_atom_site_fract_z
O1 O 0.97400(17) -0.09887(13) 0.60595(5)
O2 O 0.8125(5) -0.2817(2) 0.5739(2)
O3 O 0.39337(14) 0.07082(12) 0.29287(5)
O4 O 0.49883(15) 0.31267(12) 0.32839(5)
O5 O 0.80798(14) 0.51428(13) 0.70437(5)
O6 O 1.03049(15) 0.52543(14) 0.67114(5)
N1 N 1.14633(13) 0.02712(13) 0.86427(5)
N2 N 1.10755(13) 0.27629(13) 0.89556(5)
C1 C 1.27254(16) 0.12983(16) 0.87806(6)
C2 C 1.41133(17) 0.10371(17) 0.87965(6)
H1 H 1.4242 0.0163 0.8706
C3 C 1.53073(18) 0.20519(19) 0.89436(7)
H2 H 1.6256 0.1874 0.8944
C4 C 1.51274(18) 0.33251(18) 0.90896(7)
H3 H 1.5951 0.4019 0.9184
C5 C 1.37405(18) 0.35835(17) 0.90972(7)
H4 H 1.3611 0.4448 0.9214
C6 C 1.25394(16) 0.25769(16) 0.89344(6)
C7 C 1.02686(16) 0.04503(15) 0.89767(6)
C8 C 0.93657(16) -0.06739(15) 0.91728(6)
C9 C 0.95407(18) -0.19551(16) 0.89988(6)
H5 H 1.0266 -0.2093 0.8745
C10 C 0.8675(2) -0.30160(16) 0.91904(7)
H6 H 0.8796 -0.3879 0.9066
C11 C 0.76166(19) -0.28191(16) 0.95684(7)
H7 H 0.7022 -0.3551 0.9702
C12 C 0.74326(17) -0.15729(16) 0.97479(6)
H8 H 0.6712 -0.1455 1.0006
C13 C 0.82937(16) -0.04606(15) 0.95568(6)
C14 C 0.81434(16) 0.08734(15) 0.97501(6)
C15 C 0.71399(18) 0.11518(17) 1.01461(7)
H9 H 0.6506 0.0447 1.0283
C16 C 0.7059(2) 0.24222(19) 1.03391(7)
H10 H 0.6378 0.2585 1.0608
C17 C 0.79732(19) 0.34719(18) 1.01413(7)
H11 H 0.7915 0.4348 1.0276
C18 C 0.89575(17) 0.32391(16) 0.97525(6)
H12 H 0.9575 0.3957 0.9618
C19 C 0.90607(16) 0.19449(15) 0.95503(6)
C20 C 1.01006(15) 0.16882(15) 0.91468(6)
C21 C 1.11868(16) -0.02736(14) 0.80760(6)
C22 C 1.21981(18) -0.08660(17) 0.77909(7)
H13 H 1.3042 -0.0974 0.7980
C23 C 1.19830(19) -0.12997(17) 0.72339(7)
H14 H 1.2700 -0.1675 0.7043
C24 C 1.07433(19) -0.11972(16) 0.69511(6)
C25 C 0.9704(2) -0.06712(19) 0.72411(7)
H15 H 0.8827 -0.0626 0.7057
C26 C 0.99235(18) -0.02084(18) 0.77971(7)
H16 H 0.9200 0.0157 0.7988
C27 C 1.0561(2) -0.1715(2) 0.63480(7)
H17 H 1.1531 -0.1658 0.6189
H18 H 1.0058 -0.2651 0.6300
C28 C 0.8604(2) -0.16501(17) 0.57408(8)
C29 C 0.7990(2) -0.0770(2) 0.54168(9)
H19 H 0.8788 -0.0257 0.5226
H20 H 0.7585 -0.0142 0.5673
C30 C 0.6812(3) -0.1491(2) 0.49958(9)
H21 H 0.5906 -0.1783 0.5187
H22 H 0.7107 -0.2283 0.4810
C31 C 0.6504(2) -0.06647(19) 0.45668(8)
H23 H 0.7405 -0.0387 0.4370
H24 H 0.6230 0.0137 0.4753
C32 C 0.5298(2) -0.13780(19) 0.41495(8)
H25 H 0.5491 -0.2248 0.4007
H26 H 0.4363 -0.1525 0.4336
C33 C 0.5157(2) -0.06338(18) 0.36697(7)
H27 H 0.6063 -0.0555 0.3464
H28 H 0.5049 0.0264 0.3813
C34 C 0.3870(2) -0.12913(18) 0.32771(8)
H29 H 0.3900 -0.2228 0.3176
H30 H 0.2957 -0.1253 0.3468
C35 C 0.3854(2) -0.06627(17) 0.27604(7)
H31 H 0.4695 -0.0793 0.2538
H32 H 0.2950 -0.1056 0.2537
C36 C 0.41894(17) 0.15181(17) 0.25353(7)
C37 C 0.39154(19) 0.11207(19) 0.19771(7)
H33 H 0.3529 0.0223 0.1845
C38 C 0.4206(2) 0.2037(2) 0.16111(7)
H34 H 0.4013 0.1764 0.1229
C39 C 0.4767(2) 0.3327(2) 0.17999(8)
H35 H 0.4965 0.3947 0.1548
C40 C 0.5051(2) 0.3742(2) 0.23590(8)
H36 H 0.5445 0.4641 0.2486
C41 C 0.47601(18) 0.28429(18) 0.27309(7)
C42 C 0.5589(2) 0.44627(18) 0.35017(8)
H37 H 0.4939 0.5035 0.3406
H38 H 0.6550 0.4760 0.3347
C43 C 0.5744(2) 0.45314(19) 0.41185(8)
H39 H 0.4779 0.4197 0.4262
H40 H 0.6072 0.5461 0.4281
C44 C 0.6811(2) 0.37511(18) 0.43015(7)
H41 H 0.7687 0.3903 0.4080
H42 H 0.6358 0.2804 0.4232
C45 C 0.7264(2) 0.41284(19) 0.49079(7)
H43 H 0.7716 0.5077 0.4974
H44 H 0.6381 0.3987 0.5126
C46 C 0.8321(2) 0.3369(2) 0.51128(8)
H45 H 0.9027 0.3245 0.4825
H46 H 0.7775 0.2490 0.5172
C47 C 0.9160(2) 0.4046(2) 0.56469(8)
H47 H 0.9833 0.3503 0.5751
H48 H 0.9754 0.4903 0.5581
C48 C 0.8187(2) 0.4269(2) 0.61195(7)
H49 H 0.7517 0.4815 0.6016
H50 H 0.7590 0.3412 0.6183
C49 C 0.9000(2) 0.49273(17) 0.66458(7)
C50 C 0.8748(2) 0.58737(17) 0.75605(7)
H51 H 0.8010 0.6256 0.7770
H52 H 0.9532 0.6606 0.7482
C51 C 0.93729(18) 0.50305(16) 0.79067(6)
C52 C 0.85037(18) 0.39267(16) 0.80789(7)
H53 H 0.7503 0.3687 0.7967
C53 C 0.90689(17) 0.31689(16) 0.84116(6)
H54 H 0.8457 0.2408 0.8516
C54 C 1.05289(16) 0.35123(15) 0.85944(6)
C55 C 1.14033(17) 0.46183(16) 0.84184(7)
H55 H 1.2402 0.4870 0.8533
C56 C 1.08256(19) 0.53522(16) 0.80779(7)
H56 H 1.1442 0.6093 0.7959
C57 C 0.8471(3) 0.7184(3) 0.28430(10)
H57 H 0.8488 0.6240 0.2814
H58 H 0.9284 0.7609 0.2632
Cl1 Cl 0.68215(8) 0.73535(6) 0.25521(3)
Cl2 Cl 0.87271(12) 0.78732(8) 0.35247(3)
O7? O 0.856(2) -0.2731(10) 0.5535(8)
loop_
_geom_bond_atom_site_label_1
_geom_bond_atom_site_label_2
_geom_bond_site_symmetry_1
_geom_bond_site_symmetry_2
O1 C27 1_555 1_555
O2 C28 1_555 1_555
O3 C35 1_555 1_555
O4 C41 1_555 1_555
O5 C49 1_555 1_555
O6 C49 1_555 1_555
N1 C1 1_555 1_555
N2 C6 1_555 1_555
C1 C2 1_555 1_555
C2 H1 1_555 1_555
C3 C2 1_555 1_555
H2 C3 1_555 1_555
C4 C3 1_555 1_555
H3 C4 1_555 1_555
C5 C4 1_555 1_555
H4 C5 1_555 1_555
C6 C1 1_555 1_555
C7 N1 1_555 1_555
C8 C7 1_555 1_555
C9 C8 1_555 1_555
H5 C9 1_555 1_555
C10 C9 1_555 1_555
H6 C10 1_555 1_555
C11 C10 1_555 1_555
H7 C11 1_555 1_555
C12 C11 1_555 1_555
H8 C12 1_555 1_555
C13 C8 1_555 1_555
C14 C13 1_555 1_555
C15 C14 1_555 1_555
H9 C15 1_555 1_555
C16 C15 1_555 1_555
H10 C16 1_555 1_555
C17 C16 1_555 1_555
H11 C17 1_555 1_555
C18 C17 1_555 1_555
H12 C18 1_555 1_555
C19 C14 1_555 1_555
C20 N2 1_555 1_555
C21 N1 1_555 1_555
C22 C21 1_555 1_555
H13 C22 1_555 1_555
C23 C22 1_555 1_555
H14 C23 1_555 1_555
C24 C23 1_555 1_555
C25 C24 1_555 1_555
H15 C25 1_555 1_555
C26 C21 1_555 1_555
H16 C26 1_555 1_555
C27 C24 1_555 1_555
H17 C27 1_555 1_555
H18 C27 1_555 1_555
C28 O1 1_555 1_555
C29 C28 1_555 1_555
H19 C29 1_555 1_555
H20 C29 1_555 1_555
C30 C29 1_555 1_555
H21 C30 1_555 1_555
H22 C30 1_555 1_555
C31 C30 1_555 1_555
H23 C31 1_555 1_555
H24 C31 1_555 1_555
C32 C31 1_555 1_555
H25 C32 1_555 1_555
H26 C32 1_555 1_555
C33 C32 1_555 1_555
H27 C33 1_555 1_555
H28 C33 1_555 1_555
C34 C33 1_555 1_555
H29 C34 1_555 1_555
H30 C34 1_555 1_555
C35 C34 1_555 1_555
H31 C35 1_555 1_555
H32 C35 1_555 1_555
C36 O3 1_555 1_555
C37 C36 1_555 1_555
H33 C37 1_555 1_555
C38 C37 1_555 1_555
H34 C38 1_555 1_555
C39 C38 1_555 1_555
H35 C39 1_555 1_555
C40 C39 1_555 1_555
H36 C40 1_555 1_555
C41 C36 1_555 1_555
C42 O4 1_555 1_555
H37 C42 1_555 1_555
H38 C42 1_555 1_555
C43 C42 1_555 1_555
H39 C43 1_555 1_555
H40 C43 1_555 1_555
C44 C43 1_555 1_555
H41 C44 1_555 1_555
H42 C44 1_555 1_555
C45 C44 1_555 1_555
H43 C45 1_555 1_555
H44 C45 1_555 1_555
C46 C45 1_555 1_555
H45 C46 1_555 1_555
H46 C46 1_555 1_555
C47 C46 1_555 1_555
H47 C47 1_555 1_555
H48 C47 1_555 1_555
C48 C47 1_555 1_555
H49 C48 1_555 1_555
H50 C48 1_555 1_555
C49 C48 1_555 1_555
C50 O5 1_555 1_555
H51 C50 1_555 1_555
H52 C50 1_555 1_555
C51 C50 1_555 1_555
C52 C51 1_555 1_555
H53 C52 1_555 1_555
C53 C52 1_555 1_555
H54 C53 1_555 1_555
C54 N2 1_555 1_555
C55 C54 1_555 1_555
H55 C55 1_555 1_555
C56 C51 1_555 1_555
H56 C56 1_555 1_555
C57 H57 1_555 1_555
H58 C57 1_555 1_555
Cl1 C57 1_555 1_555
Cl2 C57 1_555 1_555
C5 C6 1_555 1_555
C7 C20 1_555 1_555
C12 C13 1_555 1_555
C18 C19 1_555 1_555
C19 C20 1_555 1_555
C25 C26 1_555 1_555
C40 C41 1_555 1_555
C53 C54 1_555 1_555
C55 C56 1_555 1_555

#END
