
#######################################################################
#
#                 Cambridge Crystallographic Data Centre
#                                CCDC 
#
#######################################################################
#
# If this CIF has been generated from an entry in the Cambridge 
# Structural Database, then it will include bibliographic, chemical, 
# crystal, experimental, refinement or atomic coordinate data resulting 
# from the CCDC's data processing and validation procedures.
#
#######################################################################

data_TEBGAJ
_chemical_formula_moiety         'C13 H14 N2 O1 S1'
_chemical_name_systematic        
1-acetyl-3-((E)-2-phenylethen-1-yl)imidazolidine-2-thione
_symmetry_cell_setting           monoclinic
_symmetry_space_group_name_H-M   'P 21/n'
_symmetry_Int_Tables_number      14
_space_group_name_Hall           '-P 2yn'
loop_
_symmetry_equiv_pos_site_id
_symmetry_equiv_pos_as_xyz
1 x,y,z
2 1/2-x,1/2+y,1/2-z
3 -x,-y,-z
4 1/2+x,1/2-y,1/2+z
_cell_length_a                   9.6656(1)
_cell_length_b                   11.5899(2)
_cell_length_c                   10.8533(2)
_cell_angle_alpha                90
_cell_angle_beta                 92.0332(7)
_cell_angle_gamma                90
_cell_volume                     1215.06
_exptl_crystal_colour            colorless
_exptl_crystal_description       prism
_chemical_melting_point          '442.3-442.7 K'
_cell_formula_units_Z            4
_exptl_crystal_recrystallization_method dichloromethane/hexane
loop_
_atom_site_label
_atom_site_type_symbol
_atom_site_fract_x
_atom_site_fract_y
_atom_site_fract_z
S1 S 0.81565(3) 0.31173(3) 0.92683(3)
O1 O 1.18773(9) 0.40995(9) 0.70198(9)
N1 N 1.04555(10) 0.28450(9) 0.78745(9)
N2 N 0.94624(9) 0.12376(8) 0.84811(9)
C1 C 0.93659(11) 0.24056(10) 0.85322(10)
C2 C 1.05992(12) 0.08274(11) 0.77472(11)
H1 H 1.0247 0.0437 0.6988
H2 H 1.1201 0.0286 0.8226
C3 C 1.13726(12) 0.19252(11) 0.74441(11)
H3 H 1.2286 0.1953 0.7885
H4 H 1.1508 0.1989 0.6547
C4 C 1.08364(12) 0.39738(11) 0.76046(11)
C5 C 0.99980(15) 0.49803(11) 0.80120(13)
H5 H 1.0379 0.5693 0.7676
H6 H 1.0030 0.5020 0.8915
H7 H 0.9036 0.4887 0.7712
C6 C 0.85220(12) 0.04757(10) 0.89873(10)
H8 H 0.7804 0.0781 0.9466
C7 C 0.85884(12) -0.06683(10) 0.88268(11)
H9 H 0.9324 -0.0957 0.8358
C8 C 0.76208(12) -0.15115(10) 0.93145(11)
C9 C 0.79278(13) -0.26878(11) 0.92076(12)
H10 H 0.8751 -0.2916 0.8821
C10 C 0.70512(15) -0.35254(12) 0.96562(13)
H11 H 0.7282 -0.4319 0.9583
C11 C 0.58406(14) -0.32048(11) 1.02098(13)
H12 H 0.5238 -0.3776 1.0517
C12 C 0.55137(13) -0.20436(11) 1.03137(12)
H13 H 0.4680 -0.1822 1.0686
C13 C 0.63935(12) -0.12065(11) 0.98788(11)
H14 H 0.6161 -0.0415 0.9964
loop_
_geom_bond_atom_site_label_1
_geom_bond_atom_site_label_2
_geom_bond_site_symmetry_1
_geom_bond_site_symmetry_2
S1 C1 1_555 1_555
O1 C4 1_555 1_555
N1 C1 1_555 1_555
N2 C1 1_555 1_555
C2 N2 1_555 1_555
H1 C2 1_555 1_555
H2 C2 1_555 1_555
C3 N1 1_555 1_555
H3 C3 1_555 1_555
H4 C3 1_555 1_555
C4 N1 1_555 1_555
C5 C4 1_555 1_555
H5 C5 1_555 1_555
H6 C5 1_555 1_555
H7 C5 1_555 1_555
C6 N2 1_555 1_555
H8 C6 1_555 1_555
C7 C6 1_555 1_555
H9 C7 1_555 1_555
C8 C7 1_555 1_555
C9 C8 1_555 1_555
H10 C9 1_555 1_555
C10 C9 1_555 1_555
H11 C10 1_555 1_555
C11 C10 1_555 1_555
H12 C11 1_555 1_555
C12 C11 1_555 1_555
H13 C12 1_555 1_555
C13 C8 1_555 1_555
H14 C13 1_555 1_555
C2 C3 1_555 1_555
C12 C13 1_555 1_555

#END
