
#######################################################################
#
#                 Cambridge Crystallographic Data Centre
#                                CCDC 
#
#######################################################################
#
# If this CIF has been generated from an entry in the Cambridge 
# Structural Database, then it will include bibliographic, chemical, 
# crystal, experimental, refinement or atomic coordinate data resulting 
# from the CCDC's data processing and validation procedures.
#
#######################################################################

data_TEBMAQ
_chemical_formula_moiety         
'C12 H24 O6,C7 H10 N1 O1 1+,H2 O4 P1 1-,2(H3 O4 P1)'
_chemical_name_systematic        
'4-methoxyanilinium 18-crown-6 dihydrogen phosphate bis(phosphoric acid)'
_symmetry_cell_setting           orthorhombic
_symmetry_space_group_name_H-M   'P b c a'
_symmetry_Int_Tables_number      61
_space_group_name_Hall           '-P 2ac 2ab'
loop_
_symmetry_equiv_pos_site_id
_symmetry_equiv_pos_as_xyz
1 x,y,z
2 1/2-x,-y,1/2+z
3 -x,1/2+y,1/2-z
4 1/2+x,1/2-y,-z
5 -x,-y,-z
6 1/2+x,y,1/2-z
7 x,1/2-y,1/2+z
8 1/2-x,1/2+y,z
_cell_length_a                   17.255(4)
_cell_length_b                   16.167(3)
_cell_length_c                   22.688(5)
_cell_angle_alpha                90
_cell_angle_beta                 90
_cell_angle_gamma                90
_cell_volume                     6329.08
_exptl_crystal_colour            colorless
_exptl_crystal_description       prism
_cell_formula_units_Z            8
loop_
_atom_site_label
_atom_site_type_symbol
_atom_site_fract_x
_atom_site_fract_y
_atom_site_fract_z
O1 O 0.66759(19) 0.16208(17) 0.71688(16)
O2 O 0.75311(15) 0.16121(16) 0.82090(10)
O3 O 0.86827(14) 0.27333(14) 0.83973(9)
O4 O 0.9340(2) 0.3569(2) 0.74530(13)
O5 O 0.87588(14) 0.3245(2) 0.63640(10)
O6 O 0.7599(2) 0.21794(17) 0.62082(12)
C1 C 0.6613(3) 0.1026(3) 0.7589(2)
H1 H 0.6965 0.0579 0.7491
H2 H 0.6091 0.0805 0.7577
C2 C 0.6772(2) 0.1290(3) 0.81717(19)
H3 H 0.6402 0.1712 0.8287
H4 H 0.6719 0.0827 0.8440
C3 C 0.7827(3) 0.1755(3) 0.87595(15)
H5 H 0.7805 0.1246 0.8986
H6 H 0.7506 0.2161 0.8958
C4 C 0.8599(2) 0.2041(2) 0.87467(15)
H7 H 0.8764 0.2171 0.9145
H8 H 0.8932 0.1605 0.8598
C5 C 0.9397(2) 0.3137(3) 0.84216(19)
H9 H 0.9489 0.3322 0.8822
H10 H 0.9803 0.2749 0.8319
C6 C 0.9433(3) 0.3812(3) 0.8044(2)
H11 H 0.9930 0.4086 0.8090
H12 H 0.9030 0.4205 0.8147
C7 C 0.9500(3) 0.3998(4) 0.7019(2)
H13 H 1.0036 0.4166 0.7066
H14 H 0.9190 0.4497 0.7051
C8 C 0.9425(3) 0.3732(4) 0.6464(2)
H15 H 0.9880 0.3411 0.6362
H16 H 0.9409 0.4208 0.6204
C9 C 0.8721(3) 0.2924(3) 0.58637(19)
H17 H 0.9113 0.2496 0.5832
H18 H 0.8834 0.3342 0.5569
C10 C 0.8001(2) 0.2583(3) 0.57474(13)
H19 H 0.8065 0.2188 0.5429
H20 H 0.7670 0.3022 0.5601
C11 C 0.6587(3) 0.1370(3) 0.65511(19)
H21 H 0.6796 0.0816 0.6508
H22 H 0.6037 0.1341 0.6463
C12 C 0.6936(3) 0.1874(3) 0.6136(2)
H23 H 0.6954 0.1562 0.5771
H24 H 0.6586 0.2334 0.6069
N1 N 0.77534(12) 0.29471(12) 0.73614(8)
H25 H 0.7875 0.2847 0.6987
H26 H 0.7505 0.2513 0.7511
H27 H 0.8184 0.3038 0.7567
O7 O 0.58401(12) 0.57016(13) 0.75208(9)
C13 C 0.5714(2) 0.6221(2) 0.70338(17)
H28 H 0.5368 0.6659 0.7144
H29 H 0.5490 0.5906 0.6718
H30 H 0.6199 0.6451 0.6907
C14 C 0.63198(14) 0.50383(15) 0.74549(11)
C15 C 0.65314(16) 0.46275(18) 0.79585(11)
H31 H 0.6357 0.4817 0.8322
C16 C 0.69949(15) 0.39449(17) 0.79330(10)
H32 H 0.7133 0.3667 0.8276
C17 C 0.72566(13) 0.36716(14) 0.73934(9)
C18 C 0.70524(15) 0.40700(15) 0.68934(10)
H33 H 0.7228 0.3876 0.6531
C19 C 0.65846(15) 0.47632(16) 0.69158(11)
H34 H 0.6450 0.5041 0.6572
P1 P 0.89128(3) 0.54846(3) 0.48434(2)
O8 O 0.95490(8) 0.58923(9) 0.51844(7)
O9 O 0.92576(9) 0.48800(10) 0.43845(7)
H35 H 0.9497(5) 0.4503(4) 0.4542(5)
O10 O 0.83972(7) 0.60733(9) 0.45122(7)
O11 O 0.84335(10) 0.49829(12) 0.52979(8)
H39 H 0.8025(3) 0.4820(7) 0.5157(5)
P2 P 0.56753(4) 0.29743(4) 0.47878(3)
O12 O 0.51792(11) 0.24242(11) 0.51833(9)
H36 H 0.5362(7) 0.1964(3) 0.5239(5)
O13 O 0.52319(9) 0.36981(10) 0.45684(9)
O14 O 0.59512(11) 0.24671(11) 0.42571(8)
H37 H 0.6181(5) 0.2044(4) 0.4351(4)
O15 O 0.63774(13) 0.32207(12) 0.51517(12)
H41 H 0.6642(4) 0.3586(5) 0.5001(5)
P3 P 0.65053(3) 0.53327(4) 0.48050(3)
O16 O 0.61096(11) 0.56380(15) 0.53830(10)
O17 O 0.70050(10) 0.46347(10) 0.49832(9)
O18 O 0.69415(10) 0.60411(12) 0.45285(12)
O19 O 0.58731(10) 0.51007(11) 0.43542(8)
H38 H 0.5688(4) 0.4643(4) 0.4417(5)
H40 H 0.7414(3) 0.6033(7) 0.4577(8)
H42 H 0.5864(5) 0.6067(4) 0.5316(4)
loop_
_geom_bond_atom_site_label_1
_geom_bond_atom_site_label_2
_geom_bond_site_symmetry_1
_geom_bond_site_symmetry_2
O1 C1 1_555 1_555
O2 C2 1_555 1_555
O3 C4 1_555 1_555
O4 C6 1_555 1_555
O5 C8 1_555 1_555
O6 C10 1_555 1_555
C1 H1 1_555 1_555
H2 C1 1_555 1_555
C2 C1 1_555 1_555
H3 C2 1_555 1_555
H4 C2 1_555 1_555
C3 O2 1_555 1_555
H5 C3 1_555 1_555
H6 C3 1_555 1_555
C4 C3 1_555 1_555
H7 C4 1_555 1_555
H8 C4 1_555 1_555
C5 O3 1_555 1_555
H9 C5 1_555 1_555
H10 C5 1_555 1_555
C6 C5 1_555 1_555
H11 C6 1_555 1_555
H12 C6 1_555 1_555
C7 O4 1_555 1_555
H13 C7 1_555 1_555
H14 C7 1_555 1_555
C8 C7 1_555 1_555
H15 C8 1_555 1_555
H16 C8 1_555 1_555
C9 O5 1_555 1_555
H17 C9 1_555 1_555
H18 C9 1_555 1_555
C10 C9 1_555 1_555
H19 C10 1_555 1_555
H20 C10 1_555 1_555
C11 O1 1_555 1_555
H21 C11 1_555 1_555
H22 C11 1_555 1_555
C12 O6 1_555 1_555
H23 C12 1_555 1_555
H24 C12 1_555 1_555
N1 H25 1_555 1_555
H26 N1 1_555 1_555
H27 N1 1_555 1_555
O7 C13 1_555 1_555
C13 H28 1_555 1_555
H29 C13 1_555 1_555
H30 C13 1_555 1_555
C14 O7 1_555 1_555
C15 C14 1_555 1_555
H31 C15 1_555 1_555
C16 C15 1_555 1_555
H32 C16 1_555 1_555
C17 N1 1_555 1_555
C18 C17 1_555 1_555
H33 C18 1_555 1_555
C19 C14 1_555 1_555
H34 C19 1_555 1_555
P1 O8 1_555 1_555
P2 O12 1_555 1_555
P3 O16 1_555 1_555
O9 P1 1_555 1_555
H35 O9 1_555 1_555
O10 P1 1_555 1_555
O11 P1 1_555 1_555
O12 H36 1_555 1_555
O13 P2 1_555 1_555
O14 P2 1_555 1_555
H37 O14 1_555 1_555
O15 P2 1_555 1_555
O16 H42 1_555 1_555
O17 P3 1_555 1_555
O18 P3 1_555 1_555
O19 P3 1_555 1_555
H38 O19 1_555 1_555
H39 O11 1_555 1_555
H40 O18 1_555 1_555
H41 O15 1_555 1_555
C11 C12 1_555 1_555
C16 C17 1_555 1_555
C18 C19 1_555 1_555

#END
