
#######################################################################
#
#                 Cambridge Crystallographic Data Centre
#                                CCDC 
#
#######################################################################
#
# If this CIF has been generated from an entry in the Cambridge 
# Structural Database, then it will include bibliographic, chemical, 
# crystal, experimental, refinement or atomic coordinate data resulting 
# from the CCDC's data processing and validation procedures.
#
#######################################################################

data_TEBPOI
_chemical_formula_moiety         'C11 H8 F1 N1 O2'
_chemical_name_systematic        'methyl 2-cyano-3-(4-fluorophenyl)acrylate'
_symmetry_cell_setting           triclinic
_symmetry_space_group_name_H-M   'P -1'
_symmetry_Int_Tables_number      2
_space_group_name_Hall           '-P 1'
loop_
_symmetry_equiv_pos_site_id
_symmetry_equiv_pos_as_xyz
1 x,y,z
2 -x,-y,-z
_cell_length_a                   3.921(4)
_cell_length_b                   11.096(12)
_cell_length_c                   11.951(13)
_cell_angle_alpha                111.044(16)
_cell_angle_beta                 92.091(19)
_cell_angle_gamma                99.095(17)
_cell_volume                     476.718
_cell_formula_units_Z            2
loop_
_atom_site_label
_atom_site_type_symbol
_atom_site_fract_x
_atom_site_fract_y
_atom_site_fract_z
O1 O 0.7821(4) 0.84689(12) 0.51824(12)
F1 F 0.1452(4) 0.09226(12) -0.09050(12)
O2 O 0.9764(5) 0.68387(14) 0.54952(13)
C1 C 0.6354(4) 0.64029(16) 0.36886(14)
N1 N 0.3394(6) 0.75555(18) 0.25437(17)
C2 C 0.5007(4) 0.40742(17) 0.21587(15)
C3 C 0.8158(5) 0.72373(18) 0.48853(16)
C4 C 0.6399(4) 0.51219(17) 0.32863(15)
C5 C 0.4708(5) 0.70443(17) 0.30433(16)
C6 C 0.3414(5) 0.42226(19) 0.11721(17)
C7 C 0.5376(5) 0.28233(18) 0.20660(17)
C8 C 0.2251(6) 0.3163(2) 0.01484(18)
C9 C 0.2652(6) 0.19635(19) 0.01041(17)
C10 C 0.4173(6) 0.1764(2) 0.10412(19)
C11 C 0.9600(8) 0.9379(2) 0.6313(2)
H1 H 0.324(5) 0.510(2) 0.1266(18)
H2 H 0.653(6) 0.275(2) 0.276(2)
H3 H 0.763(5) 0.4877(19) 0.3833(19)
H4 H 0.442(5) 0.093(2) 0.0999(19)
H5 H 0.126(6) 0.327(2) -0.048(2)
H6 H 0.886(8) 1.021(3) 0.650(3)
H7 H 1.208(11) 0.953(3) 0.617(3)
H8 H 0.924(9) 0.906(3) 0.695(4)
loop_
_geom_bond_atom_site_label_1
_geom_bond_atom_site_label_2
_geom_bond_site_symmetry_1
_geom_bond_site_symmetry_2
O1 C3 1_555 1_555
F1 C9 1_555 1_555
O2 C3 1_555 1_555
C1 C3 1_555 1_555
N1 C5 1_555 1_555
C2 C4 1_555 1_555
C4 C1 1_555 1_555
C5 C1 1_555 1_555
C6 C2 1_555 1_555
C7 C2 1_555 1_555
C8 C6 1_555 1_555
C9 C8 1_555 1_555
C10 C7 1_555 1_555
C11 O1 1_555 1_555
H1 C6 1_555 1_555
H2 C7 1_555 1_555
H3 C4 1_555 1_555
H4 C10 1_555 1_555
H5 C8 1_555 1_555
H6 C11 1_555 1_555
H7 C11 1_555 1_555
H8 C11 1_555 1_555
C9 C10 1_555 1_555

#END
