
#######################################################################
#
#                 Cambridge Crystallographic Data Centre
#                                CCDC 
#
#######################################################################
#
# If this CIF has been generated from an entry in the Cambridge 
# Structural Database, then it will include bibliographic, chemical, 
# crystal, experimental, refinement or atomic coordinate data resulting 
# from the CCDC's data processing and validation procedures.
#
#######################################################################

data_TECFOY
_chemical_formula_moiety         'C20 H31 Cl2 N2 O5 P1 S1 Si1'
_chemical_name_systematic        
'2-(3-(silatranyl)propylamino)-4-(2,4-dichlorophenyl)-5,5-dimethyl-1,3,2-dioxaphosphinane 2-sulfide'
_symmetry_cell_setting           orthorhombic
_symmetry_space_group_name_H-M   'P b c n'
_symmetry_Int_Tables_number      60
_space_group_name_Hall           '-P 2n 2ab'
loop_
_symmetry_equiv_pos_site_id
_symmetry_equiv_pos_as_xyz
1 x,y,z
2 1/2-x,1/2-y,1/2+z
3 -x,y,1/2-z
4 1/2+x,1/2-y,-z
5 -x,-y,-z
6 1/2+x,1/2+y,1/2-z
7 x,-y,1/2+z
8 1/2-x,1/2+y,z
_cell_length_a                   13.3238(7)
_cell_length_b                   18.9520(10)
_cell_length_c                   20.3489(11)
_cell_angle_alpha                90
_cell_angle_beta                 90
_cell_angle_gamma                90
_cell_volume                     5138.35
_exptl_crystal_colour            colorless
_exptl_crystal_description       needle
_chemical_melting_point          '457 K'
_cell_formula_units_Z            8
loop_
_atom_site_label
_atom_site_type_symbol
_atom_site_fract_x
_atom_site_fract_y
_atom_site_fract_z
Cl1 Cl 0.62484(6) 0.67093(4) 0.79456(4)
Cl2 Cl 0.85563(6) 0.90106(4) 0.81308(4)
S1 S 0.97610(5) 1.02928(4) 0.61492(3)
P1 P 0.84596(4) 1.00701(3) 0.57882(3)
Si1 Si 0.55908(5) 0.81655(3) 0.43820(3)
O1 O 0.79516(10) 0.93922(7) 0.61167(7)
O2 O 0.76293(13) 1.06525(8) 0.59061(9)
O3 O 0.51670(14) 0.85913(10) 0.50349(10)
O4 O 0.64193(11) 0.75233(8) 0.45040(9)
O5 O 0.48804(13) 0.81190(9) 0.37099(9)
N1 N 0.84393(16) 0.99417(11) 0.50107(10)
H1 H 0.9004 0.9968 0.4808
N2 N 0.45305(14) 0.73557(10) 0.47285(10)
C1 C 0.67041(17) 0.74843(12) 0.75979(12)
C2 C 0.73709(18) 0.78932(13) 0.79465(11)
H2 H 0.7602 0.7749 0.8356
C3 C 0.76899(17) 0.85217(13) 0.76748(11)
C4 C 0.73582(15) 0.87626(12) 0.70664(10)
C5 C 0.67206(16) 0.83144(12) 0.67193(11)
H3 H 0.6512 0.8445 0.6300
C6 C 0.63881(17) 0.76799(13) 0.69795(12)
H4 H 0.5958 0.7391 0.6740
C7 C 0.76505(16) 0.94753(11) 0.68027(10)
H5 H 0.8234 0.9642 0.7052
C8 C 0.68239(19) 1.00443(13) 0.68450(12)
C9 C 0.7274(2) 1.07299(13) 0.65748(14)
H6 H 0.6769 1.1098 0.6589
H7 H 0.7828 1.0875 0.6853
C10 C 0.6572(2) 1.01836(17) 0.75670(15)
H8 H 0.6088 1.0558 0.7596
H9 H 0.7171 1.0317 0.7798
H10 H 0.6299 0.9763 0.7760
C11 C 0.5879(2) 0.98561(15) 0.64595(15)
H11 H 0.5542 0.9470 0.6671
H12 H 0.6060 0.9723 0.6020
H13 H 0.5440 1.0257 0.6445
C12 C 0.7556(2) 0.97837(14) 0.46132(13)
H14 H 0.6982 1.0026 0.4800
H15 H 0.7660 0.9968 0.4174
C13 C 0.7325(2) 0.90385(15) 0.45659(18)
H16 H 0.7150 0.8865 0.5000
H17 H 0.7923 0.8789 0.4425
C14 C 0.64613(19) 0.88615(14) 0.40880(15)
H18 H 0.6748 0.8712 0.3673
H19 H 0.6079 0.9288 0.4006
C15 C 0.4279(3) 0.83947(19) 0.53624(18)
H20 H 0.3701 0.8585 0.5133
H21 H 0.4282 0.8582 0.5806
C16 C 0.4217(2) 0.76022(18) 0.53827(14)
H22 H 0.4660 0.7415 0.5719
H23 H 0.3537 0.7451 0.5477
C17 C 0.6188(2) 0.69043(14) 0.48632(16)
H24 H 0.6284 0.6989 0.5329
H25 H 0.6632 0.6524 0.4731
C18 C 0.5111(2) 0.67001(13) 0.47324(15)
H26 H 0.5054 0.6462 0.4312
H27 H 0.4868 0.6386 0.5073
C19 C 0.4203(2) 0.75477(13) 0.36041(14)
H28 H 0.4563 0.7143 0.3432
H29 H 0.3695 0.7684 0.3287
C20 C 0.37176(19) 0.73603(14) 0.42415(14)
H30 H 0.3211 0.7706 0.4358
H31 H 0.3403 0.6900 0.4214
loop_
_geom_bond_atom_site_label_1
_geom_bond_atom_site_label_2
_geom_bond_site_symmetry_1
_geom_bond_site_symmetry_2
Cl1 C1 1_555 1_555
Cl2 C3 1_555 1_555
S1 P1 1_555 1_555
P1 O1 1_555 1_555
Si1 O3 1_555 1_555
O1 C7 1_555 1_555
O2 P1 1_555 1_555
O3 C15 1_555 1_555
O4 Si1 1_555 1_555
O5 Si1 1_555 1_555
N1 P1 1_555 1_555
H1 N1 1_555 1_555
N2 Si1 1_555 1_555
C1 C2 1_555 1_555
C2 H2 1_555 1_555
C3 C2 1_555 1_555
C4 C3 1_555 1_555
C5 C4 1_555 1_555
H3 C5 1_555 1_555
C6 C1 1_555 1_555
H4 C6 1_555 1_555
C7 C4 1_555 1_555
H5 C7 1_555 1_555
C8 C7 1_555 1_555
C9 O2 1_555 1_555
H6 C9 1_555 1_555
H7 C9 1_555 1_555
C10 C8 1_555 1_555
H8 C10 1_555 1_555
H9 C10 1_555 1_555
H10 C10 1_555 1_555
C11 C8 1_555 1_555
H11 C11 1_555 1_555
H12 C11 1_555 1_555
H13 C11 1_555 1_555
C12 N1 1_555 1_555
H14 C12 1_555 1_555
H15 C12 1_555 1_555
C13 C12 1_555 1_555
H16 C13 1_555 1_555
H17 C13 1_555 1_555
C14 Si1 1_555 1_555
H18 C14 1_555 1_555
H19 C14 1_555 1_555
C15 H20 1_555 1_555
H21 C15 1_555 1_555
C16 N2 1_555 1_555
H22 C16 1_555 1_555
H23 C16 1_555 1_555
C17 O4 1_555 1_555
H24 C17 1_555 1_555
H25 C17 1_555 1_555
C18 N2 1_555 1_555
H26 C18 1_555 1_555
H27 C18 1_555 1_555
C19 O5 1_555 1_555
H28 C19 1_555 1_555
H29 C19 1_555 1_555
C20 N2 1_555 1_555
H30 C20 1_555 1_555
H31 C20 1_555 1_555
C5 C6 1_555 1_555
C8 C9 1_555 1_555
C13 C14 1_555 1_555
C15 C16 1_555 1_555
C17 C18 1_555 1_555
C19 C20 1_555 1_555

#END
