
#######################################################################
#
#                 Cambridge Crystallographic Data Centre
#                                CCDC 
#
#######################################################################
#
# If this CIF has been generated from an entry in the Cambridge 
# Structural Database, then it will include bibliographic, chemical, 
# crystal, experimental, refinement or atomic coordinate data resulting 
# from the CCDC's data processing and validation procedures.
#
#######################################################################

data_TECJUH
_chemical_formula_moiety         'C18 H20 N2 O5'
_chemical_name_systematic        N,N'-bis(4-Methoxyphenyl)-3-oxapentanediamide
_symmetry_cell_setting           triclinic
_symmetry_space_group_name_H-M   'P -1'
_symmetry_Int_Tables_number      2
_space_group_name_Hall           '-P 1'
loop_
_symmetry_equiv_pos_site_id
_symmetry_equiv_pos_as_xyz
1 x,y,z
2 -x,-y,-z
_cell_length_a                   8.1399(10)
_cell_length_b                   8.4654(11)
_cell_length_c                   13.3901(17)
_cell_angle_alpha                103.201(2)
_cell_angle_beta                 101.383(2)
_cell_angle_gamma                92.577(2)
_cell_volume                     876.7
_exptl_crystal_colour            'dark brown'
_exptl_crystal_description       plate
_cell_formula_units_Z            2
_exptl_crystal_recrystallization_method 'ethanol/ethyl acetate'
loop_
_atom_site_label
_atom_site_type_symbol
_atom_site_fract_x
_atom_site_fract_y
_atom_site_fract_z
O1 O -0.6360(2) 0.1370(2) 0.08171(13)
O2 O 0.12213(19) 0.34993(17) 0.35285(13)
O3 O 0.12707(17) 0.75264(16) 0.49969(11)
O4 O 0.22825(19) 1.16182(16) 0.63531(13)
O5 O -0.3430(2) 1.3551(2) 0.90252(13)
N1 N -0.0842(2) 0.52288(19) 0.35599(13)
H1 H -0.1037 0.6201 0.3844
N2 N 0.0279(2) 0.9742(2) 0.64732(14)
H2 H -0.0071 0.8723 0.6264
C1 C -0.8019(3) 0.1820(4) 0.0832(2)
H3 H -0.8810 0.1054 0.0293
H4 H -0.8101 0.2890 0.0709
H5 H -0.8266 0.1820 0.1504
C2 C -0.5060(3) 0.2332(3) 0.15378(16)
C3 C -0.3464(3) 0.1988(3) 0.14093(18)
H6 H -0.3333 0.1124 0.0869
C4 C -0.2064(3) 0.2904(3) 0.20690(17)
H7 H -0.0995 0.2662 0.1971
C5 C -0.2244(3) 0.4194(2) 0.28829(15)
C6 C -0.3837(3) 0.4515(3) 0.30119(16)
H8 H -0.3970 0.5370 0.3557
C7 C -0.5252(3) 0.3595(3) 0.23492(17)
H9 H -0.6321 0.3828 0.2451
C8 C 0.0740(2) 0.4855(2) 0.38015(15)
C9 C 0.2025(3) 0.6236(2) 0.44305(16)
H10 H 0.2850 0.5837 0.4919
H11 H 0.2607 0.6644 0.3961
C10 C 0.2453(3) 0.8876(2) 0.55327(17)
H12 H 0.2940 0.9294 0.5028
H13 H 0.3355 0.8527 0.6001
C11 C 0.1639(2) 1.0208(2) 0.61572(16)
C12 C -0.0657(3) 1.0743(2) 0.71168(16)
C13 C 0.0063(3) 1.2156(3) 0.78677(17)
H14 H 0.1198 1.2491 0.7957
C14 C -0.0906(3) 1.3057(3) 0.84783(18)
H15 H -0.0419 1.4006 0.8972
C15 C -0.2597(3) 1.2574(3) 0.83693(17)
C16 C -0.3308(3) 1.1174(3) 0.76306(18)
H16 H -0.4440 1.0833 0.7547
C17 C -0.2334(3) 1.0269(3) 0.70097(18)
H17 H -0.2826 0.9326 0.6512
C18 C -0.5179(3) 1.3073(4) 0.8914(2)
H18 H -0.5634 1.3842 0.9409
H19 H -0.5307 1.2010 0.9043
H20 H -0.5770 1.3048 0.8214
loop_
_geom_bond_atom_site_label_1
_geom_bond_atom_site_label_2
_geom_bond_site_symmetry_1
_geom_bond_site_symmetry_2
O1 C1 1_555 1_555
O2 C8 1_555 1_555
O3 C9 1_555 1_555
O4 C11 1_555 1_555
O5 C15 1_555 1_555
N1 H1 1_555 1_555
N2 H2 1_555 1_555
C1 H3 1_555 1_555
H4 C1 1_555 1_555
H5 C1 1_555 1_555
C2 O1 1_555 1_555
C3 C2 1_555 1_555
H6 C3 1_555 1_555
C4 C3 1_555 1_555
H7 C4 1_555 1_555
C5 N1 1_555 1_555
C6 C5 1_555 1_555
H8 C6 1_555 1_555
C7 C2 1_555 1_555
H9 C7 1_555 1_555
C8 N1 1_555 1_555
C9 C8 1_555 1_555
H10 C9 1_555 1_555
H11 C9 1_555 1_555
C10 O3 1_555 1_555
H12 C10 1_555 1_555
H13 C10 1_555 1_555
C11 N2 1_555 1_555
C12 N2 1_555 1_555
C13 C12 1_555 1_555
H14 C13 1_555 1_555
C14 C13 1_555 1_555
H15 C14 1_555 1_555
C15 C14 1_555 1_555
C16 C15 1_555 1_555
H16 C16 1_555 1_555
C17 C12 1_555 1_555
H17 C17 1_555 1_555
C18 O5 1_555 1_555
H18 C18 1_555 1_555
H19 C18 1_555 1_555
H20 C18 1_555 1_555
C4 C5 1_555 1_555
C6 C7 1_555 1_555
C10 C11 1_555 1_555
C16 C17 1_555 1_555

#END
