
#######################################################################
#
#                 Cambridge Crystallographic Data Centre
#                                CCDC 
#
#######################################################################
#
# If this CIF has been generated from an entry in the Cambridge 
# Structural Database, then it will include bibliographic, chemical, 
# crystal, experimental, refinement or atomic coordinate data resulting 
# from the CCDC's data processing and validation procedures.
#
#######################################################################

data_TECNOG
_chemical_formula_moiety         'C15 H22 N2 O4'
_chemical_name_systematic        
1-Hydroxy-3,13-diazatricyclo[11.3.1.0^3,8^]heptadecane-4,9,17-trione
_symmetry_cell_setting           orthorhombic
_symmetry_space_group_name_H-M   'P 21 21 21'
_symmetry_Int_Tables_number      19
_space_group_name_Hall           'P 2ac 2ab'
loop_
_symmetry_equiv_pos_site_id
_symmetry_equiv_pos_as_xyz
1 x,y,z
2 1/2-x,-y,1/2+z
3 -x,1/2+y,1/2-z
4 1/2+x,1/2-y,-z
_cell_length_a                   10.016(3)
_cell_length_b                   11.697(3)
_cell_length_c                   11.807(3)
_cell_angle_alpha                90
_cell_angle_beta                 90
_cell_angle_gamma                90
_cell_volume                     1383.27
_exptl_crystal_colour            colorless
_exptl_crystal_description       prism
_cell_formula_units_Z            4
loop_
_atom_site_label
_atom_site_type_symbol
_atom_site_fract_x
_atom_site_fract_y
_atom_site_fract_z
N1 N -0.1133(2) 1.02243(15) 0.40842(15)
N2 N 0.1509(2) 0.83556(15) 0.56812(16)
O1 O -0.05532(19) 1.19136(14) 0.32994(15)
O2 O -0.03524(18) 1.04206(14) 0.63438(14)
O3 O 0.00844(18) 0.74864(13) 0.44731(14)
O4 O 0.17967(18) 0.86839(15) 0.28496(14)
C1 C -0.1223(2) 1.1376(2) 0.4002(2)
C2 C -0.2215(3) 1.2010(2) 0.4736(2)
H1 H -0.2819 1.2440 0.4228
H2 H -0.1712 1.2580 0.5186
C3 C -0.3089(3) 1.1322(2) 0.5561(2)
H3 H -0.2692 1.1353 0.6328
H4 H -0.3989 1.1670 0.5599
C4 C -0.3213(3) 1.00759(19) 0.5187(2)
H5 H -0.3753 1.0031 0.4486
H6 H -0.3670 0.9627 0.5782
C5 C -0.1819(2) 0.9575(2) 0.49693(18)
H7 H -0.1918 0.8764 0.4712
C6 C -0.1012(2) 0.9591(2) 0.60813(19)
C7 C -0.1174(3) 0.8568(2) 0.6857(2)
H8 H -0.1522 0.7917 0.6411
H9 H -0.1843 0.8754 0.7446
C8 C 0.0134(3) 0.8204(2) 0.7439(2)
H10 H 0.0571 0.8887 0.7766
H11 H -0.0077 0.7675 0.8068
C9 C 0.1104(3) 0.7619(2) 0.6628(2)
H12 H 0.1909 0.7383 0.7055
H13 H 0.0679 0.6920 0.6323
C10 C -0.0266(2) 0.9597(2) 0.32979(19)
H14 H -0.0102 1.0089 0.2630
H15 H -0.0757 0.8913 0.3031
C11 C 0.1092(2) 0.92048(18) 0.37649(18)
C12 C 0.0866(2) 0.82740(18) 0.46819(19)
C13 C 0.2540(3) 0.9219(2) 0.5950(2)
H16 H 0.3278 0.8849 0.6370
H17 H 0.2149 0.9815 0.6444
C14 C 0.3087(3) 0.9770(2) 0.4888(2)
H18 H 0.3607 0.9204 0.4448
H19 H 0.3686 1.0411 0.5092
C15 C 0.1923(2) 1.02094(19) 0.4182(2)
H20 H 0.1361 1.0725 0.4646
H21 H 0.2266 1.0649 0.3527
H22 H 0.129(4) 0.816(3) 0.255(3)
loop_
_geom_bond_atom_site_label_1
_geom_bond_atom_site_label_2
_geom_bond_site_symmetry_1
_geom_bond_site_symmetry_2
N1 C1 1_555 1_555
N2 C9 1_555 1_555
O1 C1 1_555 1_555
O2 C6 1_555 1_555
O3 C12 1_555 1_555
O4 C11 1_555 1_555
C1 C2 1_555 1_555
C2 H1 1_555 1_555
H2 C2 1_555 1_555
C3 C2 1_555 1_555
H3 C3 1_555 1_555
H4 C3 1_555 1_555
C4 C3 1_555 1_555
H5 C4 1_555 1_555
H6 C4 1_555 1_555
C5 N1 1_555 1_555
H7 C5 1_555 1_555
C6 C5 1_555 1_555
C7 C6 1_555 1_555
H8 C7 1_555 1_555
H9 C7 1_555 1_555
C8 C7 1_555 1_555
H10 C8 1_555 1_555
H11 C8 1_555 1_555
C9 C8 1_555 1_555
H12 C9 1_555 1_555
H13 C9 1_555 1_555
C10 N1 1_555 1_555
H14 C10 1_555 1_555
H15 C10 1_555 1_555
C11 C10 1_555 1_555
C12 N2 1_555 1_555
C13 N2 1_555 1_555
H16 C13 1_555 1_555
H17 C13 1_555 1_555
C14 C13 1_555 1_555
H18 C14 1_555 1_555
H19 C14 1_555 1_555
C15 C11 1_555 1_555
H20 C15 1_555 1_555
H21 C15 1_555 1_555
H22 O4 1_555 1_555
C4 C5 1_555 1_555
C11 C12 1_555 1_555
C14 C15 1_555 1_555

#END
