
#######################################################################
#
#                 Cambridge Crystallographic Data Centre
#                                CCDC 
#
#######################################################################
#
# If this CIF has been generated from an entry in the Cambridge 
# Structural Database, then it will include bibliographic, chemical, 
# crystal, experimental, refinement or atomic coordinate data resulting 
# from the CCDC's data processing and validation procedures.
#
#######################################################################

data_TECPUP
_chemical_formula_moiety         'C31 H34 Br1 N1 O3'
_chemical_name_systematic        
6-bromo-4-(3,5-di-t-butyl-4-hydroxyphenyl)-2-methyl-N-phenyl-4H-1-benzopyran-3-carboxamide
_symmetry_cell_setting           monoclinic
_symmetry_space_group_name_H-M   'C 2'
_symmetry_Int_Tables_number      5
_space_group_name_Hall           'C 2y'
loop_
_symmetry_equiv_pos_site_id
_symmetry_equiv_pos_as_xyz
1 x,y,z
2 -x,y,-z
3 1/2+x,1/2+y,z
4 1/2-x,1/2+y,-z
_cell_length_a                   23.095(3)
_cell_length_b                   9.4325(9)
_cell_length_c                   14.3653(14)
_cell_angle_alpha                90
_cell_angle_beta                 114.589(3)
_cell_angle_gamma                90
_cell_volume                     2845.6
_exptl_crystal_colour            colorless
_exptl_crystal_description       block
_cell_formula_units_Z            4
loop_
_atom_site_label
_atom_site_type_symbol
_atom_site_fract_x
_atom_site_fract_y
_atom_site_fract_z
Br1 Br 0.60312(2) 0.71671(9) 0.97982(3)
O1 O 0.41795(11) 0.6630(3) 0.53787(19)
O2 O 0.24928(13) 0.8917(3) 0.5537(2)
O3 O 0.25862(16) 0.3230(4) 0.8656(2)
H1 H 0.2788 0.3212 0.9295
N1 N 0.21493(14) 0.6709(3) 0.4921(3)
H2 H 0.2281 0.5884 0.4798
C1 C 0.45754(16) 0.6780(4) 0.6405(3)
C2 C 0.52220(18) 0.6604(4) 0.6658(3)
H3 H 0.5365 0.6407 0.6140
C3 C 0.56523(19) 0.6717(5) 0.7665(3)
H4 H 0.6094 0.6579 0.7849
C4 C 0.54371(17) 0.7031(6) 0.8407(3)
C5 C 0.47987(17) 0.7215(6) 0.8155(3)
H5 H 0.4659 0.7432 0.8675
C6 C 0.43531(15) 0.7082(4) 0.7138(3)
C7 C 0.36506(15) 0.7250(5) 0.6869(2)
H6 H 0.3588 0.8211 0.7107
C8 C 0.32794(14) 0.7210(4) 0.5710(2)
C9 C 0.35325(15) 0.6917(4) 0.5063(3)
C10 C 0.32122(17) 0.6878(5) 0.3919(3)
H7 H 0.3444 0.7487 0.3638
H8 H 0.2773 0.7217 0.3687
H9 H 0.3210 0.5902 0.3682
C11 C 0.26015(18) 0.7693(4) 0.5366(3)
C12 C 0.14836(17) 0.6848(4) 0.4626(3)
C13 C 0.1181(2) 0.8122(5) 0.4593(4)
H10 H 0.1417 0.8980 0.4773
C14 C 0.0529(2) 0.8129(5) 0.4292(6)
H11 H 0.0322 0.8998 0.4293
C15 C 0.0173(2) 0.6910(6) 0.3991(6)
H12 H -0.0276 0.6942 0.3765
C16 C 0.0474(2) 0.5648(5) 0.4021(6)
H13 H 0.0233 0.4798 0.3823
C17 C 0.1128(2) 0.5608(5) 0.4340(5)
H14 H 0.1335 0.4729 0.4362
C18 C 0.33898(18) 0.6162(4) 0.7383(3)
C19 C 0.36506(19) 0.4825(4) 0.7640(3)
H15 H 0.4004 0.4580 0.7495
C20 C 0.3412(2) 0.3817(5) 0.8106(3)
C21 C 0.2865(2) 0.4205(5) 0.8246(3)
C22 C 0.2589(2) 0.5550(5) 0.8006(3)
C23 C 0.2873(2) 0.6518(4) 0.7586(3)
H16 H 0.2704 0.7451 0.7434
C24 C 0.3774(2) 0.2425(6) 0.8524(3)
C25 C 0.3369(3) 0.1077(5) 0.8096(5)
H17 H 0.2983 0.1126 0.8222
H18 H 0.3617 0.0239 0.8438
H19 H 0.3249 0.1011 0.7358
C26 C 0.4031(3) 0.2468(7) 0.9709(4)
H20 H 0.4337 0.3248 0.9976
H21 H 0.4244 0.1569 0.9995
H22 H 0.3677 0.2614 0.9905
C27 C 0.4351(2) 0.2265(7) 0.8258(4)
H23 H 0.4205 0.2262 0.7512
H24 H 0.4570 0.1372 0.8540
H25 H 0.4644 0.3059 0.8551
C28 C 0.2015(3) 0.5976(6) 0.8215(4)
C29 C 0.2175(4) 0.5784(8) 0.9373(5)
H26 H 0.2257 0.4780 0.9557
H27 H 0.1815 0.6110 0.9510
H28 H 0.2555 0.6341 0.9782
C30 C 0.1434(2) 0.5056(6) 0.7571(5)
H29 H 0.1331 0.5189 0.6842
H30 H 0.1069 0.5339 0.7708
H31 H 0.1533 0.4056 0.7752
C31 C 0.1823(3) 0.7519(6) 0.7919(6)
H32 H 0.2176 0.8144 0.8328
H33 H 0.1449 0.7747 0.8049
H34 H 0.1720 0.7654 0.7191
loop_
_geom_bond_atom_site_label_1
_geom_bond_atom_site_label_2
_geom_bond_site_symmetry_1
_geom_bond_site_symmetry_2
Br1 C4 1_555 1_555
O1 C1 1_555 1_555
O2 C11 1_555 1_555
O3 H1 1_555 1_555
N1 H2 1_555 1_555
C1 C2 1_555 1_555
C2 H3 1_555 1_555
C3 C2 1_555 1_555
H4 C3 1_555 1_555
C4 C3 1_555 1_555
C5 C4 1_555 1_555
H5 C5 1_555 1_555
C6 C1 1_555 1_555
C7 C6 1_555 1_555
H6 C7 1_555 1_555
C8 C7 1_555 1_555
C9 O1 1_555 1_555
C10 C9 1_555 1_555
H7 C10 1_555 1_555
H8 C10 1_555 1_555
H9 C10 1_555 1_555
C11 N1 1_555 1_555
C12 N1 1_555 1_555
C13 C12 1_555 1_555
H10 C13 1_555 1_555
C14 C13 1_555 1_555
H11 C14 1_555 1_555
C15 C14 1_555 1_555
H12 C15 1_555 1_555
C16 C15 1_555 1_555
H13 C16 1_555 1_555
C17 C12 1_555 1_555
H14 C17 1_555 1_555
C18 C7 1_555 1_555
C19 C18 1_555 1_555
H15 C19 1_555 1_555
C20 C19 1_555 1_555
C21 O3 1_555 1_555
C22 C21 1_555 1_555
C23 C18 1_555 1_555
H16 C23 1_555 1_555
C24 C20 1_555 1_555
C25 C24 1_555 1_555
H17 C25 1_555 1_555
H18 C25 1_555 1_555
H19 C25 1_555 1_555
C26 C24 1_555 1_555
H20 C26 1_555 1_555
H21 C26 1_555 1_555
H22 C26 1_555 1_555
C27 C24 1_555 1_555
H23 C27 1_555 1_555
H24 C27 1_555 1_555
H25 C27 1_555 1_555
C28 C22 1_555 1_555
C29 C28 1_555 1_555
H26 C29 1_555 1_555
H27 C29 1_555 1_555
H28 C29 1_555 1_555
C30 C28 1_555 1_555
H29 C30 1_555 1_555
H30 C30 1_555 1_555
H31 C30 1_555 1_555
C31 C28 1_555 1_555
H32 C31 1_555 1_555
H33 C31 1_555 1_555
H34 C31 1_555 1_555
C5 C6 1_555 1_555
C8 C9 1_555 1_555
C8 C11 1_555 1_555
C16 C17 1_555 1_555
C20 C21 1_555 1_555
C22 C23 1_555 1_555

#END
