
#######################################################################
#
#                 Cambridge Crystallographic Data Centre
#                                CCDC 
#
#######################################################################
#
# If this CIF has been generated from an entry in the Cambridge 
# Structural Database, then it will include bibliographic, chemical, 
# crystal, experimental, refinement or atomic coordinate data resulting 
# from the CCDC's data processing and validation procedures.
#
#######################################################################

data_TECVOM
_chemical_formula_moiety         'C22 H25 N1 O4'
_chemical_name_systematic        
'5-t-Butyl-13-nitro[2.2]metacyclophane-8-carboxylic acid methyl ester'
_symmetry_cell_setting           monoclinic
_symmetry_space_group_name_H-M   'P 21/n'
_symmetry_Int_Tables_number      14
_space_group_name_Hall           '-P 2yn'
loop_
_symmetry_equiv_pos_site_id
_symmetry_equiv_pos_as_xyz
1 x,y,z
2 1/2-x,1/2+y,1/2-z
3 -x,-y,-z
4 1/2+x,1/2-y,1/2+z
_cell_length_a                   6.896(2)
_cell_length_b                   14.908(4)
_cell_length_c                   18.873(4)
_cell_angle_alpha                90
_cell_angle_beta                 90.25(2)
_cell_angle_gamma                90
_cell_volume                     1940.23
_exptl_crystal_colour            colorless
_cell_formula_units_Z            4
loop_
_atom_site_label
_atom_site_type_symbol
_atom_site_fract_x
_atom_site_fract_y
_atom_site_fract_z
C1 C -0.20867(41) 0.18747(19) 0.27579(17)
H1 H -0.31294(41) 0.21018(19) 0.24709(17)
H2 H -0.24472(41) 0.19366(19) 0.32462(17)
C2 C -0.02242(40) 0.24414(19) 0.26197(16)
H3 H -0.04263(40) 0.30562(19) 0.27514(16)
H4 H 0.00758(40) 0.24227(19) 0.21237(16)
C3 C 0.14640(39) 0.20655(17) 0.30244(15)
C4 C 0.16468(44) 0.22583(19) 0.37396(16)
H5 H 0.09602(44) 0.27632(19) 0.39302(16)
C5 C 0.27964(45) 0.17489(20) 0.41935(15)
C6 C 0.35898(43) 0.09711(20) 0.39126(16)
H6 H 0.42807(43) 0.05777(20) 0.42275(16)
C7 C 0.34133(38) 0.07346(19) 0.32057(15)
C8 C 0.25419(36) 0.13497(17) 0.27458(13)
C9 C 0.37333(43) -0.02397(19) 0.30159(17)
H7 H 0.48443(43) -0.04644(19) 0.32676(17)
H8 H 0.39707(43) -0.02922(19) 0.25168(17)
C10 C 0.18971(46) -0.07858(19) 0.32072(18)
H9 H 0.16837(46) -0.07367(19) 0.37080(18)
H10 H 0.20816(46) -0.14080(19) 0.30952(18)
C11 C 0.01374(41) -0.04372(18) 0.28207(16)
C12 C -0.04937(44) -0.08060(19) 0.21912(17)
H11 H -0.00416(44) -0.13855(19) 0.20438(17)
C13 C -0.17708(42) -0.03287(21) 0.17776(16)
C14 C -0.23701(40) 0.05321(21) 0.19407(16)
H12 H -0.31799(40) 0.08624(21) 0.16183(16)
C15 C -0.17969(39) 0.09022(19) 0.25833(16)
C16 C -0.06749(39) 0.03749(18) 0.30342(15)
H13 H -0.04467(39) 0.05772(18) 0.35102(15)
C17 C 0.27145(40) 0.13059(20) 0.19559(15)
O1 O 0.32244(43) 0.19340(15) 0.16142(12)
O2 O 0.23487(34) 0.05244(15) 0.16675(11)
C18 C 0.24065(58) 0.04931(28) 0.08977(18)
H14 H 0.21075(58) -0.01036(28) 0.07402(18)
H15 H 0.14647(58) 0.09044(28) 0.07097(18)
H16 H 0.36741(58) 0.06584(28) 0.07349(18)
C19 C 0.30386(62) 0.19733(28) 0.49797(18)
C20 C 0.51494(78) 0.18198(33) 0.52115(23)
H17 H 0.53009(78) 0.19597(33) 0.57052(23)
H18 H 0.54876(78) 0.12033(33) 0.51324(23)
H19 H 0.59832(78) 0.21990(33) 0.49368(23)
C21 C 0.26165(94) 0.29361(35) 0.51354(23)
H20 H 0.27973(94) 0.30611(35) 0.56303(23)
H21 H 0.34859(94) 0.33000(35) 0.48626(23)
H22 H 0.13027(94) 0.30693(35) 0.50020(23)
C22 C 0.1748(11) 0.13704(51) 0.53951(24)
H23 H 0.1872(11) 0.14787(51) 0.58947(24)
H24 H 0.0411(11) 0.14250(51) 0.52571(24)
H25 H 0.2200(11) 0.07766(51) 0.52885(24)
N1 N -0.24143(48) -0.07175(24) 0.11099(17)
O3 O -0.33080(62) -0.02560(30) 0.06985(20)
O4 O -0.20243(55) -0.14826(21) 0.09782(16)
loop_
_geom_bond_atom_site_label_1
_geom_bond_atom_site_label_2
_geom_bond_site_symmetry_1
_geom_bond_site_symmetry_2
C1 H1 1_555 1_555
H2 C1 1_555 1_555
C2 C1 1_555 1_555
H3 C2 1_555 1_555
H4 C2 1_555 1_555
C3 C2 1_555 1_555
C4 C3 1_555 1_555
H5 C4 1_555 1_555
C5 C4 1_555 1_555
C6 C5 1_555 1_555
H6 C6 1_555 1_555
C7 C6 1_555 1_555
C8 C3 1_555 1_555
C9 C7 1_555 1_555
H7 C9 1_555 1_555
H8 C9 1_555 1_555
C10 C9 1_555 1_555
H9 C10 1_555 1_555
H10 C10 1_555 1_555
C11 C10 1_555 1_555
C12 C11 1_555 1_555
H11 C12 1_555 1_555
C13 C12 1_555 1_555
C14 C13 1_555 1_555
H12 C14 1_555 1_555
C15 C1 1_555 1_555
C16 C11 1_555 1_555
H13 C16 1_555 1_555
C17 C8 1_555 1_555
O1 C17 1_555 1_555
O2 C17 1_555 1_555
C18 O2 1_555 1_555
H14 C18 1_555 1_555
H15 C18 1_555 1_555
H16 C18 1_555 1_555
C19 C5 1_555 1_555
C20 C19 1_555 1_555
H17 C20 1_555 1_555
H18 C20 1_555 1_555
H19 C20 1_555 1_555
C21 C19 1_555 1_555
H20 C21 1_555 1_555
H21 C21 1_555 1_555
H22 C21 1_555 1_555
C22 C19 1_555 1_555
H23 C22 1_555 1_555
H24 C22 1_555 1_555
H25 C22 1_555 1_555
N1 C13 1_555 1_555
O3 N1 1_555 1_555
O4 N1 1_555 1_555
C7 C8 1_555 1_555
C14 C15 1_555 1_555
C15 C16 1_555 1_555

#END
