
#######################################################################
#
#                 Cambridge Crystallographic Data Centre
#                                CCDC 
#
#######################################################################
#
# If this CIF has been generated from an entry in the Cambridge 
# Structural Database, then it will include bibliographic, chemical, 
# crystal, experimental, refinement or atomic coordinate data resulting 
# from the CCDC's data processing and validation procedures.
#
#######################################################################

data_TECWED
_chemical_formula_moiety         'C17 H16 O2'
_chemical_name_systematic        '[2.2]Metacyclophane-8-carboxylic acid'
_symmetry_cell_setting           monoclinic
_symmetry_space_group_name_H-M   'P 21/c'
_symmetry_Int_Tables_number      14
_space_group_name_Hall           '-P 2ybc'
loop_
_symmetry_equiv_pos_site_id
_symmetry_equiv_pos_as_xyz
1 x,y,z
2 -x,1/2+y,1/2-z
3 -x,-y,-z
4 x,1/2-y,1/2+z
_cell_length_a                   13.144(4)
_cell_length_b                   13.767(5)
_cell_length_c                   7.243(2)
_cell_angle_alpha                90
_cell_angle_beta                 100.95(2)
_cell_angle_gamma                90
_cell_volume                     1286.78
_exptl_crystal_colour            colorless
_cell_formula_units_Z            4
loop_
_atom_site_label
_atom_site_type_symbol
_atom_site_fract_x
_atom_site_fract_y
_atom_site_fract_z
C1 C 0.34460(34) 0.34335(36) 0.26769(65)
H1 H 0.41515(34) 0.35104(36) 0.33141(65)
H2 H 0.33489(34) 0.27659(36) 0.23019(65)
C2 C 0.32618(31) 0.40861(36) 0.09003(58)
H3 H 0.25883(31) 0.39530(36) 0.01654(58)
H4 H 0.37694(31) 0.39484(36) 0.01424(58)
C3 C 0.33272(26) 0.51360(32) 0.14724(49)
C4 C 0.43031(30) 0.55653(41) 0.19259(59)
H5 H 0.48782(30) 0.52526(41) 0.15297(59)
C5 C 0.44559(33) 0.64047(39) 0.29225(64)
H6 H 0.51203(33) 0.67172(39) 0.31015(64)
C6 C 0.36626(35) 0.68148(33) 0.36703(60)
H7 H 0.37936(35) 0.73743(33) 0.44712(60)
C7 C 0.26633(29) 0.64210(28) 0.32578(50)
C8 C 0.24823(25) 0.56498(27) 0.19584(47)
C9 C 0.19202(34) 0.66398(32) 0.45568(59)
H8 H 0.12239(34) 0.65140(32) 0.39163(59)
H9 H 0.19713(34) 0.73130(32) 0.49074(59)
C10 C 0.21703(39) 0.59834(34) 0.63410(58)
H10 H 0.16972(39) 0.61214(34) 0.71666(58)
H11 H 0.28587(39) 0.61283(34) 0.69987(58)
C11 C 0.20954(30) 0.49321(31) 0.58318(50)
C12 C 0.11993(34) 0.43798(39) 0.58224(64)
H12 H 0.06576(34) 0.46321(39) 0.64071(64)
C13 C 0.10927(37) 0.34945(39) 0.49898(71)
H13 H 0.04936(37) 0.31104(39) 0.50736(71)
C14 C 0.18260(35) 0.31375(31) 0.40412(66)
H14 H 0.17197(35) 0.25258(31) 0.33971(66)
C15 C 0.27320(31) 0.36630(29) 0.40218(56)
C16 C 0.28772(28) 0.45119(30) 0.50527(51)
H15 H 0.35435(28) 0.48208(30) 0.52318(51)
C17 C 0.13997(26) 0.53537(29) 0.11457(48)
O1 O 0.07750(21) 0.60928(21) 0.07175(43)
H16 H 0.0093(44) 0.5876(40) 0.0129(75)
O2 O 0.11194(19) 0.45235(20) 0.08004(40)
loop_
_geom_bond_atom_site_label_1
_geom_bond_atom_site_label_2
_geom_bond_site_symmetry_1
_geom_bond_site_symmetry_2
C1 H1 1_555 1_555
H2 C1 1_555 1_555
C2 C1 1_555 1_555
H3 C2 1_555 1_555
H4 C2 1_555 1_555
C3 C2 1_555 1_555
C4 C3 1_555 1_555
H5 C4 1_555 1_555
C5 C4 1_555 1_555
H6 C5 1_555 1_555
C6 C5 1_555 1_555
H7 C6 1_555 1_555
C7 C6 1_555 1_555
C8 C3 1_555 1_555
C9 C7 1_555 1_555
H8 C9 1_555 1_555
H9 C9 1_555 1_555
C10 C9 1_555 1_555
H10 C10 1_555 1_555
H11 C10 1_555 1_555
C11 C10 1_555 1_555
C12 C11 1_555 1_555
H12 C12 1_555 1_555
C13 C12 1_555 1_555
H13 C13 1_555 1_555
C14 C13 1_555 1_555
H14 C14 1_555 1_555
C15 C1 1_555 1_555
C16 C11 1_555 1_555
H15 C16 1_555 1_555
C17 C8 1_555 1_555
O1 C17 1_555 1_555
H16 O1 1_555 1_555
O2 C17 1_555 1_555
C7 C8 1_555 1_555
C14 C15 1_555 1_555
C15 C16 1_555 1_555

#END
