
#######################################################################
#
#                 Cambridge Crystallographic Data Centre
#                                CCDC 
#
#######################################################################
#
# If this CIF has been generated from an entry in the Cambridge 
# Structural Database, then it will include bibliographic, chemical, 
# crystal, experimental, refinement or atomic coordinate data resulting 
# from the CCDC's data processing and validation procedures.
#
#######################################################################

data_TECWEF
_chemical_formula_moiety         'C33 H42 N3 3+,3(C1 F3 O3 S1 1-)'
_chemical_name_systematic        
"N,N',N''-((2,4,6-Triethylbenzene-1,3,5-triyl)tris(methylene))trianilinium tris(trifluoromethanesulfonate)"
_symmetry_cell_setting           monoclinic
_symmetry_space_group_name_H-M   'P 21/m'
_symmetry_Int_Tables_number      11
_space_group_name_Hall           '-P 2yb'
loop_
_symmetry_equiv_pos_site_id
_symmetry_equiv_pos_as_xyz
1 x,y,z
2 -x,1/2+y,-z
3 -x,-y,-z
4 x,1/2-y,z
_cell_length_a                   9.8069(12)
_cell_length_b                   20.416(2)
_cell_length_c                   10.8597(11)
_cell_angle_alpha                90
_cell_angle_beta                 100.450(5)
_cell_angle_gamma                90
_cell_volume                     2138.24
_exptl_crystal_colour            colorless
_exptl_crystal_description       block
_cell_formula_units_Z            2
loop_
_atom_site_label
_atom_site_type_symbol
_atom_site_fract_x
_atom_site_fract_y
_atom_site_fract_z
S1 S 0.08885(7) 0.7500 0.47744(5)
O4 O 0.01392(17) 0.80923(7) 0.43681(15)
O5 O 0.1559(2) 0.7500 0.60533(18)
C22 C 0.2287(3) 0.7500 0.3875(3)
F4 F 0.30985(16) 0.80211(6) 0.41270(16)
F5 F 0.1778(3) 0.7500 0.26519(19)
O4C O 0.01392(17) 0.69077(7) 0.43681(15)
F4C F 0.30985(16) 0.69789(6) 0.41270(16)
S2 S 0.26576(4) 0.56597(2) 0.12432(4)
O1 O 0.17315(15) 0.56086(8) 0.21259(14)
O2 O 0.29059(17) 0.63204(7) 0.08838(16)
O3 O 0.24150(17) 0.51962(8) 0.02472(14)
C21 C 0.4332(2) 0.54198(10) 0.2162(2)
F1 F 0.42815(14) 0.48206(6) 0.26213(15)
F2 F 0.53021(14) 0.54260(9) 0.14624(16)
F3 F 0.47245(18) 0.58217(8) 0.31073(16)
C1 C 0.9828(2) 0.7500 -0.0374(2)
C2 C 0.93518(17) 0.80989(8) 0.00314(15)
C3 C 0.8127(2) 0.7500 0.1446(2)
C4 C 0.85098(17) 0.80953(8) 0.09479(15)
C5 C 1.3425(3) 0.7500 -0.1212(2)
C6 C 0.86781(18) 0.95206(8) 0.32331(15)
C7 C 0.80499(18) 0.87350(8) 0.14471(15)
H1 H 0.7896 0.9066 0.0769
H2 H 0.7164 0.8669 0.1747
C8 C 0.96250(19) 0.87319(8) -0.06213(16)
H3 H 0.9565 0.9108 -0.0059
H4 H 1.0570 0.8723 -0.0821
C9 C 1.0881(3) 0.7500 -0.1230(2)
H5 H 1.0752 0.7107 -0.1773
C10 C 0.7226(3) 0.7500 0.2450(2)
H6 H 0.7446 0.7108 0.2986
C11 C 1.3894(2) 0.80918(10) -0.15938(19)
H7 H 1.3568 0.8494 -0.1315
C12 C 0.8558(2) 0.88119(10) -0.18267(19)
H8 H 0.7623 0.8819 -0.1626
H9 H 0.8730 0.9224 -0.2237
H10 H 0.8636 0.8444 -0.2390
C13 C 0.8685(2) 1.01503(9) 0.27781(18)
H11 H 0.8980 1.0236 0.2008
C14 C 0.8251(3) 1.06575(9) 0.3470(2)
H12 H 0.8263 1.1096 0.3179
C15 C 0.8241(2) 0.93778(9) 0.43355(17)
H13 H 0.8241 0.8940 0.4630
C16 C 0.5672(3) 0.7500 0.1890(3)
C17 C 0.7804(2) 1.05259(10) 0.4574(2)
H17 H 0.7499 1.0873 0.5039
C18 C 0.7797(3) 0.98908(11) 0.5009(2)
H18 H 0.7487 0.9803 0.5773
C19 C 1.4854(3) 0.80862(14) -0.2397(2)
H19 H 1.5189 0.8487 -0.2672
C20 C 1.5315(4) 0.7500 -0.2790(4)
H20 H 1.5963 0.7500 -0.3342
N1 N 1.2339(2) 0.7500 -0.04438(19)
H21 H 1.2444 0.7136 0.0064
N2 N 0.91533(15) 0.89796(7) 0.25198(13)
H22 H 0.9912 0.9118 0.2201
H23 H 0.9432 0.8637 0.3056
C2C C 0.93518(17) 0.69011(8) 0.00314(15)
C4C C 0.85098(17) 0.69047(8) 0.09479(15)
C6C C 0.86781(18) 0.54794(8) 0.32331(15)
C7C C 0.80499(18) 0.62650(8) 0.14471(15)
H1C H 0.7896 0.5934 0.0769
H2C H 0.7164 0.6331 0.1747
C8C C 0.96250(19) 0.62681(8) -0.06213(16)
H3C H 0.9565 0.5892 -0.0059
H4C H 1.0570 0.6277 -0.0821
H5C H 1.0752 0.7893 -0.1773
H6C H 0.7446 0.7892 0.2986
C11C C 1.3894(2) 0.69082(10) -0.15938(19)
H7C H 1.3568 0.6506 -0.1315
C12C C 0.8558(2) 0.61881(10) -0.18267(19)
H8C H 0.7623 0.6181 -0.1626
H9C H 0.8730 0.5776 -0.2237
H10C H 0.8636 0.6556 -0.2390
C13C C 0.8685(2) 0.48497(9) 0.27781(18)
H11C H 0.8980 0.4764 0.2008
C14C C 0.8251(3) 0.43425(9) 0.3470(2)
H12C H 0.8263 0.3904 0.3179
C15C C 0.8241(2) 0.56222(9) 0.43355(17)
H13C H 0.8241 0.6060 0.4630
C17C C 0.7804(2) 0.44741(10) 0.4574(2)
H17C H 0.7499 0.4127 0.5039
C18C C 0.7797(3) 0.51092(11) 0.5009(2)
H18C H 0.7487 0.5197 0.5773
C19C C 1.4854(3) 0.69138(14) -0.2397(2)
H19C H 1.5189 0.6513 -0.2672
H21C H 1.2444 0.7864 0.0064
N2C N 0.91533(15) 0.60204(7) 0.25198(13)
H22C H 0.9912 0.5882 0.2201
H23C H 0.9432 0.6363 0.3056
H14? H 0.5456 0.7123 0.1331
H15? H 0.5434 0.7905 0.1416
H16? H 0.5135 0.7528 0.2566
loop_
_geom_bond_atom_site_label_1
_geom_bond_atom_site_label_2
_geom_bond_site_symmetry_1
_geom_bond_site_symmetry_2
S1 O4 1_555 1_555
S2 O1 1_555 1_555
C1 C2 1_555 1_555
C2 C4 1_555 1_555
C3 C4 1_555 1_555
C4 C7 1_555 1_555
C5 C11 1_555 1_555
C6 C13 1_555 1_555
C7 H1 1_555 1_555
H2 C7 1_555 1_555
C8 C2 1_555 1_555
H3 C8 1_555 1_555
H4 C8 1_555 1_555
C9 C1 1_555 1_555
H5 C9 1_555 1_555
C10 C3 1_555 1_555
H6 C10 1_555 1_555
C11 H7 1_555 1_555
C12 C8 1_555 1_555
H8 C12 1_555 1_555
H9 C12 1_555 1_555
H10 C12 1_555 1_555
C13 H11 1_555 1_555
C14 C13 1_555 1_555
H12 C14 1_555 1_555
C15 C6 1_555 1_555
H13 C15 1_555 1_555
C16 C10 1_555 1_555
C17 C14 1_555 1_555
H17 C17 1_555 1_555
C18 C15 1_555 1_555
H18 C18 1_555 1_555
C19 C11 1_555 1_555
H19 C19 1_555 1_555
C20 C19 1_555 1_555
H20 C20 1_555 1_555
N1 C5 1_555 1_555
H21 N1 1_555 1_555
N2 C6 1_555 1_555
H22 N2 1_555 1_555
H23 N2 1_555 1_555
O2 S2 1_555 1_555
O3 S2 1_555 1_555
C21 S2 1_555 1_555
F1 C21 1_555 1_555
F2 C21 1_555 1_555
F3 C21 1_555 1_555
O5 S1 1_555 1_555
C22 S1 1_555 1_555
F4 C22 1_555 1_555
F5 C22 1_555 1_555
C2C C1 1_555 1_555
C4C C3 1_555 1_555
C6C C13C 1_555 1_555
C7C C4C 1_555 1_555
H1C C7C 1_555 1_555
H2C C7C 1_555 1_555
C8C C2C 1_555 1_555
H3C C8C 1_555 1_555
H4C C8C 1_555 1_555
H5C C9 1_555 1_555
H6C C10 1_555 1_555
C11C C5 1_555 1_555
H7C C11C 1_555 1_555
C12C C8C 1_555 1_555
H8C C12C 1_555 1_555
H9C C12C 1_555 1_555
H10C C12C 1_555 1_555
C13C H11C 1_555 1_555
C14C C13C 1_555 1_555
H12C C14C 1_555 1_555
C15C C6C 1_555 1_555
H13C C15C 1_555 1_555
C17C C14C 1_555 1_555
H17C C17C 1_555 1_555
C18C C15C 1_555 1_555
H18C C18C 1_555 1_555
C19C C20 1_555 1_555
H19C C19C 1_555 1_555
H21C N1 1_555 1_555
N2C C6C 1_555 1_555
H22C N2C 1_555 1_555
H23C N2C 1_555 1_555
O4C S1 1_555 1_555
F4C C22 1_555 1_555
C7 N2 1_555 1_555
C9 N1 1_555 1_555
C17 C18 1_555 1_555
C2C C4C 1_555 1_555
C7C N2C 1_555 1_555
C11C C19C 1_555 1_555
C17C C18C 1_555 1_555

#END
