
#######################################################################
#
#                 Cambridge Crystallographic Data Centre
#                                CCDC 
#
#######################################################################
#
# If this CIF has been generated from an entry in the Cambridge 
# Structural Database, then it will include bibliographic, chemical, 
# crystal, experimental, refinement or atomic coordinate data resulting 
# from the CCDC's data processing and validation procedures.
#
#######################################################################

data_TEDFAL
_chemical_formula_moiety         'C6 H2 N3 O8 1-,C3 H4 N5 1+,H2 O1'
_chemical_name_systematic        
'2-Azidoimidazolium 3-hydroxy-2,4,6-trinitrophenolate monohydrate'
_symmetry_cell_setting           triclinic
_symmetry_space_group_name_H-M   'P -1'
_symmetry_Int_Tables_number      2
_space_group_name_Hall           '-P 1'
loop_
_symmetry_equiv_pos_site_id
_symmetry_equiv_pos_as_xyz
1 x,y,z
2 -x,-y,-z
_cell_length_a                   6.4900(13)
_cell_length_b                   7.4286(15)
_cell_length_c                   15.401(3)
_cell_angle_alpha                101.57(3)
_cell_angle_beta                 98.56(3)
_cell_angle_gamma                99.89(3)
_cell_volume                     703.567
_cell_formula_units_Z            2
loop_
_atom_site_label
_atom_site_type_symbol
_atom_site_fract_x
_atom_site_fract_y
_atom_site_fract_z
O1 O 0.5950(2) 0.37618(19) 0.41191(9)
O2 O 0.6362(2) 0.1125(2) 0.44168(8)
O3 O 0.33255(18) -0.05081(17) 0.26596(8)
O4 O 0.2422(2) -0.2769(2) 0.09861(9)
O5 O 0.4468(2) -0.2246(2) 0.00579(9)
O6 O 1.1292(2) 0.1501(2) 0.09379(9)
O7 O 1.22888(19) 0.34836(19) 0.22288(9)
O8 O 0.98900(18) 0.36898(18) 0.34308(8)
H1 H 1.1004 0.3993 0.3256
N1 N 0.6296(2) 0.2185(2) 0.39060(10)
N2 N 0.4036(2) -0.1920(2) 0.08136(10)
N3 N 1.0950(2) 0.2203(2) 0.16756(10)
C1 C 0.6672(3) 0.1524(2) 0.29929(11)
C2 C 0.5008(3) 0.0086(2) 0.23989(11)
C3 C 0.5526(3) -0.0507(2) 0.15183(12)
C4 C 0.7443(3) 0.0195(2) 0.13120(12)
H2 H 0.7715 -0.0255 0.0741
C5 C 0.8979(3) 0.1554(2) 0.19322(12)
C6 C 0.8581(3) 0.2303(2) 0.27997(12)
N4 N 0.3401(2) 0.3979(2) 0.74150(10)
N5 N 0.0483(2) 0.2923(2) 0.78376(10)
N6 N 0.0567(2) 0.1654(2) 0.63148(10)
N7 N 0.1348(2) 0.2058(2) 0.56587(11)
N8 N 0.1838(3) 0.2192(2) 0.50064(11)
C7 C 0.1492(3) 0.2833(2) 0.71500(12)
C8 C 0.1789(3) 0.4196(3) 0.85787(12)
H3 H 0.1470 0.4534 0.9151
C9 C 0.3603(3) 0.4854(2) 0.83173(12)
H4 H 0.4772 0.5731 0.8674
H5 H 0.437(3) 0.407(3) 0.7070(12)
H6 H -0.083(2) 0.227(3) 0.7801(16)
O9 O 0.3684(2) 0.6757(2) 0.37007(9)
H7 H 0.352(4) 0.778(2) 0.3537(13)
H8 H 0.387(4) 0.688(3) 0.4275(7)
loop_
_geom_bond_atom_site_label_1
_geom_bond_atom_site_label_2
_geom_bond_site_symmetry_1
_geom_bond_site_symmetry_2
O1 N1 1_555 1_555
O2 N1 1_555 1_555
O3 C2 1_555 1_555
O4 N2 1_555 1_555
O5 N2 1_555 1_555
O6 N3 1_555 1_555
O7 N3 1_555 1_555
O8 H1 1_555 1_555
N1 C1 1_555 1_555
N2 C3 1_555 1_555
N3 C5 1_555 1_555
N4 C7 1_555 1_555
N5 C7 1_555 1_555
N6 N7 1_555 1_555
N7 N8 1_555 1_555
C1 C2 1_555 1_555
C2 C3 1_555 1_555
C3 C4 1_555 1_555
C4 H2 1_555 1_555
C5 C4 1_555 1_555
C6 O8 1_555 1_555
C7 N6 1_555 1_555
C8 N5 1_555 1_555
H3 C8 1_555 1_555
C9 N4 1_555 1_555
H4 C9 1_555 1_555
O9 H7 1_555 1_555
H5 N4 1_555 1_555
H6 N5 1_555 1_555
H8 O9 1_555 1_555
C1 C6 1_555 1_555
C5 C6 1_555 1_555
C8 C9 1_555 1_555

#END
