
#######################################################################
#
#                 Cambridge Crystallographic Data Centre
#                                CCDC 
#
#######################################################################
#
# If this CIF has been generated from an entry in the Cambridge 
# Structural Database, then it will include bibliographic, chemical, 
# crystal, experimental, refinement or atomic coordinate data resulting 
# from the CCDC's data processing and validation procedures.
#
#######################################################################

data_TEFHOE
_chemical_formula_moiety         'C10 H12 O2'
_chemical_name_systematic        
'5,5b-dimethyl-2b,5,5a,5b-tetrahydro-2-oxacyclopropa[cd]inden-1(2aH)-one unknown solvate'
_symmetry_cell_setting           hexagonal
_symmetry_space_group_name_H-M   'P 65'
_symmetry_Int_Tables_number      170
_space_group_name_Hall           'P 65'
loop_
_symmetry_equiv_pos_site_id
_symmetry_equiv_pos_as_xyz
1 x,y,z
2 x-y,x,5/6+z
3 -y,x-y,2/3+z
4 -x,-y,1/2+z
5 -x+y,-x,1/3+z
6 y,-x+y,1/6+z
_cell_length_a                   14.7787(4)
_cell_length_b                   14.7787(4)
_cell_length_c                   7.6213(2)
_cell_angle_alpha                90
_cell_angle_beta                 90
_cell_angle_gamma                120
_cell_volume                     1441.56
_exptl_crystal_colour            colorless
_exptl_crystal_description       plate
_cell_formula_units_Z            6
loop_
_atom_site_label
_atom_site_type_symbol
_atom_site_fract_x
_atom_site_fract_y
_atom_site_fract_z
O1 O 0.57125(15) 0.40973(15) 0.7219(3)
O2 O 0.46647(15) 0.4466(2) 0.5650(4)
C1 C 0.7524(2) 0.5009(2) 0.4734(4)
C2 C 0.7139(2) 0.5469(2) 0.3742(4)
C3 C 0.6769(2) 0.6174(2) 0.4463(4)
C4 C 0.64215(19) 0.5861(2) 0.6382(4)
C5 C 0.72221(19) 0.5794(2) 0.7531(4)
C6 C 0.6740(2) 0.4656(2) 0.7924(4)
C7 C 0.7649(2) 0.5167(2) 0.6646(4)
C8 C 0.7599(3) 0.7322(2) 0.4269(5)
C9 C 0.5493(2) 0.4768(2) 0.6365(4)
C10 C 0.7849(2) 0.6639(3) 0.8846(4)
H1 H 0.7719 0.4557 0.4212
H2 H 0.7110 0.5386 0.2531
H3 H 0.6166 0.6052 0.3788
H4 H 0.6213 0.6331 0.6883
H5 H 0.6850 0.4432 0.9065
H6 H 0.8311 0.5241 0.7121
H7 H 0.7320 0.7760 0.4673
H8 H 0.8198 0.7439 0.4970
H9 H 0.7802 0.7470 0.3054
H10 H 0.8278 0.6442 0.9540
H11 H 0.8309 0.7270 0.8223
H12 H 0.7402 0.6766 0.9615
loop_
_geom_bond_atom_site_label_1
_geom_bond_atom_site_label_2
_geom_bond_site_symmetry_1
_geom_bond_site_symmetry_2
O1 C6 1_555 1_555
O2 C9 1_555 1_555
C1 C2 1_555 1_555
C2 C3 1_555 1_555
C3 C4 1_555 1_555
C4 C5 1_555 1_555
C5 C6 1_555 1_555
C6 C7 1_555 1_555
C7 C1 1_555 1_555
C8 C3 1_555 1_555
C9 O1 1_555 1_555
C10 C5 1_555 1_555
H1 C1 1_555 1_555
H2 C2 1_555 1_555
H3 C3 1_555 1_555
H4 C4 1_555 1_555
H5 C6 1_555 1_555
H6 C7 1_555 1_555
H7 C8 1_555 1_555
H8 C8 1_555 1_555
H9 C8 1_555 1_555
H10 C10 1_555 1_555
H11 C10 1_555 1_555
H12 C10 1_555 1_555
C4 C9 1_555 1_555
C5 C7 1_555 1_555

#END
