
#######################################################################
#
#                 Cambridge Crystallographic Data Centre
#                                CCDC 
#
#######################################################################
#
# If this CIF has been generated from an entry in the Cambridge 
# Structural Database, then it will include bibliographic, chemical, 
# crystal, experimental, refinement or atomic coordinate data resulting 
# from the CCDC's data processing and validation procedures.
#
#######################################################################

data_TEFNEZ
_chemical_formula_moiety         'C16 H12 Br1 F3 O1'
_chemical_name_systematic        
'(R)-3-(4-Bromophenyl)-4,4,4-trifluoro-1-phenylbutan-1-one unknown solvate'
_symmetry_cell_setting           monoclinic
_symmetry_space_group_name_H-M   'C 2'
_symmetry_Int_Tables_number      5
_space_group_name_Hall           'C 2y'
loop_
_symmetry_equiv_pos_site_id
_symmetry_equiv_pos_as_xyz
1 x,y,z
2 -x,y,-z
3 1/2+x,1/2+y,z
4 1/2-x,1/2+y,-z
_cell_length_a                   36.0598(14)
_cell_length_b                   5.616(3)
_cell_length_c                   25.6612(15)
_cell_angle_alpha                90
_cell_angle_beta                 99.753(10)
_cell_angle_gamma                90
_cell_volume                     5121.59
_exptl_crystal_colour            colorless
_exptl_crystal_description       needle
_cell_formula_units_Z            12
loop_
_atom_site_label
_atom_site_type_symbol
_atom_site_fract_x
_atom_site_fract_y
_atom_site_fract_z
Br2 Br 0.68378(3) 0.3522(4) 0.27188(6)
O2 O 0.50845(17) 0.5230(14) 0.3073(3)
F4 F 0.56908(18) -0.0598(12) 0.4388(2)
F5 F 0.59129(16) 0.2630(13) 0.4735(2)
F6 F 0.53384(15) 0.1709(14) 0.4740(2)
C17 C 0.5891(2) 0.1272(19) 0.3279(3)
H13 H 0.5734 -0.0049 0.323
C18 C 0.6189(3) 0.143(2) 0.3014(3)
H14 H 0.623 0.0229 0.2781
C19 C 0.6427(3) 0.332(3) 0.3088(4)
C20 C 0.6370(2) 0.513(2) 0.3425(5)
H15 H 0.6529 0.6441 0.347
C21 C 0.6074(2) 0.4958(18) 0.3695(4)
H16 H 0.604 0.6138 0.3936
C22 C 0.5824(2) 0.3060(17) 0.3615(3)
C23 C 0.5496(2) 0.2947(17) 0.3930(3)
H17 H 0.5433 0.459 0.401
C24 C 0.5613(2) 0.172(2) 0.4440(3)
C25 C 0.5137(2) 0.181(2) 0.3620(3)
H18 H 0.5199 0.0245 0.3499
H19 H 0.4956 0.1602 0.3856
C26 C 0.4963(2) 0.3250(19) 0.3158(4)
C27 C 0.4621(2) 0.2323(17) 0.2815(4)
C28 C 0.4467(3) 0.368(3) 0.2386(5)
H20 H 0.458 0.5099 0.2308
C29 C 0.4132(5) 0.286(3) 0.2068(6)
H21 H 0.4021 0.369 0.1768
C30 C 0.3981(4) 0.081(4) 0.2220(7)
H22 H 0.3752 0.0315 0.2028
C31 C 0.4141(4) -0.055(2) 0.2629(6)
H23 H 0.4034 -0.1979 0.2709
C32 C 0.4460(3) 0.025(2) 0.2914(5)
H24 H 0.4578 -0.0674 0.3195
Br3 Br 0.68078(4) 0.6589(3) 0.88328(4)
O3 O 0.6406(2) 1.1163(13) 1.1146(3)
F7 F 0.76334(16) 0.6715(15) 1.1349(3)
F8 F 0.73871(17) 0.6685(14) 1.2046(2)
F9 F 0.72371(17) 0.4032(11) 1.1466(3)
C33 C 0.7097(3) 0.9232(19) 1.0350(4)
H25 H 0.723 1.0537 1.0508
C34 C 0.7055(3) 0.895(2) 0.9805(4)
H26 H 0.715 1.0075 0.9596
C35 C 0.6870(3) 0.696(2) 0.9585(3)
C36 C 0.6729(3) 0.529(2) 0.9887(4)
H27 H 0.6611 0.3937 0.9729
C37 C 0.6761(3) 0.562(2) 1.0425(4)
H28 H 0.6659 0.4502 1.0627
C38 C 0.6945(3) 0.7596(17) 1.0667(4)
C39 C 0.7002(3) 0.7872(16) 1.1254(4)
H29 H 0.7079 0.9526 1.1329
C40 C 0.7313(3) 0.636(2) 1.1520(4)
C41 C 0.6636(3) 0.7502(17) 1.1490(4)
H30 H 0.6521 0.6023 1.1351
H31 H 0.6707 0.7308 1.1869
C42 C 0.6348(3) 0.9410(19) 1.1391(4)
C43 C 0.5998(3) 0.9065(18) 1.1603(4)
C44 C 0.5721(3) 1.086(2) 1.1509(5)
H32 H 0.5755 1.2171 1.1301
C45 C 0.5400(4) 1.065(2) 1.1729(6)
H33 H 0.5219 1.1841 1.1671
C46 C 0.5343(3) 0.874(3) 1.2030(5)
H34 H 0.5122 0.8622 1.2169
C47 C 0.5610(3) 0.696(3) 1.2129(5)
H35 H 0.5576 0.567 1.2343
C48 C 0.5924(3) 0.714(2) 1.1905(4)
H36 H 0.6098 0.5911 1.1959
C49 C 0.5641(14) 0.757(11) 1.000(2)
C50 C 0.5502(19) 0.591(18) 0.939(3)
C51 C 0.5728(14) 0.827(13) 0.923(2)
C52 C 0.5765(16) 1.038(14) 0.968(3)
Br1 Br 0.53557(2) 0.6776(2) 0.55874(4)
O1 O 0.71311(18) 0.1748(14) 0.6067(3)
F1 F 0.73335(15) 0.6242(11) 0.7589(2)
F2 F 0.70066(17) 0.8950(12) 0.7151(2)
F3 F 0.67423(15) 0.6222(13) 0.75455(19)
C1 C 0.6494(2) 0.7437(13) 0.6143(3)
H1 H 0.6682 0.8546 0.6114
C2 C 0.6128(2) 0.7823(17) 0.5874(3)
H2 H 0.607 0.9175 0.5667
C3 C 0.5858(2) 0.6178(16) 0.5922(3)
C4 C 0.5940(2) 0.4137(19) 0.6207(4)
H3 H 0.5756 0.2988 0.6221
C5 C 0.6301(2) 0.3821(18) 0.6473(3)
H4 H 0.6356 0.2456 0.6676
C6 C 0.6582(2) 0.5422(16) 0.6451(3)
C7 C 0.6974(2) 0.5037(16) 0.6783(3)
H5 H 0.6985 0.3392 0.6912
C8 C 0.7012(2) 0.665(2) 0.7260(3)
C9 C 0.7301(2) 0.5377(16) 0.6486(3)
H6 H 0.7265 0.6862 0.6291
H7 H 0.7532 0.5514 0.6741
C10 C 0.7345(2) 0.3405(16) 0.6108(3)
C11 C 0.76677(18) 0.3443(14) 0.5818(3)
C12 C 0.7932(2) 0.5320(17) 0.5868(3)
H8 H 0.7903 0.6609 0.6085
C13 C 0.8227(2) 0.5267(19) 0.5603(4)
H9 H 0.8403 0.6492 0.565
C14 C 0.8268(2) 0.342(2) 0.5267(3)
H10 H 0.8471 0.3407 0.5088
C15 C 0.8012(2) 0.158(2) 0.5192(3)
H11 H 0.8039 0.0348 0.4959
C16 C 0.7713(2) 0.1596(19) 0.5470(3)
H12 H 0.754 0.0354 0.5424
loop_
_geom_bond_atom_site_label_1
_geom_bond_atom_site_label_2
_geom_bond_site_symmetry_1
_geom_bond_site_symmetry_2
Br1 C3 1_555 1_555
O1 C10 1_555 1_555
F1 C8 1_555 1_555
F2 C8 1_555 1_555
F3 C8 1_555 1_555
C1 H1 1_555 1_555
C2 C1 1_555 1_555
H2 C2 1_555 1_555
C3 C2 1_555 1_555
C4 C3 1_555 1_555
H3 C4 1_555 1_555
C5 C4 1_555 1_555
H4 C5 1_555 1_555
C6 C1 1_555 1_555
C7 C6 1_555 1_555
H5 C7 1_555 1_555
C8 C7 1_555 1_555
C9 C7 1_555 1_555
H6 C9 1_555 1_555
H7 C9 1_555 1_555
C10 C9 1_555 1_555
C11 C10 1_555 1_555
C12 C11 1_555 1_555
H8 C12 1_555 1_555
C13 C12 1_555 1_555
H9 C13 1_555 1_555
C14 C13 1_555 1_555
H10 C14 1_555 1_555
C15 C14 1_555 1_555
H11 C15 1_555 1_555
C16 C11 1_555 1_555
H12 C16 1_555 1_555
Br2 C19 1_555 1_555
O2 C26 1_555 1_555
F4 C24 1_555 1_555
F5 C24 1_555 1_555
F6 C24 1_555 1_555
C17 H13 1_555 1_555
C18 C17 1_555 1_555
H14 C18 1_555 1_555
C19 C18 1_555 1_555
C20 C19 1_555 1_555
H15 C20 1_555 1_555
C21 C20 1_555 1_555
H16 C21 1_555 1_555
C22 C17 1_555 1_555
C23 C22 1_555 1_555
H17 C23 1_555 1_555
C24 C23 1_555 1_555
C25 C23 1_555 1_555
H18 C25 1_555 1_555
H19 C25 1_555 1_555
C26 C25 1_555 1_555
C27 C26 1_555 1_555
C28 C27 1_555 1_555
H20 C28 1_555 1_555
C29 C28 1_555 1_555
H21 C29 1_555 1_555
C30 C29 1_555 1_555
H22 C30 1_555 1_555
C31 C30 1_555 1_555
H23 C31 1_555 1_555
C32 C27 1_555 1_555
H24 C32 1_555 1_555
Br3 C35 1_555 1_555
O3 C42 1_555 1_555
F7 C40 1_555 1_555
F8 C40 1_555 1_555
F9 C40 1_555 1_555
C33 H25 1_555 1_555
C34 C33 1_555 1_555
H26 C34 1_555 1_555
C35 C34 1_555 1_555
C36 C35 1_555 1_555
H27 C36 1_555 1_555
C37 C36 1_555 1_555
H28 C37 1_555 1_555
C38 C33 1_555 1_555
C39 C38 1_555 1_555
H29 C39 1_555 1_555
C40 C39 1_555 1_555
C41 C39 1_555 1_555
H30 C41 1_555 1_555
H31 C41 1_555 1_555
C42 C41 1_555 1_555
C43 C42 1_555 1_555
C44 C43 1_555 1_555
H32 C44 1_555 1_555
C45 C44 1_555 1_555
H33 C45 1_555 1_555
C46 C45 1_555 1_555
H34 C46 1_555 1_555
C47 C46 1_555 1_555
H35 C47 1_555 1_555
C48 C43 1_555 1_555
H36 C48 1_555 1_555
C49 C50 1_555 1_555
C50 C51 1_555 1_555
C51 C52 1_555 1_555
C5 C6 1_555 1_555
C15 C16 1_555 1_555
C21 C22 1_555 1_555
C31 C32 1_555 1_555
C37 C38 1_555 1_555
C47 C48 1_555 1_555

#END
