
#######################################################################
#
#                 Cambridge Crystallographic Data Centre
#                                CCDC 
#
#######################################################################
#
# If this CIF has been generated from an entry in the Cambridge 
# Structural Database, then it will include bibliographic, chemical, 
# crystal, experimental, refinement or atomic coordinate data resulting 
# from the CCDC's data processing and validation procedures.
#
#######################################################################

data_TEFSIH
_chemical_formula_moiety         'C12 H16 O4,C10 H8 N2 S2'
_chemical_name_systematic        
"1,3-Adamantanedicarboxylic acid 4,4'-dipyridyl disulfide"
_symmetry_cell_setting           monoclinic
_symmetry_space_group_name_H-M   'P 21/n'
_symmetry_Int_Tables_number      14
_space_group_name_Hall           '-P 2yn'
loop_
_symmetry_equiv_pos_site_id
_symmetry_equiv_pos_as_xyz
1 x,y,z
2 1/2-x,1/2+y,1/2-z
3 -x,-y,-z
4 1/2+x,1/2-y,1/2+z
_cell_length_a                   11.764(2)
_cell_length_b                   15.841(3)
_cell_length_c                   12.322(3)
_cell_angle_alpha                90.00
_cell_angle_beta                 113.90(3)
_cell_angle_gamma                90.00
_cell_volume                     2099.35
_exptl_crystal_colour            colorless
_exptl_crystal_description       prism
_cell_formula_units_Z            4
loop_
_atom_site_label
_atom_site_type_symbol
_atom_site_fract_x
_atom_site_fract_y
_atom_site_fract_z
S1 S 0.51693(4) 0.19360(3) 0.11210(4)
S2 S 0.63501(4) 0.29100(3) 0.12801(3)
N1 N 0.53864(13) 0.02764(8) -0.18137(11)
N2 N 0.44955(15) 0.46226(9) -0.19336(13)
C13 C 0.43071(16) 0.04800(11) -0.17646(15)
H17 H 0.3580 0.0268 -0.2350
C14 C 0.42075(15) 0.09864(11) -0.08962(15)
H18 H 0.3436 0.1108 -0.0893
C15 C 0.52878(14) 0.13078(9) -0.00302(12)
C16 C 0.64174(14) 0.10974(10) -0.00611(13)
H19 H 0.7159 0.1299 0.0515
C17 C 0.64224(15) 0.05839(10) -0.09625(14)
H20 H 0.7183 0.0445 -0.0979
C18 C 0.38461(16) 0.40124(11) -0.17059(15)
H21 H 0.3014 0.3950 -0.2218
C19 C 0.43346(15) 0.34649(11) -0.07528(14)
H22 H 0.3844 0.3045 -0.0635
C20 C 0.55660(14) 0.35556(9) 0.00210(12)
C21 C 0.62529(17) 0.41962(11) -0.01867(15)
H23 H 0.7080 0.4282 0.0323
C22 C 0.56798(19) 0.47068(11) -0.11706(16)
H24 H 0.6148 0.5134 -0.1308
O1 O -0.07231(12) 0.05319(8) -0.13855(12)
O2 O 0.12256(11) 0.06890(8) -0.11892(11)
H1 H 0.1002 0.0355 -0.1745
O3 O -0.03957(11) 0.41829(8) -0.15084(11)
H2 H -0.0349 0.4550 -0.1958
O4 O 0.16472(12) 0.43344(9) -0.07044(13)
C1 C 0.02670(14) 0.08876(9) -0.09378(13)
C2 C 0.05218(12) 0.16247(9) -0.00830(11)
C3 C -0.05302(14) 0.17014(10) 0.03453(13)
H3 H -0.1321 0.1754 -0.0333
H4 H -0.0557 0.1196 0.0779
C4 C -0.03203(15) 0.24749(10) 0.11491(14)
H5 H -0.0993 0.2512 0.1424
C5 C -0.03260(15) 0.32697(10) 0.04419(14)
H6 H -0.0220 0.3765 0.0936
H7 H -0.1117 0.3318 -0.0237
C6 C 0.07374(13) 0.32204(9) 0.00180(12)
C7 C 0.19845(14) 0.31303(10) 0.11006(13)
H8 H 0.2658 0.3098 0.0840
H9 H 0.2122 0.3620 0.1611
C8 C 0.19673(15) 0.23294(10) 0.17926(13)
H10 H 0.2763 0.2278 0.2482
C9 C 0.17690(13) 0.15446(10) 0.10042(13)
H11 H 0.1764 0.1042 0.1452
H12 H 0.2443 0.1494 0.0746
C10 C 0.05539(12) 0.24312(8) -0.07730(12)
H13 H -0.0219 0.2482 -0.1472
H14 H 0.1229 0.2392 -0.1032
C11 C 0.09204(17) 0.23859(12) 0.22199(14)
H15 H 0.1052 0.2869 0.2740
H16 H 0.0913 0.1882 0.2663
C12 C 0.07291(14) 0.39785(9) -0.07457(13)
loop_
_geom_bond_atom_site_label_1
_geom_bond_atom_site_label_2
_geom_bond_site_symmetry_1
_geom_bond_site_symmetry_2
S1 S2 1_555 1_555
S2 C20 1_555 1_555
O1 C1 1_555 1_555
O2 H1 1_555 1_555
O3 H2 1_555 1_555
O4 C12 1_555 1_555
N1 C13 1_555 1_555
N2 C18 1_555 1_555
C1 O2 1_555 1_555
C2 C1 1_555 1_555
C3 C2 1_555 1_555
H3 C3 1_555 1_555
H4 C3 1_555 1_555
C4 C3 1_555 1_555
H5 C4 1_555 1_555
C5 C4 1_555 1_555
H6 C5 1_555 1_555
H7 C5 1_555 1_555
C6 C5 1_555 1_555
C7 C6 1_555 1_555
H8 C7 1_555 1_555
H9 C7 1_555 1_555
C8 C7 1_555 1_555
H10 C8 1_555 1_555
C9 C2 1_555 1_555
H11 C9 1_555 1_555
H12 C9 1_555 1_555
C10 C2 1_555 1_555
H13 C10 1_555 1_555
H14 C10 1_555 1_555
C11 C4 1_555 1_555
H15 C11 1_555 1_555
H16 C11 1_555 1_555
C12 O3 1_555 1_555
C13 H17 1_555 1_555
C14 C13 1_555 1_555
H18 C14 1_555 1_555
C15 S1 1_555 1_555
C16 C15 1_555 1_555
H19 C16 1_555 1_555
C17 N1 1_555 1_555
H20 C17 1_555 1_555
C18 H21 1_555 1_555
C19 C18 1_555 1_555
H22 C19 1_555 1_555
C20 C19 1_555 1_555
C21 C20 1_555 1_555
H23 C21 1_555 1_555
C22 N2 1_555 1_555
H24 C22 1_555 1_555
C6 C10 1_555 1_555
C6 C12 1_555 1_555
C8 C9 1_555 1_555
C8 C11 1_555 1_555
C14 C15 1_555 1_555
C16 C17 1_555 1_555
C21 C22 1_555 1_555

#END
