
#######################################################################
#
#                 Cambridge Crystallographic Data Centre
#                                CCDC 
#
#######################################################################
#
# If this CIF has been generated from an entry in the Cambridge 
# Structural Database, then it will include bibliographic, chemical, 
# crystal, experimental, refinement or atomic coordinate data resulting 
# from the CCDC's data processing and validation procedures.
#
#######################################################################

data_TEFXUA
_chemical_formula_moiety         'C19 H20 F3 N1 O3 S1'
_chemical_name_systematic        
4-methyl-N-(1,1,1-trifluoro-3-methoxy-5-phenylpent-4-en-2-yl)benzenesulfonamide
_symmetry_cell_setting           triclinic
_symmetry_space_group_name_H-M   'P -1'
_symmetry_Int_Tables_number      2
_space_group_name_Hall           '-P 1'
loop_
_symmetry_equiv_pos_site_id
_symmetry_equiv_pos_as_xyz
1 x,y,z
2 -x,-y,-z
_cell_length_a                   8.9029(13)
_cell_length_b                   10.2491(15)
_cell_length_c                   10.8402(16)
_cell_angle_alpha                97.645(3)
_cell_angle_beta                 97.068(3)
_cell_angle_gamma                96.897(3)
_cell_volume                     963.483
_exptl_crystal_colour            colorless
_exptl_crystal_description       prismatic
_cell_formula_units_Z            2
loop_
_atom_site_label
_atom_site_type_symbol
_atom_site_fract_x
_atom_site_fract_y
_atom_site_fract_z
S1 S 0.49909(7) 0.65261(6) 0.67000(6)
O1 O 0.9158(2) 0.5121(2) 0.6807(2)
O2 O 0.4519(2) 0.6942(2) 0.78793(19)
O3 O 0.3894(2) 0.5803(2) 0.56869(19)
N1 N 0.6293(2) 0.5581(2) 0.6937(2)
F1 F 0.7829(3) 0.4578(2) 0.9823(2)
F2 F 0.7244(3) 0.33786(18) 0.8032(3)
F3 F 0.5543(3) 0.4282(2) 0.8916(2)
C1 C 0.7313(3) 0.5698(2) 0.8092(2)
H1 H 0.7092 0.6457 0.8658
C2 C 0.6975(4) 0.4468(3) 0.8697(3)
C3 C 0.9001(3) 0.5964(3) 0.7920(3)
H2 H 0.9621 0.5698 0.8632
C4 C 0.9502(3) 0.7400(3) 0.7879(3)
H3 H 0.8949 0.7816 0.7300
C5 C 1.0689(3) 0.8107(3) 0.8622(3)
H4 H 1.1235 0.7659 0.9177
C6 C 1.1241(3) 0.9521(3) 0.8668(3)
C7 C 1.0310(4) 1.0403(3) 0.8253(4)
H5 H 0.9291 1.0099 0.7936
C8 C 1.0861(4) 1.1732(3) 0.8297(4)
H6 H 1.0211 1.2314 0.8025
C9 C 1.2360(4) 1.2187(3) 0.8741(3)
H7 H 1.2734 1.3078 0.8761
C10 C 1.3302(4) 1.1344(4) 0.9151(4)
H8 H 1.4325 1.1654 0.9445
C11 C 1.2743(4) 1.0017(3) 0.9133(4)
H9 H 1.3393 0.9452 0.9439
C12 C 1.0692(4) 0.5040(4) 0.6641(4)
H10 H 1.1192 0.5903 0.6566
H11 H 1.0723 0.4435 0.5891
H12 H 1.1206 0.4725 0.7351
C13 C 0.5860(3) 0.7941(3) 0.6153(3)
C14 C 0.5903(4) 0.9190(3) 0.6829(3)
H13 H 0.5460 0.9295 0.7564
C15 C 0.6612(4) 1.0281(3) 0.6398(4)
H14 H 0.6627 1.1123 0.6845
C16 C 0.7294(3) 1.0157(3) 0.5330(3)
C17 C 0.7216(4) 0.8892(4) 0.4663(3)
H15 H 0.7654 0.8785 0.3927
C18 C 0.6505(4) 0.7791(3) 0.5065(3)
H16 H 0.6461 0.6952 0.4603
C19 C 0.8117(5) 1.1336(4) 0.4890(4)
H17 H 0.7989 1.2134 0.5416
H18 H 0.7703 1.1373 0.4037
H19 H 0.9185 1.1256 0.4935
H20 H 0.654(3) 0.521(3) 0.632(2)
loop_
_geom_bond_atom_site_label_1
_geom_bond_atom_site_label_2
_geom_bond_site_symmetry_1
_geom_bond_site_symmetry_2
S1 O2 1_555 1_555
O1 C3 1_555 1_555
O3 S1 1_555 1_555
N1 S1 1_555 1_555
F1 C2 1_555 1_555
F2 C2 1_555 1_555
F3 C2 1_555 1_555
C1 N1 1_555 1_555
H1 C1 1_555 1_555
C2 C1 1_555 1_555
C3 C1 1_555 1_555
H2 C3 1_555 1_555
C4 C3 1_555 1_555
H3 C4 1_555 1_555
C5 C4 1_555 1_555
H4 C5 1_555 1_555
C6 C5 1_555 1_555
C7 C6 1_555 1_555
H5 C7 1_555 1_555
C8 C7 1_555 1_555
H6 C8 1_555 1_555
C9 C8 1_555 1_555
H7 C9 1_555 1_555
C10 C9 1_555 1_555
H8 C10 1_555 1_555
C11 C6 1_555 1_555
H9 C11 1_555 1_555
C12 O1 1_555 1_555
H10 C12 1_555 1_555
H11 C12 1_555 1_555
H12 C12 1_555 1_555
C13 S1 1_555 1_555
C14 C13 1_555 1_555
H13 C14 1_555 1_555
C15 C14 1_555 1_555
H14 C15 1_555 1_555
C16 C15 1_555 1_555
C17 C16 1_555 1_555
H15 C17 1_555 1_555
C18 C13 1_555 1_555
H16 C18 1_555 1_555
C19 C16 1_555 1_555
H17 C19 1_555 1_555
H18 C19 1_555 1_555
H19 C19 1_555 1_555
H20 N1 1_555 1_555
C10 C11 1_555 1_555
C17 C18 1_555 1_555

#END
