
#######################################################################
#
#                 Cambridge Crystallographic Data Centre
#                                CCDC 
#
#######################################################################
#
# If this CIF has been generated from an entry in the Cambridge 
# Structural Database, then it will include bibliographic, chemical, 
# crystal, experimental, refinement or atomic coordinate data resulting 
# from the CCDC's data processing and validation procedures.
#
#######################################################################

data_TEFYIP
_chemical_formula_moiety         'C23 H21 Br1 O4'
_chemical_name_systematic        
't-butyl 5-bromo-1-oxo-2-(3-oxo-3-phenylprop-1-en-2-yl)indane-2-carboxylate'
_symmetry_cell_setting           monoclinic
_symmetry_space_group_name_H-M   'P 21'
_symmetry_Int_Tables_number      4
_space_group_name_Hall           'P 2yb'
loop_
_symmetry_equiv_pos_site_id
_symmetry_equiv_pos_as_xyz
1 x,y,z
2 -x,1/2+y,-z
_cell_length_a                   8.473(5)
_cell_length_b                   10.542(5)
_cell_length_c                   11.891(5)
_cell_angle_alpha                90
_cell_angle_beta                 106.339(5)
_cell_angle_gamma                90
_cell_volume                     1019.24
_exptl_crystal_colour            colorless
_exptl_crystal_description       Block
_cell_formula_units_Z            2
loop_
_atom_site_label
_atom_site_type_symbol
_atom_site_fract_x
_atom_site_fract_y
_atom_site_fract_z
Br1 Br 0.61029(4) -0.71755(3) 0.63160(3)
O1 O 0.2634(3) -1.1623(2) 0.8853(2)
O2 O 0.0980(3) -1.3270(2) 0.80658(19)
O3 O 0.0366(3) -1.2065(3) 0.5555(2)
O4 O 0.4647(4) -1.4400(3) 0.8660(2)
C1 C 0.2677(4) -1.0642(3) 0.5995(3)
C2 C 0.1431(5) -1.6558(3) 0.7258(3)
C3 C 0.4271(4) -1.0714(3) 0.6732(3)
C4 C 0.0087(4) -1.3309(4) 0.8972(3)
C5 C 0.3995(5) -1.7011(5) 0.8696(3)
C6 C 0.1763(4) -1.1800(3) 0.6091(3)
C7 C 0.4730(4) -0.8631(3) 0.6159(3)
C8 C 0.2895(4) -1.2627(3) 0.7089(3)
C9 C 0.2908(4) -1.4025(3) 0.6787(3)
C10 C 0.4598(4) -1.1981(3) 0.7345(3)
C11 C 0.3155(4) -0.8554(3) 0.5396(3)
C12 C 0.3591(4) -1.4853(3) 0.7839(3)
C13 C 0.2107(4) -0.9582(3) 0.5310(3)
C14 C -0.1145(5) -1.4363(5) 0.8544(4)
C15 C 0.3466(5) -1.8221(4) 0.8808(3)
C16 C 0.2181(4) -1.2436(3) 0.8129(3)
C17 C 0.5330(4) -0.9691(3) 0.6828(3)
C18 C 0.0900(5) -1.7778(4) 0.7389(3)
C19 C 0.2528(5) -1.4487(4) 0.5709(3)
C20 C -0.0783(6) -1.2056(6) 0.8996(4)
C21 C 0.2984(4) -1.6159(3) 0.7902(3)
C22 C 0.1301(6) -1.3636(5) 1.0147(4)
C23 C 0.1926(5) -1.8609(4) 0.8157(3)
H1 H 0.502(5) -1.674(4) 0.911(3)
H2 H 0.094(6) -0.955(5) 0.483(4)
H3 H 0.509(5) -1.188(4) 0.819(4)
H4 H 0.644(5) -0.973(4) 0.736(3)
H5 H -0.019(6) -1.807(4) 0.696(4)
H6 H 0.415(5) -1.873(5) 0.937(4)
H7 H 0.524(5) -1.249(4) 0.702(4)
H8 H 0.220(5) -1.396(5) 0.504(4)
H9 H 0.261(5) -1.530(5) 0.554(4)
H10 H 0.279(5) -0.785(4) 0.496(3)
H11 H 0.078(6) -1.603(4) 0.678(4)
H12 H 0.155(6) -1.949(5) 0.825(4)
H13 H -0.143(6) -1.216(7) 0.953(4)
H14 H -0.053(6) -1.519(5) 0.848(4)
H15 H 0.203(7) -1.296(5) 1.044(5)
H16 H -0.146(6) -1.183(5) 0.826(4)
H17 H 0.193(6) -1.439(6) 1.003(4)
H18 H 0.000(5) -1.135(4) 0.928(3)
H19 H 0.072(6) -1.383(5) 1.075(4)
H20 H -0.177(7) -1.444(5) 0.902(5)
H21 H -0.185(6) -1.423(5) 0.777(5)
loop_
_geom_bond_atom_site_label_1
_geom_bond_atom_site_label_2
_geom_bond_site_symmetry_1
_geom_bond_site_symmetry_2
Br1 C7 1_555 1_555
O1 C16 1_555 1_555
O2 C4 1_555 1_555
O3 C6 1_555 1_555
O4 C12 1_555 1_555
C1 C3 1_555 1_555
C2 C18 1_555 1_555
C3 C10 1_555 1_555
C4 C14 1_555 1_555
C5 C15 1_555 1_555
C6 C1 1_555 1_555
C7 C11 1_555 1_555
C8 C6 1_555 1_555
C9 C8 1_555 1_555
C10 C8 1_555 1_555
C11 C13 1_555 1_555
C12 C9 1_555 1_555
C13 C1 1_555 1_555
C14 H14 1_555 1_555
C15 C23 1_555 1_555
C16 O2 1_555 1_555
C17 C3 1_555 1_555
C18 C23 1_555 1_555
C19 C9 1_555 1_555
C20 C4 1_555 1_555
C21 C2 1_555 1_555
C22 C4 1_555 1_555
C23 H12 1_555 1_555
H1 C5 1_555 1_555
H2 C13 1_555 1_555
H3 C10 1_555 1_555
H4 C17 1_555 1_555
H5 C18 1_555 1_555
H6 C15 1_555 1_555
H7 C10 1_555 1_555
H8 C19 1_555 1_555
H9 C19 1_555 1_555
H10 C11 1_555 1_555
H11 C2 1_555 1_555
H13 C20 1_555 1_555
H15 C22 1_555 1_555
H16 C20 1_555 1_555
H17 C22 1_555 1_555
H18 C20 1_555 1_555
H19 C22 1_555 1_555
H20 C14 1_555 1_555
H21 C14 1_555 1_555
C5 C21 1_555 1_555
C7 C17 1_555 1_555
C8 C16 1_555 1_555
C12 C21 1_555 1_555

#END
