
#######################################################################
#
#                 Cambridge Crystallographic Data Centre
#                                CCDC 
#
#######################################################################
#
# If this CIF has been generated from an entry in the Cambridge 
# Structural Database, then it will include bibliographic, chemical, 
# crystal, experimental, refinement or atomic coordinate data resulting 
# from the CCDC's data processing and validation procedures.
#
#######################################################################

data_TEGBUE
_chemical_formula_moiety         'C13 H16 F1 N1 O2'
_chemical_name_systematic        
2-Fluoro-N-methoxy-N,2-dimethyl-3-phenylcyclopropanecarboxamide
_symmetry_cell_setting           orthorhombic
_symmetry_space_group_name_H-M   'P 21 21 21'
_symmetry_Int_Tables_number      19
_space_group_name_Hall           'P 2ac 2ab'
loop_
_symmetry_equiv_pos_site_id
_symmetry_equiv_pos_as_xyz
1 x,y,z
2 1/2+x,1/2-y,-z
3 -x,1/2+y,1/2-z
4 1/2-x,-y,1/2+z
_cell_length_a                   5.8173(2)
_cell_length_b                   9.1474(2)
_cell_length_c                   24.0933(6)
_cell_angle_alpha                90
_cell_angle_beta                 90
_cell_angle_gamma                90
_cell_volume                     1282.08
_exptl_crystal_colour            colorless
_exptl_crystal_description       prism
_cell_formula_units_Z            4
loop_
_atom_site_label
_atom_site_type_symbol
_atom_site_fract_x
_atom_site_fract_y
_atom_site_fract_z
F1 F 0.45021(19) 0.65753(10) 0.06157(3)
N1 N 0.4398(3) 0.71263(16) 0.21487(6)
O1 O 0.67789(19) 0.56391(14) 0.17044(5)
O2 O 0.2171(2) 0.76395(14) 0.22156(5)
C1 C 0.2669(3) 0.58000(14) 0.08353(5)
C2 C 0.3262(2) 0.43041(13) 0.10365(5)
H1 H 0.4898 0.4069 0.0997
C3 C 0.2803(2) 0.55272(13) 0.14507(5)
H2 H 0.1339 0.5485 0.1651
C4 C 0.0466(3) 0.6177(2) 0.05563(7)
H3 H 0.0154 0.7199 0.0605
H4 H -0.0759 0.5614 0.0717
H5 H 0.0580 0.5960 0.0167
C5 C 0.4821(2) 0.60843(15) 0.17664(5)
C6 C 0.6111(4) 0.7762(2) 0.25119(9)
H6 H 0.7500 0.7198 0.2492
H7 H 0.5548 0.7762 0.2886
H8 H 0.6421 0.8748 0.2398
C7 C 0.1802(6) 0.8900(3) 0.18946(13)
H9 H 0.2256 0.9747 0.2103
H10 H 0.0202 0.8972 0.1801
H11 H 0.2697 0.8841 0.1561
C8 C 0.1731(2) 0.30138(14) 0.09602(5)
C9 C -0.0251(3) 0.27911(17) 0.12657(7)
H12 H -0.0657 0.3457 0.1541
C10 C -0.1640(3) 0.1590(2) 0.11674(9)
H13 H -0.2974 0.1460 0.1374
C11 C -0.1057(3) 0.05854(17) 0.07655(8)
H14 H -0.1996 -0.0219 0.0699
C12 C 0.0904(4) 0.07785(17) 0.04659(7)
H15 H 0.1309 0.0097 0.0197
C13 C 0.2296(3) 0.19734(16) 0.05576(6)
H16 H 0.3629 0.2089 0.0349
loop_
_geom_bond_atom_site_label_1
_geom_bond_atom_site_label_2
_geom_bond_site_symmetry_1
_geom_bond_site_symmetry_2
F1 C1 1_555 1_555
N1 O2 1_555 1_555
O1 C5 1_555 1_555
O2 C7 1_555 1_555
C1 C2 1_555 1_555
C2 H1 1_555 1_555
C3 C1 1_555 1_555
H2 C3 1_555 1_555
C4 C1 1_555 1_555
H3 C4 1_555 1_555
H4 C4 1_555 1_555
H5 C4 1_555 1_555
C5 N1 1_555 1_555
C6 N1 1_555 1_555
H6 C6 1_555 1_555
H7 C6 1_555 1_555
H8 C6 1_555 1_555
C7 H9 1_555 1_555
H10 C7 1_555 1_555
H11 C7 1_555 1_555
C8 C2 1_555 1_555
C9 C8 1_555 1_555
H12 C9 1_555 1_555
C10 C9 1_555 1_555
H13 C10 1_555 1_555
C11 C10 1_555 1_555
H14 C11 1_555 1_555
C12 C11 1_555 1_555
H15 C12 1_555 1_555
C13 C8 1_555 1_555
H16 C13 1_555 1_555
C2 C3 1_555 1_555
C3 C5 1_555 1_555
C12 C13 1_555 1_555

#END
