
#######################################################################
#
#                 Cambridge Crystallographic Data Centre
#                                CCDC 
#
#######################################################################
#
# If this CIF has been generated from an entry in the Cambridge 
# Structural Database, then it will include bibliographic, chemical, 
# crystal, experimental, refinement or atomic coordinate data resulting 
# from the CCDC's data processing and validation procedures.
#
#######################################################################

data_TEGWUA
_chemical_formula_moiety         'C34 H30 O1'
_chemical_name_systematic        
(1S,1aS,7bR)-1-((1s,2R,3S)-2,3-diphenylcyclopropyl)-3-methoxy-1a-(4-methylphenyl)-1a,7b-dihydro-1H-cyclopropa[a]naphthalene
_symmetry_cell_setting           monoclinic
_symmetry_space_group_name_H-M   'C 2/c'
_symmetry_Int_Tables_number      15
_space_group_name_Hall           '-C 2yn'
loop_
_symmetry_equiv_pos_site_id
_symmetry_equiv_pos_as_xyz
1 x,y,z
2 -x,y,1/2-z
3 1/2+x,1/2+y,z
4 1/2-x,1/2+y,1/2-z
5 -x,-y,-z
6 x,-y,1/2+z
7 1/2-x,1/2-y,-z
8 1/2+x,1/2-y,1/2+z
_cell_length_a                   24.623(2)
_cell_length_b                   15.4246(14)
_cell_length_c                   15.0059(14)
_cell_angle_alpha                90
_cell_angle_beta                 119.147(3)
_cell_angle_gamma                90
_cell_volume                     4977.56
_exptl_crystal_colour            colorless
_exptl_crystal_description       plate
_cell_formula_units_Z            8
loop_
_atom_site_label
_atom_site_type_symbol
_atom_site_fract_x
_atom_site_fract_y
_atom_site_fract_z
O1 O 0.05647(4) 0.36797(6) 0.21418(7)
C1 C 0.27599(6) 0.31556(8) 0.32198(10)
C2 C 0.28976(6) 0.30680(9) 0.24284(10)
H1 H 0.2710 0.3448 0.1859
C3 C 0.33081(6) 0.24289(9) 0.24600(11)
H2 H 0.3395 0.2380 0.1910
C4 C 0.35933(6) 0.18617(8) 0.32851(10)
C5 C 0.34506(6) 0.19468(9) 0.40724(10)
H3 H 0.3637 0.1565 0.4640
C6 C 0.30398(6) 0.25822(8) 0.40406(10)
H4 H 0.2949 0.2626 0.4586
C7 C 0.40455(7) 0.11788(9) 0.33281(12)
H5 H 0.4022 0.1132 0.2659
H6 H 0.3939 0.0619 0.3512
H7 H 0.4469 0.1342 0.3841
C8 C 0.23004(6) 0.38290(8) 0.31557(9)
C9 C 0.16343(6) 0.35713(8) 0.25235(9)
H8 H 0.1524 0.3183 0.1970
C10 C 0.11854(6) 0.38673(8) 0.27082(9)
C11 C 0.13135(6) 0.44228(8) 0.35873(9)
C12 C 0.08338(6) 0.47107(9) 0.37596(10)
H9 H 0.0416 0.4557 0.3296
C13 C 0.09640(6) 0.52202(9) 0.46036(10)
H10 H 0.0635 0.5423 0.4710
C14 C 0.15768(6) 0.54330(9) 0.52932(10)
H11 H 0.1667 0.5777 0.5874
C15 C 0.20558(6) 0.51435(9) 0.51344(10)
H12 H 0.2473 0.5285 0.5615
C16 C 0.19339(6) 0.46476(8) 0.42784(9)
C17 C 0.24448(6) 0.43991(8) 0.40806(10)
H13 H 0.2859 0.4305 0.4698
C18 C 0.24555(6) 0.47857(8) 0.31595(9)
H14 H 0.2089 0.5160 0.2724
C19 C 0.30583(6) 0.51189(8) 0.32911(9)
H15 H 0.3420 0.4714 0.3625
C20 C 0.30653(6) 0.57320(8) 0.25185(10)
H16 H 0.2639 0.5884 0.1963
C21 C 0.31997(6) 0.60750(8) 0.35662(10)
H17 H 0.2841 0.6398 0.3544
C22 C 0.38129(6) 0.63789(8) 0.43907(10)
C23 C 0.38209(7) 0.70630(9) 0.50124(10)
H18 H 0.3441 0.7333 0.4873
C24 C 0.43758(7) 0.73542(9) 0.58307(11)
H19 H 0.4371 0.7815 0.6246
C25 C 0.49353(7) 0.69715(9) 0.60394(11)
H20 H 0.5314 0.7162 0.6603
C26 C 0.49366(6) 0.63071(9) 0.54162(11)
H21 H 0.5319 0.6052 0.5546
C27 C 0.43833(6) 0.60115(9) 0.46037(10)
H22 H 0.4392 0.5554 0.4187
C28 C 0.35314(6) 0.56944(8) 0.21564(9)
C29 C 0.36727(6) 0.64488(9) 0.17982(10)
H23 H 0.3488 0.6982 0.1823
C30 C 0.40796(7) 0.64303(10) 0.14056(11)
H24 H 0.4177 0.6950 0.1174
C31 C 0.43446(7) 0.56508(10) 0.13515(11)
H25 H 0.4623 0.5636 0.1082
C32 C 0.42026(7) 0.48959(10) 0.16915(11)
H26 H 0.4379 0.4361 0.1647
C33 C 0.38023(6) 0.49169(9) 0.20981(10)
H27 H 0.3712 0.4397 0.2339
C34 C 0.03732(6) 0.31491(10) 0.12606(10)
H28 H 0.0513 0.3410 0.0812
H29 H -0.0081 0.3103 0.0895
H30 H 0.0556 0.2570 0.1469
loop_
_geom_bond_atom_site_label_1
_geom_bond_atom_site_label_2
_geom_bond_site_symmetry_1
_geom_bond_site_symmetry_2
O1 C10 1_555 1_555
C1 C2 1_555 1_555
C2 H1 1_555 1_555
C3 C2 1_555 1_555
H2 C3 1_555 1_555
C4 C3 1_555 1_555
C5 C4 1_555 1_555
H3 C5 1_555 1_555
C6 C1 1_555 1_555
H4 C6 1_555 1_555
C7 C4 1_555 1_555
H5 C7 1_555 1_555
H6 C7 1_555 1_555
H7 C7 1_555 1_555
C8 C1 1_555 1_555
C9 C8 1_555 1_555
H8 C9 1_555 1_555
C10 C9 1_555 1_555
C11 C10 1_555 1_555
C12 C11 1_555 1_555
H9 C12 1_555 1_555
C13 C12 1_555 1_555
H10 C13 1_555 1_555
C14 C13 1_555 1_555
H11 C14 1_555 1_555
C15 C14 1_555 1_555
H12 C15 1_555 1_555
C16 C11 1_555 1_555
C17 C8 1_555 1_555
H13 C17 1_555 1_555
C18 C8 1_555 1_555
H14 C18 1_555 1_555
C19 C18 1_555 1_555
H15 C19 1_555 1_555
C20 C19 1_555 1_555
H16 C20 1_555 1_555
C21 C19 1_555 1_555
H17 C21 1_555 1_555
C22 C21 1_555 1_555
C23 C22 1_555 1_555
H18 C23 1_555 1_555
C24 C23 1_555 1_555
H19 C24 1_555 1_555
C25 C24 1_555 1_555
H20 C25 1_555 1_555
C26 C25 1_555 1_555
H21 C26 1_555 1_555
C27 C22 1_555 1_555
H22 C27 1_555 1_555
C28 C20 1_555 1_555
C29 C28 1_555 1_555
H23 C29 1_555 1_555
C30 C29 1_555 1_555
H24 C30 1_555 1_555
C31 C30 1_555 1_555
H25 C31 1_555 1_555
C32 C31 1_555 1_555
H26 C32 1_555 1_555
C33 C28 1_555 1_555
H27 C33 1_555 1_555
C34 O1 1_555 1_555
H28 C34 1_555 1_555
H29 C34 1_555 1_555
H30 C34 1_555 1_555
C5 C6 1_555 1_555
C15 C16 1_555 1_555
C16 C17 1_555 1_555
C17 C18 1_555 1_555
C20 C21 1_555 1_555
C26 C27 1_555 1_555
C32 C33 1_555 1_555

#END
