
#######################################################################
#
#                 Cambridge Crystallographic Data Centre
#                                CCDC 
#
#######################################################################
#
# If this CIF has been generated from an entry in the Cambridge 
# Structural Database, then it will include bibliographic, chemical, 
# crystal, experimental, refinement or atomic coordinate data resulting 
# from the CCDC's data processing and validation procedures.
#
#######################################################################

data_TEHCIV
_chemical_name_common            gene768
_chemical_formula_moiety         'C22 H20 O3 S1'
_chemical_name_systematic        
'1,2-diphenylprop-1-en-1-yl 4-methylbenzene-1-sulfonate'
_symmetry_cell_setting           monoclinic
_symmetry_space_group_name_H-M   'P 21'
_symmetry_Int_Tables_number      4
_space_group_name_Hall           'P 2yb'
loop_
_symmetry_equiv_pos_site_id
_symmetry_equiv_pos_as_xyz
1 x,y,z
2 -x,1/2+y,-z
_cell_length_a                   6.1836(3)
_cell_length_b                   7.6778(4)
_cell_length_c                   19.3378(9)
_cell_angle_alpha                90
_cell_angle_beta                 90.4540(10)
_cell_angle_gamma                90
_cell_volume                     918.061
_exptl_crystal_colour            colorless
_exptl_crystal_description       prism
_cell_formula_units_Z            2
loop_
_atom_site_label
_atom_site_type_symbol
_atom_site_fract_x
_atom_site_fract_y
_atom_site_fract_z
C1 C 0.6638(5) 0.5506(5) 0.43715(15)
C2 C 0.8638(6) 0.6323(5) 0.44206(18)
H1 H 0.9291 0.6813 0.4022
C3 C 0.9663(6) 0.6415(5) 0.50560(19)
H2 H 1.1034 0.6967 0.5093
C4 C 0.8708(5) 0.5704(5) 0.56475(17)
C5 C 0.6697(6) 0.4913(5) 0.55835(17)
H3 H 0.6026 0.4446 0.5983
C6 C 0.5645(5) 0.4791(5) 0.49475(17)
H4 H 0.4279 0.4233 0.4908
C7 C 0.9861(6) 0.5799(5) 0.63367(17)
H5 H 0.9641 0.6953 0.6541
H6 H 1.1410 0.5598 0.6271
H7 H 0.9279 0.4907 0.6646
C8 C 0.6952(5) 0.4243(5) 0.24245(16)
C9 C 0.6126(5) 0.2870(4) 0.21007(17)
C10 C 0.4958(6) 0.1427(5) 0.24708(19)
H8 H 0.5027 0.1632 0.2971
H9 H 0.5644 0.0310 0.2364
H10 H 0.3443 0.1401 0.2319
C11 C 0.6427(5) 0.2611(4) 0.13378(17)
C12 C 0.4746(5) 0.1990(5) 0.09231(17)
H11 H 0.3355 0.1831 0.1118
C13 C 0.5059(6) 0.1599(5) 0.02344(18)
H12 H 0.3893 0.1165 -0.0038
C14 C 0.7063(6) 0.1838(5) -0.00586(18)
H13 H 0.7285 0.1564 -0.0532
C15 C 0.8748(6) 0.2482(5) 0.03412(17)
H14 H 1.0124 0.2669 0.0139
C16 C 0.8442(6) 0.2852(5) 0.10321(17)
H15 H 0.9617 0.3277 0.1303
C17 C 0.8070(5) 0.5774(5) 0.21284(16)
C18 C 0.7109(5) 0.6733(5) 0.15964(17)
H16 H 0.5712 0.6421 0.1430
C19 C 0.8187(6) 0.8140(5) 0.13087(17)
H17 H 0.7524 0.8799 0.0949
C20 C 1.0230(6) 0.8581(5) 0.15473(18)
H18 H 1.0980 0.9529 0.1344
C21 C 1.1193(6) 0.7643(5) 0.20829(19)
H19 H 1.2590 0.7958 0.2248
C22 C 1.0105(5) 0.6248(5) 0.23743(18)
H20 H 1.0753 0.5614 0.2743
O1 O 0.3320(4) 0.4510(4) 0.36346(12)
O2 O 0.5279(4) 0.7101(3) 0.32472(12)
O3 O 0.6986(4) 0.4215(3) 0.31662(11)
S1 S 0.53102(13) 0.54275(12) 0.35680(4)
loop_
_geom_bond_atom_site_label_1
_geom_bond_atom_site_label_2
_geom_bond_site_symmetry_1
_geom_bond_site_symmetry_2
C1 C2 1_555 1_555
C2 H1 1_555 1_555
C3 C2 1_555 1_555
H2 C3 1_555 1_555
C4 C3 1_555 1_555
C5 C4 1_555 1_555
H3 C5 1_555 1_555
C6 C1 1_555 1_555
H4 C6 1_555 1_555
C7 C4 1_555 1_555
H5 C7 1_555 1_555
H6 C7 1_555 1_555
H7 C7 1_555 1_555
C8 C9 1_555 1_555
C9 C10 1_555 1_555
C10 H8 1_555 1_555
H9 C10 1_555 1_555
H10 C10 1_555 1_555
C11 C9 1_555 1_555
C12 C11 1_555 1_555
H11 C12 1_555 1_555
C13 C12 1_555 1_555
H12 C13 1_555 1_555
C14 C13 1_555 1_555
H13 C14 1_555 1_555
C15 C14 1_555 1_555
H14 C15 1_555 1_555
C16 C11 1_555 1_555
H15 C16 1_555 1_555
C17 C8 1_555 1_555
C18 C17 1_555 1_555
H16 C18 1_555 1_555
C19 C18 1_555 1_555
H17 C19 1_555 1_555
C20 C19 1_555 1_555
H18 C20 1_555 1_555
C21 C20 1_555 1_555
H19 C21 1_555 1_555
C22 C17 1_555 1_555
H20 C22 1_555 1_555
O1 S1 1_555 1_555
O2 S1 1_555 1_555
O3 C8 1_555 1_555
S1 C1 1_555 1_555
C5 C6 1_555 1_555
C15 C16 1_555 1_555
C21 C22 1_555 1_555
O3 S1 1_555 1_555

#END
