
#######################################################################
#
#                 Cambridge Crystallographic Data Centre
#                                CCDC 
#
#######################################################################
#
# If this CIF has been generated from an entry in the Cambridge 
# Structural Database, then it will include bibliographic, chemical, 
# crystal, experimental, refinement or atomic coordinate data resulting 
# from the CCDC's data processing and validation procedures.
#
#######################################################################

data_TEHCAN
_chemical_name_common            gene765
_chemical_formula_moiety         'C24 H24 O3 S1'
_chemical_name_systematic        
'2-(2-methylphenyl)-1-phenylbut-1-en-1-yl 4-methylbenzene-1-sulfonate'
_symmetry_cell_setting           triclinic
_symmetry_space_group_name_H-M   'P -1'
_symmetry_Int_Tables_number      2
_space_group_name_Hall           '-P 1'
loop_
_symmetry_equiv_pos_site_id
_symmetry_equiv_pos_as_xyz
1 x,y,z
2 -x,-y,-z
_cell_length_a                   10.3876(11)
_cell_length_b                   11.2894(12)
_cell_length_c                   11.3219(12)
_cell_angle_alpha                106.350(2)
_cell_angle_beta                 105.817(2)
_cell_angle_gamma                114.671(2)
_cell_volume                     1035.43
_exptl_crystal_colour            colorless
_exptl_crystal_description       prism
_cell_formula_units_Z            2
loop_
_atom_site_label
_atom_site_type_symbol
_atom_site_fract_x
_atom_site_fract_y
_atom_site_fract_z
C1 C 0.9562(2) 0.44977(19) 0.78533(18)
C2 C 1.0985(2) 0.5676(2) 0.89269(19)
H1 H 1.1227 0.6645 0.9151
C3 C 1.2059(2) 0.5424(2) 0.9675(2)
H2 H 1.3033 0.6230 1.0427
C4 C 1.1740(2) 0.4021(2) 0.9347(2)
C5 C 1.0299(3) 0.2862(2) 0.8266(2)
H3 H 1.0061 0.1893 0.8032
C6 C 0.9194(2) 0.3080(2) 0.7516(2)
H4 H 0.8203 0.2273 0.6785
C7 C 1.2923(3) 0.3746(3) 1.0130(3)
H5 H 1.3403 0.3460 0.9561
H6 H 1.2385 0.2961 1.0359
H7 H 1.3751 0.4640 1.0980
C8 C 0.70035(19) 0.31951(18) 0.42767(17)
C9 C 0.5875(2) 0.32830(18) 0.34835(17)
C10 C 0.5870(2) 0.4670(2) 0.38162(19)
H8 H 0.6381 0.5258 0.4828
H9 H 0.4762 0.4423 0.3452
C11 C 0.6738(3) 0.5569(2) 0.3201(2)
H10 H 0.7863 0.5910 0.3638
H11 H 0.6625 0.6412 0.3359
H12 H 0.6287 0.4964 0.2210
C12 C 0.7214(2) 0.19467(18) 0.40722(17)
C13 C 0.8666(2) 0.2141(2) 0.41878(19)
H13 H 0.9493 0.3058 0.4356
C14 C 0.8913(2) 0.1012(2) 0.4059(2)
H14 H 0.9906 0.1153 0.4138
C15 C 0.7724(3) -0.0320(2) 0.3817(2)
H15 H 0.7900 -0.1094 0.3734
C16 C 0.6271(3) -0.0533(2) 0.3693(2)
H16 H 0.5448 -0.1454 0.3520
C17 C 0.6018(2) 0.0597(2) 0.38224(19)
H17 H 0.5022 0.0450 0.3740
C18 C 0.4578(2) 0.20095(18) 0.21399(17)
C19 C 0.4864(2) 0.1675(2) 0.09952(18)
H18 H 0.5906 0.2223 0.1093
C20 C 0.3661(2) 0.0562(2) -0.02821(19)
H19 H 0.3872 0.0353 -0.1056
C21 C 0.2150(2) -0.0245(2) -0.0422(2)
H20 H 0.1315 -0.1014 -0.1294
C22 C 0.1856(2) 0.0066(2) 0.0701(2)
H21 H 0.0814 -0.0503 0.0592
C23 C 0.3043(2) 0.1192(2) 0.19980(19)
C24 C 0.2679(2) 0.1505(2) 0.3204(2)
H22 H 0.2117 0.2016 0.3135
H23 H 0.3670 0.2120 0.4059
H24 H 0.2013 0.0584 0.3205
O1 O 0.66253(15) 0.37433(15) 0.66399(13)
O2 O 0.87524(16) 0.63176(14) 0.75592(14)
O3 O 0.82846(14) 0.45061(12) 0.54912(12)
S1 S 0.81784(5) 0.48007(5) 0.69193(4)
loop_
_geom_bond_atom_site_label_1
_geom_bond_atom_site_label_2
_geom_bond_site_symmetry_1
_geom_bond_site_symmetry_2
C1 C2 1_555 1_555
C2 H1 1_555 1_555
C3 C2 1_555 1_555
H2 C3 1_555 1_555
C4 C3 1_555 1_555
C5 C4 1_555 1_555
H3 C5 1_555 1_555
C6 C1 1_555 1_555
H4 C6 1_555 1_555
C7 C4 1_555 1_555
H5 C7 1_555 1_555
H6 C7 1_555 1_555
H7 C7 1_555 1_555
C8 C9 1_555 1_555
C9 C10 1_555 1_555
C10 H8 1_555 1_555
H9 C10 1_555 1_555
C11 C10 1_555 1_555
H10 C11 1_555 1_555
H11 C11 1_555 1_555
H12 C11 1_555 1_555
C12 C8 1_555 1_555
C13 C12 1_555 1_555
H13 C13 1_555 1_555
C14 C13 1_555 1_555
H14 C14 1_555 1_555
C15 C14 1_555 1_555
H15 C15 1_555 1_555
C16 C15 1_555 1_555
H16 C16 1_555 1_555
C17 C12 1_555 1_555
H17 C17 1_555 1_555
C18 C9 1_555 1_555
C19 C18 1_555 1_555
H18 C19 1_555 1_555
C20 C19 1_555 1_555
H19 C20 1_555 1_555
C21 C20 1_555 1_555
H20 C21 1_555 1_555
C22 C21 1_555 1_555
H21 C22 1_555 1_555
C23 C18 1_555 1_555
C24 C23 1_555 1_555
H22 C24 1_555 1_555
H23 C24 1_555 1_555
H24 C24 1_555 1_555
O1 S1 1_555 1_555
O2 S1 1_555 1_555
O3 C8 1_555 1_555
S1 C1 1_555 1_555
C5 C6 1_555 1_555
C16 C17 1_555 1_555
C22 C23 1_555 1_555
O3 S1 1_555 1_555

#END
