
#######################################################################
#
#                 Cambridge Crystallographic Data Centre
#                                CCDC 
#
#######################################################################
#
# If this CIF has been generated from an entry in the Cambridge 
# Structural Database, then it will include bibliographic, chemical, 
# crystal, experimental, refinement or atomic coordinate data resulting 
# from the CCDC's data processing and validation procedures.
#
#######################################################################

data_TEHFAQ
_chemical_name_common            gene919
_chemical_formula_moiety         'C22 H19 F1'
_chemical_name_systematic        
1,1'-[1-(4-fluorophenyl)but-1-ene-1,2-diyl]dibenzene
_symmetry_cell_setting           monoclinic
_symmetry_space_group_name_H-M   'P 21/n'
_symmetry_Int_Tables_number      14
_space_group_name_Hall           '-P 2yn'
loop_
_symmetry_equiv_pos_site_id
_symmetry_equiv_pos_as_xyz
1 x,y,z
2 1/2-x,1/2+y,1/2-z
3 -x,-y,-z
4 1/2+x,1/2-y,1/2+z
_cell_length_a                   10.102(3)
_cell_length_b                   8.912(3)
_cell_length_c                   18.500(6)
_cell_angle_alpha                90
_cell_angle_beta                 95.274(7)
_cell_angle_gamma                90
_cell_volume                     1658.49
_exptl_crystal_colour            colorless
_exptl_crystal_description       prism
_cell_formula_units_Z            4
loop_
_atom_site_label
_atom_site_type_symbol
_atom_site_fract_x
_atom_site_fract_y
_atom_site_fract_z
C1 C 0.3224(4) 0.4382(4) 0.61525(19)
C2 C 0.4507(4) 0.4717(5) 0.63436(19)
C3 C 0.5627(4) 0.3594(6) 0.6306(2)
H1 H 0.524279 0.261032 0.615189
H2 H 0.608839 0.346776 0.679827
C4 C 0.6653(4) 0.4052(6) 0.5782(2)
H3 H 0.620609 0.418289 0.529309
H4 H 0.733172 0.326825 0.577337
H5 H 0.707543 0.499845 0.594543
C5 C 0.4924(3) 0.6230(5) 0.6628(2)
C6 C 0.4503(4) 0.7551(5) 0.6272(2)
H6 H 0.393712 0.749029 0.583338
C7 C 0.4889(4) 0.8944(6) 0.6542(2)
H7 H 0.458437 0.982590 0.629066
C8 C 0.5711(4) 0.9056(7) 0.7173(3)
H8 H 0.597868 1.001246 0.735951
C9 C 0.6142(5) 0.7778(8) 0.7530(3)
H9 H 0.670887 0.785973 0.796684
C10 C 0.5769(4) 0.6353(6) 0.7267(2)
H10 H 0.608650 0.547828 0.751993
C11 C 0.2769(3) 0.2906(5) 0.5832(2)
C12 C 0.3299(4) 0.2280(5) 0.5233(2)
H11 H 0.398242 0.279607 0.501447
C13 C 0.2843(4) 0.0909(5) 0.4948(2)
H12 H 0.321309 0.049843 0.453774
C14 C 0.1855(4) 0.0145(5) 0.5260(2)
H13 H 0.155310 -0.079926 0.507196
C15 C 0.1301(4) 0.0768(5) 0.5855(2)
H14 H 0.061632 0.024787 0.607022
C16 C 0.1742(4) 0.2137(5) 0.6133(2)
H15 H 0.134496 0.256031 0.653133
C17 C 0.2119(3) 0.5428(4) 0.62927(19)
C18 C 0.1141(3) 0.5782(4) 0.57399(19)
H16 H 0.118948 0.536536 0.527046
C19 C 0.0096(4) 0.6735(5) 0.5862(2)
H17 H -0.056521 0.698395 0.548230
C20 C 0.0048(4) 0.7302(5) 0.6543(2)
C21 C 0.0985(4) 0.6982(5) 0.7105(2)
H18 H 0.092465 0.740587 0.757212
C22 C 0.2018(4) 0.6030(5) 0.6980(2)
H19 H 0.266678 0.578300 0.736620
F1 F -0.0982(2) 0.8247(3) 0.66673(13)
loop_
_geom_bond_atom_site_label_1
_geom_bond_atom_site_label_2
_geom_bond_site_symmetry_1
_geom_bond_site_symmetry_2
C1 C2 1_555 1_555
C2 C3 1_555 1_555
C3 H1 1_555 1_555
H2 C3 1_555 1_555
C4 C3 1_555 1_555
H3 C4 1_555 1_555
H4 C4 1_555 1_555
H5 C4 1_555 1_555
C5 C2 1_555 1_555
C6 C5 1_555 1_555
H6 C6 1_555 1_555
C7 C6 1_555 1_555
H7 C7 1_555 1_555
C8 C7 1_555 1_555
H8 C8 1_555 1_555
C9 C8 1_555 1_555
H9 C9 1_555 1_555
C10 C5 1_555 1_555
H10 C10 1_555 1_555
C11 C1 1_555 1_555
C12 C11 1_555 1_555
H11 C12 1_555 1_555
C13 C12 1_555 1_555
H12 C13 1_555 1_555
C14 C13 1_555 1_555
H13 C14 1_555 1_555
C15 C14 1_555 1_555
H14 C15 1_555 1_555
C16 C11 1_555 1_555
H15 C16 1_555 1_555
C17 C1 1_555 1_555
C18 C17 1_555 1_555
H16 C18 1_555 1_555
C19 C18 1_555 1_555
H17 C19 1_555 1_555
C20 C19 1_555 1_555
C21 C20 1_555 1_555
H18 C21 1_555 1_555
C22 C17 1_555 1_555
H19 C22 1_555 1_555
F1 C20 1_555 1_555
C9 C10 1_555 1_555
C15 C16 1_555 1_555
C21 C22 1_555 1_555

#END
