
#######################################################################
#
#                 Cambridge Crystallographic Data Centre
#                                CCDC 
#
#######################################################################
#
# If this CIF has been generated from an entry in the Cambridge 
# Structural Database, then it will include bibliographic, chemical, 
# crystal, experimental, refinement or atomic coordinate data resulting 
# from the CCDC's data processing and validation procedures.
#
#######################################################################

data_TEHGUL
_chemical_name_common            gene915
_chemical_formula_moiety         'C23 H18 F4'
_chemical_name_systematic        
1-[1-(4-fluorophenyl)-1-phenylbut-1-en-2-yl]-4-(trifluoromethyl)benzene
_symmetry_cell_setting           monoclinic
_symmetry_space_group_name_H-M   'P 21/c'
_symmetry_Int_Tables_number      14
_space_group_name_Hall           '-P 2ybc'
loop_
_symmetry_equiv_pos_site_id
_symmetry_equiv_pos_as_xyz
1 x,y,z
2 -x,1/2+y,1/2-z
3 -x,-y,-z
4 x,1/2-y,1/2+z
_cell_length_a                   9.7278(14)
_cell_length_b                   9.3897(14)
_cell_length_c                   20.371(3)
_cell_angle_alpha                90
_cell_angle_beta                 97.634(5)
_cell_angle_gamma                90
_cell_volume                     1844.22
_exptl_crystal_colour            colorless
_exptl_crystal_description       prism
_cell_formula_units_Z            4
loop_
_atom_site_label
_atom_site_type_symbol
_atom_site_fract_x
_atom_site_fract_y
_atom_site_fract_z
C1 C 0.3557(3) 0.5725(3) 0.68845(11)
C2 C 0.2291(3) 0.5496(3) 0.70617(12)
C3 C 0.0954(3) 0.5760(3) 0.66094(13)
H1 H 0.115660 0.631791 0.622111
H2 H 0.032530 0.633410 0.684828
C4 C 0.0222(3) 0.4378(4) 0.63695(16)
H3 H 0.077228 0.388040 0.607120
H4 H -0.069706 0.459854 0.613276
H5 H 0.012195 0.376857 0.675088
C5 C 0.2083(2) 0.4931(3) 0.77295(12)
C6 C 0.2474(3) 0.3561(3) 0.79193(12)
H6 H 0.290934 0.297248 0.762852
C7 C 0.2236(3) 0.3038(3) 0.85302(13)
H7 H 0.249934 0.209218 0.865493
C8 C 0.1614(3) 0.3894(3) 0.89586(12)
C9 C 0.1230(3) 0.5276(3) 0.87766(13)
H8 H 0.082253 0.587386 0.907388
C10 C 0.1442(3) 0.5777(3) 0.81628(13)
H9 H 0.114681 0.671131 0.803255
C11 C 0.1356(3) 0.3362(3) 0.96164(14)
C12 C 0.4875(3) 0.5584(3) 0.73459(11)
C13 C 0.6021(3) 0.4888(3) 0.71442(12)
H10 H 0.594725 0.448484 0.671314
C14 C 0.7255(3) 0.4777(3) 0.75609(13)
H11 H 0.801326 0.428086 0.741849
C15 C 0.7396(3) 0.5385(3) 0.81853(13)
H12 H 0.824683 0.531033 0.847175
C16 C 0.6283(3) 0.6103(3) 0.83876(12)
H13 H 0.637560 0.653443 0.881307
C17 C 0.5037(3) 0.6198(3) 0.79750(11)
H14 H 0.428018 0.668812 0.812230
C18 C 0.3722(2) 0.6219(3) 0.62022(12)
C19 C 0.3348(3) 0.5369(3) 0.56507(13)
H15 H 0.299398 0.443934 0.570508
C20 C 0.3485(3) 0.5859(4) 0.50221(13)
H16 H 0.322957 0.527801 0.464384
C21 C 0.3996(3) 0.7200(3) 0.49591(13)
C22 C 0.4401(3) 0.8060(3) 0.54864(14)
H17 H 0.476852 0.898063 0.542595
C23 C 0.4262(3) 0.7558(3) 0.61155(13)
H18 H 0.454117 0.814177 0.649053
F1 F 0.1987(2) 0.4110(3) 1.01115(8)
F2 F 0.1682(3) 0.1993(2) 0.97143(10)
F3 F 0.00114(19) 0.3408(2) 0.96958(8)
F4 F 0.41296(19) 0.7680(2) 0.43395(8)
loop_
_geom_bond_atom_site_label_1
_geom_bond_atom_site_label_2
_geom_bond_site_symmetry_1
_geom_bond_site_symmetry_2
C1 C2 1_555 1_555
C2 C3 1_555 1_555
C3 H1 1_555 1_555
H2 C3 1_555 1_555
C4 C3 1_555 1_555
H3 C4 1_555 1_555
H4 C4 1_555 1_555
H5 C4 1_555 1_555
C5 C2 1_555 1_555
C6 C5 1_555 1_555
H6 C6 1_555 1_555
C7 C6 1_555 1_555
H7 C7 1_555 1_555
C8 C7 1_555 1_555
C9 C8 1_555 1_555
H8 C9 1_555 1_555
C10 C5 1_555 1_555
H9 C10 1_555 1_555
C11 C8 1_555 1_555
C12 C1 1_555 1_555
C13 C12 1_555 1_555
H10 C13 1_555 1_555
C14 C13 1_555 1_555
H11 C14 1_555 1_555
C15 C14 1_555 1_555
H12 C15 1_555 1_555
C16 C15 1_555 1_555
H13 C16 1_555 1_555
C17 C12 1_555 1_555
H14 C17 1_555 1_555
C18 C1 1_555 1_555
C19 C18 1_555 1_555
H15 C19 1_555 1_555
C20 C19 1_555 1_555
H16 C20 1_555 1_555
C21 C20 1_555 1_555
C22 C21 1_555 1_555
H17 C22 1_555 1_555
C23 C18 1_555 1_555
H18 C23 1_555 1_555
F1 C11 1_555 1_555
F2 C11 1_555 1_555
F3 C11 1_555 1_555
F4 C21 1_555 1_555
C9 C10 1_555 1_555
C16 C17 1_555 1_555
C22 C23 1_555 1_555

#END
