
#######################################################################
#
#                 Cambridge Crystallographic Data Centre
#                                CCDC 
#
#######################################################################
#
# If this CIF has been generated from an entry in the Cambridge 
# Structural Database, then it will include bibliographic, chemical, 
# crystal, experimental, refinement or atomic coordinate data resulting 
# from the CCDC's data processing and validation procedures.
#
#######################################################################

data_TEHGEV
_chemical_name_common            gene917
_chemical_formula_moiety         'C23 H21 F1'
_chemical_name_systematic        
1-[1-(4-fluorophenyl)-1-phenylbut-1-en-2-yl]-4-methylbenzene
_symmetry_cell_setting           orthorhombic
_symmetry_space_group_name_H-M   'P 21 21 21'
_symmetry_Int_Tables_number      19
_space_group_name_Hall           'P 2ac 2ab'
loop_
_symmetry_equiv_pos_site_id
_symmetry_equiv_pos_as_xyz
1 x,y,z
2 1/2-x,-y,1/2+z
3 -x,1/2+y,1/2-z
4 1/2+x,1/2-y,-z
_cell_length_a                   31.553(3)
_cell_length_b                   5.6570(4)
_cell_length_c                   9.6179(7)
_cell_angle_alpha                90
_cell_angle_beta                 90
_cell_angle_gamma                90
_cell_volume                     1716.75
_exptl_crystal_colour            colorless
_exptl_crystal_description       blade
_cell_formula_units_Z            4
loop_
_atom_site_label
_atom_site_type_symbol
_atom_site_fract_x
_atom_site_fract_y
_atom_site_fract_z
C1 C 0.63189(10) 0.4948(6) 0.3501(4)
C2 C 0.65110(10) 0.5677(6) 0.2320(3)
C3 C 0.69893(10) 0.5869(7) 0.2191(4)
H1 H 0.711803 0.557784 0.311369
H2 H 0.706300 0.750157 0.190948
C4 C 0.71801(11) 0.4151(8) 0.1147(4)
H3 H 0.703856 0.433835 0.024697
H4 H 0.714123 0.252794 0.148036
H5 H 0.748337 0.447892 0.104219
C5 C 0.62711(10) 0.6318(6) 0.1040(3)
C6 C 0.59700(9) 0.4772(6) 0.0484(4)
H6 H 0.591457 0.331659 0.094153
C7 C 0.57513(10) 0.5319(7) -0.0720(4)
H7 H 0.554986 0.422571 -0.107450
C8 C 0.58198(10) 0.7443(6) -0.1427(4)
C9 C 0.61280(10) 0.8945(7) -0.0893(4)
H8 H 0.618696 1.038499 -0.136229
C10 C 0.63514(10) 0.8404(7) 0.0304(4)
H9 H 0.656247 0.946456 0.063063
C11 C 0.55670(11) 0.8104(8) -0.2692(4)
H10 H 0.570584 0.942074 -0.317249
H11 H 0.528091 0.857918 -0.241070
H12 H 0.554923 0.674164 -0.331937
C12 C 0.58507(10) 0.5029(6) 0.3745(3)
C13 C 0.56504(10) 0.3169(6) 0.4428(3)
H13 H 0.581152 0.182208 0.468999
C14 C 0.52200(10) 0.3238(7) 0.4735(4)
H14 H 0.508901 0.194119 0.519217
C15 C 0.49820(10) 0.5210(6) 0.4369(3)
H15 H 0.468818 0.527191 0.458138
C16 C 0.51746(10) 0.7077(7) 0.3698(3)
H16 H 0.501256 0.842612 0.344631
C17 C 0.56047(10) 0.6994(6) 0.3386(3)
H17 H 0.573345 0.829185 0.292289
C18 C 0.65581(10) 0.3914(7) 0.4698(4)
C19 C 0.67935(11) 0.1833(7) 0.4543(4)
H18 H 0.681668 0.112264 0.365123
C20 C 0.69936(11) 0.0791(7) 0.5674(4)
H19 H 0.715486 -0.061455 0.556344
C21 C 0.69533(11) 0.1832(7) 0.6948(4)
C22 C 0.67248(10) 0.3887(7) 0.7155(4)
H20 H 0.670395 0.458882 0.804955
C23 C 0.65279(10) 0.4884(7) 0.6015(4)
H21 H 0.636614 0.628426 0.613943
F1 F 0.71455(7) 0.0813(5) 0.8075(2)
loop_
_geom_bond_atom_site_label_1
_geom_bond_atom_site_label_2
_geom_bond_site_symmetry_1
_geom_bond_site_symmetry_2
C1 C2 1_555 1_555
C2 C3 1_555 1_555
C3 H1 1_555 1_555
H2 C3 1_555 1_555
C4 C3 1_555 1_555
H3 C4 1_555 1_555
H4 C4 1_555 1_555
H5 C4 1_555 1_555
C5 C2 1_555 1_555
C6 C5 1_555 1_555
H6 C6 1_555 1_555
C7 C6 1_555 1_555
H7 C7 1_555 1_555
C8 C7 1_555 1_555
C9 C8 1_555 1_555
H8 C9 1_555 1_555
C10 C5 1_555 1_555
H9 C10 1_555 1_555
C11 C8 1_555 1_555
H10 C11 1_555 1_555
H11 C11 1_555 1_555
H12 C11 1_555 1_555
C12 C1 1_555 1_555
C13 C12 1_555 1_555
H13 C13 1_555 1_555
C14 C13 1_555 1_555
H14 C14 1_555 1_555
C15 C14 1_555 1_555
H15 C15 1_555 1_555
C16 C15 1_555 1_555
H16 C16 1_555 1_555
C17 C12 1_555 1_555
H17 C17 1_555 1_555
C18 C1 1_555 1_555
C19 C18 1_555 1_555
H18 C19 1_555 1_555
C20 C19 1_555 1_555
H19 C20 1_555 1_555
C21 C20 1_555 1_555
C22 C21 1_555 1_555
H20 C22 1_555 1_555
C23 C18 1_555 1_555
H21 C23 1_555 1_555
F1 C21 1_555 1_555
C9 C10 1_555 1_555
C16 C17 1_555 1_555
C22 C23 1_555 1_555

#END
