
#######################################################################
#
#                 Cambridge Crystallographic Data Centre
#                                CCDC 
#
#######################################################################
#
# If this CIF has been generated from an entry in the Cambridge 
# Structural Database, then it will include bibliographic, chemical, 
# crystal, experimental, refinement or atomic coordinate data resulting 
# from the CCDC's data processing and validation procedures.
#
#######################################################################

data_TEHZIP03
_chemical_name_common            Itraconazole
_chemical_formula_moiety         'C35 H38 Cl2 N8 O4'
_chemical_name_systematic        
2-(butan-2-yl)-4-(4-{4-[4-({2-(2,4-dichlorophenyl)-2-[(1H-1,2,4-triazol-1-yl)methyl]-1,3-dioxolan-4-yl}methoxy)phenyl]piperazin-1-yl}phenyl)-2,4-dihydro-3H-1,2,4-triazol-3-one
_chemical_properties_biological  'antifungal activity'
_symmetry_cell_setting           triclinic
_symmetry_space_group_name_H-M   'P -1'
_symmetry_Int_Tables_number      2
_space_group_name_Hall           '-P 1'
loop_
_symmetry_equiv_pos_site_id
_symmetry_equiv_pos_as_xyz
1 x,y,z
2 -x,-y,-z
_cell_length_a                   11.1092(11)
_cell_length_b                   12.4063(12)
_cell_length_c                   25.687(2)
_cell_angle_alpha                76.410(2)
_cell_angle_beta                 89.261(2)
_cell_angle_gamma                86.455(2)
_cell_volume                     3434.58
_exptl_crystal_colour            colorless
_exptl_crystal_description       irregular
_cell_formula_units_Z            4
_exptl_crystal_preparation       'prepared by Prof. Albert Chow'
loop_
_atom_site_label
_atom_site_type_symbol
_atom_site_fract_x
_atom_site_fract_y
_atom_site_fract_z
Cl1 Cl 0.8797(3) 0.4847(3) 0.94663(14)
Cl2 Cl 0.9367(3) 0.8933(3) 0.97329(15)
O1 O 0.9357(9) 0.0642(8) 0.2170(3)
N1 N 0.9168(11) -0.1204(10) 0.2152(4)
N2 N 0.9074(11) -0.2209(9) 0.2518(4)
N3 N 0.9251(10) -0.0847(9) 0.2923(4)
N4 N 0.9320(9) 0.1356(7) 0.4608(4)
N5 N 0.8891(8) 0.2833(7) 0.5323(4)
N6 N 0.6360(8) 0.5083(7) 0.8010(4)
N7 N 0.5817(8) 0.5610(8) 0.7536(4)
N8 N 0.5965(9) 0.3751(8) 0.7620(4)
C1 C 0.780(3) -0.079(3) 0.1354(13)
H1 H 0.7252 -0.0927 0.1662
H2 H 0.7657 -0.1311 0.1130
H3 H 0.7650 -0.0028 0.1143
C2 C 0.910(3) -0.096(3) 0.1550(8)
H4 H 0.9585 -0.0323 0.1378
C3 C 0.955(2) -0.202(3) 0.1407(16)
H5 H 0.9415 -0.1975 0.1023
H6 H 0.9148 -0.2660 0.1623
C4 C 1.089(2) -0.212(2) 0.1530(11)
H7 H 1.1289 -0.2674 0.1362
H8 H 1.1011 -0.2343 0.1919
H9 H 1.1235 -0.1397 0.1390
C5 C 0.9240(13) -0.0349(13) 0.2375(5)
C6 C 0.9114(13) -0.1958(11) 0.2979(5)
H10 H 0.9056 -0.2478 0.3313
C7 C 0.9252(11) -0.0261(10) 0.3340(5)
C8 C 0.8399(12) -0.0439(11) 0.3733(5)
H11 H 0.7796 -0.0942 0.3719
C9 C 0.8386(12) 0.0097(10) 0.4153(5)
H12 H 0.7779 -0.0047 0.4421
C10 C 0.9250(11) 0.0835(10) 0.4184(5)
C11 C 1.0128(13) 0.1014(11) 0.3774(5)
H13 H 1.0742 0.1506 0.3787
C12 C 1.0115(13) 0.0491(11) 0.3354(6)
H14 H 1.0697 0.0647 0.3076
C13 C 0.8295(11) 0.1247(11) 0.4981(5)
H15 H 0.8112 0.0456 0.5097
H16 H 0.7574 0.1666 0.4795
C14 C 0.8563(12) 0.1678(10) 0.5460(5)
H17 H 0.7845 0.1615 0.5695
H18 H 0.9233 0.1208 0.5663
C15 C 0.9959(12) 0.2904(11) 0.4970(5)
H19 H 1.0648 0.2452 0.5168
H20 H 1.0184 0.3685 0.4861
C16 C 0.9696(12) 0.2494(10) 0.4486(5)
H21 H 0.9051 0.2989 0.4277
H22 H 1.0427 0.2538 0.4260
C17 C 0.898(3) 0.336(3) 0.5754(12)
C18 C 0.813(3) 0.322(3) 0.6165(13)
H23 H 0.7499 0.2743 0.6170
C19 C 0.8220(17) 0.379(2) 0.6569(10)
H24 H 0.7643 0.3697 0.6850
C20 C 0.9149(19) 0.449(2) 0.6561(9)
C21 C 0.999(2) 0.463(2) 0.6151(9)
H25 H 1.0629 0.5111 0.6146
C22 C 0.991(3) 0.406(3) 0.5747(10)
H26 H 1.0485 0.4157 0.5466
O2 O 0.9137(14) 0.5064(13) 0.6925(5)
C23 C 0.9053(19) 0.4648(11) 0.7460(5)
H27 H 0.9526 0.3927 0.7560
H28 H 0.8200 0.4516 0.7556
C24 C 0.9137(15) 0.6612(10) 0.7504(6)
H29 H 0.9715 0.7151 0.7561
H30 H 0.9045 0.6679 0.7115
C25 C 0.9538(12) 0.5474(10) 0.7781(5)
H31 H 1.0425 0.5368 0.7853
O3 O 0.8079(13) 0.6779(10) 0.7730(6)
O4 O 0.8751(17) 0.5191(11) 0.8293(5)
C26 C 0.8058(11) 0.6022(10) 0.8267(5)
C27 C 0.6783(10) 0.5695(9) 0.8374(5)
H32 H 0.6730 0.5237 0.8744
H33 H 0.6249 0.6374 0.8348
C28 C 0.6444(11) 0.3994(11) 0.8052(5)
H34 H 0.6795 0.3462 0.8347
C29 C 0.5623(11) 0.4773(12) 0.7329(5)
H35 H 0.5257 0.4880 0.6987
C30 C 0.8460(10) 0.6702(10) 0.8651(4)
C31 C 0.8400(11) 0.7842(11) 0.8472(5)
H36 H 0.8153 0.8160 0.8113
C32 C 0.8687(11) 0.8552(12) 0.8797(5)
H37 H 0.8647 0.9336 0.8667
C33 C 0.9027(11) 0.8057(10) 0.9312(5)
C34 C 0.9077(10) 0.6957(10) 0.9513(5)
H38 H 0.9309 0.6651 0.9875
C35 C 0.8782(10) 0.6266(9) 0.9180(5)
Cl3 Cl 0.6008(4) 0.7305(4) 0.9504(2)
Cl4 Cl 0.3870(4) 0.9426(4) 1.08797(18)
O8 O 0.4077(7) -0.0650(6) 0.3967(3)
N9 N 0.3965(13) 0.0023(8) 0.3050(4)
N10 N 0.3914(15) 0.1064(9) 0.2690(4)
N11 N 0.3929(9) 0.1248(7) 0.3523(4)
N12 N 0.3875(8) 0.3603(7) 0.5161(3)
N13 N 0.3156(8) 0.4661(8) 0.6007(4)
N14 N 0.3521(10) 0.4748(9) 0.9191(4)
N15 N 0.4417(10) 0.4247(9) 0.8953(4)
N16 N 0.2608(11) 0.3651(12) 0.8792(5)
C49 C 0.272(3) -0.109(3) 0.2519(13)
H57 H 0.1998 -0.1016 0.2731
H58 H 0.2775 -0.1830 0.2438
H59 H 0.2685 -0.0520 0.2184
C50 C 0.3816(19) -0.0969(17) 0.2831(9)
H60 H 0.3902 -0.1636 0.3138
C51 C 0.495(2) -0.097(2) 0.2494(10)
H61 H 0.4832 -0.0397 0.2154
H62 H 0.5087 -0.1698 0.2405
C52 C 0.607(2) -0.072(3) 0.2782(12)
H63 H 0.6797 -0.0854 0.2578
H64 H 0.6124 -0.1208 0.3142
H65 H 0.6011 0.0057 0.2808
C53 C 0.4002(12) 0.0104(10) 0.3558(5)
C54 C 0.3899(15) 0.1759(11) 0.2992(5)
H66 H 0.3870 0.2542 0.2860
C55 C 0.3882(10) 0.1810(9) 0.3947(4)
C56 C 0.3287(10) 0.2845(9) 0.3877(5)
H67 H 0.2888 0.3167 0.3548
C57 C 0.3259(10) 0.3420(10) 0.4274(4)
H68 H 0.2841 0.4129 0.4212
C58 C 0.3829(10) 0.2990(9) 0.4765(4)
C59 C 0.4439(10) 0.1929(9) 0.4840(5)
H69 H 0.4831 0.1603 0.5171
C60 C 0.4469(10) 0.1362(10) 0.4433(4)
H70 H 0.4897 0.0658 0.4487
C61 C 0.3184(10) 0.4668(9) 0.5054(4)
H71 H 0.2315 0.4538 0.5045
H72 H 0.3408 0.5112 0.4697
C62 C 0.3395(11) 0.5324(10) 0.5472(5)
H73 H 0.4241 0.5540 0.5451
H74 H 0.2860 0.6010 0.5398
C63 C 0.3962(11) 0.3656(10) 0.6112(5)
H75 H 0.3824 0.3211 0.6479
H76 H 0.4811 0.3864 0.6087
C64 C 0.3743(12) 0.2973(10) 0.5715(5)
H77 H 0.4321 0.2315 0.5783
H78 H 0.2919 0.2706 0.5766
C65 C 0.302(2) 0.5057(16) 0.6492(7)
C66 C 0.320(2) 0.6177(15) 0.6435(6)
H79 H 0.3398 0.6623 0.6094
C67 C 0.309(2) 0.6646(12) 0.6875(7)
H80 H 0.3215 0.7411 0.6836
C68 C 0.280(2) 0.5994(15) 0.7374(6)
C69 C 0.2614(19) 0.4874(15) 0.7431(6)
H81 H 0.2415 0.4429 0.7772
C70 C 0.272(2) 0.4406(13) 0.6990(8)
H82 H 0.2598 0.3640 0.7029
O9 O 0.2640(14) 0.6481(11) 0.7822(5)
C71 C 0.2991(17) 0.7500(13) 0.7836(5)
H83 H 0.2513 0.8073 0.7573
H84 H 0.3851 0.7555 0.7734
C72 C 0.1651(12) 0.7308(15) 0.8625(6)
H85 H 0.1101 0.7917 0.8694
H86 H 0.1257 0.6947 0.8372
C73 C 0.2810(13) 0.7724(10) 0.8413(5)
H87 H 0.2911 0.8513 0.8426
O10 O 0.1950(12) 0.6575(12) 0.9078(5)
O11 O 0.3792(10) 0.6891(12) 0.8728(5)
C74 C 0.3456(13) 0.6740(11) 0.9225(5)
C75 C 0.3766(11) 0.5538(10) 0.9494(5)
H88 H 0.4635 0.5454 0.9584
H89 H 0.3313 0.5354 0.9834
C76 C 0.2476(15) 0.4364(12) 0.9089(6)
H90 H 0.1720 0.4588 0.9219
C77 C 0.3807(15) 0.3608(13) 0.8719(6)
H91 H 0.4193 0.3147 0.8511
C78 C 0.3597(12) 0.7485(10) 0.9603(4)
C79 C 0.2569(13) 0.7822(11) 0.9859(5)
H92 H 0.1803 0.7619 0.9767
C80 C 0.2631(14) 0.8441(12) 1.0241(6)
H93 H 0.1920 0.8688 1.0399
C81 C 0.3766(12) 0.8693(11) 1.0387(5)
C82 C 0.4798(13) 0.8334(11) 1.0154(5)
H94 H 0.5575 0.8490 1.0257
C83 C 0.4670(13) 0.7751(11) 0.9772(5)
C36? C 1.001(3) -0.182(3) 0.1383(16)
H39? H 1.0751 -0.1511 0.1466
H40? H 0.9939 -0.1727 0.0995
H41? H 1.0019 -0.2611 0.1560
C37? C 0.894(3) -0.122(3) 0.1580(9)
H42? H 0.9143 -0.0442 0.1409
C38? C 0.760(3) -0.110(4) 0.1478(10)
H43? H 0.7231 -0.1822 0.1590
H44? H 0.7201 -0.0578 0.1678
C39? C 0.746(3) -0.065(3) 0.0896(9)
H45? H 0.7722 -0.1224 0.0708
H46? H 0.7961 -0.0009 0.0782
H47? H 0.6615 -0.0411 0.0811
C40? C 0.896(3) 0.338(3) 0.5780(13)
C41? C 0.799(3) 0.322(3) 0.6131(13)
H48? H 0.7375 0.2746 0.6087
C42? C 0.7908(17) 0.376(2) 0.6548(10)
H49? H 0.7245 0.3657 0.6788
C43? C 0.8800(19) 0.446(2) 0.6613(9)
C44? C 0.9770(19) 0.461(2) 0.6262(9)
H50? H 1.0380 0.5086 0.6306
C45? C 0.985(3) 0.407(3) 0.5845(10)
H51? H 1.0511 0.4175 0.5605
O5? O 0.8666(13) 0.5007(13) 0.7083(5)
C46? C 0.9470(15) 0.5793(14) 0.7064(5)
H52? H 0.9206 0.6473 0.6794
H53? H 1.0267 0.5521 0.6954
C47? C 0.9877(15) 0.5052(14) 0.8031(6)
H54? H 1.0081 0.4428 0.7859
H55? H 1.0565 0.5137 0.8256
C48? C 0.9588(12) 0.6081(10) 0.7628(5)
H56? H 1.0159 0.6673 0.7628
O6? O 0.8880(16) 0.4878(11) 0.8321(6)
O7? O 0.8259(13) 0.6436(11) 0.7726(6)
C84? C 0.365(2) -0.090(2) 0.2375(9)
H95? H 0.3808 -0.1573 0.2230
H96? H 0.3821 -0.0242 0.2089
C85? C 0.4449(19) -0.0971(17) 0.2849(9)
H97? H 0.4268 -0.1655 0.3125
C86? C 0.575(2) -0.110(2) 0.2682(12)
H98? H 0.5993 -0.0394 0.2453
H99? H 0.5845 -0.1682 0.2483
H100? H 0.6270 -0.1299 0.3001
C87? C 0.235(2) -0.083(3) 0.2551(14)
H101? H 0.1824 -0.0691 0.2237
H102? H 0.2231 -0.0216 0.2731
H103? H 0.2166 -0.1526 0.2799
C88? C 0.311(2) 0.5356(13) 0.6397(6)
C89? C 0.336(2) 0.6468(13) 0.6300(6)
H104? H 0.3620 0.6846 0.5955
C90? C 0.324(2) 0.7028(11) 0.6709(7)
H105? H 0.3416 0.7789 0.6644
C91? C 0.286(2) 0.6476(14) 0.7214(6)
C92? C 0.261(2) 0.5364(14) 0.7311(5)
H106? H 0.2352 0.4986 0.7656
C93? C 0.273(2) 0.4804(10) 0.6902(7)
H107? H 0.2556 0.4044 0.6968
O12? O 0.2834(14) 0.7394(12) 0.7473(4)
C94? C 0.3111(17) 0.6859(11) 0.7984(5)
H108? H 0.3891 0.6425 0.7991
H109? H 0.2484 0.6334 0.8126
C95? C 0.2108(13) 0.7654(14) 0.8686(6)
H110? H 0.1922 0.8363 0.8792
H111? H 0.1404 0.7478 0.8496
C96? C 0.3197(13) 0.7712(10) 0.8351(4)
H112? H 0.3365 0.8481 0.8150
O13? O 0.2402(12) 0.6836(13) 0.9110(5)
O14? O 0.4229(9) 0.7120(12) 0.8735(5)
loop_
_geom_bond_atom_site_label_1
_geom_bond_atom_site_label_2
_geom_bond_site_symmetry_1
_geom_bond_site_symmetry_2
Cl1 C35 1_555 1_555
Cl2 C33 1_555 1_555
O1 C5 1_555 1_555
N1 N2 1_555 1_555
N2 C6 1_555 1_555
N3 C5 1_555 1_555
N4 C10 1_555 1_555
N5 C14 1_555 1_555
N6 N7 1_555 1_555
N7 C29 1_555 1_555
N8 C28 1_555 1_555
C1 H1 1_555 1_555
H2 C1 1_555 1_555
H3 C1 1_555 1_555
C2 N1 1_555 1_555
H4 C2 1_555 1_555
C3 C2 1_555 1_555
H5 C3 1_555 1_555
H6 C3 1_555 1_555
C4 C3 1_555 1_555
H7 C4 1_555 1_555
H8 C4 1_555 1_555
H9 C4 1_555 1_555
C5 N1 1_555 1_555
C6 N3 1_555 1_555
H10 C6 1_555 1_555
C7 N3 1_555 1_555
C8 C7 1_555 1_555
H11 C8 1_555 1_555
C9 C8 1_555 1_555
H12 C9 1_555 1_555
C10 C9 1_555 1_555
C11 C10 1_555 1_555
H13 C11 1_555 1_555
C12 C7 1_555 1_555
H14 C12 1_555 1_555
C13 N4 1_555 1_555
H15 C13 1_555 1_555
H16 C13 1_555 1_555
C14 C13 1_555 1_555
H17 C14 1_555 1_555
H18 C14 1_555 1_555
C15 N5 1_555 1_555
H19 C15 1_555 1_555
H20 C15 1_555 1_555
C16 N4 1_555 1_555
H21 C16 1_555 1_555
H22 C16 1_555 1_555
C17 N5 1_555 1_555
C18 C17 1_555 1_555
H23 C18 1_555 1_555
C19 C18 1_555 1_555
H24 C19 1_555 1_555
C20 C19 1_555 1_555
C21 C20 1_555 1_555
H25 C21 1_555 1_555
C22 C17 1_555 1_555
H26 C22 1_555 1_555
O2 C20 1_555 1_555
C23 O2 1_555 1_555
H27 C23 1_555 1_555
H28 C23 1_555 1_555
C24 H29 1_555 1_555
H30 C24 1_555 1_555
C25 C23 1_555 1_555
H31 C25 1_555 1_555
O3 C24 1_555 1_555
O4 C25 1_555 1_555
C26 O3 1_555 1_555
C27 N6 1_555 1_555
H32 C27 1_555 1_555
H33 C27 1_555 1_555
C28 N6 1_555 1_555
H34 C28 1_555 1_555
C29 N8 1_555 1_555
H35 C29 1_555 1_555
C30 C26 1_555 1_555
C31 C30 1_555 1_555
H36 C31 1_555 1_555
C32 C31 1_555 1_555
H37 C32 1_555 1_555
C33 C32 1_555 1_555
C34 C33 1_555 1_555
H38 C34 1_555 1_555
C35 C30 1_555 1_555
Cl3 C83 1_555 1_555
Cl4 C81 1_555 1_555
O8 C53 1_555 1_555
N9 N10 1_555 1_555
N10 C54 1_555 1_555
N11 C53 1_555 1_555
N12 C58 1_555 1_555
N13 C62 1_555 1_555
N14 N15 1_555 1_555
N15 C77 1_555 1_555
N16 C76 1_555 1_555
C49 H57 1_555 1_555
H58 C49 1_555 1_555
H59 C49 1_555 1_555
C50 N9 1_555 1_555
H60 C50 1_555 1_555
C51 C50 1_555 1_555
H61 C51 1_555 1_555
H62 C51 1_555 1_555
C52 C51 1_555 1_555
H63 C52 1_555 1_555
H64 C52 1_555 1_555
H65 C52 1_555 1_555
C53 N9 1_555 1_555
C54 N11 1_555 1_555
H66 C54 1_555 1_555
C55 N11 1_555 1_555
C56 C55 1_555 1_555
H67 C56 1_555 1_555
C57 C56 1_555 1_555
H68 C57 1_555 1_555
C58 C57 1_555 1_555
C59 C58 1_555 1_555
H69 C59 1_555 1_555
C60 C55 1_555 1_555
H70 C60 1_555 1_555
C61 N12 1_555 1_555
H71 C61 1_555 1_555
H72 C61 1_555 1_555
C62 C61 1_555 1_555
H73 C62 1_555 1_555
H74 C62 1_555 1_555
C63 N13 1_555 1_555
H75 C63 1_555 1_555
H76 C63 1_555 1_555
C64 N12 1_555 1_555
H77 C64 1_555 1_555
H78 C64 1_555 1_555
C65 N13 1_555 1_555
C66 C65 1_555 1_555
H79 C66 1_555 1_555
C67 C66 1_555 1_555
H80 C67 1_555 1_555
C68 C67 1_555 1_555
C69 C68 1_555 1_555
H81 C69 1_555 1_555
C70 C65 1_555 1_555
H82 C70 1_555 1_555
O9 C68 1_555 1_555
C71 O9 1_555 1_555
H83 C71 1_555 1_555
H84 C71 1_555 1_555
C72 H85 1_555 1_555
H86 C72 1_555 1_555
C73 C71 1_555 1_555
H87 C73 1_555 1_555
O10 C72 1_555 1_555
O11 C73 1_555 1_555
C74 O10 1_555 1_555
C75 N14 1_555 1_555
H88 C75 1_555 1_555
H89 C75 1_555 1_555
C76 N14 1_555 1_555
H90 C76 1_555 1_555
C77 N16 1_555 1_555
H91 C77 1_555 1_555
C78 C74 1_555 1_555
C79 C78 1_555 1_555
H92 C79 1_555 1_555
C80 C79 1_555 1_555
H93 C80 1_555 1_555
C81 C80 1_555 1_555
C82 C81 1_555 1_555
H94 C82 1_555 1_555
C83 C78 1_555 1_555
C1 C2 1_555 1_555
C11 C12 1_555 1_555
C15 C16 1_555 1_555
C21 C22 1_555 1_555
C24 C25 1_555 1_555
O4 C26 1_555 1_555
C26 C27 1_555 1_555
C34 C35 1_555 1_555
C49 C50 1_555 1_555
C59 C60 1_555 1_555
C63 C64 1_555 1_555
C69 C70 1_555 1_555
C72 C73 1_555 1_555
O11 C74 1_555 1_555
C74 C75 1_555 1_555
C82 C83 1_555 1_555

#END
