
#######################################################################
#
#                 Cambridge Crystallographic Data Centre
#                                CCDC 
#
#######################################################################
#
# If this CIF has been generated from an entry in the Cambridge 
# Structural Database, then it will include bibliographic, chemical, 
# crystal, experimental, refinement or atomic coordinate data resulting 
# from the CCDC's data processing and validation procedures.
#
#######################################################################

data_TEJHOI
_chemical_formula_moiety         'C25 H22 S2 2+,2(C1 F3 O3 S1 1-)'
_chemical_name_systematic        
'methylenebis(diphenylsulfanium) bis(trifluoromethanesulfonate)'
_symmetry_cell_setting           monoclinic
_symmetry_space_group_name_H-M   'P 21/n'
_symmetry_Int_Tables_number      14
_space_group_name_Hall           '-P 2yn'
loop_
_symmetry_equiv_pos_site_id
_symmetry_equiv_pos_as_xyz
1 x,y,z
2 1/2-x,1/2+y,1/2-z
3 -x,-y,-z
4 1/2+x,1/2-y,1/2+z
_cell_length_a                   17.0996(8)
_cell_length_b                   9.8499(4)
_cell_length_c                   17.8258(7)
_cell_angle_alpha                90
_cell_angle_beta                 95.7997(14)
_cell_angle_gamma                90
_cell_volume                     2987.02
_exptl_crystal_colour            colorless
_exptl_crystal_description       block
_chemical_melting_point          '477-478 K'
_cell_formula_units_Z            4
_exptl_crystal_recrystallization_method 'acetone/ diethylether'
loop_
_atom_site_label
_atom_site_type_symbol
_atom_site_fract_x
_atom_site_fract_y
_atom_site_fract_z
S1 S 0.85371(3) 0.13124(5) 0.42430(3)
C1 C 0.79239(12) 0.1732(2) 0.49846(11)
H1 H 0.7572(14) 0.240(2) 0.4840(12)
H2 H 0.8273(14) 0.198(2) 0.5392(13)
S2 S 0.74643(3) 0.01474(5) 0.52260(3)
C2 C 0.79289(12) 0.1519(2) 0.33757(11)
C3 C 0.82261(14) 0.0888(3) 0.27741(12)
H3 H 0.869758 0.037311 0.284594
C4 C 0.78235(17) 0.1020(3) 0.20636(13)
H4 H 0.802618 0.061327 0.164036
C5 C 0.71307(15) 0.1738(3) 0.19700(13)
H5 H 0.685602 0.182159 0.148168
C6 C 0.68331(15) 0.2335(2) 0.25764(13)
H6 H 0.634782 0.281009 0.250634
C7 C 0.72363(14) 0.2249(2) 0.32929(12)
H7 H 0.704084 0.268005 0.371268
C8 C 0.92280(11) 0.2665(2) 0.42438(10)
C9 C 0.99847(12) 0.2320(2) 0.45310(12)
H8 H 1.009644 0.145517 0.475169
C10 C 1.05761(13) 0.3277(3) 0.44875(14)
H9 H 1.109987 0.307055 0.468382
C11 C 1.04046(13) 0.4520(2) 0.41607(13)
H10 H 1.081347 0.516423 0.412816
C12 C 0.96451(14) 0.4846(2) 0.38792(13)
H11 H 0.953558 0.571102 0.365784
C13 C 0.90423(13) 0.3916(2) 0.39182(13)
H12 H 0.851786 0.412995 0.372746
C14 C 0.65933(13) 0.0121(2) 0.45847(13)
C15 C 0.65880(17) -0.0835(3) 0.40171(15)
H13 H 0.700788 -0.146388 0.400453
C16 C 0.5954(2) -0.0855(3) 0.3466(2)
H14 H 0.594048 -0.149499 0.306604
C17 C 0.5351(2) 0.0041(4) 0.3497(2)
H15 H 0.492024 0.002010 0.311661
C18 C 0.53566(17) 0.0974(4) 0.4071(2)
H16 H 0.492949 0.158709 0.408515
C19 C 0.59846(14) 0.1025(3) 0.46298(16)
H17 H 0.599386 0.166321 0.503030
C20 C 0.71498(12) 0.0494(2) 0.61255(12)
C21 C 0.70381(14) -0.0650(3) 0.65580(14)
H18 H 0.713288 -0.153407 0.637366
C22 C 0.67845(16) -0.0468(4) 0.72657(16)
H19 H 0.669978 -0.123338 0.757167
C23 C 0.66562(15) 0.0813(4) 0.75240(14)
H20 H 0.648151 0.092779 0.800934
C24 C 0.67763(15) 0.1942(3) 0.70916(14)
H21 H 0.668630 0.282293 0.728201
C25 C 0.70281(14) 0.1795(3) 0.63791(13)
H22 H 0.711375 0.256441 0.607624
S3 S 0.95580(3) 0.11781(6) 0.64695(3)
O1 O 0.91213(12) 0.02427(19) 0.59720(11)
O2 O 0.91940(11) 0.24876(18) 0.64749(12)
O3 O 1.03925(10) 0.1167(2) 0.64253(9)
C26 C 0.94667(17) 0.0500(4) 0.73993(17)
F1 F 0.97414(13) -0.0768(3) 0.74604(16)
F2 F 0.98781(13) 0.1233(3) 0.79178(10)
F3 F 0.87238(11) 0.0486(3) 0.75575(12)
S4 S 0.71983(3) 0.54637(5) 0.51676(3)
O4 O 0.72127(17) 0.4526(2) 0.45650(11)
C27 C 0.6163(2) 0.5653(4) 0.5216(3)
F4 F 0.58580(14) 0.4505(3) 0.5420(2)
O5 O 0.75059(15) 0.4903(2) 0.58678(11)
O6 O 0.74449(11) 0.6803(2) 0.49924(14)
F5 F 0.58076(12) 0.6094(3) 0.4568(2)
F6 F 0.6023(2) 0.6530(4) 0.5736(3)
loop_
_geom_bond_atom_site_label_1
_geom_bond_atom_site_label_2
_geom_bond_site_symmetry_1
_geom_bond_site_symmetry_2
S1 C1 1_555 1_555
C1 H1 1_555 1_555
H2 C1 1_555 1_555
S2 C1 1_555 1_555
C2 S1 1_555 1_555
C3 C2 1_555 1_555
H3 C3 1_555 1_555
C4 C3 1_555 1_555
H4 C4 1_555 1_555
C5 C4 1_555 1_555
H5 C5 1_555 1_555
C6 C5 1_555 1_555
H6 C6 1_555 1_555
C7 C2 1_555 1_555
H7 C7 1_555 1_555
C8 S1 1_555 1_555
C9 C8 1_555 1_555
H8 C9 1_555 1_555
C10 C9 1_555 1_555
H9 C10 1_555 1_555
C11 C10 1_555 1_555
H10 C11 1_555 1_555
C12 C11 1_555 1_555
H11 C12 1_555 1_555
C13 C8 1_555 1_555
H12 C13 1_555 1_555
C14 S2 1_555 1_555
C15 C14 1_555 1_555
H13 C15 1_555 1_555
C16 C15 1_555 1_555
H14 C16 1_555 1_555
C17 C16 1_555 1_555
H15 C17 1_555 1_555
C18 C17 1_555 1_555
H16 C18 1_555 1_555
C19 C14 1_555 1_555
H17 C19 1_555 1_555
C20 S2 1_555 1_555
C21 C20 1_555 1_555
H18 C21 1_555 1_555
C22 C21 1_555 1_555
H19 C22 1_555 1_555
C23 C22 1_555 1_555
H20 C23 1_555 1_555
C24 C23 1_555 1_555
H21 C24 1_555 1_555
C25 C20 1_555 1_555
H22 C25 1_555 1_555
S3 O1 1_555 1_555
O2 S3 1_555 1_555
O3 S3 1_555 1_555
C26 S3 1_555 1_555
F1 C26 1_555 1_555
F2 C26 1_555 1_555
F3 C26 1_555 1_555
S4 O4 1_555 1_555
C27 S4 1_555 1_555
F4 C27 1_555 1_555
O5 S4 1_555 1_555
O6 S4 1_555 1_555
F5 C27 1_555 1_555
F6 C27 1_555 1_555
C6 C7 1_555 1_555
C12 C13 1_555 1_555
C18 C19 1_555 1_555
C24 C25 1_555 1_555

#END
