
#######################################################################
#
#                 Cambridge Crystallographic Data Centre
#                                CCDC 
#
#######################################################################
#
# If this CIF has been generated from an entry in the Cambridge 
# Structural Database, then it will include bibliographic, chemical, 
# crystal, experimental, refinement or atomic coordinate data resulting 
# from the CCDC's data processing and validation procedures.
#
#######################################################################

data_TEJJID
_chemical_name_common            
(2R,3R)-1-((1S)-1-(4-Methoxyphenyl)ethyl)-2-phenyl-3-hydroxyazetidine
_chemical_formula_moiety         'C18 H21 N1 O2'
_chemical_name_systematic        
(2R,3R)-1-((S)-1-(4-Methoxyphenyl)ethyl)-2-phenylazetidin-3-ol
_symmetry_cell_setting           monoclinic
_symmetry_space_group_name_H-M   'P 21'
_symmetry_Int_Tables_number      4
_space_group_name_Hall           'P 2yb'
loop_
_symmetry_equiv_pos_site_id
_symmetry_equiv_pos_as_xyz
1 x,y,z
2 -x,1/2+y,-z
_cell_length_a                   10.3117(6)
_cell_length_b                   7.3261(3)
_cell_length_c                   10.5576(6)
_cell_angle_alpha                90
_cell_angle_beta                 106.431(2)
_cell_angle_gamma                90
_cell_volume                     764.997
_exptl_crystal_colour            colorless
_exptl_crystal_description       block
_cell_formula_units_Z            2
loop_
_atom_site_label
_atom_site_type_symbol
_atom_site_fract_x
_atom_site_fract_y
_atom_site_fract_z
O1 O 0.47305(10) 0.43279(13) 0.53041(8)
H1 H 0.4766(16) 0.539(3) 0.5785(17)
O2 O 0.06291(10) -0.17904(16) -0.12313(10)
N1 N 0.52173(10) 0.23944(14) 0.30722(10)
C1 C 0.39438(13) 0.34313(19) 0.29883(12)
H2 H 0.3268 0.2726 0.3291
H3 H 0.3529 0.3982 0.2111
C2 C 0.47521(14) 0.47919(17) 0.40163(12)
H4 H 0.4535 0.6101 0.3781
C3 C 0.60095(13) 0.40692(17) 0.36408(12)
H5 H 0.6144 0.4827 0.2900
C4 C 0.73391(13) 0.39051(19) 0.46883(12)
C5 C 0.78360(14) 0.2280(2) 0.53206(13)
H6 H 0.7336 0.1183 0.5078
C6 C 0.90634(14) 0.2248(2) 0.63087(14)
H7 H 0.9396 0.1132 0.6737
C7 C 0.97991(15) 0.3841(3) 0.66660(14)
H8 H 1.0634 0.3819 0.7341
C8 C 0.93187(16) 0.5465(2) 0.60397(15)
H9 H 0.9825 0.6557 0.6283
C9 C 0.80952(15) 0.5500(2) 0.50534(14)
H10 H 0.7771 0.6618 0.4624
C10 C 0.53929(13) 0.17764(18) 0.17939(12)
H11 H 0.5476 0.2885 0.1270
C11 C 0.67014(14) 0.0699(2) 0.20442(13)
H12 H 0.7458 0.1453 0.2546
H13 H 0.6848 0.0354 0.1198
H14 H 0.6642 -0.0404 0.2550
C12 C 0.41620(13) 0.07158(18) 0.10171(11)
C13 C 0.35223(13) 0.12151(18) -0.02839(12)
H15 H 0.3889 0.2180 -0.0676
C14 C 0.23637(13) 0.03356(18) -0.10176(12)
H16 H 0.1948 0.0692 -0.1905
C15 C 0.18120(13) -0.10661(19) -0.04535(12)
C16 C 0.24468(14) -0.16255(19) 0.08305(13)
H17 H 0.2088 -0.2609 0.1212
C17 C 0.36167(15) -0.07294(18) 0.15538(13)
H18 H 0.4050 -0.1114 0.2431
C18 C -0.00281(17) -0.3108(2) -0.06426(16)
H19 H -0.0881 -0.3473 -0.1277
H20 H -0.0214 -0.2580 0.0141
H21 H 0.0556 -0.4179 -0.0385
loop_
_geom_bond_atom_site_label_1
_geom_bond_atom_site_label_2
_geom_bond_site_symmetry_1
_geom_bond_site_symmetry_2
O1 H1 1_555 1_555
O2 C15 1_555 1_555
N1 C1 1_555 1_555
C1 H2 1_555 1_555
H3 C1 1_555 1_555
C2 O1 1_555 1_555
H4 C2 1_555 1_555
C3 N1 1_555 1_555
H5 C3 1_555 1_555
C4 C3 1_555 1_555
C5 C4 1_555 1_555
H6 C5 1_555 1_555
C6 C5 1_555 1_555
H7 C6 1_555 1_555
C7 C6 1_555 1_555
H8 C7 1_555 1_555
C8 C7 1_555 1_555
H9 C8 1_555 1_555
C9 C4 1_555 1_555
H10 C9 1_555 1_555
C10 N1 1_555 1_555
H11 C10 1_555 1_555
C11 C10 1_555 1_555
H12 C11 1_555 1_555
H13 C11 1_555 1_555
H14 C11 1_555 1_555
C12 C10 1_555 1_555
C13 C12 1_555 1_555
H15 C13 1_555 1_555
C14 C13 1_555 1_555
H16 C14 1_555 1_555
C15 C14 1_555 1_555
C16 C15 1_555 1_555
H17 C16 1_555 1_555
C17 C12 1_555 1_555
H18 C17 1_555 1_555
C18 O2 1_555 1_555
H19 C18 1_555 1_555
H20 C18 1_555 1_555
H21 C18 1_555 1_555
C1 C2 1_555 1_555
C2 C3 1_555 1_555
C8 C9 1_555 1_555
C16 C17 1_555 1_555

#END
