
#######################################################################
#
#                 Cambridge Crystallographic Data Centre
#                                CCDC 
#
#######################################################################
#
# If this CIF has been generated from an entry in the Cambridge 
# Structural Database, then it will include bibliographic, chemical, 
# crystal, experimental, refinement or atomic coordinate data resulting 
# from the CCDC's data processing and validation procedures.
#
#######################################################################

data_TEJRIK
_chemical_formula_moiety         'C17 H20 O6 S2'
_chemical_name_systematic        Propane-1,3-diylbis(p-toluenesulfonate)
_symmetry_cell_setting           monoclinic
_symmetry_space_group_name_H-M   'C 2/c'
_symmetry_Int_Tables_number      15
_space_group_name_Hall           '-C 2yn'
loop_
_symmetry_equiv_pos_site_id
_symmetry_equiv_pos_as_xyz
1 x,y,z
2 1/2+x,1/2+y,z
3 -x,y,1/2-z
4 1/2-x,1/2+y,1/2-z
5 -x,-y,-z
6 1/2-x,1/2-y,-z
7 x,-y,1/2+z
8 1/2+x,1/2-y,1/2+z
_cell_length_a                   14.8505(19)
_cell_length_b                   5.4005(7)
_cell_length_c                   23.582(3)
_cell_angle_alpha                90
_cell_angle_beta                 100.824(2)
_cell_angle_gamma                90
_cell_volume                     1857.63
_exptl_crystal_colour            colorless
_exptl_crystal_description       prism
_cell_formula_units_Z            4
_exptl_crystal_recrystallization_method 'diethyl ether/ethanol'
loop_
_atom_site_label
_atom_site_type_symbol
_atom_site_fract_x
_atom_site_fract_y
_atom_site_fract_z
S1 S 0.65922(5) 0.03898(12) 0.34181(3)
O1 O 0.57688(11) 0.2128(3) 0.31537(7)
O2 O 0.69097(14) -0.0871(3) 0.29633(8)
O3 O 0.62442(14) -0.0963(4) 0.38454(9)
C1 C 0.74462(16) 0.2446(4) 0.37480(10)
C2 C 0.8171(2) 0.2951(5) 0.34952(12)
H1 H 0.8227 0.2191 0.3149
C3 C 0.8829(2) 0.4609(6) 0.37568(14)
H2 H 0.9327 0.4940 0.3582
C4 C 0.8775(2) 0.5757(5) 0.42536(14)
C5 C 0.8040(3) 0.5224(6) 0.44996(14)
H3 H 0.7988 0.5981 0.4846
C6 C 0.7372(2) 0.3598(6) 0.42492(14)
H4 H 0.6871 0.3284 0.4422
C7 C 0.9478(2) 0.7645(5) 0.45309(15)
H5 H 1.0065 0.7249 0.4439
H6 H 0.9522 0.7614 0.4942
H7 H 0.9294 0.9266 0.4387
C8 C 0.58641(17) 0.3624(4) 0.26585(11)
H8 H 0.5942 0.2572 0.2338
H9 H 0.6395 0.4697 0.2753
C9 C 0.5000 0.5150(6) 0.2500
H10 H 0.5056 0.6210 0.2176
H11 H 0.4944 0.6210 0.2824
S1B S 0.34078(5) 0.03898(12) 0.15819(3)
O1B O 0.42312(11) 0.2128(3) 0.18463(7)
O2B O 0.30903(14) -0.0871(3) 0.20367(8)
O3B O 0.37558(14) -0.0963(4) 0.11546(9)
C1B C 0.25538(16) 0.2446(4) 0.12520(10)
C2B C 0.1829(2) 0.2951(5) 0.15048(12)
H1B H 0.1773 0.2191 0.1851
C3B C 0.1171(2) 0.4609(6) 0.12432(14)
H2B H 0.0673 0.4940 0.1418
C4B C 0.1225(2) 0.5757(5) 0.07464(14)
C5B C 0.1960(3) 0.5224(6) 0.05004(14)
H3B H 0.2012 0.5981 0.0154
C6B C 0.2628(2) 0.3598(6) 0.07508(14)
H4B H 0.3129 0.3284 0.0578
C7B C 0.0522(2) 0.7645(5) 0.04691(15)
H5B H -0.0065 0.7249 0.0561
H6B H 0.0478 0.7614 0.0058
H7B H 0.0706 0.9266 0.0613
C8B C 0.41359(17) 0.3624(4) 0.23415(11)
H8B H 0.4058 0.2572 0.2662
H9B H 0.3605 0.4697 0.2247
loop_
_geom_bond_atom_site_label_1
_geom_bond_atom_site_label_2
_geom_bond_site_symmetry_1
_geom_bond_site_symmetry_2
S1 O1 1_555 1_555
O1 C8 1_555 1_555
O2 S1 1_555 1_555
O3 S1 1_555 1_555
C1 S1 1_555 1_555
C2 C1 1_555 1_555
H1 C2 1_555 1_555
C3 C2 1_555 1_555
H2 C3 1_555 1_555
C4 C3 1_555 1_555
C5 C4 1_555 1_555
H3 C5 1_555 1_555
C6 C1 1_555 1_555
H4 C6 1_555 1_555
C7 C4 1_555 1_555
H5 C7 1_555 1_555
H6 C7 1_555 1_555
H7 C7 1_555 1_555
C8 H8 1_555 1_555
H9 C8 1_555 1_555
C9 C8 1_555 1_555
H10 C9 1_555 1_555
H11 C9 1_555 1_555
S1B O1B 1_555 1_555
O1B C8B 1_555 1_555
O2B S1B 1_555 1_555
O3B S1B 1_555 1_555
C1B S1B 1_555 1_555
C2B C1B 1_555 1_555
H1B C2B 1_555 1_555
C3B C2B 1_555 1_555
H2B C3B 1_555 1_555
C4B C3B 1_555 1_555
C5B C4B 1_555 1_555
H3B C5B 1_555 1_555
C6B C1B 1_555 1_555
H4B C6B 1_555 1_555
C7B C4B 1_555 1_555
H5B C7B 1_555 1_555
H6B C7B 1_555 1_555
H7B C7B 1_555 1_555
C8B C9 1_555 1_555
H8B C8B 1_555 1_555
H9B C8B 1_555 1_555
C5 C6 1_555 1_555
C5B C6B 1_555 1_555

#END
