
#######################################################################
#
#                 Cambridge Crystallographic Data Centre
#                                CCDC 
#
#######################################################################
#
# If this CIF has been generated from an entry in the Cambridge 
# Structural Database, then it will include bibliographic, chemical, 
# crystal, experimental, refinement or atomic coordinate data resulting 
# from the CCDC's data processing and validation procedures.
#
#######################################################################

data_TEKCUK
_chemical_formula_moiety         'C21 H14 N2 O2'
_chemical_name_systematic        
2-hydroxy-12-phenylindolizino[1,2-b]quinolin-9(11H)-one
_symmetry_cell_setting           tetragonal
_symmetry_space_group_name_H-M   'P 42/n'
_symmetry_Int_Tables_number      86
_space_group_name_Hall           '-P 4bc'
loop_
_symmetry_equiv_pos_site_id
_symmetry_equiv_pos_as_xyz
1 x,y,z
2 1/2-x,1/2-y,z
3 -y,1/2+x,1/2+z
4 1/2+y,-x,1/2+z
5 -x,-y,-z
6 1/2+x,1/2+y,-z
7 y,1/2-x,1/2-z
8 1/2-y,x,1/2-z
_cell_length_a                   21.0375(5)
_cell_length_b                   21.0375(5)
_cell_length_c                   7.1448(2)
_cell_angle_alpha                90
_cell_angle_beta                 90
_cell_angle_gamma                90
_cell_volume                     3162.12
_exptl_crystal_colour            yellow
_exptl_crystal_description       block
_cell_formula_units_Z            8
loop_
_atom_site_label
_atom_site_type_symbol
_atom_site_fract_x
_atom_site_fract_y
_atom_site_fract_z
O1 O 0.74022(7) 0.57750(7) 0.5071(2)
C1 C 0.68982(10) 0.60612(10) 0.5479(3)
N1 N 0.63826(8) 0.57189(8) 0.6100(2)
O2 O 0.34334(7) 0.33599(7) 0.9393(2)
H1 H 0.3684(9) 0.3024(12) 0.956(4)
C2 C 0.67987(10) 0.67320(10) 0.5401(3)
H2 H 0.7135 0.6999 0.4988
N2 N 0.47805(8) 0.55232(8) 0.7532(2)
C3 C 0.58032(9) 0.59837(10) 0.6537(3)
C4 C 0.57142(10) 0.66223(10) 0.6460(3)
H3 H 0.5317 0.6808 0.6771
C5 C 0.62358(11) 0.69983(10) 0.5902(3)
H4 H 0.6192 0.7448 0.5876
C6 C 0.53821(9) 0.54611(9) 0.7055(3)
C7 C 0.57261(10) 0.48833(10) 0.6953(3)
C8 C 0.54376(10) 0.43226(10) 0.7431(3)
C9 C 0.63985(10) 0.50222(9) 0.6353(3)
H5 H 0.6708 0.4897 0.7331
H6 H 0.6505 0.4802 0.5170
C10 C 0.47808(9) 0.43584(9) 0.7959(3)
C11 C 0.44761(10) 0.49678(9) 0.7962(3)
C12 C 0.38215(10) 0.49991(10) 0.8416(3)
H7 H 0.3614 0.5400 0.8423
C13 C 0.34851(10) 0.44672(10) 0.8841(3)
H8 H 0.3044 0.4498 0.9109
C14 C 0.37890(10) 0.38667(10) 0.8886(3)
C15 C 0.44198(10) 0.38161(10) 0.8428(3)
H9 H 0.4617 0.3410 0.8427
C16 C 0.57838(9) 0.37023(10) 0.7404(3)
C17 C 0.59903(11) 0.34439(11) 0.5719(3)
H10 H 0.5921 0.3668 0.4582
C18 C 0.62977(13) 0.28599(12) 0.5693(4)
H11 H 0.6433 0.2683 0.4537
C19 C 0.64067(13) 0.25361(12) 0.7342(4)
H12 H 0.6621 0.2139 0.7321
C20 C 0.62042(13) 0.27900(12) 0.9023(4)
H13 H 0.6280 0.2567 1.0157
C21 C 0.58910(11) 0.33688(11) 0.9060(3)
H14 H 0.5749 0.3539 1.0218
loop_
_geom_bond_atom_site_label_1
_geom_bond_atom_site_label_2
_geom_bond_site_symmetry_1
_geom_bond_site_symmetry_2
O1 C1 1_555 1_555
C1 N1 1_555 1_555
N1 C3 1_555 1_555
O2 H1 1_555 1_555
C2 C1 1_555 1_555
H2 C2 1_555 1_555
N2 C6 1_555 1_555
C3 C4 1_555 1_555
C4 H3 1_555 1_555
C5 C2 1_555 1_555
H4 C5 1_555 1_555
C6 C3 1_555 1_555
C7 C6 1_555 1_555
C8 C7 1_555 1_555
C9 N1 1_555 1_555
H5 C9 1_555 1_555
H6 C9 1_555 1_555
C10 C8 1_555 1_555
C11 N2 1_555 1_555
C12 C11 1_555 1_555
H7 C12 1_555 1_555
C13 C12 1_555 1_555
H8 C13 1_555 1_555
C14 O2 1_555 1_555
C15 C10 1_555 1_555
H9 C15 1_555 1_555
C16 C8 1_555 1_555
C17 C16 1_555 1_555
H10 C17 1_555 1_555
C18 C17 1_555 1_555
H11 C18 1_555 1_555
C19 C18 1_555 1_555
H12 C19 1_555 1_555
C20 C19 1_555 1_555
H13 C20 1_555 1_555
C21 C16 1_555 1_555
H14 C21 1_555 1_555
C4 C5 1_555 1_555
C7 C9 1_555 1_555
C10 C11 1_555 1_555
C13 C14 1_555 1_555
C14 C15 1_555 1_555
C20 C21 1_555 1_555

#END
