
#######################################################################
#
#                 Cambridge Crystallographic Data Centre
#                                CCDC 
#
#######################################################################
#
# If this CIF has been generated from an entry in the Cambridge 
# Structural Database, then it will include bibliographic, chemical, 
# crystal, experimental, refinement or atomic coordinate data resulting 
# from the CCDC's data processing and validation procedures.
#
#######################################################################

data_TEKCEU
_chemical_formula_moiety         'C25 H20 N2 O2,H2 O1'
_chemical_name_systematic        
'(E)-2-Benzyloxy-12-(prop-1-en-1-yl)indolizino[1,2-b]quinolin-9(11H)-one monohydrate'
_symmetry_cell_setting           monoclinic
_symmetry_space_group_name_H-M   'P 21/c'
_symmetry_Int_Tables_number      14
_space_group_name_Hall           '-P 2ybc'
loop_
_symmetry_equiv_pos_site_id
_symmetry_equiv_pos_as_xyz
1 x,y,z
2 -x,1/2+y,1/2-z
3 -x,-y,-z
4 x,1/2-y,1/2+z
_cell_length_a                   20.1344(10)
_cell_length_b                   13.8073(7)
_cell_length_c                   7.0937(3)
_cell_angle_alpha                90
_cell_angle_beta                 93.264(2)
_cell_angle_gamma                90
_cell_volume                     1968.86
_exptl_crystal_colour            yellow
_exptl_crystal_description       block
_cell_formula_units_Z            4
loop_
_atom_site_label
_atom_site_type_symbol
_atom_site_fract_x
_atom_site_fract_y
_atom_site_fract_z
O1 O 1.04438(6) 0.43297(9) 0.74216(19)
C1 C 1.02486(9) 0.34826(13) 0.7157(2)
N1 N 0.96104(7) 0.33106(10) 0.6416(2)
O2 O 0.57146(6) 0.28037(9) 0.19726(19)
C2 C 1.06278(9) 0.26222(14) 0.7549(2)
H1 H 1.107278 0.268070 0.805713
N2 N 0.82461(7) 0.18419(10) 0.4798(2)
C3 C 1.03707(9) 0.17222(13) 0.7217(3)
H2 H 1.064019 0.117024 0.749690
C4 C 0.86612(8) 0.25436(12) 0.5324(2)
C5 C 0.93467(8) 0.24026(13) 0.6083(2)
C6 C 0.97115(9) 0.15911(13) 0.6463(2)
H3 H 0.953173 0.096326 0.623289
C7 C 0.85307(9) 0.35483(13) 0.5201(2)
C8 C 0.91352(8) 0.40970(13) 0.5945(2)
H4 H 0.930306 0.453383 0.497318
H5 H 0.903972 0.448048 0.707770
C9 C 0.79287(8) 0.38678(13) 0.4428(2)
C10 C 0.74549(9) 0.31340(13) 0.3868(2)
C11 C 0.76344(8) 0.21396(13) 0.4088(2)
C12 C 0.71592(9) 0.14186(13) 0.3547(2)
H6 H 0.727574 0.075420 0.367731
C13 C 0.65366(9) 0.16651(13) 0.2843(3)
H7 H 0.622456 0.117405 0.247915
C14 C 0.63573(9) 0.26503(14) 0.2655(2)
C15 C 0.68039(9) 0.33660(13) 0.3143(2)
H8 H 0.667662 0.402536 0.299354
C16 C 0.77702(9) 0.48994(13) 0.4106(3)
H9 H 0.752435 0.505503 0.296368
C17 C 0.79346(9) 0.56301(14) 0.5242(3)
H10 H 0.817209 0.548993 0.640616
C18 C 0.77690(11) 0.66636(14) 0.4804(3)
H11 H 0.818081 0.703438 0.471057
H12 H 0.751240 0.693444 0.581255
H13 H 0.750504 0.669979 0.360218
C19 C 0.54925(10) 0.37910(15) 0.1887(3)
H14 H 0.573763 0.415403 0.094412
H15 H 0.557502 0.410574 0.313259
C20 C 0.47611(10) 0.37917(14) 0.1338(3)
C21 C 0.43073(11) 0.40698(17) 0.2629(4)
H16 H 0.445857 0.425010 0.387298
C22 C 0.36293(12) 0.40861(17) 0.2111(4)
H17 H 0.332094 0.428520 0.299892
C23 C 0.34041(11) 0.38159(17) 0.0324(5)
H18 H 0.294144 0.382583 -0.002397
C24 C 0.38554(13) 0.35290(19) -0.0969(5)
H19 H 0.370157 0.333895 -0.220451
C25 C 0.45302(12) 0.35182(18) -0.0466(4)
H20 H 0.483701 0.332248 -0.136126
H21 H 1.1606(16) 0.537(3) 1.002(4)
O3 O 1.15432(8) 0.47057(12) 1.0089(2)
H22 H 1.1238(16) 0.454(2) 0.915(4)
loop_
_geom_bond_atom_site_label_1
_geom_bond_atom_site_label_2
_geom_bond_site_symmetry_1
_geom_bond_site_symmetry_2
O1 C1 1_555 1_555
C1 N1 1_555 1_555
N1 C5 1_555 1_555
O2 C14 1_555 1_555
C2 C1 1_555 1_555
H1 C2 1_555 1_555
N2 C4 1_555 1_555
C3 C2 1_555 1_555
H2 C3 1_555 1_555
C4 C5 1_555 1_555
C5 C6 1_555 1_555
C6 C3 1_555 1_555
H3 C6 1_555 1_555
C7 C4 1_555 1_555
C8 N1 1_555 1_555
H4 C8 1_555 1_555
H5 C8 1_555 1_555
C9 C7 1_555 1_555
C10 C9 1_555 1_555
C11 N2 1_555 1_555
C12 C11 1_555 1_555
H6 C12 1_555 1_555
C13 C12 1_555 1_555
H7 C13 1_555 1_555
C14 C13 1_555 1_555
C15 C10 1_555 1_555
H8 C15 1_555 1_555
C16 C9 1_555 1_555
H9 C16 1_555 1_555
C17 C16 1_555 1_555
H10 C17 1_555 1_555
C18 C17 1_555 1_555
H11 C18 1_555 1_555
H12 C18 1_555 1_555
H13 C18 1_555 1_555
C19 O2 1_555 1_555
H14 C19 1_555 1_555
H15 C19 1_555 1_555
C20 C19 1_555 1_555
C21 C20 1_555 1_555
H16 C21 1_555 1_555
C22 C21 1_555 1_555
H17 C22 1_555 1_555
C23 C22 1_555 1_555
H18 C23 1_555 1_555
C24 C23 1_555 1_555
H19 C24 1_555 1_555
C25 C20 1_555 1_555
H20 C25 1_555 1_555
H21 O3 1_555 1_555
O3 H22 1_555 1_555
C7 C8 1_555 1_555
C10 C11 1_555 1_555
C14 C15 1_555 1_555
C24 C25 1_555 1_555

#END
