
#######################################################################
#
#                 Cambridge Crystallographic Data Centre
#                                CCDC 
#
#######################################################################
#
# If this CIF has been generated from an entry in the Cambridge 
# Structural Database, then it will include bibliographic, chemical, 
# crystal, experimental, refinement or atomic coordinate data resulting 
# from the CCDC's data processing and validation procedures.
#
#######################################################################

data_TEKVAJ
_chemical_formula_moiety         'C17 H26 B1 F1 N2 O2'
_chemical_name_systematic        
(2,3-dimethylbutane-2,3-diolato)-(3-fluoro-2-(4,4-dimethylimidazolidin-2-yl)phenyl)-boron
_symmetry_cell_setting           tetragonal
_symmetry_space_group_name_H-M   'P -4 21 c'
_symmetry_Int_Tables_number      114
_space_group_name_Hall           'P -4 2n'
loop_
_symmetry_equiv_pos_site_id
_symmetry_equiv_pos_as_xyz
1 x,y,z
2 y,-x,-z
3 -x,-y,z
4 -y,x,-z
5 1/2+x,1/2-y,1/2-z
6 1/2-y,1/2-x,1/2+z
7 1/2-x,1/2+y,1/2-z
8 1/2+y,1/2+x,1/2+z
_cell_length_a                   12.578(10)
_cell_length_b                   12.578(10)
_cell_length_c                   21.846(17)
_cell_angle_alpha                90
_cell_angle_beta                 90
_cell_angle_gamma                90
_cell_volume                     3456.17
_exptl_crystal_colour            colorless
_exptl_crystal_description       Block
_cell_formula_units_Z            8
_exptl_crystal_recrystallization_method CH2Cl2/Et2O
loop_
_atom_site_label
_atom_site_type_symbol
_atom_site_fract_x
_atom_site_fract_y
_atom_site_fract_z
B1 B 0.0130(3) 0.3170(3) 0.10542(11)
C1 C -0.0215(3) 0.2430(3) 0.20127(9)
C2 C -0.1189(3) 0.3105(2) 0.18128(10)
C3 C 0.0506(3) 0.3064(4) 0.24569(11)
H1 H 0.1195 0.2721 0.2485
H2 H 0.0179 0.3084 0.2859
H3 H 0.0594 0.3783 0.2305
C4 C -0.0460(3) 0.1354(3) 0.22779(14)
H4 H -0.0796 0.0914 0.1969
H5 H -0.0936 0.1434 0.2624
H6 H 0.0194 0.1019 0.2412
C5 C -0.1681(3) 0.3791(3) 0.23099(12)
H7 H -0.1153 0.4287 0.2463
H8 H -0.1925 0.3342 0.2642
H9 H -0.2278 0.4182 0.2142
C6 C -0.2049(3) 0.2402(3) 0.15270(12)
H10 H -0.2571 0.2846 0.1323
H11 H -0.2395 0.1989 0.1845
H12 H -0.1727 0.1925 0.1231
C7 C 0.1445(2) 0.4204(2) 0.03150(9)
H13 H 0.1395 0.4968 0.0210
C8 C 0.3080(2) 0.3921(3) 0.08112(10)
C9 C 0.2200(2) 0.3657(3) 0.12752(10)
H14 H 0.2175 0.2890 0.1353
H15 H 0.2329 0.4025 0.1664
C10 C 0.3464(3) 0.5055(3) 0.08811(12)
H16 H 0.3983 0.5210 0.0565
H17 H 0.3789 0.5143 0.1281
H18 H 0.2866 0.5537 0.0842
C11 C 0.3997(3) 0.3134(3) 0.08424(13)
H19 H 0.3731 0.2420 0.0774
H20 H 0.4327 0.3173 0.1243
H21 H 0.4517 0.3309 0.0531
C12 C 0.0623(2) 0.3574(2) -0.00284(10)
C13 C -0.0007(2) 0.2910(2) 0.03294(10)
C14 C -0.0666(3) 0.2174(3) 0.00416(11)
H22 H -0.1090 0.1714 0.0277
C15 C -0.0700(3) 0.2118(3) -0.05968(12)
H23 H -0.1120 0.1596 -0.0788
C16 C -0.0119(3) 0.2824(3) -0.09519(10)
H24 H -0.0178 0.2815 -0.1381
C17 C 0.0539(3) 0.3533(3) -0.06681(10)
F1 F 0.11317(16) 0.42115(18) -0.10089(6)
N1 N 0.11822(18) 0.4026(2) 0.09964(8)
N2 N 0.2511(2) 0.3815(2) 0.02159(8)
O1 O 0.03574(16) 0.22891(17) 0.14448(7)
O2 O -0.07347(17) 0.37758(15) 0.13408(7)
H25 H 0.247(3) 0.312(3) 0.0138(12)
H26 H 0.101(3) 0.468(3) 0.1145(11)
loop_
_geom_bond_atom_site_label_1
_geom_bond_atom_site_label_2
_geom_bond_site_symmetry_1
_geom_bond_site_symmetry_2
B1 C13 1_555 1_555
C1 C2 1_555 1_555
C2 C5 1_555 1_555
C3 C1 1_555 1_555
H1 C3 1_555 1_555
H2 C3 1_555 1_555
H3 C3 1_555 1_555
C4 C1 1_555 1_555
H4 C4 1_555 1_555
H5 C4 1_555 1_555
H6 C4 1_555 1_555
C5 H7 1_555 1_555
H8 C5 1_555 1_555
H9 C5 1_555 1_555
C6 C2 1_555 1_555
H10 C6 1_555 1_555
H11 C6 1_555 1_555
H12 C6 1_555 1_555
C7 H13 1_555 1_555
C8 C9 1_555 1_555
C9 H14 1_555 1_555
H15 C9 1_555 1_555
C10 C8 1_555 1_555
H16 C10 1_555 1_555
H17 C10 1_555 1_555
H18 C10 1_555 1_555
C11 C8 1_555 1_555
H19 C11 1_555 1_555
H20 C11 1_555 1_555
H21 C11 1_555 1_555
C12 C7 1_555 1_555
C13 C12 1_555 1_555
C14 C13 1_555 1_555
H22 C14 1_555 1_555
C15 C14 1_555 1_555
H23 C15 1_555 1_555
C16 C15 1_555 1_555
H24 C16 1_555 1_555
C17 C12 1_555 1_555
F1 C17 1_555 1_555
N1 B1 1_555 1_555
N2 C7 1_555 1_555
O1 B1 1_555 1_555
O2 B1 1_555 1_555
H25 N2 1_555 1_555
H26 N1 1_555 1_555
C1 O1 1_555 1_555
C2 O2 1_555 1_555
C7 N1 1_555 1_555
C8 N2 1_555 1_555
C9 N1 1_555 1_555
C16 C17 1_555 1_555

#END
