
#######################################################################
#
#                 Cambridge Crystallographic Data Centre
#                                CCDC 
#
#######################################################################
#
# If this CIF has been generated from an entry in the Cambridge 
# Structural Database, then it will include bibliographic, chemical, 
# crystal, experimental, refinement or atomic coordinate data resulting 
# from the CCDC's data processing and validation procedures.
#
#######################################################################

data_TELFUO
_chemical_formula_moiety         'C32 H22 O8,0.75(C2 H3 N1)'
_chemical_name_systematic        
"diethyl 2,2'-dioxo-2H,2'H-[10,10'-binaphtho[2,3-b]pyran]-3,3'-dicarboxylate acetonitrile solvate"
_symmetry_cell_setting           monoclinic
_symmetry_space_group_name_H-M   'P 21'
_symmetry_Int_Tables_number      4
_space_group_name_Hall           'P 2yb'
loop_
_symmetry_equiv_pos_site_id
_symmetry_equiv_pos_as_xyz
1 x,y,z
2 -x,1/2+y,-z
_cell_length_a                   13.3108(12)
_cell_length_b                   24.234(2)
_cell_length_c                   16.8600(15)
_cell_angle_alpha                90
_cell_angle_beta                 90.725(3)
_cell_angle_gamma                90
_cell_volume                     5438.16
_exptl_crystal_colour            'pale yellow'
_exptl_crystal_description       block
_cell_formula_units_Z            8
_exptl_crystal_recrystallization_method 'Vapour deposition'
_exptl_crystal_preparation       ', Luminescent'
loop_
_atom_site_label
_atom_site_type_symbol
_atom_site_fract_x
_atom_site_fract_y
_atom_site_fract_z
O1 O -0.5975(5) -0.7756(2) -0.7534(4)
O2 O -0.6197(3) -0.55113(18) -0.3682(3)
O3 O -0.4743(3) -0.61419(16) -0.6269(2)
O4 O -0.4882(3) -0.54960(15) -0.4454(2)
O5 O -0.5987(4) -0.3789(2) -0.3337(3)
O6 O -0.5857(3) -0.60537(18) -0.7224(3)
O7 O -0.6962(3) -0.45308(17) -0.3196(3)
C1 C -0.2966(4) -0.7073(2) -0.4710(4)
C2 C -0.2378(5) -0.7374(3) -0.4153(4)
H1 H -0.2403 -0.7758 -0.4155
C3 C -0.1777(5) -0.7109(3) -0.3615(4)
H2 H -0.1402 -0.7313 -0.3250
C4 C -0.5571(4) -0.5222(2) -0.3985(4)
C5 C -0.1128(5) -0.5334(3) -0.6431(4)
H3 H -0.0669 -0.5538 -0.6721
C6 C -0.1019(5) -0.4761(3) -0.6374(4)
H4 H -0.0488 -0.4586 -0.6623
C7 C -0.5413(5) -0.6974(3) -0.6879(4)
C8 C -0.4188(4) -0.7037(2) -0.5790(4)
C9 C -0.3523(4) -0.6172(2) -0.5242(3)
C10 C -0.3177(4) -0.4407(2) -0.5108(4)
H5 H -0.3090 -0.4028 -0.5058
C11 C -0.2618(4) -0.5292(2) -0.5624(3)
C12 C -0.6655(8) -0.8077(4) -0.8031(7)
H6 H -0.7344 -0.7971 -0.7929
H7 H -0.6518 -0.8007 -0.8586
C13 C -0.3603(4) -0.7336(2) -0.5269(4)
H8 H -0.3628 -0.7719 -0.5284
C14 C -0.5456(4) -0.4627(2) -0.3911(3)
C15 C -0.2921(4) -0.6483(2) -0.4693(3)
C16 C -0.6113(5) -0.7234(3) -0.7466(5)
C17 C -0.2494(4) -0.4714(2) -0.5557(4)
C18 C -0.1719(5) -0.6532(3) -0.3607(4)
H9 H -0.1303 -0.6357 -0.3237
C19 C -0.6144(4) -0.4274(3) -0.3446(4)
C20 C -0.1901(4) -0.5595(2) -0.6067(4)
H10 H -0.1963 -0.5976 -0.6109
C21 C -0.5394(4) -0.6371(3) -0.6825(4)
O8 O -0.6707(8) -0.7009(3) -0.7854(6)
C22 C -0.3973(4) -0.4659(2) -0.4741(3)
C23 C -0.4089(4) -0.5236(2) -0.4819(3)
C24 C -0.4827(4) -0.7280(2) -0.6379(4)
H11 H -0.4843 -0.7663 -0.6423
C25 C -0.4150(4) -0.6450(2) -0.5753(3)
C26 C -0.4681(4) -0.4368(2) -0.4270(3)
H12 H -0.4609 -0.3989 -0.4207
C27 C -0.7697(5) -0.4178(3) -0.2804(4)
H13 H -0.8002 -0.3928 -0.3185
H14 H -0.7369 -0.3961 -0.2393
C28 C -0.8482(6) -0.4540(3) -0.2449(5)
H15 H -0.8831 -0.4736 -0.2863
H16 H -0.8951 -0.4317 -0.2162
H17 H -0.8169 -0.4799 -0.2093
C29 C -0.2266(4) -0.6224(3) -0.4136(4)
H18 H -0.2209 -0.5841 -0.4131
C30 C -0.3439(4) -0.5556(2) -0.5240(3)
C31 C -0.1697(5) -0.4459(3) -0.5947(4)
H19 H -0.1626 -0.4078 -0.5917
C32 C -0.6525(10) -0.8646(5) -0.7863(9)
H20 H -0.5833 -0.8744 -0.7934
H21 H -0.6940 -0.8860 -0.8217
H22 H -0.6712 -0.8718 -0.7325
O9 O -1.3337(4) -0.2535(2) -0.9381(3)
O10 O -0.5589(3) -0.02340(19) -0.9500(3)
O11 O -1.0947(3) -0.16485(17) -1.0381(3)
O12 O -0.8176(3) -0.10479(16) -1.0418(2)
O13 O -0.6875(3) -0.11270(19) -0.9610(3)
O14 O -0.6295(4) 0.0578(2) -0.9751(4)
O15 O -1.2286(4) -0.3253(2) -0.9223(4)
O16 O -1.2255(5) -0.1593(2) -0.9610(4)
C33 C -0.9639(4) -0.1641(2) -1.1300(3)
C34 C -0.9004(4) -0.1933(2) -1.1832(4)
C35 C -1.1112(4) -0.0962(3) -1.2157(4)
H23 H -1.1181 -0.1344 -1.2149
C36 C -0.8511(5) -0.2798(3) -1.2469(4)
H24 H -0.8599 -0.3176 -1.2542
C37 C -1.2499(5) -0.2806(3) -0.9488(4)
C38 C -1.4106(6) -0.2812(3) -0.8910(5)
H25 H -1.4539 -0.2538 -0.8670
H26 H -1.3786 -0.3022 -0.8487
C39 C -1.0942(4) 0.0184(2) -1.2204(3)
H27 H -1.0894 0.0567 -1.2219
C40 C -0.7371(4) -0.0818(3) -1.0013(4)
C41 C -1.0233(4) -0.0122(2) -1.1753(3)
C42 C -1.0322(4) -0.0711(2) -1.1725(3)
C43 C -1.1694(5) -0.0073(3) -1.2616(4)
H28 H -1.2152 0.0132 -1.2915
C44 C -1.1772(5) -0.0650(3) -1.2584(4)
H29 H -1.2289 -0.0824 -1.2864
C45 C -0.9438(4) 0.0136(2) -1.1346(3)
H30 H -0.9373 0.0517 -1.1376
C46 C -0.8863(4) -0.0747(2) -1.0867(3)
C47 C -1.0328(4) -0.1937(2) -1.0887(3)
C48 C -1.1766(5) -0.2500(3) -0.9993(4)
C49 C -1.1160(5) -0.2787(3) -1.0459(4)
H31 H -1.1207 -0.3170 -1.0467
C50 C -0.8258(5) -0.1670(3) -1.2280(4)
H32 H -0.8166 -0.1292 -1.2228
C51 C -0.7667(5) -0.1958(3) -1.2790(4)
H33 H -0.7174 -0.1773 -1.3072
C52 C -0.9832(5) -0.2798(2) -1.1473(4)
H34 H -0.9900 -0.3178 -1.1525
C53 C -0.8749(4) -0.0161(2) -1.0904(3)
C54 C -0.9117(5) -0.2518(2) -1.1927(4)
C55 C -0.7791(6) -0.2526(3) -1.2894(4)
H35 H -0.7390 -0.2717 -1.3249
C56 C -1.0432(5) -0.2518(2) -1.0953(4)
C57 C -0.6325(5) 0.0078(3) -0.9769(4)
C58 C -0.9597(4) -0.1023(2) -1.1273(3)
C59 C -0.7904(4) 0.0077(2) -1.0515(3)
H36 H -0.7819 0.0458 -1.0544
C60 C -0.7222(4) -0.0219(3) -1.0108(4)
C61 C -0.4011(6) -0.0344(4) -0.8802(5)
H37 H -0.3705 -0.0584 -0.9183
H38 H -0.4403 -0.0559 -0.8441
H39 H -0.3497 -0.0149 -0.8512
C62 C -1.1716(5) -0.1893(3) -0.9967(4)
C63 C -0.4679(5) 0.0061(3) -0.9223(5)
H40 H -0.4862 0.0358 -0.8866
H41 H -0.4331 0.0220 -0.9671
C64 C -1.4721(7) -0.3190(4) -0.9423(6)
H42 H -1.5043 -0.2980 -0.9837
H43 H -1.5222 -0.3368 -0.9107
H44 H -1.4293 -0.3464 -0.9653
O17 O -0.9647(3) -0.35509(16) -0.8759(2)
O18 O -0.9827(3) -0.41928(15) -1.0577(2)
C65 C -0.6746(4) -0.5304(3) -0.8953(4)
H45 H -0.6714 -0.5687 -0.8966
C66 C -0.7534(4) -0.5028(2) -0.9369(3)
O19 O -1.0709(3) -0.36201(18) -0.7780(3)
O20 O -1.1062(4) -0.5892(2) -1.1661(3)
O21 O -1.2060(3) -0.51503(17) -1.1751(2)
O22 O -1.1104(3) -0.41544(18) -1.1400(3)
O23 O -1.1282(6) -0.1955(3) -0.7911(5)
C67 C -0.9009(4) -0.5045(2) -1.0224(3)
C68 C -1.0271(5) -0.3312(3) -0.8206(4)
C69 C -0.9028(4) -0.3253(2) -0.9248(3)
C70 C -0.6462(5) -0.3211(3) -1.1237(4)
H46 H -0.6038 -0.3393 -1.1584
C71 C -0.9731(4) -0.5326(2) -1.0695(3)
H47 H -0.9688 -0.5708 -1.0737
C72 C -0.6039(5) -0.5017(3) -0.8537(4)
H48 H -0.5524 -0.5202 -0.8271
C73 C -0.7736(5) -0.2653(2) -1.0199(4)
C74 C -1.1215(5) -0.5406(3) -1.1540(4)
C75 C -1.0538(4) -0.4455(2) -1.1057(4)
C76 C -0.6456(5) -0.2632(3) -1.1196(4)
H49 H -0.6032 -0.2432 -1.1523
C77 C -0.6091(5) -0.4434(3) -0.8512(4)
H50 H -0.5602 -0.4238 -0.8232
C78 C -0.8236(4) -0.5318(2) -0.9824(3)
H51 H -0.8187 -0.5700 -0.9861
C79 C -0.7753(4) -0.3242(2) -1.0241(3)
C80 C -1.0327(5) -0.2707(3) -0.8208(4)
C81 C -0.9065(4) -0.4469(2) -1.0169(3)
C82 C -0.7090(5) -0.3506(3) -1.0767(4)
H52 H -0.7082 -0.3889 -1.0793
C83 C -0.8427(4) -0.3539(2) -0.9742(3)
C84 C -1.3566(5) -0.5117(3) -1.2526(4)
H53 H -1.3274 -0.4890 -1.2929
H54 H -1.3835 -0.4886 -1.2117
H55 H -1.4096 -0.5335 -1.2757
C85 C -0.9036(4) -0.2669(2) -0.9208(4)
C86 C -1.0481(4) -0.5060(2) -1.1085(3)
C87 C -0.9714(5) -0.2411(3) -0.8674(4)
H56 H -0.9734 -0.2028 -0.8647
C88 C -0.7056(5) -0.2363(3) -1.0688(4)
H57 H -0.7024 -0.1981 -1.0658
C89 C -0.8383(4) -0.4159(2) -0.9744(3)
C90 C -0.8378(4) -0.2379(2) -0.9688(4)
H58 H -0.8368 -0.1995 -0.9667
O24 O -1.1456(8) -0.2652(3) -0.7128(5)
C91 C -0.7590(4) -0.4442(2) -0.9334(3)
C92 C -1.2782(5) -0.5487(3) -1.2179(4)
H59 H -1.3087 -0.5750 -1.1823
H60 H -1.2450 -0.5689 -1.2597
C93 C -1.1073(6) -0.2452(3) -0.7685(5)
C94 C -0.6841(5) -0.4157(3) -0.8888(4)
H61 H -0.6866 -0.3774 -0.8854
C95 C -1.2055(8) -0.1642(4) -0.7481(7)
H62 H -1.2722 -0.1762 -0.7641
H63 H -1.1978 -0.1696 -0.6913
C96 C -1.1901(11) -0.1060(4) -0.7689(8)
H64 H -1.1857 -0.1024 -0.8255
H65 H -1.1289 -0.0930 -0.7446
H66 H -1.2456 -0.0845 -0.7502
O25 O -0.8592(4) -0.5172(2) -0.4961(5)
O26 O -0.1504(5) -0.2300(2) -0.4157(4)
O27 O -0.3981(3) -0.30614(16) -0.5237(2)
O28 O -0.6578(3) -0.36078(16) -0.5451(2)
C97 C -0.3955(4) -0.4886(2) -0.7233(3)
H67 H -0.4040 -0.5266 -0.7263
O29 O -0.7859(3) -0.35011(18) -0.4662(3)
C98 C -0.3050(5) -0.4066(3) -0.7579(4)
H68 H -0.2523 -0.3902 -0.7849
C99 C -0.3184(5) -0.4643(3) -0.7620(4)
H69 H -0.2742 -0.4858 -0.7912
O30 O -0.2961(5) -0.3143(2) -0.4208(3)
O31 O -0.9154(4) -0.4397(2) -0.4477(4)
C100 C -0.4789(5) -0.1892(2) -0.6451(4)
H70 H -0.4689 -0.1513 -0.6487
C101 C -0.3684(5) -0.3746(3) -0.7150(4)
H71 H -0.3579 -0.3367 -0.7126
C102 C -0.4290(5) -0.2185(2) -0.5871(4)
C103 C -0.6761(6) -0.2674(3) -0.8038(4)
H72 H -0.7206 -0.2846 -0.8389
C104 C -0.5618(5) -0.2731(2) -0.6920(4)
C105 C -0.6109(4) -0.4499(2) -0.5965(3)
C106 C -0.4467(5) -0.2762(2) -0.5814(3)
C107 C -0.4630(4) -0.4567(2) -0.6786(3)
C108 C -0.5186(4) -0.3654(2) -0.6304(3)
O32 O -0.2358(7) -0.1506(3) -0.4097(6)
C109 C -0.5453(4) -0.4813(2) -0.6404(3)
H73 H -0.5555 -0.5191 -0.6447
C110 C -0.2261(7) -0.1983(4) -0.4306(5)
C111 C -0.8530(5) -0.4652(3) -0.4825(4)
C112 C -0.6290(5) -0.2976(3) -0.7465(4)
H74 H -0.6415 -0.3352 -0.7432
C113 C -0.3289(5) -0.2840(3) -0.4708(4)
C114 C -0.4506(4) -0.3982(2) -0.6738(3)
C115 C -0.7606(5) -0.4410(3) -0.5173(4)
C116 C -0.6972(4) -0.4731(2) -0.5585(3)
H75 H -0.7094 -0.5108 -0.5624
C117 C -0.5092(4) -0.3040(2) -0.6318(3)
C118 C -0.5441(5) -0.2149(3) -0.6984(4)
C119 C -0.5943(4) -0.3924(2) -0.5909(3)
C120 C -0.7397(5) -0.3820(3) -0.5059(4)
C121 C -0.5949(6) -0.1850(3) -0.7594(4)
H76 H -0.5843 -0.1472 -0.7641
C122 C -0.6582(6) -0.2105(3) -0.8105(4)
H77 H -0.6902 -0.1904 -0.8504
C123 C -0.3567(5) -0.1944(3) -0.5335(4)
H78 H -0.3446 -0.1566 -0.5359
C124 C -0.3062(5) -0.2250(3) -0.4801(4)
C125 C -0.9478(7) -0.5467(4) -0.4668(7)
H79 H -0.9864 -0.5231 -0.4321
H80 H -0.9906 -0.5581 -0.5108
C126 C -0.0630(8) -0.2080(5) -0.3722(6)
H81 H -0.0501 -0.2297 -0.3249
H82 H -0.0756 -0.1701 -0.3563
C127 C 0.0259(10) -0.2103(7) -0.4261(9)
H83 H 0.0677 -0.2411 -0.4116
H84 H 0.0639 -0.1768 -0.4212
H85 H 0.0031 -0.2146 -0.4800
C128 C -0.9133(12) -0.5917(8) -0.4263(11)
H86 H -0.8417 -0.5941 -0.4315
H87 H -0.9439 -0.6244 -0.4477
H88 H -0.9299 -0.5882 -0.3713
C129 C -1.1176(6) -0.4446(5) -1.3494(5)
N1 N -1.1350(7) -0.4899(5) -1.3538(6)
C130 C -1.0936(8) -0.3867(4) -1.3432(6)
H89 H -1.1424 -0.3656 -1.3727
H90 H -1.0280 -0.3803 -1.3644
H91 H -1.0945 -0.3758 -1.2885
N2 N -0.5967(7) -0.1105(3) -1.1519(5)
C131 C -0.5430(7) -0.1283(3) -1.1050(6)
C132 C -0.4792(7) -0.1526(4) -1.0452(6)
H92 H -0.4403 -0.1816 -1.0683
H93 H -0.5197 -0.1674 -1.0036
H94 H -0.4349 -0.1249 -1.0238
C133 C -0.9060(6) -0.3515(3) -0.6397(5)
N3 N -0.8437(7) -0.3653(3) -0.6795(5)
C134 C -0.9843(7) -0.3328(4) -0.5886(6)
H95 H -1.0453 -0.3283 -0.6189
H96 H -0.9654 -0.2981 -0.5654
H97 H -0.9947 -0.3595 -0.5475
loop_
_geom_bond_atom_site_label_1
_geom_bond_atom_site_label_2
_geom_bond_site_symmetry_1
_geom_bond_site_symmetry_2
O1 C12 1_555 1_555
O2 C4 1_555 1_555
O3 C21 1_555 1_555
O4 C4 1_555 1_555
O5 C19 1_555 1_555
O6 C21 1_555 1_555
O7 C19 1_555 1_555
C1 C2 1_555 1_555
C2 H1 1_555 1_555
C3 C2 1_555 1_555
H2 C3 1_555 1_555
C4 C14 1_555 1_555
C5 H3 1_555 1_555
C6 C5 1_555 1_555
H4 C6 1_555 1_555
C7 C16 1_555 1_555
C8 C13 1_555 1_555
C9 C15 1_555 1_555
C10 H5 1_555 1_555
C11 C17 1_555 1_555
C12 H6 1_555 1_555
H7 C12 1_555 1_555
C13 C1 1_555 1_555
H8 C13 1_555 1_555
C14 C19 1_555 1_555
C15 C1 1_555 1_555
C16 O1 1_555 1_555
C17 C10 1_555 1_555
C18 C3 1_555 1_555
H9 C18 1_555 1_555
C20 C5 1_555 1_555
H10 C20 1_555 1_555
C21 C7 1_555 1_555
O8 C16 1_555 1_555
C22 C10 1_555 1_555
C23 O4 1_555 1_555
C24 C7 1_555 1_555
H11 C24 1_555 1_555
C25 O3 1_555 1_555
C26 C14 1_555 1_555
H12 C26 1_555 1_555
C27 O7 1_555 1_555
H13 C27 1_555 1_555
H14 C27 1_555 1_555
C28 C27 1_555 1_555
H15 C28 1_555 1_555
H16 C28 1_555 1_555
H17 C28 1_555 1_555
C29 C15 1_555 1_555
H18 C29 1_555 1_555
C30 C9 1_555 1_555
C31 C6 1_555 1_555
H19 C31 1_555 1_555
C32 C12 1_555 1_555
H20 C32 1_555 1_555
H21 C32 1_555 1_555
H22 C32 1_555 1_555
O9 C37 1_555 1_555
O10 C57 1_555 1_555
O11 C47 1_555 1_555
O12 C40 1_555 1_555
O13 C40 1_555 1_555
O14 C57 1_555 1_555
O15 C37 1_555 1_555
O16 C62 1_555 1_555
C33 C34 1_555 1_555
C34 C50 1_555 1_555
C35 H23 1_555 1_555
C36 H24 1_555 1_555
C37 C48 1_555 1_555
C38 O9 1_555 1_555
H25 C38 1_555 1_555
H26 C38 1_555 1_555
C39 H27 1_555 1_555
C40 C60 1_555 1_555
C41 C39 1_555 1_555
C42 C35 1_555 1_555
C43 C39 1_555 1_555
H28 C43 1_555 1_555
C44 C35 1_555 1_555
H29 C44 1_555 1_555
C45 C41 1_555 1_555
H30 C45 1_555 1_555
C46 O12 1_555 1_555
C47 C33 1_555 1_555
C48 C49 1_555 1_555
C49 H31 1_555 1_555
C50 H32 1_555 1_555
C51 C50 1_555 1_555
H33 C51 1_555 1_555
C52 H34 1_555 1_555
C53 C45 1_555 1_555
C54 C34 1_555 1_555
C55 C36 1_555 1_555
H35 C55 1_555 1_555
C56 C47 1_555 1_555
C57 C60 1_555 1_555
C58 C33 1_555 1_555
C59 C53 1_555 1_555
H36 C59 1_555 1_555
C60 C59 1_555 1_555
C61 H37 1_555 1_555
H38 C61 1_555 1_555
H39 C61 1_555 1_555
C62 O11 1_555 1_555
C63 O10 1_555 1_555
H40 C63 1_555 1_555
H41 C63 1_555 1_555
C64 C38 1_555 1_555
H42 C64 1_555 1_555
H43 C64 1_555 1_555
H44 C64 1_555 1_555
O17 C68 1_555 1_555
O18 C75 1_555 1_555
C65 H45 1_555 1_555
C66 C65 1_555 1_555
O19 C68 1_555 1_555
O20 C74 1_555 1_555
O21 C74 1_555 1_555
O22 C75 1_555 1_555
O23 C93 1_555 1_555
C67 C71 1_555 1_555
C68 C80 1_555 1_555
C69 O17 1_555 1_555
C70 H46 1_555 1_555
C71 H47 1_555 1_555
C72 C65 1_555 1_555
H48 C72 1_555 1_555
C73 C79 1_555 1_555
C74 C86 1_555 1_555
C75 C86 1_555 1_555
C76 C70 1_555 1_555
H49 C76 1_555 1_555
C77 C72 1_555 1_555
H50 C77 1_555 1_555
C78 C66 1_555 1_555
H51 C78 1_555 1_555
C79 C82 1_555 1_555
C80 C87 1_555 1_555
C81 O18 1_555 1_555
C82 C70 1_555 1_555
H52 C82 1_555 1_555
C83 C69 1_555 1_555
C84 H53 1_555 1_555
H54 C84 1_555 1_555
H55 C84 1_555 1_555
C85 C69 1_555 1_555
C86 C71 1_555 1_555
C87 C85 1_555 1_555
H56 C87 1_555 1_555
C88 C73 1_555 1_555
H57 C88 1_555 1_555
C89 C81 1_555 1_555
C90 C73 1_555 1_555
H58 C90 1_555 1_555
O24 C93 1_555 1_555
C91 C66 1_555 1_555
C92 O21 1_555 1_555
H59 C92 1_555 1_555
H60 C92 1_555 1_555
C93 C80 1_555 1_555
C94 C77 1_555 1_555
H61 C94 1_555 1_555
C95 O23 1_555 1_555
H62 C95 1_555 1_555
H63 C95 1_555 1_555
C96 C95 1_555 1_555
H64 C96 1_555 1_555
H65 C96 1_555 1_555
H66 C96 1_555 1_555
O25 C111 1_555 1_555
O26 C110 1_555 1_555
O27 C106 1_555 1_555
O28 C119 1_555 1_555
C97 H67 1_555 1_555
O29 C120 1_555 1_555
C98 H68 1_555 1_555
C99 C97 1_555 1_555
H69 C99 1_555 1_555
O30 C113 1_555 1_555
O31 C111 1_555 1_555
C100 H70 1_555 1_555
C101 C98 1_555 1_555
H71 C101 1_555 1_555
C102 C100 1_555 1_555
C103 H72 1_555 1_555
C104 C112 1_555 1_555
C105 C109 1_555 1_555
C106 C102 1_555 1_555
C107 C97 1_555 1_555
C108 C114 1_555 1_555
O32 C110 1_555 1_555
C109 C107 1_555 1_555
H73 C109 1_555 1_555
C110 C124 1_555 1_555
C111 C115 1_555 1_555
C112 C103 1_555 1_555
H74 C112 1_555 1_555
C113 O27 1_555 1_555
C114 C101 1_555 1_555
C115 C116 1_555 1_555
C116 C105 1_555 1_555
H75 C116 1_555 1_555
C117 C104 1_555 1_555
C118 C100 1_555 1_555
C119 C105 1_555 1_555
C120 O28 1_555 1_555
C121 C118 1_555 1_555
H76 C121 1_555 1_555
C122 C103 1_555 1_555
H77 C122 1_555 1_555
C123 C102 1_555 1_555
H78 C123 1_555 1_555
C124 C113 1_555 1_555
C125 O25 1_555 1_555
H79 C125 1_555 1_555
H80 C125 1_555 1_555
C126 O26 1_555 1_555
H81 C126 1_555 1_555
H82 C126 1_555 1_555
C127 C126 1_555 1_555
H83 C127 1_555 1_555
H84 C127 1_555 1_555
H85 C127 1_555 1_555
C128 C125 1_555 1_555
H86 C128 1_555 1_555
H87 C128 1_555 1_555
H88 C128 1_555 1_555
C129 N1 1_555 1_555
C130 C129 1_555 1_555
H89 C130 1_555 1_555
H90 C130 1_555 1_555
H91 C130 1_555 1_555
N2 C131 1_555 1_555
C131 C132 1_555 1_555
C132 H92 1_555 1_555
H93 C132 1_555 1_555
H94 C132 1_555 1_555
C133 N3 1_555 1_555
C134 C133 1_555 1_555
H95 C134 1_555 1_555
H96 C134 1_555 1_555
H97 C134 1_555 1_555
C8 C24 1_555 1_555
C8 C25 1_555 1_555
C9 C25 1_555 1_555
C11 C20 1_555 1_555
C11 C30 1_555 1_555
C17 C31 1_555 1_555
C18 C29 1_555 1_555
C22 C23 1_555 1_555
C22 C26 1_555 1_555
C23 C30 1_555 1_555
C36 C54 1_555 1_555
C41 C42 1_555 1_555
C42 C58 1_555 1_555
C43 C44 1_555 1_555
C46 C53 1_555 1_555
C46 C58 1_555 1_555
C48 C62 1_555 1_555
C49 C56 1_555 1_555
C51 C55 1_555 1_555
C52 C54 1_555 1_555
C52 C56 1_555 1_555
C61 C63 1_555 1_555
C67 C78 1_555 1_555
C67 C81 1_555 1_555
C76 C88 1_555 1_555
C79 C83 1_555 1_555
C83 C89 1_555 1_555
C84 C92 1_555 1_555
C85 C90 1_555 1_555
C89 C91 1_555 1_555
C91 C94 1_555 1_555
C98 C99 1_555 1_555
C104 C118 1_555 1_555
C106 C117 1_555 1_555
C107 C114 1_555 1_555
C108 C117 1_555 1_555
C108 C119 1_555 1_555
C115 C120 1_555 1_555
C121 C122 1_555 1_555
C123 C124 1_555 1_555

#END
