
#######################################################################
#
#                 Cambridge Crystallographic Data Centre
#                                CCDC 
#
#######################################################################
#
# If this CIF has been generated from an entry in the Cambridge 
# Structural Database, then it will include bibliographic, chemical, 
# crystal, experimental, refinement or atomic coordinate data resulting 
# from the CCDC's data processing and validation procedures.
#
#######################################################################

data_TELKUT
_chemical_formula_moiety         'C28 H30'
_chemical_name_systematic        
3-phenyl-3-(4-phenylbicyclo[3.2.1]oct-2-en-3-yl)tricyclo[3.2.1.0^2,4^]octane
_symmetry_cell_setting           triclinic
_symmetry_space_group_name_H-M   'P -1'
_symmetry_Int_Tables_number      2
_space_group_name_Hall           '-P 1'
loop_
_symmetry_equiv_pos_site_id
_symmetry_equiv_pos_as_xyz
1 x,y,z
2 -x,-y,-z
_cell_length_a                   6.3382(13)
_cell_length_b                   11.620(2)
_cell_length_c                   14.176(3)
_cell_angle_alpha                89.94(3)
_cell_angle_beta                 84.42(3)
_cell_angle_gamma                79.19(3)
_cell_volume                     1020.52
_exptl_crystal_colour            colorless
_exptl_crystal_description       block
_cell_formula_units_Z            2
loop_
_atom_site_label
_atom_site_type_symbol
_atom_site_fract_x
_atom_site_fract_y
_atom_site_fract_z
C1 C 0.2337(2) 0.28503(11) 0.33878(9)
C2 C 0.2730(2) 0.36527(11) 0.25783(9)
C3 C 0.5697(2) 0.11575(11) 0.17942(9)
C4 C 0.2917(2) 0.30460(11) 0.16193(9)
C5 C 0.4158(2) 0.45614(11) 0.26270(10)
H1 H 0.5135 0.4649 0.2063
C6 C 0.5074(2) 0.22852(12) 0.12561(10)
H2 H 0.6189 0.2752 0.1324
C7 C 0.0327(2) 0.25403(12) 0.35692(11)
H3 H -0.0800 0.2873 0.3223
C8 C 0.4216(2) 0.04958(13) 0.21625(11)
H4 H 0.2755 0.0756 0.2105
C9 C 0.3976(2) 0.23473(12) 0.39177(10)
H5 H 0.5333 0.2544 0.3801
C10 C 0.0978(2) 0.57397(12) 0.34249(11)
H6 H -0.0579 0.5875 0.3613
C11 C 0.1271(2) 0.31977(13) 0.10854(10)
H7 H -0.0045 0.3633 0.1339
C12 C 0.4879(3) -0.05483(13) 0.26155(11)
H8 H 0.3863 -0.0979 0.2863
C13 C 0.1744(2) 0.49549(11) 0.25592(10)
H9 H 0.1309 0.5266 0.1950
C14 C 0.2399(3) 0.52087(13) 0.41788(10)
H10 H 0.2129 0.4446 0.4378
H11 H 0.2298 0.5725 0.4725
C15 C 0.1635(3) 0.12492(13) 0.47901(11)
H12 H 0.1399 0.0714 0.5259
C16 C 0.3633(3) 0.15560(13) 0.46196(11)
H13 H 0.4747 0.1232 0.4976
C17 C 0.4529(2) 0.51331(13) 0.35450(11)
H14 H 0.5833 0.4770 0.3832
C18 C 0.7029(3) -0.09482(14) 0.27004(12)
H15 H 0.7478 -0.1651 0.3001
C19 C 0.7855(2) 0.07406(13) 0.18890(12)
H16 H 0.8882 0.1168 0.1647
C20 C 0.5110(3) 0.20185(14) 0.01823(11)
H17 H 0.6407 0.1451 -0.0045
C21 C 0.4367(3) 0.64443(13) 0.33035(12)
H18 H 0.5235 0.6541 0.2717
H19 H 0.4823 0.6874 0.3809
C22 C 0.1427(3) 0.27021(15) 0.00941(11)
H20 H 0.0022 0.2606 -0.0095
C23 C -0.0006(3) 0.17365(14) 0.42649(12)
H21 H -0.1351 0.1526 0.4377
C24 C 0.1928(3) 0.68537(13) 0.32014(12)
H22 H 0.1292 0.7484 0.3648
H23 H 0.1693 0.7116 0.2564
C25 C 0.4929(3) 0.31492(17) -0.04015(13)
H24 H 0.5378 0.3765 -0.0053
H25 H 0.5831 0.3008 -0.0999
C26 C 0.3084(3) 0.15681(15) 0.00020(12)
H26 H 0.2749 0.1006 0.0473
H27 H 0.3204 0.1217 -0.0626
C27 C 0.8506(3) -0.03039(15) 0.23392(14)
H28 H 0.9965 -0.0571 0.2397
C28 C 0.2532(3) 0.35004(18) -0.05761(12)
H29 H 0.1983 0.4321 -0.0418
H30 H 0.2324 0.3356 -0.1231
loop_
_geom_bond_atom_site_label_1
_geom_bond_atom_site_label_2
_geom_bond_site_symmetry_1
_geom_bond_site_symmetry_2
C1 C2 1_555 1_555
C2 C4 1_555 1_555
C3 C6 1_555 1_555
C4 C6 1_555 1_555
C5 C2 1_555 1_555
H1 C5 1_555 1_555
C6 H2 1_555 1_555
C7 C1 1_555 1_555
H3 C7 1_555 1_555
C8 C3 1_555 1_555
H4 C8 1_555 1_555
C9 C1 1_555 1_555
H5 C9 1_555 1_555
C10 H6 1_555 1_555
C11 C4 1_555 1_555
H7 C11 1_555 1_555
C12 C8 1_555 1_555
H8 C12 1_555 1_555
C13 C2 1_555 1_555
H9 C13 1_555 1_555
C14 C10 1_555 1_555
H10 C14 1_555 1_555
H11 C14 1_555 1_555
C15 H12 1_555 1_555
C16 C9 1_555 1_555
H13 C16 1_555 1_555
C17 C5 1_555 1_555
H14 C17 1_555 1_555
C18 C12 1_555 1_555
H15 C18 1_555 1_555
C19 C3 1_555 1_555
H16 C19 1_555 1_555
C20 C6 1_555 1_555
H17 C20 1_555 1_555
C21 C17 1_555 1_555
H18 C21 1_555 1_555
H19 C21 1_555 1_555
C22 C11 1_555 1_555
H20 C22 1_555 1_555
C23 C7 1_555 1_555
H21 C23 1_555 1_555
C24 C10 1_555 1_555
H22 C24 1_555 1_555
H23 C24 1_555 1_555
C25 C20 1_555 1_555
H24 C25 1_555 1_555
H25 C25 1_555 1_555
C26 C20 1_555 1_555
H26 C26 1_555 1_555
H27 C26 1_555 1_555
C27 C18 1_555 1_555
H28 C27 1_555 1_555
C28 C22 1_555 1_555
H29 C28 1_555 1_555
H30 C28 1_555 1_555
C5 C13 1_555 1_555
C10 C13 1_555 1_555
C14 C17 1_555 1_555
C15 C16 1_555 1_555
C15 C23 1_555 1_555
C19 C27 1_555 1_555
C21 C24 1_555 1_555
C22 C26 1_555 1_555
C25 C28 1_555 1_555

#END
