
#######################################################################
#
#                 Cambridge Crystallographic Data Centre
#                                CCDC 
#
#######################################################################
#
# If this CIF has been generated from an entry in the Cambridge 
# Structural Database, then it will include bibliographic, chemical, 
# crystal, experimental, refinement or atomic coordinate data resulting 
# from the CCDC's data processing and validation procedures.
#
#######################################################################

data_TELMAB
_chemical_formula_moiety         'C30 H36'
_chemical_name_systematic        
3-phenyl-3-[2-(1-phenylethyl)bicyclo[3.2.1]octan-3-yl]tricyclo[3.2.1.0^2,4^]octane
_symmetry_cell_setting           monoclinic
_symmetry_space_group_name_H-M   'P 21/c'
_symmetry_Int_Tables_number      14
_space_group_name_Hall           '-P 2ybc'
loop_
_symmetry_equiv_pos_site_id
_symmetry_equiv_pos_as_xyz
1 x,y,z
2 -x,1/2+y,1/2-z
3 -x,-y,-z
4 x,1/2-y,1/2+z
_cell_length_a                   9.4715(2)
_cell_length_b                   21.4798(3)
_cell_length_c                   11.1380(2)
_cell_angle_alpha                90
_cell_angle_beta                 103.142(2)
_cell_angle_gamma                90
_cell_volume                     2206.63
_exptl_crystal_colour            colorless
_exptl_crystal_description       block
_cell_formula_units_Z            4
loop_
_atom_site_label
_atom_site_type_symbol
_atom_site_fract_x
_atom_site_fract_y
_atom_site_fract_z
C1 C 0.80711(13) 0.65349(6) 0.77143(12)
C2 C 0.61602(13) 0.75259(6) 0.62896(11)
H1 H 0.715515 0.755955 0.618006
C3 C 0.45261(14) 0.67254(6) 0.69903(12)
H2 H 0.507105 0.667233 0.784405
C4 C 0.56649(13) 0.68342(6) 0.62076(11)
H3 H 0.517557 0.675636 0.534653
C5 C 0.69695(14) 0.63695(6) 0.65318(12)
H4 H 0.656647 0.596188 0.666575
C6 C 0.60524(14) 0.77987(6) 0.75437(12)
H5 H 0.636430 0.750246 0.820838
H6 H 0.660739 0.818009 0.773027
C7 C 0.92412(14) 0.69358(6) 0.77241(12)
H7 H 0.938123 0.709427 0.698283
C8 C 0.44111(14) 0.79207(6) 0.72905(12)
H8 H 0.413407 0.814618 0.796662
C9 C 1.00070(14) 0.68728(7) 0.99411(13)
H9 H 1.062579 0.699495 1.067649
C10 C 0.79395(14) 0.62895(6) 0.88450(12)
H10 H 0.720411 0.600505 0.886235
C11 C 0.35694(14) 0.61337(6) 0.66626(12)
C12 C 0.28930(14) 0.60577(6) 0.53152(13)
C13 C 1.01962(14) 0.71012(6) 0.88195(13)
H11 H 1.096738 0.736654 0.880261
C14 C 0.35608(14) 0.73001(6) 0.69792(12)
H12 H 0.296350 0.723712 0.757018
H13 H 0.291779 0.733728 0.616945
C15 C 0.35762(14) 0.56935(6) 0.45786(13)
H14 H 0.446007 0.550633 0.492610
C16 C 0.88816(15) 0.64600(7) 0.99466(13)
H15 H 0.875627 0.629672 1.068869
C17 C 0.40639(14) 0.55779(6) 0.75115(12)
H16 H 0.498851 0.561574 0.811761
C18 C 0.28073(14) 0.59827(6) 0.76983(13)
H17 H 0.300229 0.626129 0.841387
C19 C 0.42058(14) 0.83143(6) 0.61149(12)
H18 H 0.456229 0.873501 0.629825
H19 H 0.319477 0.833026 0.568165
C20 C 0.51295(14) 0.79571(6) 0.53606(12)
H20 H 0.568496 0.824563 0.498082
H21 H 0.451250 0.771224 0.471756
C21 C 0.15846(15) 0.63451(6) 0.47612(13)
H22 H 0.111244 0.659165 0.523394
C22 C 0.16541(16) 0.58943(7) 0.27932(13)
H23 H 0.123985 0.583806 0.195959
C23 C 0.76763(15) 0.62996(7) 0.54289(13)
H24 H 0.799990 0.669942 0.521486
H25 H 0.698158 0.613333 0.473854
H26 H 0.848961 0.602226 0.564302
C24 C 0.09779(15) 0.62665(7) 0.35073(14)
H27 H 0.011300 0.646569 0.314866
C25 C 0.29563(16) 0.56053(7) 0.33305(13)
H28 H 0.341470 0.535278 0.285705
C26 C 0.33896(15) 0.49274(6) 0.72891(13)
H29 H 0.390294 0.463459 0.686447
C27 C 0.17970(15) 0.50460(7) 0.66567(14)
H30 H 0.167924 0.521815 0.583477
H31 H 0.119603 0.467862 0.663481
C28 C 0.15485(15) 0.55276(7) 0.75982(14)
H32 H 0.058164 0.571667 0.742542
C29 C 0.19540(17) 0.51398(7) 0.88040(14)
H33 H 0.113980 0.489158 0.891996
H34 H 0.227836 0.540582 0.951713
C30 C 0.32165(16) 0.47174(7) 0.85763(14)
H35 H 0.410071 0.478782 0.919871
H36 H 0.296006 0.428017 0.857533
loop_
_geom_bond_atom_site_label_1
_geom_bond_atom_site_label_2
_geom_bond_site_symmetry_1
_geom_bond_site_symmetry_2
C1 C5 1_555 1_555
C2 H1 1_555 1_555
C3 H2 1_555 1_555
C4 C2 1_555 1_555
H3 C4 1_555 1_555
C5 C4 1_555 1_555
H4 C5 1_555 1_555
C6 C2 1_555 1_555
H5 C6 1_555 1_555
H6 C6 1_555 1_555
C7 C1 1_555 1_555
H7 C7 1_555 1_555
C8 C6 1_555 1_555
H8 C8 1_555 1_555
C9 H9 1_555 1_555
C10 C1 1_555 1_555
H10 C10 1_555 1_555
C11 C3 1_555 1_555
C12 C11 1_555 1_555
C13 C7 1_555 1_555
H11 C13 1_555 1_555
C14 C3 1_555 1_555
H12 C14 1_555 1_555
H13 C14 1_555 1_555
C15 C12 1_555 1_555
H14 C15 1_555 1_555
C16 C9 1_555 1_555
H15 C16 1_555 1_555
C17 C11 1_555 1_555
H16 C17 1_555 1_555
C18 C11 1_555 1_555
H17 C18 1_555 1_555
C19 C8 1_555 1_555
H18 C19 1_555 1_555
H19 C19 1_555 1_555
C20 C2 1_555 1_555
H20 C20 1_555 1_555
H21 C20 1_555 1_555
C21 C12 1_555 1_555
H22 C21 1_555 1_555
C22 H23 1_555 1_555
C23 C5 1_555 1_555
H24 C23 1_555 1_555
H25 C23 1_555 1_555
H26 C23 1_555 1_555
C24 C21 1_555 1_555
H27 C24 1_555 1_555
C25 C15 1_555 1_555
H28 C25 1_555 1_555
C26 C17 1_555 1_555
H29 C26 1_555 1_555
C27 C26 1_555 1_555
H30 C27 1_555 1_555
H31 C27 1_555 1_555
C28 C18 1_555 1_555
H32 C28 1_555 1_555
C29 C28 1_555 1_555
H33 C29 1_555 1_555
H34 C29 1_555 1_555
C30 C26 1_555 1_555
H35 C30 1_555 1_555
H36 C30 1_555 1_555
C3 C4 1_555 1_555
C8 C14 1_555 1_555
C9 C13 1_555 1_555
C10 C16 1_555 1_555
C17 C18 1_555 1_555
C19 C20 1_555 1_555
C22 C24 1_555 1_555
C22 C25 1_555 1_555
C27 C28 1_555 1_555
C29 C30 1_555 1_555

#END
