
#######################################################################
#
#                 Cambridge Crystallographic Data Centre
#                                CCDC 
#
#######################################################################
#
# If this CIF has been generated from an entry in the Cambridge 
# Structural Database, then it will include bibliographic, chemical, 
# crystal, experimental, refinement or atomic coordinate data resulting 
# from the CCDC's data processing and validation procedures.
#
#######################################################################

data_TELRAG
_chemical_formula_moiety         'C35 H26 N2'
_chemical_name_systematic        
4-(2-(4-(2-(4-(diphenylamino)phenyl)vinyl)phenyl)vinyl)benzonitrile
_symmetry_cell_setting           triclinic
_symmetry_space_group_name_H-M   'P -1'
_symmetry_Int_Tables_number      2
_space_group_name_Hall           '-P 1'
loop_
_symmetry_equiv_pos_site_id
_symmetry_equiv_pos_as_xyz
1 x,y,z
2 -x,-y,-z
_cell_length_a                   9.757(3)
_cell_length_b                   14.912(3)
_cell_length_c                   19.110(4)
_cell_angle_alpha                70.356(10)
_cell_angle_beta                 83.560(10)
_cell_angle_gamma                79.708(9)
_cell_volume                     2572.4
_exptl_crystal_colour            yellow
_exptl_crystal_description       block
_cell_formula_units_Z            4
loop_
_atom_site_label
_atom_site_type_symbol
_atom_site_fract_x
_atom_site_fract_y
_atom_site_fract_z
N1 N 0.51972(17) -0.01053(11) 0.35892(10)
N2 N -0.3916(2) 1.31265(13) -0.21417(11)
C1 C 0.6458(2) -0.03180(13) 0.39607(11)
C2 C 0.6552(2) -0.09765(16) 0.46750(12)
H1 H 0.5788 -0.1276 0.4909
C3 C 0.7774(3) -0.11895(18) 0.50404(14)
H2 H 0.7832 -0.1637 0.5516
C4 C 0.8909(2) -0.07416(16) 0.47019(14)
H3 H 0.9724 -0.0875 0.4952
C5 C 0.8826(2) -0.00942(16) 0.39896(14)
H4 H 0.9593 0.0204 0.3758
C6 C 0.7611(2) 0.01149(14) 0.36161(13)
H5 H 0.7568 0.0546 0.3134
C7 C 0.44621(19) -0.08832(13) 0.36779(10)
C8 C 0.5160(2) -0.16884(14) 0.35103(11)
H6 H 0.6077 -0.1696 0.3314
C9 C 0.4504(2) -0.24763(14) 0.36318(11)
H7 H 0.4981 -0.3012 0.3518
C10 C 0.3150(2) -0.24764(15) 0.39199(12)
H8 H 0.2717 -0.3015 0.4010
C11 C 0.2435(2) -0.16714(16) 0.40758(12)
H9 H 0.1511 -0.1665 0.4261
C12 C 0.3083(2) -0.08748(15) 0.39590(11)
H10 H 0.2598 -0.0337 0.4068
C13 C 0.4631(2) 0.08510(13) 0.32026(11)
C14 C 0.4869(2) 0.16152(14) 0.34118(11)
H11 H 0.5418 0.1497 0.3810
C15 C 0.4297(2) 0.25477(14) 0.30333(11)
H12 H 0.4461 0.3048 0.3185
C16 C 0.34759(19) 0.27592(13) 0.24259(10)
C17 C 0.3258(2) 0.19853(14) 0.22198(11)
H13 H 0.2715 0.2102 0.1819
C18 C 0.3825(2) 0.10536(14) 0.25931(12)
H14 H 0.3669 0.0554 0.2438
C19 C 0.29022(19) 0.37653(13) 0.20485(11)
H15 H 0.2978 0.4201 0.2289
C20 C 0.22849(19) 0.41344(13) 0.14027(11)
H16 H 0.2235 0.3717 0.1141
C21 C 0.16781(18) 0.51475(13) 0.10739(10)
C22 C 0.12600(19) 0.54847(13) 0.03397(10)
H17 H 0.1407 0.5067 0.0062
C23 C 0.0636(2) 0.64208(13) 0.00212(10)
H18 H 0.0373 0.6622 -0.0467
C24 C 0.03903(18) 0.70761(12) 0.04188(10)
C25 C 0.08046(19) 0.67393(13) 0.11528(10)
H19 H 0.0656 0.7157 0.1431
C26 C 0.1426(2) 0.58035(14) 0.14701(11)
H20 H 0.1686 0.5602 0.1959
C27 C -0.02901(19) 0.80744(13) 0.01093(10)
H21 H -0.0573 0.8416 0.0441
C28 C -0.05396(19) 0.85372(13) -0.06041(10)
H22 H -0.0262 0.8191 -0.0933
C29 C -0.12074(18) 0.95370(13) -0.09225(10)
C30 C -0.16096(19) 1.01601(13) -0.05043(10)
H23 H -0.1428 0.9946 -0.0002
C31 C -0.22709(19) 1.10865(13) -0.08244(11)
H24 H -0.2524 1.1494 -0.0539
C32 C -0.25613(19) 1.14147(13) -0.15749(11)
C33 C -0.2147(2) 1.08124(14) -0.20042(11)
H25 H -0.2327 1.1029 -0.2506
C34 C -0.1466(2) 0.98896(14) -0.16800(11)
H26 H -0.1173 0.9494 -0.1972
C35 C -0.3310(2) 1.23722(14) -0.18959(11)
N3 N -0.00721(16) 0.50284(11) 0.63027(9)
N4 N 0.87807(19) -0.81203(12) 1.22103(9)
C36 C -0.13872(19) 0.52457(13) 0.59721(11)
C37 C -0.2560(2) 0.48670(14) 0.63591(12)
H27 H -0.2498 0.4447 0.6845
C38 C -0.3825(2) 0.51157(15) 0.60204(13)
H28 H -0.4603 0.4852 0.6277
C39 C -0.3932(2) 0.57536(15) 0.53031(13)
H29 H -0.4780 0.5920 0.5079
C40 C -0.2775(2) 0.61416(16) 0.49220(12)
H30 H -0.2846 0.6576 0.4442
C41 C -0.1507(2) 0.58853(15) 0.52521(11)
H31 H -0.0729 0.6143 0.4990
C42 C 0.05725(19) 0.58346(13) 0.62595(10)
C43 C 0.1954(2) 0.58931(14) 0.59978(12)
H32 H 0.2486 0.5400 0.5847
C44 C 0.2532(2) 0.66957(15) 0.59638(13)
H33 H 0.3460 0.6732 0.5797
C45 C 0.1751(2) 0.74373(15) 0.61741(12)
H34 H 0.2146 0.7972 0.6148
C46 C 0.0374(2) 0.73813(14) 0.64251(11)
H35 H -0.0161 0.7882 0.6564
C47 C -0.0210(2) 0.65852(14) 0.64698(11)
H36 H -0.1135 0.6551 0.6642
C48 C 0.05027(19) 0.40825(13) 0.66963(10)
C49 C 0.0025(2) 0.32938(14) 0.66179(11)
H37 H -0.0659 0.3394 0.6286
C50 C 0.0562(2) 0.23647(14) 0.70295(11)
H38 H 0.0218 0.1852 0.6972
C51 C 0.16050(19) 0.21708(13) 0.75292(10)
C52 C 0.2107(2) 0.29682(13) 0.75822(11)
H39 H 0.2824 0.2866 0.7895
C53 C 0.15699(19) 0.39001(13) 0.71832(10)
H40 H 0.1919 0.4413 0.7238
C54 C 0.2106(2) 0.11741(13) 0.79556(11)
H41 H 0.1599 0.0713 0.7934
C55 C 0.3209(2) 0.08506(13) 0.83733(11)
H42 H 0.3714 0.1309 0.8402
C56 C 0.37041(19) -0.01567(13) 0.87913(10)
C57 C 0.4903(2) -0.03866(13) 0.91927(11)
H43 H 0.5383 0.0105 0.9181
C58 C 0.5393(2) -0.13196(14) 0.96051(11)
H44 H 0.6201 -0.1448 0.9861
C59 C 0.46897(19) -0.20776(13) 0.96446(10)
C60 C 0.3495(2) -0.18476(13) 0.92382(11)
H45 H 0.3015 -0.2339 0.9251
C61 C 0.3010(2) -0.09138(13) 0.88199(11)
H46 H 0.2215 -0.0786 0.8555
C62 C 0.5115(2) -0.30756(13) 1.00998(11)
H47 H 0.4593 -0.3526 1.0073
C63 C 0.6169(2) -0.34098(13) 1.05480(11)
H48 H 0.6682 -0.2960 1.0585
C64 C 0.66000(19) -0.44140(13) 1.09878(10)
C65 C 0.58098(19) -0.51441(14) 1.10600(11)
H49 H 0.4934 -0.4983 1.0864
C66 C 0.63158(19) -0.60961(14) 1.14175(11)
H50 H 0.5787 -0.6574 1.1457
C67 C 0.76250(19) -0.63439(13) 1.17203(10)
C68 C 0.8393(2) -0.56240(13) 1.16891(10)
H51 H 0.9243 -0.5783 1.1910
C69 C 0.7876(2) -0.46748(13) 1.13268(10)
H52 H 0.8388 -0.4196 1.1307
C70 C 0.8236(2) -0.73392(14) 1.20136(10)
loop_
_geom_bond_atom_site_label_1
_geom_bond_atom_site_label_2
_geom_bond_site_symmetry_1
_geom_bond_site_symmetry_2
N1 C1 1_555 1_555
N2 C35 1_555 1_555
C1 C2 1_555 1_555
C2 H1 1_555 1_555
C3 C2 1_555 1_555
H2 C3 1_555 1_555
C4 C3 1_555 1_555
H3 C4 1_555 1_555
C5 C4 1_555 1_555
H4 C5 1_555 1_555
C6 C1 1_555 1_555
H5 C6 1_555 1_555
C7 N1 1_555 1_555
C8 C7 1_555 1_555
H6 C8 1_555 1_555
C9 C8 1_555 1_555
H7 C9 1_555 1_555
C10 C9 1_555 1_555
H8 C10 1_555 1_555
C11 C10 1_555 1_555
H9 C11 1_555 1_555
C12 C7 1_555 1_555
H10 C12 1_555 1_555
C13 N1 1_555 1_555
C14 C13 1_555 1_555
H11 C14 1_555 1_555
C15 C14 1_555 1_555
H12 C15 1_555 1_555
C16 C15 1_555 1_555
C17 C16 1_555 1_555
H13 C17 1_555 1_555
C18 C13 1_555 1_555
H14 C18 1_555 1_555
C19 C16 1_555 1_555
H15 C19 1_555 1_555
C20 C19 1_555 1_555
H16 C20 1_555 1_555
C21 C20 1_555 1_555
C22 C21 1_555 1_555
H17 C22 1_555 1_555
C23 C22 1_555 1_555
H18 C23 1_555 1_555
C24 C23 1_555 1_555
C25 C24 1_555 1_555
H19 C25 1_555 1_555
C26 C21 1_555 1_555
H20 C26 1_555 1_555
C27 C24 1_555 1_555
H21 C27 1_555 1_555
C28 C27 1_555 1_555
H22 C28 1_555 1_555
C29 C28 1_555 1_555
C30 C29 1_555 1_555
H23 C30 1_555 1_555
C31 C30 1_555 1_555
H24 C31 1_555 1_555
C32 C31 1_555 1_555
C33 C32 1_555 1_555
H25 C33 1_555 1_555
C34 C29 1_555 1_555
H26 C34 1_555 1_555
C35 C32 1_555 1_555
N3 C36 1_555 1_555
N4 C70 1_555 1_555
C36 C37 1_555 1_555
C37 H27 1_555 1_555
C38 C37 1_555 1_555
H28 C38 1_555 1_555
C39 C38 1_555 1_555
H29 C39 1_555 1_555
C40 C39 1_555 1_555
H30 C40 1_555 1_555
C41 C36 1_555 1_555
H31 C41 1_555 1_555
C42 N3 1_555 1_555
C43 C42 1_555 1_555
H32 C43 1_555 1_555
C44 C43 1_555 1_555
H33 C44 1_555 1_555
C45 C44 1_555 1_555
H34 C45 1_555 1_555
C46 C45 1_555 1_555
H35 C46 1_555 1_555
C47 C42 1_555 1_555
H36 C47 1_555 1_555
C48 N3 1_555 1_555
C49 C48 1_555 1_555
H37 C49 1_555 1_555
C50 C49 1_555 1_555
H38 C50 1_555 1_555
C51 C50 1_555 1_555
C52 C51 1_555 1_555
H39 C52 1_555 1_555
C53 C48 1_555 1_555
H40 C53 1_555 1_555
C54 C51 1_555 1_555
H41 C54 1_555 1_555
C55 C54 1_555 1_555
H42 C55 1_555 1_555
C56 C55 1_555 1_555
C57 C56 1_555 1_555
H43 C57 1_555 1_555
C58 C57 1_555 1_555
H44 C58 1_555 1_555
C59 C58 1_555 1_555
C60 C59 1_555 1_555
H45 C60 1_555 1_555
C61 C56 1_555 1_555
H46 C61 1_555 1_555
C62 C59 1_555 1_555
H47 C62 1_555 1_555
C63 C62 1_555 1_555
H48 C63 1_555 1_555
C64 C63 1_555 1_555
C65 C64 1_555 1_555
H49 C65 1_555 1_555
C66 C65 1_555 1_555
H50 C66 1_555 1_555
C67 C66 1_555 1_555
C68 C67 1_555 1_555
H51 C68 1_555 1_555
C69 C64 1_555 1_555
H52 C69 1_555 1_555
C70 C67 1_555 1_555
C5 C6 1_555 1_555
C11 C12 1_555 1_555
C17 C18 1_555 1_555
C25 C26 1_555 1_555
C33 C34 1_555 1_555
C40 C41 1_555 1_555
C46 C47 1_555 1_555
C52 C53 1_555 1_555
C60 C61 1_555 1_555
C68 C69 1_555 1_555

#END
