
#######################################################################
#
#                 Cambridge Crystallographic Data Centre
#                                CCDC 
#
#######################################################################
#
# If this CIF has been generated from an entry in the Cambridge 
# Structural Database, then it will include bibliographic, chemical, 
# crystal, experimental, refinement or atomic coordinate data resulting 
# from the CCDC's data processing and validation procedures.
#
#######################################################################

data_TELSEI
_chemical_formula_moiety         'C10 H12 F8'
_chemical_name_systematic        
trans-1,4-bis(Fluoromethyl)-1,4-bis(trifluoromethyl)cyclohexane
_symmetry_cell_setting           monoclinic
_symmetry_space_group_name_H-M   'P 21/n'
_symmetry_Int_Tables_number      14
_space_group_name_Hall           '-P 2yn'
loop_
_symmetry_equiv_pos_site_id
_symmetry_equiv_pos_as_xyz
1 x,y,z
2 1/2-x,1/2+y,1/2-z
3 -x,-y,-z
4 1/2+x,1/2-y,1/2+z
_cell_length_a                   6.808(1)
_cell_length_b                   10.747(2)
_cell_length_c                   7.929(1)
_cell_angle_alpha                90
_cell_angle_beta                 102.40(1)
_cell_angle_gamma                90
_cell_volume                     566.597
_exptl_crystal_colour            colorless
_cell_formula_units_Z            2
loop_
_atom_site_label
_atom_site_type_symbol
_atom_site_fract_x
_atom_site_fract_y
_atom_site_fract_z
F1 F 0.5963(2) 0.2848(1) 0.6547(2)
F2 F 0.1316(1) 0.1619(1) 0.7138(1)
F3 F 0.2686(2) -0.0056(1) 0.8266(1)
F4 F 0.4153(2) 0.1686(1) 0.8945(1)
C1 C 0.2802(2) 0.0143(1) 0.4687(2)
C2 C 0.4168(2) 0.0897(1) 0.6134(2)
C3 C 0.6172(2) 0.0213(1) 0.6775(2)
C4 C 0.4466(2) 0.2195(1) 0.5436(2)
C5 C 0.3094(2) 0.1035(2) 0.7620(2)
H1 H 0.164(2) 0.061(1) 0.422(2)
H2 H 0.239(2) -0.062(1) 0.520(2)
H3 H 0.592(2) -0.053(1) 0.742(2)
H4 H 0.707(2) 0.070(2) 0.759(2)
H5 H 0.487(2) 0.215(2) 0.431(2)
H6 H 0.326(2) 0.273(2) 0.527(2)
C3B C 0.3828(2) -0.0213(1) 0.3225(2)
C2B C 0.5832(2) -0.0897(1) 0.3866(2)
C1B C 0.7198(2) -0.0143(1) 0.5313(2)
H1B H 0.836(2) -0.061(1) 0.578(2)
H2B H 0.761(2) 0.062(1) 0.480(2)
C4B C 0.5534(2) -0.2195(1) 0.4564(2)
F1B F 0.4037(2) -0.2848(1) 0.3453(2)
H5B H 0.513(2) -0.215(2) 0.569(2)
H6B H 0.674(2) -0.273(2) 0.473(2)
C5B C 0.6906(2) -0.1035(2) 0.2380(2)
F2B F 0.8684(1) -0.1619(1) 0.2862(1)
F3B F 0.7314(2) 0.0056(1) 0.1734(1)
F4B F 0.5847(2) -0.1686(1) 0.1055(1)
H3B H 0.408(2) 0.053(1) 0.258(2)
H4B H 0.293(2) -0.070(2) 0.241(2)
loop_
_geom_bond_atom_site_label_1
_geom_bond_atom_site_label_2
_geom_bond_site_symmetry_1
_geom_bond_site_symmetry_2
F1 C4 1_555 1_555
F2 C5 1_555 1_555
F3 C5 1_555 1_555
F4 C5 1_555 1_555
C1 C2 1_555 1_555
C2 C3 1_555 1_555
C3 H3 1_555 1_555
C4 C2 1_555 1_555
C5 C2 1_555 1_555
H1 C1 1_555 1_555
H2 C1 1_555 1_555
H4 C3 1_555 1_555
H5 C4 1_555 1_555
H6 C4 1_555 1_555
C3B C1 1_555 1_555
C2B C3B 1_555 1_555
C1B C3 1_555 1_555
H1B C1B 1_555 1_555
H2B C1B 1_555 1_555
C4B C2B 1_555 1_555
F1B C4B 1_555 1_555
H5B C4B 1_555 1_555
H6B C4B 1_555 1_555
C5B C2B 1_555 1_555
F2B C5B 1_555 1_555
F3B C5B 1_555 1_555
F4B C5B 1_555 1_555
H3B C3B 1_555 1_555
H4B C3B 1_555 1_555
C2B C1B 1_555 1_555

#END
