
#######################################################################
#
#                 Cambridge Crystallographic Data Centre
#                                CCDC 
#
#######################################################################
#
# If this CIF has been generated from an entry in the Cambridge 
# Structural Database, then it will include bibliographic, chemical, 
# crystal, experimental, refinement or atomic coordinate data resulting 
# from the CCDC's data processing and validation procedures.
#
#######################################################################

data_TEMDEW
_chemical_formula_moiety         'C15 H24 O3'
_chemical_name_systematic        
(2R,3R,6R)-3-Hydroxy-3,6-dimethyl-2-(3-methylbut-1-en-1-yl)hexahydro-1-benzofuran-4(2H)-one
_chemical_properties_biological  'inhibitory activity against H+/K+ ATPase'
_symmetry_cell_setting           orthorhombic
_symmetry_space_group_name_H-M   'P 21 21 21'
_symmetry_Int_Tables_number      19
_space_group_name_Hall           'P 2ac 2ab'
loop_
_symmetry_equiv_pos_site_id
_symmetry_equiv_pos_as_xyz
1 x,y,z
2 1/2-x,-y,1/2+z
3 1/2+x,1/2-y,-z
4 -x,1/2+y,1/2-z
_cell_length_a                   5.416(4)
_cell_length_b                   11.685(8)
_cell_length_c                   23.410(16)
_cell_angle_alpha                90
_cell_angle_beta                 90
_cell_angle_gamma                90
_cell_volume                     1481.52
_exptl_crystal_colour            colorless
_exptl_crystal_description       prism
_cell_formula_units_Z            4
loop_
_atom_site_label
_atom_site_type_symbol
_atom_site_fract_x
_atom_site_fract_y
_atom_site_fract_z
C1 C 0.5596(12) 0.5211(6) -0.1415(3)
H1 H 0.5368 0.5973 -0.1558
H2 H 0.4075 0.4939 -0.1254
H3 H 0.6088 0.4716 -0.1722
C2 C 0.7600(8) 0.5217(4) -0.09543(18)
H4 H 0.9144 0.5491 -0.1125
C3 C 0.8010(8) 0.3993(3) -0.07280(17)
H5 H 0.6452 0.3695 -0.0588
H6 H 0.8542 0.3508 -0.1041
C4 C 0.9870(6) 0.3932(3) -0.02631(14)
C5 C 0.9939(6) 0.4878(2) 0.01769(14)
H7 H 1.1664 0.4981 0.0293
C6 C 0.8967(8) 0.6041(3) -0.00211(18)
H8 H 1.0340 0.6496 -0.0172
C7 C 0.6937(8) 0.5988(4) -0.0458(2)
H9 H 0.6608 0.6753 -0.0600
H10 H 0.5441 0.5707 -0.0279
C8 C 0.8427(6) 0.4621(3) 0.07191(14)
C9 C 0.8234(8) 0.5837(3) 0.09638(17)
H11 H 0.9778 0.6014 0.1164
C10 C 0.9651(9) 0.3790(4) 0.11237(18)
H12 H 0.8614 0.3676 0.1451
H13 H 1.1214 0.4093 0.1244
H14 H 0.9903 0.3072 0.0933
C11 C 0.6127(10) 0.6057(4) 0.1364(2)
H15 H 0.4710 0.5608 0.1348
C12 C 0.6306(14) 0.6899(6) 0.1740(3)
H16 H 0.7567 0.7413 0.1658
C13 C 0.5014(15) 0.7173(6) 0.2229(3)
H17 H 0.3716 0.7534 0.2000
C14 C 0.330(2) 0.6456(9) 0.2476(4)
H18 H 0.3112 0.5783 0.2245
H19 H 0.1745 0.6845 0.2506
H20 H 0.3855 0.6241 0.2851
C15 C 0.555(2) 0.8264(8) 0.2506(3)
H21 H 0.6596 0.8714 0.2264
H22 H 0.6364 0.8127 0.2864
H23 H 0.4031 0.8668 0.2574
O1 O 1.1299(5) 0.3131(2) -0.02226(12)
O2 O 0.5984(4) 0.4254(2) 0.05836(11)
H24 H 0.6015 0.3583 0.0481
O3 O 0.8028(6) 0.6577(2) 0.04859(14)
loop_
_geom_bond_atom_site_label_1
_geom_bond_atom_site_label_2
_geom_bond_site_symmetry_1
_geom_bond_site_symmetry_2
C1 H1 1_555 1_555
H2 C1 1_555 1_555
H3 C1 1_555 1_555
C2 C1 1_555 1_555
H4 C2 1_555 1_555
C3 C2 1_555 1_555
H5 C3 1_555 1_555
H6 C3 1_555 1_555
C4 C3 1_555 1_555
C5 C4 1_555 1_555
H7 C5 1_555 1_555
C6 C5 1_555 1_555
H8 C6 1_555 1_555
C7 C2 1_555 1_555
H9 C7 1_555 1_555
H10 C7 1_555 1_555
C8 C5 1_555 1_555
C9 C8 1_555 1_555
H11 C9 1_555 1_555
C10 C8 1_555 1_555
H12 C10 1_555 1_555
H13 C10 1_555 1_555
H14 C10 1_555 1_555
C11 C9 1_555 1_555
H15 C11 1_555 1_555
C12 C11 1_555 1_555
H16 C12 1_555 1_555
C13 C12 1_555 1_555
H17 C13 1_555 1_555
C14 C13 1_555 1_555
H18 C14 1_555 1_555
H19 C14 1_555 1_555
H20 C14 1_555 1_555
C15 C13 1_555 1_555
H21 C15 1_555 1_555
H22 C15 1_555 1_555
H23 C15 1_555 1_555
O1 C4 1_555 1_555
O2 C8 1_555 1_555
H24 O2 1_555 1_555
O3 C6 1_555 1_555
C6 C7 1_555 1_555
C9 O3 1_555 1_555

#END
