
#######################################################################
#
#                 Cambridge Crystallographic Data Centre
#                                CCDC 
#
#######################################################################
#
# If this CIF has been generated from an entry in the Cambridge 
# Structural Database, then it will include bibliographic, chemical, 
# crystal, experimental, refinement or atomic coordinate data resulting 
# from the CCDC's data processing and validation procedures.
#
#######################################################################

data_TEMJAY
_chemical_formula_moiety         'C17 H18 O3 S4'
_chemical_name_systematic        
3-(1,3-Dithiolan-2-ylidene)-4-(5-(1-(1,3-dithiolan-2-ylidene)-2-oxopropyl)-2-furyl)butan-2-one
_symmetry_cell_setting           monoclinic
_symmetry_space_group_name_H-M   'P 21/c'
_symmetry_Int_Tables_number      14
_space_group_name_Hall           '-P 2ybc'
loop_
_symmetry_equiv_pos_site_id
_symmetry_equiv_pos_as_xyz
1 x,y,z
2 -x,1/2+y,1/2-z
3 -x,-y,-z
4 x,1/2-y,1/2+z
_cell_length_a                   15.073(5)
_cell_length_b                   8.666(5)
_cell_length_c                   15.843(5)
_cell_angle_alpha                90
_cell_angle_beta                 116.531(5)
_cell_angle_gamma                90
_cell_volume                     1851.53
_exptl_crystal_colour            yellow
_exptl_crystal_description       prism
_cell_formula_units_Z            4
loop_
_atom_site_label
_atom_site_type_symbol
_atom_site_fract_x
_atom_site_fract_y
_atom_site_fract_z
C1 C 1.2009(2) -0.0447(3) 0.1563(3)
C2 C 1.27551(16) 0.0812(2) 0.20296(17)
C3 C 1.24023(13) 0.2414(2) 0.19365(14)
C4 C 1.13331(13) 0.2734(2) 0.14208(14)
C5 C 1.07163(15) 0.3138(2) 0.05350(16)
C6 C 0.97413(15) 0.3207(2) 0.04675(15)
C7 C 0.98292(13) 0.2856(2) 0.13225(14)
C8 C 0.91131(15) 0.2746(3) 0.17371(16)
C9 C 0.80682(14) 0.2459(2) 0.09964(14)
C10 C 0.77610(19) 0.0875(3) 0.06574(19)
C11 C 0.8536(3) -0.0383(4) 0.0990(4)
C12 C 1.30492(13) 0.3599(2) 0.23536(14)
C13 C 1.4561(2) 0.5374(4) 0.3334(4)
C14 C 1.3803(2) 0.6371(4) 0.2917(3)
C15 C 0.74251(13) 0.3645(2) 0.06069(13)
C16 C 0.6544(2) 0.6355(4) 0.0375(3)
C17 C 0.5973(3) 0.5472(4) -0.0496(2)
O1 O 1.36321(12) 0.04980(19) 0.24837(16)
O2 O 1.07958(9) 0.25486(16) 0.19295(9)
O3 O 0.69108(14) 0.0557(2) 0.01273(15)
S1 S 1.43215(4) 0.33975(7) 0.29990(4)
S2 S 1.26205(4) 0.54910(6) 0.22471(4)
S3 S 0.77742(4) 0.55519(6) 0.09415(5)
S4 S 0.62041(4) 0.34329(7) -0.02565(4)
H1 H 1.234(3) -0.119(5) 0.135(3)
H2 H 1.173(3) -0.083(4) 0.191(3)
H3 H 1.149(3) -0.013(5) 0.104(3)
H4 H 1.0915(19) 0.329(3) 0.0071(19)
H5 H 0.9111(16) 0.348(2) -0.0087(15)
H6 H 0.9158(17) 0.377(3) 0.2061(16)
H7 H 0.934(2) 0.197(3) 0.221(2)
H8 H 0.910(2) -0.025(3) 0.0927(19)
H9 H 0.875(4) -0.067(5) 0.164(4)
H10 H 0.825(4) -0.119(6) 0.063(3)
H11 H 1.501(2) 0.546(4) 0.351(2)
H12 H 1.379(2) 0.710(3) 0.304(2)
H13 H 0.660(2) 0.741(4) 0.017(2)
H14 H 0.624(3) 0.611(5) 0.087(3)
H15 H 0.630(3) 0.573(5) -0.088(3)
H16 H 0.527(3) 0.549(5) -0.078(3)
loop_
_geom_bond_atom_site_label_1
_geom_bond_atom_site_label_2
_geom_bond_site_symmetry_1
_geom_bond_site_symmetry_2
C1 C2 1_555 1_555
C2 C3 1_555 1_555
C3 C4 1_555 1_555
C4 C5 1_555 1_555
C5 C6 1_555 1_555
C6 C7 1_555 1_555
C7 C8 1_555 1_555
C8 C9 1_555 1_555
C9 C10 1_555 1_555
C10 C11 1_555 1_555
C11 H8 1_555 1_555
C12 C3 1_555 1_555
C13 C14 1_555 1_555
C14 S2 1_555 1_555
C15 C9 1_555 1_555
C16 C17 1_555 1_555
C17 S4 1_555 1_555
O1 C2 1_555 1_555
O2 C4 1_555 1_555
O3 C10 1_555 1_555
S1 C12 1_555 1_555
S2 C12 1_555 1_555
S3 C15 1_555 1_555
S4 C15 1_555 1_555
H1 C1 1_555 1_555
H2 C1 1_555 1_555
H3 C1 1_555 1_555
H4 C5 1_555 1_555
H5 C6 1_555 1_555
H6 C8 1_555 1_555
H7 C8 1_555 1_555
H9 C11 1_555 1_555
H10 C11 1_555 1_555
H11 C13 1_555 1_555
H12 C14 1_555 1_555
H13 C16 1_555 1_555
H14 C16 1_555 1_555
H15 C17 1_555 1_555
H16 C17 1_555 1_555
C7 O2 1_555 1_555
C13 S1 1_555 1_555
C16 S3 1_555 1_555

#END
