
#######################################################################
#
#                 Cambridge Crystallographic Data Centre
#                                CCDC 
#
#######################################################################
#
# If this CIF has been generated from an entry in the Cambridge 
# Structural Database, then it will include bibliographic, chemical, 
# crystal, experimental, refinement or atomic coordinate data resulting 
# from the CCDC's data processing and validation procedures.
#
#######################################################################

data_TEMJOM
_chemical_formula_moiety         '2(C10 H19 N2 O1 1+),I3 1-,I1 1-'
_chemical_name_systematic        
'bis(N-(4-(dimethylamino)-5,5-dimethyl-5H-furan-2-ylidene)-N,N-dimethylammonium) iodide triiodide'
_symmetry_cell_setting           monoclinic
_symmetry_space_group_name_H-M   'C 2/m'
_symmetry_Int_Tables_number      12
_space_group_name_Hall           '-C 2y'
loop_
_symmetry_equiv_pos_site_id
_symmetry_equiv_pos_as_xyz
1 x,y,z
2 -x,y,-z
3 1/2+x,1/2+y,z
4 1/2-x,1/2+y,-z
5 -x,-y,-z
6 x,-y,z
7 1/2-x,1/2-y,-z
8 1/2+x,1/2-y,z
_cell_length_a                   16.0949(8)
_cell_length_b                   7.3094(3)
_cell_length_c                   13.8736(6)
_cell_angle_alpha                90
_cell_angle_beta                 116.517(3)
_cell_angle_gamma                90
_cell_volume                     1460.45
_exptl_crystal_colour            brown
_exptl_crystal_description       block
_cell_formula_units_Z            2
loop_
_atom_site_label
_atom_site_type_symbol
_atom_site_fract_x
_atom_site_fract_y
_atom_site_fract_z
I1 I 0.0000 0.0000 0.0000
I2 I 0.198894(17) 0.0000 0.143915(17)
I2A I -0.198894(17) 0.0000 -0.143915(17)
I3 I 0.0000 0.0000 0.5000
N1 N 0.18250(18) 0.5000 0.4702(2)
C1 C 0.1148(3) 0.5000 0.5133(3)
H1 H 0.076(2) 0.391(5) 0.489(3)
H2 H 0.147(3) 0.5000 0.592(4)
C2 C 0.2791(2) 0.5000 0.5499(3)
H3 H 0.310(2) 0.391(4) 0.541(2)
H4 H 0.283(3) 0.5000 0.622(2)
C3 C 0.1632(2) 0.5000 0.3668(2)
C4 C 0.0658(2) 0.5000 0.2736(2)
C5 C 0.01176(17) 0.3254(4) 0.26458(18)
H5 H -0.0474 0.3297 0.1992
H6 H -0.0001 0.3135 0.3277
H7 H 0.0480 0.2201 0.2610
O1 O 0.08501(15) 0.5000 0.17928(16)
C6 C 0.1767(2) 0.5000 0.2135(2)
C7 C 0.2267(2) 0.5000 0.3265(2)
H8 H 0.2924 0.5000 0.3671
N2 N 0.20631(18) 0.5000 0.13984(19)
C8 C 0.3047(2) 0.5000 0.1685(3)
H9 H 0.334(3) 0.391(5) 0.211(3)
H10 H 0.313(3) 0.5000 0.103(4)
C9 C 0.1418(3) 0.5000 0.0256(3)
H11 H 0.103(3) 0.391(6) 0.008(3)
H12 H 0.177(1) 0.5000 -0.017(5)
H1E H 0.076(2) 0.609(5) 0.489(3)
H3E H 0.310(2) 0.609(4) 0.541(2)
C5E C 0.01176(17) 0.6746(4) 0.26458(18)
H5E H -0.0474 0.6703 0.1992
H6E H -0.0001 0.6865 0.3277
H7E H 0.0480 0.7799 0.2610
H9E H 0.334(3) 0.609(5) 0.211(3)
H11E H 0.103(3) 0.609(6) 0.008(3)
loop_
_geom_bond_atom_site_label_1
_geom_bond_atom_site_label_2
_geom_bond_site_symmetry_1
_geom_bond_site_symmetry_2
I1 I2 1_555 1_555
N1 C1 1_555 1_555
C1 H1 1_555 1_555
H2 C1 1_555 1_555
C2 N1 1_555 1_555
H3 C2 1_555 1_555
H4 C2 1_555 1_555
C3 N1 1_555 1_555
C4 C3 1_555 1_555
C5 C4 1_555 1_555
H5 C5 1_555 1_555
H6 C5 1_555 1_555
H7 C5 1_555 1_555
O1 C4 1_555 1_555
C6 O1 1_555 1_555
C7 C3 1_555 1_555
H8 C7 1_555 1_555
N2 C6 1_555 1_555
C8 N2 1_555 1_555
H9 C8 1_555 1_555
H10 C8 1_555 1_555
C9 N2 1_555 1_555
H11 C9 1_555 1_555
H12 C9 1_555 1_555
I2A I1 1_555 1_555
H1E C1 1_555 1_555
H3E C2 1_555 1_555
C5E C4 1_555 1_555
H5E C5E 1_555 1_555
H6E C5E 1_555 1_555
H7E C5E 1_555 1_555
H9E C8 1_555 1_555
H11E C9 1_555 1_555
C6 C7 1_555 1_555

#END
