
#######################################################################
#
#                 Cambridge Crystallographic Data Centre
#                                CCDC 
#
#######################################################################
#
# If this CIF has been generated from an entry in the Cambridge 
# Structural Database, then it will include bibliographic, chemical, 
# crystal, experimental, refinement or atomic coordinate data resulting 
# from the CCDC's data processing and validation procedures.
#
#######################################################################

data_TEMJIG
_chemical_formula_moiety         'C11 H23 I1 N3 O1 1+,I1 1-'
_chemical_name_systematic        
'N-(1,3-bis(dimethylamino)-3-ethoxy-2-iodoprop-2-en-1-ylidene)-N,N-dimethylammonium iodide'
_symmetry_cell_setting           monoclinic
_symmetry_space_group_name_H-M   'C 2/c'
_symmetry_Int_Tables_number      15
_space_group_name_Hall           '-C 2yn'
loop_
_symmetry_equiv_pos_site_id
_symmetry_equiv_pos_as_xyz
1 x,y,z
2 -x,y,1/2-z
3 1/2+x,1/2+y,z
4 1/2-x,1/2+y,1/2-z
5 -x,-y,-z
6 x,-y,1/2+z
7 1/2-x,1/2-y,-z
8 1/2+x,1/2-y,1/2+z
_cell_length_a                   32.458(6)
_cell_length_b                   7.9903(15)
_cell_length_c                   14.550(2)
_cell_angle_alpha                90
_cell_angle_beta                 116.1430(10)
_cell_angle_gamma                90
_cell_volume                     3387.49
_exptl_crystal_colour            colorless
_exptl_crystal_description       block
_cell_formula_units_Z            8
loop_
_atom_site_label
_atom_site_type_symbol
_atom_site_fract_x
_atom_site_fract_y
_atom_site_fract_z
I1 I 0.0000 0.04079(8) 0.2500
I2 I 0.2500 0.2500 0.0000
I3 I -0.178840(11) 0.46503(4) -0.26401(2)
N1 N -0.15233(13) 0.8691(5) -0.1987(3)
C1 C -0.12227(13) 0.7573(5) -0.1381(3)
N2 N -0.07778(13) 0.8006(6) -0.0912(3)
C2 C -0.13659(14) 0.5919(5) -0.1260(3)
C3 C -0.12072(15) 0.5084(5) -0.0345(3)
N3 N -0.10262(14) 0.5832(6) 0.0588(3)
C4 C -0.0664(3) 0.5038(11) 0.1488(5)
H1 H -0.0778 0.4804 0.1982
H2 H -0.0405 0.5776 0.1783
H3 H -0.0573 0.4011 0.1288
C5 C -0.1139(2) 0.7514(8) 0.0747(4)
H4 H -0.1432 0.7815 0.0206
H5 H -0.0909 0.8269 0.0748
H6 H -0.1153 0.7580 0.1392
O1 O -0.12191(15) 0.3407(5) -0.0356(3)
C6 C -0.1426(3) 0.2579(9) 0.0238(6)
H7 H -0.1316 0.1435 0.0381
H8 H -0.1332 0.3153 0.0887
C7 C -0.1922(3) 0.2577(16) -0.0311(7)
H9 H -0.2014 0.2116 -0.0982
H10 H -0.2034 0.3704 -0.0369
H11 H -0.2047 0.1911 0.0056
C8 C -0.20051(18) 0.8665(9) -0.2193(5)
H12 H -0.2186 0.8221 -0.2866
H13 H -0.2105 0.9783 -0.2155
H14 H -0.2042 0.7974 -0.1695
C9 C -0.1407(3) 0.9897(7) -0.2594(5)
H15 H -0.1337 1.0959 -0.2251
H16 H -0.1663 1.0018 -0.3256
H17 H -0.1145 0.9502 -0.2673
C10 C -0.0627(2) 0.9727(8) -0.0615(5)
H18 H -0.0504 1.0170 -0.1055
H19 H -0.0395 0.9747 0.0081
H20 H -0.0884 1.0394 -0.0675
C11 C -0.04056(18) 0.6805(10) -0.0573(5)
H21 H -0.0269 0.6720 0.0160
H22 H -0.0179 0.7168 -0.0785
H23 H -0.0523 0.5732 -0.0869
loop_
_geom_bond_atom_site_label_1
_geom_bond_atom_site_label_2
_geom_bond_site_symmetry_1
_geom_bond_site_symmetry_2
I3 C2 1_555 1_555
N1 C1 1_555 1_555
C1 N2 1_555 1_555
N2 C10 1_555 1_555
C2 C1 1_555 1_555
C3 C2 1_555 1_555
N3 C3 1_555 1_555
C4 N3 1_555 1_555
H1 C4 1_555 1_555
H2 C4 1_555 1_555
H3 C4 1_555 1_555
C5 N3 1_555 1_555
H4 C5 1_555 1_555
H5 C5 1_555 1_555
H6 C5 1_555 1_555
O1 C3 1_555 1_555
C6 O1 1_555 1_555
H7 C6 1_555 1_555
H8 C6 1_555 1_555
C7 C6 1_555 1_555
H9 C7 1_555 1_555
H10 C7 1_555 1_555
H11 C7 1_555 1_555
C8 N1 1_555 1_555
H12 C8 1_555 1_555
H13 C8 1_555 1_555
H14 C8 1_555 1_555
C9 N1 1_555 1_555
H15 C9 1_555 1_555
H16 C9 1_555 1_555
H17 C9 1_555 1_555
C10 H18 1_555 1_555
H19 C10 1_555 1_555
H20 C10 1_555 1_555
C11 N2 1_555 1_555
H21 C11 1_555 1_555
H22 C11 1_555 1_555
H23 C11 1_555 1_555

#END
