
#######################################################################
#
#                 Cambridge Crystallographic Data Centre
#                                CCDC 
#
#######################################################################
#
# If this CIF has been generated from an entry in the Cambridge 
# Structural Database, then it will include bibliographic, chemical, 
# crystal, experimental, refinement or atomic coordinate data resulting 
# from the CCDC's data processing and validation procedures.
#
#######################################################################

data_TEMQEK
_chemical_formula_moiety         'C16 H18 O2'
_chemical_name_systematic        
1-(3-methyl-6-phenyl-8-oxabicyclo[3.2.1]oct-2-en-6-yl)ethan-1-one
_symmetry_cell_setting           orthorhombic
_symmetry_space_group_name_H-M   'P n a 21'
_symmetry_Int_Tables_number      33
_space_group_name_Hall           'P 2c -2n'
loop_
_symmetry_equiv_pos_site_id
_symmetry_equiv_pos_as_xyz
1 x,y,z
2 -x,-y,1/2+z
3 1/2-x,1/2+y,1/2+z
4 1/2+x,1/2-y,z
_cell_length_a                   16.3031(7)
_cell_length_b                   6.1090(3)
_cell_length_c                   26.0729(16)
_cell_angle_alpha                90
_cell_angle_beta                 90
_cell_angle_gamma                90
_cell_volume                     2596.75
_exptl_crystal_colour            'light colorless'
_exptl_crystal_description       block
_cell_formula_units_Z            8
loop_
_atom_site_label
_atom_site_type_symbol
_atom_site_fract_x
_atom_site_fract_y
_atom_site_fract_z
O1 O -0.35697(15) -0.6974(5) -0.10047(11)
O2 O -0.35402(17) -0.4967(6) 0.01694(12)
C1 C -0.6153(2) -0.6760(7) -0.04893(16)
H1 H -0.6090 -0.8056 -0.0672
C2 C -0.6931(2) -0.5887(8) -0.04264(18)
H2 H -0.7382 -0.6621 -0.0561
C3 C -0.7045(3) -0.3947(8) -0.01666(18)
H3 H -0.7568 -0.3361 -0.0128
C4 C -0.6365(3) -0.2876(8) 0.0037(2)
H4 H -0.6430 -0.1557 0.0211
C5 C -0.5593(2) -0.3780(7) -0.00195(17)
H5 H -0.5146 -0.3059 0.0123
C6 C -0.5462(2) -0.5739(6) -0.02838(14)
C7 C -0.4587(2) -0.6529(6) -0.03721(15)
C8 C -0.4140(2) -0.5356(6) -0.08219(15)
H6 H -0.3836 -0.4094 -0.0688
C9 C -0.4683(2) -0.4619(6) -0.12673(15)
H7 H -0.5155 -0.3839 -0.1134
H8 H -0.4377 -0.3626 -0.1486
C10 C -0.4966(2) -0.6550(6) -0.15776(15)
C11 C -0.4703(2) -0.8513(6) -0.14768(15)
H9 H -0.4892 -0.9699 -0.1666
C12 C -0.4078(2) -0.8869(6) -0.10439(16)
H10 H -0.3747 -1.0182 -0.1107
C13 C -0.4487(2) -0.8978(6) -0.05193(15)
H11 H -0.4143 -0.9741 -0.0274
H12 H -0.5014 -0.9706 -0.0539
C14 C -0.4116(2) -0.6199(7) 0.01394(16)
C15 C -0.4394(3) -0.7476(8) 0.05956(19)
H13 H -0.3926 -0.7941 0.0790
H14 H -0.4698 -0.8736 0.0484
H15 H -0.4739 -0.6573 0.0806
C16 C -0.5555(2) -0.6026(8) -0.20130(17)
H16 H -0.5637 -0.7311 -0.2219
H17 H -0.5328 -0.4880 -0.2221
H18 H -0.6071 -0.5558 -0.1874
O3 O -0.39332(16) -0.2784(5) -0.24589(11)
O4 O -0.40298(18) -0.4832(6) -0.36266(13)
C17 C -0.2010(2) -0.6081(6) -0.35069(16)
H19 H -0.2473 -0.6687 -0.3660
C18 C -0.1244(3) -0.7090(8) -0.3582(2)
H20 H -0.1201 -0.8358 -0.3777
C19 C -0.0558(3) -0.6173(9) -0.3361(2)
H21 H -0.0048 -0.6832 -0.3404
C20 C -0.0624(2) -0.4281(8) -0.30769(17)
H22 H -0.0157 -0.3651 -0.2934
C21 C -0.1388(2) -0.3308(8) -0.30024(16)
H23 H -0.1427 -0.2032 -0.2809
C22 C -0.2095(2) -0.4224(6) -0.32135(14)
C23 C -0.2950(2) -0.3303(7) -0.31052(13)
C24 C -0.3386(2) -0.4470(6) -0.26529(15)
H24 H -0.3707 -0.5710 -0.2782
C25 C -0.2839(2) -0.5218(6) -0.22113(14)
H25 H -0.3149 -0.6195 -0.1991
H26 H -0.2378 -0.6033 -0.2349
C26 C -0.2523(2) -0.3343(7) -0.18989(15)
C27 C -0.2780(2) -0.1345(6) -0.19965(16)
H27 H -0.2580 -0.0175 -0.1806
C28 C -0.3398(2) -0.0944(6) -0.24172(16)
H28 H -0.3712 0.0394 -0.2349
C29 C -0.3003(2) -0.0848(7) -0.29500(16)
H29 H -0.2462 -0.0187 -0.2935
H30 H -0.3341 -0.0029 -0.3189
C30 C -0.3459(2) -0.3576(7) -0.35982(15)
C31 C -0.3221(3) -0.2197(9) -0.4053(2)
H31 H -0.3321 -0.3001 -0.4363
H32 H -0.2649 -0.1833 -0.4032
H33 H -0.3541 -0.0877 -0.4055
C32 C -0.1933(2) -0.3903(8) -0.14737(16)
H34 H -0.1746 -0.2581 -0.1313
H35 H -0.1473 -0.4682 -0.1613
H36 H -0.2205 -0.4804 -0.1224
loop_
_geom_bond_atom_site_label_1
_geom_bond_atom_site_label_2
_geom_bond_site_symmetry_1
_geom_bond_site_symmetry_2
O1 C8 1_555 1_555
O2 C14 1_555 1_555
C1 H1 1_555 1_555
C2 C1 1_555 1_555
H2 C2 1_555 1_555
C3 C2 1_555 1_555
H3 C3 1_555 1_555
C4 C3 1_555 1_555
H4 C4 1_555 1_555
C5 C4 1_555 1_555
H5 C5 1_555 1_555
C6 C1 1_555 1_555
C7 C6 1_555 1_555
C8 C7 1_555 1_555
H6 C8 1_555 1_555
C9 C8 1_555 1_555
H7 C9 1_555 1_555
H8 C9 1_555 1_555
C10 C9 1_555 1_555
C11 C10 1_555 1_555
H9 C11 1_555 1_555
C12 O1 1_555 1_555
H10 C12 1_555 1_555
C13 C7 1_555 1_555
H11 C13 1_555 1_555
H12 C13 1_555 1_555
C14 C7 1_555 1_555
C15 C14 1_555 1_555
H13 C15 1_555 1_555
H14 C15 1_555 1_555
H15 C15 1_555 1_555
C16 C10 1_555 1_555
H16 C16 1_555 1_555
H17 C16 1_555 1_555
H18 C16 1_555 1_555
O3 C24 1_555 1_555
O4 C30 1_555 1_555
C17 H19 1_555 1_555
C18 C17 1_555 1_555
H20 C18 1_555 1_555
C19 C18 1_555 1_555
H21 C19 1_555 1_555
C20 C19 1_555 1_555
H22 C20 1_555 1_555
C21 C20 1_555 1_555
H23 C21 1_555 1_555
C22 C17 1_555 1_555
C23 C22 1_555 1_555
C24 C23 1_555 1_555
H24 C24 1_555 1_555
C25 C24 1_555 1_555
H25 C25 1_555 1_555
H26 C25 1_555 1_555
C26 C25 1_555 1_555
C27 C26 1_555 1_555
H27 C27 1_555 1_555
C28 O3 1_555 1_555
H28 C28 1_555 1_555
C29 C23 1_555 1_555
H29 C29 1_555 1_555
H30 C29 1_555 1_555
C30 C23 1_555 1_555
C31 C30 1_555 1_555
H31 C31 1_555 1_555
H32 C31 1_555 1_555
H33 C31 1_555 1_555
C32 C26 1_555 1_555
H34 C32 1_555 1_555
H35 C32 1_555 1_555
H36 C32 1_555 1_555
C5 C6 1_555 1_555
C11 C12 1_555 1_555
C12 C13 1_555 1_555
C21 C22 1_555 1_555
C27 C28 1_555 1_555
C28 C29 1_555 1_555

#END
