
#######################################################################
#
#                 Cambridge Crystallographic Data Centre
#                                CCDC 
#
#######################################################################
#
# If this CIF has been generated from an entry in the Cambridge 
# Structural Database, then it will include bibliographic, chemical, 
# crystal, experimental, refinement or atomic coordinate data resulting 
# from the CCDC's data processing and validation procedures.
#
#######################################################################

data_TEMXER
_chemical_formula_moiety         'C39 H47 N7 O2,C8 H20 N1 1+,C3 H5 O3 1-'
_chemical_name_systematic        
'1,17,22,22,31,31-hexamethyl-5,13,36,37,38,39,40-hepta-azaheptacyclo[15.9.9.1^7,11^.1^18,21^.1^23,26^.1^27,30^.1^32,35^]tetraconta-7(40),8,10,18,20,23,25,27,29,32,34-undecaene-6,12-dione tetraethylammonium ethyl carbonate'
_symmetry_cell_setting           monoclinic
_symmetry_space_group_name_H-M   'P 21/n'
_symmetry_Int_Tables_number      14
_space_group_name_Hall           '-P 2yn'
loop_
_symmetry_equiv_pos_site_id
_symmetry_equiv_pos_as_xyz
1 x,y,z
2 1/2-x,1/2+y,1/2-z
3 -x,-y,-z
4 1/2+x,1/2-y,1/2+z
_cell_length_a                   10.4462(6)
_cell_length_b                   22.7345(15)
_cell_length_c                   20.4186(12)
_cell_angle_alpha                90
_cell_angle_beta                 99.217(3)
_cell_angle_gamma                90
_cell_volume                     4786.59
_exptl_crystal_colour            colorless
_exptl_crystal_description       prisms
_cell_formula_units_Z            4
loop_
_atom_site_label
_atom_site_type_symbol
_atom_site_fract_x
_atom_site_fract_y
_atom_site_fract_z
O1 O 0.62458(15) 0.04268(7) 0.51474(7)
O2 O 1.13253(15) -0.10481(7) 0.71315(8)
N1 N 0.88559(16) 0.11116(7) 0.93668(8)
H1 H 0.844(2) 0.0922(10) 0.9033(11)
N2 N 0.63783(16) 0.17163(8) 0.84360(7)
H2 H 0.673(2) 0.1362(10) 0.8349(10)
N3 N 0.79457(15) 0.16696(7) 0.71421(8)
H3 H 0.792(2) 0.1347(10) 0.7385(10)
N4 N 1.04186(16) 0.10520(7) 0.80504(7)
H4 H 0.960(2) 0.0900(9) 0.7988(10)
N5 N 0.61094(17) 0.02029(8) 0.62215(8)
H5 H 0.651(2) 0.0035(9) 0.6591(11)
N6 N 0.84422(16) -0.03641(7) 0.63322(8)
N7 N 0.96598(18) -0.06638(7) 0.75765(8)
H6 H 0.887(2) -0.0508(10) 0.7487(11)
C1 C 1.01667(18) 0.10433(8) 0.95823(9)
C2 C 1.0474(2) 0.13920(9) 1.01299(9)
H7 H 1.131131 0.143704 1.038592
C3 C 0.9328(2) 0.16739(9) 1.02486(10)
H8 H 0.926344 0.194117 1.059944
C4 C 0.8325(2) 0.14967(9) 0.97720(9)
C5 C 0.6888(2) 0.16260(9) 0.96963(9)
C6 C 0.63576(19) 0.19504(9) 0.90605(9)
C7 C 0.5708(2) 0.24729(9) 0.89617(10)
H9 H 0.554230 0.273566 0.930009
C8 C 0.5324(2) 0.25572(9) 0.82738(10)
H10 H 0.485312 0.288428 0.807019
C9 C 0.57482(18) 0.20859(8) 0.79508(9)
C10 C 0.56340(18) 0.19547(8) 0.72135(9)
C11 C 0.69218(18) 0.20487(8) 0.69713(9)
C12 C 0.7313(2) 0.24617(9) 0.65574(10)
H11 H 0.680887 0.278234 0.636014
C13 C 0.8601(2) 0.23266(9) 0.64751(10)
H12 H 0.911246 0.254154 0.621295
C14 C 0.89809(18) 0.18339(9) 0.68378(9)
C15 C 1.01846(19) 0.14557(9) 0.68795(9)
C16 C 1.09175(18) 0.13773(8) 0.75769(9)
C17 C 1.21474(19) 0.15313(9) 0.78526(10)
H13 H 1.273041 0.175968 0.764518
C18 C 1.24091(19) 0.12917(9) 0.85043(10)
H14 H 1.319432 0.133156 0.880790
C19 C 1.13265(18) 0.09937(8) 0.86147(9)
C20 C 1.10167(18) 0.06617(9) 0.92155(9)
C21 C 1.2292(2) 0.05331(10) 0.96848(10)
H15 H 1.287335 0.030837 0.944668
H16 H 1.210716 0.030425 1.006548
H17 H 1.270849 0.090482 0.984101
C22 C 0.6647(2) 0.20089(11) 1.02880(10)
H18 H 0.711785 0.238130 1.028249
H19 H 0.695325 0.180024 1.070353
H20 H 0.571673 0.208862 1.025397
C23 C 0.6136(2) 0.10473(10) 0.97261(11)
H21 H 0.521055 0.113311 0.970104
H22 H 0.645441 0.084423 1.014394
H23 H 0.626564 0.079577 0.935240
C24 C 0.4640(2) 0.23825(9) 0.68405(10)
H24 H 0.494722 0.278723 0.692293
H25 H 0.380665 0.233401 0.699643
H26 H 0.453133 0.229986 0.636378
C25 C 1.1094(2) 0.17326(10) 0.64423(10)
H27 H 1.135121 0.212647 0.660870
H28 H 1.064211 0.176130 0.598425
H29 H 1.186755 0.148628 0.645555
C26 C 0.9769(2) 0.08455(9) 0.65950(10)
H30 H 1.054002 0.060403 0.657908
H31 H 0.928099 0.088979 0.614606
H32 H 0.921960 0.065424 0.687895
C27 C 0.51948(18) 0.13083(8) 0.70672(9)
H33 H 0.587680 0.104250 0.729295
H34 H 0.439840 0.123690 0.726087
C28 C 0.4925(2) 0.11495(9) 0.63318(9)
H35 H 0.409258 0.133040 0.612967
H36 H 0.561657 0.131934 0.611049
C29 C 0.4856(2) 0.04883(10) 0.62031(10)
H37 H 0.440182 0.030102 0.653877
H38 H 0.432833 0.041825 0.576226
C30 C 0.6669(2) 0.01760(9) 0.56725(10)
C31 C 0.78701(19) -0.01966(8) 0.57245(9)
C32 C 0.8354(2) -0.03481(10) 0.51528(10)
H39 H 0.793078 -0.022151 0.472958
C33 C 0.9463(2) -0.06870(11) 0.52125(11)
H40 H 0.979351 -0.081266 0.482832
C34 C 1.0085(2) -0.08403(10) 0.58332(11)
H41 H 1.086618 -0.106134 0.588576
C35 C 0.9549(2) -0.06661(9) 0.63834(10)
C36 C 1.0255(2) -0.08089(9) 0.70669(10)
C37 C 1.0219(2) -0.08287(9) 0.82529(10)
H42 H 1.073986 -0.119056 0.823683
H43 H 0.950505 -0.092174 0.850185
C38 C 1.1078(2) -0.03541(9) 0.86309(10)
H44 H 1.175494 -0.054597 0.895602
H45 H 1.151957 -0.013271 0.831388
C39 C 1.03186(19) 0.00772(8) 0.89966(9)
H46 H 1.010053 -0.012178 0.939571
H47 H 0.949221 0.017067 0.870509
N8 N 1.00680(17) 0.31288(7) 0.86447(8)
C40 C 1.0915(2) 0.34500(10) 0.82195(12)
H48 H 1.045800 0.381255 0.804424
H49 H 1.172593 0.357124 0.850731
C41 C 1.1265(3) 0.31052(11) 0.76452(13)
H50 H 1.171404 0.274293 0.780986
H51 H 1.183609 0.334213 0.741320
H52 H 1.047473 0.300569 0.733816
C42 C 1.0728(2) 0.25743(10) 0.89493(11)
H53 H 1.014195 0.238056 0.921917
H54 H 1.084653 0.230120 0.858625
C43 C 1.2031(3) 0.26686(13) 0.93817(15)
H55 H 1.262878 0.285243 0.911879
H56 H 1.238321 0.228888 0.955163
H57 H 1.192365 0.292560 0.975444
C44 C 0.9813(3) 0.35591(10) 0.91737(11)
H58 H 1.065219 0.366575 0.944575
H59 H 0.943770 0.392216 0.895378
C45 C 0.8918(3) 0.33388(12) 0.96283(12)
H60 H 0.808257 0.322986 0.936564
H61 H 0.878420 0.364921 0.994345
H62 H 0.930394 0.299393 0.987174
C46 C 0.8805(2) 0.29288(9) 0.82262(10)
H63 H 0.901012 0.265344 0.788201
H64 H 0.829155 0.270999 0.851362
C47 C 0.7983(2) 0.34229(10) 0.78907(12)
H65 H 0.777406 0.369907 0.822659
H66 H 0.717941 0.326130 0.764257
H67 H 0.846294 0.362907 0.758505
O3 O 0.77080(12) 0.06492(6) 0.80514(6)
O4 O 0.70044(14) -0.02015(6) 0.75944(7)
C48 C 0.7050(2) 0.02070(10) 0.79950(10)
O5 O 0.6519(4) 0.00966(16) 0.85674(16)
C49 C 0.5669(5) -0.0410(2) 0.8564(3)
H68 H 0.554352 -0.049817 0.902407
H69 H 0.608340 -0.075605 0.839138
C50 C 0.4362(6) -0.0303(3) 0.8140(4)
H70 H 0.399119 0.006368 0.827976
H71 H 0.377980 -0.063095 0.819385
H72 H 0.447025 -0.027158 0.767372
O6? O 0.5899(4) 0.02817(18) 0.8288(2)
C51? C 0.4878(8) -0.0163(3) 0.8191(4)
H73? H 0.476471 -0.030795 0.772843
H74? H 0.404910 0.001632 0.826541
C52? C 0.5204(9) -0.0670(3) 0.8660(4)
H75? H 0.600131 -0.085933 0.857165
H76? H 0.449196 -0.095498 0.859617
H77? H 0.533186 -0.052501 0.911799
loop_
_geom_bond_atom_site_label_1
_geom_bond_atom_site_label_2
_geom_bond_site_symmetry_1
_geom_bond_site_symmetry_2
O1 C30 1_555 1_555
O2 C36 1_555 1_555
N1 H1 1_555 1_555
N2 H2 1_555 1_555
N3 H3 1_555 1_555
N4 H4 1_555 1_555
N5 H5 1_555 1_555
N6 C31 1_555 1_555
N7 H6 1_555 1_555
C1 N1 1_555 1_555
C2 C1 1_555 1_555
H7 C2 1_555 1_555
C3 C2 1_555 1_555
H8 C3 1_555 1_555
C4 N1 1_555 1_555
C5 C4 1_555 1_555
C6 N2 1_555 1_555
C7 C6 1_555 1_555
H9 C7 1_555 1_555
C8 C7 1_555 1_555
H10 C8 1_555 1_555
C9 N2 1_555 1_555
C10 C9 1_555 1_555
C11 N3 1_555 1_555
C12 C11 1_555 1_555
H11 C12 1_555 1_555
C13 C12 1_555 1_555
H12 C13 1_555 1_555
C14 N3 1_555 1_555
C15 C14 1_555 1_555
C16 N4 1_555 1_555
C17 C16 1_555 1_555
H13 C17 1_555 1_555
C18 C17 1_555 1_555
H14 C18 1_555 1_555
C19 N4 1_555 1_555
C20 C1 1_555 1_555
C21 C20 1_555 1_555
H15 C21 1_555 1_555
H16 C21 1_555 1_555
H17 C21 1_555 1_555
C22 C5 1_555 1_555
H18 C22 1_555 1_555
H19 C22 1_555 1_555
H20 C22 1_555 1_555
C23 C5 1_555 1_555
H21 C23 1_555 1_555
H22 C23 1_555 1_555
H23 C23 1_555 1_555
C24 C10 1_555 1_555
H24 C24 1_555 1_555
H25 C24 1_555 1_555
H26 C24 1_555 1_555
C25 C15 1_555 1_555
H27 C25 1_555 1_555
H28 C25 1_555 1_555
H29 C25 1_555 1_555
C26 C15 1_555 1_555
H30 C26 1_555 1_555
H31 C26 1_555 1_555
H32 C26 1_555 1_555
C27 C10 1_555 1_555
H33 C27 1_555 1_555
H34 C27 1_555 1_555
C28 C27 1_555 1_555
H35 C28 1_555 1_555
H36 C28 1_555 1_555
C29 N5 1_555 1_555
H37 C29 1_555 1_555
H38 C29 1_555 1_555
C30 N5 1_555 1_555
C31 C30 1_555 1_555
C32 C31 1_555 1_555
H39 C32 1_555 1_555
C33 C32 1_555 1_555
H40 C33 1_555 1_555
C34 C33 1_555 1_555
H41 C34 1_555 1_555
C35 N6 1_555 1_555
C36 N7 1_555 1_555
C37 N7 1_555 1_555
H42 C37 1_555 1_555
H43 C37 1_555 1_555
C38 C37 1_555 1_555
H44 C38 1_555 1_555
H45 C38 1_555 1_555
C39 C20 1_555 1_555
H46 C39 1_555 1_555
H47 C39 1_555 1_555
N8 C40 1_555 1_555
C40 H48 1_555 1_555
H49 C40 1_555 1_555
C41 C40 1_555 1_555
H50 C41 1_555 1_555
H51 C41 1_555 1_555
H52 C41 1_555 1_555
C42 N8 1_555 1_555
H53 C42 1_555 1_555
H54 C42 1_555 1_555
C43 C42 1_555 1_555
H55 C43 1_555 1_555
H56 C43 1_555 1_555
H57 C43 1_555 1_555
C44 N8 1_555 1_555
H58 C44 1_555 1_555
H59 C44 1_555 1_555
C45 C44 1_555 1_555
H60 C45 1_555 1_555
H61 C45 1_555 1_555
H62 C45 1_555 1_555
C46 N8 1_555 1_555
H63 C46 1_555 1_555
H64 C46 1_555 1_555
C47 C46 1_555 1_555
H65 C47 1_555 1_555
H66 C47 1_555 1_555
H67 C47 1_555 1_555
O3 C48 1_555 1_555
O4 C48 1_555 1_555
C48 O5 1_555 1_555
O5 C49 1_555 1_555
C49 H68 1_555 1_555
H69 C49 1_555 1_555
C50 C49 1_555 1_555
H70 C50 1_555 1_555
H71 C50 1_555 1_555
H72 C50 1_555 1_555
C3 C4 1_555 1_555
C5 C6 1_555 1_555
C8 C9 1_555 1_555
C10 C11 1_555 1_555
C13 C14 1_555 1_555
C15 C16 1_555 1_555
C18 C19 1_555 1_555
C19 C20 1_555 1_555
C28 C29 1_555 1_555
C34 C35 1_555 1_555
C35 C36 1_555 1_555
C38 C39 1_555 1_555

#END
