
#######################################################################
#
#                 Cambridge Crystallographic Data Centre
#                                CCDC 
#
#######################################################################
#
# If this CIF has been generated from an entry in the Cambridge 
# Structural Database, then it will include bibliographic, chemical, 
# crystal, experimental, refinement or atomic coordinate data resulting 
# from the CCDC's data processing and validation procedures.
#
#######################################################################

data_TEMYAO
_chemical_formula_moiety         'C30 H31 F6 N3 O2,0.25(C4 H8 O2)'
_chemical_name_systematic        
'N-[3,5-bis(trifluoromethyl)phenyl]-4,4-dimethyl-2-[(morpholin-4-yl)methyl]-2-(naphthalen-2-yl)pyrrolidine-1-carboxamide ethyl acetate solvate'
_symmetry_cell_setting           monoclinic
_symmetry_space_group_name_H-M   'C 2'
_symmetry_Int_Tables_number      5
_space_group_name_Hall           'C 2y'
loop_
_symmetry_equiv_pos_site_id
_symmetry_equiv_pos_as_xyz
1 x,y,z
2 -x,y,-z
3 1/2+x,1/2+y,z
4 1/2-x,1/2+y,-z
_cell_length_a                   28.5401(7)
_cell_length_b                   13.2816(3)
_cell_length_c                   21.1191(5)
_cell_angle_alpha                90
_cell_angle_beta                 132.150(2)
_cell_angle_gamma                90
_cell_volume                     5935.1
_exptl_crystal_colour            colorless
_exptl_crystal_description       prism
_cell_formula_units_Z            8
loop_
_atom_site_label
_atom_site_type_symbol
_atom_site_fract_x
_atom_site_fract_y
_atom_site_fract_z
F7 F 0.08631(11) 0.9612(3) 0.02863(17)
F8 F 0.13108(14) 0.9530(4) 0.1581(2)
F9 F 0.41396(11) 0.9212(3) 0.34293(14)
F10 F 0.11279(14) 0.8222(3) 0.0934(3)
F11 F 0.36063(12) 0.9504(2) 0.37792(13)
F12 F 0.37885(16) 1.0690(3) 0.33145(17)
O3 O 0.05210(9) 0.86501(17) -0.24468(14)
O4 O 0.34806(9) 0.97064(14) 0.07461(12)
N4 N 0.25632(10) 0.89245(16) 0.02169(13)
H32 H 0.2213 0.8701 -0.0276
N5 N 0.17451(10) 0.77198(16) -0.12975(14)
N6 N 0.31065(10) 0.83885(16) -0.01786(14)
C31 C 0.36450(18) 0.9709(3) 0.3203(2)
C32 C 0.29905(17) 0.5837(3) 0.2750(2)
H33 H 0.3078 0.5672 0.3258
C33 C 0.37860(13) 0.6981(2) 0.20696(17)
H34 H 0.4189 0.7154 0.2602
C34 C 0.19756(13) 0.9067(2) 0.06485(18)
H35 H 0.1602 0.8915 0.0079
C35 C 0.23962(17) 0.5616(3) 0.1956(2)
H36 H 0.2080 0.5317 0.1927
C36 C 0.33822(14) 0.6783(2) -0.03401(18)
H37 H 0.3745 0.6483 0.0217
H38 H 0.3161 0.6243 -0.0776
C37 C 0.06529(14) 0.7827(2) -0.1915(2)
H39 H 0.0261 0.7434 -0.2200
H40 H 0.0795 0.8089 -0.1371
C38 C 0.31486(17) 0.7800(3) -0.1558(2)
H41 H 0.3060 0.7167 -0.1859
H42 H 0.3337 0.8281 -0.1684
H43 H 0.2754 0.8078 -0.1746
C39 C 0.24786(15) 0.9438(2) 0.2105(2)
H44 H 0.2454 0.9547 0.2527
C40 C 0.30944(13) 0.9345(2) 0.16982(17)
H45 H 0.3492 0.9396 0.1853
C41 C 0.11571(13) 0.7145(2) -0.17282(18)
H46 H 0.1239 0.6582 -0.1358
H47 H 0.1010 0.6858 -0.2269
C42 C 0.26122(13) 0.6498(2) 0.04917(17)
H48 H 0.2213 0.6329 -0.0046
C43 C 0.15956(13) 0.8558(2) -0.18662(17)
H49 H 0.1454 0.8286 -0.2408
H50 H 0.1980 0.8967 -0.1591
C44 C 0.30552(12) 0.69535(19) 0.05185(16)
C45 C 0.22691(15) 0.5832(2) 0.1218(2)
H51 H 0.1864 0.5684 0.0680
C46 C 0.30522(14) 0.9486(2) 0.23104(18)
C47 C 0.34476(15) 0.6286(2) 0.28048(19)
H52 H 0.3846 0.6444 0.3349
C48 C 0.36117(14) 0.7602(2) -0.05915(19)
C49 C 0.33315(13) 0.6518(2) 0.20572(17)
C50 C 0.29239(12) 0.72945(19) -0.02792(16)
C51 C 0.10824(13) 0.9213(2) -0.2052(2)
H53 H 0.1234 0.9509 -0.1513
H54 H 0.0988 0.9772 -0.2434
C52 C 0.36551(13) 0.7181(2) 0.13342(17)
H55 H 0.3972 0.7480 0.1364
C53 C 0.19430(14) 0.9226(2) 0.1269(2)
C54 C 0.36439(12) 0.8512(2) -0.01256(18)
H56 H 0.4048 0.8522 0.0477
H57 H 0.3605 0.9145 -0.0405
C55 C 0.42628(17) 0.7356(3) -0.0278(3)
H58 H 0.4563 0.7236 0.0339
H59 H 0.4409 0.7923 -0.0404
H60 H 0.4232 0.6752 -0.0570
C56 C 0.30835(12) 0.90475(19) 0.03011(15)
C57 C 0.25512(13) 0.91283(19) 0.08544(17)
C58 C 0.13105(17) 0.9162(3) 0.1012(2)
C59 C 0.27354(13) 0.6271(2) 0.12500(17)
C60 C 0.22427(12) 0.7070(2) -0.11159(16)
H61 H 0.2227 0.7130 -0.1597
H62 H 0.2143 0.6362 -0.1098
F1 F 0.46146(8) 0.53028(17) 0.14853(11)
F2 F 0.53557(10) 0.5670(2) 0.15021(12)
F3 F 0.53127(9) 0.42068(16) 0.18780(13)
O1 O 0.75311(9) 0.54908(15) 0.38581(12)
O2 O 0.83664(13) 0.63946(17) 0.74926(15)
N1 N 0.80717(10) 0.68974(17) 0.46464(14)
N2 N 0.73212(10) 0.62101(17) 0.46354(14)
H1 H 0.7543 0.6382 0.5172
N3 N 0.81681(10) 0.74210(16) 0.61361(14)
C1 C 0.73051(13) 0.82431(19) 0.42375(17)
C2 C 0.86205(15) 0.6581(2) 0.66090(19)
H2 H 0.9046 0.6849 0.7091
H3 H 0.8644 0.6204 0.6226
C3 C 0.60791(15) 0.9338(2) 0.4200(2)
H4 H 0.6329 0.9511 0.4784
C4 C 0.62834(14) 0.8178(2) 0.27914(18)
H5 H 0.6036 0.8003 0.2208
C5 C 0.89039(18) 0.8211(3) 0.4102(2)
H6 H 0.8498 0.8371 0.3534
H7 H 0.9118 0.7685 0.4051
H8 H 0.9168 0.8817 0.4352
C6 C 0.62852(12) 0.56609(19) 0.32953(17)
H9 H 0.6453 0.5510 0.3041
C7 C 0.8411(2) 0.5884(2) 0.6944(2)
H10 H 0.7995 0.5593 0.6457
H11 H 0.8717 0.5324 0.7260
C8 C 0.63690(14) 0.8890(2) 0.39270(19)
C9 C 0.52340(14) 0.5182(3) 0.1929(2)
C10 C 0.54460(17) 0.9525(3) 0.3633(3)
H12 H 0.5259 0.9828 0.3825
C11 C 0.50669(17) 0.9271(3) 0.2764(3)
H13 H 0.4627 0.9413 0.2371
C12 C 0.53825(13) 0.5736(2) 0.31881(19)
H14 H 0.4944 0.5646 0.2866
C13 C 0.66802(12) 0.60079(19) 0.41373(17)
C14 C 0.76307(12) 0.6158(2) 0.43394(16)
C15 C 0.81436(14) 0.7944(2) 0.67319(18)
H15 H 0.7841 0.8511 0.6435
H16 H 0.8566 0.8220 0.7219
C16 C 0.56424(12) 0.5540(2) 0.28346(17)
C17 C 0.83584(14) 0.8568(2) 0.46457(19)
H17 H 0.8051 0.8882 0.4074
H18 H 0.8612 0.9108 0.5075
C18 C 0.79398(16) 0.7214(2) 0.7053(2)
H19 H 0.7915 0.7570 0.7442
H20 H 0.7513 0.6955 0.6564
C19 C 0.83547(13) 0.8106(2) 0.57924(16)
H21 H 0.8814 0.8025 0.6133
H22 H 0.8283 0.8806 0.5871
C20 C 0.59851(14) 0.8618(2) 0.30530(19)
C21 C 0.80053(13) 0.7952(2) 0.48415(17)
C22 C 0.84012(13) 0.6879(2) 0.43315(18)
H23 H 0.8095 0.6871 0.3699
H24 H 0.8677 0.6279 0.4548
C23 C 0.87913(14) 0.7840(2) 0.46749(19)
C24 C 0.69160(14) 0.8000(2) 0.33572(17)
H25 H 0.7102 0.7708 0.3160
C25 C 0.94299(15) 0.7672(3) 0.5580(2)
H26 H 0.9700 0.7256 0.5553
H27 H 0.9363 0.7329 0.5925
H28 H 0.9635 0.8323 0.5840
C26 C 0.53304(16) 0.8822(3) 0.2485(2)
H29 H 0.5070 0.8644 0.1900
C27 C 0.70286(13) 0.8690(2) 0.45007(17)
H30 H 0.7285 0.8872 0.5084
C28 C 0.64195(13) 0.6206(2) 0.44929(17)
H31 H 0.6683 0.6439 0.5065
C29 C 0.57816(14) 0.6067(2) 0.40241(19)
F4 F 0.5059(7) 0.5574(11) 0.4168(11)
C30 C 0.5489(8) 0.6305(13) 0.4400(10)
F5 F 0.5179(4) 0.7209(9) 0.4118(6)
F6 F 0.5941(3) 0.6312(10) 0.5257(4)
F13? F 0.5368(7) 0.7145(14) 0.4376(8)
F14? F 0.4965(11) 0.579(2) 0.4023(17)
F15? F 0.5879(7) 0.5799(14) 0.5194(8)
C61? C 0.5519(12) 0.618(2) 0.4427(15)
C62? C 0.5616(12) 0.637(2) 0.4540(16)
F16? F 0.5043(7) 0.6726(12) 0.4068(9)
F17? F 0.5945(6) 0.7005(14) 0.5181(7)
F18? F 0.5497(7) 0.5576(11) 0.4812(10)
O5? O 0.5000 1.1047(7) 0.0000
C63? C 0.4928(6) 1.0547(7) 0.0524(7)
H63? H 0.5338 1.0241 0.1013
H64? H 0.4620 0.9992 0.0190
C64? C 0.4720(4) 1.1169(8) 0.0853(6)
H65? H 0.4800 1.1877 0.0824
H66? H 0.4953 1.0985 0.1448
H67? H 0.4267 1.1067 0.0511
O6? O 0.5164(7) 0.9719(11) 0.0752(8)
loop_
_geom_bond_atom_site_label_1
_geom_bond_atom_site_label_2
_geom_bond_site_symmetry_1
_geom_bond_site_symmetry_2
F1 C9 1_555 1_555
F2 C9 1_555 1_555
F3 C9 1_555 1_555
O1 C14 1_555 1_555
O2 C7 1_555 1_555
N1 C14 1_555 1_555
N2 H1 1_555 1_555
N3 C2 1_555 1_555
C1 C21 1_555 1_555
C2 H2 1_555 1_555
H3 C2 1_555 1_555
C3 H4 1_555 1_555
C4 H5 1_555 1_555
C5 H6 1_555 1_555
H7 C5 1_555 1_555
H8 C5 1_555 1_555
C6 H9 1_555 1_555
C7 C2 1_555 1_555
H10 C7 1_555 1_555
H11 C7 1_555 1_555
C8 C3 1_555 1_555
C9 C16 1_555 1_555
C10 C3 1_555 1_555
H12 C10 1_555 1_555
C11 C10 1_555 1_555
H13 C11 1_555 1_555
C12 H14 1_555 1_555
C13 N2 1_555 1_555
C14 N2 1_555 1_555
C15 N3 1_555 1_555
H15 C15 1_555 1_555
H16 C15 1_555 1_555
C16 C6 1_555 1_555
C17 H17 1_555 1_555
H18 C17 1_555 1_555
C18 O2 1_555 1_555
H19 C18 1_555 1_555
H20 C18 1_555 1_555
C19 N3 1_555 1_555
H21 C19 1_555 1_555
H22 C19 1_555 1_555
C20 C4 1_555 1_555
C21 N1 1_555 1_555
C22 N1 1_555 1_555
H23 C22 1_555 1_555
H24 C22 1_555 1_555
C23 C5 1_555 1_555
C24 C1 1_555 1_555
H25 C24 1_555 1_555
C25 C23 1_555 1_555
H26 C25 1_555 1_555
H27 C25 1_555 1_555
H28 C25 1_555 1_555
C26 C11 1_555 1_555
H29 C26 1_555 1_555
C27 C1 1_555 1_555
H30 C27 1_555 1_555
C28 C13 1_555 1_555
H31 C28 1_555 1_555
C29 C12 1_555 1_555
F4 C30 1_555 1_555
C30 C29 1_555 1_555
F5 C30 1_555 1_555
F6 C30 1_555 1_555
F7 C58 1_555 1_555
F8 C58 1_555 1_555
F9 C31 1_555 1_555
F10 C58 1_555 1_555
F11 C31 1_555 1_555
F12 C31 1_555 1_555
O3 C37 1_555 1_555
O4 C56 1_555 1_555
N4 H32 1_555 1_555
N5 C41 1_555 1_555
N6 C50 1_555 1_555
C31 C46 1_555 1_555
C32 H33 1_555 1_555
C33 H34 1_555 1_555
C34 H35 1_555 1_555
C35 C32 1_555 1_555
H36 C35 1_555 1_555
C36 H37 1_555 1_555
H38 C36 1_555 1_555
C37 H39 1_555 1_555
H40 C37 1_555 1_555
C38 H41 1_555 1_555
H42 C38 1_555 1_555
H43 C38 1_555 1_555
C39 H44 1_555 1_555
C40 H45 1_555 1_555
C41 C37 1_555 1_555
H46 C41 1_555 1_555
H47 C41 1_555 1_555
C42 H48 1_555 1_555
C43 N5 1_555 1_555
H49 C43 1_555 1_555
H50 C43 1_555 1_555
C44 C42 1_555 1_555
C45 C35 1_555 1_555
H51 C45 1_555 1_555
C46 C39 1_555 1_555
C47 C32 1_555 1_555
H52 C47 1_555 1_555
C48 C36 1_555 1_555
C49 C33 1_555 1_555
C50 C36 1_555 1_555
C51 O3 1_555 1_555
H53 C51 1_555 1_555
H54 C51 1_555 1_555
C52 C33 1_555 1_555
H55 C52 1_555 1_555
C53 C34 1_555 1_555
C54 N6 1_555 1_555
H56 C54 1_555 1_555
H57 C54 1_555 1_555
C55 C48 1_555 1_555
H58 C55 1_555 1_555
H59 C55 1_555 1_555
H60 C55 1_555 1_555
C56 N4 1_555 1_555
C57 N4 1_555 1_555
C58 C53 1_555 1_555
C59 C42 1_555 1_555
C60 N5 1_555 1_555
H61 C60 1_555 1_555
H62 C60 1_555 1_555
C4 C24 1_555 1_555
C6 C13 1_555 1_555
C8 C20 1_555 1_555
C8 C27 1_555 1_555
C12 C16 1_555 1_555
C15 C18 1_555 1_555
C17 C21 1_555 1_555
C17 C23 1_555 1_555
C19 C21 1_555 1_555
C20 C26 1_555 1_555
C22 C23 1_555 1_555
C28 C29 1_555 1_555
N6 C56 1_555 1_555
C34 C57 1_555 1_555
C38 C48 1_555 1_555
C39 C53 1_555 1_555
C40 C46 1_555 1_555
C40 C57 1_555 1_555
C43 C51 1_555 1_555
C44 C50 1_555 1_555
C44 C52 1_555 1_555
C45 C59 1_555 1_555
C47 C49 1_555 1_555
C48 C54 1_555 1_555
C49 C59 1_555 1_555
C50 C60 1_555 1_555

#END
