
#######################################################################
#
#                 Cambridge Crystallographic Data Centre
#                                CCDC 
#
#######################################################################
#
# If this CIF has been generated from an entry in the Cambridge 
# Structural Database, then it will include bibliographic, chemical, 
# crystal, experimental, refinement or atomic coordinate data resulting 
# from the CCDC's data processing and validation procedures.
#
#######################################################################

data_TENMEE
_chemical_formula_moiety         'C18 H25 N1 O2 S1'
_chemical_name_systematic        
2-(N-Methylphenylsulfoximide)methyl-4-methyl-6-methylenebicyclo(2.2.2)octan-2-ol
_symmetry_cell_setting           monoclinic
_symmetry_space_group_name_H-M   'P 21'
_symmetry_Int_Tables_number      4
_space_group_name_Hall           'P 2yb'
loop_
_symmetry_equiv_pos_site_id
_symmetry_equiv_pos_as_xyz
1 x,y,z
2 -x,1/2+y,-z
_cell_length_a                   8.321(4)
_cell_length_b                   11.019(5)
_cell_length_c                   10.129(3)
_cell_angle_alpha                90
_cell_angle_beta                 109.80(5)
_cell_angle_gamma                90
_cell_volume                     873.814
_exptl_crystal_colour            colorless
_chemical_melting_point          '135-136 deg.C'
_cell_formula_units_Z            2
loop_
_atom_site_label
_atom_site_type_symbol
_atom_site_fract_x
_atom_site_fract_y
_atom_site_fract_z
S1 S -0.2886(1) 0.0000 -0.36908(9)
O1 O -0.4328(3) 0.0420(3) -0.4863(3)
O2 O -0.2715(5) 0.0128(4) -0.0472(3)
N1 N -0.3017(5) -0.1127(3) -0.2876(4)
C1 C -0.5089(5) 0.1305(5) -0.2021(5)
C2 C -0.3137(5) 0.1177(4) -0.1317(4)
C3 C -0.2503(6) 0.2273(5) -0.0324(4)
C4 C -0.3325(7) 0.2184(6) 0.0829(4)
C5 C -0.5250(7) 0.2159(5) 0.0177(5)
C6 C -0.5810(5) 0.2357(5) -0.1418(4)
C7 C -0.5018(7) 0.3532(5) -0.1671(6)
C8 C -0.3096(6) 0.3435(4) -0.1087(5)
C9 C -0.7740(6) 0.2395(7) -0.2081(7)
C10 C -0.2051(9) 0.4298(6) -0.1171(8)
C11 C -0.2177(5) 0.1150(3) -0.2359(4)
C12 C -0.358(1) -0.2254(5) -0.3679(8)
C13 C -0.1171(4) -0.0105(4) -0.4378(3)
C14 C -0.1304(6) 0.0461(5) -0.5616(5)
C15 C 0.0044(7) 0.0360(6) -0.6124(5)
C16 C 0.1469(6) -0.0296(5) -0.5404(5)
C17 C 0.1589(6) -0.0853(5) -0.4190(5)
C18 C 0.0250(5) -0.0777(5) -0.3652(5)
H1 H -0.264 -0.056 -0.097
H2 H -0.562 0.057 -0.190
H3 H -0.533 0.145 -0.299
H4 H -0.129 0.226 0.004
H5 H -0.295 0.146 0.136
H6 H -0.300 0.287 0.143
H7 H -0.573 0.278 0.058
H8 H -0.566 0.139 0.035
H9 H -0.538 0.419 -0.123
H10 H -0.537 0.368 -0.265
H11 H -0.803 0.173 -0.162
H12 H -0.834 0.234 -0.306
H13 H -0.804 0.313 -0.173
H14 H -0.061 0.425 -0.053
H15 H -0.190 0.504 -0.119
H16 H -0.232 0.192 -0.281
H17 H -0.100 0.102 -0.185
H18 H -0.363 -0.290 -0.308
H19 H -0.286 -0.247 -0.419
H20 H -0.470 -0.209 -0.431
H21 H -0.231 0.091 -0.610
H22 H -0.002 0.075 -0.697
H23 H 0.239 -0.036 -0.576
H24 H 0.257 -0.132 -0.371
H25 H 0.032 -0.115 -0.279
loop_
_geom_bond_atom_site_label_1
_geom_bond_atom_site_label_2
_geom_bond_site_symmetry_1
_geom_bond_site_symmetry_2
S1 O1 1_555 1_555
O2 C2 1_555 1_555
N1 S1 1_555 1_555
C1 C2 1_555 1_555
C2 C3 1_555 1_555
C3 C4 1_555 1_555
C4 C5 1_555 1_555
C5 C6 1_555 1_555
C6 C1 1_555 1_555
C7 C6 1_555 1_555
C8 C3 1_555 1_555
C9 C6 1_555 1_555
C10 C8 1_555 1_555
C11 S1 1_555 1_555
C12 N1 1_555 1_555
C13 S1 1_555 1_555
C14 C13 1_555 1_555
C15 C14 1_555 1_555
C16 C15 1_555 1_555
C17 C16 1_555 1_555
C18 C13 1_555 1_555
H1 O2 1_555 1_555
H2 C1 1_555 1_555
H3 C1 1_555 1_555
H4 C3 1_555 1_555
H5 C4 1_555 1_555
H6 C4 1_555 1_555
H7 C5 1_555 1_555
H8 C5 1_555 1_555
H9 C7 1_555 1_555
H10 C7 1_555 1_555
H11 C9 1_555 1_555
H12 C9 1_555 1_555
H13 C9 1_555 1_555
H14 C10 1_555 1_555
H15 C10 1_555 1_555
H16 C11 1_555 1_555
H17 C11 1_555 1_555
H18 C12 1_555 1_555
H19 C12 1_555 1_555
H20 C12 1_555 1_555
H21 C14 1_555 1_555
H22 C15 1_555 1_555
H23 C16 1_555 1_555
H24 C17 1_555 1_555
H25 C18 1_555 1_555
C2 C11 1_555 1_555
C7 C8 1_555 1_555
C17 C18 1_555 1_555

#END
