
#######################################################################
#
#                 Cambridge Crystallographic Data Centre
#                                CCDC 
#
#######################################################################
#
# If this CIF has been generated from an entry in the Cambridge 
# Structural Database, then it will include bibliographic, chemical, 
# crystal, experimental, refinement or atomic coordinate data resulting 
# from the CCDC's data processing and validation procedures.
#
#######################################################################

data_TENREL
_chemical_formula_moiety         'C6 H5 O6 P1 S1 2-,2(C3 H7 N6 1+),3(H2 O1)'
_chemical_name_systematic        
'bis(2,4,6-triamino-1,3,5-triazinium) hydrogen (3-sulfonatophenyl)phosphonate trihydrate'
_symmetry_cell_setting           triclinic
_symmetry_space_group_name_H-M   'P -1'
_symmetry_Int_Tables_number      2
_space_group_name_Hall           '-P 1'
loop_
_symmetry_equiv_pos_site_id
_symmetry_equiv_pos_as_xyz
1 x,y,z
2 -x,-y,-z
_cell_length_a                   6.73170(10)
_cell_length_b                   10.78210(10)
_cell_length_c                   17.2484(2)
_cell_angle_alpha                74.9350(10)
_cell_angle_beta                 80.0360(10)
_cell_angle_gamma                74.8430(10)
_cell_volume                     1159.4
_exptl_crystal_colour            colorless
_exptl_crystal_description       plate
_cell_formula_units_Z            2
loop_
_atom_site_label
_atom_site_type_symbol
_atom_site_fract_x
_atom_site_fract_y
_atom_site_fract_z
P1 P -0.03021(8) 0.82283(6) 0.57546(3)
S1 S 0.20307(8) 0.62111(5) 0.30228(3)
C1 C -0.0834(3) 0.7453(2) 0.50311(11)
C2 C 0.0616(3) 0.7189(2) 0.43773(11)
H15 H 0.1868 0.7444 0.4296
C3 C 0.0181(3) 0.6545(2) 0.38497(11)
C4 C -0.1663(4) 0.6152(2) 0.39646(13)
H16 H -0.1925 0.5700 0.3616
C5 C -0.3118(4) 0.6437(3) 0.46050(14)
H17 H -0.4377 0.6193 0.4680
C6 C -0.2706(3) 0.7083(2) 0.51329(12)
H18 H -0.3693 0.7271 0.5561
O1 O 0.1864(2) 0.85544(17) 0.54530(9)
H19 H 0.193(4) 0.930(3) 0.4990(18)
O2 O -0.1971(2) 0.94951(15) 0.57761(9)
O3 O -0.0225(3) 0.72920(17) 0.65655(8)
O4 O 0.3188(3) 0.72318(18) 0.28006(10)
O5 O 0.0859(3) 0.6239(2) 0.23865(10)
O6 O 0.3333(4) 0.4929(2) 0.32783(13)
N1 N 0.2542(2) 0.29057(16) 0.06197(9)
N2 N 0.2004(3) 0.21479(17) 0.20288(10)
H1 H 0.157(3) 0.235(2) 0.2501(14)
N3 N 0.2406(3) 0.06354(16) 0.12161(9)
N4 N 0.2810(3) 0.14197(17) -0.01475(9)
H2 H 0.2838 0.0642 -0.0198
H3 H 0.2928 0.2040 -0.0570
N5 N 0.2122(3) 0.43029(18) 0.14692(11)
H4 H 0.2258 0.4942 0.1060
H5 H 0.1916 0.4435 0.1950
N6 N 0.1975(3) -0.00124(18) 0.26074(10)
H6 H 0.2043 -0.0807 0.2578
H7 H 0.1801 0.0182 0.3071
C7 C 0.2584(3) 0.16605(19) 0.05794(11)
C8 C 0.2226(3) 0.31248(19) 0.13599(11)
C9 C 0.2137(3) 0.0908(2) 0.19407(11)
N7 N 0.7653(3) 0.33863(17) -0.00646(10)
N8 N 0.7271(3) 0.25320(17) 0.13374(10)
H8 H 0.704(3) 0.272(2) 0.1773(15)
N9 N 0.7536(3) 0.11048(16) 0.04855(9)
N10 N 0.7873(3) 0.19651(18) -0.08693(10)
H9 H 0.7892 0.1200 -0.0938
H10 H 0.7974 0.2606 -0.1281
N11 N 0.7340(3) 0.47178(18) 0.08191(11)
H11 H 0.7430 0.5380 0.0420
H12 H 0.7193 0.4813 0.1307
N12 N 0.7149(3) 0.03547(18) 0.18658(10)
H13 H 0.7173 -0.0418 0.1809
H14 H 0.7012 0.0500 0.2342
C10 C 0.7688(3) 0.2155(2) -0.01305(11)
C11 C 0.7427(3) 0.3554(2) 0.06823(11)
C12 C 0.7323(3) 0.13180(19) 0.12229(11)
O7 O 0.2991(3) 0.6201(2) 0.74482(10)
H20 H 0.414(3) 0.594(3) 0.7171(18)
H21 H 0.214(4) 0.659(3) 0.7103(17)
O8 O -0.3033(3) 0.7483(3) 0.18463(12)
H22 H -0.197(4) 0.702(4) 0.206(2)
H23 H -0.408(4) 0.725(4) 0.215(2)
O9 O 0.6036(4) 0.0761(3) 0.34278(12)
H24 H 0.493(4) 0.056(4) 0.372(2)
H25 H 0.669(6) 0.090(5) 0.376(2)
loop_
_geom_bond_atom_site_label_1
_geom_bond_atom_site_label_2
_geom_bond_site_symmetry_1
_geom_bond_site_symmetry_2
P1 C1 1_555 1_555
S1 C3 1_555 1_555
N1 C7 1_555 1_555
N2 H1 1_555 1_555
N3 C7 1_555 1_555
N4 H2 1_555 1_555
H3 N4 1_555 1_555
N5 H4 1_555 1_555
H5 N5 1_555 1_555
N6 H6 1_555 1_555
H7 N6 1_555 1_555
N7 C10 1_555 1_555
N8 H8 1_555 1_555
N9 C10 1_555 1_555
N10 H9 1_555 1_555
H10 N10 1_555 1_555
N11 H11 1_555 1_555
H12 N11 1_555 1_555
N12 H13 1_555 1_555
H14 N12 1_555 1_555
C1 C2 1_555 1_555
C2 H15 1_555 1_555
C3 C2 1_555 1_555
C4 C3 1_555 1_555
H16 C4 1_555 1_555
C5 C4 1_555 1_555
H17 C5 1_555 1_555
C6 C1 1_555 1_555
H18 C6 1_555 1_555
C7 N4 1_555 1_555
C8 N1 1_555 1_555
C9 N2 1_555 1_555
C10 N10 1_555 1_555
C11 N7 1_555 1_555
C12 N8 1_555 1_555
O1 P1 1_555 1_555
H19 O1 1_555 1_555
O2 P1 1_555 1_555
O3 P1 1_555 1_555
O4 S1 1_555 1_555
O5 S1 1_555 1_555
O6 S1 1_555 1_555
O7 H20 1_555 1_555
H21 O7 1_555 1_555
O8 H22 1_555 1_555
H23 O8 1_555 1_555
O9 H24 1_555 1_555
H25 O9 1_555 1_555
N2 C8 1_555 1_555
N3 C9 1_555 1_555
N5 C8 1_555 1_555
N6 C9 1_555 1_555
N8 C11 1_555 1_555
N9 C12 1_555 1_555
N11 C11 1_555 1_555
N12 C12 1_555 1_555
C5 C6 1_555 1_555

#END
