
#######################################################################
#
#                 Cambridge Crystallographic Data Centre
#                                CCDC 
#
#######################################################################
#
# If this CIF has been generated from an entry in the Cambridge 
# Structural Database, then it will include bibliographic, chemical, 
# crystal, experimental, refinement or atomic coordinate data resulting 
# from the CCDC's data processing and validation procedures.
#
#######################################################################

data_TENYUI
_chemical_formula_moiety         'C22 H33 O6 S1 1-,Na1 1+,H2 O1'
_chemical_name_systematic        
'Sodium 15-sulfonatoisosteviol ethyl ester monohydrate'
_symmetry_cell_setting           orthorhombic
_symmetry_space_group_name_H-M   'P 21 21 21'
_symmetry_Int_Tables_number      19
_space_group_name_Hall           'P 2ac 2ab'
loop_
_symmetry_equiv_pos_site_id
_symmetry_equiv_pos_as_xyz
1 x,y,z
2 1/2-x,-y,1/2+z
3 1/2+x,1/2-y,-z
4 -x,1/2+y,1/2-z
_cell_length_a                   7.35356(14)
_cell_length_b                   22.3698(4)
_cell_length_c                   28.0780(6)
_cell_angle_alpha                90
_cell_angle_beta                 90
_cell_angle_gamma                90
_cell_volume                     4618.77
_cell_formula_units_Z            8
loop_
_atom_site_label
_atom_site_type_symbol
_atom_site_fract_x
_atom_site_fract_y
_atom_site_fract_z
S1 S 0.85853(13) 0.23737(4) 0.43010(3)
O1 O 0.9723(4) 0.23002(12) 0.47241(9)
O4 O 0.7342(4) 0.28705(13) 0.43513(9)
O7 O 0.7713(4) 0.18153(13) 0.41762(10)
O9 O 1.2431(5) 0.30614(14) 0.42795(12)
O12 O 0.9622(6) 0.02163(16) 0.24281(13)
O14 O 0.7977(5) 0.05957(14) 0.30157(11)
C1 C 1.1485(6) 0.1960(2) 0.22222(15)
H1 H 1.1020 0.2290 0.2034
H2 H 1.2767 0.2033 0.2279
C5 C 1.1283(7) 0.1380(2) 0.19353(16)
H6 H 1.1871 0.1427 0.1629
H7 H 1.1887 0.1057 0.2103
C7 C 0.9294(7) 0.1217(2) 0.18592(15)
H10 H 0.9233 0.0833 0.1699
H11 H 0.8744 0.1512 0.1651
C9 C 0.8181(6) 0.11814(18) 0.23212(14)
C11 C 0.8455(5) 0.17839(16) 0.26018(12)
H14 H 0.8037 0.2095 0.2381
C13 C 0.7283(5) 0.18665(16) 0.30438(12)
H16 H 0.7720 0.1606 0.3295
H17 H 0.6039 0.1755 0.2972
C15 C 0.7337(4) 0.25149(15) 0.32139(12)
H20 H 0.6579 0.2553 0.3495
H21 H 0.6821 0.2768 0.2968
C17 C 0.9252(4) 0.27389(15) 0.33325(12)
C19 C 1.0534(5) 0.25960(18) 0.29019(13)
H24 H 1.0098 0.2849 0.2641
C21 C 1.0479(5) 0.19461(18) 0.27045(13)
C23 C 1.2487(5) 0.2820(2) 0.30099(16)
H26 H 1.3042 0.2558 0.3244
H27 H 1.3208 0.2799 0.2721
C25 C 1.2513(6) 0.3464(2) 0.31989(16)
H30 H 1.2265 0.3736 0.2938
H31 H 1.3718 0.3553 0.3320
C27 C 1.1106(5) 0.35670(17) 0.35977(14)
C29 C 0.9230(5) 0.34244(16) 0.33995(14)
H34 H 0.9032 0.3626 0.3098
H35 H 0.8285 0.3543 0.3621
C31 C 1.0121(5) 0.25391(15) 0.38159(12)
H38 H 1.0880 0.2187 0.3757
C33 C 1.1368(5) 0.30654(16) 0.39515(13)
C35 C 1.1323(7) 0.41881(18) 0.38170(18)
H40 H 1.1224 0.4486 0.3572
H41 H 1.2493 0.4218 0.3967
H42 H 1.0388 0.4251 0.4050
C37 C 0.6162(6) 0.1105(2) 0.21877(15)
H46 H 0.5463 0.1033 0.2471
H47 H 0.6032 0.0773 0.1974
H48 H 0.5733 0.1463 0.2035
C39 C 0.8705(7) 0.0615(2) 0.25861(15)
C41 C 1.1391(5) 0.14897(18) 0.30348(15)
H52 H 1.0638 0.1425 0.3309
H53 H 1.2555 0.1639 0.3134
H54 H 1.1552 0.1119 0.2868
C43 C 0.8515(11) 0.0105(2) 0.3328(2)
H58 H 0.7928 -0.0262 0.3228
H59 H 0.9821 0.0048 0.3313
C45 C 0.7973(11) 0.0254(3) 0.3810(2)
H62 H 0.6670 0.0269 0.3828
H63 H 0.8467 0.0637 0.3895
H64 H 0.8422 -0.0045 0.4025
S2 S 0.8573(3) 0.43650(8) 0.52231(7)
O2 O 0.7356(8) 0.3851(2) 0.5178(2)
O5 O 1.0256(9) 0.4289(3) 0.4964(2)
O8 O 0.8563(6) 0.45422(12) 0.57512(11)
O11 O 0.4294(8) 0.4660(3) 0.4605(2)
O13 O 0.7174(8) 0.6910(3) 0.68469(17)
O15 O 0.8801(6) 0.6100(2) 0.66896(16)
C2 C 0.6091(10) 0.7100(3) 0.5419(2)
H3 H 0.6697 0.7298 0.5156
H4 H 0.4814 0.7063 0.5337
C6 C 0.6265(13) 0.7490(3) 0.5863(3)
H8 H 0.5832 0.7890 0.5791
H9 H 0.5504 0.7328 0.6114
C8 C 0.8200(12) 0.7525(3) 0.6036(3)
H12 H 0.8236 0.7761 0.6326
H13 H 0.8929 0.7730 0.5799
C10 C 0.9045(8) 0.6910(2) 0.6135(2)
C12 C 0.8847(6) 0.65301(17) 0.56758(17)
H15 H 0.9499 0.6759 0.5432
C14 C 0.9810(6) 0.59223(18) 0.56855(18)
H18 H 0.9126 0.5644 0.5881
H19 H 1.1014 0.5966 0.5822
C16 C 0.9960(6) 0.56814(19) 0.51736(18)
H22 H 1.0716 0.5952 0.4990
H23 H 1.0568 0.5297 0.5183
C18 C 0.8152(6) 0.56073(17) 0.49187(17)
C20 C 0.7031(6) 0.61897(18) 0.49709(16)
H25 H 0.7695 0.6486 0.4782
C22 C 0.6903(6) 0.6470(2) 0.54786(17)
C24 C 0.5196(7) 0.6122(3) 0.47160(19)
H28 H 0.4612 0.6510 0.4698
H29 H 0.4419 0.5862 0.4903
C26 C 0.5373(8) 0.5864(3) 0.42106(18)
H32 H 0.4180 0.5740 0.4101
H33 H 0.5800 0.6177 0.3999
C28 C 0.6673(9) 0.53317(19) 0.41797(19)
C30 C 0.8487(8) 0.55126(18) 0.43816(18)
H36 H 0.8915 0.5879 0.4234
H37 H 0.9384 0.5201 0.4330
C32 C 0.7316(10) 0.4988(3) 0.4957(3)
H39 H 0.6661 0.5081 0.5252
C34 C 0.5565(11) 0.4990(3) 0.4647(3)
C36 C 0.6648(13) 0.5058(2) 0.3685(2)
H43 H 0.7033 0.5351 0.3456
H44 H 0.5436 0.4929 0.3610
H45 H 0.7458 0.4722 0.3676
C38 C 1.1069(9) 0.7010(3) 0.6249(3)
H49 H 1.1178 0.7281 0.6513
H50 H 1.1669 0.7177 0.5976
H51 H 1.1624 0.6635 0.6331
C40 C 0.8208(8) 0.6647(3) 0.6588(2)
C42 C 0.5679(7) 0.6117(3) 0.5813(2)
H55 H 0.4491 0.6080 0.5674
H56 H 0.5589 0.6322 0.6112
H57 H 0.6185 0.5727 0.5863
C44 C 0.811(3) 0.5815(12) 0.7145(9)
H60 H 0.8381 0.6075 0.7412
H61 H 0.6801 0.5769 0.7126
C46 C 0.887(2) 0.5288(8) 0.7216(7)
H65 H 0.8913 0.5073 0.6921
H66 H 0.8162 0.5067 0.7443
H67 H 1.0080 0.5342 0.7336
Na1 Na 1.3111(7) 0.37976(19) 0.50158(17)
Na2 Na 0.7640(5) 0.30193(16) 0.52033(13)
O16 O 1.4906(4) 0.34909(12) 0.47290(10)
O17 O 0.9008(4) 0.32769(15) 0.59983(13)
S3? S 0.7562(3) 0.44181(7) 0.53249(7)
O3? O 0.6037(8) 0.4007(2) 0.5353(2)
O6? O 0.8878(10) 0.4219(3) 0.4972(3)
O10? O 0.5696(8) 0.4360(3) 0.4369(2)
C3? C 0.6530(11) 0.4809(3) 0.4467(3)
C4? C 0.6592(11) 0.5104(3) 0.5106(3)
H5? H 0.5462 0.5250 0.5250
C47? C 0.784(7) 0.580(2) 0.7069(15)
C48? C 0.922(4) 0.5733(16) 0.7452(11)
H68? H 0.7398 0.5414 0.6964
H69? H 0.6819 0.6039 0.7177
H70? H 1.0388 0.5860 0.7337
H71? H 0.9289 0.5321 0.7547
H72? H 0.8881 0.5973 0.7721
Na3? Na 1.2752(10) 0.4046(3) 0.5128(3)
Na4? Na 0.8255(7) 0.2852(2) 0.53595(19)
loop_
_geom_bond_atom_site_label_1
_geom_bond_atom_site_label_2
_geom_bond_site_symmetry_1
_geom_bond_site_symmetry_2
S1 O1 1_555 1_555
S2 O2 1_555 1_555
O4 S1 1_555 1_555
O5 S2 1_555 1_555
O7 S1 1_555 1_555
O8 S2 1_555 1_555
O9 C33 1_555 1_555
O11 C34 1_555 1_555
O12 C39 1_555 1_555
O13 C40 1_555 1_555
O14 C39 1_555 1_555
O15 C40 1_555 1_555
C1 H1 1_555 1_555
H2 C1 1_555 1_555
C2 H3 1_555 1_555
H4 C2 1_555 1_555
C5 C1 1_555 1_555
H6 C5 1_555 1_555
H7 C5 1_555 1_555
C6 C2 1_555 1_555
H8 C6 1_555 1_555
H9 C6 1_555 1_555
C7 C5 1_555 1_555
H10 C7 1_555 1_555
H11 C7 1_555 1_555
C8 C6 1_555 1_555
H12 C8 1_555 1_555
H13 C8 1_555 1_555
C9 C7 1_555 1_555
C10 C8 1_555 1_555
C11 C9 1_555 1_555
H14 C11 1_555 1_555
C12 C10 1_555 1_555
H15 C12 1_555 1_555
C13 C11 1_555 1_555
H16 C13 1_555 1_555
H17 C13 1_555 1_555
C14 C12 1_555 1_555
H18 C14 1_555 1_555
H19 C14 1_555 1_555
C15 C13 1_555 1_555
H20 C15 1_555 1_555
H21 C15 1_555 1_555
C16 C14 1_555 1_555
H22 C16 1_555 1_555
H23 C16 1_555 1_555
C17 C15 1_555 1_555
C18 C16 1_555 1_555
C19 C17 1_555 1_555
H24 C19 1_555 1_555
C20 C18 1_555 1_555
H25 C20 1_555 1_555
C21 C1 1_555 1_555
C22 C2 1_555 1_555
C23 C19 1_555 1_555
H26 C23 1_555 1_555
H27 C23 1_555 1_555
C24 C20 1_555 1_555
H28 C24 1_555 1_555
H29 C24 1_555 1_555
C25 C23 1_555 1_555
H30 C25 1_555 1_555
H31 C25 1_555 1_555
C26 C24 1_555 1_555
H32 C26 1_555 1_555
H33 C26 1_555 1_555
C27 C25 1_555 1_555
C28 C26 1_555 1_555
C29 C17 1_555 1_555
H34 C29 1_555 1_555
H35 C29 1_555 1_555
C30 C18 1_555 1_555
H36 C30 1_555 1_555
H37 C30 1_555 1_555
C31 S1 1_555 1_555
H38 C31 1_555 1_555
C32 S2 1_555 1_555
H39 C32 1_555 1_555
C33 C27 1_555 1_555
C34 C28 1_555 1_555
C35 C27 1_555 1_555
H40 C35 1_555 1_555
H41 C35 1_555 1_555
H42 C35 1_555 1_555
C36 C28 1_555 1_555
H43 C36 1_555 1_555
H44 C36 1_555 1_555
H45 C36 1_555 1_555
C37 C9 1_555 1_555
H46 C37 1_555 1_555
H47 C37 1_555 1_555
H48 C37 1_555 1_555
C38 C10 1_555 1_555
H49 C38 1_555 1_555
H50 C38 1_555 1_555
H51 C38 1_555 1_555
C39 C9 1_555 1_555
C40 C10 1_555 1_555
C41 C21 1_555 1_555
H52 C41 1_555 1_555
H53 C41 1_555 1_555
H54 C41 1_555 1_555
C42 C22 1_555 1_555
H55 C42 1_555 1_555
H56 C42 1_555 1_555
H57 C42 1_555 1_555
C43 O14 1_555 1_555
H58 C43 1_555 1_555
H59 C43 1_555 1_555
C44 O15 1_555 1_555
H60 C44 1_555 1_555
H61 C44 1_555 1_555
C45 C43 1_555 1_555
H62 C45 1_555 1_555
H63 C45 1_555 1_555
H64 C45 1_555 1_555
C46 C44 1_555 1_555
H65 C46 1_555 1_555
H66 C46 1_555 1_555
H67 C46 1_555 1_555
C11 C21 1_555 1_555
C12 C22 1_555 1_555
C17 C31 1_555 1_555
C18 C32 1_555 1_555
C19 C21 1_555 1_555
C20 C22 1_555 1_555
C27 C29 1_555 1_555
C28 C30 1_555 1_555
C31 C33 1_555 1_555
C32 C34 1_555 1_555

#END
