
#######################################################################
#
#                 Cambridge Crystallographic Data Centre
#                                CCDC 
#
#######################################################################
#
# If this CIF has been generated from an entry in the Cambridge 
# Structural Database, then it will include bibliographic, chemical, 
# crystal, experimental, refinement or atomic coordinate data resulting 
# from the CCDC's data processing and validation procedures.
#
#######################################################################

data_TEPKOQ
_chemical_formula_moiety         'C26 H18 N4,C6 F4 I2'
_chemical_name_systematic        
'1,2,4,5-tetrakis(3-Pyridyl)benzene 1,3-di-iodotetrafluorobenzene'
_symmetry_cell_setting           triclinic
_symmetry_space_group_name_H-M   'P -1'
_symmetry_Int_Tables_number      2
_space_group_name_Hall           '-P 1'
loop_
_symmetry_equiv_pos_site_id
_symmetry_equiv_pos_as_xyz
1 x,y,z
2 -x,-y,-z
_cell_length_a                   9.2000(11)
_cell_length_b                   9.4032(11)
_cell_length_c                   17.302(2)
_cell_angle_alpha                82.1980(10)
_cell_angle_beta                 79.0110(10)
_cell_angle_gamma                85.5660(10)
_cell_volume                     1453.7
_exptl_crystal_colour            colorless
_exptl_crystal_description       block
_cell_formula_units_Z            2
loop_
_atom_site_label
_atom_site_type_symbol
_atom_site_fract_x
_atom_site_fract_y
_atom_site_fract_z
I1 I 0.54960(3) 0.94682(3) 0.387022(15)
I2 I -0.09455(4) 0.79073(4) 0.46726(3)
F1 F 0.2042(3) 0.9364(3) 0.38261(16)
F2 F 0.5503(3) 0.6808(3) 0.52306(16)
F3 F 0.3364(4) 0.5176(3) 0.61015(17)
F4 F 0.0559(3) 0.5644(3) 0.58622(18)
C1 C 0.1238(5) 0.7509(5) 0.4827(3)
C2 C 0.2370(5) 0.8323(4) 0.4391(2)
C3 C 0.3825(4) 0.8133(4) 0.4505(2)
C4 C 0.4124(5) 0.7059(5) 0.5085(2)
C5 C 0.3028(6) 0.6219(5) 0.5527(3)
C6 C 0.1618(5) 0.6457(5) 0.5397(3)
N1 N 0.5748(4) 0.6150(4) -0.2239(2)
N2 N 0.9145(4) 0.8212(3) 0.1064(2)
N3 N 0.7807(4) 0.1262(3) 0.30271(18)
N4 N 0.7244(4) -0.0916(4) -0.1009(2)
C7 C 0.7208(4) 0.4045(3) -0.0525(2)
C8 C 0.7513(4) 0.5065(4) -0.0070(2)
H1 H 0.7481 0.6028 -0.0282
C9 C 0.7862(4) 0.4718(3) 0.06825(19)
C10 C 0.7932(4) 0.3250(4) 0.0993(2)
C11 C 0.7562(4) 0.2243(4) 0.0552(2)
H2 H 0.7572 0.1282 0.0768
C12 C 0.7182(4) 0.2593(4) -0.0189(2)
C13 C 0.5982(5) 0.5632(4) -0.1519(2)
H3 H 0.5425 0.6049 -0.1092
C14 C 0.6990(4) 0.4521(4) -0.1354(2)
C15 C 0.7809(5) 0.3911(4) -0.1994(2)
H4 H 0.8507 0.3160 -0.1917
C16 C 0.7582(6) 0.4424(5) -0.2746(2)
H5 H 0.8117 0.4023 -0.3184
C17 C 0.6554(6) 0.5536(5) -0.2839(3)
H6 H 0.6413 0.5881 -0.3351
C18 C 0.8890(4) 0.7081(4) 0.0728(2)
H7 H 0.9246 0.7089 0.0187
C19 C 0.8136(4) 0.5894(4) 0.1121(2)
C20 C 0.7598(5) 0.5913(4) 0.1928(2)
H8 H 0.7061 0.5159 0.2219
C21 C 0.7866(5) 0.7057(5) 0.2292(3)
H9 H 0.7534 0.7077 0.2833
C22 C 0.8634(5) 0.8167(5) 0.1838(3)
H10 H 0.8807 0.8936 0.2088
C23 C 0.7449(4) 0.1893(4) 0.2343(2)
H11 H 0.6502 0.1782 0.2253
C24 C 0.8398(4) 0.2702(4) 0.1762(2)
C25 C 0.9789(5) 0.2882(5) 0.1910(2)
H12 H 1.0464 0.3421 0.1538
C26 C 1.0163(5) 0.2254(5) 0.2614(3)
H13 H 1.1092 0.2374 0.2726
C27 C 0.9163(5) 0.1454(4) 0.3146(2)
H14 H 0.9442 0.1020 0.3615
C28 C 0.7566(5) 0.0147(4) -0.0640(2)
H15 H 0.8386 0.0005 -0.0391
C29 C 0.6750(4) 0.1454(4) -0.0604(2)
C30 C 0.5514(4) 0.1630(4) -0.0963(2)
H16 H 0.4910 0.2469 -0.0936
C31 C 0.5187(5) 0.0558(4) -0.1359(3)
H17 H 0.4373 0.0669 -0.1612
C32 C 0.6072(6) -0.0664(5) -0.1372(3)
H18 H 0.5851 -0.1372 -0.1652
loop_
_geom_bond_atom_site_label_1
_geom_bond_atom_site_label_2
_geom_bond_site_symmetry_1
_geom_bond_site_symmetry_2
I1 C3 1_555 1_555
I2 C1 1_555 1_555
N1 C13 1_555 1_555
N2 C18 1_555 1_555
N3 C23 1_555 1_555
N4 C28 1_555 1_555
F1 C2 1_555 1_555
F2 C4 1_555 1_555
F3 C5 1_555 1_555
F4 C6 1_555 1_555
C1 C2 1_555 1_555
C2 C3 1_555 1_555
C3 C4 1_555 1_555
C4 C5 1_555 1_555
C5 C6 1_555 1_555
C6 C1 1_555 1_555
C7 C8 1_555 1_555
C8 H1 1_555 1_555
C9 C8 1_555 1_555
C10 C9 1_555 1_555
C11 C10 1_555 1_555
H2 C11 1_555 1_555
C12 C7 1_555 1_555
C13 H3 1_555 1_555
C14 C7 1_555 1_555
C15 C14 1_555 1_555
H4 C15 1_555 1_555
C16 C15 1_555 1_555
H5 C16 1_555 1_555
C17 N1 1_555 1_555
H6 C17 1_555 1_555
C18 H7 1_555 1_555
C19 C9 1_555 1_555
C20 C19 1_555 1_555
H8 C20 1_555 1_555
C21 C20 1_555 1_555
H9 C21 1_555 1_555
C22 N2 1_555 1_555
H10 C22 1_555 1_555
C23 H11 1_555 1_555
C24 C10 1_555 1_555
C25 C24 1_555 1_555
H12 C25 1_555 1_555
C26 C25 1_555 1_555
H13 C26 1_555 1_555
C27 N3 1_555 1_555
H14 C27 1_555 1_555
C28 H15 1_555 1_555
C29 C12 1_555 1_555
C30 C29 1_555 1_555
H16 C30 1_555 1_555
C31 C30 1_555 1_555
H17 C31 1_555 1_555
C32 N4 1_555 1_555
H18 C32 1_555 1_555
C11 C12 1_555 1_555
C13 C14 1_555 1_555
C16 C17 1_555 1_555
C18 C19 1_555 1_555
C21 C22 1_555 1_555
C23 C24 1_555 1_555
C26 C27 1_555 1_555
C28 C29 1_555 1_555
C31 C32 1_555 1_555

#END
