
#######################################################################
#
#                 Cambridge Crystallographic Data Centre
#                                CCDC 
#
#######################################################################
#
# If this CIF has been generated from an entry in the Cambridge 
# Structural Database, then it will include bibliographic, chemical, 
# crystal, experimental, refinement or atomic coordinate data resulting 
# from the CCDC's data processing and validation procedures.
#
#######################################################################

data_TEPKUW
_chemical_formula_moiety         '2(C12 H14 N4),5(C6 F3 I3)'
_chemical_name_systematic        
"bis(4,4',6,6'-Tetramethyl-2,2'-bipyridine) pentakis(1,3,5-trifluoro-2,4,6-tris(iodo)benzene)"
_symmetry_cell_setting           triclinic
_symmetry_space_group_name_H-M   'P -1'
_symmetry_Int_Tables_number      2
_space_group_name_Hall           '-P 1'
loop_
_symmetry_equiv_pos_site_id
_symmetry_equiv_pos_as_xyz
1 x,y,z
2 -x,-y,-z
_cell_length_a                   9.2428(9)
_cell_length_b                   11.0863(11)
_cell_length_c                   18.8796(19)
_cell_angle_alpha                87.9420(10)
_cell_angle_beta                 85.3110(10)
_cell_angle_gamma                84.4280(10)
_cell_volume                     1918.22
_exptl_crystal_colour            colorless
_exptl_crystal_description       block
_cell_formula_units_Z            1
loop_
_atom_site_label
_atom_site_type_symbol
_atom_site_fract_x
_atom_site_fract_y
_atom_site_fract_z
C7 C 0.1083(6) 0.1121(5) 0.1902(3)
C8 C 0.1551(8) 0.2998(6) 0.2232(4)
C9 C 0.2986(8) 0.2538(7) 0.2289(4)
H1 H 0.3658 0.3029 0.2438
C10 C 0.3403(7) 0.1369(6) 0.2127(3)
C11 C -0.0013(6) 0.0293(5) 0.1714(3)
C12 C -0.1169(7) -0.1386(6) 0.1982(4)
C13 C -0.1919(7) -0.1161(7) 0.1386(4)
H2 H -0.2606 -0.1671 0.1276
C14 C -0.1642(7) -0.0173(6) 0.0956(4)
C15 C 0.0991(10) 0.4271(7) 0.2389(5)
H3 H -0.0028 0.4392 0.2313
H4 H 0.1514 0.4814 0.2079
H5 H 0.1126 0.4429 0.2874
C16 C 0.4958(8) 0.0817(7) 0.2167(5)
H6 H 0.4974 0.0127 0.2489
H7 H 0.5535 0.1407 0.2334
H8 H 0.5351 0.0567 0.1703
C17 C -0.1404(13) -0.2470(9) 0.2480(6)
H9 H -0.0548 -0.2677 0.2732
H10 H -0.1587 -0.3148 0.2209
H11 H -0.2224 -0.2270 0.2815
C18 C -0.2406(11) 0.0127(8) 0.0288(5)
H12 H -0.2503 0.0989 0.0206
H13 H -0.3355 -0.0164 0.0341
H14 H -0.1845 -0.0254 -0.0107
N1 N 0.2457(5) 0.0635(5) 0.1927(3)
N2 N 0.0573(6) 0.2273(5) 0.2031(3)
N3 N -0.0681(6) 0.0574(5) 0.1121(3)
N4 N -0.0196(6) -0.0651(5) 0.2160(3)
C19 C 0.3891(7) 0.6206(6) 0.1167(3)
C20 C 0.5191(7) 0.5572(6) 0.1284(3)
C21 C 0.5569(7) 0.4386(6) 0.1096(3)
C22 C 0.4566(7) 0.3838(6) 0.0755(3)
C23 C 0.3223(7) 0.4406(6) 0.0615(3)
C24 C 0.2906(7) 0.5598(6) 0.0828(3)
F4 F 0.1600(4) 0.6180(4) 0.0710(2)
F5 F 0.6156(4) 0.6131(4) 0.1635(2)
F6 F 0.4893(5) 0.2671(4) 0.0556(2)
I4 I 0.33460(5) 0.79912(4) 0.14900(3)
I5 I 0.75664(5) 0.34594(4) 0.13305(3)
I6 I 0.16892(6) 0.35077(5) 0.01535(3)
C25 C 0.2760(7) 0.8576(6) 0.4371(3)
C26 C 0.4247(7) 0.8583(6) 0.4305(4)
C27 C 0.5095(7) 0.8360(6) 0.4875(4)
C28 C 0.4413(7) 0.8144(6) 0.5522(4)
C29 C 0.2914(8) 0.8137(6) 0.5639(3)
C30 C 0.2122(7) 0.8354(6) 0.5047(3)
F7 F 0.0668(4) 0.8375(4) 0.5139(2)
F8 F 0.4909(5) 0.8816(4) 0.3662(2)
F9 F 0.5217(5) 0.7931(5) 0.6093(3)
I7 I 0.15010(5) 0.89365(5) 0.35068(2)
I8 I 0.73722(5) 0.83421(5) 0.47358(4)
I9 I 0.18570(6) 0.78813(5) 0.66402(3)
C1? C 0.1999(10) 0.5017(9) 0.5231(6)
C2? C 0.2642(12) 0.5217(9) 0.4554(6)
C3? C 0.4143(14) 0.5213(12) 0.4445(6)
C4? C 0.5002(13) 0.4999(13) 0.5000(7)
C5? C 0.4357(12) 0.4808(11) 0.5691(6)
C6? C 0.2856(11) 0.4812(9) 0.5799(6)
F1? F 0.1828(13) 0.5400(11) 0.4005(6)
F2? F 0.6414(10) 0.4964(10) 0.4900(7)
F3? F 0.2234(11) 0.4580(9) 0.6426(5)
I1? I -0.02498(13) 0.49443(14) 0.53872(10)
I2? I 0.5108(3) 0.5495(3) 0.34036(14)
I3? I 0.5650(2) 0.4452(2) 0.65288(13)
H15? H 0.1770 0.4698 0.2531
H16? H 0.0228 0.4276 0.2765
H17? H 0.0615 0.4661 0.1971
loop_
_geom_bond_atom_site_label_1
_geom_bond_atom_site_label_2
_geom_bond_site_symmetry_1
_geom_bond_site_symmetry_2
C7 C11 1_555 1_555
C8 C9 1_555 1_555
C9 H1 1_555 1_555
C10 C9 1_555 1_555
C11 N3 1_555 1_555
C12 C13 1_555 1_555
C13 H2 1_555 1_555
C14 C13 1_555 1_555
C15 C8 1_555 1_555
H3 C15 1_555 1_555
H4 C15 1_555 1_555
H5 C15 1_555 1_555
C16 C10 1_555 1_555
H6 C16 1_555 1_555
H7 C16 1_555 1_555
H8 C16 1_555 1_555
C17 C12 1_555 1_555
H9 C17 1_555 1_555
H10 C17 1_555 1_555
H11 C17 1_555 1_555
C18 C14 1_555 1_555
H12 C18 1_555 1_555
H13 C18 1_555 1_555
H14 C18 1_555 1_555
C19 C20 1_555 1_555
C20 C21 1_555 1_555
C21 C22 1_555 1_555
C22 C23 1_555 1_555
C23 C24 1_555 1_555
C24 C19 1_555 1_555
C25 C26 1_555 1_555
C26 C27 1_555 1_555
C27 C28 1_555 1_555
C28 C29 1_555 1_555
C29 C30 1_555 1_555
C30 C25 1_555 1_555
F4 C24 1_555 1_555
F5 C20 1_555 1_555
F6 C22 1_555 1_555
F7 C30 1_555 1_555
F8 C26 1_555 1_555
F9 C28 1_555 1_555
I4 C19 1_555 1_555
I5 C21 1_555 1_555
I6 C23 1_555 1_555
I7 C25 1_555 1_555
I8 C27 1_555 1_555
I9 C29 1_555 1_555
N1 C7 1_555 1_555
N2 C7 1_555 1_555
N3 C14 1_555 1_555
N4 C11 1_555 1_555
C8 N2 1_555 1_555
C10 N1 1_555 1_555
C12 N4 1_555 1_555

#END
