
#######################################################################
#
#                 Cambridge Crystallographic Data Centre
#                                CCDC 
#
#######################################################################
#
# If this CIF has been generated from an entry in the Cambridge 
# Structural Database, then it will include bibliographic, chemical, 
# crystal, experimental, refinement or atomic coordinate data resulting 
# from the CCDC's data processing and validation procedures.
#
#######################################################################

data_TEPPUC
_chemical_formula_moiety         'C26 H28 N2 O4 S1'
_chemical_name_systematic        
'ethyl 3-(4-methylphenyl)-1-((4-methylphenyl)sulfonyl)-4-phenylimidazolidine-2-carboxylate'
_symmetry_cell_setting           monoclinic
_symmetry_space_group_name_H-M   'P 21/n'
_symmetry_Int_Tables_number      14
_space_group_name_Hall           '-P 2yn'
loop_
_symmetry_equiv_pos_site_id
_symmetry_equiv_pos_as_xyz
1 x,y,z
2 1/2-x,1/2+y,1/2-z
3 -x,-y,-z
4 1/2+x,1/2-y,1/2+z
_cell_length_a                   9.3120(3)
_cell_length_b                   12.3645(7)
_cell_length_c                   21.2145(10)
_cell_angle_alpha                90
_cell_angle_beta                 92.742(4)
_cell_angle_gamma                90
_cell_volume                     2439.8
_exptl_crystal_colour            colorless
_exptl_crystal_description       block
_cell_formula_units_Z            4
loop_
_atom_site_label
_atom_site_type_symbol
_atom_site_fract_x
_atom_site_fract_y
_atom_site_fract_z
S1 S 0.28275(8) 0.53193(8) 0.34545(4)
O1 O 0.3681(2) 0.6274(2) 0.33666(10)
O2 O 0.3353(2) 0.4451(2) 0.38418(11)
O3 O 0.3560(3) 0.4448(2) 0.14727(13)
O4 O 0.4178(2) 0.6169(2) 0.16412(11)
N1 N 0.2560(2) 0.47968(19) 0.27479(11)
N2 N 0.0844(2) 0.51534(18) 0.19712(11)
C1 C 0.2251(2) 0.5492(2) 0.22079(12)
H1 H 0.223943 0.625345 0.233652
C2 C 0.1753(3) 0.3783(2) 0.26506(16)
H2 H 0.136016 0.354354 0.304213
H3 H 0.237213 0.321972 0.249781
C3 C 0.0537(3) 0.4043(2) 0.21561(14)
H4 H 0.061995 0.356591 0.179081
C4 C -0.0956(3) 0.3929(2) 0.24069(13)
C5 C -0.1745(3) 0.4791(3) 0.25861(18)
H5 H -0.136855 0.548278 0.254570
C6 C -0.3095(4) 0.4671(3) 0.28276(19)
H6 H -0.361666 0.527915 0.293697
C7 C -0.3649(3) 0.3685(3) 0.29032(19)
H7 H -0.455272 0.359936 0.306483
C8 C -0.2870(4) 0.2810(3) 0.2740(3)
H8 H -0.323397 0.212029 0.280300
C9 C -0.1533(4) 0.2930(3) 0.2481(2)
H9 H -0.103081 0.232173 0.235722
C10 C 0.0265(2) 0.5600(2) 0.14046(12)
C11 C 0.0640(3) 0.6635(2) 0.12193(13)
H10 H 0.132748 0.701729 0.146068
C12 C 0.0013(3) 0.7109(2) 0.06836(13)
H11 H 0.027410 0.780957 0.057718
C13 C -0.0990(3) 0.6568(3) 0.03049(13)
C14 C -0.1341(3) 0.5526(3) 0.04822(15)
H12 H -0.200148 0.513637 0.023018
C15 C -0.0740(3) 0.5047(3) 0.10230(14)
H13 H -0.101148 0.434977 0.113097
C16 C -0.1669(4) 0.7093(3) -0.02801(16)
H14 H -0.224000 0.769853 -0.016056
H15 H -0.226911 0.657642 -0.050495
H16 H -0.092872 0.733575 -0.054634
C17 C 0.3408(3) 0.5295(3) 0.17270(14)
C18 C 0.5276(4) 0.6103(4) 0.1168(2)
H17 H 0.611409 0.652107 0.130734
H18 H 0.556994 0.535736 0.111636
C19 C 0.4692(7) 0.6521(7) 0.0578(3)
H19 H 0.533307 0.635513 0.024961
H20 H 0.458180 0.729035 0.060862
H21 H 0.377274 0.619468 0.048012
C20 C 0.1168(3) 0.5718(3) 0.37314(14)
C21 C 0.0662(3) 0.6750(3) 0.36230(16)
H22 H 0.121293 0.724464 0.340987
C22 C -0.0656(4) 0.7050(4) 0.3829(2)
H23 H -0.097719 0.775330 0.375472
C23 C -0.1496(4) 0.6362(5) 0.41333(19)
C24 C -0.0994(5) 0.5325(5) 0.4258(2)
H24 H -0.155506 0.484258 0.447550
C25 C 0.0362(4) 0.4996(4) 0.40569(18)
H25 H 0.070323 0.430258 0.414345
C26 C -0.2971(4) 0.6654(5) 0.4360(3)
H26 H -0.287470 0.721845 0.466971
H27 H -0.339551 0.602879 0.454407
H28 H -0.357337 0.689936 0.400879
loop_
_geom_bond_atom_site_label_1
_geom_bond_atom_site_label_2
_geom_bond_site_symmetry_1
_geom_bond_site_symmetry_2
S1 O1 1_555 1_555
O2 S1 1_555 1_555
O3 C17 1_555 1_555
O4 C17 1_555 1_555
N1 S1 1_555 1_555
N2 C1 1_555 1_555
C1 N1 1_555 1_555
H1 C1 1_555 1_555
C2 N1 1_555 1_555
H2 C2 1_555 1_555
H3 C2 1_555 1_555
C3 N2 1_555 1_555
H4 C3 1_555 1_555
C4 C3 1_555 1_555
C5 C4 1_555 1_555
H5 C5 1_555 1_555
C6 C5 1_555 1_555
H6 C6 1_555 1_555
C7 C6 1_555 1_555
H7 C7 1_555 1_555
C8 C7 1_555 1_555
H8 C8 1_555 1_555
C9 C4 1_555 1_555
H9 C9 1_555 1_555
C10 N2 1_555 1_555
C11 C10 1_555 1_555
H10 C11 1_555 1_555
C12 C11 1_555 1_555
H11 C12 1_555 1_555
C13 C12 1_555 1_555
C14 C13 1_555 1_555
H12 C14 1_555 1_555
C15 C10 1_555 1_555
H13 C15 1_555 1_555
C16 C13 1_555 1_555
H14 C16 1_555 1_555
H15 C16 1_555 1_555
H16 C16 1_555 1_555
C17 C1 1_555 1_555
C18 O4 1_555 1_555
H17 C18 1_555 1_555
H18 C18 1_555 1_555
C19 C18 1_555 1_555
H19 C19 1_555 1_555
H20 C19 1_555 1_555
H21 C19 1_555 1_555
C20 S1 1_555 1_555
C21 C20 1_555 1_555
H22 C21 1_555 1_555
C22 C21 1_555 1_555
H23 C22 1_555 1_555
C23 C22 1_555 1_555
C24 C23 1_555 1_555
H24 C24 1_555 1_555
C25 C20 1_555 1_555
H25 C25 1_555 1_555
C26 C23 1_555 1_555
H26 C26 1_555 1_555
H27 C26 1_555 1_555
H28 C26 1_555 1_555
C2 C3 1_555 1_555
C8 C9 1_555 1_555
C14 C15 1_555 1_555
C24 C25 1_555 1_555

#END
