
#######################################################################
#
#                 Cambridge Crystallographic Data Centre
#                                CCDC 
#
#######################################################################
#
# If this CIF has been generated from an entry in the Cambridge 
# Structural Database, then it will include bibliographic, chemical, 
# crystal, experimental, refinement or atomic coordinate data resulting 
# from the CCDC's data processing and validation procedures.
#
#######################################################################

data_TEQLAC
_chemical_formula_moiety         'C16 H46 B8 Li1 Si4 1-,C12 H32 Li1 N4 1+'
_chemical_name_systematic        
"bis(Tetramethylethylenediamine)-lithium commo-1,1'-lithia-bis(2,3-bis(trimethylsilyl)-2,3-dicarbahexaborane(5))"
_symmetry_cell_setting           orthorhombic
_symmetry_space_group_name_H-M   'P c c n'
_symmetry_Int_Tables_number      56
_space_group_name_Hall           '-P 2ab 2ac'
loop_
_symmetry_equiv_pos_site_id
_symmetry_equiv_pos_as_xyz
1 x,y,z
2 1/2-x,1/2-y,z
3 1/2+x,-y,1/2-z
4 -x,1/2+y,1/2-z
5 -x,-y,-z
6 1/2+x,1/2+y,-z
7 1/2-x,y,1/2+z
8 x,1/2-y,1/2+z
_cell_length_a                   12.050(3)
_cell_length_b                   20.894(4)
_cell_length_c                   38.684(8)
_cell_angle_alpha                90
_cell_angle_beta                 90
_cell_angle_gamma                90
_cell_volume                     9739.58
_exptl_crystal_colour            colorless
_chemical_melting_point          150-152deg.C
_cell_formula_units_Z            8
loop_
_atom_site_label
_atom_site_type_symbol
_atom_site_fract_x
_atom_site_fract_y
_atom_site_fract_z
Li1 Li 0.0000 0.5000 0.0000
Si1 Si 0.2046(3) 0.5548(2) 0.0617(1)
Si2 Si 0.2726(3) 0.5656(2) -0.0358(1)
C1 C 0.1635(8) 0.4993(5) 0.0253(3)
C2 C 0.1860(9) 0.5045(6) -0.0124(3)
B1 B 0.1565(10) 0.4420(8) -0.0316(4)
B2 B 0.1155(11) 0.3870(7) 0.0005(4)
B3 B 0.1200(11) 0.4304(7) 0.0357(4)
B4 B 0.2338(12) 0.4355(7) 0.0069(4)
C5 C 0.1947(11) 0.6411(5) 0.0505(3)
C6 C 0.1030(9) 0.5429(6) 0.0975(3)
C7 C 0.3466(9) 0.5363(6) 0.0783(3)
C8 C 0.3197(11) 0.5306(6) -0.0780(3)
C9 C 0.1885(11) 0.6373(5) -0.0460(3)
C10 C 0.4017(9) 0.5882(6) -0.0127(3)
H1 H 0.1969 0.4180 -0.0608
H2 H 0.1160 0.3245 -0.0077
H3 H 0.1313 0.4188 0.0692
H4 H 0.3176 0.4052 0.0223
H5 H 0.0474 0.4219 -0.0220
H11 H 0.1214 0.6507 0.0423
H12 H 0.2097 0.6659 0.0709
H13 H 0.2479 0.6515 0.0330
H14 H 0.1030 0.4989 0.1045
H15 H 0.1233 0.5694 0.1167
H16 H 0.0303 0.5546 0.0896
H17 H 0.3502 0.4915 0.0836
H18 H 0.4004 0.5463 0.0608
H19 H 0.3621 0.5607 0.0988
H20 H 0.2562 0.5181 -0.0914
H21 H 0.3621 0.5616 -0.0907
H22 H 0.3649 0.4938 -0.0734
H23 H 0.1227 0.6240 -0.0580
H24 H 0.1681 0.6589 -0.0251
H25 H 0.2306 0.6658 -0.0604
H26 H 0.3829 0.6071 0.0092
H27 H 0.4459 0.5506 -0.0089
H28 H 0.4431 0.6184 -0.0262
C1D C -0.1635(8) 0.5007(5) -0.0253(3)
Si1D Si -0.2046(3) 0.4452(2) -0.0617(1)
C5D C -0.1947(11) 0.3589(5) -0.0505(3)
H11D H -0.1214 0.3493 -0.0423
H12D H -0.2097 0.3341 -0.0709
H13D H -0.2479 0.3485 -0.0330
C6D C -0.1030(9) 0.4571(6) -0.0975(3)
H14D H -0.1030 0.5011 -0.1045
H15D H -0.1233 0.4306 -0.1167
H16D H -0.0303 0.4454 -0.0896
C7D C -0.3466(9) 0.4637(6) -0.0783(3)
H17D H -0.3502 0.5085 -0.0836
H18D H -0.4004 0.4537 -0.0608
H19D H -0.3621 0.4393 -0.0988
C2D C -0.1860(9) 0.4955(6) 0.0124(3)
B1D B -0.1565(10) 0.5580(8) 0.0316(4)
Si2D Si -0.2726(3) 0.4344(2) 0.0358(1)
C8D C -0.3197(11) 0.4694(6) 0.0780(3)
H20D H -0.2562 0.4819 0.0914
H21D H -0.3621 0.4384 0.0907
H22D H -0.3649 0.5062 0.0734
C9D C -0.1885(11) 0.3627(5) 0.0460(3)
H23D H -0.1227 0.3760 0.0580
H24D H -0.1681 0.3411 0.0251
H25D H -0.2306 0.3342 0.0604
C10D C -0.4017(9) 0.4118(6) 0.0127(3)
H26D H -0.3829 0.3929 -0.0092
H27D H -0.4459 0.4494 0.0089
H28D H -0.4431 0.3816 0.0262
B4D B -0.2338(12) 0.5645(7) -0.0069(4)
B3D B -0.1200(11) 0.5696(7) -0.0357(4)
B2D B -0.1155(11) 0.6130(7) -0.0005(4)
H4D H -0.3176 0.5948 -0.0223
H3D H -0.1313 0.5812 -0.0692
H2D H -0.1160 0.6755 0.0077
H5D H -0.0474 0.5781 0.0220
H1D H -0.1969 0.5820 0.0608
Li2 Li 0.2500 0.7500 -0.2436(8)
Si3 Si 0.2260(7) 0.6171(3) -0.1824(2)
Si5 Si 0.2178(6) 0.5722(3) -0.2796(2)
C3 C 0.1614(10) 0.6624(6) -0.2258(4)
C4 C 0.1663(11) 0.6596(7) -0.2635(5)
B5 B 0.0890(15) 0.7088(11) -0.2803(4)
B6 B 0.0229(11) 0.7454(8) -0.2475(4)
B7 B 0.0808(12) 0.7129(7) -0.2126(4)
B8 B 0.0373(10) 0.6631(8) -0.2480(5)
C11 C 0.1302(13) 0.5713(9) -0.1649(4)
C12 C 0.3585(11) 0.5871(7) -0.1947(3)
C13 C 0.2569(19) 0.6754(11) -0.1490(5)
C15 C 0.3658(11) 0.5803(7) -0.2895(3)
C16 C 0.1414(12) 0.5610(7) -0.3210(3)
C17 C 0.1812(20) 0.4986(12) -0.2535(7)
H6 H 0.0806 0.7317 -0.3149
H7 H -0.0545 0.7851 -0.2464
H8 H 0.0629 0.7380 -0.1807
H9 H -0.0572 0.6385 -0.2401
H10 H 0.0964 0.7743 -0.2685
H29 H 0.1503 0.5472 -0.1432
H30 H 0.0587 0.5930 -0.1578
H31 H 0.1020 0.5357 -0.1803
H35 H 0.3990 0.5625 -0.1756
H36 H 0.3548 0.5545 -0.2135
H37 H 0.4110 0.6189 -0.2022
H41 H 0.2846 0.6546 -0.1281
H42 H 0.3126 0.7037 -0.1575
H43 H 0.1916 0.6995 -0.1427
H47 H 0.4001 0.5395 -0.2975
H48 H 0.3823 0.6113 -0.3077
H49 H 0.4107 0.5933 -0.2694
H53 H 0.1548 0.5186 -0.3317
H54 H 0.0580 0.5611 -0.3172
H55 H 0.1549 0.5926 -0.3382
H59 H 0.2120 0.4626 -0.2643
H60 H 0.2158 0.5043 -0.2306
H61 H 0.1033 0.4946 -0.2503
C3A C 0.3386(10) 0.8376(6) -0.2258(4)
Si3A Si 0.2740(7) 0.8829(3) -0.1824(2)
C11A C 0.3698(13) 0.9287(9) -0.1649(4)
H29A H 0.3497 0.9528 -0.1432
H30A H 0.4413 0.9070 -0.1578
H31A H 0.3980 0.9643 -0.1803
C12A C 0.1415(11) 0.9129(7) -0.1947(3)
H35A H 0.1010 0.9375 -0.1756
H36A H 0.1452 0.9455 -0.2135
H37A H 0.0890 0.8811 -0.2022
C13A C 0.2431(19) 0.8246(11) -0.1490(5)
H41A H 0.2154 0.8454 -0.1281
H42A H 0.1874 0.7963 -0.1575
H43A H 0.3084 0.8005 -0.1427
C4A C 0.3337(11) 0.8404(7) -0.2635(5)
B5A B 0.4110(15) 0.7912(11) -0.2803(4)
Si5A Si 0.2822(6) 0.9278(3) -0.2796(2)
C15A C 0.1342(11) 0.9197(7) -0.2895(3)
H47A H 0.0999 0.9605 -0.2975
H48A H 0.1177 0.8887 -0.3077
H49A H 0.0893 0.9067 -0.2694
C16A C 0.3586(12) 0.9390(7) -0.3210(3)
H53A H 0.3452 0.9814 -0.3317
H54A H 0.4420 0.9389 -0.3172
H55A H 0.3451 0.9074 -0.3382
C17A C 0.3188(20) 1.0014(12) -0.2535(7)
H59A H 0.2880 1.0374 -0.2643
H60A H 0.2842 0.9957 -0.2306
H61A H 0.3967 1.0054 -0.2503
B8A B 0.4627(10) 0.8369(8) -0.2480(5)
B7A B 0.4192(12) 0.7871(7) -0.2126(4)
B6A B 0.4771(11) 0.7546(8) -0.2475(4)
H9A H 0.5572 0.8615 -0.2401
H8A H 0.4371 0.7620 -0.1807
H7A H 0.5545 0.7149 -0.2464
H10A H 0.4036 0.7257 -0.2685
H6A H 0.4194 0.7683 -0.3149
Li3 Li 0.2500 0.2500 -0.1265(7)
N1 N 0.2347(12) 0.3336(5) -0.1554(4)
N2 N 0.3837(11) 0.2864(7) -0.0975(4)
C19 C 0.3162(23) 0.3707(10) -0.1386(7)
C20 C 0.3943(18) 0.3485(11) -0.1139(8)
C21 C 0.2694(16) 0.3305(7) -0.1894(4)
C22 C 0.1300(13) 0.3646(7) -0.1550(5)
C23 C 0.4861(11) 0.2522(8) -0.0985(4)
C24 C 0.3620(16) 0.2994(9) -0.0625(5)
H65 H 0.2722 0.3985 -0.1244
H66 H 0.3527 0.3972 -0.1554
H67 H 0.4598 0.3446 -0.1279
H68 H 0.4107 0.3794 -0.0963
H69 H 0.2601 0.3707 -0.2011
H70 H 0.3462 0.3183 -0.1900
H71 H 0.2256 0.2983 -0.2007
H72 H 0.1303 0.4027 -0.1689
H73 H 0.0779 0.3345 -0.1644
H74 H 0.1089 0.3752 -0.1318
H75 H 0.5415 0.2727 -0.0846
H76 H 0.4742 0.2094 -0.0904
H77 H 0.5108 0.2509 -0.1221
H78 H 0.4240 0.3164 -0.0499
H79 H 0.3009 0.3288 -0.0612
H80 H 0.3405 0.2591 -0.0527
N1A N 0.2653(12) 0.1664(5) -0.1554(4)
C19A C 0.1838(23) 0.1293(10) -0.1386(7)
C20A C 0.1057(18) 0.1515(11) -0.1139(8)
N2A N 0.1163(11) 0.2136(7) -0.0975(4)
C23A C 0.0139(11) 0.2478(8) -0.0985(4)
H75A H -0.0415 0.2273 -0.0846
H76A H 0.0258 0.2906 -0.0904
H77A H -0.0108 0.2491 -0.1221
C24A C 0.1380(16) 0.2006(9) -0.0625(5)
H78A H 0.0760 0.1836 -0.0499
H79A H 0.1991 0.1712 -0.0612
H80A H 0.1595 0.2409 -0.0527
H67A H 0.0402 0.1554 -0.1279
H68A H 0.0893 0.1206 -0.0963
H65A H 0.2278 0.1015 -0.1244
H66A H 0.1473 0.1028 -0.1554
C21A C 0.2306(16) 0.1695(7) -0.1894(4)
H69A H 0.2399 0.1293 -0.2011
H70A H 0.1538 0.1817 -0.1900
H71A H 0.2744 0.2017 -0.2007
C22A C 0.3700(13) 0.1354(7) -0.1550(5)
H72A H 0.3697 0.0973 -0.1689
H73A H 0.4221 0.1655 -0.1644
H74A H 0.3911 0.1248 -0.1318
Li4 Li 0.2500 0.2500 0.1243(7)
N3 N 0.1071(9) 0.2229(6) 0.0971(3)
N4 N 0.2324(10) 0.1647(5) 0.1533(3)
C25 C 0.0774(15) 0.1645(8) 0.1141(6)
C26 C 0.1430(17) 0.1348(8) 0.1348(5)
C27 C 0.1257(11) 0.2099(7) 0.0619(4)
C28 C 0.0178(10) 0.2680(6) 0.0981(3)
C29 C 0.3283(12) 0.1227(6) 0.1526(4)
C30 C 0.2030(13) 0.1705(6) 0.1888(4)
H81 H 0.0549 0.1359 0.0960
H82 H 0.0120 0.1739 0.1274
H83 H 0.0973 0.1137 0.1516
H84 H 0.1769 0.1019 0.1210
H85 H 0.0583 0.1981 0.0504
H86 H 0.1563 0.2474 0.0512
H87 H 0.1781 0.1754 0.0604
H88 H -0.0433 0.2519 0.0847
H89 H -0.0052 0.2737 0.1216
H90 H 0.0414 0.3084 0.0887
H91 H 0.3147 0.0849 0.1660
H92 H 0.3439 0.1110 0.1291
H93 H 0.3907 0.1453 0.1621
H94 H 0.1966 0.1294 0.1998
H95 H 0.2583 0.1954 0.2005
H96 H 0.1329 0.1922 0.1899
N3A N 0.3929(9) 0.2771(6) 0.0971(3)
C25A C 0.4226(15) 0.3355(8) 0.1141(6)
C26A C 0.3570(17) 0.3652(8) 0.1348(5)
N4A N 0.2676(10) 0.3353(5) 0.1533(3)
C29A C 0.1717(12) 0.3773(6) 0.1526(4)
H91A H 0.1853 0.4151 0.1660
H92A H 0.1561 0.3890 0.1291
H93A H 0.1093 0.3547 0.1621
C30A C 0.2970(13) 0.3295(6) 0.1888(4)
H94A H 0.3034 0.3706 0.1998
H95A H 0.2417 0.3046 0.2005
H96A H 0.3671 0.3078 0.1899
H83A H 0.4027 0.3863 0.1516
H84A H 0.3231 0.3981 0.1210
H81A H 0.4451 0.3641 0.0960
H82A H 0.4880 0.3261 0.1274
C27A C 0.3743(11) 0.2901(7) 0.0619(4)
H85A H 0.4417 0.3019 0.0504
H86A H 0.3437 0.2526 0.0512
H87A H 0.3219 0.3246 0.0604
C28A C 0.4822(10) 0.2320(6) 0.0981(3)
H88A H 0.5433 0.2481 0.0847
H89A H 0.5052 0.2263 0.1216
H90A H 0.4586 0.1916 0.0887
Si4? Si 0.2090(9) 0.5902(4) -0.2071(2)
Si6? Si 0.2309(7) 0.6214(4) -0.3051(2)
C14? C 0.1713(31) 0.5131(16) -0.2269(10)
C18? C 0.2672(22) 0.6744(12) -0.3409(6)
H32? H 0.1297 0.6006 -0.1465
H33? H 0.0457 0.5624 -0.1696
H34? H 0.1510 0.5281 -0.1546
H38? H 0.4091 0.5955 -0.2144
H39? H 0.3820 0.6120 -0.1758
H40? H 0.3799 0.5406 -0.1883
H44? H 0.2049 0.5126 -0.2467
H45? H 0.1984 0.4771 -0.2110
H46? H 0.0931 0.5114 -0.2260
H50? H 0.4074 0.5600 -0.3092
H51? H 0.4202 0.6120 -0.2803
H52? H 0.3556 0.5484 -0.2726
H56? H 0.0684 0.5793 -0.3295
H57? H 0.1703 0.5380 -0.3412
H58? H 0.1204 0.5292 -0.3041
H62? H 0.2011 0.6953 -0.3489
H63? H 0.3193 0.7068 -0.3331
H64? H 0.3004 0.6511 -0.3596
loop_
_geom_bond_atom_site_label_1
_geom_bond_atom_site_label_2
_geom_bond_site_symmetry_1
_geom_bond_site_symmetry_2
Li1 C1 1_555 1_555
Li2 C3 1_555 1_555
Li3 N1 1_555 1_555
Li4 N3 1_555 1_555
Si1 C1 1_555 1_555
Si2 C2 1_555 1_555
Si3 C3 1_555 1_555
Si5 C4 1_555 1_555
C1 C2 1_555 1_555
C2 Li1 1_555 1_555
B1 Li1 1_555 1_555
B2 Li1 1_555 1_555
B3 Li1 1_555 1_555
B4 C1 1_555 1_555
C3 C4 1_555 1_555
C4 Li2 1_555 1_555
B5 Li2 1_555 1_555
B6 Li2 1_555 1_555
B7 Li2 1_555 1_555
B8 C3 1_555 1_555
C5 Si1 1_555 1_555
C6 Si1 1_555 1_555
C7 Si1 1_555 1_555
C8 Si2 1_555 1_555
C9 Si2 1_555 1_555
C10 Si2 1_555 1_555
C11 Si3 1_555 1_555
C12 Si3 1_555 1_555
C13 Si3 1_555 1_555
C15 Si5 1_555 1_555
C16 Si5 1_555 1_555
C17 Si5 1_555 1_555
N1 C19 1_555 1_555
N2 Li3 1_555 1_555
C19 C20 1_555 1_555
C20 N2 1_555 1_555
C21 N1 1_555 1_555
C22 N1 1_555 1_555
C23 N2 1_555 1_555
C24 N2 1_555 1_555
N3 C25 1_555 1_555
N4 Li4 1_555 1_555
C25 C26 1_555 1_555
C26 N4 1_555 1_555
C27 N3 1_555 1_555
C28 N3 1_555 1_555
C29 N4 1_555 1_555
C30 N4 1_555 1_555
H1 B1 1_555 1_555
H2 B2 1_555 1_555
H3 B3 1_555 1_555
H4 B4 1_555 1_555
H5 B1 1_555 1_555
H6 B5 1_555 1_555
H7 B6 1_555 1_555
H8 B7 1_555 1_555
H9 B8 1_555 1_555
H10 B5 1_555 1_555
H11 C5 1_555 1_555
H12 C5 1_555 1_555
H13 C5 1_555 1_555
H14 C6 1_555 1_555
H15 C6 1_555 1_555
H16 C6 1_555 1_555
H17 C7 1_555 1_555
H18 C7 1_555 1_555
H19 C7 1_555 1_555
H20 C8 1_555 1_555
H21 C8 1_555 1_555
H22 C8 1_555 1_555
H23 C9 1_555 1_555
H24 C9 1_555 1_555
H25 C9 1_555 1_555
H26 C10 1_555 1_555
H27 C10 1_555 1_555
H28 C10 1_555 1_555
H29 C11 1_555 1_555
H30 C11 1_555 1_555
H31 C11 1_555 1_555
H35 C12 1_555 1_555
H36 C12 1_555 1_555
H37 C12 1_555 1_555
H41 C13 1_555 1_555
H42 C13 1_555 1_555
H43 C13 1_555 1_555
H47 C15 1_555 1_555
H48 C15 1_555 1_555
H49 C15 1_555 1_555
H53 C16 1_555 1_555
H54 C16 1_555 1_555
H55 C16 1_555 1_555
H59 C17 1_555 1_555
H60 C17 1_555 1_555
H61 C17 1_555 1_555
H65 C19 1_555 1_555
H66 C19 1_555 1_555
H67 C20 1_555 1_555
H68 C20 1_555 1_555
H69 C21 1_555 1_555
H70 C21 1_555 1_555
H71 C21 1_555 1_555
H72 C22 1_555 1_555
H73 C22 1_555 1_555
H74 C22 1_555 1_555
H75 C23 1_555 1_555
H76 C23 1_555 1_555
H77 C23 1_555 1_555
H78 C24 1_555 1_555
H79 C24 1_555 1_555
H80 C24 1_555 1_555
H81 C25 1_555 1_555
H82 C25 1_555 1_555
H83 C26 1_555 1_555
H84 C26 1_555 1_555
H85 C27 1_555 1_555
H86 C27 1_555 1_555
H87 C27 1_555 1_555
H88 C28 1_555 1_555
H89 C28 1_555 1_555
H90 C28 1_555 1_555
H91 C29 1_555 1_555
H92 C29 1_555 1_555
H93 C29 1_555 1_555
H94 C30 1_555 1_555
H95 C30 1_555 1_555
H96 C30 1_555 1_555
C1D Li1 1_555 1_555
Si1D C1D 1_555 1_555
C5D Si1D 1_555 1_555
H11D C5D 1_555 1_555
H12D C5D 1_555 1_555
H13D C5D 1_555 1_555
C6D Si1D 1_555 1_555
H14D C6D 1_555 1_555
H15D C6D 1_555 1_555
H16D C6D 1_555 1_555
C7D Si1D 1_555 1_555
H17D C7D 1_555 1_555
H18D C7D 1_555 1_555
H19D C7D 1_555 1_555
C2D Li1 1_555 1_555
B1D Li1 1_555 1_555
Si2D C2D 1_555 1_555
C8D Si2D 1_555 1_555
H20D C8D 1_555 1_555
H21D C8D 1_555 1_555
H22D C8D 1_555 1_555
C9D Si2D 1_555 1_555
H23D C9D 1_555 1_555
H24D C9D 1_555 1_555
H25D C9D 1_555 1_555
C10D Si2D 1_555 1_555
H26D C10D 1_555 1_555
H27D C10D 1_555 1_555
H28D C10D 1_555 1_555
B4D C1D 1_555 1_555
B3D Li1 1_555 1_555
B2D Li1 1_555 1_555
H4D B4D 1_555 1_555
H3D B3D 1_555 1_555
H2D B2D 1_555 1_555
H5D B1D 1_555 1_555
H1D B1D 1_555 1_555
C3A Li2 1_555 1_555
Si3A C3A 1_555 1_555
C11A Si3A 1_555 1_555
H29A C11A 1_555 1_555
H30A C11A 1_555 1_555
H31A C11A 1_555 1_555
C12A Si3A 1_555 1_555
H35A C12A 1_555 1_555
H36A C12A 1_555 1_555
H37A C12A 1_555 1_555
C13A Si3A 1_555 1_555
H41A C13A 1_555 1_555
H42A C13A 1_555 1_555
H43A C13A 1_555 1_555
C4A Li2 1_555 1_555
B5A Li2 1_555 1_555
Si5A C4A 1_555 1_555
C15A Si5A 1_555 1_555
H47A C15A 1_555 1_555
H48A C15A 1_555 1_555
H49A C15A 1_555 1_555
C16A Si5A 1_555 1_555
H53A C16A 1_555 1_555
H54A C16A 1_555 1_555
H55A C16A 1_555 1_555
C17A Si5A 1_555 1_555
H59A C17A 1_555 1_555
H60A C17A 1_555 1_555
H61A C17A 1_555 1_555
B8A C3A 1_555 1_555
B7A Li2 1_555 1_555
B6A Li2 1_555 1_555
H9A B8A 1_555 1_555
H8A B7A 1_555 1_555
H7A B6A 1_555 1_555
H10A B5A 1_555 1_555
H6A B5A 1_555 1_555
N1A Li3 1_555 1_555
C19A N1A 1_555 1_555
C20A C19A 1_555 1_555
N2A Li3 1_555 1_555
C23A N2A 1_555 1_555
H75A C23A 1_555 1_555
H76A C23A 1_555 1_555
H77A C23A 1_555 1_555
C24A N2A 1_555 1_555
H78A C24A 1_555 1_555
H79A C24A 1_555 1_555
H80A C24A 1_555 1_555
H67A C20A 1_555 1_555
H68A C20A 1_555 1_555
H65A C19A 1_555 1_555
H66A C19A 1_555 1_555
C21A N1A 1_555 1_555
H69A C21A 1_555 1_555
H70A C21A 1_555 1_555
H71A C21A 1_555 1_555
C22A N1A 1_555 1_555
H72A C22A 1_555 1_555
H73A C22A 1_555 1_555
H74A C22A 1_555 1_555
N3A Li4 1_555 1_555
C25A N3A 1_555 1_555
C26A C25A 1_555 1_555
N4A Li4 1_555 1_555
C29A N4A 1_555 1_555
H91A C29A 1_555 1_555
H92A C29A 1_555 1_555
H93A C29A 1_555 1_555
C30A N4A 1_555 1_555
H94A C30A 1_555 1_555
H95A C30A 1_555 1_555
H96A C30A 1_555 1_555
H83A C26A 1_555 1_555
H84A C26A 1_555 1_555
H81A C25A 1_555 1_555
H82A C25A 1_555 1_555
C27A N3A 1_555 1_555
H85A C27A 1_555 1_555
H86A C27A 1_555 1_555
H87A C27A 1_555 1_555
C28A N3A 1_555 1_555
H88A C28A 1_555 1_555
H89A C28A 1_555 1_555
H90A C28A 1_555 1_555
C1 B3 1_555 1_555
C2 B4 1_555 1_555
C2 B1 1_555 1_555
B1 B2 1_555 1_555
B1 B4 1_555 1_555
B2 H5 1_555 1_555
B2 B4 1_555 1_555
B2 B3 1_555 1_555
B3 B4 1_555 1_555
C3 B7 1_555 1_555
C4 B8 1_555 1_555
C4 B5 1_555 1_555
B5 B6 1_555 1_555
B5 B8 1_555 1_555
B6 H10 1_555 1_555
B6 B8 1_555 1_555
B6 B7 1_555 1_555
B7 B8 1_555 1_555
C1D C2D 1_555 1_555
C1D B3D 1_555 1_555
C2D B4D 1_555 1_555
C2D B1D 1_555 1_555
B1D B2D 1_555 1_555
B1D B4D 1_555 1_555
B4D B2D 1_555 1_555
B4D B3D 1_555 1_555
B3D B2D 1_555 1_555
B2D H5D 1_555 1_555
C3A C4A 1_555 1_555
C3A B7A 1_555 1_555
C4A B8A 1_555 1_555
C4A B5A 1_555 1_555
B5A B6A 1_555 1_555
B5A B8A 1_555 1_555
B8A B6A 1_555 1_555
B8A B7A 1_555 1_555
B7A B6A 1_555 1_555
B6A H10A 1_555 1_555
C20A N2A 1_555 1_555
C26A N4A 1_555 1_555

#END
