
#######################################################################
#
#                 Cambridge Crystallographic Data Centre
#                                CCDC 
#
#######################################################################
#
# If this CIF has been generated from an entry in the Cambridge 
# Structural Database, then it will include bibliographic, chemical, 
# crystal, experimental, refinement or atomic coordinate data resulting 
# from the CCDC's data processing and validation procedures.
#
#######################################################################

data_TEQNOU
_chemical_formula_moiety         'C19 H19 Cl1 F3 N2 O5 P1'
_chemical_name_systematic        
'Dimethyl (6-chloro-1-(4-methoxybenzyl)-2-oxo-4-(trifluoromethyl)-1,2,3,4-tetrahydroquinazolin-4-yl)phosphonate'
_symmetry_cell_setting           orthorhombic
_symmetry_space_group_name_H-M   'P 21 21 21'
_symmetry_Int_Tables_number      19
_space_group_name_Hall           'P 2ac 2ab'
loop_
_symmetry_equiv_pos_site_id
_symmetry_equiv_pos_as_xyz
1 x,y,z
2 1/2-x,-y,1/2+z
3 -x,1/2+y,1/2-z
4 1/2+x,1/2-y,-z
_cell_length_a                   9.6899(10)
_cell_length_b                   10.8171(12)
_cell_length_c                   19.580(2)
_cell_angle_alpha                90
_cell_angle_beta                 90
_cell_angle_gamma                90
_cell_volume                     2052.31
_exptl_crystal_colour            colorless
_exptl_crystal_description       prism
_cell_formula_units_Z            4
loop_
_atom_site_label
_atom_site_type_symbol
_atom_site_fract_x
_atom_site_fract_y
_atom_site_fract_z
Cl1 Cl 0.82451(4) 0.02656(4) 0.221020(19)
P1 P 0.49677(2) -0.27074(2) 0.067800(14)
O1 O 0.18010(9) 0.02979(9) -0.02949(5)
O2 O 0.62016(8) -0.22993(8) 0.03057(5)
O3 O 0.39592(8) -0.35567(7) 0.02706(4)
O4 O 0.52282(11) -0.33589(8) 0.13728(5)
O5 O -0.10045(12) 0.47221(11) 0.18492(6)
F1 F 0.20106(8) -0.06465(8) 0.15827(4)
F2 F 0.21340(8) -0.25986(8) 0.13876(4)
F3 F 0.35220(9) -0.17444(8) 0.21062(4)
N1 N 0.31183(9) -0.10246(8) 0.03115(5)
H1 H 0.264(2) -0.1627(17) 0.0137(9)
N2 N 0.34147(10) 0.11178(8) 0.04221(5)
C1 C 0.68001(11) 0.05506(11) 0.17118(5)
C2 C 0.59724(10) -0.04354(10) 0.15303(5)
H2 H 0.6181 -0.1233 0.1690
C3 C 0.48290(9) -0.02515(9) 0.11105(5)
C4 C 0.39101(9) -0.13296(9) 0.09160(5)
C5 C 0.27204(10) 0.01421(10) 0.01284(5)
C6 C 0.45187(10) 0.09385(9) 0.08727(5)
C7 C 0.53487(13) 0.19261(10) 0.10850(6)
H3 H 0.5129 0.2733 0.0944
C8 C 0.64886(12) 0.17337(11) 0.14991(6)
H4 H 0.7044 0.2403 0.1634
C9 C 0.28960(11) -0.15921(10) 0.15078(6)
C10 C 0.41794(13) -0.38758(13) -0.04405(6)
H5 H 0.4778 -0.3266 -0.0651
H6 H 0.3300 -0.3890 -0.0677
H7 H 0.4608 -0.4685 -0.0469
C11 C 0.49194(18) -0.46163(12) 0.15586(7)
H8 H 0.3964 -0.4797 0.1450
H9 H 0.5069 -0.4727 0.2045
H10 H 0.5517 -0.5172 0.1306
C12 C 0.30195(12) 0.23567(11) 0.01877(6)
H11 H 0.2634 0.2292 -0.0274
H12 H 0.3849 0.2873 0.0161
C13 C 0.19735(11) 0.29896(9) 0.06459(6)
C14 C 0.13143(15) 0.23960(12) 0.11845(7)
H13 H 0.1546 0.1573 0.1288
C15 C 0.03219(16) 0.29949(13) 0.15708(7)
H14 H -0.0116 0.2576 0.1931
C16 C -0.00294(13) 0.42112(11) 0.14282(6)
C17 C 0.06055(12) 0.48210(11) 0.08916(6)
H15 H 0.0368 0.5642 0.0788
C18 C 0.15978(12) 0.42053(10) 0.05084(6)
H16 H 0.2028 0.4623 0.0145
C19 C -0.13422(17) 0.59856(16) 0.17470(9)
H17 H -0.0523 0.6489 0.1811
H18 H -0.2043 0.6232 0.2074
H19 H -0.1691 0.6099 0.1287
loop_
_geom_bond_atom_site_label_1
_geom_bond_atom_site_label_2
_geom_bond_site_symmetry_1
_geom_bond_site_symmetry_2
Cl1 C1 1_555 1_555
P1 O2 1_555 1_555
O1 C5 1_555 1_555
O3 P1 1_555 1_555
O4 P1 1_555 1_555
O5 C16 1_555 1_555
F1 C9 1_555 1_555
F2 C9 1_555 1_555
F3 C9 1_555 1_555
N1 H1 1_555 1_555
N2 C5 1_555 1_555
C1 C2 1_555 1_555
C2 H2 1_555 1_555
C3 C2 1_555 1_555
C4 P1 1_555 1_555
C5 N1 1_555 1_555
C6 N2 1_555 1_555
C7 C6 1_555 1_555
H3 C7 1_555 1_555
C8 C1 1_555 1_555
H4 C8 1_555 1_555
C9 C4 1_555 1_555
C10 O3 1_555 1_555
H5 C10 1_555 1_555
H6 C10 1_555 1_555
H7 C10 1_555 1_555
C11 O4 1_555 1_555
H8 C11 1_555 1_555
H9 C11 1_555 1_555
H10 C11 1_555 1_555
C12 N2 1_555 1_555
H11 C12 1_555 1_555
H12 C12 1_555 1_555
C13 C12 1_555 1_555
C14 C13 1_555 1_555
H13 C14 1_555 1_555
C15 C14 1_555 1_555
H14 C15 1_555 1_555
C16 C15 1_555 1_555
C17 C16 1_555 1_555
H15 C17 1_555 1_555
C18 C13 1_555 1_555
H16 C18 1_555 1_555
C19 O5 1_555 1_555
H17 C19 1_555 1_555
H18 C19 1_555 1_555
H19 C19 1_555 1_555
N1 C4 1_555 1_555
C3 C4 1_555 1_555
C3 C6 1_555 1_555
C7 C8 1_555 1_555
C17 C18 1_555 1_555

#END
