
#######################################################################
#
#                 Cambridge Crystallographic Data Centre
#                                CCDC 
#
#######################################################################
#
# If this CIF has been generated from an entry in the Cambridge 
# Structural Database, then it will include bibliographic, chemical, 
# crystal, experimental, refinement or atomic coordinate data resulting 
# from the CCDC's data processing and validation procedures.
#
#######################################################################

data_TERFII
_chemical_formula_moiety         'C23 H20 O3'
_chemical_name_systematic        
'methyl 5-benzylidene-4-oxo-1-phenyl-1,3a,4,5,6,6a-hexahydropentalene-2-carboxylate'
_symmetry_cell_setting           monoclinic
_symmetry_space_group_name_H-M   'P 21'
_symmetry_Int_Tables_number      4
_space_group_name_Hall           'P 2yb'
loop_
_symmetry_equiv_pos_site_id
_symmetry_equiv_pos_as_xyz
1 x,y,z
2 -x,1/2+y,-z
_cell_length_a                   9.2479(5)
_cell_length_b                   10.4410(5)
_cell_length_c                   9.4838(5)
_cell_angle_alpha                90
_cell_angle_beta                 99.490(5)
_cell_angle_gamma                90
_cell_volume                     903.198
_exptl_crystal_colour            colorless
_exptl_crystal_description       block
_cell_formula_units_Z            2
loop_
_atom_site_label
_atom_site_type_symbol
_atom_site_fract_x
_atom_site_fract_y
_atom_site_fract_z
O1 O -0.26872(16) -0.30169(13) -0.52026(15)
O2 O -0.28367(15) -0.44022(15) -1.09324(15)
O3 O -0.10577(16) -0.32921(17) -1.17425(15)
C1 C -0.16284(19) -0.36716(19) -1.0772(2)
C2 C -0.10903(19) -0.33798(18) -0.9250(2)
C3 C -0.1942(2) 0.3156(2) -0.6552(2)
H1 H -0.1351 0.3649 -0.7043
C4 C -0.3884(2) 0.3005(2) -0.5174(2)
H2 H -0.4615 0.3392 -0.4758
C5 C -0.1628(2) -0.11394(18) -0.61233(19)
C6 C -0.0863(2) -0.32787(18) -0.67469(19)
H3 H -0.0346 -0.3980 -0.6190
C7 C 0.4171(2) -0.4883(2) -0.9202(3)
H4 H 0.5002 -0.5358 -0.9289
C8 C -0.3018(2) 0.37397(19) -0.5910(2)
H5 H -0.3154 0.4621 -0.5978
C9 C -0.3671(2) 0.1691(2) -0.5050(2)
H6 H -0.4248 0.1207 -0.4535
C10 C -0.1716(2) -0.37403(17) -0.81463(19)
H7 H -0.2575 -0.4218 -0.8229
C11 C 0.2785(2) -0.2928(2) -0.9580(2)
H8 H 0.2703 -0.2091 -0.9917
C12 C -0.1839(2) -0.25338(19) -0.58928(19)
C13 C -0.1744(2) 0.18368(19) -0.6461(2)
H9 H -0.1039 0.1451 -0.6916
C14 C -0.2452(2) -0.03051(18) -0.5543(2)
H10 H -0.3036 -0.0669 -0.4940
C15 C 0.0326(2) -0.26501(19) -0.8803(2)
H11 H 0.0320 -0.1868 -0.9376
C16 C 0.0212(2) -0.22955(17) -0.72295(19)
H12 H 0.1174 -0.2340 -0.6618
C17 C 0.1819(2) -0.4709(2) -0.8447(2)
H13 H 0.1079 -0.5079 -0.8028
C18 C 0.3070(2) -0.5411(2) -0.8565(3)
H14 H 0.3168 -0.6243 -0.8212
C19 C -0.0513(2) -0.09620(19) -0.7104(2)
H15 H 0.0218 -0.0337 -0.6709
H16 H -0.0987 -0.0667 -0.8036
C20 C -0.3468(2) -0.4713(3) -1.2388(2)
H17 H -0.4420 -0.5086 -1.2406
H18 H -0.2846 -0.5313 -1.2769
H19 H -0.3558 -0.3948 -1.2957
C21 C 0.1666(2) -0.34534(19) -0.8953(2)
C22 C -0.2593(2) 0.10853(19) -0.5695(2)
C23 C 0.4024(3) -0.3641(3) -0.9710(3)
H20 H 0.4761 -0.3279 -1.0141
loop_
_geom_bond_atom_site_label_1
_geom_bond_atom_site_label_2
_geom_bond_site_symmetry_1
_geom_bond_site_symmetry_2
O1 C12 1_555 1_555
O2 C1 1_555 1_555
O3 C1 1_555 1_555
C1 C2 1_555 1_555
C2 C10 1_555 1_555
C3 H1 1_555 1_555
C4 H2 1_555 1_555
C5 C12 1_555 1_555
C6 H3 1_555 1_555
C7 H4 1_555 1_555
C8 C3 1_555 1_555
H5 C8 1_555 1_555
C9 C4 1_555 1_555
H6 C9 1_555 1_555
C10 C6 1_555 1_555
H7 C10 1_555 1_555
C11 H8 1_555 1_555
C12 C6 1_555 1_555
C13 C3 1_555 1_555
H9 C13 1_555 1_555
C14 C5 1_555 1_555
H10 C14 1_555 1_555
C15 C2 1_555 1_555
H11 C15 1_555 1_555
C16 C6 1_555 1_555
H12 C16 1_555 1_555
C17 H13 1_555 1_555
C18 C7 1_555 1_555
H14 C18 1_555 1_555
C19 C5 1_555 1_555
H15 C19 1_555 1_555
H16 C19 1_555 1_555
C20 O2 1_555 1_555
H17 C20 1_555 1_555
H18 C20 1_555 1_555
H19 C20 1_555 1_555
C21 C11 1_555 1_555
C22 C9 1_555 1_555
C23 C7 1_555 1_555
H20 C23 1_555 1_555
C4 C8 1_555 1_555
C11 C23 1_555 1_555
C13 C22 1_555 1_555
C14 C22 1_555 1_555
C15 C16 1_555 1_555
C15 C21 1_555 1_555
C16 C19 1_555 1_555
C17 C18 1_555 1_555
C17 C21 1_555 1_555

#END
