
#######################################################################
#
#                 Cambridge Crystallographic Data Centre
#                                CCDC 
#
#######################################################################
#
# If this CIF has been generated from an entry in the Cambridge 
# Structural Database, then it will include bibliographic, chemical, 
# crystal, experimental, refinement or atomic coordinate data resulting 
# from the CCDC's data processing and validation procedures.
#
#######################################################################

data_TERRUE
_chemical_formula_moiety         'C17 H18 N4 2+,2(Cl1 1-),2(H2 O1)'
_chemical_name_systematic        
"2,2'-(Propane-1,3-diyl)bis(benzimidazolium) dichloride dihydrate"
_symmetry_cell_setting           monoclinic
_symmetry_space_group_name_H-M   'P 21/c'
_symmetry_Int_Tables_number      14
_space_group_name_Hall           '-P 2ybc'
loop_
_symmetry_equiv_pos_site_id
_symmetry_equiv_pos_as_xyz
1 x,y,z
2 -x,1/2+y,1/2-z
3 -x,-y,-z
4 x,1/2-y,1/2+z
_cell_length_a                   9.6420(8)
_cell_length_b                   13.6336(11)
_cell_length_c                   16.9921(10)
_cell_angle_alpha                90
_cell_angle_beta                 123.729(3)
_cell_angle_gamma                90
_cell_volume                     1857.71
_exptl_crystal_colour            red
_exptl_crystal_description       block
_cell_formula_units_Z            4
loop_
_atom_site_label
_atom_site_type_symbol
_atom_site_fract_x
_atom_site_fract_y
_atom_site_fract_z
C1 C 0.3115(3) -0.60351(15) -0.59230(15)
C2 C 0.3496(3) -0.59444(17) -0.65953(17)
H1 H 0.4585 -0.5999 -0.6436
C3 C 0.2184(3) -0.57692(18) -0.75093(17)
H2 H 0.2392 -0.5695 -0.7979
C4 C 0.0548(3) -0.57004(17) -0.77509(16)
H3 H -0.0305 -0.5591 -0.8380
C5 C 0.0158(3) -0.57894(16) -0.70902(16)
H4 H -0.0934 -0.5742 -0.7254
C6 C 0.1483(3) -0.59545(15) -0.61663(15)
C7 C 0.3119(3) -0.62306(16) -0.46199(15)
C8 C 0.3793(3) -0.63760(19) -0.36060(15)
H5 H 0.4534 -0.5833 -0.3255
H6 H 0.4461 -0.6969 -0.3397
C9 C 0.2522(3) -0.64556(18) -0.33426(15)
H7 H 0.1799 -0.5886 -0.3571
H8 H 0.1839 -0.7036 -0.3630
C10 C 0.3460(3) -0.65189(18) -0.22719(15)
H9 H 0.4129 -0.7112 -0.2065
H10 H 0.4220 -0.5966 -0.2000
C11 C 0.2407(3) -0.65251(15) -0.18869(15)
C12 C 0.0270(3) -0.66788(15) -0.17368(14)
C13 C -0.1257(3) -0.68406(18) -0.18668(17)
H11 H -0.2182 -0.7041 -0.2447
C14 C -0.1338(3) -0.6690(2) -0.10952(19)
H12 H -0.2348 -0.6787 -0.1155
C15 C 0.0052(3) -0.6397(2) -0.02228(18)
H13 H -0.0058 -0.6301 0.0282
C16 C 0.1581(3) -0.62442(19) -0.00874(16)
H14 H 0.2508 -0.6050 0.0495
C17 C 0.1664(3) -0.63956(16) -0.08673(15)
N1 N 0.0796(2) -0.67465(14) -0.23475(12)
H15 H 0.013(3) -0.6856(18) -0.2937(8)
N2 N 0.2961(2) -0.63128(14) -0.09921(12)
H16 H 0.3961(16) -0.6132(17) -0.0573(14)
N3 N 0.4088(2) -0.62121(15) -0.49579(13)
H17 H 0.5140(14) -0.6337(19) -0.4667(17)
N4 N 0.1556(2) -0.60810(13) -0.53303(13)
H18 H 0.068(2) -0.6020(17) -0.5317(18)
Cl1 Cl 0.76241(7) -0.69346(5) -0.43757(4)
Cl2 Cl -0.43239(8) -0.61008(5) -0.77954(4)
O1 O -0.1503(2) -0.58483(14) -0.56536(12)
H19 H -0.171(4) -0.6160(19) -0.5316(19)
H20 H -0.227(3) -0.595(2) -0.6207(10)
O2 O -0.3857(2) -0.59773(15) -0.94919(14)
H21 H -0.336(4) -0.6481(16) -0.944(3)
H22 H -0.397(5) -0.595(2) -0.9051(18)
loop_
_geom_bond_atom_site_label_1
_geom_bond_atom_site_label_2
_geom_bond_site_symmetry_1
_geom_bond_site_symmetry_2
C1 C2 1_555 1_555
C2 H1 1_555 1_555
C3 C2 1_555 1_555
H2 C3 1_555 1_555
C4 C3 1_555 1_555
H3 C4 1_555 1_555
C5 C4 1_555 1_555
H4 C5 1_555 1_555
C6 C1 1_555 1_555
C7 C8 1_555 1_555
C8 H5 1_555 1_555
H6 C8 1_555 1_555
C9 C8 1_555 1_555
H7 C9 1_555 1_555
H8 C9 1_555 1_555
C10 C9 1_555 1_555
H9 C10 1_555 1_555
H10 C10 1_555 1_555
C11 C10 1_555 1_555
C12 C13 1_555 1_555
C13 H11 1_555 1_555
C14 C13 1_555 1_555
H12 C14 1_555 1_555
C15 C14 1_555 1_555
H13 C15 1_555 1_555
C16 C15 1_555 1_555
H14 C16 1_555 1_555
C17 C12 1_555 1_555
N1 C11 1_555 1_555
H15 N1 1_555 1_555
N2 C11 1_555 1_555
H16 N2 1_555 1_555
N3 C1 1_555 1_555
H17 N3 1_555 1_555
N4 C6 1_555 1_555
H18 N4 1_555 1_555
O1 H19 1_555 1_555
H20 O1 1_555 1_555
O2 H21 1_555 1_555
H22 O2 1_555 1_555
C5 C6 1_555 1_555
C7 N3 1_555 1_555
C7 N4 1_555 1_555
C12 N1 1_555 1_555
C16 C17 1_555 1_555
C17 N2 1_555 1_555

#END
