
#######################################################################
#
#                 Cambridge Crystallographic Data Centre
#                                CCDC 
#
#######################################################################
#
# If this CIF has been generated from an entry in the Cambridge 
# Structural Database, then it will include bibliographic, chemical, 
# crystal, experimental, refinement or atomic coordinate data resulting 
# from the CCDC's data processing and validation procedures.
#
#######################################################################

data_TESDOL
_chemical_formula_moiety         'C1 H4 N5 1+,N1 O3 1-'
_chemical_name_systematic        '5-Aminotetrazolium nitrate'
_symmetry_cell_setting           monoclinic
_symmetry_space_group_name_H-M   'P 21/c'
_symmetry_Int_Tables_number      14
_space_group_name_Hall           '-P 2ybc'
loop_
_symmetry_equiv_pos_site_id
_symmetry_equiv_pos_as_xyz
1 x,y,z
2 -x,1/2+y,1/2-z
3 -x,-y,-z
4 x,1/2-y,1/2+z
_cell_length_a                   10.606(2)
_cell_length_b                   3.5065(4)
_cell_length_c                   14.641(2)
_cell_angle_alpha                90
_cell_angle_beta                 90.63(1)
_cell_angle_gamma                90
_cell_volume                     544.465
_exptl_crystal_colour            colorless
_cell_formula_units_Z            4
loop_
_atom_site_label
_atom_site_type_symbol
_atom_site_fract_x
_atom_site_fract_y
_atom_site_fract_z
O1 O 0.38248(14) 0.6983(5) 0.19852(8)
O2 O 0.22762(11) 0.4276(5) 0.12618(8)
O3 O 0.38190(14) 0.6702(5) 0.05105(9)
N6 N 0.33278(14) 0.6018(6) 0.12528(10)
N1 N 0.15630(15) 0.2178(5) 0.44685(10)
N2 N 0.03352(16) 0.2464(6) 0.41835(10)
N3 N 0.03252(15) 0.3246(6) 0.33418(10)
N4 N 0.15478(15) 0.3510(5) 0.30592(10)
N5 N 0.35583(16) 0.2809(6) 0.37628(12)
C1 C 0.23260(18) 0.2832(6) 0.37640(11)
H1 H 0.180(2) 0.158(7) 0.5128(14)
H2 H 0.176(2) 0.362(8) 0.2376(16)
H3 H 0.392(2) 0.328(6) 0.3270(14)
H4 H 0.393(2) 0.234(8) 0.4282(15)
loop_
_geom_bond_atom_site_label_1
_geom_bond_atom_site_label_2
_geom_bond_site_symmetry_1
_geom_bond_site_symmetry_2
O1 N6 1_555 1_555
O2 N6 1_555 1_555
O3 N6 1_555 1_555
N1 N2 1_555 1_555
N2 N3 1_555 1_555
N3 N4 1_555 1_555
N4 C1 1_555 1_555
N5 C1 1_555 1_555
C1 N1 1_555 1_555
H1 N1 1_555 1_555
H2 N4 1_555 1_555
H3 N5 1_555 1_555
H4 N5 1_555 1_555

#END
