
#######################################################################
#
#                 Cambridge Crystallographic Data Centre
#                                CCDC 
#
#######################################################################
#
# If this CIF has been generated from an entry in the Cambridge 
# Structural Database, then it will include bibliographic, chemical, 
# crystal, experimental, refinement or atomic coordinate data resulting 
# from the CCDC's data processing and validation procedures.
#
#######################################################################

data_TESGAC
_chemical_formula_moiety         'C32 H39 N1 O5'
_chemical_name_systematic        
't-butyl 9-hydroxy-3-methoxy-8,8-dimethyl-11-(2-methylpropanoyl)-7-phenyl-7,8,9,10-tetrahydro-6,9-methanocyclohepta[b]indole-5(6H)-carboxylate'
_symmetry_cell_setting           monoclinic
_symmetry_space_group_name_H-M   'P 21/n'
_symmetry_Int_Tables_number      14
_space_group_name_Hall           '-P 2yn'
loop_
_symmetry_equiv_pos_site_id
_symmetry_equiv_pos_as_xyz
1 x,y,z
2 1/2-x,1/2+y,1/2-z
3 -x,-y,-z
4 1/2+x,1/2-y,1/2+z
_cell_length_a                   14.0614(4)
_cell_length_b                   14.9794(4)
_cell_length_c                   14.2645(4)
_cell_angle_alpha                90
_cell_angle_beta                 107.6550(10)
_cell_angle_gamma                90
_cell_volume                     2863.04
_exptl_crystal_colour            colorless
_exptl_crystal_description       block
_cell_formula_units_Z            4
loop_
_atom_site_label
_atom_site_type_symbol
_atom_site_fract_x
_atom_site_fract_y
_atom_site_fract_z
O1 O 0.58993(9) 0.13770(8) 0.56449(9)
O2 O 0.53158(8) 0.08348(8) 0.68371(8)
O3 O 0.90691(12) 0.11045(10) 0.48057(11)
O4 O 0.72563(9) -0.25891(8) 0.78188(9)
O5 O 0.80903(9) -0.19832(7) 0.99251(8)
H1 H 0.8334 -0.2348 0.9635
N1 N 0.68339(9) 0.04238(8) 0.68106(9)
C1 C 0.76983(12) 0.04470(10) 0.65023(12)
C2 C 0.78658(13) 0.08527(11) 0.56875(13)
H2 H 0.7369 0.1178 0.5238
C3 C 0.87991(15) 0.07507(12) 0.55781(14)
C4 C 0.95523(14) 0.02679(13) 0.62498(15)
H3 H 1.0178 0.0220 0.6159
C5 C 0.93752(13) -0.01369(12) 0.70428(14)
H4 H 0.9875 -0.0463 0.7488
C6 C 0.84350(12) -0.00544(10) 0.71740(12)
C7 C 0.80073(12) -0.04034(10) 0.78935(11)
C8 C 0.84676(12) -0.10241(11) 0.87265(12)
H5 H 0.9066 -0.0755 0.9162
H6 H 0.8657 -0.1575 0.8472
C9 C 0.77367(12) -0.12316(10) 0.93040(11)
C10 C 0.66833(12) -0.13820(10) 0.85799(11)
H7 H 0.6257 -0.1581 0.8970
C11 C 0.63726(12) -0.04152(10) 0.82515(11)
H8 H 0.5668 -0.0377 0.7861
C12 C 0.70534(12) -0.01151(10) 0.76737(11)
C13 C 0.65653(12) 0.00117(10) 0.92838(12)
H9 H 0.6048 -0.0247 0.9532
C14 C 0.75672(13) -0.04242(11) 0.99467(12)
C15 C 0.64392(13) 0.10086(11) 0.93668(12)
C16 C 0.68196(13) 0.16420(11) 0.88717(12)
H10 H 0.7189 0.1459 0.8464
C17 C 0.66591(14) 0.25422(12) 0.89743(14)
H11 H 0.6919 0.2957 0.8632
C18 C 0.61232(17) 0.28317(14) 0.95722(16)
H12 H 0.6017 0.3438 0.9637
C19 C 0.57463(19) 0.22173(14) 1.00722(18)
H13 H 0.5384 0.2408 1.0482
C20 C 0.58997(16) 0.13150(13) 0.99735(15)
H14 H 0.5637 0.0906 1.0319
C21 C 0.84423(14) 0.02317(13) 1.02382(14)
H15 H 0.9029 -0.0071 1.0633
H16 H 0.8286 0.0715 1.0609
H17 H 0.8561 0.0463 0.9656
C22 C 0.73964(17) -0.07594(14) 1.08982(13)
H18 H 0.7997 -0.1031 1.1309
H19 H 0.6867 -0.1191 1.0742
H20 H 0.7218 -0.0266 1.1240
C23 C 0.65848(12) -0.20679(11) 0.77777(11)
C24 C 0.56053(13) -0.21212(12) 0.69522(12)
H21 H 0.5521 -0.1558 0.6586
C25 C 0.47229(15) -0.22222(17) 0.73476(17)
H22 H 0.4724 -0.1741 0.7792
H23 H 0.4773 -0.2781 0.7689
H24 H 0.4114 -0.2209 0.6811
C26 C 0.56276(15) -0.28690(14) 0.62410(14)
H25 H 0.6188 -0.2788 0.5998
H26 H 0.5022 -0.2860 0.5701
H27 H 0.5687 -0.3432 0.6575
C27 C 0.59835(12) 0.09270(11) 0.63640(12)
C28 C 0.38267(18) 0.0926(2) 0.7215(2)
H28 H 0.3775 0.0287 0.7185
H29 H 0.3172 0.1182 0.7073
H30 H 0.4224 0.1104 0.7862
C29 C 0.44042(17) 0.22534(14) 0.64957(18)
H31 H 0.4705 0.2445 0.6009
H32 H 0.4813 0.2438 0.7135
H33 H 0.3754 0.2516 0.6359
C30 C 0.37879(16) 0.08976(15) 0.54534(16)
H34 H 0.4113 0.1122 0.4999
H35 H 0.3105 0.1090 0.5254
H36 H 0.3813 0.0257 0.5460
C31 C 0.43114(13) 0.12488(13) 0.64698(14)
C32 C 0.8325(2) 0.15224(18) 0.40352(18)
H37 H 0.8614 0.1734 0.3548
H38 H 0.8048 0.2016 0.4294
H39 H 0.7807 0.1100 0.3741
loop_
_geom_bond_atom_site_label_1
_geom_bond_atom_site_label_2
_geom_bond_site_symmetry_1
_geom_bond_site_symmetry_2
O1 C27 1_555 1_555
O2 C27 1_555 1_555
O3 C3 1_555 1_555
O4 C23 1_555 1_555
O5 H1 1_555 1_555
N1 C1 1_555 1_555
C1 C2 1_555 1_555
C2 H2 1_555 1_555
C3 C2 1_555 1_555
C4 C3 1_555 1_555
H3 C4 1_555 1_555
C5 C4 1_555 1_555
H4 C5 1_555 1_555
C6 C1 1_555 1_555
C7 C6 1_555 1_555
C8 C7 1_555 1_555
H5 C8 1_555 1_555
H6 C8 1_555 1_555
C9 O5 1_555 1_555
C10 C9 1_555 1_555
H7 C10 1_555 1_555
C11 C10 1_555 1_555
H8 C11 1_555 1_555
C12 N1 1_555 1_555
C13 C11 1_555 1_555
H9 C13 1_555 1_555
C14 C9 1_555 1_555
C15 C13 1_555 1_555
C16 C15 1_555 1_555
H10 C16 1_555 1_555
C17 C16 1_555 1_555
H11 C17 1_555 1_555
C18 C17 1_555 1_555
H12 C18 1_555 1_555
C19 C18 1_555 1_555
H13 C19 1_555 1_555
C20 C15 1_555 1_555
H14 C20 1_555 1_555
C21 C14 1_555 1_555
H15 C21 1_555 1_555
H16 C21 1_555 1_555
H17 C21 1_555 1_555
C22 C14 1_555 1_555
H18 C22 1_555 1_555
H19 C22 1_555 1_555
H20 C22 1_555 1_555
C23 C10 1_555 1_555
C24 C23 1_555 1_555
H21 C24 1_555 1_555
C25 C24 1_555 1_555
H22 C25 1_555 1_555
H23 C25 1_555 1_555
H24 C25 1_555 1_555
C26 C24 1_555 1_555
H25 C26 1_555 1_555
H26 C26 1_555 1_555
H27 C26 1_555 1_555
C27 N1 1_555 1_555
C28 H28 1_555 1_555
H29 C28 1_555 1_555
H30 C28 1_555 1_555
C29 H31 1_555 1_555
H32 C29 1_555 1_555
H33 C29 1_555 1_555
C30 H34 1_555 1_555
H35 C30 1_555 1_555
H36 C30 1_555 1_555
C31 O2 1_555 1_555
C32 O3 1_555 1_555
H37 C32 1_555 1_555
H38 C32 1_555 1_555
H39 C32 1_555 1_555
C5 C6 1_555 1_555
C7 C12 1_555 1_555
C8 C9 1_555 1_555
C11 C12 1_555 1_555
C13 C14 1_555 1_555
C19 C20 1_555 1_555
C28 C31 1_555 1_555
C29 C31 1_555 1_555
C30 C31 1_555 1_555

#END
