
#######################################################################
#
#                 Cambridge Crystallographic Data Centre
#                                CCDC 
#
#######################################################################
#
# If this CIF has been generated from an entry in the Cambridge 
# Structural Database, then it will include bibliographic, chemical, 
# crystal, experimental, refinement or atomic coordinate data resulting 
# from the CCDC's data processing and validation procedures.
#
#######################################################################

data_TESQEO01
_chemical_formula_moiety         'C16 H13 F2 N1 O1 S1'
_chemical_name_systematic        
3-(2-fluorobenzyl)-2-(2-fluorophenyl)-1,3-thiazolidin-4-one
_symmetry_cell_setting           monoclinic
_symmetry_space_group_name_H-M   'P 21/c'
_symmetry_Int_Tables_number      14
_space_group_name_Hall           '-P 2ybc'
loop_
_symmetry_equiv_pos_site_id
_symmetry_equiv_pos_as_xyz
1 x,y,z
2 -x,1/2+y,1/2-z
3 -x,-y,-z
4 x,1/2-y,1/2+z
_cell_length_a                   13.9981(6)
_cell_length_b                   10.1236(3)
_cell_length_c                   10.1491(4)
_cell_angle_alpha                90
_cell_angle_beta                 106.333(2)
_cell_angle_gamma                90
_cell_volume                     1380.2
_exptl_crystal_colour            colorless
_exptl_crystal_description       plate
_cell_formula_units_Z            4
_exptl_crystal_recrystallization_method ethanol
loop_
_atom_site_label
_atom_site_type_symbol
_atom_site_fract_x
_atom_site_fract_y
_atom_site_fract_z
S1 S 0.04772(4) 0.28961(6) 0.22639(6)
C1 C 0.17686(16) 0.3297(2) 0.3220(2)
C2 C 0.18495(15) 0.4644(2) 0.3894(2)
C3 C 0.23582(16) 0.5670(2) 0.3529(2)
F1 F 0.29382(16) 0.5411(3) 0.2692(2)
C4 C 0.2396(2) 0.6926(3) 0.4032(3)
C5 C 0.1904(2) 0.7189(3) 0.5013(3)
C6 C 0.13979(19) 0.6181(3) 0.5469(3)
C7 C 0.13884(17) 0.4964(2) 0.4886(2)
N1 N 0.20894(14) 0.22276(18) 0.4213(2)
C8 C 0.31440(18) 0.2116(2) 0.4954(3)
C9 C 0.37369(17) 0.1486(2) 0.4074(2)
C10 C 0.4711(2) 0.1843(2) 0.4209(3)
F3 F 0.51150(13) 0.28225(18) 0.5107(2)
C11 C 0.5294(2) 0.1257(3) 0.3473(3)
C12 C 0.4886(2) 0.0261(3) 0.2549(3)
C13 C 0.39173(19) -0.0128(3) 0.2375(3)
C14 C 0.33508(19) 0.0475(2) 0.3128(3)
C15 C 0.14172(19) 0.1312(2) 0.4358(2)
O1 O 0.16134(16) 0.03883(17) 0.51676(19)
C16 C 0.03943(19) 0.1548(2) 0.3394(3)
H1 H 0.2189 0.3287 0.2571
H3 H 0.2749 0.7601 0.3717
H4 H 0.1911 0.8056 0.5374
H5 H 0.1072 0.6335 0.6159
H6 H 0.1035 0.4282 0.5189
H7 H 0.3217 0.1576 0.5790
H8 H 0.3415 0.3006 0.5244
H9 H 0.5962 0.1534 0.3599
H10 H 0.5276 -0.0153 0.2036
H11 H 0.3636 -0.0808 0.1739
H12 H 0.2683 0.0195 0.3000
H13 H -0.0079 0.1773 0.3924
H14 H 0.0153 0.0741 0.2852
F2? F 0.0953(3) 0.4011(3) 0.5457(4)
H2? H 0.2713 0.5494 0.2876
loop_
_geom_bond_atom_site_label_1
_geom_bond_atom_site_label_2
_geom_bond_site_symmetry_1
_geom_bond_site_symmetry_2
S1 C1 1_555 1_555
C1 C2 1_555 1_555
C2 C3 1_555 1_555
C3 F1 1_555 1_555
C4 C3 1_555 1_555
C5 C4 1_555 1_555
C6 C5 1_555 1_555
C7 C2 1_555 1_555
N1 C1 1_555 1_555
C8 N1 1_555 1_555
C9 C8 1_555 1_555
C10 C9 1_555 1_555
F3 C10 1_555 1_555
C11 C10 1_555 1_555
C12 C11 1_555 1_555
C13 C12 1_555 1_555
C14 C9 1_555 1_555
C15 N1 1_555 1_555
O1 C15 1_555 1_555
C16 S1 1_555 1_555
H1 C1 1_555 1_555
H3 C4 1_555 1_555
H4 C5 1_555 1_555
H5 C6 1_555 1_555
H6 C7 1_555 1_555
H7 C8 1_555 1_555
H8 C8 1_555 1_555
H9 C11 1_555 1_555
H10 C12 1_555 1_555
H11 C13 1_555 1_555
H12 C14 1_555 1_555
H13 C16 1_555 1_555
H14 C16 1_555 1_555
C6 C7 1_555 1_555
C13 C14 1_555 1_555
C15 C16 1_555 1_555

#END
