
#######################################################################
#
#                 Cambridge Crystallographic Data Centre
#                                CCDC 
#
#######################################################################
#
# If this CIF has been generated from an entry in the Cambridge 
# Structural Database, then it will include bibliographic, chemical, 
# crystal, experimental, refinement or atomic coordinate data resulting 
# from the CCDC's data processing and validation procedures.
#
#######################################################################

data_TETSOD
_chemical_formula_moiety         'C16 H19 Cl1 O6'
_chemical_name_systematic        
'diethyl 2-(4-chlorophenyl)-1,3-dioxane-5,5-dicarboxylate'
_symmetry_cell_setting           triclinic
_symmetry_space_group_name_H-M   'P -1'
_symmetry_Int_Tables_number      2
_space_group_name_Hall           '-P 1'
loop_
_symmetry_equiv_pos_site_id
_symmetry_equiv_pos_as_xyz
1 x,y,z
2 -x,-y,-z
_cell_length_a                   7.905(3)
_cell_length_b                   9.194(4)
_cell_length_c                   13.094(5)
_cell_angle_alpha                99.928(4)
_cell_angle_beta                 105.341(4)
_cell_angle_gamma                109.283(4)
_cell_volume                     830.232
_exptl_crystal_colour            colorless
_exptl_crystal_description       block
_cell_formula_units_Z            2
loop_
_atom_site_label
_atom_site_type_symbol
_atom_site_fract_x
_atom_site_fract_y
_atom_site_fract_z
Cl1 Cl 0.07422(8) 0.25949(7) 0.94239(4)
O1 O -0.45979(15) 0.05796(11) 1.25129(8)
O2 O -0.42244(14) 0.32241(11) 1.26091(8)
O3 O -0.86012(15) 0.13316(18) 1.38751(11)
O4 O -0.63109(14) 0.21825(12) 1.55315(8)
O5 O -0.26490(15) 0.17232(13) 1.50798(9)
O6 O -0.26856(13) 0.41872(11) 1.52970(8)
C1 C -0.3431(2) 0.18110(16) 1.12498(11)
C2 C -0.1998(2) 0.12440(18) 1.14777(12)
H1 H -0.1881 0.0713 1.2020
C3 C -0.0735(2) 0.14611(19) 1.09042(13)
H2 H 0.0223 0.1072 1.1055
C4 C -0.0910(2) 0.22587(18) 1.01089(12)
C5 C -0.2339(3) 0.2809(2) 0.98523(13)
H3 H -0.2455 0.3330 0.9304
C6 C -0.3604(2) 0.2577(2) 1.04230(13)
H4 H -0.4584 0.2939 1.0252
C7 C -0.4760(2) 0.16675(16) 1.18987(11)
H5 H -0.6078 0.1284 1.1393
C8 C -0.5823(2) 0.03951(17) 1.31508(12)
H6 H -0.5649 -0.0344 1.3575
H7 H -0.7143 -0.0055 1.2661
C9 C -0.5454(2) 0.32040(17) 1.32363(12)
H8 H -0.6753 0.2874 1.2741
H9 H -0.5059 0.4276 1.3714
C10 C -0.53787(18) 0.20298(16) 1.39407(11)
C11 C -0.34170(18) 0.25997(16) 1.48304(11)
C12 C -0.6956(2) 0.18094(17) 1.44417(13)
C13 C -0.0854(2) 0.4846(2) 1.62007(14)
H10 H -0.0288 0.6004 1.6345
H11 H 0.0004 0.4412 1.5984
C14 C -0.1074(3) 0.4454(2) 1.72299(14)
H12 H -0.1483 0.3315 1.7117
H13 H -0.2009 0.4798 1.7409
H14 H 0.0128 0.4999 1.7826
C15 C -0.7760(3) 0.1840(3) 1.60595(16)
H15 H -0.8399 0.0689 1.5921
H16 H -0.8709 0.2251 1.5761
C16 C -0.6793(3) 0.2631(2) 1.72671(16)
H17 H -0.6218 0.3774 1.7398
H18 H -0.5823 0.2248 1.7550
H19 H -0.7712 0.2380 1.7632
loop_
_geom_bond_atom_site_label_1
_geom_bond_atom_site_label_2
_geom_bond_site_symmetry_1
_geom_bond_site_symmetry_2
Cl1 C4 1_555 1_555
O1 C7 1_555 1_555
O2 C7 1_555 1_555
O3 C12 1_555 1_555
O4 C12 1_555 1_555
O5 C11 1_555 1_555
O6 C11 1_555 1_555
C1 C2 1_555 1_555
C2 H1 1_555 1_555
C3 C2 1_555 1_555
H2 C3 1_555 1_555
C4 C3 1_555 1_555
C5 C4 1_555 1_555
H3 C5 1_555 1_555
C6 C1 1_555 1_555
H4 C6 1_555 1_555
C7 C1 1_555 1_555
H5 C7 1_555 1_555
C8 O1 1_555 1_555
H6 C8 1_555 1_555
H7 C8 1_555 1_555
C9 O2 1_555 1_555
H8 C9 1_555 1_555
H9 C9 1_555 1_555
C10 C8 1_555 1_555
C11 C10 1_555 1_555
C12 C10 1_555 1_555
C13 O6 1_555 1_555
H10 C13 1_555 1_555
H11 C13 1_555 1_555
C14 C13 1_555 1_555
H12 C14 1_555 1_555
H13 C14 1_555 1_555
H14 C14 1_555 1_555
C15 O4 1_555 1_555
H15 C15 1_555 1_555
H16 C15 1_555 1_555
C16 C15 1_555 1_555
H17 C16 1_555 1_555
H18 C16 1_555 1_555
H19 C16 1_555 1_555
C5 C6 1_555 1_555
C9 C10 1_555 1_555

#END
