
#######################################################################
#
#                 Cambridge Crystallographic Data Centre
#                                CCDC 
#
#######################################################################
#
# If this CIF has been generated from an entry in the Cambridge 
# Structural Database, then it will include bibliographic, chemical, 
# crystal, experimental, refinement or atomic coordinate data resulting 
# from the CCDC's data processing and validation procedures.
#
#######################################################################

data_TETVOE
_chemical_formula_moiety         'C25 H25 N1 O3 S1'
_chemical_name_systematic        4-Benzoyl-4-phenyl-1-p-tosylpiperidine
_symmetry_cell_setting           monoclinic
_symmetry_space_group_name_H-M   'P 21'
_symmetry_Int_Tables_number      4
_space_group_name_Hall           'P 2yb'
loop_
_symmetry_equiv_pos_site_id
_symmetry_equiv_pos_as_xyz
1 x,y,z
2 -x,1/2+y,-z
_cell_length_a                   12.430(3)
_cell_length_b                   6.1974(13)
_cell_length_c                   14.688(3)
_cell_angle_alpha                90
_cell_angle_beta                 112.928(3)
_cell_angle_gamma                90
_cell_volume                     1042.08
_exptl_crystal_colour            yellow
_exptl_crystal_description       lamellar
_cell_formula_units_Z            2
_exptl_crystal_recrystallization_method 'dichloromethane/ethyl acetate'
loop_
_atom_site_label
_atom_site_type_symbol
_atom_site_fract_x
_atom_site_fract_y
_atom_site_fract_z
S1 S 0.32119(6) 0.19544(11) 0.02081(5)
N1 N 0.45170(18) 0.1778(4) 0.10726(16)
O1 O 0.29450(17) 0.4213(3) 0.00804(15)
O2 O 0.32051(17) 0.0682(3) -0.06038(14)
O3 O 0.6071(2) -0.1840(4) 0.33937(16)
C1 C 0.8776(3) 0.0043(5) 0.3769(2)
H1 H 0.8449 -0.1280 0.3865
C2 C 0.9976(3) 0.0282(5) 0.4152(2)
H2 H 1.0462 -0.0879 0.4500
C3 C 1.0469(3) 0.2182(6) 0.4033(2)
H3 H 1.1293 0.2366 0.4310
C4 C 0.9742(3) 0.3832(5) 0.3499(2)
H4 H 1.0074 0.5144 0.3396
C5 C 0.8546(3) 0.3596(5) 0.3116(2)
H5 H 0.8062 0.4749 0.2758
C6 C 0.8040(2) 0.1682(5) 0.32496(19)
C7 C 0.6709(2) 0.1309(4) 0.2813(2)
C8 C 0.6411(2) 0.0008(5) 0.3582(2)
C9 C 0.6542(2) 0.0915(4) 0.4567(2)
C10 C 0.7080(2) 0.2860(5) 0.4959(2)
H6 H 0.7373 0.3753 0.4582
C11 C 0.7192(2) 0.3509(5) 0.5895(2)
H7 H 0.7562 0.4841 0.6155
C12 C 0.6769(2) 0.2232(6) 0.6452(2)
H8 H 0.6854 0.2673 0.7096
C13 C 0.6222(3) 0.0304(6) 0.6063(2)
H9 H 0.5918 -0.0575 0.6437
C14 C 0.6116(2) -0.0339(5) 0.5139(2)
H10 H 0.5743 -0.1672 0.4883
C15 C 0.6003(2) 0.3418(4) 0.2531(2)
H11 H 0.6126 0.4258 0.3137
H12 H 0.6285 0.4297 0.2106
C16 C 0.4705(2) 0.2967(5) 0.1985(2)
H13 H 0.4415 0.2108 0.2410
H14 H 0.4268 0.4344 0.1824
C17 C 0.5101(2) -0.0349(4) 0.1265(2)
H15 H 0.4974 -0.1078 0.0632
H16 H 0.4770 -0.1269 0.1643
C18 C 0.6407(2) -0.0018(4) 0.1856(2)
H17 H 0.6744 0.0717 0.1429
H18 H 0.6785 -0.1450 0.2031
C19 C 0.2221(2) 0.0803(5) 0.06644(19)
C20 C 0.1848(2) 0.2015(5) 0.12811(19)
H19 H 0.2133 0.3440 0.1462
C21 C 0.1065(2) 0.1143(5) 0.1628(2)
H20 H 0.0814 0.1974 0.2052
C22 C 0.0634(2) -0.0935(5) 0.1371(2)
C23 C 0.1017(2) -0.2117(5) 0.0755(2)
H21 H 0.0722 -0.3533 0.0567
C24 C 0.1816(2) -0.1294(4) 0.0405(2)
H22 H 0.2084 -0.2141 -0.0003
C25 C -0.0242(3) -0.1852(6) 0.1744(2)
H23 H -0.0405 -0.0788 0.2167
H24 H 0.0077 -0.3165 0.2125
H25 H -0.0966 -0.2200 0.1181
loop_
_geom_bond_atom_site_label_1
_geom_bond_atom_site_label_2
_geom_bond_site_symmetry_1
_geom_bond_site_symmetry_2
S1 N1 1_555 1_555
N1 C16 1_555 1_555
O1 S1 1_555 1_555
O2 S1 1_555 1_555
O3 C8 1_555 1_555
C1 H1 1_555 1_555
C2 C1 1_555 1_555
H2 C2 1_555 1_555
C3 C2 1_555 1_555
H3 C3 1_555 1_555
C4 C3 1_555 1_555
H4 C4 1_555 1_555
C5 C4 1_555 1_555
H5 C5 1_555 1_555
C6 C1 1_555 1_555
C7 C6 1_555 1_555
C8 C7 1_555 1_555
C9 C8 1_555 1_555
C10 C9 1_555 1_555
H6 C10 1_555 1_555
C11 C10 1_555 1_555
H7 C11 1_555 1_555
C12 C11 1_555 1_555
H8 C12 1_555 1_555
C13 C12 1_555 1_555
H9 C13 1_555 1_555
C14 C9 1_555 1_555
H10 C14 1_555 1_555
C15 C7 1_555 1_555
H11 C15 1_555 1_555
H12 C15 1_555 1_555
C16 C15 1_555 1_555
H13 C16 1_555 1_555
H14 C16 1_555 1_555
C17 N1 1_555 1_555
H15 C17 1_555 1_555
H16 C17 1_555 1_555
C18 C7 1_555 1_555
H17 C18 1_555 1_555
H18 C18 1_555 1_555
C19 S1 1_555 1_555
C20 C19 1_555 1_555
H19 C20 1_555 1_555
C21 C20 1_555 1_555
H20 C21 1_555 1_555
C22 C21 1_555 1_555
C23 C22 1_555 1_555
H21 C23 1_555 1_555
C24 C19 1_555 1_555
H22 C24 1_555 1_555
C25 C22 1_555 1_555
H23 C25 1_555 1_555
H24 C25 1_555 1_555
H25 C25 1_555 1_555
C5 C6 1_555 1_555
C13 C14 1_555 1_555
C17 C18 1_555 1_555
C23 C24 1_555 1_555

#END
