
#######################################################################
#
#                 Cambridge Crystallographic Data Centre
#                                CCDC 
#
#######################################################################
#
# If this CIF has been generated from an entry in the Cambridge 
# Structural Database, then it will include bibliographic, chemical, 
# crystal, experimental, refinement or atomic coordinate data resulting 
# from the CCDC's data processing and validation procedures.
#
#######################################################################

data_TEVBON
_chemical_formula_moiety         'C21 H18 N2 O2'
_chemical_name_systematic        
8-Isopropyl-11-(1H-pyrrol-2-yl)-4aH,10H-chromeno[3,2-b]pyrrolizin-10-one
_symmetry_cell_setting           triclinic
_symmetry_space_group_name_H-M   'P -1'
_symmetry_Int_Tables_number      2
_space_group_name_Hall           '-P 1'
loop_
_symmetry_equiv_pos_site_id
_symmetry_equiv_pos_as_xyz
1 x,y,z
2 -x,-y,-z
_cell_length_a                   9.2128(9)
_cell_length_b                   9.6112(7)
_cell_length_c                   10.0583(6)
_cell_angle_alpha                77.842(6)
_cell_angle_beta                 71.347(7)
_cell_angle_gamma                88.204(7)
_cell_volume                     824.29
_exptl_crystal_colour            brown
_exptl_crystal_description       block
_cell_formula_units_Z            2
loop_
_atom_site_label
_atom_site_type_symbol
_atom_site_fract_x
_atom_site_fract_y
_atom_site_fract_z
H1 H 0.091(3) 0.641(3) -0.017(2)
O1 O 0.30888(13) 0.43253(12) 0.39927(11)
C1 C 0.07094(16) 0.37010(14) 0.36464(15)
O2 O 0.01983(12) 0.48501(12) 0.15192(12)
C2 C 0.26855(15) 0.52014(14) 0.16768(14)
N1 N 0.50406(14) 0.54939(14) 0.19300(14)
C3 C 0.48655(16) 0.66135(15) 0.08962(15)
C4 C 0.11390(16) 0.46063(14) 0.21778(15)
C5 C -0.07322(18) 0.29966(15) 0.42502(16)
H2 H -0.1367 0.3036 0.3688
N2 N 0.14615(15) 0.72597(15) -0.04907(14)
C6 C 0.27726(16) 0.74823(15) -0.01778(15)
C7 C 0.33618(15) 0.64433(14) 0.07426(14)
C8 C 0.16614(17) 0.36480(15) 0.44963(15)
C9 C -0.12429(19) 0.22421(16) 0.56616(16)
C10 C 0.37512(17) 0.44989(15) 0.24699(16)
H3 H 0.4059 0.3579 0.2215
C11 C -0.0267(2) 0.22442(18) 0.64850(16)
H4 H -0.0593 0.1765 0.7441
C12 C 0.1155(2) 0.29313(17) 0.59266(17)
H5 H 0.1773 0.2916 0.6501
C13 C 0.62124(17) 0.74268(19) 0.03543(18)
H6 H 0.6427 0.8255 -0.0358
C14 C -0.2765(2) 0.14067(18) 0.62913(18)
H7 H -0.3168 0.1446 0.7310
C15 C 0.1165(2) 0.84442(19) -0.1335(2)
H8 H 0.0342 0.8552 -0.1690
C16 C 0.64763(18) 0.5559(2) 0.20394(19)
H9 H 0.6877 0.4912 0.2645
C17 C 0.72085(19) 0.6754(2) 0.10939(19)
H10 H 0.8198 0.7075 0.0956
C18 C 0.3301(2) 0.88649(18) -0.0865(2)
H11 H 0.4175 0.9313 -0.0853
C19 C 0.2283(2) 0.9463(2) -0.1581(2)
H12 H 0.2351 1.0385 -0.2124
C20 C -0.2507(3) -0.0154(2) 0.6211(3)
H13 H -0.1748 -0.0509 0.6651
H14 H -0.2161 -0.0235 0.5225
H15 H -0.3452 -0.0700 0.6708
C21 C -0.3968(2) 0.1989(3) 0.5610(3)
H16 H -0.4896 0.1412 0.6068
H17 H -0.3603 0.1973 0.4607
H18 H -0.4166 0.2951 0.5724
loop_
_geom_bond_atom_site_label_1
_geom_bond_atom_site_label_2
_geom_bond_site_symmetry_1
_geom_bond_site_symmetry_2
H1 N2 1_555 1_555
O1 C8 1_555 1_555
C1 C4 1_555 1_555
O2 C4 1_555 1_555
C2 C4 1_555 1_555
N1 C3 1_555 1_555
C3 C7 1_555 1_555
C5 C1 1_555 1_555
H2 C5 1_555 1_555
N2 C6 1_555 1_555
C6 C7 1_555 1_555
C7 C2 1_555 1_555
C8 C1 1_555 1_555
C9 C5 1_555 1_555
C10 O1 1_555 1_555
H3 C10 1_555 1_555
C11 C9 1_555 1_555
H4 C11 1_555 1_555
C12 C8 1_555 1_555
H5 C12 1_555 1_555
C13 C3 1_555 1_555
H6 C13 1_555 1_555
C14 C9 1_555 1_555
H7 C14 1_555 1_555
C15 N2 1_555 1_555
H8 C15 1_555 1_555
C16 N1 1_555 1_555
H9 C16 1_555 1_555
C17 C13 1_555 1_555
H10 C17 1_555 1_555
C18 C6 1_555 1_555
H11 C18 1_555 1_555
C19 C15 1_555 1_555
H12 C19 1_555 1_555
C20 C14 1_555 1_555
H13 C20 1_555 1_555
H14 C20 1_555 1_555
H15 C20 1_555 1_555
C21 C14 1_555 1_555
H16 C21 1_555 1_555
H17 C21 1_555 1_555
H18 C21 1_555 1_555
C2 C10 1_555 1_555
N1 C10 1_555 1_555
C11 C12 1_555 1_555
C16 C17 1_555 1_555
C18 C19 1_555 1_555

#END
