
#######################################################################
#
#                 Cambridge Crystallographic Data Centre
#                                CCDC 
#
#######################################################################
#
# If this CIF has been generated from an entry in the Cambridge 
# Structural Database, then it will include bibliographic, chemical, 
# crystal, experimental, refinement or atomic coordinate data resulting 
# from the CCDC's data processing and validation procedures.
#
#######################################################################

data_TEVSET01
_chemical_formula_moiety         'C18 H16 N4 O4'
_chemical_name_systematic        
4-(2-Hydroxy-5-nitrobenzylideneamino)-1,2-dihydro-1,5-dimethyl-2-phenylpyrazol-3-one
_symmetry_cell_setting           monoclinic
_symmetry_space_group_name_H-M   'P 21/n'
_symmetry_Int_Tables_number      14
_space_group_name_Hall           '-P 2yn'
loop_
_symmetry_equiv_pos_site_id
_symmetry_equiv_pos_as_xyz
1 x,y,z
2 1/2-x,1/2+y,1/2-z
3 -x,-y,-z
4 1/2+x,1/2-y,1/2+z
_cell_length_a                   6.5897(8)
_cell_length_b                   22.345(2)
_cell_length_c                   11.6230(13)
_cell_angle_alpha                90.00
_cell_angle_beta                 96.4110(10)
_cell_angle_gamma                90.00
_cell_volume                     1700.75
_exptl_crystal_colour            yellow
_exptl_crystal_description       needle
_chemical_melting_point          '205.3-205.9 deg.C'
_cell_formula_units_Z            4
_exptl_crystal_recrystallization_method methanol
loop_
_atom_site_label
_atom_site_type_symbol
_atom_site_fract_x
_atom_site_fract_y
_atom_site_fract_z
O1 O 0.1929(5) -0.05126(12) 0.8122(3)
H1 H 0.1771 -0.0158 0.7952
O2 O 0.3707(5) -0.13108(15) 1.3258(3)
O3 O 0.3536(6) -0.03526(19) 1.3506(3)
O4 O 0.1814(4) 0.18949(12) 0.9528(2)
N1 N 0.3461(5) -0.0799(2) 1.2877(4)
N2 N 0.1921(4) 0.06181(14) 0.8422(3)
N3 N 0.1350(5) 0.21763(14) 0.7592(3)
N4 N 0.1000(5) 0.18663(15) 0.6530(2)
C1 C 0.2348(6) -0.05670(19) 0.9275(4)
C2 C 0.2614(6) -0.11342(19) 0.9741(4)
H2 H 0.2531 -0.1466 0.9255
C3 C 0.2998(6) -0.12104(19) 1.0910(5)
H3 H 0.3185 -0.1593 1.1220
C4 C 0.3107(6) -0.0722(2) 1.1625(4)
C5 C 0.2890(5) -0.01511(17) 1.1179(4)
H4 H 0.3008 0.0175 1.1679
C6 C 0.2497(5) -0.00565(17) 0.9997(4)
C7 C 0.2276(5) 0.05390(17) 0.9528(4)
H5 H 0.2389 0.0868 1.0022
C8 C 0.1683(5) 0.11863(17) 0.7931(3)
C9 C 0.1681(6) 0.17577(18) 0.8497(4)
C10 C 0.1343(6) 0.12764(17) 0.6767(3)
C11 C 0.1283(7) 0.08320(18) 0.5811(3)
H6 H 0.0100 0.0903 0.5268
H7 H 0.1219 0.0435 0.6123
H8 H 0.2491 0.0871 0.5426
C12 C 0.1598(7) 0.21751(18) 0.5516(3)
H9 H 0.2996 0.2301 0.5664
H10 H 0.0741 0.2519 0.5352
H11 H 0.1450 0.1909 0.4863
C13 C 0.0262(7) 0.27230(17) 0.7724(3)
C14 C 0.1153(8) 0.3156(2) 0.8435(4)
H12 H 0.2461 0.3100 0.8811
C15 C 0.0104(11) 0.3679(2) 0.8596(5)
H13 H 0.0696 0.3977 0.9081
C16 C -0.1810(12) 0.3754(3) 0.8035(5)
H14 H -0.2525 0.4104 0.8147
C17 C -0.2686(9) 0.3327(3) 0.7316(4)
H15 H -0.3986 0.3386 0.6933
C18 C -0.1646(8) 0.2802(2) 0.7155(4)
H16 H -0.2238 0.2507 0.6663
loop_
_geom_bond_atom_site_label_1
_geom_bond_atom_site_label_2
_geom_bond_site_symmetry_1
_geom_bond_site_symmetry_2
O1 H1 1_555 1_555
O2 N1 1_555 1_555
O3 N1 1_555 1_555
O4 C9 1_555 1_555
N1 C4 1_555 1_555
N2 C7 1_555 1_555
N3 N4 1_555 1_555
N4 C10 1_555 1_555
C1 O1 1_555 1_555
C2 C1 1_555 1_555
H2 C2 1_555 1_555
C3 C2 1_555 1_555
H3 C3 1_555 1_555
C4 C3 1_555 1_555
C5 C4 1_555 1_555
H4 C5 1_555 1_555
C6 C1 1_555 1_555
C7 C6 1_555 1_555
H5 C7 1_555 1_555
C8 N2 1_555 1_555
C9 N3 1_555 1_555
C10 C8 1_555 1_555
C11 C10 1_555 1_555
H6 C11 1_555 1_555
H7 C11 1_555 1_555
H8 C11 1_555 1_555
C12 N4 1_555 1_555
H9 C12 1_555 1_555
H10 C12 1_555 1_555
H11 C12 1_555 1_555
C13 N3 1_555 1_555
C14 C13 1_555 1_555
H12 C14 1_555 1_555
C15 C14 1_555 1_555
H13 C15 1_555 1_555
C16 C15 1_555 1_555
H14 C16 1_555 1_555
C17 C16 1_555 1_555
H15 C17 1_555 1_555
C18 C13 1_555 1_555
H16 C18 1_555 1_555
C5 C6 1_555 1_555
C8 C9 1_555 1_555
C17 C18 1_555 1_555

#END
