
#######################################################################
#
#                 Cambridge Crystallographic Data Centre
#                                CCDC 
#
#######################################################################
#
# If this CIF has been generated from an entry in the Cambridge 
# Structural Database, then it will include bibliographic, chemical, 
# crystal, experimental, refinement or atomic coordinate data resulting 
# from the CCDC's data processing and validation procedures.
#
#######################################################################

data_TEWFIL01
_chemical_name_common            N-(2-Hydroxyphenyl)prolinamide
_chemical_formula_moiety         'C11 H14 N2 O2'
_chemical_name_systematic        
(S)-N-(2-hydroxyphenyl)pyrrolidine-2-carboxamide
_symmetry_cell_setting           monoclinic
_symmetry_space_group_name_H-M   'P 21'
_symmetry_Int_Tables_number      4
_space_group_name_Hall           'P 2yb'
loop_
_symmetry_equiv_pos_site_id
_symmetry_equiv_pos_as_xyz
1 x,y,z
2 -x,1/2+y,-z
_cell_length_a                   7.284(6)
_cell_length_b                   10.262(9)
_cell_length_c                   7.975(7)
_cell_angle_alpha                90
_cell_angle_beta                 114.451(14)
_cell_angle_gamma                90
_cell_volume                     542.656
_exptl_crystal_colour            colorless
_exptl_crystal_description       block
_cell_formula_units_Z            2
_chemical_properties_physical    moisture-sensitive
loop_
_atom_site_label
_atom_site_type_symbol
_atom_site_fract_x
_atom_site_fract_y
_atom_site_fract_z
C1 C 0.1750(3) 0.2033(2) 0.7354(3)
C2 C 0.1171(4) 0.4194(3) 0.6052(3)
H1 H 0.1489 0.4854 0.5418
O1 O 0.5815(2) 0.13865(19) 0.7917(3)
N1 N 0.2765(2) 0.08279(19) 0.7824(3)
H2 H 0.2074 0.0181 0.7939
O2 O -0.0301(2) 0.1171(2) 0.8694(3)
H3 H -0.1499 0.1191 0.8495
C3 C -0.0884(3) 0.3383(3) 0.7515(4)
H4 H -0.1918 0.3510 0.7896
C4 C 0.2234(3) 0.3026(2) 0.6430(3)
H5 H 0.3278 0.2910 0.6061
C5 C 0.5361(3) -0.0810(2) 0.8713(3)
H6 H 0.6556 -0.0783 0.9887
N2 N 0.3801(3) -0.1596(2) 0.8942(3)
H7 H 0.3280 -0.1448 0.9713
C6 C 0.4666(3) 0.0569(2) 0.8111(3)
C7 C -0.0367(4) 0.4365(3) 0.6630(4)
H8 H -0.1054 0.5155 0.6413
C8 C 0.5135(6) -0.2897(3) 0.7230(5)
H9 H 0.6128 -0.3437 0.8167
H10 H 0.4770 -0.3297 0.6033
C9 C 0.0133(3) 0.2195(2) 0.7848(3)
C10 C 0.5904(4) -0.1522(3) 0.7271(4)
H11 H 0.5249 -0.1113 0.6072
H12 H 0.7350 -0.1519 0.7636
C11 C 0.3286(5) -0.2674(3) 0.7634(4)
H13 H 0.2123 -0.2455 0.6513
H14 H 0.2979 -0.3451 0.8162
loop_
_geom_bond_atom_site_label_1
_geom_bond_atom_site_label_2
_geom_bond_site_symmetry_1
_geom_bond_site_symmetry_2
C1 N1 1_555 1_555
C2 H1 1_555 1_555
O1 C6 1_555 1_555
N1 H2 1_555 1_555
O2 H3 1_555 1_555
C3 H4 1_555 1_555
C4 C1 1_555 1_555
H5 C4 1_555 1_555
C5 H6 1_555 1_555
N2 C5 1_555 1_555
H7 N2 1_555 1_555
C6 N1 1_555 1_555
C7 C2 1_555 1_555
H8 C7 1_555 1_555
C8 H9 1_555 1_555
H10 C8 1_555 1_555
C9 C1 1_555 1_555
C10 C5 1_555 1_555
H11 C10 1_555 1_555
H12 C10 1_555 1_555
C11 N2 1_555 1_555
H13 C11 1_555 1_555
H14 C11 1_555 1_555
C2 C4 1_555 1_555
O2 C9 1_555 1_555
C3 C7 1_555 1_555
C3 C9 1_555 1_555
C5 C6 1_555 1_555
C8 C10 1_555 1_555
C8 C11 1_555 1_555

#END
