
#######################################################################
#
#                 Cambridge Crystallographic Data Centre
#                                CCDC 
#
#######################################################################
#
# If this CIF has been generated from an entry in the Cambridge 
# Structural Database, then it will include bibliographic, chemical, 
# crystal, experimental, refinement or atomic coordinate data resulting 
# from the CCDC's data processing and validation procedures.
#
#######################################################################

data_TEWJOX
_chemical_name_common            
'(mu-2,7,12,17,22,27,32,37-octakis(pentafluorophenyl)-41,42,43,44,45,46,47,48-octaazanonacyclo[36.2.1.13,6.18,11.113,16.118,21.123,26.128,31.133,36]octatetraconta-1,3,5,7,9,11(47),12,14,16,18,20,22,24,26,28(43),29,31,33,35,37,39-henicosaene-4,24,41,42,45,46-hexayl)-dimethyl-di-silicon octane tetrachloromethane solvate'
_chemical_formula_moiety         'C90 H22 F40 N8 Si2,1.83(C8 H18),2.35(C1 Cl4)'
_chemical_name_systematic        
'(\m-5,10,15,20,25,30,35,40-octakis(pentafluorophenyl)[38]octaphyrinato)-dimethyl-di-silicon octane tetrachloromethane solvate'
_symmetry_cell_setting           triclinic
_symmetry_space_group_name_H-M   'P -1'
_symmetry_Int_Tables_number      2
_space_group_name_Hall           '-P 1'
loop_
_symmetry_equiv_pos_site_id
_symmetry_equiv_pos_as_xyz
1 x,y,z
2 -x,-y,-z
_cell_length_a                   14.738(3)
_cell_length_b                   18.729(4)
_cell_length_c                   20.323(4)
_cell_angle_alpha                90.963(4)
_cell_angle_beta                 102.207(11)
_cell_angle_gamma                101.022(6)
_cell_volume                     5372.16
_exptl_crystal_colour            green
_exptl_crystal_description       prism
_cell_formula_units_Z            2
loop_
_atom_site_label
_atom_site_type_symbol
_atom_site_fract_x
_atom_site_fract_y
_atom_site_fract_z
F1 F 0.57769(14) 0.59846(12) 0.71007(11)
F2 F 0.42746(15) 0.65013(15) 0.64494(13)
F3 F 0.44250(17) 0.73830(16) 0.54128(14)
F4 F 0.61120(17) 0.77402(14) 0.50291(12)
F5 F 0.75968(14) 0.72012(12) 0.56433(11)
F6 F 0.47196(15) 0.30288(13) 0.71728(11)
F7 F 0.28750(15) 0.30540(14) 0.68173(13)
F8 F 0.21881(15) 0.37227(14) 0.57004(13)
F9 F 0.33983(15) 0.43898(13) 0.49439(12)
F10 F 0.52531(14) 0.43429(12) 0.52793(11)
F11 F 0.74079(18) 0.13597(14) 0.53478(13)
F12 F 0.7408(2) -0.00122(16) 0.49535(15)
F13 F 0.8161(3) -0.09140(14) 0.58505(17)
F14 F 0.8957(2) -0.04175(14) 0.71372(16)
F15 F 0.89290(17) 0.09508(13) 0.75520(13)
F16 F 1.20854(16) 0.39550(13) 0.86909(12)
F17 F 1.39231(16) 0.43359(14) 0.86319(14)
F18 F 1.44080(16) 0.49310(14) 0.75200(16)
F19 F 1.30409(19) 0.51684(15) 0.64666(15)
F20 F 1.11993(17) 0.47940(14) 0.65272(12)
F21 F 0.87043(14) 0.42008(12) 0.97481(11)
F22 F 0.75656(18) 0.31698(12) 1.02556(12)
F23 F 0.57134(17) 0.27287(11) 0.96266(13)
F24 F 0.50108(14) 0.33408(12) 0.84876(12)
F25 F 0.61403(13) 0.43855(11) 0.79610(10)
F26 F 0.62094(13) 0.61043(11) 0.99117(11)
F27 F 0.45520(14) 0.54778(11) 1.02268(11)
F28 F 0.28866(14) 0.54506(12) 0.93414(12)
F29 F 0.28588(14) 0.61428(12) 0.81765(11)
F30 F 0.44966(14) 0.67635(12) 0.78541(11)
F31 F 0.8549(2) 0.99652(13) 0.99759(14)
F32 F 0.8051(3) 1.12119(16) 1.03157(16)
F33 F 0.7051(2) 1.19217(14) 0.93584(19)
F34 F 0.6529(2) 1.13738(13) 0.80600(17)
F35 F 0.70369(18) 1.01393(13) 0.77191(13)
N1 N 0.89259(19) 0.84963(15) 0.82588(16)
N2 N 0.87604(19) 0.73477(15) 0.73524(15)
N3 N 0.6673(2) 0.50016(16) 0.64750(15)
H1 H 0.6141 0.5112 0.6253
N4 N 0.72876(19) 0.29212(16) 0.67352(15)
N5 N 0.9150(2) 0.31647(16) 0.71667(16)
N6 N 0.91871(19) 0.42910(15) 0.80533(15)
N7 N 0.70896(19) 0.57784(15) 0.87224(15)
H2 H 0.6680 0.5476 0.8895
N8 N 0.72356(19) 0.80070(15) 0.85216(16)
C1 C 0.8796(2) 0.91516(19) 0.8541(2)
C2 C 0.9681(3) 0.9645(2) 0.8707(2)
H3 H 0.9789 1.0129 0.8894
C3 C 1.0345(3) 0.9302(2) 0.8551(2)
H4 H 1.1007 0.9495 0.8636
C4 C 0.9886(2) 0.86055(19) 0.8240(2)
C5 C 1.0273(2) 0.81385(19) 0.7897(2)
C6 C 0.9740(2) 0.75371(19) 0.74774(19)
C7 C 1.0103(3) 0.7041(2) 0.7117(2)
H5 H 1.0749 0.7062 0.7108
C8 C 0.9347(2) 0.6530(2) 0.6786(2)
H6 H 0.9373 0.6123 0.6510
C9 C 0.8513(2) 0.67147(19) 0.69290(18)
C10 C 0.7585(2) 0.62625(19) 0.66974(18)
C11 C 0.7501(2) 0.55052(19) 0.67228(17)
C12 C 0.8166(2) 0.50862(19) 0.70376(18)
H7 H 0.8806 0.5283 0.7250
C13 C 0.7752(2) 0.43565(19) 0.69918(17)
C14 C 0.6790(2) 0.43061(19) 0.66218(18)
C15 C 0.6093(2) 0.36760(19) 0.64674(18)
C16 C 0.6359(2) 0.2999(2) 0.65171(19)
C17 C 0.5773(2) 0.2298(2) 0.6294(2)
H8 H 0.5105 0.2197 0.6132
C18 C 0.6346(3) 0.1803(2) 0.6355(2)
H9 H 0.6155 0.1293 0.6246
C19 C 0.7299(3) 0.2198(2) 0.6617(2)
C20 C 0.8148(2) 0.1967(2) 0.6683(2)
C21 C 0.9024(3) 0.2458(2) 0.68809(19)
C22 C 0.9904(3) 0.2333(2) 0.6790(2)
H10 H 1.0015 0.1892 0.6613
C23 C 1.0569(3) 0.2953(2) 0.7001(2)
H11 H 1.1217 0.3029 0.6980
C24 C 1.0115(2) 0.3462(2) 0.72582(19)
C25 C 1.0563(2) 0.41136(19) 0.76183(19)
C26 C 1.0129(2) 0.45082(19) 0.80081(18)
C27 C 1.0548(2) 0.51674(19) 0.83967(19)
H12 H 1.1186 0.5420 0.8454
C28 C 0.9867(2) 0.53725(19) 0.86722(18)
H13 H 0.9944 0.5797 0.8958
C29 C 0.9012(2) 0.48369(17) 0.84566(17)
C30 C 0.8123(2) 0.49221(18) 0.85967(17)
C31 C 0.7890(2) 0.56121(18) 0.85565(17)
C32 C 0.8338(2) 0.62588(18) 0.82956(17)
H14 H 0.8914 0.6310 0.8145
C33 C 0.7816(2) 0.67963(18) 0.82933(17)
C34 C 0.7024(2) 0.64855(18) 0.85793(17)
C35 C 0.6303(2) 0.68260(18) 0.86873(19)
C36 C 0.6435(2) 0.75848(19) 0.86668(19)
C37 C 0.5857(2) 0.8043(2) 0.8864(2)
H15 H 0.5263 0.7887 0.8983
C38 C 0.6314(2) 0.8746(2) 0.8850(2)
H16 H 0.6098 0.9172 0.8954
C39 C 0.7177(2) 0.87193(18) 0.8651(2)
C40 C 0.7947(3) 0.92781(19) 0.8652(2)
C41 C 0.6745(2) 0.65657(19) 0.63958(18)
C42 C 0.5875(3) 0.6404(2) 0.65795(19)
C43 C 0.5095(3) 0.6670(2) 0.6255(2)
C44 C 0.5173(3) 0.7122(2) 0.5734(2)
C45 C 0.6031(3) 0.7304(2) 0.5538(2)
C46 C 0.6791(3) 0.7028(2) 0.58637(19)
C47 C 0.5065(2) 0.36969(19) 0.62464(18)
C48 C 0.4419(3) 0.3363(2) 0.66185(19)
C49 C 0.3461(3) 0.3369(2) 0.6435(2)
C50 C 0.3112(2) 0.3712(2) 0.5870(2)
C51 C 0.3731(2) 0.4048(2) 0.54948(19)
C52 C 0.4684(2) 0.4029(2) 0.56806(19)
C53 C 0.8156(2) 0.1203(2) 0.6466(2)
C54 C 0.8548(3) 0.0729(2) 0.6902(2)
C55 C 0.8570(3) 0.0024(2) 0.6701(2)
C56 C 0.8169(3) -0.0228(2) 0.6050(3)
C57 C 0.7779(3) 0.0222(2) 0.5598(2)
C58 C 0.7778(3) 0.0930(2) 0.5810(2)
C59 C 1.1585(2) 0.43665(19) 0.76106(19)
C60 C 1.2300(3) 0.4255(2) 0.8141(2)
C61 C 1.3248(3) 0.4443(2) 0.8105(2)
C62 C 1.3489(3) 0.4747(2) 0.7551(2)
C63 C 1.2800(3) 0.4872(2) 0.7019(2)
C64 C 1.1859(3) 0.4680(2) 0.7054(2)
C65 C 0.7471(2) 0.43260(18) 0.88311(17)
C66 C 0.6515(2) 0.40946(18) 0.85286(18)
C67 C 0.5931(2) 0.35541(19) 0.8787(2)
C68 C 0.6288(3) 0.32359(19) 0.9363(2)
C69 C 0.7224(3) 0.34552(19) 0.96821(19)
C70 C 0.7797(3) 0.39928(18) 0.94127(19)
C71 C 0.5414(2) 0.64394(17) 0.88644(18)
C72 C 0.4540(2) 0.64443(19) 0.84388(19)
C73 C 0.3691(2) 0.61314(19) 0.8601(2)
C74 C 0.3700(2) 0.57928(19) 0.9199(2)
C75 C 0.4552(2) 0.57888(18) 0.96369(19)
C76 C 0.5391(2) 0.61091(18) 0.94657(19)
C77 C 0.7822(3) 1.00240(19) 0.8837(2)
C78 C 0.7319(3) 1.0404(2) 0.8358(2)
C79 C 0.7054(3) 1.1041(2) 0.8528(3)
C80 C 0.7311(3) 1.1312(2) 0.9183(3)
C81 C 0.7828(3) 1.0955(2) 0.9670(3)
C82 C 0.8078(3) 1.0318(2) 0.9491(2)
C83 C 0.7206(2) 0.80720(19) 0.7196(2)
H17 H 0.7187 0.8580 0.7306
H18 H 0.6564 0.7776 0.7115
H19 H 0.7462 0.8045 0.6791
C84 C 0.7833(2) 0.29976(18) 0.80851(19)
H20 H 0.7893 0.2494 0.8003
H21 H 0.7169 0.3011 0.8078
H22 H 0.8227 0.3189 0.8527
Si1 Si 0.79810(6) 0.77198(5) 0.79171(5)
Si2 Si 0.82321(6) 0.35687(5) 0.74126(5)
C85 C 1.1324(2) 0.83149(19) 0.7966(2)
C86 C 1.1768(3) 0.8931(2) 0.7705(3)
C87 C 1.2743(3) 0.9127(2) 0.7811(3)
C88 C 1.3299(3) 0.8703(3) 0.8192(3)
C89 C 1.2883(3) 0.8089(2) 0.8446(2)
C90 C 1.1910(2) 0.79053(19) 0.8339(2)
F36 F 1.12442(17) 0.93480(14) 0.73252(16)
F37 F 1.3151(2) 0.97215(17) 0.7550(2)
F38 F 1.42400(17) 0.88995(17) 0.83092(19)
F39 F 1.34332(15) 0.76869(14) 0.88203(14)
F40 F 1.15282(15) 0.73272(13) 0.86305(12)
C91 C 0.3437(8) 0.1124(5) 0.6558(6)
H23 H 0.3692 0.1054 0.6159
H24 H 0.3689 0.0820 0.6912
H25 H 0.3622 0.1637 0.6722
C92 C 0.2348(9) 0.0902(5) 0.6371(5)
H26 H 0.2165 0.0389 0.6191
H27 H 0.2097 0.0937 0.6783
C93 C 0.1909(9) 0.1379(5) 0.5853(6)
H28 H 0.1998 0.1872 0.6069
H29 H 0.2261 0.1423 0.5487
C94 C 0.0880(8) 0.1125(5) 0.5545(5)
H30 H 0.0526 0.1076 0.5910
H31 H 0.0790 0.0634 0.5322
C95 C 0.0445(8) 0.1631(4) 0.5018(6)
H32 H 0.0522 0.2118 0.5244
H33 H 0.0810 0.1689 0.4659
C96 C -0.0546(8) 0.1378(6) 0.4707(6)
H34 H -0.0923 0.1385 0.5056
H35 H -0.0640 0.0866 0.4533
C97 C -0.0911(9) 0.1812(5) 0.4149(5)
H36 H -0.0576 0.1761 0.3782
H37 H -0.0748 0.2332 0.4312
C98 C -0.1979(10) 0.1613(8) 0.3853(6)
H38 H -0.2176 0.1083 0.3777
H39 H -0.2126 0.1842 0.3423
H40 H -0.2319 0.1788 0.4168
C99 C 0.4790(5) 0.0226(4) 0.4742(3)
H41 H 0.4144 -0.0052 0.4546
H42 H 0.4710 0.0660 0.4991
C100 C 0.5159(6) 0.0492(5) 0.4189(4)
H43 H 0.5293 0.0068 0.3956
H44 H 0.5780 0.0814 0.4379
C101 C 0.4649(6) 0.0894(5) 0.3660(4)
H45 H 0.4451 0.1291 0.3889
H46 H 0.4063 0.0556 0.3426
C102 C 0.5143(7) 0.1228(7) 0.3129(5)
H47 H 0.5737 0.1556 0.3346
H48 H 0.4733 0.1503 0.2837
H49 H 0.5281 0.0841 0.2857
C99A C 0.5210(5) -0.0226(4) 0.5258(3)
H41A H 0.5856 0.0052 0.5454
H42A H 0.5290 -0.0660 0.5009
C100A C 0.4841(6) -0.0492(5) 0.5811(4)
H43A H 0.4707 -0.0068 0.6044
H44A H 0.4220 -0.0814 0.5621
C101A C 0.5351(6) -0.0894(5) 0.6340(4)
H45A H 0.5549 -0.1291 0.6111
H46A H 0.5937 -0.0556 0.6574
C102A C 0.4857(7) -0.1228(7) 0.6871(5)
H47A H 0.4263 -0.1556 0.6654
H48A H 0.5267 -0.1503 0.7163
H49A H 0.4719 -0.0841 0.7143
C103 C -0.0415(5) 0.7610(5) 0.0325(4)
Cl1 Cl -0.0026(3) 0.7694(2) 0.1212(2)
Cl2 Cl 0.0434(3) 0.7324(2) -0.0046(2)
Cl3 Cl -0.15032(15) 0.69984(13) 0.01342(10)
Cl4 Cl -0.05897(15) 0.84626(10) 0.00287(10)
C105 C 0.7090(19) 0.8318(14) 0.1311(13)
Cl9 Cl 0.6235(4) 0.8430(3) 0.1719(3)
Cl10 Cl 0.8133(5) 0.9014(3) 0.1628(4)
Cl11 Cl 0.6827(5) 0.8217(5) 0.0492(3)
Cl12 Cl 0.7433(6) 0.7518(3) 0.1620(4)
C105A C 0.2910(19) 1.1682(14) -0.1311(13)
Cl9A Cl 0.3765(4) 1.1570(3) -0.1719(3)
Cl10A Cl 0.1867(5) 1.0986(3) -0.1628(4)
Cl11A Cl 0.3173(5) 1.1783(5) -0.0492(3)
Cl12A Cl 0.2567(6) 1.2482(3) -0.1620(4)
Cl13 Cl 0.8577(11) 0.4759(6) 0.5206(6)
Cl14 Cl 0.9804(6) 0.4010(5) 0.5048(5)
Cl15 Cl 0.8127(8) 0.3052(4) 0.5303(5)
Cl16 Cl 0.8466(5) 0.3707(2) 0.4149(2)
C114 C 0.8532(9) 0.3834(7) 0.5004(7)
C104? C -0.0357(15) 0.7429(11) 0.0360(11)
Cl5? Cl -0.1347(7) 0.7747(7) -0.0059(4)
Cl6? Cl -0.0635(7) 0.6500(6) 0.0451(6)
Cl7? Cl 0.0223(9) 0.7954(7) 0.1108(6)
Cl8? Cl 0.0335(11) 0.7460(9) -0.0241(8)
C106? C 0.568(2) 0.958(2) 0.0552(18)
H50? H 0.5396 0.9170 0.0793
H51? H 0.5760 1.0011 0.0862
C107? C 0.4815(17) 0.9675(14) 0.0092(13)
H52? H 0.4352 0.9358 0.0303
H53? H 0.4856 0.9369 -0.0298
C108? C 0.7355(18) 0.9015(15) 0.1032(16)
H54? H 0.7847 0.9382 0.1334
H55? H 0.7643 0.8920 0.0650
C109? C 0.6667(17) 0.9471(15) 0.0721(15)
H56? H 0.6981 0.9947 0.0962
H57? H 0.6819 0.9515 0.0270
C110? C 0.741(2) 0.8339(18) 0.141(2)
H58? H 0.6882 0.8309 0.1641
H59? H 0.7188 0.7953 0.1040
C111? C 0.4185(18) 1.0125(15) -0.0269(13)
H60? H 0.3803 1.0179 0.0069
H61? H 0.3764 0.9757 -0.0610
C112? C 0.410(3) 1.0807(19) -0.064(2)
H62? H 0.4584 1.1215 -0.0397
H63? H 0.3470 1.0914 -0.0658
H64? H 0.4193 1.0737 -0.1095
C113? C 0.8099(19) 0.8004(16) 0.1901(13)
H65? H 0.8595 0.8390 0.2162
H66? H 0.8386 0.7686 0.1654
H67? H 0.7763 0.7717 0.2206
C115? C 0.8484(10) 0.3831(8) 0.5036(10)
Cl17? Cl 0.9485(3) 0.3974(5) 0.5638(3)
Cl18? Cl 0.7803(6) 0.4448(4) 0.5098(2)
Cl19? Cl 0.847(2) 0.3751(11) 0.4195(13)
Cl20? Cl 0.7753(8) 0.3064(7) 0.5155(6)
loop_
_geom_bond_atom_site_label_1
_geom_bond_atom_site_label_2
_geom_bond_site_symmetry_1
_geom_bond_site_symmetry_2
F1 C42 1_555 1_555
F2 C43 1_555 1_555
F3 C44 1_555 1_555
F4 C45 1_555 1_555
F5 C46 1_555 1_555
F6 C48 1_555 1_555
F7 C49 1_555 1_555
F8 C50 1_555 1_555
F9 C51 1_555 1_555
F10 C52 1_555 1_555
F11 C58 1_555 1_555
F12 C57 1_555 1_555
F13 C56 1_555 1_555
F14 C55 1_555 1_555
F15 C54 1_555 1_555
F16 C60 1_555 1_555
F17 C61 1_555 1_555
F18 C62 1_555 1_555
F19 C63 1_555 1_555
F20 C64 1_555 1_555
F21 C70 1_555 1_555
F22 C69 1_555 1_555
F23 C68 1_555 1_555
F24 C67 1_555 1_555
F25 C66 1_555 1_555
F26 C76 1_555 1_555
F27 C75 1_555 1_555
F28 C74 1_555 1_555
F29 C73 1_555 1_555
F30 C72 1_555 1_555
F31 C82 1_555 1_555
F32 C81 1_555 1_555
F33 C80 1_555 1_555
F34 C79 1_555 1_555
F35 C78 1_555 1_555
N1 C1 1_555 1_555
N2 C6 1_555 1_555
N3 H1 1_555 1_555
N4 C16 1_555 1_555
N5 C21 1_555 1_555
N6 C26 1_555 1_555
N7 H2 1_555 1_555
N8 C36 1_555 1_555
C1 C2 1_555 1_555
C2 H3 1_555 1_555
C3 C2 1_555 1_555
H4 C3 1_555 1_555
C4 N1 1_555 1_555
C5 C4 1_555 1_555
C6 C5 1_555 1_555
C7 C6 1_555 1_555
H5 C7 1_555 1_555
C8 C7 1_555 1_555
H6 C8 1_555 1_555
C9 N2 1_555 1_555
C10 C9 1_555 1_555
C11 N3 1_555 1_555
C12 C11 1_555 1_555
H7 C12 1_555 1_555
C13 C12 1_555 1_555
C14 N3 1_555 1_555
C15 C14 1_555 1_555
C16 C15 1_555 1_555
C17 C16 1_555 1_555
H8 C17 1_555 1_555
C18 C17 1_555 1_555
H9 C18 1_555 1_555
C19 N4 1_555 1_555
C20 C19 1_555 1_555
C21 C20 1_555 1_555
C22 C21 1_555 1_555
H10 C22 1_555 1_555
C23 C22 1_555 1_555
H11 C23 1_555 1_555
C24 N5 1_555 1_555
C25 C24 1_555 1_555
C26 C25 1_555 1_555
C27 C26 1_555 1_555
H12 C27 1_555 1_555
C28 C27 1_555 1_555
H13 C28 1_555 1_555
C29 N6 1_555 1_555
C30 C29 1_555 1_555
C31 N7 1_555 1_555
C32 C31 1_555 1_555
H14 C32 1_555 1_555
C33 C32 1_555 1_555
C34 N7 1_555 1_555
C35 C34 1_555 1_555
C36 C35 1_555 1_555
C37 C36 1_555 1_555
H15 C37 1_555 1_555
C38 C37 1_555 1_555
H16 C38 1_555 1_555
C39 N8 1_555 1_555
C40 C1 1_555 1_555
C41 C10 1_555 1_555
C42 C41 1_555 1_555
C43 C42 1_555 1_555
C44 C43 1_555 1_555
C45 C44 1_555 1_555
C46 C41 1_555 1_555
C47 C15 1_555 1_555
C48 C47 1_555 1_555
C49 C48 1_555 1_555
C50 C49 1_555 1_555
C51 C50 1_555 1_555
C52 C47 1_555 1_555
C53 C20 1_555 1_555
C54 C53 1_555 1_555
C55 C54 1_555 1_555
C56 C55 1_555 1_555
C57 C56 1_555 1_555
C58 C53 1_555 1_555
C59 C25 1_555 1_555
C60 C59 1_555 1_555
C61 C60 1_555 1_555
C62 C61 1_555 1_555
C63 C62 1_555 1_555
C64 C59 1_555 1_555
C65 C30 1_555 1_555
C66 C65 1_555 1_555
C67 C66 1_555 1_555
C68 C67 1_555 1_555
C69 C68 1_555 1_555
C70 C65 1_555 1_555
C71 C35 1_555 1_555
C72 C71 1_555 1_555
C73 C72 1_555 1_555
C74 C73 1_555 1_555
C75 C74 1_555 1_555
C76 C71 1_555 1_555
C77 C40 1_555 1_555
C78 C77 1_555 1_555
C79 C78 1_555 1_555
C80 C79 1_555 1_555
C81 C80 1_555 1_555
C82 C77 1_555 1_555
C83 H17 1_555 1_555
H18 C83 1_555 1_555
H19 C83 1_555 1_555
C84 H20 1_555 1_555
H21 C84 1_555 1_555
H22 C84 1_555 1_555
Si1 N1 1_555 1_555
Si2 N4 1_555 1_555
C85 C5 1_555 1_555
C86 C85 1_555 1_555
C87 C86 1_555 1_555
C88 C87 1_555 1_555
C89 C88 1_555 1_555
C90 C85 1_555 1_555
F36 C86 1_555 1_555
F37 C87 1_555 1_555
F38 C88 1_555 1_555
F39 C89 1_555 1_555
F40 C90 1_555 1_555
C91 H23 1_555 1_555
H24 C91 1_555 1_555
H25 C91 1_555 1_555
C92 C91 1_555 1_555
H26 C92 1_555 1_555
H27 C92 1_555 1_555
C93 C92 1_555 1_555
H28 C93 1_555 1_555
H29 C93 1_555 1_555
C94 C93 1_555 1_555
H30 C94 1_555 1_555
H31 C94 1_555 1_555
C95 C94 1_555 1_555
H32 C95 1_555 1_555
H33 C95 1_555 1_555
C96 C95 1_555 1_555
H34 C96 1_555 1_555
H35 C96 1_555 1_555
C97 C96 1_555 1_555
H36 C97 1_555 1_555
H37 C97 1_555 1_555
C98 C97 1_555 1_555
H38 C98 1_555 1_555
H39 C98 1_555 1_555
H40 C98 1_555 1_555
C99 H41 1_555 1_555
H42 C99 1_555 1_555
C100 C99 1_555 1_555
H43 C100 1_555 1_555
H44 C100 1_555 1_555
C101 C100 1_555 1_555
H45 C101 1_555 1_555
H46 C101 1_555 1_555
C102 C101 1_555 1_555
H47 C102 1_555 1_555
H48 C102 1_555 1_555
H49 C102 1_555 1_555
C103 Cl1 1_555 1_555
Cl2 C103 1_555 1_555
Cl3 C103 1_555 1_555
Cl4 C103 1_555 1_555
C105 Cl9 1_555 1_555
Cl10 C105 1_555 1_555
Cl11 C105 1_555 1_555
Cl12 C105 1_555 1_555
Cl13 C114 1_555 1_555
Cl14 C114 1_555 1_555
Cl15 C114 1_555 1_555
Cl16 C114 1_555 1_555
C99A C99 1_555 1_555
H41A C99A 1_555 1_555
H42A C99A 1_555 1_555
C100A C99A 1_555 1_555
H43A C100A 1_555 1_555
H44A C100A 1_555 1_555
C101A C100A 1_555 1_555
H45A C101A 1_555 1_555
H46A C101A 1_555 1_555
C102A C101A 1_555 1_555
H47A C102A 1_555 1_555
H48A C102A 1_555 1_555
H49A C102A 1_555 1_555
C105A Cl9A 1_555 1_555
Cl10A C105A 1_555 1_555
Cl11A C105A 1_555 1_555
Cl12A C105A 1_555 1_555
N2 Si1 1_555 1_555
N5 Si2 1_555 1_555
N6 Si2 1_555 1_555
N8 Si1 1_555 1_555
C3 C4 1_555 1_555
C8 C9 1_555 1_555
C10 C11 1_555 1_555
C13 C14 1_555 1_555
C13 Si2 1_555 1_555
C18 C19 1_555 1_555
C23 C24 1_555 1_555
C28 C29 1_555 1_555
C30 C31 1_555 1_555
C33 C34 1_555 1_555
C33 Si1 1_555 1_555
C38 C39 1_555 1_555
C39 C40 1_555 1_555
C45 C46 1_555 1_555
C51 C52 1_555 1_555
C57 C58 1_555 1_555
C63 C64 1_555 1_555
C69 C70 1_555 1_555
C75 C76 1_555 1_555
C81 C82 1_555 1_555
C83 Si1 1_555 1_555
C84 Si2 1_555 1_555
C89 C90 1_555 1_555

#END
