
#######################################################################
#
#                 Cambridge Crystallographic Data Centre
#                                CCDC 
#
#######################################################################
#
# If this CIF has been generated from an entry in the Cambridge 
# Structural Database, then it will include bibliographic, chemical, 
# crystal, experimental, refinement or atomic coordinate data resulting 
# from the CCDC's data processing and validation procedures.
#
#######################################################################

data_TEWVEZ
_chemical_formula_moiety         'C14 H19 N7 S1'
_chemical_name_systematic        
4-(hexylsulfanyl)-6-[(pyridin-2-yl)diazenyl]-1,3,5-triazin-2-amine
_symmetry_cell_setting           triclinic
_symmetry_space_group_name_H-M   'P -1'
_symmetry_Int_Tables_number      2
_space_group_name_Hall           '-P 1'
loop_
_symmetry_equiv_pos_site_id
_symmetry_equiv_pos_as_xyz
1 x,y,z
2 -x,-y,-z
_cell_length_a                   7.5968(9)
_cell_length_b                   10.8490(10)
_cell_length_c                   13.2133(17)
_cell_angle_alpha                66.494(7)
_cell_angle_beta                 83.486(6)
_cell_angle_gamma                71.772(5)
_cell_volume                     948.449
_exptl_crystal_colour            gold
_exptl_crystal_description       prism
_cell_formula_units_Z            2
loop_
_atom_site_label
_atom_site_type_symbol
_atom_site_fract_x
_atom_site_fract_y
_atom_site_fract_z
N1 N 1.31586(16) 0.64109(13) 0.70857(9)
C1 C 1.4217(2) 0.69260(16) 0.74576(13)
H1 H 1.498(2) 0.7380(18) 0.6935(15)
C2 C 1.4203(2) 0.68282(16) 0.85320(12)
H2 H 1.499(2) 0.7209(18) 0.8751(15)
C3 C 1.3054(2) 0.61542(15) 0.92810(12)
H3 H 1.301(2) 0.6111(17) 1.0009(15)
C4 C 1.19609(19) 0.56072(15) 0.89222(11)
H4 H 1.118(2) 0.5129(16) 0.9381(14)
C5 C 1.20444(18) 0.57771(13) 0.78234(11)
N2 N 1.09674(16) 0.52608(12) 0.73526(9)
N3 N 0.97438(16) 0.48340(12) 0.79554(9)
C6 C 0.86916(18) 0.43202(14) 0.74479(10)
N4 N 0.75772(15) 0.36777(12) 0.81559(9)
C7 C 0.65551(18) 0.32169(13) 0.76892(11)
N5 N 0.65857(15) 0.33593(11) 0.66461(9)
C8 C 0.78037(18) 0.40321(13) 0.60161(11)
N6 N 0.89065(16) 0.45382(12) 0.63884(9)
N7 N 0.79406(19) 0.42034(14) 0.49641(10)
H5 H 0.879(3) 0.4564(18) 0.4579(15)
H6 H 0.720(2) 0.3922(18) 0.4707(15)
S1 S 0.51031(4) 0.23564(3) 0.86305(3)
C9 C 0.39007(19) 0.19019(15) 0.77854(12)
H7 H 0.323(2) 0.2777(17) 0.7206(14)
H8 H 0.484(2) 0.1304(17) 0.7466(14)
C10 C 0.25793(19) 0.11178(15) 0.85138(12)
H9 H 0.328(2) 0.0270(17) 0.9111(14)
H10 H 0.166(2) 0.1708(16) 0.8847(13)
C11 C 0.1562(2) 0.06577(15) 0.78651(12)
H11 H 0.248(2) 0.0077(17) 0.7521(14)
H12 H 0.086(2) 0.1468(18) 0.7276(15)
C12 C 0.0238(2) -0.01482(15) 0.85574(13)
H13 H 0.093(2) -0.0979(17) 0.9160(14)
H14 H -0.069(2) 0.0435(16) 0.8910(13)
C13 C -0.0772(2) -0.05695(17) 0.78771(14)
H15 H 0.014(2) -0.1100(18) 0.7499(15)
H16 H -0.148(2) 0.0298(19) 0.7265(16)
C14 C -0.2078(3) -0.1406(2) 0.85440(19)
H17 H -0.141(3) -0.226(2) 0.9172(17)
H18 H -0.262(3) -0.165(2) 0.809(2)
H19 H -0.311(3) -0.0856(19) 0.8888(16)
loop_
_geom_bond_atom_site_label_1
_geom_bond_atom_site_label_2
_geom_bond_site_symmetry_1
_geom_bond_site_symmetry_2
N1 C1 1_555 1_555
C1 H1 1_555 1_555
C2 C1 1_555 1_555
H2 C2 1_555 1_555
C3 C2 1_555 1_555
H3 C3 1_555 1_555
C4 C3 1_555 1_555
H4 C4 1_555 1_555
C5 N1 1_555 1_555
N2 C5 1_555 1_555
N3 N2 1_555 1_555
C6 N3 1_555 1_555
N4 C6 1_555 1_555
C7 N4 1_555 1_555
N5 C7 1_555 1_555
C8 N5 1_555 1_555
N6 C6 1_555 1_555
N7 C8 1_555 1_555
H5 N7 1_555 1_555
H6 N7 1_555 1_555
S1 C7 1_555 1_555
C9 S1 1_555 1_555
H7 C9 1_555 1_555
H8 C9 1_555 1_555
C10 C9 1_555 1_555
H9 C10 1_555 1_555
H10 C10 1_555 1_555
C11 C10 1_555 1_555
H11 C11 1_555 1_555
H12 C11 1_555 1_555
C12 C11 1_555 1_555
H13 C12 1_555 1_555
H14 C12 1_555 1_555
C13 C12 1_555 1_555
H15 C13 1_555 1_555
H16 C13 1_555 1_555
C14 C13 1_555 1_555
H17 C14 1_555 1_555
H18 C14 1_555 1_555
H19 C14 1_555 1_555
C4 C5 1_555 1_555
C8 N6 1_555 1_555

#END
