
#######################################################################
#
#                 Cambridge Crystallographic Data Centre
#                                CCDC 
#
#######################################################################
#
# If this CIF has been generated from an entry in the Cambridge 
# Structural Database, then it will include bibliographic, chemical, 
# crystal, experimental, refinement or atomic coordinate data resulting 
# from the CCDC's data processing and validation procedures.
#
#######################################################################

data_TEWVOJ
_chemical_formula_moiety         'C16 H23 N7 O1'
_chemical_name_systematic        
4-(octyloxy)-6-[(pyridin-2-yl)diazenyl]-1,3,5-triazin-2-amine
_symmetry_cell_setting           triclinic
_symmetry_space_group_name_H-M   'P -1'
_symmetry_Int_Tables_number      2
_space_group_name_Hall           '-P 1'
loop_
_symmetry_equiv_pos_site_id
_symmetry_equiv_pos_as_xyz
1 x,y,z
2 -x,-y,-z
_cell_length_a                   13.101(3)
_cell_length_b                   13.726(4)
_cell_length_c                   15.153(5)
_cell_angle_alpha                83.268(10)
_cell_angle_beta                 82.181(11)
_cell_angle_gamma                74.493(10)
_cell_volume                     2591.93
_exptl_crystal_colour            red
_exptl_crystal_description       prism
_cell_formula_units_Z            6
loop_
_atom_site_label
_atom_site_type_symbol
_atom_site_fract_x
_atom_site_fract_y
_atom_site_fract_z
N1 N 0.84567(8) -0.21174(8) 0.40853(8)
C1 C 0.92898(11) -0.28719(10) 0.38270(10)
H1 H 0.9114(12) -0.3423(12) 0.3574(10)
C2 C 1.03383(10) -0.28960(10) 0.39150(10)
H2 H 1.0883(14) -0.3431(14) 0.3690(12)
C3 C 1.05435(9) -0.21118(10) 0.43072(9)
H3 H 1.1239(13) -0.2104(12) 0.4380(10)
C4 C 0.96959(9) -0.13240(10) 0.45769(9)
H4 H 0.9801(12) -0.0771(12) 0.4873(10)
C5 C 0.86746(9) -0.13593(9) 0.44434(8)
N2 N 0.77307(8) -0.05904(8) 0.46749(8)
N3 N 0.78820(8) 0.01527(8) 0.49787(7)
C6 C 0.68994(9) 0.09043(9) 0.52011(8)
N4 N 0.59721(7) 0.06910(7) 0.51829(7)
C7 C 0.51141(9) 0.14550(9) 0.54242(8)
N5 N 0.41580(8) 0.13080(9) 0.54177(8)
H5 H 0.4097(12) 0.0720(12) 0.5264(10)
H6 H 0.3587(14) 0.1781(13) 0.5620(11)
N6 N 0.51782(8) 0.23532(8) 0.56731(7)
C8 C 0.61615(9) 0.24479(9) 0.56426(8)
N7 N 0.70694(7) 0.17519(8) 0.54150(7)
O1 O 0.63227(6) 0.32992(6) 0.58611(6)
C9 C 0.53953(10) 0.40905(9) 0.61433(10)
H7 H 0.5081(12) 0.3828(12) 0.6722(11)
H8 H 0.4895(12) 0.4244(11) 0.5689(10)
C10 C 0.57804(10) 0.50070(9) 0.62485(9)
H9 H 0.6150(11) 0.5206(11) 0.5679(10)
H10 H 0.6297(12) 0.4808(11) 0.6678(10)
C11 C 0.48665(10) 0.58828(9) 0.65510(9)
H11 H 0.4498(12) 0.5663(12) 0.7123(11)
H12 H 0.4339(13) 0.6070(12) 0.6078(11)
C12 C 0.52323(10) 0.68152(10) 0.66849(9)
H13 H 0.5711(12) 0.6636(11) 0.7163(10)
H14 H 0.5651(12) 0.7024(11) 0.6108(10)
C13 C 0.43214(10) 0.77048(10) 0.69655(9)
H15 H 0.3890(12) 0.7478(11) 0.7518(10)
H16 H 0.3824(12) 0.7923(11) 0.6490(10)
C14 C 0.46831(10) 0.86161(10) 0.71670(9)
H17 H 0.5161(12) 0.8395(11) 0.7664(10)
H18 H 0.5107(11) 0.8853(11) 0.6622(10)
C15 C 0.37652(11) 0.94844(11) 0.74803(11)
H19 H 0.3323(14) 0.9214(13) 0.8000(12)
H20 H 0.3324(12) 0.9755(11) 0.6974(10)
C16 C 0.41288(15) 1.03425(12) 0.77865(13)
H21 H 0.4636(15) 1.0061(14) 0.8265(13)
H22 H 0.3569(17) 1.0864(17) 0.8047(15)
H23 H 0.4523(15) 1.0651(14) 0.7287(13)
N8 N 0.45735(9) 0.82620(9) 0.96399(8)
C17 C 0.37501(11) 0.90324(11) 0.98844(9)
H24 H 0.3941(13) 0.9648(13) 0.9994(11)
C18 C 0.26986(11) 0.89864(11) 0.99675(9)
H25 H 0.2168(14) 0.9580(14) 1.0117(12)
C19 C 0.24726(10) 0.80989(11) 0.98011(9)
H26 H 0.1737(14) 0.8023(12) 0.9866(11)
C20 C 0.33060(10) 0.72914(10) 0.95455(9)
H27 H 0.3196(12) 0.6646(12) 0.9436(10)
C21 C 0.43350(10) 0.74160(10) 0.94761(9)
N9 N 0.52687(8) 0.66640(9) 0.91867(8)
N10 N 0.51049(8) 0.58417(9) 0.90993(8)
C22 C 0.60628(9) 0.51027(10) 0.87978(9)
N11 N 0.70056(8) 0.53006(8) 0.87622(7)
C23 C 0.78360(9) 0.45338(9) 0.84851(8)
N12 N 0.88056(8) 0.46676(9) 0.84566(8)
H28 H 0.8892(13) 0.5195(13) 0.8640(11)
H29 H 0.9458(12) 0.4072(12) 0.8246(10)
N13 N 0.77306(8) 0.36494(8) 0.82259(7)
C24 C 0.67359(9) 0.35817(9) 0.83009(8)
N14 N 0.58508(8) 0.42757(8) 0.85909(8)
O2 O 0.65126(7) 0.27584(7) 0.80783(6)
C25 C 0.73818(9) 0.19392(10) 0.77707(9)
H30 H 0.7871(11) 0.1762(11) 0.8220(10)
H31 H 0.7710(12) 0.2172(12) 0.7195(11)
C26 C 0.69208(10) 0.10611(9) 0.76838(9)
H32 H 0.6443(11) 0.1259(10) 0.7222(9)
H33 H 0.6497(12) 0.0914(11) 0.8265(10)
C27 C 0.77947(10) 0.01345(10) 0.74226(9)
H34 H 0.8224(12) -0.0073(12) 0.7921(11)
H35 H 0.8232(12) 0.0344(11) 0.6847(10)
C28 C 0.73785(10) -0.07589(10) 0.72521(9)
H36 H 0.6952(11) -0.0963(11) 0.7774(10)
H37 H 0.6897(12) -0.0543(12) 0.6754(10)
C29 C 0.82714(10) -0.16692(10) 0.69891(9)
H38 H 0.8673(13) -0.1908(12) 0.7478(12)
H39 H 0.8745(12) -0.1423(11) 0.6489(10)
C30 C 0.78981(10) -0.25292(10) 0.66930(10)
H40 H 0.7434(14) -0.2771(13) 0.7182(12)
H41 H 0.7415(12) -0.2246(12) 0.6196(10)
C31 C 0.88162(11) -0.34013(11) 0.63843(11)
H42 H 0.9231(13) -0.3708(13) 0.6909(12)
H43 H 0.9265(13) -0.3122(12) 0.5904(11)
C32 C 0.84572(15) -0.42285(13) 0.60252(14)
H44 H 0.8006(15) -0.4559(14) 0.6507(13)
H45 H 0.9065(16) -0.4766(16) 0.5775(14)
H46 H 0.7980(15) -0.3959(14) 0.5515(13)
N15 N 1.14377(8) 0.38286(8) 0.82779(8)
C33 C 1.22869(11) 0.31393(11) 0.79463(10)
H47 H 1.2113(13) 0.2651(13) 0.7601(12)
C34 C 1.33217(11) 0.30957(11) 0.80903(11)
H48 H 1.3878(15) 0.2616(14) 0.7821(12)
C35 C 1.34975(10) 0.37883(10) 0.86067(10)
H49 H 1.4199(14) 0.3777(13) 0.8738(11)
C36 C 1.26292(10) 0.45151(10) 0.89544(9)
H50 H 1.2713(12) 0.4994(12) 0.9303(10)
C37 C 1.16271(9) 0.45062(9) 0.87601(8)
N16 N 1.06662(8) 0.52277(8) 0.90483(7)
N17 N 1.08094(8) 0.60024(8) 0.93111(7)
C38 C 0.98140(9) 0.67243(9) 0.95647(8)
N18 N 0.89399(8) 0.66624(8) 0.92589(7)
C39 C 0.80636(10) 0.74236(9) 0.94952(8)
N19 N 0.71540(9) 0.74123(9) 0.92211(8)
H51 H 0.7130(13) 0.6822(13) 0.9009(11)
H52 H 0.6558(16) 0.7896(16) 0.9479(14)
N20 N 0.80798(8) 0.81822(8) 0.99868(8)
C40 C 0.90086(10) 0.80935(10) 1.02775(9)
N21 N 0.99300(8) 0.74060(8) 1.00753(7)
O3 O 0.89828(7) 0.87945(7) 1.08340(7)
C41 C 0.99119(11) 0.86732(12) 1.12978(10)
H53 H 1.0185(13) 0.7942(14) 1.1471(11)
H54 H 1.0442(13) 0.8968(12) 1.0833(11)
C42 C 0.95683(11) 0.92952(11) 1.20955(9)
H55 H 0.8967(13) 0.9082(12) 1.2454(11)
H56 H 1.0131(12) 0.9072(12) 1.2493(10)
C43 C 0.92983(10) 1.04325(10) 1.18754(9)
H57 H 0.9911(12) 1.0643(11) 1.1492(10)
H58 H 0.8674(13) 1.0660(12) 1.1511(11)
C44 C 0.90222(10) 1.10198(10) 1.27058(9)
H59 H 0.9609(12) 1.0763(11) 1.3087(10)
H60 H 0.8401(12) 1.0833(11) 1.3082(10)
C45 C 0.87730(10) 1.21626(10) 1.25097(9)
H61 H 0.9377(12) 1.2368(12) 1.2131(11)
H62 H 0.8171(14) 1.2420(13) 1.2136(12)
C46 C 0.85143(11) 1.27338(10) 1.33475(9)
H63 H 0.7897(13) 1.2530(12) 1.3736(11)
H64 H 0.9154(14) 1.2503(13) 1.3699(12)
C47 C 0.82462(11) 1.38787(11) 1.31601(10)
H65 H 0.8865(14) 1.4078(13) 1.2747(12)
H66 H 0.7624(14) 1.4127(13) 1.2794(12)
C48 C 0.80137(15) 1.44447(13) 1.39993(12)
H67 H 0.8654(16) 1.4258(15) 1.4343(13)
H68 H 0.7766(15) 1.5205(15) 1.3886(12)
H69 H 0.7386(16) 1.4272(14) 1.4393(13)
loop_
_geom_bond_atom_site_label_1
_geom_bond_atom_site_label_2
_geom_bond_site_symmetry_1
_geom_bond_site_symmetry_2
N1 C1 1_555 1_555
C1 H1 1_555 1_555
C2 C1 1_555 1_555
H2 C2 1_555 1_555
C3 C2 1_555 1_555
H3 C3 1_555 1_555
C4 C3 1_555 1_555
H4 C4 1_555 1_555
C5 N1 1_555 1_555
N2 C5 1_555 1_555
N3 N2 1_555 1_555
C6 N3 1_555 1_555
N4 C6 1_555 1_555
C7 N4 1_555 1_555
N5 C7 1_555 1_555
H5 N5 1_555 1_555
H6 N5 1_555 1_555
N6 C7 1_555 1_555
C8 N6 1_555 1_555
N7 C6 1_555 1_555
O1 C8 1_555 1_555
C9 O1 1_555 1_555
H7 C9 1_555 1_555
H8 C9 1_555 1_555
C10 C9 1_555 1_555
H9 C10 1_555 1_555
H10 C10 1_555 1_555
C11 C10 1_555 1_555
H11 C11 1_555 1_555
H12 C11 1_555 1_555
C12 C11 1_555 1_555
H13 C12 1_555 1_555
H14 C12 1_555 1_555
C13 C12 1_555 1_555
H15 C13 1_555 1_555
H16 C13 1_555 1_555
C14 C13 1_555 1_555
H17 C14 1_555 1_555
H18 C14 1_555 1_555
C15 C14 1_555 1_555
H19 C15 1_555 1_555
H20 C15 1_555 1_555
C16 C15 1_555 1_555
H21 C16 1_555 1_555
H22 C16 1_555 1_555
H23 C16 1_555 1_555
N8 C17 1_555 1_555
C17 H24 1_555 1_555
C18 C17 1_555 1_555
H25 C18 1_555 1_555
C19 C18 1_555 1_555
H26 C19 1_555 1_555
C20 C19 1_555 1_555
H27 C20 1_555 1_555
C21 N8 1_555 1_555
N9 C21 1_555 1_555
N10 N9 1_555 1_555
C22 N10 1_555 1_555
N11 C22 1_555 1_555
C23 N11 1_555 1_555
N12 C23 1_555 1_555
H28 N12 1_555 1_555
H29 N12 1_555 1_555
N13 C23 1_555 1_555
C24 N13 1_555 1_555
N14 C22 1_555 1_555
O2 C24 1_555 1_555
C25 O2 1_555 1_555
H30 C25 1_555 1_555
H31 C25 1_555 1_555
C26 C25 1_555 1_555
H32 C26 1_555 1_555
H33 C26 1_555 1_555
C27 C26 1_555 1_555
H34 C27 1_555 1_555
H35 C27 1_555 1_555
C28 C27 1_555 1_555
H36 C28 1_555 1_555
H37 C28 1_555 1_555
C29 C28 1_555 1_555
H38 C29 1_555 1_555
H39 C29 1_555 1_555
C30 C29 1_555 1_555
H40 C30 1_555 1_555
H41 C30 1_555 1_555
C31 C30 1_555 1_555
H42 C31 1_555 1_555
H43 C31 1_555 1_555
C32 C31 1_555 1_555
H44 C32 1_555 1_555
H45 C32 1_555 1_555
H46 C32 1_555 1_555
N15 C33 1_555 1_555
C33 H47 1_555 1_555
C34 C33 1_555 1_555
H48 C34 1_555 1_555
C35 C34 1_555 1_555
H49 C35 1_555 1_555
C36 C35 1_555 1_555
H50 C36 1_555 1_555
C37 N15 1_555 1_555
N16 C37 1_555 1_555
N17 N16 1_555 1_555
C38 N17 1_555 1_555
N18 C38 1_555 1_555
C39 N18 1_555 1_555
N19 C39 1_555 1_555
H51 N19 1_555 1_555
H52 N19 1_555 1_555
N20 C39 1_555 1_555
C40 N20 1_555 1_555
N21 C38 1_555 1_555
O3 C40 1_555 1_555
C41 O3 1_555 1_555
H53 C41 1_555 1_555
H54 C41 1_555 1_555
C42 C41 1_555 1_555
H55 C42 1_555 1_555
H56 C42 1_555 1_555
C43 C42 1_555 1_555
H57 C43 1_555 1_555
H58 C43 1_555 1_555
C44 C43 1_555 1_555
H59 C44 1_555 1_555
H60 C44 1_555 1_555
C45 C44 1_555 1_555
H61 C45 1_555 1_555
H62 C45 1_555 1_555
C46 C45 1_555 1_555
H63 C46 1_555 1_555
H64 C46 1_555 1_555
C47 C46 1_555 1_555
H65 C47 1_555 1_555
H66 C47 1_555 1_555
C48 C47 1_555 1_555
H67 C48 1_555 1_555
H68 C48 1_555 1_555
H69 C48 1_555 1_555
C4 C5 1_555 1_555
C8 N7 1_555 1_555
C20 C21 1_555 1_555
C24 N14 1_555 1_555
C36 C37 1_555 1_555
C40 N21 1_555 1_555

#END
