
#######################################################################
#
#                 Cambridge Crystallographic Data Centre
#                                CCDC 
#
#######################################################################
#
# If this CIF has been generated from an entry in the Cambridge 
# Structural Database, then it will include bibliographic, chemical, 
# crystal, experimental, refinement or atomic coordinate data resulting 
# from the CCDC's data processing and validation procedures.
#
#######################################################################

data_TEWZUR
_chemical_formula_moiety         'C16 H24 N2 O4'
_chemical_name_systematic        
syn,syn-N,N'-Di-n-butyl-4,6-dihydroxyisophthalamide
_chemical_properties_biological  
'potent anion binder and effective trans-membrane transporter of chloride ions'
_symmetry_cell_setting           monoclinic
_symmetry_space_group_name_H-M   'P 21/n'
_symmetry_Int_Tables_number      14
_space_group_name_Hall           '-P 2yn'
loop_
_symmetry_equiv_pos_site_id
_symmetry_equiv_pos_as_xyz
1 x,y,z
2 1/2-x,1/2+y,1/2-z
3 -x,-y,-z
4 1/2+x,1/2-y,1/2+z
_cell_length_a                   14.7447(6)
_cell_length_b                   21.1430(9)
_cell_length_c                   15.9540(7)
_cell_angle_alpha                90
_cell_angle_beta                 101.983(2)
_cell_angle_gamma                90
_cell_volume                     4865.24
_exptl_crystal_colour            colorless
_exptl_crystal_description       Block
_cell_formula_units_Z            12
_exptl_crystal_recrystallization_method 'diethyl ether'
loop_
_atom_site_label
_atom_site_type_symbol
_atom_site_fract_x
_atom_site_fract_y
_atom_site_fract_z
N1 N 0.3979(2) -0.01215(16) 0.8183(2)
H1 H 0.4126 -0.0525 0.8242
N2 N 0.4924(3) -0.19907(15) 1.0127(3)
H2 H 0.4972 -0.1784 0.9659
O1 O 0.35427(19) 0.07633(12) 0.87673(19)
O2 O 0.3293(2) 0.07952(13) 1.0315(2)
H3 H 0.3303 0.0940 0.9826
O3 O 0.3835(2) -0.10341(16) 1.1983(2)
H4 H 0.4007 -0.1412 1.1966
O4 O 0.4380(2) -0.20375(14) 1.1345(2)
C1 C 0.4449(5) 0.0550(4) 0.5700(5)
H5 H 0.4323 0.0900 0.6062
H6 H 0.4350 0.0692 0.5104
H7 H 0.5093 0.0411 0.5891
C2 C 0.3796(4) 0.0000(3) 0.5769(4)
H8 H 0.3149 0.0151 0.5594
H9 H 0.3889 -0.0333 0.5358
C3 C 0.3918(4) -0.0293(2) 0.6645(3)
H10 H 0.4496 -0.0545 0.6757
H11 H 0.3396 -0.0586 0.6649
C4 C 0.3961(3) 0.0180(2) 0.7364(3)
H12 H 0.4524 0.0444 0.7407
H13 H 0.3415 0.0463 0.7226
C5 C 0.3781(3) 0.01863(19) 0.8846(3)
C6 C 0.3808(3) -0.01421(18) 0.9663(3)
C7 C 0.3564(3) 0.0185(2) 1.0358(3)
C8 C 0.3588(3) -0.0129(2) 1.1125(3)
H14 H 0.3423 0.0093 1.1589
C9 C 0.3846(3) -0.0752(2) 1.1230(3)
C10 C 0.4133(3) -0.10841(19) 1.0557(3)
C11 C 0.4086(3) -0.07661(18) 0.9799(3)
H15 H 0.4256 -0.0988 0.9338
C12 C 0.4480(3) -0.1733(2) 1.0695(3)
C17 C 0.5348(9) -0.2619(5) 1.0178(12)
H25 H 0.4976 -0.2893 0.9732
H26 H 0.5333 -0.2807 1.0743
C18 C 0.6342(5) -0.2607(3) 1.0058(6)
H27 H 0.6688 -0.2276 1.0433
H28 H 0.6346 -0.2492 0.9458
C19 C 0.6842(7) -0.3251(4) 1.0269(8)
H29 H 0.7509 -0.3207 1.0260
H30 H 0.6787 -0.3395 1.0847
C20 C 0.6391(9) -0.3727(5) 0.9598(9)
H31 H 0.5778 -0.3841 0.9697
H32 H 0.6778 -0.4106 0.9636
H33 H 0.6324 -0.3540 0.9026
N3 N 0.5484(2) -0.21079(16) 0.7530(2)
H34 H 0.5440 -0.2462 0.7235
N4 N 0.0617(2) -0.22035(15) 0.7818(2)
H35 H 0.0523 -0.2535 0.7477
O5 O 0.47909(19) -0.14142(13) 0.8266(2)
O6 O 0.44771(18) -0.31237(12) 0.6914(2)
H36 H 0.4319 -0.3473 0.6678
O7 O 0.13413(19) -0.32233(13) 0.7190(2)
H37 H 0.1392 -0.3570 0.6946
O8 O 0.16794(19) -0.15289(13) 0.85545(19)
C21 C 0.7207(3) -0.0261(2) 0.6719(3)
H38 H 0.6991 -0.0341 0.6105
H39 H 0.7819 -0.0060 0.6817
H40 H 0.6768 0.0020 0.6920
C22 C 0.7273(3) -0.0880(2) 0.7204(3)
H41 H 0.7544 -0.0801 0.7816
H42 H 0.7696 -0.1169 0.6980
C23 C 0.6337(3) -0.1200(2) 0.7129(3)
H43 H 0.5892 -0.0889 0.7274
H44 H 0.6107 -0.1330 0.6526
C24 C 0.6356(3) -0.17651(19) 0.7691(3)
H45 H 0.6856 -0.2053 0.7598
H46 H 0.6504 -0.1628 0.8297
C25 C 0.4748(3) -0.19057(19) 0.7814(3)
C26 C 0.3865(3) -0.22774(19) 0.7608(3)
C27 C 0.3745(3) -0.28594(18) 0.7168(3)
C28 C 0.2902(3) -0.31553(18) 0.7027(3)
H47 H 0.2831 -0.3547 0.6729
C29 C 0.2153(3) -0.29045(18) 0.7301(3)
C30 C 0.2231(3) -0.23165(18) 0.7726(3)
C31 C 0.3089(3) -0.20299(18) 0.7867(3)
H48 H 0.3157 -0.1636 0.8160
C32 C 0.1481(3) -0.19919(19) 0.8060(3)
C33 C -0.0187(3) -0.1923(2) 0.8078(4)
H49 H -0.0591 -0.1729 0.7569
H50 H 0.0029 -0.1581 0.8495
C34 C -0.0749(4) -0.2381(2) 0.8470(4)
H51 H -0.0905 -0.2751 0.8089
H52 H -0.1336 -0.2177 0.8533
C35 C -0.0215(5) -0.2601(4) 0.9351(6)
H53 H 0.0289 -0.2883 0.9253
H54 H 0.0085 -0.2224 0.9657
C36 C -0.0692(6) -0.2922(5) 0.9921(6)
H55 H -0.1183 -0.2649 1.0048
H56 H -0.0253 -0.3025 1.0454
H57 H -0.0966 -0.3313 0.9651
N5 N 0.6352(2) -0.48904(15) 0.3466(2)
H58 H 0.6416 -0.4479 0.3542
N6 N 0.6974(2) -0.30246(15) 0.5481(2)
H59 H 0.7003 -0.3204 0.4990
O9 O 0.61134(19) -0.58386(12) 0.40208(19)
O10 O 0.58703(19) -0.59463(12) 0.55574(19)
H60 H 0.5919 -0.6064 0.5066
O11 O 0.6093(2) -0.41632(13) 0.7300(2)
H61 H 0.6216 -0.3775 0.7307
O12 O 0.6604(2) -0.31113(13) 0.6769(2)
C37 C 0.4682(4) -0.4805(3) 0.1199(4)
H62 H 0.4915 -0.4953 0.0701
H63 H 0.4088 -0.4589 0.1004
H64 H 0.4595 -0.5168 0.1557
C38 C 0.5368(4) -0.4355(2) 0.1712(4)
H65 H 0.5399 -0.3968 0.1368
H66 H 0.5147 -0.4230 0.2233
C39 C 0.6321(3) -0.4632(2) 0.1970(3)
H67 H 0.6762 -0.4292 0.2207
H68 H 0.6511 -0.4803 0.1455
C40 C 0.6380(3) -0.5152(2) 0.2628(3)
H69 H 0.5856 -0.5449 0.2451
H70 H 0.6964 -0.5391 0.2662
C41 C 0.6233(3) -0.52477(19) 0.4122(3)
C42 C 0.6243(3) -0.49581(18) 0.4958(3)
C43 C 0.6036(3) -0.53220(19) 0.5639(3)
C44 C 0.5989(3) -0.50423(19) 0.6409(3)
H71 H 0.5833 -0.5291 0.6855
C45 C 0.6166(3) -0.4409(2) 0.6542(3)
C46 C 0.6412(3) -0.40295(18) 0.5897(3)
C47 C 0.6432(3) -0.43219(18) 0.5119(3)
H72 H 0.6584 -0.4072 0.4673
C48 C 0.6662(3) -0.33620(19) 0.6075(3)
C49 C 0.7263(3) -0.23695(18) 0.5629(3)
H73 H 0.7771 -0.2343 0.6142
H74 H 0.6737 -0.2113 0.5736
C50 C 0.7591(3) -0.21101(19) 0.4863(3)
H75 H 0.7058 -0.2082 0.4372
H76 H 0.8048 -0.2406 0.4704
C51 C 0.8035(4) -0.1458(2) 0.5036(3)
H77 H 0.7584 -0.1167 0.5214
H78 H 0.8579 -0.1491 0.5515
C52 C 0.8341(4) -0.1182(2) 0.4259(3)
H79 H 0.8813 -0.1456 0.4098
H80 H 0.8602 -0.0759 0.4399
H81 H 0.7806 -0.1152 0.3780
C13? C 0.5319(19) -0.2608(8) 1.0293(18)
H16? H 0.4816 -0.2926 1.0230
H17? H 0.5680 -0.2629 1.0889
C14? C 0.5952(10) -0.2762(6) 0.9671(10)
H18? H 0.5576 -0.2793 0.9081
H19? H 0.6408 -0.2417 0.9683
C15? C 0.6463(14) -0.3386(8) 0.9916(12)
H20? H 0.6918 -0.3338 1.0464
H21? H 0.6017 -0.3722 0.9987
C16? C 0.6960(14) -0.3562(9) 0.9198(13)
H22? H 0.6501 -0.3683 0.8686
H23? H 0.7379 -0.3919 0.9382
H24? H 0.7317 -0.3199 0.9065
loop_
_geom_bond_atom_site_label_1
_geom_bond_atom_site_label_2
_geom_bond_site_symmetry_1
_geom_bond_site_symmetry_2
N1 H1 1_555 1_555
N2 H2 1_555 1_555
O1 C5 1_555 1_555
O2 H3 1_555 1_555
O3 H4 1_555 1_555
O4 C12 1_555 1_555
C1 H5 1_555 1_555
H6 C1 1_555 1_555
H7 C1 1_555 1_555
C2 C1 1_555 1_555
H8 C2 1_555 1_555
H9 C2 1_555 1_555
C3 C2 1_555 1_555
H10 C3 1_555 1_555
H11 C3 1_555 1_555
C4 N1 1_555 1_555
H12 C4 1_555 1_555
H13 C4 1_555 1_555
C5 N1 1_555 1_555
C6 C5 1_555 1_555
C7 O2 1_555 1_555
C8 C7 1_555 1_555
H14 C8 1_555 1_555
C9 O3 1_555 1_555
C10 C9 1_555 1_555
C11 C6 1_555 1_555
H15 C11 1_555 1_555
C12 N2 1_555 1_555
C17 N2 1_555 1_555
H25 C17 1_555 1_555
H26 C17 1_555 1_555
C18 C17 1_555 1_555
H27 C18 1_555 1_555
H28 C18 1_555 1_555
C19 C18 1_555 1_555
H29 C19 1_555 1_555
H30 C19 1_555 1_555
C20 C19 1_555 1_555
H31 C20 1_555 1_555
H32 C20 1_555 1_555
H33 C20 1_555 1_555
N3 H34 1_555 1_555
N4 H35 1_555 1_555
O5 C25 1_555 1_555
O6 H36 1_555 1_555
O7 H37 1_555 1_555
O8 C32 1_555 1_555
C21 H38 1_555 1_555
H39 C21 1_555 1_555
H40 C21 1_555 1_555
C22 C21 1_555 1_555
H41 C22 1_555 1_555
H42 C22 1_555 1_555
C23 C22 1_555 1_555
H43 C23 1_555 1_555
H44 C23 1_555 1_555
C24 N3 1_555 1_555
H45 C24 1_555 1_555
H46 C24 1_555 1_555
C25 N3 1_555 1_555
C26 C25 1_555 1_555
C27 O6 1_555 1_555
C28 C27 1_555 1_555
H47 C28 1_555 1_555
C29 O7 1_555 1_555
C30 C29 1_555 1_555
C31 C26 1_555 1_555
H48 C31 1_555 1_555
C32 N4 1_555 1_555
C33 N4 1_555 1_555
H49 C33 1_555 1_555
H50 C33 1_555 1_555
C34 C33 1_555 1_555
H51 C34 1_555 1_555
H52 C34 1_555 1_555
C35 C34 1_555 1_555
H53 C35 1_555 1_555
H54 C35 1_555 1_555
C36 C35 1_555 1_555
H55 C36 1_555 1_555
H56 C36 1_555 1_555
H57 C36 1_555 1_555
N5 H58 1_555 1_555
N6 H59 1_555 1_555
O9 C41 1_555 1_555
O10 H60 1_555 1_555
O11 H61 1_555 1_555
O12 C48 1_555 1_555
C37 H62 1_555 1_555
H63 C37 1_555 1_555
H64 C37 1_555 1_555
C38 C37 1_555 1_555
H65 C38 1_555 1_555
H66 C38 1_555 1_555
C39 C38 1_555 1_555
H67 C39 1_555 1_555
H68 C39 1_555 1_555
C40 N5 1_555 1_555
H69 C40 1_555 1_555
H70 C40 1_555 1_555
C41 N5 1_555 1_555
C42 C41 1_555 1_555
C43 O10 1_555 1_555
C44 C43 1_555 1_555
H71 C44 1_555 1_555
C45 O11 1_555 1_555
C46 C45 1_555 1_555
C47 C42 1_555 1_555
H72 C47 1_555 1_555
C48 N6 1_555 1_555
C49 N6 1_555 1_555
H73 C49 1_555 1_555
H74 C49 1_555 1_555
C50 C49 1_555 1_555
H75 C50 1_555 1_555
H76 C50 1_555 1_555
C51 C50 1_555 1_555
H77 C51 1_555 1_555
H78 C51 1_555 1_555
C52 C51 1_555 1_555
H79 C52 1_555 1_555
H80 C52 1_555 1_555
H81 C52 1_555 1_555
C3 C4 1_555 1_555
C6 C7 1_555 1_555
C8 C9 1_555 1_555
C10 C11 1_555 1_555
C10 C12 1_555 1_555
C23 C24 1_555 1_555
C26 C27 1_555 1_555
C28 C29 1_555 1_555
C30 C31 1_555 1_555
C30 C32 1_555 1_555
C39 C40 1_555 1_555
C42 C43 1_555 1_555
C44 C45 1_555 1_555
C46 C47 1_555 1_555
C46 C48 1_555 1_555

#END
