
#######################################################################
#
#                 Cambridge Crystallographic Data Centre
#                                CCDC 
#
#######################################################################
#
# If this CIF has been generated from an entry in the Cambridge 
# Structural Database, then it will include bibliographic, chemical, 
# crystal, experimental, refinement or atomic coordinate data resulting 
# from the CCDC's data processing and validation procedures.
#
#######################################################################

data_TEXGUB
_chemical_formula_moiety         'C30 H28'
_chemical_name_systematic        
1,1'-[2,2-bis(3,5-dimethylphenyl)ethene-1,1-diyl]dibenzene
_symmetry_cell_setting           monoclinic
_symmetry_space_group_name_H-M   'P 21/c'
_symmetry_Int_Tables_number      14
_space_group_name_Hall           '-P 2ybc'
loop_
_symmetry_equiv_pos_site_id
_symmetry_equiv_pos_as_xyz
1 x,y,z
2 -x,1/2+y,1/2-z
3 -x,-y,-z
4 x,1/2-y,1/2+z
_cell_length_a                   18.1203(5)
_cell_length_b                   6.99093(14)
_cell_length_c                   19.2375(5)
_cell_angle_alpha                90
_cell_angle_beta                 112.450(3)
_cell_angle_gamma                90
_cell_volume                     2252.27
_exptl_crystal_colour            colorless
_exptl_crystal_description       block
_cell_formula_units_Z            4
loop_
_atom_site_label
_atom_site_type_symbol
_atom_site_fract_x
_atom_site_fract_y
_atom_site_fract_z
C1 C 0.26273(7) 0.24958(16) 0.18690(6)
C2 C 0.18745(7) 0.25412(16) 0.13400(6)
C3 C 0.28631(7) 0.34481(17) 0.26176(6)
C4 C 0.34015(7) 0.25395(17) 0.32597(6)
H1 H 0.3612 0.1326 0.3210
C5 C 0.36356(7) 0.33693(18) 0.39695(7)
C6 C 0.33325(7) 0.51626(18) 0.40327(7)
H2 H 0.3488 0.5742 0.4514
C7 C 0.28068(7) 0.61236(17) 0.34061(7)
C8 C 0.25781(7) 0.52580(17) 0.27013(7)
H3 H 0.2222 0.5910 0.2270
C9 C 0.42019(8) 0.2344(2) 0.46574(7)
H4 H 0.4688 0.3107 0.4890
H5 H 0.4340 0.1094 0.4510
H6 H 0.3945 0.2167 0.5018
C10 C 0.24772(9) 0.80661(19) 0.34834(8)
H7 H 0.2267 0.8699 0.2992
H8 H 0.2904 0.8849 0.3838
H9 H 0.2048 0.7908 0.3670
C11 C 0.32810(7) 0.14819(16) 0.17208(6)
C12 C 0.40141(7) 0.23888(17) 0.18771(6)
H10 H 0.4108 0.3605 0.2116
C13 C 0.46098(7) 0.15464(18) 0.16902(6)
C14 C 0.44709(7) -0.02730(18) 0.13646(6)
H11 H 0.4873 -0.0863 0.1234
C15 C 0.37589(7) -0.12391(17) 0.12274(6)
C16 C 0.31689(7) -0.03524(16) 0.14113(6)
H12 H 0.2682 -0.1007 0.1325
C17 C 0.53787(7) 0.25924(19) 0.18180(7)
H13 H 0.5833 0.1765 0.2095
H14 H 0.5403 0.3757 0.2110
H15 H 0.5400 0.2935 0.1332
C18 C 0.36113(9) -0.32116(19) 0.08800(8)
H16 H 0.3265 -0.3113 0.0346
H17 H 0.3352 -0.4010 0.1139
H18 H 0.4121 -0.3791 0.0929
C19 C 0.11693(7) 0.33657(16) 0.14592(6)
C20 C 0.09141(7) 0.26652(17) 0.20095(7)
H19 H 0.1211 0.1687 0.2342
C21 C 0.02281(7) 0.33893(18) 0.20748(7)
H20 H 0.0057 0.2897 0.2449
C22 C -0.02067(7) 0.48246(17) 0.15967(7)
H21 H -0.0676 0.5311 0.1641
C23 C 0.00452(7) 0.55515(17) 0.10522(7)
H22 H -0.0246 0.6551 0.0729
C24 C 0.07252(7) 0.48128(17) 0.09812(6)
H23 H 0.0890 0.5299 0.0602
C25 C 0.16621(7) 0.17596(16) 0.05615(6)
C26 C 0.11000(7) 0.02933(17) 0.03033(7)
H24 H 0.0852 -0.0194 0.0622
C27 C 0.08982(7) -0.04639(18) -0.04152(7)
H25 H 0.0525 -0.1484 -0.0580
C28 C 0.12432(7) 0.02732(18) -0.08904(7)
H26 H 0.1105 -0.0238 -0.1381
C29 C 0.17895(7) 0.17578(19) -0.06456(7)
H27 H 0.2020 0.2276 -0.0973
C30 C 0.20019(7) 0.24923(17) 0.00768(7)
H28 H 0.2381 0.3500 0.0242
loop_
_geom_bond_atom_site_label_1
_geom_bond_atom_site_label_2
_geom_bond_site_symmetry_1
_geom_bond_site_symmetry_2
C1 C2 1_555 1_555
C2 C19 1_555 1_555
C3 C1 1_555 1_555
C4 C3 1_555 1_555
H1 C4 1_555 1_555
C5 C4 1_555 1_555
C6 C5 1_555 1_555
H2 C6 1_555 1_555
C7 C6 1_555 1_555
C8 C3 1_555 1_555
H3 C8 1_555 1_555
C9 C5 1_555 1_555
H4 C9 1_555 1_555
H5 C9 1_555 1_555
H6 C9 1_555 1_555
C10 C7 1_555 1_555
H7 C10 1_555 1_555
H8 C10 1_555 1_555
H9 C10 1_555 1_555
C11 C1 1_555 1_555
C12 C11 1_555 1_555
H10 C12 1_555 1_555
C13 C12 1_555 1_555
C14 C13 1_555 1_555
H11 C14 1_555 1_555
C15 C14 1_555 1_555
C16 C11 1_555 1_555
H12 C16 1_555 1_555
C17 C13 1_555 1_555
H13 C17 1_555 1_555
H14 C17 1_555 1_555
H15 C17 1_555 1_555
C18 C15 1_555 1_555
H16 C18 1_555 1_555
H17 C18 1_555 1_555
H18 C18 1_555 1_555
C19 C20 1_555 1_555
C20 H19 1_555 1_555
C21 C20 1_555 1_555
H20 C21 1_555 1_555
C22 C21 1_555 1_555
H21 C22 1_555 1_555
C23 C22 1_555 1_555
H22 C23 1_555 1_555
C24 C19 1_555 1_555
H23 C24 1_555 1_555
C25 C2 1_555 1_555
C26 C25 1_555 1_555
H24 C26 1_555 1_555
C27 C26 1_555 1_555
H25 C27 1_555 1_555
C28 C27 1_555 1_555
H26 C28 1_555 1_555
C29 C28 1_555 1_555
H27 C29 1_555 1_555
C30 C25 1_555 1_555
H28 C30 1_555 1_555
C7 C8 1_555 1_555
C15 C16 1_555 1_555
C23 C24 1_555 1_555
C29 C30 1_555 1_555

#END
