
#######################################################################
#
#                 Cambridge Crystallographic Data Centre
#                                CCDC 
#
#######################################################################
#
# If this CIF has been generated from an entry in the Cambridge 
# Structural Database, then it will include bibliographic, chemical, 
# crystal, experimental, refinement or atomic coordinate data resulting 
# from the CCDC's data processing and validation procedures.
#
#######################################################################

data_TEYBIK
_chemical_formula_moiety         'C13 H10 N2 O4,H2 O1'
_chemical_name_systematic        
'N-(4-Carboxyphenyl)isonicotinamide 1-oxide monohydrate'
_symmetry_cell_setting           monoclinic
_symmetry_space_group_name_H-M   'P 21/n'
_symmetry_Int_Tables_number      14
_space_group_name_Hall           '-P 2yn'
loop_
_symmetry_equiv_pos_site_id
_symmetry_equiv_pos_as_xyz
1 x,y,z
2 1/2-x,1/2+y,1/2-z
3 -x,-y,-z
4 1/2+x,1/2-y,1/2+z
_cell_length_a                   4.9278(5)
_cell_length_b                   13.3692(12)
_cell_length_c                   18.6056(19)
_cell_angle_alpha                90
_cell_angle_beta                 90.237(3)
_cell_angle_gamma                90
_cell_volume                     1225.74
_exptl_crystal_colour            yellow
_exptl_crystal_description       block
_cell_formula_units_Z            4
loop_
_atom_site_label
_atom_site_type_symbol
_atom_site_fract_x
_atom_site_fract_y
_atom_site_fract_z
O1 O -0.7651(3) 0.58265(9) 0.52035(7)
O2 O 0.2442(3) 0.74551(9) 0.75862(7)
O3 O -0.8395(3) 0.43419(10) 0.57301(7)
O4 O 1.0500(3) 0.65144(10) 1.00985(7)
N1 N 0.1012(3) 0.58551(11) 0.77974(8)
H1 H 0.1249 0.5340 0.8085
N2 N 0.8632(3) 0.65291(11) 0.95882(8)
C1 C -0.5019(4) 0.53815(13) 0.62308(9)
C2 C -0.3487(4) 0.62592(13) 0.62046(10)
H2 H -0.3820 0.6733 0.5834
C3 C -0.1011(4) 0.57448(13) 0.72577(9)
C4 C -0.4547(4) 0.46887(13) 0.67781(10)
H3 H -0.5604 0.4096 0.6803
C5 C -0.1479(4) 0.64488(13) 0.67149(10)
H4 H -0.0442 0.7047 0.6695
C6 C -0.2537(4) 0.48665(13) 0.72843(9)
H5 H -0.2196 0.4388 0.7651
C7 C 0.8215(4) 0.73790(13) 0.92032(10)
H6 H 0.9275 0.7957 0.9301
C8 C 0.2635(4) 0.66635(13) 0.79240(9)
C9 C -0.7136(3) 0.52058(13) 0.56773(9)
C10 C 0.4689(4) 0.65666(13) 0.85176(9)
C11 C 0.7173(4) 0.56901(14) 0.94384(10)
H7 H 0.7521 0.5092 0.9699
C12 C 0.6268(4) 0.74070(13) 0.86724(10)
H8 H 0.5994 0.8006 0.8407
C13 C 0.5194(4) 0.56990(13) 0.89114(10)
H9 H 0.4170 0.5111 0.8817
H10 H -0.963(5) 0.429(2) 0.5404(13)
O5 O 0.8712(3) 0.61295(10) 0.14748(8)
H11 H 0.909(6) 0.637(2) 0.1064(11)
H12 H 0.834(6) 0.6613(17) 0.1731(15)
loop_
_geom_bond_atom_site_label_1
_geom_bond_atom_site_label_2
_geom_bond_site_symmetry_1
_geom_bond_site_symmetry_2
O1 C9 1_555 1_555
O2 C8 1_555 1_555
O3 C9 1_555 1_555
O4 N2 1_555 1_555
N1 H1 1_555 1_555
N2 C7 1_555 1_555
C1 C2 1_555 1_555
C2 H2 1_555 1_555
C3 N1 1_555 1_555
C4 C1 1_555 1_555
H3 C4 1_555 1_555
C5 C2 1_555 1_555
H4 C5 1_555 1_555
C6 C3 1_555 1_555
H5 C6 1_555 1_555
C7 H6 1_555 1_555
C8 N1 1_555 1_555
C9 C1 1_555 1_555
C10 C8 1_555 1_555
C11 N2 1_555 1_555
H7 C11 1_555 1_555
C12 C7 1_555 1_555
H8 C12 1_555 1_555
C13 C10 1_555 1_555
H9 C13 1_555 1_555
H10 O3 1_555 1_555
O5 H11 1_555 1_555
H12 O5 1_555 1_555
C3 C5 1_555 1_555
C4 C6 1_555 1_555
C10 C12 1_555 1_555
C11 C13 1_555 1_555

#END
