
#######################################################################
#
#                 Cambridge Crystallographic Data Centre
#                                CCDC 
#
#######################################################################
#
# If this CIF has been generated from an entry in the Cambridge 
# Structural Database, then it will include bibliographic, chemical, 
# crystal, experimental, refinement or atomic coordinate data resulting 
# from the CCDC's data processing and validation procedures.
#
#######################################################################

data_TEYWIG
_chemical_formula_moiety         'C16 H22 N2 2+,2(C6 H5 O3 S1 1-)'
_chemical_name_systematic        
"3,3',5,5'-tetramethyl[1,1'-biphenyl]-4,4'-diaminium bis(benzenesulfonate)"
_symmetry_cell_setting           monoclinic
_symmetry_space_group_name_H-M   'C 2/c'
_symmetry_Int_Tables_number      15
_space_group_name_Hall           '-C 2yn'
loop_
_symmetry_equiv_pos_site_id
_symmetry_equiv_pos_as_xyz
1 x,y,z
2 -x,y,1/2-z
3 1/2+x,1/2+y,z
4 1/2-x,1/2+y,1/2-z
5 -x,-y,-z
6 x,-y,1/2+z
7 1/2-x,1/2-y,-z
8 1/2+x,1/2-y,1/2+z
_cell_length_a                   15.3959(13)
_cell_length_b                   7.2509(5)
_cell_length_c                   23.9608(19)
_cell_angle_alpha                90
_cell_angle_beta                 92.573(6)
_cell_angle_gamma                90
_cell_volume                     2672.15
_exptl_crystal_colour            colorless
_exptl_crystal_description       block
_cell_formula_units_Z            4
loop_
_atom_site_label
_atom_site_type_symbol
_atom_site_fract_x
_atom_site_fract_y
_atom_site_fract_z
C1 C 0.66401(16) 0.0670(3) 0.40814(10)
C2 C 0.62960(19) 0.0408(4) 0.35433(11)
H1 H 0.665018 0.001105 0.326271
C3 C 0.5423(2) 0.0740(5) 0.34259(14)
H2 H 0.518866 0.056232 0.306541
C4 C 0.4899(2) 0.1331(5) 0.38397(16)
C5 C 0.5240(2) 0.1569(4) 0.43712(15)
H3 H 0.487991 0.194922 0.465065
C6 C 0.61083(18) 0.1253(4) 0.44994(12)
H4 H 0.633547 0.142836 0.486176
O1 O 0.78656(16) -0.0232(4) 0.47963(9)
O2 O 0.81852(12) 0.2048(3) 0.41081(9)
O3 O 0.80201(12) -0.1128(3) 0.38418(9)
S1 S 0.77652(4) 0.03112(9) 0.42227(3)
H5 H 0.431(2) 0.160(5) 0.3763(14)
C7 C 0.34028(16) 0.4626(3) 0.64053(10)
C8 C 0.42555(17) 0.4194(3) 0.62821(10)
C9 C 0.48748(17) 0.4203(4) 0.67240(10)
H6 H 0.544831 0.391598 0.665348
C10 C 0.46632(17) 0.4629(3) 0.72673(10)
C11 C 0.38001(18) 0.5043(4) 0.73668(10)
H7 H 0.364965 0.533044 0.772822
C12 C 0.31573(17) 0.5039(4) 0.69394(10)
C13 C 0.45158(18) 0.3677(4) 0.57066(11)
C14 C 0.2229(2) 0.5450(6) 0.70687(14)
N1 N 0.27236(15) 0.4583(3) 0.59521(9)
H8 H 0.297(2) 0.461(4) 0.5592(14)
H9 H 0.234(3) 0.562(5) 0.5940(15)
H10 H 0.238(2) 0.348(5) 0.5982(14)
H11 H 0.451(3) 0.466(5) 0.547(2)
H12 H 0.417(2) 0.260(5) 0.5554(16)
H13 H 0.5108(14) 0.323(6) 0.5725(18)
H14 H 0.220(2) 0.603(5) 0.7440(17)
H15 H 0.197(2) 0.625(5) 0.6815(17)
H16 H 0.184(3) 0.435(7) 0.707(2)
C7A C 0.65972(16) 0.4626(3) 0.85947(10)
C8A C 0.57445(17) 0.4194(3) 0.87179(10)
C9A C 0.51252(17) 0.4203(4) 0.82760(10)
H6A H 0.455169 0.391598 0.834652
C10A C 0.53368(17) 0.4629(3) 0.77327(10)
C11A C 0.61999(18) 0.5043(4) 0.76332(10)
H7A H 0.635035 0.533044 0.727178
C12A C 0.68427(17) 0.5039(4) 0.80606(10)
C13A C 0.54842(18) 0.3677(4) 0.92934(11)
C14A C 0.7771(2) 0.5450(6) 0.79313(14)
N1A N 0.72764(15) 0.4583(3) 0.90479(9)
H8A H 0.703(2) 0.461(4) 0.9408(14)
H9A H 0.766(3) 0.562(5) 0.9060(15)
H10A H 0.762(2) 0.348(5) 0.9018(14)
H11A H 0.549(3) 0.466(5) 0.953(2)
H12A H 0.583(2) 0.260(5) 0.9446(16)
H13A H 0.4892(14) 0.323(6) 0.9275(18)
H14A H 0.780(2) 0.603(5) 0.7560(17)
H15A H 0.803(2) 0.625(5) 0.8185(17)
H16A H 0.816(3) 0.435(7) 0.793(2)
loop_
_geom_bond_atom_site_label_1
_geom_bond_atom_site_label_2
_geom_bond_site_symmetry_1
_geom_bond_site_symmetry_2
C1 C2 1_555 1_555
C2 H1 1_555 1_555
C3 C2 1_555 1_555
H2 C3 1_555 1_555
C4 C3 1_555 1_555
C5 C4 1_555 1_555
H3 C5 1_555 1_555
C6 C1 1_555 1_555
H4 C6 1_555 1_555
O1 S1 1_555 1_555
O2 S1 1_555 1_555
O3 S1 1_555 1_555
S1 C1 1_555 1_555
H5 C4 1_555 1_555
C7 C8 1_555 1_555
C8 C9 1_555 1_555
C9 H6 1_555 1_555
C10 C9 1_555 1_555
C11 C10 1_555 1_555
H7 C11 1_555 1_555
C12 C7 1_555 1_555
C13 C8 1_555 1_555
C14 C12 1_555 1_555
N1 C7 1_555 1_555
H8 N1 1_555 1_555
H9 N1 1_555 1_555
H10 N1 1_555 1_555
H11 C13 1_555 1_555
H12 C13 1_555 1_555
H13 C13 1_555 1_555
H14 C14 1_555 1_555
H15 C14 1_555 1_555
H16 C14 1_555 1_555
C7A C8A 1_555 1_555
C8A C9A 1_555 1_555
C9A H6A 1_555 1_555
C10A C10 1_555 1_555
C11A C10A 1_555 1_555
H7A C11A 1_555 1_555
C12A C7A 1_555 1_555
C13A C8A 1_555 1_555
C14A C12A 1_555 1_555
N1A C7A 1_555 1_555
H8A N1A 1_555 1_555
H9A N1A 1_555 1_555
H10A N1A 1_555 1_555
H11A C13A 1_555 1_555
H12A C13A 1_555 1_555
H13A C13A 1_555 1_555
H14A C14A 1_555 1_555
H15A C14A 1_555 1_555
H16A C14A 1_555 1_555
C5 C6 1_555 1_555
C11 C12 1_555 1_555
C9A C10A 1_555 1_555
C11A C12A 1_555 1_555

#END
