
#######################################################################
#
#                 Cambridge Crystallographic Data Centre
#                                CCDC 
#
#######################################################################
#
# If this CIF has been generated from an entry in the Cambridge 
# Structural Database, then it will include bibliographic, chemical, 
# crystal, experimental, refinement or atomic coordinate data resulting 
# from the CCDC's data processing and validation procedures.
#
#######################################################################

data_TEYWOM
_chemical_formula_moiety         'C16 H22 N2 2+,2(C7 H7 O3 S1 1-)'
_chemical_name_systematic        
"3,3',5,5'-tetramethyl[1,1'-biphenyl]-4,4'-diaminium bis(4-methylbenzene-1-sulfonate)"
_symmetry_cell_setting           monoclinic
_symmetry_space_group_name_H-M   'P 21/n'
_symmetry_Int_Tables_number      14
_space_group_name_Hall           '-P 2yn'
loop_
_symmetry_equiv_pos_site_id
_symmetry_equiv_pos_as_xyz
1 x,y,z
2 1/2-x,1/2+y,1/2-z
3 -x,-y,-z
4 1/2+x,1/2-y,1/2+z
_cell_length_a                   19.9706(10)
_cell_length_b                   7.0390(3)
_cell_length_c                   21.9707(12)
_cell_angle_alpha                90
_cell_angle_beta                 113.547(6)
_cell_angle_gamma                90
_cell_volume                     2831.32
_exptl_crystal_colour            colorless
_exptl_crystal_description       block
_cell_formula_units_Z            4
loop_
_atom_site_label
_atom_site_type_symbol
_atom_site_fract_x
_atom_site_fract_y
_atom_site_fract_z
C1 C 0.9283(2) 0.7195(5) 0.2317(3)
H1 H 0.947675 0.741099 0.278726
H2 H 0.896003 0.821557 0.209238
H3 H 0.901954 0.601665 0.221574
C2 C 0.9902(2) 0.7104(4) 0.2089(2)
C3 C 1.0613(2) 0.7316(4) 0.25291(19)
H4 H 1.071381 0.752824 0.297502
C4 C 1.11865(18) 0.7223(4) 0.23251(15)
H5 H 1.166621 0.735756 0.263177
C5 C 1.10371(14) 0.6926(3) 0.16606(13)
C6 C 1.03230(15) 0.6712(4) 0.12172(16)
H6 H 1.021731 0.650394 0.077017
C7 C 0.97644(17) 0.6806(4) 0.1433(2)
H7 H 0.928429 0.666446 0.112850
O1 O 1.21901(10) 0.8558(3) 0.16864(10)
O2 O 1.21870(10) 0.5161(3) 0.17075(10)
O3 O 1.14547(12) 0.6815(3) 0.06904(10)
S1 S 1.17633(3) 0.68587(9) 0.14007(3)
C8 C 0.7669(2) -0.1555(6) -0.0491(2)
H8 H 0.816161 -0.176368 -0.017852
H9 H 0.754423 -0.247225 -0.084196
H10 H 0.762593 -0.029873 -0.067237
C9 C 0.7160(2) -0.1758(4) -0.01449(17)
C10 C 0.6421(2) -0.1530(4) -0.04768(16)
H11 H 0.623352 -0.121686 -0.092524
C11 C 0.59450(17) -0.1751(4) -0.01676(14)
H12 H 0.544543 -0.159311 -0.040668
C12 C 0.62141(14) -0.2207(3) 0.04974(13)
C13 C 0.69655(15) -0.2412(4) 0.08433(14)
H13 H 0.715701 -0.270420 0.129358
C14 C 0.74239(17) -0.2185(4) 0.05212(17)
H14 H 0.792470 -0.232305 0.075838
O4 O 0.59183(11) -0.3989(2) 0.13825(9)
O5 O 0.49109(11) -0.2782(3) 0.04281(11)
O6 O 0.56865(11) -0.0632(2) 0.12631(10)
S2 S 0.56305(3) -0.24253(8) 0.09209(3)
C15 C 1.08130(13) 0.1967(3) 0.19004(12)
C16 C 1.03459(13) 0.1864(3) 0.12309(12)
C17 C 0.96009(14) 0.1926(3) 0.10716(13)
H15 H 0.928031 0.182340 0.062846
C18 C 0.93161(13) 0.2136(3) 0.15508(12)
C19 C 0.98076(14) 0.2240(3) 0.22117(13)
H16 H 0.962659 0.236952 0.253926
C20 C 1.05539(14) 0.2156(3) 0.23981(12)
C21 C 1.10529(19) 0.2260(6) 0.31203(15)
C22 C 1.06364(16) 0.1722(5) 0.06998(14)
C23 C 0.70176(13) 0.2554(3) 0.10124(13)
C24 C 0.74711(14) 0.2151(3) 0.16716(12)
C25 C 0.82130(14) 0.2011(3) 0.18307(12)
H17 H 0.852222 0.172057 0.226564
C26 C 0.85147(14) 0.2286(3) 0.13668(12)
C27 C 0.80379(13) 0.2723(3) 0.07184(12)
H18 H 0.822969 0.293328 0.040188
C28 C 0.72871(13) 0.2856(3) 0.05282(12)
C29 C 0.68045(16) 0.3325(4) -0.01788(13)
C30 C 0.71745(17) 0.1883(5) 0.21911(15)
N1 N 1.16045(12) 0.1907(4) 0.20741(13)
N2 N 0.62260(12) 0.2662(3) 0.08432(12)
H19 H 1.1741(16) 0.089(4) 0.1918(15)
H20 H 1.188(2) 0.193(5) 0.252(2)
H21 H 1.1768(19) 0.300(5) 0.1932(18)
H22 H 0.6043(18) 0.156(3) 0.0944(16)
H23 H 0.6099(17) 0.374(5) 0.1010(16)
H24 H 0.5914(16) 0.272(4) 0.0407(16)
H25 H 1.132(2) 0.112(6) 0.3274(19)
H26 H 1.075(2) 0.242(4) 0.3391(18)
H27 H 1.135(2) 0.326(5) 0.3207(18)
H28 H 1.0224(15) 0.165(4) 0.0273(14)
H29 H 1.0956(15) 0.049(4) 0.0755(13)
H30 H 1.0957(19) 0.281(4) 0.0688(19)
H31 H 0.6491(18) 0.227(4) -0.0394(16)
H32 H 0.6498(18) 0.448(4) -0.0201(15)
H33 H 0.709(2) 0.352(5) -0.0441(19)
H34 H 0.6843(17) 0.086(4) 0.2074(14)
H35 H 0.6923(17) 0.294(4) 0.2223(15)
H36 H 0.754(2) 0.154(5) 0.2602(18)
loop_
_geom_bond_atom_site_label_1
_geom_bond_atom_site_label_2
_geom_bond_site_symmetry_1
_geom_bond_site_symmetry_2
C1 H1 1_555 1_555
H2 C1 1_555 1_555
H3 C1 1_555 1_555
C2 C1 1_555 1_555
C3 C2 1_555 1_555
H4 C3 1_555 1_555
C4 C3 1_555 1_555
H5 C4 1_555 1_555
C5 C4 1_555 1_555
C6 C5 1_555 1_555
H6 C6 1_555 1_555
C7 C2 1_555 1_555
H7 C7 1_555 1_555
O1 S1 1_555 1_555
O2 S1 1_555 1_555
O3 S1 1_555 1_555
S1 C5 1_555 1_555
C8 H8 1_555 1_555
H9 C8 1_555 1_555
H10 C8 1_555 1_555
C9 C8 1_555 1_555
C10 C9 1_555 1_555
H11 C10 1_555 1_555
C11 C10 1_555 1_555
H12 C11 1_555 1_555
C12 C11 1_555 1_555
C13 C12 1_555 1_555
H13 C13 1_555 1_555
C14 C9 1_555 1_555
H14 C14 1_555 1_555
O4 S2 1_555 1_555
O5 S2 1_555 1_555
O6 S2 1_555 1_555
S2 C12 1_555 1_555
C15 C16 1_555 1_555
C16 C17 1_555 1_555
C17 H15 1_555 1_555
C18 C17 1_555 1_555
C19 C18 1_555 1_555
H16 C19 1_555 1_555
C20 C15 1_555 1_555
C21 C20 1_555 1_555
C22 C16 1_555 1_555
C23 C24 1_555 1_555
C24 C25 1_555 1_555
C25 H17 1_555 1_555
C26 C18 1_555 1_555
C27 C26 1_555 1_555
H18 C27 1_555 1_555
C28 C23 1_555 1_555
C29 C28 1_555 1_555
C30 C24 1_555 1_555
N1 C15 1_555 1_555
N2 C23 1_555 1_555
H19 N1 1_555 1_555
H20 N1 1_555 1_555
H21 N1 1_555 1_555
H22 N2 1_555 1_555
H23 N2 1_555 1_555
H24 N2 1_555 1_555
H25 C21 1_555 1_555
H26 C21 1_555 1_555
H27 C21 1_555 1_555
H28 C22 1_555 1_555
H29 C22 1_555 1_555
H30 C22 1_555 1_555
H31 C29 1_555 1_555
H32 C29 1_555 1_555
H33 C29 1_555 1_555
H34 C30 1_555 1_555
H35 C30 1_555 1_555
H36 C30 1_555 1_555
C6 C7 1_555 1_555
C13 C14 1_555 1_555
C19 C20 1_555 1_555
C25 C26 1_555 1_555
C27 C28 1_555 1_555

#END
