
#######################################################################
#
#                 Cambridge Crystallographic Data Centre
#                                CCDC 
#
#######################################################################
#
# If this CIF has been generated from an entry in the Cambridge 
# Structural Database, then it will include bibliographic, chemical, 
# crystal, experimental, refinement or atomic coordinate data resulting 
# from the CCDC's data processing and validation procedures.
#
#######################################################################

data_TEYXON
_chemical_formula_moiety         'C12 H14 N2 O2 2+,2(C6 H5 O4 S1 1-),H2 O1'
_chemical_name_systematic        
"3,3'-dihydroxy[1,1'-biphenyl]-4,4'-diaminium bis(4-hydroxybenzene-1-sulfonate) monohydrate"
_symmetry_cell_setting           monoclinic
_symmetry_space_group_name_H-M   'P 21/c'
_symmetry_Int_Tables_number      14
_space_group_name_Hall           '-P 2ybc'
loop_
_symmetry_equiv_pos_site_id
_symmetry_equiv_pos_as_xyz
1 x,y,z
2 -x,1/2+y,1/2-z
3 -x,-y,-z
4 x,1/2-y,1/2+z
_cell_length_a                   12.9248(3)
_cell_length_b                   7.3758(2)
_cell_length_c                   26.7090(5)
_cell_angle_alpha                90
_cell_angle_beta                 91.338(2)
_cell_angle_gamma                90
_cell_volume                     2545.49
_exptl_crystal_colour            colorless
_exptl_crystal_description       block
_cell_formula_units_Z            4
loop_
_atom_site_label
_atom_site_type_symbol
_atom_site_fract_x
_atom_site_fract_y
_atom_site_fract_z
C1 C 0.24921(16) 0.3235(3) 0.39131(8)
C2 C 0.35141(18) 0.3682(4) 0.39789(9)
H1 H 0.376866 0.400025 0.429534
C3 C 0.41714(19) 0.3662(4) 0.35766(9)
H2 H 0.486533 0.396911 0.362122
C4 C 0.37879(17) 0.3186(4) 0.31120(8)
C5 C 0.2763(2) 0.2729(4) 0.30459(9)
H3 H 0.250846 0.240449 0.272981
C6 C 0.21117(19) 0.2750(4) 0.34464(9)
H4 H 0.141843 0.243885 0.340198
O1 O 0.43821(16) 0.3139(4) 0.26972(7)
O2 O 0.12005(15) 0.5172(3) 0.43994(7)
O3 O 0.08639(12) 0.1952(3) 0.43277(6)
O4 O 0.22390(14) 0.3046(3) 0.48695(6)
S1 S 0.16341(4) 0.33628(9) 0.44155(2)
H5 H 0.493(2) 0.326(4) 0.2744(12)
C7 C 0.16658(18) 0.8690(3) 0.25318(8)
C8 C 0.0772(2) 0.9662(4) 0.24292(10)
H6 H 0.070118 1.028918 0.212829
C9 C -0.0012(2) 0.9712(4) 0.27664(10)
H7 H -0.061105 1.036549 0.269195
C10 C 0.0086(2) 0.8799(4) 0.32151(10)
C11 C 0.09805(19) 0.7842(4) 0.33243(9)
H8 H 0.105471 0.724051 0.362910
C12 C 0.17708(18) 0.7771(4) 0.29809(8)
H9 H 0.236800 0.710849 0.305302
O5 O -0.07255(16) 0.8891(3) 0.35285(9)
O6 O 0.25193(19) 1.0119(3) 0.17655(8)
O7 O 0.23609(15) 0.6935(3) 0.17777(7)
O8 O 0.35927(15) 0.8321(5) 0.23335(8)
S2 S 0.26181(5) 0.85265(10) 0.20742(2)
H10 H -0.060(2) 0.813(5) 0.3809(13)
C13 C 0.41455(17) 0.1483(3) 0.63613(7)
C14 C 0.51783(18) 0.1342(4) 0.64804(8)
H11 H 0.539496 0.114176 0.681026
C15 C 0.58958(18) 0.1498(4) 0.61088(8)
H12 H 0.659716 0.139844 0.619003
C16 C 0.55847(16) 0.1801(3) 0.56149(8)
C17 C 0.45335(17) 0.1901(3) 0.54998(8)
H13 H 0.431322 0.207283 0.516924
C18 C 0.38083(16) 0.1747(3) 0.58712(8)
C19 C 0.78541(16) 0.2513(3) 0.45032(8)
C20 C 0.69033(18) 0.3316(3) 0.44380(8)
H14 H 0.676268 0.402198 0.415594
C21 C 0.61575(17) 0.3073(4) 0.47919(8)
H15 H 0.551099 0.360917 0.474560
C22 C 0.63613(16) 0.2031(3) 0.52192(8)
C23 C 0.73273(17) 0.1243(3) 0.52759(8)
H16 H 0.747598 0.054603 0.555866
C24 C 0.80771(17) 0.1472(3) 0.49201(9)
N1 N 0.33579(18) 0.1394(4) 0.67479(8)
N2 N 0.86618(17) 0.2758(4) 0.41336(8)
O9 O 0.27775(12) 0.1837(3) 0.57908(7)
O10 O 0.90305(13) 0.0731(3) 0.49538(8)
H17 H 0.298(3) 0.240(5) 0.6720(12)
H18 H 0.302(3) 0.035(5) 0.6718(12)
H19 H 0.368(2) 0.147(4) 0.7027(12)
H20 H 0.842(2) 0.236(5) 0.3843(13)
H21 H 0.925(3) 0.214(5) 0.4250(12)
H22 H 0.883(3) 0.400(6) 0.4151(13)
H23 H 0.264(2) 0.205(4) 0.5525(11)
H24 H 0.911(2) 0.009(4) 0.5174(11)
O11 O 0.93148(17) 0.6446(3) 0.42907(8)
H25 H 1.000(3) 0.619(5) 0.4395(12)
H26 H 0.926(7) 0.720(15) 0.455(4)
loop_
_geom_bond_atom_site_label_1
_geom_bond_atom_site_label_2
_geom_bond_site_symmetry_1
_geom_bond_site_symmetry_2
C1 C2 1_555 1_555
C2 H1 1_555 1_555
C3 C2 1_555 1_555
H2 C3 1_555 1_555
C4 C3 1_555 1_555
C5 C4 1_555 1_555
H3 C5 1_555 1_555
C6 C1 1_555 1_555
H4 C6 1_555 1_555
O1 C4 1_555 1_555
O2 S1 1_555 1_555
O3 S1 1_555 1_555
O4 S1 1_555 1_555
S1 C1 1_555 1_555
H5 O1 1_555 1_555
C7 C8 1_555 1_555
C8 H6 1_555 1_555
C9 C8 1_555 1_555
H7 C9 1_555 1_555
C10 C9 1_555 1_555
C11 C10 1_555 1_555
H8 C11 1_555 1_555
C12 C7 1_555 1_555
H9 C12 1_555 1_555
O5 C10 1_555 1_555
O6 S2 1_555 1_555
O7 S2 1_555 1_555
O8 S2 1_555 1_555
S2 C7 1_555 1_555
H10 O5 1_555 1_555
C13 C14 1_555 1_555
C14 H11 1_555 1_555
C15 C14 1_555 1_555
H12 C15 1_555 1_555
C16 C15 1_555 1_555
C17 C16 1_555 1_555
H13 C17 1_555 1_555
C18 C13 1_555 1_555
C19 C20 1_555 1_555
C20 H14 1_555 1_555
C21 C20 1_555 1_555
H15 C21 1_555 1_555
C22 C16 1_555 1_555
C23 C22 1_555 1_555
H16 C23 1_555 1_555
C24 C19 1_555 1_555
N1 C13 1_555 1_555
N2 C19 1_555 1_555
O9 C18 1_555 1_555
O10 C24 1_555 1_555
H17 N1 1_555 1_555
H18 N1 1_555 1_555
H19 N1 1_555 1_555
H20 N2 1_555 1_555
H21 N2 1_555 1_555
H22 N2 1_555 1_555
H23 O9 1_555 1_555
H24 O10 1_555 1_555
O11 H25 1_555 1_555
H26 O11 1_555 1_555
C5 C6 1_555 1_555
C11 C12 1_555 1_555
C17 C18 1_555 1_555
C21 C22 1_555 1_555
C23 C24 1_555 1_555

#END
