
#######################################################################
#
#                 Cambridge Crystallographic Data Centre
#                                CCDC 
#
#######################################################################
#
# If this CIF has been generated from an entry in the Cambridge 
# Structural Database, then it will include bibliographic, chemical, 
# crystal, experimental, refinement or atomic coordinate data resulting 
# from the CCDC's data processing and validation procedures.
#
#######################################################################

data_TEZBUW
_chemical_formula_moiety         'C17 H13 Cl1 F4 I1 O1 P1'
_chemical_name_systematic        
'(E)-5-Chloro-4,4,5,5-tetrafluoro-2-iodopent-1-enyl(diphenyl)phosphine oxide'
_symmetry_cell_setting           triclinic
_symmetry_space_group_name_H-M   'P -1'
_symmetry_Int_Tables_number      2
_space_group_name_Hall           '-P 1'
loop_
_symmetry_equiv_pos_site_id
_symmetry_equiv_pos_as_xyz
1 x,y,z
2 -x,-y,-z
_cell_length_a                   11.6880(13)
_cell_length_b                   12.5043(15)
_cell_length_c                   14.0346(15)
_cell_angle_alpha                105.909(2)
_cell_angle_beta                 96.416(2)
_cell_angle_gamma                94.401(2)
_cell_volume                     1947.83
_exptl_crystal_colour            colorless
_exptl_crystal_description       prismatic
_chemical_melting_point          '225-227 deg.C'
_cell_formula_units_Z            4
_exptl_crystal_recrystallization_method 'ethyl acetate/hexane'
loop_
_atom_site_label
_atom_site_type_symbol
_atom_site_fract_x
_atom_site_fract_y
_atom_site_fract_z
I1 I 0.60891(4) 0.87400(4) 0.47618(3)
P1 P 0.32223(14) 0.82230(16) 0.19567(13)
Cl1 Cl 0.3835(5) 0.4027(4) 0.3320(5)
O1 O 0.2136(4) 0.7853(5) 0.2296(4)
F1 F 0.4629(8) 0.5925(6) 0.2750(7)
F2 F 0.5039(8) 0.6134(7) 0.4362(9)
F3 F 0.2822(12) 0.5555(14) 0.4454(8)
F4 F 0.2652(9) 0.5190(11) 0.2690(8)
C1 C 0.4469(6) 0.8537(6) 0.2906(5)
H1 H 0.5085 0.9009 0.2830
C2 C 0.4592(5) 0.8160(5) 0.3699(4)
C3 C 0.3729(7) 0.7306(8) 0.3921(6)
H2 H 0.3632 0.7546 0.4623
H3 H 0.2982 0.7271 0.3529
C4 C 0.4142(15) 0.6151(12) 0.3676(11)
C5 C 0.3407(19) 0.5262(17) 0.365(2)
C6 C 0.3624(6) 0.7222(5) 0.0904(5)
C7 C 0.2745(7) 0.6512(6) 0.0236(6)
H4 H 0.1980 0.6527 0.0358
C8 C 0.3023(11) 0.5782(7) -0.0613(7)
H5 H 0.2435 0.5307 -0.1069
C9 C 0.4140(12) 0.5739(8) -0.0802(8)
H6 H 0.4310 0.5236 -0.1377
C10 C 0.4997(9) 0.6433(9) -0.0147(8)
H7 H 0.5758 0.6407 -0.0280
C11 C 0.4765(7) 0.7174(6) 0.0706(6)
H8 H 0.5365 0.7642 0.1152
C12 C 0.3116(6) 0.9507(6) 0.1615(5)
C13 C 0.3448(7) 0.9647(6) 0.0746(6)
H9 H 0.3785 0.9080 0.0331
C14 C 0.3288(9) 1.0623(8) 0.0473(7)
H10 H 0.3487 1.0707 -0.0128
C15 C 0.2828(9) 1.1454(8) 0.1122(8)
H11 H 0.2753 1.2129 0.0975
C16 C 0.2475(9) 1.1316(8) 0.1982(8)
H12 H 0.2133 1.1877 0.2399
C17 C 0.2634(7) 1.0337(7) 0.2223(6)
H13 H 0.2407 1.0244 0.2812
I2 I -0.06263(5) -0.13252(5) 0.55727(4)
P2 P 0.14246(15) 0.18959(14) 0.79682(13)
Cl2 Cl 0.3526(5) -0.2533(4) 0.7974(4)
O2 O 0.2642(4) 0.1643(4) 0.8109(4)
F5 F 0.1402(8) -0.2335(6) 0.6796(8)
F6 F 0.1747(6) -0.1004(6) 0.8086(5)
F7 F 0.3996(6) -0.0740(9) 0.7869(7)
F8 F 0.3838(9) -0.1893(10) 0.6546(7)
C18 C 0.0417(6) 0.0770(5) 0.7123(5)
H14 H -0.0360 0.0889 0.7061
C19 C 0.0679(6) -0.0198(6) 0.6589(5)
C20 C 0.1849(6) -0.0596(6) 0.6595(5)
H15 H 0.1968 -0.0923 0.5907
H16 H 0.2423 0.0050 0.6875
C21 C 0.2070(8) -0.1407(7) 0.7142(7)
C22 C 0.3286(11) -0.1637(12) 0.7346(10)
C23 C 0.1290(5) 0.3020(5) 0.7400(4)
C24 C 0.0275(6) 0.3473(6) 0.7284(5)
H17 H -0.0372 0.3223 0.7527
C25 C 0.0209(7) 0.4290(7) 0.6813(7)
H18 H -0.0482 0.4599 0.6739
C26 C 0.1167(9) 0.4661(7) 0.6443(7)
H19 H 0.1118 0.5213 0.6116
C27 C 0.2162(9) 0.4220(8) 0.6560(7)
H20 H 0.2808 0.4472 0.6318
C28 C 0.2236(6) 0.3404(6) 0.7031(5)
H21 H 0.2932 0.3102 0.7104
C29 C 0.0795(6) 0.2279(6) 0.9113(4)
C30 C 0.1039(7) 0.3347(7) 0.9730(6)
H22 H 0.1493 0.3876 0.9540
C31 C 0.0617(10) 0.3644(9) 1.0633(6)
H23 H 0.0768 0.4376 1.1044
C32 C -0.0031(9) 0.2852(10) 1.0922(7)
H24 H -0.0310 0.3043 1.1535
C33 C -0.0264(8) 0.1774(9) 1.0300(7)
H25 H -0.0695 0.1237 1.0498
C34 C 0.0126(7) 0.1490(7) 0.9404(6)
H26 H -0.0054 0.0766 0.8982
loop_
_geom_bond_atom_site_label_1
_geom_bond_atom_site_label_2
_geom_bond_site_symmetry_1
_geom_bond_site_symmetry_2
I1 C2 1_555 1_555
P1 O1 1_555 1_555
Cl1 C5 1_555 1_555
F1 C4 1_555 1_555
F2 C4 1_555 1_555
F3 C5 1_555 1_555
F4 C5 1_555 1_555
C1 P1 1_555 1_555
H1 C1 1_555 1_555
C2 C1 1_555 1_555
C3 C2 1_555 1_555
H2 C3 1_555 1_555
H3 C3 1_555 1_555
C4 C3 1_555 1_555
C5 C4 1_555 1_555
C6 P1 1_555 1_555
C7 C6 1_555 1_555
H4 C7 1_555 1_555
C8 C7 1_555 1_555
H5 C8 1_555 1_555
C9 C8 1_555 1_555
H6 C9 1_555 1_555
C10 C9 1_555 1_555
H7 C10 1_555 1_555
C11 C6 1_555 1_555
H8 C11 1_555 1_555
C12 P1 1_555 1_555
C13 C12 1_555 1_555
H9 C13 1_555 1_555
C14 C13 1_555 1_555
H10 C14 1_555 1_555
C15 C14 1_555 1_555
H11 C15 1_555 1_555
C16 C15 1_555 1_555
H12 C16 1_555 1_555
C17 C12 1_555 1_555
H13 C17 1_555 1_555
I2 C19 1_555 1_555
P2 O2 1_555 1_555
Cl2 C22 1_555 1_555
F5 C21 1_555 1_555
F6 C21 1_555 1_555
F7 C22 1_555 1_555
F8 C22 1_555 1_555
C18 P2 1_555 1_555
H14 C18 1_555 1_555
C19 C18 1_555 1_555
C20 C19 1_555 1_555
H15 C20 1_555 1_555
H16 C20 1_555 1_555
C21 C20 1_555 1_555
C22 C21 1_555 1_555
C23 P2 1_555 1_555
C24 C23 1_555 1_555
H17 C24 1_555 1_555
C25 C24 1_555 1_555
H18 C25 1_555 1_555
C26 C25 1_555 1_555
H19 C26 1_555 1_555
C27 C26 1_555 1_555
H20 C27 1_555 1_555
C28 C23 1_555 1_555
H21 C28 1_555 1_555
C29 P2 1_555 1_555
C30 C29 1_555 1_555
H22 C30 1_555 1_555
C31 C30 1_555 1_555
H23 C31 1_555 1_555
C32 C31 1_555 1_555
H24 C32 1_555 1_555
C33 C32 1_555 1_555
H25 C33 1_555 1_555
C34 C29 1_555 1_555
H26 C34 1_555 1_555
C10 C11 1_555 1_555
C16 C17 1_555 1_555
C27 C28 1_555 1_555
C33 C34 1_555 1_555

#END
