
#######################################################################
#
#                 Cambridge Crystallographic Data Centre
#                                CCDC 
#
#######################################################################
#
# If this CIF has been generated from an entry in the Cambridge 
# Structural Database, then it will include bibliographic, chemical, 
# crystal, experimental, refinement or atomic coordinate data resulting 
# from the CCDC's data processing and validation procedures.
#
#######################################################################

data_TEZLUI
_chemical_formula_moiety         'C14 H18 N2 2+,2(C6 H4 N1 O5 S1 1-),C1 H4 O1'
_chemical_name_systematic        
"3,3'-dimethyl[1,1'-biphenyl]-4,4'-diaminium bis(4-nitrobenzene-1-sulfonate) methanol solvate"
_symmetry_cell_setting           triclinic
_symmetry_space_group_name_H-M   'P -1'
_symmetry_Int_Tables_number      2
_space_group_name_Hall           '-P 1'
loop_
_symmetry_equiv_pos_site_id
_symmetry_equiv_pos_as_xyz
1 x,y,z
2 -x,-y,-z
_cell_length_a                   10.817(5)
_cell_length_b                   11.154(5)
_cell_length_c                   13.163(5)
_cell_angle_alpha                92.607(5)
_cell_angle_beta                 112.415(5)
_cell_angle_gamma                92.170(5)
_cell_volume                     1464.02
_exptl_crystal_colour            colorless
_exptl_crystal_description       block
_cell_formula_units_Z            2
loop_
_atom_site_label
_atom_site_type_symbol
_atom_site_fract_x
_atom_site_fract_y
_atom_site_fract_z
C1 C 0.2424(5) 0.9072(4) 0.6230(4)
C2 C 0.3616(5) 0.8961(5) 0.7102(4)
H1 H 0.438879 0.880037 0.698296
C3 C 0.3642(5) 0.9092(5) 0.8151(4)
H2 H 0.443428 0.901539 0.875416
C4 C 0.2470(4) 0.9342(4) 0.8305(4)
C5 C 0.1283(4) 0.9419(5) 0.7427(4)
H3 H 0.050340 0.956098 0.754215
C6 C 0.1255(5) 0.9285(5) 0.6373(4)
H4 H 0.045782 0.933672 0.576821
N1 N 0.2394(5) 0.8963(4) 0.5104(4)
O1 O 0.1358(5) 0.9124(5) 0.4340(3)
O2 O 0.3435(5) 0.8755(5) 0.4991(4)
O3 O 0.1203(3) 0.9566(4) 0.9622(3)
O4 O 0.3411(4) 0.8805(4) 1.0349(3)
O5 O 0.3126(4) 1.0880(3) 0.9950(3)
S1 S 0.25570(10) 0.96516(10) 0.96704(9)
C7 C 0.3172(6) 0.5818(5) 0.5963(5)
C8 C 0.4424(7) 0.5816(6) 0.5944(5)
H5 H 0.455113 0.590998 0.529173
C9 C 0.5508(6) 0.5669(5) 0.6921(5)
H6 H 0.637028 0.566220 0.692663
C10 C 0.5296(5) 0.5534(4) 0.7880(4)
C11 C 0.4006(6) 0.5592(6) 0.7877(5)
H7 H 0.386519 0.553966 0.852841
C12 C 0.2947(6) 0.5726(6) 0.6904(5)
H8 H 0.208249 0.575342 0.689021
N2 N 0.2028(7) 0.5943(5) 0.4924(5)
O6 O 0.0954(7) 0.6100(8) 0.4964(6)
O7 O 0.2217(7) 0.5850(6) 0.4060(5)
O8 O 0.7786(4) 0.5139(4) 0.8834(4)
O9 O 0.6240(5) 0.4317(4) 0.9576(3)
O10 O 0.6837(4) 0.6440(4) 0.9774(4)
S2 S 0.66499(12) 0.53196(11) 0.91286(10)
C13 C 0.1481(4) 0.2116(4) 0.1831(4)
C14 C 0.2475(5) 0.1405(5) 0.2413(4)
H9 H 0.285442 0.090021 0.204489
C15 C 0.2919(5) 0.1433(5) 0.3542(4)
H10 H 0.359420 0.094362 0.393223
C16 C 0.2364(4) 0.2189(4) 0.4109(4)
C17 C 0.1343(4) 0.2886(4) 0.3486(4)
H11 H 0.095349 0.338457 0.385035
C18 C 0.0877(4) 0.2877(4) 0.2347(4)
C19 C -0.0249(5) 0.3649(5) 0.1714(4)
H12 H -0.044075 0.353075 0.094005
H13 H -0.103447 0.342618 0.185084
H14 H 0.001394 0.447953 0.194809
C20 C 0.2850(4) 0.2240(4) 0.5333(4)
C21 C 0.4184(5) 0.2071(5) 0.5973(4)
H15 H 0.478149 0.192162 0.563482
C22 C 0.4622(5) 0.2125(5) 0.7101(4)
H16 H 0.551416 0.200499 0.752350
C23 C 0.3751(4) 0.2354(4) 0.7608(3)
C24 C 0.2419(4) 0.2531(4) 0.7017(4)
C25 C 0.1441(5) 0.2786(6) 0.7548(4)
H17 H 0.059192 0.294423 0.699152
H18 H 0.177269 0.347411 0.806069
H19 H 0.133238 0.210182 0.792966
C26 C 0.1995(4) 0.2456(4) 0.5869(3)
H20 H 0.109818 0.255701 0.544728
N3 N 0.1070(4) 0.2063(4) 0.0630(3)
H21 H 0.023325 0.174782 0.031088
H22 H 0.161380 0.160634 0.043837
H23 H 0.111536 0.280111 0.041224
N4 N 0.4282(4) 0.2446(4) 0.8814(3)
H24 H 0.366115 0.216013 0.904486
H25 H 0.450109 0.321341 0.905707
H26 H 0.500474 0.202173 0.907424
C27 C -0.1519(7) 0.2263(9) -0.1894(6)
H27 H -0.200716 0.265426 -0.255174
H28 H -0.213669 0.183621 -0.165570
H29 H -0.094213 0.170825 -0.204222
O11 O -0.0758(6) 0.3113(5) -0.1079(4)
H30 H -0.121943 0.367069 -0.105146
loop_
_geom_bond_atom_site_label_1
_geom_bond_atom_site_label_2
_geom_bond_site_symmetry_1
_geom_bond_site_symmetry_2
C1 C2 1_555 1_555
C2 H1 1_555 1_555
C3 C2 1_555 1_555
H2 C3 1_555 1_555
C4 C3 1_555 1_555
C5 C4 1_555 1_555
H3 C5 1_555 1_555
C6 C1 1_555 1_555
H4 C6 1_555 1_555
N1 C1 1_555 1_555
O1 N1 1_555 1_555
O2 N1 1_555 1_555
O3 S1 1_555 1_555
O4 S1 1_555 1_555
O5 S1 1_555 1_555
S1 C4 1_555 1_555
C7 C8 1_555 1_555
C8 H5 1_555 1_555
C9 C8 1_555 1_555
H6 C9 1_555 1_555
C10 C9 1_555 1_555
C11 C10 1_555 1_555
H7 C11 1_555 1_555
C12 C7 1_555 1_555
H8 C12 1_555 1_555
N2 C7 1_555 1_555
O6 N2 1_555 1_555
O7 N2 1_555 1_555
O8 S2 1_555 1_555
O9 S2 1_555 1_555
O10 S2 1_555 1_555
S2 C10 1_555 1_555
C13 C14 1_555 1_555
C14 H9 1_555 1_555
C15 C14 1_555 1_555
H10 C15 1_555 1_555
C16 C15 1_555 1_555
C17 C16 1_555 1_555
H11 C17 1_555 1_555
C18 C13 1_555 1_555
C19 C18 1_555 1_555
H12 C19 1_555 1_555
H13 C19 1_555 1_555
H14 C19 1_555 1_555
C20 C16 1_555 1_555
C21 C20 1_555 1_555
H15 C21 1_555 1_555
C22 C21 1_555 1_555
H16 C22 1_555 1_555
C23 C22 1_555 1_555
C24 C23 1_555 1_555
C25 C24 1_555 1_555
H17 C25 1_555 1_555
H18 C25 1_555 1_555
H19 C25 1_555 1_555
C26 C20 1_555 1_555
H20 C26 1_555 1_555
N3 C13 1_555 1_555
H21 N3 1_555 1_555
H22 N3 1_555 1_555
H23 N3 1_555 1_555
N4 C23 1_555 1_555
H24 N4 1_555 1_555
H25 N4 1_555 1_555
H26 N4 1_555 1_555
C27 H27 1_555 1_555
H28 C27 1_555 1_555
H29 C27 1_555 1_555
O11 C27 1_555 1_555
H30 O11 1_555 1_555
C5 C6 1_555 1_555
C11 C12 1_555 1_555
C17 C18 1_555 1_555
C24 C26 1_555 1_555

#END
