
#######################################################################
#
#                 Cambridge Crystallographic Data Centre
#                                CCDC 
#
#######################################################################
#
# If this CIF has been generated from an entry in the Cambridge 
# Structural Database, then it will include bibliographic, chemical, 
# crystal, experimental, refinement or atomic coordinate data resulting 
# from the CCDC's data processing and validation procedures.
#
#######################################################################

data_TEZVIE
_chemical_formula_moiety         'C24 H16 N6'
_chemical_name_systematic        
2-(Quinoxalin-2-yl)-1-((quinoxalin-2-yl)methyl)-1H-benzimidazole
_symmetry_cell_setting           triclinic
_symmetry_space_group_name_H-M   'P -1'
_symmetry_Int_Tables_number      2
_space_group_name_Hall           '-P 1'
loop_
_symmetry_equiv_pos_site_id
_symmetry_equiv_pos_as_xyz
1 x,y,z
2 -x,-y,-z
_cell_length_a                   6.8336(3)
_cell_length_b                   11.2430(6)
_cell_length_c                   13.2527(9)
_cell_angle_alpha                114.2350(10)
_cell_angle_beta                 92.859(2)
_cell_angle_gamma                96.397(2)
_cell_volume                     917.541
_exptl_crystal_colour            'light yellow'
_exptl_crystal_description       needle
_chemical_melting_point          '511 K'
_cell_formula_units_Z            2
_exptl_crystal_recrystallization_method methanol/acetonitrile
loop_
_atom_site_label
_atom_site_type_symbol
_atom_site_fract_x
_atom_site_fract_y
_atom_site_fract_z
N1 N 0.39790(13) 0.25452(8) 0.97579(7)
N2 N 0.28873(13) 0.12701(9) 0.69346(7)
N3 N -0.11796(13) 0.01751(9) 0.64974(8)
C1 C 0.14992(15) 0.19566(10) 0.74000(8)
N4 N 0.76128(13) 0.24812(9) 1.08411(8)
C2 C 0.22756(15) -0.00285(10) 0.62140(8)
C3 C 0.02472(15) -0.05774(10) 0.60127(9)
N5 N 0.74104(13) 0.43784(9) 0.87316(7)
C4 C 0.58665(15) 0.18588(10) 1.09716(9)
C5 C 0.20312(15) 0.33834(10) 0.82220(9)
H1 H 0.1203 0.3925 0.8003
H2 H 0.1719 0.3468 0.8968
C6 C 0.57316(15) 0.37957(9) 0.88892(8)
C7 C 0.75068(15) 0.30933(11) 1.01903(9)
H3 H 0.8691 0.3540 1.0088
C8 C 0.56805(15) 0.31157(10) 0.96285(8)
C9 C 0.40452(15) 0.19176(10) 1.04446(8)
C10 C 0.36941(16) -0.08291(11) 0.56766(9)
H4 H 0.5054 -0.0467 0.5795
C11 C 0.68700(16) 0.48720(10) 0.79755(9)
C12 C -0.05499(15) 0.14072(11) 0.71683(9)
H5 H -0.1496 0.1961 0.7517
C13 C 0.22606(16) 0.13072(11) 1.06332(9)
H6 H 0.1028 0.1357 1.0300
C14 C 0.41328(18) 0.05562(11) 1.17952(9)
H7 H 0.4147 0.0073 1.2238
N6 N 0.41054(13) 0.38966(8) 0.82894(7)
C15 C 0.48098(16) 0.45642(10) 0.76799(8)
C16 C 0.10841(18) -0.26839(11) 0.48009(10)
H8 H 0.0701 -0.3593 0.4331
C17 C 0.58770(17) 0.11614(11) 1.16455(9)
H9 H 0.7093 0.1111 1.1996
C18 C 0.30967(18) -0.21343(12) 0.49819(10)
H10 H 0.4051 -0.2673 0.4620
C19 C -0.03231(17) -0.19237(11) 0.52937(10)
H11 H -0.1679 -0.2299 0.5153
C20 C 0.38532(17) 0.49424(11) 0.69315(9)
H12 H 0.2462 0.4724 0.6736
C21 C 0.70765(19) 0.59802(12) 0.67833(10)
H13 H 0.7835 0.6472 0.6464
C22 C 0.80199(17) 0.56049(11) 0.75290(9)
H14 H 0.9408 0.5838 0.7732
C23 C 0.50214(19) 0.56507(12) 0.64862(9)
H15 H 0.4421 0.5921 0.5968
C24 C 0.23177(17) 0.06459(11) 1.12962(9)
H16 H 0.1117 0.0241 1.1423
loop_
_geom_bond_atom_site_label_1
_geom_bond_atom_site_label_2
_geom_bond_site_symmetry_1
_geom_bond_site_symmetry_2
N1 C8 1_555 1_555
N2 C1 1_555 1_555
N3 C3 1_555 1_555
C1 C5 1_555 1_555
N4 C4 1_555 1_555
C2 N2 1_555 1_555
C3 C2 1_555 1_555
N5 C6 1_555 1_555
C4 C9 1_555 1_555
C5 H1 1_555 1_555
H2 C5 1_555 1_555
C6 C8 1_555 1_555
C7 N4 1_555 1_555
H3 C7 1_555 1_555
C8 C7 1_555 1_555
C9 N1 1_555 1_555
C10 C2 1_555 1_555
H4 C10 1_555 1_555
C11 N5 1_555 1_555
C12 N3 1_555 1_555
H5 C12 1_555 1_555
C13 C9 1_555 1_555
H6 C13 1_555 1_555
C14 H7 1_555 1_555
N6 C5 1_555 1_555
C15 C11 1_555 1_555
C16 H8 1_555 1_555
C17 C4 1_555 1_555
H9 C17 1_555 1_555
C18 C10 1_555 1_555
H10 C18 1_555 1_555
C19 C3 1_555 1_555
H11 C19 1_555 1_555
C20 C15 1_555 1_555
H12 C20 1_555 1_555
C21 H13 1_555 1_555
C22 C11 1_555 1_555
H14 C22 1_555 1_555
C23 C20 1_555 1_555
H15 C23 1_555 1_555
C24 C13 1_555 1_555
H16 C24 1_555 1_555
C1 C12 1_555 1_555
C6 N6 1_555 1_555
C14 C17 1_555 1_555
C14 C24 1_555 1_555
N6 C15 1_555 1_555
C16 C18 1_555 1_555
C16 C19 1_555 1_555
C21 C22 1_555 1_555
C21 C23 1_555 1_555

#END
