
#######################################################################
#
#                 Cambridge Crystallographic Data Centre
#                                CCDC 
#
#######################################################################
#
# If this CIF has been generated from an entry in the Cambridge 
# Structural Database, then it will include bibliographic, chemical, 
# crystal, experimental, refinement or atomic coordinate data resulting 
# from the CCDC's data processing and validation procedures.
#
#######################################################################

data_THIAMC11
_chemical_name_common            'Vitamin B1 dihydrochloride monohydrate'
_chemical_formula_moiety         'C12 H18 N4 O1 S1 2+,2(Cl1 1-),H2 O1'
_chemical_name_systematic        'Thiamine dichloride monohydrate'
_chemical_properties_biological  'prophylactic activity'
_symmetry_cell_setting           monoclinic
_symmetry_space_group_name_H-M   'P 21/n'
_symmetry_Int_Tables_number      14
_space_group_name_Hall           '-P 2yn'
loop_
_symmetry_equiv_pos_site_id
_symmetry_equiv_pos_as_xyz
1 x,y,z
2 1/2-x,1/2+y,1/2-z
3 -x,-y,-z
4 1/2+x,1/2-y,1/2+z
_cell_length_a                   6.975(1)
_cell_length_b                   20.555(4)
_cell_length_c                   11.727(2)
_cell_angle_alpha                90
_cell_angle_beta                 98.78(2)
_cell_angle_gamma                90
_cell_volume                     1661.61
_exptl_crystal_colour            colorless
_cell_formula_units_Z            4
loop_
_atom_site_label
_atom_site_type_symbol
_atom_site_fract_x
_atom_site_fract_y
_atom_site_fract_z
S1 S 0.9131(5) 0.2888(2) 0.6473(3)
C1 C 0.9820(16) 0.3620(7) 0.6940(11)
N1 N 0.8828(12) 0.3817(4) 0.7769(8)
C2 C 0.7560(15) 0.3367(7) 0.8085(10)
C3 C 0.7567(17) 0.2839(5) 0.7458(11)
C4 C 0.6441(21) 0.3504(7) 0.9018(12)
C5 C 0.6232(20) 0.2238(7) 0.7448(13)
C6 C 0.4202(19) 0.2377(8) 0.6864(14)
O1 O 0.4105(15) 0.2663(5) 0.5775(9)
C7 C 0.9055(18) 0.4471(6) 0.8313(11)
N2 N 1.3101(14) 0.5559(5) 0.7811(8)
C8 C 1.2392(17) 0.5865(5) 0.6798(11)
N3 N 1.0650(15) 0.5701(4) 0.6234(8)
C9 C 0.9550(16) 0.5257(6) 0.6685(10)
C10 C 1.0238(17) 0.4940(6) 0.7755(11)
C11 C 1.2052(17) 0.5096(6) 0.8285(11)
C12 C 1.3653(21) 0.6305(8) 0.6308(13)
N4 N 0.7817(14) 0.5152(5) 0.6113(9)
H1 H 0.3545 0.2997 0.5814
H2 H 0.3485 0.1954 0.6694
H3 H 0.3709 0.2485 0.7460
H4 H 0.6677 0.1890 0.7024
H5 H 0.6192 0.2157 0.8193
H6 H 0.7419 0.3696 0.9816
H7 H 0.5525 0.3901 0.8820
H8 H 0.6009 0.3135 0.9213
H9 H 1.0855 0.3890 0.6717
H10 H 0.7736 0.4697 0.8322
H11 H 0.9917 0.4437 0.9097
H12 H 1.2795 0.4781 0.8936
H13 H 1.4371 0.5714 0.8303
H14 H 1.4205 0.6583 0.6753
H15 H 1.4841 0.6234 0.6098
H16 H 1.2928 0.6527 0.5667
H17 H 0.7216 0.5381 0.5358
H18 H 0.6903 0.4924 0.6354
O2 O 0.6719(17) 0.2052(4) 0.4350(8)
H19 H 0.6006 0.2449 0.4584
H20 H 0.6847 0.1768 0.5067
Cl1 Cl 0.4199(4) 0.4193(2) 0.6291(3)
Cl2 Cl 0.7947(5) 0.0846(2) 0.5808(3)
loop_
_geom_bond_atom_site_label_1
_geom_bond_atom_site_label_2
_geom_bond_site_symmetry_1
_geom_bond_site_symmetry_2
S1 C1 1_555 1_555
C1 N1 1_555 1_555
N1 C2 1_555 1_555
C2 C3 1_555 1_555
C3 S1 1_555 1_555
C4 C2 1_555 1_555
C5 C3 1_555 1_555
C6 C5 1_555 1_555
O1 C6 1_555 1_555
C7 N1 1_555 1_555
N2 C8 1_555 1_555
C8 N3 1_555 1_555
N3 C9 1_555 1_555
C9 C10 1_555 1_555
C10 C7 1_555 1_555
C11 N2 1_555 1_555
C12 C8 1_555 1_555
N4 C9 1_555 1_555
H1 O1 1_555 1_555
H2 C6 1_555 1_555
H3 C6 1_555 1_555
H4 C5 1_555 1_555
H5 C5 1_555 1_555
H6 C4 1_555 1_555
H7 C4 1_555 1_555
H8 C4 1_555 1_555
H9 C1 1_555 1_555
H10 C7 1_555 1_555
H11 C7 1_555 1_555
H12 C11 1_555 1_555
H13 N2 1_555 1_555
H14 C12 1_555 1_555
H15 C12 1_555 1_555
H16 C12 1_555 1_555
H17 N4 1_555 1_555
H18 N4 1_555 1_555
O2 H19 1_555 1_555
H20 O2 1_555 1_555
C10 C11 1_555 1_555

#END
