
#######################################################################
#
#                 Cambridge Crystallographic Data Centre
#                                CCDC 
#
#######################################################################
#
# If this CIF has been generated from an entry in the Cambridge 
# Structural Database, then it will include bibliographic, chemical, 
# crystal, experimental, refinement or atomic coordinate data resulting 
# from the CCDC's data processing and validation procedures.
#
#######################################################################

data_TIBDUG
_chemical_formula_moiety         'C22 H17 B2 N3'
_chemical_name_systematic        
3,9-diphenyl-3,4,8,9-tetrahydro-4,8,9b-triaza-3,9-diboracyclopenta[cd]phenalene
_symmetry_cell_setting           monoclinic
_symmetry_space_group_name_H-M   'P 21/c'
_symmetry_Int_Tables_number      14
_space_group_name_Hall           '-P 2ybc'
loop_
_symmetry_equiv_pos_site_id
_symmetry_equiv_pos_as_xyz
1 x,y,z
2 -x,1/2+y,1/2-z
3 -x,-y,-z
4 x,1/2-y,1/2+z
_cell_length_a                   9.4114(10)
_cell_length_b                   14.6134(16)
_cell_length_c                   13.655(2)
_cell_angle_alpha                90
_cell_angle_beta                 106.732(15)
_cell_angle_gamma                90
_cell_volume                     1798.5
_exptl_crystal_colour            colorless
_exptl_crystal_description       Block
_cell_formula_units_Z            4
loop_
_atom_site_label
_atom_site_type_symbol
_atom_site_fract_x
_atom_site_fract_y
_atom_site_fract_z
N1 N 0.41580(14) 0.49416(9) 0.68951(12)
N2 N 0.53515(17) 0.59155(12) 0.86820(15)
N3 N 0.59522(16) 0.39721(10) 0.59798(13)
H1 H 0.6529 0.3678 0.5704
C1 C 0.31586(18) 0.54373(11) 0.72701(14)
C2 C 0.34456(18) 0.44640(12) 0.60158(13)
C3 C 0.57046(17) 0.49648(12) 0.73316(15)
C4 C 0.3775(2) 0.31948(12) 0.46217(14)
C5 C 0.17633(19) 0.52629(12) 0.65798(14)
H2 H 0.0867 0.5501 0.6623
C6 C 0.19370(19) 0.46758(13) 0.58187(14)
H3 H 0.1176 0.4460 0.5270
C7 C 0.28284(19) 0.64568(12) 0.88771(15)
C8 C 0.66210(19) 0.44973(12) 0.68413(16)
C9 C 0.63167(19) 0.54719(13) 0.82182(17)
C10 C 0.1593(2) 0.69919(14) 0.83996(18)
H4 H 0.1300 0.7044 0.7691
C11 C 0.0798(2) 0.74463(15) 0.89594(19)
H5 H -0.0010 0.7807 0.8624
C12 C 0.4451(3) 0.30355(14) 0.38490(17)
H6 H 0.5286 0.3374 0.3844
C13 C 0.2529(2) 0.26612(15) 0.45919(16)
H7 H 0.2043 0.2749 0.5089
C14 C 0.3190(2) 0.63882(15) 0.99340(17)
H8 H 0.4000 0.6034 1.0279
C15 C 0.1187(2) 0.73711(16) 0.99971(19)
H9 H 0.0652 0.7681 1.0370
C16 C 0.8158(2) 0.45754(14) 0.7250(2)
H10 H 0.8783 0.4279 0.6934
C17 C 0.7865(2) 0.55324(15) 0.8611(2)
H11 H 0.8290 0.5869 0.9201
C18 C 0.8751(2) 0.50866(16) 0.8114(2)
H12 H 0.9777 0.5134 0.8372
C19 C 0.2707(3) 0.18710(18) 0.30957(19)
H13 H 0.2363 0.1428 0.2595
C20 C 0.1999(3) 0.20046(17) 0.38413(18)
H14 H 0.1171 0.1657 0.3840
B1 B 0.4399(2) 0.38805(14) 0.55171(17)
C21 C 0.2376(3) 0.68334(18) 1.04879(19)
H15 H 0.2635 0.6768 1.1195
C22 C 0.3914(3) 0.23913(17) 0.30954(18)
H16 H 0.4376 0.2310 0.2584
B2 B 0.3776(2) 0.59507(14) 0.82713(18)
H17 H 0.582(3) 0.6194(16) 0.9252(18)
loop_
_geom_bond_atom_site_label_1
_geom_bond_atom_site_label_2
_geom_bond_site_symmetry_1
_geom_bond_site_symmetry_2
N1 C1 1_555 1_555
N2 C9 1_555 1_555
N3 H1 1_555 1_555
C1 C5 1_555 1_555
C2 N1 1_555 1_555
C3 N1 1_555 1_555
C4 C12 1_555 1_555
C5 H2 1_555 1_555
C6 C2 1_555 1_555
H3 C6 1_555 1_555
C7 C10 1_555 1_555
C8 N3 1_555 1_555
C9 C3 1_555 1_555
C10 H4 1_555 1_555
C11 C10 1_555 1_555
H5 C11 1_555 1_555
C12 H6 1_555 1_555
C13 C4 1_555 1_555
H7 C13 1_555 1_555
C14 C7 1_555 1_555
H8 C14 1_555 1_555
C15 C11 1_555 1_555
H9 C15 1_555 1_555
C16 C8 1_555 1_555
H10 C16 1_555 1_555
C17 C9 1_555 1_555
H11 C17 1_555 1_555
C18 C16 1_555 1_555
H12 C18 1_555 1_555
C19 H13 1_555 1_555
C20 C13 1_555 1_555
H14 C20 1_555 1_555
B1 N3 1_555 1_555
C21 C14 1_555 1_555
H15 C21 1_555 1_555
C22 C12 1_555 1_555
H16 C22 1_555 1_555
B2 N2 1_555 1_555
H17 N2 1_555 1_555
C1 B2 1_555 1_555
C2 B1 1_555 1_555
C3 C8 1_555 1_555
C4 B1 1_555 1_555
C5 C6 1_555 1_555
C7 B2 1_555 1_555
C15 C21 1_555 1_555
C17 C18 1_555 1_555
C19 C20 1_555 1_555
C19 C22 1_555 1_555

#END
