
#######################################################################
#
#                 Cambridge Crystallographic Data Centre
#                                CCDC 
#
#######################################################################
#
# If this CIF has been generated from an entry in the Cambridge 
# Structural Database, then it will include bibliographic, chemical, 
# crystal, experimental, refinement or atomic coordinate data resulting 
# from the CCDC's data processing and validation procedures.
#
#######################################################################

data_TIBDEQ
_chemical_formula_moiety         'C11 H11 B1 N2'
_chemical_name_systematic        
4-methyl-4,5-dihydropyrrolo[2,1-c][1,4,2]benzodiazaborinine
_symmetry_cell_setting           orthorhombic
_symmetry_space_group_name_H-M   'P b c 21'
_symmetry_Int_Tables_number      29
_space_group_name_Hall           'P 2c -2b'
loop_
_symmetry_equiv_pos_site_id
_symmetry_equiv_pos_as_xyz
1 x,y,z
2 -x,-y,1/2+z
3 -x,1/2+y,z
4 x,1/2-y,1/2+z
_cell_length_a                   9.143(3)
_cell_length_b                   19.681(3)
_cell_length_c                   5.6030(11)
_cell_angle_alpha                90
_cell_angle_beta                 90
_cell_angle_gamma                90
_cell_volume                     1008.22
_exptl_crystal_colour            colorless
_exptl_crystal_description       block
_cell_formula_units_Z            4
loop_
_atom_site_label
_atom_site_type_symbol
_atom_site_fract_x
_atom_site_fract_y
_atom_site_fract_z
C1 C 0.7087(4) 0.67934(17) 0.0434(7)
H1 H 0.6826 0.7252 0.0832
H2 H 0.6238 0.6508 0.0552
H3 H 0.7459 0.6779 -0.1167
C2 C 1.3396(6) 0.6668(2) 0.4978(11)
N1 N 0.9738(4) 0.67823(12) 0.2122(5)
C3 C 1.2303(6) 0.68438(18) 0.3415(8)
C4 C 0.8701(4) 0.53863(15) 0.7378(7)
C5 C 1.0877(4) 0.65915(13) 0.3694(6)
N2 N 0.9169(3) 0.58596(10) 0.5780(4)
C6 C 1.3109(5) 0.6237(2) 0.6857(10)
C7 C 0.7262(4) 0.52275(17) 0.6880(8)
C8 C 0.6839(4) 0.56171(18) 0.4910(8)
C9 C 1.1715(4) 0.59798(17) 0.7146(7)
C10 C 0.8016(3) 0.60174(13) 0.4173(6)
C11 C 1.0591(3) 0.61420(12) 0.5586(6)
B1 B 0.8301(5) 0.65318(17) 0.2221(7)
H4 H 0.944(3) 0.5236(13) 0.873(6)
H5 H 0.669(3) 0.4885(16) 0.782(6)
H6 H 1.148(3) 0.5710(13) 0.843(6)
H7 H 0.994(4) 0.7065(15) 0.085(9)
H8 H 0.590(4) 0.5631(18) 0.411(8)
H9 H 1.397(4) 0.6108(16) 0.808(7)
H10 H 1.435(4) 0.6824(16) 0.481(7)
H11 H 1.247(4) 0.7137(17) 0.212(8)
loop_
_geom_bond_atom_site_label_1
_geom_bond_atom_site_label_2
_geom_bond_site_symmetry_1
_geom_bond_site_symmetry_2
C1 H1 1_555 1_555
H2 C1 1_555 1_555
H3 C1 1_555 1_555
C2 C3 1_555 1_555
N1 C5 1_555 1_555
C3 C5 1_555 1_555
C4 N2 1_555 1_555
C5 C11 1_555 1_555
N2 C10 1_555 1_555
C6 C2 1_555 1_555
C7 C4 1_555 1_555
C8 C7 1_555 1_555
C9 C6 1_555 1_555
C10 C8 1_555 1_555
C11 N2 1_555 1_555
B1 C1 1_555 1_555
H4 C4 1_555 1_555
H5 C7 1_555 1_555
H6 C9 1_555 1_555
H7 N1 1_555 1_555
H8 C8 1_555 1_555
H9 C6 1_555 1_555
H10 C2 1_555 1_555
H11 C3 1_555 1_555
N1 B1 1_555 1_555
C9 C11 1_555 1_555
C10 B1 1_555 1_555

#END
