
#######################################################################
#
#                 Cambridge Crystallographic Data Centre
#                                CCDC 
#
#######################################################################
#
# If this CIF has been generated from an entry in the Cambridge 
# Structural Database, then it will include bibliographic, chemical, 
# crystal, experimental, refinement or atomic coordinate data resulting 
# from the CCDC's data processing and validation procedures.
#
#######################################################################

data_TIBFAO
_chemical_formula_moiety         'C12 H13 B2 N3'
_chemical_name_systematic        
3,9-dimethyl-3,4,8,9-tetrahydro-4,8,9b-triaza-3,9-diboracyclopenta[cd]phenalene
_symmetry_cell_setting           orthorhombic
_symmetry_space_group_name_H-M   'P n 21 a'
_symmetry_Int_Tables_number      33
_space_group_name_Hall           'P -2ac -2n'
loop_
_symmetry_equiv_pos_site_id
_symmetry_equiv_pos_as_xyz
1 x,y,z
2 -x,1/2+y,-z
3 1/2+x,y,1/2-z
4 1/2-x,1/2+y,1/2+z
_cell_length_a                   25.522(5)
_cell_length_b                   5.0060(12)
_cell_length_c                   17.930(4)
_cell_angle_alpha                90
_cell_angle_beta                 90
_cell_angle_gamma                90
_cell_volume                     2290.79
_exptl_crystal_colour            colorless
_exptl_crystal_description       Block
_cell_formula_units_Z            8
loop_
_atom_site_label
_atom_site_type_symbol
_atom_site_fract_x
_atom_site_fract_y
_atom_site_fract_z
N1 N 0.76848(12) 0.5761(7) 0.89837(17)
N2 N 0.71296(13) 0.9565(8) 0.82442(19)
H1 H 0.6960 1.0759 0.7998
C1 C 0.77604(15) 0.6080(9) 0.8223(2)
N3 N 0.83918(13) 0.2586(7) 0.82665(18)
H2 H 0.8610 0.1601 0.8027
C2 C 0.74886(15) 0.8037(8) 0.7852(2)
C3 C 0.79503(16) 0.3936(10) 0.9407(2)
C4 C 0.81154(15) 0.4457(10) 0.7862(2)
C5 C 0.75761(16) 0.8385(10) 0.7101(2)
H3 H 0.7400 0.9718 0.6841
C6 C 0.73431(17) 0.7263(10) 0.9399(2)
C7 C 0.81893(16) 0.4794(11) 0.7107(2)
H4 H 0.8419 0.3686 0.6850
C8 C 0.79246(17) 0.6757(12) 0.6738(2)
H5 H 0.7982 0.6996 0.6230
B1 B 0.70180(19) 0.9336(12) 0.9012(3)
B2 B 0.83465(18) 0.2156(11) 0.9035(3)
C9 C 0.86862(18) 0.0089(11) 0.9442(2)
H6 H 0.8853 -0.1050 0.9083
H7 H 0.8470 -0.0967 0.9765
H8 H 0.8948 0.0992 0.9732
C10 C 0.77682(18) 0.4333(11) 1.0122(2)
H9 H 0.7876 0.3386 1.0541
C11 C 0.6588(2) 1.1045(13) 0.9387(3)
H10 H 0.6649 1.2898 0.9282
H11 H 0.6596 1.0762 0.9916
H12 H 0.6251 1.0534 0.9196
C12 C 0.74038(19) 0.6336(12) 1.0121(2)
H13 H 0.7226 0.6972 1.0538
N4 N 0.50482(13) 0.0417(8) 0.74625(19)
C13 C 0.57941(17) 0.0862(11) 0.6677(3)
C14 C 0.55146(16) 0.1604(10) 0.7301(3)
C15 C 0.5700(2) 0.3621(11) 0.7783(3)
N5 N 0.55832(14) -0.1115(10) 0.6231(2)
H14 H 0.5759 -0.1558 0.5840
C16 C 0.48241(16) -0.1554(10) 0.7038(3)
C17 C 0.43626(18) -0.2182(13) 0.7393(3)
H15 H 0.4124 -0.3471 0.7236
C18 C 0.6167(2) 0.4796(14) 0.7616(4)
H16 H 0.6301 0.6107 0.7930
C19 C 0.47326(19) 0.1033(12) 0.8073(2)
N6 N 0.53972(19) 0.4261(12) 0.8398(2)
H17 H 0.5519 0.5469 0.8692
C20 C 0.6263(2) 0.2096(14) 0.6518(3)
H18 H 0.6456 0.1614 0.6099
C21 C 0.43096(18) -0.0630(15) 0.8006(3)
H19 H 0.4027 -0.0686 0.8334
C22 C 0.6442(2) 0.4073(15) 0.6995(4)
H20 H 0.6756 0.4928 0.6889
C23 C 0.4915(2) -0.4649(12) 0.5817(3)
H21 H 0.4701 -0.3850 0.5437
H22 H 0.4712 -0.5939 0.6088
H23 H 0.5210 -0.5516 0.5589
B3 B 0.5110(2) -0.2467(12) 0.6356(3)
B4 B 0.4910(3) 0.3130(17) 0.8589(4)
C24 C 0.4609(3) 0.403(2) 0.9294(3)
H24 H 0.4286 0.4864 0.9150
H25 H 0.4819 0.5286 0.9568
H26 H 0.4536 0.2507 0.9602
loop_
_geom_bond_atom_site_label_1
_geom_bond_atom_site_label_2
_geom_bond_site_symmetry_1
_geom_bond_site_symmetry_2
N1 C1 1_555 1_555
N2 H1 1_555 1_555
C1 C2 1_555 1_555
N3 H2 1_555 1_555
C2 N2 1_555 1_555
C3 N1 1_555 1_555
C4 C1 1_555 1_555
C5 C2 1_555 1_555
H3 C5 1_555 1_555
C6 N1 1_555 1_555
C7 C4 1_555 1_555
H4 C7 1_555 1_555
C8 C5 1_555 1_555
H5 C8 1_555 1_555
B1 N2 1_555 1_555
B2 N3 1_555 1_555
C9 B2 1_555 1_555
H6 C9 1_555 1_555
H7 C9 1_555 1_555
H8 C9 1_555 1_555
C10 C3 1_555 1_555
H9 C10 1_555 1_555
C11 B1 1_555 1_555
H10 C11 1_555 1_555
H11 C11 1_555 1_555
H12 C11 1_555 1_555
C12 C6 1_555 1_555
H13 C12 1_555 1_555
N4 C14 1_555 1_555
C13 C14 1_555 1_555
C14 C15 1_555 1_555
C15 C18 1_555 1_555
N5 C13 1_555 1_555
H14 N5 1_555 1_555
C16 N4 1_555 1_555
C17 C16 1_555 1_555
H15 C17 1_555 1_555
C18 H16 1_555 1_555
C19 N4 1_555 1_555
N6 C15 1_555 1_555
H17 N6 1_555 1_555
C20 C13 1_555 1_555
H18 C20 1_555 1_555
C21 C17 1_555 1_555
H19 C21 1_555 1_555
C22 C18 1_555 1_555
H20 C22 1_555 1_555
C23 H21 1_555 1_555
H22 C23 1_555 1_555
H23 C23 1_555 1_555
B3 N5 1_555 1_555
B4 C19 1_555 1_555
C24 B4 1_555 1_555
H24 C24 1_555 1_555
H25 C24 1_555 1_555
H26 C24 1_555 1_555
N3 C4 1_555 1_555
C3 B2 1_555 1_555
C6 B1 1_555 1_555
C7 C8 1_555 1_555
C10 C12 1_555 1_555
C16 B3 1_555 1_555
C19 C21 1_555 1_555
N6 B4 1_555 1_555
C20 C22 1_555 1_555
C23 B3 1_555 1_555

#END
