
#######################################################################
#
#                 Cambridge Crystallographic Data Centre
#                                CCDC 
#
#######################################################################
#
# If this CIF has been generated from an entry in the Cambridge 
# Structural Database, then it will include bibliographic, chemical, 
# crystal, experimental, refinement or atomic coordinate data resulting 
# from the CCDC's data processing and validation procedures.
#
#######################################################################

data_TIBMAT
_chemical_formula_moiety         'C21 H16 Br1 Cl1 N2'
_chemical_name_systematic        
1-Phenyl-3-(4-bromophenyl)-5-(2-chlorophenyl)-2-pyrazoline
_symmetry_cell_setting           triclinic
_symmetry_space_group_name_H-M   'P -1'
_symmetry_Int_Tables_number      2
_space_group_name_Hall           '-P 1'
loop_
_symmetry_equiv_pos_site_id
_symmetry_equiv_pos_as_xyz
1 x,y,z
2 -x,-y,-z
_cell_length_a                   8.4440(17)
_cell_length_b                   9.4810(19)
_cell_length_c                   11.780(2)
_cell_angle_alpha                89.64(3)
_cell_angle_beta                 80.73(3)
_cell_angle_gamma                81.73(3)
_cell_volume                     920.945
_exptl_crystal_colour            yellow
_exptl_crystal_description       block
_cell_formula_units_Z            2
_exptl_crystal_recrystallization_method ethanol
loop_
_atom_site_label
_atom_site_type_symbol
_atom_site_fract_x
_atom_site_fract_y
_atom_site_fract_z
Br1 Br -0.58746(4) 1.32813(4) 0.64385(4)
Cl1 Cl 0.25816(13) 0.39250(10) 0.33899(10)
N1 N 0.1281(3) 0.8247(2) 0.2096(2)
N2 N 0.0105(3) 0.9374(2) 0.2509(2)
C1 C -0.2491(4) 0.9743(3) 0.5328(3)
H1 H -0.2090 0.8891 0.5645
C2 C -0.3677(4) 1.0701(3) 0.5993(3)
H2 H -0.4071 1.0493 0.6750
C3 C -0.4261(3) 1.1965(3) 0.5514(3)
C4 C -0.3721(4) 1.2286(3) 0.4390(3)
H3 H -0.4140 1.3135 0.4077
C5 C -0.2542(4) 1.1322(3) 0.3732(3)
H4 H -0.2174 1.1528 0.2970
C6 C -0.1897(3) 1.0044(3) 0.4196(2)
C7 C -0.0594(3) 0.9051(3) 0.3512(2)
C8 C 0.0113(4) 0.7622(3) 0.3925(2)
H5 H -0.0724 0.7034 0.4175
H6 H 0.0710 0.7730 0.4550
C9 C 0.1251(3) 0.6992(3) 0.2836(2)
H7 H 0.2337 0.6661 0.3013
C10 C 0.0600(3) 0.5788(3) 0.2297(2)
C11 C -0.0605(4) 0.6071(3) 0.1621(3)
H8 H -0.0959 0.7010 0.1447
C12 C -0.1294(4) 0.4982(4) 0.1197(3)
H9 H -0.2116 0.5197 0.0758
C13 C -0.0763(5) 0.3581(4) 0.1427(3)
H10 H -0.1222 0.2852 0.1140
C14 C 0.0444(5) 0.3263(4) 0.2080(3)
H11 H 0.0822 0.2320 0.2226
C15 C 0.1091(4) 0.4367(3) 0.2519(3)
C16 C 0.2317(3) 0.8334(3) 0.1058(2)
C17 C 0.2139(4) 0.9517(3) 0.0359(3)
H12 H 0.1314 1.0270 0.0582
C18 C 0.3182(5) 0.9573(4) -0.0665(3)
H13 H 0.3054 1.0368 -0.1126
C19 C 0.4420(4) 0.8459(4) -0.1014(3)
H14 H 0.5117 0.8503 -0.1706
C20 C 0.4603(4) 0.7293(4) -0.0325(3)
H15 H 0.5437 0.6548 -0.0555
C21 C 0.3572(4) 0.7204(3) 0.0703(3)
H16 H 0.3706 0.6404 0.1157
loop_
_geom_bond_atom_site_label_1
_geom_bond_atom_site_label_2
_geom_bond_site_symmetry_1
_geom_bond_site_symmetry_2
Br1 C3 1_555 1_555
Cl1 C15 1_555 1_555
N1 N2 1_555 1_555
N2 C7 1_555 1_555
C1 H1 1_555 1_555
C2 C1 1_555 1_555
H2 C2 1_555 1_555
C3 C2 1_555 1_555
C4 C3 1_555 1_555
H3 C4 1_555 1_555
C5 C4 1_555 1_555
H4 C5 1_555 1_555
C6 C1 1_555 1_555
C7 C6 1_555 1_555
C8 C7 1_555 1_555
H5 C8 1_555 1_555
H6 C8 1_555 1_555
C9 N1 1_555 1_555
H7 C9 1_555 1_555
C10 C9 1_555 1_555
C11 C10 1_555 1_555
H8 C11 1_555 1_555
C12 C11 1_555 1_555
H9 C12 1_555 1_555
C13 C12 1_555 1_555
H10 C13 1_555 1_555
C14 C13 1_555 1_555
H11 C14 1_555 1_555
C15 C10 1_555 1_555
C16 N1 1_555 1_555
C17 C16 1_555 1_555
H12 C17 1_555 1_555
C18 C17 1_555 1_555
H13 C18 1_555 1_555
C19 C18 1_555 1_555
H14 C19 1_555 1_555
C20 C19 1_555 1_555
H15 C20 1_555 1_555
C21 C16 1_555 1_555
H16 C21 1_555 1_555
C5 C6 1_555 1_555
C8 C9 1_555 1_555
C14 C15 1_555 1_555
C20 C21 1_555 1_555

#END
