
#######################################################################
#
#                 Cambridge Crystallographic Data Centre
#                                CCDC 
#
#######################################################################
#
# If this CIF has been generated from an entry in the Cambridge 
# Structural Database, then it will include bibliographic, chemical, 
# crystal, experimental, refinement or atomic coordinate data resulting 
# from the CCDC's data processing and validation procedures.
#
#######################################################################

data_TICWEI
_chemical_formula_moiety         'C34 H16 Br3 N11,C1 H2 Cl2'
_chemical_name_systematic        
'4-((11,17,23-Tribromo-2,8,14,20-tetrakis(diazo)pentacyclo-(19.3.1.1^3,7^.1^9,13^.1^15,19^)octacosa-1(25),3(28),4,6,9(27),10,12,15(26),16,18,21,23-dodecaen-5-yl)methyl)pyridine dichloromethane solvate'
_symmetry_cell_setting           triclinic
_symmetry_space_group_name_H-M   'P -1'
_symmetry_Int_Tables_number      2
_space_group_name_Hall           '-P 1'
loop_
_symmetry_equiv_pos_site_id
_symmetry_equiv_pos_as_xyz
1 x,y,z
2 -x,-y,-z
_cell_length_a                   12.415(2)
_cell_length_b                   16.0410(15)
_cell_length_c                   8.7947(9)
_cell_angle_alpha                99.746(3)
_cell_angle_beta                 97.766(7)
_cell_angle_gamma                81.759(9)
_cell_volume                     1697.28
_exptl_crystal_colour            red
_exptl_crystal_description       prism
_chemical_melting_point          102deg.C(dec)
_cell_formula_units_Z            2
_exptl_crystal_recrystallization_method dichloromethane
loop_
_atom_site_label
_atom_site_type_symbol
_atom_site_fract_x
_atom_site_fract_y
_atom_site_fract_z
Br1 Br 1.14984(10) 0.34080(9) 1.16681(17)
Br2 Br 0.74782(11) -0.17196(8) 0.52866(13)
Br3 Br 0.58177(9) 0.11481(6) 1.65832(11)
N1 N 0.0179(7) 0.3772(6) 0.6756(11)
N2 N 0.3621(6) 0.5084(5) 0.6782(10)
N3 N 0.3783(7) 0.5605(6) 0.6132(11)
N4 N 0.7623(6) 0.4211(5) 0.7767(11)
N5 N 0.7764(7) 0.4622(7) 0.6901(15)
N6 N 1.0379(7) 0.0527(5) 0.7750(10)
N7 N 1.1089(7) 0.0294(6) 0.7109(11)
N8 N 0.6412(6) -0.0854(5) 1.1112(9)
N9 N 0.6306(7) -0.1506(5) 1.1304(9)
N10 N 0.4303(6) 0.3413(4) 1.2865(8)
N11 N 0.3753(7) 0.3843(5) 1.3724(10)
C1 C 0.0390(8) 0.4541(7) 0.6642(13)
C2 C 0.1435(8) 0.4817(6) 0.6861(12)
C3 C 0.2339(8) 0.4254(5) 0.7273(10)
C4 C 0.2113(8) 0.3424(6) 0.7411(12)
C5 C 0.1035(9) 0.3226(7) 0.7151(12)
C6 C 0.3438(7) 0.4477(6) 0.7524(10)
C7 C 0.4399(7) 0.4064(5) 0.8436(10)
C8 C 0.4250(7) 0.3698(5) 0.9725(10)
C9 C 0.5150(7) 0.3285(5) 1.0568(10)
C10 C 0.6184(7) 0.3259(5) 1.0175(11)
C11 C 0.6349(7) 0.3655(5) 0.8926(11)
C12 C 0.5465(7) 0.4044(5) 0.8072(11)
C13 C 0.7460(8) 0.3688(6) 0.8637(12)
C14 C 0.8443(7) 0.3121(6) 0.9179(11)
C15 C 0.8506(7) 0.2259(6) 0.8791(11)
C16 C 0.9444(8) 0.1728(6) 0.9163(12)
C17 C 1.0342(7) 0.2061(6) 1.0032(12)
C18 C 1.0256(8) 0.2948(7) 1.0439(12)
C19 C 0.9355(8) 0.3484(6) 1.0066(11)
C20 C 0.9525(7) 0.0816(6) 0.8484(12)
C21 C 0.8676(8) 0.0276(6) 0.8385(11)
C22 C 0.7987(7) 0.0390(5) 0.9551(11)
C23 C 0.7186(6) -0.0147(5) 0.9472(10)
C24 C 0.7026(8) -0.0777(5) 0.8184(11)
C25 C 0.7733(8) -0.0879(6) 0.7041(11)
C26 C 0.8537(7) -0.0358(6) 0.7104(11)
C27 C 0.6580(7) -0.0100(5) 1.0810(10)
C28 C 0.6232(6) 0.0640(5) 1.1901(10)
C29 C 0.5865(7) 0.1435(5) 1.1435(11)
C30 C 0.5457(6) 0.2139(5) 1.2477(9)
C31 C 0.5470(7) 0.2041(6) 1.4027(10)
C32 C 0.5838(7) 0.1268(6) 1.4490(10)
C33 C 0.6213(7) 0.0557(6) 1.3475(10)
C34 C 0.4961(6) 0.2946(5) 1.1932(10)
H1 H -0.0218 0.4937 0.6389
H2 H 0.1514 0.5375 0.6724
H3 H 0.2700 0.3010 0.7666
H4 H 0.0924 0.2678 0.7272
H5 H 0.3524 0.3731 1.0004
H6 H 0.6783 0.2974 1.0747
H7 H 0.5584 0.4311 0.7234
H8 H 0.7884 0.2022 0.8242
H9 H 1.0994 0.1718 1.0319
H10 H 0.9349 0.4086 1.0353
H11 H 0.8052 0.0834 1.0397
H12 H 0.6469 -0.1135 0.8122
H13 H 0.8965 -0.0449 0.6286
H14 H 0.5889 0.1495 1.0393
H15 H 0.5194 0.2501 1.4752
H16 H 0.6426 0.0025 1.3820
loop_
_geom_bond_atom_site_label_1
_geom_bond_atom_site_label_2
_geom_bond_site_symmetry_1
_geom_bond_site_symmetry_2
Br1 C18 1_555 1_555
Br2 C25 1_555 1_555
Br3 C32 1_555 1_555
N1 C1 1_555 1_555
N2 N3 1_555 1_555
N4 N5 1_555 1_555
N6 N7 1_555 1_555
N8 N9 1_555 1_555
N10 N11 1_555 1_555
C1 C2 1_555 1_555
C2 C3 1_555 1_555
C3 C4 1_555 1_555
C4 C5 1_555 1_555
C5 N1 1_555 1_555
C6 N2 1_555 1_555
C7 C6 1_555 1_555
C8 C7 1_555 1_555
C9 C8 1_555 1_555
C10 C9 1_555 1_555
C11 C10 1_555 1_555
C12 C7 1_555 1_555
C13 N4 1_555 1_555
C14 C13 1_555 1_555
C15 C14 1_555 1_555
C16 C15 1_555 1_555
C17 C16 1_555 1_555
C18 C17 1_555 1_555
C19 C14 1_555 1_555
C20 N6 1_555 1_555
C21 C20 1_555 1_555
C22 C21 1_555 1_555
C23 C22 1_555 1_555
C24 C23 1_555 1_555
C25 C24 1_555 1_555
C26 C21 1_555 1_555
C27 N8 1_555 1_555
C28 C27 1_555 1_555
C29 C28 1_555 1_555
C30 C29 1_555 1_555
C31 C30 1_555 1_555
C32 C31 1_555 1_555
C33 C28 1_555 1_555
C34 N10 1_555 1_555
H1 C1 1_555 1_555
H2 C2 1_555 1_555
H3 C4 1_555 1_555
H4 C5 1_555 1_555
H5 C8 1_555 1_555
H6 C10 1_555 1_555
H7 C12 1_555 1_555
H8 C15 1_555 1_555
H9 C17 1_555 1_555
H10 C19 1_555 1_555
H11 C22 1_555 1_555
H12 C24 1_555 1_555
H13 C26 1_555 1_555
H14 C29 1_555 1_555
H15 C31 1_555 1_555
H16 C33 1_555 1_555
C3 C6 1_555 1_555
C9 C34 1_555 1_555
C11 C12 1_555 1_555
C11 C13 1_555 1_555
C16 C20 1_555 1_555
C18 C19 1_555 1_555
C23 C27 1_555 1_555
C25 C26 1_555 1_555
C30 C34 1_555 1_555
C32 C33 1_555 1_555

#END
