
#######################################################################
#
#                 Cambridge Crystallographic Data Centre
#                                CCDC 
#
#######################################################################
#
# If this CIF has been generated from an entry in the Cambridge 
# Structural Database, then it will include bibliographic, chemical, 
# crystal, experimental, refinement or atomic coordinate data resulting 
# from the CCDC's data processing and validation procedures.
#
#######################################################################

data_TIDPUT
_chemical_formula_moiety         'C27 H24 O6'
_chemical_name_systematic        'bis(4-propionylphenyl) 2-methylisophthalate'
_symmetry_cell_setting           orthorhombic
_symmetry_space_group_name_H-M   'P n m a'
_symmetry_Int_Tables_number      62
_space_group_name_Hall           '-P 2ac 2n'
loop_
_symmetry_equiv_pos_site_id
_symmetry_equiv_pos_as_xyz
1 x,y,z
2 1/2-x,-y,1/2+z
3 1/2+x,1/2-y,1/2-z
4 -x,1/2+y,-z
5 -x,-y,-z
6 1/2+x,y,1/2-z
7 1/2-x,1/2+y,1/2+z
8 x,1/2-y,z
_cell_length_a                   7.4360(5)
_cell_length_b                   27.0637(18)
_cell_length_c                   10.9270(8)
_cell_angle_alpha                90
_cell_angle_beta                 90
_cell_angle_gamma                90
_cell_volume                     2199.01
_cell_formula_units_Z            4
loop_
_atom_site_label
_atom_site_type_symbol
_atom_site_fract_x
_atom_site_fract_y
_atom_site_fract_z
C1 C 0.3167(4) 0.2500 0.3801(2)
H1 H 0.345(4) 0.2500 0.292(2)
C2 C 0.2983(2) 0.29418(6) 0.44244(16)
H2 H 0.310(2) 0.3251(7) 0.3975(16)
C3 C 0.2658(2) 0.29434(5) 0.56828(14)
C4 C 0.2502(3) 0.2500 0.6350(2)
C5 C 0.2101(4) 0.2500 0.7705(2)
H3 H 0.140(3) 0.2796(7) 0.7941(17)
H4 H 0.320(5) 0.2500 0.819(3)
C6 C 0.2597(2) 0.34361(6) 0.63069(15)
C7 C 0.1854(2) 0.42828(6) 0.58623(14)
C8 C 0.0941(2) 0.44588(6) 0.68751(14)
H5 H 0.0395 0.4243 0.7422
C9 C 0.0860(2) 0.49646(6) 0.70554(14)
H6 H 0.0247 0.5088 0.7731
C10 C 0.1682(2) 0.52945(5) 0.62406(13)
C11 C 0.2575(2) 0.51033(6) 0.52266(13)
H7 H 0.3119 0.5317 0.4673
C12 C 0.2663(2) 0.45952(6) 0.50323(15)
H8 H 0.3259 0.4469 0.4353
C13 C 0.1565(2) 0.58418(6) 0.64804(14)
C14 C 0.2427(2) 0.61936(6) 0.55851(16)
H9 H 0.194(2) 0.6132(7) 0.4772(19)
H10 H 0.372(3) 0.6100(7) 0.5499(16)
C15 C 0.2237(3) 0.67326(7) 0.5937(2)
H11 H 0.293(3) 0.6802(8) 0.675(2)
H12 H 0.272(3) 0.6938(9) 0.532(2)
H13 H 0.099(4) 0.6831(8) 0.610(2)
O1 O 0.18468(15) 0.37772(4) 0.55479(10)
O2 O 0.31771(18) 0.35329(4) 0.73013(11)
O3 O 0.07874(18) 0.59919(4) 0.73931(11)
C2G C 0.2983(2) 0.20582(6) 0.44244(16)
H2G H 0.310(2) 0.1749(7) 0.3975(16)
C3G C 0.2658(2) 0.20566(5) 0.56828(14)
H3G H 0.140(3) 0.2204(7) 0.7941(17)
C6G C 0.2597(2) 0.15639(6) 0.63069(15)
C7G C 0.1854(2) 0.07172(6) 0.58623(14)
C8G C 0.0941(2) 0.05412(6) 0.68751(14)
H5G H 0.0395 0.0757 0.7422
C9G C 0.0860(2) 0.00354(6) 0.70554(14)
H6G H 0.0247 -0.0088 0.7731
C10G C 0.1682(2) -0.02945(5) 0.62406(13)
C11G C 0.2575(2) -0.01033(6) 0.52266(13)
H7G H 0.3119 -0.0317 0.4673
C12G C 0.2663(2) 0.04048(6) 0.50323(15)
H8G H 0.3259 0.0531 0.4353
C13G C 0.1565(2) -0.08418(6) 0.64804(14)
C14G C 0.2427(2) -0.11936(6) 0.55851(16)
H9G H 0.194(2) -0.1132(7) 0.4772(19)
H10G H 0.372(3) -0.1100(7) 0.5499(16)
C15G C 0.2237(3) -0.17326(7) 0.5937(2)
H11G H 0.293(3) -0.1802(8) 0.675(2)
H12G H 0.272(3) -0.1938(9) 0.532(2)
H13G H 0.099(4) -0.1831(8) 0.610(2)
O1G O 0.18468(15) 0.12228(4) 0.55479(10)
O2G O 0.31771(18) 0.14671(4) 0.73013(11)
O3G O 0.07874(18) -0.09919(4) 0.73931(11)
loop_
_geom_bond_atom_site_label_1
_geom_bond_atom_site_label_2
_geom_bond_site_symmetry_1
_geom_bond_site_symmetry_2
C1 H1 1_555 1_555
C2 C1 1_555 1_555
H2 C2 1_555 1_555
C3 C2 1_555 1_555
C4 C3 1_555 1_555
C5 C4 1_555 1_555
H3 C5 1_555 1_555
H4 C5 1_555 1_555
C6 C3 1_555 1_555
C7 C8 1_555 1_555
C8 H5 1_555 1_555
C9 C8 1_555 1_555
H6 C9 1_555 1_555
C10 C9 1_555 1_555
C11 C10 1_555 1_555
H7 C11 1_555 1_555
C12 C7 1_555 1_555
H8 C12 1_555 1_555
C13 C10 1_555 1_555
C14 C13 1_555 1_555
H9 C14 1_555 1_555
H10 C14 1_555 1_555
C15 C14 1_555 1_555
H11 C15 1_555 1_555
H12 C15 1_555 1_555
H13 C15 1_555 1_555
O1 C6 1_555 1_555
O2 C6 1_555 1_555
O3 C13 1_555 1_555
C2G C1 1_555 1_555
H2G C2G 1_555 1_555
C3G C4 1_555 1_555
H3G C5 1_555 1_555
C6G C3G 1_555 1_555
C7G C8G 1_555 1_555
C8G H5G 1_555 1_555
C9G C8G 1_555 1_555
H6G C9G 1_555 1_555
C10G C9G 1_555 1_555
C11G C10G 1_555 1_555
H7G C11G 1_555 1_555
C12G C7G 1_555 1_555
H8G C12G 1_555 1_555
C13G C10G 1_555 1_555
C14G C13G 1_555 1_555
H9G C14G 1_555 1_555
H10G C14G 1_555 1_555
C15G C14G 1_555 1_555
H11G C15G 1_555 1_555
H12G C15G 1_555 1_555
H13G C15G 1_555 1_555
O1G C6G 1_555 1_555
O2G C6G 1_555 1_555
O3G C13G 1_555 1_555
C7 O1 1_555 1_555
C11 C12 1_555 1_555
C2G C3G 1_555 1_555
C7G O1G 1_555 1_555
C11G C12G 1_555 1_555

#END
