
#######################################################################
#
#                 Cambridge Crystallographic Data Centre
#                                CCDC 
#
#######################################################################
#
# If this CIF has been generated from an entry in the Cambridge 
# Structural Database, then it will include bibliographic, chemical, 
# crystal, experimental, refinement or atomic coordinate data resulting 
# from the CCDC's data processing and validation procedures.
#
#######################################################################

data_TIFLUQ
_chemical_formula_moiety         'C50 H34 O4,3(C4 H8 O1),2(C8 H10)'
_chemical_name_systematic        
"9,10-bis(4,4''-Dihydroxy-m-terphenyl-5'-yl)anthracene tris(ethyl methyl ketone) bis(p-xylene) clathrate"
_symmetry_cell_setting           triclinic
_symmetry_space_group_name_H-M   'P -1'
_symmetry_Int_Tables_number      2
_space_group_name_Hall           '-P 1'
loop_
_symmetry_equiv_pos_site_id
_symmetry_equiv_pos_as_xyz
1 x,y,z
2 -x,-y,-z
_cell_length_a                   11.7930(5)
_cell_length_b                   11.8241(5)
_cell_length_c                   13.8497(7)
_cell_angle_alpha                75.565(2)
_cell_angle_beta                 68.929(3)
_cell_angle_gamma                61.372(1)
_cell_volume                     1574.78
_exptl_crystal_colour            yellow
_exptl_crystal_description       block
_cell_formula_units_Z            1
loop_
_atom_site_label
_atom_site_type_symbol
_atom_site_fract_x
_atom_site_fract_y
_atom_site_fract_z
O1 O -0.3745(2) -0.4729(2) 0.8169(2)
O2 O -0.1641(2) -0.5915(2) 1.6461(1)
C1 C 0.0819(2) -0.1295(2) 0.9745(2)
C2 C 0.1697(3) -0.2588(2) 0.9468(2)
C3 C 0.2929(3) -0.2879(3) 0.8773(2)
C4 C 0.3385(3) -0.1909(3) 0.8305(2)
C5 C 0.2589(3) -0.0665(3) 0.8536(2)
C6 C -0.1275(2) 0.0301(2) 1.0743(2)
C7 C -0.0451(2) -0.0980(2) 1.0484(2)
C8 C -0.0955(2) -0.2000(2) 1.0941(2)
C9 C -0.1391(2) -0.2394(2) 1.0325(2)
C10 C -0.1905(2) -0.3312(2) 1.0721(2)
C11 C -0.1956(2) -0.3854(2) 1.1740(2)
C12 C -0.1507(2) -0.3496(2) 1.2369(2)
C13 C -0.1015(2) -0.2556(2) 1.1962(2)
C14 C -0.1524(2) -0.4139(2) 1.3442(2)
C15 C -0.1859(3) -0.3460(3) 1.4261(2)
C16 C -0.1907(3) -0.4056(3) 1.5269(2)
C17 C -0.1580(3) -0.5365(3) 1.5460(2)
C18 C -0.1211(3) -0.6073(3) 1.4650(2)
C19 C -0.1193(3) -0.5453(3) 1.3654(2)
C20 C -0.2379(2) -0.3699(2) 1.0049(2)
C21 C -0.1571(3) -0.4065(2) 0.9066(2)
C22 C -0.1996(3) -0.4425(2) 0.8429(2)
C23 C -0.3271(2) -0.4386(2) 0.8767(2)
C24 C -0.4100(3) -0.4001(2) 0.9738(2)
C25 C -0.3651(3) -0.3674(2) 1.0378(2)
H1 H 0.135(3) -0.321(3) 0.979(2)
H2 H 0.352(3) -0.376(3) 0.866(2)
H3 H 0.425(3) -0.215(3) 0.791(2)
H4 H 0.292(3) -0.001(3) 0.820(2)
H5 H -0.137(2) -0.199(3) 0.964(2)
H6 H -0.061(2) -0.236(2) 1.237(2)
H7 H -0.232(3) -0.449(3) 1.199(2)
H8 H -0.222(3) -0.253(3) 1.416(2)
H9 H -0.230(3) -0.351(3) 1.591(3)
H10 H -0.095(3) -0.706(3) 1.477(2)
H11 H -0.086(3) -0.601(3) 1.309(3)
H12 H -0.125(4) -0.686(4) 1.649(3)
H13 H -0.419(2) -0.343(2) 1.102(2)
H14 H -0.493(3) -0.401(3) 0.997(2)
H15 H -0.069(3) -0.412(3) 0.884(2)
H16 H -0.149(3) -0.470(3) 0.780(2)
H17 H -0.303(3) -0.514(3) 0.759(3)
O1A O 0.3745(2) 0.4729(2) 1.1831(2)
O2A O 0.1641(2) 0.5915(2) 0.3539(1)
C1A C -0.0819(2) 0.1295(2) 1.0255(2)
C2A C -0.1697(3) 0.2588(2) 1.0532(2)
C3A C -0.2929(3) 0.2879(3) 1.1227(2)
C4A C -0.3385(3) 0.1909(3) 1.1695(2)
C5A C -0.2589(3) 0.0665(3) 1.1464(2)
C6A C 0.1275(2) -0.0301(2) 0.9257(2)
C7A C 0.0451(2) 0.0980(2) 0.9516(2)
C8A C 0.0955(2) 0.2000(2) 0.9059(2)
C9A C 0.1391(2) 0.2394(2) 0.9675(2)
C10A C 0.1905(2) 0.3312(2) 0.9279(2)
C11A C 0.1956(2) 0.3854(2) 0.8260(2)
C12A C 0.1507(2) 0.3496(2) 0.7631(2)
C13A C 0.1015(2) 0.2556(2) 0.8038(2)
C14A C 0.1524(2) 0.4139(2) 0.6558(2)
C15A C 0.1859(3) 0.3460(3) 0.5739(2)
C16A C 0.1907(3) 0.4056(3) 0.4731(2)
C17A C 0.1580(3) 0.5365(3) 0.4540(2)
C18A C 0.1211(3) 0.6073(3) 0.5350(2)
C19A C 0.1193(3) 0.5453(3) 0.6346(2)
C20A C 0.2379(2) 0.3699(2) 0.9951(2)
C21A C 0.1571(3) 0.4065(2) 1.0934(2)
C22A C 0.1996(3) 0.4425(2) 1.1571(2)
C23A C 0.3271(2) 0.4386(2) 1.1233(2)
C24A C 0.4100(3) 0.4001(2) 1.0262(2)
C25A C 0.3651(3) 0.3674(2) 0.9622(2)
H1A H -0.135(3) 0.321(3) 1.021(2)
H2A H -0.352(3) 0.376(3) 1.134(2)
H3A H -0.425(3) 0.215(3) 1.209(2)
H4A H -0.292(3) 0.001(3) 1.180(2)
H5A H 0.137(2) 0.199(3) 1.036(2)
H6A H 0.061(2) 0.236(2) 0.763(2)
H7A H 0.232(3) 0.449(3) 0.801(2)
H8A H 0.222(3) 0.253(3) 0.584(2)
H9A H 0.230(3) 0.351(3) 0.409(3)
H10A H 0.095(3) 0.706(3) 0.523(2)
H11A H 0.086(3) 0.601(3) 0.691(3)
H12A H 0.125(4) 0.686(4) 0.351(3)
H13A H 0.419(2) 0.343(2) 0.898(2)
H14A H 0.493(3) 0.401(3) 1.003(2)
H15A H 0.069(3) 0.412(3) 1.116(2)
H16A H 0.149(3) 0.470(3) 1.220(2)
H17A H 0.303(3) 0.514(3) 1.241(3)
O3 O -0.9504(3) -0.1465(2) 1.3544(2)
C34 C -1.0307(5) 0.0826(4) 1.3423(5)
C35 C -0.9413(4) -0.0500(3) 1.3029(3)
C36 C -0.8461(4) -0.0555(4) 1.1994(3)
C37 C -0.7512(4) -0.1857(4) 1.1650(3)
H28 H -1.1239 0.1043 1.3572
H29 H -1.0115 0.1488 1.2936
H30 H -1.0159 0.0851 1.4065
H31 H -0.7945 -0.0119 1.1969
H32 H -0.8974 -0.0078 1.1495
H33 H -0.8016 -0.2317 1.1657
H34 H -0.6977 -0.2349 1.2115
H35 H -0.6947 -0.1823 1.0966
C26 C -0.6576(6) -0.0570(6) 1.5766(4)
C27 C -0.6348(4) -0.0321(4) 1.4597(3)
C28 C -0.7220(5) 0.0790(4) 1.4167(3)
C29 C -0.5258(4) -0.1165(4) 1.3930(4)
C30 C -0.6979(4) 0.1066(3) 1.3097(3)
C31 C -0.5025(4) -0.0918(4) 1.2851(3)
C32 C -0.5867(3) 0.0217(3) 1.2423(3)
C33 C -0.5593(4) 0.0503(4) 1.1270(3)
H18 H -0.6268 0.1336 1.1112
H19 H -0.5622 -0.0131 1.0987
H20 H -0.4736 0.0511 1.0974
H21 H -0.758(4) 0.190(4) 1.279(3)
H22 H -0.818(5) 0.136(5) 1.474(4)
H23 H -0.451(5) -0.201(5) 1.420(4)
H24 H -0.418(4) -0.161(4) 1.237(3)
H25 H -0.7422 -0.0597 1.6102
H26 H -0.6552 0.0095 1.6018
H27 H -0.5879 -0.1383 1.5927
O4? O -0.401(2) -0.637(2) 1.442(1)
C38? C -0.5180(7) -0.4405(7) 1.3583(6)
C39? C -0.4826(8) -0.5247(8) 1.4510(5)
loop_
_geom_bond_atom_site_label_1
_geom_bond_atom_site_label_2
_geom_bond_site_symmetry_1
_geom_bond_site_symmetry_2
O1 C23 1_555 1_555
O2 C17 1_555 1_555
O3 C35 1_555 1_555
C1 C2 1_555 1_555
C2 C3 1_555 1_555
C3 C4 1_555 1_555
C4 C5 1_555 1_555
C5 H4 1_555 1_555
C6 C7 1_555 1_555
C7 C1 1_555 1_555
C8 C7 1_555 1_555
C9 C8 1_555 1_555
C10 C9 1_555 1_555
C11 C10 1_555 1_555
C12 C11 1_555 1_555
C13 C8 1_555 1_555
C14 C12 1_555 1_555
C15 C14 1_555 1_555
C16 C15 1_555 1_555
C17 C16 1_555 1_555
C18 C17 1_555 1_555
C19 C14 1_555 1_555
C20 C10 1_555 1_555
C21 C20 1_555 1_555
C22 C21 1_555 1_555
C23 C22 1_555 1_555
C24 C23 1_555 1_555
C25 C20 1_555 1_555
C26 C27 1_555 1_555
C27 C28 1_555 1_555
C28 C30 1_555 1_555
C29 C27 1_555 1_555
C30 C32 1_555 1_555
C31 C29 1_555 1_555
C32 C31 1_555 1_555
C33 C32 1_555 1_555
C34 C35 1_555 1_555
C35 C36 1_555 1_555
C36 C37 1_555 1_555
C37 H33 1_555 1_555
H1 C2 1_555 1_555
H2 C3 1_555 1_555
H3 C4 1_555 1_555
H5 C9 1_555 1_555
H6 C13 1_555 1_555
H7 C11 1_555 1_555
H8 C15 1_555 1_555
H9 C16 1_555 1_555
H10 C18 1_555 1_555
H11 C19 1_555 1_555
H12 O2 1_555 1_555
H13 C25 1_555 1_555
H14 C24 1_555 1_555
H15 C21 1_555 1_555
H16 C22 1_555 1_555
H17 O1 1_555 1_555
H18 C33 1_555 1_555
H19 C33 1_555 1_555
H20 C33 1_555 1_555
H21 C30 1_555 1_555
H22 C28 1_555 1_555
H23 C29 1_555 1_555
H24 C31 1_555 1_555
H25 C26 1_555 1_555
H26 C26 1_555 1_555
H27 C26 1_555 1_555
H28 C34 1_555 1_555
H29 C34 1_555 1_555
H30 C34 1_555 1_555
H31 C36 1_555 1_555
H32 C36 1_555 1_555
H34 C37 1_555 1_555
H35 C37 1_555 1_555
O1A C23A 1_555 1_555
O2A C17A 1_555 1_555
C1A C6 1_555 1_555
C2A C1A 1_555 1_555
C3A C2A 1_555 1_555
C4A C3A 1_555 1_555
C5A C6 1_555 1_555
C6A C1 1_555 1_555
C7A C1A 1_555 1_555
C8A C7A 1_555 1_555
C9A C8A 1_555 1_555
C10A C9A 1_555 1_555
C11A C10A 1_555 1_555
C12A C11A 1_555 1_555
C13A C8A 1_555 1_555
C14A C12A 1_555 1_555
C15A C14A 1_555 1_555
C16A C15A 1_555 1_555
C17A C16A 1_555 1_555
C18A C17A 1_555 1_555
C19A C14A 1_555 1_555
C20A C10A 1_555 1_555
C21A C20A 1_555 1_555
C22A C21A 1_555 1_555
C23A C22A 1_555 1_555
C24A C23A 1_555 1_555
C25A C20A 1_555 1_555
H1A C2A 1_555 1_555
H2A C3A 1_555 1_555
H3A C4A 1_555 1_555
H4A C5A 1_555 1_555
H5A C9A 1_555 1_555
H6A C13A 1_555 1_555
H7A C11A 1_555 1_555
H8A C15A 1_555 1_555
H9A C16A 1_555 1_555
H10A C18A 1_555 1_555
H11A C19A 1_555 1_555
H12A O2A 1_555 1_555
H13A C25A 1_555 1_555
H14A C24A 1_555 1_555
H15A C21A 1_555 1_555
H16A C22A 1_555 1_555
H17A O1A 1_555 1_555
C5 C6A 1_555 1_555
C12 C13 1_555 1_555
C18 C19 1_555 1_555
C24 C25 1_555 1_555
C4A C5A 1_555 1_555
C6A C7A 1_555 1_555
C12A C13A 1_555 1_555
C18A C19A 1_555 1_555
C24A C25A 1_555 1_555

#END
