
#######################################################################
#
#                 Cambridge Crystallographic Data Centre
#                                CCDC 
#
#######################################################################
#
# If this CIF has been generated from an entry in the Cambridge 
# Structural Database, then it will include bibliographic, chemical, 
# crystal, experimental, refinement or atomic coordinate data resulting 
# from the CCDC's data processing and validation procedures.
#
#######################################################################

data_TIGGIC
_chemical_formula_moiety         'C25 H23 O5 P1,C1 H1 Cl3'
_chemical_name_systematic        
"diethyl (4,4'-dioxo-2'-phenyl-4'H-spiro[cyclohexa-2,5-diene-1,1'-naphthalen]-3'-yl)phosphonate chloroform solvate"
_symmetry_cell_setting           monoclinic
_symmetry_space_group_name_H-M   'P 21/c'
_symmetry_Int_Tables_number      14
_space_group_name_Hall           '-P 2ybc'
loop_
_symmetry_equiv_pos_site_id
_symmetry_equiv_pos_as_xyz
1 x,y,z
2 -x,1/2+y,1/2-z
3 -x,-y,-z
4 x,1/2-y,1/2+z
_cell_length_a                   17.2704(11)
_cell_length_b                   9.8223(6)
_cell_length_c                   16.3060(10)
_cell_angle_alpha                90
_cell_angle_beta                 107.236(4)
_cell_angle_gamma                90
_cell_volume                     2641.85
_exptl_crystal_colour            colorless
_exptl_crystal_description       needle
_cell_formula_units_Z            4
loop_
_atom_site_label
_atom_site_type_symbol
_atom_site_fract_x
_atom_site_fract_y
_atom_site_fract_z
P1 P 0.37610(10) 0.1988(2) 0.37134(11)
C1 C 0.0566(5) -0.1435(8) 0.4366(5)
H1 H 0.0079 -0.1846 0.4358
C2 C 0.0562(4) -0.0106(7) 0.4069(4)
H2 H 0.0078 0.0374 0.3879
C3 C 0.1288(4) 0.0501(6) 0.4058(4)
C4 C 0.1293(3) 0.1975(6) 0.3757(3)
C5 C 0.2084(4) 0.2354(6) 0.3531(3)
C6 C 0.2772(4) 0.1650(6) 0.3855(4)
C7 C 0.2788(4) 0.0421(7) 0.4396(4)
C8 C 0.2008(4) -0.0221(6) 0.4367(4)
C9 C 0.2002(5) -0.1539(7) 0.4682(4)
H3 H 0.2487 -0.2010 0.4900
C10 C 0.1278(6) -0.2148(7) 0.4671(5)
H4 H 0.1273 -0.3034 0.4869
C11 C 0.0559(4) 0.2226(6) 0.3000(4)
H5 H 0.0501 0.1709 0.2508
C12 C -0.0003(4) 0.3127(7) 0.2992(4)
H6 H -0.0450 0.3194 0.2506
C13 C 0.0048(4) 0.4025(7) 0.3714(5)
C14 C 0.0725(4) 0.3791(6) 0.4494(4)
H7 H 0.0756 0.4299 0.4984
C15 C 0.1292(4) 0.2873(6) 0.4517(4)
H8 H 0.1712 0.2771 0.5024
C16 C 0.1994(3) 0.3612(6) 0.3000(4)
C17 C 0.1751(4) 0.3508(7) 0.2107(4)
H9 H 0.1659 0.2653 0.1851
C18 C 0.1646(4) 0.4653(7) 0.1599(4)
H10 H 0.1480 0.4569 0.1005
C19 C 0.1786(5) 0.5921(7) 0.1970(5)
H11 H 0.1716 0.6695 0.1628
C20 C 0.2029(5) 0.6039(7) 0.2842(5)
H12 H 0.2127 0.6897 0.3091
C21 C 0.2131(4) 0.4893(7) 0.3361(4)
H13 H 0.2293 0.4989 0.3955
C22 C 0.3993(10) 0.4511(17) 0.2011(11)
H14 H 0.4475 0.4798 0.1882
H15 H 0.3698 0.5296 0.2104
H16 H 0.3660 0.3992 0.1539
C23 C 0.4217(9) 0.3657(18) 0.2796(11)
H17 H 0.4506 0.2866 0.2685
H18 H 0.4592 0.4172 0.3251
C24 C 0.5015(5) 0.1975(11) 0.5117(7)
H19 H 0.4873 0.1253 0.5453
H20 H 0.5304 0.1567 0.4752
C25 C 0.5530(7) 0.2908(13) 0.5678(8)
H21 H 0.6016 0.2450 0.6001
H22 H 0.5259 0.3277 0.6064
H23 H 0.5667 0.3632 0.5351
O1 O 0.4107(3) 0.0800(6) 0.3420(3)
O2 O 0.4283(3) 0.2595(6) 0.4586(3)
O3 O 0.3604(3) 0.3214(7) 0.3093(4)
O4 O -0.0438(4) 0.4954(6) 0.3681(4)
O5 O 0.3428(3) -0.0050(6) 0.4831(4)
C26 C 0.3295(5) 0.5382(8) 0.6675(5)
H24 H 0.3627 0.5007 0.7223
Cl1 Cl 0.22717(15) 0.5256(3) 0.66302(16)
Cl2 Cl 0.35637(18) 0.7086(3) 0.66104(19)
Cl3 Cl 0.34791(19) 0.4440(3) 0.5833(2)
loop_
_geom_bond_atom_site_label_1
_geom_bond_atom_site_label_2
_geom_bond_site_symmetry_1
_geom_bond_site_symmetry_2
P1 C6 1_555 1_555
C1 H1 1_555 1_555
C2 C1 1_555 1_555
H2 C2 1_555 1_555
C3 C2 1_555 1_555
C4 C3 1_555 1_555
C5 C4 1_555 1_555
C6 C5 1_555 1_555
C7 C6 1_555 1_555
C8 C3 1_555 1_555
C9 C8 1_555 1_555
H3 C9 1_555 1_555
C10 C1 1_555 1_555
H4 C10 1_555 1_555
C11 C4 1_555 1_555
H5 C11 1_555 1_555
C12 C11 1_555 1_555
H6 C12 1_555 1_555
C13 C12 1_555 1_555
C14 C13 1_555 1_555
H7 C14 1_555 1_555
C15 C4 1_555 1_555
H8 C15 1_555 1_555
C16 C5 1_555 1_555
C17 C16 1_555 1_555
H9 C17 1_555 1_555
C18 C17 1_555 1_555
H10 C18 1_555 1_555
C19 C18 1_555 1_555
H11 C19 1_555 1_555
C20 C19 1_555 1_555
H12 C20 1_555 1_555
C21 C16 1_555 1_555
H13 C21 1_555 1_555
C22 H14 1_555 1_555
H15 C22 1_555 1_555
H16 C22 1_555 1_555
C23 C22 1_555 1_555
H17 C23 1_555 1_555
H18 C23 1_555 1_555
C24 H19 1_555 1_555
H20 C24 1_555 1_555
C25 C24 1_555 1_555
H21 C25 1_555 1_555
H22 C25 1_555 1_555
H23 C25 1_555 1_555
O1 P1 1_555 1_555
O2 P1 1_555 1_555
O3 P1 1_555 1_555
O4 C13 1_555 1_555
O5 C7 1_555 1_555
C26 H24 1_555 1_555
Cl1 C26 1_555 1_555
Cl2 C26 1_555 1_555
Cl3 C26 1_555 1_555
C7 C8 1_555 1_555
C9 C10 1_555 1_555
C14 C15 1_555 1_555
C20 C21 1_555 1_555
C23 O3 1_555 1_555
C24 O2 1_555 1_555

#END
