
#######################################################################
#
#                 Cambridge Crystallographic Data Centre
#                                CCDC 
#
#######################################################################
#
# If this CIF has been generated from an entry in the Cambridge 
# Structural Database, then it will include bibliographic, chemical, 
# crystal, experimental, refinement or atomic coordinate data resulting 
# from the CCDC's data processing and validation procedures.
#
#######################################################################

data_TIHCAR
_chemical_formula_moiety         'C66 H66 N2 O10,C4 H8 O2'
_chemical_name_systematic        
'10,16,36,42-tetrabutoxy-28,50,54,56-tetraoxa-13,39-diazatridecacyclo[43.7.1.1^3,51^.1^23,27^.1^25,29^.0^2,7^.0^6,11^.0^15,20^.0^19,24^.0^32,37^.0^33,55^.0^41,46^.0^49,53^]hexapentaconta-2,4,6,8,10,15,17,19,21,23,29(55),30,32,34,36,41,43,45,47,49(53)-icosaene-12,40-dione 2-methyl-1,3-dioxolane unknown solvate'
_symmetry_cell_setting           triclinic
_symmetry_space_group_name_H-M   'P -1'
_symmetry_Int_Tables_number      2
_space_group_name_Hall           '-P 1'
loop_
_symmetry_equiv_pos_site_id
_symmetry_equiv_pos_as_xyz
1 x,y,z
2 -x,-y,-z
_cell_length_a                   11.8886(6)
_cell_length_b                   12.0858(6)
_cell_length_c                   12.2579(6)
_cell_angle_alpha                91.892(2)
_cell_angle_beta                 90.473(2)
_cell_angle_gamma                103.736(2)
_cell_volume                     1709.72
_exptl_crystal_colour            colorless
_exptl_crystal_description       block
_cell_formula_units_Z            1
loop_
_atom_site_label
_atom_site_type_symbol
_atom_site_fract_x
_atom_site_fract_y
_atom_site_fract_z
C34 C 0.5006(10) 0.6527(9) 0.4990(9)
H34 H 0.5454 0.7081 0.4484
H35 H 0.4380 0.6848 0.5301
C35 C 0.5719(9) 0.6322(8) 0.5813(8)
H36 H 0.5465 0.6562 0.6532
H37 H 0.6528 0.6744 0.5701
C36 C 0.4615(6) 0.4801(8) 0.5231(6)
H38 H 0.3965 0.4774 0.5750
C37 C 0.4553(11) 0.3562(9) 0.4710(10)
H39 H 0.3978 0.3400 0.4112
H40 H 0.4328 0.2994 0.5270
H41 H 0.5313 0.3530 0.4427
O6 O 0.4520(7) 0.5459(6) 0.4416(6)
O7 O 0.5629(7) 0.5117(5) 0.5763(6)
C34A C 0.4994(10) 0.3473(9) 0.5010(9)
H34A H 0.4546 0.2919 0.5516
H35A H 0.5620 0.3152 0.4699
C35A C 0.4281(9) 0.3678(8) 0.4187(8)
H36A H 0.4535 0.3438 0.3468
H37A H 0.3472 0.3256 0.4299
C36A C 0.5385(6) 0.5199(8) 0.4769(6)
H38A H 0.6035 0.5226 0.4250
C37A C 0.5447(11) 0.6438(9) 0.5290(10)
H39A H 0.6022 0.6600 0.5888
H40A H 0.5672 0.7006 0.4730
H41A H 0.4687 0.6470 0.5573
O6A O 0.5480(7) 0.4541(6) 0.5584(6)
O7A O 0.4371(7) 0.4883(5) 0.4237(6)
C1 C 0.05027(19) 0.09169(18) 0.65314(18)
H1 H -0.0120 0.0198 0.6556
C2 C 0.01518(19) 0.18041(17) 0.72614(18)
H2 H 0.0096 0.1560 0.8026
H3 H -0.0611 0.1914 0.7025
C3 C 0.10812(18) 0.29117(17) 0.71715(17)
H4 H 0.0910 0.3524 0.7666
C4 C 0.09049(18) 0.23862(17) 0.52011(17)
C5 C 0.09878(19) 0.25929(18) 0.40865(18)
H5 H 0.0846 0.1971 0.3569
C6 C 0.12717(18) 0.36831(17) 0.37368(18)
H6 H 0.1367 0.3815 0.2980
C7 C 0.14258(17) 0.46189(17) 0.44950(17)
C8 C 0.16899(17) 0.57590(17) 0.41372(17)
C9 C 0.17816(18) 0.66521(17) 0.48891(17)
C10 C 0.15933(18) 0.64396(18) 0.59969(18)
H7 H 0.1628 0.7057 0.6506
C11 C 0.13610(18) 0.53502(17) 0.63503(17)
H8 H 0.1236 0.5227 0.7106
C12 C 0.13006(17) 0.44006(16) 0.56296(17)
C13 C 0.10895(17) 0.32491(17) 0.59827(17)
C14 C 0.2396(2) 0.86878(17) 0.52188(19)
H9 H 0.3017 0.8578 0.5717
H10 H 0.1734 0.8793 0.5662
C15 C 0.2833(2) 0.97109(18) 0.45315(19)
H11 H 0.2183 0.9837 0.4081
H12 H 0.3105 1.0392 0.5021
C16 C 0.3806(2) 0.9589(2) 0.3790(2)
H13 H 0.3521 0.8932 0.3275
H14 H 0.4439 0.9421 0.4236
C17 C 0.4290(3) 1.0634(2) 0.3143(3)
H15 H 0.3666 1.0820 0.2712
H16 H 0.4887 1.0484 0.2653
H17 H 0.4629 1.1277 0.3645
C18 C 0.19287(19) 0.59912(17) 0.29513(18)
C19 C 0.3512(2) 0.60355(19) 0.16525(19)
H18 H 0.3556 0.6834 0.1462
H19 H 0.3015 0.5530 0.1097
C20 C 0.24127(19) 0.16014(18) 0.72717(17)
C21 C 0.22505(18) 0.26777(17) 0.74671(16)
C22 C 0.32132(18) 0.35403(17) 0.78975(16)
C23 C 0.31137(19) 0.46373(18) 0.82486(18)
H20 H 0.2372 0.4804 0.8230
C24 C 0.4041(2) 0.54650(19) 0.86131(19)
H21 H 0.3936 0.6189 0.8851
C25 C 0.5150(2) 0.52534(18) 0.86386(18)
C26 C 0.52982(18) 0.41802(18) 0.83623(17)
C27 C 0.43269(18) 0.33001(18) 0.80128(16)
C28 C 0.44301(19) 0.21733(18) 0.77635(17)
H22 H 0.5163 0.1995 0.7832
C29 C 0.3492(2) 0.13453(19) 0.74276(18)
H23 H 0.3568 0.0587 0.7298
C30 C 0.6016(2) 0.72101(19) 0.9161(2)
H24 H 0.5451 0.7212 0.9749
H25 H 0.5737 0.7521 0.8501
C31 C 0.7187(3) 0.7928(2) 0.9512(2)
H26 H 0.7109 0.8704 0.9722
H27 H 0.7455 0.7599 1.0166
C32 C 0.8069(3) 0.8014(3) 0.8664(2)
H28 H 0.7786 0.8312 0.7999
H29 H 0.8171 0.7241 0.8477
C33 C 0.9253(3) 0.8790(3) 0.9008(3)
H30 H 0.9799 0.8810 0.8411
H31 H 0.9548 0.8491 0.9657
H32 H 0.9163 0.9563 0.9176
N1 N 0.30178(15) 0.58411(15) 0.26706(14)
H33 H 0.3424 0.5605 0.3179
O1 O 0.06273(13) 0.12370(11) 0.54269(12)
O2 O 0.15479(13) 0.06767(12) 0.69002(13)
O3 O 0.20408(13) 0.77262(11) 0.44786(12)
O4 O 0.61308(14) 0.60654(13) 0.89299(14)
O5 O 0.1302(3) 0.6189(3) 0.2295(2)
C1A C 0.94973(19) 0.90831(18) 0.34686(18)
H1A H 1.0120 0.9802 0.3444
C2A C 0.98482(19) 0.81959(17) 0.27386(18)
H2A H 0.9904 0.8440 0.1974
H3A H 1.0611 0.8086 0.2975
C3A C 0.89188(18) 0.70883(17) 0.28285(17)
H4A H 0.9090 0.6476 0.2334
C4A C 0.90951(18) 0.76138(17) 0.47989(17)
C5A C 0.90122(19) 0.74071(18) 0.59135(18)
H5A H 0.9154 0.8029 0.6431
C6A C 0.87283(18) 0.63169(17) 0.62632(18)
H6A H 0.8633 0.6185 0.7020
C7A C 0.85742(17) 0.53811(17) 0.55050(17)
C8A C 0.83101(17) 0.42410(17) 0.58628(17)
C9A C 0.82184(18) 0.33479(17) 0.51109(17)
C10A C 0.84067(18) 0.35604(18) 0.40031(18)
H7A H 0.8372 0.2943 0.3494
C11A C 0.86390(18) 0.46498(17) 0.36497(17)
H8A H 0.8764 0.4773 0.2894
C12A C 0.86994(17) 0.55994(16) 0.43704(17)
C13A C 0.89105(17) 0.67509(17) 0.40173(17)
C14A C 0.7604(2) 0.13122(17) 0.47812(19)
H9A H 0.6983 0.1422 0.4283
H10A H 0.8266 0.1207 0.4338
C15A C 0.7167(2) 0.02891(18) 0.54685(19)
H11A H 0.7817 0.0163 0.5919
H12A H 0.6895 -0.0392 0.4979
C16A C 0.6194(2) 0.0411(2) 0.6210(2)
H13A H 0.6479 0.1068 0.6725
H14A H 0.5561 0.0579 0.5764
C17A C 0.5710(3) -0.0634(2) 0.6857(3)
H15A H 0.6334 -0.0820 0.7288
H16A H 0.5113 -0.0484 0.7347
H17A H 0.5371 -0.1277 0.6355
C18A C 0.80713(19) 0.40088(17) 0.70487(18)
C19A C 0.6488(2) 0.39645(19) 0.83475(19)
H18A H 0.6444 0.3166 0.8538
H19A H 0.6985 0.4470 0.8903
C20A C 0.75873(19) 0.83986(18) 0.27283(17)
C21A C 0.77495(18) 0.73223(17) 0.25329(16)
C22A C 0.67868(18) 0.64597(17) 0.21025(16)
C23A C 0.68863(19) 0.53627(18) 0.17514(18)
H20A H 0.7628 0.5196 0.1770
C24A C 0.5959(2) 0.45350(19) 0.13869(19)
H21A H 0.6064 0.3811 0.1149
C25A C 0.4850(2) 0.47466(18) 0.13614(18)
C26A C 0.47018(18) 0.58198(18) 0.16377(17)
C27A C 0.56731(18) 0.66999(18) 0.19872(16)
C28A C 0.55699(19) 0.78267(18) 0.22365(17)
H22A H 0.4837 0.8005 0.2168
C29A C 0.6508(2) 0.86547(19) 0.25724(18)
H23A H 0.6432 0.9413 0.2702
C30A C 0.3984(2) 0.27899(19) 0.0839(2)
H24A H 0.4549 0.2788 0.0251
H25A H 0.4263 0.2479 0.1499
C31A C 0.2813(3) 0.2072(2) 0.0488(2)
H26A H 0.2891 0.1296 0.0278
H27A H 0.2545 0.2401 -0.0166
C32A C 0.1931(3) 0.1986(3) 0.1336(2)
H28A H 0.2214 0.1688 0.2001
H29A H 0.1829 0.2759 0.1523
C33A C 0.0747(3) 0.1210(3) 0.0992(3)
H30A H 0.0201 0.1190 0.1589
H31A H 0.0452 0.1509 0.0343
H32A H 0.0837 0.0437 0.0824
N1A N 0.69822(15) 0.41589(15) 0.73294(14)
H33A H 0.6576 0.4395 0.6821
O1A O 0.93727(13) 0.87630(11) 0.45731(12)
O2A O 0.84521(13) 0.93233(12) 0.30998(13)
O3A O 0.79592(13) 0.22738(11) 0.55214(12)
O4A O 0.38692(14) 0.39346(13) 0.10701(14)
O5A O 0.8698(3) 0.3811(3) 0.7705(2)
H42? H 0.1329 0.5469 0.2492
H43? H 0.1889 0.6782 0.2808
O8? O 0.3123(3) 0.6580(3) 0.1027(3)
loop_
_geom_bond_atom_site_label_1
_geom_bond_atom_site_label_2
_geom_bond_site_symmetry_1
_geom_bond_site_symmetry_2
C1 H1 1_555 1_555
C2 C1 1_555 1_555
H2 C2 1_555 1_555
H3 C2 1_555 1_555
C3 C2 1_555 1_555
H4 C3 1_555 1_555
C4 C5 1_555 1_555
C5 H5 1_555 1_555
C6 C5 1_555 1_555
H6 C6 1_555 1_555
C7 C6 1_555 1_555
C8 C7 1_555 1_555
C9 C8 1_555 1_555
C10 C9 1_555 1_555
H7 C10 1_555 1_555
C11 C10 1_555 1_555
H8 C11 1_555 1_555
C12 C7 1_555 1_555
C13 C3 1_555 1_555
C14 H9 1_555 1_555
H10 C14 1_555 1_555
C15 C14 1_555 1_555
H11 C15 1_555 1_555
H12 C15 1_555 1_555
C16 C15 1_555 1_555
H13 C16 1_555 1_555
H14 C16 1_555 1_555
C17 C16 1_555 1_555
H15 C17 1_555 1_555
H16 C17 1_555 1_555
H17 C17 1_555 1_555
C18 C8 1_555 1_555
C19 H18 1_555 1_555
H19 C19 1_555 1_555
C20 C21 1_555 1_555
C21 C3 1_555 1_555
C22 C21 1_555 1_555
C23 C22 1_555 1_555
H20 C23 1_555 1_555
C24 C23 1_555 1_555
H21 C24 1_555 1_555
C25 C24 1_555 1_555
C26 C25 1_555 1_555
C27 C22 1_555 1_555
C28 C27 1_555 1_555
H22 C28 1_555 1_555
C29 C20 1_555 1_555
H23 C29 1_555 1_555
C30 H24 1_555 1_555
H25 C30 1_555 1_555
C31 C30 1_555 1_555
H26 C31 1_555 1_555
H27 C31 1_555 1_555
C32 C31 1_555 1_555
H28 C32 1_555 1_555
H29 C32 1_555 1_555
C33 C32 1_555 1_555
H30 C33 1_555 1_555
H31 C33 1_555 1_555
H32 C33 1_555 1_555
N1 C18 1_555 1_555
H33 N1 1_555 1_555
O1 C1 1_555 1_555
O2 C1 1_555 1_555
O3 C9 1_555 1_555
O4 C25 1_555 1_555
O5 C18 1_555 1_555
C34 H34 1_555 1_555
H35 C34 1_555 1_555
C35 C34 1_555 1_555
H36 C35 1_555 1_555
H37 C35 1_555 1_555
C36 H38 1_555 1_555
C37 C36 1_555 1_555
H39 C37 1_555 1_555
H40 C37 1_555 1_555
H41 C37 1_555 1_555
O6 C34 1_555 1_555
O7 C35 1_555 1_555
C1A H1A 1_555 1_555
C2A C1A 1_555 1_555
H2A C2A 1_555 1_555
H3A C2A 1_555 1_555
C3A C2A 1_555 1_555
H4A C3A 1_555 1_555
C4A C5A 1_555 1_555
C5A H5A 1_555 1_555
C6A C5A 1_555 1_555
H6A C6A 1_555 1_555
C7A C6A 1_555 1_555
C8A C7A 1_555 1_555
C9A C8A 1_555 1_555
C10A C9A 1_555 1_555
H7A C10A 1_555 1_555
C11A C10A 1_555 1_555
H8A C11A 1_555 1_555
C12A C7A 1_555 1_555
C13A C3A 1_555 1_555
C14A H9A 1_555 1_555
H10A C14A 1_555 1_555
C15A C14A 1_555 1_555
H11A C15A 1_555 1_555
H12A C15A 1_555 1_555
C16A C15A 1_555 1_555
H13A C16A 1_555 1_555
H14A C16A 1_555 1_555
C17A C16A 1_555 1_555
H15A C17A 1_555 1_555
H16A C17A 1_555 1_555
H17A C17A 1_555 1_555
C18A C8A 1_555 1_555
C19A C26 1_555 1_555
H18A C19A 1_555 1_555
H19A C19A 1_555 1_555
C20A C21A 1_555 1_555
C21A C3A 1_555 1_555
C22A C21A 1_555 1_555
C23A C22A 1_555 1_555
H20A C23A 1_555 1_555
C24A C23A 1_555 1_555
H21A C24A 1_555 1_555
C25A C24A 1_555 1_555
C26A C19 1_555 1_555
C27A C22A 1_555 1_555
C28A C27A 1_555 1_555
H22A C28A 1_555 1_555
C29A C20A 1_555 1_555
H23A C29A 1_555 1_555
C30A H24A 1_555 1_555
H25A C30A 1_555 1_555
C31A C30A 1_555 1_555
H26A C31A 1_555 1_555
H27A C31A 1_555 1_555
C32A C31A 1_555 1_555
H28A C32A 1_555 1_555
H29A C32A 1_555 1_555
C33A C32A 1_555 1_555
H30A C33A 1_555 1_555
H31A C33A 1_555 1_555
H32A C33A 1_555 1_555
N1A C18A 1_555 1_555
H33A N1A 1_555 1_555
O1A C1A 1_555 1_555
O2A C1A 1_555 1_555
O3A C9A 1_555 1_555
O4A C25A 1_555 1_555
O5A C18A 1_555 1_555
C34A H34A 1_555 1_555
H35A C34A 1_555 1_555
C35A C34A 1_555 1_555
H36A C35A 1_555 1_555
H37A C35A 1_555 1_555
C36A H38A 1_555 1_555
C37A C36A 1_555 1_555
H39A C37A 1_555 1_555
H40A C37A 1_555 1_555
H41A C37A 1_555 1_555
O6A C34A 1_555 1_555
O7A C35A 1_555 1_555
C4 C13 1_555 1_555
C4 O1 1_555 1_555
C11 C12 1_555 1_555
C12 C13 1_555 1_555
C14 O3 1_555 1_555
C19 N1 1_555 1_555
C20 O2 1_555 1_555
C26 C27 1_555 1_555
C28 C29 1_555 1_555
C30 O4 1_555 1_555
C36 O6 1_555 1_555
C36 O7 1_555 1_555
C4A C13A 1_555 1_555
C4A O1A 1_555 1_555
C11A C12A 1_555 1_555
C12A C13A 1_555 1_555
C14A O3A 1_555 1_555
C19A N1A 1_555 1_555
C20A O2A 1_555 1_555
C25A C26A 1_555 1_555
C26A C27A 1_555 1_555
C28A C29A 1_555 1_555
C30A O4A 1_555 1_555
C36A O6A 1_555 1_555
C36A O7A 1_555 1_555

#END
