
#######################################################################
#
#                 Cambridge Crystallographic Data Centre
#                                CCDC 
#
#######################################################################
#
# If this CIF has been generated from an entry in the Cambridge 
# Structural Database, then it will include bibliographic, chemical, 
# crystal, experimental, refinement or atomic coordinate data resulting 
# from the CCDC's data processing and validation procedures.
#
#######################################################################

data_TIHDIA
_chemical_formula_moiety         'C66 H66 N2 O10,C4 H8 O2'
_chemical_name_systematic        
'10,16,36,42-tetrabutoxy-28,50,54,56-tetraoxa-13,39-diazatridecacyclo[43.7.1.1^3,51^.1^23,27^.1^25,29^.0^2,7^.0^6,11^.0^15,20^.0^19,24^.0^32,37^.0^33,55^.0^41,46^.0^49,53^]hexapentaconta-2,4,6,8,10,15,17,19,21,23,29(55),30,32,34,36,41,43,45(53),46,48-icosaene-12,40-dione ethyl acetate unknown solvate'
_symmetry_cell_setting           triclinic
_symmetry_space_group_name_H-M   'P -1'
_symmetry_Int_Tables_number      2
_space_group_name_Hall           '-P 1'
loop_
_symmetry_equiv_pos_site_id
_symmetry_equiv_pos_as_xyz
1 x,y,z
2 -x,-y,-z
_cell_length_a                   11.6938(8)
_cell_length_b                   12.6480(10)
_cell_length_c                   13.6896(9)
_cell_angle_alpha                111.697(4)
_cell_angle_beta                 112.056(5)
_cell_angle_gamma                96.412(4)
_cell_volume                     1668.21
_exptl_crystal_colour            colorless
_exptl_crystal_description       block
_cell_formula_units_Z            1
loop_
_atom_site_label
_atom_site_type_symbol
_atom_site_fract_x
_atom_site_fract_y
_atom_site_fract_z
C34 C 0.4543(11) 0.6175(4) 0.2964(6)
H32 H 0.4897 0.6179 0.2419
H33 H 0.5220 0.6632 0.3777
H34 H 0.3833 0.6535 0.2844
C35 C 0.4053(8) 0.4926(4) 0.2737(4)
H35 H 0.3104 0.4700 0.2284
H36 H 0.4363 0.4434 0.2194
C36 C 0.4858(9) 0.4962(5) 0.4786(4)
C37 C 0.4723(5) 0.4314(4) 0.5503(3)
H37 H 0.5462 0.4005 0.5731
H38 H 0.3925 0.3653 0.5025
H39 H 0.4696 0.4869 0.6212
O7 O 0.4283(5) 0.4543(4) 0.3584(3)
O8 O 0.5690(3) 0.5865(2) 0.5390(3)
C34A C 0.5457(11) 0.3825(4) 0.7036(6)
H32A H 0.5103 0.3821 0.7581
H33A H 0.4780 0.3368 0.6223
H34A H 0.6167 0.3465 0.7156
C35A C 0.5947(8) 0.5074(4) 0.7263(4)
H35A H 0.6896 0.5300 0.7716
H36A H 0.5637 0.5566 0.7806
C36A C 0.5142(9) 0.5038(5) 0.5214(4)
C37A C 0.5277(5) 0.5686(4) 0.4497(3)
H37A H 0.4538 0.5995 0.4269
H38A H 0.6075 0.6347 0.4975
H39A H 0.5304 0.5131 0.3788
O7A O 0.5717(5) 0.5457(4) 0.6416(3)
O8A O 0.4310(3) 0.4135(2) 0.4610(3)
C1 C 0.36363(15) 0.84568(15) 0.91390(13)
H1 H 0.3690 0.8964 0.9923
C2 C 0.27060(13) 0.87316(14) 0.82529(12)
H2 H 0.2972 0.9592 0.8477
H3 H 0.1838 0.8522 0.8203
C3 C 0.26776(12) 0.80084(12) 0.70688(12)
H4 H 0.2018 0.8122 0.6425
C4 C 0.27427(13) 0.64106(13) 0.77241(11)
C5 C 0.26106(13) 0.52166(13) 0.75615(12)
H5 H 0.2858 0.5046 0.8219
C6 C 0.21235(12) 0.43227(13) 0.64478(12)
H6 H 0.2065 0.3528 0.6337
C7 C 0.17071(12) 0.45507(12) 0.54624(10)
C8 C 0.11953(11) 0.36142(12) 0.43201(10)
C9 C 0.07330(12) 0.38522(12) 0.33503(11)
C10 C 0.07463(12) 0.50259(12) 0.35106(12)
H7 H 0.0400 0.5186 0.2850
C11 C 0.12679(11) 0.59315(12) 0.46358(11)
H8 H 0.1273 0.6717 0.4736
C12 C 0.17963(11) 0.57444(11) 0.56488(11)
C13 C 0.23991(12) 0.67073(12) 0.68280(11)
C14 C -0.01913(16) 0.31647(16) 0.12473(12)
H9 H 0.0454 0.3823 0.1347
H10 H -0.0987 0.3404 0.1170
C15 C -0.04787(14) 0.20569(15) 0.01648(13)
H11 H -0.0993 0.2156 -0.0540
H12 H -0.1011 0.1381 0.0151
C16 C 0.07056(16) 0.17590(16) 0.00921(13)
H13 H 0.1218 0.1647 0.0790
H14 H 0.1243 0.2433 0.0107
C17 C 0.03706(17) 0.06327(16) -0.10254(14)
H15 H -0.0126 0.0744 -0.1719
H16 H -0.0143 -0.0041 -0.1034
H17 H 0.1167 0.0474 -0.1040
C18 C 0.11849(12) 0.23630(12) 0.41355(12)
C19 C 0.27212(12) 0.11723(12) 0.42643(11)
C20 C 0.50675(13) 0.86949(13) 0.82875(11)
C21 C 0.40414(11) 0.84277(11) 0.72103(11)
C22 C 0.43441(11) 0.85201(11) 0.63252(11)
C23 C 0.34071(13) 0.84181(12) 0.52509(13)
H18 H 0.2544 0.8342 0.5140
C24 C 0.36735(13) 0.84232(12) 0.43770(12)
H19 H 0.3012 0.8362 0.3674
C25 C 0.49447(12) 0.85202(12) 0.45152(12)
C26 C 0.59201(12) 0.87147(12) 0.55701(11)
C27 C 0.56297(11) 0.87337(11) 0.65018(11)
C28 C 0.66162(13) 0.89567(13) 0.76030(11)
H20 H 0.7486 0.9096 0.7727
C29 C 0.63444(13) 0.89755(14) 0.84837(12)
H21 H 0.7024 0.9180 0.9237
C30 C 0.42920(18) 0.81360(16) 0.24984(15)
H22 H 0.3858 0.8767 0.2513
H23 H 0.3639 0.7382 0.2208
C31 C 0.4928(3) 0.8002(2) 0.17454(19)
H24 H 0.5644 0.8735 0.2107
H25 H 0.4304 0.7920 0.0975
C32 C 0.5459(3) 0.6949(3) 0.1540(3)
H26 H 0.4761 0.6219 0.1227
H27 H 0.6138 0.7058 0.2300
C33 C 0.6025(3) 0.6801(4) 0.0673(3)
H28 H 0.5384 0.6781 -0.0049
H29 H 0.6260 0.6056 0.0482
H30 H 0.6796 0.7471 0.1030
N1 N 0.24033(10) 0.22206(9) 0.43371(9)
H31 H 0.3016 0.2835 0.4524
O1 O 0.32666(10) 0.72283(10) 0.89098(8)
O2 O 0.49103(9) 0.86910(10) 0.92308(8)
O3 O 0.03027(9) 0.29240(8) 0.22564(7)
O4 O 0.52721(9) 0.84479(9) 0.36365(8)
O5 O 0.03167(17) 0.16375(17) 0.40101(18)
O6 O 0.19513(18) 0.03034(16) 0.3902(2)
C1A C 0.63637(15) 0.15432(15) 0.08610(13)
H1A H 0.6310 0.1036 0.0077
C2A C 0.72940(13) 0.12684(14) 0.17471(12)
H2A H 0.7028 0.0408 0.1523
H3A H 0.8162 0.1478 0.1797
C3A C 0.73224(12) 0.19916(12) 0.29312(12)
H4A H 0.7982 0.1878 0.3575
C4A C 0.72573(13) 0.35894(13) 0.22759(11)
C5A C 0.73894(13) 0.47834(13) 0.24385(12)
H5A H 0.7142 0.4954 0.1781
C6A C 0.78765(12) 0.56773(13) 0.35522(12)
H6A H 0.7935 0.6472 0.3663
C7A C 0.82929(12) 0.54493(12) 0.45376(10)
C8A C 0.88047(11) 0.63858(12) 0.56799(10)
C9A C 0.92670(12) 0.61478(12) 0.66497(11)
C10A C 0.92537(12) 0.49741(12) 0.64894(12)
H7A H 0.9600 0.4814 0.7150
C11A C 0.87321(11) 0.40685(12) 0.53642(11)
H8A H 0.8727 0.3283 0.5264
C12A C 0.82037(11) 0.42556(11) 0.43512(11)
C13A C 0.76009(12) 0.32927(12) 0.31720(11)
C14A C 1.01913(16) 0.68353(16) 0.87527(12)
H9A H 0.9546 0.6177 0.8653
H10A H 1.0987 0.6596 0.8830
C15A C 1.04787(14) 0.79431(15) 0.98352(13)
H11A H 1.0993 0.7844 1.0540
H12A H 1.1011 0.8619 0.9849
C16A C 0.92944(16) 0.82410(16) 0.99079(13)
H13A H 0.8782 0.8353 0.9210
H14A H 0.8757 0.7567 0.9893
C17A C 0.96294(17) 0.93673(16) 1.10254(14)
H15A H 1.0126 0.9256 1.1719
H16A H 1.0143 1.0041 1.1034
H17A H 0.8833 0.9526 1.1040
C18A C 0.88151(12) 0.76370(12) 0.58645(12)
C19A C 0.72788(12) 0.88277(12) 0.57357(11)
C20A C 0.49325(13) 0.13051(13) 0.17125(11)
C21A C 0.59586(11) 0.15723(11) 0.27897(11)
C22A C 0.56559(11) 0.14799(11) 0.36748(11)
C23A C 0.65929(13) 0.15819(12) 0.47491(13)
H18A H 0.7456 0.1658 0.4860
C24A C 0.63265(13) 0.15768(12) 0.56230(12)
H19A H 0.6988 0.1638 0.6326
C25A C 0.50553(12) 0.14798(12) 0.54848(12)
C26A C 0.40799(12) 0.12853(12) 0.44299(11)
C27A C 0.43703(11) 0.12663(11) 0.34982(11)
C28A C 0.33838(13) 0.10433(13) 0.23970(11)
H20A H 0.2514 0.0904 0.2273
C29A C 0.36556(13) 0.10245(14) 0.15163(12)
H21A H 0.2976 0.0820 0.0763
C30A C 0.57080(18) 0.18640(16) 0.75016(15)
H22A H 0.6142 0.1233 0.7487
H23A H 0.6361 0.2618 0.7792
C31A C 0.5072(3) 0.1998(2) 0.82546(19)
H24A H 0.4356 0.1265 0.7893
H25A H 0.5696 0.2080 0.9025
C32A C 0.4541(3) 0.3051(3) 0.8460(3)
H26A H 0.5239 0.3781 0.8773
H27A H 0.3862 0.2942 0.7700
C33A C 0.3975(3) 0.3199(4) 0.9327(3)
H28A H 0.4616 0.3219 1.0049
H29A H 0.3740 0.3944 0.9518
H30A H 0.3204 0.2529 0.8970
N1A N 0.75967(10) 0.77794(9) 0.56629(9)
H31A H 0.6984 0.7165 0.5476
O1A O 0.67334(10) 0.27717(10) 0.10902(8)
O2A O 0.50897(9) 0.13090(10) 0.07692(8)
O3A O 0.96973(9) 0.70760(8) 0.77436(7)
O4A O 0.47279(9) 0.15521(9) 0.63635(8)
O5A O 0.96833(17) 0.83625(17) 0.59899(18)
O6A O 0.80487(18) 0.96966(16) 0.6098(2)
H40? H 0.4686 0.8451 0.2098
H41? H 0.3651 0.8561 0.2596
C38? C 0.3553(3) 0.6816(3) 0.1661(3)
H42? H 0.3040 0.6524 0.1993
H43? H 0.2940 0.6755 0.0897
C39? C 0.4377(3) 0.5998(3) 0.1432(3)
H44? H 0.4764 0.6188 0.0964
H45? H 0.5091 0.6160 0.2196
C40? C 0.3647(4) 0.4689(3) 0.0788(3)
H46? H 0.2858 0.4541 0.0094
H47? H 0.3421 0.4453 0.1313
H48? H 0.4189 0.4224 0.0539
H49? H 0.0920 0.2188 0.4680
H50? H 0.0551 0.1795 0.3319
H51? H 0.2121 0.0508 0.3485
H52? H 0.2625 0.0987 0.4877
loop_
_geom_bond_atom_site_label_1
_geom_bond_atom_site_label_2
_geom_bond_site_symmetry_1
_geom_bond_site_symmetry_2
C1 H1 1_555 1_555
C2 C1 1_555 1_555
H2 C2 1_555 1_555
H3 C2 1_555 1_555
C3 C2 1_555 1_555
H4 C3 1_555 1_555
C4 C5 1_555 1_555
C5 H5 1_555 1_555
C6 C5 1_555 1_555
H6 C6 1_555 1_555
C7 C6 1_555 1_555
C8 C7 1_555 1_555
C9 C8 1_555 1_555
C10 C9 1_555 1_555
H7 C10 1_555 1_555
C11 C10 1_555 1_555
H8 C11 1_555 1_555
C12 C7 1_555 1_555
C13 C3 1_555 1_555
C14 H9 1_555 1_555
H10 C14 1_555 1_555
C15 C14 1_555 1_555
H11 C15 1_555 1_555
H12 C15 1_555 1_555
C16 C15 1_555 1_555
H13 C16 1_555 1_555
H14 C16 1_555 1_555
C17 C16 1_555 1_555
H15 C17 1_555 1_555
H16 C17 1_555 1_555
H17 C17 1_555 1_555
C18 C8 1_555 1_555
C19 N1 1_555 1_555
C20 C21 1_555 1_555
C21 C3 1_555 1_555
C22 C21 1_555 1_555
C23 C22 1_555 1_555
H18 C23 1_555 1_555
C24 C23 1_555 1_555
H19 C24 1_555 1_555
C25 C24 1_555 1_555
C26 C25 1_555 1_555
C27 C22 1_555 1_555
C28 C27 1_555 1_555
H20 C28 1_555 1_555
C29 C20 1_555 1_555
H21 C29 1_555 1_555
C30 H22 1_555 1_555
H23 C30 1_555 1_555
C31 C30 1_555 1_555
H24 C31 1_555 1_555
H25 C31 1_555 1_555
C32 C31 1_555 1_555
H26 C32 1_555 1_555
H27 C32 1_555 1_555
C33 C32 1_555 1_555
H28 C33 1_555 1_555
H29 C33 1_555 1_555
H30 C33 1_555 1_555
N1 C18 1_555 1_555
H31 N1 1_555 1_555
O1 C1 1_555 1_555
O2 C1 1_555 1_555
O3 C9 1_555 1_555
O4 C25 1_555 1_555
O5 C18 1_555 1_555
O6 C19 1_555 1_555
C34 H32 1_555 1_555
H33 C34 1_555 1_555
H34 C34 1_555 1_555
C35 C34 1_555 1_555
H35 C35 1_555 1_555
H36 C35 1_555 1_555
C36 C37 1_555 1_555
C37 H37 1_555 1_555
H38 C37 1_555 1_555
H39 C37 1_555 1_555
O7 C35 1_555 1_555
O8 C36 1_555 1_555
C1A H1A 1_555 1_555
C2A C1A 1_555 1_555
H2A C2A 1_555 1_555
H3A C2A 1_555 1_555
C3A C2A 1_555 1_555
H4A C3A 1_555 1_555
C4A C5A 1_555 1_555
C5A H5A 1_555 1_555
C6A C5A 1_555 1_555
H6A C6A 1_555 1_555
C7A C6A 1_555 1_555
C8A C7A 1_555 1_555
C9A C8A 1_555 1_555
C10A C9A 1_555 1_555
H7A C10A 1_555 1_555
C11A C10A 1_555 1_555
H8A C11A 1_555 1_555
C12A C7A 1_555 1_555
C13A C3A 1_555 1_555
C14A H9A 1_555 1_555
H10A C14A 1_555 1_555
C15A C14A 1_555 1_555
H11A C15A 1_555 1_555
H12A C15A 1_555 1_555
C16A C15A 1_555 1_555
H13A C16A 1_555 1_555
H14A C16A 1_555 1_555
C17A C16A 1_555 1_555
H15A C17A 1_555 1_555
H16A C17A 1_555 1_555
H17A C17A 1_555 1_555
C18A C8A 1_555 1_555
C19A C26 1_555 1_555
C20A C21A 1_555 1_555
C21A C3A 1_555 1_555
C22A C21A 1_555 1_555
C23A C22A 1_555 1_555
H18A C23A 1_555 1_555
C24A C23A 1_555 1_555
H19A C24A 1_555 1_555
C25A C24A 1_555 1_555
C26A C19 1_555 1_555
C27A C22A 1_555 1_555
C28A C27A 1_555 1_555
H20A C28A 1_555 1_555
C29A C20A 1_555 1_555
H21A C29A 1_555 1_555
C30A H22A 1_555 1_555
H23A C30A 1_555 1_555
C31A C30A 1_555 1_555
H24A C31A 1_555 1_555
H25A C31A 1_555 1_555
C32A C31A 1_555 1_555
H26A C32A 1_555 1_555
H27A C32A 1_555 1_555
C33A C32A 1_555 1_555
H28A C33A 1_555 1_555
H29A C33A 1_555 1_555
H30A C33A 1_555 1_555
N1A C18A 1_555 1_555
H31A N1A 1_555 1_555
O1A C1A 1_555 1_555
O2A C1A 1_555 1_555
O3A C9A 1_555 1_555
O4A C25A 1_555 1_555
O5A C18A 1_555 1_555
O6A C19A 1_555 1_555
C34A H32A 1_555 1_555
H33A C34A 1_555 1_555
H34A C34A 1_555 1_555
C35A C34A 1_555 1_555
H35A C35A 1_555 1_555
H36A C35A 1_555 1_555
C36A C37A 1_555 1_555
C37A H37A 1_555 1_555
H38A C37A 1_555 1_555
H39A C37A 1_555 1_555
O7A C35A 1_555 1_555
O8A C36A 1_555 1_555
C4 C13 1_555 1_555
C4 O1 1_555 1_555
C11 C12 1_555 1_555
C12 C13 1_555 1_555
C14 O3 1_555 1_555
C20 O2 1_555 1_555
C26 C27 1_555 1_555
C28 C29 1_555 1_555
C30 O4 1_555 1_555
C36 O7 1_555 1_555
C4A C13A 1_555 1_555
C4A O1A 1_555 1_555
C11A C12A 1_555 1_555
C12A C13A 1_555 1_555
C14A O3A 1_555 1_555
C19A N1A 1_555 1_555
C20A O2A 1_555 1_555
C25A C26A 1_555 1_555
C26A C27A 1_555 1_555
C28A C29A 1_555 1_555
C30A O4A 1_555 1_555
C36A O7A 1_555 1_555

#END
