
#######################################################################
#
#                 Cambridge Crystallographic Data Centre
#                                CCDC 
#
#######################################################################
#
# If this CIF has been generated from an entry in the Cambridge 
# Structural Database, then it will include bibliographic, chemical, 
# crystal, experimental, refinement or atomic coordinate data resulting 
# from the CCDC's data processing and validation procedures.
#
#######################################################################

data_TIHFIC
_chemical_formula_moiety         'C66 H66 N2 O10,4(C4 H5 N1),H2 O1'
_chemical_name_systematic        
'10,16,36,42-tetrabutoxy-28,50,54,56-tetraoxa-13,39-diazatridecacyclo[43.7.1.1^3,51^.1^23,27^.1^25,29^.0^2,7^.0^6,11^.0^15,20^.0^19,24^.0^32,37^.0^33,55^.0^41,46^.0^49,53^]hexapentaconta-2,4,6,8,10,15,17,19,21,23,29(55),30,32,34,36,41,43,45(53),46,48-icosaene-12,40-dione tetrakis(1H-pyrrole) monohydrate'
_symmetry_cell_setting           triclinic
_symmetry_space_group_name_H-M   'P -1'
_symmetry_Int_Tables_number      2
_space_group_name_Hall           '-P 1'
loop_
_symmetry_equiv_pos_site_id
_symmetry_equiv_pos_as_xyz
1 x,y,z
2 -x,-y,-z
_cell_length_a                   14.1297(4)
_cell_length_b                   15.4771(5)
_cell_length_c                   17.6350(5)
_cell_angle_alpha                90.6630(10)
_cell_angle_beta                 94.2910(10)
_cell_angle_gamma                113.2830(10)
_cell_volume                     3528.98
_exptl_crystal_colour            colorless
_exptl_crystal_description       block
_cell_formula_units_Z            2
loop_
_atom_site_label
_atom_site_type_symbol
_atom_site_fract_x
_atom_site_fract_y
_atom_site_fract_z
C1 C 0.03683(15) 0.10757(14) 0.91443(12)
H1 H -0.0377 0.0815 0.9248
C2 C 0.10044(15) 0.12725(14) 0.98975(12)
H2 H 0.0822 0.0688 1.0182
H3 H 0.0873 0.1744 1.0208
C3 C 0.21373(14) 0.16472(13) 0.97331(11)
H4 H 0.2600 0.1797 1.0216
C4 C 0.23631(14) 0.25254(13) 0.92678(11)
C5 C 0.15795(15) 0.25745(14) 0.87893(12)
C6 C 0.17391(15) 0.33080(14) 0.82863(12)
H5 H 0.1170 0.3338 0.7982
C7 C 0.27081(15) 0.39758(14) 0.82346(11)
H6 H 0.2816 0.4451 0.7875
C8 C 0.35562(15) 0.39688(13) 0.87118(11)
C9 C 0.45870(14) 0.46331(13) 0.86548(10)
C10 C 0.53897(14) 0.46234(13) 0.91402(11)
C11 C 0.51903(15) 0.39815(13) 0.97273(11)
H7 H 0.5736 0.4004 1.0087
C12 C 0.42119(15) 0.33292(13) 0.97775(11)
H8 H 0.4091 0.2902 1.0177
C13 C 0.33714(14) 0.32617(13) 0.92612(10)
C14 C 0.72120(15) 0.52347(14) 0.95048(12)
H9 H 0.7234 0.4607 0.9442
H10 H 0.7136 0.5345 1.0047
C15 C 0.81864(16) 0.59830(15) 0.92648(12)
H11 H 0.8775 0.5991 0.9610
H12 H 0.8142 0.6602 0.9331
C16 C 0.84158(18) 0.58708(17) 0.84527(14)
H13 H 0.7852 0.5907 0.8103
H14 H 0.9064 0.6402 0.8352
C17 C 0.8525(2) 0.4960(2) 0.82786(19)
H15 H 0.8739 0.4963 0.7763
H16 H 0.7860 0.4431 0.8315
H17 H 0.9047 0.4896 0.8645
C18 C 0.22880(14) 0.09005(13) 0.92427(10)
C19 C 0.32368(14) 0.07758(12) 0.92471(10)
C20 C 0.40528(15) 0.11854(13) 0.98242(11)
H18 H 0.3941 0.1502 1.0251
C21 C 0.49936(15) 0.11423(13) 0.97899(11)
H19 H 0.5523 0.1423 1.0190
C22 C 0.51798(14) 0.06817(13) 0.91605(11)
C23 C 0.43831(14) 0.01958(13) 0.86171(11)
C24 C 0.33898(14) 0.02166(13) 0.86558(11)
C25 C 0.25422(15) -0.02825(14) 0.81172(11)
H20 H 0.2625 -0.0661 0.7721
C26 C 0.16133(15) -0.02237(14) 0.81627(12)
H21 H 0.1042 -0.0591 0.7817
C27 C 0.14917(15) 0.03760(14) 0.87176(11)
C28 C 0.69854(15) 0.12405(15) 0.95799(12)
H22 H 0.6901 0.1004 1.0100
H23 H 0.7042 0.1899 0.9596
C29 C 0.79262(16) 0.11886(15) 0.92839(12)
H24 H 0.7841 0.0522 0.9260
H25 H 0.8532 0.1538 0.9648
C30 C 0.81480(18) 0.15859(19) 0.84988(14)
H26 H 0.8653 0.1374 0.8286
H27 H 0.7501 0.1327 0.8158
C31 C 0.8568(3) 0.2644(2) 0.8507(2)
H28 H 0.8680 0.2855 0.7987
H29 H 0.9225 0.2907 0.8825
H30 H 0.8071 0.2861 0.8715
C32 C 0.45872(14) -0.03206(13) 0.79635(11)
C33 C 0.55154(16) -0.01308(14) 0.68039(11)
H31 H 0.5001 -0.0773 0.6655
H32 H 0.6195 -0.0166 0.6921
C34 C 0.55791(15) 0.05082(13) 0.61556(10)
C35 C 0.46652(15) 0.05628(13) 0.58068(10)
C36 C 0.36715(15) -0.00017(13) 0.60362(11)
H33 H 0.3613 -0.0429 0.6430
C37 C 0.28057(15) 0.00592(13) 0.57017(11)
H34 H 0.2146 -0.0342 0.5848
C38 C 0.28800(15) 0.07153(13) 0.51391(11)
C39 C 0.38142(15) 0.13050(13) 0.49037(10)
C40 C 0.47261(15) 0.11992(13) 0.52142(10)
C41 C 0.57144(15) 0.17004(13) 0.49557(11)
H35 H 0.5771 0.2090 0.4535
C42 C 0.65897(15) 0.16409(13) 0.52926(11)
H36 H 0.7241 0.1995 0.5109
C43 C 0.65295(15) 0.10581(14) 0.59099(11)
C44 C 0.83803(15) 0.14872(15) 0.60256(12)
H37 H 0.8579 0.2176 0.6082
H38 H 0.8370 0.1318 0.5481
C45 C 0.91420(16) 0.12096(16) 0.64956(12)
H39 H 0.8894 0.0515 0.6474
H40 H 0.9175 0.1420 0.7033
C46 C 1.02121(19) 0.1626(2) 0.62261(16)
H41 H 1.0477 0.2321 0.6282
H42 H 1.0168 0.1455 0.5678
C47 C 1.09722(19) 0.1302(2) 0.66520(16)
H43 H 1.1653 0.1609 0.6458
H44 H 1.0734 0.0617 0.6579
H45 H 1.1022 0.1468 0.7196
C48 C 0.19323(16) 0.14291(14) 0.43721(12)
H46 H 0.1273 0.1175 0.4034
C49 C 0.28166(16) 0.17228(15) 0.38718(11)
H47 H 0.2788 0.2221 0.3535
H48 H 0.2776 0.1178 0.3550
C50 C 0.38186(15) 0.20924(13) 0.43912(11)
H49 H 0.4435 0.2309 0.4088
C51 C 0.28867(15) 0.28561(13) 0.51166(11)
C52 C 0.28250(16) 0.34866(14) 0.56724(12)
H50 H 0.2168 0.3438 0.5807
C53 C 0.36997(15) 0.41641(13) 0.60177(11)
H51 H 0.3648 0.4569 0.6406
C54 C 0.46892(15) 0.42763(13) 0.58068(10)
C55 C 0.56141(15) 0.49905(13) 0.61558(10)
C56 C 0.65595(15) 0.50729(13) 0.59382(11)
C57 C 0.66116(15) 0.44773(14) 0.53458(11)
H52 H 0.7265 0.4549 0.5186
C58 C 0.57317(15) 0.37996(13) 0.50009(11)
H53 H 0.5785 0.3419 0.4593
C59 C 0.47415(15) 0.36442(13) 0.52303(10)
C60 C 0.38190(15) 0.28977(13) 0.49036(10)
C61 C 0.84061(15) 0.59181(15) 0.60310(12)
H54 H 0.8388 0.6058 0.5485
H55 H 0.8559 0.5349 0.6084
C62 C 0.92333(17) 0.67398(15) 0.64820(12)
H56 H 0.9300 0.6569 0.7017
H57 H 0.9032 0.7284 0.6480
C63 C 1.02678(18) 0.70134(17) 0.61452(14)
H58 H 1.0215 0.7245 0.5629
H59 H 1.0425 0.6448 0.6094
C64 C 1.1152(2) 0.77702(19) 0.66272(16)
H60 H 1.1798 0.7918 0.6387
H61 H 1.1216 0.7542 0.7136
H62 H 1.1009 0.8339 0.6669
C65 C 0.55589(16) 0.56315(13) 0.67842(11)
H63 H 0.6235 0.6170 0.6883
H64 H 0.5031 0.5881 0.6631
C66 C 0.48099(14) 0.53107(13) 0.80242(11)
N1 N 0.52150(12) 0.02213(11) 0.74819(9)
H65 H 0.5469 0.0834 0.7575
N2 N 0.52892(13) 0.51049(11) 0.74750(9)
H66 H 0.5457 0.4617 0.7530
O1 O 0.05682(10) 0.19112(10) 0.87447(9)
O2 O 0.05227(10) 0.04043(10) 0.86721(8)
O3 O 0.63584(10) 0.52772(9) 0.90335(8)
O4 O 0.61179(10) 0.06607(10) 0.90644(8)
O5 O 0.41811(11) -0.11928(9) 0.78762(8)
O6 O 0.19343(10) 0.07117(9) 0.48636(8)
O7 O 0.19347(10) 0.21980(9) 0.48201(8)
O8 O 0.73796(10) 0.09939(11) 0.62915(8)
O9 O 0.74263(11) 0.57549(10) 0.63127(8)
O10 O 0.45574(12) 0.59875(10) 0.80108(9)
C67 C 0.17009(18) -0.26400(18) 0.88813(14)
H67 H 0.1448 -0.2158 0.8823
C68 C 0.12228(19) -0.3468(2) 0.92098(15)
H68 H 0.0580 -0.3668 0.9428
C69 C 0.1844(2) -0.3978(2) 0.91704(16)
H69 H 0.1700 -0.4589 0.9351
C70 C 0.26990(19) -0.34306(19) 0.88231(14)
H70 H 0.3261 -0.3592 0.8721
N3 N 0.26025(14) -0.26157(14) 0.86502(10)
H71 H 0.3055 -0.2146 0.8424
C71 C 0.7118(3) 0.75074(19) 0.82118(15)
H72 H 0.6977 0.6856 0.8239
C72 C 0.8055(2) 0.8202(2) 0.81489(14)
H73 H 0.8687 0.8126 0.8119
C73 C 0.7931(2) 0.90441(18) 0.81356(13)
H74 H 0.8457 0.9654 0.8097
C74 C 0.6903(2) 0.88266(18) 0.81885(12)
H75 H 0.6573 0.9255 0.8196
N4 N 0.64466(19) 0.78777(17) 0.82283(12)
H76 H 0.5781 0.7557 0.8261
C75 C 0.4560(2) 0.2452(2) 0.69935(18)
H77 H 0.3932 0.2307 0.6685
C76 C 0.4735(3) 0.24723(19) 0.7838(2)
H78 H 0.4238 0.2361 0.8199
C77 C 0.5776(4) 0.2688(3) 0.7976(2)
H79 H 0.6122 0.2737 0.8468
C78 C 0.6213(3) 0.2811(2) 0.7362(2)
H80 H 0.6928 0.2967 0.7321
N5 N 0.55109(18) 0.26884(14) 0.67841(11)
H81 H 0.5660 0.2757 0.6307
C79 C 0.1672(3) 0.5332(4) 0.6251(3)
H82 H 0.2214 0.5579 0.5926
C80 C 0.0717(4) 0.4612(4) 0.6049(3)
H83 H 0.0463 0.4289 0.5568
C81 C 0.0223(3) 0.4475(2) 0.6708(2)
H84 H -0.0443 0.4013 0.6782
C82 C 0.0858(3) 0.5116(3) 0.7218(2)
H85 H 0.0712 0.5206 0.7723
N6 N 0.1714(2) 0.5603(2) 0.6919(2)
H86 H 0.2247 0.6063 0.7158
O11 O 0.39708(14) 0.71512(11) 0.69526(9)
H87 H 0.4082 0.7681 0.7194
H88 H 0.4204 0.6814 0.7242
loop_
_geom_bond_atom_site_label_1
_geom_bond_atom_site_label_2
_geom_bond_site_symmetry_1
_geom_bond_site_symmetry_2
C1 H1 1_555 1_555
C2 C1 1_555 1_555
H2 C2 1_555 1_555
H3 C2 1_555 1_555
C3 C2 1_555 1_555
H4 C3 1_555 1_555
C4 C3 1_555 1_555
C5 C4 1_555 1_555
C6 C5 1_555 1_555
H5 C6 1_555 1_555
C7 C6 1_555 1_555
H6 C7 1_555 1_555
C8 C7 1_555 1_555
C9 C8 1_555 1_555
C10 C9 1_555 1_555
C11 C10 1_555 1_555
H7 C11 1_555 1_555
C12 C11 1_555 1_555
H8 C12 1_555 1_555
C13 C4 1_555 1_555
C14 H9 1_555 1_555
H10 C14 1_555 1_555
C15 C14 1_555 1_555
H11 C15 1_555 1_555
H12 C15 1_555 1_555
C16 C15 1_555 1_555
H13 C16 1_555 1_555
H14 C16 1_555 1_555
C17 C16 1_555 1_555
H15 C17 1_555 1_555
H16 C17 1_555 1_555
H17 C17 1_555 1_555
C18 C3 1_555 1_555
C19 C18 1_555 1_555
C20 C19 1_555 1_555
H18 C20 1_555 1_555
C21 C20 1_555 1_555
H19 C21 1_555 1_555
C22 C21 1_555 1_555
C23 C22 1_555 1_555
C24 C19 1_555 1_555
C25 C24 1_555 1_555
H20 C25 1_555 1_555
C26 C25 1_555 1_555
H21 C26 1_555 1_555
C27 C18 1_555 1_555
C28 H22 1_555 1_555
H23 C28 1_555 1_555
C29 C28 1_555 1_555
H24 C29 1_555 1_555
H25 C29 1_555 1_555
C30 C29 1_555 1_555
H26 C30 1_555 1_555
H27 C30 1_555 1_555
C31 C30 1_555 1_555
H28 C31 1_555 1_555
H29 C31 1_555 1_555
H30 C31 1_555 1_555
C32 C23 1_555 1_555
C33 H31 1_555 1_555
H32 C33 1_555 1_555
C34 C33 1_555 1_555
C35 C34 1_555 1_555
C36 C35 1_555 1_555
H33 C36 1_555 1_555
C37 C36 1_555 1_555
H34 C37 1_555 1_555
C38 C37 1_555 1_555
C39 C38 1_555 1_555
C40 C35 1_555 1_555
C41 C40 1_555 1_555
H35 C41 1_555 1_555
C42 C41 1_555 1_555
H36 C42 1_555 1_555
C43 C34 1_555 1_555
C44 H37 1_555 1_555
H38 C44 1_555 1_555
C45 C44 1_555 1_555
H39 C45 1_555 1_555
H40 C45 1_555 1_555
C46 C45 1_555 1_555
H41 C46 1_555 1_555
H42 C46 1_555 1_555
C47 C46 1_555 1_555
H43 C47 1_555 1_555
H44 C47 1_555 1_555
H45 C47 1_555 1_555
C48 H46 1_555 1_555
C49 C48 1_555 1_555
H47 C49 1_555 1_555
H48 C49 1_555 1_555
C50 C39 1_555 1_555
H49 C50 1_555 1_555
C51 C52 1_555 1_555
C52 H50 1_555 1_555
C53 C52 1_555 1_555
H51 C53 1_555 1_555
C54 C53 1_555 1_555
C55 C54 1_555 1_555
C56 C55 1_555 1_555
C57 C56 1_555 1_555
H52 C57 1_555 1_555
C58 C57 1_555 1_555
H53 C58 1_555 1_555
C59 C54 1_555 1_555
C60 C50 1_555 1_555
C61 H54 1_555 1_555
H55 C61 1_555 1_555
C62 C61 1_555 1_555
H56 C62 1_555 1_555
H57 C62 1_555 1_555
C63 C62 1_555 1_555
H58 C63 1_555 1_555
H59 C63 1_555 1_555
C64 C63 1_555 1_555
H60 C64 1_555 1_555
H61 C64 1_555 1_555
H62 C64 1_555 1_555
C65 C55 1_555 1_555
H63 C65 1_555 1_555
H64 C65 1_555 1_555
C66 C9 1_555 1_555
N1 C32 1_555 1_555
H65 N1 1_555 1_555
N2 C65 1_555 1_555
H66 N2 1_555 1_555
O1 C1 1_555 1_555
O2 C1 1_555 1_555
O3 C10 1_555 1_555
O4 C22 1_555 1_555
O5 C32 1_555 1_555
O6 C38 1_555 1_555
O7 C48 1_555 1_555
O8 C43 1_555 1_555
O9 C56 1_555 1_555
O10 C66 1_555 1_555
C67 H67 1_555 1_555
C68 C67 1_555 1_555
H68 C68 1_555 1_555
C69 C68 1_555 1_555
H69 C69 1_555 1_555
C70 C69 1_555 1_555
H70 C70 1_555 1_555
N3 C67 1_555 1_555
H71 N3 1_555 1_555
C71 H72 1_555 1_555
C72 C71 1_555 1_555
H73 C72 1_555 1_555
C73 C72 1_555 1_555
H74 C73 1_555 1_555
C74 C73 1_555 1_555
H75 C74 1_555 1_555
N4 C71 1_555 1_555
H76 N4 1_555 1_555
C75 H77 1_555 1_555
C76 C75 1_555 1_555
H78 C76 1_555 1_555
C77 C76 1_555 1_555
H79 C77 1_555 1_555
C78 C77 1_555 1_555
H80 C78 1_555 1_555
N5 C75 1_555 1_555
H81 N5 1_555 1_555
C79 H82 1_555 1_555
C80 C79 1_555 1_555
H83 C80 1_555 1_555
C81 C80 1_555 1_555
H84 C81 1_555 1_555
C82 C81 1_555 1_555
H85 C82 1_555 1_555
N6 C79 1_555 1_555
H86 N6 1_555 1_555
O11 H87 1_555 1_555
H88 O11 1_555 1_555
C5 O1 1_555 1_555
C8 C13 1_555 1_555
C12 C13 1_555 1_555
C14 O3 1_555 1_555
C23 C24 1_555 1_555
C26 C27 1_555 1_555
C27 O2 1_555 1_555
C28 O4 1_555 1_555
C33 N1 1_555 1_555
C39 C40 1_555 1_555
C42 C43 1_555 1_555
C44 O8 1_555 1_555
C48 O6 1_555 1_555
C49 C50 1_555 1_555
C51 C60 1_555 1_555
C51 O7 1_555 1_555
C58 C59 1_555 1_555
C59 C60 1_555 1_555
C61 O9 1_555 1_555
C66 N2 1_555 1_555
C70 N3 1_555 1_555
C74 N4 1_555 1_555
C78 N5 1_555 1_555
C82 N6 1_555 1_555

#END
