
#######################################################################
#
#                 Cambridge Crystallographic Data Centre
#                                CCDC 
#
#######################################################################
#
# If this CIF has been generated from an entry in the Cambridge 
# Structural Database, then it will include bibliographic, chemical, 
# crystal, experimental, refinement or atomic coordinate data resulting 
# from the CCDC's data processing and validation procedures.
#
#######################################################################

data_TIHGAU
_chemical_formula_moiety         'C31 H22 I1 N1 O1'
_chemical_name_systematic        
4-Iodo-6-methoxy-1-methyl-2-phenyl-1H-spiro[benzo[cd]indole-3,9'-fluorene]
_symmetry_cell_setting           monoclinic
_symmetry_space_group_name_H-M   'P 21/c'
_symmetry_Int_Tables_number      14
_space_group_name_Hall           '-P 2ybc'
loop_
_symmetry_equiv_pos_site_id
_symmetry_equiv_pos_as_xyz
1 x,y,z
2 -x,1/2+y,1/2-z
3 -x,-y,-z
4 x,1/2-y,1/2+z
_cell_length_a                   9.7999(3)
_cell_length_b                   15.8866(6)
_cell_length_c                   15.9762(6)
_cell_angle_alpha                90
_cell_angle_beta                 101.335(4)
_cell_angle_gamma                90
_cell_volume                     2438.77
_exptl_crystal_colour            yellow
_exptl_crystal_description       block
_cell_formula_units_Z            4
loop_
_atom_site_label
_atom_site_type_symbol
_atom_site_fract_x
_atom_site_fract_y
_atom_site_fract_z
I1 I -0.13452(2) 0.165950(16) 0.298030(15)
O1 O 0.2343(3) -0.06757(19) 0.20428(19)
N1 N 0.5407(2) 0.12211(16) 0.46188(16)
C1 C 0.1023(3) 0.17247(18) 0.48536(18)
C2 C 0.0847(3) 0.0993(2) 0.52755(19)
H1 H 0.1077 0.0476 0.5068
C3 C 0.0319(3) 0.1040(2) 0.6018(2)
H2 H 0.0205 0.0550 0.6314
C4 C -0.0037(4) 0.1801(3) 0.6323(2)
H3 H -0.0405 0.1818 0.6817
C5 C 0.0145(3) 0.2541(2) 0.5905(2)
H4 H -0.0089 0.3056 0.6115
C6 C 0.0688(3) 0.25013(19) 0.51612(19)
C7 C 0.1054(3) 0.31596(19) 0.4604(2)
C8 C 0.1004(4) 0.4032(2) 0.4660(3)
H5 H 0.0673 0.4290 0.5103
C9 C 0.1454(5) 0.4507(2) 0.4046(3)
H6 H 0.1414 0.5091 0.4075
C10 C 0.1958(4) 0.4138(2) 0.3395(3)
H7 H 0.2253 0.4473 0.2988
C11 C 0.2033(4) 0.3269(2) 0.3335(2)
H8 H 0.2384 0.3017 0.2897
C12 C 0.1573(3) 0.27872(18) 0.39438(19)
C13 C 0.1645(3) 0.18276(17) 0.40524(18)
C14 C 0.0780(3) 0.13408(19) 0.32981(18)
C15 C 0.1203(3) 0.07091(19) 0.28644(19)
H9 H 0.0572 0.0456 0.2425
C16 C 0.2625(3) 0.04072(19) 0.30622(19)
C17 C 0.3218(4) -0.0248(2) 0.2682(2)
C18 C 0.4623(4) -0.0448(2) 0.2967(2)
H10 H 0.4995 -0.0896 0.2711
C19 C 0.5478(4) -0.0015(2) 0.3608(2)
H11 H 0.6410 -0.0160 0.3783
C20 C 0.4898(3) 0.06494(19) 0.39868(19)
C21 C 0.3493(3) 0.08304(18) 0.37190(18)
C22 C 0.3129(3) 0.15053(17) 0.42000(17)
C23 C 0.4325(3) 0.17414(18) 0.47533(18)
C24 C 0.4580(3) 0.2437(2) 0.5373(2)
C25 C 0.5335(6) 0.3119(3) 0.5206(3)
H12 H 0.5696 0.3138 0.4709
C26 C 0.5559(7) 0.3788(4) 0.5787(4)
H13 H 0.6067 0.4253 0.5672
C27 C 0.5051(6) 0.3766(3) 0.6508(4)
H14 H 0.5218 0.4210 0.6894
C28 C 0.4295(5) 0.3097(3) 0.6673(3)
H15 H 0.3937 0.3082 0.7170
C29 C 0.4055(4) 0.2439(2) 0.6106(2)
H16 H 0.3524 0.1984 0.6223
C30 C 0.6809(3) 0.1210(3) 0.5122(2)
H17 H 0.7022 0.0656 0.5350
H18 H 0.6878 0.1606 0.5582
H19 H 0.7456 0.1361 0.4767
C31 C 0.2889(6) -0.1128(4) 0.1460(4)
H20 H 0.2149 -0.1328 0.1019
H21 H 0.3401 -0.1599 0.1738
H22 H 0.3501 -0.0776 0.1213
loop_
_geom_bond_atom_site_label_1
_geom_bond_atom_site_label_2
_geom_bond_site_symmetry_1
_geom_bond_site_symmetry_2
I1 C14 1_555 1_555
O1 C17 1_555 1_555
N1 C20 1_555 1_555
C1 C2 1_555 1_555
C2 H1 1_555 1_555
C3 C2 1_555 1_555
H2 C3 1_555 1_555
C4 C3 1_555 1_555
H3 C4 1_555 1_555
C5 C4 1_555 1_555
H4 C5 1_555 1_555
C6 C1 1_555 1_555
C7 C6 1_555 1_555
C8 C7 1_555 1_555
H5 C8 1_555 1_555
C9 C8 1_555 1_555
H6 C9 1_555 1_555
C10 C9 1_555 1_555
H7 C10 1_555 1_555
C11 C10 1_555 1_555
H8 C11 1_555 1_555
C12 C7 1_555 1_555
C13 C1 1_555 1_555
C14 C13 1_555 1_555
C15 C14 1_555 1_555
H9 C15 1_555 1_555
C16 C15 1_555 1_555
C17 C16 1_555 1_555
C18 C17 1_555 1_555
H10 C18 1_555 1_555
C19 C18 1_555 1_555
H11 C19 1_555 1_555
C20 C19 1_555 1_555
C21 C16 1_555 1_555
C22 C13 1_555 1_555
C23 N1 1_555 1_555
C24 C23 1_555 1_555
C25 C24 1_555 1_555
H12 C25 1_555 1_555
C26 C25 1_555 1_555
H13 C26 1_555 1_555
C27 C26 1_555 1_555
H14 C27 1_555 1_555
C28 C27 1_555 1_555
H15 C28 1_555 1_555
C29 C24 1_555 1_555
H16 C29 1_555 1_555
C30 N1 1_555 1_555
H17 C30 1_555 1_555
H18 C30 1_555 1_555
H19 C30 1_555 1_555
C31 O1 1_555 1_555
H20 C31 1_555 1_555
H21 C31 1_555 1_555
H22 C31 1_555 1_555
C5 C6 1_555 1_555
C11 C12 1_555 1_555
C12 C13 1_555 1_555
C20 C21 1_555 1_555
C21 C22 1_555 1_555
C22 C23 1_555 1_555
C28 C29 1_555 1_555

#END
