
#######################################################################
#
#                 Cambridge Crystallographic Data Centre
#                                CCDC 
#
#######################################################################
#
# If this CIF has been generated from an entry in the Cambridge 
# Structural Database, then it will include bibliographic, chemical, 
# crystal, experimental, refinement or atomic coordinate data resulting 
# from the CCDC's data processing and validation procedures.
#
#######################################################################

data_TIHHOK
_chemical_formula_moiety         'C19 H19 F1 N4 O3 S1'
_chemical_name_systematic        
1-(4-fluorophenyl)-N-[3-(methylsulfanyl)-5-(3,4,5-trimethoxyphenyl)-4H-1,2,4-triazol-4-yl]methanimine
_symmetry_cell_setting           triclinic
_symmetry_space_group_name_H-M   'P -1'
_symmetry_Int_Tables_number      2
_space_group_name_Hall           '-P 1'
loop_
_symmetry_equiv_pos_site_id
_symmetry_equiv_pos_as_xyz
1 x,y,z
2 -x,-y,-z
_cell_length_a                   9.2289(13)
_cell_length_b                   10.3642(14)
_cell_length_c                   10.6410(14)
_cell_angle_alpha                85.323(3)
_cell_angle_beta                 75.172(2)
_cell_angle_gamma                80.903(3)
_cell_volume                     970.643
_cell_formula_units_Z            2
loop_
_atom_site_label
_atom_site_type_symbol
_atom_site_fract_x
_atom_site_fract_y
_atom_site_fract_z
S1 S 0.01511(7) 1.17925(6) 0.08542(5)
O1 O 0.68574(19) 0.57406(16) 0.00376(15)
O2 O 0.79212(17) 0.51477(14) -0.24468(15)
O3 O 0.7074(2) 0.66742(18) -0.43562(15)
N1 N 0.3318(2) 1.05185(18) -0.21178(16)
N2 N 0.2110(2) 1.14290(18) -0.15405(17)
N3 N 0.26092(19) 0.99527(15) -0.00519(14)
N4 N 0.24957(19) 0.91569(16) 0.10912(15)
C1 C 0.6327(2) 0.6588(2) -0.08476(19)
C2 C 0.6930(2) 0.62782(18) -0.21419(19)
C3 C 0.6429(2) 0.7070(2) -0.31196(18)
C4 C 0.5344(2) 0.8156(2) -0.27992(18)
H1 H 0.5013 0.8681 -0.3451
C5 C 0.4743(2) 0.84639(18) -0.14912(17)
C6 C 0.5250(2) 0.7675(2) -0.05196(18)
H2 H 0.4865 0.7880 0.0348
C7 C 0.3598(2) 0.96204(18) -0.12256(17)
C8 C 0.1700(2) 1.10669(19) -0.03079(19)
C9 C 0.2241(2) 0.97447(19) 0.21478(18)
H3 H 0.2112 1.0653 0.2139
C10 C 0.2152(2) 0.8980(2) 0.33748(18)
C11 C 0.2341(3) 0.7610(2) 0.3421(2)
H4 H 0.2448 0.7171 0.2668
C12 C 0.2368(3) 0.6909(2) 0.4571(2)
H5 H 0.2475 0.6000 0.4610
C13 C 0.2231(3) 0.7591(2) 0.56676(19)
C14 C 0.2006(3) 0.8926(3) 0.5675(2)
H6 H 0.1878 0.9353 0.6440
C15 C 0.1975(2) 0.9627(2) 0.4519(2)
H7 H 0.1834 1.0536 0.4501
C16 C 0.6066(3) 0.5850(2) 0.1363(2)
H8 H 0.6545 0.5207 0.1885
H9 H 0.5037 0.5710 0.1466
H10 H 0.6078 0.6708 0.1635
C17 C 0.9446(3) 0.5328(3) -0.2972(3)
H11 H 1.0058 0.4493 -0.3157
H12 H 0.9792 0.5751 -0.2356
H13 H 0.9527 0.5862 -0.3761
C18 C 0.6536(3) 0.7351(3) -0.5396(2)
H14 H 0.7093 0.6969 -0.6202
H15 H 0.6670 0.8254 -0.5426
H16 H 0.5480 0.7290 -0.5265
C19 C -0.0570(3) 1.3069(3) -0.0144(3)
H17 H -0.1454 1.3574 0.0370
H18 H -0.0833 1.2696 -0.0838
H19 H 0.0188 1.3624 -0.0503
F1 F 0.23180(19) 0.68892(16) 0.67835(13)
loop_
_geom_bond_atom_site_label_1
_geom_bond_atom_site_label_2
_geom_bond_site_symmetry_1
_geom_bond_site_symmetry_2
S1 C8 1_555 1_555
O1 C1 1_555 1_555
O2 C2 1_555 1_555
O3 C3 1_555 1_555
N1 N2 1_555 1_555
N2 C8 1_555 1_555
N3 N4 1_555 1_555
N4 C9 1_555 1_555
C1 C2 1_555 1_555
C2 C3 1_555 1_555
C3 C4 1_555 1_555
C4 H1 1_555 1_555
C5 C4 1_555 1_555
C6 C1 1_555 1_555
H2 C6 1_555 1_555
C7 N1 1_555 1_555
C8 N3 1_555 1_555
C9 H3 1_555 1_555
C10 C9 1_555 1_555
C11 C10 1_555 1_555
H4 C11 1_555 1_555
C12 C11 1_555 1_555
H5 C12 1_555 1_555
C13 C12 1_555 1_555
C14 C13 1_555 1_555
H6 C14 1_555 1_555
C15 C10 1_555 1_555
H7 C15 1_555 1_555
C16 O1 1_555 1_555
H8 C16 1_555 1_555
H9 C16 1_555 1_555
H10 C16 1_555 1_555
C17 O2 1_555 1_555
H11 C17 1_555 1_555
H12 C17 1_555 1_555
H13 C17 1_555 1_555
C18 O3 1_555 1_555
H14 C18 1_555 1_555
H15 C18 1_555 1_555
H16 C18 1_555 1_555
C19 S1 1_555 1_555
H17 C19 1_555 1_555
H18 C19 1_555 1_555
H19 C19 1_555 1_555
F1 C13 1_555 1_555
N3 C7 1_555 1_555
C5 C6 1_555 1_555
C5 C7 1_555 1_555
C14 C15 1_555 1_555

#END
