
#######################################################################
#
#                 Cambridge Crystallographic Data Centre
#                                CCDC 
#
#######################################################################
#
# If this CIF has been generated from an entry in the Cambridge 
# Structural Database, then it will include bibliographic, chemical, 
# crystal, experimental, refinement or atomic coordinate data resulting 
# from the CCDC's data processing and validation procedures.
#
#######################################################################

data_TIHHID
_chemical_formula_moiety         'C15 H19 N3 O1'
_chemical_name_systematic        N-(Pyrimidin-2-yl)adamantane-1-carboxamide
_symmetry_cell_setting           monoclinic
_symmetry_space_group_name_H-M   'P 21/c'
_symmetry_Int_Tables_number      14
_space_group_name_Hall           '-P 2ybc'
loop_
_symmetry_equiv_pos_site_id
_symmetry_equiv_pos_as_xyz
1 x,y,z
2 -x,1/2+y,1/2-z
3 -x,-y,-z
4 x,1/2-y,1/2+z
_cell_length_a                   15.5349(5)
_cell_length_b                   8.4134(3)
_cell_length_c                   10.0678(3)
_cell_angle_alpha                90
_cell_angle_beta                 94.753(2)
_cell_angle_gamma                90
_cell_volume                     1311.35
_exptl_crystal_colour            colorless
_exptl_crystal_description       needle
_cell_formula_units_Z            4
loop_
_atom_site_label
_atom_site_type_symbol
_atom_site_fract_x
_atom_site_fract_y
_atom_site_fract_z
C1 C 0.12448(8) 0.96204(15) 0.64047(12)
C2 C 0.01852(8) 1.12836(17) 0.69326(14)
H1 H -0.0245 1.1593 0.7499
C3 C 0.03009(9) 1.22008(17) 0.58279(14)
H2 H -0.0045 1.3110 0.5609
C4 C 0.09477(9) 1.17247(16) 0.50576(13)
H3 H 0.1052 1.2338 0.4295
C5 C 0.20957(7) 0.72507(14) 0.58716(11)
C6 C 0.27581(7) 0.60859(14) 0.65170(11)
C7 C 0.31756(8) 0.51295(16) 0.54378(12)
H4 H 0.2725 0.4525 0.4898
H5 H 0.3456 0.5864 0.4838
C8 C 0.38505(8) 0.39769(16) 0.60902(13)
H6 H 0.4118 0.3362 0.5381
C9 C 0.45512(8) 0.49273(17) 0.69006(14)
H7 H 0.4994 0.4195 0.7314
H8 H 0.4836 0.5662 0.6306
C10 C 0.41445(8) 0.58748(16) 0.79850(13)
H9 H 0.4603 0.6489 0.8518
C11 C 0.34708(8) 0.70243(15) 0.73349(12)
H10 H 0.3752 0.7770 0.6745
H11 H 0.3212 0.7653 0.8032
C12 C 0.37015(9) 0.47368(17) 0.89039(13)
H12 H 0.3434 0.5351 0.9601
H13 H 0.4135 0.4007 0.9348
C13 C 0.30051(8) 0.37738(16) 0.80846(13)
H14 H 0.2724 0.3024 0.8687
C14 C 0.23230(8) 0.49166(15) 0.74368(12)
H15 H 0.2049 0.5514 0.8136
H16 H 0.1868 0.4306 0.6912
C15 C 0.34185(9) 0.28232(16) 0.70044(14)
H17 H 0.3853 0.2078 0.7423
H18 H 0.2971 0.2196 0.6479
N1 N 0.17368(7) 0.82652(13) 0.67466(10)
H19 H 0.1789(10) 0.807(2) 0.7591(17)
N2 N 0.06499(7) 0.99766(14) 0.72466(11)
N3 N 0.14355(7) 1.04357(13) 0.53366(11)
O1 O 0.18979(6) 0.72883(11) 0.46726(8)
loop_
_geom_bond_atom_site_label_1
_geom_bond_atom_site_label_2
_geom_bond_site_symmetry_1
_geom_bond_site_symmetry_2
C1 N1 1_555 1_555
C2 H1 1_555 1_555
C3 C2 1_555 1_555
H2 C3 1_555 1_555
C4 C3 1_555 1_555
H3 C4 1_555 1_555
C5 C6 1_555 1_555
C6 C7 1_555 1_555
C7 H4 1_555 1_555
H5 C7 1_555 1_555
C8 C7 1_555 1_555
H6 C8 1_555 1_555
C9 C8 1_555 1_555
H7 C9 1_555 1_555
H8 C9 1_555 1_555
C10 C9 1_555 1_555
H9 C10 1_555 1_555
C11 C6 1_555 1_555
H10 C11 1_555 1_555
H11 C11 1_555 1_555
C12 C10 1_555 1_555
H12 C12 1_555 1_555
H13 C12 1_555 1_555
C13 C12 1_555 1_555
H14 C13 1_555 1_555
C14 C6 1_555 1_555
H15 C14 1_555 1_555
H16 C14 1_555 1_555
C15 C8 1_555 1_555
H17 C15 1_555 1_555
H18 C15 1_555 1_555
N1 C5 1_555 1_555
H19 N1 1_555 1_555
N2 C1 1_555 1_555
N3 C1 1_555 1_555
O1 C5 1_555 1_555
C2 N2 1_555 1_555
C4 N3 1_555 1_555
C10 C11 1_555 1_555
C13 C14 1_555 1_555
C13 C15 1_555 1_555

#END
