
#######################################################################
#
#                 Cambridge Crystallographic Data Centre
#                                CCDC 
#
#######################################################################
#
# If this CIF has been generated from an entry in the Cambridge 
# Structural Database, then it will include bibliographic, chemical, 
# crystal, experimental, refinement or atomic coordinate data resulting 
# from the CCDC's data processing and validation procedures.
#
#######################################################################

data_TIHVIR
_chemical_name_common            Meropenem
_chemical_formula_moiety         'C10 H9 Br1 O2 S2'
_chemical_name_systematic        '1,2-Dithiolan-4-yl 4-bromobenzoate'
_symmetry_cell_setting           monoclinic
_symmetry_space_group_name_H-M   'P 21/c'
_symmetry_Int_Tables_number      14
_space_group_name_Hall           '-P 2ybc'
loop_
_symmetry_equiv_pos_site_id
_symmetry_equiv_pos_as_xyz
1 x,y,z
2 -x,1/2+y,1/2-z
3 -x,-y,-z
4 x,1/2-y,1/2+z
_cell_length_a                   13.6672(19)
_cell_length_b                   10.3098(13)
_cell_length_c                   7.8842(11)
_cell_angle_alpha                90
_cell_angle_beta                 90.621(3)
_cell_angle_gamma                90
_cell_volume                     1110.87
_exptl_crystal_colour            colorless
_exptl_crystal_description       Flake
_cell_formula_units_Z            4
loop_
_atom_site_label
_atom_site_type_symbol
_atom_site_fract_x
_atom_site_fract_y
_atom_site_fract_z
Br1 Br -0.27044(3) 0.56773(4) 0.15389(5)
S1 S 0.44353(8) 0.47627(11) 0.18369(13)
S2 S 0.47724(7) 0.66561(10) 0.24386(12)
O1 O 0.21352(18) 0.5593(3) 0.3651(3)
O2 O 0.1704(2) 0.7337(3) 0.5201(3)
C1 C 0.3712(3) 0.4564(4) 0.3746(5)
H1 H 0.3254 0.3853 0.3592
H2 H 0.4139 0.4355 0.4698
C2 C 0.3151(3) 0.5815(4) 0.4119(5)
H3 H 0.3196 0.6004 0.5336
C3 C 0.1481(3) 0.6443(4) 0.4261(4)
C4 C 0.0471(3) 0.6193(4) 0.3657(4)
C5 C 0.0253(3) 0.5203(4) 0.2490(4)
H4 H 0.0748 0.4663 0.2101
C6 C -0.0702(3) 0.5032(4) 0.1920(4)
H5 H -0.0852 0.4369 0.1161
C7 C -0.1422(3) 0.5848(4) 0.2482(5)
C8 C -0.0281(3) 0.6967(4) 0.4258(5)
H6 H -0.0142 0.7598 0.5067
C9 C -0.1234(3) 0.6816(4) 0.3678(5)
H7 H -0.1733 0.7345 0.4073
C10 C 0.3538(3) 0.6988(4) 0.3112(5)
H8 H 0.3530 0.7758 0.3819
H9 H 0.3120 0.7144 0.2130
loop_
_geom_bond_atom_site_label_1
_geom_bond_atom_site_label_2
_geom_bond_site_symmetry_1
_geom_bond_site_symmetry_2
Br1 C7 1_555 1_555
S1 S2 1_555 1_555
S2 C10 1_555 1_555
O1 C2 1_555 1_555
O2 C3 1_555 1_555
C1 S1 1_555 1_555
H1 C1 1_555 1_555
H2 C1 1_555 1_555
C2 C1 1_555 1_555
H3 C2 1_555 1_555
C3 O1 1_555 1_555
C4 C3 1_555 1_555
C5 C4 1_555 1_555
H4 C5 1_555 1_555
C6 C5 1_555 1_555
H5 C6 1_555 1_555
C7 C6 1_555 1_555
C8 C4 1_555 1_555
H6 C8 1_555 1_555
C9 C7 1_555 1_555
H7 C9 1_555 1_555
C10 C2 1_555 1_555
H8 C10 1_555 1_555
H9 C10 1_555 1_555
C8 C9 1_555 1_555

#END
