
#######################################################################
#
#                 Cambridge Crystallographic Data Centre
#                                CCDC 
#
#######################################################################
#
# If this CIF has been generated from an entry in the Cambridge 
# Structural Database, then it will include bibliographic, chemical, 
# crystal, experimental, refinement or atomic coordinate data resulting 
# from the CCDC's data processing and validation procedures.
#
#######################################################################

data_TIHVEN
_chemical_formula_moiety         'C10 H9 Br1 O4 S2'
_chemical_name_systematic        
'1,1-Dioxido-1,2-dithiolan-4-yl 4-bromobenzoate'
_symmetry_cell_setting           monoclinic
_symmetry_space_group_name_H-M   'C 2/c'
_symmetry_Int_Tables_number      15
_space_group_name_Hall           '-C 2yn'
loop_
_symmetry_equiv_pos_site_id
_symmetry_equiv_pos_as_xyz
1 x,y,z
2 -x,y,1/2-z
3 1/2+x,1/2+y,z
4 1/2-x,1/2+y,1/2-z
5 -x,-y,-z
6 x,-y,1/2+z
7 1/2-x,1/2-y,-z
8 1/2+x,1/2-y,1/2+z
_cell_length_a                   38.3633(10)
_cell_length_b                   5.68890(10)
_cell_length_c                   11.4423(3)
_cell_angle_alpha                90
_cell_angle_beta                 107.344(2)
_cell_angle_gamma                90
_cell_volume                     2383.68
_exptl_crystal_colour            colorless
_exptl_crystal_description       block
_cell_formula_units_Z            8
loop_
_atom_site_label
_atom_site_type_symbol
_atom_site_fract_x
_atom_site_fract_y
_atom_site_fract_z
Br1 Br 0.268271(17) 1.16921(12) 0.18380(6)
S1 S 0.45243(5) 0.2370(3) 0.49937(14)
S2 S 0.46884(6) 0.4001(4) 0.36651(18)
O1 O 0.42874(17) 0.3961(12) 0.5393(5)
C1 C 0.4227(2) -0.0043(12) 0.4201(7)
H1 H 0.4350 -0.1549 0.4365
H2 H 0.4003 -0.0115 0.4428
O2 O 0.36758(13) 0.2348(9) 0.0623(4)
O3 O 0.48316(16) 0.1413(10) 0.5920(5)
C2 C 0.4149(2) 0.0740(15) 0.2770(6)
H3 H 0.4049 -0.0558 0.2206
O4 O 0.38725(15) 0.2634(10) 0.2691(5)
C3 C 0.36768(19) 0.3367(14) 0.1543(6)
C4 C 0.34439(16) 0.5432(12) 0.1610(5)
C5 C 0.32011(17) 0.6317(13) 0.0536(6)
H4 H 0.3191 0.5652 -0.0216
C6 C 0.29745(17) 0.8189(12) 0.0589(5)
H5 H 0.2812 0.8785 -0.0123
C7 C 0.29940(16) 0.9169(12) 0.1729(5)
C8 C 0.34620(16) 0.6440(12) 0.2737(5)
H6 H 0.3626 0.5852 0.3449
C9 C 0.32364(16) 0.8324(12) 0.2803(5)
H7 H 0.3248 0.9001 0.3554
C10 C 0.4462(3) 0.1885(14) 0.2496(6)
H8 H 0.4376 0.2677 0.1712
H9 H 0.4636 0.0692 0.2433
loop_
_geom_bond_atom_site_label_1
_geom_bond_atom_site_label_2
_geom_bond_site_symmetry_1
_geom_bond_site_symmetry_2
Br1 C7 1_555 1_555
S1 S2 1_555 1_555
S2 C10 1_555 1_555
O1 S1 1_555 1_555
C1 S1 1_555 1_555
H1 C1 1_555 1_555
H2 C1 1_555 1_555
O2 C3 1_555 1_555
O3 S1 1_555 1_555
C2 C1 1_555 1_555
H3 C2 1_555 1_555
O4 C2 1_555 1_555
C3 O4 1_555 1_555
C4 C3 1_555 1_555
C5 C4 1_555 1_555
H4 C5 1_555 1_555
C6 C5 1_555 1_555
H5 C6 1_555 1_555
C7 C6 1_555 1_555
C8 C4 1_555 1_555
H6 C8 1_555 1_555
C9 C7 1_555 1_555
H7 C9 1_555 1_555
C10 C2 1_555 1_555
H8 C10 1_555 1_555
H9 C10 1_555 1_555
C8 C9 1_555 1_555

#END
