
#######################################################################
#
#                 Cambridge Crystallographic Data Centre
#                                CCDC 
#
#######################################################################
#
# If this CIF has been generated from an entry in the Cambridge 
# Structural Database, then it will include bibliographic, chemical, 
# crystal, experimental, refinement or atomic coordinate data resulting 
# from the CCDC's data processing and validation procedures.
#
#######################################################################

data_TIHWUC
_chemical_formula_moiety         'C15 H24 Br1 F1'
_chemical_name_systematic        
7-Bromo-7-fluoro-1,1,2,2,5,5,6,6-octamethyl-dispiro(2.0.2.1)heptane
_symmetry_cell_setting           orthorhombic
_symmetry_space_group_name_H-M   'P 21 21 21'
_symmetry_Int_Tables_number      19
_space_group_name_Hall           'P 2ac 2ab'
loop_
_symmetry_equiv_pos_site_id
_symmetry_equiv_pos_as_xyz
1 x,y,z
2 1/2-x,-y,1/2+z
3 -x,1/2+y,1/2-z
4 1/2+x,1/2-y,-z
_cell_length_a                   7.076(1)
_cell_length_b                   13.374(3)
_cell_length_c                   16.035(3)
_cell_angle_alpha                90
_cell_angle_beta                 90
_cell_angle_gamma                90
_cell_volume                     1517.46
_exptl_crystal_colour            colorless
_exptl_crystal_description       plate
_chemical_melting_point          '67-68 deg.C'
_cell_formula_units_Z            4
loop_
_atom_site_label
_atom_site_type_symbol
_atom_site_fract_x
_atom_site_fract_y
_atom_site_fract_z
Br1 Br 0.39832(4) 0.57380(2) 0.760113(18)
F1 F 0.0184(2) 0.60123(12) 0.78324(10)
C1 C 0.2866(4) 0.5109(2) 0.97455(17)
C2 C 0.0751(4) 0.5394(2) 0.97957(16)
C3 C 0.1588(4) 0.4991(2) 0.89991(16)
C4 C 0.1169(3) 0.4293(2) 0.82910(14)
C5 C -0.0399(4) 0.3638(2) 0.79789(18)
C6 C 0.1670(4) 0.3287(2) 0.79390(18)
C7 C 0.1650(4) 0.5345(2) 0.81302(16)
C8 C 0.3568(4) 0.4192(3) 1.01912(18)
C9 C 0.4333(4) 0.5937(3) 0.9729(2)
C10 C -0.0574(4) 0.4743(3) 1.03013(19)
C11 C 0.0184(5) 0.6481(3) 0.9826(2)
C12 C 0.2340(5) 0.2471(3) 0.8538(2)
C13 C 0.2675(5) 0.3224(3) 0.7106(2)
C14 C -0.1760(5) 0.3172(3) 0.8590(2)
C15 C -0.1376(4) 0.3933(3) 0.71671(19)
H1 H 0.477(5) 0.397(3) 0.995(2)
H2 H 0.378(6) 0.434(3) 1.078(2)
H3 H 0.270(5) 0.364(3) 1.014(2)
H4 H 0.401(6) 0.653(3) 0.941(2)
H5 H 0.550(6) 0.562(3) 0.947(2)
H6 H 0.457(5) 0.612(3) 1.027(2)
H7 H -0.028(4) 0.404(3) 1.0298(18)
H8 H -0.184(6) 0.478(3) 1.011(3)
H9 H -0.045(6) 0.506(3) 1.088(3)
H10 H -0.129(6) 0.655(3) 0.972(3)
H11 H 0.091(6) 0.688(3) 0.947(2)
H12 H 0.024(5) 0.671(3) 1.033(3)
H13 H 0.203(5) 0.183(3) 0.829(2)
H14 H 0.380(5) 0.251(3) 0.864(2)
H15 H 0.169(5) 0.242(3) 0.907(2)
H16 H 0.414(6) 0.321(3) 0.712(2)
H17 H 0.244(6) 0.374(3) 0.672(2)
H18 H 0.237(6) 0.266(3) 0.677(3)
H19 H -0.224(6) 0.268(3) 0.836(3)
H20 H -0.115(6) 0.303(3) 0.907(3)
H21 H -0.269(6) 0.360(3) 0.867(2)
H22 H -0.250(6) 0.437(3) 0.730(2)
H23 H -0.063(6) 0.430(3) 0.685(2)
H24 H -0.159(6) 0.338(4) 0.688(3)
loop_
_geom_bond_atom_site_label_1
_geom_bond_atom_site_label_2
_geom_bond_site_symmetry_1
_geom_bond_site_symmetry_2
Br1 C7 1_555 1_555
F1 C7 1_555 1_555
C1 C2 1_555 1_555
C2 C3 1_555 1_555
C3 C1 1_555 1_555
C4 C3 1_555 1_555
C5 C4 1_555 1_555
C6 C4 1_555 1_555
C7 C3 1_555 1_555
C8 C1 1_555 1_555
C9 C1 1_555 1_555
C10 C2 1_555 1_555
C11 C2 1_555 1_555
C12 C6 1_555 1_555
C13 C6 1_555 1_555
C14 C5 1_555 1_555
C15 C5 1_555 1_555
H1 C8 1_555 1_555
H2 C8 1_555 1_555
H3 C8 1_555 1_555
H4 C9 1_555 1_555
H5 C9 1_555 1_555
H6 C9 1_555 1_555
H7 C10 1_555 1_555
H8 C10 1_555 1_555
H9 C10 1_555 1_555
H10 C11 1_555 1_555
H11 C11 1_555 1_555
H12 C11 1_555 1_555
H13 C12 1_555 1_555
H14 C12 1_555 1_555
H15 C12 1_555 1_555
H16 C13 1_555 1_555
H17 C13 1_555 1_555
H18 C13 1_555 1_555
H19 C14 1_555 1_555
H20 C14 1_555 1_555
H21 C14 1_555 1_555
H22 C15 1_555 1_555
H23 C15 1_555 1_555
H24 C15 1_555 1_555
C4 C7 1_555 1_555
C5 C6 1_555 1_555

#END
