
#######################################################################
#
#                 Cambridge Crystallographic Data Centre
#                                CCDC 
#
#######################################################################
#
# If this CIF has been generated from an entry in the Cambridge 
# Structural Database, then it will include bibliographic, chemical, 
# crystal, experimental, refinement or atomic coordinate data resulting 
# from the CCDC's data processing and validation procedures.
#
#######################################################################

data_TIHWOY
_chemical_formula_moiety         'C32 H32 Br1 N5 O7,0.5(C4 H8 O2)'
_chemical_name_systematic        
'(8-((3-Acetylphenyl)amino)-9-azido-6,7-dihydroxy-2-(4-methoxyphenyl)-4,6-dimethyl-3-oxa-1-azaspiro[4.4]non-1-en-7-yl)methyl 4-bromobenzoate ethyl acetate solvate'
_symmetry_cell_setting           orthorhombic
_symmetry_space_group_name_H-M   'P 21 21 2'
_symmetry_Int_Tables_number      18
_space_group_name_Hall           'P 2 2ab'
loop_
_symmetry_equiv_pos_site_id
_symmetry_equiv_pos_as_xyz
1 x,y,z
2 -x,-y,z
3 1/2-x,1/2+y,-z
4 1/2+x,1/2-y,-z
_cell_length_a                   18.9799(18)
_cell_length_b                   28.093(3)
_cell_length_c                   6.3717(6)
_cell_angle_alpha                90
_cell_angle_beta                 90
_cell_angle_gamma                90
_cell_volume                     3397.41
_exptl_crystal_colour            colorless
_exptl_crystal_description       plate
_cell_formula_units_Z            4
loop_
_atom_site_label
_atom_site_type_symbol
_atom_site_fract_x
_atom_site_fract_y
_atom_site_fract_z
Br1 Br 1.13505(3) 0.14279(2) 1.31466(10)
O1 O 0.93530(13) 0.46314(9) 0.3957(4)
O2 O 0.96825(12) 0.31224(8) 0.2761(4)
H1 H 1.0088 0.3242 0.2771
O3 O 0.81732(13) 0.31788(9) 0.6238(4)
H2 H 0.8078 0.3471 0.6256
O4 O 0.90517(14) 0.23937(8) 0.6150(4)
O5 O 0.90392(17) 0.16489(10) 0.4906(5)
O6 O 0.74944(16) 0.60246(11) 0.9306(5)
O7 O 0.60176(13) 0.14711(10) -0.3002(5)
N1 N 0.85251(14) 0.40820(10) 0.4783(4)
N2 N 0.81495(18) 0.40157(12) 0.0292(5)
N3 N 0.76188(19) 0.41707(12) 0.1193(6)
N4 N 0.7118(2) 0.43495(15) 0.1788(8)
N5 N 0.79802(17) 0.28926(11) 0.0779(5)
H3 H 0.820(2) 0.2975(16) -0.042(4)
C1 C 0.90034(17) 0.38390(12) 0.3297(6)
C2 C 0.85652(18) 0.36584(12) 0.1460(5)
H4 H 0.8902 0.3514 0.0435
C3 C 0.81250(19) 0.32414(13) 0.2388(6)
H5 H 0.7666 0.3373 0.2893
C4 C 0.85609(18) 0.30677(12) 0.4367(5)
C5 C 0.92510(18) 0.33597(12) 0.4277(6)
C6 C 0.96321(19) 0.34157(13) 0.6352(6)
H6 H 0.9713 0.3101 0.6973
H7 H 0.9345 0.3608 0.7307
H8 H 1.0085 0.3574 0.6117
C7 C 0.8646(2) 0.25338(12) 0.4318(6)
H9 H 0.8178 0.2378 0.4341
H10 H 0.8894 0.2436 0.3021
C8 C 0.95980(19) 0.42029(12) 0.2882(6)
H11 H 1.0034 0.4088 0.3604
C9 C 0.9783(2) 0.43206(15) 0.0663(6)
H12 H 0.9360 0.4429 -0.0079
H13 H 0.9971 0.4037 -0.0032
H14 H 1.0138 0.4573 0.0645
C10 C 0.87590(19) 0.45114(13) 0.4992(6)
C11 C 0.84270(19) 0.48930(13) 0.6187(6)
C12 C 0.7718(2) 0.48561(14) 0.6781(7)
H15 H 0.7459 0.4577 0.6448
C13 C 0.7394(2) 0.52246(15) 0.7850(7)
H16 H 0.6912 0.5199 0.8244
C14 C 0.7772(2) 0.56294(14) 0.8342(7)
C15 C 0.8478(2) 0.56608(14) 0.7837(7)
H17 H 0.8742 0.5933 0.8240
C16 C 0.8797(2) 0.52987(13) 0.6756(7)
H18 H 0.9280 0.5326 0.6388
C17 C 0.6752(3) 0.6073(2) 0.9391(10)
H19 H 0.6553 0.6015 0.7996
H20 H 0.6632 0.6397 0.9846
H21 H 0.6559 0.5843 1.0390
C18 C 0.73824(19) 0.26027(12) 0.0810(6)
C19 C 0.72799(18) 0.22870(12) -0.0856(6)
H22 H 0.7613 0.2277 -0.1967
C20 C 0.66996(18) 0.19880(13) -0.0915(6)
C21 C 0.62094(19) 0.20000(13) 0.0727(6)
H23 H 0.5807 0.1799 0.0696
C22 C 0.6315(2) 0.23073(13) 0.2398(6)
H24 H 0.5982 0.2316 0.3509
C23 C 0.68969(19) 0.26012(13) 0.2475(6)
H25 H 0.6969 0.2803 0.3654
C24 C 0.66011(19) 0.16429(12) -0.2653(6)
C25 C 0.7211(2) 0.14871(15) -0.3980(6)
H26 H 0.7165 0.1147 -0.4298
H27 H 0.7652 0.1543 -0.3218
H28 H 0.7214 0.1669 -0.5291
C26 C 0.9246(2) 0.19291(13) 0.6199(7)
C27 C 0.97171(18) 0.18215(13) 0.7964(7)
C28 C 0.9840(2) 0.21288(15) 0.9637(6)
H29 H 0.9601 0.2426 0.9699
C29 C 1.0309(2) 0.20053(16) 1.1216(7)
H30 H 1.0376 0.2213 1.2375
C30 C 1.0680(2) 0.15839(15) 1.1121(7)
C31 C 1.0562(3) 0.12788(17) 0.9422(8)
H31 H 1.0821 0.0990 0.9326
C32 C 1.0081(2) 0.13883(16) 0.7895(8)
H32 H 0.9994 0.1170 0.6787
loop_
_geom_bond_atom_site_label_1
_geom_bond_atom_site_label_2
_geom_bond_site_symmetry_1
_geom_bond_site_symmetry_2
Br1 C30 1_555 1_555
O1 C8 1_555 1_555
O2 H1 1_555 1_555
O3 H2 1_555 1_555
O4 C7 1_555 1_555
O5 C26 1_555 1_555
O6 C14 1_555 1_555
O7 C24 1_555 1_555
N1 C1 1_555 1_555
N2 N3 1_555 1_555
N3 N4 1_555 1_555
N5 H3 1_555 1_555
C1 C2 1_555 1_555
C2 N2 1_555 1_555
H4 C2 1_555 1_555
C3 N5 1_555 1_555
H5 C3 1_555 1_555
C4 O3 1_555 1_555
C5 O2 1_555 1_555
C6 C5 1_555 1_555
H6 C6 1_555 1_555
H7 C6 1_555 1_555
H8 C6 1_555 1_555
C7 C4 1_555 1_555
H9 C7 1_555 1_555
H10 C7 1_555 1_555
C8 C1 1_555 1_555
H11 C8 1_555 1_555
C9 C8 1_555 1_555
H12 C9 1_555 1_555
H13 C9 1_555 1_555
H14 C9 1_555 1_555
C10 O1 1_555 1_555
C11 C10 1_555 1_555
C12 C11 1_555 1_555
H15 C12 1_555 1_555
C13 C12 1_555 1_555
H16 C13 1_555 1_555
C14 C13 1_555 1_555
C15 C14 1_555 1_555
H17 C15 1_555 1_555
C16 C11 1_555 1_555
H18 C16 1_555 1_555
C17 O6 1_555 1_555
H19 C17 1_555 1_555
H20 C17 1_555 1_555
H21 C17 1_555 1_555
C18 N5 1_555 1_555
C19 C18 1_555 1_555
H22 C19 1_555 1_555
C20 C19 1_555 1_555
C21 C20 1_555 1_555
H23 C21 1_555 1_555
C22 C21 1_555 1_555
H24 C22 1_555 1_555
C23 C18 1_555 1_555
H25 C23 1_555 1_555
C24 C20 1_555 1_555
C25 C24 1_555 1_555
H26 C25 1_555 1_555
H27 C25 1_555 1_555
H28 C25 1_555 1_555
C26 O4 1_555 1_555
C27 C26 1_555 1_555
C28 C27 1_555 1_555
H29 C28 1_555 1_555
C29 C28 1_555 1_555
H30 C29 1_555 1_555
C30 C29 1_555 1_555
C31 C30 1_555 1_555
H31 C31 1_555 1_555
C32 C27 1_555 1_555
H32 C32 1_555 1_555
N1 C10 1_555 1_555
C1 C5 1_555 1_555
C2 C3 1_555 1_555
C3 C4 1_555 1_555
C4 C5 1_555 1_555
C15 C16 1_555 1_555
C22 C23 1_555 1_555
C31 C32 1_555 1_555

#END
