
#######################################################################
#
#                 Cambridge Crystallographic Data Centre
#                                CCDC 
#
#######################################################################
#
# If this CIF has been generated from an entry in the Cambridge 
# Structural Database, then it will include bibliographic, chemical, 
# crystal, experimental, refinement or atomic coordinate data resulting 
# from the CCDC's data processing and validation procedures.
#
#######################################################################

data_TIHWEO
_chemical_formula_moiety         'C51 H62 N6 O5 Si1'
_chemical_name_systematic        
'1-(1-Amino-5-azido-2-(benzyloxy)-3-((benzyloxy)methyl)-3-((t-butyl(diphenyl)silyl)oxy)-2-methyl-4-((3-(prop-1-en-2-yl)phenyl)amino)cyclopentyl)ethyl dimethylcarbamate'
_symmetry_cell_setting           orthorhombic
_symmetry_space_group_name_H-M   'P 21 21 21'
_symmetry_Int_Tables_number      19
_space_group_name_Hall           'P 2ac 2ab'
loop_
_symmetry_equiv_pos_site_id
_symmetry_equiv_pos_as_xyz
1 x,y,z
2 1/2-x,-y,1/2+z
3 -x,1/2+y,1/2-z
4 1/2+x,1/2-y,-z
_cell_length_a                   11.3120(2)
_cell_length_b                   18.9201(3)
_cell_length_c                   22.2551(4)
_cell_angle_alpha                90
_cell_angle_beta                 90
_cell_angle_gamma                90
_cell_volume                     4763.13
_exptl_crystal_colour            colorless
_exptl_crystal_description       block
_cell_formula_units_Z            4
loop_
_atom_site_label
_atom_site_type_symbol
_atom_site_fract_x
_atom_site_fract_y
_atom_site_fract_z
Si1 Si 0.54558(3) 0.011537(19) 0.842687(17)
O1 O 0.66187(8) 0.00184(5) 0.79752(4)
O2 O 0.94121(8) 0.05743(5) 0.73238(4)
O3 O 0.78539(10) 0.06872(6) 0.88110(5)
O4 O 0.99016(10) -0.09765(5) 0.67181(5)
O5 O 1.12436(12) -0.06177(7) 0.60207(6)
N1 N 0.74564(13) -0.09572(7) 0.70819(6)
H1 H 0.7060(19) -0.1102(11) 0.6765(8)
H2 H 0.6960(17) -0.0886(11) 0.7378(9)
N2 N 0.62605(13) 0.00028(8) 0.63788(6)
N3 N 0.60526(18) 0.02684(10) 0.58821(8)
N4 N 0.5789(3) 0.04639(16) 0.54152(12)
N5 N 0.75645(11) 0.15331(6) 0.70791(6)
H3 H 0.8376(19) 0.1499(10) 0.7093(9)
N6 N 1.16581(13) -0.15168(8) 0.66606(7)
C1 C 0.81059(13) -0.03143(7) 0.69342(6)
C2 C 0.73312(13) 0.03018(7) 0.66650(6)
H4 H 0.7805 0.0551 0.6350
C3 C 0.70458(12) 0.08385(7) 0.71805(6)
H5 H 0.6168 0.0890 0.7214
C4 C 0.75191(12) 0.04894(7) 0.77622(6)
C5 C 0.85892(12) 0.00359(7) 0.75245(6)
C6 C 0.90928(13) -0.04708(8) 0.79882(7)
H6 H 0.9770 -0.0723 0.7816
H7 H 0.8484 -0.0812 0.8106
H8 H 0.9350 -0.0204 0.8343
C7 C 0.78595(13) 0.10284(7) 0.82449(6)
H9 H 0.8656 0.1221 0.8160
H10 H 0.7288 0.1425 0.8245
C8 C 0.90587(14) -0.04844(8) 0.64572(7)
H11 H 0.9484 -0.0038 0.6353
C9 C 0.85619(17) -0.08050(10) 0.58832(8)
H12 H 0.9212 -0.0914 0.5607
H13 H 0.8022 -0.0468 0.5693
H14 H 0.8132 -0.1240 0.5980
C10 C 1.09647(14) -0.10053(8) 0.64309(7)
C11 C 1.13355(18) -0.19440(10) 0.71762(9)
H15 H 1.1127 -0.1635 0.7513
H16 H 1.2005 -0.2244 0.7290
H17 H 1.0656 -0.2242 0.7074
C12 C 1.28017(17) -0.16489(12) 0.63800(10)
H18 H 1.2740 -0.2058 0.6112
H19 H 1.3392 -0.1744 0.6692
H20 H 1.3041 -0.1233 0.6148
C13 C 0.71596(13) 0.19428(7) 0.65928(6)
C14 C 0.79549(13) 0.24126(7) 0.63220(6)
H21 H 0.8740 0.2438 0.6472
C15 C 0.76359(15) 0.28446(7) 0.58409(7)
C16 C 0.64767(16) 0.27914(8) 0.56229(8)
H22 H 0.6235 0.3071 0.5291
C17 C 0.56868(15) 0.23346(9) 0.58889(8)
H23 H 0.4904 0.2306 0.5736
C18 C 0.60053(14) 0.19126(8) 0.63755(8)
H24 H 0.5442 0.1608 0.6557
C19 C 0.85136(17) 0.33335(9) 0.55635(7)
C20 C 0.8200(2) 0.38333(11) 0.51775(9)
H25 H 0.7392 0.3889 0.5069
H26 H 0.8782 0.4136 0.5009
C21 C 0.97830(18) 0.32562(13) 0.57435(10)
H27 H 1.0263 0.3603 0.5526
H28 H 1.0057 0.2778 0.5646
H29 H 0.9860 0.3337 0.6177
C22 C 0.57339(13) -0.03412(8) 0.91658(6)
C23 C 0.66609(16) -0.08228(9) 0.92335(8)
H30 H 0.7219 -0.0880 0.8918
C24 C 0.67788(19) -0.12204(10) 0.97581(9)
H31 H 0.7410 -0.1549 0.9795
C25 C 0.59857(19) -0.11387(10) 1.02213(8)
H32 H 0.6064 -0.1414 1.0576
C26 C 0.50773(17) -0.06578(9) 1.01698(7)
H33 H 0.4539 -0.0593 1.0493
C27 C 0.49495(15) -0.02682(8) 0.96475(6)
H34 H 0.4313 0.0057 0.9615
C28 C 0.50569(13) 0.10758(8) 0.85686(7)
C29 C 0.52748(13) 0.13792(9) 0.91301(8)
H35 H 0.5602 0.1095 0.9440
C30 C 0.50237(16) 0.20892(10) 0.92472(9)
H36 H 0.5187 0.2282 0.9632
C31 C 0.45425(17) 0.25073(9) 0.88082(11)
H37 H 0.4368 0.2989 0.8889
C32 C 0.43138(17) 0.22273(10) 0.82506(11)
H38 H 0.3986 0.2518 0.7945
C33 C 0.45588(16) 0.15189(8) 0.81302(8)
H39 H 0.4385 0.1332 0.7744
C34 C 0.42126(13) -0.03927(9) 0.80419(7)
C35 C 0.45616(18) -0.11776(9) 0.80007(9)
H40 H 0.3906 -0.1448 0.7828
H41 H 0.4740 -0.1357 0.8404
H42 H 0.5261 -0.1227 0.7744
C36 C 0.30790(15) -0.03353(11) 0.84164(9)
H43 H 0.2844 0.0162 0.8447
H44 H 0.3222 -0.0526 0.8819
H45 H 0.2447 -0.0605 0.8222
C37 C 0.39407(17) -0.01253(11) 0.74063(8)
H46 H 0.3319 -0.0418 0.7227
H47 H 0.4657 -0.0154 0.7159
H48 H 0.3672 0.0367 0.7426
C38 C 1.06389(13) 0.05346(8) 0.74793(8)
H49 H 1.0991 0.0093 0.7321
H50 H 1.0737 0.0542 0.7921
C39 C 1.12276(13) 0.11687(8) 0.72009(8)
C40 C 1.17811(16) 0.11227(10) 0.66450(8)
H51 H 1.1790 0.0686 0.6435
C41 C 1.2321(2) 0.17113(13) 0.63959(10)
H52 H 1.2717 0.1672 0.6021
C42 C 1.2287(2) 0.23508(12) 0.66866(11)
H53 H 1.2642 0.2755 0.6509
C43 C 1.17348(19) 0.24044(10) 0.72389(12)
H54 H 1.1711 0.2845 0.7443
C44 C 1.12157(16) 0.18121(10) 0.74931(9)
H55 H 1.0845 0.1850 0.7875
C45 C 0.81795(15) 0.11478(10) 0.92923(7)
H56 H 0.7931 0.0934 0.9678
H57 H 0.7756 0.1602 0.9247
C46 C 0.94940(9) 0.12869(9) 0.93097(8)
C47 C 0.99483(14) 0.19571(9) 0.91995(13)
H58 H 0.9431 0.2336 0.9103
C48 C 1.11601(16) 0.20732(10) 0.92303(14)
H59 H 1.1471 0.2531 0.9155
C49 C 1.19177(9) 0.15190(14) 0.93712(12)
H60 H 1.2746 0.1598 0.9392
C50 C 1.14635(12) 0.08488(12) 0.94814(11)
H61 H 1.1981 0.0470 0.9578
C51 C 1.02516(14) 0.07327(8) 0.94506(9)
H62 H 0.9941 0.0275 0.9526
N7? N 0.5376(6) 0.0247(5) 0.6128(4)
N8? N 0.4632(9) 0.0499(7) 0.5855(6)
H63? H 1.1398 -0.2446 0.7071
H64? H 1.0521 -0.1836 0.7294
H65? H 1.1870 -0.1839 0.7511
C52? C 0.9485(2) 0.1272(5) 0.9387(5)
C53? C 1.0058(7) 0.1845(7) 0.9126(8)
H66? H 0.9623 0.2173 0.8889
C54? C 1.1265(8) 0.1938(8) 0.9210(9)
H67? H 1.1656 0.2329 0.9031
C55? C 1.1900(3) 0.1458(9) 0.9556(7)
H68? H 1.2726 0.1522 0.9613
C56? C 1.1328(6) 0.0886(7) 0.9817(6)
H69? H 1.1762 0.0558 1.0054
C57? C 1.0120(6) 0.0793(5) 0.9733(5)
H70? H 0.9729 0.0401 0.9912
loop_
_geom_bond_atom_site_label_1
_geom_bond_atom_site_label_2
_geom_bond_site_symmetry_1
_geom_bond_site_symmetry_2
Si1 O1 1_555 1_555
O1 C4 1_555 1_555
O2 C5 1_555 1_555
O3 C7 1_555 1_555
O4 C8 1_555 1_555
O5 C10 1_555 1_555
N1 H1 1_555 1_555
H2 N1 1_555 1_555
N2 N3 1_555 1_555
N3 N4 1_555 1_555
N5 H3 1_555 1_555
N6 C10 1_555 1_555
C1 N1 1_555 1_555
C2 N2 1_555 1_555
H4 C2 1_555 1_555
C3 N5 1_555 1_555
H5 C3 1_555 1_555
C4 C3 1_555 1_555
C5 C1 1_555 1_555
C6 C5 1_555 1_555
H6 C6 1_555 1_555
H7 C6 1_555 1_555
H8 C6 1_555 1_555
C7 C4 1_555 1_555
H9 C7 1_555 1_555
H10 C7 1_555 1_555
C8 C1 1_555 1_555
H11 C8 1_555 1_555
C9 C8 1_555 1_555
H12 C9 1_555 1_555
H13 C9 1_555 1_555
H14 C9 1_555 1_555
C10 O4 1_555 1_555
C11 N6 1_555 1_555
H15 C11 1_555 1_555
H16 C11 1_555 1_555
H17 C11 1_555 1_555
C12 N6 1_555 1_555
H18 C12 1_555 1_555
H19 C12 1_555 1_555
H20 C12 1_555 1_555
C13 N5 1_555 1_555
C14 C13 1_555 1_555
H21 C14 1_555 1_555
C15 C14 1_555 1_555
C16 C15 1_555 1_555
H22 C16 1_555 1_555
C17 C16 1_555 1_555
H23 C17 1_555 1_555
C18 C13 1_555 1_555
H24 C18 1_555 1_555
C19 C15 1_555 1_555
C20 C19 1_555 1_555
H25 C20 1_555 1_555
H26 C20 1_555 1_555
C21 C19 1_555 1_555
H27 C21 1_555 1_555
H28 C21 1_555 1_555
H29 C21 1_555 1_555
C22 Si1 1_555 1_555
C23 C22 1_555 1_555
H30 C23 1_555 1_555
C24 C23 1_555 1_555
H31 C24 1_555 1_555
C25 C24 1_555 1_555
H32 C25 1_555 1_555
C26 C25 1_555 1_555
H33 C26 1_555 1_555
C27 C22 1_555 1_555
H34 C27 1_555 1_555
C28 Si1 1_555 1_555
C29 C28 1_555 1_555
H35 C29 1_555 1_555
C30 C29 1_555 1_555
H36 C30 1_555 1_555
C31 C30 1_555 1_555
H37 C31 1_555 1_555
C32 C31 1_555 1_555
H38 C32 1_555 1_555
C33 C28 1_555 1_555
H39 C33 1_555 1_555
C34 Si1 1_555 1_555
C35 C34 1_555 1_555
H40 C35 1_555 1_555
H41 C35 1_555 1_555
H42 C35 1_555 1_555
C36 C34 1_555 1_555
H43 C36 1_555 1_555
H44 C36 1_555 1_555
H45 C36 1_555 1_555
C37 C34 1_555 1_555
H46 C37 1_555 1_555
H47 C37 1_555 1_555
H48 C37 1_555 1_555
C38 O2 1_555 1_555
H49 C38 1_555 1_555
H50 C38 1_555 1_555
C39 C38 1_555 1_555
C40 C39 1_555 1_555
H51 C40 1_555 1_555
C41 C40 1_555 1_555
H52 C41 1_555 1_555
C42 C41 1_555 1_555
H53 C42 1_555 1_555
C43 C42 1_555 1_555
H54 C43 1_555 1_555
C44 C39 1_555 1_555
H55 C44 1_555 1_555
C45 O3 1_555 1_555
H56 C45 1_555 1_555
H57 C45 1_555 1_555
C46 C45 1_555 1_555
C47 C46 1_555 1_555
H58 C47 1_555 1_555
C48 C47 1_555 1_555
H59 C48 1_555 1_555
C49 C48 1_555 1_555
H60 C49 1_555 1_555
C50 C49 1_555 1_555
H61 C50 1_555 1_555
C51 C46 1_555 1_555
H62 C51 1_555 1_555
C1 C2 1_555 1_555
C2 C3 1_555 1_555
C4 C5 1_555 1_555
C17 C18 1_555 1_555
C26 C27 1_555 1_555
C32 C33 1_555 1_555
C43 C44 1_555 1_555
C50 C51 1_555 1_555

#END
