
#######################################################################
#
#                 Cambridge Crystallographic Data Centre
#                                CCDC 
#
#######################################################################
#
# If this CIF has been generated from an entry in the Cambridge 
# Structural Database, then it will include bibliographic, chemical, 
# crystal, experimental, refinement or atomic coordinate data resulting 
# from the CCDC's data processing and validation procedures.
#
#######################################################################

data_TIHXEP
_chemical_formula_moiety         'C34 H37 N1 O7 Si1'
_chemical_name_systematic        
"5-(((t-Butyl(diphenyl)silyl)oxy)methyl)-2'-(4-methoxyphenyl)-5'-methyl-4-oxospiro[6-oxabicyclo[3.1.0]hexane-3,4'-[1,3]oxazol]-2-yl acetate"
_symmetry_cell_setting           orthorhombic
_symmetry_space_group_name_H-M   'P 21 21 21'
_symmetry_Int_Tables_number      19
_space_group_name_Hall           'P 2ac 2ab'
loop_
_symmetry_equiv_pos_site_id
_symmetry_equiv_pos_as_xyz
1 x,y,z
2 1/2-x,-y,1/2+z
3 -x,1/2+y,1/2-z
4 1/2+x,1/2-y,-z
_cell_length_a                   8.8316(3)
_cell_length_b                   10.0485(3)
_cell_length_c                   36.6755(10)
_cell_angle_alpha                90
_cell_angle_beta                 90
_cell_angle_gamma                90
_cell_volume                     3254.74
_exptl_crystal_colour            colorless
_exptl_crystal_description       needle
_cell_formula_units_Z            4
loop_
_atom_site_label
_atom_site_type_symbol
_atom_site_fract_x
_atom_site_fract_y
_atom_site_fract_z
O1 O 0.44237(11) 0.82017(9) 0.18189(3)
O2 O 0.40104(13) 1.14052(11) 0.20888(3)
O3 O 0.52116(11) 0.91137(11) 0.11108(3)
C1 C 0.53798(15) 0.96296(13) 0.24189(4)
C2 C 0.65391(14) 0.86711(14) 0.22469(4)
H1 H 0.6636 0.7819 0.2386
C3 C 0.60119(16) 0.84583(13) 0.18572(4)
H2 H 0.6733 0.8082 0.1674
C4 C 0.49868(15) 0.95370(14) 0.17485(4)
C5 C 0.46853(15) 1.03641(13) 0.20833(4)
C6 C 0.48001(19) 1.00891(15) 0.13715(4)
H3 H 0.3734 1.0359 0.1333
H4 H 0.5448 1.0886 0.1342
Si1 Si 0.4281(3) 0.8733(2) 0.07327(5)
O4 O 0.7969(3) 0.9370(5) 0.22128(16)
O5 O 0.4580(3) 1.0651(2) 0.29593(6)
O6 O 0.9240(5) 0.7439(5) 0.22419(11)
O7 O -0.1139(2) 0.87099(18) 0.38322(6)
N1 N 0.4110(4) 0.8888(4) 0.25927(9)
C7 C 0.5918(4) 1.0607(4) 0.27210(7)
H5 H 0.6119 1.1506 0.2615
C8 C 0.7237(4) 1.0170(9) 0.29579(12)
H6 H 0.7221 1.0668 0.3188
H7 H 0.8190 1.0344 0.2830
H8 H 0.7151 0.9216 0.3009
C9 C 0.3744(3) 0.9562(3) 0.28774(8)
C10 C 0.2493(3) 0.9270(3) 0.31291(7)
C11 C 0.1540(4) 0.8198(3) 0.30735(10)
H9 H 0.1726 0.7610 0.2876
C12 C 0.0306(3) 0.7966(2) 0.33038(9)
H10 H -0.0346 0.7231 0.3261
C13 C 0.0041(3) 0.8816(2) 0.35948(7)
C14 C 0.0982(3) 0.9901(2) 0.36512(7)
H11 H 0.0790 1.0496 0.3847
C15 C 0.2198(3) 1.0116(2) 0.34228(8)
H12 H 0.2846 1.0853 0.3466
C16 C -0.2139(3) 0.7612(3) 0.37894(12)
H13 H -0.2619 0.7655 0.3549
H14 H -0.2921 0.7644 0.3979
H15 H -0.1568 0.6779 0.3811
C17 C 0.9250(3) 0.8625(5) 0.22163(15)
C18 C 1.0623(4) 0.9480(7) 0.2179(3)
H16 H 1.1529 0.8954 0.2235
H17 H 1.0553 1.0230 0.2349
H18 H 1.0689 0.9818 0.1929
C19 C 0.2201(3) 0.8973(4) 0.08172(9)
C20 C 0.1262(4) 0.9626(5) 0.05701(12)
H19 H 0.1677 0.9944 0.0348
C21 C -0.0265(5) 0.9823(8) 0.0641(2)
H20 H -0.0881 1.0285 0.0471
C22 C -0.0889(5) 0.9337(11) 0.0964(3)
H21 H -0.1936 0.9462 0.1013
C23 C 0.0014(4) 0.8673(7) 0.12130(17)
H22 H -0.0416 0.8338 0.1432
C24 C 0.1540(4) 0.8496(4) 0.11444(11)
H23 H 0.2153 0.8049 0.1318
C25 C 0.4935(3) 0.9923(3) 0.03673(6)
C26 C 0.4533(4) 0.9784(3) -0.00013(6)
H24 H 0.3910 0.9062 -0.0074
C27 C 0.5038(4) 1.0695(3) -0.02607(7)
H25 H 0.4759 1.0584 -0.0509
C28 C 0.5931(7) 1.1746(4) -0.01611(9)
H26 H 0.6265 1.2366 -0.0339
C29 C 0.6345(3) 1.1902(3) 0.01989(9)
H27 H 0.6972 1.2627 0.0268
C30 C 0.5846(3) 1.1001(3) 0.04599(7)
H28 H 0.6134 1.1124 0.0707
C31 C 0.4779(5) 0.6932(3) 0.06378(10)
C32 C 0.4231(11) 0.6053(4) 0.09552(11)
H29 H 0.4646 0.5154 0.0928
H30 H 0.3123 0.6011 0.0953
H31 H 0.4576 0.6433 0.1187
C33 C 0.6508(6) 0.6800(5) 0.0610(3)
H32 H 0.6774 0.5876 0.0554
H33 H 0.6970 0.7060 0.0842
H34 H 0.6883 0.7382 0.0415
C34 C 0.4038(8) 0.6440(4) 0.02855(11)
H35 H 0.4516 0.6876 0.0076
H36 H 0.2956 0.6655 0.0289
H37 H 0.4168 0.5475 0.0265
Si2? Si 0.4221(14) 0.8673(11) 0.0745(2)
O8? O 0.7967(12) 0.942(2) 0.2202(7)
O9? O 0.4732(16) 1.0460(15) 0.2995(3)
O10? O 0.913(3) 0.750(2) 0.2330(7)
O11? O -0.0860(13) 0.8376(11) 0.3869(3)
N2? N 0.4149(19) 0.8849(16) 0.2584(4)
C35? C 0.5944(15) 1.0580(16) 0.2722(3)
H38? H 0.5989 1.1513 0.2628
C36? C 0.7408(17) 1.024(4) 0.2918(7)
H39? H 0.7346 1.0536 0.3172
H40? H 0.8257 1.0684 0.2797
H41? H 0.7565 0.9272 0.2912
C37? C 0.3881(17) 0.9403(16) 0.2892(4)
C38? C 0.2626(13) 0.9082(13) 0.3140(3)
C39? C 0.167(2) 0.8024(18) 0.3076(4)
H42? H 0.1803 0.7493 0.2864
C40? C 0.0497(19) 0.7728(16) 0.3319(4)
H43? H -0.0132 0.6974 0.3280
C41? C 0.0261(14) 0.8542(13) 0.3618(3)
C42? C 0.1241(15) 0.9584(13) 0.3690(3)
H44? H 0.1105 1.0116 0.3901
C43? C 0.2415(17) 0.9848(15) 0.3454(4)
H45? H 0.3089 1.0560 0.3505
C44? C -0.1913(19) 0.7326(18) 0.3808(7)
H46? H -0.1376 0.6473 0.3804
H47? H -0.2420 0.7463 0.3573
H48? H -0.2668 0.7320 0.4004
C45? C 0.9215(13) 0.865(2) 0.2256(8)
C46? C 1.0633(15) 0.945(3) 0.2223(14)
H49? H 1.1436 0.8897 0.2118
H50? H 1.0943 0.9766 0.2464
H51? H 1.0451 1.0219 0.2063
C47? C 0.2146(13) 0.8955(17) 0.0829(4)
C48? C 0.1286(19) 0.980(3) 0.0612(7)
H52? H 0.1765 1.0269 0.0418
C49? C -0.025(2) 0.999(4) 0.0671(10)
H53? H -0.0823 1.0546 0.0513
C50? C -0.095(2) 0.935(5) 0.0963(12)
H54? H -0.1996 0.9496 0.1011
C51? C -0.012(2) 0.850(4) 0.1185(9)
H55? H -0.0598 0.8080 0.1386
C52? C 0.139(2) 0.827(3) 0.1115(6)
H56? H 0.1936 0.7652 0.1260
C53? C 0.4867(11) 0.9797(11) 0.0364(2)
C54? C 0.4842(17) 0.9401(12) -0.0004(3)
H57? H 0.4495 0.8537 -0.0067
C55? C 0.532(2) 1.0273(15) -0.0275(3)
H58? H 0.5280 1.0005 -0.0523
C56? C 0.586(3) 1.1511(18) -0.0189(4)
H59? H 0.6222 1.2082 -0.0376
C57? C 0.587(2) 1.1931(14) 0.0169(4)
H60? H 0.6201 1.2803 0.0228
C58? C 0.5380(15) 1.1074(12) 0.0442(3)
H61? H 0.5400 1.1367 0.0689
C59? C 0.468(2) 0.6852(11) 0.0669(5)
C60? C 0.428(5) 0.6053(17) 0.1014(6)
H62? H 0.4527 0.5113 0.0976
H63? H 0.3196 0.6143 0.1066
H64? H 0.4864 0.6396 0.1221
C61? C 0.638(3) 0.671(2) 0.0598(14)
H65? H 0.6644 0.7161 0.0369
H66? H 0.6643 0.5762 0.0578
H67? H 0.6950 0.7109 0.0799
C62? C 0.378(4) 0.628(2) 0.0349(6)
H68? H 0.4218 0.5424 0.0276
H69? H 0.3821 0.6900 0.0143
H70? H 0.2722 0.6148 0.0422
loop_
_geom_bond_atom_site_label_1
_geom_bond_atom_site_label_2
_geom_bond_site_symmetry_1
_geom_bond_site_symmetry_2
O1 C3 1_555 1_555
O2 C5 1_555 1_555
O3 C6 1_555 1_555
C1 C2 1_555 1_555
C2 H1 1_555 1_555
C3 C2 1_555 1_555
H2 C3 1_555 1_555
C4 O1 1_555 1_555
C5 C1 1_555 1_555
C6 C4 1_555 1_555
H3 C6 1_555 1_555
H4 C6 1_555 1_555
Si1 O3 1_555 1_555
O4 C2 1_555 1_555
O5 C7 1_555 1_555
O6 C17 1_555 1_555
O7 C13 1_555 1_555
N1 C1 1_555 1_555
C7 C1 1_555 1_555
H5 C7 1_555 1_555
C8 C7 1_555 1_555
H6 C8 1_555 1_555
H7 C8 1_555 1_555
H8 C8 1_555 1_555
C9 O5 1_555 1_555
C10 C9 1_555 1_555
C11 C10 1_555 1_555
H9 C11 1_555 1_555
C12 C11 1_555 1_555
H10 C12 1_555 1_555
C13 C12 1_555 1_555
C14 C13 1_555 1_555
H11 C14 1_555 1_555
C15 C10 1_555 1_555
H12 C15 1_555 1_555
C16 O7 1_555 1_555
H13 C16 1_555 1_555
H14 C16 1_555 1_555
H15 C16 1_555 1_555
C17 O4 1_555 1_555
C18 C17 1_555 1_555
H16 C18 1_555 1_555
H17 C18 1_555 1_555
H18 C18 1_555 1_555
C19 Si1 1_555 1_555
C20 C19 1_555 1_555
H19 C20 1_555 1_555
C21 C20 1_555 1_555
H20 C21 1_555 1_555
C22 C21 1_555 1_555
H21 C22 1_555 1_555
C23 C22 1_555 1_555
H22 C23 1_555 1_555
C24 C19 1_555 1_555
H23 C24 1_555 1_555
C25 Si1 1_555 1_555
C26 C25 1_555 1_555
H24 C26 1_555 1_555
C27 C26 1_555 1_555
H25 C27 1_555 1_555
C28 C27 1_555 1_555
H26 C28 1_555 1_555
C29 C28 1_555 1_555
H27 C29 1_555 1_555
C30 C25 1_555 1_555
H28 C30 1_555 1_555
C31 Si1 1_555 1_555
C32 C31 1_555 1_555
H29 C32 1_555 1_555
H30 C32 1_555 1_555
H31 C32 1_555 1_555
C33 C31 1_555 1_555
H32 C33 1_555 1_555
H33 C33 1_555 1_555
H34 C33 1_555 1_555
C34 C31 1_555 1_555
H35 C34 1_555 1_555
H36 C34 1_555 1_555
H37 C34 1_555 1_555
C3 C4 1_555 1_555
C4 C5 1_555 1_555
N1 C9 1_555 1_555
C14 C15 1_555 1_555
C23 C24 1_555 1_555
C29 C30 1_555 1_555

#END
