
#######################################################################
#
#                 Cambridge Crystallographic Data Centre
#                                CCDC 
#
#######################################################################
#
# If this CIF has been generated from an entry in the Cambridge 
# Structural Database, then it will include bibliographic, chemical, 
# crystal, experimental, refinement or atomic coordinate data resulting 
# from the CCDC's data processing and validation procedures.
#
#######################################################################

data_TIJCUL
_chemical_formula_moiety         'C16 H14 N5 1+,Cl1 1-'
_chemical_name_systematic        
"11-Amino-5,6-dihydro-6-(2'-pyridyl)dipyrido(1,2-c:2',3'-e)pyrimidin-7-ium chloride"
_symmetry_cell_setting           monoclinic
_symmetry_space_group_name_H-M   'P 21/c'
_symmetry_Int_Tables_number      14
_space_group_name_Hall           '-P 2ybc'
loop_
_symmetry_equiv_pos_site_id
_symmetry_equiv_pos_as_xyz
1 x,y,z
2 -x,1/2+y,1/2-z
3 -x,-y,-z
4 x,1/2-y,1/2+z
_cell_length_a                   12.9931(15)
_cell_length_b                   12.4406(14)
_cell_length_c                   9.5280(11)
_cell_angle_alpha                90
_cell_angle_beta                 109.248(7)
_cell_angle_gamma                90
_cell_volume                     1454.03
_exptl_crystal_colour            yellow
_exptl_crystal_description       block
_cell_formula_units_Z            4
loop_
_atom_site_label
_atom_site_type_symbol
_atom_site_fract_x
_atom_site_fract_y
_atom_site_fract_z
Cl1 Cl 0.75474(2) 0.18639(2) 0.63162(3)
N1 N 0.65866(9) 0.65150(9) 0.73978(11)
N2 N 0.78941(9) 0.43684(9) 0.59633(11)
N3 N 0.65342(8) 0.52438(8) 0.39351(11)
N4 N 0.48139(10) 0.70870(10) 0.51247(14)
N5 N 0.81769(8) 0.61795(9) 0.30968(11)
C1 C 0.70477(11) 0.63529(11) 0.88551(14)
C2 C 0.77522(11) 0.55031(11) 0.94527(14)
C3 C 0.80422(11) 0.48198(11) 0.85052(13)
C4 C 0.76119(10) 0.49970(10) 0.69744(13)
C5 C 0.68467(9) 0.58330(10) 0.64617(12)
C6 C 0.61975(9) 0.58718(9) 0.48773(13)
C7 C 0.51919(10) 0.64290(10) 0.42858(13)
C8 C 0.45857(10) 0.62654(10) 0.27721(14)
C9 C 0.49560(10) 0.55900(11) 0.19040(13)
C10 C 0.59535(10) 0.50795(10) 0.24978(13)
C11 C 0.76707(10) 0.47935(10) 0.45116(13)
C12 C 0.84442(9) 0.56979(9) 0.44239(12)
C13 C 0.93714(10) 0.59601(10) 0.56063(13)
C14 C 1.00458(10) 0.67722(11) 0.54031(14)
C15 C 0.97777(10) 0.72781(11) 0.40377(15)
C16 C 0.88401(11) 0.69534(11) 0.29194(15)
H1 H 0.8538(15) 0.4198(15) 0.889(2)
H2 H 0.8021(14) 0.5398(14) 1.055(2)
H3 H 0.6855(16) 0.6850(15) 0.951(2)
H4 H 0.5201(16) 0.7194(16) 0.605(2)
H5 H 0.4156(16) 0.7337(16) 0.474(2)
H6 H 0.3905(15) 0.6621(15) 0.235(2)
H7 H 0.4519(14) 0.5500(14) 0.0872(19)
H8 H 0.6280(14) 0.4657(14) 0.1962(19)
H9 H 0.8644(14) 0.7275(15) 0.196(2)
H10 H 1.0213(15) 0.7847(15) 0.386(2)
H11 H 1.0689(16) 0.6953(14) 0.620(2)
H12 H 0.9549(14) 0.5601(14) 0.6521(19)
H13 H 0.7863(15) 0.3679(16) 0.604(2)
H14 H 0.7702(13) 0.4222(14) 0.3864(18)
loop_
_geom_bond_atom_site_label_1
_geom_bond_atom_site_label_2
_geom_bond_site_symmetry_1
_geom_bond_site_symmetry_2
N1 C1 1_555 1_555
N2 C4 1_555 1_555
N3 C6 1_555 1_555
N4 C7 1_555 1_555
N5 C12 1_555 1_555
C1 C2 1_555 1_555
C2 C3 1_555 1_555
C3 C4 1_555 1_555
C4 C5 1_555 1_555
C5 N1 1_555 1_555
C6 C5 1_555 1_555
C7 C6 1_555 1_555
C8 C7 1_555 1_555
C9 C8 1_555 1_555
C10 N3 1_555 1_555
C11 N2 1_555 1_555
C12 C11 1_555 1_555
C13 C12 1_555 1_555
C14 C13 1_555 1_555
C15 C14 1_555 1_555
C16 N5 1_555 1_555
H1 C3 1_555 1_555
H2 C2 1_555 1_555
H3 C1 1_555 1_555
H4 N4 1_555 1_555
H5 N4 1_555 1_555
H6 C8 1_555 1_555
H7 C9 1_555 1_555
H8 C10 1_555 1_555
H9 C16 1_555 1_555
H10 C15 1_555 1_555
H11 C14 1_555 1_555
H12 C13 1_555 1_555
H13 N2 1_555 1_555
H14 C11 1_555 1_555
N3 C11 1_555 1_555
C9 C10 1_555 1_555
C15 C16 1_555 1_555

#END
