
#######################################################################
#
#                 Cambridge Crystallographic Data Centre
#                                CCDC 
#
#######################################################################
#
# If this CIF has been generated from an entry in the Cambridge 
# Structural Database, then it will include bibliographic, chemical, 
# crystal, experimental, refinement or atomic coordinate data resulting 
# from the CCDC's data processing and validation procedures.
#
#######################################################################

data_TIJDUN
_chemical_formula_moiety         
'C36 H40 O22 S4 4-,2(C14 H18 N2 2+),13.06(H2 O1),0.66(C3 H6 O1)'
_chemical_name_systematic        
"bis(1,1'-Diethyl-4,4'-bipyridinium) (6,9,12,15,18,29,32,35,38,41-decaoxapentacyclo[40.4.0.0^5,46^.0^19,24^.0^23,28^]hexatetraconta-1(46),2,4,19,21,23,25,27,42,44-decaene-2,22,25,45-tetrasulfonate) acetone solvate hydrate"
_symmetry_cell_setting           triclinic
_symmetry_space_group_name_H-M   'P -1'
_symmetry_Int_Tables_number      2
_space_group_name_Hall           '-P 1'
loop_
_symmetry_equiv_pos_site_id
_symmetry_equiv_pos_as_xyz
1 x,y,z
2 -x,-y,-z
_cell_length_a                   15.794(6)
_cell_length_b                   17.349(6)
_cell_length_c                   17.438(7)
_cell_angle_alpha                110.9050(10)
_cell_angle_beta                 113.174(6)
_cell_angle_gamma                97.646(4)
_cell_volume                     3889.9
_exptl_crystal_colour            colorless
_exptl_crystal_description       Prism
_cell_formula_units_Z            2
loop_
_atom_site_label
_atom_site_type_symbol
_atom_site_fract_x
_atom_site_fract_y
_atom_site_fract_z
S1 S 0.75627(7) 0.74297(6) 0.48605(6)
S2 S 0.66507(8) 0.92304(7) 0.18041(7)
O1 O 0.7258(2) 0.64771(17) 0.44087(18)
O2 O 0.84844(19) 0.78086(17) 0.57214(17)
O3 O 0.67849(19) 0.77478(17) 0.49721(18)
O4 O 0.6022(2) 0.83306(18) 0.11651(18)
O5 O 0.7383(2) 0.95253(19) 0.15788(19)
O6 O 0.6090(2) 0.98325(19) 0.19158(19)
O7 O 0.7797(2) 0.80406(17) 0.17837(17)
O8 O 0.8353(3) 0.7858(2) 0.0272(2)
O9 O 0.9942(3) 0.9092(2) 0.0476(2)
O10 O 1.1702(3) 0.9734(2) 0.21920(19)
O11 O 1.19368(19) 1.07126(16) 0.44734(17)
C1 C 0.7848(3) 0.7163(3) 0.2594(3)
H1 H 0.7965 0.6725 0.2169
C2 C 0.7809(3) 0.7071(3) 0.3347(3)
H2 H 0.7838 0.6545 0.3393
C3 C 0.7729(3) 0.7727(2) 0.4023(2)
C4 C 0.7669(3) 0.8519(2) 0.3949(2)
C5 C 0.7756(3) 0.9297(2) 0.4689(2)
C6 C 0.7585(3) 1.0004(2) 0.4550(3)
H3 H 0.7675 1.0522 0.5053
C7 C 0.7275(3) 0.9953(2) 0.3656(3)
H4 H 0.7083 1.0415 0.3544
C8 C 0.7240(3) 0.9253(2) 0.2938(2)
C9 C 0.7528(3) 0.8548(2) 0.3097(2)
C10 C 0.7717(3) 0.7882(2) 0.2472(2)
C11 C 0.7504(4) 0.7281(3) 0.0920(3)
H5 H 0.6869 0.6879 0.0721
H6 H 0.7989 0.6969 0.1008
C12 C 0.7427(4) 0.7580(3) 0.0189(3)
H7 H 0.6986 0.7097 -0.0441
H8 H 0.7151 0.8066 0.0268
C13 C 0.8314(4) 0.8155(4) -0.0409(3)
H9 H 0.8118 0.8687 -0.0285
H10 H 0.7824 0.7702 -0.1041
C14 C 0.9278(4) 0.8345(3) -0.0365(3)
H11 H 0.9517 0.7841 -0.0396
H12 H 0.9223 0.8446 -0.0905
C15 C 1.0853(4) 0.9354(4) 0.0554(3)
H13 H 1.0799 0.9567 0.0086
H14 H 1.1089 0.8846 0.0415
C16 C 1.1564(4) 1.0046(3) 0.1492(3)
H15 H 1.2192 1.0233 0.1506
H16 H 1.1332 1.0555 0.1637
C17 C 1.1899(3) 1.0429(3) 0.3049(3)
H17 H 1.1340 1.0652 0.2958
H18 H 1.2478 1.0911 0.3264
C18 C 1.2079(3) 1.0089(3) 0.3770(3)
H19 H 1.1612 0.9503 0.3493
H20 H 1.2748 1.0059 0.4033
S1A S 1.24373(7) 1.25703(6) 0.51395(6)
S2A S 1.33493(8) 1.07696(7) 0.81959(7)
O1A O 1.2742(2) 1.35229(17) 0.55913(18)
O2A O 1.15156(19) 1.21914(17) 0.42786(17)
O3A O 1.32151(19) 1.22522(17) 0.50279(18)
O4A O 1.3978(2) 1.16694(18) 0.88349(18)
O5A O 1.2617(2) 1.04747(19) 0.84212(19)
O6A O 1.3910(2) 1.01675(19) 0.80842(19)
O7A O 1.2203(2) 1.19594(17) 0.82163(17)
O8A O 1.1647(3) 1.2142(2) 0.9728(2)
O9A O 1.0058(3) 1.0908(2) 0.9524(2)
O10A O 0.8298(3) 1.0266(2) 0.78080(19)
O11A O 0.80632(19) 0.92874(16) 0.55266(17)
C1A C 1.2152(3) 1.2837(3) 0.7406(3)
H1A H 1.2035 1.3275 0.7831
C2A C 1.2191(3) 1.2929(3) 0.6653(3)
H2A H 1.2162 1.3455 0.6607
C3A C 1.2271(3) 1.2273(2) 0.5977(2)
C4A C 1.2331(3) 1.1481(2) 0.6051(2)
C5A C 1.2244(3) 1.0703(2) 0.5311(2)
C6A C 1.2415(3) 0.9996(2) 0.5450(3)
H3A H 1.2325 0.9478 0.4947
C7A C 1.2725(3) 1.0047(2) 0.6344(3)
H4A H 1.2917 0.9585 0.6456
C8A C 1.2760(3) 1.0747(2) 0.7062(2)
C9A C 1.2472(3) 1.1452(2) 0.6903(2)
C10A C 1.2283(3) 1.2118(2) 0.7528(2)
C11A C 1.2496(4) 1.2719(3) 0.9080(3)
H5A H 1.3131 1.3121 0.9279
H6A H 1.2011 1.3031 0.8992
C12A C 1.2573(4) 1.2420(3) 0.9811(3)
H7A H 1.3014 1.2903 1.0441
H8A H 1.2849 1.1934 0.9732
C13A C 1.1686(4) 1.1845(4) 1.0409(3)
H9A H 1.1882 1.1313 1.0285
H10A H 1.2176 1.2298 1.1041
C14A C 1.0722(4) 1.1655(3) 1.0365(3)
H11A H 1.0483 1.2159 1.0396
H12A H 1.0777 1.1554 1.0905
C15A C 0.9147(4) 1.0646(4) 0.9446(3)
H13A H 0.9201 1.0433 0.9914
H14A H 0.8911 1.1154 0.9585
C16A C 0.8436(4) 0.9954(3) 0.8508(3)
H15A H 0.7808 0.9767 0.8494
H16A H 0.8668 0.9445 0.8363
C17A C 0.8101(3) 0.9571(3) 0.6951(3)
H17A H 0.8660 0.9348 0.7042
H18A H 0.7522 0.9089 0.6736
C18A C 0.7921(3) 0.9911(3) 0.6230(3)
H19A H 0.8388 1.0497 0.6507
H20A H 0.7252 0.9941 0.5967
S3 S 0.31258(7) 0.78526(6) 0.38733(6)
S4 S 0.29640(8) 0.53478(7) -0.02918(7)
O12 O 0.3420(2) 0.87821(17) 0.41452(17)
O13 O 0.39519(19) 0.75610(17) 0.42338(17)
O14 O 0.2363(2) 0.76046(18) 0.40965(18)
O15 O 0.3505(2) 0.62043(19) -0.01092(19)
O16 O 0.3582(2) 0.47922(19) -0.0203(2)
O17 O 0.2054(2) 0.4911(2) -0.11573(19)
O18 O 0.25758(19) 0.59218(17) 0.31158(18)
O19 O 0.2213(2) 0.51979(18) 0.43640(19)
O20 O 0.03790(19) 0.44830(17) 0.41595(18)
O21 O -0.1042(2) 0.32789(19) 0.22256(18)
O22 O -0.1838(2) 0.3458(2) 0.01851(18)
C19 C 0.2591(3) 0.6482(2) 0.2058(2)
C20 C 0.2619(3) 0.7339(2) 0.2626(2)
C21 C 0.2336(3) 0.7870(3) 0.2213(3)
H21 H 0.2354 0.8434 0.2584
C22 C 0.2023(3) 0.7599(3) 0.1259(3)
H22 H 0.1747 0.7943 0.0974
C23 C 0.2113(3) 0.6843(3) 0.0735(3)
C24 C 0.2468(3) 0.6281(2) 0.1135(3)
C25 C 0.2696(3) 0.5535(3) 0.0662(3)
C26 C 0.2846(3) 0.4952(3) 0.1023(3)
H23 H 0.3001 0.4462 0.0716
C27 C 0.2777(3) 0.5054(3) 0.1826(3)
H24 H 0.2803 0.4602 0.2013
C28 C 0.2674(3) 0.5804(3) 0.2342(3)
C29 C 0.3161(3) 0.5583(3) 0.3711(3)
H25 H 0.3854 0.5818 0.3892
H26 H 0.2957 0.4940 0.3370
C30 C 0.3037(3) 0.5840(3) 0.4564(3)
H27 H 0.3625 0.5879 0.5091
H28 H 0.2937 0.6416 0.4740
C31 C 0.2026(3) 0.5407(3) 0.5143(3)
H29 H 0.1788 0.5915 0.5241
H30 H 0.2632 0.5554 0.5717
C32 C 0.1272(3) 0.4628(3) 0.4938(3)
H31 H 0.1488 0.4109 0.4790
H32 H 0.1177 0.4733 0.5490
C33 C -0.0332(3) 0.3696(3) 0.3872(3)
H33 H -0.0495 0.3745 0.4377
H34 H -0.0069 0.3204 0.3741
C34 C -0.1227(3) 0.3529(3) 0.3011(3)
H35 H -0.1767 0.3059 0.2885
H36 H -0.1420 0.4061 0.3107
C35 C -0.1803(5) 0.3282(5) 0.1470(3)
H37 H -0.1802 0.3887 0.1609
H38 H -0.2429 0.2947 0.1366
C36 C -0.1701(5) 0.2880(4) 0.0590(3)
H39 H -0.1048 0.2815 0.0749
H40 H -0.2196 0.2300 0.0153
S3A S -0.31258(7) 0.21474(6) -0.38733(6)
S4A S -0.29640(8) 0.46522(7) 0.02918(7)
O12A O -0.3420(2) 0.12179(17) -0.41452(17)
O13A O -0.39519(19) 0.24390(17) -0.42338(17)
O14A O -0.2363(2) 0.23954(18) -0.40965(18)
O15A O -0.3505(2) 0.37957(19) 0.01092(19)
O16A O -0.3582(2) 0.52078(19) 0.0203(2)
O17A O -0.2054(2) 0.5089(2) 0.11573(19)
O18A O -0.25758(19) 0.40782(17) -0.31158(18)
O19A O -0.2213(2) 0.48021(18) -0.43640(19)
O20A O -0.03790(19) 0.55170(17) -0.41595(18)
O21A O 0.1042(2) 0.67211(19) -0.22256(18)
O22A O 0.1838(2) 0.6542(2) -0.01851(18)
C19A C -0.2591(3) 0.3518(2) -0.2058(2)
C20A C -0.2619(3) 0.2661(2) -0.2626(2)
C21A C -0.2336(3) 0.2130(3) -0.2213(3)
H21A H -0.2354 0.1566 -0.2584
C22A C -0.2023(3) 0.2401(3) -0.1259(3)
H22A H -0.1747 0.2057 -0.0974
C23A C -0.2113(3) 0.3157(3) -0.0735(3)
C24A C -0.2468(3) 0.3719(2) -0.1135(3)
C25A C -0.2696(3) 0.4465(3) -0.0662(3)
C26A C -0.2846(3) 0.5048(3) -0.1023(3)
H23A H -0.3001 0.5538 -0.0716
C27A C -0.2777(3) 0.4946(3) -0.1826(3)
H24A H -0.2803 0.5398 -0.2013
C28A C -0.2674(3) 0.4196(3) -0.2342(3)
C29A C -0.3161(3) 0.4417(3) -0.3711(3)
H25A H -0.3854 0.4182 -0.3892
H26A H -0.2957 0.5060 -0.3370
C30A C -0.3037(3) 0.4160(3) -0.4564(3)
H27A H -0.3625 0.4121 -0.5091
H28A H -0.2937 0.3584 -0.4740
C31A C -0.2026(3) 0.4593(3) -0.5143(3)
H29A H -0.1788 0.4085 -0.5241
H30A H -0.2632 0.4446 -0.5717
C32A C -0.1272(3) 0.5372(3) -0.4938(3)
H31A H -0.1488 0.5891 -0.4790
H32A H -0.1177 0.5267 -0.5490
C33A C 0.0332(3) 0.6304(3) -0.3872(3)
H33A H 0.0495 0.6255 -0.4377
H34A H 0.0069 0.6796 -0.3741
C34A C 0.1227(3) 0.6471(3) -0.3011(3)
H35A H 0.1767 0.6941 -0.2885
H36A H 0.1420 0.5939 -0.3107
C35A C 0.1803(5) 0.6718(5) -0.1470(3)
H37A H 0.1802 0.6113 -0.1609
H38A H 0.2429 0.7053 -0.1366
C36A C 0.1701(5) 0.7120(4) -0.0590(3)
H39A H 0.1048 0.7185 -0.0749
H40A H 0.2196 0.7700 -0.0153
N1 N 0.4726(2) 0.9608(2) 0.3200(2)
N2 N 0.5380(2) 0.5512(2) 0.1940(2)
C37 C 0.5334(4) 1.1099(3) 0.3408(4)
H41 H 0.5982 1.1230 0.3913
H42 H 0.5176 1.1640 0.3480
H43 H 0.5323 1.0822 0.2805
C38 C 0.4598(4) 1.0493(3) 0.3450(3)
H44 H 0.3936 1.0438 0.3011
H45 H 0.4670 1.0738 0.4087
C39 C 0.4382(3) 0.9047(3) 0.2292(3)
H46 H 0.4042 0.9211 0.1822
C40 C 0.4514(3) 0.8248(3) 0.2037(3)
H47 H 0.4274 0.7867 0.1397
C41 C 0.5001(3) 0.7994(2) 0.2720(3)
C42 C 0.5344(3) 0.8584(3) 0.3656(3)
H48 H 0.5670 0.8429 0.4138
C43 C 0.5208(3) 0.9386(3) 0.3876(3)
H49 H 0.5457 0.9787 0.4512
C44 C 0.5144(3) 0.7132(2) 0.2462(2)
C45 C 0.5049(3) 0.6635(2) 0.2917(3)
H50 H 0.4903 0.6856 0.3416
C46 C 0.5164(3) 0.5831(3) 0.2646(3)
H51 H 0.5093 0.5494 0.2956
C47 C 0.5493(3) 0.5979(3) 0.1492(3)
H52 H 0.5657 0.5748 0.1006
C48 C 0.5374(3) 0.6788(3) 0.1735(2)
H53 H 0.5447 0.7112 0.1413
C49 C 0.5519(3) 0.4634(3) 0.1673(3)
H54 H 0.5379 0.4377 0.1012
H55 H 0.5058 0.4245 0.1733
C50 C 0.6545(3) 0.4702(3) 0.2286(3)
H56 H 0.6999 0.5053 0.2192
H57 H 0.6608 0.4118 0.2122
H58 H 0.6693 0.4978 0.2941
N3 N 0.9743(2) 0.4438(2) 0.7760(2)
C51 C 1.0378(3) 0.3898(3) 0.6616(3)
H59 H 1.0999 0.4362 0.7065
H60 H 1.0246 0.3778 0.5980
H61 H 1.0409 0.3370 0.6697
C52 C 0.9572(3) 0.4181(3) 0.6781(3)
H62 H 0.9505 0.4680 0.6639
H63 H 0.8952 0.3698 0.6344
C53 C 0.9633(3) 0.5177(3) 0.8223(3)
H64 H 0.9482 0.5552 0.7940
C54 C 0.9732(3) 0.5413(3) 0.9098(3)
H65 H 0.9651 0.5948 0.9414
C55 C 0.9950(3) 0.4877(2) 0.9526(3)
C56 C 1.0062(3) 0.4109(3) 0.9027(3)
H66 H 1.0208 0.3720 0.9292
C57 C 0.9962(4) 0.3907(3) 0.8156(3)
H67 H 1.0050 0.3382 0.7826
N3A N 1.0257(2) 0.5562(2) 1.2240(2)
C51A C 0.9622(3) 0.6102(3) 1.3384(3)
H59A H 0.9001 0.5638 1.2935
H60A H 0.9754 0.6222 1.4020
H61A H 0.9591 0.6630 1.3303
C52A C 1.0428(3) 0.5819(3) 1.3219(3)
H62A H 1.0495 0.5320 1.3361
H63A H 1.1048 0.6302 1.3656
C53A C 1.0367(3) 0.4823(3) 1.1777(3)
H64A H 1.0518 0.4448 1.2060
C54A C 1.0268(3) 0.4587(3) 1.0902(3)
H65A H 1.0349 0.4052 1.0586
C55A C 1.0050(3) 0.5123(2) 1.0474(3)
C56A C 0.9938(3) 0.5891(3) 1.0973(3)
H66A H 0.9792 0.6280 1.0708
C57A C 1.0038(4) 0.6093(3) 1.1844(3)
H67A H 0.9950 0.6618 1.2174
N4 N 0.9445(2) 0.0827(2) 0.3350(2)
C58 C 0.9220(4) 0.0736(4) 0.1786(4)
H68 H 0.9861 0.0666 0.1927
H69 H 0.9089 0.1067 0.1423
H70 H 0.8723 0.0162 0.1424
C59 C 0.9197(4) 0.1216(3) 0.2680(3)
H71 H 0.9655 0.1814 0.3004
H72 H 0.8538 0.1263 0.2522
C60 C 0.9599(3) 0.1320(3) 0.4220(3)
H73 H 0.9556 0.1892 0.4382
C61 C 0.9813(3) 0.1018(3) 0.4871(3)
H74 H 0.9917 0.1380 0.5478
C62 C 0.9882(3) 0.0178(3) 0.4654(3)
C63 C 0.9714(3) -0.0319(3) 0.3742(3)
H75 H 0.9751 -0.0894 0.3561
C64 C 0.9496(3) 0.0014(3) 0.3113(3)
H76 H 0.9378 -0.0335 0.2497
N4A N 1.0555(2) -0.0827(2) 0.6650(2)
C58A C 1.0780(4) -0.0736(4) 0.8214(4)
H68A H 1.0139 -0.0666 0.8073
H69A H 1.0911 -0.1067 0.8577
H70A H 1.1277 -0.0162 0.8576
C59A C 1.0803(4) -0.1216(3) 0.7320(3)
H71A H 1.0345 -0.1814 0.6996
H72A H 1.1462 -0.1263 0.7478
C60A C 1.0401(3) -0.1320(3) 0.5780(3)
H73A H 1.0444 -0.1892 0.5618
C61A C 1.0187(3) -0.1018(3) 0.5129(3)
H74A H 1.0083 -0.1380 0.4522
C62A C 1.0118(3) -0.0178(3) 0.5346(3)
C63A C 1.0286(3) 0.0319(3) 0.6258(3)
H75A H 1.0249 0.0894 0.6439
C64A C 1.0504(3) -0.0014(3) 0.6887(3)
H76A H 1.0622 0.0335 0.7503
O23 O 0.6273(9) 1.0746(7) 1.0321(8)
C65 C 0.6020(8) 0.9196(6) 0.9185(8)
C66 C 0.6396(7) 1.0202(7) 0.9696(6)
C67 C 0.7007(10) 1.0490(8) 0.9301(9)
O28 O 0.7041(2) 0.1655(2) 0.2684(2)
O29 O 0.8281(2) 0.24919(19) 0.4580(2)
O30 O 0.5841(4) 0.2618(3) 0.2164(3)
O31 O 0.4678(6) 0.3653(5) 0.2698(6)
O34 O 0.4436(11) 0.7326(7) 0.9458(8)
O37 O 0.8363(2) 0.7803(2) 0.7297(2)
O38 O 0.5432(2) 0.7203(2) 0.5408(2)
O39 O 0.0600(2) 0.80261(17) 0.33578(19)
O40 O 0.0150(3) 0.8280(2) 0.1791(2)
O41 O 0.9010(4) 0.6401(3) 0.7306(3)
O44 O 0.5826(6) 0.5254(5) 0.4294(5)
O45 O 0.4435(6) 0.4242(5) 0.4150(5)
O24? O 0.7025(11) 1.0703(9) 0.9435(10)
C68? C 0.6276(17) 0.9500(11) 0.9702(16)
C69? C 0.6534(9) 1.0277(8) 0.9572(7)
C70? C 0.5888(9) 1.0874(8) 0.9627(9)
O25? O 0.6099(13) 0.8897(13) 0.8474(17)
O26? O 0.7078(13) 0.9933(12) 1.0075(10)
O27? O 0.5969(11) 0.8061(9) 0.8433(10)
O32? O 0.3959(11) 0.3690(9) 0.2263(10)
O33? O 0.428(2) 0.7562(15) 0.9662(15)
O35? O 0.6686(8) 0.8078(7) 0.7306(7)
O36? O 0.6570(7) 0.7579(6) 0.7256(7)
O42? O 0.8513(19) 0.6298(16) 0.7390(17)
O43? O 0.5884(8) 0.5641(6) 0.4771(8)
loop_
_geom_bond_atom_site_label_1
_geom_bond_atom_site_label_2
_geom_bond_site_symmetry_1
_geom_bond_site_symmetry_2
S1 O1 1_555 1_555
S2 O4 1_555 1_555
O2 S1 1_555 1_555
O3 S1 1_555 1_555
O5 S2 1_555 1_555
O6 S2 1_555 1_555
O7 C10 1_555 1_555
O8 C12 1_555 1_555
O9 C14 1_555 1_555
O10 C16 1_555 1_555
O11 C18 1_555 1_555
C1 H1 1_555 1_555
C2 C1 1_555 1_555
H2 C2 1_555 1_555
C3 S1 1_555 1_555
C4 C3 1_555 1_555
C5 C4 1_555 1_555
C6 C5 1_555 1_555
H3 C6 1_555 1_555
C7 C6 1_555 1_555
H4 C7 1_555 1_555
C8 S2 1_555 1_555
C9 C4 1_555 1_555
C10 C1 1_555 1_555
C11 O7 1_555 1_555
H5 C11 1_555 1_555
H6 C11 1_555 1_555
C12 C11 1_555 1_555
H7 C12 1_555 1_555
H8 C12 1_555 1_555
C13 O8 1_555 1_555
H9 C13 1_555 1_555
H10 C13 1_555 1_555
C14 C13 1_555 1_555
H11 C14 1_555 1_555
H12 C14 1_555 1_555
C15 O9 1_555 1_555
H13 C15 1_555 1_555
H14 C15 1_555 1_555
C16 C15 1_555 1_555
H15 C16 1_555 1_555
H16 C16 1_555 1_555
C17 O10 1_555 1_555
H17 C17 1_555 1_555
H18 C17 1_555 1_555
C18 C17 1_555 1_555
H19 C18 1_555 1_555
H20 C18 1_555 1_555
S3 O12 1_555 1_555
S4 O15 1_555 1_555
O13 S3 1_555 1_555
O14 S3 1_555 1_555
O16 S4 1_555 1_555
O17 S4 1_555 1_555
O18 C28 1_555 1_555
O19 C30 1_555 1_555
O20 C32 1_555 1_555
O21 C34 1_555 1_555
O22 C36 1_555 1_555
C19 C20 1_555 1_555
C20 S3 1_555 1_555
C21 C20 1_555 1_555
H21 C21 1_555 1_555
C22 C21 1_555 1_555
H22 C22 1_555 1_555
C23 C22 1_555 1_555
C24 C19 1_555 1_555
C25 S4 1_555 1_555
C26 C25 1_555 1_555
H23 C26 1_555 1_555
C27 C26 1_555 1_555
H24 C27 1_555 1_555
C28 C19 1_555 1_555
C29 O18 1_555 1_555
H25 C29 1_555 1_555
H26 C29 1_555 1_555
C30 C29 1_555 1_555
H27 C30 1_555 1_555
H28 C30 1_555 1_555
C31 O19 1_555 1_555
H29 C31 1_555 1_555
H30 C31 1_555 1_555
C32 C31 1_555 1_555
H31 C32 1_555 1_555
H32 C32 1_555 1_555
C33 O20 1_555 1_555
H33 C33 1_555 1_555
H34 C33 1_555 1_555
C34 C33 1_555 1_555
H35 C34 1_555 1_555
H36 C34 1_555 1_555
C35 O21 1_555 1_555
H37 C35 1_555 1_555
H38 C35 1_555 1_555
C36 C35 1_555 1_555
H39 C36 1_555 1_555
H40 C36 1_555 1_555
N1 C38 1_555 1_555
N2 C46 1_555 1_555
C37 H41 1_555 1_555
H42 C37 1_555 1_555
H43 C37 1_555 1_555
C38 C37 1_555 1_555
H44 C38 1_555 1_555
H45 C38 1_555 1_555
C39 N1 1_555 1_555
H46 C39 1_555 1_555
C40 C39 1_555 1_555
H47 C40 1_555 1_555
C41 C40 1_555 1_555
C42 C41 1_555 1_555
H48 C42 1_555 1_555
C43 N1 1_555 1_555
H49 C43 1_555 1_555
C44 C41 1_555 1_555
C45 C44 1_555 1_555
H50 C45 1_555 1_555
C46 C45 1_555 1_555
H51 C46 1_555 1_555
C47 N2 1_555 1_555
H52 C47 1_555 1_555
C48 C44 1_555 1_555
H53 C48 1_555 1_555
C49 N2 1_555 1_555
H54 C49 1_555 1_555
H55 C49 1_555 1_555
C50 C49 1_555 1_555
H56 C50 1_555 1_555
H57 C50 1_555 1_555
H58 C50 1_555 1_555
N3 C52 1_555 1_555
C51 H59 1_555 1_555
H60 C51 1_555 1_555
H61 C51 1_555 1_555
C52 C51 1_555 1_555
H62 C52 1_555 1_555
H63 C52 1_555 1_555
C53 N3 1_555 1_555
H64 C53 1_555 1_555
C54 C53 1_555 1_555
H65 C54 1_555 1_555
C55 C54 1_555 1_555
C56 C55 1_555 1_555
H66 C56 1_555 1_555
C57 N3 1_555 1_555
H67 C57 1_555 1_555
N4 C59 1_555 1_555
C58 H68 1_555 1_555
H69 C58 1_555 1_555
H70 C58 1_555 1_555
C59 C58 1_555 1_555
H71 C59 1_555 1_555
H72 C59 1_555 1_555
C60 N4 1_555 1_555
H73 C60 1_555 1_555
C61 C60 1_555 1_555
H74 C61 1_555 1_555
C62 C61 1_555 1_555
C63 C62 1_555 1_555
H75 C63 1_555 1_555
C64 N4 1_555 1_555
H76 C64 1_555 1_555
O23 C66 1_555 1_555
C65 C66 1_555 1_555
C66 C67 1_555 1_555
S1A O1A 1_555 1_555
S2A O4A 1_555 1_555
O2A S1A 1_555 1_555
O3A S1A 1_555 1_555
O5A S2A 1_555 1_555
O6A S2A 1_555 1_555
O7A C10A 1_555 1_555
O8A C12A 1_555 1_555
O9A C14A 1_555 1_555
O10A C16A 1_555 1_555
O11A C5 1_555 1_555
C1A H1A 1_555 1_555
C2A C1A 1_555 1_555
H2A C2A 1_555 1_555
C3A S1A 1_555 1_555
C4A C3A 1_555 1_555
C5A O11 1_555 1_555
C6A C5A 1_555 1_555
H3A C6A 1_555 1_555
C7A C6A 1_555 1_555
H4A C7A 1_555 1_555
C8A S2A 1_555 1_555
C9A C4A 1_555 1_555
C10A C1A 1_555 1_555
C11A O7A 1_555 1_555
H5A C11A 1_555 1_555
H6A C11A 1_555 1_555
C12A C11A 1_555 1_555
H7A C12A 1_555 1_555
H8A C12A 1_555 1_555
C13A O8A 1_555 1_555
H9A C13A 1_555 1_555
H10A C13A 1_555 1_555
C14A C13A 1_555 1_555
H11A C14A 1_555 1_555
H12A C14A 1_555 1_555
C15A O9A 1_555 1_555
H13A C15A 1_555 1_555
H14A C15A 1_555 1_555
C16A C15A 1_555 1_555
H15A C16A 1_555 1_555
H16A C16A 1_555 1_555
C17A O10A 1_555 1_555
H17A C17A 1_555 1_555
H18A C17A 1_555 1_555
C18A O11A 1_555 1_555
H19A C18A 1_555 1_555
H20A C18A 1_555 1_555
S3A O12A 1_555 1_555
S4A O15A 1_555 1_555
O13A S3A 1_555 1_555
O14A S3A 1_555 1_555
O16A S4A 1_555 1_555
O17A S4A 1_555 1_555
O18A C28A 1_555 1_555
O19A C30A 1_555 1_555
O20A C32A 1_555 1_555
O21A C34A 1_555 1_555
O22A C23 1_555 1_555
C19A C20A 1_555 1_555
C20A S3A 1_555 1_555
C21A C20A 1_555 1_555
H21A C21A 1_555 1_555
C22A C21A 1_555 1_555
H22A C22A 1_555 1_555
C23A O22 1_555 1_555
C24A C19A 1_555 1_555
C25A S4A 1_555 1_555
C26A C25A 1_555 1_555
H23A C26A 1_555 1_555
C27A C26A 1_555 1_555
H24A C27A 1_555 1_555
C28A C19A 1_555 1_555
C29A O18A 1_555 1_555
H25A C29A 1_555 1_555
H26A C29A 1_555 1_555
C30A C29A 1_555 1_555
H27A C30A 1_555 1_555
H28A C30A 1_555 1_555
C31A O19A 1_555 1_555
H29A C31A 1_555 1_555
H30A C31A 1_555 1_555
C32A C31A 1_555 1_555
H31A C32A 1_555 1_555
H32A C32A 1_555 1_555
C33A O20A 1_555 1_555
H33A C33A 1_555 1_555
H34A C33A 1_555 1_555
C34A C33A 1_555 1_555
H35A C34A 1_555 1_555
H36A C34A 1_555 1_555
C35A O21A 1_555 1_555
H37A C35A 1_555 1_555
H38A C35A 1_555 1_555
C36A O22A 1_555 1_555
H39A C36A 1_555 1_555
H40A C36A 1_555 1_555
N3A C52A 1_555 1_555
C51A H59A 1_555 1_555
H60A C51A 1_555 1_555
H61A C51A 1_555 1_555
C52A C51A 1_555 1_555
H62A C52A 1_555 1_555
H63A C52A 1_555 1_555
C53A N3A 1_555 1_555
H64A C53A 1_555 1_555
C54A C53A 1_555 1_555
H65A C54A 1_555 1_555
C55A C55 1_555 1_555
C56A C55A 1_555 1_555
H66A C56A 1_555 1_555
C57A N3A 1_555 1_555
H67A C57A 1_555 1_555
N4A C59A 1_555 1_555
C58A H68A 1_555 1_555
H69A C58A 1_555 1_555
H70A C58A 1_555 1_555
C59A C58A 1_555 1_555
H71A C59A 1_555 1_555
H72A C59A 1_555 1_555
C60A N4A 1_555 1_555
H73A C60A 1_555 1_555
C61A C60A 1_555 1_555
H74A C61A 1_555 1_555
C62A C62 1_555 1_555
C63A C62A 1_555 1_555
H75A C63A 1_555 1_555
C64A N4A 1_555 1_555
H76A C64A 1_555 1_555
C2 C3 1_555 1_555
C7 C8 1_555 1_555
C8 C9 1_555 1_555
C9 C10 1_555 1_555
C23 C24 1_555 1_555
C24 C25 1_555 1_555
C27 C28 1_555 1_555
C42 C43 1_555 1_555
C47 C48 1_555 1_555
C56 C57 1_555 1_555
C63 C64 1_555 1_555
C2A C3A 1_555 1_555
C4A C5A 1_555 1_555
C7A C8A 1_555 1_555
C8A C9A 1_555 1_555
C9A C10A 1_555 1_555
C17A C18A 1_555 1_555
C22A C23A 1_555 1_555
C23A C24A 1_555 1_555
C24A C25A 1_555 1_555
C27A C28A 1_555 1_555
C35A C36A 1_555 1_555
C54A C55A 1_555 1_555
C56A C57A 1_555 1_555
C61A C62A 1_555 1_555
C63A C64A 1_555 1_555

#END
