
#######################################################################
#
#                 Cambridge Crystallographic Data Centre
#                                CCDC 
#
#######################################################################
#
# If this CIF has been generated from an entry in the Cambridge 
# Structural Database, then it will include bibliographic, chemical, 
# crystal, experimental, refinement or atomic coordinate data resulting 
# from the CCDC's data processing and validation procedures.
#
#######################################################################

data_TIJGID
_chemical_formula_moiety         'C9 H8 N1 O3 P1,H2 O1'
_chemical_name_systematic        '2-Quinolinephosphonic acid monohydrate'
_symmetry_cell_setting           monoclinic
_symmetry_space_group_name_H-M   'P 21/c'
_symmetry_Int_Tables_number      14
_space_group_name_Hall           '-P 2ybc'
loop_
_symmetry_equiv_pos_site_id
_symmetry_equiv_pos_as_xyz
1 x,y,z
2 -x,1/2+y,1/2-z
3 -x,-y,-z
4 x,1/2-y,1/2+z
_cell_length_a                   10.270(2)
_cell_length_b                   13.566(3)
_cell_length_c                   6.9818(16)
_cell_angle_alpha                90
_cell_angle_beta                 101.916(4)
_cell_angle_gamma                90
_cell_volume                     951.763
_exptl_crystal_colour            colorless
_exptl_crystal_description       block
_cell_formula_units_Z            4
_exptl_crystal_preparation       fluorescent
loop_
_atom_site_label
_atom_site_type_symbol
_atom_site_fract_x
_atom_site_fract_y
_atom_site_fract_z
P1 P 0.81518(8) -0.09328(6) 0.98881(13)
N1 N 0.8226(2) 0.10897(16) 0.9984(3)
H1 H 0.9061 0.0986 1.0421
O1 O 0.91371(18) -0.10016(13) 0.8584(3)
O2 O 0.89416(18) -0.09091(14) 1.2046(3)
H2 H 0.8455 -0.1111 1.2813
O3 O 0.70077(18) -0.16265(13) 0.9566(3)
C1 C 0.7442(3) 0.0307(2) 0.9515(4)
C2 C 0.6104(3) 0.0464(2) 0.8701(4)
H5 H 0.5541 -0.0074 0.8366
C3 C 0.5603(3) 0.1399(2) 0.8385(4)
H6 H 0.4707 0.1493 0.7837
C4 C 0.6439(3) 0.2211(2) 0.8888(4)
C5 C 0.5993(3) 0.3198(2) 0.8622(5)
H7 H 0.5105 0.3330 0.8083
C6 C 0.6864(3) 0.3950(2) 0.9155(5)
H8 H 0.6568 0.4598 0.8975
C7 C 0.8200(3) 0.3760(2) 0.9972(5)
H9 H 0.8780 0.4286 1.0332
C8 C 0.8670(3) 0.2823(2) 1.0253(4)
H10 H 0.9561 0.2705 1.0795
C9 C 0.7788(3) 0.2047(2) 0.9711(4)
O4 O 0.77212(19) 0.85704(14) 0.4746(3)
H3 H 0.8259 0.8808 0.5832
H4 H 0.7602 0.7924 0.4948
loop_
_geom_bond_atom_site_label_1
_geom_bond_atom_site_label_2
_geom_bond_site_symmetry_1
_geom_bond_site_symmetry_2
P1 O1 1_555 1_555
N1 H1 1_555 1_555
O2 P1 1_555 1_555
H2 O2 1_555 1_555
O3 P1 1_555 1_555
O4 H3 1_555 1_555
H4 O4 1_555 1_555
C1 P1 1_555 1_555
C2 C1 1_555 1_555
H5 C2 1_555 1_555
C3 C2 1_555 1_555
H6 C3 1_555 1_555
C4 C3 1_555 1_555
C5 C4 1_555 1_555
H7 C5 1_555 1_555
C6 C5 1_555 1_555
H8 C6 1_555 1_555
C7 C6 1_555 1_555
H9 C7 1_555 1_555
C8 C7 1_555 1_555
H10 C8 1_555 1_555
C9 N1 1_555 1_555
N1 C1 1_555 1_555
C4 C9 1_555 1_555
C8 C9 1_555 1_555

#END
