
#######################################################################
#
#                 Cambridge Crystallographic Data Centre
#                                CCDC 
#
#######################################################################
#
# If this CIF has been generated from an entry in the Cambridge 
# Structural Database, then it will include bibliographic, chemical, 
# crystal, experimental, refinement or atomic coordinate data resulting 
# from the CCDC's data processing and validation procedures.
#
#######################################################################

data_TIJTUD
_chemical_formula_moiety         'C21 H22 O6'
_chemical_name_systematic        
6-(4-Methoxyphenoxy)-2-(4-methoxyphenyl)-4,4a,6,8a-tetrahydropyrano[3,2-d][1,3]dioxine
_symmetry_cell_setting           triclinic
_symmetry_space_group_name_H-M   'P 1'
_symmetry_Int_Tables_number      1
_space_group_name_Hall           'P 1'
loop_
_symmetry_equiv_pos_site_id
_symmetry_equiv_pos_as_xyz
1 x,y,z
_cell_length_a                   4.8815(5)
_cell_length_b                   9.5127(12)
_cell_length_c                   10.3758(13)
_cell_angle_alpha                111.768(3)
_cell_angle_beta                 92.914(4)
_cell_angle_gamma                92.398(3)
_cell_volume                     445.92
_exptl_crystal_colour            colorless
_exptl_crystal_description       block
_cell_formula_units_Z            1
loop_
_atom_site_label
_atom_site_type_symbol
_atom_site_fract_x
_atom_site_fract_y
_atom_site_fract_z
C1 C 1.3484(6) 0.3880(3) -0.6093(3)
H1 H 1.2491 0.3145 -0.5800
H2 H 1.5171 0.4280 -0.5489
H3 H 1.3955 0.3380 -0.7058
C2 C 1.0789(5) 0.5877(2) -0.4743(2)
C3 C 0.8847(5) 0.6902(3) -0.4754(2)
H4 H 0.8315 0.7020 -0.5600
C4 C 0.7683(5) 0.7752(3) -0.3541(2)
H5 H 0.6320 0.8428 -0.3564
C5 C 0.8507(5) 0.7619(3) -0.2284(2)
C6 C 1.0462(5) 0.6610(3) -0.2280(2)
H6 H 1.1028 0.6514 -0.1429
C7 C 1.1620(5) 0.5731(3) -0.3495(2)
H7 H 1.2959 0.5042 -0.3474
C8 C 0.7228(5) 0.8552(3) -0.0980(2)
H8 H 0.5560 0.9003 -0.1224
C9 C 0.8080(5) 1.0703(3) 0.1134(2)
H9 H 0.6518 1.1231 0.0919
H10 H 0.9514 1.1477 0.1715
C10 C 0.7127(5) 0.9714(3) 0.1903(2)
H11 H 0.8744 0.9259 0.2191
C11 C 0.5123(5) 0.8466(3) 0.0943(2)
H12 H 0.3521 0.8930 0.0654
C12 C 0.4127(5) 0.7503(3) 0.1705(2)
H13 H 0.3476 0.6477 0.1207
C13 C 0.4161(5) 0.8092(3) 0.3075(2)
H14 H 0.3503 0.7473 0.3547
C14 C 0.5201(5) 0.9707(3) 0.3925(2)
H15 H 0.6893 0.9708 0.4511
C15 C 0.3973(5) 1.1286(3) 0.6173(2)
C16 C 0.6100(5) 1.2387(3) 0.6555(2)
H16 H 0.7075 1.2573 0.5859
C17 C 0.6834(5) 1.3232(3) 0.7954(2)
H17 H 0.8300 1.3995 0.8216
C18 C 0.5394(5) 1.2946(2) 0.8964(2)
C19 C 0.3239(5) 1.1842(3) 0.8577(2)
H18 H 0.2248 1.1657 0.9269
C20 C 0.2530(5) 1.1011(3) 0.7183(2)
H19 H 0.1056 1.0254 0.6918
C21 C 0.8433(5) 1.4648(3) 1.0818(3)
H20 H 0.8341 1.5492 1.0495
H21 H 0.9988 1.4050 1.0428
H22 H 0.8680 1.5048 1.1836
O1 O 1.1788(4) 0.50950(18) -0.59964(16)
O2 O 0.9174(3) 0.97313(18) -0.01365(16)
O3 O 0.6460(3) 0.75909(17) -0.02661(15)
O4 O 0.5775(3) 1.05831(18) 0.31010(16)
O5 O 0.3123(3) 1.04145(19) 0.47933(16)
O6 O 0.5938(4) 1.37053(19) 1.03732(16)
loop_
_geom_bond_atom_site_label_1
_geom_bond_atom_site_label_2
_geom_bond_site_symmetry_1
_geom_bond_site_symmetry_2
C1 H1 1_555 1_555
H2 C1 1_555 1_555
H3 C1 1_555 1_555
C2 C3 1_555 1_555
C3 H4 1_555 1_555
C4 C3 1_555 1_555
H5 C4 1_555 1_555
C5 C4 1_555 1_555
C6 C5 1_555 1_555
H6 C6 1_555 1_555
C7 C2 1_555 1_555
H7 C7 1_555 1_555
C8 C5 1_555 1_555
H8 C8 1_555 1_555
C9 H9 1_555 1_555
H10 C9 1_555 1_555
C10 C9 1_555 1_555
H11 C10 1_555 1_555
C11 C10 1_555 1_555
H12 C11 1_555 1_555
C12 C11 1_555 1_555
H13 C12 1_555 1_555
C13 C12 1_555 1_555
H14 C13 1_555 1_555
C14 C13 1_555 1_555
H15 C14 1_555 1_555
C15 C16 1_555 1_555
C16 H16 1_555 1_555
C17 C16 1_555 1_555
H17 C17 1_555 1_555
C18 C17 1_555 1_555
C19 C18 1_555 1_555
H18 C19 1_555 1_555
C20 C15 1_555 1_555
H19 C20 1_555 1_555
C21 H20 1_555 1_555
H21 C21 1_555 1_555
H22 C21 1_555 1_555
O1 C1 1_555 1_555
O2 C8 1_555 1_555
O3 C8 1_555 1_555
O4 C10 1_555 1_555
O5 C14 1_555 1_555
O6 C18 1_555 1_555
C2 O1 1_555 1_555
C6 C7 1_555 1_555
C9 O2 1_555 1_555
C11 O3 1_555 1_555
C14 O4 1_555 1_555
C15 O5 1_555 1_555
C19 C20 1_555 1_555
C21 O6 1_555 1_555

#END
