
#######################################################################
#
#                 Cambridge Crystallographic Data Centre
#                                CCDC 
#
#######################################################################
#
# If this CIF has been generated from an entry in the Cambridge 
# Structural Database, then it will include bibliographic, chemical, 
# crystal, experimental, refinement or atomic coordinate data resulting 
# from the CCDC's data processing and validation procedures.
#
#######################################################################

data_TIJZIV
_chemical_compound_source        'fruit of Melicope ellyrana'
_chemical_name_common            
4',5-Dihydroxy-3,3',8-trimethoxy-7-(3-methylbut-2-enyloxy)flavone
_chemical_formula_moiety         'C23 H24 O8'
_chemical_name_systematic        
5-Hydroxy-2-(4-hydroxy-3-methoxyphenyl)-3,8-dimethoxy-7-(3-methylbut-2-enyloxy)-4H-1-benzopyran-4-one
_symmetry_cell_setting           triclinic
_symmetry_space_group_name_H-M   'P -1'
_symmetry_Int_Tables_number      2
_space_group_name_Hall           '-P 1'
loop_
_symmetry_equiv_pos_site_id
_symmetry_equiv_pos_as_xyz
1 x,y,z
2 -x,-y,-z
_cell_length_a                   12.291(5)
_cell_length_b                   13.075(5)
_cell_length_c                   7.099(3)
_cell_angle_alpha                93.85(5)
_cell_angle_beta                 104.33(4)
_cell_angle_gamma                111.52(3)
_cell_volume                     1012.38
_exptl_crystal_colour            yellow
_exptl_crystal_description       prism
_cell_formula_units_Z            2
_exptl_crystal_recrystallization_method 'ethyl acetate'
loop_
_atom_site_label
_atom_site_type_symbol
_atom_site_fract_x
_atom_site_fract_y
_atom_site_fract_z
O1 O 0.4223(2) 0.03091(19) 0.7148(4)
O2 O 0.7498(2) 0.1101(2) 0.9082(4)
O3 O 0.7320(2) 0.3132(2) 0.9353(4)
O4 O 0.6002(2) 0.4297(2) 0.9128(5)
O5 O 0.1660(2) 0.2245(2) 0.6717(4)
O6 O 0.1964(2) 0.0345(2) 0.5843(4)
O7 O 0.4692(3) -0.4288(2) 0.6347(5)
O8 O 0.6955(3) -0.2726(2) 0.7537(5)
C1 C 0.5336(3) 0.0236(3) 0.7676(5)
C2 C 0.6379(3) 0.1166(3) 0.8400(5)
C3 C 0.6353(4) 0.2267(3) 0.8677(5)
C4 C 0.5172(3) 0.2307(3) 0.8167(5)
C5 C 0.4999(4) 0.3315(3) 0.8430(6)
C6 C 0.3852(4) 0.3316(3) 0.7983(6)
C7 C 0.2830(3) 0.2322(3) 0.7211(5)
C8 C 0.2965(3) 0.1307(3) 0.6872(5)
C9 C 0.4119(3) 0.1318(3) 0.7402(5)
C10 C 0.5197(3) -0.0950(3) 0.7339(5)
C11 C 0.4030(3) -0.1796(3) 0.6737(6)
C12 C 0.8331(4) 0.1554(4) 0.7951(7)
C13 C 0.3868(4) -0.2908(3) 0.6400(6)
C14 C 0.4867(4) -0.3177(3) 0.6693(6)
C15 C 0.6040(4) -0.2347(3) 0.7301(6)
C16 C 0.6202(3) -0.1242(3) 0.7626(5)
C17 C 0.1444(4) 0.3265(3) 0.6974(6)
C18 C 0.1579(4) 0.3862(3) 0.5292(7)
C19 C 0.0691(4) 0.3937(3) 0.3880(6)
C20 C 0.1175(4) -0.0233(4) 0.6933(7)
C21 C 0.8180(4) -0.1927(4) 0.8194(6)
C22 C -0.0636(5) 0.3422(4) 0.3712(8)
C23 C 0.0984(5) 0.4556(4) 0.2252(9)
H1 H 0.6798 0.4180 0.9669
H2 H 0.3753 0.3997 0.8201
H3 H 0.3345 -0.1597 0.6543
H4 H 0.3066 -0.3482 0.5970
H5 H 0.5612 -0.4226 0.6715
H6 H 0.7001 -0.0660 0.8039
H7 H 0.2389 0.4232 0.5219
H8 H 0.8065 0.1069 0.6721
H9 H 0.8352 0.2268 0.7721
H10 H 0.9127 0.1625 0.8660
H11 H 0.8320 -0.1507 0.9438
H12 H 0.8319 -0.1441 0.7264
H13 H 0.8722 -0.2300 0.8322
H14 H 0.0638 0.3076 0.7069
H15 H 0.2018 0.3740 0.8155
H16 H -0.0774 0.3711 0.4854
H17 H -0.1089 0.3589 0.2574
H18 H -0.0894 0.2634 0.3605
H19 H 0.1521 0.5311 0.2795
H20 H 0.1365 0.4217 0.1551
H21 H 0.0250 0.4535 0.1374
H22 H 0.0568 -0.0910 0.6129
H23 H 0.0791 0.0220 0.7334
H24 H 0.1637 -0.0397 0.8068
loop_
_geom_bond_atom_site_label_1
_geom_bond_atom_site_label_2
_geom_bond_site_symmetry_1
_geom_bond_site_symmetry_2
O1 C1 1_555 1_555
O2 C2 1_555 1_555
O3 C3 1_555 1_555
O4 C5 1_555 1_555
O5 C7 1_555 1_555
O6 C8 1_555 1_555
O7 C14 1_555 1_555
O8 C15 1_555 1_555
C1 C2 1_555 1_555
C2 C3 1_555 1_555
C3 C4 1_555 1_555
C4 C5 1_555 1_555
C5 C6 1_555 1_555
C6 C7 1_555 1_555
C7 C8 1_555 1_555
C8 C9 1_555 1_555
C9 O1 1_555 1_555
C10 C1 1_555 1_555
C11 C10 1_555 1_555
C12 O2 1_555 1_555
C13 C11 1_555 1_555
C14 C13 1_555 1_555
C15 C14 1_555 1_555
C16 C10 1_555 1_555
C17 O5 1_555 1_555
C18 C17 1_555 1_555
C19 C18 1_555 1_555
C20 O6 1_555 1_555
C21 O8 1_555 1_555
C22 C19 1_555 1_555
C23 C19 1_555 1_555
H1 O4 1_555 1_555
H2 C6 1_555 1_555
H3 C11 1_555 1_555
H4 C13 1_555 1_555
H5 O7 1_555 1_555
H6 C16 1_555 1_555
H7 C18 1_555 1_555
H8 C12 1_555 1_555
H9 C12 1_555 1_555
H10 C12 1_555 1_555
H11 C21 1_555 1_555
H12 C21 1_555 1_555
H13 C21 1_555 1_555
H14 C17 1_555 1_555
H15 C17 1_555 1_555
H16 C22 1_555 1_555
H17 C22 1_555 1_555
H18 C22 1_555 1_555
H19 C23 1_555 1_555
H20 C23 1_555 1_555
H21 C23 1_555 1_555
H22 C20 1_555 1_555
H23 C20 1_555 1_555
H24 C20 1_555 1_555
C4 C9 1_555 1_555
C15 C16 1_555 1_555

#END
