
#######################################################################
#
#                 Cambridge Crystallographic Data Centre
#                                CCDC 
#
#######################################################################
#
# If this CIF has been generated from an entry in the Cambridge 
# Structural Database, then it will include bibliographic, chemical, 
# crystal, experimental, refinement or atomic coordinate data resulting 
# from the CCDC's data processing and validation procedures.
#
#######################################################################

data_TIKBOE
_chemical_formula_moiety         'C22 H21 N2 1+,I1 1-'
_chemical_name_systematic        
'(E)-4-(9-Ethylcarbazol-3-ylvinyl)-N-methylpyridinium iodide'
_symmetry_cell_setting           triclinic
_symmetry_space_group_name_H-M   'P -1'
_symmetry_Int_Tables_number      2
_space_group_name_Hall           '-P 1'
loop_
_symmetry_equiv_pos_site_id
_symmetry_equiv_pos_as_xyz
1 x,y,z
2 -x,-y,-z
_cell_length_a                   7.554(2)
_cell_length_b                   16.046(6)
_cell_length_c                   16.295(5)
_cell_angle_alpha                82.27(3)
_cell_angle_beta                 87.36(2)
_cell_angle_gamma                87.42(3)
_cell_volume                     1953.61
_exptl_crystal_colour            yellow
_exptl_crystal_description       needle
_chemical_melting_point          578K
_cell_formula_units_Z            4
_exptl_crystal_recrystallization_method acetonitrile
loop_
_atom_site_label
_atom_site_type_symbol
_atom_site_fract_x
_atom_site_fract_y
_atom_site_fract_z
I1 I 0.36199(3) 0.918785(14) 0.184615(12)
N1 N 0.4388(3) 0.71476(17) 0.39461(15)
N2 N -0.1844(3) 0.81231(17) 0.98128(15)
C1 C 0.4207(4) 0.7963(2) 0.40724(19)
H1 H 0.4585 0.8392 0.3650
C2 C 0.3483(4) 0.8174(2) 0.48051(19)
H2 H 0.3377 0.8749 0.4889
C3 C 0.2888(4) 0.7545(2) 0.54400(18)
C4 C 0.3133(5) 0.6706(2) 0.5288(2)
H3 H 0.2794 0.6262 0.5703
C5 C 0.3864(5) 0.6524(2) 0.4540(2)
H4 H 0.4002 0.5955 0.4439
C6 C 0.2083(4) 0.7799(2) 0.62021(19)
H5 H 0.2063 0.8381 0.6256
C7 C 0.1366(4) 0.7282(2) 0.68358(19)
H6 H 0.1413 0.6698 0.6789
C8 C 0.0518(4) 0.7542(2) 0.75929(18)
C9 C 0.0243(4) 0.8404(2) 0.76873(19)
H7 H 0.0606 0.8815 0.7244
C10 C -0.0531(4) 0.8675(2) 0.83980(18)
H8 H -0.0713 0.9256 0.8448
C11 C -0.1035(4) 0.8039(2) 0.90449(18)
C12 C -0.0778(4) 0.7172(2) 0.89690(18)
C13 C -0.0023(4) 0.6928(2) 0.82357(18)
H9 H 0.0123 0.6348 0.8174
C14 C -0.1467(4) 0.6707(2) 0.97358(18)
C15 C -0.1610(5) 0.5847(2) 1.0031(2)
H10 H -0.1214 0.5431 0.9694
C16 C -0.2341(5) 0.5613(2) 1.0826(2)
H11 H -0.2427 0.5034 1.1035
C17 C -0.2951(5) 0.6230(2) 1.1319(2)
H12 H -0.3433 0.6058 1.1861
C18 C -0.2867(4) 0.7090(2) 1.10334(19)
H13 H -0.3309 0.7504 1.1364
C19 C -0.2106(4) 0.7316(2) 1.02402(18)
C20 C 0.5187(5) 0.6932(2) 0.31522(19)
H14 H 0.4655 0.6425 0.3015
H15 H 0.6468 0.6828 0.3204
H16 H 0.4967 0.7400 0.2712
C21 C -0.2402(4) 0.8916(2) 1.01209(19)
H17 H -0.3584 0.8853 1.0406
H18 H -0.2513 0.9366 0.9645
C22 C -0.1095(5) 0.9174(2) 1.0720(2)
H19 H -0.1547 0.9690 1.0931
H20 H 0.0057 0.9274 1.0430
H21 H -0.0955 0.8723 1.1185
I2 I 0.36709(10) 0.47233(4) 0.27656(3)
N3 N 0.6971(3) 0.28531(18) -0.02850(15)
N4 N 0.0910(4) 0.14567(17) 0.58059(16)
C23 C 0.6416(5) 0.3492(2) 0.0140(2)
H22 H 0.6533 0.4056 -0.0113
C24 C 0.5696(5) 0.3340(2) 0.0920(2)
H23 H 0.5325 0.3800 0.1207
C25 C 0.5489(4) 0.2505(2) 0.1316(2)
C26 C 0.6063(5) 0.1852(2) 0.0863(2)
H24 H 0.5942 0.1281 0.1097
C27 C 0.6810(5) 0.2049(2) 0.0070(2)
H25 H 0.7220 0.1606 -0.0231
C28 C 0.4684(5) 0.2398(2) 0.2164(2)
H26 H 0.4406 0.2897 0.2404
C29 C 0.4307(5) 0.1679(2) 0.2626(2)
H27 H 0.4593 0.1171 0.2400
C30 C 0.3473(5) 0.1613(2) 0.3468(2)
C31 C 0.3119(5) 0.0810(2) 0.3889(2)
H28 H 0.3459 0.0331 0.3624
C32 C 0.2293(4) 0.0684(2) 0.4673(2)
H29 H 0.2080 0.0135 0.4947
C33 C 0.1786(4) 0.1405(2) 0.50445(19)
C34 C 0.2143(4) 0.2226(2) 0.46416(19)
C35 C 0.2981(4) 0.2325(2) 0.3843(2)
H30 H 0.3207 0.2871 0.3565
C36 C 0.1476(4) 0.2809(2) 0.5197(2)
C37 C 0.1426(5) 0.3687(2) 0.5159(2)
H31 H 0.1915 0.4028 0.4688
C38 C 0.0656(5) 0.4047(3) 0.5813(3)
H32 H 0.0615 0.4642 0.5795
C39 C -0.0084(5) 0.3538(3) 0.6521(2)
H33 H -0.0620 0.3805 0.6962
C40 C -0.0045(5) 0.2661(3) 0.6588(2)
H34 H -0.0523 0.2324 0.7064
C41 C 0.0741(4) 0.2308(2) 0.5915(2)
C42 C 0.7766(5) 0.3055(3) -0.11310(19)
H35 H 0.7685 0.2571 -0.1434
H36 H 0.9015 0.3184 -0.1097
H37 H 0.7126 0.3544 -0.1422
C43 C 0.0529(4) 0.0743(2) 0.64429(19)
H38 H 0.0256 0.0249 0.6173
H39 H -0.0524 0.0887 0.6788
C44 C 0.2115(5) 0.0519(2) 0.6996(2)
H40 H 0.1777 0.0097 0.7462
H41 H 0.2481 0.1026 0.7207
H42 H 0.3103 0.0291 0.6671
I3? I 0.3110(6) 0.4804(2) 0.2392(2)
loop_
_geom_bond_atom_site_label_1
_geom_bond_atom_site_label_2
_geom_bond_site_symmetry_1
_geom_bond_site_symmetry_2
N1 C1 1_555 1_555
N2 C11 1_555 1_555
C1 H1 1_555 1_555
C2 C1 1_555 1_555
H2 C2 1_555 1_555
C3 C2 1_555 1_555
C4 C3 1_555 1_555
H3 C4 1_555 1_555
C5 N1 1_555 1_555
H4 C5 1_555 1_555
C6 C3 1_555 1_555
H5 C6 1_555 1_555
C7 C6 1_555 1_555
H6 C7 1_555 1_555
C8 C7 1_555 1_555
C9 C8 1_555 1_555
H7 C9 1_555 1_555
C10 C9 1_555 1_555
H8 C10 1_555 1_555
C11 C10 1_555 1_555
C12 C11 1_555 1_555
C13 C8 1_555 1_555
H9 C13 1_555 1_555
C14 C12 1_555 1_555
C15 C14 1_555 1_555
H10 C15 1_555 1_555
C16 C15 1_555 1_555
H11 C16 1_555 1_555
C17 C16 1_555 1_555
H12 C17 1_555 1_555
C18 C17 1_555 1_555
H13 C18 1_555 1_555
C19 N2 1_555 1_555
C20 N1 1_555 1_555
H14 C20 1_555 1_555
H15 C20 1_555 1_555
H16 C20 1_555 1_555
C21 N2 1_555 1_555
H17 C21 1_555 1_555
H18 C21 1_555 1_555
C22 C21 1_555 1_555
H19 C22 1_555 1_555
H20 C22 1_555 1_555
H21 C22 1_555 1_555
N3 C23 1_555 1_555
N4 C33 1_555 1_555
C23 H22 1_555 1_555
C24 C23 1_555 1_555
H23 C24 1_555 1_555
C25 C24 1_555 1_555
C26 C25 1_555 1_555
H24 C26 1_555 1_555
C27 N3 1_555 1_555
H25 C27 1_555 1_555
C28 C25 1_555 1_555
H26 C28 1_555 1_555
C29 C28 1_555 1_555
H27 C29 1_555 1_555
C30 C29 1_555 1_555
C31 C30 1_555 1_555
H28 C31 1_555 1_555
C32 C31 1_555 1_555
H29 C32 1_555 1_555
C33 C32 1_555 1_555
C34 C33 1_555 1_555
C35 C30 1_555 1_555
H30 C35 1_555 1_555
C36 C34 1_555 1_555
C37 C36 1_555 1_555
H31 C37 1_555 1_555
C38 C37 1_555 1_555
H32 C38 1_555 1_555
C39 C38 1_555 1_555
H33 C39 1_555 1_555
C40 C39 1_555 1_555
H34 C40 1_555 1_555
C41 N4 1_555 1_555
C42 N3 1_555 1_555
H35 C42 1_555 1_555
H36 C42 1_555 1_555
H37 C42 1_555 1_555
C43 N4 1_555 1_555
H38 C43 1_555 1_555
H39 C43 1_555 1_555
C44 C43 1_555 1_555
H40 C44 1_555 1_555
H41 C44 1_555 1_555
H42 C44 1_555 1_555
C4 C5 1_555 1_555
C12 C13 1_555 1_555
C14 C19 1_555 1_555
C18 C19 1_555 1_555
C26 C27 1_555 1_555
C34 C35 1_555 1_555
C36 C41 1_555 1_555
C40 C41 1_555 1_555

#END
