
#######################################################################
#
#                 Cambridge Crystallographic Data Centre
#                                CCDC 
#
#######################################################################
#
# If this CIF has been generated from an entry in the Cambridge 
# Structural Database, then it will include bibliographic, chemical, 
# crystal, experimental, refinement or atomic coordinate data resulting 
# from the CCDC's data processing and validation procedures.
#
#######################################################################

data_TIKLOQ
_chemical_formula_moiety         'C17 H15 Br1 O3'
_chemical_name_systematic        
2-(4-Bromophenyl)-2-hydroxy-3,3-dimethyl-2,3-dihydro-4H-chromen-4-one
_symmetry_cell_setting           orthorhombic
_symmetry_space_group_name_H-M   'P n a 21'
_symmetry_Int_Tables_number      33
_space_group_name_Hall           'P 2c -2n'
loop_
_symmetry_equiv_pos_site_id
_symmetry_equiv_pos_as_xyz
1 x,y,z
2 -x,-y,1/2+z
3 1/2-x,1/2+y,1/2+z
4 1/2+x,1/2-y,z
_cell_length_a                   20.3242(9)
_cell_length_b                   8.4267(4)
_cell_length_c                   9.2276(5)
_cell_angle_alpha                90
_cell_angle_beta                 90
_cell_angle_gamma                90
_cell_volume                     1580.37
_cell_formula_units_Z            4
loop_
_atom_site_label
_atom_site_type_symbol
_atom_site_fract_x
_atom_site_fract_y
_atom_site_fract_z
Br1 Br 0.99431(3) 0.28542(5) -0.44904(7)
O1 O 0.71922(14) 0.2213(3) 0.3571(3)
O2 O 0.71285(10) 0.3099(2) -0.0746(3)
O3 O 0.77177(10) 0.4859(2) 0.0679(2)
H1 H 0.7715 0.5539 0.0043
C1 C 0.59703(19) 0.2976(4) 0.2279(5)
H2 H 0.5965 0.2823 0.3277
C2 C 0.5402(2) 0.3304(5) 0.1574(6)
H3 H 0.5010 0.3390 0.2090
C3 C 0.54023(17) 0.3509(5) 0.0102(6)
H4 H 0.5008 0.3708 -0.0377
C4 C 0.59840(16) 0.3424(4) -0.0685(5)
H5 H 0.5984 0.3561 -0.1685
C5 C 0.65630(15) 0.3131(4) 0.0052(4)
C6 C 0.65615(18) 0.2867(4) 0.1530(4)
C7 C 0.71763(19) 0.2439(3) 0.2271(4)
C8 C 0.77719(18) 0.2163(4) 0.1313(4)
C9 C 0.8405(2) 0.2408(5) 0.2176(5)
H6 H 0.8777 0.2208 0.1563
H7 H 0.8413 0.1690 0.2984
H8 H 0.8422 0.3481 0.2524
C10 C 0.77324(19) 0.0441(4) 0.0766(5)
H9 H 0.7338 0.0305 0.0207
H10 H 0.7726 -0.0270 0.1578
H11 H 0.8108 0.0216 0.0170
C11 C 0.77325(13) 0.3358(3) 0.0044(3)
C12 C 0.82694(15) 0.3214(3) -0.1081(3)
C13 C 0.88463(14) 0.4072(4) -0.0928(4)
H12 H 0.8900 0.4733 -0.0129
C14 C 0.93389(15) 0.3963(4) -0.1932(4)
H13 H 0.9726 0.4539 -0.1818
C15 C 0.92550(17) 0.2998(4) -0.3100(4)
C16 C 0.86988(18) 0.2122(4) -0.3288(4)
H14 H 0.8653 0.1458 -0.4087
C17 C 0.82061(17) 0.2241(4) -0.2273(4)
H15 H 0.7823 0.1653 -0.2392
loop_
_geom_bond_atom_site_label_1
_geom_bond_atom_site_label_2
_geom_bond_site_symmetry_1
_geom_bond_site_symmetry_2
Br1 C15 1_555 1_555
O1 C7 1_555 1_555
O2 C5 1_555 1_555
O3 H1 1_555 1_555
C1 H2 1_555 1_555
C2 C1 1_555 1_555
H3 C2 1_555 1_555
C3 C2 1_555 1_555
H4 C3 1_555 1_555
C4 C3 1_555 1_555
H5 C4 1_555 1_555
C5 C4 1_555 1_555
C6 C1 1_555 1_555
C7 C6 1_555 1_555
C8 C7 1_555 1_555
C9 C8 1_555 1_555
H6 C9 1_555 1_555
H7 C9 1_555 1_555
H8 C9 1_555 1_555
C10 C8 1_555 1_555
H9 C10 1_555 1_555
H10 C10 1_555 1_555
H11 C10 1_555 1_555
C11 O2 1_555 1_555
C12 C11 1_555 1_555
C13 C12 1_555 1_555
H12 C13 1_555 1_555
C14 C13 1_555 1_555
H13 C14 1_555 1_555
C15 C14 1_555 1_555
C16 C15 1_555 1_555
H14 C16 1_555 1_555
C17 C12 1_555 1_555
H15 C17 1_555 1_555
O3 C11 1_555 1_555
C5 C6 1_555 1_555
C8 C11 1_555 1_555
C16 C17 1_555 1_555

#END
