
#######################################################################
#
#                 Cambridge Crystallographic Data Centre
#                                CCDC 
#
#######################################################################
#
# If this CIF has been generated from an entry in the Cambridge 
# Structural Database, then it will include bibliographic, chemical, 
# crystal, experimental, refinement or atomic coordinate data resulting 
# from the CCDC's data processing and validation procedures.
#
#######################################################################

data_TIKRIR
_chemical_formula_moiety         'C105 H150 O10,1.03(C2 H3 N1),1.78(C1 H2 Cl2)'
_chemical_name_systematic        
'4,9,14,19,24,26,28,30,32,34-decakis(cyclohexylmethoxy)hexacyclo[21.2.2.2^3,6^.2^8,11^.2^13,16^.2^18,21^]pentatriaconta-1(25),3,5,8,10,13,15,18,20,23,26,28,30,32,34-pentadecaene acetontirile dichloromethane solvate'
_symmetry_cell_setting           monoclinic
_symmetry_space_group_name_H-M   'P 21/c'
_symmetry_Int_Tables_number      14
_space_group_name_Hall           '-P 2ybc'
loop_
_symmetry_equiv_pos_site_id
_symmetry_equiv_pos_as_xyz
1 x,y,z
2 -x,1/2+y,1/2-z
3 -x,-y,-z
4 x,1/2-y,1/2+z
_cell_length_a                   23.7051(2)
_cell_length_b                   16.51019(17)
_cell_length_c                   25.9498(2)
_cell_angle_alpha                90
_cell_angle_beta                 92.3922(9)
_cell_angle_gamma                90
_cell_volume                     10147.3
_exptl_crystal_colour            colorless
_exptl_crystal_description       prism
_cell_formula_units_Z            4
loop_
_atom_site_label
_atom_site_type_symbol
_atom_site_fract_x
_atom_site_fract_y
_atom_site_fract_z
O1 O 0.09134(6) 0.84484(8) 0.07607(5)
O2 O 0.15074(6) 0.54296(8) 0.00378(5)
O3 O 0.16242(6) 0.80142(8) 0.26811(5)
O4 O 0.02569(6) 0.56866(8) 0.17346(5)
O5 O 0.35660(6) 0.74385(8) 0.31334(5)
O6 O 0.19707(6) 0.50090(8) 0.28892(5)
O7 O 0.40541(6) 0.75997(8) 0.12743(5)
O8 O 0.41107(6) 0.45695(8) 0.21865(5)
O9 O 0.27623(6) 0.80367(8) -0.02705(5)
O10 O 0.35346(6) 0.50111(8) 0.03331(5)
C1 C 0.10656(8) 0.77142(11) 0.05623(7)
C2 C 0.08187(8) 0.70394(11) 0.07827(7)
C3 C 0.09762(8) 0.62741(11) 0.06173(7)
H1 H 0.082142 0.580873 0.077379
C4 C 0.13550(8) 0.61758(11) 0.02281(7)
C5 C 0.15932(8) 0.68523(11) -0.00025(7)
C6 C 0.14470(8) 0.76190(11) 0.01709(7)
H2 H 0.160908 0.808449 0.002083
C7 C 0.10201(9) 0.91667(12) 0.04764(8)
H3 H 0.089743 0.909564 0.010983
H4 H 0.142838 0.929499 0.049463
C8 C 0.06864(9) 0.98432(12) 0.07188(8)
H5 H 0.075136 1.034858 0.051727
C9 C 0.00520(9) 0.96748(13) 0.06940(8)
H6 H -0.002433 0.917242 0.088740
H7 H -0.007768 0.959031 0.033043
C10 C -0.02772(11) 1.03758(15) 0.09215(10)
H8 H -0.022525 1.086947 0.071220
H9 H -0.068472 1.024277 0.091061
C11 C -0.00759(11) 1.05356(15) 0.14737(9)
H10 H -0.016568 1.006204 0.168951
H11 H -0.027869 1.101056 0.160734
C12 C 0.05555(11) 1.06938(14) 0.15146(9)
H12 H 0.067691 1.075552 0.188216
H13 H 0.063940 1.120647 0.133535
C13 C 0.08875(10) 1.00031(13) 0.12770(9)
H14 H 0.129395 1.014304 0.128764
H15 H 0.084122 0.950471 0.148317
C14 C 0.12683(9) 0.47358(12) 0.02750(8)
H16 H 0.085228 0.478975 0.027285
H17 H 0.141131 0.469486 0.063799
C15 C 0.14265(9) 0.39803(12) -0.00176(8)
H18 H 0.184314 0.398595 -0.006394
C16 C 0.11259(10) 0.39493(13) -0.05478(8)
H19 H 0.071455 0.400959 -0.050761
H20 H 0.125393 0.441020 -0.075712
C17 C 0.12363(12) 0.31624(14) -0.08323(9)
H21 H 0.101252 0.315612 -0.116299
H22 H 0.164084 0.313087 -0.091091
C18 C 0.10793(12) 0.24318(14) -0.05108(10)
H23 H 0.066735 0.243388 -0.046212
H24 H 0.117381 0.192908 -0.069641
C19 C 0.13900(11) 0.24418(13) 0.00098(10)
H25 H 0.180019 0.238345 -0.003772
H26 H 0.126534 0.197653 0.021715
C20 C 0.12800(11) 0.32304(13) 0.02995(9)
H27 H 0.150849 0.323377 0.062763
H28 H 0.087696 0.325447 0.038416
C21 C 0.03933(8) 0.71269(11) 0.11994(7)
H29 H 0.023036 0.767899 0.118572
H30 H 0.008219 0.673477 0.113604
C22 C 0.12906(8) 0.74403(11) 0.24326(7)
C23 C 0.12541(8) 0.66857(11) 0.26771(7)
C24 C 0.09094(8) 0.60957(11) 0.24452(7)
H31 H 0.087491 0.558421 0.260858
C25 C 0.06146(8) 0.62387(11) 0.19798(7)
C26 C 0.06659(8) 0.69791(11) 0.17289(7)
C27 C 0.10014(8) 0.75757(11) 0.19646(7)
H32 H 0.103313 0.808775 0.180125
C28 C 0.16595(9) 0.87869(11) 0.24362(7)
H33 H 0.128364 0.904938 0.242069
H34 H 0.178358 0.871875 0.207927
C29 C 0.20781(8) 0.93117(11) 0.27410(7)
H35 H 0.245329 0.903387 0.275224
C30 C 0.19059(9) 0.94517(13) 0.32929(8)
H36 H 0.189373 0.892491 0.347439
H37 H 0.152164 0.968719 0.328728
C31 C 0.23129(9) 1.00181(13) 0.35896(8)
H38 H 0.217136 1.012040 0.393722
H39 H 0.268741 0.975549 0.363220
C32 C 0.23732(10) 1.08193(13) 0.33073(9)
H40 H 0.266147 1.115613 0.349272
H41 H 0.200970 1.111465 0.330549
C33 C 0.25447(10) 1.06897(13) 0.27541(9)
H42 H 0.293024 1.045901 0.275653
H43 H 0.255180 1.121837 0.257440
C34 C 0.21371(10) 1.01200(12) 0.24605(8)
H44 H 0.227608 1.002021 0.211162
H45 H 0.176189 1.038124 0.242040
C35 C 0.02100(9) 0.48981(12) 0.19503(8)
H46 H 0.004028 0.493022 0.229184
H47 H 0.058810 0.464689 0.199528
C36 C -0.01618(8) 0.43962(12) 0.15830(8)
H48 H -0.054533 0.464887 0.155820
C37 C -0.02200(9) 0.35357(12) 0.17906(8)
H49 H 0.016095 0.330252 0.185649
H50 H -0.040966 0.355568 0.212307
C38 C -0.05566(9) 0.29862(13) 0.14182(9)
H51 H -0.055876 0.242864 0.155837
H52 H -0.095221 0.317804 0.138662
C39 C -0.03082(10) 0.29760(13) 0.08884(9)
H53 H -0.054854 0.264186 0.065068
H54 H 0.007309 0.273065 0.091224
C40 C -0.02701(10) 0.38347(13) 0.06771(8)
H55 H -0.009159 0.382138 0.033899
H56 H -0.065506 0.406003 0.062336
C41 C 0.00737(9) 0.43799(12) 0.10455(8)
H57 H 0.046886 0.418514 0.107013
H58 H 0.007554 0.493732 0.090491
C42 C 0.15811(8) 0.65221(11) 0.31829(7)
H59 H 0.154577 0.699655 0.341262
H60 H 0.141213 0.605032 0.335435
C43 C 0.31711(8) 0.68196(11) 0.31024(7)
C44 C 0.33534(8) 0.60570(11) 0.29561(7)
C45 C 0.29517(8) 0.54460(11) 0.28820(7)
H61 H 0.306930 0.492259 0.277878
C46 C 0.23842(8) 0.55875(11) 0.29559(7)
C47 C 0.22008(8) 0.63555(11) 0.31096(7)
C48 C 0.26016(8) 0.69610(11) 0.31821(7)
H62 H 0.248556 0.748354 0.328845
C49 C 0.35919(10) 0.78868(13) 0.36015(8)
H63 H 0.368647 0.752146 0.389506
H64 H 0.322075 0.813869 0.365896
C50 C 0.40399(8) 0.85372(12) 0.35668(7)
H65 H 0.440843 0.827005 0.350034
C51 C 0.40951(10) 0.89750(15) 0.40865(8)
H66 H 0.372093 0.918586 0.417673
H67 H 0.422117 0.858477 0.435715
C52 C 0.45137(10) 0.96731(14) 0.40741(9)
H68 H 0.452381 0.995757 0.441023
H69 H 0.489619 0.945743 0.401898
C53 C 0.43523(10) 1.02659(13) 0.36484(10)
H70 H 0.463793 1.070266 0.364090
H71 H 0.398368 1.051566 0.371876
C54 C 0.43129(10) 0.98424(13) 0.31264(9)
H72 H 0.469150 0.964460 0.303932
H73 H 0.418494 1.023460 0.285762
C55 C 0.39021(9) 0.91298(13) 0.31302(8)
H74 H 0.351409 0.933871 0.316514
H75 H 0.391279 0.883981 0.279680
C56 C 0.21471(8) 0.42245(11) 0.27280(8)
H76 H 0.238972 0.397042 0.300254
H77 H 0.236751 0.427096 0.241364
C57 C 0.16269(8) 0.37096(11) 0.26180(7)
H78 H 0.137855 0.400120 0.235816
C58 C 0.12866(9) 0.35627(13) 0.30964(8)
H79 H 0.152653 0.328318 0.336240
H80 H 0.116881 0.408892 0.323989
C59 C 0.07653(9) 0.30494(13) 0.29654(8)
H81 H 0.050285 0.336120 0.273452
H82 H 0.056906 0.292925 0.328601
C60 C 0.09155(10) 0.22517(14) 0.27020(10)
H83 H 0.112042 0.189786 0.295455
H84 H 0.056346 0.197069 0.258698
C61 C 0.12800(10) 0.23854(13) 0.22391(9)
H85 H 0.105281 0.265799 0.196120
H86 H 0.140307 0.185457 0.210639
C62 C 0.17990(9) 0.29007(12) 0.23813(9)
H87 H 0.201335 0.300379 0.206858
H88 H 0.204820 0.260209 0.263111
C63 C 0.39622(8) 0.58957(12) 0.28385(7)
H89 H 0.406871 0.534114 0.295031
H90 H 0.421070 0.628392 0.302986
C64 C 0.40660(8) 0.68538(11) 0.15148(7)
C65 C 0.41394(8) 0.61857(12) 0.11953(7)
C66 C 0.41458(8) 0.54151(12) 0.14160(7)
H91 H 0.418315 0.495305 0.120192
C67 C 0.40983(8) 0.53121(11) 0.19447(7)
C68 C 0.40386(8) 0.59841(12) 0.22643(7)
C69 C 0.40198(8) 0.67520(12) 0.20435(7)
H92 H 0.397469 0.721323 0.225680
C70 C 0.40719(10) 0.83049(12) 0.15915(8)
H93 H 0.436744 0.824510 0.186992
H94 H 0.370399 0.838281 0.175164
C71 C 0.42022(11) 0.90277(13) 0.12556(8)
H95 H 0.388702 0.909462 0.099069
C72 C 0.47556(11) 0.89103(15) 0.09764(9)
H96 H 0.506408 0.879409 0.123471
H97 H 0.471648 0.843563 0.074455
C73 C 0.49143(13) 0.96482(18) 0.06615(11)
H98 H 0.527747 0.954671 0.049782
H99 H 0.462182 0.974214 0.038449
C74 C 0.49668(16) 1.03804(18) 0.09946(12)
H100 H 0.505711 1.085564 0.078054
H101 H 0.528052 1.030332 0.125394
C75 C 0.44258(19) 1.05384(17) 0.12666(13)
H102 H 0.412278 1.067813 0.100772
H103 H 0.448076 1.100764 0.150082
C76 C 0.42387(17) 0.97892(15) 0.15842(11)
H104 H 0.451265 0.970130 0.187736
H105 H 0.386531 0.989896 0.172665
C77 C 0.40822(9) 0.38523(12) 0.18787(8)
H106 H 0.442616 0.380076 0.167752
H107 H 0.374986 0.387357 0.163515
C78 C 0.40340(9) 0.31350(12) 0.22429(8)
H108 H 0.399903 0.263405 0.202732
C79 C 0.45562(9) 0.30405(14) 0.26016(9)
H109 H 0.462235 0.355197 0.279388
H110 H 0.488896 0.293949 0.239255
C80 C 0.44968(10) 0.23459(15) 0.29857(10)
H111 H 0.447491 0.182503 0.279702
H112 H 0.483384 0.232987 0.322398
C81 C 0.39689(10) 0.24523(15) 0.32949(10)
H113 H 0.393248 0.198848 0.353309
H114 H 0.400311 0.295268 0.350410
C82 C 0.34482(10) 0.25035(15) 0.29386(10)
H115 H 0.311105 0.258932 0.314465
H116 H 0.339823 0.198708 0.274822
C83 C 0.35016(9) 0.31995(14) 0.25555(9)
H117 H 0.350912 0.371901 0.274619
H118 H 0.316552 0.320298 0.231588
C84 C 0.42152(8) 0.63031(12) 0.06234(7)
H119 H 0.445875 0.678098 0.057199
H120 H 0.440898 0.582346 0.048543
C85 C 0.29587(8) 0.72994(11) -0.00948(7)
C86 C 0.26047(8) 0.66379(11) -0.01969(7)
C87 C 0.27961(8) 0.58664(11) -0.00566(7)
H121 H 0.256529 0.540861 -0.013481
C88 C 0.33189(8) 0.57573(11) 0.01956(7)
C89 C 0.36590(8) 0.64230(12) 0.03258(7)
C90 C 0.34756(8) 0.71904(11) 0.01728(7)
H122 H 0.370654 0.764764 0.025192
C91 C 0.31471(9) 0.87037(11) -0.02512(8)
H123 H 0.351397 0.853645 -0.038592
H124 H 0.321213 0.888606 0.010985
C92 C 0.28965(9) 0.93875(11) -0.05757(7)
H125 H 0.284308 0.919170 -0.093915
C93 C 0.23230(9) 0.96616(12) -0.03891(8)
H126 H 0.205213 0.920633 -0.042189
H127 H 0.236287 0.981119 -0.001993
C94 C 0.20903(10) 1.03851(13) -0.06976(9)
H128 H 0.200764 1.021780 -0.105929
H129 H 0.173237 1.056603 -0.055137
C95 C 0.25090(10) 1.10875(13) -0.06875(9)
H130 H 0.235752 1.153050 -0.091008
H131 H 0.255608 1.129859 -0.033119
C96 C 0.30808(10) 1.08232(13) -0.08747(8)
H132 H 0.335039 1.127957 -0.083836
H133 H 0.304226 1.067879 -0.124476
C97 C 0.33133(9) 1.00955(12) -0.05686(8)
H134 H 0.367054 0.991592 -0.071673
H135 H 0.339826 1.026163 -0.020708
C98 C 0.32778(9) 0.43121(12) 0.00980(8)
H136 H 0.327479 0.436132 -0.028232
H137 H 0.288322 0.425819 0.020398
C99 C 0.36196(9) 0.35779(12) 0.02723(8)
H138 H 0.364167 0.357632 0.065799
C100 C 0.42224(10) 0.36017(13) 0.00866(9)
H139 H 0.421147 0.363996 -0.029446
H140 H 0.441647 0.408968 0.022721
C101 C 0.45543(10) 0.28484(15) 0.02558(10)
H141 H 0.493467 0.286738 0.011262
H142 H 0.460081 0.284025 0.063664
C102 C 0.42522(12) 0.20817(15) 0.00720(10)
H143 H 0.446502 0.160152 0.020043
H144 H 0.423698 0.206459 -0.030963
C103 C 0.36554(12) 0.20563(14) 0.02659(10)
H145 H 0.367266 0.202636 0.064724
H146 H 0.346128 0.156388 0.013201
C104 C 0.33187(11) 0.28037(13) 0.00941(10)
H147 H 0.293952 0.278330 0.023961
H148 H 0.326952 0.280610 -0.028666
C105 C 0.20110(8) 0.67525(11) -0.04272(7)
H149 H 0.190386 0.627715 -0.064228
H150 H 0.199938 0.723811 -0.065127
Cl1 Cl 0.26074(4) 0.74410(7) 0.18755(4)
Cl2 Cl 0.25224(10) 0.87140(14) 0.10953(9)
C106 C 0.2523(9) 0.7633(8) 0.1185(4)
H151 H 0.283758 0.738460 0.100146
H152 H 0.216353 0.739826 0.104622
N2 N 0.2476(6) 0.3935(8) 0.1256(6)
C110 C 0.2532(5) 0.4586(6) 0.1307(4)
C111 C 0.2554(8) 0.5432(9) 0.1405(6)
H158 H 0.263570 0.572008 0.108677
H159 H 0.285200 0.554565 0.166863
H160 H 0.218991 0.561450 0.152831
Cl5 Cl 0.3084(2) 0.1545(5) 0.15875(12)
Cl6 Cl 0.23380(14) 0.09423(19) 0.08182(9)
C112 C 0.2411(4) 0.1710(5) 0.1277(3)
H161 H 0.210853 0.167614 0.152738
H162 H 0.239479 0.224889 0.110942
N1? N 0.2619(6) 0.8990(8) 0.1156(5)
C107? C 0.2525(7) 0.8334(8) 0.1168(6)
C108? C 0.2491(13) 0.7485(12) 0.1295(7)
H153? H 0.277148 0.718369 0.110439
H154? H 0.211237 0.728230 0.119965
H155? H 0.256660 0.741204 0.166601
Cl3? Cl 0.25699(19) 0.4165(3) 0.1252(2)
Cl4? Cl 0.19347(6) 0.55369(10) 0.16363(5)
C109? C 0.2531(14) 0.5252(16) 0.1292(10)
H156? H 0.287791 0.546493 0.146984
H157? H 0.250307 0.548581 0.094100
Cl7? Cl 0.2987(3) 0.1827(5) 0.1548(2)
Cl8? Cl 0.2124(2) 0.1343(3) 0.0897(2)
C113? C 0.2716(4) 0.0962(7) 0.1130(3)
H163? H 0.297766 0.083472 0.085374
H164? H 0.265187 0.046846 0.133633
loop_
_geom_bond_atom_site_label_1
_geom_bond_atom_site_label_2
_geom_bond_site_symmetry_1
_geom_bond_site_symmetry_2
O1 C1 1_555 1_555
O2 C4 1_555 1_555
O3 C22 1_555 1_555
O4 C25 1_555 1_555
O5 C43 1_555 1_555
O6 C46 1_555 1_555
O7 C64 1_555 1_555
O8 C67 1_555 1_555
O9 C85 1_555 1_555
O10 C88 1_555 1_555
C1 C2 1_555 1_555
C2 C3 1_555 1_555
C3 H1 1_555 1_555
C4 C3 1_555 1_555
C5 C4 1_555 1_555
C6 C1 1_555 1_555
H2 C6 1_555 1_555
C7 O1 1_555 1_555
H3 C7 1_555 1_555
H4 C7 1_555 1_555
C8 C7 1_555 1_555
H5 C8 1_555 1_555
C9 C8 1_555 1_555
H6 C9 1_555 1_555
H7 C9 1_555 1_555
C10 C9 1_555 1_555
H8 C10 1_555 1_555
H9 C10 1_555 1_555
C11 C10 1_555 1_555
H10 C11 1_555 1_555
H11 C11 1_555 1_555
C12 C11 1_555 1_555
H12 C12 1_555 1_555
H13 C12 1_555 1_555
C13 C8 1_555 1_555
H14 C13 1_555 1_555
H15 C13 1_555 1_555
C14 O2 1_555 1_555
H16 C14 1_555 1_555
H17 C14 1_555 1_555
C15 C14 1_555 1_555
H18 C15 1_555 1_555
C16 C15 1_555 1_555
H19 C16 1_555 1_555
H20 C16 1_555 1_555
C17 C16 1_555 1_555
H21 C17 1_555 1_555
H22 C17 1_555 1_555
C18 C17 1_555 1_555
H23 C18 1_555 1_555
H24 C18 1_555 1_555
C19 C18 1_555 1_555
H25 C19 1_555 1_555
H26 C19 1_555 1_555
C20 C15 1_555 1_555
H27 C20 1_555 1_555
H28 C20 1_555 1_555
C21 C2 1_555 1_555
H29 C21 1_555 1_555
H30 C21 1_555 1_555
C22 C23 1_555 1_555
C23 C24 1_555 1_555
C24 H31 1_555 1_555
C25 C24 1_555 1_555
C26 C21 1_555 1_555
C27 C22 1_555 1_555
H32 C27 1_555 1_555
C28 O3 1_555 1_555
H33 C28 1_555 1_555
H34 C28 1_555 1_555
C29 C28 1_555 1_555
H35 C29 1_555 1_555
C30 C29 1_555 1_555
H36 C30 1_555 1_555
H37 C30 1_555 1_555
C31 C30 1_555 1_555
H38 C31 1_555 1_555
H39 C31 1_555 1_555
C32 C31 1_555 1_555
H40 C32 1_555 1_555
H41 C32 1_555 1_555
C33 C32 1_555 1_555
H42 C33 1_555 1_555
H43 C33 1_555 1_555
C34 C29 1_555 1_555
H44 C34 1_555 1_555
H45 C34 1_555 1_555
C35 O4 1_555 1_555
H46 C35 1_555 1_555
H47 C35 1_555 1_555
C36 C35 1_555 1_555
H48 C36 1_555 1_555
C37 C36 1_555 1_555
H49 C37 1_555 1_555
H50 C37 1_555 1_555
C38 C37 1_555 1_555
H51 C38 1_555 1_555
H52 C38 1_555 1_555
C39 C38 1_555 1_555
H53 C39 1_555 1_555
H54 C39 1_555 1_555
C40 C39 1_555 1_555
H55 C40 1_555 1_555
H56 C40 1_555 1_555
C41 C36 1_555 1_555
H57 C41 1_555 1_555
H58 C41 1_555 1_555
C42 C23 1_555 1_555
H59 C42 1_555 1_555
H60 C42 1_555 1_555
C43 C44 1_555 1_555
C44 C45 1_555 1_555
C45 H61 1_555 1_555
C46 C45 1_555 1_555
C47 C42 1_555 1_555
C48 C43 1_555 1_555
H62 C48 1_555 1_555
C49 O5 1_555 1_555
H63 C49 1_555 1_555
H64 C49 1_555 1_555
C50 C49 1_555 1_555
H65 C50 1_555 1_555
C51 C50 1_555 1_555
H66 C51 1_555 1_555
H67 C51 1_555 1_555
C52 C51 1_555 1_555
H68 C52 1_555 1_555
H69 C52 1_555 1_555
C53 C52 1_555 1_555
H70 C53 1_555 1_555
H71 C53 1_555 1_555
C54 C53 1_555 1_555
H72 C54 1_555 1_555
H73 C54 1_555 1_555
C55 C50 1_555 1_555
H74 C55 1_555 1_555
H75 C55 1_555 1_555
C56 O6 1_555 1_555
H76 C56 1_555 1_555
H77 C56 1_555 1_555
C57 C56 1_555 1_555
H78 C57 1_555 1_555
C58 C57 1_555 1_555
H79 C58 1_555 1_555
H80 C58 1_555 1_555
C59 C58 1_555 1_555
H81 C59 1_555 1_555
H82 C59 1_555 1_555
C60 C59 1_555 1_555
H83 C60 1_555 1_555
H84 C60 1_555 1_555
C61 C60 1_555 1_555
H85 C61 1_555 1_555
H86 C61 1_555 1_555
C62 C57 1_555 1_555
H87 C62 1_555 1_555
H88 C62 1_555 1_555
C63 C44 1_555 1_555
H89 C63 1_555 1_555
H90 C63 1_555 1_555
C64 C65 1_555 1_555
C65 C66 1_555 1_555
C66 H91 1_555 1_555
C67 C66 1_555 1_555
C68 C63 1_555 1_555
C69 C64 1_555 1_555
H92 C69 1_555 1_555
C70 O7 1_555 1_555
H93 C70 1_555 1_555
H94 C70 1_555 1_555
C71 C70 1_555 1_555
H95 C71 1_555 1_555
C72 C71 1_555 1_555
H96 C72 1_555 1_555
H97 C72 1_555 1_555
C73 C72 1_555 1_555
H98 C73 1_555 1_555
H99 C73 1_555 1_555
C74 C73 1_555 1_555
H100 C74 1_555 1_555
H101 C74 1_555 1_555
C75 C74 1_555 1_555
H102 C75 1_555 1_555
H103 C75 1_555 1_555
C76 C71 1_555 1_555
H104 C76 1_555 1_555
H105 C76 1_555 1_555
C77 O8 1_555 1_555
H106 C77 1_555 1_555
H107 C77 1_555 1_555
C78 C77 1_555 1_555
H108 C78 1_555 1_555
C79 C78 1_555 1_555
H109 C79 1_555 1_555
H110 C79 1_555 1_555
C80 C79 1_555 1_555
H111 C80 1_555 1_555
H112 C80 1_555 1_555
C81 C80 1_555 1_555
H113 C81 1_555 1_555
H114 C81 1_555 1_555
C82 C81 1_555 1_555
H115 C82 1_555 1_555
H116 C82 1_555 1_555
C83 C78 1_555 1_555
H117 C83 1_555 1_555
H118 C83 1_555 1_555
C84 C65 1_555 1_555
H119 C84 1_555 1_555
H120 C84 1_555 1_555
C85 C86 1_555 1_555
C86 C87 1_555 1_555
C87 H121 1_555 1_555
C88 C87 1_555 1_555
C89 C84 1_555 1_555
C90 C85 1_555 1_555
H122 C90 1_555 1_555
C91 O9 1_555 1_555
H123 C91 1_555 1_555
H124 C91 1_555 1_555
C92 C91 1_555 1_555
H125 C92 1_555 1_555
C93 C92 1_555 1_555
H126 C93 1_555 1_555
H127 C93 1_555 1_555
C94 C93 1_555 1_555
H128 C94 1_555 1_555
H129 C94 1_555 1_555
C95 C94 1_555 1_555
H130 C95 1_555 1_555
H131 C95 1_555 1_555
C96 C95 1_555 1_555
H132 C96 1_555 1_555
H133 C96 1_555 1_555
C97 C92 1_555 1_555
H134 C97 1_555 1_555
H135 C97 1_555 1_555
C98 O10 1_555 1_555
H136 C98 1_555 1_555
H137 C98 1_555 1_555
C99 C98 1_555 1_555
H138 C99 1_555 1_555
C100 C99 1_555 1_555
H139 C100 1_555 1_555
H140 C100 1_555 1_555
C101 C100 1_555 1_555
H141 C101 1_555 1_555
H142 C101 1_555 1_555
C102 C101 1_555 1_555
H143 C102 1_555 1_555
H144 C102 1_555 1_555
C103 C102 1_555 1_555
H145 C103 1_555 1_555
H146 C103 1_555 1_555
C104 C99 1_555 1_555
H147 C104 1_555 1_555
H148 C104 1_555 1_555
C105 C5 1_555 1_555
H149 C105 1_555 1_555
H150 C105 1_555 1_555
Cl1 C106 1_555 1_555
Cl2 C106 1_555 1_555
C106 H151 1_555 1_555
H152 C106 1_555 1_555
N2 C110 1_555 1_555
C110 C111 1_555 1_555
C111 H158 1_555 1_555
H159 C111 1_555 1_555
H160 C111 1_555 1_555
Cl5 C112 1_555 1_555
Cl6 C112 1_555 1_555
C112 H161 1_555 1_555
H162 C112 1_555 1_555
C5 C6 1_555 1_555
C12 C13 1_555 1_555
C19 C20 1_555 1_555
C25 C26 1_555 1_555
C26 C27 1_555 1_555
C33 C34 1_555 1_555
C40 C41 1_555 1_555
C46 C47 1_555 1_555
C47 C48 1_555 1_555
C54 C55 1_555 1_555
C61 C62 1_555 1_555
C67 C68 1_555 1_555
C68 C69 1_555 1_555
C75 C76 1_555 1_555
C82 C83 1_555 1_555
C86 C105 1_555 1_555
C88 C89 1_555 1_555
C89 C90 1_555 1_555
C96 C97 1_555 1_555
C103 C104 1_555 1_555

#END
