
#######################################################################
#
#                 Cambridge Crystallographic Data Centre
#                                CCDC 
#
#######################################################################
#
# If this CIF has been generated from an entry in the Cambridge 
# Structural Database, then it will include bibliographic, chemical, 
# crystal, experimental, refinement or atomic coordinate data resulting 
# from the CCDC's data processing and validation procedures.
#
#######################################################################

data_TILNOU
_chemical_formula_moiety         'C27 H23 N1 O1,C7 H8'
_chemical_name_systematic        
'1-(benzo[a]phenanthridin-6(5H)-yl)-2-methyl-2-phenylpropan-1-one toluene solvate'
_symmetry_cell_setting           monoclinic
_symmetry_space_group_name_H-M   'P 21/c'
_symmetry_Int_Tables_number      14
_space_group_name_Hall           '-P 2ybc'
loop_
_symmetry_equiv_pos_site_id
_symmetry_equiv_pos_as_xyz
1 x,y,z
2 -x,1/2+y,1/2-z
3 -x,-y,-z
4 x,1/2-y,1/2+z
_cell_length_a                   12.2788(4)
_cell_length_b                   16.9978(4)
_cell_length_c                   13.4064(4)
_cell_angle_alpha                90
_cell_angle_beta                 112.406(4)
_cell_angle_gamma                90
_cell_volume                     2586.85
_exptl_crystal_colour            colorless
_exptl_crystal_description       plate
_cell_formula_units_Z            4
loop_
_atom_site_label
_atom_site_type_symbol
_atom_site_fract_x
_atom_site_fract_y
_atom_site_fract_z
O1 O 0.38828(9) 0.52214(6) 0.24271(8)
N1 N 0.28383(10) 0.62724(6) 0.25833(9)
C1 C 0.29172(12) 0.60503(7) 0.36377(10)
C2 C 0.40216(12) 0.58620(8) 0.44439(11)
H1 H 0.4715(17) 0.5855(10) 0.4247(15)
C3 C 0.41160(12) 0.57160(8) 0.54729(11)
H2 H 0.4883(16) 0.5564(10) 0.6045(15)
C4 C 0.31223(12) 0.57879(7) 0.57631(10)
C5 C 0.32369(14) 0.56773(8) 0.68483(11)
H3 H 0.4026(17) 0.5509(11) 0.7382(15)
C6 C 0.23027(15) 0.58050(8) 0.71486(11)
H4 H 0.2394(16) 0.5752(11) 0.7919(15)
C7 C 0.12220(14) 0.60605(8) 0.63759(11)
H5 H 0.0576(16) 0.6180(10) 0.6583(14)
C8 C 0.10781(12) 0.61541(7) 0.53169(10)
H6 H 0.0343(15) 0.6373(9) 0.4797(13)
C9 C 0.20108(12) 0.59975(7) 0.49633(10)
C10 C 0.19021(11) 0.60834(7) 0.38630(10)
C11 C 0.07696(11) 0.62186(7) 0.29464(10)
C12 C -0.03108(12) 0.59130(7) 0.28802(10)
H7 H -0.0379(14) 0.5557(10) 0.3438(13)
C13 C -0.13370(13) 0.60792(8) 0.19883(11)
H8 H -0.2109(17) 0.5837(11) 0.1967(15)
C14 C -0.12836(14) 0.65308(9) 0.11466(12)
H9 H -0.2003(18) 0.6651(12) 0.0514(17)
C15 C -0.02102(14) 0.68043(8) 0.11782(11)
H10 H -0.0147(16) 0.7102(11) 0.0594(15)
C16 C 0.08102(12) 0.66506(7) 0.20677(10)
C17 C 0.20027(13) 0.69179(7) 0.21393(11)
H11 H 0.1944(13) 0.7058(9) 0.1452(13)
H12 H 0.2309(14) 0.7386(10) 0.2657(13)
C18 C 0.33888(12) 0.58376(8) 0.20455(10)
C19 C 0.34158(13) 0.61617(8) 0.09723(11)
C20 C 0.21768(13) 0.61615(7) 0.00955(10)
C21 C 0.16667(15) 0.68165(8) -0.05429(12)
H13 H 0.2142(16) 0.7294(11) -0.0432(14)
C22 C 0.05375(16) 0.67800(9) -0.13294(12)
H14 H 0.0172(17) 0.7248(12) -0.1780(15)
C23 C -0.01003(15) 0.60866(9) -0.15178(11)
H15 H -0.0910(16) 0.6057(10) -0.2068(15)
C24 C 0.04021(13) 0.54294(8) -0.09077(11)
H16 H -0.0039(15) 0.4927(10) -0.1033(14)
C25 C 0.15211(13) 0.54681(7) -0.01055(10)
H17 H 0.1864(14) 0.5005(10) 0.0336(13)
C26 C 0.40303(18) 0.69698(11) 0.11775(16)
H18 H 0.3586(17) 0.7394(11) 0.1390(15)
H19 H 0.4819(19) 0.6909(12) 0.1769(18)
H20 H 0.4087(18) 0.7144(12) 0.0444(17)
C27 C 0.41797(16) 0.55943(11) 0.06134(14)
H21 H 0.503(2) 0.5587(12) 0.1161(18)
H22 H 0.3840(18) 0.5039(13) 0.0505(16)
H23 H 0.4207(18) 0.5787(12) -0.0102(18)
C28 C 0.69953(13) 0.68819(9) 0.45961(13)
C29 C 0.75094(14) 0.70239(11) 0.38613(14)
H24 H 0.814(2) 0.6634(13) 0.3870(18)
C30 C 0.71691(18) 0.76594(14) 0.31681(16)
H25 H 0.759(2) 0.7762(16) 0.265(2)
C31 C 0.62958(19) 0.81627(12) 0.31938(16)
H26 H 0.609(2) 0.8604(15) 0.269(2)
C32 C 0.57475(17) 0.80041(11) 0.39053(16)
H27 H 0.511(3) 0.8392(17) 0.392(2)
C33 C 0.61006(14) 0.73761(10) 0.45947(14)
H28 H 0.571(2) 0.7237(15) 0.517(2)
C34 C 0.7420(2) 0.62264(11) 0.54088(18)
H29 H 0.714408 0.631716 0.599523
H30 H 0.828340 0.621163 0.570279
H31 H 0.711044 0.572364 0.505729
H32? H 0.788120 0.585112 0.517498
H33? H 0.674188 0.595666 0.546741
H34? H 0.791484 0.644464 0.611292
loop_
_geom_bond_atom_site_label_1
_geom_bond_atom_site_label_2
_geom_bond_site_symmetry_1
_geom_bond_site_symmetry_2
O1 C18 1_555 1_555
N1 C1 1_555 1_555
C1 C2 1_555 1_555
C2 H1 1_555 1_555
C3 C2 1_555 1_555
H2 C3 1_555 1_555
C4 C3 1_555 1_555
C5 C4 1_555 1_555
H3 C5 1_555 1_555
C6 C5 1_555 1_555
H4 C6 1_555 1_555
C7 C6 1_555 1_555
H5 C7 1_555 1_555
C8 C7 1_555 1_555
H6 C8 1_555 1_555
C9 C4 1_555 1_555
C10 C1 1_555 1_555
C11 C10 1_555 1_555
C12 C11 1_555 1_555
H7 C12 1_555 1_555
C13 C12 1_555 1_555
H8 C13 1_555 1_555
C14 C13 1_555 1_555
H9 C14 1_555 1_555
C15 C14 1_555 1_555
H10 C15 1_555 1_555
C16 C11 1_555 1_555
C17 N1 1_555 1_555
H11 C17 1_555 1_555
H12 C17 1_555 1_555
C18 N1 1_555 1_555
C19 C18 1_555 1_555
C20 C19 1_555 1_555
C21 C20 1_555 1_555
H13 C21 1_555 1_555
C22 C21 1_555 1_555
H14 C22 1_555 1_555
C23 C22 1_555 1_555
H15 C23 1_555 1_555
C24 C23 1_555 1_555
H16 C24 1_555 1_555
C25 C20 1_555 1_555
H17 C25 1_555 1_555
C26 C19 1_555 1_555
H18 C26 1_555 1_555
H19 C26 1_555 1_555
H20 C26 1_555 1_555
C27 C19 1_555 1_555
H21 C27 1_555 1_555
H22 C27 1_555 1_555
H23 C27 1_555 1_555
C28 C29 1_555 1_555
C29 H24 1_555 1_555
C30 C29 1_555 1_555
H25 C30 1_555 1_555
C31 C30 1_555 1_555
H26 C31 1_555 1_555
C32 C31 1_555 1_555
H27 C32 1_555 1_555
C33 C28 1_555 1_555
H28 C33 1_555 1_555
C34 C28 1_555 1_555
H29 C34 1_555 1_555
H30 C34 1_555 1_555
H31 C34 1_555 1_555
C8 C9 1_555 1_555
C9 C10 1_555 1_555
C15 C16 1_555 1_555
C16 C17 1_555 1_555
C24 C25 1_555 1_555
C32 C33 1_555 1_555

#END
