
#######################################################################
#
#                 Cambridge Crystallographic Data Centre
#                                CCDC 
#
#######################################################################
#
# If this CIF has been generated from an entry in the Cambridge 
# Structural Database, then it will include bibliographic, chemical, 
# crystal, experimental, refinement or atomic coordinate data resulting 
# from the CCDC's data processing and validation procedures.
#
#######################################################################

data_TILYEU
_chemical_formula_moiety         'C18 H16 O5'
_chemical_name_systematic        
3-(3,4-Dimethoxybenzylidene)-7-methoxy-2-benzofuran-1(3H)-one
_symmetry_cell_setting           orthorhombic
_symmetry_space_group_name_H-M   'P c c n'
_symmetry_Int_Tables_number      56
_space_group_name_Hall           '-P 2ab 2ac'
loop_
_symmetry_equiv_pos_site_id
_symmetry_equiv_pos_as_xyz
1 x,y,z
2 1/2-x,1/2-y,z
3 -x,1/2+y,1/2-z
4 1/2+x,-y,1/2-z
5 -x,-y,-z
6 1/2+x,1/2+y,-z
7 x,1/2-y,1/2+z
8 1/2-x,y,1/2+z
_cell_length_a                   13.6637(9)
_cell_length_b                   26.4984(16)
_cell_length_c                   8.3392(6)
_cell_angle_alpha                90
_cell_angle_beta                 90
_cell_angle_gamma                90
_cell_volume                     3019.34
_cell_formula_units_Z            8
loop_
_atom_site_label
_atom_site_type_symbol
_atom_site_fract_x
_atom_site_fract_y
_atom_site_fract_z
C1 C 0.8794(2) 0.38756(11) 0.6433(4)
C2 C 0.8775(2) 0.34712(12) 0.7482(5)
C3 C 0.8621(2) 0.35773(14) 0.9084(4)
H1 H 0.8605 0.3310 0.9844
C4 C 0.8490(2) 0.40697(14) 0.9591(4)
H2 H 0.8387 0.4132 1.0700
C5 C 0.8503(2) 0.44721(13) 0.8554(4)
H3 H 0.8406 0.4808 0.8924
C6 C 0.8664(2) 0.43688(11) 0.6943(4)
C7 C 0.8736(2) 0.46981(11) 0.5558(4)
C8 C 0.8632(2) 0.51937(11) 0.5437(4)
H4 H 0.8499 0.5360 0.6422
C9 C 0.8687(2) 0.55295(11) 0.4048(4)
C10 C 0.8595(2) 0.60463(11) 0.4287(4)
H5 H 0.8494 0.6168 0.5346
C11 C 0.8645(2) 0.63878(11) 0.3045(4)
C12 C 0.8791(2) 0.62110(11) 0.1487(4)
C13 C 0.8883(2) 0.57021(13) 0.1225(4)
H6 H 0.8980 0.5582 0.0164
C14 C 0.8836(2) 0.53607(11) 0.2480(4)
H7 H 0.8906 0.5010 0.2273
C15 C 0.8992(3) 0.64065(14) -0.1279(4)
H8 H 0.9609 0.6219 -0.1338
H9 H 0.9024 0.6700 -0.1993
H10 H 0.8451 0.6187 -0.1610
C16 C 0.8601(3) 0.71022(12) 0.4767(4)
H11 H 0.8033 0.6987 0.5385
H12 H 0.8599 0.7472 0.4711
H13 H 0.9203 0.6988 0.5292
C17 C 0.8966(2) 0.38861(12) 0.4697(4)
C18 C 0.9020(3) 0.25892(13) 0.7940(5)
H14 H 0.9597 0.2645 0.8615
H15 H 0.9105 0.2277 0.7327
H16 H 0.8437 0.2561 0.8619
O1 O 0.85542(18) 0.68985(8) 0.3185(3)
O2 O 0.88344(17) 0.65720(8) 0.0324(3)
O3 O 0.91055(19) 0.35638(8) 0.3709(3)
O4 O 0.89232(15) 0.43900(7) 0.4224(2)
O5 O 0.8905(2) 0.30047(8) 0.6858(3)
loop_
_geom_bond_atom_site_label_1
_geom_bond_atom_site_label_2
_geom_bond_site_symmetry_1
_geom_bond_site_symmetry_2
C1 C2 1_555 1_555
C2 C3 1_555 1_555
C3 H1 1_555 1_555
C4 C3 1_555 1_555
H2 C4 1_555 1_555
C5 C4 1_555 1_555
H3 C5 1_555 1_555
C6 C1 1_555 1_555
C7 C6 1_555 1_555
C8 C7 1_555 1_555
H4 C8 1_555 1_555
C9 C8 1_555 1_555
C10 C9 1_555 1_555
H5 C10 1_555 1_555
C11 C10 1_555 1_555
C12 C11 1_555 1_555
C13 C12 1_555 1_555
H6 C13 1_555 1_555
C14 C9 1_555 1_555
H7 C14 1_555 1_555
C15 H8 1_555 1_555
H9 C15 1_555 1_555
H10 C15 1_555 1_555
C16 H11 1_555 1_555
H12 C16 1_555 1_555
H13 C16 1_555 1_555
C17 C1 1_555 1_555
C18 H14 1_555 1_555
H15 C18 1_555 1_555
H16 C18 1_555 1_555
O1 C11 1_555 1_555
O2 C12 1_555 1_555
O3 C17 1_555 1_555
O4 C7 1_555 1_555
O5 C2 1_555 1_555
C5 C6 1_555 1_555
C13 C14 1_555 1_555
C15 O2 1_555 1_555
C16 O1 1_555 1_555
C17 O4 1_555 1_555
C18 O5 1_555 1_555

#END
