
#######################################################################
#
#                 Cambridge Crystallographic Data Centre
#                                CCDC 
#
#######################################################################
#
# If this CIF has been generated from an entry in the Cambridge 
# Structural Database, then it will include bibliographic, chemical, 
# crystal, experimental, refinement or atomic coordinate data resulting 
# from the CCDC's data processing and validation procedures.
#
#######################################################################

data_TIMFIG
_chemical_formula_moiety         'C22 H17 N1 O2 S1'
_chemical_name_systematic        
3-(3-Oxo-3-phenylprop-1-en-1-yl)-3-(2-thienylmethyl)-1,3-dihydro-2H-indol-2-one
_symmetry_cell_setting           orthorhombic
_symmetry_space_group_name_H-M   'P 21 21 21'
_symmetry_Int_Tables_number      19
_space_group_name_Hall           'P 2ac 2ab'
loop_
_symmetry_equiv_pos_site_id
_symmetry_equiv_pos_as_xyz
1 x,y,z
2 1/2-x,-y,1/2+z
3 1/2+x,1/2-y,-z
4 -x,1/2+y,1/2-z
_cell_length_a                   8.5150(3)
_cell_length_b                   14.0936(6)
_cell_length_c                   15.4083(7)
_cell_angle_alpha                90
_cell_angle_beta                 90
_cell_angle_gamma                90
_cell_volume                     1849.1
_exptl_crystal_colour            colorless
_exptl_crystal_description       block
_cell_formula_units_Z            4
loop_
_atom_site_label
_atom_site_type_symbol
_atom_site_fract_x
_atom_site_fract_y
_atom_site_fract_z
S1 S -0.26443(11) -0.44496(8) -0.13067(8)
O1 O -0.5986(2) -0.75414(16) -0.03328(16)
O2 O -0.6226(3) -0.54124(18) 0.16798(15)
N1 N -0.7943(3) -0.6461(2) -0.00532(19)
H1 H -0.8700 -0.6852 0.0038
C1 C -0.6478(4) -0.6728(2) -0.0266(2)
C2 C -0.5508(3) -0.5820(2) -0.0422(2)
C3 C -0.6678(3) -0.5046(2) -0.0204(2)
C4 C -0.8101(3) -0.5466(3) 0.0003(2)
C5 C -0.9394(4) -0.4960(3) 0.0229(3)
H2 H -1.0343 -0.5255 0.0356
C6 C -0.9234(4) -0.3989(3) 0.0261(3)
H3 H -1.0099 -0.3621 0.0410
C7 C -0.7820(4) -0.3544(3) 0.0076(2)
H4 H -0.7739 -0.2887 0.0109
C8 C -0.6526(4) -0.4086(2) -0.0158(2)
H5 H -0.5570 -0.3797 -0.0283
C9 C -0.5052(4) -0.5804(2) -0.1396(2)
H6 H -0.4308 -0.6313 -0.1502
H7 H -0.5984 -0.5939 -0.1736
C10 C -0.4348(4) -0.4895(2) -0.1716(2)
C11 C -0.4941(4) -0.4291(3) -0.2340(2)
H8 H -0.5873 -0.4397 -0.2639
C12 C -0.3998(7) -0.3517(4) -0.2467(3)
H9 H -0.4219 -0.3051 -0.2877
C13 C -0.2732(6) -0.3486(3) -0.1955(3)
H10 H -0.1996 -0.2998 -0.1956
C14 C -0.4050(3) -0.5888(2) 0.0146(2)
H11 H -0.3194 -0.6190 -0.0108
C15 C -0.3826(3) -0.5583(2) 0.0941(2)
H12 H -0.2833 -0.5695 0.1172
C16 C -0.4940(4) -0.5087(2) 0.1518(2)
C17 C -0.4399(3) -0.4194(2) 0.1933(2)
C18 C -0.3146(5) -0.3702(3) 0.1594(2)
H13 H -0.2639 -0.3933 0.1104
C19 C -0.2637(6) -0.2881(3) 0.1966(3)
H14 H -0.1800 -0.2552 0.1722
C20 C -0.3348(7) -0.2538(3) 0.2695(4)
H15 H -0.2989 -0.1982 0.2953
C21 C -0.4581(6) -0.3013(3) 0.3041(3)
H16 H -0.5065 -0.2778 0.3537
C22 C -0.5129(5) -0.3835(4) 0.2671(3)
H17 H -0.5983 -0.4150 0.2913
loop_
_geom_bond_atom_site_label_1
_geom_bond_atom_site_label_2
_geom_bond_site_symmetry_1
_geom_bond_site_symmetry_2
S1 C10 1_555 1_555
O1 C1 1_555 1_555
O2 C16 1_555 1_555
N1 H1 1_555 1_555
C1 N1 1_555 1_555
C2 C1 1_555 1_555
C3 C2 1_555 1_555
C4 N1 1_555 1_555
C5 C4 1_555 1_555
H2 C5 1_555 1_555
C6 C5 1_555 1_555
H3 C6 1_555 1_555
C7 C6 1_555 1_555
H4 C7 1_555 1_555
C8 C3 1_555 1_555
H5 C8 1_555 1_555
C9 C2 1_555 1_555
H6 C9 1_555 1_555
H7 C9 1_555 1_555
C10 C9 1_555 1_555
C11 C10 1_555 1_555
H8 C11 1_555 1_555
C12 C11 1_555 1_555
H9 C12 1_555 1_555
C13 S1 1_555 1_555
H10 C13 1_555 1_555
C14 C2 1_555 1_555
H11 C14 1_555 1_555
C15 C14 1_555 1_555
H12 C15 1_555 1_555
C16 C15 1_555 1_555
C17 C16 1_555 1_555
C18 C17 1_555 1_555
H13 C18 1_555 1_555
C19 C18 1_555 1_555
H14 C19 1_555 1_555
C20 C19 1_555 1_555
H15 C20 1_555 1_555
C21 C20 1_555 1_555
H16 C21 1_555 1_555
C22 C17 1_555 1_555
H17 C22 1_555 1_555
C3 C4 1_555 1_555
C7 C8 1_555 1_555
C12 C13 1_555 1_555
C21 C22 1_555 1_555

#END
