
#######################################################################
#
#                 Cambridge Crystallographic Data Centre
#                                CCDC 
#
#######################################################################
#
# If this CIF has been generated from an entry in the Cambridge 
# Structural Database, then it will include bibliographic, chemical, 
# crystal, experimental, refinement or atomic coordinate data resulting 
# from the CCDC's data processing and validation procedures.
#
#######################################################################

data_TIMWAN
_chemical_formula_moiety         'C30 H36 O8'
_chemical_name_systematic        
3,9,13,19-Tetrahydroxy-6,6,16,16-tetramethoxy-dodecacyclo(9.9.2.1^2,5^.1^7,10^.1^12,15^.1^17,20^.0^2,10^.0^4,8^.0^12,20^.0^14,18^.0^23,24^.0^25,26^)hexacosa-21-ene
_symmetry_cell_setting           triclinic
_symmetry_space_group_name_H-M   'P -1'
_symmetry_Int_Tables_number      2
_space_group_name_Hall           '-P 1'
loop_
_symmetry_equiv_pos_site_id
_symmetry_equiv_pos_as_xyz
1 x,y,z
2 -x,-y,-z
_cell_length_a                   6.716(1)
_cell_length_b                   12.137(2)
_cell_length_c                   15.257(3)
_cell_angle_alpha                77.77(3)
_cell_angle_beta                 88.58(3)
_cell_angle_gamma                84.16(3)
_cell_volume                     1209.09
_exptl_crystal_colour            colorless
_chemical_melting_point          '201-202 deg.C'
_cell_formula_units_Z            2
loop_
_atom_site_label
_atom_site_type_symbol
_atom_site_fract_x
_atom_site_fract_y
_atom_site_fract_z
O1 O -0.09753(4) 0.43089(26) -0.34036(17)
H1 H -0.116(12) 0.3887(23) -0.29192(30)
O2 O 0.26468(45) 0.36501(27) -0.38624(18)
H2 H 0.1470(31) 0.3678(28) -0.3705(46)
O3 O 0.28827(45) 0.19815(27) -0.24956(17)
H3 H 0.1714(38) 0.1849(72) -0.2401(15)
O4 O -0.07708(42) 0.26368(27) -0.20430(18)
H4 H 0.0106(61) 0.2811(68) -0.2416(15)
O5 O 0.16326(47) 0.80905(30) -0.52414(19)
O6 O 0.31848(50) 0.85518(27) -0.40405(21)
O7 O 0.25941(42) 0.03923(23) 0.10222(17)
O8 O 0.35112(41) 0.20221(23) 0.14138(17)
C1 C 0.08507(53) 0.50120(31) -0.15484(22)
H5 H -0.04725(53) 0.52906(31) -0.13539(22)
C2 C 0.11299(52) 0.54162(32) -0.25741(22)
C3 C -0.05018(57) 0.53596(38) -0.32612(23)
H6 H -0.17409(57) 0.57593(38) -0.30866(23)
C4 C 0.03019(58) 0.61169(36) -0.41118(24)
H7 H -0.06308(58) 0.62523(36) -0.46160(24)
C5 C 0.05783(61) 0.72050(38) -0.37835(24)
H8 H -0.06358(61) 0.77203(38) -0.37624(24)
C6 C 0.15955(57) 0.66791(39) -0.28710(25)
H9 H 0.14742(57) 0.71374(36) -0.24116(25)
C7 C 0.37474(55) 0.62778(34) -0.31438(24)
H10 H 0.48506(55) 0.65113(34) -0.28395(24)
C8 C 0.37276(64) 0.66211(39) -0.41805(25)
H11 H 0.50383(64) 0.66732(39) -0.44750(25)
C9 C 0.25061(62) 0.57200(39) -0.43824(25)
H12 H 0.26040(62) 0.56675(39) -0.50145(25)
C10 C 0.34598(60) 0.46392(38) -0.37575(24)
H13 H 0.48829(60) 0.45558(38) -0.39145(24)
C11 C 0.33076(53) 0.50191(33) -0.28448(23)
C12 C 0.44786(51) 0.43514(33) -0.19974(23)
H14 H 0.58728(51) 0.41360(33) -0.21448(23)
C13 C 0.34784(51) 0.33172(31) -0.14576(23)
C14 C 0.37442(55) 0.21370(31) -0.16906(23)
H15 H 0.51845(55) 0.19123(31) -0.17154(23)
C15 C 0.29198(55) 0.14102(33) -0.08408(23)
H16 H 0.30938(55) 0.06015(33) -0.08510(23)
C16 C 0.41886(55) 0.16907(33) -0.01180(24)
H17 H 0.55383(55) 0.12931(33) -0.00430(24)
C17 C 0.40837(52) 0.29905(33) -0.04332(22)
H18 H 0.51688(52) 0.33708(33) -0.02460(22)
C18 C 0.19118(53) 0.33859(31) -0.01759(22)
H19 H 0.17608(53) 0.39962(31) 0.01581(22)
C19 C 0.10636(58) 0.22774(34) 0.02672(24)
H20 H -0.01042(58) 0.23559(34) 0.06552(24)
C20 C 0.06948(56) 0.18079(34) -0.05648(23)
H21 H -0.01771(56) 0.11923(34) -0.04460(23)
C21 C -0.02303(54) 0.28679(34) -0.12089(23)
H22 H -0.14619(54) 0.31365(34) -0.09285(23)
C22 C 0.12927(50) 0.37128(32) -0.11884(22)
C23 C 0.25068(59) 0.55169(3) -0.11463(24)
H23 H 0.2214(54) 0.6029(33) -0.0724(25)
H24 H 0.5548(60) 0.5442(34) -0.1176(25)
C24 C 0.43479(58) 0.51822(34) -0.13712(24)
C25 C 0.22856(68) 0.77083(41) -0.43557(26)
C26 C 0.28786(58) 0.15436(33) 0.07218(24)
C27 C 0.31649(97) 0.83939(64) -0.58758(36)
H25 H 0.25744(98) 0.8790(37) -0.6435(10)
H26 H 0.3960(45) 0.77222(66) -0.5963(24)
H27 H 0.3998(44) 0.8875(33) -0.5659(15)
C28 C 0.1949(10) 0.95739(51) -0.40113(43)
H28 H 0.2755(16) 1.0122(15) -0.3871(31)
H29 H 0.0936(45) 0.94194(93) -0.3559(23)
H30 H 0.1327(57) 0.9867(22) -0.4584(11)
C29 C 0.12134(77) 0.01858(40) 0.17482(30)
H31 H 0.1266(52) -0.06138(51) 0.1991(21)
H32 H -0.0115(12) 0.0467(37) 0.15371(73)
H33 H 0.1559(44) 0.0566(34) 0.2206(14)
C30 C 0.53485(72) 0.14937(44) 0.18093(31)
H34 H 0.5542(36) 0.1740(32) 0.2356(17)
H35 H 0.64287(98) 0.1697(33) 0.1403(14)
H36 H 0.5319(28) 0.06862(46) 0.1937(30)
loop_
_geom_bond_atom_site_label_1
_geom_bond_atom_site_label_2
_geom_bond_site_symmetry_1
_geom_bond_site_symmetry_2
O1 H1 1_555 1_555
O2 H2 1_555 1_555
O3 H3 1_555 1_555
O4 H4 1_555 1_555
O5 C25 1_555 1_555
O6 C25 1_555 1_555
O7 C26 1_555 1_555
O8 C26 1_555 1_555
C1 H5 1_555 1_555
C2 C1 1_555 1_555
C3 O1 1_555 1_555
H6 C3 1_555 1_555
C4 C3 1_555 1_555
H7 C4 1_555 1_555
C5 C4 1_555 1_555
H8 C5 1_555 1_555
C6 C2 1_555 1_555
H9 C6 1_555 1_555
C7 C6 1_555 1_555
H10 C7 1_555 1_555
C8 C7 1_555 1_555
H11 C8 1_555 1_555
C9 C4 1_555 1_555
H12 C9 1_555 1_555
C10 O2 1_555 1_555
H13 C10 1_555 1_555
C11 C2 1_555 1_555
C12 C11 1_555 1_555
H14 C12 1_555 1_555
C13 C12 1_555 1_555
C14 O3 1_555 1_555
H15 C14 1_555 1_555
C15 C14 1_555 1_555
H16 C15 1_555 1_555
C16 C15 1_555 1_555
H17 C16 1_555 1_555
C17 C13 1_555 1_555
H18 C17 1_555 1_555
C18 C17 1_555 1_555
H19 C18 1_555 1_555
C19 C18 1_555 1_555
H20 C19 1_555 1_555
C20 C15 1_555 1_555
H21 C20 1_555 1_555
C21 O4 1_555 1_555
H22 C21 1_555 1_555
C22 C1 1_555 1_555
C23 C1 1_555 1_555
H23 C23 1_555 1_555
H24 C24 1_555 1_555
C24 C12 1_555 1_555
C25 C5 1_555 1_555
C26 C16 1_555 1_555
C27 O5 1_555 1_555
H25 C27 1_555 1_555
H26 C27 1_555 1_555
H27 C27 1_555 1_555
C28 O6 1_555 1_555
H28 C28 1_555 1_555
H29 C28 1_555 1_555
H30 C28 1_555 1_555
C29 O7 1_555 1_555
H31 C29 1_555 1_555
H32 C29 1_555 1_555
H33 C29 1_555 1_555
C30 O8 1_555 1_555
H34 C30 1_555 1_555
H35 C30 1_555 1_555
H36 C30 1_555 1_555
C2 C3 1_555 1_555
C5 C6 1_555 1_555
C7 C11 1_555 1_555
C8 C9 1_555 1_555
C8 C25 1_555 1_555
C9 C10 1_555 1_555
C10 C11 1_555 1_555
C13 C22 1_555 1_555
C13 C14 1_555 1_555
C16 C17 1_555 1_555
C18 C22 1_555 1_555
C19 C20 1_555 1_555
C19 C26 1_555 1_555
C20 C21 1_555 1_555
C21 C22 1_555 1_555
C23 C24 1_555 1_555

#END
