
#######################################################################
#
#                 Cambridge Crystallographic Data Centre
#                                CCDC 
#
#######################################################################
#
# If this CIF has been generated from an entry in the Cambridge 
# Structural Database, then it will include bibliographic, chemical, 
# crystal, experimental, refinement or atomic coordinate data resulting 
# from the CCDC's data processing and validation procedures.
#
#######################################################################

data_TIMYEV
_chemical_formula_moiety         'C13 H9 Br1 F3 N1'
_chemical_name_systematic        
9-Bromo-7-(trifluoromethyl)-2,3-dihydro-1H-cyclopenta[b]quinoline
_symmetry_cell_setting           monoclinic
_symmetry_space_group_name_H-M   'P 21/m'
_symmetry_Int_Tables_number      11
_space_group_name_Hall           '-P 2yb'
loop_
_symmetry_equiv_pos_site_id
_symmetry_equiv_pos_as_xyz
1 x,y,z
2 -x,1/2+y,-z
3 -x,-y,-z
4 x,1/2-y,z
_cell_length_a                   7.7310(15)
_cell_length_b                   7.195(3)
_cell_length_c                   10.886(4)
_cell_angle_alpha                90
_cell_angle_beta                 104.56(2)
_cell_angle_gamma                90
_cell_volume                     586.082
_exptl_crystal_colour            colorless
_exptl_crystal_description       prism
_cell_formula_units_Z            2
loop_
_atom_site_label
_atom_site_type_symbol
_atom_site_fract_x
_atom_site_fract_y
_atom_site_fract_z
Br1 Br 0.04206(5) 0.2500 0.42134(4)
F1 F 0.1517(4) 0.1047(5) -0.1238(2)
F2 F -0.0337(4) 0.2500 -0.0474(3)
N1 N 0.6471(4) 0.2500 0.4151(3)
C1 C 0.2841(5) 0.2500 0.4164(4)
C2 C 0.4134(5) 0.2500 0.5264(4)
C3 C 0.3999(6) 0.2500 0.6609(4)
H1 H 0.3373 0.1403 0.6787
C4 C 0.5951(6) 0.2500 0.7404(4)
H2 H 0.6176 0.3593 0.7943
C5 C 0.7179(6) 0.2500 0.6508(4)
H3 H 0.7933 0.3597 0.6637
C6 C 0.5934(5) 0.2500 0.5194(4)
C7 C 0.5163(5) 0.2500 0.3032(4)
C8 C 0.5688(6) 0.2500 0.1894(4)
H4 H 0.6897 0.2500 0.1914
C9 C 0.4452(6) 0.2500 0.0761(4)
H5 H 0.4820 0.2500 0.0011
C10 C 0.2640(6) 0.2500 0.0717(4)
C11 C 0.2073(5) 0.2500 0.1800(4)
H6 H 0.0855 0.2500 0.1753
C12 C 0.3312(5) 0.2500 0.2998(4)
C13 C 0.1320(8) 0.2500 -0.0545(4)
F1C F 0.1517(4) 0.3953(5) -0.1238(2)
H1C H 0.3373 0.3597 0.6787
H2C H 0.6176 0.1407 0.7943
H3C H 0.7933 0.1403 0.6637
loop_
_geom_bond_atom_site_label_1
_geom_bond_atom_site_label_2
_geom_bond_site_symmetry_1
_geom_bond_site_symmetry_2
Br1 C1 1_555 1_555
F1 C13 1_555 1_555
F2 C13 1_555 1_555
N1 C6 1_555 1_555
C1 C2 1_555 1_555
C2 C3 1_555 1_555
C3 H1 1_555 1_555
C4 C3 1_555 1_555
H2 C4 1_555 1_555
C5 C4 1_555 1_555
H3 C5 1_555 1_555
C6 C2 1_555 1_555
C7 N1 1_555 1_555
C8 C7 1_555 1_555
H4 C8 1_555 1_555
C9 C8 1_555 1_555
H5 C9 1_555 1_555
C10 C9 1_555 1_555
C11 C10 1_555 1_555
H6 C11 1_555 1_555
C12 C1 1_555 1_555
C13 C10 1_555 1_555
F1C C13 1_555 1_555
H1C C3 1_555 1_555
H2C C4 1_555 1_555
H3C C5 1_555 1_555
C5 C6 1_555 1_555
C7 C12 1_555 1_555
C11 C12 1_555 1_555

#END
