
#######################################################################
#
#                 Cambridge Crystallographic Data Centre
#                                CCDC 
#
#######################################################################
#
# If this CIF has been generated from an entry in the Cambridge 
# Structural Database, then it will include bibliographic, chemical, 
# crystal, experimental, refinement or atomic coordinate data resulting 
# from the CCDC's data processing and validation procedures.
#
#######################################################################

data_TINMEK
_chemical_formula_moiety         'C15 H14 N2 O1 S1'
_chemical_name_systematic        
2-(4-Methylphenyl)-3-(pyridin-2-yl)-1,3-thiazolidin-4-one
_symmetry_cell_setting           monoclinic
_symmetry_space_group_name_H-M   'P 21/n'
_symmetry_Int_Tables_number      14
_space_group_name_Hall           '-P 2yn'
loop_
_symmetry_equiv_pos_site_id
_symmetry_equiv_pos_as_xyz
1 x,y,z
2 1/2-x,1/2+y,1/2-z
3 -x,-y,-z
4 1/2+x,1/2-y,1/2+z
_cell_length_a                   10.7997(4)
_cell_length_b                   7.1108(2)
_cell_length_c                   17.6206(12)
_cell_angle_alpha                90
_cell_angle_beta                 103.164(7)
_cell_angle_gamma                90
_cell_volume                     1317.61
_exptl_crystal_colour            yellow
_exptl_crystal_description       block
_cell_formula_units_Z            4
loop_
_atom_site_label
_atom_site_type_symbol
_atom_site_fract_x
_atom_site_fract_y
_atom_site_fract_z
S1 S 0.35578(3) 1.06518(5) 1.01677(2)
O1 O 0.01753(10) 1.04327(16) 0.88816(6)
N1 N 0.19826(10) 0.85929(15) 0.91516(6)
N2 N 0.24304(11) 0.57248(17) 0.86683(7)
C1 C 0.18511(13) 0.52402(19) 1.11602(8)
H1 H 0.1066 0.5023 1.1302
C2 C 0.19018(12) 0.65286(19) 1.05735(8)
H2 H 0.1154 0.7179 1.0320
C3 C 0.29320(13) 0.42634(18) 1.15436(8)
C4 C 0.31616(11) 0.83072(18) 0.97487(7)
H3 H 0.3846 0.7896 0.9487
C5 C 0.16477(12) 0.72080(19) 0.85625(8)
C6 C 0.30412(12) 0.68686(18) 1.03569(7)
C7 C 0.28813(15) 0.2848(2) 1.21714(9)
H4 H 0.2658 0.1611 1.1934
H5 H 0.2239 0.3234 1.2453
H6 H 0.3714 0.2778 1.2535
C8 C 0.41290(12) 0.58986(19) 1.07359(8)
H7 H 0.4914 0.6113 1.0593
C9 C 0.06231(13) 0.7412(2) 0.79227(8)
H8 H 0.0080 0.8478 0.7871
C10 C 0.22054(15) 0.4380(2) 0.81190(10)
H9 H 0.2746 0.3310 0.8188
C11 C 0.12429(13) 1.0100(2) 0.92615(8)
C12 C 0.04264(15) 0.6004(2) 0.73659(9)
H10 H -0.0259 0.6094 0.6921
C13 C 0.19061(13) 1.1322(2) 0.99375(8)
H11 H 0.1530 1.1121 1.0394
H12 H 0.1816 1.2667 0.9790
C14 C 0.40676(13) 0.46206(19) 1.13220(8)
H13 H 0.4817 0.3975 1.1577
C15 C 0.12292(15) 0.4469(2) 0.74588(10)
H14 H 0.1114 0.3499 0.7079
loop_
_geom_bond_atom_site_label_1
_geom_bond_atom_site_label_2
_geom_bond_site_symmetry_1
_geom_bond_site_symmetry_2
S1 C4 1_555 1_555
O1 C11 1_555 1_555
N1 C4 1_555 1_555
N2 C5 1_555 1_555
C1 H1 1_555 1_555
C2 C1 1_555 1_555
H2 C2 1_555 1_555
C3 C1 1_555 1_555
C4 H3 1_555 1_555
C5 N1 1_555 1_555
C6 C2 1_555 1_555
C7 C3 1_555 1_555
H4 C7 1_555 1_555
H5 C7 1_555 1_555
H6 C7 1_555 1_555
C8 C6 1_555 1_555
H7 C8 1_555 1_555
C9 C5 1_555 1_555
H8 C9 1_555 1_555
C10 N2 1_555 1_555
H9 C10 1_555 1_555
C11 N1 1_555 1_555
C12 C9 1_555 1_555
H10 C12 1_555 1_555
C13 S1 1_555 1_555
H11 C13 1_555 1_555
H12 C13 1_555 1_555
C14 C3 1_555 1_555
H13 C14 1_555 1_555
C15 C10 1_555 1_555
H14 C15 1_555 1_555
C4 C6 1_555 1_555
C8 C14 1_555 1_555
C11 C13 1_555 1_555
C12 C15 1_555 1_555

#END
