
#######################################################################
#
#                 Cambridge Crystallographic Data Centre
#                                CCDC 
#
#######################################################################
#
# If this CIF has been generated from an entry in the Cambridge 
# Structural Database, then it will include bibliographic, chemical, 
# crystal, experimental, refinement or atomic coordinate data resulting 
# from the CCDC's data processing and validation procedures.
#
#######################################################################

data_TINMOU
_chemical_formula_moiety         'C15 H11 N3 O1 S1'
_chemical_name_systematic        
4-(4-Oxo-3-(pyridin-2-yl)-1,3-thiazolidin-2-yl)benzonitrile
_symmetry_cell_setting           monoclinic
_symmetry_space_group_name_H-M   'P 21/c'
_symmetry_Int_Tables_number      14
_space_group_name_Hall           '-P 2ybc'
loop_
_symmetry_equiv_pos_site_id
_symmetry_equiv_pos_as_xyz
1 x,y,z
2 -x,1/2+y,1/2-z
3 -x,-y,-z
4 x,1/2-y,1/2+z
_cell_length_a                   7.8911(5)
_cell_length_b                   15.4544(9)
_cell_length_c                   11.3418(8)
_cell_angle_alpha                90
_cell_angle_beta                 106.253(8)
_cell_angle_gamma                90
_cell_volume                     1327.88
_exptl_crystal_colour            'light yellow'
_exptl_crystal_description       'Cut Block'
_cell_formula_units_Z            4
loop_
_atom_site_label
_atom_site_type_symbol
_atom_site_fract_x
_atom_site_fract_y
_atom_site_fract_z
S1 S 0.89074(14) 0.39789(7) 0.73080(10)
O1 O 0.7943(4) 0.1772(2) 0.5664(3)
N1 N 0.4732(5) 0.1987(2) 0.7678(3)
N2 N 0.0176(5) 0.6374(3) 0.6207(4)
N3 N 0.6672(4) 0.2690(2) 0.6760(3)
C1 C 0.7002(6) 0.3434(3) 0.7604(4)
H1 H 0.7288 0.3235 0.8477
C2 C 0.8010(5) 0.2417(3) 0.6298(4)
C3 C 0.9622(5) 0.2992(3) 0.6718(4)
H2 H 1.0105 0.3125 0.6021
H3 H 1.0551 0.2701 0.7368
C4 C 0.5115(6) 0.2181(3) 0.6640(4)
C5 C 0.3291(6) 0.1510(3) 0.7581(4)
H4 H 0.3000 0.1360 0.8313
C6 C 0.2190(6) 0.1221(3) 0.6469(4)
H5 H 0.1186 0.0874 0.6442
C7 C 0.2598(6) 0.1454(3) 0.5400(4)
H6 H 0.1861 0.1277 0.4623
C8 C 0.4073(6) 0.1943(3) 0.5473(4)
H7 H 0.4377 0.2115 0.4754
C9 C 0.5434(5) 0.4040(2) 0.7309(4)
C10 C 0.4545(6) 0.4233(3) 0.6091(4)
H8 H 0.4899 0.3965 0.5444
C11 C 0.3143(6) 0.4817(3) 0.5816(4)
H9 H 0.2528 0.4940 0.4985
C12 C 0.2651(5) 0.5221(3) 0.6772(4)
C13 C 0.3515(6) 0.5030(3) 0.7989(4)
H10 H 0.3160 0.5299 0.8635
C14 C 0.4909(6) 0.4437(3) 0.8257(4)
H11 H 0.5503 0.4303 0.9087
C15 C 0.1251(6) 0.5857(3) 0.6474(4)
loop_
_geom_bond_atom_site_label_1
_geom_bond_atom_site_label_2
_geom_bond_site_symmetry_1
_geom_bond_site_symmetry_2
S1 C1 1_555 1_555
O1 C2 1_555 1_555
N1 C4 1_555 1_555
N2 C15 1_555 1_555
N3 C1 1_555 1_555
C1 H1 1_555 1_555
C2 N3 1_555 1_555
C3 S1 1_555 1_555
H2 C3 1_555 1_555
H3 C3 1_555 1_555
C4 N3 1_555 1_555
C5 N1 1_555 1_555
H4 C5 1_555 1_555
C6 C5 1_555 1_555
H5 C6 1_555 1_555
C7 C6 1_555 1_555
H6 C7 1_555 1_555
C8 C4 1_555 1_555
H7 C8 1_555 1_555
C9 C1 1_555 1_555
C10 C9 1_555 1_555
H8 C10 1_555 1_555
C11 C10 1_555 1_555
H9 C11 1_555 1_555
C12 C11 1_555 1_555
C13 C12 1_555 1_555
H10 C13 1_555 1_555
C14 C9 1_555 1_555
H11 C14 1_555 1_555
C15 C12 1_555 1_555
C2 C3 1_555 1_555
C7 C8 1_555 1_555
C13 C14 1_555 1_555

#END
