
#######################################################################
#
#                 Cambridge Crystallographic Data Centre
#                                CCDC 
#
#######################################################################
#
# If this CIF has been generated from an entry in the Cambridge 
# Structural Database, then it will include bibliographic, chemical, 
# crystal, experimental, refinement or atomic coordinate data resulting 
# from the CCDC's data processing and validation procedures.
#
#######################################################################

data_TINVOC
_chemical_formula_moiety         'C9 H7 N3 O2'
_chemical_name_systematic        '2-Phenyl-2H-1,2,3-triazole-4-carboxylic acid'
_symmetry_cell_setting           monoclinic
_symmetry_space_group_name_H-M   'P 21/c'
_symmetry_Int_Tables_number      14
_space_group_name_Hall           '-P 2ybc'
loop_
_symmetry_equiv_pos_site_id
_symmetry_equiv_pos_as_xyz
1 x,y,z
2 -x,1/2+y,1/2-z
3 -x,-y,-z
4 x,1/2-y,1/2+z
_cell_length_a                   10.3239(16)
_cell_length_b                   5.2878(8)
_cell_length_c                   16.762(3)
_cell_angle_alpha                90
_cell_angle_beta                 102.059(3)
_cell_angle_gamma                90
_cell_volume                     894.857
_exptl_crystal_colour            colorless
_exptl_crystal_description       prism
_cell_formula_units_Z            4
_exptl_crystal_recrystallization_method ethanol/water
loop_
_atom_site_label
_atom_site_type_symbol
_atom_site_fract_x
_atom_site_fract_y
_atom_site_fract_z
O1 O 0.15199(11) -0.3925(2) 1.02747(7)
O2 O -0.00876(11) -0.2424(3) 0.92851(8)
H1 H -0.0504 -0.3605 0.9425
N1 N 0.16466(12) 0.1176(3) 0.89183(8)
N2 N 0.27159(12) 0.2601(3) 0.89746(8)
N3 N 0.37074(14) 0.2079(3) 0.96051(9)
C1 C 0.10945(15) -0.2398(3) 0.97275(10)
C2 C 0.19676(15) -0.0394(3) 0.95531(10)
C3 C 0.32355(17) 0.0180(4) 0.99697(12)
H2 H 0.3687 -0.0645 1.0435
C4 C 0.28259(16) 0.4517(3) 0.83914(10)
C5 C 0.18146(18) 0.4835(4) 0.77184(11)
H3 H 0.1064 0.3818 0.7641
C6 C 0.1937(2) 0.6685(5) 0.71632(12)
H4 H 0.1262 0.6923 0.6707
C7 C 0.3044(2) 0.8186(4) 0.72739(12)
H5 H 0.3118 0.9430 0.6894
C8 C 0.40415(19) 0.7846(4) 0.79474(12)
H6 H 0.4792 0.8862 0.8021
C9 C 0.39421(16) 0.6013(4) 0.85153(11)
H7 H 0.4616 0.5791 0.8974
loop_
_geom_bond_atom_site_label_1
_geom_bond_atom_site_label_2
_geom_bond_site_symmetry_1
_geom_bond_site_symmetry_2
O1 C1 1_555 1_555
O2 H1 1_555 1_555
N1 N2 1_555 1_555
N2 N3 1_555 1_555
N3 C3 1_555 1_555
C1 O2 1_555 1_555
C2 N1 1_555 1_555
C3 C2 1_555 1_555
H2 C3 1_555 1_555
C4 N2 1_555 1_555
C5 C4 1_555 1_555
H3 C5 1_555 1_555
C6 C5 1_555 1_555
H4 C6 1_555 1_555
C7 C6 1_555 1_555
H5 C7 1_555 1_555
C8 C7 1_555 1_555
H6 C8 1_555 1_555
C9 C4 1_555 1_555
H7 C9 1_555 1_555
C1 C2 1_555 1_555
C8 C9 1_555 1_555

#END
