
#######################################################################
#
#                 Cambridge Crystallographic Data Centre
#                                CCDC 
#
#######################################################################
#
# If this CIF has been generated from an entry in the Cambridge 
# Structural Database, then it will include bibliographic, chemical, 
# crystal, experimental, refinement or atomic coordinate data resulting 
# from the CCDC's data processing and validation procedures.
#
#######################################################################

data_TINXEU
_chemical_name_common            
4-(4-Acetoxy-3,5-dimethoxybenzylidene)-2-phenyloxazol-5(4H)-one
_chemical_formula_moiety         'C20 H17 N1 O6'
_chemical_name_systematic        
'2,6-Dimethoxy-4-(5-oxo-2-phenyl-4,5-dihydro-1,3-oxazol-4-ylidenemethyl)phenyl acetate'
_symmetry_cell_setting           triclinic
_symmetry_space_group_name_H-M   'P -1'
_symmetry_Int_Tables_number      2
_space_group_name_Hall           '-P 1'
loop_
_symmetry_equiv_pos_site_id
_symmetry_equiv_pos_as_xyz
1 x,y,z
2 -x,-y,-z
_cell_length_a                   8.8400(13)
_cell_length_b                   10.4431(15)
_cell_length_c                   10.9693(16)
_cell_angle_alpha                111.074(6)
_cell_angle_beta                 96.544(6)
_cell_angle_gamma                102.119(6)
_cell_volume                     903.725
_exptl_crystal_colour            red
_exptl_crystal_description       block
_cell_formula_units_Z            2
_exptl_crystal_recrystallization_method ethanol
loop_
_atom_site_label
_atom_site_type_symbol
_atom_site_fract_x
_atom_site_fract_y
_atom_site_fract_z
O1 O 1.19578(16) 0.71134(16) 0.39534(16)
O2 O 1.22759(14) 0.50852(13) 0.41266(13)
O3 O 0.2048(2) 0.1945(2) -0.11379(17)
O4 O 0.41331(15) 0.10522(14) 0.14667(14)
O5 O 0.30933(16) 0.51339(15) 0.12013(15)
O6 O 0.21087(14) 0.24950(15) 0.10383(13)
N1 N 0.97910(17) 0.36389(15) 0.32873(14)
C1 C 1.1388(2) 0.5898(2) 0.3770(2)
C2 C 0.9783(2) 0.49460(19) 0.32069(18)
C3 C 1.1222(2) 0.37709(19) 0.37993(17)
C4 C 1.1841(2) 0.2698(2) 0.40751(18)
C5 C 1.0819(2) 0.1380(2) 0.3802(2)
H1 H 0.9751 0.1192 0.3446
C6 C 1.1380(3) 0.0351(2) 0.4056(2)
H2 H 1.0691 -0.0533 0.3870
C7 C 1.2958(3) 0.0623(3) 0.4584(2)
H3 H 1.3334 -0.0074 0.4759
C8 C 1.3972(3) 0.1921(2) 0.4852(2)
H4 H 1.5039 0.2102 0.5206
C9 C 1.3425(2) 0.2959(2) 0.4601(2)
H5 H 1.4123 0.3839 0.4785
C10 C 0.8562(2) 0.5342(2) 0.27495(18)
H6 H 0.8808 0.6257 0.2760
C11 C 0.6911(2) 0.45420(19) 0.22406(17)
C12 C 0.5844(2) 0.5246(2) 0.19266(18)
H7 H 0.6204 0.6180 0.2003
C13 C 0.4248(2) 0.4545(2) 0.15007(18)
C14 C 0.3728(2) 0.3144(2) 0.13583(17)
C15 C 0.4782(2) 0.24279(19) 0.16484(17)
C16 C 0.6370(2) 0.31274(19) 0.20929(17)
H8 H 0.7083 0.2657 0.2295
C17 C 0.3567(3) 0.6575(2) 0.1335(2)
H9 H 0.4077 0.7177 0.2245
H10 H 0.2653 0.6860 0.1091
H11 H 0.4289 0.6661 0.0761
C18 C 0.5178(3) 0.0298(2) 0.1789(3)
H12 H 0.5953 0.0248 0.1240
H13 H 0.4585 -0.0649 0.1633
H14 H 0.5699 0.0787 0.2712
C19 C 0.1360(3) 0.2004(2) -0.0251(2)
C20 C -0.0388(3) 0.1572(3) -0.0365(3)
H15 H -0.0876 0.2090 -0.0784
H16 H -0.0617 0.1782 0.0510
H17 H -0.0795 0.0568 -0.0893
loop_
_geom_bond_atom_site_label_1
_geom_bond_atom_site_label_2
_geom_bond_site_symmetry_1
_geom_bond_site_symmetry_2
O1 C1 1_555 1_555
O2 C1 1_555 1_555
O3 C19 1_555 1_555
O4 C15 1_555 1_555
O5 C13 1_555 1_555
O6 C14 1_555 1_555
N1 C2 1_555 1_555
C1 C2 1_555 1_555
C2 C10 1_555 1_555
C3 O2 1_555 1_555
C4 C3 1_555 1_555
C5 C4 1_555 1_555
H1 C5 1_555 1_555
C6 C5 1_555 1_555
H2 C6 1_555 1_555
C7 C6 1_555 1_555
H3 C7 1_555 1_555
C8 C7 1_555 1_555
H4 C8 1_555 1_555
C9 C4 1_555 1_555
H5 C9 1_555 1_555
C10 H6 1_555 1_555
C11 C10 1_555 1_555
C12 C11 1_555 1_555
H7 C12 1_555 1_555
C13 C12 1_555 1_555
C14 C13 1_555 1_555
C15 C14 1_555 1_555
C16 C11 1_555 1_555
H8 C16 1_555 1_555
C17 O5 1_555 1_555
H9 C17 1_555 1_555
H10 C17 1_555 1_555
H11 C17 1_555 1_555
C18 O4 1_555 1_555
H12 C18 1_555 1_555
H13 C18 1_555 1_555
H14 C18 1_555 1_555
C19 O6 1_555 1_555
C20 C19 1_555 1_555
H15 C20 1_555 1_555
H16 C20 1_555 1_555
H17 C20 1_555 1_555
N1 C3 1_555 1_555
C8 C9 1_555 1_555
C15 C16 1_555 1_555

#END
