
#######################################################################
#
#                 Cambridge Crystallographic Data Centre
#                                CCDC 
#
#######################################################################
#
# If this CIF has been generated from an entry in the Cambridge 
# Structural Database, then it will include bibliographic, chemical, 
# crystal, experimental, refinement or atomic coordinate data resulting 
# from the CCDC's data processing and validation procedures.
#
#######################################################################

data_TINYOG
_chemical_formula_moiety         'C15 H11 Cl1 O2'
_chemical_name_systematic        '3-(2-Chlorophenyl)-3-phenylacrylic acid'
_symmetry_cell_setting           triclinic
_symmetry_space_group_name_H-M   'P -1'
_symmetry_Int_Tables_number      2
_space_group_name_Hall           '-P 1'
loop_
_symmetry_equiv_pos_site_id
_symmetry_equiv_pos_as_xyz
1 x,y,z
2 -x,-y,-z
_cell_length_a                   9.039(5)
_cell_length_b                   9.210(5)
_cell_length_c                   9.673(5)
_cell_angle_alpha                109.831(10)
_cell_angle_beta                 94.415(11)
_cell_angle_gamma                118.717(10)
_cell_volume                     635.615
_exptl_crystal_colour            colorless
_exptl_crystal_description       prismatic
_cell_formula_units_Z            2
loop_
_atom_site_label
_atom_site_type_symbol
_atom_site_fract_x
_atom_site_fract_y
_atom_site_fract_z
Cl1 Cl 0.75381(12) 0.53708(9) 1.07679(9)
O1 O 0.0585(2) -0.0096(3) 0.6766(3)
O2 O 0.2190(2) 0.1126(2) 0.5388(2)
C1 C 0.5263(3) 0.2044(3) 0.7699(3)
C2 C 0.3561(3) 0.1134(3) 0.7611(3)
H1 H 0.3273 0.0681 0.8342
C3 C 0.2081(3) 0.0761(3) 0.6491(3)
C4 C 0.6061(2) 0.3061(3) 0.6776(3)
C5 C 0.5995(3) 0.4584(3) 0.6904(3)
H2 H 0.5415 0.4960 0.7552
C6 C 0.6790(3) 0.5522(3) 0.6069(3)
H3 H 0.6759 0.6546 0.6167
C7 C 0.7622(3) 0.4976(4) 0.5101(3)
H4 H 0.8142 0.5617 0.4533
C8 C 0.7697(3) 0.3474(4) 0.4960(3)
H5 H 0.8251 0.3087 0.4288
C9 C 0.6942(3) 0.2548(3) 0.5826(3)
H6 H 0.7033 0.1565 0.5765
C10 C 0.6513(3) 0.1982(3) 0.8746(3)
C11 C 0.7648(3) 0.3448(3) 1.0140(3)
C12 C 0.8860(3) 0.3382(5) 1.1063(3)
H7 H 0.9612 0.4375 1.2000
C13 C 0.8930(4) 0.1851(5) 1.0577(4)
H8 H 0.9750 0.1812 1.1182
C14 C 0.7824(4) 0.0383(5) 0.9226(4)
H9 H 0.7882 -0.0657 0.8912
C15 C 0.6610(4) 0.0434(4) 0.8316(3)
H10 H 0.5842 -0.0586 0.7398
H11 H -0.022(4) -0.039(5) 0.602(4)
loop_
_geom_bond_atom_site_label_1
_geom_bond_atom_site_label_2
_geom_bond_site_symmetry_1
_geom_bond_site_symmetry_2
Cl1 C11 1_555 1_555
O1 C3 1_555 1_555
O2 C3 1_555 1_555
C1 C2 1_555 1_555
C2 H1 1_555 1_555
C3 C2 1_555 1_555
C4 C1 1_555 1_555
C5 C4 1_555 1_555
H2 C5 1_555 1_555
C6 C5 1_555 1_555
H3 C6 1_555 1_555
C7 C6 1_555 1_555
H4 C7 1_555 1_555
C8 C7 1_555 1_555
H5 C8 1_555 1_555
C9 C4 1_555 1_555
H6 C9 1_555 1_555
C10 C1 1_555 1_555
C11 C10 1_555 1_555
C12 C11 1_555 1_555
H7 C12 1_555 1_555
C13 C12 1_555 1_555
H8 C13 1_555 1_555
C14 C13 1_555 1_555
H9 C14 1_555 1_555
C15 C10 1_555 1_555
H10 C15 1_555 1_555
H11 O1 1_555 1_555
C8 C9 1_555 1_555
C14 C15 1_555 1_555

#END
