
#######################################################################
#
#                 Cambridge Crystallographic Data Centre
#                                CCDC 
#
#######################################################################
#
# If this CIF has been generated from an entry in the Cambridge 
# Structural Database, then it will include bibliographic, chemical, 
# crystal, experimental, refinement or atomic coordinate data resulting 
# from the CCDC's data processing and validation procedures.
#
#######################################################################

data_TINZIB
_chemical_formula_moiety         'C25 H22 F6 N2 O2'
_chemical_name_systematic        
4-(3-(4-Methoxyphenyl)hexahydro[1,3]oxazolo[3,4-a]pyridin-1-yl)-2,8-bis(trifluoromethyl)quinoline
_symmetry_cell_setting           triclinic
_symmetry_space_group_name_H-M   'P -1'
_symmetry_Int_Tables_number      2
_space_group_name_Hall           '-P 1'
loop_
_symmetry_equiv_pos_site_id
_symmetry_equiv_pos_as_xyz
1 x,y,z
2 -x,-y,-z
_cell_length_a                   9.8583(3)
_cell_length_b                   10.2275(2)
_cell_length_c                   12.5166(5)
_cell_angle_alpha                98.857(2)
_cell_angle_beta                 90.272(2)
_cell_angle_gamma                115.713(2)
_cell_volume                     1119.84
_exptl_crystal_colour            colorless
_exptl_crystal_description       lath
_cell_formula_units_Z            2
loop_
_atom_site_label
_atom_site_type_symbol
_atom_site_fract_x
_atom_site_fract_y
_atom_site_fract_z
F1 F 0.81858(11) 0.64857(10) 0.20830(8)
F2 F 0.84662(13) 0.26987(11) 0.50803(8)
O1 O 0.50621(12) 0.41855(11) 0.73104(9)
F3 F 0.92716(13) 0.88427(11) 0.23086(8)
F4 F 1.03173(11) 0.77000(12) 0.30246(8)
O2 O 0.50254(13) -0.16512(11) 0.83769(10)
N1 N 0.72123(14) 0.52308(13) 0.84108(10)
N2 N 0.80597(15) 0.54698(14) 0.40920(10)
F5 F 0.67546(13) 0.19914(11) 0.37937(10)
F6 F 0.90318(15) 0.34438(13) 0.35741(10)
C1 C 0.42065(18) 0.15660(17) 0.87188(13)
H1 H 0.3447 0.1851 0.8962
C2 C 0.69349(17) 0.44289(16) 0.56561(13)
H2 H 0.6671 0.3633 0.6042
C3 C 0.81893(18) 0.77881(17) 0.38252(13)
C4 C 0.56724(17) 0.41109(16) 0.83317(12)
H3 H 0.5128 0.4387 0.8931
C5 C 0.70173(17) 0.67419(16) 0.54087(13)
C6 C 0.77522(17) 0.66378(16) 0.44509(12)
C7 C 0.66022(18) 0.21471(17) 0.79988(13)
H4 H 0.7492 0.2828 0.7739
C8 C 0.51128(18) -0.02755(16) 0.83928(13)
C9 C 0.66161(17) 0.55853(16) 0.60279(13)
C10 C 0.70348(18) 0.64632(16) 0.80816(13)
H5 H 0.6528 0.6838 0.8657
C11 C 0.58933(17) 0.56477(16) 0.70821(12)
H6 H 0.5197 0.6116 0.7030
C12 C 0.80298(19) 0.56457(17) 0.94754(13)
H7 H 0.8113 0.4785 0.9681
H8 H 0.7477 0.5980 1.0026
C13 C 0.64194(18) 0.07389(17) 0.80280(14)
H9 H 0.7188 0.0460 0.7798
C14 C 0.40016(18) 0.01396(17) 0.87430(13)
H10 H 0.3109 -0.0545 0.8997
C15 C 0.85545(18) 0.77025(17) 0.79704(14)
H11 H 0.8422 0.8542 0.7770
H12 H 0.9072 0.7365 0.7393
C16 C 0.7886(2) 0.89682(17) 0.41423(14)
H13 H 0.8183 0.9733 0.3723
C17 C 0.7139(2) 0.90572(18) 0.50851(15)
H14 H 0.6924 0.9877 0.5292
C18 C 0.9501(2) 0.81854(18) 0.90534(14)
H15 H 1.0531 0.8938 0.8973
H16 H 0.9042 0.8637 0.9605
C19 C 0.95978(19) 0.68808(19) 0.94352(15)
H17 H 1.0178 0.6512 0.8934
H18 H 1.0140 0.7205 1.0166
C20 C 0.67191(19) 0.79836(17) 0.57032(14)
H19 H 0.6220 0.8065 0.6340
C21 C 0.89807(19) 0.76922(18) 0.28211(13)
C22 C 0.36863(19) -0.27234(17) 0.87345(14)
H20 H 0.3557 -0.2358 0.9480
H21 H 0.3774 -0.3646 0.8711
H22 H 0.2810 -0.2901 0.8258
C23 C 0.76589(18) 0.44398(16) 0.46937(13)
C24 C 0.79883(19) 0.31523(18) 0.42816(13)
C25 C 0.54976(17) 0.25842(16) 0.83466(12)
loop_
_geom_bond_atom_site_label_1
_geom_bond_atom_site_label_2
_geom_bond_site_symmetry_1
_geom_bond_site_symmetry_2
F1 C21 1_555 1_555
F2 C24 1_555 1_555
O1 C4 1_555 1_555
F3 C21 1_555 1_555
F4 C21 1_555 1_555
O2 C8 1_555 1_555
N1 C4 1_555 1_555
N2 C6 1_555 1_555
F5 C24 1_555 1_555
F6 C24 1_555 1_555
C1 H1 1_555 1_555
C2 H2 1_555 1_555
C3 C6 1_555 1_555
C4 H3 1_555 1_555
C5 C6 1_555 1_555
C7 H4 1_555 1_555
C8 C13 1_555 1_555
C9 C2 1_555 1_555
C10 N1 1_555 1_555
H5 C10 1_555 1_555
C11 O1 1_555 1_555
H6 C11 1_555 1_555
C12 N1 1_555 1_555
H7 C12 1_555 1_555
H8 C12 1_555 1_555
C13 C7 1_555 1_555
H9 C13 1_555 1_555
C14 C1 1_555 1_555
H10 C14 1_555 1_555
C15 C10 1_555 1_555
H11 C15 1_555 1_555
H12 C15 1_555 1_555
C16 C3 1_555 1_555
H13 C16 1_555 1_555
C17 C16 1_555 1_555
H14 C17 1_555 1_555
C18 C15 1_555 1_555
H15 C18 1_555 1_555
H16 C18 1_555 1_555
C19 C12 1_555 1_555
H17 C19 1_555 1_555
H18 C19 1_555 1_555
C20 C5 1_555 1_555
H19 C20 1_555 1_555
C21 C3 1_555 1_555
C22 O2 1_555 1_555
H20 C22 1_555 1_555
H21 C22 1_555 1_555
H22 C22 1_555 1_555
C23 N2 1_555 1_555
C24 C23 1_555 1_555
C25 C1 1_555 1_555
C2 C23 1_555 1_555
C4 C25 1_555 1_555
C5 C9 1_555 1_555
C7 C25 1_555 1_555
C8 C14 1_555 1_555
C9 C11 1_555 1_555
C10 C11 1_555 1_555
C17 C20 1_555 1_555
C18 C19 1_555 1_555

#END
