
#######################################################################
#
#                 Cambridge Crystallographic Data Centre
#                                CCDC 
#
#######################################################################
#
# If this CIF has been generated from an entry in the Cambridge 
# Structural Database, then it will include bibliographic, chemical, 
# crystal, experimental, refinement or atomic coordinate data resulting 
# from the CCDC's data processing and validation procedures.
#
#######################################################################

data_TIPBIF
_chemical_formula_moiety         'C44 H31 N5 O4,1.76(C2 H6 O1),0.71(H2 O1)'
_chemical_name_systematic        
'12-Nitro-5,10,15,20-tetraphenyl-2,3-dihydroporphyrin-2,3-diol ethanol solvate hydrate'
_symmetry_cell_setting           triclinic
_symmetry_space_group_name_H-M   'P -1'
_symmetry_Int_Tables_number      2
_space_group_name_Hall           '-P 1'
loop_
_symmetry_equiv_pos_site_id
_symmetry_equiv_pos_as_xyz
1 x,y,z
2 -x,-y,-z
_cell_length_a                   13.2484(13)
_cell_length_b                   13.4374(14)
_cell_length_c                   14.0439(14)
_cell_angle_alpha                84.884(2)
_cell_angle_beta                 64.9150(10)
_cell_angle_gamma                62.9700(10)
_cell_volume                     2000.33
_exptl_crystal_colour            black
_exptl_crystal_description       plate
_cell_formula_units_Z            2
loop_
_atom_site_label
_atom_site_type_symbol
_atom_site_fract_x
_atom_site_fract_y
_atom_site_fract_z
C1 C -0.10873(18) 0.73756(17) -0.00152(15)
C2 C -0.1827(2) 0.67241(18) 0.01679(15)
H1 H -0.2684 0.7260 0.0230
C3 C -0.1949(2) 0.63431(18) 0.12652(16)
H2 H -0.2850 0.6600 0.1773
C4 C -0.1384(2) 0.69348(17) 0.15960(15)
C5 C -0.1456(2) 0.69690(17) 0.26137(15)
C6 C -0.0871(2) 0.74356(19) 0.29376(16)
C7 C -0.1116(3) 0.7688(2) 0.40054(17)
H3 H -0.1743 0.7616 0.4625
C8 C -0.0303(3) 0.8046(2) 0.39841(18)
H4 H -0.0274 0.8279 0.4587
C9 C 0.0505(3) 0.8016(2) 0.29018(17)
C10 C 0.1557(3) 0.8191(2) 0.25134(18)
C11 C 0.2235(2) 0.82474(19) 0.14317(17)
C12 C 0.3430(3) 0.8285(2) 0.0943(2)
C13 C 0.3665(3) 0.8506(2) -0.0073(2)
H5 H 0.4366 0.8589 -0.0583
C14 C 0.2592(2) 0.85882(17) -0.01975(16)
C15 C 0.2410(2) 0.88908(17) -0.11288(15)
C16 C 0.1470(2) 0.88805(17) -0.13171(15)
C17 C 0.1181(2) 0.92476(18) -0.22023(16)
H6 H 0.1543 0.9628 -0.2736
C18 C 0.0306(2) 0.89620(18) -0.21497(16)
H7 H -0.0046 0.9101 -0.2642
C19 C -0.00011(19) 0.84129(17) -0.12223(15)
C20 C -0.07851(19) 0.78987(17) -0.09275(15)
C21 C -0.2160(2) 0.64504(18) 0.34508(16)
C22 C -0.3436(2) 0.68144(19) 0.38130(17)
H8 H -0.3894 0.7401 0.3506
C23 C -0.4058(2) 0.6336(2) 0.46177(19)
H9 H -0.4930 0.6586 0.4848
C24 C -0.3403(3) 0.5493(2) 0.50827(19)
H10 H -0.3827 0.5172 0.5641
C25 C -0.2139(3) 0.5123(2) 0.4734(2)
H11 H -0.1688 0.4542 0.5051
C26 C -0.1513(3) 0.5593(2) 0.39198(18)
H12 H -0.0636 0.5326 0.3681
C27 C 0.1960(3) 0.8356(2) 0.33056(18)
C28 C 0.2169(3) 0.7575(2) 0.4013(2)
H13 H 0.2073 0.6922 0.3979
C29 C 0.2514(3) 0.7744(3) 0.4764(2)
H14 H 0.2644 0.7211 0.5247
C30 C 0.2668(3) 0.8679(2) 0.48130(19)
H15 H 0.2908 0.8792 0.5327
C31 C 0.2474(2) 0.9457(2) 0.41104(19)
H16 H 0.2589 1.0100 0.4139
C32 C 0.2112(2) 0.93013(19) 0.33641(17)
H17 H 0.1968 0.9844 0.2892
C33 C 0.3295(2) 0.92367(18) -0.19772(15)
C34 C 0.3441(2) 1.01450(18) -0.17698(18)
H18 H 0.2988 1.0538 -0.1073
C35 C 0.4240(2) 1.04831(19) -0.2569(2)
H19 H 0.4331 1.1105 -0.2418
C36 C 0.4905(2) 0.9914(2) -0.35833(19)
H20 H 0.5438 1.0156 -0.4134
C37 C 0.4795(2) 0.8995(2) -0.37983(17)
H21 H 0.5267 0.8595 -0.4493
C38 C 0.3997(2) 0.86548(19) -0.30038(16)
H22 H 0.3927 0.8021 -0.3157
C39 C -0.1350(2) 0.79247(18) -0.16616(15)
C40 C -0.0620(2) 0.7242(2) -0.26367(17)
H23 H 0.0250 0.6762 -0.2849
C41 C -0.1163(2) 0.7263(2) -0.32963(18)
H24 H -0.0661 0.6800 -0.3961
C42 C -0.2430(2) 0.7954(2) -0.29925(19)
H25 H -0.2802 0.7952 -0.3440
C43 C -0.3156(2) 0.8648(2) -0.20361(19)
H26 H -0.4023 0.9136 -0.1834
C44 C -0.2617(2) 0.86298(19) -0.13714(17)
H27 H -0.3120 0.9104 -0.0713
N1 N -0.08257(16) 0.74304(14) 0.08054(12)
N2 N 0.0068(2) 0.76950(16) 0.23082(13)
H28 H 0.0359 0.7662 0.1614
N3 N 0.17534(18) 0.84256(15) 0.07037(13)
N4 N 0.06792(16) 0.84316(14) -0.07255(12)
H29 H 0.0621 0.8190 -0.0110
N5 N 0.4416(2) 0.79428(19) 0.12777(16)
O1 O 0.4609(2) 0.71493(18) 0.17986(16)
O2 O 0.50302(19) 0.84743(18) 0.10176(15)
O3 O -0.12631(19) 0.58456(15) -0.06487(13)
H30 H -0.0499 0.5458 -0.0788
O4 O -0.12228(18) 0.51637(14) 0.12188(14)
H31 H -0.1627 0.4832 0.1214
O5 O 0.7553(2) 0.4135(2) 0.1015(2)
H32 H 0.7371 0.4323 0.0500
C45 C 0.6452(3) 0.4270(3) 0.1944(3)
H33 H 0.6122 0.3785 0.1829
H34 H 0.5792 0.5063 0.2100
C46 C 0.6820(4) 0.3927(3) 0.2911(3)
H35 H 0.7446 0.3132 0.2764
H36 H 0.6069 0.4043 0.3560
H37 H 0.7171 0.4395 0.3004
O6 O 0.5231(10) 0.7497(8) -0.1449(7)
C47? C 0.3478(12) 0.7994(6) 0.0902(10)
H38? H 0.4101 0.7721 0.1160
C48? C 0.3588(8) 0.8225(6) -0.0051(9)
N6? N 0.4900(8) 0.7944(10) -0.0583(7)
O7? O 0.5465(12) 0.8052(15) -0.0150(9)
O8? O 0.672(3) 0.557(2) -0.0503(16)
H39? H 0.7308 0.5720 -0.0598
C49? C 0.639(2) 0.5881(15) -0.1342(15)
H40? H 0.5485 0.6111 -0.1114
H41? H 0.6577 0.6494 -0.1672
C50? C 0.718(3) 0.4838(19) -0.203(2)
H42? H 0.7948 0.4427 -0.1930
H43? H 0.6738 0.4383 -0.1876
H44? H 0.7404 0.4992 -0.2772
O9? O 0.5003(10) 0.5976(9) 0.2581(8)
H45? H 0.5112 0.5671 0.2024
H46? H 0.5366 0.6381 0.2390
O10? O 0.6117(12) 0.3965(8) 0.1230(8)
H47? H 0.6476 0.3269 0.1262
H48? H 0.6662 0.4186 0.1116
O11? O 0.6687(15) 0.4049(13) 0.2629(11)
H49? H 0.6520 0.4722 0.2516
H50? H 0.6054 0.3982 0.2705
O12? O 0.7641(4) 0.4629(3) -0.0856(3)
H51? H 0.8099 0.4950 -0.1099
C51? C 0.6743(8) 0.5036(7) -0.1248(6)
H52? H 0.6420 0.4488 -0.1193
H53? H 0.6029 0.5753 -0.0815
C52? C 0.7261(10) 0.5221(7) -0.2330(5)
H54? H 0.7442 0.5858 -0.2370
H55? H 0.8039 0.4543 -0.2740
H56? H 0.6656 0.5388 -0.2623
O13? O 0.786(2) 0.573(2) -0.1706(18)
H57? H 0.7449 0.5366 -0.1418
H58? H 0.8513 0.5421 -0.1616
O14? O 0.606(3) 0.645(3) -0.243(2)
H59? H 0.5394 0.6377 -0.2191
H60? H 0.6397 0.6141 -0.2011
O15? O 0.577(4) 0.562(3) -0.048(3)
H61? H 0.5459 0.5978 -0.0899
H62? H 0.5501 0.5147 -0.0280
loop_
_geom_bond_atom_site_label_1
_geom_bond_atom_site_label_2
_geom_bond_site_symmetry_1
_geom_bond_site_symmetry_2
C1 C2 1_555 1_555
C2 H1 1_555 1_555
C3 C2 1_555 1_555
H2 C3 1_555 1_555
C4 C3 1_555 1_555
C5 C4 1_555 1_555
C6 C5 1_555 1_555
C7 C6 1_555 1_555
H3 C7 1_555 1_555
C8 C7 1_555 1_555
H4 C8 1_555 1_555
C9 C8 1_555 1_555
C10 C9 1_555 1_555
C11 C10 1_555 1_555
C12 C11 1_555 1_555
C13 C12 1_555 1_555
H5 C13 1_555 1_555
C14 C13 1_555 1_555
C15 C14 1_555 1_555
C16 C15 1_555 1_555
C17 C16 1_555 1_555
H6 C17 1_555 1_555
C18 C17 1_555 1_555
H7 C18 1_555 1_555
C19 C18 1_555 1_555
C20 C1 1_555 1_555
C21 C5 1_555 1_555
C22 C21 1_555 1_555
H8 C22 1_555 1_555
C23 C22 1_555 1_555
H9 C23 1_555 1_555
C24 C23 1_555 1_555
H10 C24 1_555 1_555
C25 C24 1_555 1_555
H11 C25 1_555 1_555
C26 C21 1_555 1_555
H12 C26 1_555 1_555
C27 C10 1_555 1_555
C28 C27 1_555 1_555
H13 C28 1_555 1_555
C29 C28 1_555 1_555
H14 C29 1_555 1_555
C30 C29 1_555 1_555
H15 C30 1_555 1_555
C31 C30 1_555 1_555
H16 C31 1_555 1_555
C32 C27 1_555 1_555
H17 C32 1_555 1_555
C33 C15 1_555 1_555
C34 C33 1_555 1_555
H18 C34 1_555 1_555
C35 C34 1_555 1_555
H19 C35 1_555 1_555
C36 C35 1_555 1_555
H20 C36 1_555 1_555
C37 C36 1_555 1_555
H21 C37 1_555 1_555
C38 C33 1_555 1_555
H22 C38 1_555 1_555
C39 C20 1_555 1_555
C40 C39 1_555 1_555
H23 C40 1_555 1_555
C41 C40 1_555 1_555
H24 C41 1_555 1_555
C42 C41 1_555 1_555
H25 C42 1_555 1_555
C43 C42 1_555 1_555
H26 C43 1_555 1_555
C44 C39 1_555 1_555
H27 C44 1_555 1_555
N1 C1 1_555 1_555
N2 C6 1_555 1_555
H28 N2 1_555 1_555
N3 C11 1_555 1_555
N4 C16 1_555 1_555
H29 N4 1_555 1_555
N5 C12 1_555 1_555
O1 N5 1_555 1_555
O2 N5 1_555 1_555
O3 C2 1_555 1_555
H30 O3 1_555 1_555
O4 C3 1_555 1_555
H31 O4 1_555 1_555
O5 H32 1_555 1_555
C45 O5 1_555 1_555
H33 C45 1_555 1_555
H34 C45 1_555 1_555
C46 C45 1_555 1_555
H35 C46 1_555 1_555
H36 C46 1_555 1_555
H37 C46 1_555 1_555
C4 N1 1_555 1_555
C9 N2 1_555 1_555
C14 N3 1_555 1_555
C19 C20 1_555 1_555
C19 N4 1_555 1_555
C25 C26 1_555 1_555
C31 C32 1_555 1_555
C37 C38 1_555 1_555
C43 C44 1_555 1_555

#END
