
#######################################################################
#
#                 Cambridge Crystallographic Data Centre
#                                CCDC 
#
#######################################################################
#
# If this CIF has been generated from an entry in the Cambridge 
# Structural Database, then it will include bibliographic, chemical, 
# crystal, experimental, refinement or atomic coordinate data resulting 
# from the CCDC's data processing and validation procedures.
#
#######################################################################

data_TIPSUI
_chemical_formula_moiety         'C12 H14 B1 F2 N3'
_chemical_name_systematic        
(N-(bis(1H-pyrrol-2-yl)methylene)propan-2-aminiumato)-difluoro-boron
_symmetry_cell_setting           monoclinic
_symmetry_space_group_name_H-M   'C 2/c'
_symmetry_Int_Tables_number      15
_space_group_name_Hall           '-C 2yn'
loop_
_symmetry_equiv_pos_site_id
_symmetry_equiv_pos_as_xyz
1 x,y,z
2 -x,y,1/2-z
3 1/2+x,1/2+y,z
4 1/2-x,1/2+y,1/2-z
5 -x,-y,-z
6 x,-y,1/2+z
7 1/2-x,1/2-y,-z
8 1/2+x,1/2-y,1/2+z
_cell_length_a                   18.23(3)
_cell_length_b                   17.42(3)
_cell_length_c                   15.14(2)
_cell_angle_alpha                90
_cell_angle_beta                 98.19(3)
_cell_angle_gamma                90
_cell_volume                     4758.92
_exptl_crystal_colour            yellow
_exptl_crystal_description       slab
_cell_formula_units_Z            16
loop_
_atom_site_label
_atom_site_type_symbol
_atom_site_fract_x
_atom_site_fract_y
_atom_site_fract_z
B1 B 0.2963(4) 0.1122(4) -0.1007(4)
F1 F 0.33340(19) 0.04365(18) -0.1084(2)
F2 F 0.31484(19) 0.16090(18) -0.16642(19)
N1 N 0.3165(3) 0.1468(2) -0.0095(3)
N2 N 0.2139(3) 0.0988(2) -0.1141(3)
N3 N 0.1496(3) 0.1680(3) 0.0872(4)
H1 H 0.172(3) 0.197(3) 0.130(4)
C1 C 0.3841(4) 0.1676(3) 0.0291(4)
H2 H 0.4275 0.1607 0.0044
C2 C 0.3802(4) 0.2005(3) 0.1101(4)
H3 H 0.4193 0.2206 0.1494
C3 C 0.3074(4) 0.1979(3) 0.1220(4)
H4 H 0.2877 0.2155 0.1717
C4 C 0.2688(3) 0.1652(3) 0.0482(4)
C5 C 0.1923(4) 0.1480(3) 0.0281(4)
C6 C 0.1646(3) 0.1113(3) -0.0542(4)
C7 C 0.0955(4) 0.0902(3) -0.0949(4)
H5 H 0.0521 0.0915 -0.0693
C8 C 0.1017(4) 0.0670(3) -0.1797(4)
H6 H 0.0634 0.0504 -0.2227
C9 C 0.1745(4) 0.0730(3) -0.1892(4)
H7 H 0.1941 0.0608 -0.2408
C10 C 0.0721(3) 0.1552(3) 0.0895(4)
H8 H 0.0457 0.1623 0.0290
C11 C 0.0441(3) 0.2133(4) 0.1493(4)
H9 H 0.0679 0.2057 0.2094
H10 H -0.0085 0.2075 0.1471
H11 H 0.0549 0.2639 0.1298
C12 C 0.0586(4) 0.0742(4) 0.1186(5)
H12 H 0.0791 0.0386 0.0803
H13 H 0.0063 0.0655 0.1151
H14 H 0.0819 0.0669 0.1790
B2 B 0.1360(4) 0.1588(4) 0.5492(5)
F3 F 0.1882(2) 0.1300(2) 0.6154(2)
F4 F 0.0756(2) 0.11128(18) 0.5428(2)
N4 N 0.1143(3) 0.2396(3) 0.5756(3)
N5 N 0.1647(3) 0.1659(2) 0.4625(3)
N6 N 0.1497(3) 0.3625(3) 0.3928(4)
H15 H 0.169(3) 0.354(3) 0.343(3)
C13 C 0.0901(4) 0.2574(4) 0.6527(4)
H16 H 0.0827 0.2225 0.6971
C14 C 0.0779(4) 0.3345(4) 0.6558(4)
H17 H 0.0618 0.3613 0.7026
C15 C 0.0936(3) 0.3651(3) 0.5777(4)
H18 H 0.0891 0.4165 0.5612
C16 C 0.1175(3) 0.3062(3) 0.5275(4)
C17 C 0.1450(3) 0.3031(3) 0.4451(4)
C18 C 0.1710(3) 0.2315(3) 0.4153(4)
C19 C 0.2026(3) 0.2143(3) 0.3415(4)
H19 H 0.2126 0.2487 0.2978
C20 C 0.2172(4) 0.1371(3) 0.3432(4)
H20 H 0.2389 0.1095 0.3012
C21 C 0.1937(4) 0.1087(3) 0.4183(4)
H21 H 0.1972 0.0576 0.4363
C22 C 0.1298(4) 0.4424(3) 0.4042(4)
H22 H 0.1458 0.4574 0.4664
C23 C 0.0479(4) 0.4533(4) 0.3830(4)
H23 H 0.0321 0.4410 0.3214
H24 H 0.0357 0.5057 0.3939
H25 H 0.0233 0.4201 0.4201
C24 C 0.1709(4) 0.4899(3) 0.3445(4)
H26 H 0.2232 0.4825 0.3609
H27 H 0.1591 0.5431 0.3510
H28 H 0.1566 0.4745 0.2836
loop_
_geom_bond_atom_site_label_1
_geom_bond_atom_site_label_2
_geom_bond_site_symmetry_1
_geom_bond_site_symmetry_2
B1 F1 1_555 1_555
F2 B1 1_555 1_555
N1 B1 1_555 1_555
N2 B1 1_555 1_555
N3 H1 1_555 1_555
C1 N1 1_555 1_555
H2 C1 1_555 1_555
C2 C1 1_555 1_555
H3 C2 1_555 1_555
C3 C2 1_555 1_555
H4 C3 1_555 1_555
C4 N1 1_555 1_555
C5 N3 1_555 1_555
C6 N2 1_555 1_555
C7 C6 1_555 1_555
H5 C7 1_555 1_555
C8 C7 1_555 1_555
H6 C8 1_555 1_555
C9 N2 1_555 1_555
H7 C9 1_555 1_555
C10 N3 1_555 1_555
H8 C10 1_555 1_555
C11 C10 1_555 1_555
H9 C11 1_555 1_555
H10 C11 1_555 1_555
H11 C11 1_555 1_555
C12 C10 1_555 1_555
H12 C12 1_555 1_555
H13 C12 1_555 1_555
H14 C12 1_555 1_555
B2 F3 1_555 1_555
F4 B2 1_555 1_555
N4 B2 1_555 1_555
N5 B2 1_555 1_555
N6 H15 1_555 1_555
C13 N4 1_555 1_555
H16 C13 1_555 1_555
C14 C13 1_555 1_555
H17 C14 1_555 1_555
C15 C14 1_555 1_555
H18 C15 1_555 1_555
C16 N4 1_555 1_555
C17 N6 1_555 1_555
C18 N5 1_555 1_555
C19 C18 1_555 1_555
H19 C19 1_555 1_555
C20 C19 1_555 1_555
H20 C20 1_555 1_555
C21 N5 1_555 1_555
H21 C21 1_555 1_555
C22 N6 1_555 1_555
H22 C22 1_555 1_555
C23 C22 1_555 1_555
H23 C23 1_555 1_555
H24 C23 1_555 1_555
H25 C23 1_555 1_555
C24 C22 1_555 1_555
H26 C24 1_555 1_555
H27 C24 1_555 1_555
H28 C24 1_555 1_555
C3 C4 1_555 1_555
C4 C5 1_555 1_555
C5 C6 1_555 1_555
C8 C9 1_555 1_555
C15 C16 1_555 1_555
C16 C17 1_555 1_555
C17 C18 1_555 1_555
C20 C21 1_555 1_555

#END
