
#######################################################################
#
#                 Cambridge Crystallographic Data Centre
#                                CCDC 
#
#######################################################################
#
# If this CIF has been generated from an entry in the Cambridge 
# Structural Database, then it will include bibliographic, chemical, 
# crystal, experimental, refinement or atomic coordinate data resulting 
# from the CCDC's data processing and validation procedures.
#
#######################################################################

data_TIPTAP
_chemical_formula_moiety         'C9 H8 B1 F2 N3'
_chemical_name_systematic        
(bis(1H-pyrrol-2-yl)methaniminiumato)-difluoro-boron
_symmetry_cell_setting           monoclinic
_symmetry_space_group_name_H-M   'P 21/c'
_symmetry_Int_Tables_number      14
_space_group_name_Hall           '-P 2ybc'
loop_
_symmetry_equiv_pos_site_id
_symmetry_equiv_pos_as_xyz
1 x,y,z
2 -x,1/2+y,1/2-z
3 -x,-y,-z
4 x,1/2-y,1/2+z
_cell_length_a                   7.482(5)
_cell_length_b                   10.727(8)
_cell_length_c                   11.941(9)
_cell_angle_alpha                90
_cell_angle_beta                 102.161(13)
_cell_angle_gamma                90
_cell_volume                     936.871
_exptl_crystal_colour            yellow
_exptl_crystal_description       platy
_cell_formula_units_Z            4
loop_
_atom_site_label
_atom_site_type_symbol
_atom_site_fract_x
_atom_site_fract_y
_atom_site_fract_z
B1 B 0.7337(6) 0.1739(4) 0.8668(4)
F1 F 0.5991(3) 0.1339(2) 0.92426(18)
F2 F 0.6803(3) 0.2911(2) 0.81735(19)
N1 N 0.7561(4) 0.0807(3) 0.7741(2)
N2 N 0.9189(4) 0.1857(3) 0.9508(2)
N3 N 1.2403(4) 0.0006(3) 0.8294(3)
H1 H 1.348(5) 0.020(4) 0.879(4)
H2 H 1.246(6) -0.058(4) 0.773(3)
C1 C 0.6231(6) 0.0365(4) 0.6878(4)
H3 H 0.496(5) 0.063(3) 0.684(3)
C2 C 0.6966(6) -0.0459(4) 0.6210(4)
H4 H 0.623(5) -0.091(4) 0.554(3)
C3 C 0.8822(6) -0.0529(4) 0.6670(3)
H5 H 0.976(5) -0.102(4) 0.638(3)
C4 C 0.9191(4) 0.0256(3) 0.7623(3)
C5 C 1.0839(4) 0.0518(3) 0.8429(3)
C6 C 1.0819(4) 0.1326(3) 0.9368(3)
C7 C 1.2199(5) 0.1695(3) 1.0279(3)
H6 H 1.349(5) 0.148(3) 1.041(3)
C8 C 1.1400(6) 0.2464(4) 1.0977(4)
H7 H 1.202(5) 0.283(3) 1.167(3)
C9 C 0.9567(6) 0.2545(4) 1.0483(3)
H8 H 0.850(5) 0.298(3) 1.075(3)
loop_
_geom_bond_atom_site_label_1
_geom_bond_atom_site_label_2
_geom_bond_site_symmetry_1
_geom_bond_site_symmetry_2
B1 F1 1_555 1_555
F2 B1 1_555 1_555
N1 B1 1_555 1_555
N2 B1 1_555 1_555
N3 H1 1_555 1_555
H2 N3 1_555 1_555
C1 N1 1_555 1_555
H3 C1 1_555 1_555
C2 C1 1_555 1_555
H4 C2 1_555 1_555
C3 C2 1_555 1_555
H5 C3 1_555 1_555
C4 N1 1_555 1_555
C5 N3 1_555 1_555
C6 N2 1_555 1_555
C7 C6 1_555 1_555
H6 C7 1_555 1_555
C8 C7 1_555 1_555
H7 C8 1_555 1_555
C9 N2 1_555 1_555
H8 C9 1_555 1_555
C3 C4 1_555 1_555
C4 C5 1_555 1_555
C5 C6 1_555 1_555
C8 C9 1_555 1_555

#END
