
#######################################################################
#
#                 Cambridge Crystallographic Data Centre
#                                CCDC 
#
#######################################################################
#
# If this CIF has been generated from an entry in the Cambridge 
# Structural Database, then it will include bibliographic, chemical, 
# crystal, experimental, refinement or atomic coordinate data resulting 
# from the CCDC's data processing and validation procedures.
#
#######################################################################

data_TIPYAU
_chemical_formula_moiety         'C15 H13 F1 O2'
_chemical_name_systematic        '(S)-3-(2-Fluorophenyl)-3-phenylpropanoic acid'
_symmetry_cell_setting           monoclinic
_symmetry_space_group_name_H-M   'C 2'
_symmetry_Int_Tables_number      5
_space_group_name_Hall           'C 2y'
loop_
_symmetry_equiv_pos_site_id
_symmetry_equiv_pos_as_xyz
1 x,y,z
2 -x,y,-z
3 1/2+x,1/2+y,z
4 1/2-x,1/2+y,-z
_cell_length_a                   16.2671(8)
_cell_length_b                   6.6225(4)
_cell_length_c                   12.2428(7)
_cell_angle_alpha                90
_cell_angle_beta                 112.739(3)
_cell_angle_gamma                90
_cell_volume                     1216.39
_exptl_crystal_colour            colorless
_exptl_crystal_description       prism
_cell_formula_units_Z            4
loop_
_atom_site_label
_atom_site_type_symbol
_atom_site_fract_x
_atom_site_fract_y
_atom_site_fract_z
F1 F 0.01545(13) 0.3582(3) 0.80335(17)
O1 O 0.19579(12) 0.1409(3) 0.59295(16)
H1 H 0.2296 0.0617 0.5762
O2 O 0.22913(12) 0.3411(3) 0.47202(15)
C1 C 0.19389(13) 0.3161(4) 0.54197(17)
C2 C 0.14256(14) 0.4810(4) 0.57226(18)
H2 H 0.0828 0.4910 0.5076
H3 H 0.1736 0.6109 0.5755
C3 C 0.13073(14) 0.4521(4) 0.68949(19)
H4 H 0.1074 0.3126 0.6900
C4 C 0.06220(12) 0.6018(4) 0.69918(18)
C5 C 0.04987(15) 0.7967(4) 0.6532(2)
H5 H 0.0868 0.8443 0.6147
C6 C -0.01556(16) 0.9238(5) 0.6624(3)
H6 H -0.0226 1.0561 0.6301
C7 C -0.06964(17) 0.8594(6) 0.7176(3)
H7 H -0.1138 0.9468 0.7241
C8 C -0.05953(18) 0.6655(7) 0.7641(3)
H8 H -0.0974 0.6179 0.8012
C9 C 0.00676(17) 0.5419(5) 0.7556(2)
C10 C 0.21949(13) 0.4716(4) 0.79617(18)
C11 C 0.24968(18) 0.3092(5) 0.8727(2)
H9 H 0.2158 0.1882 0.8588
C12 C 0.3312(2) 0.3249(8) 0.9714(3)
H10 H 0.3521 0.2136 1.0239
C13 C 0.38025(19) 0.4976(8) 0.9924(2)
H11 H 0.4352 0.5060 1.0589
C14 C 0.34999(18) 0.6603(6) 0.9172(2)
H12 H 0.3842 0.7810 0.9320
C15 C 0.26939(15) 0.6484(5) 0.8193(2)
H13 H 0.2485 0.7615 0.7682
loop_
_geom_bond_atom_site_label_1
_geom_bond_atom_site_label_2
_geom_bond_site_symmetry_1
_geom_bond_site_symmetry_2
F1 C9 1_555 1_555
O1 H1 1_555 1_555
O2 C1 1_555 1_555
C1 O1 1_555 1_555
C2 C1 1_555 1_555
H2 C2 1_555 1_555
H3 C2 1_555 1_555
C3 C2 1_555 1_555
H4 C3 1_555 1_555
C4 C3 1_555 1_555
C5 C4 1_555 1_555
H5 C5 1_555 1_555
C6 C5 1_555 1_555
H6 C6 1_555 1_555
C7 C6 1_555 1_555
H7 C7 1_555 1_555
C8 C7 1_555 1_555
H8 C8 1_555 1_555
C9 C4 1_555 1_555
C10 C3 1_555 1_555
C11 C10 1_555 1_555
H9 C11 1_555 1_555
C12 C11 1_555 1_555
H10 C12 1_555 1_555
C13 C12 1_555 1_555
H11 C13 1_555 1_555
C14 C13 1_555 1_555
H12 C14 1_555 1_555
C15 C10 1_555 1_555
H13 C15 1_555 1_555
C8 C9 1_555 1_555
C14 C15 1_555 1_555

#END
