
#######################################################################
#
#                 Cambridge Crystallographic Data Centre
#                                CCDC 
#
#######################################################################
#
# If this CIF has been generated from an entry in the Cambridge 
# Structural Database, then it will include bibliographic, chemical, 
# crystal, experimental, refinement or atomic coordinate data resulting 
# from the CCDC's data processing and validation procedures.
#
#######################################################################

data_TIQXOI
_chemical_formula_moiety         'C32 H52 P2'
_chemical_name_systematic        
(3,3,9,9-Tetramethyl-3,4,5,7,8,9-hexahydrocyclohepta[4,5]benzo[1,2][7]annulene-1,11-diyl)bis(di-isopropylphosphine)
_symmetry_cell_setting           triclinic
_symmetry_space_group_name_H-M   'P -1'
_symmetry_Int_Tables_number      2
_space_group_name_Hall           '-P 1'
loop_
_symmetry_equiv_pos_site_id
_symmetry_equiv_pos_as_xyz
1 x,y,z
2 -x,-y,-z
_cell_length_a                   9.2962(3)
_cell_length_b                   12.3765(4)
_cell_length_c                   14.2115(5)
_cell_angle_alpha                88.2900(10)
_cell_angle_beta                 82.4530(10)
_cell_angle_gamma                70.9410(10)
_cell_volume                     1531.93
_exptl_crystal_colour            colorless
_exptl_crystal_description       plate
_cell_formula_units_Z            2
loop_
_atom_site_label
_atom_site_type_symbol
_atom_site_fract_x
_atom_site_fract_y
_atom_site_fract_z
C1 C 0.03380(15) 0.09188(11) 0.25042(9)
H1 H 0.0943 0.0854 0.3005
C2 C 0.00695(15) 0.18913(12) 0.19382(10)
C3 C -0.07559(17) 0.19447(13) 0.11681(10)
C4 C -0.12969(18) 0.10519(14) 0.10155(11)
H2 H -0.1843 0.1090 0.0489
C5 C -0.10760(17) 0.01077(13) 0.15961(11)
C6 C -0.02449(16) 0.00422(12) 0.23630(10)
C7 C 0.06703(16) 0.28263(12) 0.21410(10)
C8 C -0.00658(17) 0.39402(13) 0.20279(12)
H3 H 0.0517 0.4423 0.2119
C9 C -0.16578(18) 0.45667(15) 0.17809(13)
C10 C -0.1960(6) 0.4047(4) 0.0800(4)
H4 H -0.3008 0.3993 0.0903
H5 H -0.1948 0.4611 0.0292
C11 C -0.0868(11) 0.2897(12) 0.0433(8)
H6 H 0.0165 0.2961 0.0247
H7 H -0.1217 0.2683 -0.0142
C12 C 0.00138(16) -0.09568(12) 0.30078(10)
C13 C -0.11177(17) -0.13809(12) 0.33230(11)
H8 H -0.0836 -0.2063 0.3679
C14 C -0.27978(17) -0.08923(14) 0.31742(13)
C15 C -0.3027(2) -0.09141(15) 0.21181(14)
H9 H -0.3230 -0.1630 0.1990
H10 H -0.3953 -0.0269 0.2010
C16 C -0.1688(2) -0.08378(15) 0.14010(12)
H11 H -0.0842 -0.1575 0.1390
H12 H -0.2023 -0.0728 0.0762
C17 C -0.2748(5) 0.4299(5) 0.2559(4)
H13 H -0.3807 0.4695 0.2441
H14 H -0.2587 0.4556 0.3170
H15 H -0.2560 0.3473 0.2572
C18 C -0.1911(9) 0.5777(7) 0.1631(5)
H16 H -0.1154 0.5874 0.1116
H17 H -0.1802 0.6129 0.2215
H18 H -0.2947 0.6145 0.1462
C19 C -0.34828(19) 0.03348(15) 0.35777(15)
H19 H -0.3310 0.0339 0.4243
H20 H -0.4588 0.0618 0.3537
H21 H -0.2988 0.0829 0.3210
C20 C -0.3682(2) -0.16061(17) 0.37402(16)
H22 H -0.3241 -0.2406 0.3527
H23 H -0.4763 -0.1313 0.3636
H24 H -0.3607 -0.1554 0.4418
C21 C 0.25826(18) 0.36149(13) 0.32494(11)
H25 H 0.2380 0.4279 0.2810
C22 C 0.4177(2) 0.33643(16) 0.35520(14)
H26 H 0.4219 0.4036 0.3881
H27 H 0.4950 0.3186 0.2989
H28 H 0.4384 0.2710 0.3979
C23 C 0.1377(2) 0.39103(17) 0.41197(14)
H29 H 0.1557 0.3256 0.4546
H30 H 0.0354 0.4094 0.3922
H31 H 0.1444 0.4572 0.4452
C24 C 0.38951(17) 0.22862(13) 0.15097(11)
H32 H 0.4955 0.1982 0.1694
C25 C 0.3759(2) 0.14181(16) 0.08135(13)
H33 H 0.2790 0.1731 0.0545
H34 H 0.3781 0.0710 0.1148
H35 H 0.4619 0.1256 0.0301
C26 C 0.3765(2) 0.34216(15) 0.10201(13)
H36 H 0.4533 0.3293 0.0456
H37 H 0.3941 0.3948 0.1459
H38 H 0.2736 0.3754 0.0830
C27 C 0.17789(17) -0.25305(13) 0.43309(10)
H39 H 0.1225 -0.3032 0.4120
C28 C 0.0886(2) -0.18764(16) 0.52320(11)
H40 H 0.0825 -0.2419 0.5740
H41 H -0.0153 -0.1425 0.5110
H42 H 0.1410 -0.1365 0.5425
C29 C 0.3387(2) -0.32647(16) 0.45234(13)
H43 H 0.3967 -0.2768 0.4664
H44 H 0.3919 -0.3740 0.3963
H45 H 0.3306 -0.3756 0.5067
C30 C 0.30730(18) -0.24319(13) 0.23718(11)
H46 H 0.4121 -0.2812 0.2556
C31 C 0.2485(3) -0.33832(15) 0.21234(13)
H47 H 0.1441 -0.3051 0.1957
H48 H 0.2476 -0.3883 0.2671
H49 H 0.3158 -0.3829 0.1583
C32 C 0.3273(2) -0.17204(17) 0.15018(12)
H50 H 0.3984 -0.2216 0.0999
H51 H 0.3687 -0.1129 0.1671
H52 H 0.2277 -0.1359 0.1276
P1 P 0.25376(4) 0.23409(3) 0.26153(3)
P2 P 0.19354(4) -0.14895(3) 0.33896(3)
C33? C -0.2436(4) 0.3990(3) 0.1267(3)
H53? H -0.3116 0.4548 0.0871
H54? H -0.3084 0.3669 0.1724
C34? C -0.1303(10) 0.3027(12) 0.0634(7)
H55? H -0.1806 0.2893 0.0097
H56? H -0.0412 0.3261 0.0369
C35? C -0.2726(5) 0.5087(4) 0.2770(3)
H57? H -0.3757 0.5541 0.2636
H58? H -0.2274 0.5574 0.3077
H59? H -0.2790 0.4459 0.3192
C36? C -0.1483(8) 0.5657(6) 0.1245(5)
H60? H -0.0870 0.5428 0.0625
H61? H -0.0970 0.6036 0.1621
H62? H -0.2500 0.6185 0.1157
loop_
_geom_bond_atom_site_label_1
_geom_bond_atom_site_label_2
_geom_bond_site_symmetry_1
_geom_bond_site_symmetry_2
C1 H1 1_555 1_555
C2 C1 1_555 1_555
C3 C2 1_555 1_555
C4 C3 1_555 1_555
H2 C4 1_555 1_555
C5 C4 1_555 1_555
C6 C1 1_555 1_555
C7 C2 1_555 1_555
C8 C7 1_555 1_555
H3 C8 1_555 1_555
C9 C8 1_555 1_555
C10 C9 1_555 1_555
H4 C10 1_555 1_555
H5 C10 1_555 1_555
C11 C3 1_555 1_555
H6 C11 1_555 1_555
H7 C11 1_555 1_555
C12 C6 1_555 1_555
C13 C12 1_555 1_555
H8 C13 1_555 1_555
C14 C13 1_555 1_555
C15 C14 1_555 1_555
H9 C15 1_555 1_555
H10 C15 1_555 1_555
C16 C5 1_555 1_555
H11 C16 1_555 1_555
H12 C16 1_555 1_555
C17 C9 1_555 1_555
H13 C17 1_555 1_555
H14 C17 1_555 1_555
H15 C17 1_555 1_555
C18 C9 1_555 1_555
H16 C18 1_555 1_555
H17 C18 1_555 1_555
H18 C18 1_555 1_555
C19 C14 1_555 1_555
H19 C19 1_555 1_555
H20 C19 1_555 1_555
H21 C19 1_555 1_555
C20 C14 1_555 1_555
H22 C20 1_555 1_555
H23 C20 1_555 1_555
H24 C20 1_555 1_555
C21 H25 1_555 1_555
C22 C21 1_555 1_555
H26 C22 1_555 1_555
H27 C22 1_555 1_555
H28 C22 1_555 1_555
C23 C21 1_555 1_555
H29 C23 1_555 1_555
H30 C23 1_555 1_555
H31 C23 1_555 1_555
C24 H32 1_555 1_555
C25 C24 1_555 1_555
H33 C25 1_555 1_555
H34 C25 1_555 1_555
H35 C25 1_555 1_555
C26 C24 1_555 1_555
H36 C26 1_555 1_555
H37 C26 1_555 1_555
H38 C26 1_555 1_555
C27 H39 1_555 1_555
C28 C27 1_555 1_555
H40 C28 1_555 1_555
H41 C28 1_555 1_555
H42 C28 1_555 1_555
C29 C27 1_555 1_555
H43 C29 1_555 1_555
H44 C29 1_555 1_555
H45 C29 1_555 1_555
C30 H46 1_555 1_555
C31 C30 1_555 1_555
H47 C31 1_555 1_555
H48 C31 1_555 1_555
H49 C31 1_555 1_555
C32 C30 1_555 1_555
H50 C32 1_555 1_555
H51 C32 1_555 1_555
H52 C32 1_555 1_555
P1 C7 1_555 1_555
P2 C12 1_555 1_555
C5 C6 1_555 1_555
C10 C11 1_555 1_555
C15 C16 1_555 1_555
C21 P1 1_555 1_555
C24 P1 1_555 1_555
C27 P2 1_555 1_555
C30 P2 1_555 1_555

#END
