
#######################################################################
#
#                 Cambridge Crystallographic Data Centre
#                                CCDC 
#
#######################################################################
#
# If this CIF has been generated from an entry in the Cambridge 
# Structural Database, then it will include bibliographic, chemical, 
# crystal, experimental, refinement or atomic coordinate data resulting 
# from the CCDC's data processing and validation procedures.
#
#######################################################################

data_TIRRUK
_chemical_formula_moiety         'C18 H15 F3 N2 O3'
_chemical_name_systematic        
3-(benzyloxy)-5-methyl-1-[4-(trifluoromethyl)phenyl]imidazolidine-2,4-dione
_symmetry_cell_setting           orthorhombic
_symmetry_space_group_name_H-M   'P b c a'
_symmetry_Int_Tables_number      61
_space_group_name_Hall           '-P 2ac 2ab'
loop_
_symmetry_equiv_pos_site_id
_symmetry_equiv_pos_as_xyz
1 x,y,z
2 1/2+x,1/2-y,-z
3 -x,1/2+y,1/2-z
4 1/2-x,-y,1/2+z
5 -x,-y,-z
6 1/2-x,1/2+y,z
7 x,1/2-y,1/2+z
8 1/2+x,y,1/2-z
_cell_length_a                   17.298(2)
_cell_length_b                   5.9353(8)
_cell_length_c                   33.483(4)
_cell_angle_alpha                90
_cell_angle_beta                 90
_cell_angle_gamma                90
_cell_volume                     3437.66
_exptl_crystal_colour            colorless
_exptl_crystal_description       block
_cell_formula_units_Z            8
loop_
_atom_site_label
_atom_site_type_symbol
_atom_site_fract_x
_atom_site_fract_y
_atom_site_fract_z
C1 C 0.1303(3) 0.4819(8) 0.01592(10)
F1 F 0.0777(5) 0.583(2) -0.0066(3)
F2 F 0.1970(4) 0.532(3) -0.0019(3)
F3 F 0.1194(11) 0.2659(12) 0.0135(3)
C2 C 0.12929(18) 0.5621(5) 0.05821(7)
C3 C 0.06465(17) 0.6600(6) 0.07438(8)
H1 H 0.0209 0.6805 0.0586
C4 C 0.06383(13) 0.7284(4) 0.11367(7)
H2 H 0.0199 0.7970 0.1241
C5 C 0.12783(10) 0.6956(3) 0.13760(5)
C6 C 0.19291(12) 0.5966(4) 0.12142(6)
H3 H 0.2368 0.5760 0.1370
C7 C 0.19272(16) 0.5287(5) 0.08228(7)
H4 H 0.2363 0.4588 0.0718
N1 N 0.12588(8) 0.7628(2) 0.17788(4)
C8 C 0.06896(9) 0.9230(3) 0.19384(5)
H5 H 0.0166 0.8719 0.1873
C9 C 0.08159(9) 0.9110(3) 0.23834(5)
N2 N 0.14156(8) 0.7664(2) 0.24294(4)
C10 C 0.17068(9) 0.6745(3) 0.20763(5)
C11 C 0.08096(11) 1.1612(3) 0.17851(6)
H6 H 0.1325 1.2099 0.1848
H7 H 0.0443 1.2603 0.1910
H8 H 0.0737 1.1640 0.1501
C12 C 0.14750(12) 0.4897(3) 0.29184(6)
H9 H 0.1834 0.3764 0.2822
H10 H 0.0968 0.4576 0.2808
C13 C 0.14417(10) 0.4845(3) 0.33627(6)
C14 C 0.11306(12) 0.6609(4) 0.35774(6)
H11 H 0.0948 0.7878 0.3445
C15 C 0.10889(17) 0.6500(5) 0.39869(7)
H12 H 0.0875 0.7693 0.4129
C16 C 0.13586(19) 0.4654(6) 0.41871(8)
H13 H 0.1335 0.4599 0.4464
C17 C 0.16631(17) 0.2888(6) 0.39771(9)
H14 H 0.1842 0.1622 0.4112
C18 C 0.17064(13) 0.2973(4) 0.35661(8)
H15 H 0.1914 0.1766 0.3425
O1 O 0.22294(7) 0.5415(2) 0.20605(4)
O2 O 0.04733(8) 1.0125(2) 0.26403(4)
O3 O 0.17289(7) 0.7126(2) 0.27944(4)
F4? F 0.1173(11) 0.646(2) -0.0084(3)
F5? F 0.1941(5) 0.378(3) 0.0055(4)
F6? F 0.0735(6) 0.327(2) 0.0098(4)
loop_
_geom_bond_atom_site_label_1
_geom_bond_atom_site_label_2
_geom_bond_site_symmetry_1
_geom_bond_site_symmetry_2
C1 F1 1_555 1_555
F2 C1 1_555 1_555
F3 C1 1_555 1_555
C2 C1 1_555 1_555
C3 C2 1_555 1_555
H1 C3 1_555 1_555
C4 C3 1_555 1_555
H2 C4 1_555 1_555
C5 C4 1_555 1_555
C6 C5 1_555 1_555
H3 C6 1_555 1_555
C7 C2 1_555 1_555
H4 C7 1_555 1_555
N1 C5 1_555 1_555
C8 N1 1_555 1_555
H5 C8 1_555 1_555
C9 C8 1_555 1_555
N2 C9 1_555 1_555
C10 N1 1_555 1_555
C11 C8 1_555 1_555
H6 C11 1_555 1_555
H7 C11 1_555 1_555
H8 C11 1_555 1_555
C12 H9 1_555 1_555
H10 C12 1_555 1_555
C13 C12 1_555 1_555
C14 C13 1_555 1_555
H11 C14 1_555 1_555
C15 C14 1_555 1_555
H12 C15 1_555 1_555
C16 C15 1_555 1_555
H13 C16 1_555 1_555
C17 C16 1_555 1_555
H14 C17 1_555 1_555
C18 C13 1_555 1_555
H15 C18 1_555 1_555
O1 C10 1_555 1_555
O2 C9 1_555 1_555
O3 N2 1_555 1_555
C6 C7 1_555 1_555
N2 C10 1_555 1_555
C12 O3 1_555 1_555
C17 C18 1_555 1_555

#END
