
#######################################################################
#
#                 Cambridge Crystallographic Data Centre
#                                CCDC 
#
#######################################################################
#
# If this CIF has been generated from an entry in the Cambridge 
# Structural Database, then it will include bibliographic, chemical, 
# crystal, experimental, refinement or atomic coordinate data resulting 
# from the CCDC's data processing and validation procedures.
#
#######################################################################

data_TIRSAR
_chemical_formula_moiety         'C32 H42 N2 O10'
_chemical_name_systematic        
1,4-bis(2,3,5,6,8,9,11,12-octahydro-7H-1,4,10,13,7-benzotetraoxazacyclopentadecin-7-yl)but-2-ene-1,4-dione
_symmetry_cell_setting           monoclinic
_symmetry_space_group_name_H-M   'C c'
_symmetry_Int_Tables_number      9
_space_group_name_Hall           'C -2yc'
loop_
_symmetry_equiv_pos_site_id
_symmetry_equiv_pos_as_xyz
1 x,y,z
2 x,-y,1/2+z
3 1/2+x,1/2+y,z
4 1/2+x,1/2-y,1/2+z
_cell_length_a                   11.960(4)
_cell_length_b                   12.007(4)
_cell_length_c                   43.576(15)
_cell_angle_alpha                90
_cell_angle_beta                 93.700(5)
_cell_angle_gamma                90
_cell_volume                     6244.63
_cell_formula_units_Z            8
loop_
_atom_site_label
_atom_site_type_symbol
_atom_site_fract_x
_atom_site_fract_y
_atom_site_fract_z
O1 O 0.3096(4) 0.0760(4) 0.30878(11)
O2 O 0.2445(4) 0.1653(4) 0.25176(12)
O3 O 0.3223(4) 0.3605(4) 0.24929(11)
O4 O 0.4321(4) 0.4402(4) 0.30807(10)
O5 O 0.2595(5) 0.1611(4) 0.40033(13)
O6 O 0.2064(5) 0.5691(5) 0.41154(12)
O7 O 0.1574(4) 0.6544(4) 0.50321(11)
O8 O 0.2156(4) 0.5727(4) 0.56145(12)
O9 O 0.1360(4) 0.3728(4) 0.56439(11)
O10 O 0.0339(4) 0.2924(4) 0.50492(11)
N1 N 0.3708(5) 0.2216(4) 0.36451(13)
N2 N 0.0962(5) 0.5037(5) 0.44740(13)
C1 C 0.4009(6) 0.1069(6) 0.35836(18)
H1 H 0.4172 0.0688 0.3778
H2 H 0.4686 0.1062 0.3472
C2 C 0.3113(7) 0.0448(6) 0.34016(16)
H3 H 0.3248 -0.0346 0.3421
H4 H 0.2392 0.0609 0.3481
C3 C 0.2155(7) 0.0380(8) 0.2914(2)
H5 H 0.1503 0.0800 0.2967
H6 H 0.2028 -0.0398 0.2961
C4 C 0.2310(8) 0.0504(7) 0.25797(19)
H7 H 0.2966 0.0093 0.2525
H8 H 0.1662 0.0214 0.2460
C5 C 0.2783(6) 0.1932(6) 0.22407(17)
C6 C 0.2710(7) 0.1311(8) 0.19824(18)
H9 H 0.2403 0.0601 0.1989
C7 C 0.3080(9) 0.1702(8) 0.1706(2)
H10 H 0.3040 0.1248 0.1533
C8 C 0.3507(8) 0.2766(9) 0.1690(2)
H11 H 0.3737 0.3051 0.1506
C9 C 0.3583(7) 0.3401(8) 0.19587(17)
H12 H 0.3903 0.4106 0.1952
C10 C 0.3222(6) 0.3049(6) 0.22249(15)
C11 C 0.3901(6) 0.4591(6) 0.25243(17)
H13 H 0.3648 0.5136 0.2371
H14 H 0.4676 0.4409 0.2493
C12 C 0.3810(6) 0.5053(6) 0.28340(15)
H15 H 0.4150 0.5788 0.2841
H16 H 0.3023 0.5145 0.2869
C13 C 0.3631(5) 0.3575(5) 0.32075(16)
H17 H 0.3469 0.2982 0.3060
H18 H 0.2929 0.3898 0.3263
C14 C 0.4291(5) 0.3131(6) 0.34898(16)
H19 H 0.5010 0.2860 0.3430
H20 H 0.4433 0.3736 0.3635
C15 C 0.3023(6) 0.2402(7) 0.38704(15)
C16 C 0.2726(6) 0.3540(7) 0.39591(16)
H21 H 0.3083 0.4141 0.3873
C17 C 0.1955(6) 0.3728(6) 0.41604(15)
H22 H 0.1609 0.3128 0.4250
C18 C 0.1638(6) 0.4891(6) 0.42445(16)
C19 C 0.0647(7) 0.6225(6) 0.45371(16)
H23 H -0.0033 0.6229 0.4647
H24 H 0.0487 0.6605 0.4343
C20 C 0.1543(6) 0.6857(7) 0.47220(17)
H25 H 0.2265 0.6709 0.4641
H26 H 0.1397 0.7649 0.4704
C21 C 0.2535(7) 0.6939(7) 0.52113(17)
H27 H 0.2697 0.7702 0.5155
H28 H 0.3182 0.6483 0.5173
C22 C 0.2294(8) 0.6879(6) 0.5544(2)
H29 H 0.2910 0.7194 0.5671
H30 H 0.1617 0.7290 0.5580
C23 C 0.1629(6) 0.5465(7) 0.58757(17)
C24 C 0.1496(7) 0.6204(8) 0.61169(19)
H31 H 0.1785 0.6922 0.6108
C25 C 0.0942(8) 0.5884(10) 0.6367(2)
H32 H 0.0850 0.6387 0.6526
C26 C 0.0528(8) 0.4841(9) 0.63855(19)
H33 H 0.0151 0.4630 0.6556
C27 C 0.0664(6) 0.4070(8) 0.61460(17)
H34 H 0.0390 0.3348 0.6161
C28 C 0.1197(6) 0.4385(7) 0.58952(16)
C29 C 0.0681(7) 0.2751(6) 0.56011(17)
H35 H -0.0105 0.2939 0.5612
H36 H 0.0881 0.2207 0.5760
C30 C 0.0885(6) 0.2287(6) 0.52920(17)
H37 H 0.1685 0.2277 0.5266
H38 H 0.0617 0.1525 0.5280
C31 C 0.1048(5) 0.3754(6) 0.49185(15)
H39 H 0.1751 0.3427 0.4864
H40 H 0.1208 0.4358 0.5063
C32 C 0.0387(6) 0.4166(6) 0.46374(15)
H41 H 0.0232 0.3545 0.4499
H42 H -0.0325 0.4454 0.4697
O11 O 0.9969(4) 0.2710(4) 0.31044(11)
O12 O 0.9036(4) 0.3193(4) 0.25219(11)
O13 O 0.7035(4) 0.2431(4) 0.24757(11)
O14 O 0.6350(4) 0.1487(4) 0.30656(11)
O15 O 0.9328(4) 0.3354(5) 0.40119(12)
O16 O 0.5244(4) 0.3912(5) 0.41279(11)
O17 O 0.4654(4) 0.4660(4) 0.50483(11)
O18 O 0.5680(4) 0.4233(5) 0.56261(12)
O19 O 0.7659(4) 0.5039(5) 0.56377(11)
O20 O 0.8310(4) 0.5894(4) 0.50377(10)
N3 N 0.8608(4) 0.2153(5) 0.36488(13)
N4 N 0.5975(5) 0.5086(5) 0.44804(13)
C33 C 0.9769(6) 0.1881(7) 0.35909(17)
H43 H 1.0187 0.1782 0.3787
H44 H 0.9776 0.1175 0.3483
C34 C 1.0350(6) 0.2700(6) 0.34138(15)
H45 H 1.0245 0.3433 0.3501
H46 H 1.1146 0.2537 0.3429
C35 C 1.0319(6) 0.3641(7) 0.29340(18)
H47 H 1.1095 0.3814 0.2993
H48 H 0.9866 0.4286 0.2978
C36 C 1.0196(6) 0.3382(7) 0.26041(18)
H49 H 1.0469 0.3999 0.2486
H50 H 1.0629 0.2724 0.2561
C37 C 0.8753(7) 0.2657(6) 0.22577(16)
C38 C 0.9462(7) 0.2446(7) 0.20215(17)
H51 H 1.0191 0.2717 0.2041
C39 C 0.9128(9) 0.1856(9) 0.1763(2)
H52 H 0.9621 0.1724 0.1610
C40 C 0.8041(8) 0.1463(8) 0.17333(18)
H53 H 0.7789 0.1082 0.1556
C41 C 0.7318(7) 0.1634(7) 0.19684(15)
H54 H 0.6599 0.1337 0.1948
C42 C 0.7640(6) 0.2225(7) 0.22266(17)
C43 C 0.6065(5) 0.1769(6) 0.25092(16)
H55 H 0.6241 0.0989 0.2481
H56 H 0.5480 0.1979 0.2356
C44 C 0.5676(5) 0.1947(7) 0.28209(16)
H57 H 0.5619 0.2743 0.2855
H58 H 0.4929 0.1638 0.2827
C45 C 0.7213(5) 0.2180(6) 0.32005(14)
H59 H 0.6911 0.2902 0.3252
H60 H 0.7795 0.2290 0.3058
C46 C 0.7683(6) 0.1597(6) 0.34877(15)
H61 H 0.7087 0.1511 0.3627
H62 H 0.7923 0.0856 0.3432
C47 C 0.8505(6) 0.2923(7) 0.38804(16)
C48 C 0.7361(6) 0.3252(6) 0.39642(15)
H63 H 0.6734 0.2896 0.3873
C49 C 0.7242(6) 0.4050(7) 0.41681(16)
H64 H 0.7869 0.4412 0.4257
C50 C 0.6086(6) 0.4371(7) 0.42556(15)
C51 C 0.4818(6) 0.5450(7) 0.45460(17)
H65 H 0.4379 0.5570 0.4354
H66 H 0.4856 0.6149 0.4658
C52 C 0.4245(6) 0.4564(7) 0.47372(18)
H67 H 0.3440 0.4674 0.4721
H68 H 0.4404 0.3826 0.4661
C53 C 0.4319(7) 0.3772(8) 0.5233(2)
H69 H 0.4750 0.3111 0.5191
H70 H 0.3533 0.3608 0.5185
C54 C 0.4501(6) 0.4079(8) 0.55627(18)
H71 H 0.4102 0.4760 0.5604
H72 H 0.4229 0.3492 0.5691
C55 C 0.6003(6) 0.4774(6) 0.58915(17)
C56 C 0.5431(7) 0.4927(8) 0.6142(2)
H73 H 0.4711 0.4632 0.6140
C57 C 0.5826(8) 0.5482(9) 0.6397(2)
H74 H 0.5389 0.5561 0.6565
C58 C 0.6905(9) 0.5934(8) 0.6403(2)
H75 H 0.7201 0.6316 0.6575
C59 C 0.7523(7) 0.5804(6) 0.61495(17)
H76 H 0.8233 0.6119 0.6148
C60 C 0.7097(6) 0.5209(6) 0.58971(15)
C61 C 0.8618(5) 0.5709(7) 0.55886(16)
H77 H 0.9209 0.5556 0.5746
H78 H 0.8425 0.6492 0.5599
C62 C 0.9004(6) 0.5435(7) 0.52780(16)
H79 H 0.9761 0.5712 0.5264
H80 H 0.9023 0.4632 0.5254
C63 C 0.7419(5) 0.5164(6) 0.49128(16)
H81 H 0.6862 0.5050 0.5062
H82 H 0.7720 0.4446 0.4858
C64 C 0.6913(6) 0.5745(6) 0.46332(14)
H83 H 0.6635 0.6468 0.4692
H84 H 0.7486 0.5863 0.4489
loop_
_geom_bond_atom_site_label_1
_geom_bond_atom_site_label_2
_geom_bond_site_symmetry_1
_geom_bond_site_symmetry_2
O1 C2 1_555 1_555
O2 C4 1_555 1_555
O3 C10 1_555 1_555
O4 C12 1_555 1_555
O5 C15 1_555 1_555
O6 C18 1_555 1_555
O7 C20 1_555 1_555
O8 C22 1_555 1_555
O9 C28 1_555 1_555
O10 C30 1_555 1_555
N1 C1 1_555 1_555
N2 C18 1_555 1_555
C1 H1 1_555 1_555
H2 C1 1_555 1_555
C2 C1 1_555 1_555
H3 C2 1_555 1_555
H4 C2 1_555 1_555
C3 O1 1_555 1_555
H5 C3 1_555 1_555
H6 C3 1_555 1_555
C4 C3 1_555 1_555
H7 C4 1_555 1_555
H8 C4 1_555 1_555
C5 O2 1_555 1_555
C6 C5 1_555 1_555
H9 C6 1_555 1_555
C7 C6 1_555 1_555
H10 C7 1_555 1_555
C8 C7 1_555 1_555
H11 C8 1_555 1_555
C9 C8 1_555 1_555
H12 C9 1_555 1_555
C10 C5 1_555 1_555
C11 O3 1_555 1_555
H13 C11 1_555 1_555
H14 C11 1_555 1_555
C12 C11 1_555 1_555
H15 C12 1_555 1_555
H16 C12 1_555 1_555
C13 O4 1_555 1_555
H17 C13 1_555 1_555
H18 C13 1_555 1_555
C14 N1 1_555 1_555
H19 C14 1_555 1_555
H20 C14 1_555 1_555
C15 N1 1_555 1_555
C16 C15 1_555 1_555
H21 C16 1_555 1_555
C17 C16 1_555 1_555
H22 C17 1_555 1_555
C18 C17 1_555 1_555
C19 N2 1_555 1_555
H23 C19 1_555 1_555
H24 C19 1_555 1_555
C20 C19 1_555 1_555
H25 C20 1_555 1_555
H26 C20 1_555 1_555
C21 O7 1_555 1_555
H27 C21 1_555 1_555
H28 C21 1_555 1_555
C22 C21 1_555 1_555
H29 C22 1_555 1_555
H30 C22 1_555 1_555
C23 O8 1_555 1_555
C24 C23 1_555 1_555
H31 C24 1_555 1_555
C25 C24 1_555 1_555
H32 C25 1_555 1_555
C26 C25 1_555 1_555
H33 C26 1_555 1_555
C27 C26 1_555 1_555
H34 C27 1_555 1_555
C28 C23 1_555 1_555
C29 O9 1_555 1_555
H35 C29 1_555 1_555
H36 C29 1_555 1_555
C30 C29 1_555 1_555
H37 C30 1_555 1_555
H38 C30 1_555 1_555
C31 O10 1_555 1_555
H39 C31 1_555 1_555
H40 C31 1_555 1_555
C32 N2 1_555 1_555
H41 C32 1_555 1_555
H42 C32 1_555 1_555
O11 C34 1_555 1_555
O12 C36 1_555 1_555
O13 C42 1_555 1_555
O14 C44 1_555 1_555
O15 C47 1_555 1_555
O16 C50 1_555 1_555
O17 C52 1_555 1_555
O18 C54 1_555 1_555
O19 C60 1_555 1_555
O20 C62 1_555 1_555
N3 C33 1_555 1_555
N4 C50 1_555 1_555
C33 H43 1_555 1_555
H44 C33 1_555 1_555
C34 C33 1_555 1_555
H45 C34 1_555 1_555
H46 C34 1_555 1_555
C35 O11 1_555 1_555
H47 C35 1_555 1_555
H48 C35 1_555 1_555
C36 C35 1_555 1_555
H49 C36 1_555 1_555
H50 C36 1_555 1_555
C37 O12 1_555 1_555
C38 C37 1_555 1_555
H51 C38 1_555 1_555
C39 C38 1_555 1_555
H52 C39 1_555 1_555
C40 C39 1_555 1_555
H53 C40 1_555 1_555
C41 C40 1_555 1_555
H54 C41 1_555 1_555
C42 C37 1_555 1_555
C43 O13 1_555 1_555
H55 C43 1_555 1_555
H56 C43 1_555 1_555
C44 C43 1_555 1_555
H57 C44 1_555 1_555
H58 C44 1_555 1_555
C45 O14 1_555 1_555
H59 C45 1_555 1_555
H60 C45 1_555 1_555
C46 N3 1_555 1_555
H61 C46 1_555 1_555
H62 C46 1_555 1_555
C47 N3 1_555 1_555
C48 C47 1_555 1_555
H63 C48 1_555 1_555
C49 C48 1_555 1_555
H64 C49 1_555 1_555
C50 C49 1_555 1_555
C51 N4 1_555 1_555
H65 C51 1_555 1_555
H66 C51 1_555 1_555
C52 C51 1_555 1_555
H67 C52 1_555 1_555
H68 C52 1_555 1_555
C53 O17 1_555 1_555
H69 C53 1_555 1_555
H70 C53 1_555 1_555
C54 C53 1_555 1_555
H71 C54 1_555 1_555
H72 C54 1_555 1_555
C55 O18 1_555 1_555
C56 C55 1_555 1_555
H73 C56 1_555 1_555
C57 C56 1_555 1_555
H74 C57 1_555 1_555
C58 C57 1_555 1_555
H75 C58 1_555 1_555
C59 C58 1_555 1_555
H76 C59 1_555 1_555
C60 C55 1_555 1_555
C61 O19 1_555 1_555
H77 C61 1_555 1_555
H78 C61 1_555 1_555
C62 C61 1_555 1_555
H79 C62 1_555 1_555
H80 C62 1_555 1_555
C63 O20 1_555 1_555
H81 C63 1_555 1_555
H82 C63 1_555 1_555
C64 N4 1_555 1_555
H83 C64 1_555 1_555
H84 C64 1_555 1_555
C9 C10 1_555 1_555
C13 C14 1_555 1_555
C27 C28 1_555 1_555
C31 C32 1_555 1_555
C41 C42 1_555 1_555
C45 C46 1_555 1_555
C59 C60 1_555 1_555
C63 C64 1_555 1_555

#END
