
#######################################################################
#
#                 Cambridge Crystallographic Data Centre
#                                CCDC 
#
#######################################################################
#
# If this CIF has been generated from an entry in the Cambridge 
# Structural Database, then it will include bibliographic, chemical, 
# crystal, experimental, refinement or atomic coordinate data resulting 
# from the CCDC's data processing and validation procedures.
#
#######################################################################

data_TISPAN
_chemical_compound_source        'Ligularia sagitta Maxim'
_chemical_formula_moiety         'C19 H26 O5'
_chemical_name_systematic        'Ligulasagitin B'
_symmetry_cell_setting           monoclinic
_symmetry_space_group_name_H-M   'P 21'
_symmetry_Int_Tables_number      4
_space_group_name_Hall           'P 2yb'
loop_
_symmetry_equiv_pos_site_id
_symmetry_equiv_pos_as_xyz
1 x,y,z
2 -x,1/2+y,-z
_cell_length_a                   6.6703(11)
_cell_length_b                   8.2171(13)
_cell_length_c                   15.714(3)
_cell_angle_alpha                90.00
_cell_angle_beta                 92.889(2)
_cell_angle_gamma                90.00
_cell_volume                     860.198
_exptl_crystal_colour            colorless
_exptl_crystal_description       needles
_chemical_melting_point          '196-198 deg.C'
_cell_formula_units_Z            2
_exptl_crystal_recrystallization_method acetone
loop_
_atom_site_label
_atom_site_type_symbol
_atom_site_fract_x
_atom_site_fract_y
_atom_site_fract_z
C1 C 0.3984(7) 0.5259(7) 0.6472(3)
C2 C 0.3660(7) 0.7206(7) 0.8144(3)
H1 H 0.3845 0.7961 0.8616
H2 H 0.4918 0.6634 0.8088
C3 C 0.1704(7) 0.7540(6) 0.6636(3)
C4 C 0.0079(6) 0.6495(7) 0.6945(3)
H3 H -0.0675 0.5992 0.6471
H4 H -0.0835 0.7127 0.7274
C5 C 0.2033(7) 0.5961(7) 0.8359(3)
C6 C 0.1151(6) 0.5205(7) 0.7503(3)
C7 C 0.3197(7) 0.8149(7) 0.7352(3)
C8 C 0.2974(7) 0.6616(7) 0.5991(3)
C9 C 0.2986(8) 0.4586(9) 0.8908(3)
H5 H 0.4087 0.4144 0.8589
C10 C -0.0138(7) 0.3685(7) 0.7581(4)
H6 H -0.0339 0.3190 0.7016
C11 C 0.4157(7) 0.9405(7) 0.7014(3)
C12 C 0.0823(8) 0.2427(9) 0.8186(4)
H7 H -0.0136 0.1567 0.8281
H8 H 0.1971 0.1945 0.7926
C13 C 0.3331(8) 0.9508(9) 0.6101(4)
H9 H 0.3515 1.0561 0.5823
C14 C 0.5931(8) 1.0336(9) 0.7365(4)
H10 H 0.7118 0.9962 0.7105
H11 H 0.6076 1.0174 0.7970
H12 H 0.5741 1.1474 0.7247
C15 C 0.1490(9) 0.3172(10) 0.9023(5)
H13 H 0.2124 0.2345 0.9386
H14 H 0.0328 0.3577 0.9304
C16 C 0.4258(9) 0.8036(9) 0.5652(3)
H15 H 0.5669 0.7906 0.5818
H16 H 0.4102 0.8130 0.5037
C17 C 0.1831(12) 0.5902(10) 0.5155(6)
H17 H 0.0775 0.6638 0.4953
H18 H 0.2760 0.5757 0.4706
C18 C 0.0359(9) 0.6852(10) 0.8829(4)
H19 H 0.0894 0.7241 0.9370
H20 H -0.0724 0.6111 0.8916
H21 H -0.0129 0.7755 0.8491
C19 C 0.3935(12) 0.5182(14) 0.9784(4)
H22 H 0.2886 0.5480 1.0151
H23 H 0.4775 0.6109 0.9695
H24 H 0.4725 0.4323 1.0044
O1 O 0.5638(5) 0.4722(5) 0.6332(2)
O2 O 0.2970(4) 0.4556(4) 0.70898(18)
O3 O 0.1047(8) 0.4455(10) 0.5375(3)
H25 H 0.0509 0.4022 0.4953
O4 O 0.1248(5) 0.9014(5) 0.6181(2)
O5 O -0.2041(5) 0.4124(6) 0.7877(3)
H26 H -0.2781 0.4414 0.7473
loop_
_geom_bond_atom_site_label_1
_geom_bond_atom_site_label_2
_geom_bond_site_symmetry_1
_geom_bond_site_symmetry_2
C1 C8 1_555 1_555
C2 H1 1_555 1_555
H2 C2 1_555 1_555
C3 C4 1_555 1_555
C4 H3 1_555 1_555
H4 C4 1_555 1_555
C5 C2 1_555 1_555
C6 C4 1_555 1_555
C7 C2 1_555 1_555
C8 C3 1_555 1_555
C9 C5 1_555 1_555
H5 C9 1_555 1_555
C10 C6 1_555 1_555
H6 C10 1_555 1_555
C11 C7 1_555 1_555
C12 C10 1_555 1_555
H7 C12 1_555 1_555
H8 C12 1_555 1_555
C13 C11 1_555 1_555
H9 C13 1_555 1_555
C14 C11 1_555 1_555
H10 C14 1_555 1_555
H11 C14 1_555 1_555
H12 C14 1_555 1_555
C15 C9 1_555 1_555
H13 C15 1_555 1_555
H14 C15 1_555 1_555
C16 C8 1_555 1_555
H15 C16 1_555 1_555
H16 C16 1_555 1_555
C17 C8 1_555 1_555
H17 C17 1_555 1_555
H18 C17 1_555 1_555
C18 C5 1_555 1_555
H19 C18 1_555 1_555
H20 C18 1_555 1_555
H21 C18 1_555 1_555
C19 C9 1_555 1_555
H22 C19 1_555 1_555
H23 C19 1_555 1_555
H24 C19 1_555 1_555
O1 C1 1_555 1_555
O2 C1 1_555 1_555
O3 C17 1_555 1_555
H25 O3 1_555 1_555
O4 C3 1_555 1_555
O5 C10 1_555 1_555
H26 O5 1_555 1_555
C3 C7 1_555 1_555
C5 C6 1_555 1_555
C6 O2 1_555 1_555
C12 C15 1_555 1_555
C13 C16 1_555 1_555
C13 O4 1_555 1_555

#END
