
#######################################################################
#
#                 Cambridge Crystallographic Data Centre
#                                CCDC 
#
#######################################################################
#
# If this CIF has been generated from an entry in the Cambridge 
# Structural Database, then it will include bibliographic, chemical, 
# crystal, experimental, refinement or atomic coordinate data resulting 
# from the CCDC's data processing and validation procedures.
#
#######################################################################

data_TISTIZ
_chemical_formula_moiety         'C27 H27 Cl1 O2'
_chemical_name_systematic        
6-t-Butyl-4-(4-chlorophenyl)-2-ethoxy-2-phenyl-2H-chromene
_symmetry_cell_setting           triclinic
_symmetry_space_group_name_H-M   'P -1'
_symmetry_Int_Tables_number      2
_space_group_name_Hall           '-P 1'
loop_
_symmetry_equiv_pos_site_id
_symmetry_equiv_pos_as_xyz
1 x,y,z
2 -x,-y,-z
_cell_length_a                   11.144(2)
_cell_length_b                   12.339(3)
_cell_length_c                   18.422(4)
_cell_angle_alpha                104.47(3)
_cell_angle_beta                 101.85(3)
_cell_angle_gamma                102.70(3)
_cell_volume                     2300.14
_exptl_crystal_colour            colorless
_exptl_crystal_description       needle
_chemical_melting_point          '98-100 deg.C'
_cell_formula_units_Z            4
loop_
_atom_site_label
_atom_site_type_symbol
_atom_site_fract_x
_atom_site_fract_y
_atom_site_fract_z
Cl1 Cl 0.63884(10) 0.68346(10) 0.26244(7)
O1 O 1.1660(2) 0.32017(18) 0.43221(12)
O2 O 1.32040(18) 0.48391(17) 0.43713(12)
C1 C 1.3930(4) 0.9549(3) 0.7114(2)
H1 H 1.3799 1.0221 0.7446
H2 H 1.4603 0.9795 0.6887
H3 H 1.4165 0.9057 0.7415
C2 C 1.2365(5) 0.9689(3) 0.6022(2)
H4 H 1.1591 0.9291 0.5608
H5 H 1.3049 0.9944 0.5805
H6 H 1.2245 1.0354 0.6370
C3 C 1.1655(4) 0.8503(3) 0.6838(2)
H7 H 1.0871 0.8074 0.6439
H8 H 1.1537 0.9184 0.7169
H9 H 1.1894 0.8018 0.7143
C4 C 1.2694(3) 0.8866(3) 0.64655(18)
C5 C 1.2839(3) 0.7779(2) 0.59115(16)
C6 C 1.3926(3) 0.7403(3) 0.60381(18)
H10 H 1.4610 0.7834 0.6473
C7 C 1.4021(3) 0.6407(3) 0.55355(18)
H11 H 1.4753 0.6164 0.5638
C8 C 1.3023(3) 0.5777(2) 0.48815(17)
C9 C 1.1915(3) 0.6108(2) 0.47204(16)
C10 C 1.1833(3) 0.7102(2) 0.52497(16)
H12 H 1.1083 0.7321 0.5159
C11 C 0.9957(3) 0.6856(3) 0.35392(16)
H13 H 1.0779 0.7346 0.3651
C12 C 0.8916(3) 0.7183(3) 0.32082(18)
H14 H 0.9031 0.7892 0.3102
C13 C 0.7714(3) 0.6441(3) 0.30397(18)
C14 C 0.7522(3) 0.5416(3) 0.3214(2)
H15 H 0.6695 0.4940 0.3110
C15 C 0.8551(3) 0.5086(3) 0.35433(18)
H16 H 0.8421 0.4383 0.3657
C16 C 0.9788(3) 0.5808(2) 0.37062(15)
C17 C 1.0902(3) 0.5395(2) 0.40070(16)
C18 C 1.0998(3) 0.4371(3) 0.36177(17)
H17 H 1.0361 0.3921 0.3162
C19 C 1.2083(3) 0.3916(2) 0.38812(17)
C20 C 1.2488(3) 0.3289(2) 0.31974(16)
C21 C 1.3379(3) 0.3854(3) 0.29129(19)
H18 H 1.3809 0.4639 0.3170
C22 C 1.3662(4) 0.3290(3) 0.2249(2)
H19 H 1.4292 0.3684 0.2070
C23 C 1.2998(4) 0.2133(4) 0.1854(2)
H20 H 1.3178 0.1747 0.1405
C24 C 1.2061(4) 0.1546(3) 0.2126(2)
H21 H 1.1611 0.0769 0.1858
C25 C 1.1800(3) 0.2126(3) 0.2802(2)
H22 H 1.1171 0.1740 0.2987
C26 C 1.2597(4) 0.2759(3) 0.4717(2)
H23 H 1.3170 0.3371 0.5177
H24 H 1.3100 0.2492 0.4376
C27 C 1.1914(5) 0.1765(4) 0.4947(2)
H25 H 1.2528 0.1458 0.5213
H26 H 1.1353 0.1163 0.4489
H27 H 1.1422 0.2038 0.5287
Cl2 Cl 0.57361(10) 0.18795(10) 0.11376(8)
O3 O 1.22553(18) 0.74137(17) 0.12013(11)
O4 O 1.33440(17) 0.62267(16) 0.16784(12)
C28 C 1.0932(4) 0.1863(3) -0.1420(2)
H28 H 1.0672 0.1116 -0.1814
H29 H 1.1355 0.2451 -0.1612
H30 H 1.0193 0.2045 -0.1290
C29 C 1.1166(4) 0.0890(3) -0.0395(2)
H31 H 1.0916 0.0144 -0.0788
H32 H 1.0420 0.1071 -0.0276
H33 H 1.1731 0.0867 0.0067
C30 C 1.2979(4) 0.1465(3) -0.0904(3)
H34 H 1.2680 0.0713 -0.1295
H35 H 1.3546 0.1426 -0.0449
H36 H 1.3429 0.2030 -0.1104
C31 C 1.1850(3) 0.1823(3) -0.06931(17)
C32 C 1.2256(3) 0.3023(2) -0.00695(16)
C33 C 1.3508(3) 0.3745(3) 0.01879(17)
H37 H 1.4128 0.3498 -0.0024
C34 C 1.3855(3) 0.4825(3) 0.07532(18)
H38 H 1.4692 0.5303 0.0910
C35 C 1.2942(3) 0.5183(2) 0.10819(17)
C36 C 1.1679(3) 0.4491(2) 0.08426(16)
C37 C 1.1357(3) 0.3422(2) 0.02618(16)
H39 H 1.0511 0.2958 0.0090
C38 C 0.9444(3) 0.3104(3) 0.13418(16)
H40 H 1.0179 0.2870 0.1460
C39 C 0.8279(3) 0.2408(3) 0.13349(18)
H41 H 0.8227 0.1704 0.1442
C40 C 0.7210(3) 0.2767(3) 0.11689(19)
C41 C 0.7255(3) 0.3795(3) 0.1002(2)
H42 H 0.6516 0.4027 0.0890
C42 C 0.8413(3) 0.4478(3) 0.10030(17)
H43 H 0.8453 0.5174 0.0887
C43 C 0.9519(3) 0.4141(2) 0.11748(15)
C44 C 1.0782(3) 0.4933(2) 0.12339(16)
C45 C 1.1144(3) 0.6042(2) 0.16690(17)
H44 H 1.0578 0.6327 0.1917
C46 C 1.2419(3) 0.6852(2) 0.17768(17)
C47 C 1.2912(3) 0.7698(2) 0.25980(17)
C48 C 1.2575(3) 0.8733(3) 0.2749(2)
H45 H 1.2114 0.8918 0.2338
C49 C 1.2910(4) 0.9494(3) 0.3498(2)
H46 H 1.2690 1.0191 0.3588
C50 C 1.3563(4) 0.9217(4) 0.4100(2)
H47 H 1.3797 0.9732 0.4604
C51 C 1.3881(4) 0.8190(4) 0.3975(2)
H48 H 1.4307 0.7996 0.4393
C52 C 1.3556(3) 0.7423(3) 0.3205(2)
H49 H 1.3785 0.6731 0.3114
C53 C 1.3410(3) 0.8099(3) 0.1127(2)
H50 H 1.3773 0.7604 0.0791
H51 H 1.4030 0.8458 0.1634
C54 C 1.3118(4) 0.9010(3) 0.0790(2)
H52 H 1.3889 0.9475 0.0738
H53 H 1.2766 0.9500 0.1127
H54 H 1.2509 0.8649 0.0287
loop_
_geom_bond_atom_site_label_1
_geom_bond_atom_site_label_2
_geom_bond_site_symmetry_1
_geom_bond_site_symmetry_2
Cl1 C13 1_555 1_555
Cl2 C40 1_555 1_555
O1 C19 1_555 1_555
O2 C8 1_555 1_555
O3 C46 1_555 1_555
O4 C35 1_555 1_555
C1 H1 1_555 1_555
H2 C1 1_555 1_555
H3 C1 1_555 1_555
C2 H4 1_555 1_555
H5 C2 1_555 1_555
H6 C2 1_555 1_555
C3 H7 1_555 1_555
H8 C3 1_555 1_555
H9 C3 1_555 1_555
C4 C1 1_555 1_555
C5 C4 1_555 1_555
C6 C5 1_555 1_555
H10 C6 1_555 1_555
C7 C6 1_555 1_555
H11 C7 1_555 1_555
C8 C7 1_555 1_555
C9 C8 1_555 1_555
C10 C5 1_555 1_555
H12 C10 1_555 1_555
C11 H13 1_555 1_555
C12 C11 1_555 1_555
H14 C12 1_555 1_555
C13 C12 1_555 1_555
C14 C13 1_555 1_555
H15 C14 1_555 1_555
C15 C14 1_555 1_555
H16 C15 1_555 1_555
C16 C11 1_555 1_555
C17 C9 1_555 1_555
C18 C17 1_555 1_555
H17 C18 1_555 1_555
C19 O2 1_555 1_555
C20 C19 1_555 1_555
C21 C20 1_555 1_555
H18 C21 1_555 1_555
C22 C21 1_555 1_555
H19 C22 1_555 1_555
C23 C22 1_555 1_555
H20 C23 1_555 1_555
C24 C23 1_555 1_555
H21 C24 1_555 1_555
C25 C20 1_555 1_555
H22 C25 1_555 1_555
C26 O1 1_555 1_555
H23 C26 1_555 1_555
H24 C26 1_555 1_555
C27 C26 1_555 1_555
H25 C27 1_555 1_555
H26 C27 1_555 1_555
H27 C27 1_555 1_555
C28 H28 1_555 1_555
H29 C28 1_555 1_555
H30 C28 1_555 1_555
C29 H31 1_555 1_555
H32 C29 1_555 1_555
H33 C29 1_555 1_555
C30 H34 1_555 1_555
H35 C30 1_555 1_555
H36 C30 1_555 1_555
C31 C28 1_555 1_555
C32 C31 1_555 1_555
C33 C32 1_555 1_555
H37 C33 1_555 1_555
C34 C33 1_555 1_555
H38 C34 1_555 1_555
C35 C34 1_555 1_555
C36 C35 1_555 1_555
C37 C32 1_555 1_555
H39 C37 1_555 1_555
C38 H40 1_555 1_555
C39 C38 1_555 1_555
H41 C39 1_555 1_555
C40 C39 1_555 1_555
C41 C40 1_555 1_555
H42 C41 1_555 1_555
C42 C41 1_555 1_555
H43 C42 1_555 1_555
C43 C38 1_555 1_555
C44 C36 1_555 1_555
C45 C44 1_555 1_555
H44 C45 1_555 1_555
C46 O4 1_555 1_555
C47 C46 1_555 1_555
C48 C47 1_555 1_555
H45 C48 1_555 1_555
C49 C48 1_555 1_555
H46 C49 1_555 1_555
C50 C49 1_555 1_555
H47 C50 1_555 1_555
C51 C50 1_555 1_555
H48 C51 1_555 1_555
C52 C47 1_555 1_555
H49 C52 1_555 1_555
C53 O3 1_555 1_555
H50 C53 1_555 1_555
H51 C53 1_555 1_555
C54 C53 1_555 1_555
H52 C54 1_555 1_555
H53 C54 1_555 1_555
H54 C54 1_555 1_555
C2 C4 1_555 1_555
C3 C4 1_555 1_555
C9 C10 1_555 1_555
C15 C16 1_555 1_555
C16 C17 1_555 1_555
C18 C19 1_555 1_555
C24 C25 1_555 1_555
C29 C31 1_555 1_555
C30 C31 1_555 1_555
C36 C37 1_555 1_555
C42 C43 1_555 1_555
C43 C44 1_555 1_555
C45 C46 1_555 1_555
C51 C52 1_555 1_555

#END
