
#######################################################################
#
#                 Cambridge Crystallographic Data Centre
#                                CCDC 
#
#######################################################################
#
# If this CIF has been generated from an entry in the Cambridge 
# Structural Database, then it will include bibliographic, chemical, 
# crystal, experimental, refinement or atomic coordinate data resulting 
# from the CCDC's data processing and validation procedures.
#
#######################################################################

data_TITHOU
_chemical_compound_source        'from Isodon henryi (Hemsl.) Kudo'
_chemical_formula_moiety         'C20 H30 O2'
_chemical_name_systematic        Hinokiol
_symmetry_cell_setting           orthorhombic
_symmetry_space_group_name_H-M   'P 21 21 21'
_symmetry_Int_Tables_number      19
_space_group_name_Hall           'P 2ac 2ab'
loop_
_symmetry_equiv_pos_site_id
_symmetry_equiv_pos_as_xyz
1 x,y,z
2 1/2-x,-y,1/2+z
3 -x,1/2+y,1/2-z
4 1/2+x,1/2-y,-z
_cell_length_a                   7.3811(7)
_cell_length_b                   11.8183(12)
_cell_length_c                   19.868(2)
_cell_angle_alpha                90
_cell_angle_beta                 90
_cell_angle_gamma                90
_cell_volume                     1733.13
_exptl_crystal_colour            colorless
_exptl_crystal_description       prism
_chemical_melting_point          '233-235 deg.C'
_cell_formula_units_Z            4
_exptl_crystal_recrystallization_method methanol
loop_
_atom_site_label
_atom_site_type_symbol
_atom_site_fract_x
_atom_site_fract_y
_atom_site_fract_z
O1 O -0.06766(16) 0.54213(9) 0.93521(6)
H1 H -0.1452 0.5212 0.9084
O2 O 0.32976(16) 0.00948(11) 0.66097(6)
H2 H 0.4312 0.0011 0.6449
C1 C 0.0836(2) 0.47609(11) 0.92843(7)
C2 C 0.0834(2) 0.37826(12) 0.89025(7)
H3 H -0.0217 0.3581 0.8673
C3 C 0.23547(19) 0.30878(11) 0.88496(7)
C4 C 0.39010(19) 0.33774(11) 0.92161(7)
C5 C 0.3888(2) 0.43948(11) 0.95755(7)
H4 H 0.4938 0.4604 0.9802
C6 C 0.2407(2) 0.51081(12) 0.96132(7)
C7 C 0.22609(19) 0.20122(11) 0.84163(7)
C8 C 0.4234(2) 0.16484(11) 0.82441(7)
H5 H 0.4765 0.2312 0.8024
C9 C 0.5331(2) 0.15069(13) 0.88917(7)
H6 H 0.4708 0.0991 0.9193
H7 H 0.6508 0.1187 0.8787
C10 C 0.5572(2) 0.26430(13) 0.92334(8)
H8 H 0.5914 0.2518 0.9699
H9 H 0.6558 0.3044 0.9016
C11 C 0.1272(2) 0.22573(13) 0.77507(8)
H10 H 0.0007 0.2413 0.7845
H11 H 0.1791 0.2929 0.7547
C12 C 0.1394(2) 0.12811(15) 0.72543(8)
H12 H 0.0793 0.0623 0.7442
H13 H 0.0777 0.1485 0.6841
C13 C 0.3337(2) 0.09939(13) 0.71012(7)
H14 H 0.3899 0.1657 0.6891
C14 C 0.4466(2) 0.06760(12) 0.77239(8)
C15 C 0.2464(2) 0.62578(13) 0.99541(8)
H15 H 0.1216 0.6454 1.0076
C16 C 0.3115(3) 0.71407(14) 0.94549(10)
H16 H 0.2335 0.7141 0.9068
H17 H 0.4330 0.6966 0.9318
H18 H 0.3090 0.7874 0.9663
C17 C 0.3570(3) 0.62899(16) 1.05923(10)
H19 H 0.4824 0.6167 1.0486
H20 H 0.3158 0.5708 1.0893
H21 H 0.3432 0.7015 1.0804
C18 C 0.1174(2) 0.11380(14) 0.88189(9)
H22 H 0.0912 0.0498 0.8538
H23 H 0.0060 0.1472 0.8969
H24 H 0.1868 0.0897 0.9201
C19 C 0.6466(2) 0.06376(17) 0.75021(9)
H25 H 0.6841 0.1378 0.7360
H26 H 0.6598 0.0115 0.7135
H27 H 0.7204 0.0396 0.7873
C20 C 0.3957(3) -0.05070(13) 0.79903(9)
H28 H 0.4401 -0.1074 0.7686
H29 H 0.2663 -0.0567 0.8025
H30 H 0.4489 -0.0618 0.8426
loop_
_geom_bond_atom_site_label_1
_geom_bond_atom_site_label_2
_geom_bond_site_symmetry_1
_geom_bond_site_symmetry_2
O1 H1 1_555 1_555
O2 H2 1_555 1_555
C1 O1 1_555 1_555
C2 C1 1_555 1_555
H3 C2 1_555 1_555
C3 C2 1_555 1_555
C4 C3 1_555 1_555
C5 C4 1_555 1_555
H4 C5 1_555 1_555
C6 C1 1_555 1_555
C7 C3 1_555 1_555
C8 C7 1_555 1_555
H5 C8 1_555 1_555
C9 C8 1_555 1_555
H6 C9 1_555 1_555
H7 C9 1_555 1_555
C10 C4 1_555 1_555
H8 C10 1_555 1_555
H9 C10 1_555 1_555
C11 C7 1_555 1_555
H10 C11 1_555 1_555
H11 C11 1_555 1_555
C12 C11 1_555 1_555
H12 C12 1_555 1_555
H13 C12 1_555 1_555
C13 O2 1_555 1_555
H14 C13 1_555 1_555
C14 C8 1_555 1_555
C15 C6 1_555 1_555
H15 C15 1_555 1_555
C16 C15 1_555 1_555
H16 C16 1_555 1_555
H17 C16 1_555 1_555
H18 C16 1_555 1_555
C17 C15 1_555 1_555
H19 C17 1_555 1_555
H20 C17 1_555 1_555
H21 C17 1_555 1_555
C18 C7 1_555 1_555
H22 C18 1_555 1_555
H23 C18 1_555 1_555
H24 C18 1_555 1_555
C19 C14 1_555 1_555
H25 C19 1_555 1_555
H26 C19 1_555 1_555
H27 C19 1_555 1_555
C20 C14 1_555 1_555
H28 C20 1_555 1_555
H29 C20 1_555 1_555
H30 C20 1_555 1_555
C5 C6 1_555 1_555
C9 C10 1_555 1_555
C12 C13 1_555 1_555
C13 C14 1_555 1_555

#END
