
#######################################################################
#
#                 Cambridge Crystallographic Data Centre
#                                CCDC 
#
#######################################################################
#
# If this CIF has been generated from an entry in the Cambridge 
# Structural Database, then it will include bibliographic, chemical, 
# crystal, experimental, refinement or atomic coordinate data resulting 
# from the CCDC's data processing and validation procedures.
#
#######################################################################

data_TITQES
_chemical_formula_moiety         'C20 H16 Cl4'
_chemical_name_systematic        
13,14-Benzo-3,4,5,6-tetrachlorotetracyclo(6.4.2.2^9,12^.0^2,7^)hexadeca-3,5,10,13-tetraene
_symmetry_cell_setting           triclinic
_symmetry_space_group_name_H-M   'P -1'
_symmetry_Int_Tables_number      2
_space_group_name_Hall           '-P 1'
loop_
_symmetry_equiv_pos_site_id
_symmetry_equiv_pos_as_xyz
1 x,y,z
2 -x,-y,-z
_cell_length_a                   8.276(2)
_cell_length_b                   9.127(2)
_cell_length_c                   12.369(2)
_cell_angle_alpha                83.10(3)
_cell_angle_beta                 72.39(3)
_cell_angle_gamma                73.70(3)
_cell_volume                     854.082
_exptl_crystal_colour            colorless
_chemical_melting_point          232-235deg.C
_cell_formula_units_Z            2
loop_
_atom_site_label
_atom_site_type_symbol
_atom_site_fract_x
_atom_site_fract_y
_atom_site_fract_z
C1 C 0.1274(3) 1.4421(2) 0.7050(2)
C2 C 0.3091(2) 1.3247(2) 0.7083(2)
C3 C 0.3495(2) 1.1774(2) 0.6422(2)
C4 C 0.5464(2) 1.1094(2) 0.6047(2)
Cl1 Cl 0.6665(1) 1.2317(1) 0.5215(1)
C5 C 0.6284(2) 0.9669(2) 0.6287(2)
Cl2 Cl 0.8552(1) 0.9033(1) 0.5893(1)
C6 C 0.5277(2) 0.8561(2) 0.6860(2)
Cl3 Cl 0.6418(1) 0.6665(1) 0.6931(1)
C7 C 0.3531(2) 0.9012(2) 0.7233(2)
Cl4 Cl 0.2337(1) 0.7683(1) 0.7828(1)
C8 C 0.2424(2) 1.0616(2) 0.7120(2)
C9 C 0.1253(2) 1.1192(2) 0.8317(2)
C10 C -0.0556(2) 1.2377(2) 0.8289(2)
C11 C -0.0692(3) 1.2840(2) 0.7102(2)
C12 C 0.0197(3) 1.3810(2) 0.6507(2)
C13 C 0.3283(2) 1.2771(2) 0.8258(2)
C14 C 0.2353(2) 1.1738(2) 0.8882(2)
C15 C -0.0935(2) 1.3845(2) 0.8921(2)
C16 C 0.0105(2) 1.4978(2) 0.8237(2)
C17 C 0.4360(2) 1.3277(2) 0.8725(2)
C18 C 0.4489(3) 1.2768(2) 0.9812(2)
C19 C 0.3566(3) 1.1747(2) 1.0424(2)
C20 C 0.2502(2) 1.1231(2) 0.9959(2)
H1 H 0.1544(3) 1.5308(2) 0.6588(2)
H2 H 0.3948(2) 1.3784(2) 0.6720(2)
H3 H 0.3131(2) 1.2088(2) 0.5719(2)
H4 H 0.1635(2) 1.0518(2) 0.6672(2)
H5 H 0.0945(2) 1.0313(2) 0.8792(2)
H6 H -0.1455(2) 1.1892(2) 0.8673(2)
H7 H -0.1374(3) 1.2413(2) 0.6807(2)
H8 H 0.0206(3) 1.4121(2) 0.5730(2)
H9 H -0.0706(2) 1.3563(2) 0.9667(2)
H10 H -0.2187(2) 1.4358(2) 0.9078(2)
H11 H 0.0791(2) 1.5207(2) 0.8666(2)
H12 H -0.0718(2) 1.5943(2) 0.8135(2)
H13 H 0.4984(2) 1.3990(2) 0.8265(2)
H14 H 0.5205(3) 1.3106(2) 1.0141(2)
H15 H 0.3615(3) 1.1366(2) 1.1153(2)
H16 H 0.1911(2) 1.0525(2) 1.0348(2)
loop_
_geom_bond_atom_site_label_1
_geom_bond_atom_site_label_2
_geom_bond_site_symmetry_1
_geom_bond_site_symmetry_2
C1 C2 1_555 1_555
C2 C3 1_555 1_555
C3 C4 1_555 1_555
C4 Cl1 1_555 1_555
C5 C4 1_555 1_555
Cl2 C5 1_555 1_555
C6 C5 1_555 1_555
Cl3 C6 1_555 1_555
C7 C6 1_555 1_555
Cl4 C7 1_555 1_555
C8 C3 1_555 1_555
C9 C8 1_555 1_555
C10 C9 1_555 1_555
C11 C10 1_555 1_555
C12 C1 1_555 1_555
C13 C2 1_555 1_555
C14 C9 1_555 1_555
C15 C10 1_555 1_555
C16 C1 1_555 1_555
C17 C13 1_555 1_555
C18 C17 1_555 1_555
C19 C18 1_555 1_555
C20 C14 1_555 1_555
H1 C1 1_555 1_555
H2 C2 1_555 1_555
H3 C3 1_555 1_555
H4 C8 1_555 1_555
H5 C9 1_555 1_555
H6 C10 1_555 1_555
H7 C11 1_555 1_555
H8 C12 1_555 1_555
H9 C15 1_555 1_555
H10 C15 1_555 1_555
H11 C16 1_555 1_555
H12 C16 1_555 1_555
H13 C17 1_555 1_555
H14 C18 1_555 1_555
H15 C19 1_555 1_555
H16 C20 1_555 1_555
C7 C8 1_555 1_555
C11 C12 1_555 1_555
C13 C14 1_555 1_555
C15 C16 1_555 1_555
C19 C20 1_555 1_555

#END
