
#######################################################################
#
#                 Cambridge Crystallographic Data Centre
#                                CCDC 
#
#######################################################################
#
# If this CIF has been generated from an entry in the Cambridge 
# Structural Database, then it will include bibliographic, chemical, 
# crystal, experimental, refinement or atomic coordinate data resulting 
# from the CCDC's data processing and validation procedures.
#
#######################################################################

data_TITQOC
_chemical_name_common            1-t-Butyloxaisodrin
_chemical_formula_moiety         'C15 H14 Cl6 O1'
_chemical_name_systematic        
endo,endo-1-t-Butyl-3,4,5,6,12,12-hexachloro-11-oxatetracyclo(6.2.1.1^3,6^.0^2,7^)dodeca-4,9-diene
_symmetry_cell_setting           triclinic
_symmetry_space_group_name_H-M   'P -1'
_symmetry_Int_Tables_number      2
_space_group_name_Hall           '-P 1'
loop_
_symmetry_equiv_pos_site_id
_symmetry_equiv_pos_as_xyz
1 x,y,z
2 -x,-y,-z
_cell_length_a                   10.621(2)
_cell_length_b                   13.730(3)
_cell_length_c                   13.885(3)
_cell_angle_alpha                111.57(3)
_cell_angle_beta                 111.07(3)
_cell_angle_gamma                90.53(3)
_cell_volume                     1733.62
_exptl_crystal_colour            colorless
_chemical_melting_point          110-111deg.C
_cell_formula_units_Z            4
loop_
_atom_site_label
_atom_site_type_symbol
_atom_site_fract_x
_atom_site_fract_y
_atom_site_fract_z
C1 C 0.1033(3) 1.1003(2) 0.1506(2)
C2 C 0.1558(3) 0.9917(2) 0.1321(2)
C3 C 0.3057(3) 0.9768(2) 0.1820(2)
Cl1 Cl 0.4052(1) 0.9894(1) 0.1072(1)
C4 C 0.3680(3) 1.0401(2) 0.3078(2)
Cl2 Cl 0.4874(1) 1.1508(1) 0.3721(1)
C5 C 0.3065(3) 0.9968(2) 0.3548(2)
Cl3 Cl 0.3283(1) 1.0408(1) 0.4915(1)
C6 C 0.2013(3) 0.9039(2) 0.2621(2)
Cl4 Cl 0.1523(1) 0.8061(1) 0.3016(1)
C7 C 0.0830(3) 0.9433(2) 0.1887(2)
C8 C 0.0004(3) 1.0355(2) 0.2316(2)
C9 C 0.0983(3) 1.1350(2) 0.3224(2)
C10 C 0.1581(3) 1.1746(2) 0.2720(2)
O1 O -0.0341(2) 1.0646(2) 0.1354(2)
C11 C 0.2817(3) 0.8647(2) 0.1821(2)
Cl5 Cl 0.1860(1) 0.7629(1) 0.0502(1)
Cl6 Cl 0.4347(1) 0.8187(1) 0.2394(1)
C12 C -0.1280(3) 1.0073(2) 0.2485(2)
C13 C -0.2201(3) 0.9089(2) 0.1481(3)
C14 C -0.2069(3) 1.1015(2) 0.2603(3)
C15 C -0.0890(3) 0.9874(2) 0.3560(2)
H1 H 0.1091(3) 1.1309(2) 0.1010(2)
H2 H 0.1228(3) 0.9514(2) 0.0581(2)
H3 H 0.0191(3) 0.8826(2) 0.1318(2)
H4 H 0.1135(3) 1.1631(2) 0.4000(2)
H5 H 0.2166(3) 1.2315(2) 0.3026(2)
H6 H -0.2380(3) 0.9201(2) 0.0795(3)
H7 H -0.3055(3) 0.8976(2) 0.1570(3)
H8 H -0.1749(3) 0.8469(2) 0.1444(3)
H9 H -0.2889(3) 1.0849(2) 0.2723(3)
H10 H -0.2326(3) 1.1151(2) 0.1921(3)
H11 H -0.1496(3) 1.1646(2) 0.3241(3)
H12 H -0.0369(3) 1.0526(2) 0.4204(2)
H13 H -0.0332(3) 0.9302(2) 0.3517(2)
H14 H -0.1718(3) 0.9665(2) 0.3651(2)
C16 C 0.4323(3) 0.6285(2) -0.0532(2)
C17 C 0.3522(3) 0.5148(2) -0.1335(2)
C18 C 0.2005(3) 0.4875(2) -0.2136(2)
Cl7 Cl 0.0850(1) 0.4814(1) -0.1502(1)
C19 C 0.1687(3) 0.5529(2) -0.2845(2)
Cl8 Cl 0.0711(1) 0.6507(1) -0.2695(1)
C20 C 0.2339(3) 0.5217(2) -0.3542(2)
Cl9 Cl 0.2428(1) 0.5728(1) -0.4468(1)
C21 C 0.3109(3) 0.4347(2) -0.3325(2)
Cl10 Cl 0.3524(1) 0.3478(1) -0.4432(1)
C22 C 0.4292(3) 0.4796(2) -0.2159(2)
C23 C 0.5413(3) 0.5804(2) -0.1665(2)
C24 C 0.4761(3) 0.6752(2) -0.1799(2)
C25 C 0.4108(3) 0.7047(2) -0.1106(3)
O2 O 0.5663(2) 0.6058(2) -0.0493(2)
C26 C 0.2048(3) 0.3807(2) -0.3050(3)
Cl11 Cl 0.2613(1) 0.2812(1) -0.2553(1)
Cl12 Cl 0.0465(1) 0.3637(1) -0.4184(1)
C27 C 0.6742(3) 0.5644(2) -0.1874(3)
C28 C 0.7257(3) 0.4651(3) -0.1716(4)
C29 C 0.7815(3) 0.6622(3) -0.1029(3)
C30 C 0.6515(4) 0.5540(3) -0.3060(3)
H15 H 0.4238(3) 0.6541(2) 0.0150(2)
H16 H 0.3669(3) 0.4726(2) -0.0939(2)
H17 H 0.4747(3) 0.4214(2) -0.2056(2)
H18 H 0.4812(3) 0.7058(2) -0.2267(2)
H19 H 0.3632(3) 0.7592(2) -0.0999(3)
H20 H 0.6708(3) 0.4048(3) -0.2311(4)
H21 H 0.7232(3) 0.4652(3) -0.1052(4)
H22 H 0.8145(3) 0.4652(3) -0.1688(4)
H23 H 0.7452(3) 0.7264(3) -0.1061(3)
H24 H 0.8626(3) 0.6581(3) -0.1213(3)
H25 H 0.8048(3) 0.6640(3) -0.0279(3)
H26 H 0.5821(4) 0.4915(3) -0.3605(3)
H27 H 0.7378(4) 0.5452(3) -0.3186(3)
H28 H 0.6199(4) 0.6188(3) -0.3156(3)
loop_
_geom_bond_atom_site_label_1
_geom_bond_atom_site_label_2
_geom_bond_site_symmetry_1
_geom_bond_site_symmetry_2
C1 C2 1_555 1_555
C2 C3 1_555 1_555
C3 Cl1 1_555 1_555
C4 C3 1_555 1_555
Cl2 C4 1_555 1_555
C5 C4 1_555 1_555
Cl3 C5 1_555 1_555
C6 C5 1_555 1_555
Cl4 C6 1_555 1_555
C7 C2 1_555 1_555
C8 C7 1_555 1_555
C9 C8 1_555 1_555
C10 C1 1_555 1_555
O1 C1 1_555 1_555
C11 C3 1_555 1_555
Cl5 C11 1_555 1_555
Cl6 C11 1_555 1_555
C12 C8 1_555 1_555
C13 C12 1_555 1_555
C14 C12 1_555 1_555
C15 C12 1_555 1_555
C16 C17 1_555 1_555
C17 C18 1_555 1_555
C18 Cl7 1_555 1_555
C19 C18 1_555 1_555
Cl8 C19 1_555 1_555
C20 C19 1_555 1_555
Cl9 C20 1_555 1_555
C21 C20 1_555 1_555
Cl10 C21 1_555 1_555
C22 C17 1_555 1_555
C23 C22 1_555 1_555
C24 C23 1_555 1_555
C25 C16 1_555 1_555
O2 C16 1_555 1_555
C26 C18 1_555 1_555
Cl11 C26 1_555 1_555
Cl12 C26 1_555 1_555
C27 C23 1_555 1_555
C28 C27 1_555 1_555
C29 C27 1_555 1_555
C30 C27 1_555 1_555
H1 C1 1_555 1_555
H2 C2 1_555 1_555
H3 C7 1_555 1_555
H4 C9 1_555 1_555
H5 C10 1_555 1_555
H6 C13 1_555 1_555
H7 C13 1_555 1_555
H8 C13 1_555 1_555
H9 C14 1_555 1_555
H10 C14 1_555 1_555
H11 C14 1_555 1_555
H12 C15 1_555 1_555
H13 C15 1_555 1_555
H14 C15 1_555 1_555
H15 C16 1_555 1_555
H16 C17 1_555 1_555
H17 C22 1_555 1_555
H18 C24 1_555 1_555
H19 C25 1_555 1_555
H20 C28 1_555 1_555
H21 C28 1_555 1_555
H22 C28 1_555 1_555
H23 C29 1_555 1_555
H24 C29 1_555 1_555
H25 C29 1_555 1_555
H26 C30 1_555 1_555
H27 C30 1_555 1_555
H28 C30 1_555 1_555
C6 C7 1_555 1_555
C6 C11 1_555 1_555
C8 O1 1_555 1_555
C9 C10 1_555 1_555
C21 C22 1_555 1_555
C21 C26 1_555 1_555
C23 O2 1_555 1_555
C24 C25 1_555 1_555

#END
