
#######################################################################
#
#                 Cambridge Crystallographic Data Centre
#                                CCDC 
#
#######################################################################
#
# If this CIF has been generated from an entry in the Cambridge 
# Structural Database, then it will include bibliographic, chemical, 
# crystal, experimental, refinement or atomic coordinate data resulting 
# from the CCDC's data processing and validation procedures.
#
#######################################################################

data_TITROF
_chemical_name_common            
'16-(Dimethylaminomethyl)salvinorin A ethanol solvate'
_chemical_formula_moiety         'C26 H35 N1 O8,0.25(C2 H6 O1)'
_chemical_name_systematic        
'(2S,4aR,6aR,7R,9S,10aS,10bR)-Methyl 9-acetoxy-2-(2-(dimethylaminomethyl)-3-furyl)-6a,10b-dimethyl-4,10-dioxo-2,4a,5,6,7,8,9,10a-octahydro-1H-benzo[f]isochromene-7-carboxylate ethanol solvate'
_symmetry_cell_setting           monoclinic
_symmetry_space_group_name_H-M   'P 21'
_symmetry_Int_Tables_number      4
_space_group_name_Hall           'P 2yb'
loop_
_symmetry_equiv_pos_site_id
_symmetry_equiv_pos_as_xyz
1 x,y,z
2 -x,1/2+y,-z
_cell_length_a                   10.9397(2)
_cell_length_b                   10.1557(2)
_cell_length_c                   12.7466(2)
_cell_angle_alpha                90
_cell_angle_beta                 109.839(1)
_cell_angle_gamma                90
_cell_volume                     1332.1
_exptl_crystal_colour            colorless
_exptl_crystal_description       prism
_chemical_melting_point          '431 K'
_cell_formula_units_Z            2
_exptl_crystal_recrystallization_method ethanol/hexanes
loop_
_atom_site_label
_atom_site_type_symbol
_atom_site_fract_x
_atom_site_fract_y
_atom_site_fract_z
C1 C 0.2664(2) 0.1432(2) 0.78291(16)
O1 O 0.37855(15) 0.16297(19) 0.79773(15)
C2 C 0.2182(2) 0.0141(2) 0.81584(19)
H1 H 0.1696 -0.0356 0.7465
O2 O 0.33187(18) -0.06059(18) 0.87787(15)
C3 C 0.1294(2) 0.0343(2) 0.88372(19)
H2 H 0.1805 0.0684 0.9585
H3 H 0.0909 -0.0511 0.8935
C4 C 0.02125(19) 0.1314(2) 0.82525(16)
H4 H -0.0292 0.0943 0.7504
C5 C 0.07674(18) 0.2681(2) 0.80674(16)
C6 C -0.03680(19) 0.3606(2) 0.74666(18)
H5 H -0.1018 0.3112 0.6861
H6 H -0.0793 0.3890 0.8002
C7 C 0.0044(2) 0.4820(2) 0.69728(19)
H7 H 0.0643 0.5360 0.7577
H8 H -0.0728 0.5361 0.6578
C8 C 0.07213(18) 0.4399(2) 0.61612(16)
H9 H 0.0107 0.3791 0.5615
C9 C 0.19728(16) 0.36029(18) 0.67189(15)
C10 C 0.15642(17) 0.23994(18) 0.72708(15)
H10 H 0.0953 0.1895 0.6634
C11 C 0.23884(18) 0.31158(19) 0.57411(16)
H11 H 0.3201 0.2601 0.6046
H12 H 0.1709 0.2520 0.5266
C12 C 0.26072(19) 0.4225(2) 0.50229(17)
H13 H 0.3511 0.4563 0.5385
O3 O 0.17044(16) 0.53422(16) 0.48697(14)
C13 C 0.24795(19) 0.37622(18) 0.38827(16)
C14 C 0.1372(2) 0.3096(2) 0.31107(18)
H14 H 0.0585 0.2877 0.3230
C15 C 0.1669(3) 0.2848(2) 0.2198(2)
H15 H 0.1114 0.2411 0.1553
O4 O 0.28902(18) 0.33144(16) 0.23205(13)
C16 C 0.33639(19) 0.38679(16) 0.33596(17)
C17 C 0.09536(19) 0.5533(2) 0.54885(18)
O5 O 0.04333(17) 0.65991(17) 0.54276(15)
C18 C -0.0700(2) 0.1420(3) 0.89210(19)
O6 O -0.03758(19) 0.1418(3) 0.99149(15)
C19 C 0.1601(2) 0.3293(3) 0.91886(17)
H16 H 0.1164 0.3173 0.9737
H17 H 0.1718 0.4235 0.9086
H18 H 0.2452 0.2860 0.9455
C20 C 0.30514(19) 0.4477(2) 0.75020(17)
H19 H 0.3212 0.5226 0.7082
H20 H 0.3850 0.3960 0.7809
H21 H 0.2777 0.4800 0.8112
O7 O -0.19323(16) 0.1513(2) 0.82504(14)
C21 C -0.2875(3) 0.1642(5) 0.8812(3)
H22 H -0.3629 0.2138 0.8338
H23 H -0.2481 0.2109 0.9519
H24 H -0.3155 0.0765 0.8959
C22 C 0.3304(3) -0.1875(3) 0.8616(3)
O8 O 0.2309(3) -0.2466(2) 0.8144(3)
C23 C 0.4605(3) -0.2478(3) 0.9237(3)
H25 H 0.4479 -0.3353 0.9508
H26 H 0.5073 -0.1916 0.9871
H27 H 0.5111 -0.2558 0.8736
C24 C 0.4708(3) 0.4421(4) 0.3597(6)
H28 H 0.5061 0.4130 0.3016
H29 H 0.4674 0.5395 0.3591
N1 N 0.5545(4) 0.3955(5) 0.4692(5)
C25 C 0.5879(7) 0.2574(5) 0.4605(10)
H30 H 0.5099 0.2029 0.4453
H31 H 0.6534 0.2293 0.5307
H32 H 0.6229 0.2475 0.3995
C26 C 0.6717(6) 0.4757(8) 0.5099(8)
H33 H 0.6531 0.5645 0.4784
H34 H 0.7404 0.4357 0.4872
H35 H 0.7003 0.4808 0.5915
O9 O 0.5825(10) 0.3708(11) 0.6668(8)
H36 H 0.5585 0.3691 0.5968
C27 C 0.6268(16) 0.506(2) 0.7071(12)
H37 H 0.5554 0.5699 0.6765
H38 H 0.7008 0.5321 0.6837
C28 C 0.6678(14) 0.501(2) 0.8329(9)
H39 H 0.6939 0.5891 0.8635
H40 H 0.7412 0.4402 0.8621
H41 H 0.5949 0.4702 0.8546
C29? C 0.4698(3) 0.4486(3) 0.3790(7)
H42? H 0.4833 0.5040 0.3200
H43? H 0.4764 0.5058 0.4436
N2? N 0.5709(4) 0.3460(4) 0.4130(4)
C30? C 0.6985(4) 0.4049(8) 0.4325(6)
H44? H 0.6991 0.4497 0.3645
H45? H 0.7650 0.3359 0.4524
H46? H 0.7169 0.4688 0.4935
C31? C 0.5687(6) 0.2797(9) 0.5138(7)
H47? H 0.5087 0.2049 0.4933
H48? H 0.5397 0.3416 0.5595
H49? H 0.6562 0.2481 0.5563
loop_
_geom_bond_atom_site_label_1
_geom_bond_atom_site_label_2
_geom_bond_site_symmetry_1
_geom_bond_site_symmetry_2
C1 O1 1_555 1_555
C2 C1 1_555 1_555
H1 C2 1_555 1_555
O2 C2 1_555 1_555
C3 C2 1_555 1_555
H2 C3 1_555 1_555
H3 C3 1_555 1_555
C4 C3 1_555 1_555
H4 C4 1_555 1_555
C5 C4 1_555 1_555
C6 C5 1_555 1_555
H5 C6 1_555 1_555
H6 C6 1_555 1_555
C7 C6 1_555 1_555
H7 C7 1_555 1_555
H8 C7 1_555 1_555
C8 C7 1_555 1_555
H9 C8 1_555 1_555
C9 C8 1_555 1_555
C10 C1 1_555 1_555
H10 C10 1_555 1_555
C11 C9 1_555 1_555
H11 C11 1_555 1_555
H12 C11 1_555 1_555
C12 C11 1_555 1_555
H13 C12 1_555 1_555
O3 C12 1_555 1_555
C13 C12 1_555 1_555
C14 C13 1_555 1_555
H14 C14 1_555 1_555
C15 C14 1_555 1_555
H15 C15 1_555 1_555
O4 C15 1_555 1_555
C16 C13 1_555 1_555
C17 C8 1_555 1_555
O5 C17 1_555 1_555
C18 C4 1_555 1_555
O6 C18 1_555 1_555
C19 C5 1_555 1_555
H16 C19 1_555 1_555
H17 C19 1_555 1_555
H18 C19 1_555 1_555
C20 C9 1_555 1_555
H19 C20 1_555 1_555
H20 C20 1_555 1_555
H21 C20 1_555 1_555
O7 C18 1_555 1_555
C21 O7 1_555 1_555
H22 C21 1_555 1_555
H23 C21 1_555 1_555
H24 C21 1_555 1_555
C22 O2 1_555 1_555
O8 C22 1_555 1_555
C23 C22 1_555 1_555
H25 C23 1_555 1_555
H26 C23 1_555 1_555
H27 C23 1_555 1_555
C24 C16 1_555 1_555
H28 C24 1_555 1_555
H29 C24 1_555 1_555
N1 C24 1_555 1_555
C25 N1 1_555 1_555
H30 C25 1_555 1_555
H31 C25 1_555 1_555
H32 C25 1_555 1_555
C26 N1 1_555 1_555
H33 C26 1_555 1_555
H34 C26 1_555 1_555
H35 C26 1_555 1_555
O9 H36 1_555 1_555
C27 O9 1_555 1_555
H37 C27 1_555 1_555
H38 C27 1_555 1_555
C28 C27 1_555 1_555
H39 C28 1_555 1_555
H40 C28 1_555 1_555
H41 C28 1_555 1_555
C5 C10 1_555 1_555
C9 C10 1_555 1_555
O3 C17 1_555 1_555
O4 C16 1_555 1_555

#END
