
#######################################################################
#
#                 Cambridge Crystallographic Data Centre
#                                CCDC 
#
#######################################################################
#
# If this CIF has been generated from an entry in the Cambridge 
# Structural Database, then it will include bibliographic, chemical, 
# crystal, experimental, refinement or atomic coordinate data resulting 
# from the CCDC's data processing and validation procedures.
#
#######################################################################

data_TIVCIL
_chemical_formula_moiety         'C20 H19 N3 O3,C3 H7 N1 O1'
_chemical_name_systematic        
'8,8-Dimethyl-5-(4-methylphenyl)-8,9-dihydropyrimido[4,5-b]quinoline-2,4,6(1H,3H,7H)-trione N,N-dimethylformamide solvate'
_symmetry_cell_setting           triclinic
_symmetry_space_group_name_H-M   'P -1'
_symmetry_Int_Tables_number      2
_space_group_name_Hall           '-P 1'
loop_
_symmetry_equiv_pos_site_id
_symmetry_equiv_pos_as_xyz
1 x,y,z
2 -x,-y,-z
_cell_length_a                   8.8252(16)
_cell_length_b                   10.289(2)
_cell_length_c                   12.316(2)
_cell_angle_alpha                95.898(3)
_cell_angle_beta                 93.115(3)
_cell_angle_gamma                94.719(3)
_cell_volume                     1106.41
_exptl_crystal_colour            colorless
_exptl_crystal_description       block
_cell_formula_units_Z            2
_exptl_crystal_recrystallization_method dimethylformamide/water
loop_
_atom_site_label
_atom_site_type_symbol
_atom_site_fract_x
_atom_site_fract_y
_atom_site_fract_z
O1 O 0.66314(15) 0.41510(14) 0.49822(12)
O2 O 0.61458(17) 0.01747(15) 0.62264(14)
O3 O 0.1315(2) -0.03738(19) 0.88397(19)
N1 N 0.63982(17) 0.22017(16) 0.56995(13)
H1 H 0.7300 0.2042 0.5431
N2 N 0.45129(17) 0.36219(16) 0.58594(14)
H2 H 0.4112 0.4358 0.5704
N3 N 0.24137(17) 0.32697(15) 0.68299(13)
C1 C 0.5892(2) 0.33743(19) 0.54821(16)
C2 C 0.5624(2) 0.1225(2) 0.62047(16)
C3 C 0.42031(19) 0.15976(18) 0.66859(14)
C4 C 0.3337(2) 0.08197(18) 0.73401(14)
C5 C 0.1967(2) 0.12798(18) 0.76963(15)
C6 C 0.0920(2) 0.0536(2) 0.83849(18)
C7 C -0.0623(2) 0.10073(19) 0.85164(18)
H3 H -0.1091 0.0604 0.9108
H4 H -0.1259 0.0737 0.7851
C8 C -0.0549(2) 0.25028(19) 0.87620(16)
C9 C 0.0437(3) 0.2941(2) 0.98100(19)
H5 H 0.0456 0.3875 0.9972
H6 H 0.1455 0.2703 0.9716
H7 H 0.0023 0.2520 1.0402
C10 C -0.2145(2) 0.2942(2) 0.8905(2)
H8 H -0.2567 0.2574 0.9520
H9 H -0.2785 0.2647 0.8256
H10 H -0.2088 0.3882 0.9029
C11 C 0.0129(2) 0.3077(2) 0.77834(18)
H11 H -0.0631 0.2944 0.7174
H12 H 0.0350 0.4016 0.7966
C12 C 0.1560(2) 0.25081(18) 0.74199(16)
C13 C 0.36838(19) 0.27982(18) 0.64708(15)
C14 C 0.38754(19) -0.04296(18) 0.76792(14)
C15 C 0.3251(2) -0.16362(19) 0.71966(16)
H13 H 0.2520 -0.1684 0.6618
C16 C 0.3704(2) -0.2778(2) 0.75669(18)
H14 H 0.3266 -0.3584 0.7235
C17 C 0.4790(2) -0.2743(2) 0.84175(17)
C18 C 0.5257(3) -0.4007(3) 0.8817(2)
H15 H 0.6009 -0.4355 0.8362
H16 H 0.4381 -0.4632 0.8783
H17 H 0.5675 -0.3833 0.9559
C19 C 0.5433(2) -0.1537(2) 0.88808(17)
H18 H 0.6181 -0.1493 0.9448
C20 C 0.4988(2) -0.0388(2) 0.85185(16)
H19 H 0.5442 0.0417 0.8842
O4 O -0.06364(17) 0.16079(19) 0.51009(14)
N4 N 0.09249(19) 0.25425(17) 0.39330(15)
C21 C 0.0462(2) 0.1599(3) 0.45278(19)
H20 H 0.1016 0.0868 0.4510
C22 C 0.0147(3) 0.3718(2) 0.3888(3)
H21 H -0.0687 0.3694 0.4357
H22 H -0.0234 0.3772 0.3151
H23 H 0.0845 0.4472 0.4128
C23 C 0.2201(3) 0.2428(3) 0.3249(2)
H24 H 0.2674 0.1643 0.3368
H25 H 0.2928 0.3176 0.3431
H26 H 0.1846 0.2390 0.2495
loop_
_geom_bond_atom_site_label_1
_geom_bond_atom_site_label_2
_geom_bond_site_symmetry_1
_geom_bond_site_symmetry_2
O1 C1 1_555 1_555
O2 C2 1_555 1_555
O3 C6 1_555 1_555
N1 H1 1_555 1_555
N2 H2 1_555 1_555
N3 C12 1_555 1_555
C1 N1 1_555 1_555
C2 N1 1_555 1_555
C3 C2 1_555 1_555
C4 C3 1_555 1_555
C5 C4 1_555 1_555
C6 C5 1_555 1_555
C7 C6 1_555 1_555
H3 C7 1_555 1_555
H4 C7 1_555 1_555
C8 C7 1_555 1_555
C9 C8 1_555 1_555
H5 C9 1_555 1_555
H6 C9 1_555 1_555
H7 C9 1_555 1_555
C10 C8 1_555 1_555
H8 C10 1_555 1_555
H9 C10 1_555 1_555
H10 C10 1_555 1_555
C11 C8 1_555 1_555
H11 C11 1_555 1_555
H12 C11 1_555 1_555
C12 C5 1_555 1_555
C13 N2 1_555 1_555
C14 C4 1_555 1_555
C15 C14 1_555 1_555
H13 C15 1_555 1_555
C16 C15 1_555 1_555
H14 C16 1_555 1_555
C17 C16 1_555 1_555
C18 C17 1_555 1_555
H15 C18 1_555 1_555
H16 C18 1_555 1_555
H17 C18 1_555 1_555
C19 C17 1_555 1_555
H18 C19 1_555 1_555
C20 C14 1_555 1_555
H19 C20 1_555 1_555
O4 C21 1_555 1_555
N4 C21 1_555 1_555
C21 H20 1_555 1_555
C22 N4 1_555 1_555
H21 C22 1_555 1_555
H22 C22 1_555 1_555
H23 C22 1_555 1_555
C23 N4 1_555 1_555
H24 C23 1_555 1_555
H25 C23 1_555 1_555
H26 C23 1_555 1_555
N2 C1 1_555 1_555
N3 C13 1_555 1_555
C3 C13 1_555 1_555
C11 C12 1_555 1_555
C19 C20 1_555 1_555

#END
