
#######################################################################
#
#                 Cambridge Crystallographic Data Centre
#                                CCDC 
#
#######################################################################
#
# If this CIF has been generated from an entry in the Cambridge 
# Structural Database, then it will include bibliographic, chemical, 
# crystal, experimental, refinement or atomic coordinate data resulting 
# from the CCDC's data processing and validation procedures.
#
#######################################################################

data_TIWFOW
_chemical_formula_moiety         'C36 H31 N7,0.33(C1 H1 Cl3)'
_chemical_name_systematic        
'7-(Dicyanomethylene)-2,4,6-tris(4-(dimethylamino)phenyl)cyclohepta-1,3,5-triene-1,3-dicarbonitrile chloroform solvate'
_symmetry_cell_setting           triclinic
_symmetry_space_group_name_H-M   'P -1'
_symmetry_Int_Tables_number      2
_space_group_name_Hall           '-P 1'
loop_
_symmetry_equiv_pos_site_id
_symmetry_equiv_pos_as_xyz
1 x,y,z
2 -x,-y,-z
_cell_length_a                   16.0228(11)
_cell_length_b                   16.8314(11)
_cell_length_c                   17.8423(11)
_cell_angle_alpha                80.594(2)
_cell_angle_beta                 81.100(3)
_cell_angle_gamma                80.250(2)
_cell_volume                     4638.46
_exptl_crystal_colour            black
_exptl_crystal_description       prism
_cell_formula_units_Z            6
loop_
_atom_site_label
_atom_site_type_symbol
_atom_site_fract_x
_atom_site_fract_y
_atom_site_fract_z
Cl1 Cl 0.95634(6) 0.44744(6) 0.41907(5)
Cl2 Cl 0.91187(6) 0.41839(6) 0.27564(6)
Cl3 Cl 0.81713(8) 0.36189(8) 0.42150(8)
C1 C 0.9174(2) 0.3796(2) 0.3723(2)
H1 H 0.9609 0.3222 0.3756
N1 N 0.05850(16) 1.10120(15) -0.05078(14)
N2 N -0.20463(16) 1.02594(15) 0.26202(15)
N3 N 0.24150(15) 1.48634(14) 0.34236(13)
N4 N 0.03928(16) 1.51872(16) 0.08124(15)
N5 N 0.16198(16) 1.42224(15) -0.13014(14)
N6 N 0.37443(17) 1.30539(16) -0.00555(16)
N7 N 0.49269(16) 0.99100(15) -0.10417(14)
C2 C 0.11811(17) 1.17330(16) 0.04184(15)
C3 C 0.07452(17) 1.18682(15) 0.11315(15)
C4 C 0.10178(17) 1.23731(16) 0.16121(16)
H2 H 0.0863(19) 1.2261(18) 0.2156(18)
C5 C 0.14146(17) 1.30348(16) 0.13972(15)
C6 C 0.16146(17) 1.32929(16) 0.05674(15)
C7 C 0.22260(17) 1.26751(16) 0.01899(15)
C8 C 0.20185(17) 1.19500(16) 0.00901(15)
C9 C 0.08389(17) 1.12970(16) -0.00703(15)
C10 C 0.00164(17) 1.14524(16) 0.15000(14)
C11 C -0.06152(18) 1.18105(16) 0.20297(15)
H3 H -0.0570(16) 1.2354(16) 0.2144(14)
C12 C -0.12835(19) 1.14315(17) 0.24062(16)
H4 H -0.1692(18) 1.1659(17) 0.2742(16)
C13 C -0.13678(18) 1.06392(17) 0.22754(15)
C14 C -0.07277(18) 1.02772(17) 0.17530(15)
H5 H -0.0730(18) 0.9719(19) 0.1685(16)
C15 C -0.00682(19) 1.06713(16) 0.13834(16)
H6 H 0.0293(18) 1.0435(17) 0.1090(16)
C16 C -0.2545(2) 1.0527(2) 0.33095(19)
H7 H -0.216(2) 1.0422(18) 0.3739(18)
H8 H -0.297(2) 1.015(2) 0.344(2)
H9 H -0.278(2) 1.113(2) 0.324(2)
C17 C -0.2068(3) 0.9428(2) 0.2503(3)
H10 H -0.1935 0.9383 0.1892
H11 H -0.2698 0.9264 0.2725
H12 H -0.1587 0.9015 0.2803
C18 C 0.16826(16) 1.34936(15) 0.19282(15)
C19 C 0.14146(19) 1.33730(17) 0.27133(16)
H13 H 0.1063(19) 1.3067(18) 0.2899(16)
C20 C 0.16633(18) 1.38011(17) 0.32122(17)
H14 H 0.1471(18) 1.3689(17) 0.3728(17)
C21 C 0.22020(17) 1.43928(16) 0.29440(16)
C22 C 0.25104(19) 1.44864(17) 0.21619(16)
H15 H 0.288(2) 1.4791(19) 0.1975(17)
C23 C 0.22522(17) 1.40519(16) 0.16748(16)
H16 H 0.2502(18) 1.4134(17) 0.1150(17)
C24 C 0.2987(2) 1.5441(2) 0.3136(2)
H17 H 0.299(2) 1.580(3) 0.349(2)
H18 H 0.276(2) 1.587(2) 0.267(2)
H19 H 0.350(3) 1.520(2) 0.301(2)
C25 C 0.2125(2) 1.4725(2) 0.42411(18)
H20 H 0.146(2) 1.483(2) 0.4329(19)
H21 H 0.2293(19) 1.414(2) 0.4490(17)
H22 H 0.2336(19) 1.5034(19) 0.4470(17)
C26 C 0.13139(17) 1.40054(16) 0.01762(15)
C27 C 0.07950(18) 1.46526(17) 0.05358(15)
C28 C 0.15009(17) 1.41449(16) -0.06508(16)
C29 C 0.30801(19) 1.28650(16) 0.00240(17)
C30 C 0.26623(18) 1.13815(17) -0.03152(16)
C31 C 0.32293(19) 1.16617(18) -0.09500(16)
H23 H 0.3073(17) 1.2210(17) -0.1260(15)
C32 C 0.39454(19) 1.11668(18) -0.12200(17)
H24 H 0.4374(18) 1.1381(17) -0.1686(17)
C33 C 0.41594(19) 1.03630(17) -0.08547(16)
C34 C 0.35394(19) 1.00584(18) -0.02736(16)
H25 H 0.3655(17) 0.9503(18) 0.0018(16)
C35 C 0.28241(19) 1.05583(17) -0.00121(17)
H26 H 0.2464(18) 1.0362(17) 0.0404(16)
C36 C 0.5586(2) 1.0277(2) -0.1564(2)
H27 H 0.571(2) 1.083(2) -0.1423(18)
H28 H 0.544(2) 1.043(2) -0.212(2)
H29 H 0.610(2) 0.989(2) -0.1575(19)
C37 C 0.5114(2) 0.90700(18) -0.0692(2)
H30 H 0.5088(19) 0.8984(19) -0.0121(19)
H31 H 0.571(2) 0.886(2) -0.083(2)
H32 H 0.472(2) 0.870(2) -0.0837(18)
N8 N 0.38113(15) 1.05489(14) 0.51261(14)
N9 N 0.50006(15) 0.68006(14) 0.64576(14)
N10 N 0.02111(16) 0.68252(14) 0.23552(14)
N11 N 0.03181(15) 1.17234(14) 0.36108(13)
N12 N -0.05842(17) 0.94348(16) 0.44617(15)
N13 N 0.20141(16) 1.05434(16) 0.18063(14)
N14 N 0.51895(16) 1.23860(15) 0.18835(14)
C38 C 0.30684(17) 0.98432(16) 0.42756(15)
C39 C 0.29529(17) 0.90368(16) 0.45083(15)
C40 C 0.24388(17) 0.86010(16) 0.41681(15)
H33 H 0.2618(17) 0.8040(17) 0.4233(15)
C41 C 0.17613(17) 0.88870(15) 0.37714(14)
C42 C 0.14938(17) 0.97714(16) 0.36487(14)
C43 C 0.21836(17) 1.02286(15) 0.32383(15)
C44 C 0.28807(17) 1.03208(15) 0.35486(15)
C45 C 0.35057(17) 1.02199(16) 0.47446(15)
C46 C 0.34547(17) 0.85185(15) 0.50773(15)
C47 C 0.43290(18) 0.85434(17) 0.50417(16)
H34 H 0.4573(16) 0.8905(16) 0.4668(15)
C48 C 0.4828(2) 0.79870(17) 0.54973(16)
H35 H 0.537(2) 0.8012(18) 0.5449(17)
C49 C 0.44950(18) 0.73635(16) 0.60146(15)
C50 C 0.36093(19) 0.73464(17) 0.60580(16)
H36 H 0.3319(17) 0.6964(17) 0.6400(15)
C51 C 0.31202(19) 0.79055(16) 0.55962(16)
H37 H 0.2532(18) 0.7900(16) 0.5645(15)
C52 C 0.5915(2) 0.6788(2) 0.6336(2)
H38 H 0.6162(18) 0.6655(17) 0.5854(17)
H39 H 0.6061(19) 0.730(2) 0.6385(16)
H40 H 0.617(2) 0.644(2) 0.6706(19)
C53 C 0.4677(2) 0.6068(2) 0.6858(2)
H41 H 0.448(2) 0.576(2) 0.6551(19)
H42 H 0.510(2) 0.573(2) 0.7108(19)
H43 H 0.417(2) 0.620(2) 0.7205(19)
C54 C 0.13331(16) 0.83595(15) 0.34262(15)
C55 C 0.07716(17) 0.86677(17) 0.28872(15)
H44 H 0.0629(17) 0.9272(18) 0.2719(15)
C56 C 0.03945(18) 0.81767(17) 0.25377(16)
H45 H 0.0029(19) 0.8397(18) 0.2173(17)
C57 C 0.05720(17) 0.73209(16) 0.27026(15)
C58 C 0.11372(18) 0.70053(17) 0.32416(16)
H46 H 0.1262(17) 0.6444(18) 0.3360(15)
C59 C 0.15004(18) 0.75075(17) 0.35916(16)
H47 H 0.1828(19) 0.7272(18) 0.3957(17)
C60 C -0.0422(2) 0.7163(2) 0.1845(2)
H48 H -0.057(2) 0.671(2) 0.158(2)
H49 H -0.0908(19) 0.7481(18) 0.2095(16)
H50 H -0.016(2) 0.753(2) 0.1436(19)
C61 C 0.0409(2) 0.59539(19) 0.2526(2)
H51 H 0.0237(18) 0.5816(17) 0.3006(17)
H52 H 0.1015(19) 0.5808(16) 0.2380(15)
H53 H 0.019(2) 0.569(2) 0.2183(19)
C62 C 0.06981(17) 1.01531(15) 0.38242(15)
C63 C 0.05003(17) 1.10320(17) 0.36921(15)
C64 C -0.00021(19) 0.97387(16) 0.41749(16)
C65 C 0.21080(17) 1.04489(16) 0.24394(16)
C66 C 0.34703(17) 1.08704(16) 0.31444(15)
C67 C 0.43552(18) 1.06826(17) 0.31713(16)
H54 H 0.4606(17) 1.0163(18) 0.3462(16)
C68 C 0.49130(19) 1.11750(17) 0.27633(16)
H55 H 0.554(2) 1.0971(18) 0.2812(16)
C69 C 0.46260(19) 1.18974(16) 0.22990(16)
C70 C 0.37418(19) 1.20958(18) 0.22732(17)
H56 H 0.350(2) 1.258(2) 0.1971(18)
C71 C 0.31871(19) 1.15957(17) 0.26925(16)
H57 H 0.257(2) 1.1743(18) 0.2693(16)
C72 C 0.4872(3) 1.3161(2) 0.1457(2)
H58 H 0.446(2) 1.354(2) 0.178(2)
H59 H 0.534(2) 1.342(2) 0.119(2)
H60 H 0.453(2) 1.312(2) 0.105(2)
C73 C 0.6078(2) 1.2224(2) 0.2002(2)
H61 H 0.6362(19) 1.168(2) 0.1889(17)
H62 H 0.6134(18) 1.2208(17) 0.2564(18)
H63 H 0.638(2) 1.265(2) 0.164(2)
N15 N 0.42911(15) 0.52009(14) 0.12244(13)
N16 N 0.80759(15) 0.34534(14) 0.00549(13)
N17 N 0.84293(15) 0.74464(15) 0.47625(14)
N18 N 0.58976(17) 0.54357(15) 0.50949(15)
N19 N 0.34088(16) 0.65943(14) 0.44427(13)
N20 N 0.42763(17) 0.84044(15) 0.31598(14)
N21 N 0.22412(15) 0.85596(14) 0.02877(13)
C74 C 0.51867(17) 0.59806(16) 0.18561(14)
C75 C 0.60310(17) 0.56675(16) 0.19304(15)
C76 C 0.65377(19) 0.59741(17) 0.23894(16)
H64 H 0.7115(18) 0.5885(16) 0.2219(15)
C77 C 0.62764(17) 0.63478(16) 0.30252(15)
C78 C 0.53668(17) 0.64835(15) 0.33154(14)
C79 C 0.48271(17) 0.69863(16) 0.27627(15)
C80 C 0.47022(16) 0.67310(16) 0.21004(14)
C81 C 0.47061(17) 0.55523(16) 0.14762(15)
C82 C 0.65012(17) 0.50433(15) 0.14678(14)
C83 C 0.71521(17) 0.44589(16) 0.17467(16)
H65 H 0.7270(16) 0.4448(15) 0.2239(15)
C84 C 0.76596(18) 0.39191(16) 0.13018(15)
H66 H 0.8103(16) 0.3506(15) 0.1518(14)
C85 C 0.75534(17) 0.39585(15) 0.05201(15)
C86 C 0.68957(18) 0.45334(16) 0.02479(16)
H67 H 0.6826(19) 0.4611(18) -0.0258(18)
C87 C 0.63852(17) 0.50530(16) 0.07034(15)
H68 H 0.5916(18) 0.5398(16) 0.0507(15)
C88 C 0.8017(2) 0.35925(19) -0.07635(16)
H69 H 0.8345(18) 0.3150(17) -0.1034(15)
H70 H 0.8188(18) 0.4118(18) -0.1013(16)
H71 H 0.749(2) 0.3564(18) -0.0893(17)
C89 C 0.8875(2) 0.3017(2) 0.0287(2)
H72 H 0.880(2) 0.272(2) 0.075(2)
H73 H 0.910(2) 0.267(2) -0.0067(19)
H74 H 0.923(2) 0.342(2) 0.0355(19)
C90 C 0.68577(17) 0.66490(16) 0.34402(15)
C91 C 0.65492(18) 0.72704(17) 0.38901(16)
H75 H 0.5949(17) 0.7513(15) 0.3920(14)
C92 C 0.70684(18) 0.75571(17) 0.42975(17)
H76 H 0.6832(17) 0.7980(17) 0.4522(16)
C93 C 0.79268(18) 0.72254(17) 0.42909(16)
C94 C 0.8248(2) 0.6628(2) 0.38108(18)
H77 H 0.880(2) 0.6388(18) 0.3773(16)
C95 C 0.77234(19) 0.6351(2) 0.34026(18)
H78 H 0.799(2) 0.5986(19) 0.3094(18)
C96 C 0.8055(2) 0.8061(2) 0.5253(2)
H79 H 0.7577(19) 0.7894(16) 0.5567(15)
H80 H 0.848(2) 0.8056(19) 0.5558(18)
H81 H 0.793(2) 0.857(2) 0.493(2)
C97 C 0.9341(2) 0.7323(2) 0.4584(2)
H82 H 0.956(2) 0.681(2) 0.4473(18)
H83 H 0.9586(19) 0.7537(18) 0.4909(17)
H84 H 0.952(3) 0.761(3) 0.404(3)
C98 C 0.50279(17) 0.62475(15) 0.40426(15)
C99 C 0.55237(18) 0.58015(17) 0.46227(16)
C100 C 0.41298(18) 0.64385(16) 0.42788(14)
C101 C 0.44842(18) 0.77790(17) 0.29613(15)
C102 C 0.40636(17) 0.71988(16) 0.16318(15)
C103 C 0.32749(18) 0.75742(16) 0.19655(16)
H85 H 0.3119(16) 0.7470(15) 0.2514(15)
C104 C 0.26804(18) 0.80192(16) 0.15296(15)
H86 H 0.2142(19) 0.8241(17) 0.1777(16)
C105 C 0.28370(18) 0.81152(16) 0.07226(16)
C106 C 0.36191(18) 0.77334(16) 0.03903(16)
H87 H 0.3757(16) 0.7796(15) -0.0122(15)
C107 C 0.42109(19) 0.72852(17) 0.08343(16)
H88 H 0.4717(18) 0.7070(16) 0.0655(15)
C108 C 0.1447(2) 0.8951(2) 0.06410(19)
H89 H 0.1131(18) 0.9284(17) 0.0299(16)
H90 H 0.1517(17) 0.9238(17) 0.1042(16)
H91 H 0.105(2) 0.856(2) 0.099(2)
C109 C 0.2367(2) 0.8572(2) -0.05398(17)
H92 H 0.284(2) 0.8889(19) -0.0784(18)
H93 H 0.183(2) 0.885(2) -0.076(2)
H94 H 0.2525(19) 0.800(2) -0.0660(17)
loop_
_geom_bond_atom_site_label_1
_geom_bond_atom_site_label_2
_geom_bond_site_symmetry_1
_geom_bond_site_symmetry_2
Cl1 C1 1_555 1_555
Cl2 C1 1_555 1_555
Cl3 C1 1_555 1_555
C1 H1 1_555 1_555
N1 C9 1_555 1_555
N2 C13 1_555 1_555
N3 C21 1_555 1_555
N4 C27 1_555 1_555
N5 C28 1_555 1_555
N6 C29 1_555 1_555
N7 C33 1_555 1_555
C2 C3 1_555 1_555
C3 C4 1_555 1_555
C4 H2 1_555 1_555
C5 C4 1_555 1_555
C6 C5 1_555 1_555
C7 C6 1_555 1_555
C8 C2 1_555 1_555
C9 C2 1_555 1_555
C10 C3 1_555 1_555
C11 C10 1_555 1_555
H3 C11 1_555 1_555
C12 C11 1_555 1_555
H4 C12 1_555 1_555
C13 C12 1_555 1_555
C14 C13 1_555 1_555
H5 C14 1_555 1_555
C15 C10 1_555 1_555
H6 C15 1_555 1_555
C16 N2 1_555 1_555
H7 C16 1_555 1_555
H8 C16 1_555 1_555
H9 C16 1_555 1_555
C17 N2 1_555 1_555
H10 C17 1_555 1_555
H11 C17 1_555 1_555
H12 C17 1_555 1_555
C18 C5 1_555 1_555
C19 C18 1_555 1_555
H13 C19 1_555 1_555
C20 C19 1_555 1_555
H14 C20 1_555 1_555
C21 C20 1_555 1_555
C22 C21 1_555 1_555
H15 C22 1_555 1_555
C23 C18 1_555 1_555
H16 C23 1_555 1_555
C24 N3 1_555 1_555
H17 C24 1_555 1_555
H18 C24 1_555 1_555
H19 C24 1_555 1_555
C25 N3 1_555 1_555
H20 C25 1_555 1_555
H21 C25 1_555 1_555
H22 C25 1_555 1_555
C26 C6 1_555 1_555
C27 C26 1_555 1_555
C28 C26 1_555 1_555
C29 C7 1_555 1_555
C30 C8 1_555 1_555
C31 C30 1_555 1_555
H23 C31 1_555 1_555
C32 C31 1_555 1_555
H24 C32 1_555 1_555
C33 C32 1_555 1_555
C34 C33 1_555 1_555
H25 C34 1_555 1_555
C35 C30 1_555 1_555
H26 C35 1_555 1_555
C36 N7 1_555 1_555
H27 C36 1_555 1_555
H28 C36 1_555 1_555
H29 C36 1_555 1_555
C37 N7 1_555 1_555
H30 C37 1_555 1_555
H31 C37 1_555 1_555
H32 C37 1_555 1_555
N8 C45 1_555 1_555
N9 C49 1_555 1_555
N10 C57 1_555 1_555
N11 C63 1_555 1_555
N12 C64 1_555 1_555
N13 C65 1_555 1_555
N14 C69 1_555 1_555
C38 C39 1_555 1_555
C39 C40 1_555 1_555
C40 H33 1_555 1_555
C41 C40 1_555 1_555
C42 C41 1_555 1_555
C43 C42 1_555 1_555
C44 C38 1_555 1_555
C45 C38 1_555 1_555
C46 C39 1_555 1_555
C47 C46 1_555 1_555
H34 C47 1_555 1_555
C48 C47 1_555 1_555
H35 C48 1_555 1_555
C49 C48 1_555 1_555
C50 C49 1_555 1_555
H36 C50 1_555 1_555
C51 C46 1_555 1_555
H37 C51 1_555 1_555
C52 N9 1_555 1_555
H38 C52 1_555 1_555
H39 C52 1_555 1_555
H40 C52 1_555 1_555
C53 N9 1_555 1_555
H41 C53 1_555 1_555
H42 C53 1_555 1_555
H43 C53 1_555 1_555
C54 C41 1_555 1_555
C55 C54 1_555 1_555
H44 C55 1_555 1_555
C56 C55 1_555 1_555
H45 C56 1_555 1_555
C57 C56 1_555 1_555
C58 C57 1_555 1_555
H46 C58 1_555 1_555
C59 C54 1_555 1_555
H47 C59 1_555 1_555
C60 N10 1_555 1_555
H48 C60 1_555 1_555
H49 C60 1_555 1_555
H50 C60 1_555 1_555
C61 N10 1_555 1_555
H51 C61 1_555 1_555
H52 C61 1_555 1_555
H53 C61 1_555 1_555
C62 C42 1_555 1_555
C63 C62 1_555 1_555
C64 C62 1_555 1_555
C65 C43 1_555 1_555
C66 C44 1_555 1_555
C67 C66 1_555 1_555
H54 C67 1_555 1_555
C68 C67 1_555 1_555
H55 C68 1_555 1_555
C69 C68 1_555 1_555
C70 C69 1_555 1_555
H56 C70 1_555 1_555
C71 C66 1_555 1_555
H57 C71 1_555 1_555
C72 N14 1_555 1_555
H58 C72 1_555 1_555
H59 C72 1_555 1_555
H60 C72 1_555 1_555
C73 N14 1_555 1_555
H61 C73 1_555 1_555
H62 C73 1_555 1_555
H63 C73 1_555 1_555
N15 C81 1_555 1_555
N16 C85 1_555 1_555
N17 C93 1_555 1_555
N18 C99 1_555 1_555
N19 C100 1_555 1_555
N20 C101 1_555 1_555
N21 C105 1_555 1_555
C74 C75 1_555 1_555
C75 C76 1_555 1_555
C76 H64 1_555 1_555
C77 C76 1_555 1_555
C78 C77 1_555 1_555
C79 C78 1_555 1_555
C80 C74 1_555 1_555
C81 C74 1_555 1_555
C82 C75 1_555 1_555
C83 C82 1_555 1_555
H65 C83 1_555 1_555
C84 C83 1_555 1_555
H66 C84 1_555 1_555
C85 C84 1_555 1_555
C86 C85 1_555 1_555
H67 C86 1_555 1_555
C87 C82 1_555 1_555
H68 C87 1_555 1_555
C88 N16 1_555 1_555
H69 C88 1_555 1_555
H70 C88 1_555 1_555
H71 C88 1_555 1_555
C89 N16 1_555 1_555
H72 C89 1_555 1_555
H73 C89 1_555 1_555
H74 C89 1_555 1_555
C90 C77 1_555 1_555
C91 C90 1_555 1_555
H75 C91 1_555 1_555
C92 C91 1_555 1_555
H76 C92 1_555 1_555
C93 C92 1_555 1_555
C94 C93 1_555 1_555
H77 C94 1_555 1_555
C95 C90 1_555 1_555
H78 C95 1_555 1_555
C96 N17 1_555 1_555
H79 C96 1_555 1_555
H80 C96 1_555 1_555
H81 C96 1_555 1_555
C97 N17 1_555 1_555
H82 C97 1_555 1_555
H83 C97 1_555 1_555
H84 C97 1_555 1_555
C98 C78 1_555 1_555
C99 C98 1_555 1_555
C100 C98 1_555 1_555
C101 C79 1_555 1_555
C102 C80 1_555 1_555
C103 C102 1_555 1_555
H85 C103 1_555 1_555
C104 C103 1_555 1_555
H86 C104 1_555 1_555
C105 C104 1_555 1_555
C106 C105 1_555 1_555
H87 C106 1_555 1_555
C107 C102 1_555 1_555
H88 C107 1_555 1_555
C108 N21 1_555 1_555
H89 C108 1_555 1_555
H90 C108 1_555 1_555
H91 C108 1_555 1_555
C109 N21 1_555 1_555
H92 C109 1_555 1_555
H93 C109 1_555 1_555
H94 C109 1_555 1_555
C7 C8 1_555 1_555
C14 C15 1_555 1_555
C22 C23 1_555 1_555
C34 C35 1_555 1_555
C43 C44 1_555 1_555
C50 C51 1_555 1_555
C58 C59 1_555 1_555
C70 C71 1_555 1_555
C79 C80 1_555 1_555
C86 C87 1_555 1_555
C94 C95 1_555 1_555
C106 C107 1_555 1_555

#END
