
#######################################################################
#
#                 Cambridge Crystallographic Data Centre
#                                CCDC 
#
#######################################################################
#
# If this CIF has been generated from an entry in the Cambridge 
# Structural Database, then it will include bibliographic, chemical, 
# crystal, experimental, refinement or atomic coordinate data resulting 
# from the CCDC's data processing and validation procedures.
#
#######################################################################

data_TIWREW
_chemical_formula_moiety         'C10 F15 1-,C16 H36 N1 1+'
_chemical_name_systematic        
'Tetrabutylammonium pentakis(trifluoromethyl)cyclopentadienide'
_symmetry_cell_setting           trigonal
_symmetry_space_group_name_H-M   'P 32'
_symmetry_Int_Tables_number      145
_space_group_name_Hall           'P 32'
loop_
_symmetry_equiv_pos_site_id
_symmetry_equiv_pos_as_xyz
1 x,y,z
2 -y,x-y,2/3+z
3 -x+y,-x,1/3+z
_cell_length_a                   9.5179(6)
_cell_length_b                   9.5179(6)
_cell_length_c                   28.926(2)
_cell_angle_alpha                90
_cell_angle_beta                 90
_cell_angle_gamma                120
_cell_volume                     2269.35
_exptl_crystal_colour            colorless
_chemical_melting_point          118-119deg.C
_cell_formula_units_Z            3
loop_
_atom_site_label
_atom_site_type_symbol
_atom_site_fract_x
_atom_site_fract_y
_atom_site_fract_z
N1 N 0.6655(7) 0.8268(6) 0.1979(3)
C1 C 0.5218(9) 0.6582(9) 0.2070(3)
H1 H 0.5068(9) 0.5889(9) 0.1799(3)
H2 H 0.5483(9) 0.6107(9) 0.2338(3)
C2 C 0.3645(9) 0.6534(10) 0.2167(3)
H3 H 0.3355(9) 0.6999(10) 0.1903(3)
H4 H 0.3758(9) 0.7188(10) 0.2445(3)
C3 C 0.2315(11) 0.4775(11) 0.2245(3)
H5 H 0.2665(11) 0.4283(11) 0.2488(3)
H6 H 0.2142(11) 0.4151(11) 0.1956(3)
C4 C 0.0698(12) 0.4669(16) 0.2392(4)
H7 H -0.0130(12) 0.3530(16) 0.2439(4)
H8 H 0.0340(12) 0.5138(16) 0.2150(4)
H9 H 0.0862(12) 0.5271(16) 0.2681(4)
C5 C 0.6967(10) 0.9356(9) 0.2390(3)
H10 H 0.6016(10) 0.9505(9) 0.2427(3)
H11 H 0.7907(10) 1.0432(9) 0.2315(3)
C6 C 0.7299(11) 0.8831(10) 0.2856(3)
H12 H 0.6345(11) 0.7788(10) 0.2948(3)
H13 H 0.8239(11) 0.8660(10) 0.2827(3)
C7 C 0.7638(12) 1.0056(12) 0.3214(3)
H14 H 0.6722(12) 1.0270(12) 0.3225(3)
H15 H 0.8620(12) 1.1080(12) 0.3124(3)
C8 C 0.7890(17) 0.9599(16) 0.3686(4)
H16 H 0.8108(17) 1.0476(16) 0.3903(4)
H17 H 0.8815(17) 0.9414(16) 0.3682(4)
H18 H 0.6913(17) 0.8604(16) 0.3784(4)
C9 C 0.8119(9) 0.8020(9) 0.1897(3)
H19 H 0.8295(9) 0.7541(9) 0.2180(3)
H20 H 0.7847(9) 0.7227(9) 0.1643(3)
C10 C 0.9700(10) 0.9554(10) 0.1776(4)
H21 H 1.0015(10) 1.0354(10) 0.2030(4)
H22 H 0.9558(10) 1.0045(10) 0.1491(4)
C11 C 1.1032(10) 0.9105(12) 0.1702(4)
H23 H 1.1213(10) 0.8671(12) 0.1993(4)
H24 H 1.0680(10) 0.8253(12) 0.1463(4)
C12 C 1.2606(12) 1.0597(14) 0.1552(4)
H25 H 1.3445(12) 1.0301(14) 0.1506(4)
H26 H 1.2958(12) 1.1434(14) 0.1792(4)
H27 H 1.2427(12) 1.1017(14) 0.1262(4)
C13 C 0.6369(10) 0.9051(9) 0.1563(3)
H28 H 0.5434(10) 0.9200(9) 0.1634(3)
H29 H 0.7329(10) 1.0148(9) 0.1528(3)
C14 C 0.6050(11) 0.8218(10) 0.1099(3)
H30 H 0.7021(11) 0.8165(10) 0.1004(3)
H31 H 0.5137(11) 0.7092(10) 0.1129(3)
C15 C 0.5651(13) 0.9077(11) 0.0731(3)
H32 H 0.6524(13) 1.0227(11) 0.0720(3)
H33 H 0.4632(13) 0.9053(11) 0.0816(3)
C16 C 0.5458(16) 0.8350(16) 0.0258(4)
H34 H 0.5200(16) 0.8963(16) 0.0036(4)
H35 H 0.4578(16) 0.7218(16) 0.0263(4)
H36 H 0.6471(16) 0.8393(16) 0.0168(4)
C17 C 0.7938(11) 0.3656(9) 0.0678(3)
C18 C 0.9304(10) 0.3547(10) 0.0551(3)
C19 C 0.9100(9) 0.3151(9) 0.0077(3)
C20 C 0.7643(11) 0.3041(10) -0.0066(4)
C21 C 0.6945(11) 0.3339(11) 0.0310(4)
C22 C 0.7586(17) 0.4005(14) 0.1133(5)
C23 C 1.0546(17) 0.3676(19) 0.0886(6)
C24 C 1.0254(17) 0.2971(16) -0.0221(5)
C25 C 0.6949(18) 0.2680(13) -0.0522(4)
C26 C 0.5433(14) 0.3272(19) 0.0279(7)
F1 F 0.6615(26) 0.4804(20) 0.1073(6)
F2 F 0.8786(12) 0.5154(9) 0.1379(3)
F3 F 0.6683(13) 0.2832(10) 0.1402(3)
F4 F 1.1128(21) 0.2746(24) 0.0777(7)
F5 F 1.1637(13) 0.5090(14) 0.0959(5)
F6 F 0.9836(21) 0.3006(12) 0.1304(5)
F7 F 1.0298(16) 0.3606(13) -0.0653(4)
F8 F 1.0098(21) 0.1656(14) -0.0273(7)
F9 F 1.1828(11) 0.4079(21) -0.0093(10)
F10 F 0.5259(14) 0.1738(22) -0.0509(5)
F11 F 0.7166(14) 0.3822(10) -0.0798(3)
F12 F 0.6948(13) 0.1558(9) -0.0788(3)
F13 F 0.4382(22) 0.1988(27) 0.0006(8)
F14 F 0.5222(11) 0.4304(14) 0.0098(5)
F15 F 0.4332(12) 0.2584(16) 0.0585(5)
loop_
_geom_bond_atom_site_label_1
_geom_bond_atom_site_label_2
_geom_bond_site_symmetry_1
_geom_bond_site_symmetry_2
N1 C1 1_555 1_555
C1 H1 1_555 1_555
H2 C1 1_555 1_555
C2 C1 1_555 1_555
H3 C2 1_555 1_555
H4 C2 1_555 1_555
C3 C2 1_555 1_555
H5 C3 1_555 1_555
H6 C3 1_555 1_555
C4 C3 1_555 1_555
H7 C4 1_555 1_555
H8 C4 1_555 1_555
H9 C4 1_555 1_555
C5 N1 1_555 1_555
H10 C5 1_555 1_555
H11 C5 1_555 1_555
C6 C5 1_555 1_555
H12 C6 1_555 1_555
H13 C6 1_555 1_555
C7 C6 1_555 1_555
H14 C7 1_555 1_555
H15 C7 1_555 1_555
C8 C7 1_555 1_555
H16 C8 1_555 1_555
H17 C8 1_555 1_555
H18 C8 1_555 1_555
C9 N1 1_555 1_555
H19 C9 1_555 1_555
H20 C9 1_555 1_555
C10 C9 1_555 1_555
H21 C10 1_555 1_555
H22 C10 1_555 1_555
C11 C10 1_555 1_555
H23 C11 1_555 1_555
H24 C11 1_555 1_555
C12 C11 1_555 1_555
H25 C12 1_555 1_555
H26 C12 1_555 1_555
H27 C12 1_555 1_555
C13 N1 1_555 1_555
H28 C13 1_555 1_555
H29 C13 1_555 1_555
C14 C13 1_555 1_555
H30 C14 1_555 1_555
H31 C14 1_555 1_555
C15 C14 1_555 1_555
H32 C15 1_555 1_555
H33 C15 1_555 1_555
C16 C15 1_555 1_555
H34 C16 1_555 1_555
H35 C16 1_555 1_555
H36 C16 1_555 1_555
C17 C18 1_555 1_555
C18 C19 1_555 1_555
C19 C20 1_555 1_555
C20 C21 1_555 1_555
C21 C17 1_555 1_555
C22 C17 1_555 1_555
C23 C18 1_555 1_555
C24 C19 1_555 1_555
C25 C20 1_555 1_555
C26 C21 1_555 1_555
F1 C22 1_555 1_555
F2 C22 1_555 1_555
F3 C22 1_555 1_555
F4 C23 1_555 1_555
F5 C23 1_555 1_555
F6 C23 1_555 1_555
F7 C24 1_555 1_555
F8 C24 1_555 1_555
F9 C24 1_555 1_555
F10 C25 1_555 1_555
F11 C25 1_555 1_555
F12 C25 1_555 1_555
F13 C26 1_555 1_555
F14 C26 1_555 1_555
F15 C26 1_555 1_555

#END
