
#######################################################################
#
#                 Cambridge Crystallographic Data Centre
#                                CCDC 
#
#######################################################################
#
# If this CIF has been generated from an entry in the Cambridge 
# Structural Database, then it will include bibliographic, chemical, 
# crystal, experimental, refinement or atomic coordinate data resulting 
# from the CCDC's data processing and validation procedures.
#
#######################################################################

data_TIWREY
_chemical_formula_moiety         'C14 H12 N4 O4 S1'
_chemical_name_systematic        
1-((4-Methylphenyl)sulfonyl)-6-nitro-1H-benzimidazol-2-amine
_symmetry_cell_setting           monoclinic
_symmetry_space_group_name_H-M   'C 2/c'
_symmetry_Int_Tables_number      15
_space_group_name_Hall           '-C 2yn'
loop_
_symmetry_equiv_pos_site_id
_symmetry_equiv_pos_as_xyz
1 x,y,z
2 -x,y,1/2-z
3 1/2+x,1/2+y,z
4 1/2-x,1/2+y,1/2-z
5 -x,-y,-z
6 x,-y,1/2+z
7 1/2-x,1/2-y,-z
8 1/2+x,1/2-y,1/2+z
_cell_length_a                   26.815(7)
_cell_length_b                   6.466(2)
_cell_length_c                   17.138(4)
_cell_angle_alpha                90
_cell_angle_beta                 102.188(12)
_cell_angle_gamma                90
_cell_volume                     2904.51
_exptl_crystal_colour            colorless
_exptl_crystal_description       prism
_cell_formula_units_Z            8
loop_
_atom_site_label
_atom_site_type_symbol
_atom_site_fract_x
_atom_site_fract_y
_atom_site_fract_z
C1 C 0.6151(2) 0.9706(11) 0.1608(4)
C2 C 0.6131(2) 1.1714(12) 0.1836(4)
H1 H 0.6434 1.2418 0.2084
C3 C 0.5667(3) 1.2720(12) 0.1704(4)
H2 H 0.5653 1.4126 0.1860
C4 C 0.5221(3) 1.1715(14) 0.1349(4)
C5 C 0.4716(3) 1.2855(14) 0.1212(5)
H3 H 0.4441 1.1923 0.0958
H4 H 0.4729 1.4049 0.0864
H5 H 0.4652 1.3330 0.1725
C6 C 0.5247(3) 0.9675(14) 0.1117(4)
H6 H 0.4945 0.8970 0.0866
C7 C 0.5709(3) 0.8663(12) 0.1250(4)
H7 H 0.5725 0.7257 0.1097
C8 C 0.7146(2) 1.0355(11) 0.0614(4)
C9 C 0.6902(2) 0.8360(11) -0.0412(3)
C10 C 0.6811(2) 0.7487(11) -0.1168(4)
H8 H 0.6915 0.8168 -0.1597
C11 C 0.6563(2) 0.5600(11) -0.1280(4)
H9 H 0.6495 0.4972 -0.1793
C12 C 0.6416(2) 0.4632(11) -0.0652(4)
C13 C 0.6505(2) 0.5402(10) 0.0124(4)
H10 H 0.6408 0.4688 0.0554
C14 C 0.6749(2) 0.7318(11) 0.0212(3)
N1 N 0.69232(18) 0.8601(9) 0.0892(3)
N2 N 0.73253(19) 1.1953(9) 0.1070(3)
H11 H 0.7454 1.3022 0.0863
H12 H 0.7316 1.1947 0.1580
N3 N 0.71435(19) 1.0222(8) -0.0161(3)
N4 N 0.6146(2) 0.2671(9) -0.0795(3)
O1 O 0.71058(16) 0.9511(7) 0.2327(2)
O2 O 0.66584(16) 0.6236(7) 0.1864(2)
O3 O 0.6068(2) 0.1930(8) -0.1466(3)
O4 O 0.60007(17) 0.1840(8) -0.0236(3)
S1 S 0.67350(6) 0.8397(3) 0.17600(9)
loop_
_geom_bond_atom_site_label_1
_geom_bond_atom_site_label_2
_geom_bond_site_symmetry_1
_geom_bond_site_symmetry_2
C1 C2 1_555 1_555
C2 H1 1_555 1_555
C3 C2 1_555 1_555
H2 C3 1_555 1_555
C4 C3 1_555 1_555
C5 C4 1_555 1_555
H3 C5 1_555 1_555
H4 C5 1_555 1_555
H5 C5 1_555 1_555
C6 C4 1_555 1_555
H6 C6 1_555 1_555
C7 C1 1_555 1_555
H7 C7 1_555 1_555
C8 N1 1_555 1_555
C9 C10 1_555 1_555
C10 H8 1_555 1_555
C11 C10 1_555 1_555
H9 C11 1_555 1_555
C12 C11 1_555 1_555
C13 C12 1_555 1_555
H10 C13 1_555 1_555
C14 C9 1_555 1_555
N1 C14 1_555 1_555
N2 C8 1_555 1_555
H11 N2 1_555 1_555
H12 N2 1_555 1_555
N3 C8 1_555 1_555
N4 C12 1_555 1_555
O1 S1 1_555 1_555
O2 S1 1_555 1_555
O3 N4 1_555 1_555
O4 N4 1_555 1_555
S1 C1 1_555 1_555
C6 C7 1_555 1_555
C9 N3 1_555 1_555
C13 C14 1_555 1_555
N1 S1 1_555 1_555

#END
