
#######################################################################
#
#                 Cambridge Crystallographic Data Centre
#                                CCDC 
#
#######################################################################
#
# If this CIF has been generated from an entry in the Cambridge 
# Structural Database, then it will include bibliographic, chemical, 
# crystal, experimental, refinement or atomic coordinate data resulting 
# from the CCDC's data processing and validation procedures.
#
#######################################################################

data_TIWZEG
_chemical_formula_moiety         'C13 H10 Cl1 N3 O1,0.25(C7 H8)'
_chemical_name_systematic        
'2-Amino-1-(4-chlorophenyl)-1H-benzimidazol-6-ol toluene solvate'
_symmetry_cell_setting           orthorhombic
_symmetry_space_group_name_H-M   'P b c a'
_symmetry_Int_Tables_number      61
_space_group_name_Hall           '-P 2ac 2ab'
loop_
_symmetry_equiv_pos_site_id
_symmetry_equiv_pos_as_xyz
1 x,y,z
2 1/2-x,-y,1/2+z
3 1/2+x,1/2-y,-z
4 -x,1/2+y,1/2-z
5 -x,-y,-z
6 1/2+x,y,1/2-z
7 1/2-x,1/2+y,z
8 x,1/2-y,1/2+z
_cell_length_a                   14.849(3)
_cell_length_b                   12.950(3)
_cell_length_c                   30.051(5)
_cell_angle_alpha                90
_cell_angle_beta                 90
_cell_angle_gamma                90
_cell_volume                     5778.64
_exptl_crystal_colour            colorless
_exptl_crystal_description       'elongated plate'
_cell_formula_units_Z            16
loop_
_atom_site_label
_atom_site_type_symbol
_atom_site_fract_x
_atom_site_fract_y
_atom_site_fract_z
Cl1 Cl 0.77972(8) 0.54226(8) 1.12245(4)
O1 O 0.56520(15) 0.20537(18) 0.90988(8)
H1 H 0.5465 0.1795 0.8867
N1 N 0.89842(17) 0.0583(2) 0.96255(9)
N2 N 0.84400(16) 0.20213(19) 0.99528(8)
N3 N 0.98882(18) 0.1413(2) 1.01678(10)
H2 H 1.0320 0.0975 1.0139
H3 H 0.9937 0.1913 1.0354
C1 C 0.9133(2) 0.1315(2) 0.99201(10)
C2 C 0.8141(2) 0.0822(2) 0.94449(10)
C3 C 0.7639(2) 0.0338(2) 0.91136(11)
H4 H 0.7853 -0.0255 0.8975
C4 C 0.6817(2) 0.0753(2) 0.89943(11)
H5 H 0.6481 0.0439 0.8771
C5 C 0.6484(2) 0.1633(2) 0.92037(10)
C6 C 0.6969(2) 0.2128(2) 0.95320(10)
H6 H 0.6751 0.2716 0.9673
C7 C 0.7790(2) 0.1711(2) 0.96402(10)
C8 C 0.8067(2) 0.3810(2) 1.01106(11)
H7 H 0.8009 0.3924 0.9806
C9 C 0.8326(2) 0.2844(2) 1.02629(10)
C10 C 0.7896(2) 0.4596(3) 1.04019(12)
H8 H 0.7708 0.5238 1.0299
C11 C 0.8006(2) 0.4423(3) 1.08508(12)
C12 C 0.8280(2) 0.3480(3) 1.10097(11)
H9 H 0.8365 0.3380 1.1313
C13 C 0.8429(2) 0.2680(2) 1.07129(10)
H10 H 0.8597 0.2032 1.0817
Cl2 Cl 1.01155(9) 0.40457(10) 0.95230(4)
O2 O 0.99767(18) 0.19305(16) 0.67333(7)
H11 H 1.0085 0.2488 0.6851
N4 N 0.9842(2) -0.1076(2) 0.80329(9)
N5 N 0.99284(18) 0.05679(18) 0.82576(8)
N6 N 0.9881(2) -0.0740(2) 0.88087(9)
H12 H 0.9851 -0.1384 0.8878
H13 H 0.9910 -0.0280 0.9015
C14 C 0.9883(2) -0.0452(2) 0.83778(11)
C15 C 0.9912(2) 0.0596(2) 0.77924(10)
C16 C 0.9953(2) 0.1410(2) 0.75009(11)
H14 H 0.9991 0.2089 0.7601
C17 C 0.9934(2) 0.1176(2) 0.70533(10)
C18 C 0.9863(2) 0.0161(2) 0.69081(11)
H15 H 0.9846 0.0022 0.6605
C19 C 0.9817(3) -0.0645(2) 0.72090(11)
H16 H 0.9760 -0.1322 0.7110
C20 C 0.9855(2) -0.0432(2) 0.76579(10)
C21 C 0.9984(2) 0.1425(2) 0.85556(10)
C22 C 1.0719(2) 0.1528(3) 0.88312(12)
H17 H 1.1187 0.1052 0.8817
C23 C 1.0759(3) 0.2343(3) 0.91295(13)
H18 H 1.1253 0.2417 0.9317
C24 C 1.0071(3) 0.3032(3) 0.91459(12)
C25 C 0.9336(3) 0.2938(3) 0.88706(13)
H19 H 0.8871 0.3418 0.8885
C26 C 0.9294(2) 0.2129(2) 0.85737(12)
H20 H 0.8799 0.2059 0.8386
C27 C 0.7621(12) -0.3723(14) 0.7222(5)
H21 H 0.7799 -0.4268 0.7419
H22 H 0.8084 -0.3613 0.7004
H23 H 0.7071 -0.3911 0.7075
C28 C 0.7483(5) -0.2789(8) 0.7472(2)
C29 C 0.7181(6) -0.1898(10) 0.7263(2)
H24 H 0.6974 -0.1927 0.6971
C30 C 0.7187(6) -0.0962(8) 0.7489(4)
H25 H 0.6985 -0.0365 0.7349
C31 C 0.7496(6) -0.0918(7) 0.7925(4)
H26 H 0.7500 -0.0292 0.8077
C32 C 0.7798(5) -0.1810(9) 0.8135(2)
H27 H 0.8005 -0.1780 0.8427
C33 C 0.7792(4) -0.2745(7) 0.7909(2)
H28 H 0.7994 -0.3342 0.8049
loop_
_geom_bond_atom_site_label_1
_geom_bond_atom_site_label_2
_geom_bond_site_symmetry_1
_geom_bond_site_symmetry_2
Cl1 C11 1_555 1_555
O1 H1 1_555 1_555
N1 C1 1_555 1_555
N2 C1 1_555 1_555
N3 H2 1_555 1_555
H3 N3 1_555 1_555
C1 N3 1_555 1_555
C2 N1 1_555 1_555
C3 C2 1_555 1_555
H4 C3 1_555 1_555
C4 C3 1_555 1_555
H5 C4 1_555 1_555
C5 O1 1_555 1_555
C6 C5 1_555 1_555
H6 C6 1_555 1_555
C7 N2 1_555 1_555
C8 H7 1_555 1_555
C9 N2 1_555 1_555
C10 C8 1_555 1_555
H8 C10 1_555 1_555
C11 C10 1_555 1_555
C12 C11 1_555 1_555
H9 C12 1_555 1_555
C13 C9 1_555 1_555
H10 C13 1_555 1_555
Cl2 C24 1_555 1_555
O2 H11 1_555 1_555
N4 C14 1_555 1_555
N5 C14 1_555 1_555
N6 H12 1_555 1_555
H13 N6 1_555 1_555
C14 N6 1_555 1_555
C15 N5 1_555 1_555
C16 C15 1_555 1_555
H14 C16 1_555 1_555
C17 O2 1_555 1_555
C18 C17 1_555 1_555
H15 C18 1_555 1_555
C19 C18 1_555 1_555
H16 C19 1_555 1_555
C20 N4 1_555 1_555
C21 N5 1_555 1_555
C22 C21 1_555 1_555
H17 C22 1_555 1_555
C23 C22 1_555 1_555
H18 C23 1_555 1_555
C24 C23 1_555 1_555
C25 C24 1_555 1_555
H19 C25 1_555 1_555
C26 C21 1_555 1_555
H20 C26 1_555 1_555
C27 H21 1_555 1_555
H22 C27 1_555 1_555
H23 C27 1_555 1_555
C28 C27 1_555 1_555
C29 C28 1_555 1_555
H24 C29 1_555 1_555
C30 C29 1_555 1_555
H25 C30 1_555 1_555
C31 C30 1_555 1_555
H26 C31 1_555 1_555
C32 C31 1_555 1_555
H27 C32 1_555 1_555
C33 C28 1_555 1_555
H28 C33 1_555 1_555
C2 C7 1_555 1_555
C4 C5 1_555 1_555
C6 C7 1_555 1_555
C8 C9 1_555 1_555
C12 C13 1_555 1_555
C15 C20 1_555 1_555
C16 C17 1_555 1_555
C19 C20 1_555 1_555
C25 C26 1_555 1_555
C32 C33 1_555 1_555

#END
