
#######################################################################
#
#                 Cambridge Crystallographic Data Centre
#                                CCDC 
#
#######################################################################
#
# If this CIF has been generated from an entry in the Cambridge 
# Structural Database, then it will include bibliographic, chemical, 
# crystal, experimental, refinement or atomic coordinate data resulting 
# from the CCDC's data processing and validation procedures.
#
#######################################################################

data_TIXHIS
_chemical_formula_moiety         'C31 H27 N1 O2 S1'
_chemical_name_systematic        
4-(2,2-Diphenylvinyl)-1-methyl-2-(p-toluenesulfonyl)-1,2-dihydroisoquinoline
_symmetry_cell_setting           monoclinic
_symmetry_space_group_name_H-M   'P 21/n'
_symmetry_Int_Tables_number      14
_space_group_name_Hall           '-P 2yn'
loop_
_symmetry_equiv_pos_site_id
_symmetry_equiv_pos_as_xyz
1 x,y,z
2 1/2-x,1/2+y,1/2-z
3 -x,-y,-z
4 1/2+x,1/2-y,1/2+z
_cell_length_a                   11.852(6)
_cell_length_b                   10.780(5)
_cell_length_c                   19.613(9)
_cell_angle_alpha                90
_cell_angle_beta                 93.954(7)
_cell_angle_gamma                90
_cell_volume                     2499.88
_cell_formula_units_Z            4
loop_
_atom_site_label
_atom_site_type_symbol
_atom_site_fract_x
_atom_site_fract_y
_atom_site_fract_z
S1 S 0.77413(6) 0.08748(6) 0.21914(3)
O1 O 0.80857(16) 0.0210(2) 0.27938(9)
O2 O 0.81098(15) 0.21198(17) 0.21016(10)
N1 N 0.63581(16) 0.09230(18) 0.21505(10)
C1 C 0.8975(3) -0.2081(3) -0.02525(17)
H1 H 0.9077 -0.1524 -0.0625
H2 H 0.8372 -0.2649 -0.0378
H3 H 0.9661 -0.2535 -0.0147
C2 C 0.8682(2) -0.1349(3) 0.03648(15)
C3 C 0.8588(2) -0.0091(3) 0.03382(14)
H4 H 0.8719 0.0317 -0.0067
C4 C 0.8306(2) 0.0593(2) 0.08906(13)
H5 H 0.8240 0.1451 0.0857
C5 C 0.8121(2) 0.0008(2) 0.14899(13)
C6 C 0.8216(2) -0.1264(3) 0.15321(15)
H6 H 0.8098 -0.1672 0.1939
C7 C 0.8487(2) -0.1922(3) 0.09672(17)
H7 H 0.8539 -0.2782 0.0995
C8 C 0.5751(2) -0.0242(2) 0.22750(12)
H8 H 0.6306 -0.0870 0.2435
C9 C 0.4942(3) -0.0032(3) 0.28323(14)
H9 H 0.5357 0.0252 0.3240
H10 H 0.4566 -0.0797 0.2926
H11 H 0.4390 0.0580 0.2683
C10 C 0.51456(19) -0.0699(2) 0.16259(12)
C11 C 0.5005(2) -0.1948(2) 0.14998(14)
H12 H 0.5340 -0.2523 0.1804
C12 C 0.4377(2) -0.2352(2) 0.09312(15)
H13 H 0.4277 -0.3197 0.0854
C13 C 0.3894(2) -0.1506(3) 0.04727(14)
H14 H 0.3462 -0.1780 0.0088
C14 C 0.4050(2) -0.0254(2) 0.05837(13)
H15 H 0.3727 0.0313 0.0270
C15 C 0.46832(19) 0.0171(2) 0.11581(12)
C16 C 0.4935(2) 0.1493(2) 0.12748(12)
C17 C 0.5792(2) 0.1804(2) 0.17197(12)
H16 H 0.6023 0.2628 0.1746
C18 C 0.4305(2) 0.2444(2) 0.08698(12)
H17 H 0.4270 0.2344 0.0398
C19 C 0.37782(19) 0.3431(2) 0.11021(11)
C20 C 0.3190(2) 0.4323(2) 0.06276(12)
C21 C 0.3480(3) 0.4477(3) -0.00348(14)
H18 H 0.4110 0.4067 -0.0181
C22 C 0.2847(3) 0.5236(3) -0.04877(15)
H19 H 0.3057 0.5328 -0.0933
C23 C 0.1918(3) 0.5848(3) -0.02841(19)
H20 H 0.1479 0.6332 -0.0592
C24 C 0.1647(3) 0.5736(3) 0.03746(19)
H21 H 0.1032 0.6172 0.0522
C25 C 0.2265(2) 0.4993(2) 0.08224(15)
H22 H 0.2060 0.4933 0.1271
C26 C 0.3666(2) 0.3637(2) 0.18468(12)
C27 C 0.4090(2) 0.4682(3) 0.21709(14)
H23 H 0.4486 0.5259 0.1928
C28 C 0.3935(3) 0.4886(4) 0.28510(19)
H24 H 0.4230 0.5593 0.3068
C29 C 0.3343(4) 0.4038(5) 0.32050(19)
H25 H 0.3228 0.4177 0.3663
C30 C 0.2921(3) 0.2991(4) 0.28906(19)
H26 H 0.2527 0.2414 0.3135
C31 C 0.3078(2) 0.2790(3) 0.22131(15)
H27 H 0.2787 0.2078 0.1999
loop_
_geom_bond_atom_site_label_1
_geom_bond_atom_site_label_2
_geom_bond_site_symmetry_1
_geom_bond_site_symmetry_2
S1 O1 1_555 1_555
O2 S1 1_555 1_555
N1 S1 1_555 1_555
C1 H1 1_555 1_555
H2 C1 1_555 1_555
H3 C1 1_555 1_555
C2 C1 1_555 1_555
C3 C2 1_555 1_555
H4 C3 1_555 1_555
C4 C3 1_555 1_555
H5 C4 1_555 1_555
C5 S1 1_555 1_555
C6 C5 1_555 1_555
H6 C6 1_555 1_555
C7 C2 1_555 1_555
H7 C7 1_555 1_555
C8 N1 1_555 1_555
H8 C8 1_555 1_555
C9 C8 1_555 1_555
H9 C9 1_555 1_555
H10 C9 1_555 1_555
H11 C9 1_555 1_555
C10 C8 1_555 1_555
C11 C10 1_555 1_555
H12 C11 1_555 1_555
C12 C11 1_555 1_555
H13 C12 1_555 1_555
C13 C12 1_555 1_555
H14 C13 1_555 1_555
C14 C13 1_555 1_555
H15 C14 1_555 1_555
C15 C10 1_555 1_555
C16 C15 1_555 1_555
C17 N1 1_555 1_555
H16 C17 1_555 1_555
C18 C16 1_555 1_555
H17 C18 1_555 1_555
C19 C18 1_555 1_555
C20 C19 1_555 1_555
C21 C20 1_555 1_555
H18 C21 1_555 1_555
C22 C21 1_555 1_555
H19 C22 1_555 1_555
C23 C22 1_555 1_555
H20 C23 1_555 1_555
C24 C23 1_555 1_555
H21 C24 1_555 1_555
C25 C20 1_555 1_555
H22 C25 1_555 1_555
C26 C19 1_555 1_555
C27 C26 1_555 1_555
H23 C27 1_555 1_555
C28 C27 1_555 1_555
H24 C28 1_555 1_555
C29 C28 1_555 1_555
H25 C29 1_555 1_555
C30 C29 1_555 1_555
H26 C30 1_555 1_555
C31 C26 1_555 1_555
H27 C31 1_555 1_555
C4 C5 1_555 1_555
C6 C7 1_555 1_555
C14 C15 1_555 1_555
C16 C17 1_555 1_555
C24 C25 1_555 1_555
C30 C31 1_555 1_555

#END
