
#######################################################################
#
#                 Cambridge Crystallographic Data Centre
#                                CCDC 
#
#######################################################################
#
# If this CIF has been generated from an entry in the Cambridge 
# Structural Database, then it will include bibliographic, chemical, 
# crystal, experimental, refinement or atomic coordinate data resulting 
# from the CCDC's data processing and validation procedures.
#
#######################################################################

data_TIYFAK
_chemical_formula_moiety         'C2 H2 Cl2 N4 O4'
_chemical_name_systematic        N',2-Dichloro-2,2-dinitroethanimidamide
_symmetry_cell_setting           orthorhombic
_symmetry_space_group_name_H-M   'P b c n'
_symmetry_Int_Tables_number      60
_space_group_name_Hall           '-P 2n 2ab'
loop_
_symmetry_equiv_pos_site_id
_symmetry_equiv_pos_as_xyz
1 x,y,z
2 1/2-x,1/2-y,1/2+z
3 -x,y,1/2-z
4 1/2+x,1/2-y,-z
5 -x,-y,-z
6 1/2+x,1/2+y,1/2-z
7 x,-y,1/2+z
8 1/2-x,1/2+y,z
_cell_length_a                   9.7378(12)
_cell_length_b                   10.5173(13)
_cell_length_c                   14.3679(17)
_cell_angle_alpha                90
_cell_angle_beta                 90
_cell_angle_gamma                90
_cell_volume                     1471.49
_exptl_crystal_colour            colorless
_exptl_crystal_description       needle
_cell_formula_units_Z            8
loop_
_atom_site_label
_atom_site_type_symbol
_atom_site_fract_x
_atom_site_fract_y
_atom_site_fract_z
Cl1 Cl 0.12794(7) 0.47627(6) 0.15889(4)
N1 N 0.2243(2) 0.4771(2) 0.25970(13)
C1 C 0.2472(3) 0.3639(2) 0.29002(16)
N2 N 0.2043(2) 0.2523(2) 0.25691(14)
H1 H 0.1521 0.2496 0.2070
H2 H 0.2282 0.1813 0.2850
C2 C 0.3331(3) 0.3600(2) 0.37818(17)
Cl2 Cl 0.45794(8) 0.24391(8) 0.37650(5)
N3 N 0.4013(2) 0.4916(2) 0.39396(14)
O1 O 0.3419(2) 0.56430(19) 0.44578(13)
O2 O 0.5070(2) 0.5116(2) 0.35188(14)
N4 N 0.2405(2) 0.34257(19) 0.46512(14)
O3 O 0.2951(2) 0.30221(18) 0.53510(12)
O4 O 0.1215(2) 0.37369(18) 0.45542(12)
loop_
_geom_bond_atom_site_label_1
_geom_bond_atom_site_label_2
_geom_bond_site_symmetry_1
_geom_bond_site_symmetry_2
Cl1 N1 1_555 1_555
N1 C1 1_555 1_555
C1 N2 1_555 1_555
N2 H1 1_555 1_555
H2 N2 1_555 1_555
C2 C1 1_555 1_555
Cl2 C2 1_555 1_555
N3 C2 1_555 1_555
O1 N3 1_555 1_555
O2 N3 1_555 1_555
N4 C2 1_555 1_555
O3 N4 1_555 1_555
O4 N4 1_555 1_555

#END
