
#######################################################################
#
#                 Cambridge Crystallographic Data Centre
#                                CCDC 
#
#######################################################################
#
# If this CIF has been generated from an entry in the Cambridge 
# Structural Database, then it will include bibliographic, chemical, 
# crystal, experimental, refinement or atomic coordinate data resulting 
# from the CCDC's data processing and validation procedures.
#
#######################################################################

data_TIYREA
_chemical_formula_moiety         'C9 H14 N2 O2'
_chemical_name_systematic        
(1-Isopropyl-3-methyl-1H-imidazol-3-ium-2-yl)acetate
_symmetry_cell_setting           monoclinic
_symmetry_space_group_name_H-M   'P 21/n'
_symmetry_Int_Tables_number      14
_space_group_name_Hall           '-P 2yn'
loop_
_symmetry_equiv_pos_site_id
_symmetry_equiv_pos_as_xyz
1 x,y,z
2 1/2-x,1/2+y,1/2-z
3 -x,-y,-z
4 1/2+x,1/2-y,1/2+z
_cell_length_a                   8.6696(6)
_cell_length_b                   12.5616(8)
_cell_length_c                   9.3007(6)
_cell_angle_alpha                90
_cell_angle_beta                 110.499(3)
_cell_angle_gamma                90
_cell_volume                     948.746
_exptl_crystal_colour            colorless
_exptl_crystal_description       block
_cell_formula_units_Z            4
loop_
_atom_site_label
_atom_site_type_symbol
_atom_site_fract_x
_atom_site_fract_y
_atom_site_fract_z
N1 N 0.10671(18) 0.15730(13) 0.37803(16)
O1 O -0.23471(18) 0.30910(12) 0.31131(15)
N2 N -0.12247(18) 0.07206(12) 0.32696(18)
O2 O -0.2071(2) 0.37236(13) 0.54301(17)
C1 C -0.0275(2) 0.14669(15) 0.4172(2)
C2 C -0.1816(2) 0.30683(15) 0.4539(2)
C3 C -0.0704(2) 0.21130(16) 0.5308(2)
H1 H 0.0298 0.2374 0.6080
H2 H -0.1271 0.1669 0.5818
C4 C 0.0933(2) 0.08816(15) 0.2582(2)
H3 H 0.1688 0.0802 0.2084
C5 C 0.2402(2) 0.23689(17) 0.4438(2)
H4 H 0.2525 0.2490 0.5514
C6 C -0.0489(2) 0.03485(16) 0.2272(2)
H5 H -0.0901 -0.0173 0.1526
C7 C -0.2864(2) 0.04017(18) 0.3232(3)
H6 H -0.3114 0.0763 0.4033
H7 H -0.2884 -0.0353 0.3384
H8 H -0.3668 0.0586 0.2256
C8 C 0.4018(2) 0.1945(2) 0.4387(3)
H9 H 0.4283 0.1288 0.4945
H10 H 0.4876 0.2455 0.4844
H11 H 0.3920 0.1825 0.3339
C9 C 0.1927(3) 0.34115(18) 0.3583(3)
H12 H 0.0903 0.3657 0.3644
H13 H 0.1807 0.3308 0.2526
H14 H 0.2769 0.3931 0.4035
loop_
_geom_bond_atom_site_label_1
_geom_bond_atom_site_label_2
_geom_bond_site_symmetry_1
_geom_bond_site_symmetry_2
N1 C1 1_555 1_555
O1 C2 1_555 1_555
N2 C1 1_555 1_555
O2 C2 1_555 1_555
C1 C3 1_555 1_555
C2 C3 1_555 1_555
C3 H1 1_555 1_555
H2 C3 1_555 1_555
C4 N1 1_555 1_555
H3 C4 1_555 1_555
C5 N1 1_555 1_555
H4 C5 1_555 1_555
C6 N2 1_555 1_555
H5 C6 1_555 1_555
C7 N2 1_555 1_555
H6 C7 1_555 1_555
H7 C7 1_555 1_555
H8 C7 1_555 1_555
C8 C5 1_555 1_555
H9 C8 1_555 1_555
H10 C8 1_555 1_555
H11 C8 1_555 1_555
C9 C5 1_555 1_555
H12 C9 1_555 1_555
H13 C9 1_555 1_555
H14 C9 1_555 1_555
C4 C6 1_555 1_555

#END
