
#######################################################################
#
#                 Cambridge Crystallographic Data Centre
#                                CCDC 
#
#######################################################################
#
# If this CIF has been generated from an entry in the Cambridge 
# Structural Database, then it will include bibliographic, chemical, 
# crystal, experimental, refinement or atomic coordinate data resulting 
# from the CCDC's data processing and validation procedures.
#
#######################################################################

data_TMCPAM
_chemical_formula_moiety         'C12 H18 N3 O6 P1'
_chemical_name_systematic        
"Thymidine 3',5'-cyclic-N,N-dimethylphosphoramidate"
_symmetry_cell_setting           tetragonal
_symmetry_space_group_name_H-M   'P 41'
_symmetry_Int_Tables_number      76
_space_group_name_Hall           'P 4w'
loop_
_symmetry_equiv_pos_site_id
_symmetry_equiv_pos_as_xyz
1 x,y,z
2 -y,x,1/4+z
3 -x,-y,1/2+z
4 y,-x,3/4+z
_cell_length_a                   10.276(2)
_cell_length_b                   10.276(2)
_cell_length_c                   15.215(4)
_cell_angle_alpha                90
_cell_angle_beta                 90
_cell_angle_gamma                90
_cell_volume                     1606.65
_cell_formula_units_Z            4
loop_
_atom_site_label
_atom_site_type_symbol
_atom_site_fract_x
_atom_site_fract_y
_atom_site_fract_z
P1 P 0.17858 0.31545 0.50000
O1 O 0.07453 0.41234 0.49922
O2 O 0.19079 0.14433 0.75855
O3 O 0.28406 0.34479 0.57676
O4 O 0.12991 0.17317 0.52258
O5 O 0.09814 0.41441 0.82791
O6 O 0.08506 0.35657 1.12428
N1 N 0.25803 0.30422 0.41360
N2 N 0.23683 0.26216 0.88696
N3 N 0.10504 0.38828 0.97670
C1 C 0.28756 0.22088 0.80299
C2 C 0.32687 0.33340 0.73817
C3 C 0.23224 0.31258 0.66396
C4 C 0.21230 0.16993 0.66673
C5 C 0.09590 0.12750 0.61291
C6 C 0.14528 0.35748 0.89181
C7 C 0.13465 0.32013 1.05264
C8 C 0.22360 0.21430 1.04318
C9 C 0.27090 0.18880 0.96257
C10 C 0.25380 0.12790 1.11902
C11 C 0.23030 0.38490 0.33497
C12 C 0.36610 0.21320 0.40560
H1 H 0.36200 0.15700 0.81900
H2 H 0.30600 0.42700 0.76700
H3 H 0.39500 0.33400 0.72030
H4 H 0.12680 0.35500 0.67540
H5 H 0.28900 0.14600 0.63190
H6 H 0.07200 0.05000 0.60600
H7 H 0.02460 0.20460 0.62760
H8 H 0.29100 0.10500 0.95250
H9 H 0.03540 0.47900 0.98330
loop_
_geom_bond_atom_site_label_1
_geom_bond_atom_site_label_2
_geom_bond_site_symmetry_1
_geom_bond_site_symmetry_2
P1 O1 1_555 1_555
O2 C1 1_555 1_555
O3 P1 1_555 1_555
O4 P1 1_555 1_555
O5 C6 1_555 1_555
O6 C7 1_555 1_555
N1 P1 1_555 1_555
N2 C1 1_555 1_555
N3 C6 1_555 1_555
C1 C2 1_555 1_555
C2 C3 1_555 1_555
C3 O3 1_555 1_555
C4 O2 1_555 1_555
C5 O4 1_555 1_555
C6 N2 1_555 1_555
C7 N3 1_555 1_555
C8 C7 1_555 1_555
C9 N2 1_555 1_555
C10 C8 1_555 1_555
C11 N1 1_555 1_555
C12 N1 1_555 1_555
H1 C1 1_555 1_555
H2 C2 1_555 1_555
H3 C2 1_555 1_555
H4 C3 1_555 1_555
H5 C4 1_555 1_555
H6 C5 1_555 1_555
H7 C5 1_555 1_555
H8 C9 1_555 1_555
H9 N3 1_555 1_555
C3 C4 1_555 1_555
C4 C5 1_555 1_555
C8 C9 1_555 1_555

#END
