
#######################################################################
#
#                 Cambridge Crystallographic Data Centre
#                                CCDC 
#
#######################################################################
#
# If this CIF has been generated from an entry in the Cambridge 
# Structural Database, then it will include bibliographic, chemical, 
# crystal, experimental, refinement or atomic coordinate data resulting 
# from the CCDC's data processing and validation procedures.
#
#######################################################################

data_TOBHEZ
_chemical_formula_moiety         'C18 H13 N5'
_chemical_name_systematic        
4,4',4''-(1H-Imidazole-2,4,5-triyl)tripyridine
_symmetry_cell_setting           monoclinic
_symmetry_space_group_name_H-M   'P 21/c'
_symmetry_Int_Tables_number      14
_space_group_name_Hall           '-P 2ybc'
loop_
_symmetry_equiv_pos_site_id
_symmetry_equiv_pos_as_xyz
1 x,y,z
2 -x,1/2+y,1/2-z
3 -x,-y,-z
4 x,1/2-y,1/2+z
_cell_length_a                   8.697(4)
_cell_length_b                   18.417(3)
_cell_length_c                   19.169(4)
_cell_angle_alpha                90
_cell_angle_beta                 107.498(13)
_cell_angle_gamma                90
_cell_volume                     2928.28
_exptl_crystal_colour            brown
_exptl_crystal_description       block
_cell_formula_units_Z            8
loop_
_atom_site_label
_atom_site_type_symbol
_atom_site_fract_x
_atom_site_fract_y
_atom_site_fract_z
N1 N 0.8935(2) 0.41636(10) 0.29271(9)
N2 N -0.0661(2) 0.29850(10) -0.15204(9)
N3 N 0.4654(2) 0.74056(8) 0.12367(8)
N4 N 0.39041(16) 0.39521(7) 0.07099(7)
H1 H 0.4112 0.3500 0.0807
N5 N 0.26954(18) 0.49367(7) 0.01421(8)
C1 C 0.4948(2) 0.69044(10) 0.17636(10)
H2 H 0.5310 0.7063 0.2246
C2 C 0.4753(2) 0.61712(9) 0.16403(9)
H3 H 0.4988 0.5849 0.2031
C3 C 0.4200(2) 0.59146(9) 0.09256(9)
C4 C 0.4088(2) 0.71520(10) 0.05526(10)
H4 H 0.3855 0.7487 0.0172
C5 C 0.3828(2) 0.64313(9) 0.03746(10)
H5 H 0.3406 0.6291 -0.0112
C6 C 0.3936(2) 0.51360(9) 0.07496(9)
C7 C 0.4718(2) 0.45295(9) 0.11062(9)
C8 C 0.2715(2) 0.42214(9) 0.01388(9)
C9 C 0.1580(2) 0.37785(10) -0.04208(9)
C10 C 0.1684(2) 0.30334(10) -0.04653(10)
H6 H 0.2511 0.2781 -0.0132
C11 C 0.0541(3) 0.26649(12) -0.10120(11)
H7 H 0.0617 0.2162 -0.1025
C12 C -0.0730(3) 0.37050(12) -0.14768(11)
H8 H -0.1543 0.3946 -0.1828
C13 C 0.0329(2) 0.41140(11) -0.09441(10)
H9 H 0.0204 0.4615 -0.0936
C14 C 0.6150(2) 0.44170(9) 0.17407(9)
C15 C 0.7415(2) 0.49108(11) 0.19354(10)
H10 H 0.7372 0.5336 0.1669
C16 C 0.8735(2) 0.47625(12) 0.25277(11)
H11 H 0.9547 0.5110 0.2657
C17 C 0.7738(3) 0.36862(12) 0.27256(10)
H12 H 0.7848 0.3253 0.2985
C18 C 0.6341(2) 0.37906(10) 0.21575(9)
H13 H 0.5531 0.3442 0.2055
N6 N -0.0259(2) 0.29471(10) 0.13247(9)
N7 N 0.45264(17) 0.39418(7) 0.34565(7)
H14 H 0.4724 0.3493 0.3573
N8 N 0.33209(17) 0.49159(7) 0.28582(7)
N9 N 0.5485(2) 0.73925(8) 0.38723(8)
N10 N 0.9452(2) 0.42959(10) 0.57372(9)
C19 C 0.1327(2) 0.40240(10) 0.16716(10)
H15 H 0.1573 0.4486 0.1542
C20 C 0.0159(2) 0.36153(12) 0.11876(11)
H16 H -0.0373 0.3819 0.0735
C21 C 0.0540(2) 0.26803(11) 0.19787(12)
H17 H 0.0281 0.2214 0.2091
C22 C 0.1729(2) 0.30486(10) 0.25023(10)
H18 H 0.2247 0.2831 0.2949
C23 C 0.2137(2) 0.37431(9) 0.23542(9)
C24 C 0.3308(2) 0.41980(9) 0.28829(9)
C25 C 0.4605(2) 0.51296(9) 0.34351(9)
C26 C 0.5386(2) 0.45297(9) 0.38177(9)
C27 C 0.6771(2) 0.44517(9) 0.44738(9)
C28 C 0.7762(2) 0.38439(10) 0.45867(10)
H19 H 0.7569 0.3476 0.4239
C29 C 0.9039(2) 0.37924(12) 0.52215(11)
H20 H 0.9656 0.3371 0.5292
C30 C 0.8508(2) 0.48811(12) 0.56234(10)
H21 H 0.8763 0.5249 0.5972
C31 C 0.7176(2) 0.49757(10) 0.50205(9)
H22 H 0.6547 0.5391 0.4980
C32 C 0.4934(2) 0.59070(9) 0.35756(9)
C33 C 0.3678(2) 0.63835(9) 0.35418(9)
H23 H 0.2622 0.6215 0.3416
C34 C 0.4003(2) 0.71053(10) 0.36955(10)
H24 H 0.3143 0.7413 0.3676
C35 C 0.6679(2) 0.69319(10) 0.38785(9)
H25 H 0.7718 0.7119 0.3986
C36 C 0.6471(2) 0.62003(9) 0.37363(9)
H26 H 0.7348 0.5906 0.3748
loop_
_geom_bond_atom_site_label_1
_geom_bond_atom_site_label_2
_geom_bond_site_symmetry_1
_geom_bond_site_symmetry_2
N1 C16 1_555 1_555
N2 C11 1_555 1_555
N3 C1 1_555 1_555
N4 H1 1_555 1_555
N5 C6 1_555 1_555
C1 H2 1_555 1_555
C2 C1 1_555 1_555
H3 C2 1_555 1_555
C3 C2 1_555 1_555
C4 N3 1_555 1_555
H4 C4 1_555 1_555
C5 C3 1_555 1_555
H5 C5 1_555 1_555
C6 C3 1_555 1_555
C7 N4 1_555 1_555
C8 N4 1_555 1_555
C9 C8 1_555 1_555
C10 C9 1_555 1_555
H6 C10 1_555 1_555
C11 C10 1_555 1_555
H7 C11 1_555 1_555
C12 N2 1_555 1_555
H8 C12 1_555 1_555
C13 C9 1_555 1_555
H9 C13 1_555 1_555
C14 C7 1_555 1_555
C15 C14 1_555 1_555
H10 C15 1_555 1_555
C16 C15 1_555 1_555
H11 C16 1_555 1_555
C17 N1 1_555 1_555
H12 C17 1_555 1_555
C18 C14 1_555 1_555
H13 C18 1_555 1_555
N6 C20 1_555 1_555
N7 H14 1_555 1_555
N8 C24 1_555 1_555
N9 C34 1_555 1_555
N10 C29 1_555 1_555
C19 H15 1_555 1_555
C20 C19 1_555 1_555
H16 C20 1_555 1_555
C21 N6 1_555 1_555
H17 C21 1_555 1_555
C22 C21 1_555 1_555
H18 C22 1_555 1_555
C23 C19 1_555 1_555
C24 N7 1_555 1_555
C25 N8 1_555 1_555
C26 N7 1_555 1_555
C27 C26 1_555 1_555
C28 C27 1_555 1_555
H19 C28 1_555 1_555
C29 C28 1_555 1_555
H20 C29 1_555 1_555
C30 N10 1_555 1_555
H21 C30 1_555 1_555
C31 C27 1_555 1_555
H22 C31 1_555 1_555
C32 C25 1_555 1_555
C33 C32 1_555 1_555
H23 C33 1_555 1_555
C34 C33 1_555 1_555
H24 C34 1_555 1_555
C35 N9 1_555 1_555
H25 C35 1_555 1_555
C36 C32 1_555 1_555
H26 C36 1_555 1_555
N5 C8 1_555 1_555
C4 C5 1_555 1_555
C6 C7 1_555 1_555
C12 C13 1_555 1_555
C17 C18 1_555 1_555
C22 C23 1_555 1_555
C23 C24 1_555 1_555
C25 C26 1_555 1_555
C30 C31 1_555 1_555
C35 C36 1_555 1_555

#END
