
#######################################################################
#
#                 Cambridge Crystallographic Data Centre
#                                CCDC 
#
#######################################################################
#
# If this CIF has been generated from an entry in the Cambridge 
# Structural Database, then it will include bibliographic, chemical, 
# crystal, experimental, refinement or atomic coordinate data resulting 
# from the CCDC's data processing and validation procedures.
#
#######################################################################

data_TOBKIG
_chemical_formula_moiety         'C24 H24 N2 O5'
_chemical_name_systematic        
"3'-Ethyl 5'-methyl 1-benzyl-4'-methyl-2-oxo-1,2,3',4'-tetrahydrospiro[indole-3,2'-pyrrole]-3',5'-dicarboxylate"
_symmetry_cell_setting           triclinic
_symmetry_space_group_name_H-M   'P -1'
_symmetry_Int_Tables_number      2
_space_group_name_Hall           '-P 1'
loop_
_symmetry_equiv_pos_site_id
_symmetry_equiv_pos_as_xyz
1 x,y,z
2 -x,-y,-z
_cell_length_a                   8.9908(10)
_cell_length_b                   11.1660(13)
_cell_length_c                   11.1692(13)
_cell_angle_alpha                91.413(2)
_cell_angle_beta                 105.887(2)
_cell_angle_gamma                90.992(2)
_cell_volume                     1077.8
_cell_formula_units_Z            2
loop_
_atom_site_label
_atom_site_type_symbol
_atom_site_fract_x
_atom_site_fract_y
_atom_site_fract_z
C1 C 0.55365(19) 0.34214(14) 0.04964(15)
C2 C 0.5960(2) 0.32438(17) -0.05875(17)
H1 H 0.5232 0.3226 -0.1362
C3 C 0.7524(3) 0.30918(19) -0.04744(19)
H2 H 0.7844 0.2963 -0.1190
C4 C 0.8614(2) 0.31258(18) 0.06680(18)
H3 H 0.9650 0.3013 0.0713
C5 C 0.8167(2) 0.33281(16) 0.17537(17)
H4 H 0.8898 0.3368 0.2526
C6 C 0.66196(18) 0.34686(14) 0.16599(14)
C7 C 0.40888(19) 0.37555(14) 0.18672(16)
C8 C 0.58050(18) 0.37656(14) 0.26413(14)
C9 C 0.2635(2) 0.36307(16) -0.03798(18)
H5 H 0.2844 0.4086 -0.1047
H6 H 0.1855 0.4049 -0.0092
C10 C 0.1987(2) 0.24083(16) -0.08981(16)
C11 C 0.1080(2) 0.2294(2) -0.2114(2)
H7 H 0.0916 0.2959 -0.2616
C12 C 0.0411(3) 0.1189(3) -0.2593(2)
H8 H -0.0207 0.1120 -0.3410
C13 C 0.0659(3) 0.0201(2) -0.1864(3)
H9 H 0.0216 -0.0539 -0.2183
C14 C 0.1563(3) 0.0318(2) -0.0666(3)
H10 H 0.1745 -0.0352 -0.0172
C15 C 0.2211(3) 0.14107(19) -0.0177(2)
H11 H 0.2806 0.1475 0.0648
C16 C 0.71011(18) 0.49259(15) 0.42641(15)
C17 C 0.73502(19) 0.36927(15) 0.47874(15)
H12 H 0.8365 0.3420 0.4746
C18 C 0.60901(19) 0.29934(14) 0.38045(15)
H13 H 0.5148 0.3010 0.4083
C19 C 0.7931(2) 0.59985(16) 0.49936(16)
C20 C 0.7956(3) 0.8052(2) 0.5463(3)
H14 H 0.8055 0.7938 0.6330
H15 H 0.7364 0.8751 0.5197
H16 H 0.8965 0.8153 0.5338
C21 C 0.7234(2) 0.35800(18) 0.61135(16)
H17 H 0.7990 0.4105 0.6662
H18 H 0.7421 0.2768 0.6366
H19 H 0.6218 0.3796 0.6150
C22 C 0.6416(2) 0.17007(16) 0.36039(16)
C23 C 0.5376(3) -0.00683(18) 0.2390(2)
H20 H 0.6429 -0.0336 0.2700
H21 H 0.5044 -0.0225 0.1497
C24 C 0.4360(4) -0.0733(2) 0.2988(3)
H22 H 0.4673 -0.0559 0.3868
H23 H 0.4433 -0.1577 0.2837
H24 H 0.3310 -0.0497 0.2648
N1 N 0.40458(16) 0.36071(12) 0.06413(13)
N2 N 0.62720(16) 0.50085(12) 0.31437(13)
O1 O 0.29847(15) 0.38644(13) 0.22790(13)
O2 O 0.7488(2) 0.11700(14) 0.42147(16)
O3 O 0.53229(17) 0.12133(11) 0.26542(14)
O4 O 0.91727(15) 0.59102(14) 0.57267(14)
O5 O 0.71742(17) 0.70084(12) 0.47404(14)
loop_
_geom_bond_atom_site_label_1
_geom_bond_atom_site_label_2
_geom_bond_site_symmetry_1
_geom_bond_site_symmetry_2
C1 C2 1_555 1_555
C2 H1 1_555 1_555
C3 C2 1_555 1_555
H2 C3 1_555 1_555
C4 C3 1_555 1_555
H3 C4 1_555 1_555
C5 C4 1_555 1_555
H4 C5 1_555 1_555
C6 C1 1_555 1_555
C7 C8 1_555 1_555
C8 C6 1_555 1_555
C9 H5 1_555 1_555
H6 C9 1_555 1_555
C10 C9 1_555 1_555
C11 C10 1_555 1_555
H7 C11 1_555 1_555
C12 C11 1_555 1_555
H8 C12 1_555 1_555
C13 C12 1_555 1_555
H9 C13 1_555 1_555
C14 C13 1_555 1_555
H10 C14 1_555 1_555
C15 C10 1_555 1_555
H11 C15 1_555 1_555
C16 C17 1_555 1_555
C17 H12 1_555 1_555
C18 C8 1_555 1_555
H13 C18 1_555 1_555
C19 C16 1_555 1_555
C20 H14 1_555 1_555
H15 C20 1_555 1_555
H16 C20 1_555 1_555
C21 C17 1_555 1_555
H17 C21 1_555 1_555
H18 C21 1_555 1_555
H19 C21 1_555 1_555
C22 C18 1_555 1_555
C23 H20 1_555 1_555
H21 C23 1_555 1_555
C24 C23 1_555 1_555
H22 C24 1_555 1_555
H23 C24 1_555 1_555
H24 C24 1_555 1_555
N1 C1 1_555 1_555
N2 C8 1_555 1_555
O1 C7 1_555 1_555
O2 C22 1_555 1_555
O3 C22 1_555 1_555
O4 C19 1_555 1_555
O5 C19 1_555 1_555
C5 C6 1_555 1_555
C7 N1 1_555 1_555
C9 N1 1_555 1_555
C14 C15 1_555 1_555
C16 N2 1_555 1_555
C17 C18 1_555 1_555
C20 O5 1_555 1_555
C23 O3 1_555 1_555

#END
