
#######################################################################
#
#                 Cambridge Crystallographic Data Centre
#                                CCDC 
#
#######################################################################
#
# If this CIF has been generated from an entry in the Cambridge 
# Structural Database, then it will include bibliographic, chemical, 
# crystal, experimental, refinement or atomic coordinate data resulting 
# from the CCDC's data processing and validation procedures.
#
#######################################################################

data_TOBWUE
_chemical_formula_moiety         'C28 H38 O5'
_chemical_name_systematic        
5-Hydroxy-6,7:22,26-diepoxyergosta-2,24-diene-1,26-dione
_symmetry_cell_setting           orthorhombic
_symmetry_space_group_name_H-M   'P 21 21 21'
_symmetry_Int_Tables_number      19
_space_group_name_Hall           'P 2ac 2ab'
loop_
_symmetry_equiv_pos_site_id
_symmetry_equiv_pos_as_xyz
1 x,y,z
2 1/2-x,-y,1/2+z
3 -x,1/2+y,1/2-z
4 1/2+x,1/2-y,-z
_cell_length_a                   9.1012(3)
_cell_length_b                   12.2728(4)
_cell_length_c                   21.5396(7)
_cell_angle_alpha                90
_cell_angle_beta                 90
_cell_angle_gamma                90
_cell_volume                     2405.91
_exptl_crystal_colour            colorless
_exptl_crystal_description       Irregular
_cell_formula_units_Z            4
loop_
_atom_site_label
_atom_site_type_symbol
_atom_site_fract_x
_atom_site_fract_y
_atom_site_fract_z
O1 O 0.28331(9) 0.29720(6) 1.12497(4)
O2 O 0.66089(9) 0.74247(6) 0.83949(3)
O3 O -0.20626(9) 0.33555(7) 0.99610(4)
O4 O 0.03708(9) 0.19619(6) 1.08682(4)
H1 H 0.122(2) 0.2033(13) 1.0694(7)
O5 O 0.83584(10) 0.83513(7) 0.79297(4)
C1 C -0.18629(12) 0.32931(8) 1.05189(5)
C2 C -0.29088(14) 0.26819(9) 1.09156(6)
H2 H -0.3848(18) 0.2555(13) 1.0739(7)
C3 C -0.25198(14) 0.23014(10) 1.14699(5)
H3 H -0.3223(17) 0.1885(12) 1.1709(6)
C4 C -0.10274(14) 0.24839(10) 1.17423(5)
H4 H -0.1088(16) 0.3021(13) 1.2090(7)
H5 H -0.0681(17) 0.1787(12) 1.1927(7)
C5 C 0.00903(13) 0.28781(9) 1.12625(5)
C6 C 0.15095(13) 0.32070(9) 1.15912(5)
H6 H 0.1539(15) 0.2999(11) 1.2023(6)
C7 C 0.24182(13) 0.40982(9) 1.13503(5)
H7 H 0.3060(16) 0.4465(11) 1.1640(6)
C8 C 0.19621(12) 0.47361(9) 1.07876(5)
H8 H 0.1702(15) 0.5436(12) 1.0950(6)
C9 C 0.06507(12) 0.42544(8) 1.04207(5)
H9 H 0.1037(15) 0.3634(11) 1.0201(6)
C10 C -0.05640(12) 0.38293(8) 1.08586(5)
C11 C 0.02045(13) 0.51118(9) 0.99307(5)
H10 H -0.0078(18) 0.5783(13) 1.0144(7)
H11 H -0.0654(17) 0.4856(12) 0.9688(7)
C12 C 0.14870(12) 0.53694(9) 0.94814(5)
H12 H 0.1165(15) 0.5934(11) 0.9186(6)
H13 H 0.1676(15) 0.4718(12) 0.9241(6)
C13 C 0.28982(12) 0.57216(8) 0.98181(5)
C14 C 0.32286(12) 0.48681(9) 1.03276(5)
H14 H 0.3362(15) 0.4195(11) 1.0105(6)
C15 C 0.47535(13) 0.51684(9) 1.05616(5)
H15 H 0.5251(16) 0.4556(12) 1.0776(6)
H16 H 0.4730(17) 0.5747(13) 1.0856(7)
C16 C 0.55459(13) 0.55220(9) 0.99601(5)
H17 H 0.6082(17) 0.6194(12) 1.0026(7)
H18 H 0.6285(19) 0.4992(13) 0.9821(7)
C17 C 0.43573(12) 0.56460(8) 0.94451(5)
H19 H 0.4315(15) 0.4972(11) 0.9205(6)
C18 C 0.27210(13) 0.68718(9) 1.00858(5)
H20 H 0.1925(18) 0.6923(13) 1.0368(7)
H21 H 0.2488(15) 0.7408(12) 0.9750(6)
H22 H 0.3614(17) 0.7097(12) 1.0318(7)
C19 C -0.11797(13) 0.47592(9) 1.12695(6)
H23 H -0.1510(16) 0.5354(12) 1.1014(7)
H24 H -0.0385(17) 0.5061(12) 1.1553(7)
H25 H -0.1986(18) 0.4500(12) 1.1528(7)
C20 C 0.47179(12) 0.65822(9) 0.89919(5)
H26 H 0.4792(13) 0.7277(10) 0.9227(6)
C21 C 0.35672(14) 0.67474(10) 0.84842(5)
H27 H 0.3291(17) 0.6038(13) 0.8288(7)
H28 H 0.3930(17) 0.7254(12) 0.8163(7)
H29 H 0.2665(18) 0.7075(13) 0.8654(7)
C22 C 0.62467(12) 0.64106(9) 0.87165(5)
H30 H 0.6999(14) 0.6347(9) 0.9046(6)
C23 C 0.64240(13) 0.54562(9) 0.82776(5)
H31 H 0.5657(16) 0.5486(11) 0.7947(6)
H32 H 0.6279(17) 0.4800(12) 0.8513(7)
C24 C 0.79309(13) 0.54761(10) 0.79878(5)
C25 C 0.86519(13) 0.64259(10) 0.79302(5)
C26 C 0.79064(13) 0.74667(10) 0.80884(5)
C27 C 1.01547(14) 0.65555(12) 0.76494(6)
H33 H 1.0107(18) 0.6740(14) 0.7206(8)
H34 H 1.0662(19) 0.7141(14) 0.7855(8)
H35 H 1.072(2) 0.5918(16) 0.7712(8)
C28 C 0.84895(17) 0.43918(11) 0.77707(7)
H36 H 0.937(2) 0.4419(15) 0.7541(8)
H37 H 0.862(2) 0.3906(15) 0.8116(8)
H38 H 0.769(2) 0.4028(17) 0.7485(9)
loop_
_geom_bond_atom_site_label_1
_geom_bond_atom_site_label_2
_geom_bond_site_symmetry_1
_geom_bond_site_symmetry_2
O1 C6 1_555 1_555
O2 C22 1_555 1_555
O3 C1 1_555 1_555
O4 H1 1_555 1_555
O5 C26 1_555 1_555
C1 C2 1_555 1_555
C2 H2 1_555 1_555
C3 C2 1_555 1_555
H3 C3 1_555 1_555
C4 C3 1_555 1_555
H4 C4 1_555 1_555
H5 C4 1_555 1_555
C5 O4 1_555 1_555
C6 C5 1_555 1_555
H6 C6 1_555 1_555
C7 O1 1_555 1_555
H7 C7 1_555 1_555
C8 C7 1_555 1_555
H8 C8 1_555 1_555
C9 C8 1_555 1_555
H9 C9 1_555 1_555
C10 C1 1_555 1_555
C11 C9 1_555 1_555
H10 C11 1_555 1_555
H11 C11 1_555 1_555
C12 C11 1_555 1_555
H12 C12 1_555 1_555
H13 C12 1_555 1_555
C13 C12 1_555 1_555
C14 C8 1_555 1_555
H14 C14 1_555 1_555
C15 C14 1_555 1_555
H15 C15 1_555 1_555
H16 C15 1_555 1_555
C16 C15 1_555 1_555
H17 C16 1_555 1_555
H18 C16 1_555 1_555
C17 C13 1_555 1_555
H19 C17 1_555 1_555
C18 C13 1_555 1_555
H20 C18 1_555 1_555
H21 C18 1_555 1_555
H22 C18 1_555 1_555
C19 C10 1_555 1_555
H23 C19 1_555 1_555
H24 C19 1_555 1_555
H25 C19 1_555 1_555
C20 C17 1_555 1_555
H26 C20 1_555 1_555
C21 C20 1_555 1_555
H27 C21 1_555 1_555
H28 C21 1_555 1_555
H29 C21 1_555 1_555
C22 C20 1_555 1_555
H30 C22 1_555 1_555
C23 C22 1_555 1_555
H31 C23 1_555 1_555
H32 C23 1_555 1_555
C24 C23 1_555 1_555
C25 C24 1_555 1_555
C26 O2 1_555 1_555
C27 C25 1_555 1_555
H33 C27 1_555 1_555
H34 C27 1_555 1_555
H35 C27 1_555 1_555
C28 C24 1_555 1_555
H36 C28 1_555 1_555
H37 C28 1_555 1_555
H38 C28 1_555 1_555
C4 C5 1_555 1_555
C5 C10 1_555 1_555
C6 C7 1_555 1_555
C9 C10 1_555 1_555
C13 C14 1_555 1_555
C16 C17 1_555 1_555
C25 C26 1_555 1_555

#END
