
#######################################################################
#
#                 Cambridge Crystallographic Data Centre
#                                CCDC 
#
#######################################################################
#
# If this CIF has been generated from an entry in the Cambridge 
# Structural Database, then it will include bibliographic, chemical, 
# crystal, experimental, refinement or atomic coordinate data resulting 
# from the CCDC's data processing and validation procedures.
#
#######################################################################

data_TOBXAL
_chemical_formula_moiety         'C28 H38 O6'
_chemical_name_systematic        
4,20-Dihydroxy-5,6:22,26-diepoxyergosta-2,24-diene-1,26-dione
_symmetry_cell_setting           orthorhombic
_symmetry_space_group_name_H-M   'P 21 21 21'
_symmetry_Int_Tables_number      19
_space_group_name_Hall           'P 2ac 2ab'
loop_
_symmetry_equiv_pos_site_id
_symmetry_equiv_pos_as_xyz
1 x,y,z
2 1/2-x,-y,1/2+z
3 -x,1/2+y,1/2-z
4 1/2+x,1/2-y,-z
_cell_length_a                   7.6569(5)
_cell_length_b                   9.9426(7)
_cell_length_c                   33.767(2)
_cell_angle_alpha                90
_cell_angle_beta                 90
_cell_angle_gamma                90
_cell_volume                     2570.66
_exptl_crystal_colour            colorless
_exptl_crystal_description       Rectangular
_cell_formula_units_Z            4
loop_
_atom_site_label
_atom_site_type_symbol
_atom_site_fract_x
_atom_site_fract_y
_atom_site_fract_z
O1 O 0.6058(2) -0.16665(17) 0.17972(5)
O2 O 0.0869(2) 0.04097(18) 0.45699(5)
O3 O 0.0396(2) 0.0237(2) 0.15310(5)
O4 O 0.4694(3) -0.1299(2) 0.10024(6)
H1 H 0.464(5) -0.104(4) 0.0795(12)
O5 O 0.1797(3) -0.13667(18) 0.40293(6)
H2 H 0.118(7) -0.143(5) 0.4166(16)
O6 O 0.0613(3) 0.0540(2) 0.52122(5)
C1 C 0.1974(3) 0.0340(3) 0.15373(7)
C2 C 0.2870(4) 0.1345(3) 0.12833(8)
H3 H 0.226(5) 0.204(4) 0.1239(12)
C3 C 0.4428(4) 0.1093(3) 0.11380(8)
H4 H 0.493(5) 0.151(4) 0.1009(13)
C4 C 0.5330(3) -0.0199(3) 0.12379(7)
H5 H 0.659(3) -0.013(3) 0.1221(8)
C5 C 0.5004(3) -0.0549(2) 0.16670(7)
C6 C 0.6461(3) -0.0334(2) 0.19389(7)
H6 H 0.756(3) 0.011(3) 0.1814(8)
C7 C 0.6168(3) -0.0110(3) 0.23733(7)
H7 H 0.714(4) -0.059(3) 0.2517(10)
H8 H 0.631(5) 0.103(4) 0.2441(11)
C8 C 0.4366(3) -0.0554(2) 0.25129(6)
H9 H 0.438(3) -0.166(3) 0.2499(9)
C9 C 0.2928(3) 0.0014(2) 0.22389(6)
H10 H 0.311(4) 0.101(3) 0.2219(9)
C10 C 0.3084(3) -0.0575(2) 0.18054(6)
C11 C 0.1094(3) -0.0209(3) 0.24195(7)
H11 H 0.083(4) -0.133(3) 0.2427(9)
H12 H 0.022(5) 0.030(4) 0.2288(11)
C12 C 0.0915(3) 0.0265(3) 0.28524(7)
H13 H -0.030(3) 0.009(3) 0.2935(8)
H14 H 0.109(4) 0.129(3) 0.2845(8)
C13 C 0.2304(3) -0.0382(2) 0.31190(7)
C14 C 0.4078(3) -0.0018(2) 0.29324(6)
H15 H 0.412(3) 0.094(3) 0.2908(8)
C15 C 0.5414(3) -0.0393(3) 0.32483(7)
H16 H 0.561(3) -0.141(3) 0.3217(8)
H17 H 0.656(4) 0.009(3) 0.3204(9)
C16 C 0.4520(3) 0.0059(3) 0.36348(7)
H18 H 0.459(4) -0.053(4) 0.3832(11)
H19 H 0.500(4) 0.087(4) 0.3754(11)
C17 C 0.2550(3) 0.0287(2) 0.35338(7)
H20 H 0.236(4) 0.119(3) 0.3489(9)
C18 C 0.2052(4) -0.1913(3) 0.31513(8)
H21 H 0.094(5) -0.213(3) 0.3241(10)
H22 H 0.305(4) -0.233(3) 0.3309(10)
H23 H 0.207(4) -0.232(3) 0.2884(11)
C19 C 0.2396(3) -0.2014(3) 0.17753(8)
H24 H 0.111(4) -0.208(3) 0.1832(8)
H25 H 0.286(4) -0.255(3) 0.1994(11)
H26 H 0.276(5) -0.243(4) 0.1529(12)
C20 C 0.1333(3) -0.0060(2) 0.38826(7)
C21 C -0.0597(3) -0.0049(3) 0.37723(7)
H27 H -0.093(4) 0.083(3) 0.3644(9)
H28 H -0.131(4) -0.010(3) 0.3986(10)
H29 H -0.084(4) -0.082(3) 0.3586(10)
C22 C 0.1695(3) 0.0973(2) 0.42156(7)
H30 H 0.296(3) 0.100(2) 0.4254(8)
C23 C 0.1051(3) 0.2392(2) 0.41527(7)
H31 H -0.013(4) 0.247(3) 0.4086(8)
H32 H 0.169(4) 0.284(3) 0.3955(9)
C24 C 0.1193(3) 0.3207(3) 0.45269(7)
C25 C 0.1292(3) 0.2579(3) 0.48821(7)
C26 C 0.0951(3) 0.1130(3) 0.49055(7)
C27 C 0.1500(4) 0.3305(3) 0.52708(8)
H33 H 0.206(5) 0.415(5) 0.5214(13)
H34 H 0.045(6) 0.373(4) 0.5320(13)
H35 H 0.230(6) 0.277(4) 0.5421(13)
C28 C 0.1136(4) 0.4710(3) 0.44852(8)
H36 H 0.232(6) 0.494(4) 0.4474(12)
H37 H 0.032(6) 0.508(5) 0.4715(15)
H38 H 0.081(5) 0.504(4) 0.4223(14)
loop_
_geom_bond_atom_site_label_1
_geom_bond_atom_site_label_2
_geom_bond_site_symmetry_1
_geom_bond_site_symmetry_2
O1 C5 1_555 1_555
O2 C22 1_555 1_555
O3 C1 1_555 1_555
O4 H1 1_555 1_555
O5 H2 1_555 1_555
O6 C26 1_555 1_555
C1 C2 1_555 1_555
C2 H3 1_555 1_555
C3 C2 1_555 1_555
H4 C3 1_555 1_555
C4 O4 1_555 1_555
H5 C4 1_555 1_555
C5 C4 1_555 1_555
C6 O1 1_555 1_555
H6 C6 1_555 1_555
C7 C6 1_555 1_555
H7 C7 1_555 1_555
H8 C7 1_555 1_555
C8 C7 1_555 1_555
H9 C8 1_555 1_555
C9 C8 1_555 1_555
H10 C9 1_555 1_555
C10 C1 1_555 1_555
C11 C9 1_555 1_555
H11 C11 1_555 1_555
H12 C11 1_555 1_555
C12 C11 1_555 1_555
H13 C12 1_555 1_555
H14 C12 1_555 1_555
C13 C12 1_555 1_555
C14 C8 1_555 1_555
H15 C14 1_555 1_555
C15 C14 1_555 1_555
H16 C15 1_555 1_555
H17 C15 1_555 1_555
C16 C15 1_555 1_555
H18 C16 1_555 1_555
H19 C16 1_555 1_555
C17 C13 1_555 1_555
H20 C17 1_555 1_555
C18 C13 1_555 1_555
H21 C18 1_555 1_555
H22 C18 1_555 1_555
H23 C18 1_555 1_555
C19 C10 1_555 1_555
H24 C19 1_555 1_555
H25 C19 1_555 1_555
H26 C19 1_555 1_555
C20 O5 1_555 1_555
C21 C20 1_555 1_555
H27 C21 1_555 1_555
H28 C21 1_555 1_555
H29 C21 1_555 1_555
C22 C20 1_555 1_555
H30 C22 1_555 1_555
C23 C22 1_555 1_555
H31 C23 1_555 1_555
H32 C23 1_555 1_555
C24 C23 1_555 1_555
C25 C24 1_555 1_555
C26 O2 1_555 1_555
C27 C25 1_555 1_555
H33 C27 1_555 1_555
H34 C27 1_555 1_555
H35 C27 1_555 1_555
C28 C24 1_555 1_555
H36 C28 1_555 1_555
H37 C28 1_555 1_555
H38 C28 1_555 1_555
C3 C4 1_555 1_555
C5 C6 1_555 1_555
C5 C10 1_555 1_555
C9 C10 1_555 1_555
C13 C14 1_555 1_555
C16 C17 1_555 1_555
C17 C20 1_555 1_555
C25 C26 1_555 1_555

#END
