
#######################################################################
#
#                 Cambridge Crystallographic Data Centre
#                                CCDC 
#
#######################################################################
#
# If this CIF has been generated from an entry in the Cambridge 
# Structural Database, then it will include bibliographic, chemical, 
# crystal, experimental, refinement or atomic coordinate data resulting 
# from the CCDC's data processing and validation procedures.
#
#######################################################################

data_TOBXEP
_chemical_formula_moiety         'C28 H38 O5,2(H2 O1)'
_chemical_name_systematic        
'4,27-Dihydroxy-22,26-epoxyergosta-2,5,24-triene-1,26-dione dihydrate'
_symmetry_cell_setting           orthorhombic
_symmetry_space_group_name_H-M   'P 21 21 21'
_symmetry_Int_Tables_number      19
_space_group_name_Hall           'P 2ac 2ab'
loop_
_symmetry_equiv_pos_site_id
_symmetry_equiv_pos_as_xyz
1 x,y,z
2 1/2+x,1/2-y,-z
3 -x,1/2+y,1/2-z
4 1/2-x,-y,1/2+z
_cell_length_a                   6.9310(3)
_cell_length_b                   10.6745(4)
_cell_length_c                   34.6674(14)
_cell_angle_alpha                90
_cell_angle_beta                 90
_cell_angle_gamma                90
_cell_volume                     2564.87
_exptl_crystal_colour            colorless
_exptl_crystal_description       Rectangular
_cell_formula_units_Z            4
loop_
_atom_site_label
_atom_site_type_symbol
_atom_site_fract_x
_atom_site_fract_y
_atom_site_fract_z
O1 O -0.09822(16) 0.27684(10) 0.03881(3)
O2 O -0.17264(18) 0.2569(2) 0.32776(4)
O3 O 0.49781(18) 0.28089(12) 0.37276(3)
H1 H 0.610(5) 0.276(3) 0.3588(8)
O4 O -0.13065(17) 0.30447(10) -0.02351(3)
O5 O -0.02124(19) -0.04891(12) -0.04869(3)
H2 H -0.088(4) -0.121(2) -0.0481(6)
C1 C -0.0075(2) 0.23418(15) 0.33689(4)
C2 C 0.0341(2) 0.19911(15) 0.37695(4)
H3 H -0.076(3) 0.1961(18) 0.3929(5)
C3 C 0.2107(2) 0.17416(15) 0.38953(4)
H4 H 0.241(3) 0.157(2) 0.4158(6)
C4 C 0.3832(2) 0.17164(15) 0.36353(4)
H5 H 0.456(3) 0.0995(16) 0.3698(5)
C5 C 0.3274(2) 0.16695(14) 0.32145(4)
C6 C 0.4284(2) 0.09417(14) 0.29804(4)
H6 H 0.530(3) 0.0493(17) 0.3079(5)
C7 C 0.3994(2) 0.08409(14) 0.25549(4)
H7 H 0.348(3) 0.0048(18) 0.2492(5)
H8 H 0.523(3) 0.0850(19) 0.2431(6)
C8 C 0.2699(2) 0.18837(13) 0.23976(4)
H9 H 0.348(3) 0.2639(17) 0.2378(5)
C9 C 0.0934(2) 0.20905(13) 0.26631(4)
H10 H 0.032(2) 0.1277(15) 0.2688(4)
C10 C 0.1588(2) 0.24732(13) 0.30799(4)
C11 C -0.0512(2) 0.30064(14) 0.24761(4)
H11 H 0.002(3) 0.3854(17) 0.2477(5)
H12 H -0.172(3) 0.3123(19) 0.2625(6)
C12 C -0.1088(2) 0.26645(15) 0.20612(4)
H13 H -0.176(3) 0.1876(18) 0.2065(5)
H14 H -0.203(3) 0.3283(19) 0.1963(6)
C13 C 0.0686(2) 0.25231(13) 0.17995(4)
C14 C 0.2001(2) 0.15467(14) 0.19936(4)
H15 H 0.112(2) 0.0793(15) 0.2022(4)
C15 C 0.3504(3) 0.12144(17) 0.16877(4)
H16 H 0.454(3) 0.180(2) 0.1697(6)
H17 H 0.406(3) 0.0399(19) 0.1719(5)
C16 C 0.2383(2) 0.13146(16) 0.13053(4)
H18 H 0.223(3) 0.053(2) 0.1177(6)
H19 H 0.303(3) 0.179(2) 0.1129(6)
C17 C 0.0361(2) 0.18824(13) 0.14019(4)
H20 H -0.054(3) 0.1208(16) 0.1457(5)
C18 C 0.1695(3) 0.37909(15) 0.17457(5)
H21 H 0.088(3) 0.437(2) 0.1627(6)
H22 H 0.286(3) 0.3725(19) 0.1573(6)
H23 H 0.209(3) 0.4139(17) 0.1990(5)
C19 C 0.2193(3) 0.38725(14) 0.31020(5)
H24 H 0.265(3) 0.4086(18) 0.3353(6)
H25 H 0.114(4) 0.444(2) 0.3037(6)
H26 H 0.324(4) 0.405(2) 0.2928(6)
C20 C -0.0447(2) 0.26815(14) 0.10692(4)
H27 H 0.047(3) 0.3317(17) 0.1010(5)
C21 C -0.2419(2) 0.32675(16) 0.11516(4)
H28 H -0.331(3) 0.2626(17) 0.1242(5)
H29 H -0.291(3) 0.3688(19) 0.0924(6)
H30 H -0.236(3) 0.393(2) 0.1357(6)
C22 C -0.0483(2) 0.18979(14) 0.06987(4)
H31 H 0.081(3) 0.1613(15) 0.0649(5)
C23 C -0.1846(3) 0.08017(15) 0.06930(4)
H32 H -0.312(3) 0.1028(19) 0.0750(6)
H33 H -0.139(3) 0.0177(18) 0.0874(5)
C24 C -0.1923(2) 0.02321(15) 0.02964(4)
C25 C -0.1563(2) 0.09471(15) -0.00150(4)
C26 C -0.1255(2) 0.23041(15) 0.00321(4)
C27 C -0.1638(3) 0.04522(16) -0.04229(5)
H34 H -0.310(3) -0.0002(16) -0.0491(5)
H35 H -0.134(3) 0.113(2) -0.0605(6)
C28 C -0.2418(3) -0.11198(17) 0.02764(5)
H36 H -0.338(4) -0.127(2) 0.0481(7)
H37 H -0.117(3) -0.1611(19) 0.0299(5)
H38 H -0.303(4) -0.139(2) 0.0030(7)
O6 O 0.3093(2) -0.05859(13) -0.00192(4)
H39 H 0.194(5) -0.052(3) -0.0174(9)
H40 H 0.343(4) 0.021(3) 0.0066(8)
O7 O -0.20059(19) -0.27330(13) -0.05701(4)
H41 H -0.127(4) -0.302(2) -0.0791(7)
H42 H -0.209(5) -0.344(3) -0.0357(9)
loop_
_geom_bond_atom_site_label_1
_geom_bond_atom_site_label_2
_geom_bond_site_symmetry_1
_geom_bond_site_symmetry_2
O1 C22 1_555 1_555
O2 C1 1_555 1_555
O3 H1 1_555 1_555
O4 C26 1_555 1_555
O5 H2 1_555 1_555
C1 C2 1_555 1_555
C2 H3 1_555 1_555
C3 C2 1_555 1_555
H4 C3 1_555 1_555
C4 O3 1_555 1_555
H5 C4 1_555 1_555
C5 C4 1_555 1_555
C6 C5 1_555 1_555
H6 C6 1_555 1_555
C7 C6 1_555 1_555
H7 C7 1_555 1_555
H8 C7 1_555 1_555
C8 C7 1_555 1_555
H9 C8 1_555 1_555
C9 C8 1_555 1_555
H10 C9 1_555 1_555
C10 C1 1_555 1_555
C11 C9 1_555 1_555
H11 C11 1_555 1_555
H12 C11 1_555 1_555
C12 C11 1_555 1_555
H13 C12 1_555 1_555
H14 C12 1_555 1_555
C13 C12 1_555 1_555
C14 C8 1_555 1_555
H15 C14 1_555 1_555
C15 C14 1_555 1_555
H16 C15 1_555 1_555
H17 C15 1_555 1_555
C16 C15 1_555 1_555
H18 C16 1_555 1_555
H19 C16 1_555 1_555
C17 C13 1_555 1_555
H20 C17 1_555 1_555
C18 C13 1_555 1_555
H21 C18 1_555 1_555
H22 C18 1_555 1_555
H23 C18 1_555 1_555
C19 C10 1_555 1_555
H24 C19 1_555 1_555
H25 C19 1_555 1_555
H26 C19 1_555 1_555
C20 C17 1_555 1_555
H27 C20 1_555 1_555
C21 C20 1_555 1_555
H28 C21 1_555 1_555
H29 C21 1_555 1_555
H30 C21 1_555 1_555
C22 C20 1_555 1_555
H31 C22 1_555 1_555
C23 C22 1_555 1_555
H32 C23 1_555 1_555
H33 C23 1_555 1_555
C24 C23 1_555 1_555
C25 C24 1_555 1_555
C26 O1 1_555 1_555
C27 O5 1_555 1_555
H34 C27 1_555 1_555
H35 C27 1_555 1_555
C28 C24 1_555 1_555
H36 C28 1_555 1_555
H37 C28 1_555 1_555
H38 C28 1_555 1_555
O6 H39 1_555 1_555
H40 O6 1_555 1_555
O7 H41 1_555 1_555
H42 O7 1_555 1_555
C3 C4 1_555 1_555
C5 C10 1_555 1_555
C9 C10 1_555 1_555
C13 C14 1_555 1_555
C16 C17 1_555 1_555
C25 C26 1_555 1_555
C25 C27 1_555 1_555

#END
