
#######################################################################
#
#                 Cambridge Crystallographic Data Centre
#                                CCDC 
#
#######################################################################
#
# If this CIF has been generated from an entry in the Cambridge 
# Structural Database, then it will include bibliographic, chemical, 
# crystal, experimental, refinement or atomic coordinate data resulting 
# from the CCDC's data processing and validation procedures.
#
#######################################################################

data_TOCRUY
_chemical_formula_moiety         'C21 H49 Li1 N2 Si2'
_chemical_name_systematic        
(\h^3^-1,3-bis(t-Butyldimethylsilyl)allyl)-(tetramethylethylenediamine)-lithium
_symmetry_cell_setting           monoclinic
_symmetry_space_group_name_H-M   'P 21/n'
_symmetry_Int_Tables_number      14
_space_group_name_Hall           '-P 2yn'
loop_
_symmetry_equiv_pos_site_id
_symmetry_equiv_pos_as_xyz
1 x,y,z
2 1/2-x,1/2+y,1/2-z
3 -x,-y,-z
4 1/2+x,1/2-y,1/2+z
_cell_length_a                   11.295(3)
_cell_length_b                   21.365(3)
_cell_length_c                   12.254(4)
_cell_angle_alpha                90
_cell_angle_beta                 103.33(2)
_cell_angle_gamma                90
_cell_volume                     2877.44
_cell_formula_units_Z            4
loop_
_atom_site_label
_atom_site_type_symbol
_atom_site_fract_x
_atom_site_fract_y
_atom_site_fract_z
Li1 Li 0.4460(12) -0.0984(7) 0.2643(12)
Si1 Si 0.1807(2) 0.00137(12) 0.2158(2)
Si2 Si 0.4072(2) -0.20139(11) 0.4901(2)
N1 N 0.4432(6) -0.1502(3) 0.1151(5)
N2 N 0.6182(5) -0.0672(3) 0.2519(6)
C1 C 0.3155(6) -0.0318(3) 0.3128(6)
C2 C 0.3149(6) -0.0917(3) 0.3620(6)
C3 C 0.4147(6) -0.1220(3) 0.4323(6)
C4 C 0.0726(8) -0.0599(4) 0.1492(8)
C5 C 0.2326(7) 0.0452(4) 0.1039(7)
C6 C 0.0947(7) 0.0582(4) 0.2868(6)
C7 C 0.0505(8) 0.0260(5) 0.3793(7)
C8 C 0.1782(9) 0.1123(4) 0.3367(8)
C9 C -0.0160(8) 0.0864(5) 0.2027(8)
C10 C 0.2791(8) -0.2471(4) 0.4051(8)
C11 C 0.5530(8) -0.2442(4) 0.4929(9)
C12 C 0.3910(7) -0.1998(4) 0.6398(7)
C13 C 0.4929(8) -0.1623(5) 0.7110(7)
C14 C 0.2678(8) -0.1692(5) 0.6427(8)
C15 C 0.3955(9) -0.2649(5) 0.6909(9)
C16 C 0.5579(9) -0.1354(6) 0.0910(9)
C17 C 0.6348(8) -0.0946(6) 0.1538(9)
C18 C 0.3477(11) -0.1285(7) 0.0223(9)
C19 C 0.4344(12) -0.2147(5) 0.1294(11)
C20 C 0.6277(11) -0.0009(6) 0.2458(14)
C21 C 0.7093(10) -0.0864(9) 0.3429(11)
H1 H 0.388 -0.008 0.330
H2 H 0.237 -0.116 0.352
H3 H 0.490 -0.100 0.451
H4 H 0.002 -0.045 0.102
H5 H 0.109 -0.092 0.113
H6 H 0.043 -0.084 0.210
H7 H 0.172 0.067 0.056
H8 H 0.291 0.081 0.145
H9 H 0.283 0.023 0.069
H10 H 0.007 0.053 0.423
H11 H 0.003 -0.010 0.359
H12 H 0.123 0.012 0.439
H13 H 0.141 0.145 0.375
H14 H 0.247 0.096 0.396
H15 H 0.217 0.134 0.285
H16 H -0.061 0.116 0.235
H17 H 0.008 0.107 0.140
H18 H -0.071 0.053 0.169
H19 H 0.272 -0.289 0.432
H20 H 0.199 -0.227 0.402
H21 H 0.282 -0.251 0.327
H22 H 0.554 -0.285 0.520
H23 H 0.568 -0.247 0.416
H24 H 0.623 -0.222 0.536
H25 H 0.489 -0.159 0.788
H26 H 0.572 -0.177 0.709
H27 H 0.489 -0.119 0.683
H28 H 0.255 -0.167 0.718
H29 H 0.266 -0.127 0.615
H30 H 0.202 -0.192 0.598
H31 H 0.393 -0.268 0.765
H32 H 0.336 -0.293 0.646
H33 H 0.476 -0.286 0.686
H34 H 0.549 -0.118 0.021
H35 H 0.609 -0.172 0.097
H36 H 0.718 -0.116 0.180
H37 H 0.653 -0.060 0.109
H38 H 0.269 -0.141 0.039
H39 H 0.349 -0.086 0.016
H40 H 0.353 -0.149 -0.044
H41 H 0.355 -0.228 0.144
H42 H 0.441 -0.240 0.064
H43 H 0.494 -0.233 0.192
H44 H 0.615 0.018 0.317
H45 H 0.711 0.011 0.246
H46 H 0.574 0.016 0.187
H47 H 0.706 -0.076 0.414
H48 H 0.707 -0.136 0.345
H49 H 0.792 -0.081 0.333
loop_
_geom_bond_atom_site_label_1
_geom_bond_atom_site_label_2
_geom_bond_site_symmetry_1
_geom_bond_site_symmetry_2
Li1 N1 1_555 1_555
Si1 C1 1_555 1_555
Si2 C3 1_555 1_555
N1 C16 1_555 1_555
N2 Li1 1_555 1_555
C1 Li1 1_555 1_555
C2 Li1 1_555 1_555
C3 Li1 1_555 1_555
C4 Si1 1_555 1_555
C5 Si1 1_555 1_555
C6 Si1 1_555 1_555
C7 C6 1_555 1_555
C8 C6 1_555 1_555
C9 C6 1_555 1_555
C10 Si2 1_555 1_555
C11 Si2 1_555 1_555
C12 Si2 1_555 1_555
C13 C12 1_555 1_555
C14 C12 1_555 1_555
C15 C12 1_555 1_555
C16 C17 1_555 1_555
C17 N2 1_555 1_555
C18 N1 1_555 1_555
C19 N1 1_555 1_555
C20 N2 1_555 1_555
C21 N2 1_555 1_555
H1 C1 1_555 1_555
H2 C2 1_555 1_555
H3 C3 1_555 1_555
H4 C4 1_555 1_555
H5 C4 1_555 1_555
H6 C4 1_555 1_555
H7 C5 1_555 1_555
H8 C5 1_555 1_555
H9 C5 1_555 1_555
H10 C7 1_555 1_555
H11 C7 1_555 1_555
H12 C7 1_555 1_555
H13 C8 1_555 1_555
H14 C8 1_555 1_555
H15 C8 1_555 1_555
H16 C9 1_555 1_555
H17 C9 1_555 1_555
H18 C9 1_555 1_555
H19 C10 1_555 1_555
H20 C10 1_555 1_555
H21 C10 1_555 1_555
H22 C11 1_555 1_555
H23 C11 1_555 1_555
H24 C11 1_555 1_555
H25 C13 1_555 1_555
H26 C13 1_555 1_555
H27 C13 1_555 1_555
H28 C14 1_555 1_555
H29 C14 1_555 1_555
H30 C14 1_555 1_555
H31 C15 1_555 1_555
H32 C15 1_555 1_555
H33 C15 1_555 1_555
H34 C16 1_555 1_555
H35 C16 1_555 1_555
H36 C17 1_555 1_555
H37 C17 1_555 1_555
H38 C18 1_555 1_555
H39 C18 1_555 1_555
H40 C18 1_555 1_555
H41 C19 1_555 1_555
H42 C19 1_555 1_555
H43 C19 1_555 1_555
H44 C20 1_555 1_555
H45 C20 1_555 1_555
H46 C20 1_555 1_555
H47 C21 1_555 1_555
H48 C21 1_555 1_555
H49 C21 1_555 1_555
C1 C2 1_555 1_555
C2 C3 1_555 1_555

#END
