
#######################################################################
#
#                 Cambridge Crystallographic Data Centre
#                                CCDC 
#
#######################################################################
#
# If this CIF has been generated from an entry in the Cambridge 
# Structural Database, then it will include bibliographic, chemical, 
# crystal, experimental, refinement or atomic coordinate data resulting 
# from the CCDC's data processing and validation procedures.
#
#######################################################################

data_TOCVEO01
_chemical_formula_moiety         'C21 H17 N3 S1'
_chemical_name_systematic        
1-benzyl-4-phenyl-5-(phenylsulfanyl)-1H-1,2,3-triazole
_symmetry_cell_setting           monoclinic
_symmetry_space_group_name_H-M   'P 21/n'
_symmetry_Int_Tables_number      14
_space_group_name_Hall           '-P 2yn'
loop_
_symmetry_equiv_pos_site_id
_symmetry_equiv_pos_as_xyz
1 x,y,z
2 1/2-x,1/2+y,1/2-z
3 -x,-y,-z
4 1/2+x,1/2-y,1/2+z
_cell_length_a                   16.9214(15)
_cell_length_b                   10.1700(9)
_cell_length_c                   22.522(2)
_cell_angle_alpha                90
_cell_angle_beta                 111.790(2)
_cell_angle_gamma                90
_cell_volume                     3598.9
_exptl_crystal_colour            colorless
_exptl_crystal_description       prismatic
_cell_formula_units_Z            8
loop_
_atom_site_label
_atom_site_type_symbol
_atom_site_fract_x
_atom_site_fract_y
_atom_site_fract_z
S1 S 0.20171(4) 0.40766(6) 0.24549(3)
N1 N 0.33471(12) 0.5228(2) 0.22616(9)
N2 N 0.40600(13) 0.5914(2) 0.25543(11)
N3 N 0.40971(12) 0.6206(2) 0.31269(10)
C1 C 0.34023(13) 0.5708(2) 0.32118(11)
C2 C 0.29087(13) 0.5082(2) 0.26565(11)
C3 C 0.31554(16) 0.4721(3) 0.16194(12)
H1 H 0.3035 0.3788 0.1616
H2 H 0.3653 0.4825 0.1508
C4 C 0.24131(15) 0.5394(3) 0.11220(11)
C5 C 0.17812(17) 0.4651(3) 0.06938(13)
H3 H 0.1804 0.3740 0.0730
C6 C 0.11224(19) 0.5222(4) 0.02176(15)
H4 H 0.0707 0.4702 -0.0075
C7 C 0.1070(2) 0.6555(4) 0.01672(16)
H5 H 0.0617 0.6947 -0.0158
C8 C 0.1687(2) 0.7319(3) 0.05975(16)
H6 H 0.1650 0.8231 0.0569
C9 C 0.23572(19) 0.6735(3) 0.10699(14)
H7 H 0.2779 0.7255 0.1358
C10 C 0.32945(15) 0.5871(2) 0.38223(11)
C11 C 0.40154(17) 0.6030(3) 0.43797(13)
H8 H 0.4553 0.6040 0.4358
C12 C 0.3932(2) 0.6169(3) 0.49567(15)
H9 H 0.4416 0.6260 0.5325
C13 C 0.3145(3) 0.6177(3) 0.50025(15)
H10 H 0.3095 0.6277 0.5398
C14 C 0.2440(2) 0.6036(3) 0.44613(16)
H11 H 0.1906 0.6041 0.4489
C15 C 0.25029(17) 0.5887(3) 0.38711(13)
H12 H 0.2013 0.5796 0.3506
C16 C 0.11439(13) 0.5148(2) 0.20832(10)
C17 C 0.03656(15) 0.4542(3) 0.17861(12)
H13 H 0.0329 0.3630 0.1770
C18 C -0.03541(16) 0.5292(3) 0.15143(13)
H14 H -0.0879 0.4885 0.1317
C19 C -0.03039(16) 0.6625(3) 0.15322(13)
H15 H -0.0795 0.7125 0.1352
C20 C 0.04715(17) 0.7238(3) 0.18164(14)
H16 H 0.0506 0.8151 0.1821
C21 C 0.11983(15) 0.6490(3) 0.20955(13)
H17 H 0.1723 0.6899 0.2291
S2 S 0.77324(5) 0.61308(6) 0.22603(3)
N4 N 0.67905(13) 0.5099(2) 0.28976(10)
N5 N 0.68455(14) 0.4435(2) 0.34185(11)
N6 N 0.76466(14) 0.4078(2) 0.37122(10)
C22 C 0.81011(14) 0.4503(2) 0.33647(11)
C23 C 0.75596(14) 0.5163(2) 0.28340(11)
C24 C 0.59745(17) 0.5629(3) 0.24738(15)
H18 H 0.6064 0.6496 0.2331
H19 H 0.5602 0.5724 0.2711
C25 C 0.55463(14) 0.4772(3) 0.19007(13)
C26 C 0.52804(18) 0.5336(3) 0.13154(15)
H20 H 0.5380 0.6223 0.1273
C27 C 0.4864(2) 0.4588(5) 0.07875(18)
H21 H 0.4670 0.4980 0.0386
C28 C 0.4730(2) 0.3303(5) 0.0838(2)
H22 H 0.4455 0.2807 0.0472
C29 C 0.4993(2) 0.2723(4) 0.1421(2)
H23 H 0.4900 0.1831 0.1460
C30 C 0.54009(18) 0.3475(3) 0.19534(16)
H24 H 0.5580 0.3089 0.2356
C31 C 0.90136(15) 0.4229(2) 0.35865(11)
C32 C 0.94546(17) 0.3969(3) 0.42259(12)
H25 H 0.9169 0.3990 0.4508
C33 C 1.03096(19) 0.3680(3) 0.44541(15)
H26 H 1.0597 0.3503 0.4886
C34 C 1.07396(18) 0.3654(3) 0.40410(16)
H27 H 1.1319 0.3466 0.4194
C35 C 1.03128(18) 0.3905(3) 0.34059(16)
H28 H 1.0602 0.3881 0.3126
C36 C 0.94541(16) 0.4196(2) 0.31767(13)
H29 H 0.9170 0.4371 0.2744
C37 C 0.74801(13) 0.5089(2) 0.15868(11)
C38 C 0.73412(15) 0.5701(3) 0.10105(12)
H30 H 0.7339 0.6614 0.0986
C39 C 0.72064(18) 0.4962(4) 0.04761(13)
H31 H 0.7125 0.5375 0.0089
C40 C 0.7190(2) 0.3630(4) 0.05046(15)
H32 H 0.7098 0.3135 0.0138
C41 C 0.7308(2) 0.3017(3) 0.10684(15)
H33 H 0.7286 0.2105 0.1085
C42 C 0.74601(18) 0.3755(3) 0.16159(13)
H34 H 0.7549 0.3339 0.2003
loop_
_geom_bond_atom_site_label_1
_geom_bond_atom_site_label_2
_geom_bond_site_symmetry_1
_geom_bond_site_symmetry_2
S1 C2 1_555 1_555
N1 N2 1_555 1_555
N2 N3 1_555 1_555
N3 C1 1_555 1_555
C1 C2 1_555 1_555
C2 N1 1_555 1_555
C3 N1 1_555 1_555
H1 C3 1_555 1_555
H2 C3 1_555 1_555
C4 C3 1_555 1_555
C5 C4 1_555 1_555
H3 C5 1_555 1_555
C6 C5 1_555 1_555
H4 C6 1_555 1_555
C7 C6 1_555 1_555
H5 C7 1_555 1_555
C8 C7 1_555 1_555
H6 C8 1_555 1_555
C9 C4 1_555 1_555
H7 C9 1_555 1_555
C10 C1 1_555 1_555
C11 C10 1_555 1_555
H8 C11 1_555 1_555
C12 C11 1_555 1_555
H9 C12 1_555 1_555
C13 C12 1_555 1_555
H10 C13 1_555 1_555
C14 C13 1_555 1_555
H11 C14 1_555 1_555
C15 C10 1_555 1_555
H12 C15 1_555 1_555
C16 S1 1_555 1_555
C17 C16 1_555 1_555
H13 C17 1_555 1_555
C18 C17 1_555 1_555
H14 C18 1_555 1_555
C19 C18 1_555 1_555
H15 C19 1_555 1_555
C20 C19 1_555 1_555
H16 C20 1_555 1_555
C21 C16 1_555 1_555
H17 C21 1_555 1_555
S2 C23 1_555 1_555
N4 N5 1_555 1_555
N5 N6 1_555 1_555
N6 C22 1_555 1_555
C22 C23 1_555 1_555
C23 N4 1_555 1_555
C24 N4 1_555 1_555
H18 C24 1_555 1_555
H19 C24 1_555 1_555
C25 C24 1_555 1_555
C26 C25 1_555 1_555
H20 C26 1_555 1_555
C27 C26 1_555 1_555
H21 C27 1_555 1_555
C28 C27 1_555 1_555
H22 C28 1_555 1_555
C29 C28 1_555 1_555
H23 C29 1_555 1_555
C30 C25 1_555 1_555
H24 C30 1_555 1_555
C31 C22 1_555 1_555
C32 C31 1_555 1_555
H25 C32 1_555 1_555
C33 C32 1_555 1_555
H26 C33 1_555 1_555
C34 C33 1_555 1_555
H27 C34 1_555 1_555
C35 C34 1_555 1_555
H28 C35 1_555 1_555
C36 C31 1_555 1_555
H29 C36 1_555 1_555
C37 S2 1_555 1_555
C38 C37 1_555 1_555
H30 C38 1_555 1_555
C39 C38 1_555 1_555
H31 C39 1_555 1_555
C40 C39 1_555 1_555
H32 C40 1_555 1_555
C41 C40 1_555 1_555
H33 C41 1_555 1_555
C42 C37 1_555 1_555
H34 C42 1_555 1_555
C8 C9 1_555 1_555
C14 C15 1_555 1_555
C20 C21 1_555 1_555
C29 C30 1_555 1_555
C35 C36 1_555 1_555
C41 C42 1_555 1_555

#END
