
#######################################################################
#
#                 Cambridge Crystallographic Data Centre
#                                CCDC 
#
#######################################################################
#
# If this CIF has been generated from an entry in the Cambridge 
# Structural Database, then it will include bibliographic, chemical, 
# crystal, experimental, refinement or atomic coordinate data resulting 
# from the CCDC's data processing and validation procedures.
#
#######################################################################

data_TODCOG
_chemical_formula_moiety         'C24 H20 B1 1-,C4 H10 N1 O1 1+,C2 H3 N1'
_chemical_name_systematic        
'N-(Methoxymethylene)-N-methylmethanaminium tetraphenylborate acetonitrile solvate'
_symmetry_cell_setting           monoclinic
_symmetry_space_group_name_H-M   'P 21/n'
_symmetry_Int_Tables_number      14
_space_group_name_Hall           '-P 2yn'
loop_
_symmetry_equiv_pos_site_id
_symmetry_equiv_pos_as_xyz
1 x,y,z
2 1/2-x,1/2+y,1/2-z
3 -x,-y,-z
4 1/2+x,1/2-y,1/2+z
_cell_length_a                   10.6715(5)
_cell_length_b                   16.9824(9)
_cell_length_c                   14.4061(7)
_cell_angle_alpha                90
_cell_angle_beta                 103.515(3)
_cell_angle_gamma                90
_cell_volume                     2538.49
_exptl_crystal_colour            colorless
_exptl_crystal_description       block
_cell_formula_units_Z            4
loop_
_atom_site_label
_atom_site_type_symbol
_atom_site_fract_x
_atom_site_fract_y
_atom_site_fract_z
C1 C 0.46641(13) 0.40926(8) 0.41370(10)
H1 H 0.4462 0.3829 0.4689
H2 H 0.3895 0.4364 0.3773
H3 H 0.5355 0.4476 0.4357
C2 C 0.40869(13) 0.30622(9) 0.28573(11)
H4 H 0.4494 0.2710 0.2476
H5 H 0.3514 0.3429 0.2434
H6 H 0.3586 0.2751 0.3216
N1 N 0.50842(10) 0.35056(6) 0.35249(8)
C3 C 0.62856(12) 0.33664(8) 0.35858(9)
H7 H 0.6545(15) 0.2972(10) 0.3213(12)
O1 O 0.71519(8) 0.37622(6) 0.41880(6)
C4 C 0.84859(12) 0.35136(9) 0.43104(10)
H8 H 0.8737 0.3187 0.4885
H9 H 0.9044 0.3978 0.4377
H10 H 0.8575 0.3208 0.3752
B1 B 0.76218(12) 0.20090(8) 0.12815(9)
C5 C 0.69730(11) 0.15845(7) 0.02587(8)
C6 C 0.66415(11) 0.20044(7) -0.06029(9)
H11 H 0.6699 0.2563 -0.0582
C7 C 0.62318(11) 0.16379(8) -0.14890(9)
H12 H 0.6021 0.1946 -0.2055
C8 C 0.61317(12) 0.08245(8) -0.15432(9)
H13 H 0.5849 0.0570 -0.2143
C9 C 0.64509(12) 0.03865(8) -0.07057(9)
H14 H 0.6388 -0.0171 -0.0733
C10 C 0.68623(12) 0.07615(7) 0.01730(9)
H15 H 0.7076 0.0449 0.0735
C11 C 0.91812(11) 0.19238(7) 0.13791(8)
C12 C 0.98740(12) 0.24623(7) 0.09522(9)
H16 H 0.9434 0.2908 0.0635
C13 C 1.11786(12) 0.23712(8) 0.09739(9)
H17 H 1.1610 0.2756 0.0684
C14 C 1.18458(12) 0.17234(8) 0.14155(10)
H18 H 1.2737 0.1660 0.1437
C15 C 1.11920(13) 0.11662(8) 0.18281(10)
H19 H 1.1634 0.0713 0.2125
C16 C 0.98875(12) 0.12694(8) 0.18076(9)
H20 H 0.9461 0.0881 0.2095
C17 C 0.71395(11) 0.16101(7) 0.21767(8)
C18 C 0.58786(12) 0.13210(8) 0.20676(9)
H21 H 0.5346 0.1279 0.1441
C19 C 0.53758(13) 0.10938(8) 0.28364(10)
H22 H 0.4517 0.0903 0.2728
C20 C 0.61303(14) 0.11463(9) 0.37614(10)
H23 H 0.5791 0.1001 0.4291
C21 C 0.73893(14) 0.14146(9) 0.38990(9)
H24 H 0.7920 0.1447 0.4527
C22 C 0.78792(12) 0.16375(8) 0.31212(9)
H25 H 0.8746 0.1815 0.3234
C23 C 0.71577(11) 0.29311(7) 0.13220(8)
C24 C 0.58709(12) 0.31596(8) 0.09488(10)
H26 H 0.5284 0.2782 0.0606
C25 C 0.54234(13) 0.39139(8) 0.10609(10)
H27 H 0.4547 0.4042 0.0794
C26 C 0.62499(14) 0.44803(8) 0.15603(10)
H28 H 0.5948 0.4997 0.1638
C27 C 0.75235(13) 0.42791(8) 0.19436(10)
H29 H 0.8102 0.4659 0.2290
C28 C 0.79607(12) 0.35215(7) 0.18238(9)
H30 H 0.8839 0.3399 0.2093
N2 N 0.2002(2) 0.44404(10) 0.12761(13)
C29 C 0.21400(16) 0.50210(9) 0.09583(10)
C30 C 0.2352(4) 0.57636(13) 0.0566(2)
H31 H 0.2142 0.6185 0.0969
H32 H 0.1801 0.5811 -0.0079
H33 H 0.3258 0.5807 0.0538
loop_
_geom_bond_atom_site_label_1
_geom_bond_atom_site_label_2
_geom_bond_site_symmetry_1
_geom_bond_site_symmetry_2
C1 H1 1_555 1_555
H2 C1 1_555 1_555
H3 C1 1_555 1_555
C2 H4 1_555 1_555
H5 C2 1_555 1_555
H6 C2 1_555 1_555
N1 C1 1_555 1_555
C3 N1 1_555 1_555
H7 C3 1_555 1_555
O1 C3 1_555 1_555
C4 O1 1_555 1_555
H8 C4 1_555 1_555
H9 C4 1_555 1_555
H10 C4 1_555 1_555
B1 C5 1_555 1_555
C5 C6 1_555 1_555
C6 H11 1_555 1_555
C7 C6 1_555 1_555
H12 C7 1_555 1_555
C8 C7 1_555 1_555
H13 C8 1_555 1_555
C9 C8 1_555 1_555
H14 C9 1_555 1_555
C10 C5 1_555 1_555
H15 C10 1_555 1_555
C11 B1 1_555 1_555
C12 C11 1_555 1_555
H16 C12 1_555 1_555
C13 C12 1_555 1_555
H17 C13 1_555 1_555
C14 C13 1_555 1_555
H18 C14 1_555 1_555
C15 C14 1_555 1_555
H19 C15 1_555 1_555
C16 C11 1_555 1_555
H20 C16 1_555 1_555
C17 B1 1_555 1_555
C18 C17 1_555 1_555
H21 C18 1_555 1_555
C19 C18 1_555 1_555
H22 C19 1_555 1_555
C20 C19 1_555 1_555
H23 C20 1_555 1_555
C21 C20 1_555 1_555
H24 C21 1_555 1_555
C22 C17 1_555 1_555
H25 C22 1_555 1_555
C23 B1 1_555 1_555
C24 C23 1_555 1_555
H26 C24 1_555 1_555
C25 C24 1_555 1_555
H27 C25 1_555 1_555
C26 C25 1_555 1_555
H28 C26 1_555 1_555
C27 C26 1_555 1_555
H29 C27 1_555 1_555
C28 C23 1_555 1_555
H30 C28 1_555 1_555
N2 C29 1_555 1_555
C29 C30 1_555 1_555
C30 H31 1_555 1_555
H32 C30 1_555 1_555
H33 C30 1_555 1_555
C2 N1 1_555 1_555
C9 C10 1_555 1_555
C15 C16 1_555 1_555
C21 C22 1_555 1_555
C27 C28 1_555 1_555

#END
