
#######################################################################
#
#                 Cambridge Crystallographic Data Centre
#                                CCDC 
#
#######################################################################
#
# If this CIF has been generated from an entry in the Cambridge 
# Structural Database, then it will include bibliographic, chemical, 
# crystal, experimental, refinement or atomic coordinate data resulting 
# from the CCDC's data processing and validation procedures.
#
#######################################################################

data_TODCAS
_chemical_formula_moiety         'C24 H20 B1 1-,C4 H8 N1 O1 1+'
_chemical_name_systematic        
'3-Methyl-4,5-dihydro-1,3-oxazol-3-ium tetraphenylborate'
_symmetry_cell_setting           monoclinic
_symmetry_space_group_name_H-M   'P 21/n'
_symmetry_Int_Tables_number      14
_space_group_name_Hall           '-P 2yn'
loop_
_symmetry_equiv_pos_site_id
_symmetry_equiv_pos_as_xyz
1 x,y,z
2 1/2-x,1/2+y,1/2-z
3 -x,-y,-z
4 1/2+x,1/2-y,1/2+z
_cell_length_a                   11.5335(5)
_cell_length_b                   12.7336(5)
_cell_length_c                   15.4615(6)
_cell_angle_alpha                90
_cell_angle_beta                 97.209(2)
_cell_angle_gamma                90
_cell_volume                     2252.77
_exptl_crystal_colour            colorless
_exptl_crystal_description       block
_cell_formula_units_Z            4
loop_
_atom_site_label
_atom_site_type_symbol
_atom_site_fract_x
_atom_site_fract_y
_atom_site_fract_z
O1 O 0.29582(10) 0.82850(9) 0.05090(7)
N1 N 0.19131(11) 0.72170(10) -0.03783(8)
C1 C 0.12968(15) 0.62651(13) -0.06886(12)
H1 H 0.1308 0.5763 -0.0207
H2 H 0.1682 0.5953 -0.1157
H3 H 0.0486 0.6438 -0.0910
C2 C 0.24007(14) 0.73900(13) 0.03931(10)
H4 H 0.2373(14) 0.6909(14) 0.0874(11)
C3 C 0.20739(15) 0.81045(13) -0.09530(10)
H5 H 0.1326 0.8469 -0.1140
H6 H 0.2430 0.7881 -0.1473
C4 C 0.29105(16) 0.87944(13) -0.03477(11)
H7 H 0.3695 0.8815 -0.0545
H8 H 0.2608 0.9520 -0.0327
B1 B 0.03919(13) 0.66080(11) 0.24639(10)
C5 C 0.17365(12) 0.62690(10) 0.23467(8)
C6 C 0.19991(13) 0.53557(11) 0.18986(9)
H9 H 0.1382 0.4886 0.1702
C7 C 0.31271(13) 0.51105(12) 0.17311(10)
H10 H 0.3268 0.4483 0.1429
C8 C 0.40428(13) 0.57852(13) 0.20057(10)
H11 H 0.4816 0.5619 0.1900
C9 C 0.38210(13) 0.67054(12) 0.24360(9)
H12 H 0.4441 0.7178 0.2619
C10 C 0.26874(12) 0.69362(11) 0.26002(9)
H13 H 0.2553 0.7570 0.2895
C11 C -0.00704(12) 0.72451(10) 0.15633(9)
C12 C -0.07167(12) 0.67791(11) 0.08382(9)
H14 H -0.0935 0.6063 0.0874
C13 C -0.10532(13) 0.73228(12) 0.00652(9)
H15 H -0.1496 0.6976 -0.0411
C14 C -0.07460(13) 0.83657(12) -0.00123(10)
H16 H -0.0981 0.8742 -0.0535
C15 C -0.00877(14) 0.88524(12) 0.06884(10)
H17 H 0.0136 0.9567 0.0644
C16 C 0.02451(13) 0.83001(11) 0.14535(9)
H18 H 0.0704 0.8648 0.1921
C17 C 0.03362(12) 0.73485(10) 0.33271(9)
C18 C -0.04958(12) 0.81456(11) 0.33464(9)
H19 H -0.1012 0.8287 0.2831
C19 C -0.05996(13) 0.87411(11) 0.40894(10)
H20 H -0.1178 0.9274 0.4074
C20 C 0.01404(13) 0.85559(12) 0.48497(10)
H21 H 0.0082 0.8964 0.5357
C21 C 0.09683(13) 0.77662(12) 0.48592(9)
H22 H 0.1481 0.7629 0.5377
C22 C 0.10522(12) 0.71728(11) 0.41142(9)
H23 H 0.1617 0.6627 0.4140
C23 C -0.04396(12) 0.56074(10) 0.26411(9)
C24 C 0.00033(13) 0.46996(11) 0.30783(9)
H24 H 0.0827 0.4615 0.3195
C25 C -0.07142(13) 0.39159(11) 0.33491(10)
H25 H -0.0376 0.3313 0.3643
C26 C -0.19191(13) 0.40137(11) 0.31916(10)
H26 H -0.2412 0.3486 0.3380
C27 C -0.23932(12) 0.48955(11) 0.27534(9)
H27 H -0.3217 0.4972 0.2637
C28 C -0.16617(12) 0.56695(10) 0.24834(9)
H28 H -0.2006 0.6263 0.2180
loop_
_geom_bond_atom_site_label_1
_geom_bond_atom_site_label_2
_geom_bond_site_symmetry_1
_geom_bond_site_symmetry_2
O1 C2 1_555 1_555
N1 C1 1_555 1_555
C1 H1 1_555 1_555
H2 C1 1_555 1_555
H3 C1 1_555 1_555
C2 N1 1_555 1_555
H4 C2 1_555 1_555
C3 N1 1_555 1_555
H5 C3 1_555 1_555
H6 C3 1_555 1_555
C4 O1 1_555 1_555
H7 C4 1_555 1_555
H8 C4 1_555 1_555
B1 C5 1_555 1_555
C5 C6 1_555 1_555
C6 H9 1_555 1_555
C7 C6 1_555 1_555
H10 C7 1_555 1_555
C8 C7 1_555 1_555
H11 C8 1_555 1_555
C9 C8 1_555 1_555
H12 C9 1_555 1_555
C10 C5 1_555 1_555
H13 C10 1_555 1_555
C11 B1 1_555 1_555
C12 C11 1_555 1_555
H14 C12 1_555 1_555
C13 C12 1_555 1_555
H15 C13 1_555 1_555
C14 C13 1_555 1_555
H16 C14 1_555 1_555
C15 C14 1_555 1_555
H17 C15 1_555 1_555
C16 C11 1_555 1_555
H18 C16 1_555 1_555
C17 B1 1_555 1_555
C18 C17 1_555 1_555
H19 C18 1_555 1_555
C19 C18 1_555 1_555
H20 C19 1_555 1_555
C20 C19 1_555 1_555
H21 C20 1_555 1_555
C21 C20 1_555 1_555
H22 C21 1_555 1_555
C22 C17 1_555 1_555
H23 C22 1_555 1_555
C23 B1 1_555 1_555
C24 C23 1_555 1_555
H24 C24 1_555 1_555
C25 C24 1_555 1_555
H25 C25 1_555 1_555
C26 C25 1_555 1_555
H26 C26 1_555 1_555
C27 C26 1_555 1_555
H27 C27 1_555 1_555
C28 C23 1_555 1_555
H28 C28 1_555 1_555
C3 C4 1_555 1_555
C9 C10 1_555 1_555
C15 C16 1_555 1_555
C21 C22 1_555 1_555
C27 C28 1_555 1_555

#END
