
#######################################################################
#
#                 Cambridge Crystallographic Data Centre
#                                CCDC 
#
#######################################################################
#
# If this CIF has been generated from an entry in the Cambridge 
# Structural Database, then it will include bibliographic, chemical, 
# crystal, experimental, refinement or atomic coordinate data resulting 
# from the CCDC's data processing and validation procedures.
#
#######################################################################

data_TOGCAV
_chemical_formula_moiety         'C25 H26 Br1 N1'
_chemical_name_systematic        
5-Bromo-1-(4-methylbenzyl)-3,3-diphenylpiperidine
_symmetry_cell_setting           monoclinic
_symmetry_space_group_name_H-M   'P 21/c'
_symmetry_Int_Tables_number      14
_space_group_name_Hall           '-P 2ybc'
loop_
_symmetry_equiv_pos_site_id
_symmetry_equiv_pos_as_xyz
1 x,y,z
2 -x,1/2+y,1/2-z
3 -x,-y,-z
4 x,1/2-y,1/2+z
_cell_length_a                   12.021(3)
_cell_length_b                   10.387(3)
_cell_length_c                   16.401(4)
_cell_angle_alpha                90
_cell_angle_beta                 92.093(4)
_cell_angle_gamma                90
_cell_volume                     2046.5
_exptl_crystal_colour            colorless
_exptl_crystal_description       Prism
_cell_formula_units_Z            4
loop_
_atom_site_label
_atom_site_type_symbol
_atom_site_fract_x
_atom_site_fract_y
_atom_site_fract_z
Br1 Br 0.022115(14) 0.754269(14) 0.059185(10)
N1 N 0.20993(10) 0.52106(10) 0.21790(7)
C1 C 0.26220(12) 0.74604(11) 0.25732(9)
C2 C 0.37259(12) 0.74790(12) 0.21272(9)
C3 C 0.44156(12) 0.64075(14) 0.20721(9)
H1 H 0.4203 0.5618 0.2314
C4 C 0.54136(13) 0.64761(15) 0.16670(9)
H2 H 0.5879 0.5739 0.1643
C5 C 0.57302(13) 0.76097(13) 0.12992(9)
H3 H 0.6398 0.7648 0.1007
C6 C 0.50583(13) 0.86922(15) 0.13624(9)
H4 H 0.5276 0.9480 0.1122
C7 C 0.40699(12) 0.86299(14) 0.17755(9)
H5 H 0.3623 0.9379 0.1819
C8 C 0.27633(12) 0.82871(13) 0.33489(8)
C9 C 0.36468(13) 0.80124(15) 0.38986(9)
H6 H 0.4156 0.7350 0.3771
C10 C 0.37998(15) 0.86811(14) 0.46256(9)
H7 H 0.4406 0.8473 0.4990
C11 C 0.30644(15) 0.96553(15) 0.48193(9)
H8 H 0.3158 1.0112 0.5319
C12 C 0.21964(14) 0.99546(15) 0.42793(10)
H9 H 0.1698 1.0629 0.4406
C13 C 0.20428(13) 0.92774(14) 0.35498(10)
H10 H 0.1439 0.9495 0.3185
C14 C 0.16638(12) 0.79362(15) 0.19968(9)
H11 H 0.0977 0.8038 0.2306
H12 H 0.1858 0.8784 0.1766
C15 C 0.14656(12) 0.69715(15) 0.13130(9)
H13 H 0.2153 0.6907 0.0990
C16 C 0.11821(12) 0.56488(14) 0.16383(9)
H14 H 0.0486 0.5692 0.1942
H15 H 0.1068 0.5037 0.1180
C17 C 0.22919(12) 0.61000(12) 0.28575(8)
H16 H 0.2891 0.5754 0.3225
H17 H 0.1607 0.6161 0.3172
C18 C 0.18959(13) 0.39002(13) 0.24769(9)
H18 H 0.1131 0.3849 0.2678
H19 H 0.2421 0.3713 0.2941
C19 C 0.20345(13) 0.28999(14) 0.18226(9)
C20 C 0.11608(13) 0.21062(15) 0.15658(9)
H20 H 0.0453 0.2203 0.1797
C21 C 0.13119(13) 0.11672(14) 0.09708(9)
H21 H 0.0707 0.0626 0.0808
C22 C 0.23300(13) 0.10124(13) 0.06146(9)
C23 C 0.32082(13) 0.18146(14) 0.08765(9)
H22 H 0.3914 0.1727 0.0640
C24 C 0.30657(14) 0.27357(14) 0.14759(10)
H23 H 0.3677 0.3259 0.1651
C25 C 0.24860(15) 0.00095(15) -0.00372(9)
H24 H 0.2030 -0.0747 0.0077
H25 H 0.3272 -0.0242 -0.0041
H26 H 0.2257 0.0366 -0.0571
loop_
_geom_bond_atom_site_label_1
_geom_bond_atom_site_label_2
_geom_bond_site_symmetry_1
_geom_bond_site_symmetry_2
Br1 C15 1_555 1_555
N1 C16 1_555 1_555
C1 C2 1_555 1_555
C2 C3 1_555 1_555
C3 H1 1_555 1_555
C4 C3 1_555 1_555
H2 C4 1_555 1_555
C5 C4 1_555 1_555
H3 C5 1_555 1_555
C6 C5 1_555 1_555
H4 C6 1_555 1_555
C7 C2 1_555 1_555
H5 C7 1_555 1_555
C8 C1 1_555 1_555
C9 C8 1_555 1_555
H6 C9 1_555 1_555
C10 C9 1_555 1_555
H7 C10 1_555 1_555
C11 C10 1_555 1_555
H8 C11 1_555 1_555
C12 C11 1_555 1_555
H9 C12 1_555 1_555
C13 C8 1_555 1_555
H10 C13 1_555 1_555
C14 C1 1_555 1_555
H11 C14 1_555 1_555
H12 C14 1_555 1_555
C15 C14 1_555 1_555
H13 C15 1_555 1_555
C16 C15 1_555 1_555
H14 C16 1_555 1_555
H15 C16 1_555 1_555
C17 N1 1_555 1_555
H16 C17 1_555 1_555
H17 C17 1_555 1_555
C18 N1 1_555 1_555
H18 C18 1_555 1_555
H19 C18 1_555 1_555
C19 C18 1_555 1_555
C20 C19 1_555 1_555
H20 C20 1_555 1_555
C21 C20 1_555 1_555
H21 C21 1_555 1_555
C22 C21 1_555 1_555
C23 C22 1_555 1_555
H22 C23 1_555 1_555
C24 C19 1_555 1_555
H23 C24 1_555 1_555
C25 C22 1_555 1_555
H24 C25 1_555 1_555
H25 C25 1_555 1_555
H26 C25 1_555 1_555
C1 C17 1_555 1_555
C6 C7 1_555 1_555
C12 C13 1_555 1_555
C23 C24 1_555 1_555

#END
