
#######################################################################
#
#                 Cambridge Crystallographic Data Centre
#                                CCDC 
#
#######################################################################
#
# If this CIF has been generated from an entry in the Cambridge 
# Structural Database, then it will include bibliographic, chemical, 
# crystal, experimental, refinement or atomic coordinate data resulting 
# from the CCDC's data processing and validation procedures.
#
#######################################################################

data_TOHGIG
_chemical_name_common            
'1-Methyl-4-(2-(4-hydroxy-3-methoxy phenyl)vinyl)-pyridinium 4-tolylsulfonate hydrate'
_chemical_formula_moiety         'C15 H16 N1 O2 1+,C7 H7 O3 S1 1-,H2 O1'
_chemical_name_systematic        
"4'-Hydroxy-3'-methoxy-N-methyl-4-stilbazolium tosylate monohydrate"
_symmetry_cell_setting           monoclinic
_symmetry_space_group_name_H-M   'P 21/c'
_symmetry_Int_Tables_number      14
_space_group_name_Hall           '-P 2ybc'
loop_
_symmetry_equiv_pos_site_id
_symmetry_equiv_pos_as_xyz
1 x,y,z
2 -x,1/2+y,1/2-z
3 -x,-y,-z
4 x,1/2-y,1/2+z
_cell_length_a                   10.9520(10)
_cell_length_b                   19.853(2)
_cell_length_c                   10.4960(10)
_cell_angle_alpha                90
_cell_angle_beta                 111.450(10)
_cell_angle_gamma                90
_cell_volume                     2124.08
_exptl_crystal_colour            orange-red
_cell_formula_units_Z            4
loop_
_atom_site_label
_atom_site_type_symbol
_atom_site_fract_x
_atom_site_fract_y
_atom_site_fract_z
S1 S 0.05614(6) 0.18855(3) 0.54415(6)
O1 O 0.1535(2) 0.22955(11) 0.6409(2)
O2 O -0.0557(2) 0.22827(10) 0.4650(2)
O3 O 0.1022(2) 0.14733(9) 0.4584(2)
C1 C -0.1546(4) -0.0042(3) 0.8633(5)
C2 C -0.1026(2) 0.04451(13) 0.7837(3)
C3 C -0.0673(3) 0.1092(2) 0.8291(3)
C4 C -0.0173(3) 0.15331(13) 0.7591(2)
C5 C -0.0024(2) 0.13257(10) 0.6397(2)
C6 C -0.0405(2) 0.06853(12) 0.5923(3)
C7 C -0.0892(3) 0.02506(14) 0.6637(3)
H4 H -0.0809(42) -0.0348(23) 0.9248(46)
H5 H -0.1826(32) 0.0196(16) 0.9223(35)
H6 H -0.2109(41) -0.0307(19) 0.8101(41)
H7 H -0.0681(24) 0.1226(13) 0.9068(27)
H8 H 0.0092(24) 0.1963(12) 0.7935(25)
H9 H -0.0334(25) 0.0541(13) 0.5103(28)
H10 H -0.1052(25) -0.0190(13) 0.6330(26)
O4 O -0.2829(2) 0.15015(9) 0.0565(2)
O5 O -0.5372(2) 0.14477(9) 0.0039(2)
N1 N -0.5663(2) -0.21462(9) 0.6484(2)
C8 C -0.3258(2) 0.10157(12) 0.1209(2)
C9 C -0.2434(3) 0.05515(13) 0.2090(3)
C10 C -0.2913(2) 0.00770(13) 0.2761(3)
C11 C -0.4235(2) 0.00581(11) 0.2558(2)
C12 C -0.5069(3) 0.05130(13) 0.1622(3)
C13 C -0.4601(2) 0.09821(12) 0.0949(2)
C14 C -0.6756(3) 0.1392(2) -0.0334(4)
C15 C -0.4778(3) -0.03998(13) 0.3311(3)
C16 C -0.4129(2) -0.08322(12) 0.4274(2)
C17 C -0.4693(2) -0.12675(11) 0.5031(2)
C18 C -0.3881(2) -0.17180(12) 0.5995(2)
C19 C -0.4383(2) -0.21425(12) 0.6691(3)
C20 C -0.6479(2) -0.17179(12) 0.5579(2)
C21 C -0.6020(2) -0.12781(12) 0.4862(2)
C22 C -0.6198(3) -0.2618(2) 0.7241(4)
H1 H -0.1834(27) 0.1558(16) 0.1010(32)
H11 H -0.1428(26) 0.0566(12) 0.2257(26)
H12 H -0.2303(24) -0.0241(12) 0.3389(25)
H13 H -0.5935(25) 0.0512(11) 0.1491(24)
H14 H -0.7108(28) 0.0943(15) -0.0703(29)
H15 H -0.7076(29) 0.1468(15) 0.0502(32)
H16 H -0.7160(29) 0.1706(15) -0.1026(32)
H17 H -0.5726(28) -0.0394(13) 0.3036(27)
H18 H -0.3154(26) -0.0876(13) 0.4458(26)
H19 H -0.2940(26) -0.1765(12) 0.6141(25)
H20 H -0.3820(25) -0.2444(12) 0.7365(26)
H21 H -0.7388(23) -0.1755(11) 0.5492(22)
H22 H -0.6674(24) -0.0981(12) 0.4238(25)
H23 H -0.5891(29) -0.2517(14) 0.8111(32)
H24 H -0.7237(33) -0.2607(22) 0.6764(46)
H25 H -0.5943(31) -0.3053(17) 0.7128(31)
O6 O -0.0214(2) 0.15429(11) 0.1696(3)
H2 H 0.0141(29) 0.1548(14) 0.2554(33)
H3 H 0.0100(29) 0.1886(16) 0.1425(30)
loop_
_geom_bond_atom_site_label_1
_geom_bond_atom_site_label_2
_geom_bond_site_symmetry_1
_geom_bond_site_symmetry_2
S1 O1 1_555 1_555
O2 S1 1_555 1_555
O3 S1 1_555 1_555
O4 C8 1_555 1_555
O5 C13 1_555 1_555
O6 H2 1_555 1_555
N1 C19 1_555 1_555
C1 C2 1_555 1_555
C2 C3 1_555 1_555
C3 C4 1_555 1_555
C4 C5 1_555 1_555
C5 S1 1_555 1_555
C6 C5 1_555 1_555
C7 C2 1_555 1_555
C8 C9 1_555 1_555
C9 C10 1_555 1_555
C10 C11 1_555 1_555
C11 C12 1_555 1_555
C12 C13 1_555 1_555
C13 C8 1_555 1_555
C14 O5 1_555 1_555
C15 C11 1_555 1_555
C16 C15 1_555 1_555
C17 C16 1_555 1_555
C18 C17 1_555 1_555
C19 C18 1_555 1_555
C20 N1 1_555 1_555
C21 C17 1_555 1_555
C22 N1 1_555 1_555
H1 O4 1_555 1_555
H3 O6 1_555 1_555
H4 C1 1_555 1_555
H5 C1 1_555 1_555
H6 C1 1_555 1_555
H7 C3 1_555 1_555
H8 C4 1_555 1_555
H9 C6 1_555 1_555
H10 C7 1_555 1_555
H11 C9 1_555 1_555
H12 C10 1_555 1_555
H13 C12 1_555 1_555
H14 C14 1_555 1_555
H15 C14 1_555 1_555
H16 C14 1_555 1_555
H17 C15 1_555 1_555
H18 C16 1_555 1_555
H19 C18 1_555 1_555
H20 C19 1_555 1_555
H21 C20 1_555 1_555
H22 C21 1_555 1_555
H23 C22 1_555 1_555
H24 C22 1_555 1_555
H25 C22 1_555 1_555
C6 C7 1_555 1_555
C20 C21 1_555 1_555

#END
