
#######################################################################
#
#                 Cambridge Crystallographic Data Centre
#                                CCDC 
#
#######################################################################
#
# If this CIF has been generated from an entry in the Cambridge 
# Structural Database, then it will include bibliographic, chemical, 
# crystal, experimental, refinement or atomic coordinate data resulting 
# from the CCDC's data processing and validation procedures.
#
#######################################################################

data_TOJNIP
_chemical_formula_moiety         'C28 H24 N6'
_chemical_name_systematic        
rac-2,3-bis(Benzotriazol-2-yl)-1,4-diphenylbutane
_symmetry_cell_setting           monoclinic
_symmetry_space_group_name_H-M   'P 2/n'
_symmetry_Int_Tables_number      13
_space_group_name_Hall           '-P 2yac'
loop_
_symmetry_equiv_pos_site_id
_symmetry_equiv_pos_as_xyz
1 x,y,z
2 1/2-x,y,1/2-z
3 -x,-y,-z
4 1/2+x,-y,1/2+z
_cell_length_a                   12.752(3)
_cell_length_b                   6.113(1)
_cell_length_c                   14.736(3)
_cell_angle_alpha                90
_cell_angle_beta                 104.05(3)
_cell_angle_gamma                90
_cell_volume                     1114.35
_cell_formula_units_Z            2
loop_
_atom_site_label
_atom_site_type_symbol
_atom_site_fract_x
_atom_site_fract_y
_atom_site_fract_z
C1 C 0.1932(1) 0.3889(3) 0.6481(1)
C2 C 0.2389(1) 0.1762(3) 0.6954(1)
N1 N 0.3483(1) -0.0876(2) 0.6368(1)
N2 N 0.3385(1) 0.1128(2) 0.6693(1)
N3 N 0.4247(1) 0.2459(2) 0.6827(1)
C3 C 0.4982(1) 0.1175(3) 0.6550(1)
C4 C 0.6068(1) 0.1622(3) 0.6525(1)
C5 C 0.6612(2) -0.0015(3) 0.6201(1)
C6 C 0.6131(2) -0.2052(3) 0.5898(1)
C7 C 0.5087(1) -0.2529(3) 0.5919(1)
C8 C 0.4509(1) -0.0865(3) 0.6261(1)
C9 C 0.1552(1) 0.3753(3) 0.5413(1)
C10 C 0.1062(1) 0.1919(3) 0.4947(1)
C11 C 0.0678(1) 0.1916(3) 0.3973(1)
C12 C 0.0786(1) 0.3750(3) 0.3462(1)
C13 C 0.1279(2) 0.5590(3) 0.3916(1)
C14 C 0.1666(1) 0.5588(3) 0.4889(1)
H1 H 0.2493(1) 0.5038(3) 0.6646(1)
H2 H 0.1314(1) 0.4345(3) 0.6733(1)
H3 H 0.1843(1) 0.0592(3) 0.6719(1)
H4 H 0.6399(1) 0.2989(3) 0.6723(1)
H5 H 0.7341(2) 0.0229(3) 0.6180(1)
H6 H 0.6544(2) -0.3126(3) 0.5673(1)
H7 H 0.4767(1) -0.3902(3) 0.5714(1)
H8 H 0.0985(1) 0.0642(3) 0.5293(1)
H9 H 0.0343(1) 0.0642(3) 0.3663(1)
H10 H 0.0521(1) 0.3750(3) 0.2802(1)
H11 H 0.1356(2) 0.6860(3) 0.3567(1)
H12 H 0.2011(1) 0.6858(3) 0.5195(1)
C2A C 0.2611(1) 0.1762(3) 0.8046(1)
C1A C 0.3068(1) 0.3889(3) 0.8519(1)
C9A C 0.3448(1) 0.3753(3) 0.9587(1)
C10A C 0.3938(1) 0.1919(3) 1.0053(1)
C11A C 0.4322(1) 0.1916(3) 1.1027(1)
C12A C 0.4214(1) 0.3750(3) 1.1538(1)
C13A C 0.3721(2) 0.5590(3) 1.1084(1)
C14A C 0.3334(1) 0.5588(3) 1.0111(1)
H12A H 0.2989(1) 0.6858(3) 0.9805(1)
H11A H 0.3644(2) 0.6860(3) 1.1433(1)
H10A H 0.4479(1) 0.3750(3) 1.2198(1)
H9A H 0.4657(1) 0.0642(3) 1.1337(1)
H8A H 0.4015(1) 0.0642(3) 0.9707(1)
H1A H 0.2507(1) 0.5038(3) 0.8354(1)
H2A H 0.3686(1) 0.4345(3) 0.8267(1)
N2A N 0.1615(1) 0.1128(2) 0.8307(1)
N1A N 0.1517(1) -0.0876(2) 0.8632(1)
C8A C 0.0491(1) -0.0865(3) 0.8739(1)
C3A C 0.0018(1) 0.1175(3) 0.8450(1)
N3A N 0.0753(1) 0.2459(2) 0.8173(1)
C4A C -0.1068(1) 0.1622(3) 0.8475(1)
C5A C -0.1612(2) -0.0015(3) 0.8799(1)
C6A C -0.1131(2) -0.2052(3) 0.9102(1)
C7A C -0.0087(1) -0.2529(3) 0.9081(1)
H7A H 0.0233(1) -0.3902(3) 0.9286(1)
H6A H -0.1544(2) -0.3126(3) 0.9327(1)
H5A H -0.2341(2) 0.0229(3) 0.8820(1)
H4A H -0.1399(1) 0.2989(3) 0.8277(1)
H3A H 0.3157(1) 0.0592(3) 0.8281(1)
loop_
_geom_bond_atom_site_label_1
_geom_bond_atom_site_label_2
_geom_bond_site_symmetry_1
_geom_bond_site_symmetry_2
C1 C2 1_555 1_555
C2 N2 1_555 1_555
N1 N2 1_555 1_555
N2 N3 1_555 1_555
N3 C3 1_555 1_555
C3 C4 1_555 1_555
C4 C5 1_555 1_555
C5 C6 1_555 1_555
C6 C7 1_555 1_555
C7 C8 1_555 1_555
C8 N1 1_555 1_555
C9 C1 1_555 1_555
C10 C9 1_555 1_555
C11 C10 1_555 1_555
C12 C11 1_555 1_555
C13 C12 1_555 1_555
C14 C9 1_555 1_555
H1 C1 1_555 1_555
H2 C1 1_555 1_555
H3 C2 1_555 1_555
H4 C4 1_555 1_555
H5 C5 1_555 1_555
H6 C6 1_555 1_555
H7 C7 1_555 1_555
H8 C10 1_555 1_555
H9 C11 1_555 1_555
H10 C12 1_555 1_555
H11 C13 1_555 1_555
H12 C14 1_555 1_555
C2A C2 1_555 1_555
C1A C2A 1_555 1_555
C9A C1A 1_555 1_555
C10A C9A 1_555 1_555
C11A C10A 1_555 1_555
C12A C11A 1_555 1_555
C13A C12A 1_555 1_555
C14A C9A 1_555 1_555
H12A C14A 1_555 1_555
H11A C13A 1_555 1_555
H10A C12A 1_555 1_555
H9A C11A 1_555 1_555
H8A C10A 1_555 1_555
H1A C1A 1_555 1_555
H2A C1A 1_555 1_555
N2A C2A 1_555 1_555
N1A N2A 1_555 1_555
C8A N1A 1_555 1_555
C3A C8A 1_555 1_555
N3A N2A 1_555 1_555
C4A C3A 1_555 1_555
C5A C4A 1_555 1_555
C6A C5A 1_555 1_555
C7A C8A 1_555 1_555
H7A C7A 1_555 1_555
H6A C6A 1_555 1_555
H5A C5A 1_555 1_555
H4A C4A 1_555 1_555
H3A C2A 1_555 1_555
C3 C8 1_555 1_555
C13 C14 1_555 1_555
C13A C14A 1_555 1_555
C3A N3A 1_555 1_555
C6A C7A 1_555 1_555

#END
