
#######################################################################
#
#                 Cambridge Crystallographic Data Centre
#                                CCDC 
#
#######################################################################
#
# If this CIF has been generated from an entry in the Cambridge 
# Structural Database, then it will include bibliographic, chemical, 
# crystal, experimental, refinement or atomic coordinate data resulting 
# from the CCDC's data processing and validation procedures.
#
#######################################################################

data_TOKDAA
_chemical_formula_moiety         'C22 H20 N2 O4 S1'
_chemical_name_systematic        
"ethyl 1'-methyl-2'',3-dioxo-1'',2''-dihydro-3H-dispiro[1-benzothiophene-2,3'-pyrrolidine-2',3''-indole]-4'-carboxylate"
_symmetry_cell_setting           triclinic
_symmetry_space_group_name_H-M   'P -1'
_symmetry_Int_Tables_number      2
_space_group_name_Hall           '-P 1'
loop_
_symmetry_equiv_pos_site_id
_symmetry_equiv_pos_as_xyz
1 x,y,z
2 -x,-y,-z
_cell_length_a                   8.7196(4)
_cell_length_b                   10.7874(5)
_cell_length_c                   11.3488(5)
_cell_angle_alpha                82.624(2)
_cell_angle_beta                 82.775(2)
_cell_angle_gamma                79.214(2)
_cell_volume                     1034.27
_exptl_crystal_colour            colorless
_exptl_crystal_description       Block
_cell_formula_units_Z            2
loop_
_atom_site_label
_atom_site_type_symbol
_atom_site_fract_x
_atom_site_fract_y
_atom_site_fract_z
S1 S 0.30889(4) 0.13663(3) 0.21159(3)
O1 O -0.05178(12) 0.36372(10) 0.34437(10)
O2 O 0.15077(17) 0.58243(10) 0.29000(11)
O3 O 0.2116(2) 0.32476(19) -0.07349(11)
O4 O 0.01130(15) 0.28291(12) 0.05809(10)
N1 N 0.18901(15) 0.47295(12) 0.47309(12)
H1 H 0.145(2) 0.5301(17) 0.5141(16)
N2 N 0.42620(15) 0.38340(12) 0.21313(10)
C1 C -0.11000(18) 0.09770(16) 0.37801(14)
H2 H -0.1955 0.1524 0.4109
C2 C -0.1138(2) -0.02952(17) 0.38248(16)
H3 H -0.2027 -0.0613 0.4179
C3 C 0.0142(2) -0.11030(16) 0.33441(16)
H4 H 0.0100 -0.1962 0.3379
C4 C 0.14759(19) -0.06681(14) 0.28153(14)
H5 H 0.2334 -0.1225 0.2503
C5 C 0.15164(16) 0.06238(12) 0.27566(11)
C6 C 0.02306(15) 0.14358(13) 0.32381(11)
C7 C 0.04308(15) 0.27552(13) 0.30944(11)
C8 C 0.20210(16) 0.29422(12) 0.24261(11)
C9 C 0.1918(2) 0.38436(14) 0.12494(12)
H6 H 0.1131 0.4595 0.1411
C10 C 0.3518(2) 0.42508(18) 0.10187(14)
H7 H 0.4142 0.3851 0.0355
H8 H 0.3404 0.5165 0.0835
C11 C 0.30303(16) 0.36257(12) 0.30895(12)
C12 C 0.20227(18) 0.48789(13) 0.35267(13)
C13 C 0.28113(15) 0.36078(13) 0.51820(12)
C14 C 0.35773(15) 0.29409(12) 0.42447(11)
C15 C 0.46804(16) 0.18729(13) 0.44844(13)
H9 H 0.5232 0.1431 0.3867
C16 C 0.49556(18) 0.14672(15) 0.56609(14)
H10 H 0.5709 0.0755 0.5832
C17 C 0.4122(2) 0.21104(16) 0.65801(14)
H11 H 0.4297 0.1805 0.7365
C18 C 0.30339(18) 0.31964(15) 0.63592(13)
H12 H 0.2475 0.3632 0.6978
C19 C 0.5353(2) 0.4616(2) 0.23767(18)
H13 H 0.6191 0.4613 0.1741
H14 H 0.5777 0.4281 0.3116
H15 H 0.4810 0.5470 0.2435
C20 C 0.1438(2) 0.32731(17) 0.02394(14)
C21 C -0.0480(3) 0.2184(2) -0.02642(17)
H16 H 0.0326 0.1509 -0.0550
H17 H -0.0799 0.2776 -0.0944
C22 C -0.1847(4) 0.1653(3) 0.0376(2)
H18 H -0.2277 0.1220 -0.0158
H19 H -0.2633 0.2329 0.0658
H20 H -0.1514 0.1066 0.1043
loop_
_geom_bond_atom_site_label_1
_geom_bond_atom_site_label_2
_geom_bond_site_symmetry_1
_geom_bond_site_symmetry_2
S1 C5 1_555 1_555
O1 C7 1_555 1_555
O2 C12 1_555 1_555
O3 C20 1_555 1_555
O4 C20 1_555 1_555
N1 H1 1_555 1_555
N2 C10 1_555 1_555
C1 H2 1_555 1_555
C2 C1 1_555 1_555
H3 C2 1_555 1_555
C3 C2 1_555 1_555
H4 C3 1_555 1_555
C4 C3 1_555 1_555
H5 C4 1_555 1_555
C5 C4 1_555 1_555
C6 C1 1_555 1_555
C7 C6 1_555 1_555
C8 S1 1_555 1_555
C9 C8 1_555 1_555
H6 C9 1_555 1_555
C10 C9 1_555 1_555
H7 C10 1_555 1_555
H8 C10 1_555 1_555
C11 N2 1_555 1_555
C12 N1 1_555 1_555
C13 N1 1_555 1_555
C14 C11 1_555 1_555
C15 C14 1_555 1_555
H9 C15 1_555 1_555
C16 C15 1_555 1_555
H10 C16 1_555 1_555
C17 C16 1_555 1_555
H11 C17 1_555 1_555
C18 C13 1_555 1_555
H12 C18 1_555 1_555
C19 N2 1_555 1_555
H13 C19 1_555 1_555
H14 C19 1_555 1_555
H15 C19 1_555 1_555
C20 C9 1_555 1_555
C21 O4 1_555 1_555
H16 C21 1_555 1_555
H17 C21 1_555 1_555
C22 C21 1_555 1_555
H18 C22 1_555 1_555
H19 C22 1_555 1_555
H20 C22 1_555 1_555
C5 C6 1_555 1_555
C7 C8 1_555 1_555
C8 C11 1_555 1_555
C11 C12 1_555 1_555
C13 C14 1_555 1_555
C17 C18 1_555 1_555

#END
