
#######################################################################
#
#                 Cambridge Crystallographic Data Centre
#                                CCDC 
#
#######################################################################
#
# If this CIF has been generated from an entry in the Cambridge 
# Structural Database, then it will include bibliographic, chemical, 
# crystal, experimental, refinement or atomic coordinate data resulting 
# from the CCDC's data processing and validation procedures.
#
#######################################################################

data_TOKTIY
_chemical_formula_moiety         'C29 H20 N2,C4 H8 O2'
_chemical_name_systematic        
'2-(9-Anthryl)-4,5-diphenyl-1H-imidazole ethyl acetate solvate'
_symmetry_cell_setting           orthorhombic
_symmetry_space_group_name_H-M   'P b c a'
_symmetry_Int_Tables_number      61
_space_group_name_Hall           '-P 2ac 2ab'
loop_
_symmetry_equiv_pos_site_id
_symmetry_equiv_pos_as_xyz
1 x,y,z
2 1/2-x,-y,1/2+z
3 -x,1/2+y,1/2-z
4 1/2+x,1/2-y,-z
5 -x,-y,-z
6 1/2+x,y,1/2-z
7 x,1/2-y,1/2+z
8 1/2-x,1/2+y,z
_cell_length_a                   12.852(5)
_cell_length_b                   15.692(5)
_cell_length_c                   25.641(8)
_cell_angle_alpha                90
_cell_angle_beta                 90
_cell_angle_gamma                90
_cell_volume                     5171.11
_cell_formula_units_Z            8
loop_
_atom_site_label
_atom_site_type_symbol
_atom_site_fract_x
_atom_site_fract_y
_atom_site_fract_z
N1 N 0.13990(14) 0.06931(12) 0.63919(7)
H1 H 0.1949 0.0387 0.6428
N2 N 0.03303(14) 0.16628(12) 0.60745(7)
C1 C -0.2494(3) 0.18080(19) 0.73209(13)
H2 H -0.2704 0.1789 0.7668
C2 C -0.3167(2) 0.21100(18) 0.69491(15)
H3 H -0.3828 0.2296 0.7044
C3 C -0.2863(2) 0.21358(18) 0.64385(13)
H4 H -0.3315 0.2345 0.6186
C4 C 0.4400(2) 0.33247(19) 0.60116(12)
H5 H 0.4915 0.3717 0.6098
C5 C 0.4379(2) 0.29752(17) 0.55283(11)
H6 H 0.4880 0.3132 0.5285
C6 C -0.1496(2) 0.15282(16) 0.71860(10)
H7 H -0.1044 0.1334 0.7443
C7 C -0.04943(19) -0.04053(15) 0.72265(9)
H8 H -0.1090 -0.0255 0.7042
C8 C -0.18839(19) 0.18504(16) 0.62982(10)
H9 H -0.1690 0.1865 0.5949
C9 C 0.1262(2) -0.08788(17) 0.77731(9)
H10 H 0.1857 -0.1041 0.7954
C10 C -0.0550(2) -0.10323(16) 0.76093(10)
H11 H -0.1183 -0.1294 0.7681
C11 C 0.0326(3) -0.12678(16) 0.78826(10)
H12 H 0.0286 -0.1686 0.8139
C12 C 0.14092(19) 0.00864(18) 0.45271(10)
H13 H 0.0941 -0.0345 0.4445
C13 C 0.2157(2) 0.03390(18) 0.41560(10)
H14 H 0.2174 0.0078 0.3830
C14 C 0.2874(2) 0.25338(16) 0.62640(9)
H15 H 0.2371 0.2405 0.6513
C15 C 0.3642(2) 0.30940(18) 0.63842(11)
H16 H 0.3669 0.3329 0.6717
C16 C 0.13241(19) -0.02477(15) 0.73955(9)
H17 H 0.1959 0.0013 0.7328
C17 C 0.2850(2) 0.09576(17) 0.42713(9)
H18 H 0.3340 0.1117 0.4023
C18 C -0.11799(17) 0.15407(13) 0.66666(8)
C19 C 0.13649(17) 0.04651(16) 0.50010(10)
H19 H 0.0863 0.0290 0.5239
C20 C 0.12510(16) 0.13006(14) 0.60255(8)
C21 C 0.20651(16) 0.15280(14) 0.56334(8)
C22 C 0.20738(16) 0.11277(14) 0.51428(8)
C23 C 0.05183(16) 0.06464(13) 0.66986(8)
C24 C 0.35794(17) 0.19864(15) 0.48980(9)
H20 H 0.4073 0.2147 0.4651
C25 C -0.01380(16) 0.12593(13) 0.64970(8)
C26 C 0.35980(17) 0.23685(14) 0.53865(9)
C27 C 0.28466(16) 0.13724(14) 0.47667(8)
C28 C 0.04429(17) -0.00011(13) 0.71170(8)
C29 C 0.28245(17) 0.21386(14) 0.57636(8)
C30 C 0.4182(2) 0.0108(2) 0.61897(12)
O1 O 0.33845(16) -0.00045(17) 0.64261(9)
O2 O 0.44295(18) -0.03453(18) 0.57734(10)
C31 C 0.4990(3) 0.0739(2) 0.63301(14)
H21 H 0.4775 0.1046 0.6635
H22 H 0.5085 0.1130 0.6046
H23 H 0.5633 0.0449 0.6400
C32 C 0.3780(3) -0.1098(3) 0.50448(16)
H24 H 0.3301 -0.1528 0.4930
H25 H 0.4475 -0.1260 0.4951
H26 H 0.3609 -0.0565 0.4882
C33 C 0.3709(4) -0.1009(3) 0.56031(18)
H27 H 0.3884 -0.1545 0.5770
H28 H 0.3004 -0.0858 0.5701
loop_
_geom_bond_atom_site_label_1
_geom_bond_atom_site_label_2
_geom_bond_site_symmetry_1
_geom_bond_site_symmetry_2
N1 H1 1_555 1_555
N2 C20 1_555 1_555
C1 H2 1_555 1_555
C2 C1 1_555 1_555
H3 C2 1_555 1_555
C3 C2 1_555 1_555
H4 C3 1_555 1_555
C4 H5 1_555 1_555
C5 C4 1_555 1_555
H6 C5 1_555 1_555
C6 C1 1_555 1_555
H7 C6 1_555 1_555
C7 H8 1_555 1_555
C8 C3 1_555 1_555
H9 C8 1_555 1_555
C9 H10 1_555 1_555
C10 C7 1_555 1_555
H11 C10 1_555 1_555
C11 C9 1_555 1_555
H12 C11 1_555 1_555
C12 H13 1_555 1_555
C13 C12 1_555 1_555
H14 C13 1_555 1_555
C14 H15 1_555 1_555
C15 C4 1_555 1_555
H16 C15 1_555 1_555
C16 C9 1_555 1_555
H17 C16 1_555 1_555
C17 C13 1_555 1_555
H18 C17 1_555 1_555
C18 C6 1_555 1_555
C19 C12 1_555 1_555
H19 C19 1_555 1_555
C20 N1 1_555 1_555
C21 C20 1_555 1_555
C22 C19 1_555 1_555
C23 N1 1_555 1_555
C24 H20 1_555 1_555
C25 N2 1_555 1_555
C26 C5 1_555 1_555
C27 C17 1_555 1_555
C28 C7 1_555 1_555
C29 C14 1_555 1_555
C30 O1 1_555 1_555
O2 C30 1_555 1_555
C31 C30 1_555 1_555
H21 C31 1_555 1_555
H22 C31 1_555 1_555
H23 C31 1_555 1_555
C32 H24 1_555 1_555
H25 C32 1_555 1_555
H26 C32 1_555 1_555
C33 O2 1_555 1_555
H27 C33 1_555 1_555
H28 C33 1_555 1_555
C8 C18 1_555 1_555
C10 C11 1_555 1_555
C14 C15 1_555 1_555
C16 C28 1_555 1_555
C18 C25 1_555 1_555
C21 C22 1_555 1_555
C21 C29 1_555 1_555
C22 C27 1_555 1_555
C23 C25 1_555 1_555
C23 C28 1_555 1_555
C24 C26 1_555 1_555
C24 C27 1_555 1_555
C26 C29 1_555 1_555
C32 C33 1_555 1_555

#END
