
#######################################################################
#
#                 Cambridge Crystallographic Data Centre
#                                CCDC 
#
#######################################################################
#
# If this CIF has been generated from an entry in the Cambridge 
# Structural Database, then it will include bibliographic, chemical, 
# crystal, experimental, refinement or atomic coordinate data resulting 
# from the CCDC's data processing and validation procedures.
#
#######################################################################

data_TOKVIZ
_chemical_formula_moiety         'C20 H24 O2'
_chemical_name_systematic        
trans-2-benzoyl-3-vinylspiro[5.5]undecan-1-one
_symmetry_cell_setting           monoclinic
_symmetry_space_group_name_H-M   'P 21/c'
_symmetry_Int_Tables_number      14
_space_group_name_Hall           '-P 2ybc'
loop_
_symmetry_equiv_pos_site_id
_symmetry_equiv_pos_as_xyz
1 x,y,z
2 -x,1/2+y,1/2-z
3 -x,-y,-z
4 x,1/2-y,1/2+z
_cell_length_a                   11.4799(13)
_cell_length_b                   17.225(2)
_cell_length_c                   17.214(2)
_cell_angle_alpha                90
_cell_angle_beta                 103.884(2)
_cell_angle_gamma                90
_cell_volume                     3304.47
_cell_formula_units_Z            8
loop_
_atom_site_label
_atom_site_type_symbol
_atom_site_fract_x
_atom_site_fract_y
_atom_site_fract_z
O1 O 0.2504(2) 0.06488(14) 0.69274(16)
O2 O 0.3521(3) 0.21003(16) 0.80493(16)
C1 C 0.3525(3) 0.0430(2) 0.7199(2)
C2 C 0.4471(3) 0.09990(18) 0.7648(2)
H1 H 0.5175 0.0975 0.7420
C3 C 0.4840(3) 0.0743(2) 0.8528(2)
H2 H 0.4127 0.0789 0.8745
C4 C 0.5212(3) -0.0109(2) 0.8593(2)
H3 H 0.5957 -0.0165 0.8426
H4 H 0.5359 -0.0270 0.9148
C5 C 0.4270(3) -0.0638(2) 0.8085(2)
H5 H 0.3560 -0.0631 0.8297
H6 H 0.4576 -0.1166 0.8130
C6 C 0.3908(3) -0.04113(19) 0.7191(2)
C7 C 0.2877(3) -0.0923(2) 0.6747(2)
H7 H 0.3096 -0.1463 0.6860
H8 H 0.2176 -0.0818 0.6952
C8 C 0.2547(4) -0.0808(2) 0.5852(3)
H9 H 0.2197 -0.0296 0.5731
H10 H 0.1947 -0.1188 0.5609
C9 C 0.3628(4) -0.0885(3) 0.5493(3)
H11 H 0.3913 -0.1418 0.5545
H12 H 0.3397 -0.0759 0.4927
C10 C 0.4627(4) -0.0345(2) 0.5915(3)
H13 H 0.5323 -0.0417 0.5696
H14 H 0.4364 0.0190 0.5823
C11 C 0.4966(3) -0.0505(2) 0.6804(2)
H15 H 0.5602 -0.0152 0.7059
H16 H 0.5274 -0.1030 0.6894
C12 C 0.3958(3) 0.1816(2) 0.7540(2)
C13 C 0.3925(3) 0.22335(19) 0.6782(2)
C14 C 0.3090(3) 0.2823(2) 0.6560(2)
H17 H 0.2594 0.2957 0.6894
C15 C 0.2990(3) 0.3213(2) 0.5850(3)
H18 H 0.2418 0.3603 0.5704
C16 C 0.3722(4) 0.3034(2) 0.5355(2)
H19 H 0.3644 0.3294 0.4872
C17 C 0.4571(3) 0.2467(2) 0.5580(2)
H20 H 0.5088 0.2355 0.5254
C18 C 0.4674(3) 0.2060(2) 0.6283(2)
H21 H 0.5245 0.1669 0.6421
C19 C 0.5798(4) 0.1240(3) 0.9037(3)
H22 H 0.5904 0.1180 0.9587
C20 C 0.6472(10) 0.1736(10) 0.8824(7)
H23 H 0.6417 0.1827 0.8283
H24 H 0.7030 0.2007 0.9209
O3 O 0.7682(2) 0.11121(15) 0.70677(16)
O4 O 0.8622(3) -0.03984(18) 0.82043(18)
C21 C 0.8731(3) 0.1278(2) 0.7339(2)
C22 C 0.9612(3) 0.06714(19) 0.7771(2)
H25 H 1.0293 0.0651 0.7520
C23 C 1.0084(4) 0.0903(2) 0.8654(2)
H26 H 0.9498 0.0793 0.8970
C24 C 1.0495(4) 0.1750(2) 0.8735(2)
H27 H 1.0666 0.1897 0.9294
H28 H 1.1234 0.1796 0.8559
C25 C 0.9580(3) 0.2305(2) 0.8256(2)
H29 H 0.9908 0.2826 0.8319
H30 H 0.8871 0.2300 0.8470
C26 C 0.9211(3) 0.2106(2) 0.7360(2)
C27 C 0.8245(3) 0.2670(2) 0.6929(2)
H31 H 0.7524 0.2586 0.7117
H32 H 0.8516 0.3196 0.7070
C28 C 0.7936(4) 0.2594(3) 0.6029(2)
H33 H 0.7376 0.3001 0.5798
H34 H 0.7543 0.2099 0.5880
C29 C 0.9039(4) 0.2647(3) 0.5689(2)
H35 H 0.8814 0.2554 0.5117
H36 H 0.9382 0.3164 0.5779
C30 C 0.9950(3) 0.2053(2) 0.6090(2)
H37 H 0.9621 0.1537 0.5966
H38 H 1.0662 0.2097 0.5882
C31 C 1.0288(3) 0.2164(2) 0.6980(2)
H39 H 1.0659 0.2670 0.7101
H40 H 1.0876 0.1774 0.7218
C32 C 0.8996(3) -0.0112(2) 0.7667(3)
C33 C 0.8789(3) -0.05160(19) 0.6877(2)
C34 C 0.9425(3) -0.0355(2) 0.6312(2)
H41 H 1.0040 0.0010 0.6421
C35 C 0.9156(4) -0.0732(2) 0.5588(3)
H42 H 0.9595 -0.0626 0.5211
C36 C 0.8237(4) -0.1268(2) 0.5417(3)
H43 H 0.8042 -0.1514 0.4921
C37 C 0.7615(3) -0.1434(2) 0.5982(3)
H44 H 0.7001 -0.1799 0.5873
C38 C 0.7894(3) -0.1066(2) 0.6705(2)
H45 H 0.7473 -0.1189 0.7087
C39 C 1.122(3) 0.0413(17) 0.8925(19)
H46 H 1.1736 0.0404 0.8583
C40 C 1.1543(18) 0.0007(12) 0.958(2)
H47 H 1.1061 -0.0005 0.9940
H48 H 1.2258 -0.0271 0.9680
C41? C 0.695(4) 0.114(4) 0.905(2)
C42? C 1.087(3) 0.0389(19) 0.9260(18)
C43? C 1.1573(17) -0.0075(19) 0.899(2)
H49? H 0.5583 0.1632 0.9347
H50? H 0.7193 0.0757 0.8750
H51? H 0.7519 0.1468 0.9374
H52? H 0.9344 0.0921 0.8843
H53? H 1.0863 0.0403 0.9799
H54? H 1.1565 -0.0076 0.8450
H55? H 1.2084 -0.0408 0.9341
loop_
_geom_bond_atom_site_label_1
_geom_bond_atom_site_label_2
_geom_bond_site_symmetry_1
_geom_bond_site_symmetry_2
O1 C1 1_555 1_555
O2 C12 1_555 1_555
O3 C21 1_555 1_555
O4 C32 1_555 1_555
C1 C2 1_555 1_555
C2 H1 1_555 1_555
C3 C2 1_555 1_555
H2 C3 1_555 1_555
C4 C3 1_555 1_555
H3 C4 1_555 1_555
H4 C4 1_555 1_555
C5 C4 1_555 1_555
H5 C5 1_555 1_555
H6 C5 1_555 1_555
C6 C1 1_555 1_555
C7 C6 1_555 1_555
H7 C7 1_555 1_555
H8 C7 1_555 1_555
C8 C7 1_555 1_555
H9 C8 1_555 1_555
H10 C8 1_555 1_555
C9 C8 1_555 1_555
H11 C9 1_555 1_555
H12 C9 1_555 1_555
C10 C9 1_555 1_555
H13 C10 1_555 1_555
H14 C10 1_555 1_555
C11 C6 1_555 1_555
H15 C11 1_555 1_555
H16 C11 1_555 1_555
C12 C2 1_555 1_555
C13 C12 1_555 1_555
C14 C13 1_555 1_555
H17 C14 1_555 1_555
C15 C14 1_555 1_555
H18 C15 1_555 1_555
C16 C15 1_555 1_555
H19 C16 1_555 1_555
C17 C16 1_555 1_555
H20 C17 1_555 1_555
C18 C13 1_555 1_555
H21 C18 1_555 1_555
C19 C3 1_555 1_555
H22 C19 1_555 1_555
C20 C19 1_555 1_555
H23 C20 1_555 1_555
H24 C20 1_555 1_555
C21 C22 1_555 1_555
C22 H25 1_555 1_555
C23 C22 1_555 1_555
H26 C23 1_555 1_555
C24 C23 1_555 1_555
H27 C24 1_555 1_555
H28 C24 1_555 1_555
C25 C24 1_555 1_555
H29 C25 1_555 1_555
H30 C25 1_555 1_555
C26 C21 1_555 1_555
C27 C26 1_555 1_555
H31 C27 1_555 1_555
H32 C27 1_555 1_555
C28 C27 1_555 1_555
H33 C28 1_555 1_555
H34 C28 1_555 1_555
C29 C28 1_555 1_555
H35 C29 1_555 1_555
H36 C29 1_555 1_555
C30 C29 1_555 1_555
H37 C30 1_555 1_555
H38 C30 1_555 1_555
C31 C26 1_555 1_555
H39 C31 1_555 1_555
H40 C31 1_555 1_555
C32 C22 1_555 1_555
C33 C32 1_555 1_555
C34 C33 1_555 1_555
H41 C34 1_555 1_555
C35 C34 1_555 1_555
H42 C35 1_555 1_555
C36 C35 1_555 1_555
H43 C36 1_555 1_555
C37 C36 1_555 1_555
H44 C37 1_555 1_555
C38 C33 1_555 1_555
H45 C38 1_555 1_555
C39 C23 1_555 1_555
H46 C39 1_555 1_555
C40 C39 1_555 1_555
H47 C40 1_555 1_555
H48 C40 1_555 1_555
C5 C6 1_555 1_555
C10 C11 1_555 1_555
C17 C18 1_555 1_555
C25 C26 1_555 1_555
C30 C31 1_555 1_555
C37 C38 1_555 1_555

#END
