
#######################################################################
#
#                 Cambridge Crystallographic Data Centre
#                                CCDC 
#
#######################################################################
#
# If this CIF has been generated from an entry in the Cambridge 
# Structural Database, then it will include bibliographic, chemical, 
# crystal, experimental, refinement or atomic coordinate data resulting 
# from the CCDC's data processing and validation procedures.
#
#######################################################################

data_TOMPAO
_chemical_name_common            
1-(3-Fluoro-4-hydroxy-5-(hydroxymethyl)tetrahydroselenophen-2-yl)pyrimidine-2,4(1H,3H)-dione
_chemical_formula_moiety         'C9 H11 F1 N2 O4 Se1'
_chemical_name_systematic        
(-)-1-(2-Deoxy-2-fluoro-4-seleno-D-arabinofuranosyl)uracil
_symmetry_cell_setting           monoclinic
_symmetry_space_group_name_H-M   'P 21'
_symmetry_Int_Tables_number      4
_space_group_name_Hall           'P 2yb'
loop_
_symmetry_equiv_pos_site_id
_symmetry_equiv_pos_as_xyz
1 x,y,z
2 -x,1/2+y,-z
_cell_length_a                   6.9286(5)
_cell_length_b                   6.7300(5)
_cell_length_c                   11.5320(8)
_cell_angle_alpha                90
_cell_angle_beta                 97.0470(10)
_cell_angle_gamma                90
_cell_volume                     533.669
_exptl_crystal_colour            colorless
_exptl_crystal_description       block
_chemical_melting_point          '211-215 deg.C'
_cell_formula_units_Z            2
loop_
_atom_site_label
_atom_site_type_symbol
_atom_site_fract_x
_atom_site_fract_y
_atom_site_fract_z
Se1 Se 0.98671(6) 0.22233(9) 0.40623(3)
O1 O 1.1778(5) 0.7424(7) 0.2118(3)
F1 F 0.7065(5) 0.3098(5) 0.1500(3)
O2 O 1.4272(5) 0.3608(6) -0.0584(3)
O3 O 0.6258(7) 0.5599(6) 0.4121(4)
O4 O 0.4241(6) 0.0002(6) 0.3598(3)
N1 N 1.2989(6) 0.5456(6) 0.0779(4)
C1 C 0.6262(9) 0.0090(8) 0.3434(5)
C2 C 0.7032(6) 0.2034(9) 0.4008(4)
C3 C 0.6188(8) 0.3899(7) 0.3380(5)
C4 C 0.9570(7) 0.4400(7) 0.2904(4)
N2 N 1.0827(6) 0.4143(6) 0.1976(4)
C5 C 0.7409(7) 0.4482(6) 0.2418(4)
H1 H 1.012(9) 0.552(10) 0.330(6)
H2 H 0.692(11) -0.001(10) 0.284(7)
H3 H 0.678(10) -0.096(11) 0.365(7)
H4 H 0.690(9) 0.259(10) 0.489(6)
H5 H 0.476(9) 0.344(9) 0.303(6)
H6 H 0.374(12) -0.080(13) 0.314(8)
H7 H 0.610(10) 0.547(10) 0.467(6)
H8 H 0.694(10) 0.571(12) 0.215(6)
H9 H 1.021(11) 0.138(11) 0.180(6)
H10 H 1.245(9) 0.082(10) 0.031(5)
H11 H 1.361(11) 0.663(12) 0.057(7)
C6 C 1.1863(7) 0.5775(7) 0.1656(4)
C7 C 1.3201(7) 0.3698(7) 0.0180(4)
C8 C 1.2118(7) 0.2025(9) 0.0586(4)
C9 C 1.1008(6) 0.2303(10) 0.1442(4)
loop_
_geom_bond_atom_site_label_1
_geom_bond_atom_site_label_2
_geom_bond_site_symmetry_1
_geom_bond_site_symmetry_2
Se1 C2 1_555 1_555
O1 C6 1_555 1_555
F1 C5 1_555 1_555
O2 C7 1_555 1_555
O3 C3 1_555 1_555
O4 C1 1_555 1_555
N1 H11 1_555 1_555
C1 C2 1_555 1_555
C2 C3 1_555 1_555
C3 C5 1_555 1_555
C4 Se1 1_555 1_555
N2 C4 1_555 1_555
C5 C4 1_555 1_555
H1 C4 1_555 1_555
H2 C1 1_555 1_555
H3 C1 1_555 1_555
H4 C2 1_555 1_555
H5 C3 1_555 1_555
H6 O4 1_555 1_555
H7 O3 1_555 1_555
H8 C5 1_555 1_555
H9 C9 1_555 1_555
H10 C8 1_555 1_555
C6 N1 1_555 1_555
C7 N1 1_555 1_555
C8 C7 1_555 1_555
C9 N2 1_555 1_555
N2 C6 1_555 1_555
C8 C9 1_555 1_555

#END
