
#######################################################################
#
#                 Cambridge Crystallographic Data Centre
#                                CCDC 
#
#######################################################################
#
# If this CIF has been generated from an entry in the Cambridge 
# Structural Database, then it will include bibliographic, chemical, 
# crystal, experimental, refinement or atomic coordinate data resulting 
# from the CCDC's data processing and validation procedures.
#
#######################################################################

data_TOMQAO
_chemical_formula_moiety         'C78 H44 N2 O11,2(C1 D1 Cl3)'
_chemical_name_systematic        
'16-(hydroxyamino)-13,32,35-tris(t-butylperoxy)-4-((2,2-diethoxyethyl)amino)-3,15:17,18-diepoxy-34H-C60fullerene deuterochloroform solvate'
_symmetry_cell_setting           triclinic
_symmetry_space_group_name_H-M   'P -1'
_symmetry_Int_Tables_number      2
_space_group_name_Hall           '-P 1'
loop_
_symmetry_equiv_pos_site_id
_symmetry_equiv_pos_as_xyz
1 x,y,z
2 -x,-y,-z
_cell_length_a                   14.3592(3)
_cell_length_b                   14.7852(2)
_cell_length_c                   15.7645(3)
_cell_angle_alpha                71.9454(8)
_cell_angle_beta                 78.6218(7)
_cell_angle_gamma                80.4127(6)
_cell_volume                     3099.52
_exptl_crystal_colour            red
_exptl_crystal_description       column
_cell_formula_units_Z            2
_exptl_crystal_recrystallization_method deuterochloroform
loop_
_atom_site_label
_atom_site_type_symbol
_atom_site_fract_x
_atom_site_fract_y
_atom_site_fract_z
O1 O 0.77002(16) 0.67399(15) 0.08190(14)
O2 O 0.99456(15) 0.76829(15) 0.03985(14)
O3 O 0.8870(2) 0.5233(2) 0.0303(3)
H1 H 0.9194 0.4760 0.0158
O4 O 0.79682(19) 0.73912(19) 0.35072(16)
O5 O 0.67710(19) 0.86023(18) 0.35951(16)
O6 O 0.89779(16) 0.56547(15) -0.19681(15)
O7 O 0.84265(17) 0.55109(15) -0.25935(15)
O8 O 1.15828(16) 0.88831(17) -0.13850(16)
O9 O 1.22353(16) 0.84714(17) -0.20591(16)
O10 O 1.12417(16) 0.74722(16) -0.32241(16)
O11 O 1.11750(18) 0.64481(16) -0.28106(16)
N1 N 0.8246(2) 0.8166(2) 0.15574(18)
H2 H 0.856(2) 0.7544(16) 0.178(2)
N2 N 0.95062(19) 0.59528(18) 0.02159(19)
H3 H 0.937(2) 0.608(2) 0.0777(16)
C1 C 0.9131(2) 0.6840(2) -0.0425(2)
C2 C 0.8059(2) 0.7031(2) -0.0153(2)
C3 C 0.7600(2) 0.7758(2) 0.0350(2)
C4 C 0.8171(2) 0.8407(2) 0.0603(2)
C5 C 0.9194(2) 0.8408(2) 0.0069(2)
C6 C 0.9631(2) 0.7698(2) -0.0426(2)
C7 C 1.0198(2) 0.8062(2) -0.1324(2)
C8 C 1.0058(2) 0.7602(2) -0.1894(2)
C9 C 0.9468(2) 0.6748(2) -0.1413(2)
H4 H 0.9936 0.6159 -0.1355
C10 C 0.8739(2) 0.6647(2) -0.1966(2)
C11 C 0.7700(2) 0.6887(2) -0.1588(2)
C12 C 0.7402(2) 0.7018(2) -0.0762(2)
C13 C 0.6530(2) 0.7651(2) -0.0604(2)
C14 C 0.6657(2) 0.8143(2) 0.0027(2)
C15 C 0.6287(2) 0.9074(2) -0.0087(2)
C16 C 0.6858(2) 0.9749(3) 0.0013(2)
C17 C 0.7762(2) 0.9446(2) 0.0240(2)
C18 C 0.8513(2) 1.0033(2) -0.0243(2)
C19 C 0.9386(2) 0.9414(2) -0.0398(2)
C20 C 1.0023(2) 0.9694(2) -0.1165(2)
C21 C 1.0643(2) 0.8983(2) -0.1614(2)
C22 C 1.0565(2) 0.9487(2) -0.2619(2)
C23 C 1.0432(2) 0.8999(2) -0.3179(2)
C24 C 1.0344(2) 0.7939(2) -0.2897(2)
C25 C 0.9501(2) 0.7903(2) -0.3335(2)
C26 C 0.8779(2) 0.7352(2) -0.2929(2)
C27 C 0.7835(2) 0.7673(2) -0.3130(2)
C28 C 0.7156(2) 0.7392(2) -0.2318(2)
C29 C 0.6317(2) 0.7967(2) -0.2166(2)
C30 C 0.5992(2) 0.8111(2) -0.1295(2)
C31 C 0.5601(2) 0.9088(3) -0.1399(3)
C32 C 0.5743(2) 0.9573(2) -0.0823(2)
C33 C 0.5978(2) 1.0548(2) -0.1166(3)
C34 C 0.6666(2) 1.0668(2) -0.0663(2)
C35 C 0.7391(2) 1.1232(2) -0.1073(2)
C36 C 0.8333(3) 1.0927(2) -0.0869(2)
C37 C 0.9006(2) 1.1198(2) -0.1674(2)
C38 C 0.9826(2) 1.0591(2) -0.1835(2)
C39 C 1.0151(2) 1.0458(2) -0.2714(2)
C40 C 0.9640(3) 1.0941(2) -0.3414(2)
C41 C 0.9493(3) 1.0434(2) -0.4021(2)
C42 C 0.9858(2) 0.9493(2) -0.3890(2)
C43 C 0.9299(2) 0.8823(2) -0.3990(2)
C44 C 0.8394(2) 0.9114(2) -0.4225(2)
C45 C 0.7642(2) 0.8523(2) -0.3777(2)
C46 C 0.6762(2) 0.9156(2) -0.3625(2)
C47 C 0.6116(2) 0.8879(2) -0.2838(2)
C48 C 0.5678(2) 0.9575(3) -0.2365(2)
C49 C 0.5894(2) 1.0510(2) -0.2697(2)
C50 C 0.6044(3) 1.1012(3) -0.2076(3)
C51 C 0.6812(3) 1.1610(2) -0.2533(2)
C52 C 0.7464(3) 1.1721(2) -0.2046(2)
C53 C 0.8461(3) 1.1701(2) -0.2414(2)
C54 C 0.8767(3) 1.1575(2) -0.3262(2)
C55 C 0.7125(3) 1.1471(2) -0.3414(2)
C56 C 0.8091(3) 1.1452(2) -0.3777(2)
C57 C 0.8538(3) 1.0761(2) -0.4248(2)
C58 C 0.7997(3) 1.0111(2) -0.4343(2)
C59 C 0.6988(3) 1.0130(2) -0.3971(2)
C60 C 0.6561(3) 1.0800(2) -0.3508(2)
C61 C 0.7362(3) 0.8269(3) 0.2177(2)
H5 H 0.6996 0.7722 0.2289
H6 H 0.6962 0.8865 0.1909
C62 C 0.7601(3) 0.8303(3) 0.3050(2)
H7 H 0.8090 0.8757 0.2923
C63 C 0.8376(4) 0.7374(4) 0.4276(3)
H8 H 0.7880 0.7620 0.4708
H9 H 0.8895 0.7794 0.4078
C64 C 0.8753(5) 0.6405(5) 0.4714(5)
H10 H 0.9031 0.6401 0.5235
H11 H 0.9248 0.6166 0.4286
H12 H 0.8236 0.5993 0.4916
C65 C 0.6698(5) 0.9569(4) 0.3588(4)
H13 H 0.6645 0.9990 0.2970
H14 H 0.7284 0.9686 0.3762
C66 C 0.5874(4) 0.9799(4) 0.4206(4)
H15 H 0.5834 1.0473 0.4187
H16 H 0.5934 0.9392 0.4820
H17 H 0.5295 0.9687 0.4031
C67 C 0.8074(3) 0.4584(3) -0.2200(3)
C68 C 0.7311(5) 0.4630(4) -0.1378(4)
H18 H 0.6800 0.5143 -0.1565
H19 H 0.7601 0.4760 -0.0922
H20 H 0.7043 0.4017 -0.1123
C69 C 0.7624(4) 0.4490(3) -0.2956(3)
H21 H 0.7088 0.4992 -0.3075
H22 H 0.7392 0.3861 -0.2779
H23 H 0.8102 0.4555 -0.3503
C70 C 0.8886(5) 0.3831(3) -0.1992(5)
H24 H 0.9159 0.3906 -0.1498
H25 H 0.9376 0.3889 -0.2529
H26 H 0.8658 0.3199 -0.1811
C71 C 1.2893(2) 0.7698(3) -0.1593(3)
C72 C 1.2384(3) 0.6835(3) -0.1072(3)
H27 H 1.2093 0.6629 -0.1484
H28 H 1.1884 0.7000 -0.0605
H29 H 1.2842 0.6315 -0.0788
C73 C 1.3602(3) 0.7520(3) -0.2397(3)
H30 H 1.3922 0.8095 -0.2717
H31 H 1.3262 0.7369 -0.2808
H32 H 1.4080 0.6982 -0.2183
C74 C 1.3369(3) 0.8055(4) -0.1003(4)
H33 H 1.3689 0.8616 -0.1373
H34 H 1.3840 0.7548 -0.0722
H35 H 1.2885 0.8233 -0.0532
C75 C 1.1597(3) 0.5942(3) -0.3473(3)
C76 C 1.1574(4) 0.4912(3) -0.2890(3)
H36 H 1.1996 0.4779 -0.2437
H37 H 1.1792 0.4480 -0.3270
H38 H 1.0919 0.4810 -0.2586
C77 C 1.2605(3) 0.6199(4) -0.3878(4)
H39 H 1.2997 0.6032 -0.3397
H40 H 1.2582 0.6888 -0.4182
H41 H 1.2886 0.5843 -0.4316
C78 C 1.0972(4) 0.6178(3) -0.4195(3)
H42 H 1.0330 0.6001 -0.3917
H43 H 1.1248 0.5821 -0.4632
H44 H 1.0933 0.6866 -0.4503
C79 C 0.4455(4) 0.4037(4) 0.8504(4)
Cl1 Cl 0.4496(2) 0.4586(2) 0.9418(2)
Cl2 Cl 0.5260(4) 0.3081(3) 0.8643(5)
Cl3 Cl 0.4720(2) 0.4926(3) 0.7520(2)
C80 C 0.4266(3) 0.3139(3) 0.5111(4)
Cl4 Cl 0.39843(14) 0.43473(11) 0.48637(12)
Cl5 Cl 0.4109(2) 0.29804(18) 0.39679(16)
Cl6 Cl 0.5344(2) 0.2684(3) 0.5260(3)
Cl7? Cl 0.4562(8) 0.5021(5) 0.8232(10)
Cl8? Cl 0.5338(4) 0.3083(6) 0.8895(6)
Cl9? Cl 0.4697(5) 0.3716(7) 0.7271(4)
Cl10? Cl 0.5083(6) 0.2589(4) 0.4548(5)
Cl11? Cl 0.5014(4) 0.3153(3) 0.6100(4)
H45? H 1.0780 0.5300 -0.0027
O12? O 1.0576(4) 0.5855(4) 0.0010(5)
loop_
_geom_bond_atom_site_label_1
_geom_bond_atom_site_label_2
_geom_bond_site_symmetry_1
_geom_bond_site_symmetry_2
O1 C2 1_555 1_555
O2 C5 1_555 1_555
O3 H1 1_555 1_555
O4 C62 1_555 1_555
O5 C62 1_555 1_555
O6 O7 1_555 1_555
O7 C67 1_555 1_555
O8 O9 1_555 1_555
O9 C71 1_555 1_555
O10 O11 1_555 1_555
O11 C75 1_555 1_555
N1 H2 1_555 1_555
N2 O3 1_555 1_555
H3 N2 1_555 1_555
C1 N2 1_555 1_555
C2 C1 1_555 1_555
C3 O1 1_555 1_555
C4 N1 1_555 1_555
C5 C4 1_555 1_555
C6 O2 1_555 1_555
C7 C6 1_555 1_555
C8 C7 1_555 1_555
C9 C1 1_555 1_555
H4 C9 1_555 1_555
C10 O6 1_555 1_555
C11 C10 1_555 1_555
C12 C2 1_555 1_555
C13 C12 1_555 1_555
C14 C3 1_555 1_555
C15 C14 1_555 1_555
C16 C15 1_555 1_555
C17 C4 1_555 1_555
C18 C17 1_555 1_555
C19 C5 1_555 1_555
C20 C19 1_555 1_555
C21 O8 1_555 1_555
C22 C21 1_555 1_555
C23 C22 1_555 1_555
C24 O10 1_555 1_555
C25 C24 1_555 1_555
C26 C10 1_555 1_555
C27 C26 1_555 1_555
C28 C11 1_555 1_555
C29 C28 1_555 1_555
C30 C13 1_555 1_555
C31 C30 1_555 1_555
C32 C15 1_555 1_555
C33 C32 1_555 1_555
C34 C16 1_555 1_555
C35 C34 1_555 1_555
C36 C18 1_555 1_555
C37 C36 1_555 1_555
C38 C20 1_555 1_555
C39 C22 1_555 1_555
C40 C39 1_555 1_555
C41 C40 1_555 1_555
C42 C23 1_555 1_555
C43 C25 1_555 1_555
C44 C43 1_555 1_555
C45 C27 1_555 1_555
C46 C45 1_555 1_555
C47 C29 1_555 1_555
C48 C31 1_555 1_555
C49 C48 1_555 1_555
C50 C33 1_555 1_555
C51 C50 1_555 1_555
C52 C35 1_555 1_555
C53 C37 1_555 1_555
C54 C40 1_555 1_555
C55 C51 1_555 1_555
C56 C54 1_555 1_555
C57 C41 1_555 1_555
C58 C44 1_555 1_555
C59 C46 1_555 1_555
C60 C49 1_555 1_555
C61 N1 1_555 1_555
H5 C61 1_555 1_555
H6 C61 1_555 1_555
C62 C61 1_555 1_555
H7 C62 1_555 1_555
C63 O4 1_555 1_555
H8 C63 1_555 1_555
H9 C63 1_555 1_555
C64 C63 1_555 1_555
H10 C64 1_555 1_555
H11 C64 1_555 1_555
H12 C64 1_555 1_555
C65 O5 1_555 1_555
H13 C65 1_555 1_555
H14 C65 1_555 1_555
C66 C65 1_555 1_555
H15 C66 1_555 1_555
H16 C66 1_555 1_555
H17 C66 1_555 1_555
C67 C68 1_555 1_555
C68 H18 1_555 1_555
H19 C68 1_555 1_555
H20 C68 1_555 1_555
C69 C67 1_555 1_555
H21 C69 1_555 1_555
H22 C69 1_555 1_555
H23 C69 1_555 1_555
C70 C67 1_555 1_555
H24 C70 1_555 1_555
H25 C70 1_555 1_555
H26 C70 1_555 1_555
C71 C72 1_555 1_555
C72 H27 1_555 1_555
H28 C72 1_555 1_555
H29 C72 1_555 1_555
C73 C71 1_555 1_555
H30 C73 1_555 1_555
H31 C73 1_555 1_555
H32 C73 1_555 1_555
C74 C71 1_555 1_555
H33 C74 1_555 1_555
H34 C74 1_555 1_555
H35 C74 1_555 1_555
C75 C76 1_555 1_555
C76 H36 1_555 1_555
H37 C76 1_555 1_555
H38 C76 1_555 1_555
C77 C75 1_555 1_555
H39 C77 1_555 1_555
H40 C77 1_555 1_555
H41 C77 1_555 1_555
C78 C75 1_555 1_555
H42 C78 1_555 1_555
H43 C78 1_555 1_555
H44 C78 1_555 1_555
C79 Cl1 1_555 1_555
Cl2 C79 1_555 1_555
Cl3 C79 1_555 1_555
C80 Cl4 1_555 1_555
Cl5 C80 1_555 1_555
Cl6 C80 1_555 1_555
C1 C6 1_555 1_555
C2 C3 1_555 1_555
C3 C4 1_555 1_555
C5 C6 1_555 1_555
C7 C21 1_555 1_555
C8 C9 1_555 1_555
C8 C24 1_555 1_555
C9 C10 1_555 1_555
C11 C12 1_555 1_555
C13 C14 1_555 1_555
C16 C17 1_555 1_555
C18 C19 1_555 1_555
C20 C21 1_555 1_555
C23 C24 1_555 1_555
C25 C26 1_555 1_555
C27 C28 1_555 1_555
C29 C30 1_555 1_555
C31 C32 1_555 1_555
C33 C34 1_555 1_555
C35 C36 1_555 1_555
C37 C38 1_555 1_555
C38 C39 1_555 1_555
C41 C42 1_555 1_555
C42 C43 1_555 1_555
C44 C45 1_555 1_555
C46 C47 1_555 1_555
C47 C48 1_555 1_555
C49 C50 1_555 1_555
C51 C52 1_555 1_555
C52 C53 1_555 1_555
C53 C54 1_555 1_555
C55 C56 1_555 1_555
C55 C60 1_555 1_555
C56 C57 1_555 1_555
C57 C58 1_555 1_555
C58 C59 1_555 1_555
C59 C60 1_555 1_555

#END
