
#######################################################################
#
#                 Cambridge Crystallographic Data Centre
#                                CCDC 
#
#######################################################################
#
# If this CIF has been generated from an entry in the Cambridge 
# Structural Database, then it will include bibliographic, chemical, 
# crystal, experimental, refinement or atomic coordinate data resulting 
# from the CCDC's data processing and validation procedures.
#
#######################################################################

data_TOMRIX
_chemical_formula_moiety         'C19 H15 Cl1 O6'
_chemical_name_systematic        
1-(4-Chlorophenyl)-2-(2-furoyl)-6,6-dimethyl-5,7-dioxaspiro[2.5]octane-4,8-dione
_symmetry_cell_setting           triclinic
_symmetry_space_group_name_H-M   'P -1'
_symmetry_Int_Tables_number      2
_space_group_name_Hall           '-P 1'
loop_
_symmetry_equiv_pos_site_id
_symmetry_equiv_pos_as_xyz
1 x,y,z
2 -x,-y,-z
_cell_length_a                   9.0852(14)
_cell_length_b                   9.8687(15)
_cell_length_c                   10.5006(16)
_cell_angle_alpha                103.326(2)
_cell_angle_beta                 93.037(2)
_cell_angle_gamma                105.752(2)
_cell_volume                     874.983
_exptl_crystal_colour            colorless
_chemical_melting_point          '177.4-177.9 deg.C'
_cell_formula_units_Z            2
loop_
_atom_site_label
_atom_site_type_symbol
_atom_site_fract_x
_atom_site_fract_y
_atom_site_fract_z
C1 C 0.3717(2) 0.5915(3) 0.1720(2)
H1 H 0.4509 0.6026 0.2438
C2 C 0.2523(2) 0.4498(3) 0.1394(2)
H2 H 0.2079 0.4158 0.0465
C3 C 0.2149(2) 0.5914(2) 0.2169(2)
C4 C 0.2087(3) 0.6151(2) 0.3615(2)
C5 C -0.0599(3) 0.5938(3) 0.3120(2)
C6 C 0.1057(3) 0.6439(2) 0.1446(2)
C7 C -0.1258(3) 0.4318(3) 0.2720(3)
H3 H -0.0516 0.3889 0.2309
H4 H -0.2174 0.4056 0.2107
H5 H -0.1510 0.3969 0.3485
C8 C -0.1667(4) 0.6725(4) 0.3783(3)
H6 H -0.1974 0.6372 0.4535
H7 H -0.2563 0.6556 0.3173
H8 H -0.1147 0.7750 0.4063
C9 C 0.2548(3) 0.3303(3) 0.2029(2)
C10 C 0.3751(3) 0.3377(3) 0.2925(2)
H9 H 0.4596 0.4206 0.3151
C11 C 0.3724(3) 0.2242(3) 0.3494(3)
H10 H 0.4544 0.2305 0.4095
C12 C 0.2483(3) 0.1027(3) 0.3165(3)
C13 C 0.1275(3) 0.0890(3) 0.2246(3)
H11 H 0.0446 0.0048 0.2015
C14 C 0.1318(3) 0.2026(3) 0.1677(3)
H12 H 0.0514 0.1940 0.1048
C15 C 0.4336(3) 0.6608(3) 0.0643(2)
C16 C 0.5323(3) 0.8094(3) 0.1092(3)
C17 C 0.6003(3) 0.8891(3) 0.0287(3)
H13 H 0.5926 0.8596 -0.0627
C18 C 0.6835(4) 1.0225(4) 0.1082(5)
H14 H 0.7410 1.1000 0.0785
C19 C 0.6697(5) 1.0243(4) 0.2314(5)
H15 H 0.7158 1.1021 0.3037
O1 O 0.3134(2) 0.6227(2) 0.43977(16)
O2 O 0.07716(19) 0.63468(19) 0.40468(15)
O3 O -0.02279(18) 0.65208(19) 0.19876(16)
O4 O 0.1263(2) 0.6800(2) 0.04384(16)
O5 O 0.4086(2) 0.5943(2) -0.05107(18)
O6 O 0.5715(3) 0.8859(3) 0.2356(3)
Cl1 Cl 0.24131(12) -0.03598(8) 0.39478(9)
loop_
_geom_bond_atom_site_label_1
_geom_bond_atom_site_label_2
_geom_bond_site_symmetry_1
_geom_bond_site_symmetry_2
C1 H1 1_555 1_555
C2 C1 1_555 1_555
H2 C2 1_555 1_555
C3 C1 1_555 1_555
C4 C3 1_555 1_555
C5 C7 1_555 1_555
C6 C3 1_555 1_555
C7 H3 1_555 1_555
H4 C7 1_555 1_555
H5 C7 1_555 1_555
C8 C5 1_555 1_555
H6 C8 1_555 1_555
H7 C8 1_555 1_555
H8 C8 1_555 1_555
C9 C2 1_555 1_555
C10 C9 1_555 1_555
H9 C10 1_555 1_555
C11 C10 1_555 1_555
H10 C11 1_555 1_555
C12 C11 1_555 1_555
C13 C12 1_555 1_555
H11 C13 1_555 1_555
C14 C9 1_555 1_555
H12 C14 1_555 1_555
C15 C1 1_555 1_555
C16 C15 1_555 1_555
C17 C16 1_555 1_555
H13 C17 1_555 1_555
C18 C17 1_555 1_555
H14 C18 1_555 1_555
C19 C18 1_555 1_555
H15 C19 1_555 1_555
O1 C4 1_555 1_555
O2 C4 1_555 1_555
O3 C5 1_555 1_555
O4 C6 1_555 1_555
O5 C15 1_555 1_555
O6 C16 1_555 1_555
Cl1 C12 1_555 1_555
C2 C3 1_555 1_555
C5 O2 1_555 1_555
C6 O3 1_555 1_555
C13 C14 1_555 1_555
C19 O6 1_555 1_555

#END
