
#######################################################################
#
#                 Cambridge Crystallographic Data Centre
#                                CCDC 
#
#######################################################################
#
# If this CIF has been generated from an entry in the Cambridge 
# Structural Database, then it will include bibliographic, chemical, 
# crystal, experimental, refinement or atomic coordinate data resulting 
# from the CCDC's data processing and validation procedures.
#
#######################################################################

data_TOMVUO
_chemical_formula_moiety         'C19 H15 Cl1 N2 O4'
_chemical_name_systematic        
'dimethyl 5-(4-chlorophenyl)-1-phenyl-1H-pyrazole-3,4-dicarboxylate'
_symmetry_cell_setting           triclinic
_symmetry_space_group_name_H-M   'P -1'
_symmetry_Int_Tables_number      2
_space_group_name_Hall           '-P 1'
loop_
_symmetry_equiv_pos_site_id
_symmetry_equiv_pos_as_xyz
1 x,y,z
2 -x,-y,-z
_cell_length_a                   8.9238(16)
_cell_length_b                   10.5590(18)
_cell_length_c                   11.636(2)
_cell_angle_alpha                63.623(3)
_cell_angle_beta                 88.104(3)
_cell_angle_gamma                66.937(3)
_cell_volume                     890.45
_exptl_crystal_colour            colorless
_exptl_crystal_description       prismatic
_cell_formula_units_Z            2
loop_
_atom_site_label
_atom_site_type_symbol
_atom_site_fract_x
_atom_site_fract_y
_atom_site_fract_z
Cl1 Cl 0.25558(11) 0.40896(10) 1.05843(6)
N1 N 0.2579(2) 0.5048(2) 0.32777(17)
N2 N 0.2729(2) 0.4420(2) 0.45973(16)
O1 O 0.1451(3) 0.8653(2) 0.47713(17)
O2 O 0.0735(2) 0.95764(19) 0.26543(16)
O3 O 0.1022(3) 0.7757(3) 0.06481(18)
O4 O 0.3024(2) 0.8198(2) 0.12337(16)
C1 C 0.2150(2) 0.6540(2) 0.2873(2)
C2 C 0.2010(2) 0.6900(2) 0.39088(19)
C3 C 0.2399(2) 0.5490(2) 0.5017(2)
C4 C 0.2445(2) 0.5119(2) 0.64010(19)
C5 C 0.3405(3) 0.5528(3) 0.6953(2)
H1 H 0.4021 0.6037 0.6449
C6 C 0.3462(3) 0.5190(3) 0.8245(2)
H2 H 0.4127 0.5449 0.8617
C7 C 0.2527(3) 0.4467(3) 0.8970(2)
C8 C 0.1551(3) 0.4047(3) 0.8447(2)
H3 H 0.0919 0.3560 0.8951
C9 C 0.1531(3) 0.4365(3) 0.7162(2)
H4 H 0.0895 0.4070 0.6802
C10 C 0.3254(2) 0.2770(2) 0.5347(2)
C11 C 0.4515(3) 0.1911(3) 0.6388(2)
H5 H 0.5028 0.2395 0.6626
C12 C 0.5016(3) 0.0323(3) 0.7079(3)
H6 H 0.5874 -0.0270 0.7787
C13 C 0.4255(4) -0.0388(3) 0.6727(3)
H7 H 0.4596 -0.1461 0.7200
C14 C 0.2995(4) 0.0477(3) 0.5683(3)
H8 H 0.2486 -0.0010 0.5444
C15 C 0.2478(3) 0.2073(3) 0.4982(2)
H9 H 0.1619 0.2667 0.4274
C16 C 0.1402(3) 0.8438(2) 0.3851(2)
C17 C 0.0119(4) 1.1138(3) 0.2479(3)
H10 H -0.0667 1.1269 0.3046
H11 H -0.0407 1.1863 0.1591
H12 H 0.1021 1.1326 0.2682
C18 C 0.1969(3) 0.7563(3) 0.1455(2)
C19 C 0.2991(5) 0.9209(4) -0.0108(3)
H13 H 0.3333 0.8612 -0.0571
H14 H 0.3730 0.9683 -0.0153
H15 H 0.1889 1.0005 -0.0493
loop_
_geom_bond_atom_site_label_1
_geom_bond_atom_site_label_2
_geom_bond_site_symmetry_1
_geom_bond_site_symmetry_2
Cl1 C7 1_555 1_555
N1 N2 1_555 1_555
N2 C3 1_555 1_555
O1 C16 1_555 1_555
O2 C16 1_555 1_555
O3 C18 1_555 1_555
O4 C18 1_555 1_555
C1 N1 1_555 1_555
C2 C1 1_555 1_555
C3 C2 1_555 1_555
C4 C3 1_555 1_555
C5 C4 1_555 1_555
H1 C5 1_555 1_555
C6 C5 1_555 1_555
H2 C6 1_555 1_555
C7 C6 1_555 1_555
C8 C7 1_555 1_555
H3 C8 1_555 1_555
C9 C4 1_555 1_555
H4 C9 1_555 1_555
C10 N2 1_555 1_555
C11 C10 1_555 1_555
H5 C11 1_555 1_555
C12 C11 1_555 1_555
H6 C12 1_555 1_555
C13 C12 1_555 1_555
H7 C13 1_555 1_555
C14 C13 1_555 1_555
H8 C14 1_555 1_555
C15 C10 1_555 1_555
H9 C15 1_555 1_555
C16 C2 1_555 1_555
C17 O2 1_555 1_555
H10 C17 1_555 1_555
H11 C17 1_555 1_555
H12 C17 1_555 1_555
C18 C1 1_555 1_555
C19 O4 1_555 1_555
H13 C19 1_555 1_555
H14 C19 1_555 1_555
H15 C19 1_555 1_555
C8 C9 1_555 1_555
C14 C15 1_555 1_555

#END
