
#######################################################################
#
#                 Cambridge Crystallographic Data Centre
#                                CCDC 
#
#######################################################################
#
# If this CIF has been generated from an entry in the Cambridge 
# Structural Database, then it will include bibliographic, chemical, 
# crystal, experimental, refinement or atomic coordinate data resulting 
# from the CCDC's data processing and validation procedures.
#
#######################################################################

data_TONPES
_chemical_formula_moiety         'C22 H21 N1 S2'
_chemical_name_systematic        N-Hexyldibenzothieno[3,2-b:2',3'-d]pyrrole
_symmetry_cell_setting           monoclinic
_symmetry_space_group_name_H-M   'P 21/c'
_symmetry_Int_Tables_number      14
_space_group_name_Hall           '-P 2ybc'
loop_
_symmetry_equiv_pos_site_id
_symmetry_equiv_pos_as_xyz
1 x,y,z
2 -x,1/2+y,1/2-z
3 -x,-y,-z
4 x,1/2-y,1/2+z
_cell_length_a                   11.582(2)
_cell_length_b                   8.1596(16)
_cell_length_c                   19.770(4)
_cell_angle_alpha                90
_cell_angle_beta                 106.89(3)
_cell_angle_gamma                90
_cell_volume                     1787.76
_exptl_crystal_colour            'light yellow'
_chemical_melting_point          '134-136 deg.C'
_cell_formula_units_Z            4
_exptl_crystal_recrystallization_method dichloromethane
loop_
_atom_site_label
_atom_site_type_symbol
_atom_site_fract_x
_atom_site_fract_y
_atom_site_fract_z
S1 S 0.90319(4) 0.52559(5) 0.042930(18)
S2 S 1.26979(4) 0.51766(5) 0.137294(19)
N1 N 1.04684(12) 0.67980(15) 0.23227(6)
C1 C 0.78732(15) 0.59847(18) 0.07596(8)
C2 C 0.66599(15) 0.6025(2) 0.03788(8)
H1 H 0.6398 0.5584 -0.0074
C3 C 0.58438(16) 0.6736(2) 0.06855(9)
H2 H 0.5029 0.6788 0.0436
C4 C 0.62510(16) 0.7375(2) 0.13723(9)
H3 H 0.5700 0.7860 0.1571
C5 C 0.74457(16) 0.72996(18) 0.17574(8)
H4 H 0.7692 0.7706 0.2217
C6 C 0.82970(15) 0.66090(17) 0.14585(7)
C7 C 0.95862(14) 0.64518(17) 0.17061(7)
C8 C 1.01109(14) 0.57943(17) 0.12129(7)
C9 C 1.13656(14) 0.57437(18) 0.15445(7)
C10 C 1.15658(15) 0.63665(17) 0.22273(7)
C11 C 1.28087(15) 0.64477(18) 0.26316(7)
C12 C 1.33978(16) 0.7024(2) 0.33141(8)
H5 H 1.2952 0.7474 0.3591
C13 C 1.46392(17) 0.6923(2) 0.35753(8)
H6 H 1.5022 0.7316 0.4026
C14 C 1.53276(17) 0.6241(2) 0.31719(9)
H7 H 1.6161 0.6172 0.3360
C15 C 1.47847(16) 0.5668(2) 0.24986(8)
H8 H 1.5243 0.5211 0.2231
C16 C 1.35340(15) 0.57892(18) 0.22275(7)
C17 C 1.02218(15) 0.72162(18) 0.29909(7)
H9 H 0.9635 0.8098 0.2908
H10 H 1.0959 0.7603 0.3327
C18 C 0.97392(16) 0.57456(18) 0.33050(8)
H11 H 0.9108 0.5218 0.2937
H12 H 1.0385 0.4958 0.3478
C19 C 0.92379(15) 0.62367(18) 0.39075(8)
H13 H 0.8685 0.7147 0.3753
H14 H 0.9898 0.6614 0.4302
C20 C 0.85779(16) 0.48526(18) 0.41627(8)
H15 H 0.7955 0.4414 0.3764
H16 H 0.9144 0.3977 0.4357
C21 C 0.80050(16) 0.5437(2) 0.47240(8)
H17 H 0.7522 0.6403 0.4551
H18 H 0.8639 0.5749 0.5145
C22 C 0.72085(19) 0.4137(2) 0.49221(10)
H19 H 0.6582 0.3815 0.4507
H20 H 0.6853 0.4581 0.5265
H21 H 0.7690 0.3199 0.5119
loop_
_geom_bond_atom_site_label_1
_geom_bond_atom_site_label_2
_geom_bond_site_symmetry_1
_geom_bond_site_symmetry_2
S1 C1 1_555 1_555
S2 C9 1_555 1_555
N1 C7 1_555 1_555
C1 C2 1_555 1_555
C2 H1 1_555 1_555
C3 C2 1_555 1_555
H2 C3 1_555 1_555
C4 C3 1_555 1_555
H3 C4 1_555 1_555
C5 C4 1_555 1_555
H4 C5 1_555 1_555
C6 C1 1_555 1_555
C7 C6 1_555 1_555
C8 S1 1_555 1_555
C9 C8 1_555 1_555
C10 N1 1_555 1_555
C11 C10 1_555 1_555
C12 C11 1_555 1_555
H5 C12 1_555 1_555
C13 C12 1_555 1_555
H6 C13 1_555 1_555
C14 C13 1_555 1_555
H7 C14 1_555 1_555
C15 C14 1_555 1_555
H8 C15 1_555 1_555
C16 S2 1_555 1_555
C17 N1 1_555 1_555
H9 C17 1_555 1_555
H10 C17 1_555 1_555
C18 C17 1_555 1_555
H11 C18 1_555 1_555
H12 C18 1_555 1_555
C19 C18 1_555 1_555
H13 C19 1_555 1_555
H14 C19 1_555 1_555
C20 C19 1_555 1_555
H15 C20 1_555 1_555
H16 C20 1_555 1_555
C21 C20 1_555 1_555
H17 C21 1_555 1_555
H18 C21 1_555 1_555
C22 C21 1_555 1_555
H19 C22 1_555 1_555
H20 C22 1_555 1_555
H21 C22 1_555 1_555
C5 C6 1_555 1_555
C7 C8 1_555 1_555
C9 C10 1_555 1_555
C11 C16 1_555 1_555
C15 C16 1_555 1_555

#END
