
#######################################################################
#
#                 Cambridge Crystallographic Data Centre
#                                CCDC 
#
#######################################################################
#
# If this CIF has been generated from an entry in the Cambridge 
# Structural Database, then it will include bibliographic, chemical, 
# crystal, experimental, refinement or atomic coordinate data resulting 
# from the CCDC's data processing and validation procedures.
#
#######################################################################

data_TOPCEH
_chemical_name_common            
'(8-Allyl-7,11-dihydroxy-8,10,12-trimethyl-3-(1-(2-methyl-1,3-thiazol-4-yl)-1-propen-2-yl)-5,9-dioxo-4,17-dioxabicyclo[14.1.0]heptadec-16-yl)methyl benzoate'
_chemical_formula_moiety         'C36 H47 N1 O8 S1'
_chemical_name_systematic        
'(4R)-4-Allyl-4-demethyl-26-(benzyloxy)-6S,7R-epothilone B'
_symmetry_cell_setting           orthorhombic
_symmetry_space_group_name_H-M   'P 21 21 21'
_symmetry_Int_Tables_number      19
_space_group_name_Hall           'P 2ac 2ab'
loop_
_symmetry_equiv_pos_site_id
_symmetry_equiv_pos_as_xyz
1 x,y,z
2 1/2-x,-y,1/2+z
3 1/2+x,1/2-y,-z
4 -x,1/2+y,1/2-z
_cell_length_a                   6.0080(11)
_cell_length_b                   17.848(2)
_cell_length_c                   30.989(4)
_cell_angle_alpha                90
_cell_angle_beta                 90
_cell_angle_gamma                90
_cell_volume                     3322.97
_exptl_crystal_colour            colorless
_exptl_crystal_description       needle
_cell_formula_units_Z            4
_exptl_crystal_recrystallization_method hexanes/acetone
loop_
_atom_site_label
_atom_site_type_symbol
_atom_site_fract_x
_atom_site_fract_y
_atom_site_fract_z
S1 S 1.0640(5) 0.11291(13) 0.29495(6)
O1 O 1.0293(12) 0.2312(3) 0.51919(17)
O2 O 0.5562(11) 0.0696(3) 0.56868(16)
H1 H 0.5458 0.0861 0.5434
O3 O 0.2364(15) 0.0680(3) 0.6651(2)
O4 O 0.2588(12) -0.0764(3) 0.68809(17)
H2 H 0.1709 -0.0400 0.6859
O5 O 0.7747(12) -0.0390(3) 0.50217(16)
O6 O 0.9611(11) 0.1081(3) 0.52816(15)
O7 O 0.7554(13) -0.1493(3) 0.43882(17)
O8 O 0.3869(13) -0.1630(3) 0.4562(2)
N1 N 1.3749(13) 0.1312(4) 0.3496(2)
C1 C 0.9244(19) 0.1828(6) 0.5350(3)
C2 C 0.7440(18) 0.1912(4) 0.5697(3)
H3 H 0.7954 0.2296 0.5904
H4 H 0.6092 0.2114 0.5554
C3 C 0.6752(15) 0.1231(4) 0.5951(3)
H5 H 0.8126 0.0983 0.6065
C4 C 0.5254(17) 0.1417(4) 0.6331(2)
C5 C 0.424(2) 0.0681(5) 0.6527(3)
C6 C 0.5687(16) -0.0025(4) 0.6589(2)
H6 H 0.6849 -0.0039 0.6358
C7 C 0.4222(17) -0.0721(5) 0.6548(3)
H7 H 0.3419 -0.0688 0.6266
C8 C 0.5434(17) -0.1485(5) 0.6562(2)
H8 H 0.5909 -0.1567 0.6868
C9 C 0.7544(17) -0.1520(5) 0.6284(2)
H9 H 0.8238 -0.2019 0.6323
H10 H 0.8611 -0.1141 0.6392
C10 C 0.7166(18) -0.1385(4) 0.5796(2)
H11 H 0.6326 -0.1813 0.5673
H12 H 0.6258 -0.0928 0.5756
C11 C 0.9360(17) -0.1297(4) 0.5551(2)
H13 H 1.0262 -0.0901 0.5691
H14 H 1.0207 -0.1772 0.5568
C12 C 0.8986(16) -0.1094(5) 0.5080(2)
C13 C 1.0065(18) -0.0457(4) 0.4860(3)
H15 H 1.0177 -0.0517 0.4540
C14 C 1.1771(17) 0.0056(4) 0.5048(3)
H16 H 1.3244 -0.0071 0.4925
H17 H 1.1847 -0.0029 0.5364
C15 C 1.1285(18) 0.0891(4) 0.4964(3)
H18 H 1.2662 0.1190 0.5021
C16 C 1.052(2) 0.1029(4) 0.4502(3)
C17 C 1.2124(18) 0.1083(4) 0.4206(3)
H19 H 1.3610 0.1088 0.4311
C18 C 1.184(2) 0.1136(5) 0.3728(3)
C19 C 0.9979(18) 0.1024(5) 0.3476(3)
H20 H 0.8540 0.0904 0.3583
C20 C 1.3372(17) 0.1336(4) 0.3077(3)
C21 C 1.4989(19) 0.1531(5) 0.2745(3)
H21 H 1.5817 0.1978 0.2834
H22 H 1.4211 0.1632 0.2473
H23 H 1.6026 0.1113 0.2704
C22 C 0.3282(18) 0.1921(5) 0.6193(3)
H24 H 0.3835 0.2423 0.6122
H25 H 0.2211 0.1956 0.6431
H26 H 0.2550 0.1704 0.5940
C23 C 0.6627(19) 0.1812(4) 0.6689(3)
H27 H 0.7987 0.1513 0.6744
H28 H 0.7106 0.2308 0.6580
C24 C 0.544(2) 0.1925(4) 0.7111(3)
H29 H 0.3903 0.2046 0.7111
C25 C 0.652(3) 0.1858(5) 0.7486(3)
H30 H 0.8064 0.1737 0.7489
H31 H 0.5752 0.1932 0.7751
C26 C 0.6857(17) -0.0011(5) 0.7037(3)
H32 H 0.5731 0.0001 0.7265
H33 H 0.7798 0.0436 0.7057
H34 H 0.7779 -0.0460 0.7069
C27 C 0.3804(17) -0.2123(5) 0.6449(3)
H35 H 0.3345 -0.2076 0.6146
H36 H 0.2491 -0.2092 0.6635
H37 H 0.4540 -0.2607 0.6492
C28 C 0.8171(18) -0.1754(4) 0.4810(3)
H38 H 0.9364 -0.2134 0.4785
H39 H 0.6872 -0.1991 0.4951
C29 C 0.532(3) -0.1443(4) 0.4313(3)
C30 C 0.4889(18) -0.1115(5) 0.3871(3)
C31 C 0.2763(19) -0.1170(5) 0.3714(3)
H40 H 0.1615 -0.1380 0.3887
C32 C 0.230(2) -0.0912(5) 0.3293(3)
H41 H 0.0843 -0.0966 0.3177
C33 C 0.392(2) -0.0585(5) 0.3056(3)
H42 H 0.3590 -0.0400 0.2776
C34 C 0.601(2) -0.0520(5) 0.3213(3)
H43 H 0.7139 -0.0295 0.3040
C35 C 0.655(2) -0.0784(5) 0.3632(3)
H44 H 0.8011 -0.0734 0.3745
C36 C 0.8077(17) 0.1053(5) 0.4417(2)
H45 H 0.7752 0.1452 0.4209
H46 H 0.7283 0.1153 0.4687
H47 H 0.7592 0.0570 0.4299
loop_
_geom_bond_atom_site_label_1
_geom_bond_atom_site_label_2
_geom_bond_site_symmetry_1
_geom_bond_site_symmetry_2
S1 C19 1_555 1_555
O1 C1 1_555 1_555
O2 H1 1_555 1_555
O3 C5 1_555 1_555
O4 H2 1_555 1_555
O5 C12 1_555 1_555
O6 C1 1_555 1_555
O7 C28 1_555 1_555
O8 C29 1_555 1_555
N1 C18 1_555 1_555
C1 C2 1_555 1_555
C2 H3 1_555 1_555
H4 C2 1_555 1_555
C3 O2 1_555 1_555
H5 C3 1_555 1_555
C4 C3 1_555 1_555
C5 C4 1_555 1_555
C6 C5 1_555 1_555
H6 C6 1_555 1_555
C7 O4 1_555 1_555
H7 C7 1_555 1_555
C8 C7 1_555 1_555
H8 C8 1_555 1_555
C9 C8 1_555 1_555
H9 C9 1_555 1_555
H10 C9 1_555 1_555
C10 C9 1_555 1_555
H11 C10 1_555 1_555
H12 C10 1_555 1_555
C11 C10 1_555 1_555
H13 C11 1_555 1_555
H14 C11 1_555 1_555
C12 C11 1_555 1_555
C13 O5 1_555 1_555
H15 C13 1_555 1_555
C14 C13 1_555 1_555
H16 C14 1_555 1_555
H17 C14 1_555 1_555
C15 O6 1_555 1_555
H18 C15 1_555 1_555
C16 C15 1_555 1_555
C17 C16 1_555 1_555
H19 C17 1_555 1_555
C18 C17 1_555 1_555
C19 C18 1_555 1_555
H20 C19 1_555 1_555
C20 S1 1_555 1_555
C21 C20 1_555 1_555
H21 C21 1_555 1_555
H22 C21 1_555 1_555
H23 C21 1_555 1_555
C22 C4 1_555 1_555
H24 C22 1_555 1_555
H25 C22 1_555 1_555
H26 C22 1_555 1_555
C23 C4 1_555 1_555
H27 C23 1_555 1_555
H28 C23 1_555 1_555
C24 C23 1_555 1_555
H29 C24 1_555 1_555
C25 C24 1_555 1_555
H30 C25 1_555 1_555
H31 C25 1_555 1_555
C26 C6 1_555 1_555
H32 C26 1_555 1_555
H33 C26 1_555 1_555
H34 C26 1_555 1_555
C27 C8 1_555 1_555
H35 C27 1_555 1_555
H36 C27 1_555 1_555
H37 C27 1_555 1_555
C28 C12 1_555 1_555
H38 C28 1_555 1_555
H39 C28 1_555 1_555
C29 O7 1_555 1_555
C30 C29 1_555 1_555
C31 C30 1_555 1_555
H40 C31 1_555 1_555
C32 C31 1_555 1_555
H41 C32 1_555 1_555
C33 C32 1_555 1_555
H42 C33 1_555 1_555
C34 C33 1_555 1_555
H43 C34 1_555 1_555
C35 C30 1_555 1_555
H44 C35 1_555 1_555
C36 C16 1_555 1_555
H45 C36 1_555 1_555
H46 C36 1_555 1_555
H47 C36 1_555 1_555
N1 C20 1_555 1_555
C2 C3 1_555 1_555
C6 C7 1_555 1_555
C12 C13 1_555 1_555
C14 C15 1_555 1_555
C34 C35 1_555 1_555

#END
