
#######################################################################
#
#                 Cambridge Crystallographic Data Centre
#                                CCDC 
#
#######################################################################
#
# If this CIF has been generated from an entry in the Cambridge 
# Structural Database, then it will include bibliographic, chemical, 
# crystal, experimental, refinement or atomic coordinate data resulting 
# from the CCDC's data processing and validation procedures.
#
#######################################################################

data_TOPTOH
_chemical_formula_moiety         'C60 H41 N1,3(C1 H2 Cl2)'
_chemical_name_systematic        
'1,2,3,4,5,6,7,8-Octaphenylcarbazole dichloromethane solvate'
_symmetry_cell_setting           triclinic
_symmetry_space_group_name_H-M   'P -1'
_symmetry_Int_Tables_number      2
_space_group_name_Hall           '-P 1'
loop_
_symmetry_equiv_pos_site_id
_symmetry_equiv_pos_as_xyz
1 x,y,z
2 -x,-y,-z
_cell_length_a                   13.438(2)
_cell_length_b                   14.189(2)
_cell_length_c                   16.886(2)
_cell_angle_alpha                101.129(11)
_cell_angle_beta                 108.518(11)
_cell_angle_gamma                111.643(12)
_cell_volume                     2656.23
_exptl_crystal_colour            colorless
_chemical_melting_point          300-303deg.C
_cell_formula_units_Z            2
loop_
_atom_site_label
_atom_site_type_symbol
_atom_site_fract_x
_atom_site_fract_y
_atom_site_fract_z
N1 N 0.2502(5) 0.0017(5) 0.5296(4)
C1 C 0.2616(6) -0.0673(5) 0.4681(4)
C2 C 0.3147(6) -0.1333(6) 0.4851(5)
C3 C 0.3116(6) -0.2021(6) 0.4115(5)
C4 C 0.2445(6) -0.2109(6) 0.3235(5)
C5 C 0.1899(6) -0.1458(6) 0.3082(4)
C6 C 0.2049(6) -0.0659(6) 0.3818(5)
C7 C 0.1671(6) 0.0183(6) 0.3968(5)
C8 C 0.1300(6) 0.0768(6) 0.3452(4)
C9 C 0.1049(6) 0.1566(6) 0.3862(5)
C10 C 0.1236(6) 0.1848(5) 0.4768(5)
C11 C 0.1723(6) 0.1340(6) 0.5298(4)
C12 C 0.1912(6) 0.0522(6) 0.4884(5)
C13 C 0.3653(6) -0.1302(6) 0.5786(5)
C14 C 0.4574(7) -0.0344(7) 0.6466(5)
C15 C 0.4973(8) -0.0309(9) 0.7344(6)
C16 C 0.4453(8) -0.1214(9) 0.7544(6)
C17 C 0.3578(8) -0.2164(8) 0.6879(6)
C18 C 0.3164(7) -0.2211(7) 0.5994(5)
C19 C 0.3752(6) -0.2684(6) 0.4289(4)
C20 C 0.4980(6) -0.2163(6) 0.4744(5)
C21 C 0.5585(7) -0.2749(7) 0.4923(5)
C22 C 0.5001(7) -0.3841(6) 0.4660(5)
C23 C 0.3781(7) -0.4378(6) 0.4218(5)
C24 C 0.3161(7) -0.3804(6) 0.4032(5)
C25 C 0.2283(7) -0.2981(6) 0.2467(5)
C26 C 0.3223(7) -0.2910(7) 0.2242(5)
C27 C 0.3047(9) -0.3701(8) 0.1527(6)
C28 C 0.1976(10) -0.4558(8) 0.1021(6)
C29 C 0.1015(8) -0.4672(7) 0.1226(5)
C30 C 0.1186(7) -0.3861(6) 0.1945(5)
C31 C 0.1063(7) -0.1680(6) 0.2165(5)
C32 C 0.1413(7) -0.1668(6) 0.1463(5)
C33 C 0.0574(8) -0.2021(7) 0.0590(5)
C34 C -0.0600(8) -0.2389(7) 0.0401(6)
C35 C -0.0939(7) -0.2376(7) 0.1082(6)
C36 C -0.0134(7) -0.2045(6) 0.1957(5)
C37 C 0.1375(6) 0.0709(6) 0.2589(5)
C38 C 0.2481(6) 0.1022(6) 0.2582(5)
C39 C 0.2660(7) 0.1194(7) 0.1852(5)
C40 C 0.1708(8) 0.1045(7) 0.1105(6)
C41 C 0.0603(8) 0.0699(7) 0.1103(5)
C42 C 0.0417(7) 0.0528(6) 0.1826(5)
C43 C 0.0612(6) 0.2171(6) 0.3334(5)
C44 C 0.1312(7) 0.2861(6) 0.3024(5)
C45 C 0.0905(8) 0.3431(6) 0.2526(5)
C46 C -0.0238(8) 0.3283(8) 0.2321(6)
C47 C -0.0929(8) 0.2630(8) 0.2626(6)
C48 C -0.0534(7) 0.2069(6) 0.3121(5)
C49 C 0.0989(6) 0.2718(6) 0.5187(5)
C50 C 0.1553(7) 0.3758(7) 0.5216(5)
C51 C 0.1313(9) 0.4549(7) 0.5593(6)
C52 C 0.0533(9) 0.4322(8) 0.5973(6)
C53 C 0.0000(8) 0.3292(8) 0.5969(5)
C54 C 0.0219(7) 0.2481(6) 0.5570(5)
C55 C 0.2178(6) 0.1694(6) 0.6289(4)
C56 C 0.3097(7) 0.2723(7) 0.6815(5)
C57 C 0.3629(8) 0.3027(7) 0.7737(5)
C58 C 0.3215(9) 0.2306(8) 0.8134(6)
C59 C 0.2313(8) 0.1294(8) 0.7633(6)
C60 C 0.1760(7) 0.0989(6) 0.6695(5)
H1 H 0.2764(5) 0.0119(5) 0.5864(4)
H2 H 0.4924(7) 0.0274(7) 0.6330(5)
H3 H 0.5597(8) 0.0333(9) 0.7802(6)
H4 H 0.4703(8) -0.1176(9) 0.8142(6)
H5 H 0.3254(8) -0.2786(8) 0.7017(6)
H6 H 0.2552(7) -0.2862(7) 0.5540(5)
H7 H 0.5398(6) -0.1404(6) 0.4930(5)
H8 H 0.6415(7) -0.2388(7) 0.5233(5)
H9 H 0.5425(7) -0.4235(6) 0.4778(5)
H10 H 0.3375(7) -0.5135(6) 0.4044(5)
H11 H 0.2331(7) -0.4172(6) 0.3729(5)
H12 H 0.3978(7) -0.2316(7) 0.2586(5)
H13 H 0.3686(9) -0.3643(8) 0.1387(6)
H14 H 0.1871(10) -0.5084(8) 0.0525(6)
H15 H 0.0272(8) -0.5283(7) 0.0885(5)
H16 H 0.0543(7) -0.3915(6) 0.2077(5)
H17 H 0.2217(7) -0.1421(6) 0.1584(5)
H18 H 0.0816(8) -0.2007(7) 0.0126(5)
H19 H -0.1166(8) -0.2648(7) -0.0191(6)
H20 H -0.1741(7) -0.2597(7) 0.0954(6)
H21 H -0.0396(7) -0.2067(6) 0.2411(5)
H22 H 0.3120(6) 0.1118(6) 0.3086(5)
H23 H 0.3414(7) 0.1408(7) 0.1858(5)
H24 H 0.1819(8) 0.1179(7) 0.0608(6)
H25 H -0.0041(8) 0.0577(7) 0.0591(5)
H26 H -0.0343(7) 0.0292(6) 0.1810(5)
H27 H 0.2081(7) 0.2946(6) 0.3155(5)
H28 H 0.1396(8) 0.3903(6) 0.2333(5)
H29 H -0.0536(8) 0.3638(8) 0.1968(6)
H30 H -0.1693(8) 0.2559(8) 0.2497(6)
H31 H -0.1034(7) 0.1614(6) 0.3318(5)
H32 H 0.2111(7) 0.3933(7) 0.4976(5)
H33 H 0.1688(9) 0.5253(7) 0.5589(6)
H34 H 0.0366(9) 0.4861(8) 0.6231(6)
H35 H -0.0522(8) 0.3128(8) 0.6241(5)
H36 H -0.0163(7) 0.1775(6) 0.5565(5)
H37 H 0.3365(7) 0.3222(7) 0.6543(5)
H38 H 0.4267(8) 0.3721(7) 0.8087(5)
H39 H 0.3560(9) 0.2516(8) 0.8759(6)
H40 H 0.2058(8) 0.0796(8) 0.7909(6)
H41 H 0.1105(7) 0.0304(6) 0.6350(5)
C61 C 0.3925(9) 0.4071(9) 0.2245(7)
Cl1 Cl 0.3921(3) 0.3846(3) 0.1219(2)
Cl2 Cl 0.5175(4) 0.4137(3) 0.3037(2)
H42 H 0.3216(9) 0.3487(9) 0.2210(7)
H43 H 0.3893(9) 0.4753(9) 0.2435(7)
C62 C 0.2633(17) -0.0418(13) -0.0326(21)
Cl3 Cl 0.3614(6) 0.0932(6) -0.0139(4)
Cl4 Cl 0.3338(5) -0.1191(5) 0.0016(4)
H44 H 0.2140(17) -0.0399(13) -0.0008(21)
H45 H 0.2107(17) -0.0780(13) -0.0965(21)
C63 C 0.2741(14) -0.4998(11) -0.1448(9)
Cl5 Cl 0.3724(4) -0.4865(3) -0.0429(2)
Cl6 Cl 0.2731(8) -0.3832(7) -0.1459(5)
H46 H 0.2958(14) -0.5260(11) -0.1916(9)
H47 H 0.1943(14) -0.5537(11) -0.1582(9)
C64? C 0.3459(30) -0.0353(13) -0.0655(15)
H48? H 0.4145(30) -0.0255(13) -0.0784(15)
H49? H 0.2752(30) -0.0724(13) -0.1225(15)
loop_
_geom_bond_atom_site_label_1
_geom_bond_atom_site_label_2
_geom_bond_site_symmetry_1
_geom_bond_site_symmetry_2
N1 C1 1_555 1_555
C1 C2 1_555 1_555
C2 C3 1_555 1_555
C3 C4 1_555 1_555
C4 C5 1_555 1_555
C5 C6 1_555 1_555
C6 C1 1_555 1_555
C7 C6 1_555 1_555
C8 C7 1_555 1_555
C9 C8 1_555 1_555
C10 C9 1_555 1_555
C11 C10 1_555 1_555
C12 N1 1_555 1_555
C13 C2 1_555 1_555
C14 C13 1_555 1_555
C15 C14 1_555 1_555
C16 C15 1_555 1_555
C17 C16 1_555 1_555
C18 C13 1_555 1_555
C19 C3 1_555 1_555
C20 C19 1_555 1_555
C21 C20 1_555 1_555
C22 C21 1_555 1_555
C23 C22 1_555 1_555
C24 C19 1_555 1_555
C25 C4 1_555 1_555
C26 C25 1_555 1_555
C27 C26 1_555 1_555
C28 C27 1_555 1_555
C29 C28 1_555 1_555
C30 C25 1_555 1_555
C31 C5 1_555 1_555
C32 C31 1_555 1_555
C33 C32 1_555 1_555
C34 C33 1_555 1_555
C35 C34 1_555 1_555
C36 C31 1_555 1_555
C37 C8 1_555 1_555
C38 C37 1_555 1_555
C39 C38 1_555 1_555
C40 C39 1_555 1_555
C41 C40 1_555 1_555
C42 C37 1_555 1_555
C43 C9 1_555 1_555
C44 C43 1_555 1_555
C45 C44 1_555 1_555
C46 C45 1_555 1_555
C47 C46 1_555 1_555
C48 C43 1_555 1_555
C49 C10 1_555 1_555
C50 C49 1_555 1_555
C51 C50 1_555 1_555
C52 C51 1_555 1_555
C53 C52 1_555 1_555
C54 C49 1_555 1_555
C55 C11 1_555 1_555
C56 C55 1_555 1_555
C57 C56 1_555 1_555
C58 C57 1_555 1_555
C59 C58 1_555 1_555
C60 C55 1_555 1_555
H1 N1 1_555 1_555
H2 C14 1_555 1_555
H3 C15 1_555 1_555
H4 C16 1_555 1_555
H5 C17 1_555 1_555
H6 C18 1_555 1_555
H7 C20 1_555 1_555
H8 C21 1_555 1_555
H9 C22 1_555 1_555
H10 C23 1_555 1_555
H11 C24 1_555 1_555
H12 C26 1_555 1_555
H13 C27 1_555 1_555
H14 C28 1_555 1_555
H15 C29 1_555 1_555
H16 C30 1_555 1_555
H17 C32 1_555 1_555
H18 C33 1_555 1_555
H19 C34 1_555 1_555
H20 C35 1_555 1_555
H21 C36 1_555 1_555
H22 C38 1_555 1_555
H23 C39 1_555 1_555
H24 C40 1_555 1_555
H25 C41 1_555 1_555
H26 C42 1_555 1_555
H27 C44 1_555 1_555
H28 C45 1_555 1_555
H29 C46 1_555 1_555
H30 C47 1_555 1_555
H31 C48 1_555 1_555
H32 C50 1_555 1_555
H33 C51 1_555 1_555
H34 C52 1_555 1_555
H35 C53 1_555 1_555
H36 C54 1_555 1_555
H37 C56 1_555 1_555
H38 C57 1_555 1_555
H39 C58 1_555 1_555
H40 C59 1_555 1_555
H41 C60 1_555 1_555
C61 Cl1 1_555 1_555
Cl2 C61 1_555 1_555
H42 C61 1_555 1_555
H43 C61 1_555 1_555
C62 Cl3 1_555 1_555
Cl4 C62 1_555 1_555
H44 C62 1_555 1_555
H45 C62 1_555 1_555
C63 Cl5 1_555 1_555
Cl6 C63 1_555 1_555
H46 C63 1_555 1_555
H47 C63 1_555 1_555
C7 C12 1_555 1_555
C11 C12 1_555 1_555
C17 C18 1_555 1_555
C23 C24 1_555 1_555
C29 C30 1_555 1_555
C35 C36 1_555 1_555
C41 C42 1_555 1_555
C47 C48 1_555 1_555
C53 C54 1_555 1_555
C59 C60 1_555 1_555

#END
