
#######################################################################
#
#                 Cambridge Crystallographic Data Centre
#                                CCDC 
#
#######################################################################
#
# If this CIF has been generated from an entry in the Cambridge 
# Structural Database, then it will include bibliographic, chemical, 
# crystal, experimental, refinement or atomic coordinate data resulting 
# from the CCDC's data processing and validation procedures.
#
#######################################################################

data_TOSDEM
_chemical_formula_moiety         'C36 H40 O12,6(H2 O1),Cl1 1-,C6 H16 N1 1+'
_chemical_name_systematic        
'triethylammonium chloride 2,8,14,20-tetraethyl-4,5,6,10,11,12,16,17,18,22,23,24-dodecahydroxycalix(4)arene hexahydrate'
_symmetry_cell_setting           triclinic
_symmetry_space_group_name_H-M   'P -1'
_symmetry_Int_Tables_number      2
_space_group_name_Hall           '-P 1'
loop_
_symmetry_equiv_pos_site_id
_symmetry_equiv_pos_as_xyz
1 x,y,z
2 -x,-y,-z
_cell_length_a                   11.48122(17)
_cell_length_b                   11.7421(2)
_cell_length_c                   17.0131(3)
_cell_angle_alpha                102.6693(14)
_cell_angle_beta                 92.3148(13)
_cell_angle_gamma                102.5625(14)
_cell_volume                     2174.81
_exptl_crystal_colour            colorless
_exptl_crystal_description       block
_cell_formula_units_Z            2
loop_
_atom_site_label
_atom_site_type_symbol
_atom_site_fract_x
_atom_site_fract_y
_atom_site_fract_z
O13 O 0.5565(3) 0.6158(4) 0.00182(19)
H41 H 0.5894 0.6180 -0.0419
H42 H 0.5370 0.6732 0.0344
O14 O -0.3285(5) 0.9682(5) 0.2539(5)
O15 O 0.4060(6) 0.2126(6) 0.2433(6)
O1 O 0.27537(19) 0.31608(18) 0.10361(12)
H1 H 0.2118 0.2891 0.0727
O2 O 0.08290(17) 0.21341(16) 0.17269(12)
H2 H 0.0830 0.2072 0.1226
O3 O 0.41556(18) 0.53171(17) 0.17611(13)
H3 H 0.4260 0.6065 0.1846
O4 O -0.3522(2) 0.17262(18) 0.13934(15)
H4 H -0.4240 0.1723 0.1468
O5 O -0.15247(19) 0.13339(18) 0.20477(15)
H5 H -0.0811 0.1399 0.1942
O6 O -0.4227(2) 0.37837(18) 0.18960(15)
H6 H -0.4190 0.4476 0.1826
O7 O -0.21195(18) 0.78105(19) 0.08140(11)
H7 H -0.2227 0.7125 0.0504
O8 O -0.33279(16) 0.60631(17) 0.15058(11)
H8 H -0.3592 0.6330 0.1133
O9 O -0.01588(18) 0.94290(19) 0.15892(12)
H9 H 0.0581 0.9625 0.1726
O10 O 0.4185(2) 0.9423(2) 0.14673(16)
H10 H 0.4026 1.0077 0.1436
O11 O 0.22305(18) 1.02749(19) 0.19913(14)
H11 H 0.2726 1.0938 0.2152
O12 O 0.49397(19) 0.77425(19) 0.21129(15)
H12 H 0.5540 0.8323 0.2193
C1 C 0.2505(2) 0.3760(2) 0.17742(15)
C2 C 0.1522(2) 0.3224(2) 0.21266(15)
C3 C 0.1255(2) 0.3793(2) 0.28846(15)
C4 C 0.1984(2) 0.4909(2) 0.32661(15)
H13 H 0.1807 0.5301 0.3782
C5 C 0.2965(2) 0.5475(2) 0.29207(15)
C6 C 0.3215(2) 0.4880(2) 0.21629(15)
C7 C 0.0166(2) 0.3191(2) 0.32541(15)
H14 H 0.0121 0.2309 0.3108
C8 C 0.0284(2) 0.3578(2) 0.41821(16)
H15 H 0.1067 0.3488 0.4393
H16 H 0.0271 0.4438 0.4348
C9 C -0.0713(3) 0.2849(3) 0.45550(19)
H17 H -0.0745 0.1992 0.4359
H18 H -0.1481 0.3013 0.4401
H19 H -0.0554 0.3073 0.5146
C10 C -0.0984(2) 0.3377(2) 0.28766(15)
C11 C -0.1747(2) 0.2458(2) 0.23042(17)
C12 C -0.2804(2) 0.2637(2) 0.19684(18)
C13 C -0.3129(2) 0.3726(2) 0.22223(17)
C14 C -0.2381(2) 0.4667(2) 0.27891(15)
C15 C -0.1308(2) 0.4474(2) 0.30920(15)
H20 H -0.0775 0.5120 0.3462
C16 C -0.2721(2) 0.5868(2) 0.30810(15)
H21 H -0.3577 0.5749 0.2876
C17 C -0.2656(2) 0.6246(2) 0.40066(16)
H22 H -0.1825 0.6332 0.4233
H23 H -0.2854 0.7040 0.4165
C18 C -0.3504(3) 0.5355(3) 0.4372(2)
H24 H -0.4321 0.5218 0.4120
H25 H -0.3485 0.5680 0.4956
H26 H -0.3252 0.4594 0.4276
C19 C -0.1993(2) 0.6832(2) 0.27116(14)
C20 C -0.2351(2) 0.6889(2) 0.19289(15)
C21 C -0.1725(2) 0.7770(2) 0.15797(15)
C22 C -0.0703(2) 0.8590(2) 0.19893(15)
C23 C -0.0304(2) 0.8541(2) 0.27648(14)
C24 C -0.0968(2) 0.7661(2) 0.31092(14)
H27 H -0.0708 0.7627 0.3639
C25 C 0.0839(2) 0.9419(2) 0.31967(15)
H28 H 0.0880 1.0188 0.3025
C26 C 0.0838(2) 0.9710(2) 0.41214(16)
H29 H 0.0088 0.9952 0.4270
H30 H 0.0855 0.8979 0.4317
C27 C 0.1905(3) 1.0711(3) 0.4539(2)
H31 H 0.1899 1.1434 0.4342
H32 H 0.2650 1.0458 0.4418
H33 H 0.1853 1.0885 0.5125
C28 C 0.1935(2) 0.8967(2) 0.29112(15)
C29 C 0.2588(2) 0.9423(2) 0.23335(17)
C30 C 0.3578(2) 0.9005(2) 0.20584(18)
C31 C 0.3956(2) 0.8147(2) 0.23924(17)
C32 C 0.3322(2) 0.7669(2) 0.29704(15)
C33 C 0.2304(2) 0.8072(2) 0.32080(15)
H34 H 0.1846 0.7725 0.3585
C34 C 0.3728(2) 0.6716(2) 0.33275(16)
H35 H 0.4567 0.6726 0.3187
C35 C 0.3769(2) 0.7009(2) 0.42561(17)
H36 H 0.2960 0.7059 0.4419
H37 H 0.3997 0.6350 0.4457
C36 C 0.4661(3) 0.8189(3) 0.4646(2)
H38 H 0.4419 0.8849 0.4466
H39 H 0.5463 0.8144 0.4486
H40 H 0.4671 0.8332 0.5236
O16? O 0.4054(4) 0.1318(4) 0.0829(2)
H43? H 0.3655 0.1858 0.1062
H44? H 0.4361 0.1591 0.0428
O17? O 0.5075(7) 0.1770(7) -0.0004(4)
H45? H 0.5723 0.1839 -0.0197
H46? H 0.5174 0.2267 0.0429
O18? O -0.3664(4) 0.9330(4) 0.0831(2)
H47? H -0.390(6) 0.933(6) 0.0356(11)
H48? H -0.323(3) 0.884(3) 0.085(3)
O19? O 0.3220(8) 0.9937(8) 0.0064(4)
H49? H 0.2482 0.9906 0.0169
H50? H 0.3562 1.0661 0.0032
O20? O -0.1092(5) 0.9212(4) -0.0203(3)
H51? H -0.0365 0.9208 -0.0066
H52? H -0.1512 0.9364 0.0240
O21? O -0.0016(9) 0.8359(9) -0.0116(5)
H53? H 0.0658 0.8837 -0.0072
H54? H 0.0041 0.7657 -0.0117
H55? H 0.0190 0.3489 -0.0705
H56? H 0.1198 0.4637 -0.0757
C37? C 0.0118(16) 0.6347(12) -0.0041(11)
H57? H -0.0374 0.6299 -0.0544
H58? H -0.0326 0.6676 0.0408
C38? C 0.118(2) 0.733(2) -0.0024(13)
H59? H 0.0924 0.8028 -0.0127
H60? H 0.1690 0.7059 -0.0443
H61? H 0.1637 0.7544 0.0508
C39? C -0.1327(11) 0.4898(18) 0.0046(13)
H62? H -0.1417 0.5446 0.0560
H63? H -0.1603 0.5230 -0.0395
C40? C -0.220(2) 0.373(3) 0.000(2)
H64? H -0.1769 0.3087 -0.0062
H65? H -0.2797 0.3571 -0.0457
H66? H -0.2596 0.3781 0.0505
H67? H 0.1510 0.5165 0.0688
H68? H -0.0776 0.4940 0.0025
H69? H 0.0067 0.5756 -0.0021
O22? O -0.2971(13) 0.4740(10) -0.0125(5)
H70? H -0.2283 0.4560 -0.0058
H71? H -0.3500 0.4100 -0.0377
Cl1? Cl -0.3574(10) 1.0477(9) 0.3343(6)
Cl2? Cl -0.3065(8) 0.9776(8) 0.3031(8)
Cl3? Cl 0.413(2) 0.233(2) 0.2795(12)
Cl4? Cl 0.4056(8) 0.2705(8) 0.3338(6)
C41? C 0.0328(10) 0.4342(10) -0.0729(5)
C42? C -0.031(4) 0.441(3) -0.1476(9)
H72? H -0.0086 0.3870 -0.1939
H73? H -0.0100 0.5235 -0.1545
H74? H -0.1178 0.4172 -0.1442
C43? C 0.0641(10) 0.4970(10) 0.0752(6)
H75? H 0.0429 0.4136 0.0821
C44? C 0.043(4) 0.577(3) 0.1499(9)
H76? H 0.0702 0.6603 0.1463
H77? H 0.0880 0.5634 0.1960
H78? H -0.0426 0.5595 0.1572
N1? N 0.0000 0.5000 0.0000
loop_
_geom_bond_atom_site_label_1
_geom_bond_atom_site_label_2
_geom_bond_site_symmetry_1
_geom_bond_site_symmetry_2
O1 H1 1_555 1_555
O2 H2 1_555 1_555
O3 H3 1_555 1_555
O4 H4 1_555 1_555
O5 H5 1_555 1_555
O6 H6 1_555 1_555
O7 H7 1_555 1_555
O8 H8 1_555 1_555
O9 H9 1_555 1_555
O10 H10 1_555 1_555
O11 H11 1_555 1_555
O12 H12 1_555 1_555
C1 O1 1_555 1_555
C2 O2 1_555 1_555
C3 C2 1_555 1_555
C4 C3 1_555 1_555
H13 C4 1_555 1_555
C5 C4 1_555 1_555
C6 O3 1_555 1_555
C7 C3 1_555 1_555
H14 C7 1_555 1_555
C8 C7 1_555 1_555
H15 C8 1_555 1_555
H16 C8 1_555 1_555
C9 C8 1_555 1_555
H17 C9 1_555 1_555
H18 C9 1_555 1_555
H19 C9 1_555 1_555
C10 C7 1_555 1_555
C11 O5 1_555 1_555
C12 O4 1_555 1_555
C13 O6 1_555 1_555
C14 C13 1_555 1_555
C15 C10 1_555 1_555
H20 C15 1_555 1_555
C16 C14 1_555 1_555
H21 C16 1_555 1_555
C17 C16 1_555 1_555
H22 C17 1_555 1_555
H23 C17 1_555 1_555
C18 C17 1_555 1_555
H24 C18 1_555 1_555
H25 C18 1_555 1_555
H26 C18 1_555 1_555
C19 C16 1_555 1_555
C20 O8 1_555 1_555
C21 O7 1_555 1_555
C22 O9 1_555 1_555
C23 C22 1_555 1_555
C24 C19 1_555 1_555
H27 C24 1_555 1_555
C25 C23 1_555 1_555
H28 C25 1_555 1_555
C26 C25 1_555 1_555
H29 C26 1_555 1_555
H30 C26 1_555 1_555
C27 C26 1_555 1_555
H31 C27 1_555 1_555
H32 C27 1_555 1_555
H33 C27 1_555 1_555
C28 C25 1_555 1_555
C29 O11 1_555 1_555
C30 O10 1_555 1_555
C31 O12 1_555 1_555
C32 C31 1_555 1_555
C33 C28 1_555 1_555
H34 C33 1_555 1_555
C34 C5 1_555 1_555
H35 C34 1_555 1_555
C35 C34 1_555 1_555
H36 C35 1_555 1_555
H37 C35 1_555 1_555
C36 C35 1_555 1_555
H38 C36 1_555 1_555
H39 C36 1_555 1_555
H40 C36 1_555 1_555
O13 H41 1_555 1_555
H42 O13 1_555 1_555
C1 C2 1_555 1_555
C1 C6 1_555 1_555
C5 C6 1_555 1_555
C10 C11 1_555 1_555
C11 C12 1_555 1_555
C12 C13 1_555 1_555
C14 C15 1_555 1_555
C19 C20 1_555 1_555
C20 C21 1_555 1_555
C21 C22 1_555 1_555
C23 C24 1_555 1_555
C28 C29 1_555 1_555
C29 C30 1_555 1_555
C30 C31 1_555 1_555
C32 C33 1_555 1_555
C32 C34 1_555 1_555

#END
