
#######################################################################
#
#                 Cambridge Crystallographic Data Centre
#                                CCDC 
#
#######################################################################
#
# If this CIF has been generated from an entry in the Cambridge 
# Structural Database, then it will include bibliographic, chemical, 
# crystal, experimental, refinement or atomic coordinate data resulting 
# from the CCDC's data processing and validation procedures.
#
#######################################################################

data_TOSLIW
_chemical_formula_moiety         'C14 H18 S2'
_chemical_name_systematic        
(+-)-10,13-Dimethyl-2,7-dithia(8)paracyclophan-4-ene
_symmetry_cell_setting           triclinic
_symmetry_space_group_name_H-M   'P -1'
_symmetry_Int_Tables_number      2
_space_group_name_Hall           '-P 1'
loop_
_symmetry_equiv_pos_site_id
_symmetry_equiv_pos_as_xyz
1 x,y,z
2 -x,-y,-z
_cell_length_a                   6.896(1)
_cell_length_b                   7.389(1)
_cell_length_c                   14.113(1)
_cell_angle_alpha                99.60(1)
_cell_angle_beta                 96.58(1)
_cell_angle_gamma                109.61(1)
_cell_volume                     656.567
_exptl_crystal_colour            colorless
_chemical_melting_point          122deg.C
_cell_formula_units_Z            2
loop_
_atom_site_label
_atom_site_type_symbol
_atom_site_fract_x
_atom_site_fract_y
_atom_site_fract_z
C1 C 0.1176(4) 0.7033(4) 0.4230(2)
S1 S 0.3322(1) 0.6498(1) 0.4871(1)
C2 C 0.5599(3) 0.7713(3) 0.4359(2)
C3 C 0.5683(3) 0.6706(3) 0.3357(2)
C4 C 0.6401(3) 0.7646(3) 0.2678(2)
C5 C 0.6581(3) 0.6676(4) 0.1685(2)
S2 S 0.6132(1) 0.7865(1) 0.0700(1)
C6 C 0.3269(4) 0.7109(4) 0.0414(2)
C7 C 0.2332(3) 0.7123(3) 0.1324(2)
C8 C 0.2593(3) 0.8882(3) 0.1974(2)
C9 C 0.2079(3) 0.8767(3) 0.2888(2)
C10 C 0.1299(3) 0.6991(3) 0.3174(2)
C11 C 0.0815(3) 0.5224(3) 0.2489(2)
C12 C 0.1365(3) 0.5337(3) 0.1580(2)
C13 C -0.0202(4) 0.3259(4) 0.2740(2)
C14 C 0.3501(5) 1.0864(4) 0.1719(2)
loop_
_geom_bond_atom_site_label_1
_geom_bond_atom_site_label_2
_geom_bond_site_symmetry_1
_geom_bond_site_symmetry_2
C1 S1 1_555 1_555
S1 C2 1_555 1_555
C2 C3 1_555 1_555
C3 C4 1_555 1_555
C4 C5 1_555 1_555
C5 S2 1_555 1_555
S2 C6 1_555 1_555
C6 C7 1_555 1_555
C7 C8 1_555 1_555
C8 C9 1_555 1_555
C9 C10 1_555 1_555
C10 C1 1_555 1_555
C11 C10 1_555 1_555
C12 C7 1_555 1_555
C13 C11 1_555 1_555
C14 C8 1_555 1_555
C11 C12 1_555 1_555

#END
