
#######################################################################
#
#                 Cambridge Crystallographic Data Centre
#                                CCDC 
#
#######################################################################
#
# If this CIF has been generated from an entry in the Cambridge 
# Structural Database, then it will include bibliographic, chemical, 
# crystal, experimental, refinement or atomic coordinate data resulting 
# from the CCDC's data processing and validation procedures.
#
#######################################################################

data_TOSTUS
_chemical_formula_moiety         'C6 Br3 N3 O6,2(C4 H8 O2)'
_chemical_name_systematic        
'1,3,5-tribromo-2,4,6-trinitrobenzene 1,4-dioxane'
_symmetry_cell_setting           triclinic
_symmetry_space_group_name_H-M   'P -1'
_symmetry_Int_Tables_number      2
_space_group_name_Hall           '-P 1'
loop_
_symmetry_equiv_pos_site_id
_symmetry_equiv_pos_as_xyz
1 x,y,z
2 -x,-y,-z
_cell_length_a                   8.8310(18)
_cell_length_b                   9.878(2)
_cell_length_c                   13.510(3)
_cell_angle_alpha                70.89(3)
_cell_angle_beta                 85.63(3)
_cell_angle_gamma                86.16(3)
_cell_volume                     1109.22
_cell_formula_units_Z            2
loop_
_atom_site_label
_atom_site_type_symbol
_atom_site_fract_x
_atom_site_fract_y
_atom_site_fract_z
Br1 Br 0.28589(16) 0.94898(12) 0.21050(10)
Br2 Br 0.25934(15) 0.35024(13) 0.41388(9)
Br3 Br 0.28682(15) 0.57728(15) -0.02928(9)
O1 O 0.1727(13) 0.9227(11) -0.0161(7)
O2 O 0.4068(9) 0.8942(8) -0.0338(6)
O3 O 0.3928(12) 0.6731(12) 0.4341(7)
O4 O 0.1510(11) 0.6765(10) 0.4379(6)
O5 O 0.1440(13) 0.3089(11) 0.1713(10)
O6 O 0.3867(13) 0.2726(10) 0.1990(9)
N1 N 0.2874(14) 0.8632(10) 0.0110(6)
N2 N 0.2745(12) 0.6664(11) 0.3980(6)
N3 N 0.2691(17) 0.3401(11) 0.1875(8)
C1 C 0.2811(9) 0.7389(9) 0.1080(7)
C2 C 0.2819(10) 0.7605(9) 0.2036(7)
C3 C 0.2709(11) 0.6407(11) 0.2921(7)
C4 C 0.2688(10) 0.5090(9) 0.2924(6)
C5 C 0.2686(11) 0.4945(9) 0.1928(7)
C6 C 0.2801(10) 0.6081(9) 0.1008(6)
O7 O 0.3608(8) 1.4100(9) -0.1890(6)
O8 O 0.0677(10) 1.3425(11) -0.2248(8)
C7 C 0.1263(13) 1.2965(14) -0.1207(10)
H1 H 0.0843 1.2060 -0.0785
H2 H 0.0976 1.3672 -0.0862
C8 C 0.2952(13) 1.2799(13) -0.1321(10)
H3 H 0.3356 1.2439 -0.0631
H4 H 0.3224 1.2101 -0.1677
C9 C 0.3108(14) 1.4600(15) -0.2897(10)
H5 H 0.3463 1.3946 -0.3275
H6 H 0.3511 1.5532 -0.3270
C10 C 0.1342(16) 1.4719(15) -0.2835(10)
H7 H 0.1007 1.5449 -0.2520
H8 H 0.0990 1.5025 -0.3540
C11 C 0.194(3) -0.181(3) 0.702(2)
H9 H 0.1049 -0.1772 0.6639
H10 H 0.2075 -0.2742 0.7550
C12 C 0.279(3) 0.096(3) 0.589(2)
H11 H 0.2769 0.1944 0.5435
H12 H 0.3698 0.0722 0.6288
O9 O 0.129(2) 0.052(2) 0.6580(17)
C13 C 0.196(3) -0.064(3) 0.744(2)
H13 H 0.2987 -0.0445 0.7548
H14 H 0.1343 -0.0818 0.8090
C14 C 0.251(3) -0.007(3) 0.537(2)
H15 H 0.3032 0.0130 0.4681
H16 H 0.1442 -0.0213 0.5340
O10 O 0.337(2) -0.136(2) 0.6304(16)
loop_
_geom_bond_atom_site_label_1
_geom_bond_atom_site_label_2
_geom_bond_site_symmetry_1
_geom_bond_site_symmetry_2
Br1 C2 1_555 1_555
Br2 C4 1_555 1_555
Br3 C6 1_555 1_555
O1 N1 1_555 1_555
O2 N1 1_555 1_555
O3 N2 1_555 1_555
O4 N2 1_555 1_555
O5 N3 1_555 1_555
O6 N3 1_555 1_555
N1 C1 1_555 1_555
N2 C3 1_555 1_555
N3 C5 1_555 1_555
C1 C2 1_555 1_555
C2 C3 1_555 1_555
C3 C4 1_555 1_555
C4 C5 1_555 1_555
C5 C6 1_555 1_555
C6 C1 1_555 1_555
O7 C8 1_555 1_555
O8 C7 1_555 1_555
C7 H1 1_555 1_555
H2 C7 1_555 1_555
C8 C7 1_555 1_555
H3 C8 1_555 1_555
H4 C8 1_555 1_555
C9 O7 1_555 1_555
H5 C9 1_555 1_555
H6 C9 1_555 1_555
C10 O8 1_555 1_555
H7 C10 1_555 1_555
H8 C10 1_555 1_555
C11 H9 1_555 1_555
H10 C11 1_555 1_555
C12 H11 1_555 1_555
H12 C12 1_555 1_555
O9 C12 1_555 1_555
C13 C11 1_555 1_555
H13 C13 1_555 1_555
H14 C13 1_555 1_555
C14 C12 1_555 1_555
H15 C14 1_555 1_555
H16 C14 1_555 1_555
O10 C11 1_555 1_555
C9 C10 1_555 1_555
O9 C13 1_555 1_555
C14 O10 1_555 1_555

#END
