
#######################################################################
#
#                 Cambridge Crystallographic Data Centre
#                                CCDC 
#
#######################################################################
#
# If this CIF has been generated from an entry in the Cambridge 
# Structural Database, then it will include bibliographic, chemical, 
# crystal, experimental, refinement or atomic coordinate data resulting 
# from the CCDC's data processing and validation procedures.
#
#######################################################################

data_TOSVAA
_chemical_formula_moiety         'C6 Br3 N3 O6,2(H2 O1)'
_chemical_name_systematic        
'1,3,5-tribromo-2,4,6-trinitrobenzene dihydrate'
_symmetry_cell_setting           monoclinic
_symmetry_space_group_name_H-M   'C 2'
_symmetry_Int_Tables_number      5
_space_group_name_Hall           'C 2y'
loop_
_symmetry_equiv_pos_site_id
_symmetry_equiv_pos_as_xyz
1 x,y,z
2 -x,y,-z
3 1/2+x,1/2+y,z
4 1/2-x,1/2+y,-z
_cell_length_a                   23.610(5)
_cell_length_b                   9.6300(19)
_cell_length_c                   4.0200(8)
_cell_angle_alpha                90
_cell_angle_beta                 93.31(3)
_cell_angle_gamma                90
_cell_volume                     912.48
_cell_formula_units_Z            2
loop_
_atom_site_label
_atom_site_type_symbol
_atom_site_fract_x
_atom_site_fract_y
_atom_site_fract_z
Br1 Br 0.0000 1.9540(11) 0.0000
C1 C 0.0000 1.783(3) 0.0000
O1 O 0.1264(9) 1.803(2) -0.247(4)
N1 N 0.1029(7) 1.7712(9) 0.009(4)
Br2 Br 0.12028(12) 1.4507(10) 0.0826(7)
N2 N 0.0000 1.3251(18) 0.0000
C2 C 0.0547(10) 1.705(2) 0.022(8)
O2 O 0.1236(7) 1.8001(19) 0.304(3)
O3 O -0.0011(5) 1.2782(15) 0.312(3)
C3 C 0.0519(8) 1.550(2) 0.014(7)
C4 C 0.0000 1.4807(19) 0.0000
O1A O -0.1264(9) 1.803(2) 0.247(4)
N1A N -0.1029(7) 1.7712(9) -0.009(4)
Br2A Br -0.12028(12) 1.4507(10) -0.0826(7)
C2A C -0.0547(10) 1.705(2) -0.022(8)
O2A O -0.1236(7) 1.8001(19) -0.304(3)
O3A O 0.0011(5) 1.2782(15) -0.312(3)
C3A C -0.0519(8) 1.550(2) -0.014(7)
O4 O 0.2428(8) 1.580(2) 0.201(5)
H1 H 0.2273 1.5592 0.0120
H2 H 0.2198 1.5571 0.3463
loop_
_geom_bond_atom_site_label_1
_geom_bond_atom_site_label_2
_geom_bond_site_symmetry_1
_geom_bond_site_symmetry_2
Br1 C1 1_555 1_555
C1 C2 1_555 1_555
O1 N1 1_555 1_555
N1 C2 1_555 1_555
Br2 C3 1_555 1_555
N2 O3 1_555 1_555
C2 C3 1_555 1_555
O2 N1 1_555 1_555
C3 C4 1_555 1_555
C4 N2 1_555 1_555
O4 H1 1_555 1_555
H2 O4 1_555 1_555
O1A N1A 1_555 1_555
N1A C2A 1_555 1_555
Br2A C3A 1_555 1_555
C2A C1 1_555 1_555
O2A N1A 1_555 1_555
O3A N2 1_555 1_555
C3A C4 1_555 1_555
C2A C3A 1_555 1_555

#END
