
#######################################################################
#
#                 Cambridge Crystallographic Data Centre
#                                CCDC 
#
#######################################################################
#
# If this CIF has been generated from an entry in the Cambridge 
# Structural Database, then it will include bibliographic, chemical, 
# crystal, experimental, refinement or atomic coordinate data resulting 
# from the CCDC's data processing and validation procedures.
#
#######################################################################

data_TOSYOR
_chemical_name_common            
2,3,7,8-tetrafluoro-5,10-bis(8-oxyquinolinato)-5,10-dihydroboranthrene
_chemical_formula_moiety         'C30 H16 B2 F4 N2 O2'
_chemical_name_systematic        
2',3',7',8'-tetrafluoro-2,10''-dihydrodispiro[1,3,2-oxazaborolo[5,4,3-ij]quinoline-2,5'-boranthrene-10',2''-[1,3,2]oxazaborolo[5,4,3-ij]quinoline]
_symmetry_cell_setting           triclinic
_symmetry_space_group_name_H-M   'P -1'
_symmetry_Int_Tables_number      2
_space_group_name_Hall           '-P 1'
loop_
_symmetry_equiv_pos_site_id
_symmetry_equiv_pos_as_xyz
1 x,y,z
2 -x,-y,-z
_cell_length_a                   10.9289(5)
_cell_length_b                   11.3491(5)
_cell_length_c                   12.0394(6)
_cell_angle_alpha                64.416(5)
_cell_angle_beta                 64.811(5)
_cell_angle_gamma                84.204(4)
_cell_volume                     1212.51
_exptl_crystal_colour            yellow
_exptl_crystal_description       cubic
_cell_formula_units_Z            2
_exptl_crystal_recrystallization_method chloroform
_exptl_crystal_preparation       Luminescent
loop_
_atom_site_label
_atom_site_type_symbol
_atom_site_fract_x
_atom_site_fract_y
_atom_site_fract_z
F1 F 0.62884(8) 0.67629(7) 0.33324(7)
F2 F 0.69274(8) 0.82405(7) 0.42833(7)
O1 O 0.74710(8) 0.20857(8) 0.56018(8)
O2 O 0.66400(8) 0.38891(8) 0.90997(8)
F3 F 1.11852(8) 0.11044(8) 0.88441(9)
N1 N 0.87343(10) 0.52797(10) 0.78643(9)
N2 N 0.58058(9) 0.18885(9) 0.77813(9)
F4 F 1.07060(8) -0.02870(8) 0.77041(10)
C1 C 0.67648(11) 0.48293(11) 0.48935(11)
H1 H 0.6540 0.4315 0.4546
C2 C 0.67872(11) 0.44342(11) 0.98293(11)
C3 C 0.80162(11) 0.52544(11) 0.91195(11)
C4 C 0.54954(11) 0.09868(10) 0.74527(11)
C5 C 0.34407(11) 0.01569(11) 0.94872(11)
H2 H 0.2635 -0.0431 1.0089
C6 C 0.43383(11) 0.00804(11) 0.82620(11)
C7 C 0.84218(11) 0.22709(11) 0.71523(11)
C8 C 0.64937(11) 0.10967(11) 0.61814(11)
C9 C 0.37470(11) 0.10910(11) 0.97973(11)
H3 H 0.3137 0.1156 1.0609
C10 C 0.71823(11) 0.42285(11) 0.59494(10)
C11 C 0.49531(11) 0.19545(11) 0.89287(11)
H4 H 0.5155 0.2584 0.9166
C12 C 0.74994(11) 0.50018(11) 0.64712(11)
C13 C 0.66802(11) 0.61664(11) 0.43595(11)
C14 C 0.87081(11) 0.30218(11) 0.77089(11)
C15 C 0.70055(12) 0.69291(11) 0.48536(11)
C16 C 0.74074(11) 0.63617(11) 0.59020(11)
H5 H 0.7622 0.6893 0.6238
C17 C 0.84379(12) 0.59569(11) 0.96310(12)
C18 C 0.42105(13) -0.08028(12) 0.77592(13)
H6 H 0.3452 -0.1448 0.8265
B1 B 0.72850(12) 0.26772(12) 0.65747(12)
C19 C 0.91132(12) 0.11608(11) 0.71429(12)
H7 H 0.8945 0.0665 0.6748
C20 C 0.59266(12) 0.43102(12) 1.11160(11)
H8 H 0.5088 0.3770 1.1627
C21 C 0.63320(12) 0.50148(12) 1.16545(12)
H9 H 0.5740 0.4934 1.2539
C22 C 0.75428(13) 0.58125(12) 1.09604(12)
H10 H 0.7772 0.6258 1.1368
C23 C 0.96482(12) 0.26134(12) 0.82776(12)
H11 H 0.9844 0.3106 0.8662
C24 C 0.51969(13) -0.07149(12) 0.65303(13)
H12 H 0.5098 -0.1317 0.6212
C25 C 0.63588(13) 0.02324(12) 0.57104(12)
H13 H 0.7017 0.0264 0.4867
C26 C 1.00374(12) 0.07869(12) 0.77053(13)
C27 C 0.99179(12) 0.60136(12) 0.70428(12)
H14 H 1.0425 0.6038 0.6166
B2 B 0.79059(13) 0.42848(13) 0.77266(12)
C28 C 1.02910(12) 0.15012(13) 0.82831(13)
C29 C 0.97059(13) 0.67314(12) 0.87413(13)
H15 H 1.0060 0.7231 0.9020
C30 C 1.04247(13) 0.67571(13) 0.74685(13)
H16 H 1.1271 0.7282 0.6872
loop_
_geom_bond_atom_site_label_1
_geom_bond_atom_site_label_2
_geom_bond_site_symmetry_1
_geom_bond_site_symmetry_2
F1 C13 1_555 1_555
F2 C15 1_555 1_555
O1 C8 1_555 1_555
O2 C2 1_555 1_555
F3 C28 1_555 1_555
N1 C3 1_555 1_555
N2 C4 1_555 1_555
F4 C26 1_555 1_555
C1 H1 1_555 1_555
C2 C3 1_555 1_555
C3 C17 1_555 1_555
C4 C6 1_555 1_555
C5 H2 1_555 1_555
C6 C5 1_555 1_555
C7 C14 1_555 1_555
C8 C4 1_555 1_555
C9 C5 1_555 1_555
H3 C9 1_555 1_555
C10 C1 1_555 1_555
C11 N2 1_555 1_555
H4 C11 1_555 1_555
C12 C10 1_555 1_555
C13 C1 1_555 1_555
C14 C23 1_555 1_555
C15 C13 1_555 1_555
C16 C12 1_555 1_555
H5 C16 1_555 1_555
C17 C22 1_555 1_555
C18 C6 1_555 1_555
H6 C18 1_555 1_555
B1 O1 1_555 1_555
C19 C7 1_555 1_555
H7 C19 1_555 1_555
C20 C2 1_555 1_555
H8 C20 1_555 1_555
C21 C20 1_555 1_555
H9 C21 1_555 1_555
C22 C21 1_555 1_555
H10 C22 1_555 1_555
C23 H11 1_555 1_555
C24 C18 1_555 1_555
H12 C24 1_555 1_555
C25 C8 1_555 1_555
H13 C25 1_555 1_555
C26 C19 1_555 1_555
C27 N1 1_555 1_555
H14 C27 1_555 1_555
B2 O2 1_555 1_555
C28 C23 1_555 1_555
C29 C17 1_555 1_555
H15 C29 1_555 1_555
C30 C27 1_555 1_555
H16 C30 1_555 1_555
N1 B2 1_555 1_555
N2 B1 1_555 1_555
C7 B1 1_555 1_555
C9 C11 1_555 1_555
C10 B1 1_555 1_555
C12 B2 1_555 1_555
C14 B2 1_555 1_555
C15 C16 1_555 1_555
C24 C25 1_555 1_555
C26 C28 1_555 1_555
C29 C30 1_555 1_555

#END
