
#######################################################################
#
#                 Cambridge Crystallographic Data Centre
#                                CCDC 
#
#######################################################################
#
# If this CIF has been generated from an entry in the Cambridge 
# Structural Database, then it will include bibliographic, chemical, 
# crystal, experimental, refinement or atomic coordinate data resulting 
# from the CCDC's data processing and validation procedures.
#
#######################################################################

data_TOTFEP
_chemical_formula_moiety         'C14 H25 N1 O3'
_chemical_name_systematic        
(1S,2R,4S)-1-(morpholin-4-ylmethyl)-4-(prop-1-en-2-yl)cyclohexane-1,2-diol
_symmetry_cell_setting           monoclinic
_symmetry_space_group_name_H-M   'P 21'
_symmetry_Int_Tables_number      4
_space_group_name_Hall           'P 2yb'
loop_
_symmetry_equiv_pos_site_id
_symmetry_equiv_pos_as_xyz
1 x,y,z
2 -x,1/2+y,-z
_cell_length_a                   6.33000(10)
_cell_length_b                   22.0241(5)
_cell_length_c                   10.1179(2)
_cell_angle_alpha                90
_cell_angle_beta                 95.2083(12)
_cell_angle_gamma                90
_cell_volume                     1404.74
_exptl_crystal_colour            colorless
_exptl_crystal_description       prism
_cell_formula_units_Z            4
loop_
_atom_site_label
_atom_site_type_symbol
_atom_site_fract_x
_atom_site_fract_y
_atom_site_fract_z
C1 C 0.7333(2) 0.28883(8) 0.90710(15)
C2 C 0.7379(2) 0.25014(8) 0.78061(15)
H1 H 0.8889 0.2453 0.7609
C3 C 0.6442(3) 0.18737(8) 0.79751(16)
H2 H 0.7398 0.1640 0.8616
H3 H 0.6369 0.1658 0.7113
C4 C 0.4205(3) 0.18895(8) 0.84677(16)
H4 H 0.3248 0.2105 0.7780
C5 C 0.4259(3) 0.22604(8) 0.97478(17)
H5 H 0.2813 0.2285 1.0044
H6 H 0.5187 0.2057 1.0454
C6 C 0.5091(3) 0.28994(8) 0.95188(17)
H7 H 0.5096 0.3136 1.0352
H8 H 0.4128 0.3106 0.8835
C7 C 0.8332(3) 0.35171(8) 0.88857(18)
H9 H 0.8264 0.3750 0.9718
H10 H 0.9850 0.3458 0.8756
C8 C 0.5642(3) 0.42779(8) 0.8175(2)
H11 H 0.6201 0.4555 0.8895
H12 H 0.4525 0.4023 0.8517
C9 C 0.4707(3) 0.46446(8) 0.7005(2)
H13 H 0.4120 0.4367 0.6296
H14 H 0.3531 0.4898 0.7280
C10 C 0.7961(3) 0.46608(8) 0.61057(19)
H15 H 0.9052 0.4926 0.5766
H16 H 0.7409 0.4390 0.5374
C11 C 0.8970(3) 0.42814(8) 0.72373(18)
H17 H 1.0109 0.4027 0.6918
H18 H 0.9615 0.4551 0.7946
C12 C 0.3362(3) 0.12475(8) 0.85890(19)
C13 C 0.2009(4) 0.10122(10) 0.7415(3)
H19 H 0.1600 0.0592 0.7580
H20 H 0.2808 0.1027 0.6629
H21 H 0.0733 0.1264 0.7263
C14 C 0.3850(4) 0.08997(9) 0.9646(2)
H22 H 0.3336 0.0495 0.9662
H23 H 0.4712 0.1056 1.0386
N1 N 0.7366(2) 0.38889(7) 0.77770(14)
O1 O 0.8751(2) 0.25829(6) 1.00335(13)
O2 O 0.62372(19) 0.27966(6) 0.66952(11)
O3 O 0.6273(2) 0.50262(6) 0.65029(16)
H24 H 0.876(4) 0.2765(12) 1.076(3)
H25 H 0.657(4) 0.3175(11) 0.678(2)
C15 C 0.1605(2) 0.29160(7) 0.44014(15)
C16 C -0.0367(2) 0.32633(7) 0.37967(15)
H26 H -0.1437 0.3279 0.4465
C17 C 0.0177(2) 0.39080(7) 0.34182(16)
H27 H 0.0615 0.4141 0.4235
H28 H -0.1106 0.4104 0.2978
C18 C 0.1962(2) 0.39340(7) 0.24867(16)
H29 H 0.1467 0.3708 0.1659
C19 C 0.3920(2) 0.36029(7) 0.31378(17)
H30 H 0.5057 0.3606 0.2527
H31 H 0.4453 0.3818 0.3960
C20 C 0.3380(2) 0.29471(7) 0.34709(16)
H32 H 0.4662 0.2745 0.3897
H33 H 0.2932 0.2726 0.2641
C21 C 0.1026(3) 0.22662(7) 0.48039(16)
H34 H 0.2351 0.2051 0.5115
H35 H 0.0150 0.2293 0.5564
C22 C 0.1256(3) 0.14898(8) 0.30774(19)
H36 H 0.1939 0.1195 0.3720
H37 H 0.2385 0.1728 0.2703
C23 C -0.0033(3) 0.11532(9) 0.1975(2)
H38 H -0.0649 0.1448 0.1309
H39 H 0.0907 0.0876 0.1528
C24 C -0.3040(3) 0.12046(8) 0.3148(2)
H40 H -0.4185 0.0963 0.3498
H41 H -0.3706 0.1503 0.2507
C25 C -0.1826(3) 0.15376(8) 0.42746(17)
H42 H -0.2796 0.1808 0.4715
H43 H -0.1206 0.1243 0.4939
C26 C 0.2417(3) 0.45830(8) 0.20956(19)
C27 C 0.3227(4) 0.50158(9) 0.3166(2)
H44 H 0.3413 0.5418 0.2780
H45 H 0.4592 0.4870 0.3582
H46 H 0.2206 0.5042 0.3836
C28 C 0.2082(4) 0.47606(11) 0.0848(2)
H47 H 0.2356 0.5169 0.0616
H48 H 0.1568 0.4480 0.0182
N2 N -0.0127(2) 0.18982(6) 0.37589(13)
O4 O 0.2236(2) 0.32243(6) 0.56239(12)
O5 O -0.12856(18) 0.29577(6) 0.26338(11)
O6 O -0.1697(2) 0.08119(6) 0.24837(15)
H49 H 0.334(4) 0.3044(11) 0.593(3)
H50 H -0.121(4) 0.2593(14) 0.282(3)
loop_
_geom_bond_atom_site_label_1
_geom_bond_atom_site_label_2
_geom_bond_site_symmetry_1
_geom_bond_site_symmetry_2
C1 C2 1_555 1_555
C2 H1 1_555 1_555
C3 C2 1_555 1_555
H2 C3 1_555 1_555
H3 C3 1_555 1_555
C4 C3 1_555 1_555
H4 C4 1_555 1_555
C5 C4 1_555 1_555
H5 C5 1_555 1_555
H6 C5 1_555 1_555
C6 C1 1_555 1_555
H7 C6 1_555 1_555
H8 C6 1_555 1_555
C7 C1 1_555 1_555
H9 C7 1_555 1_555
H10 C7 1_555 1_555
C8 H11 1_555 1_555
H12 C8 1_555 1_555
C9 C8 1_555 1_555
H13 C9 1_555 1_555
H14 C9 1_555 1_555
C10 H15 1_555 1_555
H16 C10 1_555 1_555
C11 C10 1_555 1_555
H17 C11 1_555 1_555
H18 C11 1_555 1_555
C12 C4 1_555 1_555
C13 C12 1_555 1_555
H19 C13 1_555 1_555
H20 C13 1_555 1_555
H21 C13 1_555 1_555
C14 C12 1_555 1_555
H22 C14 1_555 1_555
H23 C14 1_555 1_555
N1 C7 1_555 1_555
O1 C1 1_555 1_555
O2 C2 1_555 1_555
O3 C9 1_555 1_555
H24 O1 1_555 1_555
H25 O2 1_555 1_555
C15 C16 1_555 1_555
C16 H26 1_555 1_555
C17 C16 1_555 1_555
H27 C17 1_555 1_555
H28 C17 1_555 1_555
C18 C17 1_555 1_555
H29 C18 1_555 1_555
C19 C18 1_555 1_555
H30 C19 1_555 1_555
H31 C19 1_555 1_555
C20 C15 1_555 1_555
H32 C20 1_555 1_555
H33 C20 1_555 1_555
C21 C15 1_555 1_555
H34 C21 1_555 1_555
H35 C21 1_555 1_555
C22 H36 1_555 1_555
H37 C22 1_555 1_555
C23 C22 1_555 1_555
H38 C23 1_555 1_555
H39 C23 1_555 1_555
C24 H40 1_555 1_555
H41 C24 1_555 1_555
C25 C24 1_555 1_555
H42 C25 1_555 1_555
H43 C25 1_555 1_555
C26 C18 1_555 1_555
C27 C26 1_555 1_555
H44 C27 1_555 1_555
H45 C27 1_555 1_555
H46 C27 1_555 1_555
C28 C26 1_555 1_555
H47 C28 1_555 1_555
H48 C28 1_555 1_555
N2 C21 1_555 1_555
O4 C15 1_555 1_555
O5 C16 1_555 1_555
O6 C23 1_555 1_555
H49 O4 1_555 1_555
H50 O5 1_555 1_555
C5 C6 1_555 1_555
C8 N1 1_555 1_555
C10 O3 1_555 1_555
C11 N1 1_555 1_555
C19 C20 1_555 1_555
C22 N2 1_555 1_555
C24 O6 1_555 1_555
C25 N2 1_555 1_555

#END
