
#######################################################################
#
#                 Cambridge Crystallographic Data Centre
#                                CCDC 
#
#######################################################################
#
# If this CIF has been generated from an entry in the Cambridge 
# Structural Database, then it will include bibliographic, chemical, 
# crystal, experimental, refinement or atomic coordinate data resulting 
# from the CCDC's data processing and validation procedures.
#
#######################################################################

data_TOTGUG
_chemical_formula_moiety         'C30 H48 O6'
_chemical_name_systematic        
2'-(4,7-dihydroxy-1,1,4-trimethyldecahydro-1H-cyclopropa[e]azulen-7-yl)-1,1,4-trimethyldecahydrospiro[cyclopropa[e]azulene-7,4'-[1,3]dioxolane]-4,5'-diol
_symmetry_cell_setting           orthorhombic
_symmetry_space_group_name_H-M   'P 21 21 21'
_symmetry_Int_Tables_number      19
_space_group_name_Hall           'P 2ac 2ab'
loop_
_symmetry_equiv_pos_site_id
_symmetry_equiv_pos_as_xyz
1 x,y,z
2 1/2+x,1/2-y,-z
3 -x,1/2+y,1/2-z
4 1/2-x,-y,1/2+z
_cell_length_a                   9.0356(2)
_cell_length_b                   14.7212(4)
_cell_length_c                   20.2608(5)
_cell_angle_alpha                90
_cell_angle_beta                 90
_cell_angle_gamma                90
_cell_volume                     2694.99
_exptl_crystal_colour            colorless
_exptl_crystal_description       block
_cell_formula_units_Z            4
loop_
_atom_site_label
_atom_site_type_symbol
_atom_site_fract_x
_atom_site_fract_y
_atom_site_fract_z
O1 O 0.91950(11) 0.63577(6) 0.11714(4)
H1 H 0.8354 0.6413 0.0999
O2 O 1.02362(10) 0.74054(6) 0.36533(4)
H2 H 1.0181 0.7913 0.3841
O3 O 0.71759(9) 0.49767(6) 0.11076(4)
O4 O 0.95222(9) 0.44292(6) 0.09778(4)
O5 O 0.93393(10) 0.38205(6) -0.00647(4)
H3 H 1.0242 0.3885 -0.0153
O6 O 0.23774(10) 0.38966(7) -0.04371(5)
H4 H 0.2775 0.3551 -0.0715
C1 C 1.08389(14) 0.64591(9) 0.24428(6)
H5 H 1.0960 0.7030 0.2190
H6 H 1.1686 0.6386 0.2748
C2 C 1.06844(14) 0.56426(9) 0.19848(7)
H7 H 1.0808 0.5067 0.2231
H8 H 1.1425 0.5667 0.1625
C3 C 0.91137(14) 0.57272(8) 0.17109(6)
C4 C 0.81974(13) 0.61507(8) 0.22895(6)
H9 H 0.7716 0.6716 0.2119
C5 C 0.70034(13) 0.55677(8) 0.25932(6)
H10 H 0.7322 0.4938 0.2711
C6 C 0.59519(14) 0.60067(9) 0.30845(6)
H11 H 0.5692 0.5608 0.3467
C7 C 0.61250(14) 0.70007(9) 0.32650(6)
H12 H 0.5286 0.7187 0.3548
H13 H 0.6090 0.7372 0.2858
C8 C 0.75876(15) 0.71902(9) 0.36306(6)
H14 H 0.7460 0.7753 0.3892
H15 H 0.7758 0.6688 0.3947
C9 C 0.89895(14) 0.72973(8) 0.32076(6)
C10 C 0.93628(13) 0.64399(8) 0.28136(6)
H16 H 0.9428 0.5931 0.3140
C11 C 0.53739(13) 0.56631(9) 0.24257(6)
C12 C 0.48624(14) 0.63184(10) 0.18995(6)
H17 H 0.5478 0.6866 0.1912
H18 H 0.3827 0.6483 0.1980
H19 H 0.4951 0.6031 0.1465
C13 C 0.44752(15) 0.47920(10) 0.24363(7)
H20 H 0.3442 0.4933 0.2543
H21 H 0.4879 0.4380 0.2771
H22 H 0.4524 0.4500 0.2002
C14 C 0.88764(17) 0.81482(9) 0.27805(7)
H23 H 0.8684 0.8677 0.3062
H24 H 0.8065 0.8077 0.2464
H25 H 0.9808 0.8238 0.2541
C15 C 0.85319(13) 0.48216(9) 0.14450(6)
H26 H 0.8368 0.4389 0.1819
C16 C 0.49577(14) 0.36106(9) 0.04283(6)
H27 H 0.4433 0.3855 0.0819
H28 H 0.4517 0.3018 0.0306
C17 C 0.66167(14) 0.35209(9) 0.05598(6)
H29 H 0.7085 0.3108 0.0236
H30 H 0.6802 0.3286 0.1010
C18 C 0.72109(13) 0.44901(8) 0.04854(6)
C19 C 0.61067(13) 0.49896(8) 0.00207(5)
H31 H 0.5625 0.5485 0.0281
C20 C 0.68011(14) 0.54186(9) -0.05839(6)
H32 H 0.7529 0.5021 -0.0818
C21 C 0.58475(16) 0.59929(9) -0.10367(6)
H33 H 0.6063 0.5906 -0.1517
C22 C 0.42302(16) 0.61466(9) -0.08845(7)
H34 H 0.3823 0.6591 -0.1203
H35 H 0.4140 0.6411 -0.0437
C23 C 0.33106(15) 0.52732(10) -0.09173(7)
H36 H 0.3656 0.4913 -0.1300
H37 H 0.2268 0.5442 -0.1003
C24 C 0.33528(14) 0.46635(9) -0.03045(6)
C25 C 0.49011(13) 0.42798(8) -0.01508(6)
H38 H 0.5244 0.3946 -0.0553
C26 C 0.70943(17) 0.64302(9) -0.06561(7)
C27 C 0.6750(2) 0.70979(10) -0.01107(8)
H39 H 0.6422 0.7674 -0.0304
H40 H 0.7640 0.7201 0.0155
H41 H 0.5963 0.6852 0.0170
C28 C 0.8466(2) 0.66841(12) -0.10445(9)
H42 H 0.8612 0.6246 -0.1403
H43 H 0.9329 0.6676 -0.0752
H44 H 0.8344 0.7294 -0.1230
C29 C 0.26389(15) 0.51444(10) 0.02821(7)
H45 H 0.1714 0.5432 0.0141
H46 H 0.3316 0.5609 0.0452
H47 H 0.2429 0.4701 0.0630
C30 C 0.88727(14) 0.45304(8) 0.03321(6)
H48 H 0.9145 0.5129 0.0133
loop_
_geom_bond_atom_site_label_1
_geom_bond_atom_site_label_2
_geom_bond_site_symmetry_1
_geom_bond_site_symmetry_2
O1 H1 1_555 1_555
O2 H2 1_555 1_555
O3 C15 1_555 1_555
O4 C15 1_555 1_555
O5 H3 1_555 1_555
O6 H4 1_555 1_555
C1 H5 1_555 1_555
H6 C1 1_555 1_555
C2 C1 1_555 1_555
H7 C2 1_555 1_555
H8 C2 1_555 1_555
C3 O1 1_555 1_555
C4 C3 1_555 1_555
H9 C4 1_555 1_555
C5 C4 1_555 1_555
H10 C5 1_555 1_555
C6 C5 1_555 1_555
H11 C6 1_555 1_555
C7 C6 1_555 1_555
H12 C7 1_555 1_555
H13 C7 1_555 1_555
C8 C7 1_555 1_555
H14 C8 1_555 1_555
H15 C8 1_555 1_555
C9 O2 1_555 1_555
C10 C1 1_555 1_555
H16 C10 1_555 1_555
C11 C5 1_555 1_555
C12 C11 1_555 1_555
H17 C12 1_555 1_555
H18 C12 1_555 1_555
H19 C12 1_555 1_555
C13 C11 1_555 1_555
H20 C13 1_555 1_555
H21 C13 1_555 1_555
H22 C13 1_555 1_555
C14 C9 1_555 1_555
H23 C14 1_555 1_555
H24 C14 1_555 1_555
H25 C14 1_555 1_555
C15 C3 1_555 1_555
H26 C15 1_555 1_555
C16 H27 1_555 1_555
H28 C16 1_555 1_555
C17 C16 1_555 1_555
H29 C17 1_555 1_555
H30 C17 1_555 1_555
C18 O3 1_555 1_555
C19 C18 1_555 1_555
H31 C19 1_555 1_555
C20 C19 1_555 1_555
H32 C20 1_555 1_555
C21 C20 1_555 1_555
H33 C21 1_555 1_555
C22 C21 1_555 1_555
H34 C22 1_555 1_555
H35 C22 1_555 1_555
C23 C22 1_555 1_555
H36 C23 1_555 1_555
H37 C23 1_555 1_555
C24 O6 1_555 1_555
C25 C16 1_555 1_555
H38 C25 1_555 1_555
C26 C20 1_555 1_555
C27 C26 1_555 1_555
H39 C27 1_555 1_555
H40 C27 1_555 1_555
H41 C27 1_555 1_555
C28 C26 1_555 1_555
H42 C28 1_555 1_555
H43 C28 1_555 1_555
H44 C28 1_555 1_555
C29 C24 1_555 1_555
H45 C29 1_555 1_555
H46 C29 1_555 1_555
H47 C29 1_555 1_555
C30 O4 1_555 1_555
H48 C30 1_555 1_555
O5 C30 1_555 1_555
C2 C3 1_555 1_555
C4 C10 1_555 1_555
C6 C11 1_555 1_555
C8 C9 1_555 1_555
C9 C10 1_555 1_555
C17 C18 1_555 1_555
C18 C30 1_555 1_555
C19 C25 1_555 1_555
C21 C26 1_555 1_555
C23 C24 1_555 1_555
C24 C25 1_555 1_555

#END
