
#######################################################################
#
#                 Cambridge Crystallographic Data Centre
#                                CCDC 
#
#######################################################################
#
# If this CIF has been generated from an entry in the Cambridge 
# Structural Database, then it will include bibliographic, chemical, 
# crystal, experimental, refinement or atomic coordinate data resulting 
# from the CCDC's data processing and validation procedures.
#
#######################################################################

data_TOTHUH
_chemical_name_common            
5,10-bis(8-oxyquinolinato)-5,10-dihydroboranthrene
_chemical_formula_moiety         'C30 H20 B2 N2 O2'
_chemical_name_systematic        
2,10''-dihydrodispiro[1,3,2-oxazaborolo[5,4,3-ij]quinoline-2,5'-boranthrene-10',2''-[1,3,2]oxazaborolo[5,4,3-ij]quinoline]
_symmetry_cell_setting           monoclinic
_symmetry_space_group_name_H-M   'P 21/c'
_symmetry_Int_Tables_number      14
_space_group_name_Hall           '-P 2ybc'
loop_
_symmetry_equiv_pos_site_id
_symmetry_equiv_pos_as_xyz
1 x,y,z
2 -x,1/2+y,1/2-z
3 -x,-y,-z
4 x,1/2-y,1/2+z
_cell_length_a                   9.5948(3)
_cell_length_b                   20.3932(5)
_cell_length_c                   11.8402(4)
_cell_angle_alpha                90
_cell_angle_beta                 98.680(3)
_cell_angle_gamma                90
_cell_volume                     2290.22
_exptl_crystal_colour            yellow
_exptl_crystal_description       cubic
_chemical_melting_point          '344 K'
_cell_formula_units_Z            4
_exptl_crystal_recrystallization_method acetone
_exptl_crystal_preparation       Luminescent
loop_
_atom_site_label
_atom_site_type_symbol
_atom_site_fract_x
_atom_site_fract_y
_atom_site_fract_z
C1 C 0.19432(15) 0.51345(7) 0.80601(12)
C2 C 0.28965(15) 0.46004(7) 0.81866(12)
C3 C 0.25108(17) 0.40253(8) 0.87080(13)
H1 H 0.3149 0.3666 0.8803
C4 C 0.12119(18) 0.39675(8) 0.90914(14)
H2 H 0.0968 0.3572 0.9438
C5 C 0.02821(17) 0.44881(8) 0.89643(14)
H3 H -0.0606 0.4452 0.9221
C6 C 0.06473(16) 0.50666(8) 0.84591(13)
H4 H 0.0004 0.5424 0.8383
C7 C 0.40031(15) 0.59414(7) 0.76504(12)
C8 C 0.49645(15) 0.54107(7) 0.77954(12)
C9 C 0.64086(17) 0.55514(8) 0.79988(14)
H5 H 0.7063 0.5199 0.8095
C10 C 0.69111(18) 0.61890(9) 0.80643(15)
H6 H 0.7897 0.6270 0.8205
C11 C 0.59678(18) 0.67080(8) 0.79234(15)
H7 H 0.6303 0.7147 0.7968
C12 C 0.45302(17) 0.65813(8) 0.77164(13)
H8 H 0.3888 0.6939 0.7617
C13 C 0.05079(15) 0.65652(7) 0.69085(13)
C14 C -0.05242(16) 0.70382(8) 0.68648(15)
H9 H -0.0616 0.7299 0.7514
C15 C -0.14456(17) 0.71229(8) 0.58199(16)
H10 H -0.2176 0.7439 0.5793
C16 C -0.13412(17) 0.67747(8) 0.48504(15)
H11 H -0.1984 0.6853 0.4171
C17 C -0.02623(16) 0.62939(7) 0.48648(14)
C18 C 0.00344(17) 0.58900(8) 0.39610(14)
H12 H -0.0521 0.5921 0.3227
C19 C 0.11321(17) 0.54523(8) 0.41525(13)
H13 H 0.1338 0.5184 0.3543
C20 C 0.19551(16) 0.53941(7) 0.52325(12)
H14 H 0.2709 0.5088 0.5347
C21 C 0.06133(15) 0.62087(7) 0.59056(13)
C22 C 0.51015(16) 0.39801(7) 0.62948(13)
C23 C 0.53389(17) 0.36667(7) 0.53150(13)
H15 H 0.4808 0.3771 0.4594
C24 C 0.64078(17) 0.31815(8) 0.54232(14)
H16 H 0.6583 0.2963 0.4750
C25 C 0.72056(17) 0.30070(7) 0.64387(14)
H17 H 0.7914 0.2680 0.6457
C26 C 0.69630(15) 0.33190(7) 0.74629(13)
C27 C 0.76179(16) 0.32027(7) 0.85972(14)
H18 H 0.8341 0.2882 0.8748
C28 C 0.72056(16) 0.35546(8) 0.94847(14)
H19 H 0.7640 0.3470 1.0246
C29 C 0.61493(16) 0.40369(8) 0.92777(13)
H20 H 0.5884 0.4280 0.9896
C30 C 0.59090(15) 0.38005(7) 0.73393(12)
B1 B 0.23427(17) 0.57984(8) 0.74524(14)
B2 B 0.43488(18) 0.46793(8) 0.76904(14)
N1 N 0.16855(13) 0.57646(6) 0.60939(10)
N2 N 0.55240(13) 0.41526(6) 0.82206(10)
O1 O 0.14868(11) 0.63852(5) 0.77840(9)
O2 O 0.41666(11) 0.44501(5) 0.64310(9)
loop_
_geom_bond_atom_site_label_1
_geom_bond_atom_site_label_2
_geom_bond_site_symmetry_1
_geom_bond_site_symmetry_2
C1 C2 1_555 1_555
C2 C3 1_555 1_555
C3 H1 1_555 1_555
C4 C3 1_555 1_555
H2 C4 1_555 1_555
C5 C4 1_555 1_555
H3 C5 1_555 1_555
C6 C1 1_555 1_555
H4 C6 1_555 1_555
C7 C8 1_555 1_555
C8 C9 1_555 1_555
C9 H5 1_555 1_555
C10 C9 1_555 1_555
H6 C10 1_555 1_555
C11 C10 1_555 1_555
H7 C11 1_555 1_555
C12 C7 1_555 1_555
H8 C12 1_555 1_555
C13 C14 1_555 1_555
C14 H9 1_555 1_555
C15 C14 1_555 1_555
H10 C15 1_555 1_555
C16 C15 1_555 1_555
H11 C16 1_555 1_555
C17 C16 1_555 1_555
C18 C17 1_555 1_555
H12 C18 1_555 1_555
C19 C18 1_555 1_555
H13 C19 1_555 1_555
C20 C19 1_555 1_555
H14 C20 1_555 1_555
C21 C13 1_555 1_555
C22 C23 1_555 1_555
C23 H15 1_555 1_555
C24 C23 1_555 1_555
H16 C24 1_555 1_555
C25 C24 1_555 1_555
H17 C25 1_555 1_555
C26 C25 1_555 1_555
C27 C26 1_555 1_555
H18 C27 1_555 1_555
C28 C27 1_555 1_555
H19 C28 1_555 1_555
C29 C28 1_555 1_555
H20 C29 1_555 1_555
C30 C22 1_555 1_555
B1 C1 1_555 1_555
B2 C2 1_555 1_555
N1 C20 1_555 1_555
N2 C29 1_555 1_555
O1 C13 1_555 1_555
O2 C22 1_555 1_555
C5 C6 1_555 1_555
C7 B1 1_555 1_555
C8 B2 1_555 1_555
C11 C12 1_555 1_555
C17 C21 1_555 1_555
C21 N1 1_555 1_555
C26 C30 1_555 1_555
C30 N2 1_555 1_555
B1 N1 1_555 1_555
B1 O1 1_555 1_555
B2 N2 1_555 1_555
B2 O2 1_555 1_555

#END
