
#######################################################################
#
#                 Cambridge Crystallographic Data Centre
#                                CCDC 
#
#######################################################################
#
# If this CIF has been generated from an entry in the Cambridge 
# Structural Database, then it will include bibliographic, chemical, 
# crystal, experimental, refinement or atomic coordinate data resulting 
# from the CCDC's data processing and validation procedures.
#
#######################################################################

data_TOTPUN01
_chemical_formula_moiety         'C17 H27 N1 O2 S1'
_chemical_name_systematic        
(+)-(E)-(3R,4R)-2,7-Dimethyl-4-[(S)-N-methyl-S-phenylsulfonimidoyl]oct-5-en-3-ol
_symmetry_cell_setting           monoclinic
_symmetry_space_group_name_H-M   'P 21'
_symmetry_Int_Tables_number      4
_space_group_name_Hall           'P 2yb'
loop_
_symmetry_equiv_pos_site_id
_symmetry_equiv_pos_as_xyz
1 x,y,z
2 -x,1/2+y,-z
_cell_length_a                   5.767(1)
_cell_length_b                   16.577(2)
_cell_length_c                   10.265(1)
_cell_angle_alpha                90
_cell_angle_beta                 106.043(8)
_cell_angle_gamma                90
_cell_volume                     943.111
_exptl_crystal_colour            colorless
_exptl_crystal_description       irregular
_chemical_melting_point          82deg.C
_cell_formula_units_Z            2
loop_
_atom_site_label
_atom_site_type_symbol
_atom_site_fract_x
_atom_site_fract_y
_atom_site_fract_z
S1 S 0.1703(1) 0.35186 0.12017(7)
O1 O -0.0477(3) 0.3869(2) 0.1400(2)
O2 O 0.2310(5) 0.3697(2) -0.1772(2)
N1 N 0.1596(6) 0.2795(2) 0.0298(3)
C1 C 0.3267(4) 0.4279(2) 0.0501(3)
C2 C 0.3327(5) 0.5025(2) 0.1296(3)
C3 C 0.5261(6) 0.5320(2) 0.2120(4)
C4 C 0.5336(8) 0.6095(2) 0.2923(4)
C5 C 0.721(2) 0.6657(4) 0.2625(9)
C6 C 0.567(2) 0.5926(4) 0.4376(5)
C7 C 0.1966(5) 0.4380(2) -0.1039(3)
C8 C 0.2761(6) 0.5127(2) -0.1621(3)
C9 C 0.1232(8) 0.5249(3) -0.3076(4)
C10 C 0.5455(7) 0.5106(3) -0.1569(4)
C11 C 0.038(1) 0.2062(3) 0.0653(6)
C12 C 0.3646(5) 0.3341(2) 0.2846(3)
C13 C 0.5765(7) 0.2926(3) 0.2968(4)
C14 C 0.7354(8) 0.2778(3) 0.4219(6)
C15 C 0.679(1) 0.3084(4) 0.5367(6)
C16 C 0.464(1) 0.3481(4) 0.5253(4)
C17 C 0.3034(7) 0.3622(3) 0.3971(3)
H1 H 0.4982 0.4121 0.0593
H2 H 0.2583 0.5613 -0.1039
H3 H 0.3693 0.6397 0.2583
H4 H 0.0195 0.4470 -0.1157
H5 H 0.1757 0.5338 0.1204
H6 H 0.6788 0.5034 0.2230
H7 H 0.6097 0.2736 0.2104
H8 H 0.8899 0.2498 0.4280
H9 H 0.7977 0.3042 0.6286
H10 H 0.4274 0.3677 0.6108
H11 H 0.1468 0.3934 0.3854
H12 H 0.8808 0.6371 0.2965
H13 H 0.6854 0.6766 0.1657
H14 H 0.7235 0.7160 0.3162
H15 H 0.4439 0.5569 0.4559
H16 H 0.7341 0.5646 0.4763
H17 H 0.5779 0.6440 0.4940
H18 H 0.1383 0.4776 -0.3644
H19 H -0.0537 0.5311 -0.3099
H20 H 0.1739 0.5752 -0.3467
H21 H 0.6450 0.5048 -0.0608
H22 H 0.5740 0.4638 -0.2113
H23 H 0.6015 0.5611 -0.1950
H24 H 0.1181 0.1911 0.1631
H25 H -0.1388 0.2235 0.0655
H26 H 0.0225 0.1600 0.0076
H27 H 0.4116 0.3625 -0.1641
loop_
_geom_bond_atom_site_label_1
_geom_bond_atom_site_label_2
_geom_bond_site_symmetry_1
_geom_bond_site_symmetry_2
S1 O1 1_555 1_555
O2 C7 1_555 1_555
N1 S1 1_555 1_555
C1 S1 1_555 1_555
C2 C1 1_555 1_555
C3 C2 1_555 1_555
C4 C3 1_555 1_555
C5 C4 1_555 1_555
C6 C4 1_555 1_555
C7 C1 1_555 1_555
C8 C7 1_555 1_555
C9 C8 1_555 1_555
C10 C8 1_555 1_555
C11 N1 1_555 1_555
C12 S1 1_555 1_555
C13 C12 1_555 1_555
C14 C13 1_555 1_555
C15 C14 1_555 1_555
C16 C15 1_555 1_555
C17 C12 1_555 1_555
H1 C1 1_555 1_555
H2 C8 1_555 1_555
H3 C4 1_555 1_555
H4 C7 1_555 1_555
H5 C2 1_555 1_555
H6 C3 1_555 1_555
H7 C13 1_555 1_555
H8 C14 1_555 1_555
H9 C15 1_555 1_555
H10 C16 1_555 1_555
H11 C17 1_555 1_555
H12 C5 1_555 1_555
H13 C5 1_555 1_555
H14 C5 1_555 1_555
H15 C6 1_555 1_555
H16 C6 1_555 1_555
H17 C6 1_555 1_555
H18 C9 1_555 1_555
H19 C9 1_555 1_555
H20 C9 1_555 1_555
H21 C10 1_555 1_555
H22 C10 1_555 1_555
H23 C10 1_555 1_555
H24 C11 1_555 1_555
H25 C11 1_555 1_555
H26 C11 1_555 1_555
H27 O2 1_555 1_555
C16 C17 1_555 1_555

#END
