
#######################################################################
#
#                 Cambridge Crystallographic Data Centre
#                                CCDC 
#
#######################################################################
#
# If this CIF has been generated from an entry in the Cambridge 
# Structural Database, then it will include bibliographic, chemical, 
# crystal, experimental, refinement or atomic coordinate data resulting 
# from the CCDC's data processing and validation procedures.
#
#######################################################################

data_TOTZAF
_chemical_formula_moiety         'C80 H86 N6 O3,3(C1 H1 Cl3)'
_chemical_name_systematic        
'3-Benzoyl-5-methyl-1-(4-(10,15,20-tris(3,5-di-t-butylphenyl)porphyrin-5-yl)phenyl)pyrimidine-2,4(1H,3H)-dione chloroform solvate'
_symmetry_cell_setting           triclinic
_symmetry_space_group_name_H-M   'P -1'
_symmetry_Int_Tables_number      2
_space_group_name_Hall           '-P 1'
loop_
_symmetry_equiv_pos_site_id
_symmetry_equiv_pos_as_xyz
1 x,y,z
2 -x,-y,-z
_cell_length_a                   15.4721(5)
_cell_length_b                   16.3717(5)
_cell_length_c                   19.0278(6)
_cell_angle_alpha                92.068(2)
_cell_angle_beta                 110.731(3)
_cell_angle_gamma                99.280(3)
_cell_volume                     4426.04
_exptl_crystal_colour            violet
_exptl_crystal_description       block
_cell_formula_units_Z            2
loop_
_atom_site_label
_atom_site_type_symbol
_atom_site_fract_x
_atom_site_fract_y
_atom_site_fract_z
C1 C 0.4454(3) -0.0863(2) 0.6814(2)
C2 C 0.4899(3) -0.1332(2) 0.6425(2)
H1 H 0.4748 -0.1916 0.6290
C3 C 0.5567(3) -0.0789(2) 0.6288(2)
H2 H 0.5968 -0.0915 0.6036
C4 C 0.5544(3) 0.0025(2) 0.66052(19)
C5 C 0.6177(3) 0.0747(2) 0.6610(2)
C6 C 0.6253(3) 0.1532(2) 0.6969(2)
C7 C 0.6893(3) 0.2274(2) 0.6952(2)
H3 H 0.7347 0.2309 0.6718
C8 C 0.6725(3) 0.2908(2) 0.7331(2)
H4 H 0.7041 0.3471 0.7412
C9 C 0.5987(3) 0.2583(2) 0.7589(2)
C10 C 0.5595(3) 0.3046(2) 0.7999(2)
C11 C 0.4914(3) 0.2696(2) 0.8285(2)
C12 C 0.4529(3) 0.3158(2) 0.8730(2)
H5 H 0.4681 0.3741 0.8872
C13 C 0.3907(3) 0.2591(3) 0.8903(2)
H6 H 0.3546 0.2701 0.9196
C14 C 0.3903(3) 0.1786(2) 0.8555(2)
C15 C 0.3304(3) 0.1062(2) 0.8589(2)
C16 C 0.3205(3) 0.0279(2) 0.8208(2)
C17 C 0.2559(3) -0.0455(3) 0.8222(2)
H7 H 0.2137 -0.0493 0.8485
C18 C 0.2664(3) -0.1082(3) 0.7789(2)
H8 H 0.2321 -0.1636 0.7688
C19 C 0.3390(3) -0.0753(2) 0.7513(2)
C20 C 0.3748(3) -0.1202(2) 0.7075(2)
N1 N 0.4869(2) -0.00336(18) 0.69123(16)
H9 H 0.4724 0.0378 0.7132
N2 N 0.5726(2) 0.17470(19) 0.73651(17)
N3 N 0.4516(2) 0.1867(2) 0.81881(18)
H10 H 0.4636 0.1466 0.7937
N4 N 0.3686(2) 0.0079(2) 0.77683(18)
C21 C 0.5943(3) 0.3964(2) 0.8122(2)
C22 C 0.5837(3) 0.4419(2) 0.7490(2)
H11 H 0.5518 0.4138 0.6997
C23 C 0.6184(3) 0.5259(2) 0.7570(2)
C24 C 0.6634(3) 0.5661(2) 0.8310(2)
H12 H 0.6872 0.6242 0.8376
C25 C 0.6741(3) 0.5232(2) 0.8946(2)
C26 C 0.6399(3) 0.4382(2) 0.8836(2)
H13 H 0.6480 0.4078 0.9263
C27 C 0.6121(3) 0.5756(2) 0.6887(2)
C28 C 0.5621(4) 0.6483(3) 0.6913(3)
H14 H 0.4989 0.6270 0.6906
H15 H 0.5575 0.6792 0.6473
H16 H 0.5980 0.6854 0.7376
C29 C 0.7100(4) 0.6092(4) 0.6911(3)
H17 H 0.7472 0.6410 0.7402
H18 H 0.7063 0.6457 0.6508
H19 H 0.7400 0.5629 0.6840
C30 C 0.5566(5) 0.5221(3) 0.6143(3)
H20 H 0.5882 0.4758 0.6103
H21 H 0.5529 0.5559 0.5722
H22 H 0.4930 0.5001 0.6125
C31 C 0.7203(3) 0.5672(3) 0.9754(2)
C32 C 0.7543(5) 0.6605(3) 0.9769(3)
H23 H 0.8013 0.6692 0.9530
H24 H 0.7826 0.6856 1.0294
H25 H 0.7009 0.6864 0.9493
C33 C 0.8035(3) 0.5271(3) 1.0205(3)
H26 H 0.7864 0.4665 1.0086
H27 H 0.8192 0.5409 1.0747
H28 H 0.8581 0.5481 1.0072
C34 C 0.6471(4) 0.5567(3) 1.0131(2)
H29 H 0.5998 0.5908 0.9904
H30 H 0.6783 0.5743 1.0673
H31 H 0.6165 0.4981 1.0057
C35 C 0.2728(3) 0.1110(3) 0.9065(2)
C36 C 0.1792(3) 0.1180(3) 0.8757(2)
H32 H 0.1510 0.1214 0.8229
C37 C 0.1250(3) 0.1202(3) 0.9211(2)
C38 C 0.1691(3) 0.1176(3) 0.9986(2)
H33 H 0.1335 0.1194 1.0301
C39 C 0.2629(3) 0.1126(3) 1.0308(2)
C40 C 0.3141(3) 0.1084(3) 0.9840(2)
H34 H 0.3784 0.1038 1.0054
C41 C 0.0198(3) 0.1206(4) 0.8851(3)
C42 C 0.0036(4) 0.1850(5) 0.8296(5)
H35 H 0.0291 0.2407 0.8569
H36 H -0.0640 0.1800 0.8016
H37 H 0.0352 0.1763 0.7943
C43 C -0.0275(5) 0.1246(7) 0.9426(5)
H38 H -0.0267 0.0730 0.9672
H39 H -0.0927 0.1314 0.9169
H40 H 0.0064 0.1720 0.9807
C44 C -0.0295(4) 0.0339(5) 0.8374(4)
H41 H 0.0035 0.0219 0.8039
H42 H -0.0951 0.0357 0.8072
H43 H -0.0274 -0.0097 0.8716
C45 C 0.3110(3) 0.1097(3) 1.1166(2)
C46 C 0.2537(5) 0.1414(6) 1.1598(3)
H44 H 0.2278 0.1888 1.1366
H45 H 0.2947 0.1587 1.2126
H46 H 0.2022 0.0967 1.1579
C47 C 0.3214(7) 0.0225(5) 1.1326(4)
H47 H 0.2590 -0.0129 1.1173
H48 H 0.3553 0.0212 1.1867
H49 H 0.3567 0.0019 1.1041
C48 C 0.4068(4) 0.1673(4) 1.1465(3)
H50 H 0.4471 0.1492 1.1216
H51 H 0.4359 0.1653 1.2011
H52 H 0.3989 0.2243 1.1360
C49 C 0.3397(3) -0.2121(2) 0.6894(2)
C50 C 0.3545(3) -0.2636(3) 0.7479(2)
H53 H 0.3827 -0.2397 0.7989
C51 C 0.3283(3) -0.3498(3) 0.7320(3)
C52 C 0.2863(3) -0.3825(3) 0.6573(3)
H54 H 0.2674 -0.4412 0.6463
C53 C 0.2704(3) -0.3336(2) 0.5972(3)
C54 C 0.2973(3) -0.2474(2) 0.6149(2)
H55 H 0.2865 -0.2122 0.5752
C55 C 0.3424(3) -0.4067(3) 0.7967(3)
C56 C 0.4059(6) -0.3596(5) 0.8735(4)
H56 H 0.4696 -0.3419 0.8736
H57 H 0.4078 -0.3961 0.9134
H58 H 0.3808 -0.3106 0.8823
C57 C 0.2480(4) -0.4406(3) 0.8013(3)
H59 H 0.2319 -0.4000 0.8315
H60 H 0.2510 -0.4927 0.8251
H61 H 0.1999 -0.4510 0.7503
C58 C 0.3836(6) -0.4798(5) 0.7815(5)
H62 H 0.3417 -0.5113 0.7334
H63 H 0.3904 -0.5159 0.8223
H64 H 0.4454 -0.4597 0.7787
C59 C 0.2255(3) -0.3745(3) 0.5154(3)
C60 C 0.1232(3) -0.4129(3) 0.4993(3)
H65 H 0.1203 -0.4620 0.5270
H66 H 0.0909 -0.4294 0.4450
H67 H 0.0924 -0.3721 0.5155
C61 C 0.2779(4) -0.4423(4) 0.5056(4)
H68 H 0.3344 -0.4174 0.4964
H69 H 0.2370 -0.4823 0.4626
H70 H 0.2960 -0.4710 0.5515
C62 C 0.2265(4) -0.3117(3) 0.4583(3)
H71 H 0.1831 -0.2742 0.4582
H72 H 0.2068 -0.3413 0.4079
H73 H 0.2903 -0.2794 0.4722
C63 C 0.6813(3) 0.0688(2) 0.6192(2)
C64 C 0.6456(3) 0.0579(2) 0.5403(2)
H74 H 0.5799 0.0522 0.5136
C65 C 0.7046(3) 0.0555(3) 0.5011(2)
H75 H 0.6797 0.0485 0.4474
C66 C 0.8005(3) 0.0631(2) 0.5397(2)
C67 C 0.8377(3) 0.0741(3) 0.6180(2)
H76 H 0.9035 0.0797 0.6446
C68 C 0.7782(3) 0.0766(3) 0.6562(2)
H77 H 0.8036 0.0840 0.7099
N5 N 0.8600(2) 0.05959(19) 0.49715(17)
C69 C 0.9321(3) 0.1272(2) 0.5068(2)
N6 N 0.9806(2) 0.1206(2) 0.45882(19)
C70 C 0.9646(3) 0.0557(2) 0.4036(2)
C71 C 0.8872(3) -0.0113(2) 0.3965(2)
C72 C 0.8404(3) -0.0061(2) 0.4428(2)
H78 H 0.7902 -0.0504 0.4382
O1 O 0.9515(2) 0.18761(18) 0.55176(16)
O2 O 1.0155(2) 0.0588(2) 0.3673(2)
C73 C 0.8644(3) -0.0834(3) 0.3379(2)
H79 H 0.8203 -0.0711 0.2898
H80 H 0.8358 -0.1334 0.3542
H81 H 0.9223 -0.0928 0.3315
C74 C 1.0574(3) 0.1918(3) 0.4676(2)
O3 O 1.1331(2) 0.1923(2) 0.5138(2)
C75 C 1.0303(3) 0.2553(2) 0.4156(2)
C76 C 0.9381(3) 0.2544(3) 0.3702(3)
H82 H 0.8898 0.2110 0.3714
C77 C 0.9155(3) 0.3164(3) 0.3231(3)
H83 H 0.8519 0.3157 0.2922
C78 C 0.9857(3) 0.3795(3) 0.3209(3)
H84 H 0.9704 0.4221 0.2886
C79 C 1.0779(3) 0.3798(3) 0.3660(3)
H85 H 1.1261 0.4227 0.3641
C80 C 1.1012(3) 0.3192(3) 0.4135(2)
H86 H 1.1649 0.3205 0.4447
C81 C 0.8769(7) 0.4808(6) 0.8396(4)
H89 H 0.8115 0.4881 0.8325
Cl1 Cl 0.9056(3) 0.4021(2) 0.90087(18)
Cl2 Cl 0.9514(3) 0.5743(2) 0.8776(2)
Cl3 Cl 0.87869(16) 0.44883(14) 0.75154(13)
C82 C 0.1065(4) 0.3226(3) 0.6735(3)
H90 H 0.0685 0.2684 0.6447
Cl4 Cl 0.13472(14) 0.38669(9) 0.60978(8)
Cl5 Cl 0.03848(13) 0.36791(12) 0.71411(11)
Cl6 Cl 0.20808(12) 0.30218(8) 0.74368(9)
C83 C 0.3570(6) 0.2400(5) 0.5452(5)
H91 H 0.3002 0.2093 0.5030
Cl7 Cl 0.3549(2) 0.3469(2) 0.5470(3)
Cl8 Cl 0.3579(2) 0.2038(3) 0.62965(18)
Cl9 Cl 0.4588(3) 0.2243(4) 0.5294(2)
H87? H 0.5291 0.1404 0.7461
H88? H 0.4113 0.0424 0.7665
C84? C 0.4312(8) 0.2426(6) 0.5818(6)
H92? H 0.4913 0.2480 0.6263
Cl10? Cl 0.4559(5) 0.2901(3) 0.5106(2)
Cl11? Cl 0.3872(2) 0.13937(18) 0.5549(3)
Cl12? Cl 0.3556(2) 0.2974(3) 0.6079(3)
loop_
_geom_bond_atom_site_label_1
_geom_bond_atom_site_label_2
_geom_bond_site_symmetry_1
_geom_bond_site_symmetry_2
C1 C2 1_555 1_555
C2 H1 1_555 1_555
C3 C2 1_555 1_555
H2 C3 1_555 1_555
C4 C3 1_555 1_555
C5 C4 1_555 1_555
C6 C5 1_555 1_555
C7 C6 1_555 1_555
H3 C7 1_555 1_555
C8 C7 1_555 1_555
H4 C8 1_555 1_555
C9 C8 1_555 1_555
C10 C9 1_555 1_555
C11 C10 1_555 1_555
C12 C11 1_555 1_555
H5 C12 1_555 1_555
C13 C12 1_555 1_555
H6 C13 1_555 1_555
C14 C13 1_555 1_555
C15 C14 1_555 1_555
C16 C15 1_555 1_555
C17 C16 1_555 1_555
H7 C17 1_555 1_555
C18 C17 1_555 1_555
H8 C18 1_555 1_555
C19 C18 1_555 1_555
C20 C1 1_555 1_555
N1 C1 1_555 1_555
H9 N1 1_555 1_555
N2 C6 1_555 1_555
N3 C11 1_555 1_555
H10 N3 1_555 1_555
N4 C16 1_555 1_555
C21 C10 1_555 1_555
C22 C21 1_555 1_555
H11 C22 1_555 1_555
C23 C22 1_555 1_555
C24 C23 1_555 1_555
H12 C24 1_555 1_555
C25 C24 1_555 1_555
C26 C21 1_555 1_555
H13 C26 1_555 1_555
C27 C23 1_555 1_555
C28 C27 1_555 1_555
H14 C28 1_555 1_555
H15 C28 1_555 1_555
H16 C28 1_555 1_555
C29 C27 1_555 1_555
H17 C29 1_555 1_555
H18 C29 1_555 1_555
H19 C29 1_555 1_555
C30 C27 1_555 1_555
H20 C30 1_555 1_555
H21 C30 1_555 1_555
H22 C30 1_555 1_555
C31 C25 1_555 1_555
C32 C31 1_555 1_555
H23 C32 1_555 1_555
H24 C32 1_555 1_555
H25 C32 1_555 1_555
C33 C31 1_555 1_555
H26 C33 1_555 1_555
H27 C33 1_555 1_555
H28 C33 1_555 1_555
C34 C31 1_555 1_555
H29 C34 1_555 1_555
H30 C34 1_555 1_555
H31 C34 1_555 1_555
C35 C15 1_555 1_555
C36 C35 1_555 1_555
H32 C36 1_555 1_555
C37 C36 1_555 1_555
C38 C37 1_555 1_555
H33 C38 1_555 1_555
C39 C38 1_555 1_555
C40 C35 1_555 1_555
H34 C40 1_555 1_555
C41 C37 1_555 1_555
C42 C41 1_555 1_555
H35 C42 1_555 1_555
H36 C42 1_555 1_555
H37 C42 1_555 1_555
C43 C41 1_555 1_555
H38 C43 1_555 1_555
H39 C43 1_555 1_555
H40 C43 1_555 1_555
C44 C41 1_555 1_555
H41 C44 1_555 1_555
H42 C44 1_555 1_555
H43 C44 1_555 1_555
C45 C39 1_555 1_555
C46 C45 1_555 1_555
H44 C46 1_555 1_555
H45 C46 1_555 1_555
H46 C46 1_555 1_555
C47 C45 1_555 1_555
H47 C47 1_555 1_555
H48 C47 1_555 1_555
H49 C47 1_555 1_555
C48 C45 1_555 1_555
H50 C48 1_555 1_555
H51 C48 1_555 1_555
H52 C48 1_555 1_555
C49 C20 1_555 1_555
C50 C49 1_555 1_555
H53 C50 1_555 1_555
C51 C50 1_555 1_555
C52 C51 1_555 1_555
H54 C52 1_555 1_555
C53 C52 1_555 1_555
C54 C49 1_555 1_555
H55 C54 1_555 1_555
C55 C51 1_555 1_555
C56 C55 1_555 1_555
H56 C56 1_555 1_555
H57 C56 1_555 1_555
H58 C56 1_555 1_555
C57 C55 1_555 1_555
H59 C57 1_555 1_555
H60 C57 1_555 1_555
H61 C57 1_555 1_555
C58 C55 1_555 1_555
H62 C58 1_555 1_555
H63 C58 1_555 1_555
H64 C58 1_555 1_555
C59 C53 1_555 1_555
C60 C59 1_555 1_555
H65 C60 1_555 1_555
H66 C60 1_555 1_555
H67 C60 1_555 1_555
C61 C59 1_555 1_555
H68 C61 1_555 1_555
H69 C61 1_555 1_555
H70 C61 1_555 1_555
C62 C59 1_555 1_555
H71 C62 1_555 1_555
H72 C62 1_555 1_555
H73 C62 1_555 1_555
C63 C5 1_555 1_555
C64 C63 1_555 1_555
H74 C64 1_555 1_555
C65 C64 1_555 1_555
H75 C65 1_555 1_555
C66 C65 1_555 1_555
C67 C66 1_555 1_555
H76 C67 1_555 1_555
C68 C63 1_555 1_555
H77 C68 1_555 1_555
N5 C66 1_555 1_555
C69 N5 1_555 1_555
N6 C69 1_555 1_555
C70 N6 1_555 1_555
C71 C70 1_555 1_555
C72 N5 1_555 1_555
H78 C72 1_555 1_555
O1 C69 1_555 1_555
O2 C70 1_555 1_555
C73 C71 1_555 1_555
H79 C73 1_555 1_555
H80 C73 1_555 1_555
H81 C73 1_555 1_555
C74 N6 1_555 1_555
O3 C74 1_555 1_555
C75 C74 1_555 1_555
C76 C75 1_555 1_555
H82 C76 1_555 1_555
C77 C76 1_555 1_555
H83 C77 1_555 1_555
C78 C77 1_555 1_555
H84 C78 1_555 1_555
C79 C78 1_555 1_555
H85 C79 1_555 1_555
C80 C75 1_555 1_555
H86 C80 1_555 1_555
C81 H89 1_555 1_555
Cl1 C81 1_555 1_555
Cl2 C81 1_555 1_555
Cl3 C81 1_555 1_555
C82 H90 1_555 1_555
Cl4 C82 1_555 1_555
Cl5 C82 1_555 1_555
Cl6 C82 1_555 1_555
C83 H91 1_555 1_555
Cl7 C83 1_555 1_555
Cl8 C83 1_555 1_555
Cl9 C83 1_555 1_555
C4 N1 1_555 1_555
C9 N2 1_555 1_555
C14 N3 1_555 1_555
C19 C20 1_555 1_555
C19 N4 1_555 1_555
C25 C26 1_555 1_555
C39 C40 1_555 1_555
C53 C54 1_555 1_555
C67 C68 1_555 1_555
C71 C72 1_555 1_555
C79 C80 1_555 1_555

#END
