
#######################################################################
#
#                 Cambridge Crystallographic Data Centre
#                                CCDC 
#
#######################################################################
#
# If this CIF has been generated from an entry in the Cambridge 
# Structural Database, then it will include bibliographic, chemical, 
# crystal, experimental, refinement or atomic coordinate data resulting 
# from the CCDC's data processing and validation procedures.
#
#######################################################################

data_TOVFOB
_chemical_formula_moiety         'C23 H30 N3 P1 Te1'
_chemical_name_systematic        
1,3-di-t-butyl-N-(diphenyl(tellanyl)phosphoranyl)-1,3-dihydro-2H-imidazol-2-imine
_symmetry_cell_setting           tetragonal
_symmetry_space_group_name_H-M   'I 41/a'
_symmetry_Int_Tables_number      88
_space_group_name_Hall           '-I 4ad'
loop_
_symmetry_equiv_pos_site_id
_symmetry_equiv_pos_as_xyz
1 x,y,z
2 3/4-y,1/4+x,1/4+z
3 -x,1/2-y,z
4 1/4+y,1/4-x,1/4+z
5 1/2+x,1/2+y,1/2+z
6 1/4-y,3/4+x,3/4+z
7 1/2-x,-y,1/2+z
8 3/4+y,3/4-x,3/4+z
9 -x,-y,-z
10 1/4+y,3/4-x,3/4-z
11 x,1/2+y,-z
12 3/4-y,3/4+x,3/4-z
13 1/2-x,1/2-y,1/2-z
14 3/4+y,1/4-x,1/4-z
15 1/2+x,y,1/2-z
16 1/4-y,1/4+x,1/4-z
_cell_length_a                   24.1313(10)
_cell_length_b                   24.1313(10)
_cell_length_c                   15.9796(7)
_cell_angle_alpha                90
_cell_angle_beta                 90
_cell_angle_gamma                90
_cell_volume                     9305.23
_exptl_crystal_colour            yellow
_exptl_crystal_description       block
_cell_formula_units_Z            16
_chemical_properties_physical    Moisture-sensitive
loop_
_atom_site_label
_atom_site_type_symbol
_atom_site_fract_x
_atom_site_fract_y
_atom_site_fract_z
Te1 Te 0.015013(16) 0.490302(16) 0.11603(2)
P1 P -0.00473(6) 0.48080(6) 0.26073(9)
C1 C -0.0302(2) 0.5953(2) 0.2641(4)
H1 H -0.0272 0.5946 0.2061
C2 C -0.0215(2) 0.5475(2) 0.3104(4)
N1 N 0.1408(2) 0.4628(2) 0.3045(3)
C3 C 0.1198(3) 0.5308(3) 0.4134(4)
H2 H 0.0806 0.5261 0.4054
H3 H 0.1270 0.5678 0.4325
H4 H 0.1327 0.5047 0.4543
C4 C 0.0677(3) 0.3308(2) 0.2780(4)
N2 N 0.1054(2) 0.3799(2) 0.2793(3)
C5 C 0.0375(3) 0.3266(3) 0.3616(4)
H5 H 0.0639 0.3202 0.4055
H6 H 0.0116 0.2964 0.3596
H7 H 0.0180 0.3605 0.3722
C6 C 0.0912(2) 0.4334(2) 0.3012(3)
C7 C -0.0699(2) 0.4429(2) 0.2761(4)
C8 C 0.1836(3) 0.4268(3) 0.2820(4)
H8 H 0.2210 0.4361 0.2781
C9 C 0.0273(3) 0.3362(3) 0.2048(4)
H9 H 0.0035 0.3675 0.2139
H10 H 0.0053 0.3032 0.2007
H11 H 0.0477 0.3414 0.1538
C10 C -0.1548(3) 0.4028(3) 0.2226(5)
H12 H -0.1781 0.3959 0.1774
C11 C -0.1063(3) 0.4333(3) 0.2108(4)
H13 H -0.0982 0.4475 0.1581
C12 C -0.1328(3) 0.3937(3) 0.3676(5)
H14 H -0.1421 0.3812 0.4208
C13 C 0.1284(3) 0.5598(3) 0.2621(4)
H15 H 0.1458 0.5503 0.2100
H16 H 0.1372 0.5974 0.2763
H17 H 0.0890 0.5558 0.2568
C14 C 0.1619(3) 0.3768(3) 0.2670(4)
H18 H 0.1816 0.3453 0.2511
C15 C -0.0841(3) 0.4227(3) 0.3551(4)
H19 H -0.0603 0.4288 0.4000
C16 C -0.1680(3) 0.3834(3) 0.2993(5)
H20 H -0.2004 0.3631 0.3069
C17 C -0.0480(3) 0.6459(3) 0.3911(5)
H21 H -0.0571 0.6789 0.4180
C18 C 0.1014(3) 0.2780(3) 0.2663(4)
H22 H 0.1202 0.2793 0.2134
H23 H 0.0771 0.2465 0.2675
H24 H 0.1281 0.2749 0.3105
C19 C -0.0435(3) 0.6444(3) 0.3053(5)
H25 H -0.0493 0.6766 0.2744
C20 C -0.0391(3) 0.5988(3) 0.4366(5)
H26 H -0.0418 0.5999 0.4946
C21 C 0.2117(3) 0.5313(3) 0.3453(5)
H27 H 0.2253 0.5063 0.3873
H28 H 0.2173 0.5688 0.3634
H29 H 0.2314 0.5252 0.2939
N3 N 0.0405(2) 0.4522(2) 0.3195(3)
C22 C -0.0261(3) 0.5495(3) 0.3975(4)
H30 H -0.0205 0.5176 0.4290
C23 C 0.1496(3) 0.5210(3) 0.3312(4)
loop_
_geom_bond_atom_site_label_1
_geom_bond_atom_site_label_2
_geom_bond_site_symmetry_1
_geom_bond_site_symmetry_2
Te1 P1 1_555 1_555
P1 C2 1_555 1_555
C1 H1 1_555 1_555
C2 C1 1_555 1_555
N1 C6 1_555 1_555
C3 H2 1_555 1_555
H3 C3 1_555 1_555
H4 C3 1_555 1_555
C4 N2 1_555 1_555
N2 C6 1_555 1_555
C5 C4 1_555 1_555
H5 C5 1_555 1_555
H6 C5 1_555 1_555
H7 C5 1_555 1_555
C6 N3 1_555 1_555
C7 P1 1_555 1_555
C8 N1 1_555 1_555
H8 C8 1_555 1_555
C9 C4 1_555 1_555
H9 C9 1_555 1_555
H10 C9 1_555 1_555
H11 C9 1_555 1_555
C10 H12 1_555 1_555
C11 C7 1_555 1_555
H13 C11 1_555 1_555
C12 H14 1_555 1_555
C13 H15 1_555 1_555
H16 C13 1_555 1_555
H17 C13 1_555 1_555
C14 N2 1_555 1_555
H18 C14 1_555 1_555
C15 C7 1_555 1_555
H19 C15 1_555 1_555
C16 C10 1_555 1_555
H20 C16 1_555 1_555
C17 H21 1_555 1_555
C18 C4 1_555 1_555
H22 C18 1_555 1_555
H23 C18 1_555 1_555
H24 C18 1_555 1_555
C19 C1 1_555 1_555
H25 C19 1_555 1_555
C20 C17 1_555 1_555
H26 C20 1_555 1_555
C21 H27 1_555 1_555
H28 C21 1_555 1_555
H29 C21 1_555 1_555
N3 P1 1_555 1_555
C22 C2 1_555 1_555
H30 C22 1_555 1_555
C23 N1 1_555 1_555
C3 C23 1_555 1_555
C8 C14 1_555 1_555
C10 C11 1_555 1_555
C12 C15 1_555 1_555
C12 C16 1_555 1_555
C13 C23 1_555 1_555
C17 C19 1_555 1_555
C20 C22 1_555 1_555
C21 C23 1_555 1_555

#END
