
#######################################################################
#
#                 Cambridge Crystallographic Data Centre
#                                CCDC 
#
#######################################################################
#
# If this CIF has been generated from an entry in the Cambridge 
# Structural Database, then it will include bibliographic, chemical, 
# crystal, experimental, refinement or atomic coordinate data resulting 
# from the CCDC's data processing and validation procedures.
#
#######################################################################

data_TOVLAT
_chemical_compound_source        
'Chaetomium globosum 1C51 residing in Epinephelus drummondhayi guts'
_chemical_formula_moiety         'C21 H19 N2 O5 1+,C2 F3 O2 1-'
_chemical_name_systematic        'chaetogline F trifluoroacetate'
_symmetry_cell_setting           monoclinic
_symmetry_space_group_name_H-M   'P 21/n'
_symmetry_Int_Tables_number      14
_space_group_name_Hall           '-P 2yn'
loop_
_symmetry_equiv_pos_site_id
_symmetry_equiv_pos_as_xyz
1 x,y,z
2 1/2-x,1/2+y,1/2-z
3 -x,-y,-z
4 1/2+x,1/2-y,1/2+z
_cell_length_a                   8.5420(1)
_cell_length_b                   11.9379(1)
_cell_length_c                   22.2441(2)
_cell_angle_alpha                90
_cell_angle_beta                 97.030(1)
_cell_angle_gamma                90
_cell_volume                     2251.26
_exptl_crystal_colour            cream
_exptl_crystal_description       prism
_cell_formula_units_Z            4
loop_
_atom_site_label
_atom_site_type_symbol
_atom_site_fract_x
_atom_site_fract_y
_atom_site_fract_z
F1 F 1.07458(10) 0.16542(7) 0.30192(4)
F2 F 0.96928(11) 0.07009(7) 0.36859(4)
F3 F 0.85340(11) 0.08073(7) 0.27717(4)
O1 O 0.76817(12) 0.23623(8) 0.38070(5)
O2 O 0.85110(12) 0.32555(8) 0.30180(4)
C1 C 0.84390(15) 0.24391(11) 0.33722(6)
C2 C 0.93770(16) 0.13925(11) 0.32163(6)
N1 N 0.34922(13) 0.87549(9) 0.44320(5)
N2 N 0.51496(13) 0.88917(9) 0.29883(5)
C3 C 0.35101(17) 0.76736(11) 0.47432(6)
H1 H 0.4398 0.7224 0.4638
H2 H 0.2520 0.7276 0.4618
H3 H 0.3625 0.7796 0.5182
C4 C 0.29907(15) 0.97356(10) 0.46850(6)
C5 C 0.23024(16) 0.98656(11) 0.52195(6)
H4 H 0.2124 0.9245 0.5470
C6 C 0.18929(18) 1.09464(12) 0.53662(6)
H5 H 0.1413 1.1064 0.5724
C7 C 0.21628(18) 1.18744(12) 0.50042(6)
H6 H 0.1872 1.2602 0.5124
C8 C 0.28443(17) 1.17429(11) 0.44776(6)
H7 H 0.3027 1.2369 0.4232
C9 C 0.32614(15) 1.06536(11) 0.43144(6)
C10 C 0.39462(14) 1.02125(10) 0.38113(6)
C11 C 0.40574(14) 0.90290(10) 0.38958(6)
C12 C 0.44776(16) 1.07078(10) 0.33038(6)
H8 H 0.4411 1.1494 0.3241
C13 C 0.50975(16) 1.00189(10) 0.29010(6)
H9 H 0.5495 1.0332 0.2557
C14 C 0.46394(14) 0.83544(10) 0.34618(5)
C15 C 0.47399(14) 0.71150(10) 0.34753(5)
C16 C 0.62203(14) 0.66177(10) 0.35308(5)
C17 C 0.63753(15) 0.54560(11) 0.36001(6)
C18 C 0.50430(15) 0.47989(10) 0.36369(6)
C19 C 0.35189(15) 0.52736(10) 0.35589(6)
C20 C 0.33898(14) 0.64323(10) 0.34687(5)
C21 C 0.18018(15) 0.69656(10) 0.33542(6)
C22 C 0.03307(17) 0.84067(12) 0.28216(7)
H10 H 0.0483 0.9021 0.2543
H11 H 0.0122 0.8715 0.3212
H12 H -0.0567 0.7947 0.2652
C23 C 0.21354(16) 0.44928(11) 0.35712(7)
H13 H 0.2246 0.3857 0.3301
H14 H 0.1155 0.4895 0.3436
H15 H 0.2106 0.4219 0.3985
O3 O 0.75090(11) 0.72733(8) 0.35162(4)
O4 O 0.78794(11) 0.50501(8) 0.36593(5)
O5 O 0.51285(12) 0.36743(8) 0.37288(5)
O6 O 0.17428(11) 0.77213(8) 0.29076(4)
O7 O 0.06952(11) 0.67573(8) 0.36293(5)
H16 H 0.832(3) 0.686(2) 0.3547(10)
H17 H 0.798(3) 0.443(2) 0.3435(11)
H18 H 0.612(3) 0.3440(18) 0.3766(9)
H19 H 0.556(2) 0.8491(17) 0.2681(9)
loop_
_geom_bond_atom_site_label_1
_geom_bond_atom_site_label_2
_geom_bond_site_symmetry_1
_geom_bond_site_symmetry_2
F1 C2 1_555 1_555
F2 C2 1_555 1_555
F3 C2 1_555 1_555
O1 C1 1_555 1_555
O2 C1 1_555 1_555
C1 C2 1_555 1_555
N1 C3 1_555 1_555
N2 C13 1_555 1_555
C3 H1 1_555 1_555
H2 C3 1_555 1_555
H3 C3 1_555 1_555
C4 N1 1_555 1_555
C5 C4 1_555 1_555
H4 C5 1_555 1_555
C6 C5 1_555 1_555
H5 C6 1_555 1_555
C7 C6 1_555 1_555
H6 C7 1_555 1_555
C8 C7 1_555 1_555
H7 C8 1_555 1_555
C9 C4 1_555 1_555
C10 C9 1_555 1_555
C11 N1 1_555 1_555
C12 C10 1_555 1_555
H8 C12 1_555 1_555
C13 C12 1_555 1_555
H9 C13 1_555 1_555
C14 N2 1_555 1_555
C15 C14 1_555 1_555
C16 C15 1_555 1_555
C17 C16 1_555 1_555
C18 C17 1_555 1_555
C19 C18 1_555 1_555
C20 C15 1_555 1_555
C21 C20 1_555 1_555
C22 H10 1_555 1_555
H11 C22 1_555 1_555
H12 C22 1_555 1_555
C23 C19 1_555 1_555
H13 C23 1_555 1_555
H14 C23 1_555 1_555
H15 C23 1_555 1_555
O3 C16 1_555 1_555
O4 C17 1_555 1_555
O5 C18 1_555 1_555
O6 C21 1_555 1_555
O7 C21 1_555 1_555
H16 O3 1_555 1_555
H17 O4 1_555 1_555
H18 O5 1_555 1_555
H19 N2 1_555 1_555
C8 C9 1_555 1_555
C10 C11 1_555 1_555
C11 C14 1_555 1_555
C19 C20 1_555 1_555
C22 O6 1_555 1_555

#END
