
#######################################################################
#
#                 Cambridge Crystallographic Data Centre
#                                CCDC 
#
#######################################################################
#
# If this CIF has been generated from an entry in the Cambridge 
# Structural Database, then it will include bibliographic, chemical, 
# crystal, experimental, refinement or atomic coordinate data resulting 
# from the CCDC's data processing and validation procedures.
#
#######################################################################

data_TOWTAC
_chemical_formula_moiety         'C33 H28 N3 O4 1+,Cl1 1-,1.5(C1 H1 Cl3)'
_chemical_name_systematic        
"5,7-bis(3,5-dimethoxyphenyl)-5,7-dihydropyrido[3,2-b:5,6-b']diindol-12-ium chloride chloroform solvate"
_symmetry_cell_setting           triclinic
_symmetry_space_group_name_H-M   'P -1'
_symmetry_Int_Tables_number      2
_space_group_name_Hall           '-P 1'
loop_
_symmetry_equiv_pos_site_id
_symmetry_equiv_pos_as_xyz
1 x,y,z
2 -x,-y,-z
_cell_length_a                   12.1069(2)
_cell_length_b                   12.5752(2)
_cell_length_c                   13.7247(3)
_cell_angle_alpha                67.6350(10)
_cell_angle_beta                 64.0740(10)
_cell_angle_gamma                81.1700(10)
_cell_volume                     1737.68
_exptl_crystal_colour            yellow
_exptl_crystal_description       block
_cell_formula_units_Z            2
loop_
_atom_site_label
_atom_site_type_symbol
_atom_site_fract_x
_atom_site_fract_y
_atom_site_fract_z
Cl1 Cl 1.16494(4) 0.70570(3) 0.18992(4)
N1 N 0.94961(11) 0.56614(10) 0.39139(11)
H1 H 1.0154 0.6045 0.3330
N2 N 0.80703(12) 0.30126(10) 0.47739(11)
N3 N 0.71237(12) 0.61671(10) 0.63523(11)
O1 O 0.46007(12) 0.10764(11) 0.54296(11)
O2 O 0.58344(12) 0.01003(10) 0.84964(11)
O3 O 0.42449(11) 0.36539(10) 1.00498(11)
O4 O 0.30460(11) 0.73457(11) 0.81292(11)
C1 C 0.92255(13) 0.46172(12) 0.40022(13)
C2 C 0.81696(13) 0.40040(12) 0.49396(13)
C3 C 0.73820(14) 0.44226(12) 0.58038(13)
H2 H 0.6673 0.4008 0.6434
C4 C 0.77090(13) 0.54911(12) 0.56772(13)
C5 C 0.87589(13) 0.61113(12) 0.47188(13)
C6 C 0.90452(14) 0.29879(12) 0.37488(13)
C7 C 0.93082(15) 0.21650(13) 0.32347(14)
H3 H 0.8786 0.1514 0.3564
C8 C 1.03606(16) 0.23343(14) 0.22254(15)
H4 H 1.0567 0.1782 0.1858
C9 C 1.11331(16) 0.32924(14) 0.17258(15)
H5 H 1.1853 0.3375 0.1033
C10 C 1.08644(14) 0.41229(13) 0.22273(14)
H6 H 1.1387 0.4776 0.1887
C11 C 0.97986(14) 0.39716(12) 0.32512(13)
C12 C 0.77836(14) 0.72050(12) 0.58315(14)
C13 C 0.75613(15) 0.81291(13) 0.62076(15)
H7 H 0.6874 0.8129 0.6899
C14 C 0.83811(15) 0.90505(13) 0.55349(16)
H8 H 0.8253 0.9695 0.5770
C15 C 0.93948(15) 0.90531(13) 0.45152(15)
H9 H 0.9938 0.9700 0.4072
C16 C 0.96181(14) 0.81391(12) 0.41440(14)
H10 H 1.0306 0.8146 0.3451
C17 C 0.88070(13) 0.71991(12) 0.48122(13)
C18 C 0.71045(14) 0.21645(12) 0.55249(14)
C19 C 0.63238(15) 0.19838(13) 0.51207(14)
H11 H 0.6425 0.2400 0.4346
C20 C 0.53712(15) 0.11690(13) 0.58787(15)
C21 C 0.52459(15) 0.05441(13) 0.69918(15)
H12 H 0.4612 -0.0022 0.7493
C22 C 0.60549(15) 0.07490(12) 0.73768(14)
C23 C 0.69888(14) 0.15648(12) 0.66604(14)
H13 H 0.7532 0.1713 0.6928
C24 C 0.35266(19) 0.0353(2) 0.62040(19)
H14 H 0.3776 -0.0442 0.6497
H15 H 0.3030 0.0389 0.5788
H16 H 0.3041 0.0618 0.6854
C25 C 0.67286(19) 0.01502(17) 0.88999(17)
H17 H 0.7528 -0.0081 0.8417
H18 H 0.6478 -0.0372 0.9705
H19 H 0.6791 0.0938 0.8853
C26 C 0.59417(14) 0.59244(13) 0.73101(13)
C27 C 0.57420(14) 0.48731(13) 0.82123(14)
H20 H 0.6376 0.4324 0.8211
C28 C 0.45855(15) 0.46589(13) 0.91109(14)
C29 C 0.36569(15) 0.54673(14) 0.91366(15)
H21 H 0.2876 0.5315 0.9776
C30 C 0.38956(15) 0.64982(14) 0.82117(15)
C31 C 0.50377(15) 0.67343(13) 0.72801(14)
H22 H 0.5193 0.7435 0.6639
C32 C 0.50999(18) 0.27357(14) 1.00206(17)
H23 H 0.5300 0.2549 0.9331
H24 H 0.4736 0.2058 1.0716
H25 H 0.5851 0.2970 0.9994
C33 C 0.18372(18) 0.7117(2) 0.90424(19)
H26 H 0.1511 0.6406 0.9125
H27 H 0.1301 0.7757 0.8859
H28 H 0.1871 0.7031 0.9769
loop_
_geom_bond_atom_site_label_1
_geom_bond_atom_site_label_2
_geom_bond_site_symmetry_1
_geom_bond_site_symmetry_2
N1 H1 1_555 1_555
N2 C2 1_555 1_555
N3 C4 1_555 1_555
O1 C20 1_555 1_555
O2 C22 1_555 1_555
O3 C28 1_555 1_555
O4 C30 1_555 1_555
C1 N1 1_555 1_555
C2 C1 1_555 1_555
C3 C2 1_555 1_555
H2 C3 1_555 1_555
C4 C3 1_555 1_555
C5 N1 1_555 1_555
C6 N2 1_555 1_555
C7 C6 1_555 1_555
H3 C7 1_555 1_555
C8 C7 1_555 1_555
H4 C8 1_555 1_555
C9 C8 1_555 1_555
H5 C9 1_555 1_555
C10 C9 1_555 1_555
H6 C10 1_555 1_555
C11 C1 1_555 1_555
C12 N3 1_555 1_555
C13 C12 1_555 1_555
H7 C13 1_555 1_555
C14 C13 1_555 1_555
H8 C14 1_555 1_555
C15 C14 1_555 1_555
H9 C15 1_555 1_555
C16 C15 1_555 1_555
H10 C16 1_555 1_555
C17 C5 1_555 1_555
C18 N2 1_555 1_555
C19 C18 1_555 1_555
H11 C19 1_555 1_555
C20 C19 1_555 1_555
C21 C20 1_555 1_555
H12 C21 1_555 1_555
C22 C21 1_555 1_555
C23 C18 1_555 1_555
H13 C23 1_555 1_555
C24 O1 1_555 1_555
H14 C24 1_555 1_555
H15 C24 1_555 1_555
H16 C24 1_555 1_555
C25 O2 1_555 1_555
H17 C25 1_555 1_555
H18 C25 1_555 1_555
H19 C25 1_555 1_555
C26 N3 1_555 1_555
C27 C26 1_555 1_555
H20 C27 1_555 1_555
C28 C27 1_555 1_555
C29 C28 1_555 1_555
H21 C29 1_555 1_555
C30 C29 1_555 1_555
C31 C26 1_555 1_555
H22 C31 1_555 1_555
C32 O3 1_555 1_555
H23 C32 1_555 1_555
H24 C32 1_555 1_555
H25 C32 1_555 1_555
C33 O4 1_555 1_555
H26 C33 1_555 1_555
H27 C33 1_555 1_555
H28 C33 1_555 1_555
C4 C5 1_555 1_555
C6 C11 1_555 1_555
C10 C11 1_555 1_555
C12 C17 1_555 1_555
C16 C17 1_555 1_555
C22 C23 1_555 1_555
C30 C31 1_555 1_555

#END
