
#######################################################################
#
#                 Cambridge Crystallographic Data Centre
#                                CCDC 
#
#######################################################################
#
# If this CIF has been generated from an entry in the Cambridge 
# Structural Database, then it will include bibliographic, chemical, 
# crystal, experimental, refinement or atomic coordinate data resulting 
# from the CCDC's data processing and validation procedures.
#
#######################################################################

data_TOYDAO
_chemical_formula_moiety         'C26 H21 N5 S1,H2 O1'
_chemical_name_systematic        
'1-butyl-2-(5-(pyridin-4-yl)-2-thienyl)-1H-imidazo[4,5-f][1,10]phenanthroline monohydrate'
_symmetry_cell_setting           monoclinic
_symmetry_space_group_name_H-M   'P 21/c'
_symmetry_Int_Tables_number      14
_space_group_name_Hall           '-P 2ybc'
loop_
_symmetry_equiv_pos_site_id
_symmetry_equiv_pos_as_xyz
1 x,y,z
2 -x,1/2+y,1/2-z
3 -x,-y,-z
4 x,1/2-y,1/2+z
_cell_length_a                   16.2940(16)
_cell_length_b                   7.7687(8)
_cell_length_c                   19.2718(15)
_cell_angle_alpha                90
_cell_angle_beta                 116.931(6)
_cell_angle_gamma                90
_cell_volume                     2174.93
_exptl_crystal_colour            yellow
_exptl_crystal_description       block
_cell_formula_units_Z            4
loop_
_atom_site_label
_atom_site_type_symbol
_atom_site_fract_x
_atom_site_fract_y
_atom_site_fract_z
O1 O 0.12810(16) 0.7409(4) 0.69910(14)
H1 H 0.1761 0.7771 0.7381
H2 H 0.1117 0.6827 0.7281
C1 C 0.0607(2) 0.5614(5) 0.9510(2)
H3 H 0.0028 0.5983 0.9432
C2 C 0.0684(2) 0.4947(5) 0.88870(19)
H4 H 0.0174 0.4889 0.8401
C3 C 0.1520(2) 0.4368(4) 0.89876(18)
H5 H 0.1585 0.3915 0.8568
C4 C 0.22870(18) 0.4456(4) 0.97279(15)
C5 C 0.32068(18) 0.3875(4) 0.99348(15)
C6 C 0.39220(18) 0.4085(4) 1.06786(14)
C7 C 0.37907(19) 0.4922(4) 1.12825(15)
C8 C 0.4507(2) 0.5238(4) 1.20252(15)
H6 H 0.5099 0.4846 1.2159
C9 C 0.4324(2) 0.6137(4) 1.25543(17)
H7 H 0.4789 0.6392 1.3048
C10 C 0.3416(2) 0.6653(4) 1.23254(18)
H8 H 0.3293 0.7250 1.2686
C11 C 0.29007(19) 0.5487(4) 1.11077(15)
C12 C 0.21398(19) 0.5222(4) 1.03292(16)
C13 C 0.45267(18) 0.2908(4) 1.00151(15)
C14 C 0.31407(19) 0.2538(4) 0.86944(14)
H9 H 0.2519 0.2173 0.8568
H10 H 0.3465 0.1555 0.8628
C15 C 0.3100(2) 0.3941(4) 0.81414(15)
H11 H 0.3709 0.4436 0.8320
H12 H 0.2691 0.4843 0.8147
C16 C 0.2762(2) 0.3295(5) 0.73073(16)
H13 H 0.2782 0.4243 0.6988
H14 H 0.3184 0.2418 0.7304
C17 C 0.1808(2) 0.2561(5) 0.6944(2)
H15 H 0.1779 0.1617 0.7254
H16 H 0.1656 0.2161 0.6429
H17 H 0.1378 0.3435 0.6917
C18 C 0.52350(18) 0.2180(4) 0.98384(15)
C19 C 0.5261(2) 0.1641(4) 0.91800(16)
H18 H 0.4752 0.1665 0.8693
C20 C 0.6128(2) 0.1045(4) 0.93018(16)
H19 H 0.6247 0.0628 0.8904
C21 C 0.67830(19) 0.1132(4) 1.00614(16)
C22 C 0.77568(19) 0.0656(4) 1.03997(16)
C23 C 0.8133(2) -0.0098(4) 0.99552(19)
H20 H 0.7766 -0.0298 0.9428
C24 C 0.9049(3) -0.0549(5) 1.0295(2)
H21 H 0.9278 -0.1049 0.9980
C25 C 0.9263(2) 0.0426(5) 1.1460(2)
H22 H 0.9652 0.0626 1.1983
C26 C 0.8358(2) 0.0923(4) 1.11804(18)
H23 H 0.8152 0.1431 1.1510
N1 N 0.12979(18) 0.5771(4) 1.02177(15)
N2 N 0.27191(18) 0.6356(3) 1.16333(14)
N3 N 0.36072(14) 0.3099(3) 0.95149(12)
N4 N 0.47363(15) 0.3490(3) 1.07233(12)
N5 N 0.96259(19) -0.0320(4) 1.1038(2)
S1 S 0.63052(5) 0.19674(10) 1.06268(4)
loop_
_geom_bond_atom_site_label_1
_geom_bond_atom_site_label_2
_geom_bond_site_symmetry_1
_geom_bond_site_symmetry_2
O1 H1 1_555 1_555
H2 O1 1_555 1_555
C1 H3 1_555 1_555
C2 C1 1_555 1_555
H4 C2 1_555 1_555
C3 C2 1_555 1_555
H5 C3 1_555 1_555
C4 C3 1_555 1_555
C5 C4 1_555 1_555
C6 C5 1_555 1_555
C7 C6 1_555 1_555
C8 C7 1_555 1_555
H6 C8 1_555 1_555
C9 C8 1_555 1_555
H7 C9 1_555 1_555
C10 C9 1_555 1_555
H8 C10 1_555 1_555
C11 C7 1_555 1_555
C12 C4 1_555 1_555
C13 C18 1_555 1_555
C14 H9 1_555 1_555
H10 C14 1_555 1_555
C15 C14 1_555 1_555
H11 C15 1_555 1_555
H12 C15 1_555 1_555
C16 C15 1_555 1_555
H13 C16 1_555 1_555
H14 C16 1_555 1_555
C17 C16 1_555 1_555
H15 C17 1_555 1_555
H16 C17 1_555 1_555
H17 C17 1_555 1_555
C18 C19 1_555 1_555
C19 H18 1_555 1_555
C20 C19 1_555 1_555
H19 C20 1_555 1_555
C21 C20 1_555 1_555
C22 C21 1_555 1_555
C23 C22 1_555 1_555
H20 C23 1_555 1_555
C24 C23 1_555 1_555
H21 C24 1_555 1_555
C25 H22 1_555 1_555
C26 C22 1_555 1_555
H23 C26 1_555 1_555
N1 C1 1_555 1_555
N2 C10 1_555 1_555
N3 C5 1_555 1_555
N4 C6 1_555 1_555
N5 C24 1_555 1_555
S1 C18 1_555 1_555
C11 C12 1_555 1_555
C11 N2 1_555 1_555
C12 N1 1_555 1_555
C13 N3 1_555 1_555
C13 N4 1_555 1_555
C14 N3 1_555 1_555
C21 S1 1_555 1_555
C25 C26 1_555 1_555
C25 N5 1_555 1_555

#END
