
#######################################################################
#
#                 Cambridge Crystallographic Data Centre
#                                CCDC 
#
#######################################################################
#
# If this CIF has been generated from an entry in the Cambridge 
# Structural Database, then it will include bibliographic, chemical, 
# crystal, experimental, refinement or atomic coordinate data resulting 
# from the CCDC's data processing and validation procedures.
#
#######################################################################

data_TOYFIY
_chemical_formula_moiety         'C26 H20 N4 O2 S1'
_chemical_name_systematic        
5-(5-(1-butyl-1H-imidazo[4,5-f][1,10]phenanthrolin-2-yl)-2-thienyl)-2-furaldehyde
_symmetry_cell_setting           monoclinic
_symmetry_space_group_name_H-M   'P 21/c'
_symmetry_Int_Tables_number      14
_space_group_name_Hall           '-P 2ybc'
loop_
_symmetry_equiv_pos_site_id
_symmetry_equiv_pos_as_xyz
1 x,y,z
2 -x,1/2+y,1/2-z
3 -x,-y,-z
4 x,1/2-y,1/2+z
_cell_length_a                   13.7672(19)
_cell_length_b                   8.3667(12)
_cell_length_c                   19.124(3)
_cell_angle_alpha                90
_cell_angle_beta                 108.372(2)
_cell_angle_gamma                90
_cell_volume                     2090.54
_exptl_crystal_colour            yellow
_exptl_crystal_description       block
_cell_formula_units_Z            4
loop_
_atom_site_label
_atom_site_type_symbol
_atom_site_fract_x
_atom_site_fract_y
_atom_site_fract_z
C1 C 0.6669(4) 0.1203(6) -0.0456(3)
H1 H 0.7233 0.0777 -0.0558
C2 C 0.5968(4) 0.2085(6) -0.1000(3)
H2 H 0.6065 0.2236 -0.1455
C3 C 0.5143(4) 0.2724(6) -0.0863(3)
H3 H 0.4667 0.3307 -0.1226
C4 C 0.5005(4) 0.2506(5) -0.0170(3)
C5 C 0.4190(4) 0.3125(6) 0.0070(3)
C6 C 0.4117(4) 0.2797(6) 0.0762(3)
C7 C 0.4857(4) 0.1821(6) 0.1285(3)
C8 C 0.4778(4) 0.1428(6) 0.1982(3)
H4 H 0.4229 0.1783 0.2126
C9 C 0.5538(4) 0.0503(6) 0.2442(3)
H5 H 0.5511 0.0212 0.2905
C10 C 0.6351(4) 0.0005(6) 0.2206(3)
H6 H 0.6866 -0.0598 0.2531
C11 C 0.5683(4) 0.1223(5) 0.1081(3)
C12 C 0.5759(4) 0.1555(6) 0.0349(3)
C13 C 0.2851(4) 0.4294(6) 0.0241(3)
C14 C 0.1942(4) 0.5300(6) 0.0133(3)
C15 C 0.1252(4) 0.5907(6) -0.0491(3)
H7 H 0.1280 0.5716 -0.0963
C16 C 0.0495(4) 0.6848(6) -0.0344(3)
H8 H -0.0027 0.7349 -0.0710
C17 C 0.0602(4) 0.6959(6) 0.0404(3)
C18 C -0.0105(4) 0.7905(6) 0.0755(3)
C19 C -0.0894(5) 0.8677(8) 0.0425(4)
H9 H -0.1182 0.8822 -0.0081
C20 C -0.1246(5) 0.9269(8) 0.0977(4)
H10 H -0.1829 0.9890 0.0913
C21 C -0.0588(4) 0.8780(7) 0.1628(4)
C22 C -0.0562(7) 0.9036(11) 0.2369(5)
H11 H -0.1056 0.9676 0.2466
C23 C 0.3201(4) 0.5005(6) -0.0961(3)
H12 H 0.3862 0.5292 -0.1006
H13 H 0.2843 0.5989 -0.0932
C24 C 0.2596(4) 0.4107(6) -0.1648(3)
H14 H 0.1911 0.3896 -0.1631
H15 H 0.2924 0.3089 -0.1669
C25 C 0.2536(5) 0.5078(7) -0.2329(3)
H16 H 0.3225 0.5310 -0.2332
H17 H 0.2204 0.6089 -0.2303
C26 C 0.1953(5) 0.4239(8) -0.3050(3)
H18 H 0.2298 0.3265 -0.3093
H19 H 0.1923 0.4926 -0.3458
H20 H 0.1270 0.3999 -0.3051
N1 N 0.6573(3) 0.0938(5) 0.0200(2)
N2 N 0.6439(3) 0.0331(5) 0.1554(2)
N3 N 0.3370(3) 0.4103(5) -0.0267(2)
N4 N 0.3275(3) 0.3523(5) 0.0857(2)
O1 O 0.0230(3) 0.7740(5) 0.1575(2)
O2 O 0.0131(7) 0.8400(14) 0.2898(4)
S1 S 0.16622(10) 0.58676(16) 0.09116(7)
loop_
_geom_bond_atom_site_label_1
_geom_bond_atom_site_label_2
_geom_bond_site_symmetry_1
_geom_bond_site_symmetry_2
C1 H1 1_555 1_555
C2 C1 1_555 1_555
H2 C2 1_555 1_555
C3 C2 1_555 1_555
H3 C3 1_555 1_555
C4 C3 1_555 1_555
C5 C4 1_555 1_555
C6 C5 1_555 1_555
C7 C6 1_555 1_555
C8 C7 1_555 1_555
H4 C8 1_555 1_555
C9 C8 1_555 1_555
H5 C9 1_555 1_555
C10 C9 1_555 1_555
H6 C10 1_555 1_555
C11 C7 1_555 1_555
C12 C4 1_555 1_555
C13 C14 1_555 1_555
C14 C15 1_555 1_555
C15 H7 1_555 1_555
C16 C15 1_555 1_555
H8 C16 1_555 1_555
C17 C16 1_555 1_555
C18 C17 1_555 1_555
C19 C18 1_555 1_555
H9 C19 1_555 1_555
C20 C19 1_555 1_555
H10 C20 1_555 1_555
C21 C20 1_555 1_555
C22 C21 1_555 1_555
H11 C22 1_555 1_555
C23 H12 1_555 1_555
H13 C23 1_555 1_555
C24 C23 1_555 1_555
H14 C24 1_555 1_555
H15 C24 1_555 1_555
C25 C24 1_555 1_555
H16 C25 1_555 1_555
H17 C25 1_555 1_555
C26 C25 1_555 1_555
H18 C26 1_555 1_555
H19 C26 1_555 1_555
H20 C26 1_555 1_555
N1 C1 1_555 1_555
N2 C10 1_555 1_555
N3 C5 1_555 1_555
N4 C6 1_555 1_555
O1 C18 1_555 1_555
O2 C22 1_555 1_555
S1 C14 1_555 1_555
C11 C12 1_555 1_555
C11 N2 1_555 1_555
C12 N1 1_555 1_555
C13 N3 1_555 1_555
C13 N4 1_555 1_555
C17 S1 1_555 1_555
C21 O1 1_555 1_555
C23 N3 1_555 1_555

#END
