
#######################################################################
#
#                 Cambridge Crystallographic Data Centre
#                                CCDC 
#
#######################################################################
#
# If this CIF has been generated from an entry in the Cambridge 
# Structural Database, then it will include bibliographic, chemical, 
# crystal, experimental, refinement or atomic coordinate data resulting 
# from the CCDC's data processing and validation procedures.
#
#######################################################################

data_TOYTUY
_chemical_formula_moiety         'C27 H24 F1 N3 O5'
_chemical_name_systematic        
'methyl 4-(2-(1,3-dioxo-1,3-dihydro-2H-isoindol-2-yl)-1-fluoro-3-oxo-3-((2-(pyridin-2-yl)propan-2-yl)amino)propyl)benzoate'
_symmetry_cell_setting           triclinic
_symmetry_space_group_name_H-M   'P 1'
_symmetry_Int_Tables_number      1
_space_group_name_Hall           'P 1'
loop_
_symmetry_equiv_pos_site_id
_symmetry_equiv_pos_as_xyz
1 x,y,z
_cell_length_a                   9.3719(5)
_cell_length_b                   11.3223(7)
_cell_length_c                   12.4362(7)
_cell_angle_alpha                101.907(2)
_cell_angle_beta                 92.2450(10)
_cell_angle_gamma                104.240(2)
_cell_volume                     1245.92
_exptl_crystal_colour            colorless
_exptl_crystal_description       block
_cell_formula_units_Z            2
loop_
_atom_site_label
_atom_site_type_symbol
_atom_site_fract_x
_atom_site_fract_y
_atom_site_fract_z
C1 C 0.5900(5) 0.5173(4) 0.3665(4)
H1 H 0.5203 0.5454 0.3235
C2 C 0.5695(5) 0.5623(4) 0.4878(4)
H2 H 0.6206 0.5217 0.5337
C3 C 0.6209(5) 0.7023(4) 0.5278(4)
C4 C 0.7364(6) 0.7556(5) 0.6086(4)
H3 H 0.7818 0.7050 0.6403
C5 C 0.7858(6) 0.8854(5) 0.6432(5)
H4 H 0.8654 0.9207 0.6968
C6 C 0.7178(6) 0.9616(4) 0.5988(4)
C7 C 0.6013(6) 0.9081(5) 0.5196(5)
H5 H 0.5539 0.9586 0.4895
C8 C 0.5530(6) 0.7783(5) 0.4837(5)
H6 H 0.4742 0.7431 0.4294
C9 C 0.7719(7) 1.0986(5) 0.6382(5)
C10 C 0.7529(8) 1.2939(5) 0.6066(6)
H7 H 0.6975 1.3255 0.5578
H8 H 0.8565 1.3218 0.5985
H9 H 0.7350 1.3242 0.6815
C11 C 0.8684(5) 0.5587(4) 0.3853(4)
C12 C 0.9840(5) 0.6091(5) 0.3162(4)
C13 C 1.1332(6) 0.6130(6) 0.3206(4)
H10 H 1.1782 0.5836 0.3738
C14 C 1.2110(7) 0.6629(7) 0.2418(6)
H11 H 1.3116 0.6678 0.2430
C15 C 1.1475(8) 0.7058(6) 0.1616(6)
H12 H 1.2052 0.7391 0.1104
C16 C 0.9983(7) 0.6997(5) 0.1565(5)
H13 H 0.9538 0.7284 0.1025
C17 C 0.9177(6) 0.6494(4) 0.2341(4)
C18 C 0.7579(6) 0.6257(5) 0.2480(5)
C19 C 0.5549(5) 0.3731(4) 0.3259(4)
C20 C 0.3492(5) 0.1780(4) 0.2876(4)
C21 C 0.3603(6) 0.1457(6) 0.1632(4)
H14 H 0.3126 0.1957 0.1281
H15 H 0.3129 0.0588 0.1342
H16 H 0.4625 0.1624 0.1491
C22 C 0.4250(6) 0.1020(5) 0.3474(6)
H17 H 0.5269 0.1170 0.3327
H18 H 0.3769 0.0147 0.3217
H19 H 0.4189 0.1263 0.4253
C23 C 0.1854(5) 0.1550(4) 0.3103(4)
C24 C 0.0947(6) 0.0352(5) 0.2933(6)
H20 H 0.1317 -0.0338 0.2692
C25 C -0.0509(6) 0.0201(6) 0.3126(6)
H21 H -0.1135 -0.0598 0.3019
C26 C -0.1036(6) 0.1206(6) 0.3469(5)
H22 H -0.2024 0.1116 0.3597
C27 C -0.0081(6) 0.2350(5) 0.3623(5)
H23 H -0.0441 0.3043 0.3874
N1 N 0.7362(4) 0.5736(4) 0.3401(3)
N2 N 0.4149(4) 0.3124(3) 0.3309(3)
H24 H 0.3582 0.3556 0.3622
N3 N 0.1342(4) 0.2551(4) 0.3440(4)
O1 O 0.8616(7) 1.1497(5) 0.7142(5)
O2 O 0.7077(5) 1.1594(3) 0.5797(3)
O3 O 0.8806(4) 0.5173(4) 0.4656(3)
O4 O 0.6603(5) 0.6470(4) 0.1944(4)
O5 O 0.6502(4) 0.3234(4) 0.2891(4)
F1 F 0.4140(3) 0.5262(3) 0.4964(3)
C28 C 0.3494(5) 0.5422(4) 0.8322(4)
H25 H 0.3109 0.5480 0.7596
C29 C 0.4600(5) 0.4648(4) 0.8105(5)
H26 H 0.5154 0.4702 0.8806
C30 C 0.3912(5) 0.3283(5) 0.7570(4)
C31 C 0.3003(7) 0.2932(5) 0.6614(5)
H27 H 0.2786 0.3542 0.6284
C32 C 0.2397(7) 0.1682(5) 0.6128(5)
H28 H 0.1773 0.1459 0.5478
C33 C 0.2714(6) 0.0763(5) 0.6603(4)
C34 C 0.3598(7) 0.1131(5) 0.7577(6)
H29 H 0.3787 0.0527 0.7927
C35 C 0.4220(7) 0.2383(5) 0.8054(6)
H30 H 0.4845 0.2610 0.8704
C36 C 0.2105(7) -0.0575(5) 0.6076(5)
C37 C 0.1818(9) -0.2649(5) 0.6264(6)
H31 H 0.2073 -0.3080 0.6801
H32 H 0.2257 -0.2890 0.5596
H33 H 0.0762 -0.2862 0.6112
C38 C 0.2304(6) 0.4365(5) 0.9800(5)
C39 C 0.0764(5) 0.3977(4) 1.0073(4)
C40 C 0.0205(6) 0.3505(5) 1.0948(5)
H34 H 0.0819 0.3336 1.1469
C41 C -0.1300(7) 0.3290(6) 1.1028(6)
H35 H -0.1711 0.2958 1.1604
C42 C -0.2196(7) 0.3564(7) 1.0263(6)
H36 H -0.3199 0.3444 1.0349
C43 C -0.1635(6) 0.4020(6) 0.9356(5)
H37 H -0.2244 0.4178 0.8823
C44 C -0.0133(5) 0.4221(5) 0.9298(4)
C45 C 0.0778(5) 0.4737(5) 0.8469(4)
C46 C 0.4064(5) 0.6772(5) 0.8997(4)
C47 C 0.6220(5) 0.8634(4) 0.9568(4)
C48 C 0.5567(6) 0.9480(5) 0.9016(6)
H38 H 0.4536 0.9346 0.9127
H39 H 0.5675 0.9294 0.8240
H40 H 0.6074 1.0336 0.9332
C49 C 0.6044(7) 0.8889(6) 1.0808(5)
H41 H 0.6466 0.8343 1.1140
H42 H 0.5013 0.8741 1.0919
H43 H 0.6542 0.9742 1.1142
C50 C 0.7871(5) 0.8836(4) 0.9404(4)
C51 C 0.8817(6) 0.9997(6) 0.9613(6)
H44 H 0.8471 1.0699 0.9859
C52 C 1.0299(6) 1.0129(6) 0.9457(7)
H45 H 1.0956 1.0917 0.9587
C53 C 1.0771(6) 0.9084(6) 0.9111(6)
H46 H 1.1765 0.9144 0.9024
C54 C 0.9778(6) 0.7960(6) 0.8896(5)
H47 H 1.0110 0.7252 0.8645
N4 N 0.2228(4) 0.4780(4) 0.8818(3)
N5 N 0.5493(4) 0.7319(4) 0.9049(4)
H48 H 0.6048 0.6865 0.8752
N6 N 0.8329(4) 0.7810(4) 0.9025(4)
O6 O 0.1445(8) -0.0958(5) 0.5173(5)
O7 O 0.2362(5) -0.1318(3) 0.6688(3)
O8 O 0.3432(4) 0.4380(4) 1.0303(4)
O9 O 0.0428(4) 0.5073(4) 0.7655(3)
O10 O 0.3141(4) 0.7290(3) 0.9407(3)
F2 F 0.5579(3) 0.5174(3) 0.7408(3)
loop_
_geom_bond_atom_site_label_1
_geom_bond_atom_site_label_2
_geom_bond_site_symmetry_1
_geom_bond_site_symmetry_2
C1 H1 1_555 1_555
C2 C1 1_555 1_555
H2 C2 1_555 1_555
C3 C2 1_555 1_555
C4 C3 1_555 1_555
H3 C4 1_555 1_555
C5 C4 1_555 1_555
H4 C5 1_555 1_555
C6 C5 1_555 1_555
C7 C6 1_555 1_555
H5 C7 1_555 1_555
C8 C3 1_555 1_555
H6 C8 1_555 1_555
C9 C6 1_555 1_555
C10 H7 1_555 1_555
H8 C10 1_555 1_555
H9 C10 1_555 1_555
C11 C12 1_555 1_555
C12 C13 1_555 1_555
C13 H10 1_555 1_555
C14 C13 1_555 1_555
H11 C14 1_555 1_555
C15 C14 1_555 1_555
H12 C15 1_555 1_555
C16 C15 1_555 1_555
H13 C16 1_555 1_555
C17 C12 1_555 1_555
C18 C17 1_555 1_555
C19 C1 1_555 1_555
C20 C21 1_555 1_555
C21 H14 1_555 1_555
H15 C21 1_555 1_555
H16 C21 1_555 1_555
C22 C20 1_555 1_555
H17 C22 1_555 1_555
H18 C22 1_555 1_555
H19 C22 1_555 1_555
C23 C20 1_555 1_555
C24 C23 1_555 1_555
H20 C24 1_555 1_555
C25 C24 1_555 1_555
H21 C25 1_555 1_555
C26 C25 1_555 1_555
H22 C26 1_555 1_555
C27 C26 1_555 1_555
H23 C27 1_555 1_555
N1 C1 1_555 1_555
N2 C19 1_555 1_555
H24 N2 1_555 1_555
N3 C23 1_555 1_555
O1 C9 1_555 1_555
O2 C9 1_555 1_555
O3 C11 1_555 1_555
O4 C18 1_555 1_555
O5 C19 1_555 1_555
F1 C2 1_555 1_555
C28 H25 1_555 1_555
C29 C28 1_555 1_555
H26 C29 1_555 1_555
C30 C29 1_555 1_555
C31 C30 1_555 1_555
H27 C31 1_555 1_555
C32 C31 1_555 1_555
H28 C32 1_555 1_555
C33 C32 1_555 1_555
C34 C33 1_555 1_555
H29 C34 1_555 1_555
C35 C30 1_555 1_555
H30 C35 1_555 1_555
C36 C33 1_555 1_555
C37 H31 1_555 1_555
H32 C37 1_555 1_555
H33 C37 1_555 1_555
C38 C39 1_555 1_555
C39 C40 1_555 1_555
C40 H34 1_555 1_555
C41 C40 1_555 1_555
H35 C41 1_555 1_555
C42 C41 1_555 1_555
H36 C42 1_555 1_555
C43 C42 1_555 1_555
H37 C43 1_555 1_555
C44 C39 1_555 1_555
C45 C44 1_555 1_555
C46 C28 1_555 1_555
C47 C48 1_555 1_555
C48 H38 1_555 1_555
H39 C48 1_555 1_555
H40 C48 1_555 1_555
C49 C47 1_555 1_555
H41 C49 1_555 1_555
H42 C49 1_555 1_555
H43 C49 1_555 1_555
C50 C47 1_555 1_555
C51 C50 1_555 1_555
H44 C51 1_555 1_555
C52 C51 1_555 1_555
H45 C52 1_555 1_555
C53 C52 1_555 1_555
H46 C53 1_555 1_555
C54 C53 1_555 1_555
H47 C54 1_555 1_555
N4 C28 1_555 1_555
N5 C46 1_555 1_555
H48 N5 1_555 1_555
N6 C50 1_555 1_555
O6 C36 1_555 1_555
O7 C36 1_555 1_555
O8 C38 1_555 1_555
O9 C45 1_555 1_555
O10 C46 1_555 1_555
F2 C29 1_555 1_555
C7 C8 1_555 1_555
C10 O2 1_555 1_555
C11 N1 1_555 1_555
C16 C17 1_555 1_555
C18 N1 1_555 1_555
C20 N2 1_555 1_555
C27 N3 1_555 1_555
C34 C35 1_555 1_555
C37 O7 1_555 1_555
C38 N4 1_555 1_555
C43 C44 1_555 1_555
C45 N4 1_555 1_555
C47 N5 1_555 1_555
C54 N6 1_555 1_555

#END
