
#######################################################################
#
#                 Cambridge Crystallographic Data Centre
#                                CCDC 
#
#######################################################################
#
# If this CIF has been generated from an entry in the Cambridge 
# Structural Database, then it will include bibliographic, chemical, 
# crystal, experimental, refinement or atomic coordinate data resulting 
# from the CCDC's data processing and validation procedures.
#
#######################################################################

data_TOZGUM
_chemical_formula_moiety         'C24 H22 Cl1 N3 O2 S1'
_chemical_name_systematic        
7-benzyl-3-(4-chlorophenyl)-2-ethoxy-5,6,7,8-tetrahydropyrido[4',3':4,5]thieno[2,3-d]pyrimidin-4(3H)-one
_symmetry_cell_setting           monoclinic
_symmetry_space_group_name_H-M   'P 21/c'
_symmetry_Int_Tables_number      14
_space_group_name_Hall           '-P 2ybc'
loop_
_symmetry_equiv_pos_site_id
_symmetry_equiv_pos_as_xyz
1 x,y,z
2 -x,1/2+y,1/2-z
3 -x,-y,-z
4 x,1/2-y,1/2+z
_cell_length_a                   9.986(3)
_cell_length_b                   14.263(4)
_cell_length_c                   15.530(5)
_cell_angle_alpha                90
_cell_angle_beta                 93.806(5)
_cell_angle_gamma                90
_cell_volume                     2207.06
_exptl_crystal_colour            colorless
_exptl_crystal_description       block
_chemical_melting_point          '433 K'
_cell_formula_units_Z            4
loop_
_atom_site_label
_atom_site_type_symbol
_atom_site_fract_x
_atom_site_fract_y
_atom_site_fract_z
S1 S 0.98946(6) 0.64985(4) 0.46495(3)
Cl1 Cl 1.35399(7) 0.70351(6) 1.09873(4)
O1 O 1.27047(17) 0.54253(11) 0.72438(10)
N1 N 1.13570(18) 0.66819(12) 0.73611(10)
N2 N 1.14336(18) 0.58774(12) 0.60279(11)
C1 C 0.6449(3) 0.91473(19) 0.37659(16)
H1 H 0.6126 0.9744 0.3968
H2 H 0.5707 0.8707 0.3752
C2 C 1.2886(2) 0.69372(17) 0.99265(13)
C3 C 1.1882(2) 0.67664(15) 0.82489(12)
C4 C 0.9967(2) 0.72403(13) 0.61635(12)
C5 C 1.0514(2) 0.65166(14) 0.57136(13)
C6 C 1.0371(2) 0.73528(14) 0.70578(13)
N3 N 0.75275(19) 0.88065(13) 0.43760(12)
C7 C 0.9010(2) 0.77759(14) 0.56403(13)
C8 C 1.2839(2) 0.74350(17) 0.84581(14)
H3 H 1.3146 0.7823 0.8033
C9 C 1.3345(2) 0.75276(19) 0.93091(15)
H4 H 1.3985 0.7982 0.9460
C10 C 1.1909(3) 0.62813(18) 0.97188(15)
H5 H 1.1597 0.5893 1.0143
C11 C 1.1808(2) 0.59885(14) 0.68294(13)
C12 C 1.1394(3) 0.62038(17) 0.88722(15)
H6 H 1.0719 0.5772 0.8726
C13 C 0.8216(3) 0.85981(18) 0.59151(15)
H7 H 0.8793 0.9145 0.5975
H8 H 0.7868 0.8470 0.6471
C14 C 0.6896(2) 0.92681(17) 0.28639(15)
C15 C 0.8879(2) 0.74573(15) 0.48230(13)
C16 C 0.7063(3) 0.87942(19) 0.52540(15)
H9 H 0.6380 0.8315 0.5293
H10 H 0.6663 0.9395 0.5378
C17 C 1.4176(3) 0.41105(18) 0.72698(19)
H11 H 1.4371 0.3536 0.6982
H12 H 1.3863 0.3973 0.7827
H13 H 1.4974 0.4485 0.7337
C18 C 0.7951(2) 0.78718(16) 0.41229(14)
H14 H 0.8406 0.7911 0.3591
H15 H 0.7171 0.7472 0.4021
C19 C 0.8246(3) 1.0083(2) 0.18780(18)
H16 H 0.8915 1.0517 0.1784
C20 C 0.6283(3) 0.8796(2) 0.21714(19)
H17 H 0.5626 0.8352 0.2264
C21 C 0.7611(4) 0.9620(2) 0.11919(19)
H18 H 0.7844 0.9745 0.0633
C22 C 0.7894(3) 0.99053(18) 0.27052(16)
H19 H 0.8336 1.0220 0.3165
C23 C 1.3132(3) 0.4628(2) 0.6753(2)
H20 H 1.3484 0.4841 0.6220
H21 H 1.2373 0.4219 0.6610
C24 C 0.6636(4) 0.8976(2) 0.13324(19)
H22 H 0.6208 0.8658 0.0869
O2 O 0.99802(18) 0.79384(11) 0.75545(10)
loop_
_geom_bond_atom_site_label_1
_geom_bond_atom_site_label_2
_geom_bond_site_symmetry_1
_geom_bond_site_symmetry_2
S1 C5 1_555 1_555
Cl1 C2 1_555 1_555
O1 C11 1_555 1_555
N1 C3 1_555 1_555
N2 C5 1_555 1_555
C1 H1 1_555 1_555
H2 C1 1_555 1_555
C2 C9 1_555 1_555
C3 C8 1_555 1_555
C4 C5 1_555 1_555
C6 N1 1_555 1_555
N3 C1 1_555 1_555
C7 C4 1_555 1_555
C8 H3 1_555 1_555
C9 C8 1_555 1_555
H4 C9 1_555 1_555
C10 C2 1_555 1_555
H5 C10 1_555 1_555
C11 N1 1_555 1_555
C12 C3 1_555 1_555
H6 C12 1_555 1_555
C13 C7 1_555 1_555
H7 C13 1_555 1_555
H8 C13 1_555 1_555
C14 C1 1_555 1_555
C15 S1 1_555 1_555
C16 N3 1_555 1_555
H9 C16 1_555 1_555
H10 C16 1_555 1_555
C17 H11 1_555 1_555
H12 C17 1_555 1_555
H13 C17 1_555 1_555
C18 N3 1_555 1_555
H14 C18 1_555 1_555
H15 C18 1_555 1_555
C19 H16 1_555 1_555
C20 C14 1_555 1_555
H17 C20 1_555 1_555
C21 C19 1_555 1_555
H18 C21 1_555 1_555
C22 C14 1_555 1_555
H19 C22 1_555 1_555
C23 O1 1_555 1_555
H20 C23 1_555 1_555
H21 C23 1_555 1_555
C24 C20 1_555 1_555
H22 C24 1_555 1_555
O2 C6 1_555 1_555
N2 C11 1_555 1_555
C4 C6 1_555 1_555
C7 C15 1_555 1_555
C10 C12 1_555 1_555
C13 C16 1_555 1_555
C15 C18 1_555 1_555
C17 C23 1_555 1_555
C19 C22 1_555 1_555
C21 C24 1_555 1_555

#END
