
#######################################################################
#
#                 Cambridge Crystallographic Data Centre
#                                CCDC 
#
#######################################################################
#
# If this CIF has been generated from an entry in the Cambridge 
# Structural Database, then it will include bibliographic, chemical, 
# crystal, experimental, refinement or atomic coordinate data resulting 
# from the CCDC's data processing and validation procedures.
#
#######################################################################

data_TOZPIJ
_chemical_formula_moiety         'C20 H22 O8'
_chemical_name_systematic        
3b,4-Dihydroxy-6a-isopropyl-8b-methyl-3b,4,4a,7a,7b,8b,9,10-octahydrotrisoxireno[6,7:8a,9:4b,5]phenanthro[1,2-c]furan-1,6(3H,6aH)-dione
_chemical_properties_biological  'cytotoxic activity'
_symmetry_cell_setting           orthorhombic
_symmetry_space_group_name_H-M   'P 21 21 21'
_symmetry_Int_Tables_number      19
_space_group_name_Hall           'P 2ac 2ab'
loop_
_symmetry_equiv_pos_site_id
_symmetry_equiv_pos_as_xyz
1 x,y,z
2 1/2+x,1/2-y,-z
3 -x,1/2+y,1/2-z
4 1/2-x,-y,1/2+z
_cell_length_a                   6.3706(16)
_cell_length_b                   7.4133(19)
_cell_length_c                   37.572(9)
_cell_angle_alpha                90
_cell_angle_beta                 90
_cell_angle_gamma                90
_cell_volume                     1774.42
_cell_formula_units_Z            4
loop_
_atom_site_label
_atom_site_type_symbol
_atom_site_fract_x
_atom_site_fract_y
_atom_site_fract_z
O1 O 0.4015(6) -0.0666(5) 1.02706(9)
O2 O 0.4371(6) -0.2904(5) 0.98757(8)
O3 O 0.2889(6) 0.2166(5) 0.82994(8)
O4 O -0.2057(6) 0.4294(5) 0.84883(8)
O5 O -0.2848(6) 0.0368(5) 0.80032(9)
O6 O 0.0420(5) -0.1226(5) 0.83231(8)
O7 O -0.1247(5) -0.1372(6) 0.92529(9)
O8 O 0.3746(5) -0.1982(5) 0.87689(9)
H1 H 0.316(10) -0.183(8) 0.8536(16)
C1 C -0.3966(11) 0.5993(8) 0.78958(15)
H2 H -0.2782 0.6769 0.7935
H3 H -0.4874 0.6030 0.8099
H4 H -0.4721 0.6393 0.7689
C2 C -0.3210(9) 0.4084(7) 0.78381(13)
H5 H -0.4445 0.3307 0.7813
C3 C -0.1890(8) 0.3357(7) 0.81451(12)
C4 C -0.1788(8) 0.1373(7) 0.81819(12)
C5 C -0.0258(8) 0.0521(7) 0.84514(12)
C6 C 0.1518(7) 0.1652(7) 0.85943(11)
C7 C 0.2514(7) 0.1087(7) 0.89498(12)
C8 C 0.1315(8) 0.2033(7) 0.92549(12)
H6 H -0.0143 0.1658 0.9248
H7 H 0.1354 0.3326 0.9216
C9 C 0.2214(9) 0.1621(8) 0.96288(12)
H8 H 0.3358 0.2445 0.9680
H9 H 0.1131 0.1800 0.9807
C10 C 0.2987(8) -0.0266(7) 0.96457(13)
C11 C 0.3819(8) -0.1228(7) 0.99631(12)
C12 C 0.3978(9) -0.3182(7) 0.94962(12)
H10 H 0.2970 -0.4144 0.9459
H11 H 0.5266 -0.3474 0.9371
C13 C 0.3124(8) -0.1423(7) 0.93759(12)
C14 C 0.1671(8) 0.3532(8) 0.84780(13)
H12 H 0.2474 0.4323 0.8637
C15 C -0.0109(9) 0.4419(8) 0.82891(13)
H13 H 0.0189 0.5575 0.8173
C16 C -0.1928(9) 0.3960(8) 0.74921(13)
H14 H -0.0674 0.4668 0.7515
H15 H -0.2752 0.4410 0.7297
H16 H -0.1559 0.2725 0.7448
C17 C -0.0911(8) -0.1168(7) 0.86283(12)
H17 H -0.2371 -0.1541 0.8592
C18 C 0.0119(8) -0.1794(7) 0.89665(12)
H18 H 0.0240 -0.3111 0.8954
C19 C 0.2397(8) -0.1004(7) 0.90065(12)
C20 C 0.4852(8) 0.1680(8) 0.89531(14)
H19 H 0.4931 0.2972 0.8962
H20 H 0.5533 0.1252 0.8741
H21 H 0.5537 0.1182 0.9158
H22 H -0.112(11) -0.237(9) 0.9412(17)
loop_
_geom_bond_atom_site_label_1
_geom_bond_atom_site_label_2
_geom_bond_site_symmetry_1
_geom_bond_site_symmetry_2
O1 C11 1_555 1_555
O2 C11 1_555 1_555
O3 C6 1_555 1_555
O4 C3 1_555 1_555
O5 C4 1_555 1_555
O6 C5 1_555 1_555
O7 C18 1_555 1_555
O8 H1 1_555 1_555
C1 H2 1_555 1_555
H3 C1 1_555 1_555
H4 C1 1_555 1_555
C2 C1 1_555 1_555
H5 C2 1_555 1_555
C3 C2 1_555 1_555
C4 C3 1_555 1_555
C5 C4 1_555 1_555
C6 C5 1_555 1_555
C7 C6 1_555 1_555
C8 C7 1_555 1_555
H6 C8 1_555 1_555
H7 C8 1_555 1_555
C9 C8 1_555 1_555
H8 C9 1_555 1_555
H9 C9 1_555 1_555
C10 C9 1_555 1_555
C11 C10 1_555 1_555
C12 O2 1_555 1_555
H10 C12 1_555 1_555
H11 C12 1_555 1_555
C13 C10 1_555 1_555
C14 O3 1_555 1_555
H12 C14 1_555 1_555
C15 O4 1_555 1_555
H13 C15 1_555 1_555
C16 C2 1_555 1_555
H14 C16 1_555 1_555
H15 C16 1_555 1_555
H16 C16 1_555 1_555
C17 O6 1_555 1_555
H17 C17 1_555 1_555
C18 C17 1_555 1_555
H18 C18 1_555 1_555
C19 O8 1_555 1_555
C20 C7 1_555 1_555
H19 C20 1_555 1_555
H20 C20 1_555 1_555
H21 C20 1_555 1_555
H22 O7 1_555 1_555
C3 C15 1_555 1_555
C5 C17 1_555 1_555
C6 C14 1_555 1_555
C7 C19 1_555 1_555
C12 C13 1_555 1_555
C13 C19 1_555 1_555
C14 C15 1_555 1_555
C18 C19 1_555 1_555

#END
