
#######################################################################
#
#                 Cambridge Crystallographic Data Centre
#                                CCDC 
#
#######################################################################
#
# If this CIF has been generated from an entry in the Cambridge 
# Structural Database, then it will include bibliographic, chemical, 
# crystal, experimental, refinement or atomic coordinate data resulting 
# from the CCDC's data processing and validation procedures.
#
#######################################################################

data_TPHBEN04
_chemical_formula_moiety         'C24 H18'
_chemical_name_systematic        1,3,5-Triphenylbenzene
_symmetry_cell_setting           orthorhombic
_symmetry_space_group_name_H-M   'P n a 21'
_symmetry_Int_Tables_number      33
_space_group_name_Hall           'P 2c -2n'
loop_
_symmetry_equiv_pos_site_id
_symmetry_equiv_pos_as_xyz
1 x,y,z
2 -x,-y,1/2+z
3 1/2-x,1/2+y,1/2+z
4 1/2+x,1/2-y,z
_cell_length_a                   7.48690(10)
_cell_length_b                   19.7180(3)
_cell_length_c                   11.2222(2)
_cell_angle_alpha                90
_cell_angle_beta                 90
_cell_angle_gamma                90
_cell_volume                     1656.7
_exptl_crystal_colour            colorless
_exptl_crystal_description       block
_cell_formula_units_Z            4
loop_
_atom_site_label
_atom_site_type_symbol
_atom_site_fract_x
_atom_site_fract_y
_atom_site_fract_z
C1 C 0.24913(14) 0.23146(6) 0.67899(12)
C2 C 0.21953(16) 0.17028(6) 0.73723(12)
H1 H 0.1990 0.1704 0.8208
C3 C 0.21919(16) 0.10863(6) 0.67627(12)
C4 C 0.25054(15) 0.10945(6) 0.55351(11)
H2 H 0.2509 0.0679 0.5108
C5 C 0.28126(15) 0.16984(6) 0.49235(11)
C6 C 0.28024(16) 0.23067(5) 0.55634(11)
H3 H 0.3011 0.2722 0.5157
C7 C 0.24799(14) 0.29664(6) 0.74605(12)
C8 C 0.18218(16) 0.35585(6) 0.69457(13)
H4 H 0.1366 0.3547 0.6156
C9 C 0.18237(19) 0.41641(6) 0.75722(14)
H5 H 0.1376 0.4564 0.7208
C10 C 0.24715(19) 0.41891(7) 0.87205(15)
H6 H 0.2469 0.4605 0.9147
C11 C 0.3127(2) 0.36056(7) 0.92504(15)
H7 H 0.3572 0.3621 1.0043
C12 C 0.31328(18) 0.29984(6) 0.86230(12)
H8 H 0.3587 0.2600 0.8990
C13 C 0.18320(14) 0.04385(5) 0.74037(12)
C14 C 0.24064(16) 0.03447(6) 0.85750(12)
H9 H 0.3060 0.0693 0.8963
C15 C 0.20323(18) -0.02527(7) 0.91775(14)
H10 H 0.2428 -0.0310 0.9976
C16 C 0.10872(18) -0.07649(6) 0.86229(15)
H11 H 0.0830 -0.1173 0.9040
C17 C 0.05168(18) -0.06830(6) 0.74619(14)
H12 H -0.0130 -0.1035 0.7078
C18 C 0.08884(16) -0.00858(6) 0.68548(13)
H13 H 0.0495 -0.0034 0.6055
C19 C 0.31679(15) 0.16926(5) 0.36199(12)
C20 C 0.41936(18) 0.11786(6) 0.31088(12)
H14 H 0.4653 0.0827 0.3600
C21 C 0.45555(18) 0.11706(6) 0.18983(13)
H15 H 0.5274 0.0821 0.1568
C22 C 0.38691(19) 0.16732(6) 0.11713(12)
H16 H 0.4110 0.1669 0.0340
C23 C 0.28302(19) 0.21830(7) 0.16593(13)
H17 H 0.2348 0.2526 0.1160
C24 C 0.24902(17) 0.21946(6) 0.28716(12)
H18 H 0.1785 0.2550 0.3198
loop_
_geom_bond_atom_site_label_1
_geom_bond_atom_site_label_2
_geom_bond_site_symmetry_1
_geom_bond_site_symmetry_2
C1 C2 1_555 1_555
C2 H1 1_555 1_555
C3 C2 1_555 1_555
C4 C3 1_555 1_555
H2 C4 1_555 1_555
C5 C4 1_555 1_555
C6 C1 1_555 1_555
H3 C6 1_555 1_555
C7 C1 1_555 1_555
C8 C7 1_555 1_555
H4 C8 1_555 1_555
C9 C8 1_555 1_555
H5 C9 1_555 1_555
C10 C9 1_555 1_555
H6 C10 1_555 1_555
C11 C10 1_555 1_555
H7 C11 1_555 1_555
C12 C7 1_555 1_555
H8 C12 1_555 1_555
C13 C3 1_555 1_555
C14 C13 1_555 1_555
H9 C14 1_555 1_555
C15 C14 1_555 1_555
H10 C15 1_555 1_555
C16 C15 1_555 1_555
H11 C16 1_555 1_555
C17 C16 1_555 1_555
H12 C17 1_555 1_555
C18 C13 1_555 1_555
H13 C18 1_555 1_555
C19 C5 1_555 1_555
C20 C19 1_555 1_555
H14 C20 1_555 1_555
C21 C20 1_555 1_555
H15 C21 1_555 1_555
C22 C21 1_555 1_555
H16 C22 1_555 1_555
C23 C22 1_555 1_555
H17 C23 1_555 1_555
C24 C19 1_555 1_555
H18 C24 1_555 1_555
C5 C6 1_555 1_555
C11 C12 1_555 1_555
C17 C18 1_555 1_555
C23 C24 1_555 1_555

#END
