
#######################################################################
#
#                 Cambridge Crystallographic Data Centre
#                                CCDC 
#
#######################################################################
#
# If this CIF has been generated from an entry in the Cambridge 
# Structural Database, then it will include bibliographic, chemical, 
# crystal, experimental, refinement or atomic coordinate data resulting 
# from the CCDC's data processing and validation procedures.
#
#######################################################################

data_TSTILB
_chemical_formula_moiety         'C14 H12'
_chemical_name_systematic        trans-Stilbene
_symmetry_cell_setting           monoclinic
_symmetry_space_group_name_H-M   'P 21/a'
_symmetry_Int_Tables_number      14
_space_group_name_Hall           '-P 2yab'
loop_
_symmetry_equiv_pos_site_id
_symmetry_equiv_pos_as_xyz
1 x,y,z
2 1/2-x,1/2+y,-z
3 -x,-y,-z
4 1/2+x,1/2-y,z
_cell_length_a                   12.35
_cell_length_b                   5.70
_cell_length_c                   15.92
_cell_angle_alpha                90
_cell_angle_beta                 114.0
_cell_angle_gamma                90
_cell_volume                     1023.8
_cell_formula_units_Z            4
loop_
_atom_site_label
_atom_site_type_symbol
_atom_site_fract_x
_atom_site_fract_y
_atom_site_fract_z
C1 C 0.02530 0.09580 0.02390
C2 C 0.15060 0.14030 0.07580
C3 C 0.18690 0.33420 0.13330
C4 C 0.30720 0.37690 0.18310
C5 C 0.39110 0.22560 0.17560
C6 C 0.35470 0.03140 0.11810
C7 C 0.23440 -0.01110 0.06810
C1B C -0.02530 -0.09580 -0.02390
C2B C -0.15060 -0.14030 -0.07580
C3B C -0.18690 -0.33420 -0.13330
C7B C -0.23440 0.01110 -0.06810
C4B C -0.30720 -0.37690 -0.18310
C6B C -0.35470 -0.03140 -0.11810
C5B C -0.39110 -0.22560 -0.17560
C8 C 0.00390 -0.07500 0.46940
C9 C 0.07640 -0.08190 0.41750
C10 C 0.06140 -0.26110 0.35470
C11 C 0.13110 -0.26780 0.30500
C12 C 0.21610 -0.09560 0.31830
C13 C 0.23110 0.08360 0.38110
C14 C 0.16110 0.09060 0.43080
C8B C -0.00390 0.07500 0.53060
C9B C -0.07640 0.08190 0.58250
C10B C -0.06140 0.26110 0.64530
C14B C -0.16110 -0.09060 0.56920
C11B C -0.13110 0.26780 0.69500
C13B C -0.23110 -0.08360 0.61890
C12B C -0.21610 0.09560 0.68170
loop_
_geom_bond_atom_site_label_1
_geom_bond_atom_site_label_2
_geom_bond_site_symmetry_1
_geom_bond_site_symmetry_2
C1 C2 1_555 1_555
C2 C3 1_555 1_555
C3 C4 1_555 1_555
C4 C5 1_555 1_555
C5 C6 1_555 1_555
C6 C7 1_555 1_555
C7 C2 1_555 1_555
C8 C9 1_555 1_555
C9 C10 1_555 1_555
C10 C11 1_555 1_555
C11 C12 1_555 1_555
C12 C13 1_555 1_555
C13 C14 1_555 1_555
C14 C9 1_555 1_555
C1B C1 1_555 1_555
C2B C1B 1_555 1_555
C3B C2B 1_555 1_555
C7B C2B 1_555 1_555
C4B C3B 1_555 1_555
C6B C7B 1_555 1_555
C5B C4B 1_555 1_555
C8B C8 1_555 1_555
C9B C8B 1_555 1_555
C10B C9B 1_555 1_555
C14B C9B 1_555 1_555
C11B C10B 1_555 1_555
C13B C14B 1_555 1_555
C12B C11B 1_555 1_555
C6B C5B 1_555 1_555
C13B C12B 1_555 1_555

#END
