
#######################################################################
#
#                 Cambridge Crystallographic Data Centre
#                                CCDC 
#
#######################################################################
#
# If this CIF has been generated from an entry in the Cambridge 
# Structural Database, then it will include bibliographic, chemical, 
# crystal, experimental, refinement or atomic coordinate data resulting 
# from the CCDC's data processing and validation procedures.
#
#######################################################################

data_TUBCIE
_chemical_formula_moiety         'C25 H14 Cl1 N1 O8,C2 H6 O1'
_chemical_name_systematic        
"3,3'-((2-chloro-5-nitrophenyl)methylene)bis(4-hydroxy-2H-chromen-2-one) ethanol solvate"
_symmetry_cell_setting           triclinic
_symmetry_space_group_name_H-M   'P -1'
_symmetry_Int_Tables_number      2
_space_group_name_Hall           '-P 1'
loop_
_symmetry_equiv_pos_site_id
_symmetry_equiv_pos_as_xyz
1 x,y,z
2 -x,-y,-z
_cell_length_a                   9.7912(9)
_cell_length_b                   11.2742(8)
_cell_length_c                   12.0934(13)
_cell_angle_alpha                64.872(9)
_cell_angle_beta                 79.063(9)
_cell_angle_gamma                84.199(7)
_cell_volume                     1186.36
_exptl_crystal_colour            colorless
_exptl_crystal_description       block
_cell_formula_units_Z            2
_chemical_properties_physical    Air-sensitive
_exptl_crystal_preparation       'Magnetic properties'
loop_
_atom_site_label
_atom_site_type_symbol
_atom_site_fract_x
_atom_site_fract_y
_atom_site_fract_z
Cl1 Cl 0.38172(9) 0.42983(10) 0.15254(11)
C1 C 0.2703(3) 0.7772(3) 0.0134(3)
C2 C 0.1988(3) 0.6201(3) 0.2405(3)
H1 H 0.2565 0.5590 0.2996
C3 C 0.1265(3) 0.5333(3) 0.2021(3)
C4 C 0.5304(3) 0.8132(3) 0.0584(3)
C5 C -0.0562(3) 0.8569(3) 0.3395(3)
C6 C -0.0778(3) 0.4502(3) 0.1808(3)
C7 C 0.1033(3) 0.6867(3) 0.3130(3)
C8 C 0.4257(3) 0.7349(3) 0.1595(3)
C9 C 0.4987(3) 0.8596(3) -0.0593(3)
C10 C -0.0165(3) 0.5340(3) 0.2122(3)
H2 H -0.0715 0.5910 0.2403
C11 C 0.3022(3) 0.7125(3) 0.1360(3)
C12 C 0.0195(3) 0.7924(3) 0.2644(3)
C13 C 0.2022(3) 0.4452(3) 0.1601(3)
C14 C 0.1396(4) 0.3635(3) 0.1261(3)
H3 H 0.1941 0.3079 0.0959
C15 C 0.1075(3) 0.6310(3) 0.4440(3)
C16 C 0.7516(4) 0.9160(4) -0.0302(4)
H4 H 0.8370 0.9363 -0.0204
C17 C 0.6592(4) 0.8431(4) 0.0716(4)
H5 H 0.6827 0.8133 0.1501
C18 C -0.0439(4) 0.8048(4) 0.4627(3)
C19 C 0.7181(4) 0.9593(4) -0.1473(4)
H6 H 0.7815 1.0083 -0.2160
C20 C -0.0028(4) 0.3645(3) 0.1371(3)
H7 H -0.0466 0.3096 0.1159
C21 C 0.5929(4) 0.9312(4) -0.1632(4)
H8 H 0.5709 0.9594 -0.2422
C22 C -0.2020(5) 1.0272(5) 0.3693(5)
H9 H -0.2553 1.1034 0.3375
C23 C -0.1366(4) 0.9700(4) 0.2932(4)
H10 H -0.1463 1.0071 0.2101
C24 C -0.1105(5) 0.8606(4) 0.5408(4)
H11 H -0.1023 0.8232 0.6243
C25 C -0.1893(5) 0.9730(5) 0.4921(5)
H12 H -0.2346 1.0126 0.5430
O1 O -0.2844(3) 0.3725(4) 0.1758(4)
O2 O -0.2950(3) 0.5359(3) 0.2221(4)
O3 O 0.0364(3) 0.6940(3) 0.5134(2)
O4 O -0.0014(3) 0.8481(2) 0.1478(2)
H13 H 0.0415 0.8146 0.0943
O5 O 0.1698(3) 0.5321(3) 0.5001(2)
O6 O 0.3723(2) 0.8410(2) -0.0817(2)
O7 O 0.1557(2) 0.7821(2) -0.0144(2)
O8 O 0.4443(2) 0.6846(3) 0.2754(2)
H14 H 0.3770 0.6366 0.3353
N1 N -0.2296(3) 0.4530(3) 0.1941(3)
C26 C 0.5888(6) 0.6772(6) 0.5037(6)
H15 H 0.6624 0.6942 0.5383
H16 H 0.5530 0.5913 0.5598
C27 C 0.6460(3) 0.6744(3) 0.3894(3)
H17 H 0.7190 0.6087 0.4008
H18 H 0.6833 0.7585 0.3334
H19 H 0.5750 0.6541 0.3557
O9 O 0.4798(9) 0.7725(10) 0.4984(8)
H20 H 0.4384 0.7799 0.5684
loop_
_geom_bond_atom_site_label_1
_geom_bond_atom_site_label_2
_geom_bond_site_symmetry_1
_geom_bond_site_symmetry_2
Cl1 C13 1_555 1_555
C1 C11 1_555 1_555
C2 H1 1_555 1_555
C3 C2 1_555 1_555
C4 C8 1_555 1_555
C5 C12 1_555 1_555
C6 C10 1_555 1_555
C7 C2 1_555 1_555
C8 C11 1_555 1_555
C9 C4 1_555 1_555
C10 C3 1_555 1_555
H2 C10 1_555 1_555
C11 C2 1_555 1_555
C12 C7 1_555 1_555
C13 C3 1_555 1_555
C14 C13 1_555 1_555
H3 C14 1_555 1_555
C15 C7 1_555 1_555
C16 H4 1_555 1_555
C17 C4 1_555 1_555
H5 C17 1_555 1_555
C18 C5 1_555 1_555
C19 C16 1_555 1_555
H6 C19 1_555 1_555
C20 C6 1_555 1_555
H7 C20 1_555 1_555
C21 C9 1_555 1_555
H8 C21 1_555 1_555
C22 H9 1_555 1_555
C23 C5 1_555 1_555
H10 C23 1_555 1_555
C24 C18 1_555 1_555
H11 C24 1_555 1_555
C25 C22 1_555 1_555
H12 C25 1_555 1_555
O1 N1 1_555 1_555
O2 N1 1_555 1_555
O3 C15 1_555 1_555
O4 C12 1_555 1_555
H13 O4 1_555 1_555
O5 C15 1_555 1_555
O6 C1 1_555 1_555
O7 C1 1_555 1_555
O8 C8 1_555 1_555
H14 O8 1_555 1_555
N1 C6 1_555 1_555
C26 H15 1_555 1_555
H16 C26 1_555 1_555
C27 C26 1_555 1_555
H17 C27 1_555 1_555
H18 C27 1_555 1_555
H19 C27 1_555 1_555
O9 C26 1_555 1_555
H20 O9 1_555 1_555
C9 O6 1_555 1_555
C14 C20 1_555 1_555
C16 C17 1_555 1_555
C18 O3 1_555 1_555
C19 C21 1_555 1_555
C22 C23 1_555 1_555
C24 C25 1_555 1_555

#END
