
#######################################################################
#
#                 Cambridge Crystallographic Data Centre
#                                CCDC 
#
#######################################################################
#
# If this CIF has been generated from an entry in the Cambridge 
# Structural Database, then it will include bibliographic, chemical, 
# crystal, experimental, refinement or atomic coordinate data resulting 
# from the CCDC's data processing and validation procedures.
#
#######################################################################

data_TUCDOM
_chemical_formula_moiety         'C20 H24 B1 N1'
_chemical_name_systematic        
(cyclooctane-1,5-diyl)((2-(pyridin-1-ium-2-yl)phenyl)methyl)borate
_symmetry_cell_setting           monoclinic
_symmetry_space_group_name_H-M   'P 21/n'
_symmetry_Int_Tables_number      14
_space_group_name_Hall           '-P 2yn'
loop_
_symmetry_equiv_pos_site_id
_symmetry_equiv_pos_as_xyz
1 x,y,z
2 1/2-x,1/2+y,1/2-z
3 -x,-y,-z
4 1/2+x,1/2-y,1/2+z
_cell_length_a                   7.74270(10)
_cell_length_b                   14.2569(2)
_cell_length_c                   14.4985(2)
_cell_angle_alpha                90
_cell_angle_beta                 102.0350(10)
_cell_angle_gamma                90
_cell_volume                     1565.27
_exptl_crystal_colour            colorless
_exptl_crystal_description       block
_cell_formula_units_Z            4
loop_
_atom_site_label
_atom_site_type_symbol
_atom_site_fract_x
_atom_site_fract_y
_atom_site_fract_z
N1 N 1.04075(12) 0.13931(6) 0.34191(6)
B1 B 0.92003(16) 0.06238(8) 0.27122(8)
C1 C 1.06287(15) 0.02777(8) 0.20969(8)
H1 H 1.1663 -0.0008 0.2521
H2 H 1.0082 -0.0203 0.1634
C2 C 1.12164(14) 0.10969(8) 0.15897(8)
C3 C 1.14858(16) 0.10395(10) 0.06681(9)
H3 H 1.1397 0.0447 0.0362
C4 C 1.18801(18) 0.18278(11) 0.01887(9)
H4 H 1.2062 0.1771 -0.0437
C5 C 1.20076(18) 0.26950(11) 0.06229(10)
H5 H 1.2242 0.3238 0.0289
C6 C 1.17933(17) 0.27720(9) 0.15445(9)
H6 H 1.1897 0.3367 0.1845
C7 C 1.14244(15) 0.19765(8) 0.20352(8)
C8 C 1.13557(15) 0.20449(7) 0.30441(8)
C9 C 1.23253(16) 0.27217(8) 0.36256(9)
H7 H 1.2995 0.3169 0.3363
C10 C 1.23263(17) 0.27511(9) 0.45763(9)
H8 H 1.2959 0.3226 0.4967
C11 C 1.13909(18) 0.20774(9) 0.49496(9)
H9 H 1.1378 0.2073 0.5603
C12 C 1.04750(16) 0.14102(8) 0.43529(8)
H10 H 0.9859 0.0937 0.4616
C13 C 0.74993(14) 0.11780(8) 0.21076(8)
H11 H 0.7939 0.1723 0.1788
C14 C 0.65284(16) 0.05040(9) 0.13395(8)
H12 H 0.7268 0.0415 0.0866
H13 H 0.5416 0.0807 0.1016
C15 C 0.60798(17) -0.04704(9) 0.16881(9)
H14 H 0.4982 -0.0417 0.1932
H15 H 0.5837 -0.0902 0.1142
C16 C 0.75169(18) -0.09108(8) 0.24601(9)
H16 H 0.8455 -0.1171 0.2163
H17 H 0.6993 -0.1439 0.2750
C17 C 0.83686(15) -0.02167(8) 0.32481(8)
H18 H 0.9354 -0.0544 0.3685
C18 C 0.69572(16) 0.00762(8) 0.38121(9)
H19 H 0.6309 -0.0493 0.3936
H20 H 0.7574 0.0328 0.4430
C19 C 0.56011(16) 0.08101(9) 0.33362(9)
H21 H 0.4622 0.0480 0.2911
H22 H 0.5101 0.1126 0.3829
C20 C 0.63381(16) 0.15596(8) 0.27662(9)
H23 H 0.7044 0.2010 0.3211
H24 H 0.5336 0.1909 0.2382
loop_
_geom_bond_atom_site_label_1
_geom_bond_atom_site_label_2
_geom_bond_site_symmetry_1
_geom_bond_site_symmetry_2
N1 B1 1_555 1_555
B1 C1 1_555 1_555
C1 H1 1_555 1_555
H2 C1 1_555 1_555
C2 C1 1_555 1_555
C3 C2 1_555 1_555
H3 C3 1_555 1_555
C4 C3 1_555 1_555
H4 C4 1_555 1_555
C5 C4 1_555 1_555
H5 C5 1_555 1_555
C6 C5 1_555 1_555
H6 C6 1_555 1_555
C7 C2 1_555 1_555
C8 N1 1_555 1_555
C9 C8 1_555 1_555
H7 C9 1_555 1_555
C10 C9 1_555 1_555
H8 C10 1_555 1_555
C11 C10 1_555 1_555
H9 C11 1_555 1_555
C12 N1 1_555 1_555
H10 C12 1_555 1_555
C13 B1 1_555 1_555
H11 C13 1_555 1_555
C14 C13 1_555 1_555
H12 C14 1_555 1_555
H13 C14 1_555 1_555
C15 C14 1_555 1_555
H14 C15 1_555 1_555
H15 C15 1_555 1_555
C16 C15 1_555 1_555
H16 C16 1_555 1_555
H17 C16 1_555 1_555
C17 B1 1_555 1_555
H18 C17 1_555 1_555
C18 C17 1_555 1_555
H19 C18 1_555 1_555
H20 C18 1_555 1_555
C19 C18 1_555 1_555
H21 C19 1_555 1_555
H22 C19 1_555 1_555
C20 C13 1_555 1_555
H23 C20 1_555 1_555
H24 C20 1_555 1_555
C6 C7 1_555 1_555
C7 C8 1_555 1_555
C11 C12 1_555 1_555
C16 C17 1_555 1_555
C19 C20 1_555 1_555

#END
