
#######################################################################
#
#                 Cambridge Crystallographic Data Centre
#                                CCDC 
#
#######################################################################
#
# If this CIF has been generated from an entry in the Cambridge 
# Structural Database, then it will include bibliographic, chemical, 
# crystal, experimental, refinement or atomic coordinate data resulting 
# from the CCDC's data processing and validation procedures.
#
#######################################################################

data_TUCDAY
_chemical_formula_moiety         'C27 H25 N3 O2'
_chemical_name_systematic        
'(3R,5R)-ethyl 4,4-dicyano-5-(1-methyl-1H-indol-2-yl)-3-(2-phenylethyl)cyclopent-1-ene-1-carboxylate'
_symmetry_cell_setting           monoclinic
_symmetry_space_group_name_H-M   'P c'
_symmetry_Int_Tables_number      7
_space_group_name_Hall           'P -2yc'
loop_
_symmetry_equiv_pos_site_id
_symmetry_equiv_pos_as_xyz
1 x,y,z
2 x,-y,1/2+z
_cell_length_a                   8.3640(10)
_cell_length_b                   10.062(2)
_cell_length_c                   14.620(2)
_cell_angle_alpha                90
_cell_angle_beta                 112.808(2)
_cell_angle_gamma                90
_cell_volume                     1134.19
_exptl_crystal_colour            colorless
_exptl_crystal_description       'thick plate'
_cell_formula_units_Z            2
_exptl_crystal_recrystallization_method dichloromethane/hexane
loop_
_atom_site_label
_atom_site_type_symbol
_atom_site_fract_x
_atom_site_fract_y
_atom_site_fract_z
O1 O 0.7791(3) 1.29997(19) 0.33343(15)
O2 O 0.9037(3) 1.1949(2) 0.47873(15)
N1 N 1.1129(4) 0.6646(3) 0.3127(2)
N2 N 1.3467(3) 1.0205(3) 0.2868(2)
C1 C 1.0645(3) 0.9206(2) 0.29472(18)
C2 C 0.9039(3) 0.9627(2) 0.19875(17)
H1 H 0.9430 0.9854 0.1456
C3 C 0.8473(3) 1.0861(2) 0.23512(18)
H2 H 0.7745 1.1493 0.1928
C4 C 0.9102(3) 1.0971(2) 0.33288(18)
C5 C 1.0304(3) 0.9851(2) 0.38517(18)
H3 H 1.1389 1.0215 0.4335
C6 C 1.0904(4) 0.7760(3) 0.3045(2)
C7 C 1.2242(4) 0.9773(3) 0.2906(2)
C8 C 0.7626(3) 0.8550(2) 0.16241(18)
H4 H 0.8033 0.7831 0.1327
H5 H 0.7441 0.8190 0.2191
C9 C 0.5915(4) 0.9054(3) 0.0875(2)
H6 H 0.5512 0.9784 0.1163
H7 H 0.6086 0.9389 0.0298
C10 C 0.4555(3) 0.7980(2) 0.0557(2)
C11 C 0.3848(4) 0.7498(3) 0.1203(3)
H8 H 0.4176 0.7871 0.1831
C12 C 0.2660(5) 0.6470(4) 0.0929(3)
H9 H 0.2194 0.6161 0.1372
C13 C 0.2167(4) 0.5906(4) 0.0016(3)
H10 H 0.1381 0.5205 -0.0161
C14 C 0.2827(4) 0.6370(3) -0.0633(3)
H11 H 0.2476 0.5995 -0.1262
C15 C 0.4018(4) 0.7399(3) -0.0370(2)
H12 H 0.4464 0.7704 -0.0824
C16 C 0.8656(4) 1.2008(2) 0.3911(2)
C17 C 0.7234(5) 1.4090(3) 0.3796(3)
H13 H 0.6872 1.3755 0.4308
H14 H 0.8180 1.4712 0.4097
C18 C 0.5790(7) 1.4745(5) 0.3020(3)
H15 H 0.4930 1.4096 0.2668
H16 H 0.6200 1.5178 0.2566
H17 H 0.5289 1.5392 0.3312
C19 C 0.9521(3) 0.8925(2) 0.43618(17)
C20 C 0.7818(3) 0.8691(2) 0.41627(18)
H18 H 0.6880 0.9101 0.3672
C21 C 0.7731(3) 0.7708(2) 0.48396(17)
C22 C 0.9446(3) 0.7379(2) 0.54516(18)
N3 N 1.0533(2) 0.8134(2) 0.51534(15)
C23 C 0.6369(4) 0.7050(3) 0.4988(2)
H19 H 0.5221 0.7255 0.4599
C24 C 0.6757(5) 0.6101(3) 0.5713(2)
H20 H 0.5859 0.5655 0.5809
C25 C 0.8468(5) 0.5789(3) 0.6312(2)
H21 H 0.8691 0.5142 0.6800
C26 C 0.9835(4) 0.6421(3) 0.6193(2)
H22 H 1.0977 0.6216 0.6594
C27 C 1.2416(3) 0.8052(4) 0.5591(2)
H23 H 1.2894 0.8669 0.5265
H24 H 1.2824 0.8267 0.6284
H25 H 1.2772 0.7167 0.5514
H26? H 1.2766 0.7399 0.6111
H27? H 1.2836 0.7801 0.5091
H28? H 1.2888 0.8902 0.5861
loop_
_geom_bond_atom_site_label_1
_geom_bond_atom_site_label_2
_geom_bond_site_symmetry_1
_geom_bond_site_symmetry_2
O1 C16 1_555 1_555
O2 C16 1_555 1_555
N1 C6 1_555 1_555
N2 C7 1_555 1_555
C1 C2 1_555 1_555
C2 H1 1_555 1_555
C3 C2 1_555 1_555
H2 C3 1_555 1_555
C4 C3 1_555 1_555
C5 C1 1_555 1_555
H3 C5 1_555 1_555
C6 C1 1_555 1_555
C7 C1 1_555 1_555
C8 C2 1_555 1_555
H4 C8 1_555 1_555
H5 C8 1_555 1_555
C9 C8 1_555 1_555
H6 C9 1_555 1_555
H7 C9 1_555 1_555
C10 C9 1_555 1_555
C11 C10 1_555 1_555
H8 C11 1_555 1_555
C12 C11 1_555 1_555
H9 C12 1_555 1_555
C13 C12 1_555 1_555
H10 C13 1_555 1_555
C14 C13 1_555 1_555
H11 C14 1_555 1_555
C15 C10 1_555 1_555
H12 C15 1_555 1_555
C16 C4 1_555 1_555
C17 O1 1_555 1_555
H13 C17 1_555 1_555
H14 C17 1_555 1_555
C18 C17 1_555 1_555
H15 C18 1_555 1_555
H16 C18 1_555 1_555
H17 C18 1_555 1_555
C19 C5 1_555 1_555
C20 C19 1_555 1_555
H18 C20 1_555 1_555
C21 C20 1_555 1_555
C22 C21 1_555 1_555
N3 C19 1_555 1_555
C23 C21 1_555 1_555
H19 C23 1_555 1_555
C24 C23 1_555 1_555
H20 C24 1_555 1_555
C25 C24 1_555 1_555
H21 C25 1_555 1_555
C26 C22 1_555 1_555
H22 C26 1_555 1_555
C27 N3 1_555 1_555
H23 C27 1_555 1_555
H24 C27 1_555 1_555
H25 C27 1_555 1_555
C4 C5 1_555 1_555
C14 C15 1_555 1_555
C22 N3 1_555 1_555
C25 C26 1_555 1_555

#END
