
#######################################################################
#
#                 Cambridge Crystallographic Data Centre
#                                CCDC 
#
#######################################################################
#
# If this CIF has been generated from an entry in the Cambridge 
# Structural Database, then it will include bibliographic, chemical, 
# crystal, experimental, refinement or atomic coordinate data resulting 
# from the CCDC's data processing and validation procedures.
#
#######################################################################

data_TUCHEG
_chemical_formula_moiety         'C31 H34 N4 O2 S1'
_chemical_name_systematic        
N-(biphenyl-2-yl)-8-((butylcarbamothioyl)amino)-4-isobutoxyquinoline-2-carboxamide
_symmetry_cell_setting           triclinic
_symmetry_space_group_name_H-M   'P -1'
_symmetry_Int_Tables_number      2
_space_group_name_Hall           '-P 1'
loop_
_symmetry_equiv_pos_site_id
_symmetry_equiv_pos_as_xyz
1 x,y,z
2 -x,-y,-z
_cell_length_a                   13.6960(16)
_cell_length_b                   14.7436(17)
_cell_length_c                   15.3268(18)
_cell_angle_alpha                85.508(2)
_cell_angle_beta                 77.575(2)
_cell_angle_gamma                65.784(2)
_cell_volume                     2756.3
_exptl_crystal_colour            colorless
_exptl_crystal_description       block
_chemical_melting_point          '451-453 K'
_cell_formula_units_Z            2
loop_
_atom_site_label
_atom_site_type_symbol
_atom_site_fract_x
_atom_site_fract_y
_atom_site_fract_z
S1 S 0.20024(13) -0.33297(10) 0.28337(14)
O1 O 0.2219(2) 0.2439(2) 0.3194(2)
O2 O -0.1505(2) 0.23442(19) 0.4432(2)
N1 N 0.3358(2) 0.0827(2) 0.3442(2)
H1 H 0.3361 0.0153 0.3469
N2 N 0.1666(2) 0.0297(2) 0.3487(2)
N3 N 0.2090(3) -0.1570(2) 0.3109(3)
H2 H 0.2589 -0.1212 0.3006
N4 N 0.3522(4) -0.2668(3) 0.2163(4)
H3 H 0.3791 -0.2144 0.1990
C1 C 0.4389(3) 0.0861(3) 0.3376(3)
C2 C 0.5283(3) -0.0032(3) 0.3473(3)
C3 C 0.6298(3) 0.0016(4) 0.3392(3)
H4 H 0.6916 -0.0578 0.3448
C4 C 0.6431(4) 0.0888(4) 0.3235(3)
H5 H 0.7135 0.0891 0.3174
C5 C 0.5541(4) 0.1766(4) 0.3165(3)
H6 H 0.5627 0.2376 0.3070
C6 C 0.4518(3) 0.1749(3) 0.3233(3)
H7 H 0.3905 0.2349 0.3181
C7 C 0.5203(3) -0.1003(3) 0.3625(3)
C8 C 0.5908(3) -0.1812(3) 0.3074(3)
H8 H 0.6430 -0.1728 0.2593
C9 C 0.5870(4) -0.2737(4) 0.3206(4)
H9 H 0.6370 -0.3283 0.2828
C10 C 0.5106(4) -0.2859(3) 0.3888(4)
H10 H 0.5059 -0.3486 0.3970
C11 C 0.4400(4) -0.2074(3) 0.4458(3)
H11 H 0.3883 -0.2165 0.4941
C12 C 0.4453(3) -0.1156(3) 0.4320(3)
H12 H 0.3965 -0.0617 0.4710
C13 C 0.0802(3) 0.0031(3) 0.3667(3)
C14 C -0.0289(3) 0.0713(3) 0.3999(3)
C15 C -0.0462(3) 0.1718(3) 0.4116(3)
C16 C 0.1449(3) 0.1247(3) 0.3601(3)
C17 C 0.2384(3) 0.1569(3) 0.3379(3)
C18 C 0.0408(3) 0.1985(3) 0.3906(3)
H13 H 0.0306 0.2656 0.3966
C19 C 0.1007(3) -0.0983(3) 0.3500(3)
C20 C 0.0149(3) -0.1274(3) 0.3701(3)
H14 H 0.0277 -0.1945 0.3603
C21 C -0.0903(3) -0.0592(3) 0.4048(3)
H15 H -0.1478 -0.0814 0.4182
C22 C -0.1145(3) 0.0387(3) 0.4205(3)
H16 H -0.1871 0.0834 0.4447
C23 C -0.1700(3) 0.3371(3) 0.4591(4)
H17 H -0.1426 0.3657 0.4035
H18 H -0.1311 0.3399 0.5056
C24 C -0.2915(3) 0.3955(3) 0.4894(4)
H19 H -0.3187 0.3598 0.5406
C25 C -0.3513(4) 0.4022(4) 0.4144(4)
H20 H -0.3293 0.4408 0.3652
H21 H -0.4304 0.4349 0.4370
H22 H -0.3328 0.3351 0.3929
C26 C -0.3115(4) 0.4976(3) 0.5223(4)
H23 H -0.2756 0.4900 0.5729
H24 H -0.3902 0.5364 0.5414
H25 H -0.2815 0.5322 0.4739
C27 C 0.2544(4) -0.2490(3) 0.2704(4)
C28 C 0.4204(5) -0.3594(4) 0.1609(5)
H26 H 0.4700 -0.3430 0.1093
H27 H 0.3736 -0.3810 0.1365
C29 C 0.4881(6) -0.4397(4) 0.2156(4)
H28 H 0.4418 -0.4450 0.2734
H29 H 0.5468 -0.4230 0.2282
C30 C 0.5387(6) -0.5394(5) 0.1647(4)
H30 H 0.5758 -0.5922 0.2050
H31 H 0.4784 -0.5534 0.1518
C31 C 0.6200(5) -0.5479(5) 0.0773(4)
H32 H 0.5818 -0.5044 0.0328
H33 H 0.6537 -0.6169 0.0556
H34 H 0.6767 -0.5280 0.0874
O3 O 0.3744(2) -0.0817(2) 0.1530(2)
O4 O -0.0023(2) -0.0602(2) 0.1155(2)
N5 N 0.3503(3) 0.0788(3) 0.1176(2)
H35 H 0.2979 0.1414 0.1083
N6 N 0.0126(3) 0.3207(3) 0.2035(3)
H36 H 0.082(4) 0.283(4) 0.211(3)
C32 C 0.4628(7) 0.0646(5) 0.1060(7)
C33 C 0.4769(6) 0.1510(5) 0.0737(7)
C34 C 0.5851(6) 0.1454(7) 0.0540(5)
H37 H 0.5995 0.2006 0.0285
C35 C 0.6704(6) 0.0583(7) 0.0722(5)
H38 H 0.7418 0.0570 0.0628
C36 C 0.6546(6) -0.0262(7) 0.1037(5)
H39 H 0.7147 -0.0854 0.1130
C37 C 0.5496(6) -0.0234(6) 0.1213(6)
H40 H 0.5369 -0.0804 0.1435
C38 C 0.3803(7) 0.2509(6) 0.0618(6)
C39 C 0.3351(7) 0.3415(5) 0.1149(6)
H41 H 0.3685 0.3431 0.1626
C40 C 0.2459(7) 0.4258(6) 0.1000(6)
H42 H 0.2232 0.4840 0.1349
C41 C 0.1896(7) 0.4266(6) 0.0354(6)
H43 H 0.1258 0.4832 0.0281
C42 C 0.2279(7) 0.3434(6) -0.0188(6)
H44 H 0.1925 0.3432 -0.0656
C43 C 0.3178(7) 0.2606(6) -0.0040(6)
H45 H 0.3403 0.2045 -0.0416
N7 N 0.1355(3) 0.1330(2) 0.1559(2)
C44 C 0.3172(3) 0.0044(3) 0.1373(3)
C45 C 0.1971(3) 0.0374(3) 0.1398(3)
C46 C 0.0478(4) -0.0029(4) 0.1297(3)
C47 C -0.0223(3) 0.0976(3) 0.1511(3)
C48 C 0.0261(3) 0.1632(3) 0.1632(3)
C49 C 0.1580(3) -0.0338(3) 0.1264(3)
H46 H 0.2064 -0.1016 0.1153
C50 C -0.0427(3) 0.2647(3) 0.1866(3)
C51 C -0.1537(4) 0.2977(4) 0.1949(3)
H47 H -0.2000 0.3654 0.2094
C52 C -0.1986(4) 0.2305(4) 0.1818(3)
H48 H -0.2755 0.2544 0.1873
C53 C -0.1367(4) 0.1335(4) 0.1616(3)
H49 H -0.1699 0.0899 0.1546
C54 C 0.0626(4) -0.1631(4) 0.0939(3)
H50 H 0.1048 -0.1956 0.1409
H51 H 0.1146 -0.1702 0.0363
C55 C -0.0151(4) -0.2112(4) 0.0873(3)
H52 H -0.0599 -0.1750 0.0420
C56 C -0.0912(4) -0.2041(3) 0.1779(3)
H53 H -0.1407 -0.2357 0.1737
H54 H -0.1341 -0.1341 0.1951
H55 H -0.0477 -0.2382 0.2229
C57 C 0.0509(5) -0.3173(4) 0.0576(4)
H56 H 0.1002 -0.3197 0.0002
H57 H 0.0017 -0.3482 0.0508
H58 H 0.0939 -0.3535 0.1024
S2 S -0.1314(4) 0.5031(3) 0.1881(4)
C58 C -0.0268(9) 0.4191(8) 0.2417(8)
N8 N 0.0431(9) 0.4300(7) 0.2876(8)
H59 H 0.1033 0.3784 0.3070
C59 C 0.0098(10) 0.5354(7) 0.2999(8)
H60 H -0.0059 0.5701 0.2434
H61 H 0.0702 0.5472 0.3153
C60 C -0.0960(8) 0.5796(6) 0.3772(6)
H62 H -0.1591 0.5781 0.3565
H63 H -0.0847 0.5360 0.4299
C61 C -0.1237(8) 0.6840(6) 0.4052(6)
H64 H -0.0617 0.6853 0.4278
H65 H -0.1333 0.7274 0.3524
C62 C -0.2253(8) 0.7248(7) 0.4762(6)
H66 H -0.2879 0.7276 0.4531
H67 H -0.2377 0.7919 0.4934
H68 H -0.2168 0.6816 0.5285
C63? C 0.388(2) -0.4247(15) 0.1160(19)
H69? H 0.3746 -0.3967 0.0568
H70? H 0.3187 -0.4248 0.1516
C64? C 0.472(2) -0.5303(17) 0.1034(18)
H71? H 0.5464 -0.5320 0.0945
H72? H 0.4664 -0.5605 0.0502
C65? C 0.450(3) -0.588(2) 0.1861(18)
H73? H 0.4976 -0.5900 0.2265
H74? H 0.4650 -0.6554 0.1690
H75? H 0.3735 -0.5545 0.2163
C66? C 0.4498(7) 0.0911(6) 0.0989(8)
C67? C 0.4580(7) 0.1804(6) 0.0710(7)
C68? C 0.5565(6) 0.1904(7) 0.0632(6)
H76? H 0.5606 0.2530 0.0512
C69? C 0.6481(7) 0.1060(7) 0.0734(6)
H77? H 0.7170 0.1103 0.0624
C70? C 0.6431(7) 0.0152(7) 0.0992(6)
H78? H 0.7069 -0.0413 0.1065
C71? C 0.5408(6) 0.0096(7) 0.1140(7)
H79? H 0.5343 -0.0506 0.1346
C72? C 0.3700(11) 0.2578(10) 0.0383(7)
C73? C 0.2890(10) 0.3109(9) 0.1042(9)
H80? H 0.2853 0.2932 0.1654
C74? C 0.2114(11) 0.3944(9) 0.0738(8)
H81? H 0.1533 0.4380 0.1168
C75? C 0.2133(10) 0.4186(10) -0.0160(8)
H82? H 0.1557 0.4736 -0.0352
C76? C 0.3050(9) 0.3572(8) -0.0762(9)
H83? H 0.3102 0.3738 -0.1377
C77? C 0.3888(10) 0.2740(9) -0.0526(8)
H84? H 0.4516 0.2330 -0.0937
S3? S -0.1451(4) 0.5104(4) 0.2356(4)
C78? C -0.0242(10) 0.4124(10) 0.2197(8)
N9? N 0.0375(8) 0.4355(7) 0.2687(7)
H85? H 0.1065 0.3815 0.2668
C79? C 0.0285(11) 0.5185(8) 0.3225(8)
H86? H -0.0074 0.5817 0.2921
H87? H 0.1031 0.5117 0.3239
C80? C -0.0332(9) 0.5255(7) 0.4160(7)
H88? H 0.0136 0.4726 0.4510
H89? H -0.0981 0.5118 0.4158
C81? C -0.0707(8) 0.6228(6) 0.4628(7)
H90? H -0.0091 0.6437 0.4524
H91? H -0.0901 0.6130 0.5279
C82? C -0.1668(9) 0.7053(7) 0.4344(8)
H92? H -0.1514 0.7116 0.3693
H93? H -0.1802 0.7678 0.4626
H94? H -0.2316 0.6902 0.4528
H95? H 0.4645 -0.4053 0.2019
loop_
_geom_bond_atom_site_label_1
_geom_bond_atom_site_label_2
_geom_bond_site_symmetry_1
_geom_bond_site_symmetry_2
S1 C27 1_555 1_555
O1 C17 1_555 1_555
O2 C15 1_555 1_555
N1 H1 1_555 1_555
N2 C13 1_555 1_555
N3 H2 1_555 1_555
N4 H3 1_555 1_555
C1 N1 1_555 1_555
C2 C1 1_555 1_555
C3 C2 1_555 1_555
H4 C3 1_555 1_555
C4 C3 1_555 1_555
H5 C4 1_555 1_555
C5 C4 1_555 1_555
H6 C5 1_555 1_555
C6 C1 1_555 1_555
H7 C6 1_555 1_555
C7 C2 1_555 1_555
C8 C7 1_555 1_555
H8 C8 1_555 1_555
C9 C8 1_555 1_555
H9 C9 1_555 1_555
C10 C9 1_555 1_555
H10 C10 1_555 1_555
C11 C10 1_555 1_555
H11 C11 1_555 1_555
C12 C7 1_555 1_555
H12 C12 1_555 1_555
C13 C14 1_555 1_555
C14 C15 1_555 1_555
C15 C18 1_555 1_555
C16 N2 1_555 1_555
C17 N1 1_555 1_555
C18 C16 1_555 1_555
H13 C18 1_555 1_555
C19 N3 1_555 1_555
C20 C19 1_555 1_555
H14 C20 1_555 1_555
C21 C20 1_555 1_555
H15 C21 1_555 1_555
C22 C14 1_555 1_555
H16 C22 1_555 1_555
C23 O2 1_555 1_555
H17 C23 1_555 1_555
H18 C23 1_555 1_555
C24 C23 1_555 1_555
H19 C24 1_555 1_555
C25 C24 1_555 1_555
H20 C25 1_555 1_555
H21 C25 1_555 1_555
H22 C25 1_555 1_555
C26 C24 1_555 1_555
H23 C26 1_555 1_555
H24 C26 1_555 1_555
H25 C26 1_555 1_555
C27 N3 1_555 1_555
C28 N4 1_555 1_555
H26 C28 1_555 1_555
H27 C28 1_555 1_555
C29 C28 1_555 1_555
H28 C29 1_555 1_555
H29 C29 1_555 1_555
C30 C29 1_555 1_555
H30 C30 1_555 1_555
H31 C30 1_555 1_555
C31 C30 1_555 1_555
H32 C31 1_555 1_555
H33 C31 1_555 1_555
H34 C31 1_555 1_555
O3 C44 1_555 1_555
O4 C46 1_555 1_555
N5 H35 1_555 1_555
N6 H36 1_555 1_555
C32 N5 1_555 1_555
C33 C32 1_555 1_555
C34 C33 1_555 1_555
H37 C34 1_555 1_555
C35 C34 1_555 1_555
H38 C35 1_555 1_555
C36 C35 1_555 1_555
H39 C36 1_555 1_555
C37 C32 1_555 1_555
H40 C37 1_555 1_555
C38 C33 1_555 1_555
C39 C38 1_555 1_555
H41 C39 1_555 1_555
C40 C39 1_555 1_555
H42 C40 1_555 1_555
C41 C40 1_555 1_555
H43 C41 1_555 1_555
C42 C41 1_555 1_555
H44 C42 1_555 1_555
C43 C38 1_555 1_555
H45 C43 1_555 1_555
N7 C45 1_555 1_555
C44 N5 1_555 1_555
C45 C44 1_555 1_555
C46 C47 1_555 1_555
C47 C48 1_555 1_555
C48 N7 1_555 1_555
C49 C45 1_555 1_555
H46 C49 1_555 1_555
C50 N6 1_555 1_555
C51 C50 1_555 1_555
H47 C51 1_555 1_555
C52 C51 1_555 1_555
H48 C52 1_555 1_555
C53 C47 1_555 1_555
H49 C53 1_555 1_555
C54 O4 1_555 1_555
H50 C54 1_555 1_555
H51 C54 1_555 1_555
C55 C54 1_555 1_555
H52 C55 1_555 1_555
C56 C55 1_555 1_555
H53 C56 1_555 1_555
H54 C56 1_555 1_555
H55 C56 1_555 1_555
C57 C55 1_555 1_555
H56 C57 1_555 1_555
H57 C57 1_555 1_555
H58 C57 1_555 1_555
S2 C58 1_555 1_555
C58 N6 1_555 1_555
N8 C58 1_555 1_555
H59 N8 1_555 1_555
C59 N8 1_555 1_555
H60 C59 1_555 1_555
H61 C59 1_555 1_555
C60 C59 1_555 1_555
H62 C60 1_555 1_555
H63 C60 1_555 1_555
C61 C60 1_555 1_555
H64 C61 1_555 1_555
H65 C61 1_555 1_555
C62 C61 1_555 1_555
H66 C62 1_555 1_555
H67 C62 1_555 1_555
H68 C62 1_555 1_555
N4 C27 1_555 1_555
C5 C6 1_555 1_555
C11 C12 1_555 1_555
C13 C19 1_555 1_555
C16 C17 1_555 1_555
C21 C22 1_555 1_555
C36 C37 1_555 1_555
C42 C43 1_555 1_555
C46 C49 1_555 1_555
C48 C50 1_555 1_555
C52 C53 1_555 1_555

#END
