
#######################################################################
#
#                 Cambridge Crystallographic Data Centre
#                                CCDC 
#
#######################################################################
#
# If this CIF has been generated from an entry in the Cambridge 
# Structural Database, then it will include bibliographic, chemical, 
# crystal, experimental, refinement or atomic coordinate data resulting 
# from the CCDC's data processing and validation procedures.
#
#######################################################################

data_TUCVAQ
_chemical_formula_moiety         'C22 H22 Br1 O2 P1'
_chemical_name_systematic        
'isopropyl ((6-bromo-1,2-dihydroacenaphthylen-5-yl)methyl)phenylphosphinate'
_symmetry_cell_setting           orthorhombic
_symmetry_space_group_name_H-M   'P n a 21'
_symmetry_Int_Tables_number      33
_space_group_name_Hall           'P 2c -2n'
loop_
_symmetry_equiv_pos_site_id
_symmetry_equiv_pos_as_xyz
1 x,y,z
2 -x,-y,1/2+z
3 1/2-x,1/2+y,1/2+z
4 1/2+x,1/2-y,z
_cell_length_a                   18.9410(7)
_cell_length_b                   17.6865(6)
_cell_length_c                   5.6269(2)
_cell_angle_alpha                90
_cell_angle_beta                 90
_cell_angle_gamma                90
_cell_volume                     1885.01
_exptl_crystal_colour            colorless
_exptl_crystal_description       block
_cell_formula_units_Z            4
loop_
_atom_site_label
_atom_site_type_symbol
_atom_site_fract_x
_atom_site_fract_y
_atom_site_fract_z
Br1 Br 0.307580(16) 0.716584(15) 0.50798(7)
P1 P 0.10000(4) 0.77446(4) 0.61692(12)
O1 O 0.11720(11) 0.78677(11) 0.3640(4)
O2 O 0.07225(9) 0.69184(10) 0.6814(3)
C1 C 0.03001(14) 0.83698(15) 0.7114(5)
C2 C 0.01176(13) 0.89713(15) 0.5662(4)
H1 H 0.0360 0.9049 0.4245
C3 C -0.04241(14) 0.94593(16) 0.6308(5)
H2 H -0.0539 0.9867 0.5339
C4 C -0.07889(15) 0.93372(16) 0.8384(5)
H3 H -0.1158 0.9658 0.8796
C5 C -0.06138(13) 0.87425(15) 0.9867(6)
H4 H -0.0862 0.8665 1.1271
C6 C -0.00611(14) 0.82586(17) 0.9241(5)
H5 H 0.0065 0.7863 1.0243
C7 C -0.03090(15) 0.61550(18) 0.7144(5)
H6 H -0.0482 0.6485 0.8365
H7 H -0.0028 0.5763 0.7849
H8 H -0.0700 0.5933 0.6314
C8 C 0.01381(13) 0.66024(15) 0.5415(5)
H9 H -0.0144 0.7016 0.4748
C9 C 0.04354(15) 0.61310(17) 0.3426(5)
H10 H 0.0713 0.6445 0.2395
H11 H 0.0056 0.5909 0.2538
H12 H 0.0727 0.5738 0.4075
C10 C 0.17298(14) 0.78381(14) 0.8203(5)
H13 H 0.1561 0.7817 0.9829
H14 H 0.2062 0.7428 0.7967
C11 C 0.20868(14) 0.85886(16) 0.7743(4)
C12 C 0.25829(13) 0.87226(15) 0.5863(5)
C13 C 0.29695(14) 0.82196(16) 0.4381(5)
C14 C 0.33632(15) 0.84652(16) 0.2477(5)
H15 H 0.3586 0.8110 0.1516
C15 C 0.34384(14) 0.92347(16) 0.1943(5)
H16 H 0.3687 0.9388 0.0602
C16 C 0.31408(13) 0.97534(17) 0.3424(5)
C17 C 0.27238(13) 0.94947(14) 0.5336(5)
C18 C 0.24471(14) 1.01052(15) 0.6654(5)
C19 C 0.20203(14) 0.99608(16) 0.8544(5)
H17 H 0.1850 1.0353 0.9486
C20 C 0.18407(14) 0.91986(16) 0.9045(5)
H18 H 0.1541 0.9103 1.0319
C21 C 0.31562(15) 1.06085(18) 0.3429(5)
H19 H 0.2962 1.0808 0.1962
H20 H 0.3636 1.0793 0.3611
C22 C 0.26977(15) 1.08427(15) 0.5572(5)
H21 H 0.2973 1.1130 0.6710
H22 H 0.2300 1.1147 0.5059
loop_
_geom_bond_atom_site_label_1
_geom_bond_atom_site_label_2
_geom_bond_site_symmetry_1
_geom_bond_site_symmetry_2
Br1 C13 1_555 1_555
P1 O1 1_555 1_555
O2 P1 1_555 1_555
C1 P1 1_555 1_555
C2 C1 1_555 1_555
H1 C2 1_555 1_555
C3 C2 1_555 1_555
H2 C3 1_555 1_555
C4 C3 1_555 1_555
H3 C4 1_555 1_555
C5 C4 1_555 1_555
H4 C5 1_555 1_555
C6 C1 1_555 1_555
H5 C6 1_555 1_555
C7 H6 1_555 1_555
H7 C7 1_555 1_555
H8 C7 1_555 1_555
C8 O2 1_555 1_555
H9 C8 1_555 1_555
C9 C8 1_555 1_555
H10 C9 1_555 1_555
H11 C9 1_555 1_555
H12 C9 1_555 1_555
C10 P1 1_555 1_555
H13 C10 1_555 1_555
H14 C10 1_555 1_555
C11 C10 1_555 1_555
C12 C11 1_555 1_555
C13 C12 1_555 1_555
C14 C13 1_555 1_555
H15 C14 1_555 1_555
C15 C14 1_555 1_555
H16 C15 1_555 1_555
C16 C15 1_555 1_555
C17 C12 1_555 1_555
C18 C17 1_555 1_555
C19 C18 1_555 1_555
H17 C19 1_555 1_555
C20 C11 1_555 1_555
H18 C20 1_555 1_555
C21 C16 1_555 1_555
H19 C21 1_555 1_555
H20 C21 1_555 1_555
C22 C18 1_555 1_555
H21 C22 1_555 1_555
H22 C22 1_555 1_555
C5 C6 1_555 1_555
C7 C8 1_555 1_555
C16 C17 1_555 1_555
C19 C20 1_555 1_555
C21 C22 1_555 1_555

#END
