
#######################################################################
#
#                 Cambridge Crystallographic Data Centre
#                                CCDC 
#
#######################################################################
#
# If this CIF has been generated from an entry in the Cambridge 
# Structural Database, then it will include bibliographic, chemical, 
# crystal, experimental, refinement or atomic coordinate data resulting 
# from the CCDC's data processing and validation procedures.
#
#######################################################################

data_TUDHAD
_chemical_formula_moiety         'C16 H19 N1 S1'
_chemical_name_systematic        N,N-Diethyl-4-(2-(2-thienyl)vinyl)aniline
_symmetry_cell_setting           orthorhombic
_symmetry_space_group_name_H-M   'P 21 21 21'
_symmetry_Int_Tables_number      19
_space_group_name_Hall           'P 2ac 2ab'
loop_
_symmetry_equiv_pos_site_id
_symmetry_equiv_pos_as_xyz
1 x,y,z
2 1/2-x,-y,1/2+z
3 1/2+x,1/2-y,-z
4 -x,1/2+y,1/2-z
_cell_length_a                   7.698(5)
_cell_length_b                   9.598(5)
_cell_length_c                   20.109(5)
_cell_angle_alpha                90
_cell_angle_beta                 90
_cell_angle_gamma                90
_cell_volume                     1485.76
_exptl_crystal_colour            yellow
_exptl_crystal_description       block
_cell_formula_units_Z            4
loop_
_atom_site_label
_atom_site_type_symbol
_atom_site_fract_x
_atom_site_fract_y
_atom_site_fract_z
S1 S 0.56535(11) 0.66358(8) 1.18910(4)
N1 N 0.4780(3) 1.3106(2) 0.87005(11)
C1 C 0.4790(3) 1.2067(3) 0.91728(12)
C2 C 0.3597(4) 0.5264(3) 1.11622(14)
H1 H 0.2857 0.4997 1.0820
C3 C 0.5722(4) 1.1132(3) 1.02472(13)
H2 H 0.6350 1.1262 1.0637
C4 C 0.3605(4) 1.3087(3) 0.81241(14)
H3 H 0.3267 1.4036 0.8021
H4 H 0.2562 1.2578 0.8243
C5 C 0.4850(3) 0.9875(3) 1.01557(13)
C6 C 0.3920(4) 0.9744(3) 0.95612(15)
H5 H 0.3315 0.8922 0.9480
C7 C 0.4985(4) 0.8796(3) 1.06739(15)
H6 H 0.5646 0.9014 1.1047
C8 C 0.5900(4) 1.4330(3) 0.87584(14)
H7 H 0.6207 1.4647 0.8316
H8 H 0.6965 1.4062 0.8983
C9 C 0.3869(3) 1.0807(3) 0.90837(13)
H9 H 0.3215 1.0680 0.8700
C10 C 0.5696(4) 1.2201(3) 0.97817(12)
H10 H 0.6287 1.3024 0.9872
C11 C 0.4405(4) 0.6475(3) 1.11807(14)
C12 C 0.4255(4) 0.7537(3) 1.06618(14)
H11 H 0.3591 0.7314 1.0290
C13 C 0.5079(5) 0.5007(4) 1.21764(16)
H12 H 0.5465 0.4619 1.2573
C14 C 0.5077(5) 1.5524(3) 0.91340(19)
H13 H 0.4018 1.5793 0.8917
H14 H 0.5862 1.6301 0.9142
H15 H 0.4829 1.5235 0.9581
C15 C 0.3995(5) 0.4373(4) 1.17463(17)
H16 H 0.3548 0.3482 1.1808
C16 C 0.4386(6) 1.2433(5) 0.75087(16)
H17 H 0.5456 1.2896 0.7401
H18 H 0.3590 1.2525 0.7144
H19 H 0.4609 1.1464 0.7590
loop_
_geom_bond_atom_site_label_1
_geom_bond_atom_site_label_2
_geom_bond_site_symmetry_1
_geom_bond_site_symmetry_2
S1 C11 1_555 1_555
N1 C1 1_555 1_555
C1 C9 1_555 1_555
C2 H1 1_555 1_555
C3 H2 1_555 1_555
C4 N1 1_555 1_555
H3 C4 1_555 1_555
H4 C4 1_555 1_555
C5 C3 1_555 1_555
C6 C5 1_555 1_555
H5 C6 1_555 1_555
C7 C5 1_555 1_555
H6 C7 1_555 1_555
C8 N1 1_555 1_555
H7 C8 1_555 1_555
H8 C8 1_555 1_555
C9 C6 1_555 1_555
H9 C9 1_555 1_555
C10 C1 1_555 1_555
H10 C10 1_555 1_555
C11 C2 1_555 1_555
C12 C7 1_555 1_555
H11 C12 1_555 1_555
C13 S1 1_555 1_555
H12 C13 1_555 1_555
C14 C8 1_555 1_555
H13 C14 1_555 1_555
H14 C14 1_555 1_555
H15 C14 1_555 1_555
C15 C2 1_555 1_555
H16 C15 1_555 1_555
C16 C4 1_555 1_555
H17 C16 1_555 1_555
H18 C16 1_555 1_555
H19 C16 1_555 1_555
C3 C10 1_555 1_555
C11 C12 1_555 1_555
C13 C15 1_555 1_555

#END
