
#######################################################################
#
#                 Cambridge Crystallographic Data Centre
#                                CCDC 
#
#######################################################################
#
# If this CIF has been generated from an entry in the Cambridge 
# Structural Database, then it will include bibliographic, chemical, 
# crystal, experimental, refinement or atomic coordinate data resulting 
# from the CCDC's data processing and validation procedures.
#
#######################################################################

data_TUDPUE
_chemical_formula_moiety         'C25 H20 Cl1 N1 O2,0.33(C1 H4 O1)'
_chemical_name_systematic        
"(1S,2S,6S)-2-(4-Chlorophenyl)-6-phenyl-4H-spiro[cyclohexane-1,3'-indole]-2',4(1'H)-dione methanol solvate"
_symmetry_cell_setting           triclinic
_symmetry_space_group_name_H-M   'P 1'
_symmetry_Int_Tables_number      1
_space_group_name_Hall           'P 1'
loop_
_symmetry_equiv_pos_site_id
_symmetry_equiv_pos_as_xyz
1 x,y,z
_cell_length_a                   9.368(3)
_cell_length_b                   13.827(4)
_cell_length_c                   14.074(4)
_cell_angle_alpha                116.552(4)
_cell_angle_beta                 98.650(4)
_cell_angle_gamma                96.680(4)
_cell_volume                     1577.09
_exptl_crystal_colour            colorless
_exptl_crystal_description       plate
_cell_formula_units_Z            3
_exptl_crystal_recrystallization_method 'diethyl ether/hexane/methanol'
loop_
_atom_site_label
_atom_site_type_symbol
_atom_site_fract_x
_atom_site_fract_y
_atom_site_fract_z
Cl1 Cl 0.8410(2) 1.25088(13) 0.79738(15)
C1 C 0.6662(4) 0.6852(3) 0.4935(3)
C2 C 0.8286(4) 0.6903(3) 0.4925(3)
C3 C 0.9385(4) 0.6597(4) 0.5431(3)
H1 H 0.9173 0.6267 0.5856
C4 C 1.0797(5) 0.6785(4) 0.5300(4)
H2 H 1.1544 0.6572 0.5631
C5 C 1.1109(5) 0.7283(5) 0.4688(4)
H3 H 1.2074 0.7410 0.4616
C6 C 1.0037(5) 0.7604(4) 0.4174(4)
H4 H 1.0257 0.7942 0.3757
C7 C 0.8628(4) 0.7400(3) 0.4307(3)
C8 C 0.6163(4) 0.7324(3) 0.4168(3)
C9 C 0.6498(4) 0.7587(3) 0.6126(3)
H5 H 0.7184 0.7410 0.6594
C10 C 0.4955(5) 0.7244(4) 0.6263(4)
H6 H 0.4858 0.7742 0.6989
H7 H 0.4214 0.7302 0.5740
C11 C 0.4698(5) 0.6086(4) 0.6093(3)
C12 C 0.5540(5) 0.5356(4) 0.5367(3)
H8 H 0.5033 0.4590 0.5050
H9 H 0.6512 0.5440 0.5783
C13 C 0.5683(4) 0.5662(3) 0.4459(3)
H10 H 0.4688 0.5719 0.4184
C14 C 0.6960(4) 0.8811(3) 0.6544(3)
C15 C 0.6068(5) 0.9432(4) 0.6293(3)
H11 H 0.5147 0.9076 0.5821
C16 C 0.6495(5) 1.0553(4) 0.6714(4)
H12 H 0.5869 1.0947 0.6527
C17 C 0.7845(6) 1.1091(4) 0.7411(4)
C18 C 0.8765(6) 1.0507(5) 0.7660(4)
H13 H 0.9693 1.0871 0.8120
C19 C 0.8337(5) 0.9380(4) 0.7237(3)
H14 H 0.8980 0.8993 0.7417
C20 C 0.6093(4) 0.4797(3) 0.3490(3)
C21 C 0.7048(5) 0.4139(4) 0.3550(4)
H15 H 0.7463 0.4217 0.4231
C22 C 0.7413(6) 0.3372(4) 0.2651(6)
H16 H 0.8070 0.2940 0.2724
C23 C 0.6808(7) 0.3239(4) 0.1639(5)
H17 H 0.7051 0.2716 0.1022
C24 C 0.5842(7) 0.3881(4) 0.1544(4)
H18 H 0.5438 0.3804 0.0862
C25 C 0.5476(5) 0.4639(4) 0.2459(3)
H19 H 0.4798 0.5056 0.2385
N1 N 0.7356(3) 0.7645(3) 0.3873(2)
H58 H 0.7341 0.7961 0.3468
O2 O 0.4891(3) 0.7381(2) 0.3864(2)
O3 O 0.3836(4) 0.5767(3) 0.6507(3)
C26 C 0.2365(4) 0.7017(3) 0.0122(3)
C27 C 0.3679(4) 0.6488(3) -0.0088(3)
C28 C 0.4127(4) 0.5924(3) -0.1045(3)
H20 H 0.3636 0.5874 -0.1696
C29 C 0.5339(5) 0.5430(4) -0.1008(3)
H21 H 0.5664 0.5053 -0.1643
C30 C 0.6056(5) 0.5492(4) -0.0053(4)
H22 H 0.6838 0.5135 -0.0052
C31 C 0.5628(4) 0.6082(3) 0.0911(3)
H23 H 0.6125 0.6141 0.1565
C32 C 0.4458(4) 0.6573(3) 0.0874(3)
C33 C 0.2635(4) 0.7529(3) 0.1366(3)
C34 C 0.2211(4) 0.7938(3) -0.0211(3)
H24 H 0.1654 0.8417 0.0275
C35 C 0.1250(5) 0.7456(4) -0.1372(3)
H25 H 0.1225 0.8037 -0.1579
H26 H 0.1679 0.6895 -0.1882
C36 C -0.0272(5) 0.6965(4) -0.1429(4)
C37 C -0.0431(5) 0.6493(4) -0.0672(3)
H27 H -0.1290 0.5893 -0.0997
H28 H -0.0585 0.7058 0.0005
C38 C 0.0930(4) 0.6066(3) -0.0429(3)
H29 H 0.1075 0.5531 -0.1135
C39 C 0.0781(4) 0.5460(3) 0.0222(3)
C40 C -0.0002(4) 0.5770(4) 0.1042(3)
H30 H -0.0564 0.6303 0.1128
C41 C 0.0035(5) 0.5305(4) 0.1728(4)
H31 H -0.0499 0.5517 0.2269
C42 C 0.0874(5) 0.4523(4) 0.1599(4)
C43 C 0.1601(5) 0.4149(4) 0.0760(4)
H32 H 0.2117 0.3587 0.0656
C44 C 0.1549(5) 0.4621(3) 0.0080(3)
H33 H 0.2039 0.4374 -0.0486
C45 C 0.3668(5) 0.8668(3) -0.0002(3)
C46 C 0.4262(6) 0.9553(4) 0.1026(4)
H34 H 0.3774 0.9662 0.1583
C47 C 0.5547(7) 1.0269(5) 0.1241(7)
H35 H 0.5919 1.0869 0.1932
C48 C 0.6287(7) 1.0091(5) 0.0418(7)
H36 H 0.7153 1.0581 0.0552
C49 C 0.5761(7) 0.9211(6) -0.0577(6)
H37 H 0.6274 0.9090 -0.1123
C50 C 0.4469(6) 0.8492(4) -0.0789(4)
H38 H 0.4129 0.7877 -0.1473
O1 O -0.1347(4) 0.6964(4) -0.2046(3)
N2 N 0.3811(3) 0.7200(2) 0.1724(2)
H59 H 0.4124 0.7357 0.2393
O4 O 0.1884(3) 0.8109(2) 0.1929(2)
Cl3 Cl 0.1088(2) 0.40587(16) 0.25565(16)
C51 C 0.2152(4) 0.1870(3) 0.5106(3)
C52 C 0.3760(4) 0.1798(3) 0.5125(3)
C53 C 0.5043(5) 0.2596(4) 0.5659(3)
H39 H 0.5021 0.3308 0.6173
C54 C 0.6356(5) 0.2319(5) 0.5416(4)
H40 H 0.7226 0.2849 0.5782
C55 C 0.6413(6) 0.1290(5) 0.4654(4)
H41 H 0.7314 0.1134 0.4495
C56 C 0.5150(5) 0.0475(4) 0.4116(4)
H42 H 0.5180 -0.0236 0.3606
C57 C 0.3846(5) 0.0757(3) 0.4364(3)
C58 C 0.1387(5) 0.0671(3) 0.4283(3)
C59 C 0.1783(4) 0.2666(3) 0.4637(3)
H43 H 0.2603 0.3310 0.5004
C60 C 0.0402(5) 0.3100(4) 0.4938(4)
H44 H 0.0179 0.3565 0.4609
H45 H -0.0431 0.2485 0.4658
C61 C 0.0641(5) 0.3758(4) 0.6161(4)
C62 C 0.1660(6) 0.3416(4) 0.6800(3)
H46 H 0.1385 0.3590 0.7487
H47 H 0.2654 0.3828 0.6962
C63 C 0.1638(5) 0.2173(3) 0.6185(3)
H48 H 0.0594 0.1808 0.5961
C64 C 0.1746(4) 0.2176(3) 0.3435(3)
C65 C 0.0504(5) 0.1504(4) 0.2629(4)
H49 H -0.0362 0.1343 0.2826
C66 C 0.0526(6) 0.1069(4) 0.1540(4)
H50 H -0.0319 0.0621 0.1006
C67 C 0.1801(6) 0.1302(4) 0.1250(4)
C68 C 0.3050(6) 0.1950(4) 0.2015(4)
H51 H 0.3910 0.2110 0.1811
C69 C 0.3012(5) 0.2363(3) 0.3097(3)
H52 H 0.3874 0.2785 0.3623
C70 C 0.2384(5) 0.1707(4) 0.6858(3)
C71 C 0.3542(6) 0.2331(5) 0.7746(4)
H53 H 0.3884 0.3071 0.7950
C72 C 0.4201(8) 0.1862(7) 0.8338(4)
H54 H 0.4982 0.2299 0.8935
C73 C 0.3748(10) 0.0790(8) 0.8077(6)
H55 H 0.4201 0.0489 0.8485
C74 C 0.2606(9) 0.0168(6) 0.7197(6)
H56 H 0.2286 -0.0574 0.6993
C75 C 0.1912(7) 0.0617(5) 0.6598(4)
H57 H 0.1117 0.0179 0.6012
Cl2 Cl 0.1807(2) 0.07936(16) -0.01174(11)
N3 N 0.2403(4) 0.0104(3) 0.3890(2)
H60 H 0.2203 -0.0580 0.3404
O5 O 0.0052(3) 0.0320(2) 0.4041(2)
O6 O 0.0044(4) 0.4524(3) 0.6580(3)
O7 O 0.7790(6) 0.8689(5) 0.2609(4)
H61 H 0.8336 0.9269 0.3082
C76 C 0.7853(8) 0.8587(6) 0.1672(6)
H62 H 0.7877 0.9290 0.1688
H63 H 0.7000 0.8065 0.1142
H64 H 0.8728 0.8329 0.1481
loop_
_geom_bond_atom_site_label_1
_geom_bond_atom_site_label_2
_geom_bond_site_symmetry_1
_geom_bond_site_symmetry_2
Cl1 C17 1_555 1_555
C1 C2 1_555 1_555
C2 C3 1_555 1_555
C3 H1 1_555 1_555
C4 C3 1_555 1_555
H2 C4 1_555 1_555
C5 C4 1_555 1_555
H3 C5 1_555 1_555
C6 C5 1_555 1_555
H4 C6 1_555 1_555
C7 C2 1_555 1_555
C8 C1 1_555 1_555
C9 C1 1_555 1_555
H5 C9 1_555 1_555
C10 C9 1_555 1_555
H6 C10 1_555 1_555
H7 C10 1_555 1_555
C11 C10 1_555 1_555
C12 C11 1_555 1_555
H8 C12 1_555 1_555
H9 C12 1_555 1_555
C13 C1 1_555 1_555
H10 C13 1_555 1_555
C14 C9 1_555 1_555
C15 C14 1_555 1_555
H11 C15 1_555 1_555
C16 C15 1_555 1_555
H12 C16 1_555 1_555
C17 C16 1_555 1_555
C18 C17 1_555 1_555
H13 C18 1_555 1_555
C19 C14 1_555 1_555
H14 C19 1_555 1_555
C20 C13 1_555 1_555
C21 C20 1_555 1_555
H15 C21 1_555 1_555
C22 C21 1_555 1_555
H16 C22 1_555 1_555
C23 C22 1_555 1_555
H17 C23 1_555 1_555
C24 C23 1_555 1_555
H18 C24 1_555 1_555
C25 C20 1_555 1_555
H19 C25 1_555 1_555
C26 C27 1_555 1_555
C27 C28 1_555 1_555
C28 H20 1_555 1_555
C29 C28 1_555 1_555
H21 C29 1_555 1_555
C30 C29 1_555 1_555
H22 C30 1_555 1_555
C31 C30 1_555 1_555
H23 C31 1_555 1_555
C32 C27 1_555 1_555
C33 C26 1_555 1_555
C34 C26 1_555 1_555
H24 C34 1_555 1_555
C35 C34 1_555 1_555
H25 C35 1_555 1_555
H26 C35 1_555 1_555
C36 C35 1_555 1_555
C37 C36 1_555 1_555
H27 C37 1_555 1_555
H28 C37 1_555 1_555
C38 C26 1_555 1_555
H29 C38 1_555 1_555
C39 C38 1_555 1_555
C40 C39 1_555 1_555
H30 C40 1_555 1_555
C41 C40 1_555 1_555
H31 C41 1_555 1_555
C42 C41 1_555 1_555
C43 C42 1_555 1_555
H32 C43 1_555 1_555
C44 C39 1_555 1_555
H33 C44 1_555 1_555
C45 C34 1_555 1_555
C46 C45 1_555 1_555
H34 C46 1_555 1_555
C47 C46 1_555 1_555
H35 C47 1_555 1_555
C48 C47 1_555 1_555
H36 C48 1_555 1_555
C49 C48 1_555 1_555
H37 C49 1_555 1_555
C50 C45 1_555 1_555
H38 C50 1_555 1_555
C51 C52 1_555 1_555
C52 C53 1_555 1_555
C53 H39 1_555 1_555
C54 C53 1_555 1_555
H40 C54 1_555 1_555
C55 C54 1_555 1_555
H41 C55 1_555 1_555
C56 C55 1_555 1_555
H42 C56 1_555 1_555
C57 C52 1_555 1_555
C58 C51 1_555 1_555
C59 C51 1_555 1_555
H43 C59 1_555 1_555
C60 C59 1_555 1_555
H44 C60 1_555 1_555
H45 C60 1_555 1_555
C61 C60 1_555 1_555
C62 C61 1_555 1_555
H46 C62 1_555 1_555
H47 C62 1_555 1_555
C63 C51 1_555 1_555
H48 C63 1_555 1_555
C64 C59 1_555 1_555
C65 C64 1_555 1_555
H49 C65 1_555 1_555
C66 C65 1_555 1_555
H50 C66 1_555 1_555
C67 C66 1_555 1_555
C68 C67 1_555 1_555
H51 C68 1_555 1_555
C69 C64 1_555 1_555
H52 C69 1_555 1_555
C70 C63 1_555 1_555
C71 C70 1_555 1_555
H53 C71 1_555 1_555
C72 C71 1_555 1_555
H54 C72 1_555 1_555
C73 C72 1_555 1_555
H55 C73 1_555 1_555
C74 C73 1_555 1_555
H56 C74 1_555 1_555
C75 C70 1_555 1_555
H57 C75 1_555 1_555
O1 C36 1_555 1_555
Cl2 C67 1_555 1_555
N1 C7 1_555 1_555
H58 N1 1_555 1_555
N2 C32 1_555 1_555
H59 N2 1_555 1_555
N3 C57 1_555 1_555
H60 N3 1_555 1_555
O2 C8 1_555 1_555
O3 C11 1_555 1_555
O4 C33 1_555 1_555
O5 C58 1_555 1_555
O6 C61 1_555 1_555
Cl3 C42 1_555 1_555
O7 H61 1_555 1_555
C76 O7 1_555 1_555
H62 C76 1_555 1_555
H63 C76 1_555 1_555
H64 C76 1_555 1_555
C6 C7 1_555 1_555
C8 N1 1_555 1_555
C12 C13 1_555 1_555
C18 C19 1_555 1_555
C24 C25 1_555 1_555
C31 C32 1_555 1_555
C33 N2 1_555 1_555
C37 C38 1_555 1_555
C43 C44 1_555 1_555
C49 C50 1_555 1_555
C56 C57 1_555 1_555
C58 N3 1_555 1_555
C62 C63 1_555 1_555
C68 C69 1_555 1_555
C74 C75 1_555 1_555

#END
