
#######################################################################
#
#                 Cambridge Crystallographic Data Centre
#                                CCDC 
#
#######################################################################
#
# If this CIF has been generated from an entry in the Cambridge 
# Structural Database, then it will include bibliographic, chemical, 
# crystal, experimental, refinement or atomic coordinate data resulting 
# from the CCDC's data processing and validation procedures.
#
#######################################################################

data_TUDRER
_chemical_formula_moiety         'C16 H17 N1 O1'
_chemical_name_systematic        N-benzyl-3-phenylpropanamide
_symmetry_cell_setting           triclinic
_symmetry_space_group_name_H-M   'P -1'
_symmetry_Int_Tables_number      2
_space_group_name_Hall           '-P 1'
loop_
_symmetry_equiv_pos_site_id
_symmetry_equiv_pos_as_xyz
1 x,y,z
2 -x,-y,-z
_cell_length_a                   9.735(12)
_cell_length_b                   9.926(12)
_cell_length_c                   14.825(19)
_cell_angle_alpha                89.00(2)
_cell_angle_beta                 87.13(2)
_cell_angle_gamma                77.42(2)
_cell_volume                     1396.36
_exptl_crystal_colour            colorless
_exptl_crystal_description       block
_cell_formula_units_Z            4
loop_
_atom_site_label
_atom_site_type_symbol
_atom_site_fract_x
_atom_site_fract_y
_atom_site_fract_z
O1 O 0.8106(2) 0.87817(17) 0.38894(12)
N1 N 0.8031(3) 0.6611(2) 0.43611(14)
H1 H 0.7917 0.5812 0.4210
C1 C 0.6260(4) 0.4441(3) 0.7194(2)
H2 H 0.5827 0.3931 0.7607
C2 C 0.7615(4) 0.4572(3) 0.7307(2)
H3 H 0.8095 0.4150 0.7799
C3 C 0.8282(3) 0.5335(3) 0.66894(19)
H4 H 0.9204 0.5410 0.6770
C4 C 0.7565(3) 0.5980(3) 0.59553(18)
C5 C 0.8292(3) 0.6835(3) 0.53048(18)
H5 H 0.7958 0.7805 0.5446
H6 H 0.9299 0.6597 0.5386
C6 C 0.7960(3) 0.7594(3) 0.37196(18)
C7 C 0.7651(4) 0.7205(3) 0.27775(18)
H7 H 0.8011 0.6221 0.2698
H8 H 0.6638 0.7387 0.2725
C8 C 0.8263(4) 0.7948(3) 0.2046(2)
H9 H 0.9280 0.7718 0.2080
H10 H 0.7952 0.8931 0.2153
C9 C 0.7900(4) 0.7652(3) 0.1093(2)
C10 C 0.7190(4) 0.8700(3) 0.0543(2)
H11 H 0.6900 0.9588 0.0773
C11 C 0.6905(4) 0.8450(3) -0.0342(2)
H12 H 0.6423 0.9167 -0.0694
C12 C 0.7334(4) 0.7139(3) -0.0700(2)
H13 H 0.7150 0.6973 -0.1293
C13 C 0.6192(4) 0.5848(3) 0.5852(2)
H14 H 0.5697 0.6284 0.5369
C14 C 0.5541(4) 0.5072(3) 0.6463(2)
H15 H 0.4626 0.4978 0.6380
C15 C 0.8038(4) 0.6080(3) -0.0170(2)
H16 H 0.8324 0.5194 -0.0403
C16 C 0.8319(4) 0.6341(3) 0.0716(2)
H17 H 0.8800 0.5620 0.1065
O2 O 0.8130(2) 0.37803(17) 0.38249(13)
N2 N 0.8029(3) 0.1642(2) 0.43292(15)
H18 H 0.7930 0.0833 0.4188
C17 C 0.6350(4) -0.0662(3) 0.7133(2)
H19 H 0.5958 -0.1223 0.7532
C18 C 0.5584(4) 0.0009(3) 0.6437(2)
H20 H 0.4667 -0.0092 0.6370
C19 C 0.6180(4) 0.0837(3) 0.5835(2)
H21 H 0.5656 0.1278 0.5365
C20 C 0.7555(3) 0.1018(3) 0.59230(18)
C21 C 0.8220(4) 0.1917(3) 0.52775(19)
H22 H 0.7807 0.2879 0.5405
H23 H 0.9219 0.1760 0.5377
C22 C 0.8000(3) 0.2587(3) 0.36718(19)
C23 C 0.7769(4) 0.2129(3) 0.27277(18)
H24 H 0.8353 0.1215 0.2622
H25 H 0.6793 0.2063 0.2695
C24 C 0.8105(4) 0.3084(3) 0.1993(2)
H26 H 0.9095 0.3107 0.2010
H27 H 0.7565 0.4008 0.2125
C25 C 0.7813(4) 0.2720(3) 0.1042(2)
C26 C 0.8866(4) 0.1981(3) 0.0471(2)
H28 H 0.9769 0.1682 0.0679
C27 C 0.8604(5) 0.1675(3) -0.0409(2)
H29 H 0.9333 0.1179 -0.0779
C28 C 0.7298(5) 0.2089(4) -0.0734(2)
H30 H 0.7135 0.1880 -0.1322
C29 C 0.7703(4) -0.0492(3) 0.7233(2)
H31 H 0.8219 -0.0932 0.7706
C30 C 0.8304(3) 0.0332(3) 0.6632(2)
H32 H 0.9222 0.0425 0.6705
C31 C 0.6224(4) 0.2815(4) -0.0189(3)
H33 H 0.5326 0.3099 -0.0407
C32 C 0.6480(4) 0.3131(3) 0.0694(2)
H34 H 0.5743 0.3627 0.1059
loop_
_geom_bond_atom_site_label_1
_geom_bond_atom_site_label_2
_geom_bond_site_symmetry_1
_geom_bond_site_symmetry_2
O1 C6 1_555 1_555
N1 H1 1_555 1_555
C1 H2 1_555 1_555
C2 C1 1_555 1_555
H3 C2 1_555 1_555
C3 C2 1_555 1_555
H4 C3 1_555 1_555
C4 C3 1_555 1_555
C5 N1 1_555 1_555
H5 C5 1_555 1_555
H6 C5 1_555 1_555
C6 N1 1_555 1_555
C7 C6 1_555 1_555
H7 C7 1_555 1_555
H8 C7 1_555 1_555
C8 C7 1_555 1_555
H9 C8 1_555 1_555
H10 C8 1_555 1_555
C9 C8 1_555 1_555
C10 C9 1_555 1_555
H11 C10 1_555 1_555
C11 C10 1_555 1_555
H12 C11 1_555 1_555
C12 C11 1_555 1_555
H13 C12 1_555 1_555
C13 C4 1_555 1_555
H14 C13 1_555 1_555
C14 C1 1_555 1_555
H15 C14 1_555 1_555
C15 C12 1_555 1_555
H16 C15 1_555 1_555
C16 C9 1_555 1_555
H17 C16 1_555 1_555
O2 C22 1_555 1_555
N2 H18 1_555 1_555
C17 H19 1_555 1_555
C18 C17 1_555 1_555
H20 C18 1_555 1_555
C19 C18 1_555 1_555
H21 C19 1_555 1_555
C20 C19 1_555 1_555
C21 N2 1_555 1_555
H22 C21 1_555 1_555
H23 C21 1_555 1_555
C22 N2 1_555 1_555
C23 C22 1_555 1_555
H24 C23 1_555 1_555
H25 C23 1_555 1_555
C24 C23 1_555 1_555
H26 C24 1_555 1_555
H27 C24 1_555 1_555
C25 C24 1_555 1_555
C26 C25 1_555 1_555
H28 C26 1_555 1_555
C27 C26 1_555 1_555
H29 C27 1_555 1_555
C28 C27 1_555 1_555
H30 C28 1_555 1_555
C29 C17 1_555 1_555
H31 C29 1_555 1_555
C30 C20 1_555 1_555
H32 C30 1_555 1_555
C31 C28 1_555 1_555
H33 C31 1_555 1_555
C32 C25 1_555 1_555
H34 C32 1_555 1_555
C4 C5 1_555 1_555
C13 C14 1_555 1_555
C15 C16 1_555 1_555
C20 C21 1_555 1_555
C29 C30 1_555 1_555
C31 C32 1_555 1_555

#END
