
#######################################################################
#
#                 Cambridge Crystallographic Data Centre
#                                CCDC 
#
#######################################################################
#
# If this CIF has been generated from an entry in the Cambridge 
# Structural Database, then it will include bibliographic, chemical, 
# crystal, experimental, refinement or atomic coordinate data resulting 
# from the CCDC's data processing and validation procedures.
#
#######################################################################

data_TUDYAT
_chemical_compound_source        'stems of Schisandra lancifolia'
_chemical_name_common            
'2-((3aR*,3bR*,4aS*,9aR*,9bS*,10aR*)-4a-Hydroxy-3a-methyl-10a-((S*)-1-(4-methyl-5-oxofuran-2(5H)-ylidene)propan-2-yl)-2,6-dioxotetradecahydroazuleno[1,2-b]furo[3,2-d]furan-7-yl)propan-2-yl acetate'
_chemical_formula_moiety         'C28 H36 O9'
_chemical_name_systematic        'Schilancidilactone A'
_chemical_properties_biological  
'Tested for cytotoxic activity against four cancer tumour cell lines, and also for anti-HIV-1 activity'
_symmetry_cell_setting           monoclinic
_symmetry_space_group_name_H-M   'P 21'
_symmetry_Int_Tables_number      4
_space_group_name_Hall           'P 2yb'
loop_
_symmetry_equiv_pos_site_id
_symmetry_equiv_pos_as_xyz
1 x,y,z
2 -x,1/2+y,-z
_cell_length_a                   10.4450(2)
_cell_length_b                   10.3406(2)
_cell_length_c                   12.4545(2)
_cell_angle_alpha                90
_cell_angle_beta                 105.830(1)
_cell_angle_gamma                90
_cell_volume                     1294.16
_exptl_crystal_colour            colorless
_exptl_crystal_description       block
_chemical_melting_point          '192.6-193.8 deg.C'
_cell_formula_units_Z            2
_exptl_crystal_recrystallization_method methanol
loop_
_atom_site_label
_atom_site_type_symbol
_atom_site_fract_x
_atom_site_fract_y
_atom_site_fract_z
O1 O -0.97827(13) -0.92948(14) -0.04515(12)
H1 H -0.9434 -0.8665 -0.0087
O2 O -1.13176(13) -1.19386(14) -0.09627(12)
O3 O -0.70459(9) -0.82714(10) -0.26012(8)
O4 O -0.43834(13) -1.11819(13) -0.33059(12)
O5 O -0.54053(10) -0.93387(10) -0.31716(8)
O6 O -0.60517(13) -0.46183(12) -0.26974(9)
O7 O -0.68406(17) -0.26470(14) -0.24816(11)
O8 O -0.99864(12) -1.38171(11) -0.24119(11)
O9 O -1.0423(2) -1.59055(17) -0.2874(2)
C1 C -1.12342(15) -1.32817(18) -0.31372(15)
C2 C -1.11167(14) -1.18225(16) -0.28240(13)
H2 H -1.2023 -1.1473 -0.3032
C3 C -1.03139(15) -1.10137(17) -0.34468(13)
H3 H -0.9427 -1.1376 -0.3306
H4 H -1.0735 -1.1071 -0.4242
C4 C -1.02020(15) -0.95871(17) -0.31003(14)
H5 H -1.0187 -0.9072 -0.3748
H6 H -1.0999 -0.9353 -0.2889
C5 C -0.89993(14) -0.92153(15) -0.21475(13)
H7 H -0.9057 -0.8280 -0.2041
C6 C -0.88796(16) -0.98512(16) -0.09982(13)
C7 C -1.05953(15) -1.16942(15) -0.15544(13)
C8 C -0.74127(16) -0.95931(18) -0.03886(12)
H8 H -0.7118 -1.0132 0.0270
H9 H -0.7270 -0.8692 -0.0172
C9 C -0.66901(14) -0.99504(14) -0.12695(11)
H10 H -0.6611 -1.0893 -0.1300
C10 C -0.53235(13) -0.93262(15) -0.12235(11)
C11 C -0.76460(13) -0.94683(14) -0.23667(11)
H11 H -0.7723 -1.0098 -0.2969
C12 C -0.43675(15) -1.03334(17) -0.14725(13)
H12 H -0.3450 -1.0074 -0.1154
H13 H -0.4505 -1.1171 -0.1171
C13 C -0.46949(14) -1.03827(16) -0.27189(13)
C14 C -0.56848(13) -0.84900(14) -0.23159(11)
C15 C -0.47466(18) -0.8564(2) -0.01568(13)
H14 H -0.4548 -0.9142 0.0470
H15 H -0.5382 -0.7930 -0.0067
H16 H -0.3946 -0.8137 -0.0199
C16 C -0.91634(15) -1.13094(16) -0.10404(12)
H17 H -0.8618 -1.1723 -0.1459
H18 H -0.8887 -1.1645 -0.0285
C17 C -0.49548(15) -0.72126(15) -0.23538(13)
H19 H -0.5102 -0.6642 -0.1771
C18 C -0.34463(17) -0.7410(2) -0.21473(17)
H20 H -0.3027 -0.6590 -0.2178
H21 H -0.3285 -0.7972 -0.2710
H22 H -0.3085 -0.7791 -0.1425
C19 C -0.54977(15) -0.65609(16) -0.34650(13)
H23 H -0.5510 -0.7036 -0.4102
C20 C -0.59577(15) -0.53667(15) -0.36051(12)
C21 C -0.64455(16) -0.45838(16) -0.45985(12)
H24 H -0.6486 -0.4844 -0.5322
C22 C -0.68268(15) -0.34314(16) -0.43135(12)
C23 C -0.66021(17) -0.34463(16) -0.30954(13)
C24 C -0.7393(2) -0.22659(18) -0.49761(15)
H25 H -0.7477 -0.2424 -0.5752
H26 H -0.6813 -0.1541 -0.4728
H27 H -0.8253 -0.2081 -0.4875
C25 C -1.2430(2) -1.3890(2) -0.2852(2)
H28 H -1.2479 -1.4791 -0.3047
H29 H -1.3228 -1.3462 -0.3264
H30 H -1.2334 -1.3801 -0.2067
C26 C -1.1294(3) -1.3522(3) -0.43527(18)
H31 H -1.1357 -1.4435 -0.4500
H32 H -1.0502 -1.3190 -0.4504
H33 H -1.2059 -1.3094 -0.4823
C27 C -0.9726(2) -1.50913(18) -0.23352(19)
C28 C -0.8469(2) -1.5352(2) -0.14498(19)
H34 H -0.8299 -1.6265 -0.1403
H35 H -0.8554 -1.5043 -0.0746
H36 H -0.7744 -1.4914 -0.1630
loop_
_geom_bond_atom_site_label_1
_geom_bond_atom_site_label_2
_geom_bond_site_symmetry_1
_geom_bond_site_symmetry_2
O1 H1 1_555 1_555
O2 C7 1_555 1_555
O3 C11 1_555 1_555
O4 C13 1_555 1_555
O5 C13 1_555 1_555
O6 C20 1_555 1_555
O7 C23 1_555 1_555
O8 C1 1_555 1_555
O9 C27 1_555 1_555
C1 C2 1_555 1_555
C2 H2 1_555 1_555
C3 C2 1_555 1_555
H3 C3 1_555 1_555
H4 C3 1_555 1_555
C4 C3 1_555 1_555
H5 C4 1_555 1_555
H6 C4 1_555 1_555
C5 C4 1_555 1_555
H7 C5 1_555 1_555
C6 O1 1_555 1_555
C7 C2 1_555 1_555
C8 C6 1_555 1_555
H8 C8 1_555 1_555
H9 C8 1_555 1_555
C9 C8 1_555 1_555
H10 C9 1_555 1_555
C10 C9 1_555 1_555
C11 C5 1_555 1_555
H11 C11 1_555 1_555
C12 C10 1_555 1_555
H12 C12 1_555 1_555
H13 C12 1_555 1_555
C13 C12 1_555 1_555
C14 O3 1_555 1_555
C15 C10 1_555 1_555
H14 C15 1_555 1_555
H15 C15 1_555 1_555
H16 C15 1_555 1_555
C16 C6 1_555 1_555
H17 C16 1_555 1_555
H18 C16 1_555 1_555
C17 C14 1_555 1_555
H19 C17 1_555 1_555
C18 C17 1_555 1_555
H20 C18 1_555 1_555
H21 C18 1_555 1_555
H22 C18 1_555 1_555
C19 C17 1_555 1_555
H23 C19 1_555 1_555
C20 C19 1_555 1_555
C21 C20 1_555 1_555
H24 C21 1_555 1_555
C22 C21 1_555 1_555
C23 O6 1_555 1_555
C24 C22 1_555 1_555
H25 C24 1_555 1_555
H26 C24 1_555 1_555
H27 C24 1_555 1_555
C25 C1 1_555 1_555
H28 C25 1_555 1_555
H29 C25 1_555 1_555
H30 C25 1_555 1_555
C26 C1 1_555 1_555
H31 C26 1_555 1_555
H32 C26 1_555 1_555
H33 C26 1_555 1_555
C27 O8 1_555 1_555
C28 C27 1_555 1_555
H34 C28 1_555 1_555
H35 C28 1_555 1_555
H36 C28 1_555 1_555
O5 C14 1_555 1_555
C5 C6 1_555 1_555
C7 C16 1_555 1_555
C9 C11 1_555 1_555
C10 C14 1_555 1_555
C22 C23 1_555 1_555

#END
