
#######################################################################
#
#                 Cambridge Crystallographic Data Centre
#                                CCDC 
#
#######################################################################
#
# If this CIF has been generated from an entry in the Cambridge 
# Structural Database, then it will include bibliographic, chemical, 
# crystal, experimental, refinement or atomic coordinate data resulting 
# from the CCDC's data processing and validation procedures.
#
#######################################################################

data_TUFCOO
_chemical_formula_moiety         'C22 H20 N2 O4,2(C1 H1 Cl3)'
_chemical_name_systematic        
"4,4'-(1,4-phenylenebis(nitrilomethylylidene))bis(2-methoxyphenol) chloroform solvate"
_symmetry_cell_setting           monoclinic
_symmetry_space_group_name_H-M   'P 21/n'
_symmetry_Int_Tables_number      14
_space_group_name_Hall           '-P 2yn'
loop_
_symmetry_equiv_pos_site_id
_symmetry_equiv_pos_as_xyz
1 x,y,z
2 1/2-x,1/2+y,1/2-z
3 -x,-y,-z
4 1/2+x,1/2-y,1/2+z
_cell_length_a                   6.8524(3)
_cell_length_b                   11.9655(5)
_cell_length_c                   17.3274(8)
_cell_angle_alpha                90
_cell_angle_beta                 99.6780(11)
_cell_angle_gamma                90
_cell_volume                     1400.5
_cell_formula_units_Z            2
loop_
_atom_site_label
_atom_site_type_symbol
_atom_site_fract_x
_atom_site_fract_y
_atom_site_fract_z
Cl1 Cl 1.0349(10) 0.7239(10) -0.0001(8)
Cl2 Cl 0.6933(7) 0.6494(4) 0.0541(3)
Cl3 Cl 1.0847(17) 0.5637(12) 0.1188(12)
C1 C 0.9134(11) 0.6877(6) 0.0855(6)
H1 H 0.9032 0.7534 0.1202
O1 O 0.0800(3) 0.09820(16) 0.17577(12)
H3 H 0.135(7) 0.102(4) 0.152(3)
O2 O 0.3331(3) -0.07374(16) 0.18351(12)
N1 N 0.0845(3) -0.34653(17) 0.38696(11)
C3 C 0.0572(4) 0.0090(2) 0.22116(14)
C4 C 0.4521(5) -0.1683(2) 0.1764(2)
H4 H 0.5503 -0.1497 0.1433
H5 H 0.3685 -0.2298 0.1525
H6 H 0.5199 -0.1910 0.2284
C5 C -0.0956(4) 0.0085(2) 0.26281(17)
H7 H -0.189(5) 0.067(3) 0.2537(19)
C6 C -0.1221(5) -0.0806(2) 0.31062(18)
H8 H -0.223(5) -0.085(3) 0.3324(19)
C7 C 0.0049(4) -0.1715(2) 0.31803(15)
C8 C 0.1595(4) -0.1712(2) 0.27478(15)
H9 H 0.235(3) -0.219(2) 0.2785(13)
C9 C 0.1861(4) -0.0834(2) 0.22695(14)
C10 C -0.0234(4) -0.2601(2) 0.37227(15)
H10 H -0.123(4) -0.247(2) 0.3996(17)
C11 C 0.0368(3) -0.42326(19) 0.44352(13)
C12 C 0.1915(4) -0.4735(2) 0.49299(14)
H11 H 0.317(4) -0.459(2) 0.4862(16)
C13 C -0.1564(4) -0.4512(2) 0.45057(14)
H12 H -0.261(4) -0.422(2) 0.4189(15)
O1B O -0.0800(3) -1.09820(16) 0.82423(12)
H3B H -0.135(7) -1.102(4) 0.848(3)
O2B O -0.3331(3) -0.92626(16) 0.81649(12)
N1B N -0.0845(3) -0.65347(17) 0.61304(11)
C3B C -0.0572(4) -1.0090(2) 0.77884(14)
C4B C -0.4521(5) -0.8317(2) 0.8236(2)
H4B H -0.5503 -0.8503 0.8567
H5B H -0.3685 -0.7702 0.8475
H6B H -0.5199 -0.8090 0.7716
C5B C 0.0956(4) -1.0085(2) 0.73719(17)
H7B H 0.189(5) -1.067(3) 0.7463(19)
C6B C 0.1221(5) -0.9194(2) 0.68938(18)
H8B H 0.223(5) -0.915(3) 0.6676(19)
C7B C -0.0049(4) -0.8285(2) 0.68197(15)
C8B C -0.1595(4) -0.8288(2) 0.72522(15)
H9B H -0.235(3) -0.781(2) 0.7215(13)
C9B C -0.1861(4) -0.9166(2) 0.77305(14)
C10B C 0.0234(4) -0.7399(2) 0.62773(15)
H10B H 0.123(4) -0.753(2) 0.6004(17)
C11B C -0.0368(3) -0.57674(19) 0.55648(13)
C12B C -0.1915(4) -0.5265(2) 0.50701(14)
H11B H -0.317(4) -0.541(2) 0.5138(16)
C13B C 0.1564(4) -0.5488(2) 0.54943(14)
H12B H 0.261(4) -0.578(2) 0.5811(15)
Cl4? Cl 1.0462(9) 0.5887(6) 0.1415(3)
C2? C 0.9335(18) 0.6091(11) 0.0360(8)
H2? H 0.9337 0.5406 0.0030
Cl5? Cl 1.041(3) 0.700(2) -0.0128(11)
Cl6? Cl 0.6903(10) 0.6137(14) 0.0339(8)
loop_
_geom_bond_atom_site_label_1
_geom_bond_atom_site_label_2
_geom_bond_site_symmetry_1
_geom_bond_site_symmetry_2
Cl1 C1 1_555 1_555
Cl2 C1 1_555 1_555
Cl3 C1 1_555 1_555
C1 H1 1_555 1_555
O1 H3 1_555 1_555
O2 C4 1_555 1_555
N1 C10 1_555 1_555
C3 O1 1_555 1_555
C4 H4 1_555 1_555
H5 C4 1_555 1_555
H6 C4 1_555 1_555
C5 C3 1_555 1_555
H7 C5 1_555 1_555
C6 C5 1_555 1_555
H8 C6 1_555 1_555
C7 C6 1_555 1_555
C8 C7 1_555 1_555
H9 C8 1_555 1_555
C9 O2 1_555 1_555
C10 C7 1_555 1_555
H10 C10 1_555 1_555
C11 N1 1_555 1_555
C12 C11 1_555 1_555
H11 C12 1_555 1_555
C13 C11 1_555 1_555
H12 C13 1_555 1_555
O1B H3B 1_555 1_555
O2B C4B 1_555 1_555
N1B C10B 1_555 1_555
C3B O1B 1_555 1_555
C4B H4B 1_555 1_555
H5B C4B 1_555 1_555
H6B C4B 1_555 1_555
C5B C3B 1_555 1_555
H7B C5B 1_555 1_555
C6B C5B 1_555 1_555
H8B C6B 1_555 1_555
C7B C6B 1_555 1_555
C8B C7B 1_555 1_555
H9B C8B 1_555 1_555
C9B O2B 1_555 1_555
C10B C7B 1_555 1_555
H10B C10B 1_555 1_555
C11B N1B 1_555 1_555
C12B C13 1_555 1_555
H11B C12B 1_555 1_555
C13B C12 1_555 1_555
H12B C13B 1_555 1_555
C3 C9 1_555 1_555
C8 C9 1_555 1_555
C3B C9B 1_555 1_555
C8B C9B 1_555 1_555
C11B C12B 1_555 1_555
C11B C13B 1_555 1_555

#END
