
#######################################################################
#
#                 Cambridge Crystallographic Data Centre
#                                CCDC 
#
#######################################################################
#
# If this CIF has been generated from an entry in the Cambridge 
# Structural Database, then it will include bibliographic, chemical, 
# crystal, experimental, refinement or atomic coordinate data resulting 
# from the CCDC's data processing and validation procedures.
#
#######################################################################

data_TUGJEK
_chemical_formula_moiety         'C17 H18 F1 N5 O4 S1'
_chemical_name_systematic        
5'S-Fluoro-5'-S-(4-methoxyphenyl)-5'-thiodenosine
_symmetry_cell_setting           orthorhombic
_symmetry_space_group_name_H-M   'P 21 21 21'
_symmetry_Int_Tables_number      19
_space_group_name_Hall           'P 2ac 2ab'
loop_
_symmetry_equiv_pos_site_id
_symmetry_equiv_pos_as_xyz
1 x,y,z
2 1/2-x,-y,1/2+z
3 1/2+x,1/2-y,-z
4 -x,1/2+y,1/2-z
_cell_length_a                   5.636(2)
_cell_length_b                   7.169(4)
_cell_length_c                   44.251(37)
_cell_angle_alpha                90
_cell_angle_beta                 90
_cell_angle_gamma                90
_cell_volume                     1787.94
_cell_formula_units_Z            4
loop_
_atom_site_label
_atom_site_type_symbol
_atom_site_fract_x
_atom_site_fract_y
_atom_site_fract_z
N1 N 0.7625(19) -0.0130(16) 0.4862(2)
C1 C 0.8953(30) 0.1348(22) 0.4823(3)
H1 H 1.0223 0.1465 0.4966
N2 N 0.8859(22) 0.2726(17) 0.4619(2)
C2 C 0.7023(27) 0.2352(21) 0.4432(3)
C3 C 0.5527(25) 0.0841(20) 0.4421(2)
C4 C 0.5828(27) -0.0416(23) 0.4671(3)
N3 N 0.4429(19) -0.1863(16) 0.4704(2)
H2 H 0.3395 -0.2102 0.4580
H3 H 0.4394 -0.3260 0.4897
N4 N 0.4011(20) 0.0931(17) 0.4182(2)
C5 C 0.4575(24) 0.2462(21) 0.4039(3)
H4 H 0.3828 0.2877 0.3856
N5 N 0.6382(20) 0.3414(15) 0.4184(2)
C6 C 0.7101(24) 0.5358(23) 0.4132(3)
H5 H 0.6524 0.6094 0.4297
C7 C 0.9815(22) 0.5519(24) 0.4099(3)
H6 H 1.0469 0.4366 0.4026
O1 O 1.1046(17) 0.5892(15) 0.4376(2)
H7 H 1.0683 0.4756 0.4552
C8 C 1.0104(24) 0.7210(18) 0.3890(3)
H8 H 1.1651 0.7234 0.3799
O2 O 0.9812(17) 0.8930(13) 0.4037(2)
H9 H 1.1551 0.9336 0.4095
C9 C 0.7874(22) 0.6974(19) 0.3679(3)
H10 H 0.7234 0.8173 0.3627
O3 O 0.6214(18) 0.5901(13) 0.3837(2)
C10 C 0.8552(25) 0.5990(21) 0.3383(3)
H11 H 0.9519 0.6793 0.3260
F1 F 0.9835(13) 0.4361(12) 0.3446(2)
S1 S 0.5856(8) 0.5394(6) 0.3188(1)
C11 C 0.6895(24) 0.5242(18) 0.2812(3)
C12 C 0.5397(25) 0.5918(18) 0.2586(2)
H12 H 0.3916 0.6475 0.2644
C13 C 0.5954(26) 0.5819(20) 0.2286(3)
H13 H 0.4882 0.6289 0.2135
C14 C 0.8121(24) 0.5016(19) 0.2203(3)
C15 C 0.9651(26) 0.4337(20) 0.2425(3)
H14 H 1.1150 0.3802 0.2370
C16 C 0.9017(25) 0.4432(20) 0.2720(3)
H15 H 1.0065 0.3925 0.2870
O4 O 0.8957(17) 0.4868(12) 0.1914(2)
C17 C 0.7454(23) 0.5550(22) 0.1676(3)
H16 H 0.8460 0.5496 0.1501
H17 H 0.6676 0.6740 0.1683
H18 H 0.6286 0.4578 0.1664
loop_
_geom_bond_atom_site_label_1
_geom_bond_atom_site_label_2
_geom_bond_site_symmetry_1
_geom_bond_site_symmetry_2
N1 C1 1_555 1_555
C1 H1 1_555 1_555
N2 C1 1_555 1_555
C2 N2 1_555 1_555
C3 C2 1_555 1_555
C4 N1 1_555 1_555
N3 C4 1_555 1_555
H2 N3 1_555 1_555
H3 N3 1_555 1_555
N4 C3 1_555 1_555
C5 N4 1_555 1_555
H4 C5 1_555 1_555
N5 C2 1_555 1_555
C6 N5 1_555 1_555
H5 C6 1_555 1_555
C7 C6 1_555 1_555
H6 C7 1_555 1_555
O1 C7 1_555 1_555
H7 O1 1_555 1_555
C8 C7 1_555 1_555
H8 C8 1_555 1_555
O2 C8 1_555 1_555
H9 O2 1_555 1_555
C9 C8 1_555 1_555
H10 C9 1_555 1_555
O3 C6 1_555 1_555
C10 C9 1_555 1_555
H11 C10 1_555 1_555
F1 C10 1_555 1_555
S1 C10 1_555 1_555
C11 S1 1_555 1_555
C12 C11 1_555 1_555
H12 C12 1_555 1_555
C13 C12 1_555 1_555
H13 C13 1_555 1_555
C14 C13 1_555 1_555
C15 C14 1_555 1_555
H14 C15 1_555 1_555
C16 C11 1_555 1_555
H15 C16 1_555 1_555
O4 C14 1_555 1_555
C17 O4 1_555 1_555
H16 C17 1_555 1_555
H17 C17 1_555 1_555
H18 C17 1_555 1_555
C3 C4 1_555 1_555
C5 N5 1_555 1_555
C9 O3 1_555 1_555
C15 C16 1_555 1_555

#END
