
#######################################################################
#
#                 Cambridge Crystallographic Data Centre
#                                CCDC 
#
#######################################################################
#
# If this CIF has been generated from an entry in the Cambridge 
# Structural Database, then it will include bibliographic, chemical, 
# crystal, experimental, refinement or atomic coordinate data resulting 
# from the CCDC's data processing and validation procedures.
#
#######################################################################

data_TUGROE01
_chemical_formula_moiety         'C18 H14 N2 O1'
_chemical_name_systematic        N,N-diphenylpyridine-2-carboxamide
_symmetry_cell_setting           orthorhombic
_symmetry_space_group_name_H-M   'P b c a'
_symmetry_Int_Tables_number      61
_space_group_name_Hall           '-P 2ac 2ab'
loop_
_symmetry_equiv_pos_site_id
_symmetry_equiv_pos_as_xyz
1 x,y,z
2 1/2-x,-y,1/2+z
3 -x,1/2+y,1/2-z
4 1/2+x,1/2-y,-z
5 -x,-y,-z
6 1/2+x,y,1/2-z
7 x,1/2-y,1/2+z
8 1/2-x,1/2+y,z
_cell_length_a                   17.3073(7)
_cell_length_b                   9.4291(4)
_cell_length_c                   17.5336(7)
_cell_angle_alpha                90
_cell_angle_beta                 90
_cell_angle_gamma                90
_cell_volume                     2861.35
_exptl_crystal_colour            colorless
_exptl_crystal_description       Rectangular
_cell_formula_units_Z            8
loop_
_atom_site_label
_atom_site_type_symbol
_atom_site_fract_x
_atom_site_fract_y
_atom_site_fract_z
C1 C 0.14335(11) 0.3697(2) 0.37508(10)
H1 H 0.1566 0.4462 0.3443
C2 C 0.09729(11) 0.3885(2) 0.43887(11)
H2 H 0.0793 0.4782 0.4520
C3 C 0.07870(11) 0.2732(2) 0.48222(11)
H3 H 0.0477 0.2827 0.5253
C4 C 0.10663(11) 0.1437(2) 0.46091(10)
H4 H 0.0935 0.0657 0.4907
C5 C 0.16891(9) 0.23528(18) 0.35839(9)
C6 C 0.22447(9) 0.21029(19) 0.29435(10)
C7 C 0.25746(9) 0.25015(17) 0.16123(9)
C8 C 0.32663(10) 0.32114(19) 0.16875(11)
H5 H 0.3379 0.3701 0.2134
C9 C 0.37910(12) 0.3189(2) 0.10930(14)
H6 H 0.4262 0.3653 0.1145
C10 C 0.36232(12) 0.2490(2) 0.04294(13)
H7 H 0.3977 0.2492 0.0030
C11 C 0.29336(12) 0.1788(2) 0.03534(11)
H8 H 0.2818 0.1316 -0.0098
C12 C 0.24107(10) 0.1782(2) 0.09485(10)
H9 H 0.1947 0.1291 0.0901
C13 C 0.12298(8) 0.28249(16) 0.20351(8)
C14 C 0.10515(9) 0.41283(17) 0.17262(9)
H10 H 0.1438 0.4799 0.1649
C15 C 0.02953(9) 0.44326(19) 0.15326(9)
H11 H 0.0174 0.5309 0.1321
C16 C -0.02800(9) 0.34502(19) 0.16499(9)
H12 H -0.0787 0.3661 0.1517
C17 C -0.01025(10) 0.21571(19) 0.19631(10)
H13 H -0.0492 0.1497 0.2050
C18 C 0.06555(9) 0.18309(18) 0.21514(9)
H14 H 0.0776 0.0947 0.2355
N1 N 0.15145(9) 0.12173(15) 0.40022(8)
N2 N 0.20223(7) 0.25114(14) 0.22261(7)
O1 O 0.28873(8) 0.16198(16) 0.30694(8)
loop_
_geom_bond_atom_site_label_1
_geom_bond_atom_site_label_2
_geom_bond_site_symmetry_1
_geom_bond_site_symmetry_2
C1 H1 1_555 1_555
C2 C1 1_555 1_555
H2 C2 1_555 1_555
C3 C2 1_555 1_555
H3 C3 1_555 1_555
C4 C3 1_555 1_555
H4 C4 1_555 1_555
C5 C1 1_555 1_555
C6 C5 1_555 1_555
C7 C8 1_555 1_555
C8 H5 1_555 1_555
C9 C8 1_555 1_555
H6 C9 1_555 1_555
C10 C9 1_555 1_555
H7 C10 1_555 1_555
C11 C10 1_555 1_555
H8 C11 1_555 1_555
C12 C7 1_555 1_555
H9 C12 1_555 1_555
C13 C14 1_555 1_555
C14 H10 1_555 1_555
C15 C14 1_555 1_555
H11 C15 1_555 1_555
C16 C15 1_555 1_555
H12 C16 1_555 1_555
C17 C16 1_555 1_555
H13 C17 1_555 1_555
C18 C13 1_555 1_555
H14 C18 1_555 1_555
N1 C4 1_555 1_555
N2 C6 1_555 1_555
O1 C6 1_555 1_555
C5 N1 1_555 1_555
C7 N2 1_555 1_555
C11 C12 1_555 1_555
C13 N2 1_555 1_555
C17 C18 1_555 1_555

#END
