
#######################################################################
#
#                 Cambridge Crystallographic Data Centre
#                                CCDC 
#
#######################################################################
#
# If this CIF has been generated from an entry in the Cambridge 
# Structural Database, then it will include bibliographic, chemical, 
# crystal, experimental, refinement or atomic coordinate data resulting 
# from the CCDC's data processing and validation procedures.
#
#######################################################################

data_TUGVIC
_chemical_formula_moiety         'C19 H30 O6'
_chemical_name_systematic        
'Dimethyl 4-heptyl-3,5-dioxatricyclo[5.2.1.0^2,6^]decane-8-endo-9-exo-dicarboxylate'
_symmetry_cell_setting           triclinic
_symmetry_space_group_name_H-M   'P -1'
_symmetry_Int_Tables_number      2
_space_group_name_Hall           '-P 1'
loop_
_symmetry_equiv_pos_site_id
_symmetry_equiv_pos_as_xyz
1 x,y,z
2 -x,-y,-z
_cell_length_a                   5.6122(2)
_cell_length_b                   9.9184(5)
_cell_length_c                   17.5824(10)
_cell_angle_alpha                102.312(5)
_cell_angle_beta                 94.807(4)
_cell_angle_gamma                102.041(4)
_cell_volume                     926.694
_exptl_crystal_colour            colorless
_exptl_crystal_description       slab
_cell_formula_units_Z            2
_exptl_crystal_recrystallization_method 'ethyl acetate/petroleum spirits'
loop_
_atom_site_label
_atom_site_type_symbol
_atom_site_fract_x
_atom_site_fract_y
_atom_site_fract_z
O1 O 0.64448(19) 0.40643(11) 0.42427(6)
O2 O 0.85362(18) 0.44513(11) 0.11244(5)
O3 O 0.69355(18) 0.79344(11) 0.36957(6)
O4 O 1.05945(18) 0.29610(10) 0.15497(5)
O5 O 0.8618(2) 0.25036(12) 0.37826(7)
C1 C 1.3645(3) 0.22350(15) -0.06813(8)
H1 H 1.2791 0.2541 -0.1093
H2 H 1.5092 0.2982 -0.0447
C2 C 1.1128(2) 0.43807(14) 0.28814(8)
H3 H 1.2532 0.3998 0.3024
O6 O 1.0605(2) 0.78616(12) 0.42590(6)
C3 C 0.8232(3) 0.36623(15) 0.38600(8)
C4 C 1.8683(3) 0.00105(17) -0.26494(9)
H4 H 1.7967 0.0387 -0.3049
H5 H 1.9051 -0.0875 -0.2887
H6 H 2.0169 0.0670 -0.2381
C5 C 1.6121(3) 0.11105(16) -0.16781(8)
H7 H 1.5270 0.1444 -0.2078
H8 H 1.7588 0.1842 -0.1442
C6 C 1.4459(3) 0.09021(16) -0.10484(8)
H9 H 1.3014 0.0152 -0.1280
H10 H 1.5328 0.0600 -0.0639
C7 C 0.9127(2) 0.58957(14) 0.24574(7)
H11 H 0.8920 0.6727 0.2264
C8 C 0.7915(2) 0.44645(15) 0.18951(8)
H12 H 0.6137 0.4193 0.1903
C9 C 0.8234(2) 0.58383(14) 0.32651(7)
H13 H 0.6469 0.5404 0.3192
C10 C 1.1092(3) 0.33741(16) 0.02709(8)
H14 H 1.2511 0.4137 0.0512
H15 H 1.0277 0.3651 -0.0160
C11 C 0.8766(2) 0.73058(15) 0.38052(8)
C12 C 0.9299(2) 0.34269(14) 0.21856(8)
H16 H 0.8196 0.2641 0.2328
C13 C 1.1967(3) 0.20401(16) -0.00561(8)
H17 H 1.0551 0.1267 -0.0281
H18 H 1.2844 0.1783 0.0370
C14 C 0.9712(2) 0.48514(14) 0.35654(8)
H19 H 1.0931 0.5444 0.4005
C15 C 0.9359(3) 0.31915(15) 0.08675(8)
H20 H 0.7952 0.2393 0.0643
C16 C 1.6884(3) -0.02276(17) -0.20675(10)
H21 H 1.7626 -0.0601 -0.1664
H22 H 1.5427 -0.0936 -0.2338
C17 C 1.1802(2) 0.57719(15) 0.26054(8)
H23 H 1.2801 0.6553 0.3012
H24 H 1.2581 0.5662 0.2131
C18 C 0.7226(3) 0.93687(17) 0.41680(10)
H25 H 0.7628 0.9385 0.4712
H26 H 0.5719 0.9667 0.4096
H27 H 0.8524 1.0000 0.4007
C19 C 0.4937(3) 0.29893(18) 0.45604(10)
H28 H 0.4070 0.2213 0.4137
H29 H 0.3778 0.3395 0.4850
H30 H 0.5971 0.2651 0.4903
loop_
_geom_bond_atom_site_label_1
_geom_bond_atom_site_label_2
_geom_bond_site_symmetry_1
_geom_bond_site_symmetry_2
O1 C3 1_555 1_555
O2 C8 1_555 1_555
O3 C11 1_555 1_555
O4 C12 1_555 1_555
O5 C3 1_555 1_555
C1 H1 1_555 1_555
H2 C1 1_555 1_555
C2 H3 1_555 1_555
O6 C11 1_555 1_555
C3 C14 1_555 1_555
C4 H4 1_555 1_555
H5 C4 1_555 1_555
H6 C4 1_555 1_555
C5 H7 1_555 1_555
H8 C5 1_555 1_555
C6 C1 1_555 1_555
H9 C6 1_555 1_555
H10 C6 1_555 1_555
C7 H11 1_555 1_555
C8 C7 1_555 1_555
H12 C8 1_555 1_555
C9 C7 1_555 1_555
H13 C9 1_555 1_555
C10 H14 1_555 1_555
H15 C10 1_555 1_555
C11 C9 1_555 1_555
C12 C2 1_555 1_555
H16 C12 1_555 1_555
C13 C1 1_555 1_555
H17 C13 1_555 1_555
H18 C13 1_555 1_555
C14 C2 1_555 1_555
H19 C14 1_555 1_555
C15 O2 1_555 1_555
H20 C15 1_555 1_555
C16 C4 1_555 1_555
H21 C16 1_555 1_555
H22 C16 1_555 1_555
C17 C2 1_555 1_555
H23 C17 1_555 1_555
H24 C17 1_555 1_555
C18 O3 1_555 1_555
H25 C18 1_555 1_555
H26 C18 1_555 1_555
H27 C18 1_555 1_555
C19 O1 1_555 1_555
H28 C19 1_555 1_555
H29 C19 1_555 1_555
H30 C19 1_555 1_555
O4 C15 1_555 1_555
C5 C6 1_555 1_555
C5 C16 1_555 1_555
C7 C17 1_555 1_555
C8 C12 1_555 1_555
C9 C14 1_555 1_555
C10 C13 1_555 1_555
C10 C15 1_555 1_555

#END
