
#######################################################################
#
#                 Cambridge Crystallographic Data Centre
#                                CCDC 
#
#######################################################################
#
# If this CIF has been generated from an entry in the Cambridge 
# Structural Database, then it will include bibliographic, chemical, 
# crystal, experimental, refinement or atomic coordinate data resulting 
# from the CCDC's data processing and validation procedures.
#
#######################################################################

data_TUGXAV
_chemical_name_common            
"25,27-(5-crown)-26,28-(2,2'-[sulfanediylbis(ethane-2,1-diylsulfanediyl)]diethanolate)-calix(4)arene methanol solvate"
_chemical_formula_moiety         'C44 H52 O7 S3,0.5(C1 H4 O1)'
_chemical_name_systematic        
'3,6,9,12,15,29,41-heptaoxa-32,35,38-trithiaheptacyclo[25.25.1.1^17,43^.0^2,49^.0^16,21^.0^23,28^.0^42,47^]tetrapentaconta-1,16,18,20,23,25,27,42,44,46,49,51-dodecaene methanol solvate'
_symmetry_cell_setting           monoclinic
_symmetry_space_group_name_H-M   'C 2/c'
_symmetry_Int_Tables_number      15
_space_group_name_Hall           '-C 2yn'
loop_
_symmetry_equiv_pos_site_id
_symmetry_equiv_pos_as_xyz
1 x,y,z
2 -x,y,1/2-z
3 1/2+x,1/2+y,z
4 1/2-x,1/2+y,1/2-z
5 -x,-y,-z
6 x,-y,1/2+z
7 1/2-x,1/2-y,-z
8 1/2+x,1/2-y,1/2+z
_cell_length_a                   42.116(7)
_cell_length_b                   9.9900(16)
_cell_length_c                   19.551(3)
_cell_angle_alpha                90
_cell_angle_beta                 99.192(3)
_cell_angle_gamma                90
_cell_volume                     8120.23
_exptl_crystal_colour            colorless
_exptl_crystal_description       block
_cell_formula_units_Z            8
loop_
_atom_site_label
_atom_site_type_symbol
_atom_site_fract_x
_atom_site_fract_y
_atom_site_fract_z
S1 S 0.18660(2) -0.18462(9) 0.20450(5)
S2 S 0.24345(2) 0.08591(10) 0.09005(5)
S3 S 0.20888(3) 0.46489(10) 0.17111(5)
O2 O 0.12586(7) 0.0160(2) 0.30100(14)
O3 O 0.15824(6) 0.4030(2) 0.32250(12)
O4 O 0.07167(10) 0.3003(4) 0.30155(18)
O5 O -0.00091(11) 0.3179(4) 0.36204(17)
O6 O 0.02043(6) 0.2992(3) 0.51711(13)
O7 O 0.08601(6) 0.2116(3) 0.60512(13)
O8 O 0.13117(6) 0.2078(2) 0.46533(12)
C2 C 0.13865(10) -0.0976(4) 0.2695(2)
H1 H 0.1222 -0.1371 0.2333
H2 H 0.1460 -0.1671 0.3046
C3 C 0.16658(10) -0.0451(4) 0.2379(2)
H3 H 0.1818 0.0030 0.2734
H4 H 0.1588 0.0183 0.2000
C4 C 0.22010(10) -0.0989(4) 0.1764(2)
H5 H 0.2298 -0.0374 0.2136
H6 H 0.2366 -0.1658 0.1694
C5 C 0.21095(9) -0.0196(4) 0.1102(2)
H7 H 0.1921 0.0374 0.1146
H8 H 0.2045 -0.0825 0.0714
C6 C 0.24012(9) 0.2265(4) 0.1471(2)
H9 H 0.2352 0.1929 0.1918
H10 H 0.2610 0.2740 0.1563
C7 C 0.21414(10) 0.3235(4) 0.1160(2)
H11 H 0.1935 0.2746 0.1056
H12 H 0.2195 0.3574 0.0716
C8 C 0.19188(9) 0.3792(4) 0.23856(19)
H13 H 0.1753 0.3147 0.2174
H14 H 0.2090 0.3289 0.2686
C9 C 0.17692(9) 0.4803(4) 0.28146(19)
H15 H 0.1938 0.5318 0.3115
H16 H 0.1630 0.5435 0.2512
C10 C 0.14059(9) 0.4773(3) 0.36298(18)
C11 C 0.11235(10) 0.5415(4) 0.3327(2)
C12 C 0.09451(10) 0.6081(4) 0.3767(2)
H17 H 0.0754 0.6539 0.3573
C13 C 0.10393(10) 0.6089(4) 0.4474(2)
H18 H 0.0915 0.6550 0.4763
C14 C 0.13181(9) 0.5419(3) 0.47612(19)
H19 H 0.1381 0.5410 0.5250
C15 C 0.15060(9) 0.4761(3) 0.43427(18)
C16 C 0.18124(9) 0.4063(4) 0.46662(19)
H20 H 0.1996 0.4558 0.4529
H21 H 0.1830 0.4140 0.5176
C17 C 0.18495(9) 0.2601(4) 0.44921(18)
C18 C 0.21414(9) 0.2151(4) 0.4322(2)
H22 H 0.2309 0.2777 0.4299
C19 C 0.21914(10) 0.0820(4) 0.4188(2)
H23 H 0.2392 0.0536 0.4076
C20 C 0.19499(10) -0.0100(4) 0.4218(2)
H24 H 0.1986 -0.1017 0.4127
C21 C 0.16548(9) 0.0298(4) 0.43798(19)
C22 C 0.16084(9) 0.1652(4) 0.45141(18)
C23 C 0.13940(10) -0.0731(4) 0.4430(2)
H25 H 0.1466 -0.1595 0.4260
H26 H 0.1379 -0.0850 0.4926
C24 C 0.10603(9) -0.0455(3) 0.4049(2)
C25 C 0.07970(10) -0.0601(4) 0.4392(2)
H27 H 0.0831 -0.0839 0.4868
C26 C 0.04855(10) -0.0405(4) 0.4049(2)
H28 H 0.0309 -0.0508 0.4291
C27 C 0.04328(10) -0.0061(4) 0.3355(2)
H29 H 0.0219 0.0053 0.3122
C28 C 0.06886(10) 0.0121(4) 0.2994(2)
C29 C 0.10012(10) -0.0092(4) 0.3351(2)
C30 C 0.06345(12) 0.0524(5) 0.2244(2)
H30 H 0.0401 0.0684 0.2101
H31 H 0.0694 -0.0245 0.1970
C31 C 0.08141(9) 0.1751(4) 0.20451(19)
C32 C 0.09709(9) 0.1651(4) 0.14688(19)
H32 H 0.0968 0.0825 0.1227
C33 C 0.11287(9) 0.2727(4) 0.1247(2)
H33 H 0.1232 0.2647 0.0852
C34 C 0.11373(9) 0.3938(4) 0.16021(18)
H34 H 0.1246 0.4683 0.1444
C35 C 0.09888(9) 0.4070(4) 0.21866(18)
C36 C 0.08266(10) 0.2972(4) 0.23941(19)
C37 C 0.09936(10) 0.5399(4) 0.2558(2)
H35 H 0.0771 0.5749 0.2493
H36 H 0.1123 0.6032 0.2327
C38 C 0.0417(2) 0.3268(6) 0.2922(3)
H37 H 0.0293 0.2538 0.2661
H38 H 0.0373 0.4112 0.2658
C39 C 0.03186(16) 0.3414(8) 0.3696(3)
H39 H 0.0438 0.2754 0.4017
H40 H 0.0370 0.4324 0.3882
C40 C -0.01636(10) 0.3616(4) 0.4160(2)
H41 H -0.0398 0.3665 0.3990
H42 H -0.0088 0.4532 0.4294
C41 C -0.01080(9) 0.2741(4) 0.4789(2)
H43 H -0.0273 0.2927 0.5084
H44 H -0.0126 0.1789 0.4648
C42 C 0.02679(9) 0.2256(4) 0.57946(19)
H45 H 0.0282 0.1291 0.5688
H46 H 0.0090 0.2383 0.6063
C43 C 0.05775(9) 0.2709(4) 0.6218(2)
H47 H 0.0595 0.3691 0.6167
H48 H 0.0568 0.2524 0.6712
C44 C 0.09309(9) 0.2465(4) 0.53901(19)
H49 H 0.0912 0.3445 0.5320
H50 H 0.0779 0.2017 0.5022
C45 C 0.12712(9) 0.2010(4) 0.53643(19)
H51 H 0.1428 0.2603 0.5651
H52 H 0.1304 0.1083 0.5540
O1 O 0.0000 0.3293(18) 0.7500
C1 C 0.0145(3) 0.4187(11) 0.7083(6)
C1A C -0.0145(3) 0.4187(11) 0.7917(6)
loop_
_geom_bond_atom_site_label_1
_geom_bond_atom_site_label_2
_geom_bond_site_symmetry_1
_geom_bond_site_symmetry_2
O1 C1 1_555 1_555
S1 C3 1_555 1_555
S2 C5 1_555 1_555
S3 C7 1_555 1_555
O2 C2 1_555 1_555
O3 C9 1_555 1_555
O4 C36 1_555 1_555
O5 C39 1_555 1_555
O6 C41 1_555 1_555
O7 C43 1_555 1_555
O8 C22 1_555 1_555
C2 H1 1_555 1_555
H2 C2 1_555 1_555
C3 C2 1_555 1_555
H3 C3 1_555 1_555
H4 C3 1_555 1_555
C4 S1 1_555 1_555
H5 C4 1_555 1_555
H6 C4 1_555 1_555
C5 C4 1_555 1_555
H7 C5 1_555 1_555
H8 C5 1_555 1_555
C6 S2 1_555 1_555
H9 C6 1_555 1_555
H10 C6 1_555 1_555
C7 C6 1_555 1_555
H11 C7 1_555 1_555
H12 C7 1_555 1_555
C8 S3 1_555 1_555
H13 C8 1_555 1_555
H14 C8 1_555 1_555
C9 C8 1_555 1_555
H15 C9 1_555 1_555
H16 C9 1_555 1_555
C10 O3 1_555 1_555
C11 C10 1_555 1_555
C12 C11 1_555 1_555
H17 C12 1_555 1_555
C13 C12 1_555 1_555
H18 C13 1_555 1_555
C14 C13 1_555 1_555
H19 C14 1_555 1_555
C15 C10 1_555 1_555
C16 C15 1_555 1_555
H20 C16 1_555 1_555
H21 C16 1_555 1_555
C17 C16 1_555 1_555
C18 C17 1_555 1_555
H22 C18 1_555 1_555
C19 C18 1_555 1_555
H23 C19 1_555 1_555
C20 C19 1_555 1_555
H24 C20 1_555 1_555
C21 C20 1_555 1_555
C22 C17 1_555 1_555
C23 C21 1_555 1_555
H25 C23 1_555 1_555
H26 C23 1_555 1_555
C24 C23 1_555 1_555
C25 C24 1_555 1_555
H27 C25 1_555 1_555
C26 C25 1_555 1_555
H28 C26 1_555 1_555
C27 C26 1_555 1_555
H29 C27 1_555 1_555
C28 C27 1_555 1_555
C29 O2 1_555 1_555
C30 C28 1_555 1_555
H30 C30 1_555 1_555
H31 C30 1_555 1_555
C31 C30 1_555 1_555
C32 C31 1_555 1_555
H32 C32 1_555 1_555
C33 C32 1_555 1_555
H33 C33 1_555 1_555
C34 C33 1_555 1_555
H34 C34 1_555 1_555
C35 C34 1_555 1_555
C36 C31 1_555 1_555
C37 C11 1_555 1_555
H35 C37 1_555 1_555
H36 C37 1_555 1_555
C38 O4 1_555 1_555
H37 C38 1_555 1_555
H38 C38 1_555 1_555
C39 C38 1_555 1_555
H39 C39 1_555 1_555
H40 C39 1_555 1_555
C40 O5 1_555 1_555
H41 C40 1_555 1_555
H42 C40 1_555 1_555
C41 C40 1_555 1_555
H43 C41 1_555 1_555
H44 C41 1_555 1_555
C42 O6 1_555 1_555
H45 C42 1_555 1_555
H46 C42 1_555 1_555
C43 C42 1_555 1_555
H47 C43 1_555 1_555
H48 C43 1_555 1_555
C44 O7 1_555 1_555
H49 C44 1_555 1_555
H50 C44 1_555 1_555
C45 O8 1_555 1_555
H51 C45 1_555 1_555
H52 C45 1_555 1_555
C1A O1 1_555 1_555
C14 C15 1_555 1_555
C21 C22 1_555 1_555
C24 C29 1_555 1_555
C28 C29 1_555 1_555
C35 C36 1_555 1_555
C35 C37 1_555 1_555
C44 C45 1_555 1_555

#END
