
#######################################################################
#
#                 Cambridge Crystallographic Data Centre
#                                CCDC 
#
#######################################################################
#
# If this CIF has been generated from an entry in the Cambridge 
# Structural Database, then it will include bibliographic, chemical, 
# crystal, experimental, refinement or atomic coordinate data resulting 
# from the CCDC's data processing and validation procedures.
#
#######################################################################

data_TUGYIF
_chemical_formula_moiety         'C20 H18 O3'
_chemical_name_systematic        
4-(4-Methoxyphenyl)-5-methyl-5-(2-phenylvinyl)furan-2(5H)-one
_symmetry_cell_setting           monoclinic
_symmetry_space_group_name_H-M   'P 21/c'
_symmetry_Int_Tables_number      14
_space_group_name_Hall           '-P 2ybc'
loop_
_symmetry_equiv_pos_site_id
_symmetry_equiv_pos_as_xyz
1 x,y,z
2 -x,1/2+y,1/2-z
3 -x,-y,-z
4 x,1/2-y,1/2+z
_cell_length_a                   16.1354(13)
_cell_length_b                   5.4891(4)
_cell_length_c                   18.0102(14)
_cell_angle_alpha                90
_cell_angle_beta                 100.979(2)
_cell_angle_gamma                90
_cell_volume                     1565.95
_exptl_crystal_colour            colorless
_exptl_crystal_description       Tabular
_cell_formula_units_Z            4
loop_
_atom_site_label
_atom_site_type_symbol
_atom_site_fract_x
_atom_site_fract_y
_atom_site_fract_z
O1 O 0.18091(6) -0.04694(17) 0.76104(5)
O2 O 0.20165(5) 0.93506(15) 0.44599(5)
O3 O 0.07930(5) 1.13811(17) 0.41431(5)
C1 C 0.10553(9) -0.1641(3) 0.77352(8)
H1 H 0.0711 -0.0472 0.7954
H2 H 0.1204 -0.3011 0.8084
H3 H 0.0735 -0.2244 0.7253
C2 C 0.17232(8) 0.1371(2) 0.70947(7)
C3 C 0.24694(8) 0.2507(2) 0.70073(7)
H4 H 0.2989 0.2029 0.7315
C4 C 0.24589(8) 0.4327(2) 0.64754(7)
H5 H 0.2974 0.5078 0.6420
C5 C 0.17012(7) 0.5083(2) 0.60170(7)
C6 C 0.16691(7) 0.6957(2) 0.54323(7)
C7 C 0.23849(7) 0.7479(2) 0.50108(7)
C8 C 0.31350(8) 0.8696(2) 0.55010(7)
H6 H 0.3021 0.9989 0.5818
C9 C 0.39392(8) 0.8120(2) 0.55282(7)
H7 H 0.4047 0.6763 0.5234
C10 C 0.46810(8) 0.9369(2) 0.59685(7)
C11 C 0.46202(8) 1.1447(2) 0.64023(8)
H8 H 0.4080 1.2107 0.6420
C12 C 0.53389(9) 1.2562(3) 0.68083(8)
H9 H 0.5287 1.3964 0.7105
C13 C 0.61315(9) 1.1632(3) 0.67813(8)
H10 H 0.6623 1.2393 0.7060
C14 C 0.62048(8) 0.9591(3) 0.63471(8)
H11 H 0.6747 0.8957 0.6324
C15 C 0.54858(8) 0.8469(3) 0.59460(7)
H12 H 0.5542 0.7066 0.5651
C16 C 0.12145(8) 0.9884(2) 0.45446(7)
C17 C 0.10096(8) 0.8372(2) 0.51508(7)
H13 H 0.0487 0.8390 0.5320
C18 C 0.25913(8) 0.5279(2) 0.45663(7)
H14 H 0.2070 0.4633 0.4260
H15 H 0.2858 0.4020 0.4918
H16 H 0.2978 0.5766 0.4235
C19 C 0.09556(8) 0.3963(2) 0.61275(7)
H17 H 0.0433 0.4475 0.5833
C20 C 0.09597(8) 0.2124(2) 0.66561(7)
H18 H 0.0446 0.1383 0.6719
loop_
_geom_bond_atom_site_label_1
_geom_bond_atom_site_label_2
_geom_bond_site_symmetry_1
_geom_bond_site_symmetry_2
O1 C1 1_555 1_555
O2 C7 1_555 1_555
O3 C16 1_555 1_555
C1 H1 1_555 1_555
H2 C1 1_555 1_555
H3 C1 1_555 1_555
C2 O1 1_555 1_555
C3 C2 1_555 1_555
H4 C3 1_555 1_555
C4 C3 1_555 1_555
H5 C4 1_555 1_555
C5 C4 1_555 1_555
C6 C5 1_555 1_555
C7 C6 1_555 1_555
C8 C7 1_555 1_555
H6 C8 1_555 1_555
C9 C8 1_555 1_555
H7 C9 1_555 1_555
C10 C9 1_555 1_555
C11 C10 1_555 1_555
H8 C11 1_555 1_555
C12 C11 1_555 1_555
H9 C12 1_555 1_555
C13 C12 1_555 1_555
H10 C13 1_555 1_555
C14 C13 1_555 1_555
H11 C14 1_555 1_555
C15 C10 1_555 1_555
H12 C15 1_555 1_555
C16 O2 1_555 1_555
C17 C6 1_555 1_555
H13 C17 1_555 1_555
C18 C7 1_555 1_555
H14 C18 1_555 1_555
H15 C18 1_555 1_555
H16 C18 1_555 1_555
C19 C5 1_555 1_555
H17 C19 1_555 1_555
C20 C2 1_555 1_555
H18 C20 1_555 1_555
C14 C15 1_555 1_555
C16 C17 1_555 1_555
C19 C20 1_555 1_555

#END
