
#######################################################################
#
#                 Cambridge Crystallographic Data Centre
#                                CCDC 
#
#######################################################################
#
# If this CIF has been generated from an entry in the Cambridge 
# Structural Database, then it will include bibliographic, chemical, 
# crystal, experimental, refinement or atomic coordinate data resulting 
# from the CCDC's data processing and validation procedures.
#
#######################################################################

data_TUHTUM
_chemical_formula_moiety         'C20 H8 N4 S4'
_chemical_name_systematic        
2-Tetrathiafulvalenyl-3-phenylbuta-1,3-diene-1,1,4,4-tetracarbonitrile
_symmetry_cell_setting           triclinic
_symmetry_space_group_name_H-M   'P -1'
_symmetry_Int_Tables_number      2
_space_group_name_Hall           '-P 1'
loop_
_symmetry_equiv_pos_site_id
_symmetry_equiv_pos_as_xyz
1 x,y,z
2 -x,-y,-z
_cell_length_a                   9.8302(2)
_cell_length_b                   12.4340(2)
_cell_length_c                   16.8235(3)
_cell_angle_alpha                85.6858(8)
_cell_angle_beta                 89.4109(8)
_cell_angle_gamma                76.1497(9)
_cell_volume                     1990.81
_exptl_crystal_colour            'dark green'
_exptl_crystal_description       cube
_chemical_melting_point          'above 240 deg.C(dec.)'
_cell_formula_units_Z            4
_exptl_crystal_recrystallization_method dichloromethane/hexane
loop_
_atom_site_label
_atom_site_type_symbol
_atom_site_fract_x
_atom_site_fract_y
_atom_site_fract_z
S1 S 0.65891(5) -0.10162(5) 0.82806(3)
S2 S 0.35372(5) -0.04182(4) 0.85702(3)
S3 S 0.69161(6) 0.11956(5) 0.91130(4)
S4 S 0.38819(6) 0.17440(5) 0.94250(4)
N1 N 0.0181(2) -0.05011(16) 0.84130(12)
N2 N 0.0746(2) -0.35954(18) 0.73364(14)
N3 N 0.4074(3) -0.44205(17) 0.91728(13)
N4 N 0.6280(2) -0.58672(16) 0.70705(13)
C1 C 0.1931(2) -0.21040(15) 0.77872(11)
C2 C 0.3353(2) -0.22443(15) 0.77130(11)
C3 C 0.4208(2) -0.15761(15) 0.80087(11)
C4 C 0.5619(2) -0.18161(17) 0.79012(12)
C5 C 0.5166(2) -0.00702(16) 0.86603(12)
C6 C 0.5304(2) 0.08382(17) 0.90127(12)
C7 C 0.6199(3) 0.2437(2) 0.95318(17)
C8 C 0.4832(3) 0.2689(2) 0.96707(16)
C9 C 0.1001(2) -0.11978(17) 0.81419(12)
C10 C 0.1266(2) -0.29270(18) 0.75254(12)
C11 C 0.41002(19) -0.32104(15) 0.72630(11)
C12 C 0.4645(2) -0.41885(16) 0.76807(12)
C13 C 0.4364(3) -0.43314(17) 0.85148(13)
C14 C 0.5525(2) -0.51300(17) 0.73268(13)
C15 C 0.4152(2) -0.30419(17) 0.63831(12)
C16 C 0.4389(2) -0.20585(19) 0.60198(13)
C17 C 0.4461(3) -0.1930(2) 0.51907(15)
C18 C 0.4239(3) -0.2745(3) 0.47344(15)
C19 C 0.3925(3) -0.3690(2) 0.50898(15)
C20 C 0.3894(3) -0.38525(19) 0.59138(14)
H5 H 0.448(2) -0.1445(19) 0.6346(13)
H7 H 0.364(2) -0.4462(19) 0.6144(12)
H8 H 0.465(3) -0.124(3) 0.4955(18)
H9 H 0.610(2) -0.2423(19) 0.7625(13)
H10 H 0.371(3) -0.428(2) 0.4767(16)
H12 H 0.432(3) -0.266(2) 0.4174(17)
H14 H 0.435(3) 0.334(2) 0.9905(16)
H15 H 0.685(3) 0.290(3) 0.9683(18)
S5 S -0.21612(5) 0.09169(4) 0.67730(4)
S6 S 0.08581(5) 0.05244(4) 0.64024(3)
S7 S -0.23349(7) -0.12806(5) 0.58949(4)
S8 S 0.06909(6) -0.17047(5) 0.55656(3)
N5 N 0.4140(2) 0.07633(18) 0.64883(13)
N6 N 0.3337(3) 0.3818(2) 0.76850(16)
N7 N -0.0845(3) 0.46619(18) 0.59048(12)
N8 N -0.2080(2) 0.57952(16) 0.82207(11)
C21 C 0.2324(2) 0.22769(17) 0.71577(12)
C22 C 0.0914(2) 0.23602(15) 0.72668(11)
C23 C 0.0118(2) 0.16445(15) 0.69833(11)
C24 C -0.1274(2) 0.17932(16) 0.71274(12)
C25 C -0.0701(2) 0.00676(16) 0.63467(12)
C26 C -0.0774(2) -0.08507(16) 0.59868(12)
C27 C -0.1542(3) -0.2520(2) 0.54964(16)
C28 C -0.0184(3) -0.2714(2) 0.53537(16)
C29 C 0.3291(2) 0.14211(18) 0.67753(13)
C30 C 0.2922(2) 0.3115(2) 0.74510(14)
C31 C 0.0177(2) 0.32704(15) 0.77726(11)
C32 C -0.0579(2) 0.42414(16) 0.74263(11)
C33 C -0.0703(3) 0.44694(17) 0.65755(13)
C34 C -0.1383(2) 0.51079(16) 0.78822(12)
C35 C 0.0356(2) 0.30585(16) 0.86445(11)
C36 C 0.0184(2) 0.20584(19) 0.90188(13)
C37 C 0.0307(3) 0.1874(2) 0.98419(14)
C38 C 0.0641(3) 0.2661(2) 1.02830(14)
C39 C 0.0881(3) 0.3632(2) 0.99168(14)
C40 C 0.0726(2) 0.38425(18) 0.90952(13)
H1 H -0.177(2) 0.2358(18) 0.7405(11)
H2 H 0.087(2) 0.4504(18) 0.8810(12)
H3 H -0.001(2) 0.1469(19) 0.8704(13)
H4 H 0.115(3) 0.415(2) 1.0197(15)
H6 H 0.009(3) 0.114(3) 1.0117(17)
H11 H 0.070(3) 0.254(2) 1.0849(17)
H13 H -0.225(3) -0.309(2) 0.5363(16)
H16 H 0.036(3) -0.330(3) 0.5142(17)
loop_
_geom_bond_atom_site_label_1
_geom_bond_atom_site_label_2
_geom_bond_site_symmetry_1
_geom_bond_site_symmetry_2
S1 C4 1_555 1_555
S2 C3 1_555 1_555
S3 C6 1_555 1_555
S4 C6 1_555 1_555
S5 C24 1_555 1_555
S6 C23 1_555 1_555
S7 C26 1_555 1_555
S8 C26 1_555 1_555
N1 C9 1_555 1_555
N2 C10 1_555 1_555
N3 C13 1_555 1_555
N4 C14 1_555 1_555
N5 C29 1_555 1_555
N6 C30 1_555 1_555
N7 C33 1_555 1_555
N8 C34 1_555 1_555
C1 C2 1_555 1_555
C2 C3 1_555 1_555
C3 C4 1_555 1_555
C4 H9 1_555 1_555
C5 S1 1_555 1_555
C6 C5 1_555 1_555
C7 S3 1_555 1_555
C8 S4 1_555 1_555
C9 C1 1_555 1_555
C10 C1 1_555 1_555
C11 C2 1_555 1_555
C12 C11 1_555 1_555
C13 C12 1_555 1_555
C14 C12 1_555 1_555
C15 C11 1_555 1_555
C16 C15 1_555 1_555
C17 C16 1_555 1_555
C18 C17 1_555 1_555
C19 C18 1_555 1_555
C20 C15 1_555 1_555
C21 C22 1_555 1_555
C22 C23 1_555 1_555
C23 C24 1_555 1_555
C24 H1 1_555 1_555
C25 S5 1_555 1_555
C26 C25 1_555 1_555
C27 S7 1_555 1_555
C28 S8 1_555 1_555
C29 C21 1_555 1_555
C30 C21 1_555 1_555
C31 C22 1_555 1_555
C32 C31 1_555 1_555
C33 C32 1_555 1_555
C34 C32 1_555 1_555
C35 C31 1_555 1_555
C36 C35 1_555 1_555
C37 C36 1_555 1_555
C38 C37 1_555 1_555
C39 C38 1_555 1_555
C40 C35 1_555 1_555
H2 C40 1_555 1_555
H3 C36 1_555 1_555
H4 C39 1_555 1_555
H5 C16 1_555 1_555
H6 C37 1_555 1_555
H7 C20 1_555 1_555
H8 C17 1_555 1_555
H10 C19 1_555 1_555
H11 C38 1_555 1_555
H12 C18 1_555 1_555
H13 C27 1_555 1_555
H14 C8 1_555 1_555
H15 C7 1_555 1_555
H16 C28 1_555 1_555
S2 C5 1_555 1_555
S6 C25 1_555 1_555
C7 C8 1_555 1_555
C19 C20 1_555 1_555
C27 C28 1_555 1_555
C39 C40 1_555 1_555

#END
