
#######################################################################
#
#                 Cambridge Crystallographic Data Centre
#                                CCDC 
#
#######################################################################
#
# If this CIF has been generated from an entry in the Cambridge 
# Structural Database, then it will include bibliographic, chemical, 
# crystal, experimental, refinement or atomic coordinate data resulting 
# from the CCDC's data processing and validation procedures.
#
#######################################################################

data_TUHZEC
_chemical_name_common            1,6-Diazidohexane-2,3,4,5-tetrol
_chemical_formula_moiety         'C6 H12 N6 O4'
_chemical_name_systematic        1,6-Diazido-1,6-dideoxy-D-mannitol
_chemical_properties_biological  
'No antibacterial activity against Mycobacterium tuberculosis'
_symmetry_cell_setting           monoclinic
_symmetry_space_group_name_H-M   'P 21'
_symmetry_Int_Tables_number      4
_space_group_name_Hall           'P 2yb'
loop_
_symmetry_equiv_pos_site_id
_symmetry_equiv_pos_as_xyz
1 x,y,z
2 -x,1/2+y,-z
_cell_length_a                   10.0131(3)
_cell_length_b                   9.6906(3)
_cell_length_c                   11.2650(4)
_cell_angle_alpha                90
_cell_angle_beta                 105.745(2)
_cell_angle_gamma                90
_cell_volume                     1052.06
_exptl_crystal_colour            colorless
_exptl_crystal_description       block
_chemical_melting_point          '93 deg.C'
_cell_formula_units_Z            4
loop_
_atom_site_label
_atom_site_type_symbol
_atom_site_fract_x
_atom_site_fract_y
_atom_site_fract_z
N1 N 0.6319(3) 0.7032(3) 1.2220(3)
N2 N 0.6238(3) 0.7650(3) 1.3156(3)
N3 N 0.6053(4) 0.8254(4) 1.3938(3)
N4 N 0.6176(3) 0.5719(4) 0.6356(3)
N5 N 0.5934(3) 0.5252(4) 0.5313(3)
N6 N 0.5612(5) 0.4754(5) 0.4360(3)
O1 O 0.6384(2) 0.4637(2) 1.0675(2)
H1 H 0.6499 0.3895 1.1075
O2 O 0.8614(2) 0.7563(2) 1.0621(2)
H2 H 0.8330 0.8266 1.0914
O3 O 0.8856(2) 0.5274(2) 0.9123(2)
H3 H 0.8751 0.4467 0.9353
O4 O 0.6476(2) 0.8076(2) 0.7864(2)
H4 H 0.6619 0.8575 0.8496
C1 C 0.7547(3) 0.6123(4) 1.2397(3)
H9 H 0.7506 0.5372 1.2982
H10 H 0.8407 0.6659 1.2739
C2 C 0.7546(3) 0.5521(3) 1.1150(3)
H11 H 0.8415 0.4971 1.1249
C3 C 0.7487(3) 0.6626(3) 1.0177(3)
H12 H 0.6594 0.7144 1.0039
C4 C 0.7584(3) 0.6031(3) 0.8958(3)
H13 H 0.6782 0.5396 0.8628
C5 C 0.7599(3) 0.7137(3) 0.7993(3)
H14 H 0.8489 0.7664 0.8266
C6 C 0.7493(3) 0.6521(4) 0.6736(3)
H15 H 0.7491 0.7263 0.6131
H16 H 0.8295 0.5908 0.6776
N7 N 0.8550(4) 0.0641(4) 0.6866(3)
N8 N 0.8003(4) 0.1755(4) 0.7014(3)
N9 N 0.9127(4) -0.0294(5) 0.6668(3)
N10 N 0.9076(7) 0.1955(7) 1.4155(6)
N11 N 0.9003(4) 0.2962(5) 1.4615(4)
N12 N 0.8851(7) 0.4057(8) 1.5090(7)
O5 O 0.8876(2) 0.2580(2) 0.9653(2)
H5 H 0.8535 0.3295 0.9266
O6 O 0.6385(2) -0.0097(2) 0.9762(2)
H6 H 0.5524 -0.0007 0.9636
O7 O 0.8772(2) 0.0085(2) 1.1712(2)
H7 H 0.9527 0.0271 1.1558
O8 O 0.6131(4) 0.2436(3) 1.2044(4)
H8 H 0.6604 0.3076 1.1859
C7 C 0.7134(4) 0.1689(4) 0.7892(3)
H17 H 0.6441 0.0942 0.7634
H18 H 0.6624 0.2570 0.7858
C8 C 0.7984(3) 0.1429(3) 0.9209(3)
H19 H 0.8562 0.0583 0.9231
C9 C 0.7047(3) 0.1224(3) 1.0066(3)
H20 H 0.6326 0.1965 0.9910
C10 C 0.7866(3) 0.1248(3) 1.1418(3)
H21 H 0.8438 0.2108 1.1578
C11 C 0.6938(3) 0.1218(3) 1.2288(3)
H22 H 0.6311 0.0398 1.2092
C12 C 0.7748(4) 0.1169(5) 1.3638(4)
H23 H 0.8442 0.0417 1.3821
H24 H 0.7139 0.1111 1.4198
N13? N 0.8432(6) 0.2647(7) 1.3648(6)
N14? N 1.0208(13) 0.2982(14) 1.5425(11)
loop_
_geom_bond_atom_site_label_1
_geom_bond_atom_site_label_2
_geom_bond_site_symmetry_1
_geom_bond_site_symmetry_2
N1 N2 1_555 1_555
N2 N3 1_555 1_555
N4 N5 1_555 1_555
N5 N6 1_555 1_555
N7 N8 1_555 1_555
N8 C7 1_555 1_555
N9 N7 1_555 1_555
N10 N11 1_555 1_555
N11 N12 1_555 1_555
O1 H1 1_555 1_555
O2 H2 1_555 1_555
O3 H3 1_555 1_555
O4 H4 1_555 1_555
O5 H5 1_555 1_555
O6 H6 1_555 1_555
O7 H7 1_555 1_555
O8 H8 1_555 1_555
C1 N1 1_555 1_555
H9 C1 1_555 1_555
H10 C1 1_555 1_555
C2 O1 1_555 1_555
H11 C2 1_555 1_555
C3 O2 1_555 1_555
H12 C3 1_555 1_555
C4 O3 1_555 1_555
H13 C4 1_555 1_555
C5 O4 1_555 1_555
H14 C5 1_555 1_555
C6 N4 1_555 1_555
H15 C6 1_555 1_555
H16 C6 1_555 1_555
C7 H17 1_555 1_555
H18 C7 1_555 1_555
C8 O5 1_555 1_555
H19 C8 1_555 1_555
C9 O6 1_555 1_555
H20 C9 1_555 1_555
C10 O7 1_555 1_555
H21 C10 1_555 1_555
C11 O8 1_555 1_555
H22 C11 1_555 1_555
C12 N10 1_555 1_555
H23 C12 1_555 1_555
H24 C12 1_555 1_555
C1 C2 1_555 1_555
C2 C3 1_555 1_555
C3 C4 1_555 1_555
C4 C5 1_555 1_555
C5 C6 1_555 1_555
C7 C8 1_555 1_555
C8 C9 1_555 1_555
C9 C10 1_555 1_555
C10 C11 1_555 1_555
C11 C12 1_555 1_555

#END
