
#######################################################################
#
#                 Cambridge Crystallographic Data Centre
#                                CCDC 
#
#######################################################################
#
# If this CIF has been generated from an entry in the Cambridge 
# Structural Database, then it will include bibliographic, chemical, 
# crystal, experimental, refinement or atomic coordinate data resulting 
# from the CCDC's data processing and validation procedures.
#
#######################################################################

data_TUJROH
_chemical_formula_moiety         'C40 H49 N1 O2 Si1'
_chemical_name_systematic        
(3-((2-(((t-Butyl(diphenyl)silyl)oxy)methyl)pyrrolidin-1-yl)methyl)-2,2-dimethylcyclopropyl)(diphenyl)methanol
_symmetry_cell_setting           orthorhombic
_symmetry_space_group_name_H-M   'P 21 21 21'
_symmetry_Int_Tables_number      19
_space_group_name_Hall           'P 2ac 2ab'
loop_
_symmetry_equiv_pos_site_id
_symmetry_equiv_pos_as_xyz
1 x,y,z
2 1/2-x,-y,1/2+z
3 -x,1/2+y,1/2-z
4 1/2+x,1/2-y,-z
_cell_length_a                   9.3798(19)
_cell_length_b                   13.079(3)
_cell_length_c                   28.827(6)
_cell_angle_alpha                90
_cell_angle_beta                 90
_cell_angle_gamma                90
_cell_volume                     3536.45
_exptl_crystal_colour            colorless
_exptl_crystal_description       block
_cell_formula_units_Z            4
loop_
_atom_site_label
_atom_site_type_symbol
_atom_site_fract_x
_atom_site_fract_y
_atom_site_fract_z
Si1 Si 0.86851(8) 0.56550(5) 0.90736(2)
O1 O 0.94635(19) 0.49946(13) 0.86596(6)
O2 O 0.6729(2) 0.16524(16) 0.79765(6)
H1 H 0.7385 0.2086 0.7950
N1 N 0.9433(2) 0.24794(16) 0.80607(7)
C1 C 0.9424(5) 0.7273(3) 0.96693(15)
H2 H 1.0147 0.7751 0.9785
H3 H 0.9082 0.6847 0.9926
H4 H 0.8625 0.7658 0.9537
C2 C 1.1392(4) 0.6011(3) 0.94812(15)
H5 H 1.2097 0.6507 0.9592
H6 H 1.1815 0.5591 0.9236
H7 H 1.1095 0.5571 0.9739
C3 C 0.4587(4) 0.4422(3) 0.80704(14)
H8 H 0.4525 0.4834 0.7799
C4 C 0.4802(3) 0.10110(19) 0.84188(9)
C5 C 0.7168(3) 0.64017(19) 0.88201(9)
C6 C 1.0091(3) 0.6581(2) 0.92886(10)
C7 C 1.0017(3) 0.34528(19) 0.82455(9)
H9 H 1.0743 0.3301 0.8490
C8 C 0.7056(3) 0.1630(2) 0.88184(9)
H10 H 0.6707 0.1987 0.9103
C9 C 0.2443(3) -0.0303(2) 0.84225(11)
H11 H 0.1634 -0.0741 0.8424
C10 C 0.8135(3) 0.4716(2) 0.95356(9)
C11 C 0.5086(4) 0.7638(2) 0.83983(13)
H12 H 0.4376 0.8049 0.8255
C12 C 0.2971(3) 0.0073(2) 0.80090(11)
H13 H 0.2536 -0.0114 0.7724
C13 C 0.5349(3) 0.2854(2) 0.84347(10)
C14 C 0.6096(3) 0.6889(2) 0.90818(11)
H14 H 0.6078 0.6803 0.9409
C15 C 0.4275(3) 0.0613(2) 0.88351(10)
H15 H 0.4719 0.0788 0.9120
C16 C 0.7831(3) 0.0650(2) 0.89374(10)
C17 C 0.7156(3) 0.6570(2) 0.83452(9)
H16 H 0.7865 0.6254 0.8158
C18 C 0.9084(4) 0.3931(2) 0.96479(10)
H17 H 0.9975 0.3902 0.9492
C19 C 0.4142(3) 0.0727(2) 0.80099(10)
H18 H 0.4495 0.0984 0.7724
C20 C 0.6043(3) 0.1778(2) 0.84115(9)
C21 C 0.8682(3) 0.1589(2) 0.88030(9)
H19 H 0.9144 0.1934 0.9074
C22 C 0.9614(3) 0.1585(2) 0.83686(10)
H20 H 1.0625 0.1548 0.8465
H21 H 0.9401 0.0958 0.8189
C23 C 0.8775(4) 0.3193(2) 0.99779(10)
H22 H 0.9445 0.2668 1.0044
C24 C 0.7496(4) 0.3223(2) 1.02095(11)
H23 H 0.7284 0.2726 1.0439
C25 C 0.6523(4) 0.3980(3) 1.01066(12)
H24 H 0.5633 0.3999 1.0264
C26 C 0.8838(3) 0.41042(19) 0.84500(10)
H25 H 0.8163 0.4312 0.8203
H26 H 0.8306 0.3708 0.8686
C27 C 0.6134(4) 0.7189(2) 0.81331(11)
H27 H 0.6161 0.7300 0.7808
C28 C 0.6842(3) 0.4720(2) 0.97718(12)
H28 H 0.6160 0.5236 0.9704
C29 C 0.3104(3) -0.0036(2) 0.88326(11)
H29 H 0.2753 -0.0300 0.9118
C30 C 0.7766(4) -0.0258(2) 0.86091(11)
H30 H 0.7181 -0.0799 0.8747
H31 H 0.8731 -0.0517 0.8554
H32 H 0.7343 -0.0043 0.8314
C31 C 0.4750(4) 0.3222(2) 0.88495(11)
H33 H 0.4782 0.2809 0.9120
C32 C 1.0138(4) 0.2300(2) 0.76125(10)
H34 H 0.9544 0.1861 0.7410
H35 H 1.1079 0.1971 0.7657
C33 C 0.5252(3) 0.3471(2) 0.80452(11)
H36 H 0.5641 0.3244 0.7759
C34 C 1.0300(4) 0.3350(2) 0.74090(11)
H37 H 0.9390 0.3601 0.7278
H38 H 1.1044 0.3364 0.7165
C35 C 0.4019(4) 0.4777(3) 0.84792(15)
H39 H 0.3567 0.5427 0.8493
C36 C 0.5069(3) 0.7489(2) 0.88722(13)
H40 H 0.4348 0.7801 0.9055
C37 C 0.7829(4) 0.0329(3) 0.94444(11)
H41 H 0.7867 0.0939 0.9642
H42 H 0.8662 -0.0102 0.9507
H43 H 0.6957 -0.0056 0.9512
C38 C 0.4118(4) 0.4171(3) 0.88704(13)
H44 H 0.3745 0.4411 0.9157
C39 C 1.0744(4) 0.3968(3) 0.78322(12)
H45 H 1.0426 0.4687 0.7802
H46 H 1.1793 0.3958 0.7870
C40 C 1.0576(4) 0.7267(3) 0.88851(14)
H47 H 1.1305 0.7746 0.8996
H48 H 0.9758 0.7650 0.8765
H49 H 1.0976 0.6842 0.8637
loop_
_geom_bond_atom_site_label_1
_geom_bond_atom_site_label_2
_geom_bond_site_symmetry_1
_geom_bond_site_symmetry_2
Si1 O1 1_555 1_555
O1 C26 1_555 1_555
O2 H1 1_555 1_555
N1 C7 1_555 1_555
C1 H2 1_555 1_555
H3 C1 1_555 1_555
H4 C1 1_555 1_555
C2 H5 1_555 1_555
H6 C2 1_555 1_555
H7 C2 1_555 1_555
C3 H8 1_555 1_555
C4 C15 1_555 1_555
C5 Si1 1_555 1_555
C6 Si1 1_555 1_555
C7 H9 1_555 1_555
C8 H10 1_555 1_555
C9 H11 1_555 1_555
C10 Si1 1_555 1_555
C11 H12 1_555 1_555
C12 C9 1_555 1_555
H13 C12 1_555 1_555
C13 C20 1_555 1_555
C14 C5 1_555 1_555
H14 C14 1_555 1_555
C15 H15 1_555 1_555
C16 C8 1_555 1_555
C17 C5 1_555 1_555
H16 C17 1_555 1_555
C18 C10 1_555 1_555
H17 C18 1_555 1_555
C19 C4 1_555 1_555
H18 C19 1_555 1_555
C20 O2 1_555 1_555
C21 C8 1_555 1_555
H19 C21 1_555 1_555
C22 N1 1_555 1_555
H20 C22 1_555 1_555
H21 C22 1_555 1_555
C23 C18 1_555 1_555
H22 C23 1_555 1_555
C24 C23 1_555 1_555
H23 C24 1_555 1_555
C25 C24 1_555 1_555
H24 C25 1_555 1_555
C26 C7 1_555 1_555
H25 C26 1_555 1_555
H26 C26 1_555 1_555
C27 C11 1_555 1_555
H27 C27 1_555 1_555
C28 C10 1_555 1_555
H28 C28 1_555 1_555
C29 C9 1_555 1_555
H29 C29 1_555 1_555
C30 C16 1_555 1_555
H30 C30 1_555 1_555
H31 C30 1_555 1_555
H32 C30 1_555 1_555
C31 C13 1_555 1_555
H33 C31 1_555 1_555
C32 N1 1_555 1_555
H34 C32 1_555 1_555
H35 C32 1_555 1_555
C33 C3 1_555 1_555
H36 C33 1_555 1_555
C34 C32 1_555 1_555
H37 C34 1_555 1_555
H38 C34 1_555 1_555
C35 C3 1_555 1_555
H39 C35 1_555 1_555
C36 C11 1_555 1_555
H40 C36 1_555 1_555
C37 C16 1_555 1_555
H41 C37 1_555 1_555
H42 C37 1_555 1_555
H43 C37 1_555 1_555
C38 C31 1_555 1_555
H44 C38 1_555 1_555
C39 C7 1_555 1_555
H45 C39 1_555 1_555
H46 C39 1_555 1_555
C40 C6 1_555 1_555
H47 C40 1_555 1_555
H48 C40 1_555 1_555
H49 C40 1_555 1_555
C1 C6 1_555 1_555
C2 C6 1_555 1_555
C4 C20 1_555 1_555
C8 C20 1_555 1_555
C12 C19 1_555 1_555
C13 C33 1_555 1_555
C14 C36 1_555 1_555
C15 C29 1_555 1_555
C16 C21 1_555 1_555
C17 C27 1_555 1_555
C21 C22 1_555 1_555
C25 C28 1_555 1_555
C34 C39 1_555 1_555
C35 C38 1_555 1_555

#END
