
#######################################################################
#
#                 Cambridge Crystallographic Data Centre
#                                CCDC 
#
#######################################################################
#
# If this CIF has been generated from an entry in the Cambridge 
# Structural Database, then it will include bibliographic, chemical, 
# crystal, experimental, refinement or atomic coordinate data resulting 
# from the CCDC's data processing and validation procedures.
#
#######################################################################

data_TUKTIC
_chemical_compound_source        'Ripe pods of Bixa orellana L'
_chemical_formula_moiety         'C26 H32 O4'
_chemical_name_systematic        'Methyl \a-bixin'
_symmetry_cell_setting           monoclinic
_symmetry_space_group_name_H-M   'P 21/a'
_symmetry_Int_Tables_number      14
_space_group_name_Hall           '-P 2yab'
loop_
_symmetry_equiv_pos_site_id
_symmetry_equiv_pos_as_xyz
1 x,y,z
2 1/2-x,1/2+y,-z
3 -x,-y,-z
4 1/2+x,1/2-y,z
_cell_length_a                   10.276(4)
_cell_length_b                   13.319(4)
_cell_length_c                   17.375(6)
_cell_angle_alpha                90
_cell_angle_beta                 92.06(3)
_cell_angle_gamma                90
_cell_volume                     2376.51
_exptl_crystal_colour            'dark red'
_cell_formula_units_Z            4
loop_
_atom_site_label
_atom_site_type_symbol
_atom_site_fract_x
_atom_site_fract_y
_atom_site_fract_z
C1 C 0.9586(2) 0.0024(2) -0.3608(1)
C2 C 0.8856(2) -0.0792(2) -0.3260(1)
C3 C 0.7939(2) -0.0591(2) -0.2757(1)
C4 C 0.7146(2) -0.1312(2) -0.2358(1)
C5 C 0.6308(2) -0.0963(2) -0.1835(1)
C6 C 0.5458(2) -0.1546(2) -0.1374(1)
C7 C 0.4657(2) -0.1150(2) -0.0855(1)
C8 C 0.3758(2) -0.1701(2) -0.0392(1)
C9 C 0.2959(2) -0.1190(2) 0.0070(1)
C10 C 0.1945(2) -0.1587(2) 0.0530(1)
C11 C 0.1087(2) -0.1006(2) 0.0908(1)
C12 C 0.0004(2) -0.1402(2) 0.1308(1)
C13 C -0.0952(2) -0.0879(2) 0.1645(1)
C14 C -0.1978(2) -0.1413(2) 0.2018(1)
C15 C -0.2943(2) -0.0992(2) 0.2417(1)
C16 C -0.3935(2) -0.1561(2) 0.2797(1)
C17 C -0.4813(2) -0.1191(2) 0.3290(1)
C18 C -0.4807(2) -0.0154(2) 0.3542(1)
C19 C -0.5611(2) 0.0247(2) 0.4047(1)
C20 C -0.5549(2) 0.1306(2) 0.4247(1)
C21 C 0.7287(2) -0.2407(2) -0.2550(2)
C22 C 0.3714(2) -0.2826(2) -0.0470(2)
C23 C -0.1006(2) 0.0244(2) 0.1650(1)
C24 C -0.5830(2) -0.1873(2) 0.3614(2)
C25 C 1.1415(2) 0.0410(2) -0.4346(2)
C26 C -0.6665(2) 0.2605(2) 0.4901(2)
O1 O 0.9311(2) 0.0908(1) -0.3583(1)
O2 O 1.0624(2) -0.0332(1) -0.3972(1)
O3 O -0.4732(2) 0.1898(1) 0.4051(1)
O4 O -0.6544(2) 0.1563(1) 0.4693(1)
H1 H 0.9036(2) -0.1468(2) -0.3392(1)
H2 H 0.7789(2) 0.0098(2) -0.2649(1)
H3 H 0.6202(2) -0.0256(2) -0.1766(1)
H4 H 0.5458(2) -0.2255(2) -0.1438(1)
H5 H 0.4686(2) -0.0443(2) -0.0788(1)
H6 H 0.3084(2) -0.0484(2) 0.0094(1)
H7 H 0.1869(2) -0.2295(2) 0.0572(1)
H8 H 0.1213(2) -0.0300(2) 0.0907(1)
H9 H -0.0049(2) -0.2112(2) 0.1340(1)
H10 H -0.1974(2) -0.2125(2) 0.1980(1)
H11 H -0.2971(2) -0.0280(2) 0.2451(1)
H12 H -0.3976(2) -0.2261(2) 0.2691(1)
H13 H -0.4178(2) 0.0279(2) 0.3330(1)
H14 H -0.6235(2) -0.0169(2) 0.4281(1)
H15 H 0.8180(4) -0.2624(3) -0.2423(8)
H16 H 0.7094(14) -0.2509(3) -0.3101(2)
H17 H 0.6678(10) -0.2801(2) -0.2251(6)
H18 H 0.4581(4) -0.3104(2) -0.0350(9)
H19 H 0.3442(13) -0.3005(2) -0.0998(3)
H20 H 0.3092(10) -0.3101(2) -0.0111(6)
H21 H -0.0965(14) 0.0486(2) 0.2103(2)
H22 H -0.1821(7) 0.0469(2) 0.1396(7)
H23 H -0.0266(8) 0.0513(2) 0.1375(7)
H24 H -0.6700(2) -0.1627(6) 0.3460(7)
H25 H -0.5736(9) -0.1881(8) 0.4177(2)
H26 H -0.5716(9) -0.2555(3) 0.3415(6)
H27 H 1.2113(9) 0.0072(3) -0.4615(7)
H28 H 1.1796(12) 0.0868(7) -0.3958(2)
H29 H 1.0872(4) 0.0791(8) -0.4717(6)
H30 H -0.6506(14) 0.2681(2) 0.5458(2)
H31 H -0.7545(5) 0.2841(4) 0.4761(8)
H32 H -0.6027(10) 0.3003(2) 0.4627(7)
loop_
_geom_bond_atom_site_label_1
_geom_bond_atom_site_label_2
_geom_bond_site_symmetry_1
_geom_bond_site_symmetry_2
C1 C2 1_555 1_555
C2 C3 1_555 1_555
C3 C4 1_555 1_555
C4 C5 1_555 1_555
C5 C6 1_555 1_555
C6 C7 1_555 1_555
C7 C8 1_555 1_555
C8 C9 1_555 1_555
C9 C10 1_555 1_555
C10 C11 1_555 1_555
C11 C12 1_555 1_555
C12 C13 1_555 1_555
C13 C14 1_555 1_555
C14 C15 1_555 1_555
C15 C16 1_555 1_555
C16 C17 1_555 1_555
C17 C18 1_555 1_555
C18 C19 1_555 1_555
C19 C20 1_555 1_555
C20 O3 1_555 1_555
C21 C4 1_555 1_555
C22 C8 1_555 1_555
C23 C13 1_555 1_555
C24 C17 1_555 1_555
C25 O2 1_555 1_555
C26 O4 1_555 1_555
O1 C1 1_555 1_555
O2 C1 1_555 1_555
O4 C20 1_555 1_555
H1 C2 1_555 1_555
H2 C3 1_555 1_555
H3 C5 1_555 1_555
H4 C6 1_555 1_555
H5 C7 1_555 1_555
H6 C9 1_555 1_555
H7 C10 1_555 1_555
H8 C11 1_555 1_555
H9 C12 1_555 1_555
H10 C14 1_555 1_555
H11 C15 1_555 1_555
H12 C16 1_555 1_555
H13 C18 1_555 1_555
H14 C19 1_555 1_555
H15 C21 1_555 1_555
H16 C21 1_555 1_555
H17 C21 1_555 1_555
H18 C22 1_555 1_555
H19 C22 1_555 1_555
H20 C22 1_555 1_555
H21 C23 1_555 1_555
H22 C23 1_555 1_555
H23 C23 1_555 1_555
H24 C24 1_555 1_555
H25 C24 1_555 1_555
H26 C24 1_555 1_555
H27 C25 1_555 1_555
H28 C25 1_555 1_555
H29 C25 1_555 1_555
H30 C26 1_555 1_555
H31 C26 1_555 1_555
H32 C26 1_555 1_555

#END
