
#######################################################################
#
#                 Cambridge Crystallographic Data Centre
#                                CCDC 
#
#######################################################################
#
# If this CIF has been generated from an entry in the Cambridge 
# Structural Database, then it will include bibliographic, chemical, 
# crystal, experimental, refinement or atomic coordinate data resulting 
# from the CCDC's data processing and validation procedures.
#
#######################################################################

data_TUKVOK
_chemical_formula_moiety         'C28 H22 N1 O3 P1,C2 H6 O1'
_chemical_name_systematic        
"(RS)-O,O-(2,2'-Binaphthyl)-N-(1-phenylethyl)phosphoramidate ethanol clathrate"
_symmetry_cell_setting           monoclinic
_symmetry_space_group_name_H-M   'P 21'
_symmetry_Int_Tables_number      4
_space_group_name_Hall           'P 2yb'
loop_
_symmetry_equiv_pos_site_id
_symmetry_equiv_pos_as_xyz
1 x,y,z
2 -x,1/2+y,-z
_cell_length_a                   9.359(2)
_cell_length_b                   12.806(3)
_cell_length_c                   11.641
_cell_angle_alpha                90
_cell_angle_beta                 111.62(3)
_cell_angle_gamma                90
_cell_volume                     1297.04
_cell_formula_units_Z            2
loop_
_atom_site_label
_atom_site_type_symbol
_atom_site_fract_x
_atom_site_fract_y
_atom_site_fract_z
P1 P -0.3594(1) -0.3316 -0.9243(1)
O1 O -0.4408(2) -0.2762(2) -0.8424(2)
O2 O -0.2120(2) -0.3850(1) -0.8228(1)
O3 O -0.4417(2) -0.4141(2) -1.0083(2)
N1 N -0.3144(3) -0.2321(2) -0.9881(2)
C1 C -0.4494(2) -0.3297(2) -0.7392(2)
C2 C -0.3214(2) -0.3399(2) -0.6341(2)
C3 C -0.3366(3) -0.3987(2) -0.5339(2)
C4 C -0.4826(3) -0.4378(2) -0.5441(3)
C5 C -0.6101(3) -0.4190(3) -0.6543(3)
C6 C -0.5952(3) -0.3671(2) -0.7512(3)
C7 C -0.2087(3) -0.4241(2) -0.4246(2)
C8 C -0.2263(4) -0.4816(2) -0.3316(3)
C9 C -0.3725(4) -0.5174(3) -0.3419(3)
C10 C -0.4971(4) -0.4970(3) -0.4462(3)
C11 C -0.1202(2) -0.3240(2) -0.7231(2)
C12 C -0.1704(3) -0.2991(2) -0.6303(2)
C13 C -0.0751(3) -0.2326(2) -0.5332(2)
C14 C 0.0740(3) -0.2057(2) -0.5305(2)
C15 C 0.1204(3) -0.2394(2) -0.6272(2)
C16 C 0.0243(3) -0.2948(2) -0.7232(2)
C17 C -0.1228(3) -0.1894(2) -0.4414(2)
C18 C -0.0265(4) -0.1271(2) -0.3499(3)
C19 C 0.1226(4) -0.1055(2) -0.3435(3)
C20 C 0.1720(3) -0.1434(2) -0.4321(3)
C21 C -0.1067(3) -0.2079(2) -1.0670(2)
C22 C -0.0591(4) -0.1060(2) -1.0311(3)
C23 C 0.0919(4) -0.0765(3) -1.0052(3)
C24 C 0.1978(4) -0.1444(3) -1.0146(3)
C25 C 0.1555(4) -0.2447(3) -1.0498(3)
C26 C 0.0043(4) -0.2765(2) -1.0765(3)
C27 C -0.2702(3) -0.2425(3) -1.0971(2)
C28 C -0.3838(5) -0.1849(5) -1.2060(3)
O4 O -0.2914(3) -0.0221(2) -0.8863(2)
C29 C -0.2436(6) -0.0226(3) -0.7557(3)
C30 C -0.2313(5) 0.0808(3) -0.6990(4)
loop_
_geom_bond_atom_site_label_1
_geom_bond_atom_site_label_2
_geom_bond_site_symmetry_1
_geom_bond_site_symmetry_2
P1 O1 1_555 1_555
O1 C1 1_555 1_555
O2 P1 1_555 1_555
O3 P1 1_555 1_555
O4 C29 1_555 1_555
N1 P1 1_555 1_555
C1 C2 1_555 1_555
C2 C3 1_555 1_555
C3 C4 1_555 1_555
C4 C5 1_555 1_555
C5 C6 1_555 1_555
C6 C1 1_555 1_555
C7 C3 1_555 1_555
C8 C7 1_555 1_555
C9 C8 1_555 1_555
C10 C4 1_555 1_555
C11 O2 1_555 1_555
C12 C2 1_555 1_555
C13 C12 1_555 1_555
C14 C13 1_555 1_555
C15 C14 1_555 1_555
C16 C11 1_555 1_555
C17 C13 1_555 1_555
C18 C17 1_555 1_555
C19 C18 1_555 1_555
C20 C14 1_555 1_555
C21 C22 1_555 1_555
C22 C23 1_555 1_555
C23 C24 1_555 1_555
C24 C25 1_555 1_555
C25 C26 1_555 1_555
C26 C21 1_555 1_555
C27 N1 1_555 1_555
C28 C27 1_555 1_555
C29 C30 1_555 1_555
C9 C10 1_555 1_555
C11 C12 1_555 1_555
C15 C16 1_555 1_555
C19 C20 1_555 1_555
C21 C27 1_555 1_555

#END
