
#######################################################################
#
#                 Cambridge Crystallographic Data Centre
#                                CCDC 
#
#######################################################################
#
# If this CIF has been generated from an entry in the Cambridge 
# Structural Database, then it will include bibliographic, chemical, 
# crystal, experimental, refinement or atomic coordinate data resulting 
# from the CCDC's data processing and validation procedures.
#
#######################################################################

data_TUKXUU
_chemical_formula_moiety         'C22 H16 N2 O8 S1'
_chemical_name_systematic        
'methyl 1-((4-methylphenyl)sulfonyl)-6-(4-nitrophenyl)-3-oxo-1,3-dihydro-2,1-benzoxazole-5-carboxylate'
_symmetry_cell_setting           triclinic
_symmetry_space_group_name_H-M   'P -1'
_symmetry_Int_Tables_number      2
_space_group_name_Hall           '-P 1'
loop_
_symmetry_equiv_pos_site_id
_symmetry_equiv_pos_as_xyz
1 x,y,z
2 -x,-y,-z
_cell_length_a                   7.9485(5)
_cell_length_b                   11.7009(7)
_cell_length_c                   12.1735(7)
_cell_angle_alpha                115.4820(10)
_cell_angle_beta                 91.0210(10)
_cell_angle_gamma                97.4060(10)
_cell_volume                     1010.13
_exptl_crystal_colour            'pale yellow'
_exptl_crystal_description       tabular
_cell_formula_units_Z            2
loop_
_atom_site_label
_atom_site_type_symbol
_atom_site_fract_x
_atom_site_fract_y
_atom_site_fract_z
S1 S 0.36815(4) 0.12108(3) 0.46805(3)
O1 O 0.25752(18) -0.26288(11) 0.99960(13)
O2 O 0.52267(12) 0.34742(9) 0.60231(9)
O3 O 0.51167(13) 0.55339(9) 0.72696(9)
O4 O 0.2277(2) -0.12057(13) 1.18186(12)
O5 O 0.09640(15) 0.33610(10) 1.09666(10)
O6 O 0.21296(14) 0.52748(9) 1.11181(9)
O7 O 0.30393(13) 0.01247(9) 0.48782(9)
O8 O 0.48728(12) 0.11426(9) 0.37999(9)
N1 N 0.47944(15) 0.22515(11) 0.60562(10)
N2 N 0.24204(18) -0.15390(12) 1.07284(13)
C1 C -0.2145(2) 0.35963(16) 0.37584(15)
H1 H -0.2986 0.2894 0.3181
H2 H -0.1731 0.4168 0.3392
H3 H -0.2676 0.4078 0.4508
C2 C -0.06731(18) 0.30568(13) 0.40576(13)
C3 C -0.09008(18) 0.22830(13) 0.46700(13)
H4 H -0.1987 0.2128 0.4935
C4 C 0.04310(18) 0.17372(13) 0.48972(13)
H5 H 0.0269 0.1216 0.5319
C5 C 0.20187(17) 0.19686(13) 0.44937(12)
C6 C 0.39977(17) 0.25091(13) 0.71535(12)
C7 C 0.34970(18) 0.16593(13) 0.76456(12)
H6 H 0.3558 0.0772 0.7206
C8 C 0.29005(17) 0.21488(13) 0.88069(12)
C9 C 0.26173(18) 0.12341(13) 0.93675(12)
C10 C 0.16939(19) 0.00099(13) 0.86947(13)
H7 H 0.1117 -0.0196 0.7928
C11 C 0.16136(19) -0.09063(13) 0.91385(13)
H8 H 0.1006 -0.1744 0.8680
C12 C 0.24435(19) -0.05637(13) 1.02662(13)
C13 C 0.09393(19) 0.32897(14) 0.36894(13)
H9 H 0.1111 0.3827 0.3285
C14 C 0.22898(18) 0.27550(13) 0.39014(12)
H10 H 0.3381 0.2921 0.3648
C15 C 0.47611(17) 0.44459(13) 0.70880(12)
C16 C 0.39574(17) 0.38089(13) 0.77864(12)
C17 C 0.33365(19) 0.06428(13) 1.09718(13)
H11 H 0.3871 0.0851 1.1752
C18 C 0.34295(18) 0.15405(13) 1.05066(13)
H12 H 0.4052 0.2372 1.0967
C19 C 0.27441(17) 0.34738(13) 0.94259(12)
C20 C 0.18564(17) 0.39922(13) 1.05831(13)
C21 C 0.1179(2) 0.58902(15) 1.21600(14)
H13 H -0.0038 0.5573 1.1932
H14 H 0.1385 0.6819 1.2429
H15 H 0.1547 0.5696 1.2826
C22 C 0.33085(17) 0.43086(13) 0.89255(12)
H16 H 0.3252 0.5198 0.9351
loop_
_geom_bond_atom_site_label_1
_geom_bond_atom_site_label_2
_geom_bond_site_symmetry_1
_geom_bond_site_symmetry_2
S1 O7 1_555 1_555
O1 N2 1_555 1_555
O2 N1 1_555 1_555
O3 C15 1_555 1_555
O4 N2 1_555 1_555
O5 C20 1_555 1_555
O6 C20 1_555 1_555
O8 S1 1_555 1_555
N1 S1 1_555 1_555
N2 C12 1_555 1_555
C1 H1 1_555 1_555
H2 C1 1_555 1_555
H3 C1 1_555 1_555
C2 C1 1_555 1_555
C3 C2 1_555 1_555
H4 C3 1_555 1_555
C4 C3 1_555 1_555
H5 C4 1_555 1_555
C5 S1 1_555 1_555
C6 N1 1_555 1_555
C7 C6 1_555 1_555
H6 C7 1_555 1_555
C8 C7 1_555 1_555
C9 C8 1_555 1_555
C10 C9 1_555 1_555
H7 C10 1_555 1_555
C11 C10 1_555 1_555
H8 C11 1_555 1_555
C12 C11 1_555 1_555
C13 C2 1_555 1_555
H9 C13 1_555 1_555
C14 C5 1_555 1_555
H10 C14 1_555 1_555
C15 O2 1_555 1_555
C16 C6 1_555 1_555
C17 C12 1_555 1_555
H11 C17 1_555 1_555
C18 C9 1_555 1_555
H12 C18 1_555 1_555
C19 C8 1_555 1_555
C20 C19 1_555 1_555
C21 O6 1_555 1_555
H13 C21 1_555 1_555
H14 C21 1_555 1_555
H15 C21 1_555 1_555
C22 C16 1_555 1_555
H16 C22 1_555 1_555
C4 C5 1_555 1_555
C13 C14 1_555 1_555
C15 C16 1_555 1_555
C17 C18 1_555 1_555
C19 C22 1_555 1_555

#END
