
#######################################################################
#
#                 Cambridge Crystallographic Data Centre
#                                CCDC 
#
#######################################################################
#
# If this CIF has been generated from an entry in the Cambridge 
# Structural Database, then it will include bibliographic, chemical, 
# crystal, experimental, refinement or atomic coordinate data resulting 
# from the CCDC's data processing and validation procedures.
#
#######################################################################

data_TUKXOO
_chemical_formula_moiety         'C41 H31 N2 O7 P1 S1'
_chemical_name_systematic        
'methyl 1-((4-methylphenyl)sulfonyl)-6-(4-nitrophenyl)-2-oxo-3-(triphenylphosphoranylidene)indoline-5-carboxylate'
_symmetry_cell_setting           triclinic
_symmetry_space_group_name_H-M   'P -1'
_symmetry_Int_Tables_number      2
_space_group_name_Hall           '-P 1'
loop_
_symmetry_equiv_pos_site_id
_symmetry_equiv_pos_as_xyz
1 x,y,z
2 -x,-y,-z
_cell_length_a                   10.1828(4)
_cell_length_b                   10.7540(4)
_cell_length_c                   16.2764(7)
_cell_angle_alpha                81.419(2)
_cell_angle_beta                 74.852(2)
_cell_angle_gamma                85.151(2)
_cell_volume                     1699.23
_exptl_crystal_colour            yellow
_exptl_crystal_description       tabular
_cell_formula_units_Z            2
loop_
_atom_site_label
_atom_site_type_symbol
_atom_site_fract_x
_atom_site_fract_y
_atom_site_fract_z
C1 C 0.0674(3) 0.5592(3) 0.3634(2)
H1 H -0.0217 0.5934 0.3857
C2 C 0.0933(3) 0.4299(3) 0.3723(2)
H2 H 0.0214 0.3757 0.4004
C3 C 0.2230(3) 0.3790(3) 0.34058(19)
H3 H 0.2401 0.2903 0.3475
C4 C 0.3289(3) 0.4584(2) 0.29822(18)
C5 C 0.5220(3) 0.2544(2) 0.22230(18)
C6 C 0.6067(3) 0.2169(2) 0.14207(18)
C7 C 0.5938(3) 0.0867(2) 0.14402(18)
C8 C 0.6611(3) 0.0213(2) 0.07693(18)
H4 H 0.6503 -0.0663 0.0803
C9 C 0.7455(3) 0.0863(2) 0.00399(18)
C10 C 0.8157(3) 0.0132(2) -0.06814(19)
C11 C 0.9179(3) -0.0784(2) -0.05748(19)
H5 H 0.9428 -0.0939 -0.0044
C12 C 0.9832(3) -0.1470(3) -0.12350(19)
H6 H 1.0538 -0.2082 -0.1168
C13 C 0.9430(3) -0.1240(2) -0.19942(18)
C14 C 0.8634(3) -0.1477(3) 0.3182(2)
H7 H 0.9549 -0.1635 0.2874
C15 C 0.9479(3) -0.1330(3) 0.4492(2)
H8 H 0.9142 -0.0947 0.5023
H9 H 1.0251 -0.0868 0.4118
H10 H 0.9774 -0.2210 0.4631
C16 C 0.8362(3) -0.1274(3) 0.4041(2)
C17 C 0.7018(3) -0.1044(3) 0.4478(2)
H11 H 0.6816 -0.0908 0.5062
C18 C 0.5962(3) -0.1007(3) 0.40804(19)
H12 H 0.5048 -0.0844 0.4387
C19 C 0.6262(3) -0.1213(2) 0.32288(18)
C20 C 0.4629(3) 0.1453(2) 0.27521(19)
C21 C 0.5853(3) 0.4054(3) 0.34507(18)
C22 C 0.6339(3) 0.2956(3) 0.3873(2)
H13 H 0.6250 0.2160 0.3711
C23 C 0.6954(3) 0.3033(3) 0.4533(2)
H14 H 0.7271 0.2287 0.4829
C24 C 0.7104(3) 0.4188(4) 0.4756(2)
H15 H 0.7536 0.4235 0.5201
C25 C 0.6628(3) 0.5287(3) 0.4337(2)
H16 H 0.6737 0.6082 0.4492
C26 C 0.5996(3) 0.5215(3) 0.3694(2)
H17 H 0.5655 0.5963 0.3413
C27 C 0.1722(3) 0.6383(3) 0.32174(19)
H18 H 0.1547 0.7269 0.3155
C28 C 0.3023(3) 0.5886(2) 0.28920(19)
H19 H 0.3736 0.6432 0.2606
C29 C 0.5805(3) 0.5138(2) 0.17069(18)
C30 C 0.7112(3) 0.5533(2) 0.15995(19)
H20 H 0.7599 0.5254 0.2023
C31 C 0.7699(3) 0.6337(3) 0.0871(2)
H21 H 0.8589 0.6614 0.0795
C32 C 0.6984(3) 0.6737(3) 0.0252(2)
H22 H 0.7393 0.7280 -0.0250
C33 C 0.5688(3) 0.6351(3) 0.0361(2)
H23 H 0.5199 0.6636 -0.0061
C34 C 0.5099(3) 0.5551(2) 0.10833(19)
H24 H 0.4207 0.5280 0.1156
C35 C 0.8400(3) -0.0361(3) -0.21200(19)
H25 H 0.8132 -0.0234 -0.2645
C36 C 0.7772(3) 0.0326(3) -0.14535(19)
H26 H 0.7068 0.0940 -0.1525
C37 C 0.7597(3) 0.2156(2) 0.00042(18)
C38 C 0.8546(3) 0.2874(2) -0.07382(19)
C39 C 0.9063(3) 0.4944(3) -0.1453(2)
H27 H 0.9692 0.5277 -0.1184
H28 H 0.8528 0.5642 -0.1687
H29 H 0.9584 0.4480 -0.1917
C40 C 0.6907(3) 0.2806(2) 0.06916(18)
H30 H 0.7014 0.3682 0.0658
C41 C 0.7602(3) -0.1453(2) 0.2775(2)
H31 H 0.7800 -0.1599 0.2192
N1 N 0.5021(2) 0.04233(19) 0.22260(15)
N2 N 1.0126(2) -0.1968(2) -0.27015(16)
O1 O 0.9963(2) -0.16026(19) -0.34166(14)
O2 O 0.3937(2) 0.12917(17) 0.34965(13)
O3 O 1.0826(2) -0.29108(19) -0.25278(14)
O4 O 0.9550(2) 0.24350(18) -0.11968(13)
O5 O 0.5325(2) -0.18294(17) 0.20108(13)
O6 O 0.3669(2) -0.12131(17) 0.33037(14)
O7 O 0.8158(2) 0.41066(17) -0.08173(13)
P1 P 0.50367(7) 0.40010(6) 0.25984(5)
S1 S 0.49591(7) -0.10713(6) 0.26967(5)
loop_
_geom_bond_atom_site_label_1
_geom_bond_atom_site_label_2
_geom_bond_site_symmetry_1
_geom_bond_site_symmetry_2
C1 H1 1_555 1_555
C2 C1 1_555 1_555
H2 C2 1_555 1_555
C3 C2 1_555 1_555
H3 C3 1_555 1_555
C4 C3 1_555 1_555
C5 C6 1_555 1_555
C6 C7 1_555 1_555
C7 C8 1_555 1_555
C8 H4 1_555 1_555
C9 C8 1_555 1_555
C10 C9 1_555 1_555
C11 C10 1_555 1_555
H5 C11 1_555 1_555
C12 C11 1_555 1_555
H6 C12 1_555 1_555
C13 C12 1_555 1_555
C14 H7 1_555 1_555
C15 H8 1_555 1_555
H9 C15 1_555 1_555
H10 C15 1_555 1_555
C16 C14 1_555 1_555
C17 C16 1_555 1_555
H11 C17 1_555 1_555
C18 C17 1_555 1_555
H12 C18 1_555 1_555
C19 C18 1_555 1_555
C20 C5 1_555 1_555
C21 C22 1_555 1_555
C22 H13 1_555 1_555
C23 C22 1_555 1_555
H14 C23 1_555 1_555
C24 C23 1_555 1_555
H15 C24 1_555 1_555
C25 C24 1_555 1_555
H16 C25 1_555 1_555
C26 C21 1_555 1_555
H17 C26 1_555 1_555
C27 C1 1_555 1_555
H18 C27 1_555 1_555
C28 C4 1_555 1_555
H19 C28 1_555 1_555
C29 C30 1_555 1_555
C30 H20 1_555 1_555
C31 C30 1_555 1_555
H21 C31 1_555 1_555
C32 C31 1_555 1_555
H22 C32 1_555 1_555
C33 C32 1_555 1_555
H23 C33 1_555 1_555
C34 C29 1_555 1_555
H24 C34 1_555 1_555
C35 C13 1_555 1_555
H25 C35 1_555 1_555
C36 C10 1_555 1_555
H26 C36 1_555 1_555
C37 C9 1_555 1_555
C38 C37 1_555 1_555
C39 H27 1_555 1_555
H28 C39 1_555 1_555
H29 C39 1_555 1_555
C40 C6 1_555 1_555
H30 C40 1_555 1_555
C41 C14 1_555 1_555
H31 C41 1_555 1_555
N1 C7 1_555 1_555
N2 C13 1_555 1_555
O1 N2 1_555 1_555
O2 C20 1_555 1_555
O3 N2 1_555 1_555
O4 C38 1_555 1_555
O5 S1 1_555 1_555
O6 S1 1_555 1_555
O7 C38 1_555 1_555
P1 C4 1_555 1_555
S1 C19 1_555 1_555
C5 P1 1_555 1_555
C15 C16 1_555 1_555
C19 C41 1_555 1_555
C20 N1 1_555 1_555
C21 P1 1_555 1_555
C25 C26 1_555 1_555
C27 C28 1_555 1_555
C29 P1 1_555 1_555
C33 C34 1_555 1_555
C35 C36 1_555 1_555
C37 C40 1_555 1_555
C39 O7 1_555 1_555
N1 S1 1_555 1_555

#END
