
#######################################################################
#
#                 Cambridge Crystallographic Data Centre
#                                CCDC 
#
#######################################################################
#
# If this CIF has been generated from an entry in the Cambridge 
# Structural Database, then it will include bibliographic, chemical, 
# crystal, experimental, refinement or atomic coordinate data resulting 
# from the CCDC's data processing and validation procedures.
#
#######################################################################

data_TULCUA
_chemical_formula_moiety         'C15 H15 N1 O3'
_chemical_name_systematic        3-((3,4-dimethoxyphenyl)carbonoimidoyl)phenol
_symmetry_cell_setting           orthorhombic
_symmetry_space_group_name_H-M   'P 21 21 21'
_symmetry_Int_Tables_number      19
_space_group_name_Hall           'P 2ac 2ab'
loop_
_symmetry_equiv_pos_site_id
_symmetry_equiv_pos_as_xyz
1 x,y,z
2 1/2-x,-y,1/2+z
3 -x,1/2+y,1/2-z
4 1/2+x,1/2-y,-z
_cell_length_a                   5.3625(2)
_cell_length_b                   11.1755(5)
_cell_length_c                   21.9532(10)
_cell_angle_alpha                90
_cell_angle_beta                 90
_cell_angle_gamma                90
_cell_volume                     1315.62
_exptl_crystal_colour            purple
_exptl_crystal_description       BLOCK
_cell_formula_units_Z            4
loop_
_atom_site_label
_atom_site_type_symbol
_atom_site_fract_x
_atom_site_fract_y
_atom_site_fract_z
O1 O 0.3872(3) 0.30427(11) 0.31889(4)
O2 O 1.3297(2) 0.38663(10) -0.06266(5)
H1 H 1.254(4) 0.3113(16) -0.0667(8)
O3 O 0.0325(2) 0.16122(10) 0.28950(5)
N1 N 0.6496(2) 0.33173(10) 0.10499(4)
C1 C 0.9137(3) 0.48369(12) 0.06060(6)
C2 C 0.4848(3) 0.29421(12) 0.15215(6)
C3 C 1.0255(3) 0.40927(12) 0.01744(5)
H2 H 0.9752 0.3299 0.0138
C4 C 0.5207(3) 0.32726(12) 0.21329(6)
H3 H 0.6483 0.3798 0.2237
C5 C 1.2108(3) 0.45370(12) -0.01988(5)
C6 C 0.3656(3) 0.28147(12) 0.25796(6)
C7 C 1.2866(3) 0.57189(13) -0.01441(6)
H4 H 1.4126 0.6015 -0.0393
C8 C 0.1722(3) 0.20312(12) 0.24204(6)
C9 C 1.1751(4) 0.64529(13) 0.02786(7)
H5 H 1.2258 0.7246 0.0313
C10 C 0.1382(3) 0.17269(13) 0.18183(6)
H6 H 0.0080 0.1220 0.1710
C11 C 0.9886(3) 0.60226(13) 0.06529(6)
H7 H 0.9133 0.6526 0.0936
C12 C 0.2957(3) 0.21673(13) 0.13745(6)
H8 H 0.2733 0.1936 0.0971
C13 C 0.7267(3) 0.43890(12) 0.10378(6)
H9 H 0.6608 0.4924 0.1320
C14 C 0.5819(4) 0.38103(18) 0.33816(7)
H10 H 0.5768 0.3891 0.3817
H11 H 0.5614 0.4582 0.3196
H12 H 0.7396 0.3478 0.3262
C15 C -0.1423(4) 0.06888(15) 0.27680(8)
H13 H -0.2287 0.0476 0.3135
H14 H -0.0560 0.0001 0.2612
H15 H -0.2602 0.0966 0.2471
loop_
_geom_bond_atom_site_label_1
_geom_bond_atom_site_label_2
_geom_bond_site_symmetry_1
_geom_bond_site_symmetry_2
O1 C6 1_555 1_555
O2 H1 1_555 1_555
O3 C8 1_555 1_555
N1 C2 1_555 1_555
C1 C3 1_555 1_555
C2 C4 1_555 1_555
C3 H2 1_555 1_555
C4 H3 1_555 1_555
C5 O2 1_555 1_555
C6 C4 1_555 1_555
C7 C5 1_555 1_555
H4 C7 1_555 1_555
C8 C6 1_555 1_555
C9 C7 1_555 1_555
H5 C9 1_555 1_555
C10 C8 1_555 1_555
H6 C10 1_555 1_555
C11 C1 1_555 1_555
H7 C11 1_555 1_555
C12 C2 1_555 1_555
H8 C12 1_555 1_555
C13 N1 1_555 1_555
H9 C13 1_555 1_555
C14 O1 1_555 1_555
H10 C14 1_555 1_555
H11 C14 1_555 1_555
H12 C14 1_555 1_555
C15 O3 1_555 1_555
H13 C15 1_555 1_555
H14 C15 1_555 1_555
H15 C15 1_555 1_555
C1 C13 1_555 1_555
C3 C5 1_555 1_555
C9 C11 1_555 1_555
C10 C12 1_555 1_555

#END
