
#######################################################################
#
#                 Cambridge Crystallographic Data Centre
#                                CCDC 
#
#######################################################################
#
# If this CIF has been generated from an entry in the Cambridge 
# Structural Database, then it will include bibliographic, chemical, 
# crystal, experimental, refinement or atomic coordinate data resulting 
# from the CCDC's data processing and validation procedures.
#
#######################################################################

data_TULYOO
_chemical_formula_moiety         'C39 H71 N7 O10'
_chemical_name_systematic        
't-Butoxycarbonyl-leucyl-\a-aminobutyryl-valyl-alanyl-leucyl-\a-aminobutyryl-valate methyl ester'
_symmetry_cell_setting           monoclinic
_symmetry_space_group_name_H-M   'P 21'
_symmetry_Int_Tables_number      4
_space_group_name_Hall           'P 2yb'
loop_
_symmetry_equiv_pos_site_id
_symmetry_equiv_pos_as_xyz
1 x,y,z
2 -x,1/2+y,-z
_cell_length_a                   9.843(4)
_cell_length_b                   19.944(4)
_cell_length_c                   12.456(2)
_cell_angle_alpha                90
_cell_angle_beta                 102.51(2)
_cell_angle_gamma                90
_cell_volume                     2387.17
_cell_formula_units_Z            2
loop_
_atom_site_label
_atom_site_type_symbol
_atom_site_fract_x
_atom_site_fract_y
_atom_site_fract_z
C1 C -0.4092(17) 0.2583(10) -0.3809(14)
C2 C -0.3617(19) 0.2308(11) -0.2626(13)
C3 C -0.3366(25) 0.2181(12) -0.4569(16)
C4 C -0.5707(20) 0.2463(15) -0.4202(18)
O1 O -0.3979(10) 0.3278(7) -0.3883(8)
O2 O -0.1585(10) 0.3306(6) -0.3147(8)
C5 C -0.2738(19) 0.3582(12) -0.3590(11)
N1 N -0.2892(11) 0.4245(8) -0.3740(8)
C6 C -0.1724(13) 0.4722(10) -0.3474(9)
C7 C -0.2512(21) 0.5458(12) -0.3577(19)
C8 C -0.1687(26) 0.5975(17) -0.3113(21)
C9 C -0.2403(25) 0.6609(13) -0.2974(22)
C10 C -0.0521(28) 0.6154(17) -0.3887(22)
C11 C -0.0843(11) 0.4612(8) -0.2366(9)
O3 O 0.0429(7) 0.4723(4) -0.2173(6)
N2 N -0.1485(7) 0.4440(6) -0.1528(7)
C12 C -0.0754(10) 0.4478 -0.0383(8)
C13 C -0.1708(11) 0.4020(11) 0.0229(10)
C14 C -0.0473(14) 0.5162(8) 0.0036(12)
C15 C 0.0622(12) 0.4025(9) -0.0275(10)
O4 O 0.1654(7) 0.4195(5) 0.0427(6)
N3 N 0.0553(9) 0.3452(7) -0.0838(9)
C16 C 0.1771(14) 0.2996(10) -0.0635(12)
C17 C 0.1352(23) 0.2306(10) -0.1175(15)
C18 C 0.1133(29) 0.2343(17) -0.2267(24)
C19 C 0.2623(25) 0.1829(18) -0.0917(28)
C20 C 0.3079(12) 0.3352(8) -0.1016(9)
O5 O 0.4242(8) 0.3252(6) -0.0467(7)
N4 N 0.2754(8) 0.3784(5) -0.1816(7)
C21 C 0.3883(12) 0.4150(8) -0.2188(9)
C22 C 0.3283(14) 0.4498(10) -0.3269(10)
C23 C 0.4571(12) 0.4642(8) -0.1362(9)
O6 O 0.5772(7) 0.4865(6) -0.1375(6)
N5 N 0.3847(8) 0.4897(6) -0.0639(6)
C24 C 0.4437(12) 0.5428(8) 0.0139(10)
C25 C 0.3386(20) 0.6027(9) 0.0049(14)
C26 C 0.2967(23) 0.6350(10) -0.1039(15)
C27 C 0.1999(27) 0.6955(12) -0.0936(19)
C28 C 0.4267(28) 0.6530(14) -0.1532(23)
C29 C 0.4826(13) 0.5156(10) 0.1311(12)
O7 O 0.5061(10) 0.5551(6) 0.2096(9)
N6 N 0.4850(9) 0.4484(9) 0.1423(7)
C30 C 0.5389(15) 0.4179(11) 0.2494(9)
C31 C 0.6877(13) 0.4367(16) 0.3001(12)
C32 C 0.5258(18) 0.3403(12) 0.2299(14)
C33 C 0.4454(13) 0.4323(9) 0.3342(11)
O8 O 0.4927(8) 0.4450(6) 0.4278(6)
N7 N 0.3083(10) 0.4329(6) 0.2861(7)
C34 C 0.2069(14) 0.4417(9) 0.3601(11)
C35 C 0.1163(18) 0.5057(10) 0.3156(14)
C36 C 0.2129(29) 0.5641(11) 0.3224(30)
C37 C 0.0246(20) 0.5153(13) 0.4065(16)
C38 C 0.1259(16) 0.3799(11) 0.3521(14)
O9 O 0.0804(13) 0.3468(8) 0.2738(10)
O10 O 0.0967(11) 0.3657(7) 0.4516(9)
C39 C 0.0105(20) 0.3056(12) 0.4535(18)
H1 H -0.3732 0.1769 -0.2634
H2 H -0.4247 0.2525 -0.2105
H3 H -0.2539 0.2437 -0.2311
H4 H -0.3509 0.1651 -0.4452
H5 H -0.2268 0.2298 -0.4373
H6 H -0.3800 0.2312 -0.5415
H7 H -0.5921 0.1932 -0.4178
H8 H -0.6059 0.2646 -0.5032
H9 H -0.6247 0.2726 -0.3661
H10 H -0.3922 0.4439 -0.4070
H11 H -0.1008 0.4669 -0.4015
H12 H -0.3371 0.5422 -0.3167
H13 H -0.2906 0.5567 -0.4437
H14 H -0.1205 0.5813 -0.2291
H15 H -0.1651 0.6984 -0.2610
H16 H -0.3117 0.6520 -0.2442
H17 H -0.2973 0.6783 -0.3765
H18 H 0.0142 0.6566 -0.3536
H19 H -0.1067 0.6284 -0.4709
H20 H 0.0106 0.5713 -0.3917
H21 H -0.2548 0.4265 -0.1726
H22 H -0.1264 0.4014 0.1101
H23 H -0.1745 0.3515 -0.0089
H24 H -0.2750 0.4223 0.0086
H25 H 0.0072 0.5140 0.0887
H26 H -0.1445 0.5426 -0.0025
H27 H 0.0159 0.5423 -0.0438
H28 H -0.0383 0.3328 -0.1435
H29 H 0.2139 0.2876 0.0224
H30 H 0.0430 0.2150 -0.0903
H31 H 0.0232 0.2648 -0.2597
H32 H 0.0970 0.1842 -0.2599
H33 H 0.2039 0.2560 -0.2489
H34 H 0.2934 0.1754 -0.0039
H35 H 0.3459 0.2068 -0.1210
H36 H 0.2390 0.1351 -0.1320
H37 H 0.1678 0.3870 -0.2210
H38 H 0.4667 0.3792 -0.2296
H39 H 0.4098 0.4766 -0.3544
H40 H 0.2488 0.4847 -0.3153
H41 H 0.2833 0.4129 -0.3878
H42 H 0.2822 0.4704 -0.0635
H43 H 0.5376 0.5618 -0.0068
H44 H 0.3855 0.6407 0.0629
H45 H 0.2459 0.5838 0.0275
H46 H 0.2375 0.6007 -0.1631
H47 H 0.1681 0.7195 -0.1728
H48 H 0.2541 0.7313 -0.0344
H49 H 0.1092 0.6772 -0.0671
H50 H 0.3913 0.6764 -0.2325
H51 H 0.4826 0.6075 -0.1629
H52 H 0.4946 0.6869 -0.0990
H53 H 0.4471 0.4169 0.0716
H54 H 0.7194 0.4123 0.3789
H55 H 0.6962 0.4904 0.3110
H56 H 0.7540 0.4205 0.2464
H57 H 0.5644 0.3146 0.3068
H58 H 0.5866 0.3258 0.1712
H59 H 0.4182 0.3270 0.1985
H60 H 0.2727 0.4273 0.1982
H61 H 0.2540 0.4502 0.4457
H62 H 0.0549 0.5019 0.2327
H63 H 0.1538 0.6085 0.2930
H64 H 0.2868 0.5542 0.2717
H65 H 0.2677 0.5716 0.4064
H66 H -0.0436 0.5580 0.3867
H67 H 0.0935 0.5229 0.4856
H68 H -0.0367 0.4706 0.4091
H69 H -0.0064 0.2986 0.5356
H70 H 0.0635 0.2623 0.4303
H71 H -0.0885 0.3116 0.3967
loop_
_geom_bond_atom_site_label_1
_geom_bond_atom_site_label_2
_geom_bond_site_symmetry_1
_geom_bond_site_symmetry_2
C1 C2 1_555 1_555
C2 H1 1_555 1_555
C3 C1 1_555 1_555
C4 C1 1_555 1_555
O1 C1 1_555 1_555
O2 C5 1_555 1_555
C5 O1 1_555 1_555
N1 C5 1_555 1_555
C6 N1 1_555 1_555
C7 C6 1_555 1_555
C8 C7 1_555 1_555
C9 C8 1_555 1_555
C10 C8 1_555 1_555
C11 C6 1_555 1_555
O3 C11 1_555 1_555
N2 C11 1_555 1_555
C12 N2 1_555 1_555
C13 C12 1_555 1_555
C14 C12 1_555 1_555
C15 C12 1_555 1_555
O4 C15 1_555 1_555
N3 C15 1_555 1_555
C16 N3 1_555 1_555
C17 C16 1_555 1_555
C18 C17 1_555 1_555
C19 C17 1_555 1_555
C20 C16 1_555 1_555
O5 C20 1_555 1_555
N4 C20 1_555 1_555
C21 N4 1_555 1_555
C22 C21 1_555 1_555
C23 C21 1_555 1_555
O6 C23 1_555 1_555
N5 C23 1_555 1_555
C24 N5 1_555 1_555
C25 C24 1_555 1_555
C26 C25 1_555 1_555
C27 C26 1_555 1_555
C28 C26 1_555 1_555
C29 C24 1_555 1_555
O7 C29 1_555 1_555
N6 C29 1_555 1_555
C30 N6 1_555 1_555
C31 C30 1_555 1_555
C32 C30 1_555 1_555
C33 C30 1_555 1_555
O8 C33 1_555 1_555
N7 C33 1_555 1_555
C34 N7 1_555 1_555
C35 C34 1_555 1_555
C36 C35 1_555 1_555
C37 C35 1_555 1_555
C38 C34 1_555 1_555
O9 C38 1_555 1_555
O10 C38 1_555 1_555
C39 O10 1_555 1_555
H2 C2 1_555 1_555
H3 C2 1_555 1_555
H4 C3 1_555 1_555
H5 C3 1_555 1_555
H6 C3 1_555 1_555
H7 C4 1_555 1_555
H8 C4 1_555 1_555
H9 C4 1_555 1_555
H10 N1 1_555 1_555
H11 C6 1_555 1_555
H12 C7 1_555 1_555
H13 C7 1_555 1_555
H14 C8 1_555 1_555
H15 C9 1_555 1_555
H16 C9 1_555 1_555
H17 C9 1_555 1_555
H18 C10 1_555 1_555
H19 C10 1_555 1_555
H20 C10 1_555 1_555
H21 N2 1_555 1_555
H22 C13 1_555 1_555
H23 C13 1_555 1_555
H24 C13 1_555 1_555
H25 C14 1_555 1_555
H26 C14 1_555 1_555
H27 C14 1_555 1_555
H28 N3 1_555 1_555
H29 C16 1_555 1_555
H30 C17 1_555 1_555
H31 C18 1_555 1_555
H32 C18 1_555 1_555
H33 C18 1_555 1_555
H34 C19 1_555 1_555
H35 C19 1_555 1_555
H36 C19 1_555 1_555
H37 N4 1_555 1_555
H38 C21 1_555 1_555
H39 C22 1_555 1_555
H40 C22 1_555 1_555
H41 C22 1_555 1_555
H42 N5 1_555 1_555
H43 C24 1_555 1_555
H44 C25 1_555 1_555
H45 C25 1_555 1_555
H46 C26 1_555 1_555
H47 C27 1_555 1_555
H48 C27 1_555 1_555
H49 C27 1_555 1_555
H50 C28 1_555 1_555
H51 C28 1_555 1_555
H52 C28 1_555 1_555
H53 N6 1_555 1_555
H54 C31 1_555 1_555
H55 C31 1_555 1_555
H56 C31 1_555 1_555
H57 C32 1_555 1_555
H58 C32 1_555 1_555
H59 C32 1_555 1_555
H60 N7 1_555 1_555
H61 C34 1_555 1_555
H62 C35 1_555 1_555
H63 C36 1_555 1_555
H64 C36 1_555 1_555
H65 C36 1_555 1_555
H66 C37 1_555 1_555
H67 C37 1_555 1_555
H68 C37 1_555 1_555
H69 C39 1_555 1_555
H70 C39 1_555 1_555
H71 C39 1_555 1_555

#END
