
#######################################################################
#
#                 Cambridge Crystallographic Data Centre
#                                CCDC 
#
#######################################################################
#
# If this CIF has been generated from an entry in the Cambridge 
# Structural Database, then it will include bibliographic, chemical, 
# crystal, experimental, refinement or atomic coordinate data resulting 
# from the CCDC's data processing and validation procedures.
#
#######################################################################

data_TUMKOD
_chemical_formula_moiety         'C29 H22 N4'
_chemical_name_systematic        
4'-(9-ethyl-9H-carbazol-3-yl)-2,2':6',2''-terpyridine
_symmetry_cell_setting           monoclinic
_symmetry_space_group_name_H-M   'P 21/n'
_symmetry_Int_Tables_number      14
_space_group_name_Hall           '-P 2yn'
loop_
_symmetry_equiv_pos_site_id
_symmetry_equiv_pos_as_xyz
1 x,y,z
2 1/2-x,1/2+y,1/2-z
3 -x,-y,-z
4 1/2+x,1/2-y,1/2+z
_cell_length_a                   11.820(2)
_cell_length_b                   9.4177(17)
_cell_length_c                   20.161(4)
_cell_angle_alpha                90
_cell_angle_beta                 91.910(2)
_cell_angle_gamma                90
_cell_volume                     2243.02
_exptl_crystal_colour            yellow
_exptl_crystal_description       block
_cell_formula_units_Z            4
loop_
_atom_site_label
_atom_site_type_symbol
_atom_site_fract_x
_atom_site_fract_y
_atom_site_fract_z
N1 N 0.34239(8) 0.50662(11) -0.07756(5)
N2 N 0.35837(10) 0.47151(13) 0.34178(5)
C1 C 0.43428(14) 0.28684(17) -0.15361(7)
H1 H 0.4076 0.3677 -0.1755
C2 C 0.26380(13) 0.74516(17) -0.14811(7)
H2 H 0.2823 0.6643 -0.1719
C3 C 0.37712(11) 0.37928(12) 0.02399(6)
H3 H 0.4009 0.2956 0.0446
C4 C 0.34039(10) 0.49228(12) 0.06205(6)
C5 C 0.40947(10) 0.39065(12) 0.17147(6)
H4 H 0.4538 0.3260 0.1491
C6 C 0.37845(10) 0.39072(12) -0.04473(6)
C7 C 0.34173(10) 0.48626(12) 0.13580(6)
C8 C 0.30653(10) 0.61645(13) -0.04123(6)
C9 C 0.41138(10) 0.39117(12) 0.24053(6)
N3 N 0.24363(10) 0.86058(12) -0.04366(6)
N4 N 0.46062(12) 0.15820(12) -0.05288(6)
C10 C 0.27475(12) 0.58231(16) 0.17109(7)
H5 H 0.2278 0.6447 0.1473
C11 C 0.30539(11) 0.61344(13) 0.02730(6)
H6 H 0.2811 0.6927 0.0504
C12 C 0.42477(11) 0.27356(13) -0.08560(6)
C13 C 0.46731(10) 0.30605(13) 0.29183(6)
C14 C 0.26966(10) 0.74507(14) -0.07930(6)
C15 C 0.34481(11) 0.49110(14) 0.27389(6)
C16 C 0.53980(12) 0.19065(14) 0.29087(7)
H7 H 0.5638 0.1543 0.2508
C17 C 0.43197(10) 0.35955(13) 0.35310(6)
C18 C 0.46829(12) 0.29812(16) 0.41292(7)
H8 H 0.4448 0.3334 0.4533
C19 C 0.27620(13) 0.58736(16) 0.23925(7)
H9 H 0.2326 0.6531 0.2615
C20 C 0.20504(13) 0.98726(18) -0.14481(9)
H10 H 0.1832 1.0713 -0.1658
C21 C 0.48363(16) 0.17924(19) -0.18824(8)
H11 H 0.4905 0.1859 -0.2339
C22 C 0.54021(15) 0.18316(16) 0.41028(8)
H12 H 0.5653 0.1403 0.4496
C23 C 0.21358(14) 0.97795(17) -0.07687(8)
H13 H 0.1974 1.0587 -0.0524
C24 C 0.22978(14) 0.86836(19) -0.18058(8)
H14 H 0.2237 0.8703 -0.2267
C25 C 0.52263(15) 0.06182(19) -0.15447(8)
H15 H 0.5574 -0.0120 -0.1767
C26 C 0.31752(14) 0.56873(19) 0.39182(7)
H16 H 0.3101 0.5179 0.4333
H17 H 0.2431 0.6031 0.3779
C27 C 0.57599(14) 0.13006(16) 0.35059(8)
H18 H 0.6249 0.0528 0.3505
C28 C 0.50936(16) 0.05543(17) -0.08718(8)
H19 H 0.5357 -0.0245 -0.0644
C29 C 0.39556(19) 0.6934(2) 0.40300(11)
H20 H 0.4697 0.6598 0.4161
H21 H 0.3669 0.7528 0.4373
H22 H 0.3999 0.7470 0.3627
loop_
_geom_bond_atom_site_label_1
_geom_bond_atom_site_label_2
_geom_bond_site_symmetry_1
_geom_bond_site_symmetry_2
N1 C6 1_555 1_555
N2 C15 1_555 1_555
C1 H1 1_555 1_555
C2 H2 1_555 1_555
C3 H3 1_555 1_555
C4 C3 1_555 1_555
C5 H4 1_555 1_555
C6 C3 1_555 1_555
C7 C4 1_555 1_555
C8 N1 1_555 1_555
C9 C5 1_555 1_555
N3 C14 1_555 1_555
N4 C12 1_555 1_555
C10 C7 1_555 1_555
H5 C10 1_555 1_555
C11 C4 1_555 1_555
H6 C11 1_555 1_555
C12 C1 1_555 1_555
C13 C9 1_555 1_555
C14 C2 1_555 1_555
C15 C9 1_555 1_555
C16 C13 1_555 1_555
H7 C16 1_555 1_555
C17 N2 1_555 1_555
C18 C17 1_555 1_555
H8 C18 1_555 1_555
C19 C10 1_555 1_555
H9 C19 1_555 1_555
C20 H10 1_555 1_555
C21 C1 1_555 1_555
H11 C21 1_555 1_555
C22 C18 1_555 1_555
H12 C22 1_555 1_555
C23 N3 1_555 1_555
H13 C23 1_555 1_555
C24 C2 1_555 1_555
H14 C24 1_555 1_555
C25 C21 1_555 1_555
H15 C25 1_555 1_555
C26 N2 1_555 1_555
H16 C26 1_555 1_555
H17 C26 1_555 1_555
C27 C16 1_555 1_555
H18 C27 1_555 1_555
C28 N4 1_555 1_555
H19 C28 1_555 1_555
C29 C26 1_555 1_555
H20 C29 1_555 1_555
H21 C29 1_555 1_555
H22 C29 1_555 1_555
C5 C7 1_555 1_555
C6 C12 1_555 1_555
C8 C11 1_555 1_555
C8 C14 1_555 1_555
C13 C17 1_555 1_555
C15 C19 1_555 1_555
C20 C23 1_555 1_555
C20 C24 1_555 1_555
C22 C27 1_555 1_555
C25 C28 1_555 1_555

#END
