
#######################################################################
#
#                 Cambridge Crystallographic Data Centre
#                                CCDC 
#
#######################################################################
#
# If this CIF has been generated from an entry in the Cambridge 
# Structural Database, then it will include bibliographic, chemical, 
# crystal, experimental, refinement or atomic coordinate data resulting 
# from the CCDC's data processing and validation procedures.
#
#######################################################################

data_TUNCEM
_chemical_formula_moiety         'C19 H15 Cl3 N2 O4,C1 H1 Cl3'
_chemical_name_systematic        
'6,7,9-trichloro-5a-hydroxy-10-(4-methoxybenzoyl)-1,2,3,4-tetrahydropyrimido[1,2-a]indol-8(5aH)-one chloroform solvate'
_symmetry_cell_setting           orthorhombic
_symmetry_space_group_name_H-M   'P 21 21 21'
_symmetry_Int_Tables_number      19
_space_group_name_Hall           'P 2ac 2ab'
loop_
_symmetry_equiv_pos_site_id
_symmetry_equiv_pos_as_xyz
1 x,y,z
2 1/2-x,-y,1/2+z
3 -x,1/2+y,1/2-z
4 1/2+x,1/2-y,-z
_cell_length_a                   11.0412(13)
_cell_length_b                   13.0089(15)
_cell_length_c                   16.2247(19)
_cell_angle_alpha                90
_cell_angle_beta                 90
_cell_angle_gamma                90
_cell_volume                     2330.42
_exptl_crystal_colour            red
_exptl_crystal_description       block
_cell_formula_units_Z            4
loop_
_atom_site_label
_atom_site_type_symbol
_atom_site_fract_x
_atom_site_fract_y
_atom_site_fract_z
Cl1 Cl 0.81874(9) 0.57377(8) 0.13202(6)
Cl2 Cl 0.78992(11) 0.65555(9) 0.51382(6)
Cl3 Cl 0.63324(11) 0.78045(9) 0.38908(8)
N1 N 0.9914(3) 0.3070(2) 0.38310(19)
H1 H 0.9972 0.2613 0.3450
C1 C 0.9670(4) 0.4580(3) 0.5039(2)
H2 H 0.9185 0.4984 0.5418
H3 H 1.0501 0.4821 0.5069
O1 O 1.2214(3) 0.5735(3) -0.05642(19)
O2 O 0.9901(3) 0.28427(19) 0.21565(15)
O3 O 1.0163(2) 0.62404(18) 0.39052(16)
H4 H 1.0168 0.6750 0.3608
O4 O 0.6900(3) 0.7354(2) 0.21840(18)
C2 C 1.1646(4) 0.5215(3) 0.0062(3)
C3 C 1.1001(4) 0.4309(3) -0.0037(2)
H5 H 1.0955 0.4000 -0.0553
C4 C 1.0433(4) 0.3870(3) 0.0624(2)
H6 H 1.0006 0.3260 0.0552
C5 C 1.0481(3) 0.4319(3) 0.1402(2)
C6 C 1.1128(4) 0.5226(3) 0.1493(2)
H7 H 1.1166 0.5540 0.2007
C7 C 1.1717(4) 0.5668(3) 0.0830(3)
H8 H 1.2161 0.6269 0.0901
C8 C 0.9891(3) 0.3812(3) 0.2111(2)
C9 C 0.9462(3) 0.4394(3) 0.2811(2)
C10 C 0.9543(3) 0.4001(3) 0.3623(2)
C11 C 1.0230(5) 0.2776(3) 0.4675(2)
H9 H 1.1100 0.2827 0.4750
H10 H 0.9994 0.2068 0.4772
C12 C 0.9610(5) 0.3455(3) 0.5272(3)
H11 H 0.9976 0.3364 0.5811
H12 H 0.8767 0.3250 0.5313
N2 N 0.9209(3) 0.4700(2) 0.41977(17)
C13 C 0.9062(3) 0.5702(3) 0.3798(2)
C14 C 0.8930(3) 0.5385(3) 0.2886(2)
C15 C 0.8293(3) 0.5996(3) 0.2366(2)
C16 C 0.7499(4) 0.6813(3) 0.2647(2)
C17 C 0.7386(4) 0.6919(3) 0.3567(3)
C18 C 0.8034(3) 0.6368(3) 0.4095(2)
C19 C 1.2246(5) 0.5281(4) -0.1358(3)
H13 H 1.2705 0.4655 -0.1336
H14 H 1.2620 0.5747 -0.1739
H15 H 1.1435 0.5134 -0.1536
Cl4 Cl 0.93977(17) 0.54371(14) 0.71853(9)
Cl5 Cl 0.8311(2) 0.7403(2) 0.73687(15)
Cl6 Cl 0.87691(14) 0.61605(14) 0.87811(8)
C20 C 0.9282(4) 0.6523(4) 0.7805(3)
H16 H 1.0085 0.6836 0.7860
loop_
_geom_bond_atom_site_label_1
_geom_bond_atom_site_label_2
_geom_bond_site_symmetry_1
_geom_bond_site_symmetry_2
Cl1 C15 1_555 1_555
Cl2 C18 1_555 1_555
Cl3 C17 1_555 1_555
N1 H1 1_555 1_555
C1 H2 1_555 1_555
H3 C1 1_555 1_555
O1 C2 1_555 1_555
O2 C8 1_555 1_555
O3 H4 1_555 1_555
O4 C16 1_555 1_555
C2 C3 1_555 1_555
C3 H5 1_555 1_555
C4 C3 1_555 1_555
H6 C4 1_555 1_555
C5 C4 1_555 1_555
C6 C5 1_555 1_555
H7 C6 1_555 1_555
C7 C2 1_555 1_555
H8 C7 1_555 1_555
C8 C5 1_555 1_555
C9 C8 1_555 1_555
C10 N1 1_555 1_555
C11 N1 1_555 1_555
H9 C11 1_555 1_555
H10 C11 1_555 1_555
C12 C1 1_555 1_555
H11 C12 1_555 1_555
H12 C12 1_555 1_555
N2 C1 1_555 1_555
C13 O3 1_555 1_555
C14 C9 1_555 1_555
C15 C14 1_555 1_555
C16 C15 1_555 1_555
C17 C16 1_555 1_555
C18 C13 1_555 1_555
C19 O1 1_555 1_555
H13 C19 1_555 1_555
H14 C19 1_555 1_555
H15 C19 1_555 1_555
Cl4 C20 1_555 1_555
Cl5 C20 1_555 1_555
Cl6 C20 1_555 1_555
C20 H16 1_555 1_555
C6 C7 1_555 1_555
C9 C10 1_555 1_555
C10 N2 1_555 1_555
C11 C12 1_555 1_555
N2 C13 1_555 1_555
C13 C14 1_555 1_555
C17 C18 1_555 1_555

#END
