
#######################################################################
#
#                 Cambridge Crystallographic Data Centre
#                                CCDC 
#
#######################################################################
#
# If this CIF has been generated from an entry in the Cambridge 
# Structural Database, then it will include bibliographic, chemical, 
# crystal, experimental, refinement or atomic coordinate data resulting 
# from the CCDC's data processing and validation procedures.
#
#######################################################################

data_TUNGUG
_chemical_formula_moiety         'C21 H14 N1 O1 P1'
_chemical_name_systematic        
4-(1-oxido-1-phenyl-1H-phosphindol-2-yl)benzonitrile
_symmetry_cell_setting           monoclinic
_symmetry_space_group_name_H-M   'P 21'
_symmetry_Int_Tables_number      4
_space_group_name_Hall           'P 2yb'
loop_
_symmetry_equiv_pos_site_id
_symmetry_equiv_pos_as_xyz
1 x,y,z
2 -x,1/2+y,-z
_cell_length_a                   12.0467(6)
_cell_length_b                   6.5161(3)
_cell_length_c                   12.2531(5)
_cell_angle_alpha                90
_cell_angle_beta                 117.784(2)
_cell_angle_gamma                90
_cell_volume                     850.949
_exptl_crystal_colour            colorless
_exptl_crystal_description       block
_cell_formula_units_Z            2
_exptl_crystal_recrystallization_method 'dichloromethane and hexane'
loop_
_atom_site_label
_atom_site_type_symbol
_atom_site_fract_x
_atom_site_fract_y
_atom_site_fract_z
P1 P 0.72034(6) 0.54324(10) 0.32484(6)
O1 O 0.7736(2) 0.7513(3) 0.36137(19)
N1 N 1.0802(3) 0.2656(7) 1.0382(3)
C1 C 0.8149(2) 0.3272(4) 0.4107(2)
C2 C 0.8214(2) 0.1915(4) 0.3323(2)
H1 H 0.8642 0.0679 0.3589
C3 C 0.7568(2) 0.2492(4) 0.2016(2)
C4 C 0.6989(2) 0.4404(4) 0.1800(2)
C5 C 0.6373(3) 0.5189(6) 0.0624(3)
H2 H 0.5987 0.6467 0.0478
C6 C 0.6341(4) 0.4018(6) -0.0347(3)
H3 H 0.5935 0.4533 -0.1146
C7 C 0.6894(3) 0.2137(6) -0.0142(3)
H4 H 0.6854 0.1380 -0.0803
C8 C 0.7512(3) 0.1346(5) 0.1032(3)
H5 H 0.7887 0.0060 0.1168
C9 C 0.8693(2) 0.3067(4) 0.5453(2)
C10 C 0.9254(2) 0.1250(4) 0.6065(3)
H6 H 0.9273 0.0118 0.5612
C11 C 0.9782(2) 0.1110(5) 0.7332(3)
H7 H 1.0165 -0.0103 0.7730
C12 C 0.9738(2) 0.2783(5) 0.8011(3)
C13 C 0.9166(3) 0.4582(5) 0.7425(3)
H8 H 0.9127 0.5697 0.7880
C14 C 0.8654(3) 0.4715(4) 0.6162(2)
H9 H 0.8272 0.5932 0.5771
C15 C 1.0304(3) 0.2689(6) 0.9333(3)
C16 C 0.5734(2) 0.5153(5) 0.3284(2)
C17 C 0.5273(3) 0.6769(6) 0.3675(3)
H10 H 0.5715 0.7997 0.3916
C18 C 0.4134(4) 0.6543(9) 0.3705(4)
H11 H 0.3817 0.7620 0.3976
C19 C 0.3487(4) 0.4740(10) 0.3337(4)
H12 H 0.2728 0.4599 0.3358
C20 C 0.3924(3) 0.3184(8) 0.2951(4)
H13 H 0.3464 0.1975 0.2690
C21 C 0.5055(3) 0.3353(6) 0.2936(3)
H14 H 0.5366 0.2239 0.2688
loop_
_geom_bond_atom_site_label_1
_geom_bond_atom_site_label_2
_geom_bond_site_symmetry_1
_geom_bond_site_symmetry_2
P1 O1 1_555 1_555
N1 C15 1_555 1_555
C1 P1 1_555 1_555
C2 C1 1_555 1_555
H1 C2 1_555 1_555
C3 C2 1_555 1_555
C4 P1 1_555 1_555
C5 C4 1_555 1_555
H2 C5 1_555 1_555
C6 C5 1_555 1_555
H3 C6 1_555 1_555
C7 C6 1_555 1_555
H4 C7 1_555 1_555
C8 C3 1_555 1_555
H5 C8 1_555 1_555
C9 C1 1_555 1_555
C10 C9 1_555 1_555
H6 C10 1_555 1_555
C11 C10 1_555 1_555
H7 C11 1_555 1_555
C12 C11 1_555 1_555
C13 C12 1_555 1_555
H8 C13 1_555 1_555
C14 C9 1_555 1_555
H9 C14 1_555 1_555
C15 C12 1_555 1_555
C16 P1 1_555 1_555
C17 C16 1_555 1_555
H10 C17 1_555 1_555
C18 C17 1_555 1_555
H11 C18 1_555 1_555
C19 C18 1_555 1_555
H12 C19 1_555 1_555
C20 C19 1_555 1_555
H13 C20 1_555 1_555
C21 C16 1_555 1_555
H14 C21 1_555 1_555
C3 C4 1_555 1_555
C7 C8 1_555 1_555
C13 C14 1_555 1_555
C20 C21 1_555 1_555

#END
