
#######################################################################
#
#                 Cambridge Crystallographic Data Centre
#                                CCDC 
#
#######################################################################
#
# If this CIF has been generated from an entry in the Cambridge 
# Structural Database, then it will include bibliographic, chemical, 
# crystal, experimental, refinement or atomic coordinate data resulting 
# from the CCDC's data processing and validation procedures.
#
#######################################################################

data_TUNJER01
_chemical_formula_moiety         'C9 H22 N3 1+,I1 1-'
_chemical_name_systematic        
'1,4,7-Trimethyl-1-azonia-4,7-diazacyclononane iodide'
_symmetry_cell_setting           orthorhombic
_symmetry_space_group_name_H-M   'P 21 21 21'
_symmetry_Int_Tables_number      19
_space_group_name_Hall           'P 2ac 2ab'
loop_
_symmetry_equiv_pos_site_id
_symmetry_equiv_pos_as_xyz
1 x,y,z
2 1/2-x,-y,1/2+z
3 1/2+x,1/2-y,-z
4 -x,1/2+y,1/2-z
_cell_length_a                   11.417(2)
_cell_length_b                   13.099(3)
_cell_length_c                   8.762(2)
_cell_angle_alpha                90
_cell_angle_beta                 90
_cell_angle_gamma                90
_cell_volume                     1310.37
_exptl_crystal_colour            colorless
_exptl_crystal_description       prismatic
_cell_formula_units_Z            4
_exptl_crystal_recrystallization_method tetrahydrofuran/hexane
loop_
_atom_site_label
_atom_site_type_symbol
_atom_site_fract_x
_atom_site_fract_y
_atom_site_fract_z
I1 I 0.12459(4) 0.14387(4) 0.03673(5)
C1 C 0.9756(9) 0.4488(8) 0.833(1)
N1 N 1.0770(5) 0.6823(4) 0.9813(7)
C2 C 0.8981(6) 0.5879(6) 0.991(1)
N2 N 1.1803(5) 0.5042(4) 0.8351(7)
C3 C 0.9541(7) 0.6779(6) 0.938(1)
N3 N 0.9722(4) 0.4969(4) 0.9839(7)
C4 C 1.1032(8) 0.7579(6) 1.097(1)
C5 C 1.1581(9) 0.6896(7) 0.854(1)
C6 C 1.2946(7) 0.4570(9) 0.839(1)
C7 C 1.1777(10) 0.6017(6) 0.762(1)
C8 C 0.9456(7) 0.4256(6) 1.112(1)
C9 C 1.0933(8) 0.4327(8) 0.779(1)
loop_
_geom_bond_atom_site_label_1
_geom_bond_atom_site_label_2
_geom_bond_site_symmetry_1
_geom_bond_site_symmetry_2
C1 N3 1_555 1_555
N1 C3 1_555 1_555
C2 C3 1_555 1_555
N2 C6 1_555 1_555
N3 C2 1_555 1_555
C4 N1 1_555 1_555
C5 N1 1_555 1_555
C7 N2 1_555 1_555
C8 N3 1_555 1_555
C9 C1 1_555 1_555
N2 C9 1_555 1_555
C5 C7 1_555 1_555

#END
