
#######################################################################
#
#                 Cambridge Crystallographic Data Centre
#                                CCDC 
#
#######################################################################
#
# If this CIF has been generated from an entry in the Cambridge 
# Structural Database, then it will include bibliographic, chemical, 
# crystal, experimental, refinement or atomic coordinate data resulting 
# from the CCDC's data processing and validation procedures.
#
#######################################################################

data_TUNQIE
_chemical_formula_moiety         'C20 H16 N4'
_chemical_name_systematic        3,6-bis(pyridin-4-yl)naphthalene-1,8-diamine
_symmetry_cell_setting           triclinic
_symmetry_space_group_name_H-M   'P -1'
_symmetry_Int_Tables_number      2
_space_group_name_Hall           '-P 1'
loop_
_symmetry_equiv_pos_site_id
_symmetry_equiv_pos_as_xyz
1 x,y,z
2 -x,-y,-z
_cell_length_a                   12.4118(7)
_cell_length_b                   12.4561(7)
_cell_length_c                   22.8297(13)
_cell_angle_alpha                83.318(3)
_cell_angle_beta                 83.897(3)
_cell_angle_gamma                60.185(2)
_cell_volume                     3036.73
_exptl_crystal_colour            yellow
_exptl_crystal_description       Block
_cell_formula_units_Z            8
loop_
_atom_site_label
_atom_site_type_symbol
_atom_site_fract_x
_atom_site_fract_y
_atom_site_fract_z
N1 N 1.0528(2) 1.2868(3) 0.49139(12)
N2 N 0.4346(2) 0.7909(2) 0.69660(11)
N3 N 0.4129(2) 1.4375(2) 0.42926(12)
N4 N 0.2795(2) 1.3217(2) 0.47091(11)
C1 C 1.0502(3) 1.1821(4) 0.50883(17)
H1 H 1.1262 1.1100 0.5186
C2 C 0.9435(3) 1.1725(3) 0.51354(16)
H2 H 0.9471 1.0961 0.5278
C3 C 0.8319(3) 1.2731(3) 0.49766(13)
C4 C 0.8350(3) 1.3811(3) 0.47781(14)
H3 H 0.7611 1.4532 0.4657
C5 C 0.9452(3) 1.3843(3) 0.47562(15)
H4 H 0.9441 1.4599 0.4622
C6 C 0.3724(3) 0.8373(3) 0.64726(13)
H5 H 0.3174 0.8088 0.6395
C7 C 0.3825(3) 0.9232(3) 0.60695(13)
H6 H 0.3350 0.9527 0.5729
C8 C 0.4626(3) 0.9670(3) 0.61616(13)
C9 C 0.5282(3) 0.9184(3) 0.66695(13)
H7 H 0.5848 0.9442 0.6753
C10 C 0.5121(3) 0.8336(3) 0.70516(14)
H8 H 0.5582 0.8031 0.7397
C11 C 0.5068(3) 1.3478(3) 0.46573(13)
C12 C 0.6158(3) 1.3519(3) 0.46651(13)
H9 H 0.6238 1.4161 0.4431
C13 C 0.7150(3) 1.2655(3) 0.50029(13)
C14 C 0.7038(3) 1.1720(3) 0.53371(13)
H10 H 0.7712 1.1114 0.5560
C15 C 0.5930(3) 1.1645(3) 0.53546(13)
C16 C 0.5840(3) 1.0691(3) 0.57106(13)
H11 H 0.6529 1.0092 0.5927
C17 C 0.4764(3) 1.0612(3) 0.57503(13)
C18 C 0.3775(3) 1.1479(3) 0.54130(13)
H12 H 0.3039 1.1418 0.5438
C19 C 0.3819(3) 1.2420(3) 0.50456(13)
C20 C 0.4925(3) 1.2534(3) 0.50128(13)
N5 N 1.0825(3) 1.1332(2) 0.32710(12)
N6 N 0.5009(2) 0.5584(2) 0.32290(11)
N7 N 1.3021(2) 0.4635(2) 0.31473(11)
N8 N 1.1739(2) 0.3338(2) 0.33306(12)
C21 C 1.1705(3) 1.0361(3) 0.29924(14)
H13 H 1.2388 1.0425 0.2797
C22 C 1.1685(3) 0.9272(3) 0.29695(13)
H14 H 1.2343 0.8616 0.2763
C23 C 1.0701(3) 0.9127(3) 0.32493(13)
C24 C 0.9773(3) 1.0145(3) 0.35387(14)
H15 H 0.9078 1.0108 0.3737
C25 C 0.9867(3) 1.1205(3) 0.35353(15)
H16 H 0.9216 1.1886 0.3731
C26 C 0.5035(3) 0.6527(3) 0.34407(14)
H17 H 0.4271 0.7187 0.3583
C27 C 0.6098(3) 0.6605(3) 0.34656(13)
H18 H 0.6058 0.7290 0.3631
C28 C 0.7229(3) 0.5676(3) 0.32474(13)
C29 C 0.7205(3) 0.4698(3) 0.30214(13)
H19 H 0.7952 0.4035 0.2867
C30 C 0.6100(3) 0.4690(3) 0.30212(13)
H20 H 0.6114 0.4009 0.2864
C31 C 1.1846(3) 0.5713(3) 0.31997(13)
C32 C 1.1796(3) 0.6835(3) 0.32081(13)
H21 H 1.2554 0.6857 0.3186
C33 C 1.0670(3) 0.7954(3) 0.32484(13)
C34 C 0.9578(3) 0.7924(3) 0.32661(13)
H22 H 0.8809 0.8678 0.3280
C35 C 0.9575(3) 0.6795(3) 0.32642(13)
C36 C 0.8432(3) 0.6801(3) 0.32612(13)
H23 H 0.7674 0.7567 0.3260
C37 C 0.8405(3) 0.5710(3) 0.32596(13)
C38 C 0.9539(3) 0.4581(3) 0.32866(13)
H24 H 0.9521 0.3825 0.3299
C39 C 1.0663(3) 0.4533(3) 0.32959(13)
C40 C 1.0712(3) 0.5656(3) 0.32560(13)
N9 N 0.4324(2) 1.0436(2) 0.18392(11)
N10 N -0.1129(2) 0.4453(2) 0.16424(11)
N11 N 0.6823(2) 0.3710(2) 0.15846(11)
N12 N 0.5604(2) 0.2382(2) 0.15659(11)
C41 C 0.5243(3) 0.9348(3) 0.20618(13)
H25 H 0.5884 0.9358 0.2250
C42 C 0.5297(3) 0.8230(3) 0.20305(13)
H26 H 0.5971 0.7492 0.2192
C43 C 0.4376(3) 0.8163(3) 0.17649(12)
C44 C 0.3427(3) 0.9291(3) 0.15313(13)
H27 H 0.2771 0.9311 0.1342
C45 C 0.3451(3) 1.0368(3) 0.15767(13)
H28 H 0.2800 1.1117 0.1410
C46 C -0.1072(3) 0.5473(3) 0.14272(15)
H29 H -0.1797 0.6152 0.1265
C47 C -0.0031(3) 0.5600(3) 0.14260(13)
H30 H -0.0057 0.6354 0.1272
C48 C 0.1060(3) 0.4623(3) 0.16508(12)
C49 C 0.0991(3) 0.3583(3) 0.18945(13)
H31 H 0.1692 0.2900 0.2071
C50 C -0.0093(3) 0.3537(3) 0.18808(13)
H32 H -0.0107 0.2811 0.2051
C51 C 0.5630(3) 0.4758(3) 0.16221(12)
C52 C 0.5542(3) 0.5884(3) 0.16745(12)
H33 H 0.6287 0.5922 0.1682
C53 C 0.4400(3) 0.6984(3) 0.17182(12)
C54 C 0.3326(3) 0.6929(3) 0.17139(12)
H34 H 0.2547 0.7669 0.1740
C55 C 0.3353(3) 0.5794(3) 0.16706(12)
C56 C 0.2226(3) 0.5768(3) 0.16781(13)
H35 H 0.1458 0.6517 0.1712
C57 C 0.2224(2) 0.4686(3) 0.16370(12)
C58 C 0.3371(3) 0.3582(3) 0.15917(13)
H36 H 0.3370 0.2830 0.1555
C59 C 0.4489(3) 0.3551(3) 0.15986(12)
C60 C 0.4521(2) 0.4668(3) 0.16294(12)
N13 N 0.2870(3) 0.5720(3) -0.00683(12)
N14 N -0.2155(2) -0.0307(2) 0.20629(11)
N15 N 0.4326(2) -0.0670(3) -0.06194(12)
N16 N 0.3110(2) -0.1957(2) -0.02175(12)
C61 C 0.1800(3) 0.5719(3) 0.00845(15)
H37 H 0.1093 0.6483 0.0182
C62 C 0.1649(3) 0.4692(3) 0.01103(14)
H38 H 0.0863 0.4759 0.0233
C63 C 0.2636(3) 0.3564(3) -0.00426(13)
C64 C 0.3756(3) 0.3560(3) -0.02068(14)
H39 H 0.4475 0.2815 -0.0315
C65 C 0.3820(3) 0.4633(3) -0.02121(15)
H40 H 0.4596 0.4594 -0.0327
C66 C -0.1653(3) 0.0383(3) 0.21524(14)
H41 H -0.1919 0.0822 0.2500
C67 C -0.0768(3) 0.0501(3) 0.17705(14)
H42 H -0.0438 0.1000 0.1863
C68 C -0.0362(3) -0.0104(3) 0.12552(13)
C69 C -0.0866(3) -0.0847(3) 0.11637(14)
H43 H -0.0608 -0.1308 0.0824
C70 C -0.1751(3) -0.0910(3) 0.15730(14)
H44 H -0.2087 -0.1415 0.1498
C71 C 0.3381(3) 0.0308(3) -0.02987(13)
C72 C 0.3408(3) 0.1403(3) -0.03362(13)
H45 H 0.4042 0.1472 -0.0581
C73 C 0.2527(3) 0.2430(3) -0.00239(13)
C74 C 0.1598(3) 0.2321(3) 0.03228(13)
H46 H 0.0993 0.3003 0.0535
C75 C 0.1532(3) 0.1208(3) 0.03680(13)
C76 C 0.0613(3) 0.1107(3) 0.07508(13)
H47 H 0.0017 0.1801 0.0958
C77 C 0.0567(3) 0.0015(3) 0.08293(13)
C78 C 0.1416(3) -0.0980(3) 0.04970(13)
H48 H 0.1374 -0.1727 0.0546
C79 C 0.2307(3) -0.0917(3) 0.01024(13)
C80 C 0.2424(3) 0.0177(3) 0.00491(13)
loop_
_geom_bond_atom_site_label_1
_geom_bond_atom_site_label_2
_geom_bond_site_symmetry_1
_geom_bond_site_symmetry_2
N1 C1 1_555 1_555
N2 C6 1_555 1_555
N3 C11 1_555 1_555
N4 C19 1_555 1_555
C1 H1 1_555 1_555
C2 C1 1_555 1_555
H2 C2 1_555 1_555
C3 C2 1_555 1_555
C4 C3 1_555 1_555
H3 C4 1_555 1_555
C5 N1 1_555 1_555
H4 C5 1_555 1_555
C6 H5 1_555 1_555
C7 C6 1_555 1_555
H6 C7 1_555 1_555
C8 C7 1_555 1_555
C9 C8 1_555 1_555
H7 C9 1_555 1_555
C10 N2 1_555 1_555
H8 C10 1_555 1_555
C11 C12 1_555 1_555
C12 H9 1_555 1_555
C13 C3 1_555 1_555
C14 C13 1_555 1_555
H10 C14 1_555 1_555
C15 C14 1_555 1_555
C16 C15 1_555 1_555
H11 C16 1_555 1_555
C17 C8 1_555 1_555
C18 C17 1_555 1_555
H12 C18 1_555 1_555
C19 C18 1_555 1_555
C20 C11 1_555 1_555
N5 C21 1_555 1_555
N6 C26 1_555 1_555
N7 C31 1_555 1_555
N8 C39 1_555 1_555
C21 H13 1_555 1_555
C22 C21 1_555 1_555
H14 C22 1_555 1_555
C23 C22 1_555 1_555
C24 C23 1_555 1_555
H15 C24 1_555 1_555
C25 N5 1_555 1_555
H16 C25 1_555 1_555
C26 H17 1_555 1_555
C27 C26 1_555 1_555
H18 C27 1_555 1_555
C28 C27 1_555 1_555
C29 C28 1_555 1_555
H19 C29 1_555 1_555
C30 N6 1_555 1_555
H20 C30 1_555 1_555
C31 C32 1_555 1_555
C32 H21 1_555 1_555
C33 C23 1_555 1_555
C34 C33 1_555 1_555
H22 C34 1_555 1_555
C35 C34 1_555 1_555
C36 C35 1_555 1_555
H23 C36 1_555 1_555
C37 C28 1_555 1_555
C38 C37 1_555 1_555
H24 C38 1_555 1_555
C39 C38 1_555 1_555
C40 C31 1_555 1_555
N9 C41 1_555 1_555
N10 C46 1_555 1_555
N11 C51 1_555 1_555
N12 C59 1_555 1_555
C41 H25 1_555 1_555
C42 C41 1_555 1_555
H26 C42 1_555 1_555
C43 C42 1_555 1_555
C44 C43 1_555 1_555
H27 C44 1_555 1_555
C45 N9 1_555 1_555
H28 C45 1_555 1_555
C46 H29 1_555 1_555
C47 C46 1_555 1_555
H30 C47 1_555 1_555
C48 C47 1_555 1_555
C49 C48 1_555 1_555
H31 C49 1_555 1_555
C50 N10 1_555 1_555
H32 C50 1_555 1_555
C51 C52 1_555 1_555
C52 H33 1_555 1_555
C53 C43 1_555 1_555
C54 C53 1_555 1_555
H34 C54 1_555 1_555
C55 C54 1_555 1_555
C56 C55 1_555 1_555
H35 C56 1_555 1_555
C57 C48 1_555 1_555
C58 C57 1_555 1_555
H36 C58 1_555 1_555
C59 C58 1_555 1_555
C60 C51 1_555 1_555
N13 C61 1_555 1_555
N14 C66 1_555 1_555
N15 C71 1_555 1_555
N16 C79 1_555 1_555
C61 H37 1_555 1_555
C62 C61 1_555 1_555
H38 C62 1_555 1_555
C63 C62 1_555 1_555
C64 C63 1_555 1_555
H39 C64 1_555 1_555
C65 N13 1_555 1_555
H40 C65 1_555 1_555
C66 H41 1_555 1_555
C67 C66 1_555 1_555
H42 C67 1_555 1_555
C68 C67 1_555 1_555
C69 C68 1_555 1_555
H43 C69 1_555 1_555
C70 N14 1_555 1_555
H44 C70 1_555 1_555
C71 C72 1_555 1_555
C72 H45 1_555 1_555
C73 C63 1_555 1_555
C74 C73 1_555 1_555
H46 C74 1_555 1_555
C75 C74 1_555 1_555
C76 C75 1_555 1_555
H47 C76 1_555 1_555
C77 C68 1_555 1_555
C78 C77 1_555 1_555
H48 C78 1_555 1_555
C79 C78 1_555 1_555
C80 C71 1_555 1_555
C4 C5 1_555 1_555
C9 C10 1_555 1_555
C12 C13 1_555 1_555
C15 C20 1_555 1_555
C16 C17 1_555 1_555
C19 C20 1_555 1_555
C24 C25 1_555 1_555
C29 C30 1_555 1_555
C32 C33 1_555 1_555
C35 C40 1_555 1_555
C36 C37 1_555 1_555
C39 C40 1_555 1_555
C44 C45 1_555 1_555
C49 C50 1_555 1_555
C52 C53 1_555 1_555
C55 C60 1_555 1_555
C56 C57 1_555 1_555
C59 C60 1_555 1_555
C64 C65 1_555 1_555
C69 C70 1_555 1_555
C72 C73 1_555 1_555
C75 C80 1_555 1_555
C76 C77 1_555 1_555
C79 C80 1_555 1_555

#END
