
#######################################################################
#
#                 Cambridge Crystallographic Data Centre
#                                CCDC 
#
#######################################################################
#
# If this CIF has been generated from an entry in the Cambridge 
# Structural Database, then it will include bibliographic, chemical, 
# crystal, experimental, refinement or atomic coordinate data resulting 
# from the CCDC's data processing and validation procedures.
#
#######################################################################

data_TUNTAZ
_chemical_formula_moiety         'C28 H29 N3 O4 S2'
_chemical_name_systematic        
7-Methyl-3,6-bis((4-methylphenyl)sulfonyl)-2,3,4,6,6a,7-hexahydro-1H-pyrido[4',3':3,4]pyrrolo[2,3-b]indole
_symmetry_cell_setting           monoclinic
_symmetry_space_group_name_H-M   'P 21/n'
_symmetry_Int_Tables_number      14
_space_group_name_Hall           '-P 2yn'
loop_
_symmetry_equiv_pos_site_id
_symmetry_equiv_pos_as_xyz
1 x,y,z
2 1/2-x,1/2+y,1/2-z
3 -x,-y,-z
4 1/2+x,1/2-y,1/2+z
_cell_length_a                   10.2945(8)
_cell_length_b                   18.1137(16)
_cell_length_c                   14.6463(12)
_cell_angle_alpha                90
_cell_angle_beta                 105.831(2)
_cell_angle_gamma                90
_cell_volume                     2627.53
_exptl_crystal_colour            colorless
_exptl_crystal_description       prismatic
_cell_formula_units_Z            4
loop_
_atom_site_label
_atom_site_type_symbol
_atom_site_fract_x
_atom_site_fract_y
_atom_site_fract_z
S1 S 0.26474(8) 0.11967(4) 0.23409(5)
S2 S 0.35917(7) 0.15818(5) 0.73559(5)
N1 N 0.2737(2) 0.12037(11) 0.34578(15)
N2 N 0.36425(19) 0.09076(12) 0.66074(15)
N3 N 0.2510(3) -0.02677(15) 0.64741(19)
O1 O 0.4000(2) 0.11972(12) 0.22749(16)
O2 O 0.1725(2) 0.17615(12) 0.18925(15)
O3 O 0.4948(2) 0.18169(14) 0.77339(14)
O4 O 0.2838(2) 0.13001(14) 0.79629(14)
C1 C 0.3928(2) 0.08657(13) 0.41302(18)
H1 H 0.4113 0.0386 0.3899
H2 H 0.4715 0.1177 0.4197
C2 C 0.1662(3) 0.14680(16) 0.3846(2)
H3 H 0.0918 0.1640 0.3328
H4 H 0.1994 0.1886 0.4257
C3 C 0.1149(2) 0.08960(14) 0.43948(18)
H5 H 0.0568 0.0557 0.3954
H6 H 0.0608 0.1135 0.4757
C4 C 0.2289(2) 0.04514(12) 0.50815(16)
C5 C 0.3622(2) 0.07875(12) 0.50490(18)
C6 C 0.4296(2) 0.10442(13) 0.58807(19)
H7 H 0.5117 0.1290 0.5986
C7 C 0.2388(2) 0.04822(14) 0.61558(17)
H8 H 0.1590 0.0719 0.6270
C8 C 0.2436(2) -0.07470(16) 0.5751(2)
C9 C 0.2242(2) -0.03733(13) 0.4896(2)
C10 C 0.2074(3) -0.07574(16) 0.4067(2)
H9 H 0.1911 -0.0507 0.3493
C11 C 0.2147(3) -0.15276(19) 0.4088(3)
H10 H 0.2049 -0.1794 0.3531
C12 C 0.2367(3) -0.18865(19) 0.4946(4)
H11 H 0.2417 -0.2399 0.4957
C13 C 0.2514(3) -0.15168(19) 0.5777(3)
H12 H 0.2662 -0.1771 0.6348
C14 C 0.2675(4) -0.0471(2) 0.7449(2)
H13 H 0.2131 -0.0896 0.7476
H14 H 0.2399 -0.0068 0.7779
H15 H 0.3607 -0.0584 0.7744
C15 C 0.1928(3) 0.03441(17) 0.18905(19)
C16 C 0.2732(3) -0.02711(19) 0.1885(2)
H16 H 0.3668 -0.0227 0.2071
C17 C 0.2145(3) -0.0943(2) 0.1606(2)
H17 H 0.2695 -0.1352 0.1615
C18 C 0.0772(4) -0.1029(2) 0.1315(2)
C19 C -0.0007(4) -0.0411(2) 0.1318(3)
H18 H -0.0942 -0.0456 0.1122
C20 C 0.0548(3) 0.0265(2) 0.1600(2)
H19 H -0.0006 0.0671 0.1594
C21 C 0.0152(5) -0.1783(3) 0.1029(3)
H20 H 0.0732 -0.2065 0.0748
H21 H -0.0715 -0.1725 0.0579
H22 H 0.0047 -0.2036 0.1581
C22 C 0.2695(3) 0.23002(15) 0.66831(17)
C23 C 0.1317(3) 0.23633(18) 0.6577(2)
H23 H 0.0876 0.2029 0.6871
C24 C 0.0618(3) 0.2924(2) 0.6033(3)
H24 H -0.0303 0.2970 0.5965
C25 C 0.1245(3) 0.34232(19) 0.5585(2)
C26 C 0.2616(3) 0.33414(17) 0.56895(19)
H25 H 0.3052 0.3668 0.5381
C27 C 0.3342(3) 0.27914(16) 0.62358(18)
H26 H 0.4264 0.2748 0.6306
C28 C 0.0474(4) 0.4060(2) 0.5036(3)
H27 H 0.0155 0.3929 0.4378
H28 H 0.1056 0.4482 0.5104
H29 H -0.0281 0.4175 0.5277
loop_
_geom_bond_atom_site_label_1
_geom_bond_atom_site_label_2
_geom_bond_site_symmetry_1
_geom_bond_site_symmetry_2
S1 N1 1_555 1_555
S2 N2 1_555 1_555
N1 C1 1_555 1_555
N2 C6 1_555 1_555
N3 C7 1_555 1_555
O1 S1 1_555 1_555
O2 S1 1_555 1_555
O3 S2 1_555 1_555
O4 S2 1_555 1_555
C1 H1 1_555 1_555
H2 C1 1_555 1_555
C2 N1 1_555 1_555
H3 C2 1_555 1_555
H4 C2 1_555 1_555
C3 C2 1_555 1_555
H5 C3 1_555 1_555
H6 C3 1_555 1_555
C4 C3 1_555 1_555
C5 C1 1_555 1_555
C6 C5 1_555 1_555
H7 C6 1_555 1_555
C7 N2 1_555 1_555
H8 C7 1_555 1_555
C8 N3 1_555 1_555
C9 C4 1_555 1_555
C10 C9 1_555 1_555
H9 C10 1_555 1_555
C11 C10 1_555 1_555
H10 C11 1_555 1_555
C12 C11 1_555 1_555
H11 C12 1_555 1_555
C13 C8 1_555 1_555
H12 C13 1_555 1_555
C14 N3 1_555 1_555
H13 C14 1_555 1_555
H14 C14 1_555 1_555
H15 C14 1_555 1_555
C15 S1 1_555 1_555
C16 C15 1_555 1_555
H16 C16 1_555 1_555
C17 C16 1_555 1_555
H17 C17 1_555 1_555
C18 C17 1_555 1_555
C19 C18 1_555 1_555
H18 C19 1_555 1_555
C20 C15 1_555 1_555
H19 C20 1_555 1_555
C21 C18 1_555 1_555
H20 C21 1_555 1_555
H21 C21 1_555 1_555
H22 C21 1_555 1_555
C22 S2 1_555 1_555
C23 C22 1_555 1_555
H23 C23 1_555 1_555
C24 C23 1_555 1_555
H24 C24 1_555 1_555
C25 C24 1_555 1_555
C26 C25 1_555 1_555
H25 C26 1_555 1_555
C27 C22 1_555 1_555
H26 C27 1_555 1_555
C28 C25 1_555 1_555
H27 C28 1_555 1_555
H28 C28 1_555 1_555
H29 C28 1_555 1_555
C4 C5 1_555 1_555
C4 C7 1_555 1_555
C8 C9 1_555 1_555
C12 C13 1_555 1_555
C19 C20 1_555 1_555
C26 C27 1_555 1_555

#END
