
#######################################################################
#
#                 Cambridge Crystallographic Data Centre
#                                CCDC 
#
#######################################################################
#
# If this CIF has been generated from an entry in the Cambridge 
# Structural Database, then it will include bibliographic, chemical, 
# crystal, experimental, refinement or atomic coordinate data resulting 
# from the CCDC's data processing and validation procedures.
#
#######################################################################

data_TUNXIK
_chemical_formula_moiety         'C20 H19 N3 O1'
_chemical_name_systematic        
4-((Z)-Allylamino(phenyl)methylene)-3-methyl-1-phenyl-1H-pyrazol-5(4H)-one
_symmetry_cell_setting           triclinic
_symmetry_space_group_name_H-M   'P -1'
_symmetry_Int_Tables_number      2
_space_group_name_Hall           '-P 1'
loop_
_symmetry_equiv_pos_site_id
_symmetry_equiv_pos_as_xyz
1 x,y,z
2 -x,-y,-z
_cell_length_a                   9.2950(10)
_cell_length_b                   9.8440(12)
_cell_length_c                   10.0670(14)
_cell_angle_alpha                86.175(8)
_cell_angle_beta                 89.280(9)
_cell_angle_gamma                74.329(7)
_cell_volume                     884.901
_exptl_crystal_colour            colorless
_exptl_crystal_description       prism
_cell_formula_units_Z            2
_exptl_crystal_recrystallization_method ethanol
loop_
_atom_site_label
_atom_site_type_symbol
_atom_site_fract_x
_atom_site_fract_y
_atom_site_fract_z
O1 O 0.20365(11) 0.99841(12) 0.85524(11)
N1 N 0.08977(14) 1.17446(14) 0.69281(13)
N2 N -0.03759(15) 1.20734(14) 0.61172(14)
N3 N 0.04161(16) 0.81085(15) 0.89396(14)
H1 H 0.130(2) 0.858(2) 0.9078(19)
C1 C 0.10280(17) 1.05164(17) 0.77140(15)
C2 C -0.02439(16) 1.00449(16) 0.73734(15)
C3 C -0.10420(17) 1.10712(17) 0.63795(16)
C4 C -0.2423(2) 1.1118(2) 0.56172(19)
H2 H -0.2771 1.2037 0.5118
H3 H -0.3202 1.0983 0.6237
H4 H -0.2203 1.0364 0.4996
C5 C 0.17910(19) 1.27022(17) 0.69264(16)
C6 C 0.1197(2) 1.40867(19) 0.64376(18)
H5 H 0.0188 1.4392 0.6140
C7 C 0.2068(3) 1.5026(2) 0.6381(2)
H6 H 0.1662 1.5972 0.6031
C8 C 0.3519(3) 1.4595(2) 0.6831(2)
H7 H 0.4120 1.5238 0.6788
C9 C 0.4100(2) 1.3225(2) 0.7344(2)
H8 H 0.5097 1.2934 0.7674
C10 C 0.3249(2) 1.2272(2) 0.73843(19)
H9 H 0.3664 1.1325 0.7725
C11 C -0.05472(16) 0.88577(16) 0.80315(15)
C12 C -0.19394(17) 0.84403(16) 0.77922(16)
C13 C -0.2147(2) 0.77965(19) 0.66608(18)
H10 H -0.1366 0.7554 0.6029
C14 C -0.3499(2) 0.7506(2) 0.6453(2)
H11 H -0.3645 0.7065 0.5674
C15 C -0.4624(2) 0.7848(2) 0.7356(2)
H12 H -0.5556 0.7662 0.7197
C16 C -0.44114(19) 0.8458(2) 0.8489(2)
H13 H -0.5192 0.8681 0.9122
C17 C -0.30750(18) 0.87516(18) 0.87209(17)
H14 H -0.2931 0.9167 0.9516
C18 C 0.0316(2) 0.68276(19) 0.9706(2)
H15 H -0.0194 0.6319 0.9183
H16 H -0.0251 0.7075 1.0499
C19 C 0.1772(5) 0.5941(6) 1.0070(7)
H17 H 0.2349 0.5531 0.9340
C20 C 0.2430(9) 0.5605(8) 1.1187(6)
H18 H 0.1939 0.5966 1.1973
H19 H 0.3415 0.4993 1.1237
C21? C 0.1553(8) 0.6368(9) 1.0669(8)
C22? C 0.2789(10) 0.5535(13) 1.0447(12)
H20? H 0.0338 0.6098 0.9113
H21? H -0.0616 0.7019 1.0174
H22? H 0.1399 0.6733 1.1525
H23? H 0.2984 0.5148 0.9602
H24? H 0.3537 0.5286 1.1122
loop_
_geom_bond_atom_site_label_1
_geom_bond_atom_site_label_2
_geom_bond_site_symmetry_1
_geom_bond_site_symmetry_2
O1 C1 1_555 1_555
N1 N2 1_555 1_555
N2 C3 1_555 1_555
N3 H1 1_555 1_555
C1 N1 1_555 1_555
C2 C1 1_555 1_555
C3 C2 1_555 1_555
C4 C3 1_555 1_555
H2 C4 1_555 1_555
H3 C4 1_555 1_555
H4 C4 1_555 1_555
C5 N1 1_555 1_555
C6 C5 1_555 1_555
H5 C6 1_555 1_555
C7 C6 1_555 1_555
H6 C7 1_555 1_555
C8 C7 1_555 1_555
H7 C8 1_555 1_555
C9 C8 1_555 1_555
H8 C9 1_555 1_555
C10 C5 1_555 1_555
H9 C10 1_555 1_555
C11 N3 1_555 1_555
C12 C11 1_555 1_555
C13 C12 1_555 1_555
H10 C13 1_555 1_555
C14 C13 1_555 1_555
H11 C14 1_555 1_555
C15 C14 1_555 1_555
H12 C15 1_555 1_555
C16 C15 1_555 1_555
H13 C16 1_555 1_555
C17 C12 1_555 1_555
H14 C17 1_555 1_555
C18 N3 1_555 1_555
H15 C18 1_555 1_555
H16 C18 1_555 1_555
C19 C18 1_555 1_555
H17 C19 1_555 1_555
C20 C19 1_555 1_555
H18 C20 1_555 1_555
H19 C20 1_555 1_555
C2 C11 1_555 1_555
C9 C10 1_555 1_555
C16 C17 1_555 1_555

#END
