
#######################################################################
#
#                 Cambridge Crystallographic Data Centre
#                                CCDC 
#
#######################################################################
#
# If this CIF has been generated from an entry in the Cambridge 
# Structural Database, then it will include bibliographic, chemical, 
# crystal, experimental, refinement or atomic coordinate data resulting 
# from the CCDC's data processing and validation procedures.
#
#######################################################################

data_TUPBIQ
_chemical_name_common            
'2-(Acetoxymethyl)-6-((3-ethyl-8-methoxy-2-oxo-1,2-dihydroquinolin-4-yl)oxy)tetrahydro-2H-pyran-3,4,5-triyl triacetate'
_chemical_formula_moiety         'C26 H31 N1 O12'
_chemical_name_systematic        
3-Ethyl-8-methoxy-4-(2,3,4,6-tetra-O-acetyl-\b-D-glucopyranosyloxy)quinolin-2(1H)-one
_symmetry_cell_setting           orthorhombic
_symmetry_space_group_name_H-M   'P 21 21 21'
_symmetry_Int_Tables_number      19
_space_group_name_Hall           'P 2ac 2ab'
loop_
_symmetry_equiv_pos_site_id
_symmetry_equiv_pos_as_xyz
1 x,y,z
2 1/2-x,-y,1/2+z
3 -x,1/2+y,1/2-z
4 1/2+x,1/2-y,-z
_cell_length_a                   5.36993(11)
_cell_length_b                   19.2205(6)
_cell_length_c                   27.2479(6)
_cell_angle_alpha                90
_cell_angle_beta                 90
_cell_angle_gamma                90
_cell_volume                     2812.33
_exptl_crystal_colour            colorless
_exptl_crystal_description       block
_cell_formula_units_Z            4
_exptl_crystal_recrystallization_method ethanol
loop_
_atom_site_label
_atom_site_type_symbol
_atom_site_fract_x
_atom_site_fract_y
_atom_site_fract_z
O1 O 0.8708(3) 0.25786(7) 0.53327(5)
O2 O 1.3082(3) 0.37931(8) 0.41238(6)
O3 O 0.4748(3) 0.47871(7) 0.53992(5)
O4 O 0.6219(3) 0.48949(7) 0.61770(5)
O5 O 0.6116(3) 0.45605(8) 0.71945(5)
O6 O 0.5932(3) 0.62765(8) 0.70831(5)
O7 O 0.2195(3) 0.66554(7) 0.64089(5)
O8 O 0.3834(3) 0.62367(7) 0.53780(5)
O9 O -0.0246(3) 0.64890(8) 0.54408(6)
O10 O 0.3960(4) 0.76681(8) 0.62089(7)
O11 O 0.2632(5) 0.59852(14) 0.75466(8)
N1 N 1.0003(3) 0.34410(8) 0.48366(6)
H1 H 1.1186 0.3166 0.4726
C1 C 0.8445(4) 0.31841(10) 0.51878(7)
C2 C 0.6558(4) 0.36595(10) 0.53815(7)
C3 C 0.6499(4) 0.43204(10) 0.52114(7)
C4 C 0.8076(4) 0.45683(10) 0.48212(7)
C5 C 0.7871(4) 0.52319(10) 0.46025(7)
H2 H 0.6672 0.5556 0.4719
C6 C 0.9409(5) 0.54054(11) 0.42219(8)
H3 H 0.9236 0.5848 0.4071
C7 C 1.1230(5) 0.49464(11) 0.40506(8)
H4 H 1.2315 0.5083 0.3793
C8 C 1.1447(4) 0.42976(11) 0.42563(7)
C9 C 0.9848(4) 0.41033(10) 0.46433(7)
C10 C 1.4892(5) 0.39485(14) 0.37598(8)
H5 H 1.6029 0.3553 0.3724
H6 H 1.5837 0.4362 0.3858
H7 H 1.4058 0.4038 0.3446
C11 C 0.4782(5) 0.33763(11) 0.57576(8)
H8 H 0.3952 0.2960 0.5620
H9 H 0.3480 0.3729 0.5821
C12 C 0.5982(7) 0.31787(14) 0.62423(9)
H10 H 0.4688 0.3042 0.6477
H11 H 0.6905 0.3578 0.6372
H12 H 0.7128 0.2789 0.6191
C13 C 0.5741(4) 0.52634(10) 0.57359(6)
H13 H 0.7309 0.5474 0.5605
C14 C 0.7213(4) 0.53372(11) 0.65513(7)
H14 H 0.8610 0.5618 0.6411
C15 C 0.5099(4) 0.58234(11) 0.66957(7)
H15 H 0.3631 0.5546 0.6809
C16 C 0.4377(4) 0.62670(10) 0.62631(7)
H16 H 0.5763 0.6595 0.6183
C17 C 0.3777(4) 0.58191(10) 0.58157(6)
H17 H 0.2101 0.5599 0.5855
C18 C 0.8190(4) 0.48969(12) 0.69638(8)
H18 H 0.9367 0.4545 0.6835
H19 H 0.9082 0.5191 0.7205
C19 C 0.4515(6) 0.63038(14) 0.74961(9)
C20 C 0.5634(8) 0.68002(18) 0.78556(10)
H20 H 0.5080 0.6680 0.8188
H21 H 0.5103 0.7275 0.7777
H22 H 0.7454 0.6771 0.7838
C21 C 0.2251(4) 0.73549(11) 0.63784(8)
C22 C -0.0071(5) 0.76662(13) 0.65782(10)
H23 H 0.0278 0.8137 0.6698
H24 H -0.0689 0.7379 0.6849
H25 H -0.1333 0.7688 0.6319
C23 C 0.1693(4) 0.65329(11) 0.52218(8)
C24 C 0.2118(5) 0.69197(13) 0.47544(9)
H26 H 0.0592 0.6913 0.4557
H27 H 0.3469 0.6698 0.4570
H28 H 0.2573 0.7402 0.4829
C25 C 0.6517(12) 0.4270(4) 0.7636(3)
C26 C 0.415(2) 0.3870(9) 0.7769(5)
H29 H 0.4502 0.3554 0.8043
H30 H 0.3589 0.3601 0.7485
H31 H 0.2846 0.4199 0.7866
O12 O 0.8390(7) 0.4347(4) 0.78546(18)
C27? C 0.647(2) 0.4064(9) 0.7485(5)
C28? C 0.435(3) 0.3921(15) 0.7846(9)
H32? H 0.5040 0.3813 0.8170
H33? H 0.3359 0.3526 0.7729
H34? H 0.3280 0.4334 0.7870
O13? O 0.8449(12) 0.3784(5) 0.7519(4)
loop_
_geom_bond_atom_site_label_1
_geom_bond_atom_site_label_2
_geom_bond_site_symmetry_1
_geom_bond_site_symmetry_2
O1 C1 1_555 1_555
O2 C8 1_555 1_555
O3 C3 1_555 1_555
O4 C13 1_555 1_555
O5 C18 1_555 1_555
O6 C15 1_555 1_555
O7 C16 1_555 1_555
O8 C17 1_555 1_555
O9 C23 1_555 1_555
O10 C21 1_555 1_555
O11 C19 1_555 1_555
N1 H1 1_555 1_555
C1 N1 1_555 1_555
C2 C1 1_555 1_555
C3 C2 1_555 1_555
C4 C3 1_555 1_555
C5 C4 1_555 1_555
H2 C5 1_555 1_555
C6 C5 1_555 1_555
H3 C6 1_555 1_555
C7 C6 1_555 1_555
H4 C7 1_555 1_555
C8 C7 1_555 1_555
C9 N1 1_555 1_555
C10 O2 1_555 1_555
H5 C10 1_555 1_555
H6 C10 1_555 1_555
H7 C10 1_555 1_555
C11 C2 1_555 1_555
H8 C11 1_555 1_555
H9 C11 1_555 1_555
C12 C11 1_555 1_555
H10 C12 1_555 1_555
H11 C12 1_555 1_555
H12 C12 1_555 1_555
C13 O3 1_555 1_555
H13 C13 1_555 1_555
C14 O4 1_555 1_555
H14 C14 1_555 1_555
C15 C14 1_555 1_555
H15 C15 1_555 1_555
C16 C15 1_555 1_555
H16 C16 1_555 1_555
C17 C13 1_555 1_555
H17 C17 1_555 1_555
C18 C14 1_555 1_555
H18 C18 1_555 1_555
H19 C18 1_555 1_555
C19 O6 1_555 1_555
C20 C19 1_555 1_555
H20 C20 1_555 1_555
H21 C20 1_555 1_555
H22 C20 1_555 1_555
C21 O7 1_555 1_555
C22 C21 1_555 1_555
H23 C22 1_555 1_555
H24 C22 1_555 1_555
H25 C22 1_555 1_555
C23 O8 1_555 1_555
C24 C23 1_555 1_555
H26 C24 1_555 1_555
H27 C24 1_555 1_555
H28 C24 1_555 1_555
C25 O5 1_555 1_555
C26 C25 1_555 1_555
H29 C26 1_555 1_555
H30 C26 1_555 1_555
H31 C26 1_555 1_555
O12 C25 1_555 1_555
C4 C9 1_555 1_555
C8 C9 1_555 1_555
C16 C17 1_555 1_555

#END
