
#######################################################################
#
#                 Cambridge Crystallographic Data Centre
#                                CCDC 
#
#######################################################################
#
# If this CIF has been generated from an entry in the Cambridge 
# Structural Database, then it will include bibliographic, chemical, 
# crystal, experimental, refinement or atomic coordinate data resulting 
# from the CCDC's data processing and validation procedures.
#
#######################################################################

data_TUPSAA
_chemical_formula_moiety         'C21 H12 O1 S2'
_chemical_name_systematic        
3,4-diphenyl-7H-thieno[3',4':3,4]cyclopenta[1,2-c]thiophen-7-one
_symmetry_cell_setting           monoclinic
_symmetry_space_group_name_H-M   'P 21/c'
_symmetry_Int_Tables_number      14
_space_group_name_Hall           '-P 2ybc'
loop_
_symmetry_equiv_pos_site_id
_symmetry_equiv_pos_as_xyz
1 x,y,z
2 -x,1/2+y,1/2-z
3 -x,-y,-z
4 x,1/2-y,1/2+z
_cell_length_a                   9.4678(14)
_cell_length_b                   20.285(3)
_cell_length_c                   9.5649(13)
_cell_angle_alpha                90
_cell_angle_beta                 116.620(3)
_cell_angle_gamma                90
_cell_volume                     1642.26
_exptl_crystal_colour            colorless
_exptl_crystal_description       BLOCK
_cell_formula_units_Z            4
loop_
_atom_site_label
_atom_site_type_symbol
_atom_site_fract_x
_atom_site_fract_y
_atom_site_fract_z
O1 O 1.2488(2) 0.00826(7) 0.5248(2)
S1 S 0.92345(6) 0.19926(3) 0.44581(7)
C1 C 1.5182(2) 0.21168(9) 0.6033(2)
C2 C 1.3852(2) 0.17489(9) 0.5666(2)
S2 S 1.67908(6) 0.15898(3) 0.64820(7)
C3 C 1.4146(2) 0.10517(9) 0.5751(2)
C4 C 1.5676(3) 0.08955(11) 0.6170(3)
H1 H 1.6064 0.0468 0.6272
C5 C 1.2667(3) 0.06786(10) 0.5326(2)
C6 C 1.1464(2) 0.11978(9) 0.5015(2)
C7 C 0.9905(3) 0.12046(10) 0.4640(3)
H2 H 0.9288 0.0831 0.4502
C8 C 1.2150(2) 0.18416(9) 0.5188(2)
C9 C 1.1077(2) 0.23357(9) 0.4906(2)
C10 C 1.5457(2) 0.28326(10) 0.6120(2)
C11 C 1.5030(2) 0.32262(10) 0.7065(2)
H3 H 1.4538 0.3039 0.7620
C12 C 1.5339(3) 0.38942(11) 0.7175(3)
H4 H 1.5062 0.4154 0.7814
C13 C 1.6053(3) 0.41788(12) 0.6348(3)
H5 H 1.6256 0.4629 0.6426
C14 C 1.6462(3) 0.37920(13) 0.5408(3)
H6 H 1.6937 0.3983 0.4841
C15 C 1.6178(3) 0.31259(11) 0.5297(3)
H7 H 1.6471 0.2869 0.4664
C16 C 1.1207(2) 0.30570(9) 0.4917(2)
C17 C 1.0845(3) 0.34374(11) 0.5923(3)
H8 H 1.0502 0.3233 0.6587
C18 C 1.0988(3) 0.41105(12) 0.5947(3)
H9 H 1.0759 0.4359 0.6638
C19 C 1.1467(3) 0.44182(12) 0.4955(3)
H10 H 1.1562 0.4875 0.4973
C20 C 1.1809(3) 0.40516(11) 0.3932(3)
H11 H 1.2123 0.4261 0.3253
C21 C 1.1686(3) 0.33749(10) 0.3914(2)
H12 H 1.1924 0.3129 0.3226
loop_
_geom_bond_atom_site_label_1
_geom_bond_atom_site_label_2
_geom_bond_site_symmetry_1
_geom_bond_site_symmetry_2
O1 C5 1_555 1_555
S1 C7 1_555 1_555
C1 C2 1_555 1_555
C2 C3 1_555 1_555
S2 C1 1_555 1_555
C3 C4 1_555 1_555
C4 S2 1_555 1_555
H1 C4 1_555 1_555
C5 C3 1_555 1_555
C6 C5 1_555 1_555
C7 C6 1_555 1_555
H2 C7 1_555 1_555
C8 C2 1_555 1_555
C9 S1 1_555 1_555
C10 C1 1_555 1_555
C11 C10 1_555 1_555
H3 C11 1_555 1_555
C12 C11 1_555 1_555
H4 C12 1_555 1_555
C13 C12 1_555 1_555
H5 C13 1_555 1_555
C14 C13 1_555 1_555
H6 C14 1_555 1_555
C15 C10 1_555 1_555
H7 C15 1_555 1_555
C16 C9 1_555 1_555
C17 C16 1_555 1_555
H8 C17 1_555 1_555
C18 C17 1_555 1_555
H9 C18 1_555 1_555
C19 C18 1_555 1_555
H10 C19 1_555 1_555
C20 C19 1_555 1_555
H11 C20 1_555 1_555
C21 C16 1_555 1_555
H12 C21 1_555 1_555
C6 C8 1_555 1_555
C8 C9 1_555 1_555
C14 C15 1_555 1_555
C20 C21 1_555 1_555

#END
