
#######################################################################
#
#                 Cambridge Crystallographic Data Centre
#                                CCDC 
#
#######################################################################
#
# If this CIF has been generated from an entry in the Cambridge 
# Structural Database, then it will include bibliographic, chemical, 
# crystal, experimental, refinement or atomic coordinate data resulting 
# from the CCDC's data processing and validation procedures.
#
#######################################################################

data_TUPVEG
_chemical_formula_moiety         'C13 H17 N1 O2 S1'
_chemical_name_systematic        3-Butyl-2-phenyl-1,3-thiazolidine-1,4-dione
_symmetry_cell_setting           monoclinic
_symmetry_space_group_name_H-M   'P 21/c'
_symmetry_Int_Tables_number      14
_space_group_name_Hall           '-P 2ybc'
loop_
_symmetry_equiv_pos_site_id
_symmetry_equiv_pos_as_xyz
1 x,y,z
2 -x,1/2+y,1/2-z
3 -x,-y,-z
4 x,1/2-y,1/2+z
_cell_length_a                   13.8335(5)
_cell_length_b                   8.7461(3)
_cell_length_c                   12.3853(4)
_cell_angle_alpha                90
_cell_angle_beta                 114.773(2)
_cell_angle_gamma                90
_cell_volume                     1360.59
_exptl_crystal_colour            yellow
_exptl_crystal_description       block
_cell_formula_units_Z            4
_exptl_crystal_recrystallization_method chloroform
loop_
_atom_site_label
_atom_site_type_symbol
_atom_site_fract_x
_atom_site_fract_y
_atom_site_fract_z
N1 N 0.25227(13) 0.66161(18) 0.36775(14)
O1 O 0.04410(14) 0.84045(17) 0.19284(19)
O2 O 0.24851(16) 0.7278(2) 0.54296(16)
S1 S 0.04960(4) 0.67497(6) 0.22013(5)
C1 C 0.20313(18) 0.6887(2) 0.4393(2)
C2 C 0.08545(18) 0.6614(2) 0.3755(2)
H1 H 0.0469 0.7371 0.3993
H2 H 0.0678 0.5608 0.3949
C3 C 0.18626(14) 0.6127(2) 0.24789(16)
H3 H 0.2085 0.6679 0.1933
C4 C 0.18891(14) 0.4445(2) 0.22558(16)
C5 C 0.15706(17) 0.3929(2) 0.10953(19)
H4 H 0.1360 0.4631 0.0474
C6 C 0.1564(2) 0.2395(3) 0.0856(2)
H5 H 0.1346 0.2067 0.0075
C7 C 0.1875(2) 0.1350(3) 0.1756(3)
H6 H 0.1875 0.0313 0.1589
C8 C 0.2186(2) 0.1831(3) 0.2906(3)
H7 H 0.2387 0.1118 0.3518
C9 C 0.22036(17) 0.3375(2) 0.3161(2)
H8 H 0.2428 0.3694 0.3945
C10 C 0.36729(17) 0.6710(3) 0.4092(2)
H9 H 0.3932 0.5761 0.3906
H10 H 0.3996 0.6830 0.4949
C11 C 0.4012(2) 0.8007(3) 0.3546(3)
H11 H 0.3744 0.8954 0.3726
H12 H 0.3689 0.7882 0.2689
C12 C 0.5200(2) 0.8135(4) 0.3968(3)
H13 H 0.5521 0.8311 0.4820
H14 H 0.5473 0.7173 0.3821
C13 C 0.5527(3) 0.9381(6) 0.3380(4)
H15 H 0.5328 0.9122 0.2561
H16 H 0.6284 0.9516 0.3773
H17 H 0.5179 1.0314 0.3425
loop_
_geom_bond_atom_site_label_1
_geom_bond_atom_site_label_2
_geom_bond_site_symmetry_1
_geom_bond_site_symmetry_2
N1 C1 1_555 1_555
O1 S1 1_555 1_555
O2 C1 1_555 1_555
S1 C2 1_555 1_555
C1 C2 1_555 1_555
C2 H1 1_555 1_555
H2 C2 1_555 1_555
C3 N1 1_555 1_555
H3 C3 1_555 1_555
C4 C3 1_555 1_555
C5 C4 1_555 1_555
H4 C5 1_555 1_555
C6 C5 1_555 1_555
H5 C6 1_555 1_555
C7 C6 1_555 1_555
H6 C7 1_555 1_555
C8 C7 1_555 1_555
H7 C8 1_555 1_555
C9 C4 1_555 1_555
H8 C9 1_555 1_555
C10 N1 1_555 1_555
H9 C10 1_555 1_555
H10 C10 1_555 1_555
C11 C10 1_555 1_555
H11 C11 1_555 1_555
H12 C11 1_555 1_555
C12 C11 1_555 1_555
H13 C12 1_555 1_555
H14 C12 1_555 1_555
C13 C12 1_555 1_555
H15 C13 1_555 1_555
H16 C13 1_555 1_555
H17 C13 1_555 1_555
S1 C3 1_555 1_555
C8 C9 1_555 1_555

#END
