
#######################################################################
#
#                 Cambridge Crystallographic Data Centre
#                                CCDC 
#
#######################################################################
#
# If this CIF has been generated from an entry in the Cambridge 
# Structural Database, then it will include bibliographic, chemical, 
# crystal, experimental, refinement or atomic coordinate data resulting 
# from the CCDC's data processing and validation procedures.
#
#######################################################################

data_TUPXIM
_chemical_name_common            
(2-Acetamido-5-chlorophenyl)(2-chlorophenyl)methanone
_chemical_formula_moiety         'C15 H11 Cl2 N1 O2'
_chemical_name_systematic        
N-(4-Chloro-2-(2-chlorobenzoyl)phenyl)acetamide
_symmetry_cell_setting           monoclinic
_symmetry_space_group_name_H-M   'P 21/c'
_symmetry_Int_Tables_number      14
_space_group_name_Hall           '-P 2ybc'
loop_
_symmetry_equiv_pos_site_id
_symmetry_equiv_pos_as_xyz
1 x,y,z
2 -x,1/2+y,1/2-z
3 -x,-y,-z
4 x,1/2-y,1/2+z
_cell_length_a                   11.1371(11)
_cell_length_b                   5.0661(6)
_cell_length_c                   25.594(3)
_cell_angle_alpha                90
_cell_angle_beta                 100.672(9)
_cell_angle_gamma                90
_cell_volume                     1419.08
_exptl_crystal_colour            colorless
_exptl_crystal_description       block
_cell_formula_units_Z            4
loop_
_atom_site_label
_atom_site_type_symbol
_atom_site_fract_x
_atom_site_fract_y
_atom_site_fract_z
Cl1 Cl 1.01228(8) 0.21348(16) 0.05190(3)
Cl2 Cl 0.68968(8) 0.97146(17) 0.00452(3)
O1 O 0.94298(18) 0.2513(5) 0.19297(8)
O2 O 0.5030(2) 0.0779(5) 0.17216(10)
N1 N 0.7034(2) 0.1634(5) 0.17250(9)
C1 C 0.6927(2) 0.7372(6) 0.05413(10)
C2 C 0.8029(2) 0.6603(5) 0.08384(10)
C3 C 0.8082(2) 0.4689(5) 0.12330(10)
C4 C 0.6978(2) 0.3551(5) 0.13289(10)
C5 C 0.5876(3) 0.4396(6) 0.10239(12)
C6 C 0.5855(3) 0.6267(6) 0.06384(12)
C7 C 0.9300(2) 0.3982(6) 0.15419(11)
C8 C 1.0428(2) 0.5175(5) 0.13994(10)
C9 C 1.0892(2) 0.4451(5) 0.09588(10)
C10 C 1.1978(3) 0.5487(6) 0.08559(12)
C11 C 1.2597(3) 0.7314(7) 0.11949(14)
C12 C 1.2151(3) 0.8101(7) 0.16279(13)
C13 C 1.1075(3) 0.7045(6) 0.17374(11)
C14 C 0.6092(3) 0.0330(6) 0.18928(13)
C15 C 0.6499(3) -0.1678(7) 0.23219(13)
H1 H 0.77560 0.12130 0.18860
H2 H 0.87480 0.73680 0.07750
H3 H 0.51450 0.36760 0.10840
H4 H 0.51110 0.68050 0.04390
H5 H 1.22820 0.49410 0.05590
H6 H 1.33250 0.80190 0.11290
H7 H 1.25710 0.93660 0.18540
H8 H 1.07860 0.75900 0.20380
H9 H 0.63180 -0.10450 0.26520
H10 H 0.73630 -0.19610 0.23590
H11 H 0.60750 -0.33100 0.22290
loop_
_geom_bond_atom_site_label_1
_geom_bond_atom_site_label_2
_geom_bond_site_symmetry_1
_geom_bond_site_symmetry_2
Cl1 C9 1_555 1_555
Cl2 C1 1_555 1_555
O1 C7 1_555 1_555
O2 C14 1_555 1_555
N1 C4 1_555 1_555
C1 C2 1_555 1_555
C2 C3 1_555 1_555
C3 C4 1_555 1_555
C4 C5 1_555 1_555
C5 C6 1_555 1_555
C6 C1 1_555 1_555
C7 C3 1_555 1_555
C8 C7 1_555 1_555
C9 C8 1_555 1_555
C10 C9 1_555 1_555
C11 C10 1_555 1_555
C12 C11 1_555 1_555
C13 C8 1_555 1_555
C14 N1 1_555 1_555
C15 C14 1_555 1_555
H1 N1 1_555 1_555
H2 C2 1_555 1_555
H3 C5 1_555 1_555
H4 C6 1_555 1_555
H5 C10 1_555 1_555
H6 C11 1_555 1_555
H7 C12 1_555 1_555
H8 C13 1_555 1_555
H9 C15 1_555 1_555
H10 C15 1_555 1_555
H11 C15 1_555 1_555
C12 C13 1_555 1_555

#END
