
#######################################################################
#
#                 Cambridge Crystallographic Data Centre
#                                CCDC 
#
#######################################################################
#
# If this CIF has been generated from an entry in the Cambridge 
# Structural Database, then it will include bibliographic, chemical, 
# crystal, experimental, refinement or atomic coordinate data resulting 
# from the CCDC's data processing and validation procedures.
#
#######################################################################

data_TUQFER
_chemical_formula_moiety         'C13 H14 O1 S1'
_chemical_name_systematic        3-tert-Butyl-1H-isochromene-1-thione
_symmetry_cell_setting           rhombohedral
_symmetry_space_group_name_H-M   'R -3'
_symmetry_Int_Tables_number      148
_space_group_name_Hall           '-R 3'
loop_
_symmetry_equiv_pos_site_id
_symmetry_equiv_pos_as_xyz
1 x,y,z
2 -y,x-y,z
3 -x+y,-x,z
4 1/3+x,2/3+y,2/3+z
5 1/3-y,2/3+x-y,2/3+z
6 1/3-x+y,2/3-x,2/3+z
7 2/3+x,1/3+y,1/3+z
8 2/3-y,1/3+x-y,1/3+z
9 2/3-x+y,1/3-x,1/3+z
10 -x,-y,-z
11 y,-x+y,-z
12 x-y,x,-z
13 2/3-x,1/3-y,1/3-z
14 2/3+y,1/3-x+y,1/3-z
15 2/3+x-y,1/3+x,1/3-z
16 1/3-x,2/3-y,2/3-z
17 1/3+y,2/3-x+y,2/3-z
18 1/3+x-y,2/3+x,2/3-z
_cell_length_a                   43.2799(16)
_cell_length_b                   43.2799(16)
_cell_length_c                   6.9025(5)
_cell_angle_alpha                90
_cell_angle_beta                 90
_cell_angle_gamma                120
_cell_volume                     11197.2
_exptl_crystal_colour            yellow
_exptl_crystal_description       block
_cell_formula_units_Z            36
loop_
_atom_site_label
_atom_site_type_symbol
_atom_site_fract_x
_atom_site_fract_y
_atom_site_fract_z
S1 S 0.81419(2) -0.00817(2) 0.78291(13)
O1 O 0.87826(4) 0.04385(4) 0.7757(3)
C1 C 0.86386(7) 0.09888(6) 0.7809(3)
C2 C 0.85585(8) 0.12659(7) 0.7850(4)
C3 C 0.82145(9) 0.11923(8) 0.7911(4)
C4 C 0.79363(8) 0.08436(9) 0.7932(4)
C5 C 0.80057(7) 0.05677(7) 0.7903(4)
C6 C 0.83556(6) 0.06358(6) 0.7841(3)
C7 C 0.84331(7) 0.03469(6) 0.7812(4)
C8 C 0.90635(6) 0.07871(6) 0.7703(3)
C9 C 0.89948(7) 0.10530(6) 0.7739(3)
C10 C 0.94129(7) 0.07913(7) 0.7620(4)
C11 C 0.97229(7) 0.11727(8) 0.7400(5)
C12 C 0.94624(9) 0.06357(9) 0.9523(5)
C13 C 0.94106(9) 0.05714(9) 0.5875(5)
H1 H 0.87430 0.15020 0.78360
H2 H 0.81660 0.13790 0.79390
H3 H 0.77020 0.07960 0.79660
H4 H 0.78180 0.03330 0.79240
H5 H 0.91830 0.12870 0.77170
H6 H 0.96880 0.12780 0.62590
H7 H 0.99420 0.11690 0.72860
H8 H 0.97330 0.13100 0.85160
H9 H 0.94830 0.07890 1.05820
H10 H 0.96750 0.06190 0.94440
H11 H 0.92600 0.04030 0.97290
H12 H 0.92160 0.03310 0.59980
H13 H 0.96320 0.05700 0.58270
H14 H 0.93820 0.06750 0.47070
S2 S 0.77849(2) 0.11691(2) 0.28420(12)
O2 O 0.76501(4) 0.05251(4) 0.2971(3)
C14 C 0.83413(6) 0.06544(6) 0.2874(3)
C15 C 0.86926(6) 0.07253(7) 0.2822(4)
C16 C 0.89714(7) 0.10670(8) 0.2764(4)
C17 C 0.89068(7) 0.13502(7) 0.2747(4)
C18 C 0.85652(7) 0.12899(6) 0.2800(3)
C19 C 0.82767(6) 0.09412(6) 0.2863(3)
C20 C 0.79136(6) 0.08729(6) 0.2900(3)
C21 C 0.77110(6) 0.02397(6) 0.2971(4)
C22 C 0.80418(6) 0.02988(6) 0.2925(3)
C23 C 0.73624(7) -0.01086(6) 0.3019(5)
C24 C 0.74338(8) -0.04203(7) 0.2923(5)
C25 C 0.71642(9) -0.01317(8) 0.4895(6)
C26 C 0.71430(8) -0.01215(8) 0.1256(6)
H15 H 0.87380 0.05370 0.28280
H16 H 0.92050 0.11100 0.27370
H17 H 0.90970 0.15830 0.26980
H18 H 0.85250 0.14820 0.27940
H19 H 0.80810 0.01060 0.29270
H20 H 0.75560 -0.04070 0.17380
H21 H 0.72110 -0.06410 0.29670
H22 H 0.75790 -0.04080 0.40050
H23 H 0.72880 -0.01600 0.59730
H24 H 0.69270 -0.03330 0.48330
H25 H 0.71530 0.00830 0.50580
H26 H 0.71030 0.00780 0.12930
H27 H 0.69180 -0.03400 0.12730
H28 H 0.72700 -0.01110 0.00950
loop_
_geom_bond_atom_site_label_1
_geom_bond_atom_site_label_2
_geom_bond_site_symmetry_1
_geom_bond_site_symmetry_2
S1 C7 1_555 1_555
O1 C7 1_555 1_555
C1 C2 1_555 1_555
C2 C3 1_555 1_555
C3 C4 1_555 1_555
C4 C5 1_555 1_555
C5 C6 1_555 1_555
C6 C1 1_555 1_555
C7 C6 1_555 1_555
C8 O1 1_555 1_555
C9 C1 1_555 1_555
C10 C8 1_555 1_555
C11 C10 1_555 1_555
C12 C10 1_555 1_555
C13 C10 1_555 1_555
H1 C2 1_555 1_555
H2 C3 1_555 1_555
H3 C4 1_555 1_555
H4 C5 1_555 1_555
H5 C9 1_555 1_555
H6 C11 1_555 1_555
H7 C11 1_555 1_555
H8 C11 1_555 1_555
H9 C12 1_555 1_555
H10 C12 1_555 1_555
H11 C12 1_555 1_555
H12 C13 1_555 1_555
H13 C13 1_555 1_555
H14 C13 1_555 1_555
S2 C20 1_555 1_555
O2 C20 1_555 1_555
C14 C15 1_555 1_555
C15 C16 1_555 1_555
C16 C17 1_555 1_555
C17 C18 1_555 1_555
C18 C19 1_555 1_555
C19 C14 1_555 1_555
C20 C19 1_555 1_555
C21 O2 1_555 1_555
C22 C14 1_555 1_555
C23 C21 1_555 1_555
C24 C23 1_555 1_555
C25 C23 1_555 1_555
C26 C23 1_555 1_555
H15 C15 1_555 1_555
H16 C16 1_555 1_555
H17 C17 1_555 1_555
H18 C18 1_555 1_555
H19 C22 1_555 1_555
H20 C24 1_555 1_555
H21 C24 1_555 1_555
H22 C24 1_555 1_555
H23 C25 1_555 1_555
H24 C25 1_555 1_555
H25 C25 1_555 1_555
H26 C26 1_555 1_555
H27 C26 1_555 1_555
H28 C26 1_555 1_555
C8 C9 1_555 1_555
C21 C22 1_555 1_555

#END
