
#######################################################################
#
#                 Cambridge Crystallographic Data Centre
#                                CCDC 
#
#######################################################################
#
# If this CIF has been generated from an entry in the Cambridge 
# Structural Database, then it will include bibliographic, chemical, 
# crystal, experimental, refinement or atomic coordinate data resulting 
# from the CCDC's data processing and validation procedures.
#
#######################################################################

data_TUQHAO01
_chemical_formula_moiety         'C16 H10 Te4'
_chemical_name_systematic        
3,4-Dimethylanthra(1,9-cd:4,10-c'd')bis((1,2)ditellurole)
_symmetry_cell_setting           monoclinic
_symmetry_space_group_name_H-M   'P 21/c'
_symmetry_Int_Tables_number      14
_space_group_name_Hall           '-P 2ybc'
loop_
_symmetry_equiv_pos_site_id
_symmetry_equiv_pos_as_xyz
1 x,y,z
2 -x,1/2+y,1/2-z
3 -x,-y,-z
4 x,1/2-y,1/2+z
_cell_length_a                   9.976(5)
_cell_length_b                   5.137(1)
_cell_length_c                   16.186(1)
_cell_angle_alpha                90
_cell_angle_beta                 104.28(2)
_cell_angle_gamma                90
_cell_volume                     803.85
_exptl_crystal_colour            black
_exptl_crystal_description       needle
_cell_formula_units_Z            2
loop_
_atom_site_label
_atom_site_type_symbol
_atom_site_fract_x
_atom_site_fract_y
_atom_site_fract_z
Te1 Te 0.9198(1) 0.0443(2) 0.31174(5)
Te2 Te 1.1884(1) 0.0367(2) 0.38919(6)
C1 C 0.644(2) 0.326(3) 0.3278(9)
C2 C 0.763(1) 0.422(3) 0.3964(8)
C3 C 0.895(2) 0.323(2) 0.4029(7)
C4 C 1.013(2) 0.402(2) 0.4691(7)
C5 C 1.149(2) 0.308(2) 0.4787(8)
C6 C 0.736(2) 0.613(3) 0.4567(8)
C7 C 0.595(2) 0.727(3) 0.4484(10)
C8 C 0.519(3) 0.597(6) 0.388(2)
C9 C 0.538(3) 0.412(5) 0.333(2)
Te1B Te 1.0802(1) 0.9557(2) 0.68826(5)
Te2B Te 0.8116(1) 0.9633(2) 0.61081(6)
C1B C 1.356(2) 0.674(3) 0.6722(9)
C2B C 1.237(1) 0.578(3) 0.6036(8)
C3B C 1.105(2) 0.677(2) 0.5971(7)
C4B C 0.987(2) 0.598(2) 0.5309(7)
C5B C 0.851(2) 0.692(2) 0.5213(8)
C6B C 1.264(2) 0.387(3) 0.5433(8)
C7B C 1.405(2) 0.273(3) 0.5516(10)
C8B C 1.481(3) 0.403(6) 0.612(2)
C9B C 1.462(3) 0.588(5) 0.667(2)
loop_
_geom_bond_atom_site_label_1
_geom_bond_atom_site_label_2
_geom_bond_site_symmetry_1
_geom_bond_site_symmetry_2
Te1 Te2 1_555 1_555
Te2 C5 1_555 1_555
C1 C2 1_555 1_555
C2 C3 1_555 1_555
C3 Te1 1_555 1_555
C4 C3 1_555 1_555
C5 C4 1_555 1_555
C6 C2 1_555 1_555
C7 C6 1_555 1_555
C8 C7 1_555 1_555
C9 C1 1_555 1_555
Te1B Te2B 1_555 1_555
Te2B C5B 1_555 1_555
C1B C2B 1_555 1_555
C2B C3B 1_555 1_555
C3B Te1B 1_555 1_555
C4B C4 1_555 1_555
C5B C6 1_555 1_555
C6B C5 1_555 1_555
C7B C6B 1_555 1_555
C8B C7B 1_555 1_555
C9B C1B 1_555 1_555
C8 C9 1_555 1_555
C2B C6B 1_555 1_555
C3B C4B 1_555 1_555
C4B C5B 1_555 1_555
C8B C9B 1_555 1_555

#END
