
#######################################################################
#
#                 Cambridge Crystallographic Data Centre
#                                CCDC 
#
#######################################################################
#
# If this CIF has been generated from an entry in the Cambridge 
# Structural Database, then it will include bibliographic, chemical, 
# crystal, experimental, refinement or atomic coordinate data resulting 
# from the CCDC's data processing and validation procedures.
#
#######################################################################

data_TUQHES01
_chemical_formula_moiety         '2(C16 H10 Te4 1+),C16 H10 Te4,2(Cl1 O4 1-)'
_chemical_name_systematic        
"tris(3,4-Dimethylanthra(1,9-cd:4,10-c'd')bis((1,2)ditellurole)) diperchlorate"
_symmetry_cell_setting           monoclinic
_symmetry_space_group_name_H-M   'C 2/m'
_symmetry_Int_Tables_number      12
_space_group_name_Hall           '-C 2y'
loop_
_symmetry_equiv_pos_site_id
_symmetry_equiv_pos_as_xyz
1 x,y,z
2 -x,y,-z
3 1/2+x,1/2+y,z
4 1/2-x,1/2+y,-z
5 -x,-y,-z
6 x,-y,z
7 1/2-x,1/2-y,-z
8 1/2+x,1/2-y,z
_cell_length_a                   16.538(3)
_cell_length_b                   14.681(2)
_cell_length_c                   11.612(4)
_cell_angle_alpha                90
_cell_angle_beta                 111.48(2)
_cell_angle_gamma                90
_cell_volume                     2623.51
_exptl_crystal_colour            black
_exptl_crystal_description       prismatic
_cell_formula_units_Z            2
loop_
_atom_site_label
_atom_site_type_symbol
_atom_site_fract_x
_atom_site_fract_y
_atom_site_fract_z
Te3 Te 1.22418(3) 0.40862(5) 0.06170(5)
C9 C 1.0459(9) 0.1736(8) 0.014(1)
C10 C 1.0921(5) 0.2416(6) 0.0273(7)
C11 C 1.0454(4) 0.3318(5) 0.0125(6)
C12 C 1.0883(3) 0.4135(5) 0.0234(5)
C13 C 1.0476(5) 0.5000 0.0123(8)
Te3E Te 1.22418(3) 0.59138(5) 0.06170(5)
Te3D Te 0.77582(3) 0.59138(5) -0.06170(5)
Te3A Te 0.77582(3) 0.40862(5) -0.06170(5)
C9E C 1.0459(9) 0.8264(8) 0.014(1)
C9D C 0.9541(9) 0.8264(8) -0.014(1)
C9A C 0.9541(9) 0.1736(8) -0.014(1)
C10E C 1.0921(5) 0.7584(6) 0.0273(7)
C10D C 0.9079(5) 0.7584(6) -0.0273(7)
C10A C 0.9079(5) 0.2416(6) -0.0273(7)
C11E C 1.0454(4) 0.6682(5) 0.0125(6)
C11D C 0.9546(4) 0.6682(5) -0.0125(6)
C11A C 0.9546(4) 0.3318(5) -0.0125(6)
C12E C 1.0883(3) 0.5865(5) 0.0234(5)
C12D C 0.9117(3) 0.5865(5) -0.0234(5)
C12A C 0.9117(3) 0.4135(5) -0.0234(5)
C13A C 0.9524(5) 0.5000 -0.0123(8)
Cl1 Cl 1.4880(1) 0.5000 0.2484(3)
O1 O 1.4153(5) 0.5000 0.1386(10)
O2 O 1.4857(4) 0.4251(4) 0.3210(7)
O3 O 1.5617(5) 0.5000 0.226(1)
O2E O 1.4857(4) 0.5749(4) 0.3210(7)
Te1 Te 1.08009(3) 0.26249(3) 0.35325(4)
Te2 Te 0.90994(3) 0.26378(3) 0.30269(4)
C1 C 1.3141(3) 0.4519(4) 0.4299(5)
C2 C 1.2377(3) 0.4034(5) 0.4041(5)
C3 C 1.1583(3) 0.4519(4) 0.3822(5)
C4 C 1.0788(3) 0.4038(4) 0.3586(5)
C5 C 0.9989(3) 0.4508(3) 0.3386(4)
C6 C 0.9177(3) 0.4046(4) 0.3182(5)
C7 C 0.8412(3) 0.4527(4) 0.3044(5)
C8 C 0.7581(3) 0.3975(5) 0.2858(6)
Te1E Te 1.08009(3) 0.73751(3) 0.35325(4)
Te2E Te 0.90994(3) 0.73622(3) 0.30269(4)
C1E C 1.3141(3) 0.5481(4) 0.4299(5)
C2E C 1.2377(3) 0.5966(5) 0.4041(5)
C3E C 1.1583(3) 0.5481(4) 0.3822(5)
C4E C 1.0788(3) 0.5962(4) 0.3586(5)
C5E C 0.9989(3) 0.5492(3) 0.3386(4)
C6E C 0.9177(3) 0.5954(4) 0.3182(5)
C7E C 0.8412(3) 0.5473(4) 0.3044(5)
C8E C 0.7581(3) 0.6025(5) 0.2858(6)
loop_
_geom_bond_atom_site_label_1
_geom_bond_atom_site_label_2
_geom_bond_site_symmetry_1
_geom_bond_site_symmetry_2
Te1 Te2 1_555 1_555
Te2 C6 1_555 1_555
Te3 C12 1_555 1_555
Cl1 O1 1_555 1_555
O2 Cl1 1_555 1_555
O3 Cl1 1_555 1_555
C1 C2 1_555 1_555
C2 C3 1_555 1_555
C3 C4 1_555 1_555
C4 Te1 1_555 1_555
C5 C4 1_555 1_555
C6 C5 1_555 1_555
C7 C6 1_555 1_555
C8 C7 1_555 1_555
C9 C10 1_555 1_555
C10 C11 1_555 1_555
C11 C12 1_555 1_555
C12 C13 1_555 1_555
C13 C12E 1_555 1_555
Te1E Te2E 1_555 1_555
Te2E C6E 1_555 1_555
Te3E Te3 1_555 1_555
Te3D Te3A 1_555 1_555
Te3A C12A 1_555 1_555
O2E Cl1 1_555 1_555
C1E C1 1_555 1_555
C2E C1E 1_555 1_555
C3E C3 1_555 1_555
C4E Te1E 1_555 1_555
C5E C5 1_555 1_555
C6E C5E 1_555 1_555
C7E C7 1_555 1_555
C8E C7E 1_555 1_555
C9E C9D 1_555 1_555
C9D C10D 1_555 1_555
C9A C9 1_555 1_555
C10E C9E 1_555 1_555
C10D C11D 1_555 1_555
C10A C9A 1_555 1_555
C11E C10E 1_555 1_555
C11D C11E 1_555 1_555
C11A C11 1_555 1_555
C12E Te3E 1_555 1_555
C12D Te3D 1_555 1_555
C12A C11A 1_555 1_555
C13A C13 1_555 1_555
C2E C3E 1_555 1_555
C3E C4E 1_555 1_555
C4E C5E 1_555 1_555
C6E C7E 1_555 1_555
C10A C11A 1_555 1_555
C11E C12E 1_555 1_555
C11D C12D 1_555 1_555
C12D C13A 1_555 1_555
C12A C13A 1_555 1_555

#END
