
#######################################################################
#
#                 Cambridge Crystallographic Data Centre
#                                CCDC 
#
#######################################################################
#
# If this CIF has been generated from an entry in the Cambridge 
# Structural Database, then it will include bibliographic, chemical, 
# crystal, experimental, refinement or atomic coordinate data resulting 
# from the CCDC's data processing and validation procedures.
#
#######################################################################

data_TUQMUP
_chemical_formula_moiety         'C23 H30 Br1 N1 O4 S1'
_chemical_name_systematic        
6-(bromomethyl)-3-isobutyl-2-(2-methoxyphenyl)-4-((4-methylphenyl)sulfonyl)morpholine
_symmetry_cell_setting           monoclinic
_symmetry_space_group_name_H-M   'P 21'
_symmetry_Int_Tables_number      4
_space_group_name_Hall           'P 2yb'
loop_
_symmetry_equiv_pos_site_id
_symmetry_equiv_pos_as_xyz
1 x,y,z
2 -x,1/2+y,-z
_cell_length_a                   10.3945(3)
_cell_length_b                   21.9265(7)
_cell_length_c                   10.5602(5)
_cell_angle_alpha                90
_cell_angle_beta                 90.283(4)
_cell_angle_gamma                90
_cell_volume                     2406.8
_cell_formula_units_Z            4
loop_
_atom_site_label
_atom_site_type_symbol
_atom_site_fract_x
_atom_site_fract_y
_atom_site_fract_z
Br1 Br 0.35138(5) 0.96933(2) 0.41748(5)
S1 S 0.66855(10) 0.74255(5) 0.45654(10)
O1 O 0.4086(2) 0.86534(12) 0.6253(2)
O2 O 0.7973(3) 0.73781(14) 0.5020(3)
O3 O 0.6431(3) 0.73742(14) 0.3234(3)
O4 O 0.6154(3) 0.76416(14) 0.8855(3)
N1 N 0.6135(3) 0.80873(14) 0.4996(3)
C1 C 0.3879(4) 0.84395(18) 0.4992(4)
H1 H 0.3501 0.8031 0.5036
C2 C 0.5129(4) 0.83989(18) 0.4261(4)
H2 H 0.4980 0.8179 0.3476
H3 H 0.5418 0.8807 0.4048
C3 C 0.6300(3) 0.82981(18) 0.6327(4)
H4 H 0.6873 0.8015 0.6774
C4 C 0.4958(3) 0.82788(17) 0.6952(4)
H5 H 0.4642 0.7858 0.6926
C5 C 0.2913(4) 0.8861(2) 0.4376(4)
H6 H 0.2137 0.8865 0.4882
H7 H 0.2688 0.8700 0.3548
C6 C 0.5799(4) 0.68547(17) 0.5350(4)
C7 C 0.6300(4) 0.6578(2) 0.6424(5)
H8 H 0.7112 0.6684 0.6725
C8 C 0.5574(5) 0.6140(2) 0.7042(5)
H9 H 0.5913 0.5950 0.7757
C9 C 0.4374(5) 0.5981(2) 0.6629(5)
C10 C 0.3897(5) 0.6263(2) 0.5550(5)
H10 H 0.3086 0.6155 0.5248
C11 C 0.4594(4) 0.6697(2) 0.4915(5)
H11 H 0.4254 0.6883 0.4196
C12 C 0.3587(6) 0.5512(3) 0.7320(6)
H12 H 0.4066 0.5362 0.8035
H13 H 0.3391 0.5180 0.6760
H14 H 0.2801 0.5695 0.7607
C13 C 0.6891(4) 0.8929(2) 0.6354(4)
H15 H 0.6977 0.9057 0.7229
H16 H 0.6303 0.9210 0.5940
C14 C 0.8198(5) 0.8984(3) 0.5724(5)
H17 H 0.8146 0.8782 0.4897
C15 C 0.9235(5) 0.8673(4) 0.6484(8)
H18 H 1.0042 0.8710 0.6051
H19 H 0.9024 0.8250 0.6584
H20 H 0.9302 0.8862 0.7302
C16 C 0.8532(7) 0.9647(4) 0.5502(7)
H21 H 0.9354 0.9674 0.5095
H22 H 0.8565 0.9858 0.6298
H23 H 0.7887 0.9831 0.4970
C17 C 0.4925(3) 0.84966(18) 0.8307(4)
C18 C 0.4276(4) 0.9016(2) 0.8656(4)
H24 H 0.3871 0.9251 0.8039
C19 C 0.4214(5) 0.9198(2) 0.9923(5)
H25 H 0.3765 0.9548 1.0143
C20 C 0.4804(5) 0.8865(3) 1.0823(5)
H26 H 0.4761 0.8986 1.1666
C21 C 0.5480(5) 0.8340(2) 1.0501(4)
H27 H 0.5890 0.8113 1.1127
C22 C 0.5540(4) 0.8158(2) 0.9257(4)
C23 C 0.7053(6) 0.7372(3) 0.9676(6)
H28 H 0.7416 0.7018 0.9280
H29 H 0.6634 0.7254 1.0446
H30 H 0.7725 0.7659 0.9865
Br2 Br -0.15906(6) 0.51702(2) 0.27341(7)
S2 S 0.16241(9) 0.74744(4) 0.28615(9)
O5 O -0.0885(2) 0.62486(12) 0.1025(3)
O6 O 0.2919(2) 0.75422(12) 0.2438(3)
O7 O 0.1356(3) 0.75009(14) 0.4195(3)
O8 O 0.1063(3) 0.72978(14) -0.1550(3)
N2 N 0.1111(3) 0.68188(14) 0.2370(3)
C24 C -0.1125(4) 0.64423(19) 0.2296(4)
H31 H -0.1503 0.6852 0.2261
C25 C 0.0106(4) 0.64804(19) 0.3046(4)
H32 H -0.0063 0.6680 0.3848
H33 H 0.0411 0.6071 0.3226
C26 C 0.1313(3) 0.66346(17) 0.1026(3)
H34 H 0.1841 0.6947 0.0615
C27 C -0.0007(3) 0.66217(17) 0.0368(4)
H35 H -0.0349 0.7038 0.0369
C28 C -0.2106(4) 0.6018(2) 0.2855(5)
H36 H -0.2920 0.6073 0.2418
H37 H -0.2232 0.6123 0.3739
C29 C 0.0729(4) 0.80458(17) 0.2099(4)
C30 C 0.1194(4) 0.8340(2) 0.1053(4)
H38 H 0.2001 0.8240 0.0738
C31 C 0.0457(5) 0.8789(2) 0.0462(5)
H39 H 0.0774 0.8984 -0.0253
C32 C -0.0731(5) 0.8947(2) 0.0919(5)
C33 C -0.1185(5) 0.8649(2) 0.1977(5)
H40 H -0.1993 0.8749 0.2289
C34 C -0.0476(4) 0.8208(2) 0.2579(5)
H41 H -0.0792 0.8018 0.3301
C35 C -0.1515(6) 0.9435(2) 0.0257(6)
H42 H -0.2309 0.9495 0.0700
H43 H -0.1694 0.9310 -0.0597
H44 H -0.1038 0.9810 0.0248
C36 C 0.2033(4) 0.60339(18) 0.0975(4)
H45 H 0.2094 0.5906 0.0098
H46 H 0.1537 0.5728 0.1422
C37 C 0.3393(4) 0.6053(2) 0.1547(5)
H47 H 0.3329 0.6238 0.2389
C38 C 0.4304(5) 0.6438(3) 0.0785(7)
H48 H 0.5135 0.6438 0.1184
H49 H 0.3983 0.6848 0.0737
H50 H 0.4374 0.6272 -0.0054
C39 C 0.3920(6) 0.5413(3) 0.1717(8)
H51 H 0.4763 0.5434 0.2090
H52 H 0.3971 0.5216 0.0907
H53 H 0.3360 0.5185 0.2260
C40 C 0.0009(4) 0.64010(19) -0.0985(4)
C41 C -0.0523(4) 0.5843(2) -0.1319(4)
H54 H -0.0877 0.5597 -0.0693
C42 C -0.0539(5) 0.5644(2) -0.2562(5)
H55 H -0.0898 0.5268 -0.2770
C43 C -0.0028(5) 0.6000(3) -0.3463(5)
H56 H -0.0034 0.5865 -0.4298
C44 C 0.0505(5) 0.6562(3) -0.3184(5)
H57 H 0.0822 0.6809 -0.3827
C45 C 0.0561(4) 0.6752(2) -0.1936(4)
C46 C 0.1866(6) 0.7624(3) -0.2374(6)
H58 H 0.2144 0.7994 -0.1971
H59 H 0.1401 0.7721 -0.3135
H60 H 0.2603 0.7380 -0.2579
loop_
_geom_bond_atom_site_label_1
_geom_bond_atom_site_label_2
_geom_bond_site_symmetry_1
_geom_bond_site_symmetry_2
Br1 C5 1_555 1_555
S1 O2 1_555 1_555
O1 C1 1_555 1_555
O3 S1 1_555 1_555
O4 C22 1_555 1_555
N1 S1 1_555 1_555
C1 H1 1_555 1_555
C2 N1 1_555 1_555
H2 C2 1_555 1_555
H3 C2 1_555 1_555
C3 N1 1_555 1_555
H4 C3 1_555 1_555
C4 O1 1_555 1_555
H5 C4 1_555 1_555
C5 C1 1_555 1_555
H6 C5 1_555 1_555
H7 C5 1_555 1_555
C6 S1 1_555 1_555
C7 C6 1_555 1_555
H8 C7 1_555 1_555
C8 C7 1_555 1_555
H9 C8 1_555 1_555
C9 C8 1_555 1_555
C10 C9 1_555 1_555
H10 C10 1_555 1_555
C11 C6 1_555 1_555
H11 C11 1_555 1_555
C12 C9 1_555 1_555
H12 C12 1_555 1_555
H13 C12 1_555 1_555
H14 C12 1_555 1_555
C13 C3 1_555 1_555
H15 C13 1_555 1_555
H16 C13 1_555 1_555
C14 C13 1_555 1_555
H17 C14 1_555 1_555
C15 C14 1_555 1_555
H18 C15 1_555 1_555
H19 C15 1_555 1_555
H20 C15 1_555 1_555
C16 C14 1_555 1_555
H21 C16 1_555 1_555
H22 C16 1_555 1_555
H23 C16 1_555 1_555
C17 C4 1_555 1_555
C18 C17 1_555 1_555
H24 C18 1_555 1_555
C19 C18 1_555 1_555
H25 C19 1_555 1_555
C20 C19 1_555 1_555
H26 C20 1_555 1_555
C21 C20 1_555 1_555
H27 C21 1_555 1_555
C22 C17 1_555 1_555
C23 O4 1_555 1_555
H28 C23 1_555 1_555
H29 C23 1_555 1_555
H30 C23 1_555 1_555
Br2 C28 1_555 1_555
S2 O6 1_555 1_555
O5 C24 1_555 1_555
O7 S2 1_555 1_555
O8 C45 1_555 1_555
N2 S2 1_555 1_555
C24 H31 1_555 1_555
C25 N2 1_555 1_555
H32 C25 1_555 1_555
H33 C25 1_555 1_555
C26 N2 1_555 1_555
H34 C26 1_555 1_555
C27 O5 1_555 1_555
H35 C27 1_555 1_555
C28 C24 1_555 1_555
H36 C28 1_555 1_555
H37 C28 1_555 1_555
C29 S2 1_555 1_555
C30 C29 1_555 1_555
H38 C30 1_555 1_555
C31 C30 1_555 1_555
H39 C31 1_555 1_555
C32 C31 1_555 1_555
C33 C32 1_555 1_555
H40 C33 1_555 1_555
C34 C29 1_555 1_555
H41 C34 1_555 1_555
C35 C32 1_555 1_555
H42 C35 1_555 1_555
H43 C35 1_555 1_555
H44 C35 1_555 1_555
C36 C26 1_555 1_555
H45 C36 1_555 1_555
H46 C36 1_555 1_555
C37 C36 1_555 1_555
H47 C37 1_555 1_555
C38 C37 1_555 1_555
H48 C38 1_555 1_555
H49 C38 1_555 1_555
H50 C38 1_555 1_555
C39 C37 1_555 1_555
H51 C39 1_555 1_555
H52 C39 1_555 1_555
H53 C39 1_555 1_555
C40 C27 1_555 1_555
C41 C40 1_555 1_555
H54 C41 1_555 1_555
C42 C41 1_555 1_555
H55 C42 1_555 1_555
C43 C42 1_555 1_555
H56 C43 1_555 1_555
C44 C43 1_555 1_555
H57 C44 1_555 1_555
C45 C40 1_555 1_555
C46 O8 1_555 1_555
H58 C46 1_555 1_555
H59 C46 1_555 1_555
H60 C46 1_555 1_555
C1 C2 1_555 1_555
C3 C4 1_555 1_555
C10 C11 1_555 1_555
C21 C22 1_555 1_555
C24 C25 1_555 1_555
C26 C27 1_555 1_555
C33 C34 1_555 1_555
C44 C45 1_555 1_555

#END
