
#######################################################################
#
#                 Cambridge Crystallographic Data Centre
#                                CCDC 
#
#######################################################################
#
# If this CIF has been generated from an entry in the Cambridge 
# Structural Database, then it will include bibliographic, chemical, 
# crystal, experimental, refinement or atomic coordinate data resulting 
# from the CCDC's data processing and validation procedures.
#
#######################################################################

data_TUQNOI
_chemical_formula_moiety         '2(C1 H6 N3 1+),C10 H6 O6 S2 2-,C6 H11 N1'
_chemical_name_systematic        
'bis(Guanidinium) 1,5-naphthalenedisulfonate hexanenitrile clathrate'
_symmetry_cell_setting           orthorhombic
_symmetry_space_group_name_H-M   'P n n m'
_symmetry_Int_Tables_number      58
_space_group_name_Hall           '-P 2 2n'
loop_
_symmetry_equiv_pos_site_id
_symmetry_equiv_pos_as_xyz
1 x,y,z
2 -x,-y,z
3 1/2+x,1/2-y,1/2-z
4 1/2-x,1/2+y,1/2-z
5 -x,-y,-z
6 x,y,-z
7 1/2-x,1/2+y,1/2+z
8 1/2+x,1/2-y,1/2+z
_cell_length_a                   7.72140(10)
_cell_length_b                   21.4371(3)
_cell_length_c                   7.46810(10)
_cell_angle_alpha                90
_cell_angle_beta                 90
_cell_angle_gamma                90
_cell_volume                     1236.15
_chemical_melting_point          587-589K
_cell_formula_units_Z            2
loop_
_atom_site_label
_atom_site_type_symbol
_atom_site_fract_x
_atom_site_fract_y
_atom_site_fract_z
N1 N -0.2126(3) 0.18725(9) 0.0000
H4 H -0.2404(3) 0.16876(9) 0.1043
N2 N -0.0819(2) 0.26700(6) 0.1543(2)
H5 H -0.1132(2) 0.24974(6) 0.2562(2)
H6 H -0.0228(2) 0.30211(6) 0.1545(2)
C6 C -0.1238(3) 0.24003(10) 0.0000
H4E H -0.2404(3) 0.16876(9) -0.1043
N2E N -0.0819(2) 0.26700(6) -0.1543(2)
H5E H -0.1132(2) 0.24974(6) -0.2562(2)
H6E H -0.0228(2) 0.30211(6) -0.1545(2)
N3 N 0.3926(11) 0.1273(4) 0.0000
C7 C 0.3311(4) 0.0882(2) 0.0000
C8 C 0.2432(4) 0.0255(2) 0.0000
H9 H 0.2785(4) 0.0025(2) 0.1041
H10 H 0.2785(4) 0.0025(2) -0.1041
C9 C 0.0464(5) 0.03109(15) 0.0000
H11 H 0.0114(5) 0.05416(15) -0.1040
H12 H 0.0114(5) 0.05416(15) 0.1040
C9A C -0.0464(5) -0.03109(15) 0.0000
C8A C -0.2432(4) -0.0255(2) 0.0000
C7A C -0.3311(4) -0.0882(2) 0.0000
N3A N -0.3926(11) -0.1273(4) 0.0000
H9A H -0.2785(4) -0.0025(2) 0.1041
H10A H -0.2785(4) -0.0025(2) -0.1041
H11A H -0.0114(5) -0.05416(15) -0.1040
H12A H -0.0114(5) -0.05416(15) 0.1040
S1 S 0.28860(7) 0.35882(2) 0.0000
O1 O 0.3689(2) 0.29707(7) 0.0000
O2 O 0.18668(14) 0.37024(5) 0.16208(15)
C1 C 0.4274(3) 0.47927(10) 0.0000
C2 C 0.4612(3) 0.41371(10) 0.0000
C3 C 0.6267(3) 0.39087(10) 0.0000
H1 H 0.6460(3) 0.34711(10) 0.0000
C4 C 0.7682(3) 0.43222(11) 0.0000
H2 H 0.8828(3) 0.41614(11) 0.0000
C5 C 0.2576(3) 0.50489(11) 0.0000
H3 H 0.1604(3) 0.47771(11) 0.0000
O2E O 0.18668(14) 0.37024(5) -0.16208(15)
C1A C 0.5726(3) 0.52073(10) 0.0000
C2A C 0.5388(3) 0.58629(10) 0.0000
S1A S 0.71140(7) 0.64118(2) 0.0000
O1A O 0.6311(2) 0.70293(7) 0.0000
O2A O 0.81332(14) 0.62976(5) 0.16208(15)
O2D O 0.81332(14) 0.62976(5) -0.16208(15)
C3A C 0.3733(3) 0.60913(10) 0.0000
H1A H 0.3540(3) 0.65289(10) 0.0000
C4A C 0.2318(3) 0.56778(11) 0.0000
H2A H 0.1172(3) 0.58386(11) 0.0000
C5A C 0.7424(3) 0.49511(11) 0.0000
H3A H 0.8396(3) 0.52229(11) 0.0000
H7? H 0.4532(4) 0.0824(2) 0.0000
H8? H 0.2952(4) 0.1102(2) -0.1050
loop_
_geom_bond_atom_site_label_1
_geom_bond_atom_site_label_2
_geom_bond_site_symmetry_1
_geom_bond_site_symmetry_2
S1 O1 1_555 1_555
O2 S1 1_555 1_555
C1 C2 1_555 1_555
C2 S1 1_555 1_555
C3 C2 1_555 1_555
H1 C3 1_555 1_555
C4 C3 1_555 1_555
H2 C4 1_555 1_555
C5 C1 1_555 1_555
H3 C5 1_555 1_555
N1 H4 1_555 1_555
N2 H5 1_555 1_555
H6 N2 1_555 1_555
C6 N1 1_555 1_555
N3 C7 1_555 1_555
C7 C8 1_555 1_555
C8 H9 1_555 1_555
H10 C8 1_555 1_555
C9 C8 1_555 1_555
H11 C9 1_555 1_555
H12 C9 1_555 1_555
O2E S1 1_555 1_555
C1A C1 1_555 1_555
C2A C1A 1_555 1_555
S1A C2A 1_555 1_555
O1A S1A 1_555 1_555
O2A S1A 1_555 1_555
O2D S1A 1_555 1_555
C3A C2A 1_555 1_555
H1A C3A 1_555 1_555
C4A C5 1_555 1_555
H2A C4A 1_555 1_555
C5A C4 1_555 1_555
H3A C5A 1_555 1_555
H4E N1 1_555 1_555
N2E C6 1_555 1_555
H5E N2E 1_555 1_555
H6E N2E 1_555 1_555
C9A C9 1_555 1_555
C8A C9A 1_555 1_555
C7A C8A 1_555 1_555
N3A C7A 1_555 1_555
H9A C8A 1_555 1_555
H10A C8A 1_555 1_555
H11A C9A 1_555 1_555
H12A C9A 1_555 1_555
N2 C6 1_555 1_555
C1A C5A 1_555 1_555
C3A C4A 1_555 1_555

#END
