
#######################################################################
#
#                 Cambridge Crystallographic Data Centre
#                                CCDC 
#
#######################################################################
#
# If this CIF has been generated from an entry in the Cambridge 
# Structural Database, then it will include bibliographic, chemical, 
# crystal, experimental, refinement or atomic coordinate data resulting 
# from the CCDC's data processing and validation procedures.
#
#######################################################################

data_TUQPUQ
_chemical_formula_moiety         '2(C1 H6 N3 1+),C12 H8 O6 S2 2-,2(C1 H4 O1)'
_chemical_name_systematic        
"bis(Guanidinium) 4,4'-biphenyldisulfonate bis(methanol) clathrate"
_symmetry_cell_setting           monoclinic
_symmetry_space_group_name_H-M   'P 21/c'
_symmetry_Int_Tables_number      14
_space_group_name_Hall           '-P 2ybc'
loop_
_symmetry_equiv_pos_site_id
_symmetry_equiv_pos_as_xyz
1 x,y,z
2 -x,1/2+y,1/2-z
3 -x,-y,-z
4 x,1/2-y,1/2+z
_cell_length_a                   12.0101(4)
_cell_length_b                   27.0349(7)
_cell_length_c                   7.4324(2)
_cell_angle_alpha                90
_cell_angle_beta                 92.437(1)
_cell_angle_gamma                90
_cell_volume                     2411.06
_exptl_crystal_colour            colorless
_chemical_melting_point          575-577K
_cell_formula_units_Z            4
loop_
_atom_site_label
_atom_site_type_symbol
_atom_site_fract_x
_atom_site_fract_y
_atom_site_fract_z
S1 S 0.89706(8) 0.06980(4) 0.49631(14)
O1 O 0.9660(2) 0.06929(11) 0.6638(4)
O2 O 0.8150(2) 0.02990(10) 0.4890(4)
O3 O 0.9638(2) 0.07104(11) 0.3363(4)
S2 S 0.44786(8) 0.40908(4) 0.53509(14)
O4 O 0.4806(2) 0.43857(11) 0.3814(4)
O5 O 0.3287(2) 0.39703(11) 0.5286(4)
O6 O 0.4847(2) 0.43171(11) 0.7060(4)
C1 C 0.8204(3) 0.12597(15) 0.4989(5)
C2 C 0.8761(4) 0.1701(2) 0.5303(6)
H1 H 0.9548(4) 0.1702(2) 0.5499(6)
C3 C 0.8174(4) 0.2143(2) 0.5333(6)
H2 H 0.8567(4) 0.2444(2) 0.5549(6)
C4 C 0.7020(3) 0.2154(2) 0.5054(5)
C5 C 0.6467(4) 0.1706(2) 0.4707(6)
H3 H 0.5682(4) 0.1705(2) 0.4496(6)
C6 C 0.7050(3) 0.1263(2) 0.4668(6)
H4 H 0.6664(3) 0.0962(2) 0.4423(6)
C7 C 0.5197(3) 0.3519(2) 0.5212(5)
C8 C 0.4708(4) 0.3082(2) 0.5744(6)
H5 H 0.3967(4) 0.3085(2) 0.6143(6)
C9 C 0.5296(4) 0.2640(2) 0.5698(6)
H6 H 0.4951(4) 0.2342(2) 0.6061(6)
C10 C 0.6388(3) 0.2628(2) 0.5125(5)
C11 C 0.6873(4) 0.3073(2) 0.4597(6)
H7 H 0.7616(4) 0.3073(2) 0.4206(6)
C12 C 0.6288(4) 0.3513(2) 0.4637(6)
H8 H 0.6630(4) 0.3812(2) 0.4274(6)
C13 C 0.2600(3) 0.4144(2) 1.0255(6)
N1 N 0.3710(3) 0.4133(2) 1.0339(5)
H9 H 0.4074(3) 0.4131(2) 1.1392(5)
H10 H 0.4079(3) 0.4127(2) 0.9342(5)
N2 N 0.2055(3) 0.41328(13) 0.8662(5)
H11 H 0.1322(3) 0.41312(13) 0.8600(5)
H12 H 0.2428(3) 0.41269(13) 0.7668(5)
N3 N 0.2047(3) 0.41530(13) 1.1765(5)
H13 H 0.1313(3) 0.41515(13) 1.1716(5)
H14 H 0.2414(3) 0.41604(13) 1.2815(5)
C14 C 0.7627(3) 0.02234(14) 0.9847(6)
N4 N 0.8737(3) 0.0245(2) 0.9914(5)
H15 H 0.9100(3) 0.0247(2) 0.8911(5)
H16 H 0.9106(3) 0.0258(2) 1.0962(5)
N5 N 0.7092(3) 0.02120(13) 1.1365(5)
H17 H 0.6360(3) 0.01917(13) 1.1333(5)
H18 H 0.7467(3) 0.02246(13) 1.2406(5)
N6 N 0.7072(3) 0.02046(13) 0.8274(5)
H19 H 0.6340(3) 0.01843(13) 0.8230(5)
H20 H 0.7435(3) 0.02124(13) 0.7270(5)
C15 C 1.0268(7) 0.1576(3) 1.0351(11)
H21 H 0.9774(37) 0.1398(6) 0.9492(41)
H22 H 0.9954(43) 0.1568(3) 1.1546(33)
H23 H 1.1004(9) 0.1418(6) 1.0405(72)
O7 O 1.0374(4) 0.2075(2) 0.9786(7)
H24 H 1.0893(45) 0.2097(6) 0.9067(86)
C16 C 1.2428(6) 0.2144(3) 0.6490(15)
H25 H 1.2743(7) 0.2456(11) 0.6955(91)
H26 H 1.2632(6) 0.2099(26) 0.5238(19)
H27 H 1.2723(8) 0.1868(17) 0.7222(78)
O8 O 1.1283(4) 0.2157(2) 0.6569(9)
H28 H 1.1075(8) 0.2450(6) 0.674(14)
loop_
_geom_bond_atom_site_label_1
_geom_bond_atom_site_label_2
_geom_bond_site_symmetry_1
_geom_bond_site_symmetry_2
S1 O1 1_555 1_555
O2 S1 1_555 1_555
O3 S1 1_555 1_555
S2 O4 1_555 1_555
O5 S2 1_555 1_555
O6 S2 1_555 1_555
C1 S1 1_555 1_555
C2 C1 1_555 1_555
H1 C2 1_555 1_555
C3 C2 1_555 1_555
H2 C3 1_555 1_555
C4 C3 1_555 1_555
C5 C4 1_555 1_555
H3 C5 1_555 1_555
C6 C1 1_555 1_555
H4 C6 1_555 1_555
C7 S2 1_555 1_555
C8 C7 1_555 1_555
H5 C8 1_555 1_555
C9 C8 1_555 1_555
H6 C9 1_555 1_555
C10 C4 1_555 1_555
C11 C10 1_555 1_555
H7 C11 1_555 1_555
C12 C7 1_555 1_555
H8 C12 1_555 1_555
C13 N1 1_555 1_555
N1 H9 1_555 1_555
H10 N1 1_555 1_555
N2 C13 1_555 1_555
H11 N2 1_555 1_555
H12 N2 1_555 1_555
N3 C13 1_555 1_555
H13 N3 1_555 1_555
H14 N3 1_555 1_555
C14 N4 1_555 1_555
N4 H15 1_555 1_555
H16 N4 1_555 1_555
N5 C14 1_555 1_555
H17 N5 1_555 1_555
H18 N5 1_555 1_555
N6 C14 1_555 1_555
H19 N6 1_555 1_555
H20 N6 1_555 1_555
C15 H21 1_555 1_555
H22 C15 1_555 1_555
H23 C15 1_555 1_555
O7 C15 1_555 1_555
H24 O7 1_555 1_555
C16 H25 1_555 1_555
H26 C16 1_555 1_555
H27 C16 1_555 1_555
O8 C16 1_555 1_555
H28 O8 1_555 1_555
C5 C6 1_555 1_555
C9 C10 1_555 1_555
C11 C12 1_555 1_555

#END
