
#######################################################################
#
#                 Cambridge Crystallographic Data Centre
#                                CCDC 
#
#######################################################################
#
# If this CIF has been generated from an entry in the Cambridge 
# Structural Database, then it will include bibliographic, chemical, 
# crystal, experimental, refinement or atomic coordinate data resulting 
# from the CCDC's data processing and validation procedures.
#
#######################################################################

data_TUTCIV
_chemical_formula_moiety         'C33 H35 N3'
_chemical_name_systematic        
4-(8-(4-(Dimethylamino)benzylidene)-6-methyl-2-phenyl-5,6,7,8-tetrahydroquinolin-4-yl)-N,N-dimethylaniline
_symmetry_cell_setting           monoclinic
_symmetry_space_group_name_H-M   'P 21/n'
_symmetry_Int_Tables_number      14
_space_group_name_Hall           '-P 2yn'
loop_
_symmetry_equiv_pos_site_id
_symmetry_equiv_pos_as_xyz
1 x,y,z
2 1/2-x,1/2+y,1/2-z
3 -x,-y,-z
4 1/2+x,1/2-y,1/2+z
_cell_length_a                   17.0112(17)
_cell_length_b                   8.7560(9)
_cell_length_c                   19.725(2)
_cell_angle_alpha                90
_cell_angle_beta                 113.7830(10)
_cell_angle_gamma                90
_cell_volume                     2688.54
_chemical_melting_point          '174 deg.C'
_cell_formula_units_Z            4
loop_
_atom_site_label
_atom_site_type_symbol
_atom_site_fract_x
_atom_site_fract_y
_atom_site_fract_z
C1 C 0.36162(15) 0.3528(3) 0.16100(12)
C2 C 0.39806(15) 0.4329(3) 0.22702(12)
H1 H 0.3954 0.3926 0.2697
C3 C 0.43856(14) 0.5727(3) 0.23057(12)
C4 C 0.43856(14) 0.6303(3) 0.16415(12)
C5 C 0.39892(14) 0.5441(3) 0.09889(12)
C6 C 0.32095(15) 0.2000(3) 0.15743(13)
C7 C 0.25823(16) 0.1456(3) 0.09186(14)
H2 H 0.2407 0.2051 0.0492
C8 C 0.22131(18) 0.0026(3) 0.08930(17)
H3 H 0.1792 -0.0331 0.0452
C9 C 0.2473(2) -0.0858(3) 0.15227(19)
H4 H 0.2226 -0.1811 0.1508
C10 C 0.3088(2) -0.0340(3) 0.21632(18)
H5 H 0.3258 -0.0939 0.2588
C11 C 0.3462(2) 0.1064(3) 0.21908(15)
H6 H 0.3894 0.1390 0.2633
C12 C 0.47708(17) 0.7843(3) 0.16112(13)
H7 H 0.5377 0.7719 0.1722
H8 H 0.4721 0.8504 0.1986
C13 C 0.43305(16) 0.8590(3) 0.08585(13)
H9 H 0.3723 0.8735 0.0761
C14 C 0.43843(16) 0.7513(3) 0.02778(13)
H10 H 0.4107 0.7984 -0.0206
H11 H 0.4983 0.7351 0.0371
C15 C 0.39681(15) 0.5990(3) 0.02698(12)
C16 C 0.4719(2) 1.0146(3) 0.08424(15)
H12 H 0.4667 1.0788 0.1217
H13 H 0.4420 1.0606 0.0365
H14 H 0.5315 1.0028 0.0935
C17 C 0.47926(15) 0.6499(3) 0.30307(12)
C18 C 0.43759(16) 0.6531(3) 0.35157(13)
H15 H 0.3829 0.6113 0.3360
C19 C 0.47440(16) 0.7156(3) 0.42094(14)
H16 H 0.4443 0.7138 0.4512
C20 C 0.55608(16) 0.7821(3) 0.44764(13)
C21 C 0.59835(16) 0.7793(3) 0.39918(14)
H17 H 0.6528 0.8221 0.4144
C22 C 0.56084(16) 0.7146(3) 0.32980(13)
H18 H 0.5912 0.7141 0.2997
C23 C 0.5505(2) 0.8373(4) 0.56719(15)
H19 H 0.4991 0.7775 0.5451
H20 H 0.5359 0.9384 0.5771
H21 H 0.5882 0.7905 0.6127
C24 C 0.6725(2) 0.9309(4) 0.53937(17)
H22 H 0.6937 0.9252 0.5011
H23 H 0.7142 0.8881 0.5843
H24 H 0.6623 1.0357 0.5476
C25 C 0.35651(17) 0.5169(3) -0.03528(14)
H25 H 0.3300 0.4281 -0.0292
C26 C 0.34803(18) 0.5457(3) -0.11088(13)
C27 C 0.40681(15) 0.6235(3) -0.13091(13)
H26 H 0.4561 0.6629 -0.0936
C28 C 0.39509(16) 0.6445(3) -0.20348(13)
H27 H 0.4363 0.6982 -0.2136
C29 C 0.32291(17) 0.5873(3) -0.26249(14)
C30 C 0.2649(2) 0.5071(5) -0.24277(16)
H28 H 0.2162 0.4656 -0.2798
C31 C 0.2774(2) 0.4876(5) -0.17063(17)
H29 H 0.2366 0.4324 -0.1606
C32 C 0.3722(2) 0.6841(4) -0.35564(17)
H30 H 0.4178 0.7236 -0.3121
H31 H 0.3450 0.7666 -0.3889
H32 H 0.3953 0.6126 -0.3797
C33 C 0.2358(3) 0.5427(6) -0.39389(18)
H33 H 0.1999 0.4957 -0.3728
H34 H 0.2540 0.4671 -0.4198
H35 H 0.2041 0.6213 -0.4279
N1 N 0.36195(12) 0.4063(2) 0.09779(10)
N2 N 0.59305(15) 0.8459(3) 0.51685(12)
N3 N 0.31079(16) 0.6094(4) -0.33519(12)
loop_
_geom_bond_atom_site_label_1
_geom_bond_atom_site_label_2
_geom_bond_site_symmetry_1
_geom_bond_site_symmetry_2
C1 C2 1_555 1_555
C2 H1 1_555 1_555
C3 C2 1_555 1_555
C4 C3 1_555 1_555
C5 C4 1_555 1_555
C6 C1 1_555 1_555
C7 C6 1_555 1_555
H2 C7 1_555 1_555
C8 C7 1_555 1_555
H3 C8 1_555 1_555
C9 C8 1_555 1_555
H4 C9 1_555 1_555
C10 C9 1_555 1_555
H5 C10 1_555 1_555
C11 C6 1_555 1_555
H6 C11 1_555 1_555
C12 C4 1_555 1_555
H7 C12 1_555 1_555
H8 C12 1_555 1_555
C13 C12 1_555 1_555
H9 C13 1_555 1_555
C14 C13 1_555 1_555
H10 C14 1_555 1_555
H11 C14 1_555 1_555
C15 C5 1_555 1_555
C16 C13 1_555 1_555
H12 C16 1_555 1_555
H13 C16 1_555 1_555
H14 C16 1_555 1_555
C17 C3 1_555 1_555
C18 C17 1_555 1_555
H15 C18 1_555 1_555
C19 C18 1_555 1_555
H16 C19 1_555 1_555
C20 C19 1_555 1_555
C21 C20 1_555 1_555
H17 C21 1_555 1_555
C22 C17 1_555 1_555
H18 C22 1_555 1_555
C23 H19 1_555 1_555
H20 C23 1_555 1_555
H21 C23 1_555 1_555
C24 H22 1_555 1_555
H23 C24 1_555 1_555
H24 C24 1_555 1_555
C25 C15 1_555 1_555
H25 C25 1_555 1_555
C26 C25 1_555 1_555
C27 C26 1_555 1_555
H26 C27 1_555 1_555
C28 C27 1_555 1_555
H27 C28 1_555 1_555
C29 C28 1_555 1_555
C30 C29 1_555 1_555
H28 C30 1_555 1_555
C31 C26 1_555 1_555
H29 C31 1_555 1_555
C32 H30 1_555 1_555
H31 C32 1_555 1_555
H32 C32 1_555 1_555
C33 H33 1_555 1_555
H34 C33 1_555 1_555
H35 C33 1_555 1_555
N1 C1 1_555 1_555
N2 C20 1_555 1_555
N3 C29 1_555 1_555
C5 N1 1_555 1_555
C10 C11 1_555 1_555
C14 C15 1_555 1_555
C21 C22 1_555 1_555
C23 N2 1_555 1_555
C24 N2 1_555 1_555
C30 C31 1_555 1_555
C32 N3 1_555 1_555
C33 N3 1_555 1_555

#END
