
#######################################################################
#
#                 Cambridge Crystallographic Data Centre
#                                CCDC 
#
#######################################################################
#
# If this CIF has been generated from an entry in the Cambridge 
# Structural Database, then it will include bibliographic, chemical, 
# crystal, experimental, refinement or atomic coordinate data resulting 
# from the CCDC's data processing and validation procedures.
#
#######################################################################

data_TUTCAN
_chemical_formula_moiety         'C30 H28 N2 O2'
_chemical_name_systematic        
8-(4-Methoxybenzylidene)-4-(4-methoxyphenyl)-6-methyl-2-phenyl-5,6,7,8-tetrahydro-1,6-naphthyridine
_symmetry_cell_setting           monoclinic
_symmetry_space_group_name_H-M   'P 21/c'
_symmetry_Int_Tables_number      14
_space_group_name_Hall           '-P 2ybc'
loop_
_symmetry_equiv_pos_site_id
_symmetry_equiv_pos_as_xyz
1 x,y,z
2 -x,1/2+y,1/2-z
3 -x,-y,-z
4 x,1/2-y,1/2+z
_cell_length_a                   16.853(3)
_cell_length_b                   12.6968(19)
_cell_length_c                   11.5945(17)
_cell_angle_alpha                90
_cell_angle_beta                 105.377(2)
_cell_angle_gamma                90
_cell_volume                     2392.17
_chemical_melting_point          '155.8-157.6 deg.C'
_cell_formula_units_Z            4
loop_
_atom_site_label
_atom_site_type_symbol
_atom_site_fract_x
_atom_site_fract_y
_atom_site_fract_z
C1 C 0.1796(3) 0.1760(3) 0.5702(4)
C2 C 0.2160(3) 0.2280(4) 0.6762(4)
H1 H 0.2360 0.1898 0.7463
C3 C 0.2226(3) 0.3356(4) 0.6779(4)
H2 H 0.2457 0.3696 0.7500
C4 C 0.1957(3) 0.3951(3) 0.5745(4)
C5 C 0.1608(4) 0.3411(4) 0.4710(4)
H3 H 0.1427 0.3787 0.4001
C6 C 0.1515(4) 0.2331(4) 0.4683(4)
H4 H 0.1260 0.1994 0.3968
C7 C 0.1998(3) 0.5117(3) 0.5792(4)
C8 C 0.1547(3) 0.5656(3) 0.6440(4)
H5 H 0.1230 0.5281 0.6844
C9 C 0.1563(3) 0.6750(3) 0.6497(4)
C10 C 0.2476(3) 0.6800(3) 0.5313(4)
C11 C 0.2469(3) 0.5699(3) 0.5199(4)
C12 C 0.2982(3) 0.5183(4) 0.4491(4)
H6 H 0.3165 0.4501 0.4838
H7 H 0.2650 0.5069 0.3679
C13 C 0.3428(3) 0.6857(4) 0.3953(5)
H8 H 0.3064 0.6773 0.3156
H9 H 0.3903 0.7259 0.3887
C14 C 0.2984(3) 0.7447(4) 0.4732(4)
C15 C 0.3039(3) 0.8488(4) 0.4899(4)
H10 H 0.2762 0.8749 0.5433
C16 C 0.3466(3) 0.9281(4) 0.4371(5)
C17 C 0.3658(4) 1.0211(5) 0.4975(6)
H11 H 0.3532 1.0329 0.5698
C18 C 0.4092(4) 1.1055(5) 0.4406(7)
H12 H 0.4242 1.1711 0.4753
C19 C 0.4234(3) 1.0763(5) 0.3367(6)
C20 C 0.4027(3) 0.9921(5) 0.2758(6)
H13 H 0.4124 0.9826 0.2012
C21 C 0.3661(3) 0.9182(5) 0.3267(5)
H14 H 0.3524 0.8551 0.2855
C22 C 0.1066(3) 0.7348(4) 0.7156(4)
C23 C 0.0535(3) 0.6860(4) 0.7731(5)
H15 H 0.0473 0.6132 0.7684
C24 C 0.0104(4) 0.7428(6) 0.8358(6)
H16 H -0.0249 0.7081 0.8726
C25 C 0.0181(4) 0.8481(6) 0.8456(5)
H17 H -0.0104 0.8859 0.8904
C26 C 0.0690(4) 0.8994(5) 0.7879(6)
H18 H 0.0733 0.9724 0.7915
C27 C 0.1129(3) 0.8428(4) 0.7255(5)
H19 H 0.1480 0.8781 0.6888
C28 C 0.1301(4) 0.0154(4) 0.4718(5)
H20 H 0.0762 0.0451 0.4410
H21 H 0.1252 -0.0578 0.4895
H22 H 0.1607 0.0224 0.4133
C29 C 0.4168(4) 0.5288(5) 0.3736(6)
H23 H 0.4353 0.4614 0.4080
H24 H 0.4636 0.5712 0.3716
H25 H 0.3827 0.5192 0.2937
C30 C 0.4758(5) 1.2515(5) 0.3325(9)
H26 H 0.4626 1.2468 0.4080
H27 H 0.4421 1.3045 0.2840
H28 H 0.5327 1.2700 0.3457
N1 N 0.2028(2) 0.7313(3) 0.5955(3)
N2 N 0.3694(3) 0.5816(3) 0.4464(4)
O1 O 0.1717(2) 0.0696(2) 0.5781(3)
O2 O 0.4620(3) 1.1595(4) 0.2771(4)
loop_
_geom_bond_atom_site_label_1
_geom_bond_atom_site_label_2
_geom_bond_site_symmetry_1
_geom_bond_site_symmetry_2
C1 C2 1_555 1_555
C2 H1 1_555 1_555
C3 C2 1_555 1_555
H2 C3 1_555 1_555
C4 C3 1_555 1_555
C5 C4 1_555 1_555
H3 C5 1_555 1_555
C6 C1 1_555 1_555
H4 C6 1_555 1_555
C7 C4 1_555 1_555
C8 C7 1_555 1_555
H5 C8 1_555 1_555
C9 C8 1_555 1_555
C10 C11 1_555 1_555
C11 C7 1_555 1_555
C12 C11 1_555 1_555
H6 C12 1_555 1_555
H7 C12 1_555 1_555
C13 H8 1_555 1_555
H9 C13 1_555 1_555
C14 C10 1_555 1_555
C15 C14 1_555 1_555
H10 C15 1_555 1_555
C16 C15 1_555 1_555
C17 C16 1_555 1_555
H11 C17 1_555 1_555
C18 C17 1_555 1_555
H12 C18 1_555 1_555
C19 C18 1_555 1_555
C20 C19 1_555 1_555
H13 C20 1_555 1_555
C21 C16 1_555 1_555
H14 C21 1_555 1_555
C22 C9 1_555 1_555
C23 C22 1_555 1_555
H15 C23 1_555 1_555
C24 C23 1_555 1_555
H16 C24 1_555 1_555
C25 C24 1_555 1_555
H17 C25 1_555 1_555
C26 C25 1_555 1_555
H18 C26 1_555 1_555
C27 C22 1_555 1_555
H19 C27 1_555 1_555
C28 H20 1_555 1_555
H21 C28 1_555 1_555
H22 C28 1_555 1_555
C29 H23 1_555 1_555
H24 C29 1_555 1_555
H25 C29 1_555 1_555
C30 H26 1_555 1_555
H27 C30 1_555 1_555
H28 C30 1_555 1_555
N1 C9 1_555 1_555
N2 C12 1_555 1_555
O1 C1 1_555 1_555
O2 C19 1_555 1_555
C5 C6 1_555 1_555
C10 N1 1_555 1_555
C13 C14 1_555 1_555
C13 N2 1_555 1_555
C20 C21 1_555 1_555
C26 C27 1_555 1_555
C28 O1 1_555 1_555
C29 N2 1_555 1_555
C30 O2 1_555 1_555

#END
