
#######################################################################
#
#                 Cambridge Crystallographic Data Centre
#                                CCDC 
#
#######################################################################
#
# If this CIF has been generated from an entry in the Cambridge 
# Structural Database, then it will include bibliographic, chemical, 
# crystal, experimental, refinement or atomic coordinate data resulting 
# from the CCDC's data processing and validation procedures.
#
#######################################################################

data_TUTGEV
_chemical_name_common            
'bis(Diaminomethaniminium) N,N,N-tripropylpropan-1-aminium 1,3,5-trimethylcyclohexane-1,3,5-tricarboxylate'
_chemical_formula_moiety         'C12 H28 N1 1+,C12 H15 O6 3-,2(C1 H6 N3 1+)'
_chemical_name_systematic        
'bis(Guanidinium) tetrapropylammonium 1,3,5-trimethylcyclohexane-1,3,5-tricarboxylate'
_symmetry_cell_setting           orthorhombic
_symmetry_space_group_name_H-M   'P c a 21'
_symmetry_Int_Tables_number      29
_space_group_name_Hall           'P 2c -2ac'
loop_
_symmetry_equiv_pos_site_id
_symmetry_equiv_pos_as_xyz
1 x,y,z
2 -x,-y,1/2+z
3 1/2+x,-y,z
4 1/2-x,y,1/2+z
_cell_length_a                   17.9871(3)
_cell_length_b                   18.5681(3)
_cell_length_c                   19.2007(2)
_cell_angle_alpha                90
_cell_angle_beta                 90
_cell_angle_gamma                90
_cell_volume                     6412.77
_exptl_crystal_colour            colorless
_exptl_crystal_description       block
_cell_formula_units_Z            8
loop_
_atom_site_label
_atom_site_type_symbol
_atom_site_fract_x
_atom_site_fract_y
_atom_site_fract_z
O1 O 0.6061(2) 1.1892(3) -0.08099(19)
O2 O 0.50011(18) 1.13189(19) -0.07613(17)
O3 O 0.77857(14) 1.16806(19) 0.10171(17)
O4 O 0.75681(17) 1.23006(19) 0.19805(18)
O5 O 0.5293(2) 0.95177(17) 0.10694(19)
O6 O 0.59663(18) 0.96877(18) 0.20317(18)
C1 C 0.54506(19) 1.0877(2) 0.0599(2)
H1 H 0.4940 1.0739 0.0506
H2 H 0.5768 1.0558 0.0331
C2 C 0.55658(18) 1.1651(2) 0.0329(2)
C3 C 0.63256(19) 1.1932(2) 0.05743(19)
H3 H 0.6708 1.1684 0.0310
H4 H 0.6357 1.2439 0.0456
C4 C 0.65089(18) 1.1852(2) 0.13487(19)
C5 C 0.63560(19) 1.1066(2) 0.1589(2)
H5 H 0.6746 1.0760 0.1404
H6 H 0.6393 1.1050 0.2093
C6 C 0.56071(18) 1.0742(2) 0.1379(2)
C7 C 0.5567(2) 1.1607(3) -0.0466(2)
C8 C 0.7355(2) 1.1948(2) 0.1450(2)
C9 C 0.5640(2) 0.9914(3) 0.1489(2)
C10 C 0.4916(2) 1.2156(3) 0.0498(3)
H7 H 0.5026 1.2631 0.0331
H8 H 0.4841 1.2170 0.0992
H9 H 0.4473 1.1981 0.0275
C11 C 0.6119(2) 1.2403(2) 0.1815(3)
H10 H 0.5591 1.2359 0.1761
H11 H 0.6272 1.2880 0.1685
H12 H 0.6251 1.2316 0.2292
C12 C 0.4954(2) 1.0976(3) 0.1842(2)
H13 H 0.5066 1.0865 0.2320
H14 H 0.4513 1.0724 0.1703
H15 H 0.4877 1.1485 0.1794
O7 O 0.6041(3) 0.6392(3) -0.0120(2)
O8 O 0.5130(2) 0.7189(4) -0.0189(2)
O9 O 0.78450(19) 0.6412(2) -0.2652(3)
O10 O 0.77701(17) 0.7392(2) -0.2024(2)
O11 O 0.5965(4) 0.4551(3) -0.1838(6)
O12 O 0.5307(6) 0.4602(3) -0.2738(4)
C13 C 0.5463(2) 0.5928(2) -0.1475(2)
H16 H 0.5758 0.5619 -0.1175
H17 H 0.4944 0.5820 -0.1383
C14 C 0.56092(19) 0.6722(2) -0.1261(2)
C15 C 0.63957(19) 0.6935(2) -0.1492(2)
H18 H 0.6747 0.6696 -0.1186
H19 H 0.6451 0.7449 -0.1419
C16 C 0.6622(2) 0.6767(2) -0.2250(2)
C17 C 0.6417(2) 0.5988(2) -0.2417(2)
H20 H 0.6771 0.5678 -0.2181
H21 H 0.6485 0.5916 -0.2913
C18 C 0.5629(2) 0.5730(2) -0.2225(2)
C19 C 0.5592(3) 0.6738(3) -0.0463(3)
C20 C 0.7472(2) 0.6859(3) -0.2309(2)
C21 C 0.5643(4) 0.4896(4) -0.2275(5)
C22 C 0.5021(3) 0.7244(3) -0.1539(3)
H22 H 0.5136 0.7724 -0.1388
H23 H 0.4541 0.7108 -0.1365
H24 H 0.5018 0.7228 -0.2039
C23 C 0.6320(3) 0.7313(3) -0.2775(3)
H25 H 0.6481 0.7788 -0.2647
H26 H 0.5787 0.7295 -0.2777
H27 H 0.6504 0.7198 -0.3232
C24 C 0.5022(3) 0.6005(4) -0.2744(3)
H28 H 0.4984 0.6519 -0.2711
H29 H 0.4552 0.5791 -0.2628
H30 H 0.5157 0.5872 -0.3210
N1 N 0.5677(2) 0.6393(2) 0.2946(3)
H31 H 0.6140 0.6427 0.2840
H32 H 0.5428 0.6018 0.2823
N2 N 0.4634(2) 0.6867(2) 0.3465(2)
H33 H 0.4380 0.6495 0.3346
H34 H 0.4425 0.7210 0.3694
N3 N 0.5735(2) 0.7491(2) 0.3486(2)
H35 H 0.6198 0.7525 0.3379
H36 H 0.5521 0.7832 0.3714
C25 C 0.5349(2) 0.6913(2) 0.3297(3)
N4 N 0.35987(19) 0.8463(2) 0.2808(2)
H37 H 0.3212 0.8309 0.2591
H38 H 0.3636 0.8406 0.3251
N5 N 0.4075(2) 0.8877(2) 0.1781(2)
H39 H 0.3688 0.8722 0.1565
H40 H 0.4424 0.9089 0.1554
N6 N 0.4729(2) 0.9031(2) 0.2789(2)
H41 H 0.4769 0.8977 0.3232
H42 H 0.5076 0.9243 0.2559
C26 C 0.4133(2) 0.8788(2) 0.2461(2)
N7 N 0.6413(2) 0.8147(2) 0.1850(2)
H43 H 0.6304 0.8596 0.1889
H44 H 0.6660 0.7933 0.2172
N8 N 0.6368(2) 0.7089(2) 0.1224(2)
H45 H 0.6232 0.6856 0.0859
H46 H 0.6616 0.6875 0.1546
N9 N 0.5820(2) 0.8115(3) 0.0802(2)
H47 H 0.5714 0.8564 0.0846
H48 H 0.5678 0.7883 0.0437
C27 C 0.6197(2) 0.7782(3) 0.1290(2)
N10 N 0.3687(2) 0.6641(2) 0.1782(2)
H49 H 0.3782 0.6301 0.2073
H50 H 0.3333 0.6940 0.1865
N11 N 0.4631(2) 0.6245(2) 0.1076(3)
H51 H 0.4731 0.5903 0.1363
H52 H 0.4887 0.6290 0.0700
N12 N 0.3924(2) 0.7217(3) 0.0747(2)
H53 H 0.3561 0.7510 0.0821
H54 H 0.4185 0.7256 0.0374
C28 C 0.4081(2) 0.6704(2) 0.1213(3)
N13 N 0.3383(2) 0.95853(19) -0.07854(18)
C29 C 0.3398(5) 1.0018(5) -0.0094(4)
H55 H 0.3715 0.9770 0.0238
H56 H 0.3612 1.0489 -0.0181
C30 C 0.2621(5) 1.0111(7) 0.0222(5)
H57 H 0.2386 0.9645 0.0286
H58 H 0.2311 1.0399 -0.0084
C31 C 0.2717(9) 1.0495(12) 0.0938(12)
H59 H 0.2238 1.0567 0.1147
H60 H 0.2953 1.0953 0.0869
H61 H 0.3018 1.0203 0.1238
C32 C 0.2881(6) 0.9884(7) -0.1307(6)
H62 H 0.2377 0.9796 -0.1148
H63 H 0.2948 0.9607 -0.1731
C33 C 0.2933(5) 1.0663(5) -0.1498(5)
H64 H 0.3430 1.0775 -0.1660
H65 H 0.2825 1.0961 -0.1096
C34 C 0.2361(13) 1.0812(8) -0.2081(13)
H66 H 0.2376 1.1313 -0.2204
H67 H 0.1872 1.0690 -0.1920
H68 H 0.2481 1.0526 -0.2482
C35 C 0.4191(4) 0.9612(5) -0.1041(6)
H69 H 0.4340 1.0113 -0.1074
H70 H 0.4209 0.9411 -0.1507
C36 C 0.4775(4) 0.9204(4) -0.0579(4)
H71 H 0.4637 0.8701 -0.0532
H72 H 0.4795 0.9416 -0.0118
C37 C 0.5555(12) 0.9273(14) -0.0951(13)
H73 H 0.5927 0.9035 -0.0676
H74 H 0.5681 0.9772 -0.1000
H75 H 0.5530 0.9053 -0.1403
C38 C 0.3155(8) 0.8829(8) -0.0611(5)
H76 H 0.2649 0.8830 -0.0436
H77 H 0.3475 0.8643 -0.0246
C39 C 0.3206(4) 0.8306(5) -0.1287(5)
H78 H 0.2915 0.8491 -0.1673
H79 H 0.3717 0.8239 -0.1437
C40 C 0.2870(16) 0.7599(12) -0.0992(16)
H80 H 0.2881 0.7232 -0.1344
H81 H 0.2365 0.7683 -0.0852
H82 H 0.3155 0.7444 -0.0597
N14 N 0.1824(2) 0.4561(2) 0.4916(3)
C41 C 0.2183(11) 0.4916(12) 0.5498(8)
H83 H 0.1908 0.5365 0.5523
H84 H 0.2003 0.4635 0.5889
C42 C 0.273(4) 0.508(4) 0.568(2)
H85 H 0.2883 0.5429 0.5332
H86 H 0.3032 0.4660 0.5592
C43 C 0.3097(18) 0.539(2) 0.6352(14)
H87 H 0.3389 0.5807 0.6235
H88 H 0.3411 0.5032 0.6558
H89 H 0.2716 0.5526 0.6678
C44 C 0.2158(14) 0.4785(13) 0.4179(15)
H90 H 0.1990 0.4444 0.3830
H91 H 0.2696 0.4757 0.4200
C45 C 0.1923(9) 0.5581(8) 0.3944(13)
H92 H 0.1400 0.5663 0.4038
H93 H 0.2212 0.5938 0.4195
C46 C 0.2065(13) 0.5625(14) 0.3229(10)
H94 H 0.1950 0.6102 0.3067
H95 H 0.1761 0.5282 0.2986
H96 H 0.2580 0.5523 0.3142
C47 C 0.1018(9) 0.4566(9) 0.5204(10)
H97 H 0.1006 0.4286 0.5630
H98 H 0.0886 0.5057 0.5323
C48 C 0.0456(9) 0.4282(9) 0.4729(8)
H99 H 0.0573 0.3787 0.4612
H100 H 0.0455 0.4561 0.4302
C49 C -0.0352(10) 0.4320(13) 0.5088(14)
H101 H -0.0718 0.4130 0.4774
H102 H -0.0470 0.4812 0.5196
H103 H -0.0350 0.4041 0.5509
C50 C 0.2028(8) 0.3734(8) 0.4799(9)
H104 H 0.1761 0.3575 0.4387
H105 H 0.2553 0.3713 0.4687
C51 C 0.1897(6) 0.3226(7) 0.5320(8)
H106 H 0.1371 0.3189 0.5428
H107 H 0.2170 0.3341 0.5742
C52 C 0.2209(10) 0.2487(8) 0.4956(9)
H108 H 0.2146 0.2090 0.5271
H109 H 0.2727 0.2543 0.4848
H110 H 0.1937 0.2395 0.4536
C53? C 0.2100(17) 0.527(2) 0.557(3)
H111? H 0.1986 0.5755 0.5409
H112? H 0.1871 0.5193 0.6022
C54? C 0.2904(14) 0.514(2) 0.5587(17)
H113? H 0.3166 0.5289 0.5170
H114? H 0.3038 0.4649 0.5718
C55? C 0.2931(14) 0.571(2) 0.622(3)
H115? H 0.3434 0.5761 0.6378
H116? H 0.2625 0.5541 0.6595
H117? H 0.2750 0.6167 0.6060
C56? C 0.1970(12) 0.4938(19) 0.4296(14)
H118? H 0.1902 0.4556 0.3957
H119? H 0.1520 0.5225 0.4259
C57? C 0.2384(19) 0.530(2) 0.4002(15)
H120? H 0.2821 0.5000 0.3959
H121? H 0.2514 0.5663 0.4347
C58? C 0.239(3) 0.574(3) 0.331(2)
H122? H 0.2885 0.5894 0.3213
H123? H 0.2068 0.6147 0.3357
H124? H 0.2214 0.5435 0.2939
C59? C 0.0976(8) 0.4637(8) 0.4788(10)
H125? H 0.0860 0.5141 0.4709
H126? H 0.0845 0.4373 0.4370
C60? C 0.0506(7) 0.4360(7) 0.5392(7)
H127? H 0.0566 0.3845 0.5450
H128? H 0.0638 0.4600 0.5824
C61? C -0.023(2) 0.453(2) 0.519(3)
H129? H -0.0571 0.4373 0.5539
H130? H -0.0341 0.4302 0.4754
H131? H -0.0273 0.5046 0.5133
C62? C 0.2087(10) 0.3867(11) 0.5146(10)
H132? H 0.1923 0.3788 0.5622
H133? H 0.2626 0.3870 0.5147
C63? C 0.1808(6) 0.3217(6) 0.4678(6)
H134? H 0.1271 0.3225 0.4624
H135? H 0.2038 0.3226 0.4221
C64? C 0.2064(14) 0.2549(13) 0.5105(17)
H136? H 0.1919 0.2117 0.4866
H137? H 0.1836 0.2560 0.5557
H138? H 0.2595 0.2559 0.5155
C65? C 0.2963(12) 0.9807(9) -0.0108(8)
C66? C 0.3089(16) 1.0501(11) 0.0147(12)
C67? C 0.273(3) 1.068(2) 0.081(3)
C68? C 0.3139(9) 1.0115(10) -0.1395(9)
C69? C 0.2305(7) 1.0181(9) -0.1538(9)
C70? C 0.227(3) 1.081(3) -0.207(2)
C71? C 0.4168(16) 0.9577(12) -0.0680(14)
C72? C 0.4625(13) 0.9374(11) -0.1203(12)
C73? C 0.5451(17) 0.936(2) -0.0884(14)
C74? C 0.3085(11) 0.8830(13) -0.0980(19)
C75? C 0.3267(9) 0.8228(11) -0.0691(18)
C76? C 0.300(3) 0.7507(17) -0.105(3)
H139? H 0.2434 0.9756 -0.0192
H140? H 0.3096 0.9468 0.0255
H141? H 0.2922 1.0844 -0.0201
H142? H 0.3621 1.0567 0.0202
H143? H 0.2838 1.1167 0.0938
H144? H 0.2905 1.0360 0.1170
H145? H 0.2198 1.0622 0.0766
H146? H 0.3329 1.0591 -0.1288
H147? H 0.3379 0.9957 -0.1821
H148? H 0.2033 1.0297 -0.1116
H149? H 0.2107 0.9740 -0.1735
H150? H 0.1767 1.0894 -0.2213
H151? H 0.2567 1.0695 -0.2475
H152? H 0.2465 1.1245 -0.1862
H153? H 0.4315 1.0058 -0.0540
H154? H 0.4267 0.9261 -0.0288
H155? H 0.4596 0.9715 -0.1585
H156? H 0.4486 0.8901 -0.1374
H157? H 0.5796 0.9214 -0.1239
H158? H 0.5470 0.9021 -0.0505
H159? H 0.5580 0.9829 -0.0718
H160? H 0.2548 0.8862 -0.0939
H161? H 0.3190 0.8771 -0.1472
H162? H 0.3076 0.8232 -0.0219
H163? H 0.3805 0.8213 -0.0659
H164? H 0.3170 0.7103 -0.0777
H165? H 0.3204 0.7477 -0.1508
H166? H 0.2468 0.7501 -0.1072
loop_
_geom_bond_atom_site_label_1
_geom_bond_atom_site_label_2
_geom_bond_site_symmetry_1
_geom_bond_site_symmetry_2
O1 C7 1_555 1_555
O2 C7 1_555 1_555
O3 C8 1_555 1_555
O4 C8 1_555 1_555
O5 C9 1_555 1_555
O6 C9 1_555 1_555
C1 H1 1_555 1_555
H2 C1 1_555 1_555
C2 C1 1_555 1_555
C3 C2 1_555 1_555
H3 C3 1_555 1_555
H4 C3 1_555 1_555
C4 C3 1_555 1_555
C5 C4 1_555 1_555
H5 C5 1_555 1_555
H6 C5 1_555 1_555
C6 C1 1_555 1_555
C7 C2 1_555 1_555
C8 C4 1_555 1_555
C9 C6 1_555 1_555
C10 C2 1_555 1_555
H7 C10 1_555 1_555
H8 C10 1_555 1_555
H9 C10 1_555 1_555
C11 C4 1_555 1_555
H10 C11 1_555 1_555
H11 C11 1_555 1_555
H12 C11 1_555 1_555
C12 C6 1_555 1_555
H13 C12 1_555 1_555
H14 C12 1_555 1_555
H15 C12 1_555 1_555
O7 C19 1_555 1_555
O8 C19 1_555 1_555
O9 C20 1_555 1_555
O10 C20 1_555 1_555
O11 C21 1_555 1_555
O12 C21 1_555 1_555
C13 H16 1_555 1_555
H17 C13 1_555 1_555
C14 C13 1_555 1_555
C15 C14 1_555 1_555
H18 C15 1_555 1_555
H19 C15 1_555 1_555
C16 C15 1_555 1_555
C17 C16 1_555 1_555
H20 C17 1_555 1_555
H21 C17 1_555 1_555
C18 C13 1_555 1_555
C19 C14 1_555 1_555
C20 C16 1_555 1_555
C21 C18 1_555 1_555
C22 C14 1_555 1_555
H22 C22 1_555 1_555
H23 C22 1_555 1_555
H24 C22 1_555 1_555
C23 C16 1_555 1_555
H25 C23 1_555 1_555
H26 C23 1_555 1_555
H27 C23 1_555 1_555
C24 C18 1_555 1_555
H28 C24 1_555 1_555
H29 C24 1_555 1_555
H30 C24 1_555 1_555
N1 H31 1_555 1_555
H32 N1 1_555 1_555
N2 H33 1_555 1_555
H34 N2 1_555 1_555
N3 H35 1_555 1_555
H36 N3 1_555 1_555
C25 N1 1_555 1_555
N4 H37 1_555 1_555
H38 N4 1_555 1_555
N5 H39 1_555 1_555
H40 N5 1_555 1_555
N6 H41 1_555 1_555
H42 N6 1_555 1_555
C26 N4 1_555 1_555
N7 H43 1_555 1_555
H44 N7 1_555 1_555
N8 H45 1_555 1_555
H46 N8 1_555 1_555
N9 H47 1_555 1_555
H48 N9 1_555 1_555
C27 N7 1_555 1_555
N10 H49 1_555 1_555
H50 N10 1_555 1_555
N11 H51 1_555 1_555
H52 N11 1_555 1_555
N12 H53 1_555 1_555
H54 N12 1_555 1_555
C28 N10 1_555 1_555
N13 C29 1_555 1_555
C29 H55 1_555 1_555
H56 C29 1_555 1_555
C30 C29 1_555 1_555
H57 C30 1_555 1_555
H58 C30 1_555 1_555
C31 C30 1_555 1_555
H59 C31 1_555 1_555
H60 C31 1_555 1_555
H61 C31 1_555 1_555
C32 N13 1_555 1_555
H62 C32 1_555 1_555
H63 C32 1_555 1_555
C33 C32 1_555 1_555
H64 C33 1_555 1_555
H65 C33 1_555 1_555
C34 C33 1_555 1_555
H66 C34 1_555 1_555
H67 C34 1_555 1_555
H68 C34 1_555 1_555
C35 N13 1_555 1_555
H69 C35 1_555 1_555
H70 C35 1_555 1_555
C36 C35 1_555 1_555
H71 C36 1_555 1_555
H72 C36 1_555 1_555
C37 C36 1_555 1_555
H73 C37 1_555 1_555
H74 C37 1_555 1_555
H75 C37 1_555 1_555
C38 N13 1_555 1_555
H76 C38 1_555 1_555
H77 C38 1_555 1_555
C39 C38 1_555 1_555
H78 C39 1_555 1_555
H79 C39 1_555 1_555
C40 C39 1_555 1_555
H80 C40 1_555 1_555
H81 C40 1_555 1_555
H82 C40 1_555 1_555
N14 C41 1_555 1_555
C41 H83 1_555 1_555
H84 C41 1_555 1_555
C42 C41 1_555 1_555
H85 C42 1_555 1_555
H86 C42 1_555 1_555
C43 C42 1_555 1_555
H87 C43 1_555 1_555
H88 C43 1_555 1_555
H89 C43 1_555 1_555
C44 N14 1_555 1_555
H90 C44 1_555 1_555
H91 C44 1_555 1_555
C45 C44 1_555 1_555
H92 C45 1_555 1_555
H93 C45 1_555 1_555
C46 C45 1_555 1_555
H94 C46 1_555 1_555
H95 C46 1_555 1_555
H96 C46 1_555 1_555
C47 N14 1_555 1_555
H97 C47 1_555 1_555
H98 C47 1_555 1_555
C48 C47 1_555 1_555
H99 C48 1_555 1_555
H100 C48 1_555 1_555
C49 C48 1_555 1_555
H101 C49 1_555 1_555
H102 C49 1_555 1_555
H103 C49 1_555 1_555
C50 N14 1_555 1_555
H104 C50 1_555 1_555
H105 C50 1_555 1_555
C51 C50 1_555 1_555
H106 C51 1_555 1_555
H107 C51 1_555 1_555
C52 C51 1_555 1_555
H108 C52 1_555 1_555
H109 C52 1_555 1_555
H110 C52 1_555 1_555
C5 C6 1_555 1_555
C17 C18 1_555 1_555
N2 C25 1_555 1_555
N3 C25 1_555 1_555
N5 C26 1_555 1_555
N6 C26 1_555 1_555
N8 C27 1_555 1_555
N9 C27 1_555 1_555
N11 C28 1_555 1_555
N12 C28 1_555 1_555

#END
