
#######################################################################
#
#                 Cambridge Crystallographic Data Centre
#                                CCDC 
#
#######################################################################
#
# If this CIF has been generated from an entry in the Cambridge 
# Structural Database, then it will include bibliographic, chemical, 
# crystal, experimental, refinement or atomic coordinate data resulting 
# from the CCDC's data processing and validation procedures.
#
#######################################################################

data_TUVCAO
_chemical_formula_moiety         'C12 H13 N1 O3'
_chemical_name_systematic        
'(E)-3-(Acetylamino)-3-phenylacrylic acid methyl ester'
_symmetry_cell_setting           triclinic
_symmetry_space_group_name_H-M   'P -1'
_symmetry_Int_Tables_number      2
_space_group_name_Hall           '-P 1'
loop_
_symmetry_equiv_pos_site_id
_symmetry_equiv_pos_as_xyz
1 x,y,z
2 -x,-y,-z
_cell_length_a                   8.9310(18)
_cell_length_b                   10.765(2)
_cell_length_c                   12.868(3)
_cell_angle_alpha                72.19(3)
_cell_angle_beta                 89.67(3)
_cell_angle_gamma                80.51(3)
_cell_volume                     1160.43
_exptl_crystal_colour            colorless
_exptl_crystal_description       needle
_chemical_melting_point          '159-163 deg.C'
_cell_formula_units_Z            4
loop_
_atom_site_label
_atom_site_type_symbol
_atom_site_fract_x
_atom_site_fract_y
_atom_site_fract_z
O1 O 0.2343(3) 0.4376(2) 0.70147(17)
O2 O -0.0031(3) 0.1784(3) 0.4783(2)
O3 O 0.2361(3) 0.2029(3) 0.4636(2)
N1 N -0.0115(3) 0.4057(2) 0.70621(18)
H1 H -0.0954 0.4231 0.7361
C1 C 0.0662(4) 0.5421(3) 0.8054(3)
H2 H 0.1546 0.5741 0.8217
H3 H 0.0283 0.4912 0.8721
H4 H -0.0108 0.6158 0.7685
C2 C 0.1074(4) 0.4566(3) 0.7335(2)
C3 C -0.0154(4) 0.3285(3) 0.6357(2)
C4 C 0.0984(4) 0.3086(3) 0.5718(2)
H5 H 0.1820 0.3499 0.5721
C5 C 0.0977(5) 0.2254(4) 0.5015(3)
C6 C 0.2559(5) 0.1170(4) 0.3948(3)
H6 H 0.3589 0.1079 0.3726
H7 H 0.1880 0.1550 0.3313
H8 H 0.2338 0.0315 0.4351
C7 C -0.1584(3) 0.2719(3) 0.6456(2)
C8 C -0.2728(4) 0.3193(4) 0.5658(3)
H9 H -0.2599 0.3858 0.5020
C9 C -0.4065(4) 0.2698(4) 0.5789(3)
H10 H -0.4838 0.3042 0.5246
C10 C -0.4264(4) 0.1714(4) 0.6702(3)
H11 H -0.5168 0.1379 0.6784
C11 C -0.3140(4) 0.1220(3) 0.7497(3)
H12 H -0.3263 0.0534 0.8122
C12 C -0.1815(4) 0.1741(3) 0.7372(2)
H13 H -0.1060 0.1415 0.7929
O4 O 0.7295(3) 0.4489(2) -0.15282(16)
O5 O 0.5421(3) 0.1105(3) 0.18489(18)
O6 O 0.7578(3) 0.1807(3) 0.19655(18)
N2 N 0.4929(3) 0.3952(2) -0.14078(18)
H14 H 0.4083 0.4102 -0.1777
C13 C 0.5496(4) 0.5594(4) -0.3015(2)
H15 H 0.6312 0.6039 -0.3337
H16 H 0.4657 0.6233 -0.2929
H17 H 0.5178 0.5129 -0.3480
C14 C 0.6027(4) 0.4634(3) -0.1926(2)
C15 C 0.5000(3) 0.3044(3) -0.0359(2)
C16 C 0.6171(4) 0.2783(3) 0.0362(2)
H18 H 0.6971 0.3246 0.0153
C17 C 0.6281(4) 0.1831(3) 0.1443(3)
C18 C 0.7863(5) 0.0886(4) 0.3058(3)
H19 H 0.8818 0.0959 0.3353
H20 H 0.7897 -0.0001 0.3033
H21 H 0.7064 0.1087 0.3514
C19 C 0.3602(3) 0.2431(3) -0.0167(2)
C20 C 0.3319(4) 0.1572(3) -0.0709(2)
H22 H 0.4045 0.1317 -0.1158
C21 C 0.1982(4) 0.1080(4) -0.0599(3)
H23 H 0.1820 0.0483 -0.0962
C22 C 0.0900(4) 0.1460(3) 0.0034(3)
H24 H -0.0019 0.1149 0.0091
C23 C 0.1166(4) 0.2295(4) 0.0581(3)
H25 H 0.0431 0.2543 0.1028
C24 C 0.2507(4) 0.2788(3) 0.0489(3)
H26 H 0.2670 0.3363 0.0873
loop_
_geom_bond_atom_site_label_1
_geom_bond_atom_site_label_2
_geom_bond_site_symmetry_1
_geom_bond_site_symmetry_2
O1 C2 1_555 1_555
O2 C5 1_555 1_555
O3 C5 1_555 1_555
N1 H1 1_555 1_555
C1 H2 1_555 1_555
H3 C1 1_555 1_555
H4 C1 1_555 1_555
C2 N1 1_555 1_555
C3 N1 1_555 1_555
C4 C3 1_555 1_555
H5 C4 1_555 1_555
C5 C4 1_555 1_555
C6 O3 1_555 1_555
H6 C6 1_555 1_555
H7 C6 1_555 1_555
H8 C6 1_555 1_555
C7 C3 1_555 1_555
C8 C7 1_555 1_555
H9 C8 1_555 1_555
C9 C8 1_555 1_555
H10 C9 1_555 1_555
C10 C9 1_555 1_555
H11 C10 1_555 1_555
C11 C10 1_555 1_555
H12 C11 1_555 1_555
C12 C7 1_555 1_555
H13 C12 1_555 1_555
O4 C14 1_555 1_555
O5 C17 1_555 1_555
O6 C17 1_555 1_555
N2 H14 1_555 1_555
C13 H15 1_555 1_555
H16 C13 1_555 1_555
H17 C13 1_555 1_555
C14 N2 1_555 1_555
C15 N2 1_555 1_555
C16 C15 1_555 1_555
H18 C16 1_555 1_555
C17 C16 1_555 1_555
C18 O6 1_555 1_555
H19 C18 1_555 1_555
H20 C18 1_555 1_555
H21 C18 1_555 1_555
C19 C15 1_555 1_555
C20 C19 1_555 1_555
H22 C20 1_555 1_555
C21 C20 1_555 1_555
H23 C21 1_555 1_555
C22 C21 1_555 1_555
H24 C22 1_555 1_555
C23 C22 1_555 1_555
H25 C23 1_555 1_555
C24 C19 1_555 1_555
H26 C24 1_555 1_555
C1 C2 1_555 1_555
C11 C12 1_555 1_555
C13 C14 1_555 1_555
C23 C24 1_555 1_555

#END
