
#######################################################################
#
#                 Cambridge Crystallographic Data Centre
#                                CCDC 
#
#######################################################################
#
# If this CIF has been generated from an entry in the Cambridge 
# Structural Database, then it will include bibliographic, chemical, 
# crystal, experimental, refinement or atomic coordinate data resulting 
# from the CCDC's data processing and validation procedures.
#
#######################################################################

data_TUVJEB
_chemical_formula_moiety         'C20 H17 N1 O2'
_chemical_name_systematic        
11-(2-methylphenyl)-11-azatetracyclo[6.5.1.0^2,7^.0^9,13^]tetradeca-2,4,6-triene-10,12-dione
_symmetry_cell_setting           monoclinic
_symmetry_space_group_name_H-M   'P 21/n'
_symmetry_Int_Tables_number      14
_space_group_name_Hall           '-P 2yn'
loop_
_symmetry_equiv_pos_site_id
_symmetry_equiv_pos_as_xyz
1 x,y,z
2 1/2-x,1/2+y,1/2-z
3 -x,-y,-z
4 1/2+x,1/2-y,1/2+z
_cell_length_a                   10.7730(14)
_cell_length_b                   7.7574(10)
_cell_length_c                   18.008(2)
_cell_angle_alpha                90
_cell_angle_beta                 95.400(3)
_cell_angle_gamma                90
_cell_volume                     1498.26
_exptl_crystal_colour            colorless
_exptl_crystal_description       plate
_cell_formula_units_Z            4
loop_
_atom_site_label
_atom_site_type_symbol
_atom_site_fract_x
_atom_site_fract_y
_atom_site_fract_z
O1 O 0.21430(8) 0.61185(13) 0.22261(5)
O2 O 0.54328(8) 0.88752(12) 0.13111(5)
N1 N 0.39748(9) 0.72876(13) 0.18792(6)
C1 C 0.14689(12) 0.97578(16) 0.02395(7)
H1 H 0.1046 0.9648 -0.0271
H2 H 0.1243 1.0865 0.0465
C2 C 0.12391(11) 0.81843(16) 0.07395(7)
H3 H 0.0350 0.7942 0.0819
C3 C 0.21069(11) 0.87019(16) 0.14489(7)
H4 H 0.1668 0.9505 0.1771
C4 C 0.26746(11) 0.72163(16) 0.18993(6)
C5 C 0.43596(12) 0.86177(16) 0.14311(7)
C6 C 0.32170(12) 0.96124(16) 0.11312(7)
H5 H 0.3275 1.0843 0.1296
C7 C 0.28976(11) 0.94861(16) 0.02670(7)
H6 H 0.3357 1.0296 -0.0041
C8 C 0.29227(11) 0.76024(16) 0.00472(6)
C9 C 0.19039(11) 0.68019(16) 0.03362(6)
C10 C 0.16813(12) 0.50594(17) 0.02328(7)
H7 H 0.1012 0.4506 0.0446
C11 C 0.24725(13) 0.41351(17) -0.01957(7)
H8 H 0.2321 0.2945 -0.0289
C12 C 0.34746(13) 0.49291(17) -0.04868(7)
H9 H 0.3997 0.4276 -0.0777
C13 C 0.37253(12) 0.66767(17) -0.03583(7)
H10 H 0.4426 0.7214 -0.0544
C14 C 0.48241(11) 0.60417(17) 0.22397(7)
C15 C 0.56828(12) 0.65584(17) 0.28285(7)
C16 C 0.65177(12) 0.53032(18) 0.31338(7)
H11 H 0.7131 0.5616 0.3524
C17 C 0.64687(13) 0.36153(18) 0.28785(7)
H12 H 0.7045 0.2789 0.3095
C18 C 0.55788(13) 0.31269(18) 0.23075(7)
H13 H 0.5532 0.1966 0.2140
C19 C 0.47608(12) 0.43533(17) 0.19859(7)
H14 H 0.4156 0.4037 0.1591
C20 C 0.57292(13) 0.83762(18) 0.31225(8)
H15 H 0.6109 0.8380 0.3639
H16 H 0.4881 0.8841 0.3105
H17 H 0.6228 0.9092 0.2815
loop_
_geom_bond_atom_site_label_1
_geom_bond_atom_site_label_2
_geom_bond_site_symmetry_1
_geom_bond_site_symmetry_2
O1 C4 1_555 1_555
O2 C5 1_555 1_555
N1 C4 1_555 1_555
C1 H1 1_555 1_555
H2 C1 1_555 1_555
C2 C1 1_555 1_555
H3 C2 1_555 1_555
C3 C2 1_555 1_555
H4 C3 1_555 1_555
C4 C3 1_555 1_555
C5 N1 1_555 1_555
C6 C3 1_555 1_555
H5 C6 1_555 1_555
C7 C1 1_555 1_555
H6 C7 1_555 1_555
C8 C7 1_555 1_555
C9 C2 1_555 1_555
C10 C9 1_555 1_555
H7 C10 1_555 1_555
C11 C10 1_555 1_555
H8 C11 1_555 1_555
C12 C11 1_555 1_555
H9 C12 1_555 1_555
C13 C8 1_555 1_555
H10 C13 1_555 1_555
C14 N1 1_555 1_555
C15 C14 1_555 1_555
C16 C15 1_555 1_555
H11 C16 1_555 1_555
C17 C16 1_555 1_555
H12 C17 1_555 1_555
C18 C17 1_555 1_555
H13 C18 1_555 1_555
C19 C14 1_555 1_555
H14 C19 1_555 1_555
C20 C15 1_555 1_555
H15 C20 1_555 1_555
H16 C20 1_555 1_555
H17 C20 1_555 1_555
C5 C6 1_555 1_555
C6 C7 1_555 1_555
C8 C9 1_555 1_555
C12 C13 1_555 1_555
C18 C19 1_555 1_555

#END
