
#######################################################################
#
#                 Cambridge Crystallographic Data Centre
#                                CCDC 
#
#######################################################################
#
# If this CIF has been generated from an entry in the Cambridge 
# Structural Database, then it will include bibliographic, chemical, 
# crystal, experimental, refinement or atomic coordinate data resulting 
# from the CCDC's data processing and validation procedures.
#
#######################################################################

data_TUVKEC
_chemical_formula_moiety         'C29 H22 N2 O3,0.75(C1 H1 Cl3)'
_chemical_name_systematic        
'1,16-dimethyl-19-(2-methylphenyl)-7,19-diazahexacyclo[14.5.1.0^2,15^.0^3,8^.0^9,14^.0^17,21^]docosa-2(15),3,5,7,9,11,13-heptaene-18,20,22-trione chloroform solvate'
_symmetry_cell_setting           triclinic
_symmetry_space_group_name_H-M   'P -1'
_symmetry_Int_Tables_number      2
_space_group_name_Hall           '-P 1'
loop_
_symmetry_equiv_pos_site_id
_symmetry_equiv_pos_as_xyz
1 x,y,z
2 -x,-y,-z
_cell_length_a                   9.4119(19)
_cell_length_b                   12.090(2)
_cell_length_c                   12.896(3)
_cell_angle_alpha                64.551(3)
_cell_angle_beta                 81.025(3)
_cell_angle_gamma                76.830(3)
_cell_volume                     1287.38
_exptl_crystal_colour            colorless
_exptl_crystal_description       plate
_cell_formula_units_Z            2
loop_
_atom_site_label
_atom_site_type_symbol
_atom_site_fract_x
_atom_site_fract_y
_atom_site_fract_z
O1 O 1.0599(2) 0.90019(16) -0.05717(16)
O2 O 0.7642(2) 0.71754(18) 0.36979(15)
O3 O 0.48518(18) 0.83496(16) 0.06801(15)
N1 N 0.5979(2) 0.76815(19) 0.23588(17)
C1 C 0.9684(3) 0.8446(2) 0.0069(2)
C2 C 0.8206(3) 0.8307(2) -0.0184(2)
C3 C 0.7230(3) 0.8852(2) 0.0654(2)
H1 H 0.6977 0.9781 0.0265
C4 C 0.5872(3) 0.8294(2) 0.1173(2)
C5 C 0.7300(3) 0.7695(2) 0.2719(2)
C6 C 0.8178(3) 0.8446(2) 0.1674(2)
H2 H 0.8361 0.9190 0.1749
C7 C 0.9644(3) 0.7692(2) 0.1381(2)
C8 C 0.9283(2) 0.6529(2) 0.1364(2)
C9 C 0.8445(2) 0.6886(2) 0.0453(2)
C10 C 0.7938(2) 0.5993(2) 0.0207(2)
C11 C 0.7041(3) 0.6303(2) -0.0683(2)
H3 H 0.6728 0.7153 -0.1171
C12 C 0.6608(3) 0.5387(3) -0.0857(2)
H4 H 0.6000 0.5601 -0.1463
C13 C 0.7070(3) 0.4140(3) -0.0136(2)
H5 H 0.6772 0.3511 -0.0263
C14 C 0.7926(3) 0.3804(2) 0.0734(2)
H6 H 0.8217 0.2948 0.1216
C15 C 0.8380(2) 0.4713(2) 0.0922(2)
C16 C 0.9261(3) 0.4338(2) 0.1879(2)
N2 N 0.9648(3) 0.3081(2) 0.2567(2)
C17 C 1.0447(3) 0.2726(2) 0.3468(2)
H7 H 1.0728 0.1861 0.3922
C18 C 1.0882(3) 0.3572(3) 0.3766(2)
H8 H 1.1431 0.3289 0.4420
C19 C 1.0504(3) 0.4824(2) 0.3097(2)
H9 H 1.0787 0.5412 0.3294
C20 C 0.9703(2) 0.5240(2) 0.2127(2)
C21 C 0.7827(3) 0.8987(2) -0.1426(2)
H10 H 0.8050 0.9828 -0.1740
H11 H 0.6782 0.9040 -0.1472
H12 H 0.8401 0.8534 -0.1871
C22 C 1.0955(3) 0.7648(2) 0.1955(3)
H13 H 1.1787 0.7063 0.1814
H14 H 1.0718 0.7374 0.2785
H15 H 1.1209 0.8480 0.1636
C23 C 0.4805(4) 0.7180(3) 0.3170(3)
C24 C 0.4595(4) 0.6000(3) 0.3377(3)
C25 C 0.3505(4) 0.5473(3) 0.4182(3)
H16 H 0.3362 0.4666 0.4324
C26 C 0.2626(3) 0.6127(4) 0.4781(3)
H17 H 0.1881 0.5768 0.5331
C27 C 0.2836(3) 0.7308(4) 0.4573(3)
H18 H 0.2235 0.7755 0.4982
C28 C 0.3925(4) 0.7834(3) 0.3768(3)
H19 H 0.4069 0.8641 0.3627
C29 C 0.5567(5) 0.5300(4) 0.2707(4)
H20 H 0.5396 0.5755 0.1887
H21 H 0.5333 0.4465 0.2987
H22 H 0.6595 0.5230 0.2818
C30 C 0.6432(7) 0.1426(8) 0.2924(6)
H23 H 0.6950 0.2153 0.2586
Cl1 Cl 0.7656(7) 0.0171(6) 0.3689(5)
Cl2 Cl 0.4924(6) 0.1810(5) 0.3700(6)
Cl3 Cl 0.5993(12) 0.1206(15) 0.1784(7)
C31? C 0.9648(3) 0.3081(2) 0.2567(2)
H24? H 0.9350 0.2477 0.2403
N3? N 0.7926(3) 0.3804(2) 0.0734(2)
C32? C 0.4977(8) 0.6895(6) 0.3065(7)
C33? C 0.4024(8) 0.7327(6) 0.3804(7)
C34? C 0.3018(7) 0.6617(8) 0.4547(6)
H25? H 0.2367 0.6912 0.5052
C35? C 0.2964(7) 0.5476(7) 0.4551(6)
H26? H 0.2276 0.4991 0.5059
C36? C 0.3917(7) 0.5044(5) 0.3813(6)
H27? H 0.3880 0.4264 0.3815
C37? C 0.4923(7) 0.5754(6) 0.3069(6)
H28? H 0.5574 0.5459 0.2564
C38? C 0.4124(10) 0.8564(8) 0.3799(8)
H29? H 0.4989 0.8463 0.4189
H30? H 0.3245 0.8846 0.4201
H31? H 0.4203 0.9181 0.3002
C39? C 0.6186(14) 0.0778(16) 0.3228(12)
H32? H 0.5776 -0.0001 0.3496
Cl4? Cl 0.7625(14) 0.0093(13) 0.4036(9)
Cl5? Cl 0.4697(13) 0.1553(11) 0.3735(14)
Cl6? Cl 0.621(3) 0.110(3) 0.1801(16)
C40? C 0.6842(18) 0.1149(16) 0.2957(17)
H33? H 0.7337 0.1656 0.2213
Cl7? Cl 0.8177(11) -0.0025(11) 0.3723(11)
Cl8? Cl 0.5737(13) 0.2122(10) 0.3372(10)
Cl9? Cl 0.5801(11) 0.0362(10) 0.2634(9)
loop_
_geom_bond_atom_site_label_1
_geom_bond_atom_site_label_2
_geom_bond_site_symmetry_1
_geom_bond_site_symmetry_2
O1 C1 1_555 1_555
O2 C5 1_555 1_555
O3 C4 1_555 1_555
N1 C4 1_555 1_555
C1 C2 1_555 1_555
C2 C3 1_555 1_555
C3 H1 1_555 1_555
C4 C3 1_555 1_555
C5 N1 1_555 1_555
C6 C3 1_555 1_555
H2 C6 1_555 1_555
C7 C1 1_555 1_555
C8 C7 1_555 1_555
C9 C2 1_555 1_555
C10 C9 1_555 1_555
C11 C10 1_555 1_555
H3 C11 1_555 1_555
C12 C11 1_555 1_555
H4 C12 1_555 1_555
C13 C12 1_555 1_555
H5 C13 1_555 1_555
C14 C13 1_555 1_555
H6 C14 1_555 1_555
C15 C10 1_555 1_555
C16 C15 1_555 1_555
N2 C16 1_555 1_555
C17 N2 1_555 1_555
H7 C17 1_555 1_555
C18 C17 1_555 1_555
H8 C18 1_555 1_555
C19 C18 1_555 1_555
H9 C19 1_555 1_555
C20 C8 1_555 1_555
C21 C2 1_555 1_555
H10 C21 1_555 1_555
H11 C21 1_555 1_555
H12 C21 1_555 1_555
C22 C7 1_555 1_555
H13 C22 1_555 1_555
H14 C22 1_555 1_555
H15 C22 1_555 1_555
C23 N1 1_555 1_555
C24 C23 1_555 1_555
C25 C24 1_555 1_555
H16 C25 1_555 1_555
C26 C25 1_555 1_555
H17 C26 1_555 1_555
C27 C26 1_555 1_555
H18 C27 1_555 1_555
C28 C23 1_555 1_555
H19 C28 1_555 1_555
C29 C24 1_555 1_555
H20 C29 1_555 1_555
H21 C29 1_555 1_555
H22 C29 1_555 1_555
C30 H23 1_555 1_555
Cl1 C30 1_555 1_555
Cl2 C30 1_555 1_555
Cl3 C30 1_555 1_555
C5 C6 1_555 1_555
C6 C7 1_555 1_555
C8 C9 1_555 1_555
C14 C15 1_555 1_555
C16 C20 1_555 1_555
C19 C20 1_555 1_555
C27 C28 1_555 1_555

#END
