
#######################################################################
#
#                 Cambridge Crystallographic Data Centre
#                                CCDC 
#
#######################################################################
#
# If this CIF has been generated from an entry in the Cambridge 
# Structural Database, then it will include bibliographic, chemical, 
# crystal, experimental, refinement or atomic coordinate data resulting 
# from the CCDC's data processing and validation procedures.
#
#######################################################################

data_TUVMEC
_chemical_formula_moiety         'C27 H22 F7 N1 O2'
_chemical_name_systematic        
(3R*)-4-Benzyl-3-((1S*)-1-(3,5-bis(trifluoromethyl)phenyl)ethyl)-3-(4-fluorophenyl)morpholin-2-one
_symmetry_cell_setting           monoclinic
_symmetry_space_group_name_H-M   'P 21'
_symmetry_Int_Tables_number      4
_space_group_name_Hall           'P 2yb'
loop_
_symmetry_equiv_pos_site_id
_symmetry_equiv_pos_as_xyz
1 x,y,z
2 -x,1/2+y,-z
_cell_length_a                   11.547(1)
_cell_length_b                   7.422(1)
_cell_length_c                   14.5184(8)
_cell_angle_alpha                90
_cell_angle_beta                 100.326(7)
_cell_angle_gamma                90
_cell_volume                     1224.1
_exptl_crystal_colour            colorless
_exptl_crystal_description       cylindrical
_cell_formula_units_Z            2
loop_
_atom_site_label
_atom_site_type_symbol
_atom_site_fract_x
_atom_site_fract_y
_atom_site_fract_z
F1 F 0.9400(7) 0.3803(15) 0.3862(6)
C1 C 0.4351(7) 1.0138(14) 0.9041(6)
F2 F 0.4116(17) 1.1844(14) 0.8701(9)
F3 F 0.3694(15) 0.975(3) 0.9680(10)
F4 F 0.5457(12) 1.037(3) 0.9484(12)
C2 C 0.2117(9) 0.5133(14) 0.7278(8)
F8 F 0.1366(11) 0.5496(19) 0.7885(11)
F9 F 0.157(2) 0.508(5) 0.6389(12)
F10 F 0.2425(13) 0.3455(16) 0.7276(18)
O1 O 0.5966(5) 0.3397(8) 0.7470(4)
O2 O 0.5415(4) 0.3567(8) 0.5953(4)
N1 N 0.7449(5) 0.6464(9) 0.7501(3)
C3 C 0.5985(6) 0.4220(10) 0.6659(5)
C4 C 0.6728(5) 0.5942(9) 0.6587(4)
C5 C 0.7672(7) 0.5030(13) 0.8198(5)
H1 H 0.8090 0.5510 0.8786
H2 H 0.8157 0.4102 0.7988
C6 C 0.6544(8) 0.4258(13) 0.8331(5)
H3 H 0.6678 0.3378 0.8833
H4 H 0.6043 0.5201 0.8505
C7 C 0.7446(6) 0.5442(10) 0.5836(5)
C8 C 0.8408(7) 0.4264(15) 0.6066(6)
H5 H 0.8616 0.3863 0.6680
C9 C 0.9058(8) 0.3680(19) 0.5405(8)
H6 H 0.9687 0.2890 0.5563
C10 C 0.8728(10) 0.4325(19) 0.4504(8)
C11 C 0.7805(10) 0.5436(16) 0.4245(6)
H7 H 0.7608 0.5827 0.3628
C12 C 0.7148(7) 0.5994(12) 0.4908(5)
H8 H 0.6502 0.6745 0.4729
C13 C 0.5797(6) 0.7458(9) 0.6268(4)
H9 H 0.5361 0.7090 0.5655
C14 C 0.6321(7) 0.9293(11) 0.6129(5)
H10 H 0.5701 1.0125 0.5897
H11 H 0.6843 0.9193 0.5686
H12 H 0.6751 0.9720 0.6716
C15 C 0.4890(6) 0.7573(10) 0.6923(5)
C16 C 0.5006(6) 0.8785(11) 0.7663(4)
H13 H 0.5636 0.9586 0.7760
C17 C 0.4189(7) 0.8808(12) 0.8257(5)
C18 C 0.3263(7) 0.7652(14) 0.8160(7)
H14 H 0.2745 0.7651 0.8582
C19 C 0.3119(7) 0.6468(13) 0.7405(7)
C20 C 0.3914(6) 0.6447(11) 0.6805(6)
H15 H 0.3795 0.5650 0.6302
C21 C 0.8512(6) 0.7505(12) 0.7457(5)
H16 H 0.8420 0.8096 0.6852
H17 H 0.9174 0.6685 0.7504
C22 C 0.8784(6) 0.8911(11) 0.8217(5)
C23 C 0.8102(7) 0.9255(12) 0.8882(5)
H18 H 0.7403 0.8621 0.8859
C24 C 0.8422(9) 1.0511(16) 0.9582(6)
H19 H 0.7954 1.0695 1.0033
C25 C 0.9447(10) 1.1495(15) 0.9608(8)
H20 H 0.9669 1.2350 1.0075
C26 C 1.0118(10) 1.1207(15) 0.8956(7)
H21 H 1.0800 1.1880 0.8971
C27 C 0.9810(8) 0.9928(13) 0.8264(6)
H22 H 1.0292 0.9743 0.7824
F5? F 0.4733(15) 1.1755(14) 0.8842(8)
F6? F 0.3369(9) 1.046(2) 0.9406(9)
F7? F 0.5212(11) 0.960(2) 0.9761(8)
F11? F 0.1125(10) 0.582(2) 0.7404(16)
F12? F 0.177(2) 0.467(3) 0.6368(10)
F13? F 0.2466(11) 0.3617(17) 0.7782(13)
loop_
_geom_bond_atom_site_label_1
_geom_bond_atom_site_label_2
_geom_bond_site_symmetry_1
_geom_bond_site_symmetry_2
F1 C10 1_555 1_555
C1 F2 1_555 1_555
F3 C1 1_555 1_555
F4 C1 1_555 1_555
C2 F8 1_555 1_555
F9 C2 1_555 1_555
F10 C2 1_555 1_555
O1 C3 1_555 1_555
O2 C3 1_555 1_555
N1 C4 1_555 1_555
C3 C4 1_555 1_555
C4 C7 1_555 1_555
C5 N1 1_555 1_555
H1 C5 1_555 1_555
H2 C5 1_555 1_555
C6 O1 1_555 1_555
H3 C6 1_555 1_555
H4 C6 1_555 1_555
C7 C8 1_555 1_555
C8 H5 1_555 1_555
C9 C8 1_555 1_555
H6 C9 1_555 1_555
C10 C9 1_555 1_555
C11 C10 1_555 1_555
H7 C11 1_555 1_555
C12 C7 1_555 1_555
H8 C12 1_555 1_555
C13 C4 1_555 1_555
H9 C13 1_555 1_555
C14 C13 1_555 1_555
H10 C14 1_555 1_555
H11 C14 1_555 1_555
H12 C14 1_555 1_555
C15 C13 1_555 1_555
C16 C15 1_555 1_555
H13 C16 1_555 1_555
C17 C1 1_555 1_555
C18 C17 1_555 1_555
H14 C18 1_555 1_555
C19 C2 1_555 1_555
C20 C15 1_555 1_555
H15 C20 1_555 1_555
C21 N1 1_555 1_555
H16 C21 1_555 1_555
H17 C21 1_555 1_555
C22 C21 1_555 1_555
C23 C22 1_555 1_555
H18 C23 1_555 1_555
C24 C23 1_555 1_555
H19 C24 1_555 1_555
C25 C24 1_555 1_555
H20 C25 1_555 1_555
C26 C25 1_555 1_555
H21 C26 1_555 1_555
C27 C22 1_555 1_555
H22 C27 1_555 1_555
C5 C6 1_555 1_555
C11 C12 1_555 1_555
C16 C17 1_555 1_555
C18 C19 1_555 1_555
C19 C20 1_555 1_555
C26 C27 1_555 1_555

#END
