
#######################################################################
#
#                 Cambridge Crystallographic Data Centre
#                                CCDC 
#
#######################################################################
#
# If this CIF has been generated from an entry in the Cambridge 
# Structural Database, then it will include bibliographic, chemical, 
# crystal, experimental, refinement or atomic coordinate data resulting 
# from the CCDC's data processing and validation procedures.
#
#######################################################################

data_TUWJUS
_chemical_formula_moiety         'C16 H9 N1 O2'
_chemical_name_systematic        5H-Benzo[a]phenoxazin-5-one
_symmetry_cell_setting           monoclinic
_symmetry_space_group_name_H-M   'P 21/n'
_symmetry_Int_Tables_number      14
_space_group_name_Hall           '-P 2yn'
loop_
_symmetry_equiv_pos_site_id
_symmetry_equiv_pos_as_xyz
1 x,y,z
2 1/2-x,1/2+y,1/2-z
3 -x,-y,-z
4 1/2+x,1/2-y,1/2+z
_cell_length_a                   3.91910(9)
_cell_length_b                   23.3060(5)
_cell_length_c                   12.3580(3)
_cell_angle_alpha                90
_cell_angle_beta                 94.315(1)
_cell_angle_gamma                90
_cell_volume                     1125.56
_exptl_crystal_colour            red
_exptl_crystal_description       plate
_cell_formula_units_Z            4
loop_
_atom_site_label
_atom_site_type_symbol
_atom_site_fract_x
_atom_site_fract_y
_atom_site_fract_z
C1 C 0.0327(4) 0.14340(7) 0.59917(13)
H1 H -0.094(4) 0.1175(7) 0.5500(13)
C2 C 0.0998(5) 0.19926(7) 0.57219(15)
H2 H 0.021(4) 0.2135(8) 0.5003(15)
C3 C 0.2800(4) 0.23487(7) 0.64528(14)
H3 H 0.328(4) 0.2744(8) 0.6241(13)
C4 C 0.3934(4) 0.21431(7) 0.74634(15)
H4 H 0.522(4) 0.2391(7) 0.8000(14)
C5 C 0.3293(4) 0.15799(7) 0.77516(12)
C6 C 0.4608(4) 0.13582(7) 0.88311(13)
O1 O 0.6279(4) 0.16684(5) 0.94852(10)
C7 C 0.3902(4) 0.07686(7) 0.90808(13)
H5 H 0.475(4) 0.0626(7) 0.9769(14)
C8 C 0.2051(4) 0.04328(6) 0.83751(12)
C9 C -0.0501(4) -0.04675(6) 0.79593(12)
O2 O 0.1370(3) -0.01142(4) 0.86773(8)
C10 C -0.1112(4) -0.10193(7) 0.82826(14)
H6 H -0.020(4) -0.1137(7) 0.8959(13)
C11 C -0.2961(4) -0.13759(8) 0.75737(15)
H7 H -0.342(4) -0.1763(7) 0.7801(12)
C12 C -0.4169(5) -0.11851(7) 0.65542(15)
H8 H -0.551(5) -0.1439(8) 0.6077(14)
C13 C -0.3559(4) -0.06334(7) 0.62383(14)
H9 H -0.440(4) -0.0496(7) 0.5515(15)
C14 C -0.1699(4) -0.02606(6) 0.69433(12)
C15 C 0.0714(4) 0.06268(6) 0.73008(11)
C16 C 0.1450(4) 0.12188(6) 0.70100(12)
N1 N -0.1070(3) 0.02998(5) 0.66211(10)
loop_
_geom_bond_atom_site_label_1
_geom_bond_atom_site_label_2
_geom_bond_site_symmetry_1
_geom_bond_site_symmetry_2
C1 H1 1_555 1_555
C2 C1 1_555 1_555
H2 C2 1_555 1_555
C3 C2 1_555 1_555
H3 C3 1_555 1_555
C4 C3 1_555 1_555
H4 C4 1_555 1_555
C5 C4 1_555 1_555
C6 C5 1_555 1_555
O1 C6 1_555 1_555
C7 C6 1_555 1_555
H5 C7 1_555 1_555
C8 C7 1_555 1_555
C9 O2 1_555 1_555
O2 C8 1_555 1_555
C10 C9 1_555 1_555
H6 C10 1_555 1_555
C11 C10 1_555 1_555
H7 C11 1_555 1_555
C12 C11 1_555 1_555
H8 C12 1_555 1_555
C13 C12 1_555 1_555
H9 C13 1_555 1_555
C14 C9 1_555 1_555
C15 C8 1_555 1_555
C16 C1 1_555 1_555
N1 C14 1_555 1_555
C5 C16 1_555 1_555
C13 C14 1_555 1_555
C15 C16 1_555 1_555
C15 N1 1_555 1_555

#END
