
#######################################################################
#
#                 Cambridge Crystallographic Data Centre
#                                CCDC 
#
#######################################################################
#
# If this CIF has been generated from an entry in the Cambridge 
# Structural Database, then it will include bibliographic, chemical, 
# crystal, experimental, refinement or atomic coordinate data resulting 
# from the CCDC's data processing and validation procedures.
#
#######################################################################

data_TUWSUA
_chemical_formula_moiety         'C31 H31 N1 O2 S1'
_chemical_name_systematic        
1-((4-Methylphenyl)sulfonyl)-2,4-diphenyl-3-(1-phenylpropyl)azetidine
_symmetry_cell_setting           monoclinic
_symmetry_space_group_name_H-M   'P 21'
_symmetry_Int_Tables_number      4
_space_group_name_Hall           'P 2yb'
loop_
_symmetry_equiv_pos_site_id
_symmetry_equiv_pos_as_xyz
1 x,y,z
2 -x,1/2+y,-z
_cell_length_a                   11.9760(11)
_cell_length_b                   8.0830(7)
_cell_length_c                   14.1777(13)
_cell_angle_alpha                90
_cell_angle_beta                 91.565(4)
_cell_angle_gamma                90
_cell_volume                     1371.92
_exptl_crystal_colour            colorless
_exptl_crystal_description       block
_cell_formula_units_Z            2
loop_
_atom_site_label
_atom_site_type_symbol
_atom_site_fract_x
_atom_site_fract_y
_atom_site_fract_z
C1 C 0.1705(2) 0.8445(4) 0.2304(2)
H1 H 0.1556 0.8760 0.2956
C2 C 0.1530(2) 0.6565(3) 0.21659(19)
H2 H 0.1195 0.6322 0.1543
C3 C 0.2813(2) 0.6342(4) 0.2168(2)
H3 H 0.3080 0.5866 0.2769
C4 C 0.1164(2) 0.9661(4) 0.16234(19)
C5 C 0.1776(3) 1.0530(4) 0.0981(2)
H4 H 0.2541 1.0358 0.0943
C6 C 0.1236(4) 1.1675(5) 0.0385(2)
H5 H 0.1652 1.2280 -0.0039
C7 C 0.0113(4) 1.1920(5) 0.0415(3)
H6 H -0.0237 1.2683 0.0015
C8 C -0.0493(3) 1.1028(5) 0.1043(3)
H7 H -0.1263 1.1173 0.1060
C9 C 0.0024(3) 0.9918(4) 0.1648(2)
H8 H -0.0397 0.9335 0.2078
C10 C 0.0925(2) 0.5644(4) 0.29444(19)
H9 H 0.1288 0.5949 0.3547
C11 C -0.0272(2) 0.6224(4) 0.2971(2)
C12 C -0.0613(3) 0.7255(5) 0.3688(3)
H10 H -0.0116 0.7526 0.4179
C13 C -0.1689(4) 0.7886(6) 0.3680(4)
H11 H -0.1908 0.8586 0.4161
C14 C -0.2422(3) 0.7483(7) 0.2969(4)
H12 H -0.3144 0.7907 0.2966
C15 C -0.2102(3) 0.6450(6) 0.2255(4)
H13 H -0.2610 0.6170 0.1773
C16 C -0.1032(3) 0.5830(5) 0.2250(3)
H14 H -0.0817 0.5142 0.1761
C17 C 0.1034(3) 0.3760(4) 0.2837(2)
H15 H 0.0663 0.3423 0.2251
H16 H 0.1818 0.3477 0.2797
C18 C 0.0542(3) 0.2821(5) 0.3637(3)
H17 H 0.0879 0.3188 0.4223
H18 H 0.0682 0.1660 0.3558
H19 H -0.0248 0.3012 0.3644
C19 C 0.3343(3) 0.5483(4) 0.1357(2)
C20 C 0.3141(3) 0.5952(5) 0.0443(2)
H20 H 0.2691 0.6866 0.0313
C21 C 0.3605(3) 0.5065(7) -0.0298(3)
H21 H 0.3467 0.5397 -0.0918
C22 C 0.4249(4) 0.3739(7) -0.0119(4)
H22 H 0.4576 0.3174 -0.0612
C23 C 0.4419(5) 0.3229(7) 0.0779(5)
H23 H 0.4836 0.2279 0.0902
C24 C 0.3978(4) 0.4110(6) 0.1518(3)
H24 H 0.4118 0.3759 0.2135
C25 C 0.3651(2) 0.8475(4) 0.4031(2)
C26 C 0.4205(3) 0.7131(5) 0.4404(3)
H25 H 0.4695 0.6528 0.4039
C27 C 0.4023(3) 0.6677(5) 0.5341(3)
H26 H 0.4389 0.5755 0.5591
C28 C 0.3324(3) 0.7547(5) 0.5897(2)
C29 C 0.2775(3) 0.8880(5) 0.5506(2)
H27 H 0.2284 0.9481 0.5871
C30 C 0.2934(3) 0.9349(4) 0.4587(2)
H28 H 0.2554 1.0261 0.4339
C31 C 0.3181(4) 0.7078(6) 0.6917(3)
H29 H 0.2418 0.6770 0.7013
H30 H 0.3373 0.8004 0.7313
H31 H 0.3661 0.6162 0.7074
N1 N 0.29299(18) 0.8185(3) 0.21846(16)
O1 O 0.3627(2) 1.0833(3) 0.28086(17)
O2 O 0.49097(17) 0.8453(4) 0.25873(17)
S1 S 0.38583(7) 0.91009(11) 0.28604(6)
loop_
_geom_bond_atom_site_label_1
_geom_bond_atom_site_label_2
_geom_bond_site_symmetry_1
_geom_bond_site_symmetry_2
C1 H1 1_555 1_555
C2 C1 1_555 1_555
H2 C2 1_555 1_555
C3 C2 1_555 1_555
H3 C3 1_555 1_555
C4 C1 1_555 1_555
C5 C4 1_555 1_555
H4 C5 1_555 1_555
C6 C5 1_555 1_555
H5 C6 1_555 1_555
C7 C6 1_555 1_555
H6 C7 1_555 1_555
C8 C7 1_555 1_555
H7 C8 1_555 1_555
C9 C4 1_555 1_555
H8 C9 1_555 1_555
C10 C2 1_555 1_555
H9 C10 1_555 1_555
C11 C10 1_555 1_555
C12 C11 1_555 1_555
H10 C12 1_555 1_555
C13 C12 1_555 1_555
H11 C13 1_555 1_555
C14 C13 1_555 1_555
H12 C14 1_555 1_555
C15 C14 1_555 1_555
H13 C15 1_555 1_555
C16 C11 1_555 1_555
H14 C16 1_555 1_555
C17 C10 1_555 1_555
H15 C17 1_555 1_555
H16 C17 1_555 1_555
C18 C17 1_555 1_555
H17 C18 1_555 1_555
H18 C18 1_555 1_555
H19 C18 1_555 1_555
C19 C3 1_555 1_555
C20 C19 1_555 1_555
H20 C20 1_555 1_555
C21 C20 1_555 1_555
H21 C21 1_555 1_555
C22 C21 1_555 1_555
H22 C22 1_555 1_555
C23 C22 1_555 1_555
H23 C23 1_555 1_555
C24 C19 1_555 1_555
H24 C24 1_555 1_555
C25 C26 1_555 1_555
C26 H25 1_555 1_555
C27 C26 1_555 1_555
H26 C27 1_555 1_555
C28 C27 1_555 1_555
C29 C28 1_555 1_555
H27 C29 1_555 1_555
C30 C25 1_555 1_555
H28 C30 1_555 1_555
C31 C28 1_555 1_555
H29 C31 1_555 1_555
H30 C31 1_555 1_555
H31 C31 1_555 1_555
N1 C1 1_555 1_555
O1 S1 1_555 1_555
O2 S1 1_555 1_555
S1 C25 1_555 1_555
C3 N1 1_555 1_555
C8 C9 1_555 1_555
C15 C16 1_555 1_555
C23 C24 1_555 1_555
C29 C30 1_555 1_555
N1 S1 1_555 1_555

#END
