
#######################################################################
#
#                 Cambridge Crystallographic Data Centre
#                                CCDC 
#
#######################################################################
#
# If this CIF has been generated from an entry in the Cambridge 
# Structural Database, then it will include bibliographic, chemical, 
# crystal, experimental, refinement or atomic coordinate data resulting 
# from the CCDC's data processing and validation procedures.
#
#######################################################################

data_TUWWUD
_chemical_formula_moiety         'C9 H5 F2 N1 O1'
_chemical_name_systematic        5,5-Difluoro-5-hydroquinolin-6-one
_symmetry_cell_setting           orthorhombic
_symmetry_space_group_name_H-M   'P n m a'
_symmetry_Int_Tables_number      62
_space_group_name_Hall           '-P 2ac 2n'
loop_
_symmetry_equiv_pos_site_id
_symmetry_equiv_pos_as_xyz
1 x,y,z
2 1/2+x,y,1/2-z
3 x,1/2-y,z
4 1/2-x,1/2+y,1/2+z
5 -x,-y,-z
6 1/2-x,-y,1/2+z
7 -x,1/2+y,-z
8 1/2+x,1/2-y,1/2-z
_cell_length_a                   12.2462(9)
_cell_length_b                   6.6912(5)
_cell_length_c                   9.1757(7)
_cell_angle_alpha                90
_cell_angle_beta                 90
_cell_angle_gamma                90
_cell_volume                     751.873
_exptl_crystal_colour            yellow
_exptl_crystal_description       prism
_chemical_melting_point          105-107deg.C
_cell_formula_units_Z            4
loop_
_atom_site_label
_atom_site_type_symbol
_atom_site_fract_x
_atom_site_fract_y
_atom_site_fract_z
F1 F 0.75068(4) 0.08720(11) 0.55277(6)
O1 O 0.68056(10) 0.2500 0.81465(12)
N1 N 0.42900(10) 0.2500 0.32231(13)
C1 C 0.47447(12) 0.2500 0.18882(15)
H1 H 0.4229(16) 0.2500 0.109(2)
C2 C 0.58674(12) 0.2500 0.16336(15)
H2 H 0.6135(16) 0.2500 0.066(2)
C3 C 0.65703(11) 0.2500 0.28304(16)
H3 H 0.7362(17) 0.2500 0.268(2)
C4 C 0.68257(11) 0.2500 0.55539(14)
C5 C 0.62415(12) 0.2500 0.70597(15)
C6 C 0.50430(11) 0.2500 0.70743(15)
H4 H 0.4699(17) 0.2500 0.802(2)
C7 C 0.44620(11) 0.2500 0.58272(15)
H5 H 0.3680(17) 0.2500 0.588(2)
C8 C 0.49720(11) 0.2500 0.43750(14)
C9 C 0.61136(11) 0.2500 0.42197(14)
F1B F 0.75068(4) 0.41280(11) 0.55277(6)
loop_
_geom_bond_atom_site_label_1
_geom_bond_atom_site_label_2
_geom_bond_site_symmetry_1
_geom_bond_site_symmetry_2
F1 C4 1_555 1_555
O1 C5 1_555 1_555
N1 C1 1_555 1_555
C1 H1 1_555 1_555
C2 C1 1_555 1_555
H2 C2 1_555 1_555
C3 C2 1_555 1_555
H3 C3 1_555 1_555
C4 C5 1_555 1_555
C5 C6 1_555 1_555
C6 H4 1_555 1_555
C7 C6 1_555 1_555
H5 C7 1_555 1_555
C8 N1 1_555 1_555
C9 C3 1_555 1_555
F1B C4 1_555 1_555
C4 C9 1_555 1_555
C7 C8 1_555 1_555
C8 C9 1_555 1_555

#END
