
#######################################################################
#
#                 Cambridge Crystallographic Data Centre
#                                CCDC 
#
#######################################################################
#
# If this CIF has been generated from an entry in the Cambridge 
# Structural Database, then it will include bibliographic, chemical, 
# crystal, experimental, refinement or atomic coordinate data resulting 
# from the CCDC's data processing and validation procedures.
#
#######################################################################

data_TUXRUB
_chemical_formula_moiety         'C20 H22 O5,H2 O1'
_chemical_name_systematic        
'2,14-dihydroxy-4-methyl-12,17-dioxahexacyclo[11.5.2.1^3,6^.0^1,11^.0^10,21^.0^14,18^]henicosa-6(21),7,9-trien-19-one monohydrate'
_symmetry_cell_setting           monoclinic
_symmetry_space_group_name_H-M   'P 21'
_symmetry_Int_Tables_number      4
_space_group_name_Hall           'P 2yb'
loop_
_symmetry_equiv_pos_site_id
_symmetry_equiv_pos_as_xyz
1 x,y,z
2 -x,1/2+y,-z
_cell_length_a                   7.4116(2)
_cell_length_b                   8.4114(3)
_cell_length_c                   14.1853(4)
_cell_angle_alpha                90
_cell_angle_beta                 98.761(3)
_cell_angle_gamma                90
_cell_volume                     874.021
_cell_formula_units_Z            2
loop_
_atom_site_label
_atom_site_type_symbol
_atom_site_fract_x
_atom_site_fract_y
_atom_site_fract_z
C1 C 0.3668(4) 0.5590(4) 0.4720(2)
H1 H 0.4528 0.5096 0.5241
H2 H 0.2997 0.6455 0.4990
C2 C 0.4675(4) 0.6218(4) 0.3936(2)
H3 H 0.5913 0.6596 0.4203
H4 H 0.3992 0.7098 0.3581
C3 C 0.4771(4) 0.4762(4) 0.3290(2)
C4 C 0.3435(3) 0.3557(4) 0.36363(17)
H5 H 0.4143 0.2693 0.4010
C5 C 0.2154(3) 0.2829(3) 0.27933(17)
C6 C 0.3495(3) 0.2272(4) 0.21114(18)
H6 H 0.4493 0.1670 0.2513
C7 C 0.4155(4) 0.5049(4) 0.2219(2)
H7 H 0.4925 0.5899 0.1988
C8 C 0.2162(4) 0.5526(4) 0.2014(2)
H8 H 0.1974 0.6535 0.2345
H9 H 0.1795 0.5691 0.1320
C9 C 0.1017(3) 0.4228(3) 0.23577(17)
C10 C 0.2676(3) 0.1162(3) 0.13361(18)
C11 C 0.3574(4) 0.0681(4) 0.05852(19)
H10 H 0.4679 0.1187 0.0492
C12 C 0.2862(4) -0.0528(4) -0.00229(19)
H11 H 0.3464 -0.0816 -0.0543
C13 C 0.1279(4) -0.1328(4) 0.01148(19)
H12 H 0.0825 -0.2181 -0.0292
C14 C 0.0374(3) -0.0857(4) 0.08581(18)
C15 C -0.1271(4) -0.1538(4) 0.1227(2)
H13 H -0.1266 -0.2714 0.1207
H14 H -0.2422 -0.1141 0.0855
C16 C -0.1022(3) -0.0917(3) 0.22686(18)
H15 H -0.0122 -0.1625 0.2665
C17 C -0.0112(3) 0.0715(3) 0.21937(18)
H16 H -0.1078 0.1499 0.1938
C18 C 0.1019(3) 0.1423(3) 0.30829(17)
H17 H 0.0190 0.1804 0.3530
C19 C 0.1060(3) 0.0398(3) 0.14352(17)
C20 C -0.2757(4) -0.0898(4) 0.2713(2)
H18 H -0.2515 -0.0390 0.3341
H19 H -0.3175 -0.1991 0.2783
H20 H -0.3703 -0.0300 0.2302
O1 O 0.2420(2) 0.4422(3) 0.42421(13)
O2 O 0.4354(2) 0.3605(3) 0.17131(13)
O3 O -0.0624(2) 0.4350(3) 0.23265(13)
O4 O 0.2275(2) 0.0300(2) 0.35551(13)
H21 H 0.1781 -0.0201 0.3960
O5 O 0.6559(2) 0.4063(3) 0.34396(14)
H22 H 0.7022 0.4132 0.2936
O6 O 0.0803(3) 0.8818(4) 0.49547(15)
H23 H 0.1588 0.8863 0.5458
H24 H -0.0253 0.8999 0.5094
loop_
_geom_bond_atom_site_label_1
_geom_bond_atom_site_label_2
_geom_bond_site_symmetry_1
_geom_bond_site_symmetry_2
C1 H1 1_555 1_555
H2 C1 1_555 1_555
C2 C1 1_555 1_555
H3 C2 1_555 1_555
H4 C2 1_555 1_555
C3 C2 1_555 1_555
C4 C3 1_555 1_555
H5 C4 1_555 1_555
C5 C4 1_555 1_555
C6 C5 1_555 1_555
H6 C6 1_555 1_555
C7 C3 1_555 1_555
H7 C7 1_555 1_555
C8 C7 1_555 1_555
H8 C8 1_555 1_555
H9 C8 1_555 1_555
C9 C5 1_555 1_555
C10 C6 1_555 1_555
C11 C10 1_555 1_555
H10 C11 1_555 1_555
C12 C11 1_555 1_555
H11 C12 1_555 1_555
C13 C12 1_555 1_555
H12 C13 1_555 1_555
C14 C13 1_555 1_555
C15 C14 1_555 1_555
H13 C15 1_555 1_555
H14 C15 1_555 1_555
C16 C15 1_555 1_555
H15 C16 1_555 1_555
C17 C16 1_555 1_555
H16 C17 1_555 1_555
C18 C5 1_555 1_555
H17 C18 1_555 1_555
C19 C10 1_555 1_555
C20 C16 1_555 1_555
H18 C20 1_555 1_555
H19 C20 1_555 1_555
H20 C20 1_555 1_555
O1 C1 1_555 1_555
O2 C6 1_555 1_555
O3 C9 1_555 1_555
O4 C18 1_555 1_555
H21 O4 1_555 1_555
O5 C3 1_555 1_555
H22 O5 1_555 1_555
O6 H23 1_555 1_555
H24 O6 1_555 1_555
C4 O1 1_555 1_555
C7 O2 1_555 1_555
C8 C9 1_555 1_555
C14 C19 1_555 1_555
C17 C18 1_555 1_555
C17 C19 1_555 1_555

#END
