
#######################################################################
#
#                 Cambridge Crystallographic Data Centre
#                                CCDC 
#
#######################################################################
#
# If this CIF has been generated from an entry in the Cambridge 
# Structural Database, then it will include bibliographic, chemical, 
# crystal, experimental, refinement or atomic coordinate data resulting 
# from the CCDC's data processing and validation procedures.
#
#######################################################################

data_TUXXAL
_chemical_formula_moiety         'C64 H82 N8 O8'
_chemical_name_systematic        
1,4,8,11,15,18,22,25-octakis(n-Butoxy)-phthalocyanine
_symmetry_cell_setting           triclinic
_symmetry_space_group_name_H-M   'P -1'
_symmetry_Int_Tables_number      2
_space_group_name_Hall           '-P 1'
loop_
_symmetry_equiv_pos_site_id
_symmetry_equiv_pos_as_xyz
1 x,y,z
2 -x,-y,-z
_cell_length_a                   14.0780(3)
_cell_length_b                   14.3480(4)
_cell_length_c                   17.0090(2)
_cell_angle_alpha                72.156(2)
_cell_angle_beta                 86.193(2)
_cell_angle_gamma                73.655(2)
_cell_volume                     3137.48
_exptl_crystal_colour            black
_exptl_crystal_description       'flat pillar'
_chemical_melting_point          '214.3-217.3 deg.C'
_cell_formula_units_Z            2
_exptl_crystal_recrystallization_method dichloromethane/methanol
loop_
_atom_site_label
_atom_site_type_symbol
_atom_site_fract_x
_atom_site_fract_y
_atom_site_fract_z
N1 N 0.5920(2) 0.6305(2) 0.5229(2)
N2 N 0.4489(2) 0.7701(2) 0.5273(2)
N3 N 0.5491(2) 0.8245(2) 0.4103(2)
N4 N 0.6016(2) 0.9212(2) 0.2803(2)
N5 N 0.7130(2) 0.7504(2) 0.3227(2)
N6 N 0.8565(2) 0.6095(2) 0.3189(2)
N7 N 0.7664(2) 0.5620(2) 0.4439(2)
N8 N 0.7075(2) 0.4627(2) 0.5700(2)
O1 O 0.5971(2) 0.3217(2) 0.6725(2)
O2 O 0.2943(2) 0.6827(2) 0.6364(2)
O3 O 0.3212(2) 0.9616(2) 0.5539(2)
O4 O 0.5046(2) 1.1402(2) 0.2686(2)
O5 O 0.6200(3) 1.0096(2) 0.1000(2)
O6 O 0.9261(2) 0.6485(2) 0.1365(2)
O7 O 1.0569(2) 0.4594(2) 0.3513(2)
O8 O 0.8884(2) 0.3043(2) 0.6530(2)
C1 C 0.6182(2) 0.5286(2) 0.5670(2)
C2 C 0.5356(2) 0.5012(2) 0.6171(2)
C3 C 0.5226(3) 0.4085(3) 0.6691(2)
C4 C 0.4335(3) 0.4121(3) 0.7099(3)
C5 C 0.3598(3) 0.5025(3) 0.6983(3)
C6 C 0.3701(2) 0.5941(3) 0.6464(2)
C7 C 0.4601(2) 0.5925(2) 0.6059(2)
C8 C 0.4986(2) 0.6714(2) 0.5473(2)
C9 C 0.4772(2) 0.8406(2) 0.4672(2)
C10 C 0.4321(2) 0.9503(2) 0.4440(2)
C11 C 0.3585(2) 1.0102(3) 0.4816(2)
C12 C 0.3329(3) 1.1141(3) 0.4440(2)
C13 C 0.3805(3) 1.1582(2) 0.3734(2)
C14 C 0.4539(3) 1.1013(2) 0.3363(2)
C15 C 0.4780(2) 0.9947(2) 0.3715(2)
C16 C 0.5509(2) 0.9124(2) 0.3488(2)
C17 C 0.6710(2) 0.8423(2) 0.2656(2)
C18 C 0.7175(2) 0.8483(2) 0.1851(2)
C19 C 0.7011(3) 0.9234(3) 0.1085(2)
C20 C 0.7623(4) 0.9057(3) 0.0447(2)
C21 C 0.8363(3) 0.8146(3) 0.0559(2)
C22 C 0.8516(3) 0.7375(3) 0.1305(2)
C23 C 0.7925(2) 0.7565(2) 0.1960(2)
C24 C 0.7885(2) 0.6985(2) 0.2842(2)
C25 C 0.8479(2) 0.5519(2) 0.3950(2)
C26 C 0.9221(2) 0.4612(2) 0.4429(2)
C27 C 1.0204(2) 0.4155(3) 0.4252(2)
C28 C 1.0716(2) 0.3310(3) 0.4868(2)
C29 C 1.0307(3) 0.2929(3) 0.5618(2)
C30 C 0.9339(2) 0.3361(2) 0.5806(2)
C31 C 0.8794(2) 0.4208(2) 0.5180(2)
C32 C 0.7772(2) 0.4834(2) 0.5162(2)
C33 C 0.5929(4) 0.2298(3) 0.7298(3)
C34 C 0.6760(3) 0.1442(3) 0.7149(3)
C35 C 0.6837(5) 0.0443(4) 0.7822(4)
C36 C 0.7627(6) -0.0420(5) 0.7682(5)
C37 C 0.2410(5) 0.7227(6) 0.5600(5)
C38 C 0.0793(10) 0.786(1) 0.6264(9)
C39 C -0.0266(6) 0.873(1) 0.6061(9)
C40 C 0.1419(5) 0.7907(7) 0.5699(7)
C41 C 0.2459(2) 1.0211(3) 0.5942(2)
C42 C 0.2352(3) 0.9532(3) 0.6790(2)
C43 C 0.1491(3) 0.9997(4) 0.7256(3)
C44 C 0.1399(5) 0.9289(5) 0.8115(4)
C45 C 0.5094(4) 1.2412(3) 0.2500(3)
C46 C 0.5751(4) 1.2666(3) 0.1811(3)
C47 C 0.5824(7) 1.3680(5) 0.1481(5)
C48 C 0.6468(8) 1.3923(6) 0.0781(5)
C49 C 0.5941(4) 1.0812(4) 0.0233(3)
C50 C 0.4920(5) 1.1500(4) 0.0299(3)
C51 C 0.4659(6) 1.2412(6) -0.0463(5)
C52 C 0.3670(7) 1.3127(6) -0.0361(7)
C53 C 0.8949(4) 0.5580(4) 0.1548(4)
C54 C 0.9528(7) 0.4869(6) 0.1191(6)
C55 C 0.9321(8) 0.3853(6) 0.1380(6)
C56 C 1.029(3) 0.293(2) 0.1430(30)
C57 C 1.1575(3) 0.4148(3) 0.3326(3)
C58 C 1.1843(4) 0.4878(5) 0.2565(4)
C59 C 1.2826(5) 0.4584(6) 0.2248(5)
C60 C 1.3036(8) 0.5373(8) 0.1499(6)
C61 C 0.9461(3) 0.2351(4) 0.7233(3)
C62 C 0.8870(3) 0.2253(4) 0.7992(3)
C63 C 0.9313(5) 0.1460(6) 0.8726(4)
C64 C 0.8765(6) 0.1409(6) 0.9508(4)
C65? C 0.197(1) 0.681(2) 0.6441(17)
C66? C 0.170(4) 0.831(3) 0.4890(40)
C67? C 0.095(2) 0.902(3) 0.4590(40)
C68? C 0.966(4) 0.326(2) 0.0820(30)
loop_
_geom_bond_atom_site_label_1
_geom_bond_atom_site_label_2
_geom_bond_site_symmetry_1
_geom_bond_site_symmetry_2
N1 C1 1_555 1_555
N2 C8 1_555 1_555
N3 C9 1_555 1_555
N4 C16 1_555 1_555
N5 C17 1_555 1_555
N6 C24 1_555 1_555
N7 C25 1_555 1_555
N8 C1 1_555 1_555
O1 C3 1_555 1_555
O2 C6 1_555 1_555
O3 C11 1_555 1_555
O4 C14 1_555 1_555
O5 C19 1_555 1_555
O6 C22 1_555 1_555
O7 C27 1_555 1_555
O8 C30 1_555 1_555
C1 C2 1_555 1_555
C2 C3 1_555 1_555
C3 C4 1_555 1_555
C4 C5 1_555 1_555
C5 C6 1_555 1_555
C6 C7 1_555 1_555
C7 C2 1_555 1_555
C8 N1 1_555 1_555
C9 N2 1_555 1_555
C10 C9 1_555 1_555
C11 C10 1_555 1_555
C12 C11 1_555 1_555
C13 C12 1_555 1_555
C14 C13 1_555 1_555
C15 C10 1_555 1_555
C16 N3 1_555 1_555
C17 N4 1_555 1_555
C18 C17 1_555 1_555
C19 C18 1_555 1_555
C20 C19 1_555 1_555
C21 C20 1_555 1_555
C22 C21 1_555 1_555
C23 C18 1_555 1_555
C24 N5 1_555 1_555
C25 N6 1_555 1_555
C26 C25 1_555 1_555
C27 C26 1_555 1_555
C28 C27 1_555 1_555
C29 C28 1_555 1_555
C30 C29 1_555 1_555
C31 C26 1_555 1_555
C32 N7 1_555 1_555
C33 O1 1_555 1_555
C34 C33 1_555 1_555
C35 C34 1_555 1_555
C36 C35 1_555 1_555
C37 O2 1_555 1_555
C38 C39 1_555 1_555
C40 C37 1_555 1_555
C41 O3 1_555 1_555
C42 C41 1_555 1_555
C43 C42 1_555 1_555
C44 C43 1_555 1_555
C45 O4 1_555 1_555
C46 C45 1_555 1_555
C47 C46 1_555 1_555
C48 C47 1_555 1_555
C49 O5 1_555 1_555
C50 C49 1_555 1_555
C51 C50 1_555 1_555
C52 C51 1_555 1_555
C53 O6 1_555 1_555
C54 C53 1_555 1_555
C55 C54 1_555 1_555
C56 C55 1_555 1_555
C57 O7 1_555 1_555
C58 C57 1_555 1_555
C59 C58 1_555 1_555
C60 C59 1_555 1_555
C61 O8 1_555 1_555
C62 C61 1_555 1_555
C63 C62 1_555 1_555
C64 C63 1_555 1_555
N8 C32 1_555 1_555
C7 C8 1_555 1_555
C14 C15 1_555 1_555
C15 C16 1_555 1_555
C22 C23 1_555 1_555
C23 C24 1_555 1_555
C30 C31 1_555 1_555
C31 C32 1_555 1_555
C38 C40 1_555 1_555

#END
