
#######################################################################
#
#                 Cambridge Crystallographic Data Centre
#                                CCDC 
#
#######################################################################
#
# If this CIF has been generated from an entry in the Cambridge 
# Structural Database, then it will include bibliographic, chemical, 
# crystal, experimental, refinement or atomic coordinate data resulting 
# from the CCDC's data processing and validation procedures.
#
#######################################################################

data_TUYFOI
_chemical_formula_moiety         'C24 H24 N2 S2'
_chemical_name_systematic        S,S'-bis(8-Quinolyl)-1,8-dithiaoctane
_symmetry_cell_setting           monoclinic
_symmetry_space_group_name_H-M   'P 21/n'
_symmetry_Int_Tables_number      14
_space_group_name_Hall           '-P 2yn'
loop_
_symmetry_equiv_pos_site_id
_symmetry_equiv_pos_as_xyz
1 x,y,z
2 1/2-x,1/2+y,1/2-z
3 -x,-y,-z
4 1/2+x,1/2-y,1/2+z
_cell_length_a                   7.537(1)
_cell_length_b                   20.434(3)
_cell_length_c                   13.857(2)
_cell_angle_alpha                90
_cell_angle_beta                 97.102(3)
_cell_angle_gamma                90
_cell_volume                     2117.76
_exptl_crystal_colour            pink
_chemical_melting_point          '198-200 deg.C'
_cell_formula_units_Z            4
loop_
_atom_site_label
_atom_site_type_symbol
_atom_site_fract_x
_atom_site_fract_y
_atom_site_fract_z
S1 S 0.6955(1) -0.1795(1) 0.4872(1)
C1 C 0.6462(4) -0.2571(1) 0.3211(2)
C2 C 0.7058(5) -0.3031(1) 0.2572(2)
C3 C 0.8723(5) -0.3288(1) 0.2738(2)
C4 C 0.9898(4) -0.3098(1) 0.3564(2)
C5 C 1.1669(4) -0.3330(1) 0.3763(2)
C6 C 1.2698(4) -0.3123(1) 0.4571(2)
C7 C 1.1979(4) -0.2689(1) 0.5195(2)
C8 C 0.9298(3) -0.2647(1) 0.4226(2)
C9 C 0.7538(3) -0.2376(1) 0.4031(2)
C10 C 0.4845(3) -0.1487(1) 0.4290(2)
C11 C 0.4262(3) -0.0907(1) 0.4856(2)
C12 C 0.5325(3) -0.0291(1) 0.4740(2)
N1 N 1.0347(3) -0.2450(1) 0.5046(1)
C12B C 0.4675(3) 0.0291(1) 0.5260(2)
C11B C 0.5738(3) 0.0907(1) 0.5144(2)
C10B C 0.5155(3) 0.1487(1) 0.5710(2)
S1B S 0.3045(1) 0.1795(1) 0.5128(1)
C9B C 0.2462(3) 0.2376(1) 0.5969(2)
C1B C 0.3538(4) 0.2571(1) 0.6789(2)
C2B C 0.2942(5) 0.3031(1) 0.7428(2)
C3B C 0.1277(5) 0.3288(1) 0.7262(2)
C4B C 0.0102(4) 0.3098(1) 0.6436(2)
C5B C -0.1669(4) 0.3330(1) 0.6237(2)
C6B C -0.2698(4) 0.3123(1) 0.5429(2)
C7B C -0.1979(4) 0.2689(1) 0.4805(2)
N1B N -0.0347(3) 0.2450(1) 0.4954(1)
C8B C 0.0702(3) 0.2647(1) 0.5774(2)
S2 S 0.5098(1) -0.0017(1) 0.1708(1)
C13 C 0.3459(3) -0.1245(1) 0.1548(1)
C14 C 0.2130(3) -0.1686(1) 0.1758(2)
C15 C 0.0838(3) -0.1497(1) 0.2306(2)
C16 C 0.0809(3) -0.0857(1) 0.2664(1)
C17 C -0.0474(3) -0.0621(2) 0.3241(2)
C18 C -0.0413(3) 0.0006(2) 0.3547(2)
C19 C 0.0931(3) 0.0416(1) 0.3287(2)
C20 C 0.2129(2) -0.0405(1) 0.2449(1)
C21 C 0.3493(2) -0.0615(1) 0.1886(1)
C22 C 0.6570(2) -0.0431(1) 0.0978(1)
C23 C 0.7978(2) 0.0057(1) 0.0742(1)
C24 C 0.9292(2) -0.0242(1) 0.0116(2)
N2 N 0.2176(2) 0.0229(1) 0.2755(1)
C24B C 1.0708(2) 0.0242(1) -0.0116(2)
C23B C 1.2022(2) -0.0057(1) -0.0742(1)
C22B C 1.3430(2) 0.0431(1) -0.0978(1)
S2B S 1.4902(1) 0.0017(1) -0.1708(1)
C21B C 1.6507(2) 0.0615(1) -0.1886(1)
C13B C 1.6541(3) 0.1245(1) -0.1548(1)
C14B C 1.7870(3) 0.1686(1) -0.1758(2)
C15B C 1.9162(3) 0.1497(1) -0.2306(2)
C16B C 1.9191(3) 0.0857(1) -0.2664(1)
C17B C 2.0474(3) 0.0621(2) -0.3241(2)
C18B C 2.0413(3) -0.0006(2) -0.3547(2)
C19B C 1.9069(3) -0.0416(1) -0.3287(2)
N2B N 1.7824(2) -0.0229(1) -0.2755(1)
C20B C 1.7871(2) 0.0405(1) -0.2449(1)
loop_
_geom_bond_atom_site_label_1
_geom_bond_atom_site_label_2
_geom_bond_site_symmetry_1
_geom_bond_site_symmetry_2
S1 C9 1_555 1_555
S2 C21 1_555 1_555
C1 C2 1_555 1_555
C2 C3 1_555 1_555
C3 C4 1_555 1_555
C4 C5 1_555 1_555
C5 C6 1_555 1_555
C6 C7 1_555 1_555
C7 N1 1_555 1_555
C8 C4 1_555 1_555
C9 C1 1_555 1_555
C10 S1 1_555 1_555
C11 C10 1_555 1_555
C12 C11 1_555 1_555
C13 C14 1_555 1_555
C14 C15 1_555 1_555
C15 C16 1_555 1_555
C16 C17 1_555 1_555
C17 C18 1_555 1_555
C18 C19 1_555 1_555
C19 N2 1_555 1_555
C20 C16 1_555 1_555
C21 C13 1_555 1_555
C22 S2 1_555 1_555
C23 C22 1_555 1_555
C24 C23 1_555 1_555
N1 C8 1_555 1_555
N2 C20 1_555 1_555
C12B C12 1_555 1_555
C11B C12B 1_555 1_555
C10B C11B 1_555 1_555
S1B C10B 1_555 1_555
C9B S1B 1_555 1_555
C1B C9B 1_555 1_555
C2B C1B 1_555 1_555
C3B C2B 1_555 1_555
C4B C3B 1_555 1_555
C5B C4B 1_555 1_555
C6B C5B 1_555 1_555
C7B C6B 1_555 1_555
N1B C7B 1_555 1_555
C8B C9B 1_555 1_555
C24B C24 1_555 1_555
C23B C24B 1_555 1_555
C22B C23B 1_555 1_555
S2B C22B 1_555 1_555
C21B S2B 1_555 1_555
C13B C21B 1_555 1_555
C14B C13B 1_555 1_555
C15B C14B 1_555 1_555
C16B C15B 1_555 1_555
C17B C16B 1_555 1_555
C18B C17B 1_555 1_555
C19B C18B 1_555 1_555
N2B C19B 1_555 1_555
C20B C21B 1_555 1_555
C8 C9 1_555 1_555
C20 C21 1_555 1_555
C4B C8B 1_555 1_555
N1B C8B 1_555 1_555
C16B C20B 1_555 1_555
N2B C20B 1_555 1_555

#END
