
#######################################################################
#
#                 Cambridge Crystallographic Data Centre
#                                CCDC 
#
#######################################################################
#
# If this CIF has been generated from an entry in the Cambridge 
# Structural Database, then it will include bibliographic, chemical, 
# crystal, experimental, refinement or atomic coordinate data resulting 
# from the CCDC's data processing and validation procedures.
#
#######################################################################

data_TUZTOZ
_chemical_formula_moiety         'C24 H21 Cl2 N3 O5'
_chemical_name_systematic        
2,4-dichloro-6-((2-hydroxy-3-(1-(2-hydroxyphenyl)-3,6-dioxa-2,7-diazanona-1,7-dien-8-yl)phenyl)carbonoimidoyl)phenol
_symmetry_cell_setting           monoclinic
_symmetry_space_group_name_H-M   'P 21/n'
_symmetry_Int_Tables_number      14
_space_group_name_Hall           '-P 2yn'
loop_
_symmetry_equiv_pos_site_id
_symmetry_equiv_pos_as_xyz
1 x,y,z
2 1/2-x,1/2+y,1/2-z
3 -x,-y,-z
4 1/2+x,1/2-y,1/2+z
_cell_length_a                   11.7742(12)
_cell_length_b                   7.8982(10)
_cell_length_c                   25.9115(19)
_cell_angle_alpha                90
_cell_angle_beta                 101.437(9)
_cell_angle_gamma                90
_cell_volume                     2361.79
_exptl_crystal_colour            'dark yellow'
_exptl_crystal_description       needle
_cell_formula_units_Z            4
loop_
_atom_site_label
_atom_site_type_symbol
_atom_site_fract_x
_atom_site_fract_y
_atom_site_fract_z
Cl1 Cl 0.17419(15) 0.0547(4) 0.30790(7)
Cl2 Cl 0.57762(15) 0.2614(2) 0.26117(6)
O1 O 0.2931(3) 0.1262(7) 0.41811(15)
H1 H 0.2392 0.0631 0.4058
O2 O 0.3265(3) 0.1265(6) 0.55176(12)
H2 H 0.2896 0.0971 0.5740
O3 O 0.2103(3) 0.0681(5) 0.67943(12)
O4 O 0.0803(3) 0.0979(5) 0.56816(12)
O5 O -0.1845(3) 0.3553(6) 0.48449(16)
H3 H -0.1483 0.2856 0.5048
N1 N 0.4624(4) 0.2160(7) 0.48881(16)
N2 N 0.2859(4) 0.1003(6) 0.64500(14)
N3 N 0.0051(4) 0.1949(6) 0.53134(15)
C1 C 0.3569(5) 0.1533(9) 0.3829(2)
C2 C 0.3149(5) 0.1318(9) 0.3286(2)
C3 C 0.3805(5) 0.1656(9) 0.2917(2)
H4 H 0.3497 0.1523 0.2560
C4 C 0.4943(5) 0.2203(8) 0.3087(2)
C5 C 0.5417(5) 0.2423(7) 0.3605(2)
H5 H 0.6181 0.2782 0.3708
C6 C 0.4734(5) 0.2099(7) 0.39831(19)
C7 C 0.5238(5) 0.2377(7) 0.4533(2)
H6 H 0.6008 0.2712 0.4631
C8 C 0.5024(4) 0.2455(8) 0.5429(2)
C9 C 0.4265(4) 0.1989(7) 0.57572(18)
C10 C 0.4573(4) 0.2278(7) 0.63067(18)
C11 C 0.5636(5) 0.3033(9) 0.6508(2)
H7 H 0.5849 0.3231 0.6868
C12 C 0.6374(6) 0.3490(10) 0.6184(3)
H8 H 0.7085 0.3978 0.6328
C13 C 0.6072(5) 0.3231(9) 0.5641(2)
H9 H 0.6569 0.3576 0.5423
C14 C 0.3762(5) 0.1828(7) 0.66591(18)
C15 C 0.4023(5) 0.2349(8) 0.72284(19)
H10 H 0.3442 0.1897 0.7403
H11 H 0.4025 0.3562 0.7252
H12 H 0.4770 0.1920 0.7394
C16 C 0.1162(5) -0.0299(7) 0.65212(19)
H13 H 0.0769 -0.0811 0.6778
H14 H 0.1470 -0.1210 0.6338
C17 C 0.0285(5) 0.0665(7) 0.61285(19)
H15 H -0.0418 0.0006 0.6026
H16 H 0.0092 0.1725 0.6280
C18 C 0.0525(4) 0.2382(7) 0.49280(18)
H17 H 0.1287 0.2066 0.4930
C19 C -0.0109(4) 0.3356(7) 0.44877(18)
C20 C -0.1266(4) 0.3886(7) 0.4455(2)
C21 C -0.1829(5) 0.4801(7) 0.4025(2)
H18 H -0.2581 0.5187 0.4010
C22 C -0.1266(6) 0.5136(8) 0.3619(2)
H19 H -0.1652 0.5720 0.3325
C23 C -0.0127(5) 0.4615(8) 0.3642(2)
H20 H 0.0246 0.4852 0.3366
C24 C 0.0436(5) 0.3755(7) 0.40737(19)
H21 H 0.1201 0.3426 0.4092
loop_
_geom_bond_atom_site_label_1
_geom_bond_atom_site_label_2
_geom_bond_site_symmetry_1
_geom_bond_site_symmetry_2
Cl1 C2 1_555 1_555
Cl2 C4 1_555 1_555
O1 H1 1_555 1_555
O2 H2 1_555 1_555
O3 N2 1_555 1_555
O4 N3 1_555 1_555
O5 H3 1_555 1_555
N1 C7 1_555 1_555
N2 C14 1_555 1_555
N3 C18 1_555 1_555
C1 O1 1_555 1_555
C2 C1 1_555 1_555
C3 C2 1_555 1_555
H4 C3 1_555 1_555
C4 C3 1_555 1_555
C5 C4 1_555 1_555
H5 C5 1_555 1_555
C6 C1 1_555 1_555
C7 C6 1_555 1_555
H6 C7 1_555 1_555
C8 N1 1_555 1_555
C9 O2 1_555 1_555
C10 C9 1_555 1_555
C11 C10 1_555 1_555
H7 C11 1_555 1_555
C12 C11 1_555 1_555
H8 C12 1_555 1_555
C13 C8 1_555 1_555
H9 C13 1_555 1_555
C14 C10 1_555 1_555
C15 C14 1_555 1_555
H10 C15 1_555 1_555
H11 C15 1_555 1_555
H12 C15 1_555 1_555
C16 O3 1_555 1_555
H13 C16 1_555 1_555
H14 C16 1_555 1_555
C17 O4 1_555 1_555
H15 C17 1_555 1_555
H16 C17 1_555 1_555
C18 H17 1_555 1_555
C19 C18 1_555 1_555
C20 O5 1_555 1_555
C21 C20 1_555 1_555
H18 C21 1_555 1_555
C22 C21 1_555 1_555
H19 C22 1_555 1_555
C23 C22 1_555 1_555
H20 C23 1_555 1_555
C24 C19 1_555 1_555
H21 C24 1_555 1_555
C5 C6 1_555 1_555
C8 C9 1_555 1_555
C12 C13 1_555 1_555
C16 C17 1_555 1_555
C19 C20 1_555 1_555
C23 C24 1_555 1_555

#END
