
#######################################################################
#
#                 Cambridge Crystallographic Data Centre
#                                CCDC 
#
#######################################################################
#
# If this CIF has been generated from an entry in the Cambridge 
# Structural Database, then it will include bibliographic, chemical, 
# crystal, experimental, refinement or atomic coordinate data resulting 
# from the CCDC's data processing and validation procedures.
#
#######################################################################

data_UBECEL
_chemical_formula_moiety         'C21 H25 N1 O4 S1'
_chemical_name_systematic        
4,5-bis(4-methoxyphenyl)-1-(methylsulfonyl)-2,3,6,7-tetrahydro-1H-azepine
_symmetry_cell_setting           orthorhombic
_symmetry_space_group_name_H-M   'P b c a'
_symmetry_Int_Tables_number      61
_space_group_name_Hall           '-P 2ac 2ab'
loop_
_symmetry_equiv_pos_site_id
_symmetry_equiv_pos_as_xyz
1 x,y,z
2 1/2+x,1/2-y,-z
3 -x,1/2+y,1/2-z
4 1/2-x,-y,1/2+z
5 -x,-y,-z
6 1/2-x,1/2+y,z
7 x,1/2-y,1/2+z
8 1/2+x,y,1/2-z
_cell_length_a                   16.7262(5)
_cell_length_b                   10.7505(3)
_cell_length_c                   22.0422(6)
_cell_angle_alpha                90
_cell_angle_beta                 90
_cell_angle_gamma                90
_cell_volume                     3963.52
_exptl_crystal_colour            colorless
_cell_formula_units_Z            8
loop_
_atom_site_label
_atom_site_type_symbol
_atom_site_fract_x
_atom_site_fract_y
_atom_site_fract_z
S1 S 0.24791(3) 0.06342(5) 0.01189(2)
O1 O 0.01599(10) 0.28398(17) 0.40841(8)
O2 O 0.52685(9) 0.34249(16) 0.39454(7)
O3 O 0.17646(10) -0.00629(17) 0.00060(8)
O4 O 0.32196(10) 0.01754(17) -0.01098(7)
N1 N 0.25703(10) 0.07443(19) 0.08511(8)
C1 C 0.00208(17) 0.4135(3) 0.41706(13)
H1 H 0.0496 0.4519 0.4328
H2 H -0.0410 0.4248 0.4453
H3 H -0.0117 0.4511 0.3790
C2 C 0.07418(11) 0.2507(2) 0.36789(9)
C3 C 0.08549(12) 0.1244(2) 0.36050(10)
H4 H 0.0565 0.0685 0.3840
C4 C 0.13952(13) 0.0814(2) 0.31857(10)
H5 H 0.1464 -0.0039 0.3138
C5 C 0.18424(11) 0.16284(19) 0.28308(10)
C6 C 0.23420(13) 0.1094(2) 0.23103(11)
C7 C 0.31217(13) 0.1222(2) 0.22623(10)
C8 C 0.36377(12) 0.18318(19) 0.27372(10)
C9 C 0.42912(13) 0.2520(2) 0.25555(10)
H6 H 0.4379 0.2641 0.2143
C10 C 0.48152(13) 0.3031(2) 0.29637(10)
H7 H 0.5247 0.3494 0.2823
C11 C 0.47112(11) 0.28705(19) 0.35788(9)
C12 C 0.51638(17) 0.3302(3) 0.45821(11)
H8 H 0.4653 0.3636 0.4696
H9 H 0.5580 0.3748 0.4789
H10 H 0.5188 0.2439 0.4692
C13 C 0.11944(13) 0.3335(2) 0.33451(10)
H11 H 0.1131 0.4187 0.3399
C14 C 0.17447(12) 0.2883(2) 0.29276(10)
H12 H 0.2055 0.3443 0.2708
C15 C 0.18492(13) 0.0453(2) 0.18204(10)
H13 H 0.2047 -0.0390 0.1773
H14 H 0.1300 0.0398 0.1960
C16 C 0.18519(12) 0.1075(2) 0.12032(10)
H15 H 0.1379 0.0824 0.0980
H16 H 0.1832 0.1970 0.1256
C17 C 0.23367(18) 0.2131(3) -0.01722(14)
H17 H 0.2780 0.2649 -0.0059
H18 H 0.1851 0.2474 -0.0011
H19 H 0.2301 0.2091 -0.0606
C18 C 0.33267(12) 0.1237(3) 0.10985(10)
H20 H 0.3283 0.2132 0.1142
H21 H 0.3756 0.1065 0.0815
C19 C 0.35329(13) 0.0672(2) 0.17082(10)
H22 H 0.4106 0.0745 0.1766
H23 H 0.3407 -0.0208 0.1693
C20 C 0.35351(12) 0.1683(2) 0.33607(11)
H24 H 0.3099 0.1228 0.3500
C21 C 0.40626(12) 0.2191(2) 0.37809(10)
H25 H 0.3979 0.2075 0.4194
loop_
_geom_bond_atom_site_label_1
_geom_bond_atom_site_label_2
_geom_bond_site_symmetry_1
_geom_bond_site_symmetry_2
S1 O3 1_555 1_555
O1 C1 1_555 1_555
O2 C11 1_555 1_555
O4 S1 1_555 1_555
N1 S1 1_555 1_555
C1 H1 1_555 1_555
H2 C1 1_555 1_555
H3 C1 1_555 1_555
C2 O1 1_555 1_555
C3 C2 1_555 1_555
H4 C3 1_555 1_555
C4 C3 1_555 1_555
H5 C4 1_555 1_555
C5 C4 1_555 1_555
C6 C5 1_555 1_555
C7 C6 1_555 1_555
C8 C7 1_555 1_555
C9 C8 1_555 1_555
H6 C9 1_555 1_555
C10 C9 1_555 1_555
H7 C10 1_555 1_555
C11 C10 1_555 1_555
C12 O2 1_555 1_555
H8 C12 1_555 1_555
H9 C12 1_555 1_555
H10 C12 1_555 1_555
C13 C2 1_555 1_555
H11 C13 1_555 1_555
C14 C5 1_555 1_555
H12 C14 1_555 1_555
C15 C6 1_555 1_555
H13 C15 1_555 1_555
H14 C15 1_555 1_555
C16 N1 1_555 1_555
H15 C16 1_555 1_555
H16 C16 1_555 1_555
C17 S1 1_555 1_555
H17 C17 1_555 1_555
H18 C17 1_555 1_555
H19 C17 1_555 1_555
C18 N1 1_555 1_555
H20 C18 1_555 1_555
H21 C18 1_555 1_555
C19 C7 1_555 1_555
H22 C19 1_555 1_555
H23 C19 1_555 1_555
C20 C8 1_555 1_555
H24 C20 1_555 1_555
C21 C11 1_555 1_555
H25 C21 1_555 1_555
C13 C14 1_555 1_555
C15 C16 1_555 1_555
C18 C19 1_555 1_555
C20 C21 1_555 1_555

#END
