
#######################################################################
#
#                 Cambridge Crystallographic Data Centre
#                                CCDC 
#
#######################################################################
#
# If this CIF has been generated from an entry in the Cambridge 
# Structural Database, then it will include bibliographic, chemical, 
# crystal, experimental, refinement or atomic coordinate data resulting 
# from the CCDC's data processing and validation procedures.
#
#######################################################################

data_UBESOJ
_chemical_formula_moiety         'C23 H16,0.5(C10 H2 N4)'
_chemical_name_systematic        
'bis(2,3:5,6-Dinaphthobicyclo(2.2.1)hepta-2,5-diene) 1,2,4,5-tetracyanobenzene clathrate'
_symmetry_cell_setting           monoclinic
_symmetry_space_group_name_H-M   'P 21/n'
_symmetry_Int_Tables_number      14
_space_group_name_Hall           '-P 2yn'
loop_
_symmetry_equiv_pos_site_id
_symmetry_equiv_pos_as_xyz
1 x,y,z
2 1/2+x,1/2-y,1/2+z
3 -x,-y,-z
4 1/2-x,1/2+y,1/2-z
_cell_length_a                   10.3780(15)
_cell_length_b                   15.6705(18)
_cell_length_c                   12.6680(11)
_cell_angle_alpha                90
_cell_angle_beta                 107.430(7)
_cell_angle_gamma                90
_cell_volume                     1965.58
_exptl_crystal_colour            yellow
_exptl_crystal_description       plates
_cell_formula_units_Z            4
_exptl_crystal_recrystallization_method toluene/dichloromethane
loop_
_atom_site_label
_atom_site_type_symbol
_atom_site_fract_x
_atom_site_fract_y
_atom_site_fract_z
C1 C -0.1467(2) 0.26414(13) 0.62701(17)
C2 C -0.2559(2) 0.22322(14) 0.64008(19)
H1 H -0.3410 0.2260 0.5832
C3 C -0.2434(3) 0.17578(14) 0.7383(2)
C4 C -0.3549(3) 0.13504(16) 0.7591(3)
H2 H -0.4417 0.1381 0.7042
C5 C -0.3419(5) 0.09228(18) 0.8546(3)
H3 H -0.4195 0.0665 0.8678
C6 C -0.2164(5) 0.08593(19) 0.9351(3)
H4 H -0.2074 0.0542 1.0018
C7 C -0.1062(4) 0.12498(17) 0.9185(2)
H5 H -0.0200 0.1203 0.9738
C8 C -0.1155(3) 0.17094(14) 0.82101(19)
C9 C -0.0031(3) 0.21344(14) 0.80319(18)
H6 H 0.0842 0.2096 0.8572
C10 C -0.0188(2) 0.25902(13) 0.70923(17)
C11 C 0.0782(2) 0.31108(14) 0.66623(18)
H7 H 0.1622 0.3294 0.7209
C12 C 0.0921(2) 0.26221(13) 0.56636(16)
C13 C 0.1952(2) 0.21875(12) 0.54687(17)
H8 H 0.2814 0.2158 0.6026
C14 C 0.1758(2) 0.17716(12) 0.44335(17)
C15 C 0.2798(2) 0.13048(14) 0.4189(2)
H9 H 0.3675 0.1280 0.4727
C16 C 0.2574(3) 0.08868(15) 0.3206(2)
H10 H 0.3289 0.0570 0.3052
C17 C 0.1312(3) 0.09245(15) 0.2411(2)
H11 H 0.1155 0.0618 0.1728
C18 C 0.0287(3) 0.13891(14) 0.26041(18)
H12 H -0.0569 0.1427 0.2041
C19 C 0.0472(2) 0.18203(13) 0.36151(17)
C20 C -0.0581(2) 0.22923(13) 0.38483(17)
H13 H -0.1447 0.2339 0.3301
C21 C -0.0359(2) 0.26758(12) 0.48432(16)
C22 C -0.1258(2) 0.31988(13) 0.53503(18)
H14 H -0.2055 0.3444 0.4847
C23 C -0.0195(2) 0.38254(14) 0.60603(19)
H15 H 0.0188 0.4188 0.5621
H16 H -0.0530 0.4162 0.6555
N1 N -0.3813(2) 0.07536(16) 0.4179(2)
N2 N -0.2495(3) -0.04757(16) 0.2012(2)
C24 C -0.1331(2) 0.02740(12) 0.47219(17)
C25 C -0.0464(2) 0.04593(13) 0.57642(16)
H17 H -0.0784 0.0770 0.6289
C26 C -0.0865(2) -0.01856(13) 0.39622(16)
C27 C -0.2714(3) 0.05468(15) 0.44235(19)
C28 C -0.1770(3) -0.03549(15) 0.2873(2)
C26B C 0.0865(2) 0.01856(13) 0.60378(16)
C24B C 0.1331(2) -0.02740(12) 0.52781(17)
C25B C 0.0464(2) -0.04593(13) 0.42358(16)
H17B H 0.0784 -0.0770 0.3711
C27B C 0.2714(3) -0.05468(15) 0.55765(19)
N1B N 0.3813(2) -0.07536(16) 0.5821(2)
C28B C 0.1770(3) 0.03549(15) 0.7127(2)
N2B N 0.2495(3) 0.04757(16) 0.7988(2)
loop_
_geom_bond_atom_site_label_1
_geom_bond_atom_site_label_2
_geom_bond_site_symmetry_1
_geom_bond_site_symmetry_2
C1 C2 1_555 1_555
C2 H1 1_555 1_555
C3 C2 1_555 1_555
C4 C3 1_555 1_555
H2 C4 1_555 1_555
C5 C4 1_555 1_555
H3 C5 1_555 1_555
C6 C5 1_555 1_555
H4 C6 1_555 1_555
C7 C6 1_555 1_555
H5 C7 1_555 1_555
C8 C3 1_555 1_555
C9 C8 1_555 1_555
H6 C9 1_555 1_555
C10 C1 1_555 1_555
C11 C10 1_555 1_555
H7 C11 1_555 1_555
C12 C11 1_555 1_555
C13 C12 1_555 1_555
H8 C13 1_555 1_555
C14 C13 1_555 1_555
C15 C14 1_555 1_555
H9 C15 1_555 1_555
C16 C15 1_555 1_555
H10 C16 1_555 1_555
C17 C16 1_555 1_555
H11 C17 1_555 1_555
C18 C17 1_555 1_555
H12 C18 1_555 1_555
C19 C14 1_555 1_555
C20 C19 1_555 1_555
H13 C20 1_555 1_555
C21 C12 1_555 1_555
C22 C1 1_555 1_555
H14 C22 1_555 1_555
C23 C11 1_555 1_555
H15 C23 1_555 1_555
H16 C23 1_555 1_555
N1 C27 1_555 1_555
N2 C28 1_555 1_555
C24 C25 1_555 1_555
C25 H17 1_555 1_555
C26 C24 1_555 1_555
C27 C24 1_555 1_555
C28 C26 1_555 1_555
C26B C25 1_555 1_555
C24B C26B 1_555 1_555
C25B C26 1_555 1_555
H17B C25B 1_555 1_555
C27B C24B 1_555 1_555
N1B C27B 1_555 1_555
C28B C26B 1_555 1_555
N2B C28B 1_555 1_555
C7 C8 1_555 1_555
C9 C10 1_555 1_555
C18 C19 1_555 1_555
C20 C21 1_555 1_555
C21 C22 1_555 1_555
C22 C23 1_555 1_555
C24B C25B 1_555 1_555

#END
