
#######################################################################
#
#                 Cambridge Crystallographic Data Centre
#                                CCDC 
#
#######################################################################
#
# If this CIF has been generated from an entry in the Cambridge 
# Structural Database, then it will include bibliographic, chemical, 
# crystal, experimental, refinement or atomic coordinate data resulting 
# from the CCDC's data processing and validation procedures.
#
#######################################################################

data_UBESUP
_chemical_formula_moiety         'C36 H26 O4'
_chemical_name_systematic        
7,16-Diacetoxy-(6\a,8\a,15\a,17\a)-6,8,15,17-tetrahydro-6,17:8,15-dimethanoheptacene
_symmetry_cell_setting           orthorhombic
_symmetry_space_group_name_H-M   'P n m a'
_symmetry_Int_Tables_number      62
_space_group_name_Hall           '-P 2ac 2n'
loop_
_symmetry_equiv_pos_site_id
_symmetry_equiv_pos_as_xyz
1 x,y,z
2 1/2+x,y,1/2-z
3 x,1/2-y,z
4 1/2-x,1/2+y,1/2+z
5 -x,-y,-z
6 1/2-x,-y,1/2+z
7 -x,1/2+y,-z
8 1/2+x,1/2-y,1/2-z
_cell_length_a                   14.202(2)
_cell_length_b                   25.481(4)
_cell_length_c                   7.3683(12)
_cell_angle_alpha                90
_cell_angle_beta                 90
_cell_angle_gamma                90
_cell_volume                     2666.45
_exptl_crystal_colour            colorless
_exptl_crystal_description       plates
_chemical_melting_point          'above 300 deg.C'
_cell_formula_units_Z            4
_exptl_crystal_recrystallization_method pyrazine/ethanol/dichloromethane
loop_
_atom_site_label
_atom_site_type_symbol
_atom_site_fract_x
_atom_site_fract_y
_atom_site_fract_z
O1 O 0.69412(18) 0.7500 -0.3549(3)
O2 O 0.5970(3) 0.70174(14) -0.5245(5)
O3 O 0.45288(15) 0.7500 0.2484(3)
O4 O 0.5202(3) 0.69019(13) 0.4225(5)
C1 C 0.61538(16) 0.61996(8) 0.1192(3)
C2 C 0.64631(17) 0.59726(8) 0.2738(3)
H1 H 0.6070 0.5967 0.3798
C3 C 0.73797(17) 0.57430(8) 0.2786(3)
C4 C 0.7714(2) 0.54768(9) 0.4362(4)
H2 H 0.7325 0.5464 0.5426
C5 C 0.8581(2) 0.52419(10) 0.4351(5)
H3 H 0.8796 0.5058 0.5410
C6 C 0.9153(2) 0.52697(10) 0.2807(6)
H4 H 0.9761 0.5105 0.2818
C7 C 0.88585(19) 0.55248(10) 0.1291(4)
H5 H 0.9266 0.5548 0.0254
C8 C 0.79628(18) 0.57658(9) 0.1221(4)
C9 C 0.76208(17) 0.60093(9) -0.0376(4)
H6 H 0.8011 0.6031 -0.1437
C10 C 0.67413(18) 0.62109(9) -0.0387(3)
C11 C 0.61541(17) 0.64643(9) -0.1863(3)
H7 H 0.6355 0.6407 -0.3091
C12 C 0.52286(16) 0.64552(8) 0.0646(3)
H8 H 0.4695 0.6385 0.1407
C13 C 0.51799(18) 0.62535(9) -0.1338(3)
H9 H 0.5141 0.5878 -0.1408
H10 H 0.4678 0.6411 -0.2018
C14 C 0.60171(16) 0.70350(8) -0.1298(3)
C15 C 0.54441(15) 0.70321(8) 0.0245(3)
C16 C 0.6325(2) 0.7500 -0.2047(4)
C17 C 0.5167(2) 0.7500 0.1055(4)
C18 C 0.6682(4) 0.7258(2) -0.5084(8)
C19 C 0.7397(4) 0.7341(2) -0.6544(7)
H11 H 0.7261 0.7666 -0.7175
H12 H 0.7364 0.7050 -0.7392
H13 H 0.8024 0.7358 -0.6025
C20 C 0.4633(3) 0.72405(18) 0.4038(6)
C21 C 0.3919(3) 0.7402(5) 0.5412(6)
H14 H 0.4149 0.7320 0.6618
H15 H 0.3338 0.7212 0.5191
H16 H 0.3802 0.7776 0.5322
C20B C 0.4633(3) 0.77595(18) 0.4038(6)
O4B O 0.5202(3) 0.80981(13) 0.4225(5)
C21B C 0.3919(3) 0.7598(5) 0.5412(6)
H14B H 0.4149 0.7680 0.6618
H15B H 0.3338 0.7788 0.5191
H16B H 0.3802 0.7224 0.5322
C15B C 0.54441(15) 0.79679(8) 0.0245(3)
C12B C 0.52286(16) 0.85448(8) 0.0646(3)
C1B C 0.61538(16) 0.88004(8) 0.1192(3)
C2B C 0.64631(17) 0.90274(8) 0.2738(3)
H1B H 0.6070 0.9033 0.3798
C3B C 0.73797(17) 0.92570(8) 0.2786(3)
C4B C 0.7714(2) 0.95232(9) 0.4362(4)
H2B H 0.7325 0.9536 0.5426
C5B C 0.8581(2) 0.97581(10) 0.4351(5)
H3B H 0.8796 0.9942 0.5410
C6B C 0.9153(2) 0.97303(10) 0.2807(6)
H4B H 0.9761 0.9895 0.2818
C7B C 0.88585(19) 0.94752(10) 0.1291(4)
H5B H 0.9266 0.9452 0.0254
C8B C 0.79628(18) 0.92342(9) 0.1221(4)
C9B C 0.76208(17) 0.89907(9) -0.0376(4)
H6B H 0.8011 0.8969 -0.1437
C10B C 0.67413(18) 0.87891(9) -0.0387(3)
C11B C 0.61541(17) 0.85357(9) -0.1863(3)
H7B H 0.6355 0.8593 -0.3091
C13B C 0.51799(18) 0.87465(9) -0.1338(3)
H8B H 0.4695 0.8615 0.1407
H9B H 0.5141 0.9122 -0.1408
H10B H 0.4678 0.8589 -0.2018
C14B C 0.60171(16) 0.79650(8) -0.1298(3)
C18B C 0.6682(4) 0.7742(2) -0.5084(8)
O2B O 0.5970(3) 0.79826(14) -0.5245(5)
C19B C 0.7397(4) 0.7659(2) -0.6544(7)
H11B H 0.7261 0.7334 -0.7175
H12B H 0.7364 0.7950 -0.7392
H13B H 0.8024 0.7642 -0.6025
loop_
_geom_bond_atom_site_label_1
_geom_bond_atom_site_label_2
_geom_bond_site_symmetry_1
_geom_bond_site_symmetry_2
O1 C16 1_555 1_555
O2 C18 1_555 1_555
O3 C17 1_555 1_555
O4 C20 1_555 1_555
C1 C2 1_555 1_555
C2 H1 1_555 1_555
C3 C2 1_555 1_555
C4 C3 1_555 1_555
H2 C4 1_555 1_555
C5 C4 1_555 1_555
H3 C5 1_555 1_555
C6 C5 1_555 1_555
H4 C6 1_555 1_555
C7 C6 1_555 1_555
H5 C7 1_555 1_555
C8 C3 1_555 1_555
C9 C8 1_555 1_555
H6 C9 1_555 1_555
C10 C1 1_555 1_555
C11 C10 1_555 1_555
H7 C11 1_555 1_555
C12 C1 1_555 1_555
H8 C12 1_555 1_555
C13 C11 1_555 1_555
H9 C13 1_555 1_555
H10 C13 1_555 1_555
C14 C11 1_555 1_555
C15 C12 1_555 1_555
C16 C14 1_555 1_555
C17 C15 1_555 1_555
C18 O1 1_555 1_555
C19 C18 1_555 1_555
H11 C19 1_555 1_555
H12 C19 1_555 1_555
H13 C19 1_555 1_555
C20 O3 1_555 1_555
C21 C20 1_555 1_555
H14 C21 1_555 1_555
H15 C21 1_555 1_555
H16 C21 1_555 1_555
C20B O3 1_555 1_555
O4B C20B 1_555 1_555
C21B C20 1_555 1_555
H14B C21 1_555 1_555
H15B C21 1_555 1_555
H16B C21 1_555 1_555
C15B C17 1_555 1_555
C12B C15B 1_555 1_555
C1B C12B 1_555 1_555
C2B C1B 1_555 1_555
H1B C2B 1_555 1_555
C3B C2B 1_555 1_555
C4B C3B 1_555 1_555
H2B C4B 1_555 1_555
C5B C4B 1_555 1_555
H3B C5B 1_555 1_555
C6B C5B 1_555 1_555
H4B C6B 1_555 1_555
C7B C6B 1_555 1_555
H5B C7B 1_555 1_555
C8B C3B 1_555 1_555
C9B C8B 1_555 1_555
H6B C9B 1_555 1_555
C10B C1B 1_555 1_555
C11B C10B 1_555 1_555
H7B C11B 1_555 1_555
C13B C12B 1_555 1_555
H8B C12B 1_555 1_555
H9B C13B 1_555 1_555
H10B C13B 1_555 1_555
C14B C16 1_555 1_555
C18B O1 1_555 1_555
O2B C18B 1_555 1_555
C19B C19 1_555 1_555
H11B C19 1_555 1_555
H12B H11 1_555 1_555
H13B C19 1_555 1_555
C7 C8 1_555 1_555
C9 C10 1_555 1_555
C12 C13 1_555 1_555
C14 C15 1_555 1_555
C18 C18B 1_555 1_555
H11 C19B 1_555 1_555
H11 H11B 1_555 1_555
H12 H11B 1_555 1_555
H13 C19B 1_555 1_555
H13 H13B 1_555 1_555
C20 C20B 1_555 1_555
C21 C20B 1_555 1_555
C21 C21B 1_555 1_555
H14 C21B 1_555 1_555
H15 C21B 1_555 1_555
H15 H16B 1_555 1_555
H16 C21B 1_555 1_555
H16 H15B 1_555 1_555
C20B C21B 1_555 1_555
C21B H14B 1_555 1_555
C21B H15B 1_555 1_555
C21B H16B 1_555 1_555
C15B C14B 1_555 1_555
C7B C8B 1_555 1_555
C9B C10B 1_555 1_555
C11B C13B 1_555 1_555
C11B C14B 1_555 1_555
C18B C19B 1_555 1_555
C19B H11B 1_555 1_555
C19B H13B 1_555 1_555
C19B H12B 1_555 1_555

#END
