
#######################################################################
#
#                 Cambridge Crystallographic Data Centre
#                                CCDC 
#
#######################################################################
#
# If this CIF has been generated from an entry in the Cambridge 
# Structural Database, then it will include bibliographic, chemical, 
# crystal, experimental, refinement or atomic coordinate data resulting 
# from the CCDC's data processing and validation procedures.
#
#######################################################################

data_UBICAM
_chemical_formula_moiety         
'0.7195(C29 H22 Br1 Cl1 N2 O6 S1),0.2805(C29 H22 Cl2 N2 O6 S1)'
_chemical_name_systematic        
'12-(3-bromopropyl)-1-chloro-8,9-dimethoxy-2-(phenylsulfonyl)indolo[4,3-bc]phenanthridine-6,11(2H,12H)-dione 1-chloro-12-(3-chloropropyl)-8,9-dimethoxy-2-(phenylsulfonyl)indolo[4,3-bc]phenanthridine-6,11(2H,12H)-dione'
_symmetry_cell_setting           monoclinic
_symmetry_space_group_name_H-M   'P 21/c'
_symmetry_Int_Tables_number      14
_space_group_name_Hall           '-P 2ybc'
loop_
_symmetry_equiv_pos_site_id
_symmetry_equiv_pos_as_xyz
1 x,y,z
2 -x,1/2+y,1/2-z
3 -x,-y,-z
4 x,1/2-y,1/2+z
_cell_length_a                   22.3778(4)
_cell_length_b                   13.6683(3)
_cell_length_c                   16.9825(5)
_cell_angle_alpha                90
_cell_angle_beta                 96.9795(18)
_cell_angle_gamma                90
_cell_volume                     5155.89
_exptl_crystal_colour            orange
_exptl_crystal_description       plate
_cell_formula_units_Z            8
loop_
_atom_site_label
_atom_site_type_symbol
_atom_site_fract_x
_atom_site_fract_y
_atom_site_fract_z
O1 O 0.10641(12) 0.60681(19) 0.32501(18)
C1 C 0.0578(3) 0.0676(6) 0.4194(5)
H1 H 0.0669 0.0072 0.4508
H2 H 0.0140 0.0688 0.4018
C2 C 0.0911(3) 0.0658(5) 0.3484(5)
H3 H 0.0824 0.0038 0.3190
H4 H 0.1350 0.0686 0.3657
N1 N 0.13470(13) 0.4658(2) 0.41382(19)
Cl1 Cl 0.06995(4) 0.37795(7) 0.51631(6)
S1 S 0.07792(4) 0.54118(6) 0.37392(6)
C3 C 0.12438(16) 0.3783(3) 0.4549(2)
N2 N 0.13960(13) 0.1549(2) 0.50454(18)
O2 O 0.04913(12) 0.57729(19) 0.43834(18)
C4 C 0.16693(15) 0.3084(3) 0.4431(2)
O3 O 0.11737(11) 0.0358(2) 0.59010(16)
C5 C 0.18195(15) 0.2101(2) 0.4711(2)
O4 O 0.30904(12) -0.16510(19) 0.64355(17)
C6 C 0.23946(15) 0.1727(2) 0.4648(2)
O5 O 0.37929(11) -0.10025(19) 0.54641(16)
C7 C 0.28043(15) 0.2232(3) 0.4144(2)
O6 O 0.32706(11) 0.18497(19) 0.39683(16)
C8 C 0.26332(15) 0.3213(3) 0.3834(2)
C9 C 0.20772(15) 0.3564(3) 0.3977(2)
C10 C 0.18814(15) 0.4505(3) 0.3777(2)
C11 C 0.22297(16) 0.5126(3) 0.3372(2)
H5 H 0.2097 0.5765 0.3215
C12 C 0.27860(16) 0.4762(3) 0.3207(2)
H6 H 0.3033 0.5165 0.2926
C13 C 0.29899(16) 0.3833(3) 0.3439(2)
H7 H 0.3375 0.3620 0.3328
C14 C 0.15577(16) 0.0749(3) 0.5543(2)
C15 C 0.21722(15) 0.0408(2) 0.5556(2)
C16 C 0.23348(16) -0.0420(3) 0.6028(2)
H8 H 0.2063 -0.0675 0.6365
C17 C 0.28821(16) -0.0860(2) 0.6007(2)
C18 C 0.32759(15) -0.0481(3) 0.5482(2)
C19 C 0.31275(15) 0.0343(3) 0.5036(2)
H9 H 0.3404 0.0597 0.4706
C20 C 0.25656(15) 0.0820(2) 0.5063(2)
C21 C 0.07489(15) 0.1565(3) 0.4714(2)
H10 H 0.0665 0.2167 0.4397
H11 H 0.0498 0.1579 0.5156
C22 C 0.26927(19) -0.2113(3) 0.6911(2)
H12 H 0.2581 -0.1649 0.7308
H13 H 0.2893 -0.2681 0.7179
H14 H 0.2330 -0.2329 0.6574
C23 C 0.41819(17) -0.0718(3) 0.4898(3)
H15 H 0.4522 -0.1173 0.4922
H16 H 0.4332 -0.0054 0.5019
H17 H 0.3958 -0.0730 0.4365
C24 C 0.02907(17) 0.4624(3) 0.3152(2)
C25 C -0.02313(17) 0.4282(3) 0.3438(2)
H18 H -0.0327 0.4483 0.3943
C26 C -0.06060(18) 0.3649(3) 0.2977(2)
H19 H -0.0965 0.3418 0.3161
C27 C -0.0456(2) 0.3350(3) 0.2242(3)
H20 H -0.0708 0.2900 0.1930
C28 C 0.0059(2) 0.3704(3) 0.1962(3)
H21 H 0.0154 0.3504 0.1456
C29 C 0.04394(18) 0.4349(3) 0.2416(2)
H22 H 0.0792 0.4595 0.2225
Cl2 Cl 0.0805(3) 0.1677(6) 0.2831(5)
N3 N 0.35796(13) 0.2605(2) 0.59478(18)
O7 O 0.45101(12) 0.15868(19) 0.58641(16)
C30 C 0.37116(16) 0.3473(3) 0.5535(2)
C31 C 0.4495(4) 0.6530(5) 0.5865(4)
H23 H 0.4896 0.6384 0.6154
H24 H 0.4544 0.7077 0.5496
C32 C 0.4083(3) 0.6849(4) 0.6450(4)
H25 H 0.3685 0.7020 0.6161
H26 H 0.4249 0.7444 0.6728
Br1 Br 0.39730(6) 0.57917(18) 0.72648(15)
Cl3 Cl 0.42489(4) 0.34223(6) 0.49120(5)
S2 S 0.41466(4) 0.19156(6) 0.64403(6)
N4 N 0.36292(13) 0.5730(2) 0.50428(18)
O8 O 0.38482(11) 0.12302(18) 0.68912(16)
C33 C 0.33121(15) 0.4212(2) 0.5651(2)
C34 C 0.31866(15) 0.5203(3) 0.5364(2)
O9 O 0.17403(12) 0.5570(2) 0.60931(18)
C35 C 0.26213(15) 0.5614(3) 0.5421(2)
O10 O 0.12750(11) 0.83943(19) 0.45803(17)
C36 C 0.21963(16) 0.5153(3) 0.5926(2)
O11 O 0.20221(12) 0.90721(19) 0.36761(16)
C37 C 0.23463(15) 0.4175(3) 0.6250(2)
O12 O 0.38931(12) 0.6921(2) 0.42217(17)
C38 C 0.28873(15) 0.3770(3) 0.6109(2)
C39 C 0.30513(15) 0.2817(3) 0.6308(2)
C40 C 0.26845(17) 0.2235(3) 0.6712(2)
H27 H 0.2793 0.1583 0.6861
C41 C 0.21454(16) 0.2652(3) 0.6888(2)
H28 H 0.1889 0.2275 0.7176
C42 C 0.19697(16) 0.3602(3) 0.6659(2)
H29 H 0.1596 0.3856 0.6780
C43 C 0.34959(17) 0.6545(3) 0.4558(2)
C44 C 0.28873(16) 0.6934(3) 0.4529(2)
C45 C 0.27466(16) 0.7780(3) 0.4073(2)
H30 H 0.3031 0.8032 0.3753
C46 C 0.22050(16) 0.8246(3) 0.4084(2)
C47 C 0.17926(15) 0.7866(3) 0.4577(2)
C48 C 0.19182(16) 0.7026(3) 0.5007(2)
H31 H 0.1626 0.6771 0.5313
C49 C 0.24737(15) 0.6529(3) 0.5003(2)
C50 C 0.42698(16) 0.5631(3) 0.5383(2)
H32 H 0.4520 0.5533 0.4947
H33 H 0.4315 0.5046 0.5729
C51 C 0.24217(19) 0.9476(3) 0.3167(2)
H34 H 0.2236 1.0055 0.2898
H35 H 0.2503 0.8988 0.2771
H36 H 0.2800 0.9664 0.3482
C52 C 0.08822(17) 0.8106(3) 0.5144(3)
H37 H 0.0713 0.7459 0.5001
H38 H 0.0555 0.8583 0.5142
H39 H 0.1109 0.8077 0.5675
C53 C 0.45444(16) 0.2770(3) 0.7075(2)
C54 C 0.43184(17) 0.3025(3) 0.7775(2)
H40 H 0.3964 0.2728 0.7918
C55 C 0.46248(18) 0.3725(3) 0.8255(2)
H41 H 0.4484 0.3901 0.8741
C56 C 0.51339(19) 0.4172(3) 0.8036(3)
H42 H 0.5336 0.4658 0.8368
C57 C 0.53499(18) 0.3914(3) 0.7336(3)
H43 H 0.5700 0.4224 0.7191
C58 C 0.50616(17) 0.3210(3) 0.6846(3)
H44 H 0.5210 0.3028 0.6366
C59? C 0.0672(8) 0.0718(13) 0.4097(10)
H45? H 0.0789 0.0101 0.4380
H46? H 0.0238 0.0666 0.3900
C60? C 0.1015(7) 0.0774(12) 0.3380(10)
H47? H 0.0950 0.0162 0.3069
H48? H 0.1451 0.0832 0.3561
C61? C 0.4450(12) 0.6465(15) 0.5981(12)
H49? H 0.4854 0.6312 0.6257
H50? H 0.4488 0.7073 0.5674
C62? C 0.4044(10) 0.6677(13) 0.6600(11)
H51? H 0.3624 0.6739 0.6345
H52? H 0.4162 0.7305 0.6864
Cl4? Cl 0.4084(6) 0.5813(14) 0.7253(11)
Br2? Br 0.06680(5) 0.18003(10) 0.27638(8)
loop_
_geom_bond_atom_site_label_1
_geom_bond_atom_site_label_2
_geom_bond_site_symmetry_1
_geom_bond_site_symmetry_2
O1 S1 1_555 1_555
C1 H1 1_555 1_555
H2 C1 1_555 1_555
C2 C1 1_555 1_555
H3 C2 1_555 1_555
H4 C2 1_555 1_555
N1 S1 1_555 1_555
Cl1 C3 1_555 1_555
S1 O2 1_555 1_555
C3 N1 1_555 1_555
N2 C5 1_555 1_555
C4 C3 1_555 1_555
O3 C14 1_555 1_555
C5 C4 1_555 1_555
O4 C17 1_555 1_555
C6 C5 1_555 1_555
O5 C18 1_555 1_555
C7 C6 1_555 1_555
O6 C7 1_555 1_555
C8 C7 1_555 1_555
C9 C4 1_555 1_555
C10 N1 1_555 1_555
C11 C10 1_555 1_555
H5 C11 1_555 1_555
C12 C11 1_555 1_555
H6 C12 1_555 1_555
C13 C8 1_555 1_555
H7 C13 1_555 1_555
C14 N2 1_555 1_555
C15 C14 1_555 1_555
C16 C15 1_555 1_555
H8 C16 1_555 1_555
C17 C16 1_555 1_555
C18 C17 1_555 1_555
C19 C18 1_555 1_555
H9 C19 1_555 1_555
C20 C6 1_555 1_555
C21 C1 1_555 1_555
H10 C21 1_555 1_555
H11 C21 1_555 1_555
C22 O4 1_555 1_555
H12 C22 1_555 1_555
H13 C22 1_555 1_555
H14 C22 1_555 1_555
C23 O5 1_555 1_555
H15 C23 1_555 1_555
H16 C23 1_555 1_555
H17 C23 1_555 1_555
C24 S1 1_555 1_555
C25 C24 1_555 1_555
H18 C25 1_555 1_555
C26 C25 1_555 1_555
H19 C26 1_555 1_555
C27 C26 1_555 1_555
H20 C27 1_555 1_555
C28 C27 1_555 1_555
H21 C28 1_555 1_555
C29 C24 1_555 1_555
H22 C29 1_555 1_555
Cl2 C2 1_555 1_555
N3 C30 1_555 1_555
O7 S2 1_555 1_555
C30 Cl3 1_555 1_555
C31 H23 1_555 1_555
H24 C31 1_555 1_555
C32 C31 1_555 1_555
H25 C32 1_555 1_555
H26 C32 1_555 1_555
Br1 C32 1_555 1_555
S2 N3 1_555 1_555
N4 C34 1_555 1_555
O8 S2 1_555 1_555
C33 C30 1_555 1_555
C34 C33 1_555 1_555
O9 C36 1_555 1_555
C35 C34 1_555 1_555
O10 C47 1_555 1_555
C36 C35 1_555 1_555
O11 C46 1_555 1_555
C37 C36 1_555 1_555
O12 C43 1_555 1_555
C38 C33 1_555 1_555
C39 N3 1_555 1_555
C40 C39 1_555 1_555
H27 C40 1_555 1_555
C41 C40 1_555 1_555
H28 C41 1_555 1_555
C42 C37 1_555 1_555
H29 C42 1_555 1_555
C43 N4 1_555 1_555
C44 C43 1_555 1_555
C45 C44 1_555 1_555
H30 C45 1_555 1_555
C46 C45 1_555 1_555
C47 C46 1_555 1_555
C48 C47 1_555 1_555
H31 C48 1_555 1_555
C49 C35 1_555 1_555
C50 C31 1_555 1_555
H32 C50 1_555 1_555
H33 C50 1_555 1_555
C51 O11 1_555 1_555
H34 C51 1_555 1_555
H35 C51 1_555 1_555
H36 C51 1_555 1_555
C52 O10 1_555 1_555
H37 C52 1_555 1_555
H38 C52 1_555 1_555
H39 C52 1_555 1_555
C53 S2 1_555 1_555
C54 C53 1_555 1_555
H40 C54 1_555 1_555
C55 C54 1_555 1_555
H41 C55 1_555 1_555
C56 C55 1_555 1_555
H42 C56 1_555 1_555
C57 C56 1_555 1_555
H43 C57 1_555 1_555
C58 C53 1_555 1_555
H44 C58 1_555 1_555
N2 C21 1_555 1_555
C8 C9 1_555 1_555
C9 C10 1_555 1_555
C12 C13 1_555 1_555
C15 C20 1_555 1_555
C19 C20 1_555 1_555
C28 C29 1_555 1_555
N4 C50 1_555 1_555
C37 C38 1_555 1_555
C38 C39 1_555 1_555
C41 C42 1_555 1_555
C44 C49 1_555 1_555
C48 C49 1_555 1_555
C57 C58 1_555 1_555

#END
