
#######################################################################
#
#                 Cambridge Crystallographic Data Centre
#                                CCDC 
#
#######################################################################
#
# If this CIF has been generated from an entry in the Cambridge 
# Structural Database, then it will include bibliographic, chemical, 
# crystal, experimental, refinement or atomic coordinate data resulting 
# from the CCDC's data processing and validation procedures.
#
#######################################################################

data_UBIDUE
_chemical_formula_moiety         'C23 H28 O7'
_chemical_name_systematic        
4,5,15-Trimethoxy-9,10-bis(methoxymethyl)-17-oxatetracyclo[7.7.1.0^1,12^.0^2,7^]heptadeca-2,4,6,12,15-pentaen-14-one
_symmetry_cell_setting           monoclinic
_symmetry_space_group_name_H-M   'P 21'
_symmetry_Int_Tables_number      4
_space_group_name_Hall           'P 2yb'
loop_
_symmetry_equiv_pos_site_id
_symmetry_equiv_pos_as_xyz
1 x,y,z
2 -x,1/2+y,-z
_cell_length_a                   12.2366(2)
_cell_length_b                   7.20080(10)
_cell_length_c                   24.6927(4)
_cell_angle_alpha                90
_cell_angle_beta                 103.1037(11)
_cell_angle_gamma                90
_cell_volume                     2119.1
_exptl_crystal_colour            colorless
_chemical_melting_point          148deg.C
_cell_formula_units_Z            4
_exptl_crystal_recrystallization_method methanol/water
loop_
_atom_site_label
_atom_site_type_symbol
_atom_site_fract_x
_atom_site_fract_y
_atom_site_fract_z
O1 O 0.58023(13) 0.5117(2) 0.70425(5)
O2 O 0.65830(14) 0.1681(2) 0.72446(6)
O3 O 1.14392(14) 0.5868(3) 0.58716(7)
C1 C 0.5390(2) 0.6963(4) 0.69220(9)
H1 H 0.4888 0.7271 0.7156
H2 H 0.4997 0.7040 0.6539
H3 H 0.6008 0.7818 0.6990
O4 O 1.07314(14) 0.0891(2) 0.66524(6)
C3 C 0.65275(17) 0.4485(3) 0.67396(8)
C4 C 1.05312(19) 0.6464(4) 0.61017(9)
H7 H 1.0339 0.7744 0.5999
H8 H 1.0736 0.6380 0.6504
C6 C 0.6197(2) 0.6402(4) 0.33779(9)
H12 H 0.5698 0.6549 0.3020
H13 H 0.6778 0.5534 0.3350
H14 H 0.6528 0.7580 0.3503
C7 C 1.1237(2) 0.0491(4) 0.72142(9)
H15 H 1.1388 -0.0816 0.7255
H16 H 1.0739 0.0849 0.7445
H17 H 1.1927 0.1169 0.7323
C8 C 1.2487(2) 0.6473(4) 0.61829(12)
H18 H 1.3070 0.6031 0.6012
H19 H 1.2606 0.5994 0.6555
H20 H 1.2501 0.7805 0.6194
C30 C 0.61628(19) 0.5438(3) 0.42974(7)
C31 C 0.59997(17) 0.4631(3) 0.52195(8)
H43 H 0.5564 0.4279 0.5466
C32 C 0.73094(18) 0.5651(3) 0.44899(8)
H44 H 0.7749 0.5987 0.4244
O12 O 0.87184(11) 0.5732(2) 0.61775(5)
C33 C 0.69362(18) 0.5475(3) 0.63751(7)
H45 H 0.6749 0.6726 0.6330
C34 C 0.78133(18) 0.5364(3) 0.50534(8)
C35 C 0.68656(18) 0.2524(4) 0.68665(8)
C36 C 0.75867(18) 0.1703(3) 0.65389(8)
H46 H 0.7784 0.0460 0.6598
C37 C 1.05062(19) 0.2810(3) 0.65815(8)
H47 H 1.1203 0.3505 0.6658
H48 H 1.0060 0.3224 0.6837
C38 C 0.95383(18) 0.5192(3) 0.58690(8)
O13 O 0.43809(12) 0.4687(2) 0.44347(5)
O14 O 0.55869(13) 0.5724(3) 0.37646(5)
C39 C 0.71551(17) 0.4901(3) 0.54169(7)
C40 C 0.79814(16) 0.2641(3) 0.61576(7)
C41 C 0.90729(17) 0.5602(3) 0.52493(8)
H49 H 0.9266 0.6867 0.5174
H50 H 0.9439 0.4785 0.5033
C42 C 0.36557(18) 0.4550(3) 0.48107(9)
H51 H 0.2894 0.4420 0.4604
H52 H 0.3723 0.5652 0.5035
H53 H 0.3861 0.3487 0.5046
C43 C 0.98666(17) 0.3141(3) 0.59819(8)
H54 H 1.0352 0.2778 0.5734
C44 C 0.76867(17) 0.4655(3) 0.60350(8)
C45 C 0.55006(18) 0.4881(3) 0.46672(8)
C46 C 0.88090(17) 0.1903(3) 0.58508(8)
H55 H 0.8484 0.1910 0.5454
H56 H 0.9006 0.0635 0.5964
C2 C 0.6346(2) 0.7423(4) -0.15774(8)
H4 H 0.5872 0.7600 -0.1941
H5 H 0.6958 0.6620 -0.1603
H6 H 0.6635 0.8602 -0.1428
C5 C 1.1225(2) 0.1073(4) 0.22706(9)
H9 H 1.1363 -0.0238 0.2307
H10 H 1.0722 0.1433 0.2499
H11 H 1.1920 0.1732 0.2387
O5 O 0.57100(12) 0.5841(2) 0.20094(5)
C9 C 0.60424(17) 0.5339(3) 0.02213(7)
H21 H 0.5591 0.4970 0.0458
C10 C 0.74011(17) 0.6411(3) -0.04774(8)
H22 H 0.7856 0.6771 -0.0713
O6 O 0.87321(11) 0.63819(19) 0.12116(5)
C11 C 0.62606(18) 0.6233(3) -0.06871(7)
O7 O 0.44538(12) 0.5479(2) -0.05785(5)
O8 O 0.57119(12) 0.6604(2) -0.12205(5)
C12 C 0.67573(17) 0.3202(3) 0.18444(8)
C13 C 0.55708(17) 0.5642(3) -0.03334(8)
C14 C 0.95713(17) 0.5832(3) 0.09169(8)
O9 O 1.07343(14) 0.1508(2) 0.17048(6)
C15 C 0.72007(17) 0.5584(3) 0.04321(7)
C16 C 0.69286(16) 0.6174(3) 0.13802(7)
H23 H 0.6775 0.7438 0.1341
O10 O 0.64243(13) 0.2359(2) 0.22080(6)
C17 C 0.79681(16) 0.3312(3) 0.11781(7)
C18 C 0.64522(17) 0.5197(3) 0.17240(7)
C19 C 0.75134(17) 0.2369(3) 0.15367(7)
H24 H 0.7689 0.1117 0.1593
C20 C 0.78881(17) 0.6059(3) 0.00837(7)
C21 C 0.37080(17) 0.5280(3) -0.02131(8)
H25 H 0.2950 0.5195 -0.0428
H26 H 0.3778 0.6338 0.0029
H27 H 0.3894 0.4173 0.0005
C22 C 0.98815(17) 0.3763(3) 0.10317(8)
H28 H 1.0375 0.3391 0.0789
C23 C 0.5405(2) 0.7752(3) 0.19315(9)
H29 H 0.4881 0.8059 0.2154
H30 H 0.5066 0.7972 0.1547
H31 H 0.6063 0.8511 0.2042
C24 C 0.91411(17) 0.6245(3) 0.02958(8)
H32 H 0.9358 0.7500 0.0224
H33 H 0.9509 0.5407 0.0086
C25 C 0.76986(16) 0.5336(3) 0.10546(7)
C26 C 1.05044(17) 0.3429(3) 0.16314(8)
H34 H 1.1200 0.4128 0.1713
H35 H 1.0049 0.3838 0.1883
C27 C 0.88211(17) 0.2548(3) 0.08904(8)
H36 H 0.8520 0.2540 0.0492
H37 H 0.9005 0.1281 0.1011
O11 O 1.14781(12) 0.6518(2) 0.09386(6)
C28 C 1.05617(17) 0.7081(3) 0.11604(8)
H38 H 1.0373 0.8366 0.1064
H39 H 1.0754 0.6973 0.1562
C29 C 1.25003(19) 0.7321(4) 0.12329(10)
H40 H 1.3104 0.6907 0.1073
H41 H 1.2643 0.6950 0.1616
H42 H 1.2446 0.8650 0.1209
loop_
_geom_bond_atom_site_label_1
_geom_bond_atom_site_label_2
_geom_bond_site_symmetry_1
_geom_bond_site_symmetry_2
O1 C1 1_555 1_555
O2 C35 1_555 1_555
O3 C4 1_555 1_555
C1 H1 1_555 1_555
H2 C1 1_555 1_555
H3 C1 1_555 1_555
O4 C7 1_555 1_555
C2 H4 1_555 1_555
H5 C2 1_555 1_555
H6 C2 1_555 1_555
C3 O1 1_555 1_555
C4 H7 1_555 1_555
H8 C4 1_555 1_555
C5 H9 1_555 1_555
H10 C5 1_555 1_555
H11 C5 1_555 1_555
C6 H12 1_555 1_555
H13 C6 1_555 1_555
H14 C6 1_555 1_555
C7 H15 1_555 1_555
H16 C7 1_555 1_555
H17 C7 1_555 1_555
C8 O3 1_555 1_555
H18 C8 1_555 1_555
H19 C8 1_555 1_555
H20 C8 1_555 1_555
O5 C18 1_555 1_555
C9 H21 1_555 1_555
C10 H22 1_555 1_555
O6 C14 1_555 1_555
C11 C10 1_555 1_555
O7 C13 1_555 1_555
O8 C2 1_555 1_555
C12 O10 1_555 1_555
C13 C9 1_555 1_555
C14 C22 1_555 1_555
O9 C5 1_555 1_555
C15 C9 1_555 1_555
C16 H23 1_555 1_555
C17 C19 1_555 1_555
C18 C12 1_555 1_555
C19 C12 1_555 1_555
H24 C19 1_555 1_555
C20 C10 1_555 1_555
C21 O7 1_555 1_555
H25 C21 1_555 1_555
H26 C21 1_555 1_555
H27 C21 1_555 1_555
C22 H28 1_555 1_555
C23 O5 1_555 1_555
H29 C23 1_555 1_555
H30 C23 1_555 1_555
H31 C23 1_555 1_555
C24 C14 1_555 1_555
H32 C24 1_555 1_555
H33 C24 1_555 1_555
C25 O6 1_555 1_555
C26 O9 1_555 1_555
H34 C26 1_555 1_555
H35 C26 1_555 1_555
C27 C17 1_555 1_555
H36 C27 1_555 1_555
H37 C27 1_555 1_555
O11 C28 1_555 1_555
C28 C14 1_555 1_555
H38 C28 1_555 1_555
H39 C28 1_555 1_555
C29 O11 1_555 1_555
H40 C29 1_555 1_555
H41 C29 1_555 1_555
H42 C29 1_555 1_555
C30 C32 1_555 1_555
C31 H43 1_555 1_555
C32 H44 1_555 1_555
O12 C38 1_555 1_555
C33 C3 1_555 1_555
H45 C33 1_555 1_555
C34 C32 1_555 1_555
C35 C3 1_555 1_555
C36 C35 1_555 1_555
H46 C36 1_555 1_555
C37 O4 1_555 1_555
H47 C37 1_555 1_555
H48 C37 1_555 1_555
C38 C4 1_555 1_555
O13 C42 1_555 1_555
O14 C6 1_555 1_555
C39 C31 1_555 1_555
C40 C36 1_555 1_555
C41 C34 1_555 1_555
H49 C41 1_555 1_555
H50 C41 1_555 1_555
C42 H51 1_555 1_555
H52 C42 1_555 1_555
H53 C42 1_555 1_555
C43 C37 1_555 1_555
H54 C43 1_555 1_555
C44 O12 1_555 1_555
C45 C30 1_555 1_555
C46 C40 1_555 1_555
H55 C46 1_555 1_555
H56 C46 1_555 1_555
C11 O8 1_555 1_555
C11 C13 1_555 1_555
C15 C20 1_555 1_555
C15 C25 1_555 1_555
C16 C18 1_555 1_555
C16 C25 1_555 1_555
C17 C25 1_555 1_555
C20 C24 1_555 1_555
C22 C26 1_555 1_555
C22 C27 1_555 1_555
C30 O14 1_555 1_555
C31 C45 1_555 1_555
C33 C44 1_555 1_555
C34 C39 1_555 1_555
C38 C41 1_555 1_555
C38 C43 1_555 1_555
O13 C45 1_555 1_555
C39 C44 1_555 1_555
C40 C44 1_555 1_555
C43 C46 1_555 1_555

#END
