
#######################################################################
#
#                 Cambridge Crystallographic Data Centre
#                                CCDC 
#
#######################################################################
#
# If this CIF has been generated from an entry in the Cambridge 
# Structural Database, then it will include bibliographic, chemical, 
# crystal, experimental, refinement or atomic coordinate data resulting 
# from the CCDC's data processing and validation procedures.
#
#######################################################################

data_UBIHES
_chemical_formula_moiety         'C34 H48 O14,C12 H14 N2 2+,2(F6 P1 1-)'
_chemical_name_systematic        
"1,4,7,10,13,20,23,26,29,32-Decaoxa-15,18-bis(ethoxycarbonyl)[13.13]paracyclophane N,N'-dimethyl-4,4-bipyridinium clathrate bis(hexafluorophosphate)"
_symmetry_cell_setting           monoclinic
_symmetry_space_group_name_H-M   'P 21/c'
_symmetry_Int_Tables_number      14
_space_group_name_Hall           '-P 2ybc'
loop_
_symmetry_equiv_pos_site_id
_symmetry_equiv_pos_as_xyz
1 x,y,z
2 x,1/2-y,1/2+z
3 -x,-y,-z
4 -x,1/2+y,1/2-z
_cell_length_a                   14.3590(5)
_cell_length_b                   32.866(2)
_cell_length_c                   11.7782(5)
_cell_angle_alpha                90
_cell_angle_beta                 104.930(4)
_cell_angle_gamma                90
_cell_volume                     5370.76
_exptl_crystal_colour            red
_exptl_crystal_description       blocks
_cell_formula_units_Z            4
loop_
_atom_site_label
_atom_site_type_symbol
_atom_site_fract_x
_atom_site_fract_y
_atom_site_fract_z
O1 O 0.2950(3) 0.89490(12) 0.0230(4)
C1 C 0.3684(4) 0.9207(2) 0.0279(6)
H1 H 0.3871(4) 0.9334(2) 0.1056(6)
H2 H 0.3477(4) 0.9422(2) -0.0308(6)
C2 C 0.4533(3) 0.8985(2) 0.0049(4)
H3 H 0.4358(3) 0.8868(2) -0.0743(4)
H4 H 0.5068(3) 0.9175(2) 0.0101(4)
O2 O 0.4818(2) 0.86729(11) 0.0888(3)
C3 C 0.5693(3) 0.8487(2) 0.0862(4)
H5 H 0.6230(3) 0.8673(2) 0.1179(4)
H6 H 0.5690(3) 0.8421(2) 0.0049(4)
C4 C 0.5818(3) 0.81054(14) 0.1582(4)
H7 H 0.5261(3) 0.79265(14) 0.1292(4)
H8 H 0.6396(3) 0.79606(14) 0.1508(4)
O3 O 0.5905(2) 0.82025(8) 0.2774(3)
C5 C 0.5946(4) 0.78452(13) 0.3460(4)
H9 H 0.6459(4) 0.76665(13) 0.3341(4)
H10 H 0.5334(4) 0.76982(13) 0.3213(4)
C6 C 0.6139(3) 0.79543(15) 0.4732(4)
H11 H 0.6285(3) 0.77074(15) 0.5212(4)
H12 H 0.6699(3) 0.81353(15) 0.4951(4)
O4 O 0.5321(2) 0.81513(9) 0.4955(3)
C7 C 0.5426(3) 0.82060(13) 0.6175(4)
H13 H 0.5993(3) 0.83749(13) 0.6509(4)
H14 H 0.5520(3) 0.79417(13) 0.6574(4)
C8 C 0.4544(3) 0.84069(12) 0.6360(4)
H15 H 0.4661(3) 0.84996(12) 0.7175(4)
H16 H 0.4375(3) 0.86437(12) 0.5842(4)
O5 O 0.3772(2) 0.81154(8) 0.6100(3)
C9 C 0.2897(3) 0.82402(11) 0.6239(3)
C10 C 0.2184(3) 0.79420(11) 0.6101(3)
C11 C 0.1298(3) 0.80367(12) 0.6293(4)
H17 H 0.0832(3) 0.78314(12) 0.6239(4)
C12 C 0.1089(3) 0.84318(13) 0.6563(4)
C13 C 0.1792(3) 0.87329(12) 0.6664(4)
C14 C 0.2688(3) 0.86329(12) 0.6504(4)
H18 H 0.3161(3) 0.88361(12) 0.6576(4)
O6 O 0.0227(2) 0.85574(10) 0.6721(4)
C15 C -0.0524(3) 0.82720(14) 0.6626(5)
H19 H -0.0337(3) 0.80630(14) 0.7236(5)
H20 H -0.0672(3) 0.81389(14) 0.5856(5)
C16 C -0.1377(3) 0.8502(2) 0.6775(4)
H21 H -0.1915(3) 0.8314(2) 0.6732(4)
H22 H -0.1221(3) 0.8633(2) 0.7549(4)
O7 O -0.1648(2) 0.88015(11) 0.5886(3)
C17 C -0.2455(4) 0.9028(2) 0.5977(5)
H23 H -0.2398(4) 0.9096(2) 0.6803(5)
H24 H -0.3041(4) 0.8866(2) 0.5690(5)
C18 C -0.2525(3) 0.94086(14) 0.5276(5)
H25 H -0.3054(3) 0.95763(14) 0.5401(5)
H26 H -0.1926(3) 0.95641(14) 0.5542(5)
O8 O -0.2687(2) 0.93200(8) 0.4071(3)
C19 C -0.2782(4) 0.96853(13) 0.3418(5)
H27 H -0.2188(4) 0.98448(13) 0.3674(5)
H28 H -0.3312(4) 0.98468(13) 0.3566(5)
C20 C -0.2973(3) 0.9599(2) 0.2144(5)
H29 H -0.3522(3) 0.9413(2) 0.1905(5)
H30 H -0.3138(3) 0.9852(2) 0.1699(5)
O9 O -0.2149(2) 0.94214(10) 0.1889(3)
C21 C -0.2215(4) 0.9410(2) 0.0662(4)
H31 H -0.2260(4) 0.9687(2) 0.0349(4)
H32 H -0.2797(4) 0.9261(2) 0.0253(4)
C22 C -0.1347(4) 0.9204(2) 0.0462(4)
H33 H -0.1246(4) 0.8943(2) 0.0875(4)
H34 H -0.1435(4) 0.9153(2) -0.0379(4)
O10 O -0.0531(2) 0.94640(9) 0.0894(3)
C23 C 0.0340(3) 0.93281(13) 0.0747(4)
C24 C 0.1097(4) 0.96009(15) 0.1034(4)
H35 H 0.1006(4) 0.98608(15) 0.1322(4)
C25 C 0.1992(4) 0.9488(2) 0.0895(5)
H36 H 0.2513(4) 0.9671(2) 0.1085(5)
C26 C 0.2110(4) 0.9100(2) 0.0468(5)
C27 C 0.1364(4) 0.8833(2) 0.0208(5)
H37 H 0.1453(4) 0.8572(2) -0.0073(5)
C28 C 0.0485(4) 0.89436(14) 0.0354(4)
H38 H -0.0026(4) 0.87559(14) 0.0184(4)
C29 C 0.2361(3) 0.75151(12) 0.5789(4)
O11 O 0.2249(3) 0.72248(10) 0.6344(3)
O12 O 0.2611(3) 0.74967(9) 0.4792(3)
C30 C 0.2968(4) 0.71128(14) 0.4446(5)
H39 H 0.2456(4) 0.69723(14) 0.3867(5)
H40 H 0.3189(4) 0.69353(14) 0.5131(5)
C31 C 0.3781(4) 0.7213(2) 0.3931(5)
H41 H 0.4039(4) 0.6965(2) 0.3689(5)
H42 H 0.4281(4) 0.7352(2) 0.4512(5)
H43 H 0.3552(4) 0.7389(2) 0.3254(5)
C32 C 0.1600(3) 0.91666(13) 0.6836(4)
O13 O 0.1815(4) 0.94310(11) 0.6237(4)
O14 O 0.1161(3) 0.92403(9) 0.7641(3)
C33 C 0.0863(4) 0.96515(14) 0.7796(5)
H44 H 0.1433(4) 0.98278(14) 0.7997(5)
H45 H 0.0559(4) 0.96589(14) 0.8451(5)
C34 C 0.0181(12) 0.9809(6) 0.6731(17)
H48 H 0.0000(12) 1.0086(6) 0.6871(17)
H49 H -0.0390(12) 0.9639(6) 0.6537(17)
H50 H 0.0483(12) 0.9808(6) 0.6083(17)
N1 N 0.4079(2) 0.89970(10) 0.3529(3)
C36 C 0.3694(3) 0.86512(13) 0.3039(4)
H54 H 0.4066(3) 0.84721(13) 0.2713(4)
C37 C 0.2757(3) 0.85538(13) 0.3006(4)
H55 H 0.2488(3) 0.83107(13) 0.2645(4)
C38 C 0.2203(3) 0.88122(12) 0.3503(3)
C39 C 0.2636(3) 0.91707(12) 0.4003(4)
H56 H 0.2286(3) 0.93554(12) 0.4341(4)
C40 C 0.3568(3) 0.92565(12) 0.4005(4)
H57 H 0.3853(3) 0.95001(12) 0.4344(4)
C41 C 0.1188(3) 0.87101(12) 0.3467(3)
C42 C 0.0831(3) 0.83228(13) 0.3241(4)
H58 H 0.1237(3) 0.81121(13) 0.3118(4)
C43 C -0.0119(3) 0.82416(13) 0.3192(4)
H59 H -0.0353(3) 0.79748(13) 0.3036(4)
N2 N -0.0713(2) 0.85325(10) 0.3361(3)
C44 C -0.0389(3) 0.89086(14) 0.3612(5)
H60 H -0.0808(3) 0.91105(14) 0.3755(5)
C45 C 0.0552(3) 0.90071(14) 0.3666(4)
H61 H 0.0769(3) 0.92756(14) 0.3838(4)
C46 C 0.5102(3) 0.90901(14) 0.3578(4)
H62 H 0.5401(3) 0.92237(14) 0.4317(4)
H63 H 0.5129(3) 0.92681(14) 0.2931(4)
H64 H 0.5442(3) 0.88393(14) 0.3520(4)
C47 C -0.1756(3) 0.84408(15) 0.3241(4)
H65 H -0.1840(3) 0.81497(15) 0.3308(4)
H66 H -0.2135(3) 0.85337(15) 0.2480(4)
H67 H -0.1968(3) 0.85796(15) 0.3857(4)
P1 P 0.45432(9) 1.04052(4) 0.26190(12)
F1 F 0.3485(3) 1.02497(14) 0.2543(4)
F2 F 0.4419(5) 1.0746(2) 0.3564(6)
F3 F 0.4159(7) 1.0694(4) 0.1599(7)
F4 F 0.4783(5) 1.0045(2) 0.1889(7)
F5 F 0.5013(5) 1.0121(2) 0.3780(6)
F6 F 0.5595(2) 1.05648(11) 0.2703(4)
P2 P 0.85735(12) 0.71706(4) 0.49010(15)
F11 F 0.8655(12) 0.7533(4) 0.4168(12)
F12 F 0.9209(9) 0.6903(3) 0.4264(8)
F13 F 0.7523(6) 0.7049(2) 0.4196(11)
F14 F 0.8083(6) 0.7422(3) 0.5741(9)
F15 F 0.9573(6) 0.7295(3) 0.5850(9)
F16 F 0.8578(6) 0.6776(2) 0.5739(6)
H46? H 0.1298(4) 0.98420(14) 0.7587(5)
H47? H 0.0865(4) 0.96956(14) 0.8602(5)
C35? C -0.0111(11) 0.9729(6) 0.7010(15)
H51? H -0.0304(11) 1.0006(6) 0.7120(15)
H52? H -0.0569(11) 0.9541(6) 0.7198(15)
H53? H -0.0095(11) 0.9691(6) 0.6199(15)
F7? F 0.4127(14) 1.0831(5) 0.1991(14)
F8? F 0.4361(8) 1.0246(4) 0.1226(9)
F9? F 0.4796(8) 0.9993(4) 0.2979(12)
F10? F 0.4575(10) 1.0596(4) 0.3762(13)
F17? F 0.9208(18) 0.7447(8) 0.4341(22)
F18? F 0.8836(12) 0.6773(5) 0.4444(17)
F19? F 0.7858(11) 0.7157(5) 0.3684(13)
F20? F 0.8135(9) 0.7595(4) 0.4990(12)
F21? F 0.9421(19) 0.7182(7) 0.5949(24)
F22? F 0.8048(14) 0.6969(6) 0.5622(16)
loop_
_geom_bond_atom_site_label_1
_geom_bond_atom_site_label_2
_geom_bond_site_symmetry_1
_geom_bond_site_symmetry_2
O1 C1 1_555 1_555
C1 H1 1_555 1_555
H2 C1 1_555 1_555
C2 C1 1_555 1_555
H3 C2 1_555 1_555
H4 C2 1_555 1_555
O2 C2 1_555 1_555
C3 O2 1_555 1_555
H5 C3 1_555 1_555
H6 C3 1_555 1_555
C4 C3 1_555 1_555
H7 C4 1_555 1_555
H8 C4 1_555 1_555
O3 C4 1_555 1_555
C5 O3 1_555 1_555
H9 C5 1_555 1_555
H10 C5 1_555 1_555
C6 C5 1_555 1_555
H11 C6 1_555 1_555
H12 C6 1_555 1_555
O4 C6 1_555 1_555
C7 O4 1_555 1_555
H13 C7 1_555 1_555
H14 C7 1_555 1_555
C8 C7 1_555 1_555
H15 C8 1_555 1_555
H16 C8 1_555 1_555
O5 C8 1_555 1_555
C9 O5 1_555 1_555
C10 C9 1_555 1_555
C11 C10 1_555 1_555
H17 C11 1_555 1_555
C12 C11 1_555 1_555
C13 C12 1_555 1_555
C14 C9 1_555 1_555
H18 C14 1_555 1_555
O6 C12 1_555 1_555
C15 O6 1_555 1_555
H19 C15 1_555 1_555
H20 C15 1_555 1_555
C16 C15 1_555 1_555
H21 C16 1_555 1_555
H22 C16 1_555 1_555
O7 C16 1_555 1_555
C17 O7 1_555 1_555
H23 C17 1_555 1_555
H24 C17 1_555 1_555
C18 C17 1_555 1_555
H25 C18 1_555 1_555
H26 C18 1_555 1_555
O8 C18 1_555 1_555
C19 O8 1_555 1_555
H27 C19 1_555 1_555
H28 C19 1_555 1_555
C20 C19 1_555 1_555
H29 C20 1_555 1_555
H30 C20 1_555 1_555
O9 C20 1_555 1_555
C21 O9 1_555 1_555
H31 C21 1_555 1_555
H32 C21 1_555 1_555
C22 C21 1_555 1_555
H33 C22 1_555 1_555
H34 C22 1_555 1_555
O10 C22 1_555 1_555
C23 O10 1_555 1_555
C24 C23 1_555 1_555
H35 C24 1_555 1_555
C25 C24 1_555 1_555
H36 C25 1_555 1_555
C26 O1 1_555 1_555
C27 C26 1_555 1_555
H37 C27 1_555 1_555
C28 C23 1_555 1_555
H38 C28 1_555 1_555
C29 C10 1_555 1_555
O11 C29 1_555 1_555
O12 C29 1_555 1_555
C30 O12 1_555 1_555
H39 C30 1_555 1_555
H40 C30 1_555 1_555
C31 C30 1_555 1_555
H41 C31 1_555 1_555
H42 C31 1_555 1_555
H43 C31 1_555 1_555
C32 C13 1_555 1_555
O13 C32 1_555 1_555
O14 C32 1_555 1_555
C33 O14 1_555 1_555
H44 C33 1_555 1_555
H45 C33 1_555 1_555
C34 C33 1_555 1_555
H48 C34 1_555 1_555
H49 C34 1_555 1_555
H50 C34 1_555 1_555
N1 C36 1_555 1_555
C36 H54 1_555 1_555
C37 C36 1_555 1_555
H55 C37 1_555 1_555
C38 C37 1_555 1_555
C39 C38 1_555 1_555
H56 C39 1_555 1_555
C40 N1 1_555 1_555
H57 C40 1_555 1_555
C41 C38 1_555 1_555
C42 C41 1_555 1_555
H58 C42 1_555 1_555
C43 C42 1_555 1_555
H59 C43 1_555 1_555
N2 C43 1_555 1_555
C44 N2 1_555 1_555
H60 C44 1_555 1_555
C45 C41 1_555 1_555
H61 C45 1_555 1_555
C46 N1 1_555 1_555
H62 C46 1_555 1_555
H63 C46 1_555 1_555
H64 C46 1_555 1_555
C47 N2 1_555 1_555
H65 C47 1_555 1_555
H66 C47 1_555 1_555
H67 C47 1_555 1_555
P1 F1 1_555 1_555
F2 P1 1_555 1_555
F3 P1 1_555 1_555
F4 P1 1_555 1_555
F5 P1 1_555 1_555
F6 P1 1_555 1_555
P2 F11 1_555 1_555
F12 P2 1_555 1_555
F13 P2 1_555 1_555
F14 P2 1_555 1_555
F15 P2 1_555 1_555
F16 P2 1_555 1_555
C13 C14 1_555 1_555
C25 C26 1_555 1_555
C27 C28 1_555 1_555
C39 C40 1_555 1_555
C44 C45 1_555 1_555

#END
