
#######################################################################
#
#                 Cambridge Crystallographic Data Centre
#                                CCDC 
#
#######################################################################
#
# If this CIF has been generated from an entry in the Cambridge 
# Structural Database, then it will include bibliographic, chemical, 
# crystal, experimental, refinement or atomic coordinate data resulting 
# from the CCDC's data processing and validation procedures.
#
#######################################################################

data_UBIJEW
_chemical_formula_moiety         'C18 H13 Br1 N2 O2'
_chemical_name_systematic        
4-Benzyl-6-(4-bromophenyl)-5-oxo-4,5-dihydropyrazine-2-carbaldehyde
_symmetry_cell_setting           triclinic
_symmetry_space_group_name_H-M   'P -1'
_symmetry_Int_Tables_number      2
_space_group_name_Hall           '-P 1'
loop_
_symmetry_equiv_pos_site_id
_symmetry_equiv_pos_as_xyz
1 x,y,z
2 -x,-y,-z
_cell_length_a                   7.2357(5)
_cell_length_b                   10.8726(7)
_cell_length_c                   11.2396(12)
_cell_angle_alpha                109.721(5)
_cell_angle_beta                 99.846(5)
_cell_angle_gamma                105.641(4)
_cell_volume                     767.341
_exptl_crystal_colour            yellow
_exptl_crystal_description       block
_cell_formula_units_Z            2
loop_
_atom_site_label
_atom_site_type_symbol
_atom_site_fract_x
_atom_site_fract_y
_atom_site_fract_z
Br1 Br -0.52407(6) 1.07525(4) 0.25246(4)
C1 C 0.2641(5) 0.5257(4) 0.4785(3)
H1 H 0.2974 0.6157 0.5462
C2 C 0.1608(5) 0.4093(4) 0.4949(4)
H2 H 0.1255 0.4187 0.5743
C3 C 0.1081(5) 0.2779(4) 0.3949(4)
H3 H 0.0344 0.1973 0.4052
C4 C 0.1625(5) 0.2642(4) 0.2807(3)
H4 H 0.1257 0.1740 0.2125
C5 C 0.2701(5) 0.3802(3) 0.2647(4)
H5 H 0.3097 0.3700 0.1866
C6 C 0.3204(5) 0.5130(3) 0.3641(3)
C7 C 0.4376(5) 0.6393(3) 0.3456(3)
H6 H 0.4853 0.7221 0.4305
H7 H 0.5566 0.6249 0.3195
C8 C 0.3279(5) 0.6201(3) 0.1184(3)
H8 H 0.4182 0.5728 0.0964
C9 C 0.2114(5) 0.6420(3) 0.0240(3)
C10 C 0.2212(5) 0.5921(4) -0.1131(4)
H9 H 0.1414 0.6133 -0.1743
C11 C 0.0635(5) 0.7569(3) 0.1718(3)
C12 C 0.1849(5) 0.7389(3) 0.2809(3)
C13 C -0.0779(5) 0.8324(3) 0.1964(3)
C14 C -0.1566(5) 0.8712(4) 0.0973(4)
H10 H -0.1184 0.8483 0.0181
C15 C -0.2888(6) 0.9421(4) 0.1134(4)
H11 H -0.3403 0.9686 0.0462
C16 C -0.3457(5) 0.9744(3) 0.2287(3)
C17 C -0.2716(5) 0.9378(3) 0.3284(3)
H12 H -0.3104 0.9614 0.4073
C18 C -0.1379(5) 0.8652(4) 0.3109(3)
H13 H -0.0878 0.8381 0.3781
N1 N 0.3143(4) 0.6658(3) 0.2432(3)
N2 N 0.0796(4) 0.7098(3) 0.0517(3)
O1 O 0.1834(4) 0.7810(3) 0.3960(2)
O2 O 0.3247(4) 0.5255(3) -0.1531(3)
loop_
_geom_bond_atom_site_label_1
_geom_bond_atom_site_label_2
_geom_bond_site_symmetry_1
_geom_bond_site_symmetry_2
Br1 C16 1_555 1_555
C1 H1 1_555 1_555
C2 C1 1_555 1_555
H2 C2 1_555 1_555
C3 C2 1_555 1_555
H3 C3 1_555 1_555
C4 C3 1_555 1_555
H4 C4 1_555 1_555
C5 C4 1_555 1_555
H5 C5 1_555 1_555
C6 C1 1_555 1_555
C7 C6 1_555 1_555
H6 C7 1_555 1_555
H7 C7 1_555 1_555
C8 H8 1_555 1_555
C9 C8 1_555 1_555
C10 C9 1_555 1_555
H9 C10 1_555 1_555
C11 C12 1_555 1_555
C12 N1 1_555 1_555
C13 C11 1_555 1_555
C14 C13 1_555 1_555
H10 C14 1_555 1_555
C15 C14 1_555 1_555
H11 C15 1_555 1_555
C16 C15 1_555 1_555
C17 C16 1_555 1_555
H12 C17 1_555 1_555
C18 C13 1_555 1_555
H13 C18 1_555 1_555
N1 C7 1_555 1_555
N2 C9 1_555 1_555
O1 C12 1_555 1_555
O2 C10 1_555 1_555
C5 C6 1_555 1_555
C8 N1 1_555 1_555
C11 N2 1_555 1_555
C17 C18 1_555 1_555

#END
