
#######################################################################
#
#                 Cambridge Crystallographic Data Centre
#                                CCDC 
#
#######################################################################
#
# If this CIF has been generated from an entry in the Cambridge 
# Structural Database, then it will include bibliographic, chemical, 
# crystal, experimental, refinement or atomic coordinate data resulting 
# from the CCDC's data processing and validation procedures.
#
#######################################################################

data_UBIJAS
_chemical_formula_moiety         'C18 H14 N2 O2'
_chemical_name_systematic        
4-Benzyl-5-oxo-6-phenyl-4,5-dihydropyrazine-2-carbaldehyde
_symmetry_cell_setting           monoclinic
_symmetry_space_group_name_H-M   'P 21/c'
_symmetry_Int_Tables_number      14
_space_group_name_Hall           '-P 2ybc'
loop_
_symmetry_equiv_pos_site_id
_symmetry_equiv_pos_as_xyz
1 x,y,z
2 -x,1/2+y,1/2-z
3 -x,-y,-z
4 x,1/2-y,1/2+z
_cell_length_a                   12.7804(8)
_cell_length_b                   6.9192(4)
_cell_length_c                   18.9630(10)
_cell_angle_alpha                90
_cell_angle_beta                 124.709(3)
_cell_angle_gamma                90
_cell_volume                     1378.5
_exptl_crystal_colour            colorless
_exptl_crystal_description       block
_cell_formula_units_Z            4
loop_
_atom_site_label
_atom_site_type_symbol
_atom_site_fract_x
_atom_site_fract_y
_atom_site_fract_z
O1 O 0.45949(5) 0.39477(10) 0.89161(4)
O2 O -0.02568(5) 0.42647(9) 0.89762(3)
N1 N 0.18472(5) 0.43613(9) 0.95004(4)
N2 N 0.12556(5) 0.37884(9) 0.78761(4)
C1 C 0.34610(6) 0.36629(12) 0.83975(4)
H1 H 0.3187 0.3263 0.7838
C2 C 0.24853(6) 0.38898(10) 0.85711(4)
C3 C 0.27888(6) 0.42117(10) 0.93794(4)
H2 H 0.3654 0.4329 0.9851
C4 C 0.05595(6) 0.42109(10) 0.88248(4)
C5 C 0.03212(6) 0.39920(10) 0.79695(4)
C6 C 0.21832(7) 0.46602(11) 1.03819(4)
H3 H 0.1457 0.5267 1.0352
H4 H 0.2920 0.5547 1.0698
C7 C 0.25089(6) 0.27662(10) 1.08583(4)
C8 C 0.37696(6) 0.21356(11) 1.13576(4)
H5 H 0.4424 0.2941 1.1426
C9 C 0.40769(6) 0.03370(12) 1.17558(4)
H6 H 0.4937 -0.0087 1.2091
C10 C 0.31227(7) -0.08399(11) 1.16617(4)
H7 H 0.3329 -0.2077 1.1926
C11 C 0.18649(7) -0.02050(12) 1.11804(4)
H8 H 0.1216 -0.0999 1.1125
C12 C 0.15574(6) 0.15916(12) 1.07801(4)
H9 H 0.0699 0.2022 1.0453
C13 C -0.09866(6) 0.39904(10) 0.71699(4)
C14 C -0.20987(6) 0.39372(11) 0.71498(4)
H10 H -0.2042 0.3913 0.7671
C15 C -0.32872(7) 0.39197(12) 0.63684(5)
H11 H -0.4035 0.3874 0.6363
C16 C -0.33952(7) 0.39678(11) 0.55986(5)
H12 H -0.4210 0.3937 0.5069
C17 C -0.22952(7) 0.40624(11) 0.56109(4)
H13 H -0.2360 0.4126 0.5087
C18 C -0.11074(6) 0.40645(11) 0.63856(4)
H14 H -0.0364 0.4117 0.6386
loop_
_geom_bond_atom_site_label_1
_geom_bond_atom_site_label_2
_geom_bond_site_symmetry_1
_geom_bond_site_symmetry_2
O1 C1 1_555 1_555
O2 C4 1_555 1_555
N1 C3 1_555 1_555
N2 C2 1_555 1_555
C1 H1 1_555 1_555
C2 C1 1_555 1_555
C3 C2 1_555 1_555
H2 C3 1_555 1_555
C4 N1 1_555 1_555
C5 N2 1_555 1_555
C6 N1 1_555 1_555
H3 C6 1_555 1_555
H4 C6 1_555 1_555
C7 C6 1_555 1_555
C8 C7 1_555 1_555
H5 C8 1_555 1_555
C9 C8 1_555 1_555
H6 C9 1_555 1_555
C10 C9 1_555 1_555
H7 C10 1_555 1_555
C11 C10 1_555 1_555
H8 C11 1_555 1_555
C12 C7 1_555 1_555
H9 C12 1_555 1_555
C13 C5 1_555 1_555
C14 C13 1_555 1_555
H10 C14 1_555 1_555
C15 C14 1_555 1_555
H11 C15 1_555 1_555
C16 C15 1_555 1_555
H12 C16 1_555 1_555
C17 C16 1_555 1_555
H13 C17 1_555 1_555
C18 C13 1_555 1_555
H14 C18 1_555 1_555
C4 C5 1_555 1_555
C11 C12 1_555 1_555
C17 C18 1_555 1_555

#END
