
#######################################################################
#
#                 Cambridge Crystallographic Data Centre
#                                CCDC 
#
#######################################################################
#
# If this CIF has been generated from an entry in the Cambridge 
# Structural Database, then it will include bibliographic, chemical, 
# crystal, experimental, refinement or atomic coordinate data resulting 
# from the CCDC's data processing and validation procedures.
#
#######################################################################

data_UBIMAT
_chemical_formula_moiety         'C28 H41 N1 O7 S1'
_chemical_name_systematic        
"Methyl 3-(1-(((di-isopropylamino)sulfonyl)methyl)-7,7-dimethyl-5'-oxospirobicyclo[2.2.1]heptane-2,2'-[1,3]dioxalan-4'-yl)-3-phenylpropanoate"
_symmetry_cell_setting           orthorhombic
_symmetry_space_group_name_H-M   'P 21 21 21'
_symmetry_Int_Tables_number      19
_space_group_name_Hall           'P 2ac 2ab'
loop_
_symmetry_equiv_pos_site_id
_symmetry_equiv_pos_as_xyz
1 x,y,z
2 1/2-x,-y,1/2+z
3 -x,1/2+y,1/2-z
4 1/2+x,1/2-y,-z
_cell_length_a                   10.928(2)
_cell_length_b                   15.301(3)
_cell_length_c                   17.131(3)
_cell_angle_alpha                90
_cell_angle_beta                 90
_cell_angle_gamma                90
_cell_volume                     2864.46
_exptl_crystal_colour            colorless
_exptl_crystal_description       block
_cell_formula_units_Z            4
loop_
_atom_site_label
_atom_site_type_symbol
_atom_site_fract_x
_atom_site_fract_y
_atom_site_fract_z
S1 S 0.57286(7) 0.40704(4) 0.13247(4)
O1 O 0.9017(2) 0.48228(14) 0.27920(15)
O2 O 0.8506(2) 0.27235(12) 0.20979(12)
O3 O 0.7784(2) 0.36854(14) 0.29973(11)
O4 O 1.0555(4) 0.3992(2) 0.0336(2)
O5 O 1.0906(3) 0.5327(2) 0.0778(2)
O6 O 0.6747(2) 0.45743(13) 0.15741(13)
O7 O 0.4561(2) 0.4264(2) 0.1646(2)
N1 N 0.5645(3) 0.4142(2) 0.03956(13)
C1 C 0.8680(3) 0.4108(2) 0.2620(2)
C2 C 0.9129(3) 0.3526(2) 0.1974(2)
H1 H 0.8854(3) 0.3772(2) 0.1475(2)
C3 C 0.7599(3) 0.2830(2) 0.2678(2)
C4 C 0.7717(3) 0.2139(2) 0.3339(2)
H2 H 0.8334(3) 0.1706(2) 0.3214(2)
H3 H 0.7921(3) 0.2413(2) 0.3833(2)
C5 C 0.6443(4) 0.1733(3) 0.3364(2)
H4 H 0.6414(4) 0.1170(3) 0.3637(2)
C6 C 0.6094(3) 0.1672(2) 0.2499(2)
C7 C 0.6278(2) 0.2692(2) 0.2371(2)
C8 C 0.5411(3) 0.3058(3) 0.2993(2)
H5 H 0.4574(3) 0.3072(3) 0.2804(2)
H6 H 0.5651(3) 0.3643(3) 0.3148(2)
C9 C 0.5554(5) 0.2400(3) 0.3681(2)
H7 H 0.5882(5) 0.2686(3) 0.4141(2)
H8 H 0.4777(5) 0.2131(3) 0.3812(2)
C10 C 1.0516(3) 0.3372(2) 0.1925(2)
H9 H 1.0646(3) 0.2944(2) 0.1507(2)
C11 C 1.1019(3) 0.2963(2) 0.2670(2)
C12 C 1.1180(3) 0.2075(2) 0.2705(2)
H10 H 1.0980(3) 0.1731(2) 0.2276(2)
C13 C 1.1637(4) 0.1687(2) 0.3375(2)
H11 H 1.1762(4) 0.1086(2) 0.3388(2)
C14 C 1.1903(4) 0.2182(3) 0.4015(2)
H12 H 1.2211(4) 0.1921(3) 0.4464(2)
C15 C 1.1718(5) 0.3054(3) 0.3991(3)
H13 H 1.1878(5) 0.3390(3) 0.4432(3)
C16 C 1.1297(4) 0.3449(2) 0.3328(2)
H14 H 1.1197(4) 0.4053(2) 0.3319(2)
C17 C 0.6931(4) 0.1089(2) 0.2017(2)
H15 H 0.7767(4) 0.1260(2) 0.2097(2)
H16 H 0.6728(4) 0.1146(2) 0.1474(2)
H17 H 0.6827(4) 0.0491(2) 0.2175(2)
C18 C 0.4783(4) 0.1370(3) 0.2349(3)
H18 H 0.4227(4) 0.1725(3) 0.2645(3)
H19 H 0.4698(4) 0.0770(3) 0.2505(3)
H20 H 0.4599(4) 0.1425(3) 0.1803(3)
C19 C 0.6054(3) 0.2947(2) 0.15207(14)
H21 H 0.5376(3) 0.2600(2) 0.13269(14)
H22 H 0.6772(3) 0.2784(2) 0.12211(14)
C20 C 0.4481(6) 0.3966(3) 0.0005(4)
H23 H 0.4877(6) 0.4037(3) -0.0505(4)
C21 C 0.4145(5) 0.3174(3) -0.0186(4)
H24 H 0.4772(5) 0.2768(3) -0.0036(4)
H25 H 0.4018(5) 0.3142(3) -0.0739(4)
H26 H 0.3397(5) 0.3031(3) 0.0080(4)
C22 C 0.3722(5) 0.4761(3) -0.0143(3)
H27 H 0.4147(5) 0.5269(3) 0.0043(3)
H28 H 0.2955(5) 0.4706(3) 0.0125(3)
H29 H 0.3576(5) 0.4818(3) -0.0694(3)
C23 C 0.6295(9) 0.4501(7) -0.0209(5)
H30 H 0.5822(9) 0.4427(7) -0.0690(5)
C24 C 0.6631(35) 0.5386(20) -0.0143(18)
H31 H 0.5908(35) 0.5742(20) -0.0131(18)
H32 H 0.7127(35) 0.5548(20) -0.0583(18)
H33 H 0.7088(35) 0.5471(20) 0.0330(18)
C25 C 0.7369(11) 0.3881(15) -0.0232(7)
H34 H 0.7077(11) 0.3292(15) -0.0276(7)
H35 H 0.7838(11) 0.3940(15) 0.0240(7)
H36 H 0.7877(11) 0.4017(15) -0.0673(7)
C29 C 1.1177(3) 0.4198(3) 0.1681(2)
H44 H 1.2053(3) 0.4103(3) 0.1711(2)
H45 H 1.0969(3) 0.4666(3) 0.2038(2)
C30 C 1.0837(4) 0.4469(3) 0.0851(3)
C31 C 1.0589(5) 0.5695(3) 0.0053(3)
H46 H 1.0679(5) 0.6318(3) 0.0078(3)
H47 H 0.9755(5) 0.5552(3) -0.0068(3)
H48 H 1.1117(5) 0.5466(3) -0.0346(3)
C26? C 0.6983(13) 0.4265(9) 0.0031(6)
H37? H 0.7551(13) 0.4210(9) 0.0471(6)
C27? C 0.7181(36) 0.5187(26) -0.0295(23)
H38? H 0.6932(36) 0.5610(26) 0.0086(23)
H39? H 0.6703(36) 0.5260(26) -0.0761(23)
H40? H 0.8031(36) 0.5267(26) -0.0416(23)
C28? C 0.7375(15) 0.3534(15) -0.0570(6)
H41? H 0.7237(15) 0.2968(15) -0.0344(6)
H42? H 0.8227(15) 0.3599(15) -0.0693(6)
H43? H 0.6898(15) 0.3591(15) -0.1038(6)
loop_
_geom_bond_atom_site_label_1
_geom_bond_atom_site_label_2
_geom_bond_site_symmetry_1
_geom_bond_site_symmetry_2
S1 O6 1_555 1_555
O1 C1 1_555 1_555
O2 C2 1_555 1_555
O3 C1 1_555 1_555
O4 C30 1_555 1_555
O5 C30 1_555 1_555
O7 S1 1_555 1_555
N1 S1 1_555 1_555
C1 C2 1_555 1_555
C2 H1 1_555 1_555
C3 O2 1_555 1_555
C4 C3 1_555 1_555
H2 C4 1_555 1_555
H3 C4 1_555 1_555
C5 C4 1_555 1_555
H4 C5 1_555 1_555
C6 C5 1_555 1_555
C7 C3 1_555 1_555
C8 C7 1_555 1_555
H5 C8 1_555 1_555
H6 C8 1_555 1_555
C9 C5 1_555 1_555
H7 C9 1_555 1_555
H8 C9 1_555 1_555
C10 C2 1_555 1_555
H9 C10 1_555 1_555
C11 C10 1_555 1_555
C12 C11 1_555 1_555
H10 C12 1_555 1_555
C13 C12 1_555 1_555
H11 C13 1_555 1_555
C14 C13 1_555 1_555
H12 C14 1_555 1_555
C15 C14 1_555 1_555
H13 C15 1_555 1_555
C16 C11 1_555 1_555
H14 C16 1_555 1_555
C17 C6 1_555 1_555
H15 C17 1_555 1_555
H16 C17 1_555 1_555
H17 C17 1_555 1_555
C18 C6 1_555 1_555
H18 C18 1_555 1_555
H19 C18 1_555 1_555
H20 C18 1_555 1_555
C19 S1 1_555 1_555
H21 C19 1_555 1_555
H22 C19 1_555 1_555
C20 N1 1_555 1_555
H23 C20 1_555 1_555
C21 C20 1_555 1_555
H24 C21 1_555 1_555
H25 C21 1_555 1_555
H26 C21 1_555 1_555
C22 C20 1_555 1_555
H27 C22 1_555 1_555
H28 C22 1_555 1_555
H29 C22 1_555 1_555
C23 N1 1_555 1_555
H30 C23 1_555 1_555
C24 C23 1_555 1_555
H31 C24 1_555 1_555
H32 C24 1_555 1_555
H33 C24 1_555 1_555
C25 C23 1_555 1_555
H34 C25 1_555 1_555
H35 C25 1_555 1_555
H36 C25 1_555 1_555
C29 C10 1_555 1_555
H44 C29 1_555 1_555
H45 C29 1_555 1_555
C30 C29 1_555 1_555
C31 O5 1_555 1_555
H46 C31 1_555 1_555
H47 C31 1_555 1_555
H48 C31 1_555 1_555
O3 C3 1_555 1_555
C6 C7 1_555 1_555
C7 C19 1_555 1_555
C8 C9 1_555 1_555
C15 C16 1_555 1_555

#END
