
#######################################################################
#
#                 Cambridge Crystallographic Data Centre
#                                CCDC 
#
#######################################################################
#
# If this CIF has been generated from an entry in the Cambridge 
# Structural Database, then it will include bibliographic, chemical, 
# crystal, experimental, refinement or atomic coordinate data resulting 
# from the CCDC's data processing and validation procedures.
#
#######################################################################

data_UBOJOM
_chemical_formula_moiety         'C17 H14 N2'
_chemical_name_systematic        
6,7-Dihydro-5H-benzo[3,4]cyclohepta[1,2-b]quinoxaline
_symmetry_cell_setting           monoclinic
_symmetry_space_group_name_H-M   'C 2/c'
_symmetry_Int_Tables_number      15
_space_group_name_Hall           '-C 2yn'
loop_
_symmetry_equiv_pos_site_id
_symmetry_equiv_pos_as_xyz
1 x,y,z
2 -x,y,1/2-z
3 1/2+x,1/2+y,z
4 1/2-x,1/2+y,1/2-z
5 -x,-y,-z
6 x,-y,1/2+z
7 1/2-x,1/2-y,-z
8 1/2+x,1/2-y,1/2+z
_cell_length_a                   11.5698(3)
_cell_length_b                   12.8032(4)
_cell_length_c                   18.2009(5)
_cell_angle_alpha                90
_cell_angle_beta                 107.3320(10)
_cell_angle_gamma                90
_cell_volume                     2573.69
_exptl_crystal_colour            'pale brown'
_cell_formula_units_Z            8
loop_
_atom_site_label
_atom_site_type_symbol
_atom_site_fract_x
_atom_site_fract_y
_atom_site_fract_z
N1 N 0.63940(11) 0.76028(9) 0.20384(7)
N2 N 0.63181(11) 0.98017(9) 0.19323(6)
C1 C 0.93789(15) 0.82863(13) 0.33030(9)
H1 H 1.0074 0.7960 0.3609
C2 C 0.84201(14) 0.76973(12) 0.28952(8)
H2 H 0.8460 0.6972 0.2922
C3 C 0.73681(13) 0.81948(11) 0.24325(7)
C4 C 0.54376(12) 0.80932(11) 0.16081(7)
C5 C 0.54092(12) 0.92167(11) 0.15379(7)
C6 C 0.43344(12) 0.97453(11) 0.10141(7)
C7 C 0.38117(12) 0.93662(11) 0.02629(7)
C8 C 0.28209(14) 0.99052(13) -0.02113(9)
H3 H 0.2466 0.9670 -0.0711
C9 C 0.23551(14) 1.07770(14) 0.00432(10)
H4 H 0.1689 1.1120 -0.0283
C10 C 0.73205(13) 0.92972(11) 0.23908(7)
C11 C 0.83283(14) 0.98804(12) 0.28217(9)
H5 H 0.8311 1.0606 0.2802
C12 C 0.93266(15) 0.93751(13) 0.32661(10)
H6 H 0.9988 0.9763 0.3551
C13 C 0.28750(15) 1.11404(13) 0.07791(10)
H7 H 0.2561 1.1729 0.0951
C14 C 0.38627(13) 1.06322(12) 0.12619(8)
H8 H 0.4217 1.0884 0.1757
C15 C 0.43610(14) 0.84534(12) -0.00333(8)
H9 H 0.5218 0.8588 0.0061
H10 H 0.3996 0.8410 -0.0586
C16 C 0.42168(14) 0.73908(12) 0.03203(9)
H11 H 0.3424 0.7108 0.0055
H12 H 0.4820 0.6912 0.0243
C17 C 0.43537(15) 0.74602(12) 0.11808(9)
H13 H 0.3631 0.7774 0.1251
H14 H 0.4429 0.6761 0.1395
loop_
_geom_bond_atom_site_label_1
_geom_bond_atom_site_label_2
_geom_bond_site_symmetry_1
_geom_bond_site_symmetry_2
N1 C3 1_555 1_555
N2 C5 1_555 1_555
C1 H1 1_555 1_555
C2 C1 1_555 1_555
H2 C2 1_555 1_555
C3 C2 1_555 1_555
C4 N1 1_555 1_555
C5 C4 1_555 1_555
C6 C5 1_555 1_555
C7 C6 1_555 1_555
C8 C7 1_555 1_555
H3 C8 1_555 1_555
C9 C8 1_555 1_555
H4 C9 1_555 1_555
C10 N2 1_555 1_555
C11 C10 1_555 1_555
H5 C11 1_555 1_555
C12 C1 1_555 1_555
H6 C12 1_555 1_555
C13 C9 1_555 1_555
H7 C13 1_555 1_555
C14 C6 1_555 1_555
H8 C14 1_555 1_555
C15 C7 1_555 1_555
H9 C15 1_555 1_555
H10 C15 1_555 1_555
C16 C15 1_555 1_555
H11 C16 1_555 1_555
H12 C16 1_555 1_555
C17 C4 1_555 1_555
H13 C17 1_555 1_555
H14 C17 1_555 1_555
C3 C10 1_555 1_555
C11 C12 1_555 1_555
C13 C14 1_555 1_555
C16 C17 1_555 1_555

#END
