
#######################################################################
#
#                 Cambridge Crystallographic Data Centre
#                                CCDC 
#
#######################################################################
#
# If this CIF has been generated from an entry in the Cambridge 
# Structural Database, then it will include bibliographic, chemical, 
# crystal, experimental, refinement or atomic coordinate data resulting 
# from the CCDC's data processing and validation procedures.
#
#######################################################################

data_UBOVIT
_chemical_formula_moiety         'C24 H22 N2 O2 S1'
_chemical_name_systematic        
2'-methyl-1'-((4-methylphenyl)sulfonyl)-2,3-dihydro-1'H-1,3'-biindole
_symmetry_cell_setting           monoclinic
_symmetry_space_group_name_H-M   'P 21/c'
_symmetry_Int_Tables_number      14
_space_group_name_Hall           '-P 2ybc'
loop_
_symmetry_equiv_pos_site_id
_symmetry_equiv_pos_as_xyz
1 x,y,z
2 -x,1/2+y,1/2-z
3 -x,-y,-z
4 x,1/2-y,1/2+z
_cell_length_a                   12.2049(11)
_cell_length_b                   11.7510(11)
_cell_length_c                   13.9859(13)
_cell_angle_alpha                90
_cell_angle_beta                 97.1120(10)
_cell_angle_gamma                90
_cell_volume                     1990.42
_exptl_crystal_colour            colorless
_exptl_crystal_description       block
_cell_formula_units_Z            4
loop_
_atom_site_label
_atom_site_type_symbol
_atom_site_fract_x
_atom_site_fract_y
_atom_site_fract_z
S1 S 0.72433(2) 0.23706(3) 0.12462(2)
O1 O 0.70740(8) 0.18528(10) 0.21413(7)
O2 O 0.68828(8) 0.35032(9) 0.10399(9)
N1 N 0.86071(8) 0.23623(9) 0.12165(8)
N2 N 1.09318(8) 0.28565(9) -0.00980(7)
C1 C 0.56980(13) -0.07844(16) -0.20504(12)
H1 H 0.4891 -0.0817 -0.2183
H2 H 0.5988 -0.1546 -0.1883
H3 H 0.6004 -0.0510 -0.2624
C2 C 0.60219(10) 0.00121(12) -0.12244(10)
C3 C 0.62960(10) -0.04069(11) -0.02941(10)
H4 H 0.6240 -0.1200 -0.0179
C4 C 0.66484(10) 0.03097(11) 0.04649(10)
H5 H 0.6842 0.0011 0.1094
C5 C 0.67170(9) 0.14719(11) 0.02991(9)
C6 C 0.64147(12) 0.19166(12) -0.06164(11)
H6 H 0.6441 0.2714 -0.0723
C7 C 0.60745(12) 0.11839(13) -0.13709(11)
H7 H 0.5874 0.1485 -0.1999
C8 C 0.92981(9) 0.14431(10) 0.15786(8)
C9 C 0.91741(11) 0.06328(12) 0.22826(9)
H8 H 0.8531 0.0608 0.2602
C10 C 1.00276(11) -0.01361(12) 0.24983(10)
H9 H 0.9967 -0.0694 0.2981
C11 C 1.09704(11) -0.01194(12) 0.20330(10)
H10 H 1.1532 -0.0672 0.2190
C12 C 1.10950(10) 0.06974(12) 0.13434(10)
H11 H 1.1741 0.0718 0.1029
C13 C 1.02523(9) 0.14917(10) 0.11187(8)
C14 C 1.01379(10) 0.24482(10) 0.04701(8)
C15 C 0.91439(9) 0.29518(10) 0.05134(9)
C16 C 0.87027(12) 0.39837(12) -0.00140(12)
H12 H 0.8044 0.3781 -0.0455
H13 H 0.9265 0.4297 -0.0383
H14 H 0.8508 0.4554 0.0448
C17 C 1.19735(9) 0.32067(10) 0.03290(8)
C18 C 1.22850(10) 0.35491(12) 0.12669(9)
H15 H 1.1781 0.3519 0.1733
C19 C 1.33638(12) 0.39410(14) 0.15102(11)
H16 H 1.3594 0.4188 0.2150
C20 C 1.41039(12) 0.39762(14) 0.08366(13)
H17 H 1.4833 0.4248 0.1016
C21 C 1.37814(11) 0.36150(12) -0.00972(12)
H18 H 1.4289 0.3636 -0.0560
C22 C 1.27196(11) 0.32232(11) -0.03530(9)
C23 C 1.21374(13) 0.28093(15) -0.12976(10)
H19 H 1.2584 0.2231 -0.1589
H20 H 1.1976 0.3446 -0.1757
C24 C 1.10696(13) 0.22889(14) -0.10179(10)
H21 H 1.0437 0.2451 -0.1513
H22 H 1.1143 0.1455 -0.0932
loop_
_geom_bond_atom_site_label_1
_geom_bond_atom_site_label_2
_geom_bond_site_symmetry_1
_geom_bond_site_symmetry_2
S1 O1 1_555 1_555
O2 S1 1_555 1_555
N1 S1 1_555 1_555
N2 C14 1_555 1_555
C1 H1 1_555 1_555
H2 C1 1_555 1_555
H3 C1 1_555 1_555
C2 C1 1_555 1_555
C3 C2 1_555 1_555
H4 C3 1_555 1_555
C4 C3 1_555 1_555
H5 C4 1_555 1_555
C5 S1 1_555 1_555
C6 C5 1_555 1_555
H6 C6 1_555 1_555
C7 C2 1_555 1_555
H7 C7 1_555 1_555
C8 N1 1_555 1_555
C9 C8 1_555 1_555
H8 C9 1_555 1_555
C10 C9 1_555 1_555
H9 C10 1_555 1_555
C11 C10 1_555 1_555
H10 C11 1_555 1_555
C12 C11 1_555 1_555
H11 C12 1_555 1_555
C13 C8 1_555 1_555
C14 C13 1_555 1_555
C15 N1 1_555 1_555
C16 C15 1_555 1_555
H12 C16 1_555 1_555
H13 C16 1_555 1_555
H14 C16 1_555 1_555
C17 N2 1_555 1_555
C18 C17 1_555 1_555
H15 C18 1_555 1_555
C19 C18 1_555 1_555
H16 C19 1_555 1_555
C20 C19 1_555 1_555
H17 C20 1_555 1_555
C21 C20 1_555 1_555
H18 C21 1_555 1_555
C22 C17 1_555 1_555
C23 C22 1_555 1_555
H19 C23 1_555 1_555
H20 C23 1_555 1_555
C24 N2 1_555 1_555
H21 C24 1_555 1_555
H22 C24 1_555 1_555
C4 C5 1_555 1_555
C6 C7 1_555 1_555
C12 C13 1_555 1_555
C14 C15 1_555 1_555
C21 C22 1_555 1_555
C23 C24 1_555 1_555

#END
