
#######################################################################
#
#                 Cambridge Crystallographic Data Centre
#                                CCDC 
#
#######################################################################
#
# If this CIF has been generated from an entry in the Cambridge 
# Structural Database, then it will include bibliographic, chemical, 
# crystal, experimental, refinement or atomic coordinate data resulting 
# from the CCDC's data processing and validation procedures.
#
#######################################################################

data_UBUGIH
_chemical_compound_source        'soft coral Nephthea chabroli'
_chemical_formula_moiety         'C17 H28 O3'
_chemical_name_systematic        'Chabrolol B'
_symmetry_cell_setting           triclinic
_symmetry_space_group_name_H-M   'P -1'
_symmetry_Int_Tables_number      2
_space_group_name_Hall           '-P 1'
loop_
_symmetry_equiv_pos_site_id
_symmetry_equiv_pos_as_xyz
1 x,y,z
2 -x,-y,-z
_cell_length_a                   8.1860(10)
_cell_length_b                   9.6540(10)
_cell_length_c                   10.6620(10)
_cell_angle_alpha                82.670(10)
_cell_angle_beta                 82.35(2)
_cell_angle_gamma                67.98(2)
_cell_volume                     771.405
_exptl_crystal_colour            colorless
_exptl_crystal_description       block
_cell_formula_units_Z            2
loop_
_atom_site_label
_atom_site_type_symbol
_atom_site_fract_x
_atom_site_fract_y
_atom_site_fract_z
O1 O 0.25878(13) 0.41925(10) 0.64308(8)
H1 H 0.15824(13) 0.44243(10) 0.66972(8)
O2 O 0.09031(11) 0.53345(9) 0.23016(8)
H2 H 0.06159(11) 0.60727(9) 0.15262(8)
O3 O 0.01628(14) 0.24009(11) -0.01402(9)
C1 C 0.0569(2) 0.18151(15) 0.37806(11)
H3 H -0.0510(2) 0.26285(15) 0.39959(11)
C2 C 0.2060(2) 0.19372(12) 0.39998(10)
H4 H 0.3153(2) 0.11267(12) 0.38092(10)
C3 C 0.21352(14) 0.32791(12) 0.45311(10)
H5 H 0.09463(14) 0.39553(12) 0.47280(10)
C4 C 0.3119(2) 0.28707(12) 0.57580(10)
C5 C 0.5071(2) 0.2519(2) 0.52662(12)
H6 H 0.5693(2) 0.1455(2) 0.52774(12)
H7 H 0.5623(2) 0.2916(2) 0.57959(12)
C6 C 0.5123(2) 0.3246(2) 0.39097(13)
H8 H 0.5795(2) 0.3887(2) 0.38236(13)
H9 H 0.5646(2) 0.2496(2) 0.33154(13)
C7 C 0.31772(15) 0.41657(12) 0.36853(11)
H10 H 0.28805(15) 0.50848(12) 0.40721(11)
C8 C 0.2809(2) 0.46276(13) 0.22880(11)
C9 C 0.3542(2) 0.32945(14) 0.14356(11)
H11 H 0.3629(2) 0.23909(14) 0.19632(11)
H12 H 0.4719(2) 0.32007(14) 0.10884(11)
C10 C 0.2457(2) 0.3400(2) 0.03375(11)
H13 H 0.3202(2) 0.2769(2) -0.03001(11)
H14 H 0.2035(2) 0.4413(2) -0.00403(11)
C11 C 0.0911(2) 0.29251(14) 0.07854(11)
H15 H 0.0048(2) 0.35613(14) 0.13716(11)
C12 C 0.0997(2) 0.13677(14) 0.09195(11)
C13 C -0.0277(2) 0.0949(2) 0.19067(13)
H16 H -0.1386(2) 0.1779(2) 0.19560(13)
H17 H -0.0485(2) 0.0118(2) 0.16450(13)
C14 C 0.0413(2) 0.0519(2) 0.32281(12)
H18 H -0.0383(2) 0.0153(2) 0.37891(12)
H19 H 0.1549(2) -0.0280(2) 0.31711(12)
C15 C 0.2810(2) 0.16139(15) 0.66545(12)
H20 H 0.3464(2) 0.14371(15) 0.73800(12)
H21 H 0.1571(2) 0.18977(15) 0.69275(12)
H22 H 0.3201(2) 0.07155(15) 0.62223(12)
C16 C 0.3604(2) 0.5812(2) 0.17523(14)
H23 H 0.3155(2) 0.6638(2) 0.22756(14)
H24 H 0.4870(2) 0.5378(2) 0.17415(14)
H25 H 0.3283(2) 0.6162(2) 0.09032(14)
C17 C 0.2651(2) 0.0098(2) 0.0530(2)
H26 H 0.3371(2) 0.0476(2) -0.0097(2)
H27 H 0.3294(2) -0.0359(2) 0.1258(2)
H28 H 0.2352(2) -0.0634(2) 0.0179(2)
loop_
_geom_bond_atom_site_label_1
_geom_bond_atom_site_label_2
_geom_bond_site_symmetry_1
_geom_bond_site_symmetry_2
O1 H1 1_555 1_555
O2 H2 1_555 1_555
O3 C11 1_555 1_555
C1 H3 1_555 1_555
C2 C1 1_555 1_555
H4 C2 1_555 1_555
C3 C2 1_555 1_555
H5 C3 1_555 1_555
C4 O1 1_555 1_555
C5 C4 1_555 1_555
H6 C5 1_555 1_555
H7 C5 1_555 1_555
C6 C5 1_555 1_555
H8 C6 1_555 1_555
H9 C6 1_555 1_555
C7 C3 1_555 1_555
H10 C7 1_555 1_555
C8 O2 1_555 1_555
C9 C8 1_555 1_555
H11 C9 1_555 1_555
H12 C9 1_555 1_555
C10 C9 1_555 1_555
H13 C10 1_555 1_555
H14 C10 1_555 1_555
C11 C10 1_555 1_555
H15 C11 1_555 1_555
C12 O3 1_555 1_555
C13 C12 1_555 1_555
H16 C13 1_555 1_555
H17 C13 1_555 1_555
C14 C1 1_555 1_555
H18 C14 1_555 1_555
H19 C14 1_555 1_555
C15 C4 1_555 1_555
H20 C15 1_555 1_555
H21 C15 1_555 1_555
H22 C15 1_555 1_555
C16 C8 1_555 1_555
H23 C16 1_555 1_555
H24 C16 1_555 1_555
H25 C16 1_555 1_555
C17 C12 1_555 1_555
H26 C17 1_555 1_555
H27 C17 1_555 1_555
H28 C17 1_555 1_555
C3 C4 1_555 1_555
C6 C7 1_555 1_555
C7 C8 1_555 1_555
C11 C12 1_555 1_555
C13 C14 1_555 1_555

#END
