
#######################################################################
#
#                 Cambridge Crystallographic Data Centre
#                                CCDC 
#
#######################################################################
#
# If this CIF has been generated from an entry in the Cambridge 
# Structural Database, then it will include bibliographic, chemical, 
# crystal, experimental, refinement or atomic coordinate data resulting 
# from the CCDC's data processing and validation procedures.
#
#######################################################################

data_UBUJIM01
_chemical_name_common            "5-Methylresorcinol sesquikis(4,4'-bipyridine)"
_chemical_formula_moiety         'C7 H8 O2,1.5(C10 H8 N2)'
_chemical_name_systematic        
"5-Methylbenzene-1,3-diol sesquikis(4,4'-bipyridine)"
_symmetry_cell_setting           orthorhombic
_symmetry_space_group_name_H-M   'P b c a'
_symmetry_Int_Tables_number      61
_space_group_name_Hall           '-P 2ac 2ab'
loop_
_symmetry_equiv_pos_site_id
_symmetry_equiv_pos_as_xyz
1 x,y,z
2 1/2-x,-y,1/2+z
3 1/2+x,1/2-y,-z
4 -x,1/2+y,1/2-z
5 -x,-y,-z
6 1/2+x,y,1/2-z
7 1/2-x,1/2+y,z
8 x,1/2-y,1/2+z
_cell_length_a                   9.346(6)
_cell_length_b                   23.250(15)
_cell_length_c                   33.59(2)
_cell_angle_alpha                90
_cell_angle_beta                 90
_cell_angle_gamma                90
_cell_volume                     7298.92
_exptl_crystal_colour            colorless
_exptl_crystal_description       block
_cell_formula_units_Z            16
_exptl_crystal_recrystallization_method acetonitrile
loop_
_atom_site_label
_atom_site_type_symbol
_atom_site_fract_x
_atom_site_fract_y
_atom_site_fract_z
C1 C 0.7380(4) 0.17314(15) 0.07211(10)
C2 C 0.7332(4) 0.17058(16) 0.11334(10)
H1 H 0.7410 0.1345 0.1265
C3 C 0.7169(4) 0.22044(16) 0.13537(10)
C4 C 0.7048(4) 0.27324(15) 0.11606(10)
H2 H 0.6939 0.3076 0.1311
C5 C 0.7087(4) 0.27553(15) 0.07461(10)
C6 C 0.7252(4) 0.22541(14) 0.05267(9)
H3 H 0.7276 0.2269 0.0244
C7 C 0.7104(5) 0.21710(18) 0.18013(10)
H4 H 0.6146 0.2047 0.1884
H5 H 0.7310 0.2551 0.1915
H6 H 0.7814 0.1893 0.1897
O1 O 0.7588(3) 0.12355(11) 0.05184(7)
H7 H 0.7478 0.1295 0.0274
O2 O 0.6957(3) 0.32776(10) 0.05680(7)
H8 H 0.7045 0.3240 0.0321
C8 C 0.3980(4) -0.06045(15) 0.33418(10)
C9 C 0.3763(4) -0.06322(15) 0.37491(10)
H9 H 0.3512 -0.0987 0.3870
C10 C 0.3914(4) -0.01414(15) 0.39796(10)
C11 C 0.4259(4) 0.03797(15) 0.37989(10)
H10 H 0.4346 0.0718 0.3956
C12 C 0.4477(4) 0.04059(14) 0.33898(10)
C13 C 0.4338(4) -0.00869(15) 0.31585(10)
H11 H 0.4486 -0.0071 0.2879
C14 C 0.3743(4) -0.01774(17) 0.44241(10)
H12 H 0.2958 -0.0441 0.4488
H13 H 0.3528 0.0205 0.4530
H14 H 0.4633 -0.0320 0.4543
O3 O 0.3860(3) -0.11022(11) 0.31290(8)
H15 H 0.4048 -0.1037 0.2889
O4 O 0.4829(3) 0.09241(11) 0.32301(7)
H16 H 0.5025 0.0883 0.2988
C15 C 0.8444(4) 0.19158(18) 0.45541(11)
H17 H 0.9317 0.1841 0.4689
C16 C 0.8507(4) 0.20803(17) 0.41615(11)
H18 H 0.9404 0.2107 0.4030
C17 C 0.7253(4) 0.22066(15) 0.39587(10)
C18 C 0.5976(4) 0.21516(18) 0.41679(11)
H19 H 0.5088 0.2235 0.4043
C19 C 0.6019(4) 0.19743(19) 0.45587(11)
H20 H 0.5136 0.1934 0.4696
C20 C 0.8410(5) 0.28623(18) 0.29892(12)
H21 H 0.9203 0.3074 0.2890
C21 C 0.8421(4) 0.27018(16) 0.33832(10)
H22 H 0.9204 0.2803 0.3549
C22 C 0.7271(4) 0.23887(15) 0.35370(10)
C23 C 0.6156(4) 0.22567(16) 0.32779(11)
H23 H 0.5346 0.2049 0.3370
C24 C 0.6244(5) 0.24309(19) 0.28884(12)
H24 H 0.5482 0.2330 0.2715
N1 N 0.7216(3) 0.18555(14) 0.47568(8)
N2 N 0.7339(5) 0.27358(16) 0.27366(10)
C25 C 0.4742(5) 0.38155(18) 0.29055(11)
H25 H 0.3907 0.3661 0.2784
C26 C 0.4893(4) 0.37564(17) 0.33123(10)
H26 H 0.4173 0.3571 0.3465
C27 C 0.6118(4) 0.39733(15) 0.34951(10)
C28 C 0.7101(4) 0.42582(17) 0.32559(11)
H27 H 0.7939 0.4423 0.3369
C29 C 0.6847(5) 0.42990(17) 0.28537(12)
H28 H 0.7527 0.4497 0.2695
C30 C 0.7955(5) 0.37318(19) 0.44721(13)
H29 H 0.8902 0.3673 0.4566
C31 C 0.7745(5) 0.38199(18) 0.40716(12)
H30 H 0.8541 0.3833 0.3896
C32 C 0.6372(4) 0.38890(15) 0.39245(10)
C33 C 0.5253(4) 0.38773(17) 0.41960(10)
H31 H 0.4292 0.3922 0.4109
C34 C 0.5556(5) 0.37996(19) 0.45932(11)
H32 H 0.4782 0.3798 0.4777
N3 N 0.5698(4) 0.40757(14) 0.26728(9)
N4 N 0.6877(5) 0.37257(15) 0.47350(10)
C35 C 0.3891(5) 0.11055(18) 0.22182(12)
H33 H 0.3265 0.1343 0.2369
C36 C 0.3576(4) 0.10151(17) 0.18233(12)
H34 H 0.2751 0.1186 0.1708
C37 C 0.4481(4) 0.06696(15) 0.15941(10)
C38 C 0.5679(4) 0.04407(16) 0.17831(11)
H35 H 0.6340 0.0209 0.1640
C39 C 0.5889(4) 0.05555(17) 0.21796(11)
H36 H 0.6707 0.0392 0.2304
C40 C 0.4904(5) 0.03277(18) 0.05034(12)
H37 H 0.5662 0.0249 0.0323
C41 C 0.5237(4) 0.04230(17) 0.08995(11)
H38 H 0.6202 0.0401 0.0987
C42 C 0.4158(4) 0.05507(16) 0.11680(11)
C43 C 0.2773(5) 0.0572(2) 0.10217(13)
H39 H 0.2000 0.0661 0.1195
C44 C 0.2524(5) 0.0465(2) 0.06254(13)
H40 H 0.1564 0.0479 0.0533
N5 N 0.5029(4) 0.08793(14) 0.24035(9)
N6 N 0.3558(4) 0.03418(17) 0.03621(11)
loop_
_geom_bond_atom_site_label_1
_geom_bond_atom_site_label_2
_geom_bond_site_symmetry_1
_geom_bond_site_symmetry_2
C1 C2 1_555 1_555
C2 H1 1_555 1_555
C3 C2 1_555 1_555
C4 C3 1_555 1_555
H2 C4 1_555 1_555
C5 C4 1_555 1_555
C6 C1 1_555 1_555
H3 C6 1_555 1_555
C7 C3 1_555 1_555
H4 C7 1_555 1_555
H5 C7 1_555 1_555
H6 C7 1_555 1_555
O1 C1 1_555 1_555
H7 O1 1_555 1_555
O2 C5 1_555 1_555
H8 O2 1_555 1_555
C8 C9 1_555 1_555
C9 H9 1_555 1_555
C10 C9 1_555 1_555
C11 C10 1_555 1_555
H10 C11 1_555 1_555
C12 C11 1_555 1_555
C13 C8 1_555 1_555
H11 C13 1_555 1_555
C14 C10 1_555 1_555
H12 C14 1_555 1_555
H13 C14 1_555 1_555
H14 C14 1_555 1_555
O3 C8 1_555 1_555
H15 O3 1_555 1_555
O4 C12 1_555 1_555
H16 O4 1_555 1_555
C15 H17 1_555 1_555
C16 C15 1_555 1_555
H18 C16 1_555 1_555
C17 C16 1_555 1_555
C18 C17 1_555 1_555
H19 C18 1_555 1_555
C19 C18 1_555 1_555
H20 C19 1_555 1_555
C20 H21 1_555 1_555
C21 C20 1_555 1_555
H22 C21 1_555 1_555
C22 C17 1_555 1_555
C23 C22 1_555 1_555
H23 C23 1_555 1_555
C24 C23 1_555 1_555
H24 C24 1_555 1_555
N1 C15 1_555 1_555
N2 C20 1_555 1_555
C25 H25 1_555 1_555
C26 C25 1_555 1_555
H26 C26 1_555 1_555
C27 C26 1_555 1_555
C28 C27 1_555 1_555
H27 C28 1_555 1_555
C29 C28 1_555 1_555
H28 C29 1_555 1_555
C30 H29 1_555 1_555
C31 C30 1_555 1_555
H30 C31 1_555 1_555
C32 C27 1_555 1_555
C33 C32 1_555 1_555
H31 C33 1_555 1_555
C34 C33 1_555 1_555
H32 C34 1_555 1_555
N3 C25 1_555 1_555
N4 C30 1_555 1_555
C35 H33 1_555 1_555
C36 C35 1_555 1_555
H34 C36 1_555 1_555
C37 C36 1_555 1_555
C38 C37 1_555 1_555
H35 C38 1_555 1_555
C39 C38 1_555 1_555
H36 C39 1_555 1_555
C40 H37 1_555 1_555
C41 C40 1_555 1_555
H38 C41 1_555 1_555
C42 C37 1_555 1_555
C43 C42 1_555 1_555
H39 C43 1_555 1_555
C44 C43 1_555 1_555
H40 C44 1_555 1_555
N5 C35 1_555 1_555
N6 C40 1_555 1_555
C5 C6 1_555 1_555
C12 C13 1_555 1_555
C19 N1 1_555 1_555
C21 C22 1_555 1_555
C24 N2 1_555 1_555
C29 N3 1_555 1_555
C31 C32 1_555 1_555
C34 N4 1_555 1_555
C39 N5 1_555 1_555
C41 C42 1_555 1_555
C44 N6 1_555 1_555

#END
