
#######################################################################
#
#                 Cambridge Crystallographic Data Centre
#                                CCDC 
#
#######################################################################
#
# If this CIF has been generated from an entry in the Cambridge 
# Structural Database, then it will include bibliographic, chemical, 
# crystal, experimental, refinement or atomic coordinate data resulting 
# from the CCDC's data processing and validation procedures.
#
#######################################################################

data_UBUMIQ
_chemical_formula_moiety         'C27 H23 N1 O3'
_chemical_name_systematic        
2,5-dimethyl-2'-oxo-1',2',4a,12c-tetrahydro-2H,5H-spiro[dibenzo[c,f]chromene-1,3'-indole]-3-carbaldehyde
_chemical_properties_biological  
'inhibitory activities against seven cancer cell lines'
_symmetry_cell_setting           orthorhombic
_symmetry_space_group_name_H-M   'P 21 21 21'
_symmetry_Int_Tables_number      19
_space_group_name_Hall           'P 2ac 2ab'
loop_
_symmetry_equiv_pos_site_id
_symmetry_equiv_pos_as_xyz
1 x,y,z
2 1/2-x,-y,1/2+z
3 -x,1/2+y,1/2-z
4 1/2+x,1/2-y,-z
_cell_length_a                   9.7858(2)
_cell_length_b                   11.2431(2)
_cell_length_c                   18.6578(3)
_cell_angle_alpha                90
_cell_angle_beta                 90
_cell_angle_gamma                90
_cell_volume                     2052.78
_exptl_crystal_colour            orange
_cell_formula_units_Z            4
loop_
_atom_site_label
_atom_site_type_symbol
_atom_site_fract_x
_atom_site_fract_y
_atom_site_fract_z
O1 O 0.0877(2) 0.1817(2) 0.64919(14)
O2 O 0.3978(3) 0.2502(2) 0.49354(14)
N1 N 0.5895(3) 0.3596(2) 0.52130(15)
H1 H 0.6485 0.3202 0.4968
C1 C 0.5039(3) 0.4999(2) 0.59645(13)
O3 O 0.1083(4) 0.7602(3) 0.6042(2)
C2 C 0.3278(3) 0.2371(3) 0.65131(15)
C3 C 0.3845(3) 0.4251(2) 0.57244(15)
C4 C 0.5110(3) 0.5970(3) 0.64143(16)
H2 H 0.4336 0.6247 0.6651
C5 C 0.1438(3) 0.3802(3) 0.61637(16)
H3 H 0.1325 0.3500 0.5675
C6 C 0.2238(4) 0.1537(3) 0.65031(17)
C7 C 0.1910(3) 0.5726(3) 0.56720(18)
C8 C 0.4626(3) 0.1956(3) 0.66728(16)
C9 C 0.4542(4) 0.3318(3) 0.52450(16)
C10 C 0.1160(3) 0.5100(3) 0.61324(18)
H4 H 0.0499 0.5456 0.6419
C11 C 0.6210(3) 0.4589(3) 0.56228(16)
C12 C 0.0545(3) 0.3037(3) 0.66383(18)
H5 H -0.0404 0.3163 0.6489
C13 C 0.6373(4) 0.6527(3) 0.65053(18)
H6 H 0.6441 0.7187 0.6804
C14 C 0.5683(3) 0.2732(3) 0.68949(18)
H7 H 0.5501 0.3541 0.6939
C15 C 0.7467(3) 0.5129(3) 0.5711(2)
H8 H 0.8243 0.4844 0.5480
C16 C 0.2975(3) 0.3666(3) 0.63480(13)
H9 H 0.3148 0.4124 0.6786
C17 C 0.2893(4) 0.5029(3) 0.52139(16)
H10 H 0.2339 0.4464 0.4938
C18 C 0.0627(4) 0.3302(4) 0.7433(2)
H11 H 0.0076 0.2742 0.7692
H12 H 0.0298 0.4093 0.7522
H13 H 0.1559 0.3241 0.7590
C19 C 0.4927(4) 0.0716(3) 0.66580(18)
C20 C 0.7524(3) 0.6109(3) 0.6157(2)
H14 H 0.8354 0.6496 0.6224
C21 C 0.6970(4) 0.2320(4) 0.7047(2)
H15 H 0.7633 0.2849 0.7207
C22 C 0.2528(4) 0.0304(3) 0.6501(2)
H16 H 0.1815 -0.0241 0.6471
C23 C 0.3706(5) 0.5751(4) 0.4667(2)
H17 H 0.4263 0.6324 0.4912
H18 H 0.3086 0.6155 0.4351
H19 H 0.4279 0.5227 0.4394
C24 C 0.3838(5) -0.0092(3) 0.6541(2)
H20 H 0.4022 -0.0900 0.6491
C25 C 0.7299(4) 0.1126(4) 0.6968(3)
H21 H 0.8189 0.0863 0.7039
C26 C 0.1790(5) 0.7028(4) 0.5649(3)
H22 H 0.2298 0.7434 0.5305
C27 C 0.6287(5) 0.0340(4) 0.6781(3)
H23 H 0.6501 -0.0462 0.6735
loop_
_geom_bond_atom_site_label_1
_geom_bond_atom_site_label_2
_geom_bond_site_symmetry_1
_geom_bond_site_symmetry_2
O1 C6 1_555 1_555
O2 C9 1_555 1_555
N1 H1 1_555 1_555
C1 C3 1_555 1_555
O3 C26 1_555 1_555
C2 C6 1_555 1_555
C3 C9 1_555 1_555
C4 C1 1_555 1_555
H2 C4 1_555 1_555
C5 H3 1_555 1_555
C6 C22 1_555 1_555
C7 C10 1_555 1_555
C8 C2 1_555 1_555
C9 N1 1_555 1_555
C10 C5 1_555 1_555
H4 C10 1_555 1_555
C11 N1 1_555 1_555
C12 O1 1_555 1_555
H5 C12 1_555 1_555
C13 C4 1_555 1_555
H6 C13 1_555 1_555
C14 C8 1_555 1_555
H7 C14 1_555 1_555
C15 C11 1_555 1_555
H8 C15 1_555 1_555
C16 C2 1_555 1_555
H9 C16 1_555 1_555
C17 C3 1_555 1_555
H10 C17 1_555 1_555
C18 C12 1_555 1_555
H11 C18 1_555 1_555
H12 C18 1_555 1_555
H13 C18 1_555 1_555
C19 C8 1_555 1_555
C20 C13 1_555 1_555
H14 C20 1_555 1_555
C21 C14 1_555 1_555
H15 C21 1_555 1_555
C22 H16 1_555 1_555
C23 C17 1_555 1_555
H17 C23 1_555 1_555
H18 C23 1_555 1_555
H19 C23 1_555 1_555
C24 C19 1_555 1_555
H20 C24 1_555 1_555
C25 C21 1_555 1_555
H21 C25 1_555 1_555
C26 C7 1_555 1_555
H22 C26 1_555 1_555
C27 C19 1_555 1_555
H23 C27 1_555 1_555
C1 C11 1_555 1_555
C3 C16 1_555 1_555
C5 C12 1_555 1_555
C5 C16 1_555 1_555
C7 C17 1_555 1_555
C15 C20 1_555 1_555
C22 C24 1_555 1_555
C25 C27 1_555 1_555

#END
