
#######################################################################
#
#                 Cambridge Crystallographic Data Centre
#                                CCDC 
#
#######################################################################
#
# If this CIF has been generated from an entry in the Cambridge 
# Structural Database, then it will include bibliographic, chemical, 
# crystal, experimental, refinement or atomic coordinate data resulting 
# from the CCDC's data processing and validation procedures.
#
#######################################################################

data_UCAYIH01
_chemical_formula_moiety         'C22 H20 O2'
_chemical_name_systematic        
trans-1,4-bis(phenylethynyl)cyclohexane-1,4-diol
_symmetry_cell_setting           triclinic
_symmetry_space_group_name_H-M   'P -1'
_symmetry_Int_Tables_number      2
_space_group_name_Hall           '-P 1'
loop_
_symmetry_equiv_pos_site_id
_symmetry_equiv_pos_as_xyz
1 x,y,z
2 -x,-y,-z
_cell_length_a                   9.4940(3)
_cell_length_b                   14.0677(5)
_cell_length_c                   14.4606(5)
_cell_angle_alpha                95.625(2)
_cell_angle_beta                 106.478(1)
_cell_angle_gamma                104.627(2)
_cell_volume                     1761.79
_exptl_crystal_colour            colorless
_exptl_crystal_description       Plate
_chemical_melting_point          '456 K'
_cell_formula_units_Z            4
_exptl_crystal_recrystallization_method acetone
loop_
_atom_site_label
_atom_site_type_symbol
_atom_site_fract_x
_atom_site_fract_y
_atom_site_fract_z
O1 O 0.41816(15) 0.44201(10) 0.36272(10)
H1 H 0.519(3) 0.4537(19) 0.4036(19)
O2 O 0.06788(18) 0.06580(12) 0.13141(12)
H2 H 0.131(3) 0.064(2) 0.101(2)
C1 C 0.3680(2) 0.35307(13) 0.29012(13)
C2 C 0.2039(2) 0.34479(15) 0.22768(14)
H3 H 0.1412 0.3495 0.2712
H4 H 0.2060 0.4014 0.1920
C3 C 0.1293(2) 0.24718(16) 0.15425(14)
H5 H 0.1851 0.2459 0.1060
H6 H 0.0219 0.2435 0.1183
C4 C 0.1300(2) 0.15624(15) 0.20385(14)
C5 C 0.2947(2) 0.16411(14) 0.26564(15)
H7 H 0.2931 0.1072 0.3009
H8 H 0.3571 0.1601 0.2218
C6 C 0.3684(2) 0.26190(14) 0.33969(13)
H9 H 0.4757 0.2657 0.3762
H10 H 0.3118 0.2627 0.3875
C7 C 0.4698(2) 0.36333(14) 0.22821(14)
C8 C 0.5485(2) 0.37585(15) 0.17647(14)
C9 C 0.0314(2) 0.14716(15) 0.26771(15)
C10 C -0.0420(2) 0.14106(15) 0.32302(15)
C11 C 0.6260(3) 0.4029(2) 0.10472(19)
C12 C 0.7429(3) 0.3612(2) 0.1017(2)
H11 H 0.7705 0.3183 0.1460
C13 C 0.8196(3) 0.3822(2) 0.0338(2)
H12 H 0.8995 0.3536 0.0317
C14 C 0.7792(4) 0.4449(2) -0.0310(2)
H13 H 0.8316 0.4592 -0.0773
C15 C 0.6622(4) 0.4866(2) -0.02793(19)
H14 H 0.6346 0.5295 -0.0722
C16 C 0.5856(3) 0.4656(2) 0.0399(2)
H15 H 0.5056 0.4941 0.0420
C29 C -0.1300(8) 0.1354(4) 0.3893(3)
C30 C -0.0588(5) 0.1318(3) 0.4866(3)
H26 H 0.0486 0.1403 0.5098
C31 C -0.1447(5) 0.1160(3) 0.5502(3)
H27 H -0.0960 0.1135 0.6167
C32 C -0.3017(5) 0.1037(4) 0.5163(4)
H28 H -0.3604 0.0929 0.5598
C33 C -0.3729(5) 0.1073(5) 0.4190(4)
H29 H -0.4802 0.0989 0.3959
C34 C -0.2870(8) 0.1231(5) 0.3555(3)
H30 H -0.3357 0.1256 0.2889
O3 O 0.21548(17) 0.02187(11) 0.00215(11)
H36 H 0.131(3) -0.0097(18) -0.0512(18)
C41 C 0.3521(2) 0.02618(14) -0.02370(14)
C42 C 0.4881(2) 0.07889(14) 0.06934(13)
H37 H 0.4871 0.1484 0.0871
H38 H 0.4766 0.0441 0.1243
C43 C 0.3581(2) -0.07990(14) -0.05486(14)
H39 H 0.3422 -0.1199 -0.0041
H40 H 0.2739 -0.1122 -0.1169
C44 C 0.3546(2) 0.08317(14) -0.10431(14)
C45 C 0.3567(2) 0.12819(15) -0.17003(15)
C46 C 0.3619(6) 0.1884(3) -0.2495(3)
C47 C 0.3766(7) 0.2899(3) -0.23168(18)
H41 H 0.3793 0.3210 -0.1696
C48 C 0.3872(6) 0.3459(3) -0.3048(2)
H42 H 0.3972 0.4153 -0.2926
C49 C 0.3832(5) 0.3004(3) -0.39564(19)
H43 H 0.3904 0.3387 -0.4456
C50 C 0.3685(3) 0.1989(3) -0.4134(2)
H44 H 0.3658 0.1678 -0.4755
C51 C 0.3579(4) 0.1429(2) -0.3404(3)
H45 H 0.3479 0.0735 -0.3525
O3A O 0.78452(17) -0.02187(11) -0.00215(11)
H36A H 0.869(3) 0.0097(18) 0.0512(18)
C41A C 0.6479(2) -0.02618(14) 0.02370(14)
C42A C 0.5119(2) -0.07889(14) -0.06934(13)
H37A H 0.5129 -0.1484 -0.0871
H38A H 0.5234 -0.0441 -0.1243
C43A C 0.6419(2) 0.07990(14) 0.05486(14)
H39A H 0.6578 0.1199 0.0041
H40A H 0.7261 0.1122 0.1169
C44A C 0.6454(2) -0.08317(14) 0.10431(14)
C45A C 0.6433(2) -0.12819(15) 0.17003(15)
C46A C 0.6381(6) -0.1884(3) 0.2495(3)
C47A C 0.6234(7) -0.2899(3) 0.23168(18)
H41A H 0.6207 -0.3210 0.1696
C48A C 0.6128(6) -0.3459(3) 0.3048(2)
H42A H 0.6028 -0.4153 0.2926
C49A C 0.6168(5) -0.3004(3) 0.39564(19)
H43A H 0.6096 -0.3387 0.4456
C50A C 0.6315(3) -0.1989(3) 0.4134(2)
H44A H 0.6342 -0.1678 0.4755
C51A C 0.6421(4) -0.1429(2) 0.3404(3)
H45A H 0.6521 -0.0735 0.3525
O4 O 0.29626(14) 0.50080(10) 0.50116(10)
H51 H 0.320(3) 0.4827(18) 0.4464(18)
C58 C 0.1466(2) 0.51600(14) 0.47573(14)
C59 C 0.1383(2) 0.57336(14) 0.56854(15)
H52 H 0.1649 0.5373 0.6234
H53 H 0.2147 0.6403 0.5861
C60 C 0.0217(2) 0.41466(14) 0.44526(15)
H54 H 0.0230 0.3791 0.3831
H55 H 0.0445 0.3735 0.4961
C61 C 0.1297(2) 0.57504(16) 0.39633(16)
C62 C 0.1185(2) 0.62502(18) 0.33401(19)
C63 C 0.1197(4) 0.7047(3) 0.2802(3)
C64 C 0.2424(3) 0.7359(3) 0.2449(3)
H56 H 0.3290 0.7116 0.2651
C65 C 0.2385(4) 0.8027(3) 0.1802(3)
H57 H 0.3224 0.8240 0.1561
C66 C 0.1119(4) 0.8383(3) 0.1506(3)
H58 H 0.1092 0.8839 0.1064
C67 C -0.0108(4) 0.8071(4) 0.1859(3)
H59 H -0.0973 0.8314 0.1657
C68 C -0.0069(4) 0.7403(4) 0.2507(3)
H60 H -0.0907 0.7190 0.2748
O4A O -0.29626(14) 0.49920(10) 0.49884(10)
H51A H -0.320(3) 0.5173(18) 0.5536(18)
C58A C -0.1466(2) 0.48400(14) 0.52427(14)
C59A C -0.1383(2) 0.42664(14) 0.43146(15)
H52A H -0.1649 0.4627 0.3766
H53A H -0.2147 0.3597 0.4139
C60A C -0.0217(2) 0.58534(14) 0.55474(15)
H54A H -0.0230 0.6209 0.6169
H55A H -0.0445 0.6265 0.5039
C61A C -0.1297(2) 0.42496(16) 0.60367(16)
C62A C -0.1185(2) 0.37498(18) 0.66599(19)
C63A C -0.1197(4) 0.2953(3) 0.7198(3)
C64A C -0.2424(3) 0.2641(3) 0.7551(3)
H56A H -0.3290 0.2884 0.7349
C65A C -0.2385(4) 0.1973(3) 0.8198(3)
H57A H -0.3224 0.1760 0.8439
C66A C -0.1119(4) 0.1617(3) 0.8494(3)
H58A H -0.1092 0.1161 0.8936
C67A C 0.0108(4) 0.1929(4) 0.8141(3)
H59A H 0.0973 0.1686 0.8343
C68A C 0.0069(4) 0.2597(4) 0.7493(3)
H60A H 0.0907 0.2810 0.7252
C17? C 0.6482(5) 0.3782(5) 0.1216(4)
C18? C 0.5837(5) 0.3389(4) 0.0219(4)
H16? H 0.4768 0.3053 -0.0051
C19? C 0.6755(6) 0.3488(5) -0.0384(3)
H17? H 0.6313 0.3219 -0.1066
C20? C 0.8319(6) 0.3980(5) 0.0011(4)
H18? H 0.8946 0.4047 -0.0401
C21? C 0.8965(4) 0.4373(5) 0.1008(4)
H19? H 1.0034 0.4709 0.1278
C22? C 0.8046(6) 0.4274(5) 0.1610(3)
H20? H 0.8488 0.4543 0.2292
C23? C 0.6559(7) 0.4021(4) 0.1155(4)
C24? C 0.6283(7) 0.3382(3) 0.0285(4)
H21? H 0.5504 0.2759 0.0111
C25? C 0.7148(8) 0.3655(4) -0.0329(4)
H22? H 0.6959 0.3218 -0.0924
C26? C 0.8288(7) 0.4566(5) -0.0074(4)
H23? H 0.8879 0.4752 -0.0494
C27? C 0.8564(6) 0.5205(4) 0.0796(4)
H24? H 0.9343 0.5828 0.0971
C28? C 0.7699(7) 0.4933(4) 0.1411(4)
H25? H 0.7887 0.5370 0.2005
C35? C -0.1243(10) 0.1201(5) 0.3952(4)
C36? C -0.0621(6) 0.0828(4) 0.4779(4)
H31? H 0.0334 0.0688 0.4878
C37? C -0.1396(7) 0.0659(4) 0.5459(4)
H32? H -0.0970 0.0404 0.6024
C38? C -0.2793(7) 0.0863(5) 0.5312(5)
H33? H -0.3323 0.0747 0.5776
C39? C -0.3416(7) 0.1236(6) 0.4485(6)
H34? H -0.4371 0.1375 0.4385
C40? C -0.2641(10) 0.1405(6) 0.3805(4)
H35? H -0.3066 0.1660 0.3240
C52? C 0.3612(19) 0.1814(11) -0.2393(10)
C53? C 0.411(2) 0.2843(12) -0.2073(7)
H46? H 0.4393 0.3112 -0.1396
C54? C 0.421(2) 0.3480(9) -0.2745(9)
H47? H 0.4552 0.4183 -0.2526
C55? C 0.3801(17) 0.3087(9) -0.3736(8)
H48? H 0.3866 0.3522 -0.4195
C56? C 0.3299(12) 0.2058(9) -0.4056(7)
H49? H 0.3020 0.1789 -0.4733
C57? C 0.3204(13) 0.1421(8) -0.3384(11)
H50? H 0.2861 0.0718 -0.3602
C69? C 0.0996(3) 0.68029(18) 0.25003(18)
C70? C 0.2270(2) 0.7562(2) 0.25156(17)
H61? H 0.3245 0.7638 0.2980
C71? C 0.2117(2) 0.82099(17) 0.18519(19)
H62? H 0.2988 0.8729 0.1862
C72? C 0.0690(3) 0.80984(19) 0.11729(18)
H63? H 0.0586 0.8541 0.0719
C73? C -0.0584(2) 0.7339(2) 0.1158(2)
H64? H -0.1559 0.7263 0.0693
C74? C -0.0431(2) 0.6691(2) 0.1821(2)
H65? H -0.1302 0.6172 0.1811
loop_
_geom_bond_atom_site_label_1
_geom_bond_atom_site_label_2
_geom_bond_site_symmetry_1
_geom_bond_site_symmetry_2
O1 H1 1_555 1_555
O2 H2 1_555 1_555
C1 O1 1_555 1_555
C2 C1 1_555 1_555
H3 C2 1_555 1_555
H4 C2 1_555 1_555
C3 C2 1_555 1_555
H5 C3 1_555 1_555
H6 C3 1_555 1_555
C4 O2 1_555 1_555
C5 C4 1_555 1_555
H7 C5 1_555 1_555
H8 C5 1_555 1_555
C6 C1 1_555 1_555
H9 C6 1_555 1_555
H10 C6 1_555 1_555
C7 C1 1_555 1_555
C8 C7 1_555 1_555
C9 C4 1_555 1_555
C10 C9 1_555 1_555
C11 C8 1_555 1_555
C12 C11 1_555 1_555
H11 C12 1_555 1_555
C13 C12 1_555 1_555
H12 C13 1_555 1_555
C14 C13 1_555 1_555
H13 C14 1_555 1_555
C15 C14 1_555 1_555
H14 C15 1_555 1_555
C16 C11 1_555 1_555
H15 C16 1_555 1_555
C29 C10 1_555 1_555
C30 C29 1_555 1_555
H26 C30 1_555 1_555
C31 C30 1_555 1_555
H27 C31 1_555 1_555
C32 C31 1_555 1_555
H28 C32 1_555 1_555
C33 C32 1_555 1_555
H29 C33 1_555 1_555
C34 C29 1_555 1_555
H30 C34 1_555 1_555
O3 H36 1_555 1_555
C41 O3 1_555 1_555
C42 C41 1_555 1_555
H37 C42 1_555 1_555
H38 C42 1_555 1_555
C43 C41 1_555 1_555
H39 C43 1_555 1_555
H40 C43 1_555 1_555
C44 C41 1_555 1_555
C45 C44 1_555 1_555
C46 C45 1_555 1_555
C47 C46 1_555 1_555
H41 C47 1_555 1_555
C48 C47 1_555 1_555
H42 C48 1_555 1_555
C49 C48 1_555 1_555
H43 C49 1_555 1_555
C50 C49 1_555 1_555
H44 C50 1_555 1_555
C51 C46 1_555 1_555
H45 C51 1_555 1_555
O4 H51 1_555 1_555
C58 O4 1_555 1_555
C59 C58 1_555 1_555
H52 C59 1_555 1_555
H53 C59 1_555 1_555
C60 C58 1_555 1_555
H54 C60 1_555 1_555
H55 C60 1_555 1_555
C61 C58 1_555 1_555
C62 C61 1_555 1_555
C63 C62 1_555 1_555
C64 C63 1_555 1_555
H56 C64 1_555 1_555
C65 C64 1_555 1_555
H57 C65 1_555 1_555
C66 C65 1_555 1_555
H58 C66 1_555 1_555
C67 C66 1_555 1_555
H59 C67 1_555 1_555
C68 C63 1_555 1_555
H60 C68 1_555 1_555
O3A H36A 1_555 1_555
C41A O3A 1_555 1_555
C42A C43 1_555 1_555
H37A C42A 1_555 1_555
H38A C42A 1_555 1_555
C43A C42 1_555 1_555
H39A C43A 1_555 1_555
H40A C43A 1_555 1_555
C44A C41A 1_555 1_555
C45A C44A 1_555 1_555
C46A C45A 1_555 1_555
C47A C46A 1_555 1_555
H41A C47A 1_555 1_555
C48A C47A 1_555 1_555
H42A C48A 1_555 1_555
C49A C48A 1_555 1_555
H43A C49A 1_555 1_555
C50A C49A 1_555 1_555
H44A C50A 1_555 1_555
C51A C46A 1_555 1_555
H45A C51A 1_555 1_555
O4A H51A 1_555 1_555
C58A O4A 1_555 1_555
C59A C60 1_555 1_555
H52A C59A 1_555 1_555
H53A C59A 1_555 1_555
C60A C59 1_555 1_555
H54A C60A 1_555 1_555
H55A C60A 1_555 1_555
C61A C58A 1_555 1_555
C62A C61A 1_555 1_555
C63A C62A 1_555 1_555
C64A C63A 1_555 1_555
H56A C64A 1_555 1_555
C65A C64A 1_555 1_555
H57A C65A 1_555 1_555
C66A C65A 1_555 1_555
H58A C66A 1_555 1_555
C67A C66A 1_555 1_555
H59A C67A 1_555 1_555
C68A C63A 1_555 1_555
H60A C68A 1_555 1_555
C3 C4 1_555 1_555
C5 C6 1_555 1_555
C15 C16 1_555 1_555
C33 C34 1_555 1_555
C50 C51 1_555 1_555
C67 C68 1_555 1_555
C41A C42A 1_555 1_555
C41A C43A 1_555 1_555
C50A C51A 1_555 1_555
C58A C59A 1_555 1_555
C58A C60A 1_555 1_555
C67A C68A 1_555 1_555

#END
