
#######################################################################
#
#                 Cambridge Crystallographic Data Centre
#                                CCDC 
#
#######################################################################
#
# If this CIF has been generated from an entry in the Cambridge 
# Structural Database, then it will include bibliographic, chemical, 
# crystal, experimental, refinement or atomic coordinate data resulting 
# from the CCDC's data processing and validation procedures.
#
#######################################################################

data_UCEBAG
_chemical_formula_moiety         'C42 H64 N6 O9'
_chemical_name_systematic        
all-N-methyl-(O-(benzyl)seryl)-valyl-alanyl-(O-(benzyl)seryl)-valyl-alanine
_symmetry_cell_setting           orthorhombic
_symmetry_space_group_name_H-M   'P 21 21 21'
_symmetry_Int_Tables_number      19
_space_group_name_Hall           'P 2ac 2ab'
loop_
_symmetry_equiv_pos_site_id
_symmetry_equiv_pos_as_xyz
1 x,y,z
2 1/2-x,-y,1/2+z
3 1/2+x,1/2-y,-z
4 -x,1/2+y,1/2-z
_cell_length_a                   6.1923(2)
_cell_length_b                   18.8230(8)
_cell_length_c                   38.868(2)
_cell_angle_alpha                90
_cell_angle_beta                 90
_cell_angle_gamma                90
_cell_volume                     4530.36
_exptl_crystal_colour            colorless
_exptl_crystal_description       plate
_cell_formula_units_Z            4
loop_
_atom_site_label
_atom_site_type_symbol
_atom_site_fract_x
_atom_site_fract_y
_atom_site_fract_z
O1 O 0.2762(14) -0.0484(4) 0.62691(17)
N1 N 0.4422(13) 0.1013(4) 0.57298(17)
N2 N 0.3084(12) 0.1176(4) 0.66160(19)
O2 O 0.0292(13) 0.0345(4) 0.89542(16)
O3 O 0.6311(13) 0.0849(5) 0.63965(16)
N3 N 0.3295(13) -0.0327(5) 0.89124(18)
C1 C 0.3329(15) 0.0682(5) 0.6026(2)
O4 O 0.1521(13) 0.1423(4) 0.74175(17)
O5 O 0.3124(14) -0.0616(4) 1.02395(16)
N4 N 0.2855(15) 0.0352(5) 0.73030(19)
C2 C 0.4065(16) 0.1372(5) 0.6953(2)
N5 N 0.4936(15) -0.0291(6) 0.9651(2)
N6 N 0.1646(14) 0.0496(5) 0.8200(2)
O6 O 0.5347(15) -0.1446(5) 0.9495(2)
O7 O 0.6126(12) -0.0665(4) 1.05419(18)
C3 C 0.2779(17) 0.0684(6) 0.8519(2)
C4 C 0.438(2) 0.0917(5) 0.6366(2)
C5 C 0.2711(17) 0.1056(6) 0.7239(2)
C6 C 0.203(2) 0.0214(6) 0.8818(2)
O8 O 0.4002(15) 0.1603(4) 0.8871(2)
C7 C 0.5431(16) -0.0485(6) 0.8759(2)
C8 C -0.186(2) -0.1219(6) 0.6655(3)
C9 C -0.240(2) -0.1675(7) 0.6908(4)
C10 C 0.2628(16) -0.0803(5) 0.9190(3)
C11 C 0.3666(18) -0.0110(5) 0.5994(2)
C12 C 0.252(2) 0.1459(6) 0.8603(3)
C13 C 0.010(2) -0.1246(6) 0.6498(3)
C14 C 0.0732(15) 0.1275(6) 0.6591(3)
C15 C 0.434(3) -0.0121(6) 0.7139(3)
C16 C 0.6388(19) -0.0399(7) 0.9946(3)
C17 C 0.513(2) -0.0567(6) 1.0268(3)
C18 C 0.153(2) -0.1743(7) 0.6608(3)
O9 O 0.4724(15) 0.0196(6) 0.79342(18)
C19 C 0.159(2) 0.0091(6) 0.7591(2)
C20 C 0.431(2) 0.2179(6) 0.7006(3)
C21 C 0.441(2) -0.0879(8) 0.9465(3)
C22 C 0.442(2) 0.1797(5) 0.5722(3)
C23 C 0.279(3) 0.0272(6) 0.7922(3)
C24 C 0.3724(19) 0.0368(6) 0.9630(2)
C25 C -0.100(3) -0.2161(7) 0.7026(3)
C26 C 0.570(3) 0.2456(9) 0.9240(3)
C27 C 0.739(3) 0.2011(8) 0.9288(3)
C28 C 0.104(3) -0.2207(7) 0.6876(4)
C29 C 0.198(2) -0.1543(6) 0.9062(4)
C30 C 0.399(2) 0.2286(8) 0.8976(4)
C31 C 0.584(2) 0.2299(6) 0.7316(3)
C32 C 0.069(2) -0.0732(7) 0.6212(3)
C33 C -0.0731(16) 0.0610(8) 0.8189(3)
C34 C 0.786(2) 0.0209(9) 0.9998(4)
C35 C 0.893(3) 0.2156(8) 0.9526(4)
C36 C 0.717(4) 0.3239(8) 0.9646(4)
C37 C 0.510(3) 0.2569(7) 0.6707(4)
C38 C 0.561(3) 0.3058(8) 0.9413(4)
C39 C 0.103(3) -0.0693(7) 0.7578(3)
C40 C 0.059(2) -0.1464(8) 0.8730(5)
C41 C 0.885(4) 0.2778(11) 0.9709(4)
C42 C 0.081(3) -0.1937(8) 0.9346(6)
H1 H 0.5904 0.0864 0.5729
H2 H 0.3733 0.0858 0.5522
H3 H 0.1823 0.0802 0.6019
H4 H 0.5504 0.1184 0.6964
H5 H 0.4287 0.0603 0.8477
H6 H 0.6019 -0.0896 0.8871
H7 H 0.6396 -0.0090 0.8789
H8 H 0.5254 -0.0581 0.8519
H9 H -0.2932 -0.0880 0.6583
H10 H -0.3791 -0.1668 0.7016
H11 H 0.1363 -0.0601 0.9294
H12 H 0.5192 -0.0200 0.5987
H13 H 0.3019 -0.0262 0.5782
H14 H 0.2780 0.1743 0.8402
H15 H 0.1061 0.1525 0.8679
H16 H 0.0263 0.1125 0.6367
H17 H 0.0407 0.1770 0.6621
H18 H -0.0004 0.1003 0.6764
H19 H 0.4157 -0.0591 0.7230
H20 H 0.5788 0.0038 0.7181
H21 H 0.4071 -0.0127 0.6895
H22 H 0.7280 -0.0800 0.9890
H23 H 0.2904 -0.1795 0.6495
H24 H 0.0214 0.0323 0.7598
H25 H 0.2915 0.2372 0.7060
H26 H 0.5158 0.1970 0.5521
H27 H 0.5129 0.1975 0.5924
H28 H 0.2951 0.1956 0.5719
H29 H 0.2815 0.0357 0.9430
H30 H 0.4730 0.0754 0.9610
H31 H 0.2851 0.0433 0.9831
H32 H -0.1318 -0.2466 0.7217
H33 H 0.7532 0.1586 0.9154
H34 H 0.2099 -0.2551 0.6946
H35 H 0.3265 -0.1798 0.9001
H36 H 0.4227 0.2590 0.8781
H37 H 0.2596 0.2385 0.9074
H38 H 0.5971 0.2799 0.7360
H39 H 0.7230 0.2105 0.7262
H40 H 0.5267 0.2066 0.7516
H41 H -0.0303 -0.0339 0.6215
H42 H 0.0587 -0.0973 0.5995
H43 H -0.1245 0.0470 0.7966
H44 H -0.1077 0.1101 0.8229
H45 H -0.1409 0.0323 0.8362
H46 H 0.8849 0.0122 1.0184
H47 H 0.6990 0.0615 1.0051
H48 H 0.8666 0.0297 0.9791
H49 H 1.0056 0.1811 0.9558
H50 H 0.7057 0.3678 0.9770
H51 H 0.5142 0.3071 0.6750
H52 H 0.4236 0.2476 0.6507
H53 H 0.6546 0.2398 0.6668
H54 H 0.4458 0.3390 0.9375
H55 H 0.0150 -0.0824 0.7772
H56 H 0.2384 -0.0937 0.7590
H57 H 0.0295 -0.0821 0.7369
H58 H 0.0230 -0.1922 0.8637
H59 H 0.1360 -0.1193 0.8561
H60 H -0.0715 -0.1218 0.8792
H61 H 0.9928 0.2899 0.9876
H62 H 0.0368 -0.2394 0.9262
H63 H -0.0441 -0.1671 0.9415
H64 H 0.1754 -0.1996 0.9539
loop_
_geom_bond_atom_site_label_1
_geom_bond_atom_site_label_2
_geom_bond_site_symmetry_1
_geom_bond_site_symmetry_2
O1 C11 1_555 1_555
N1 C1 1_555 1_555
N2 C2 1_555 1_555
O2 C6 1_555 1_555
O3 C4 1_555 1_555
N3 C6 1_555 1_555
C1 C4 1_555 1_555
O4 C5 1_555 1_555
O5 C17 1_555 1_555
N4 C5 1_555 1_555
C2 C5 1_555 1_555
N5 C16 1_555 1_555
N6 C3 1_555 1_555
O6 C21 1_555 1_555
O7 C17 1_555 1_555
C3 C6 1_555 1_555
C4 N2 1_555 1_555
O8 C12 1_555 1_555
C7 N3 1_555 1_555
C8 C9 1_555 1_555
C9 C25 1_555 1_555
C10 N3 1_555 1_555
C11 C1 1_555 1_555
C12 C3 1_555 1_555
C13 C8 1_555 1_555
C14 N2 1_555 1_555
C15 N4 1_555 1_555
C16 C17 1_555 1_555
C18 C13 1_555 1_555
O9 C23 1_555 1_555
C19 N4 1_555 1_555
C20 C2 1_555 1_555
C21 N5 1_555 1_555
C22 N1 1_555 1_555
C23 N6 1_555 1_555
C24 N5 1_555 1_555
C25 C28 1_555 1_555
C26 C27 1_555 1_555
C27 C35 1_555 1_555
C28 C18 1_555 1_555
C29 C10 1_555 1_555
C30 O8 1_555 1_555
C31 C20 1_555 1_555
C32 O1 1_555 1_555
C33 N6 1_555 1_555
C34 C16 1_555 1_555
C35 C41 1_555 1_555
C36 C38 1_555 1_555
C37 C20 1_555 1_555
C38 C26 1_555 1_555
C39 C19 1_555 1_555
C40 C29 1_555 1_555
C41 C36 1_555 1_555
C42 C29 1_555 1_555
H1 N1 1_555 1_555
H2 N1 1_555 1_555
H3 C1 1_555 1_555
H4 C2 1_555 1_555
H5 C3 1_555 1_555
H6 C7 1_555 1_555
H7 C7 1_555 1_555
H8 C7 1_555 1_555
H9 C8 1_555 1_555
H10 C9 1_555 1_555
H11 C10 1_555 1_555
H12 C11 1_555 1_555
H13 C11 1_555 1_555
H14 C12 1_555 1_555
H15 C12 1_555 1_555
H16 C14 1_555 1_555
H17 C14 1_555 1_555
H18 C14 1_555 1_555
H19 C15 1_555 1_555
H20 C15 1_555 1_555
H21 C15 1_555 1_555
H22 C16 1_555 1_555
H23 C18 1_555 1_555
H24 C19 1_555 1_555
H25 C20 1_555 1_555
H26 C22 1_555 1_555
H27 C22 1_555 1_555
H28 C22 1_555 1_555
H29 C24 1_555 1_555
H30 C24 1_555 1_555
H31 C24 1_555 1_555
H32 C25 1_555 1_555
H33 C27 1_555 1_555
H34 C28 1_555 1_555
H35 C29 1_555 1_555
H36 C30 1_555 1_555
H37 C30 1_555 1_555
H38 C31 1_555 1_555
H39 C31 1_555 1_555
H40 C31 1_555 1_555
H41 C32 1_555 1_555
H42 C32 1_555 1_555
H43 C33 1_555 1_555
H44 C33 1_555 1_555
H45 C33 1_555 1_555
H46 C34 1_555 1_555
H47 C34 1_555 1_555
H48 C34 1_555 1_555
H49 C35 1_555 1_555
H50 C36 1_555 1_555
H51 C37 1_555 1_555
H52 C37 1_555 1_555
H53 C37 1_555 1_555
H54 C38 1_555 1_555
H55 C39 1_555 1_555
H56 C39 1_555 1_555
H57 C39 1_555 1_555
H58 C40 1_555 1_555
H59 C40 1_555 1_555
H60 C40 1_555 1_555
H61 C41 1_555 1_555
H62 C42 1_555 1_555
H63 C42 1_555 1_555
H64 C42 1_555 1_555
C10 C21 1_555 1_555
C13 C32 1_555 1_555
C19 C23 1_555 1_555
C26 C30 1_555 1_555

#END
