
#######################################################################
#
#                 Cambridge Crystallographic Data Centre
#                                CCDC 
#
#######################################################################
#
# If this CIF has been generated from an entry in the Cambridge 
# Structural Database, then it will include bibliographic, chemical, 
# crystal, experimental, refinement or atomic coordinate data resulting 
# from the CCDC's data processing and validation procedures.
#
#######################################################################

data_UCEDAH
_chemical_formula_moiety         'C12 H9 N3'
_chemical_name_systematic        1-(2-Pyridyl)-7-azaindole
_symmetry_cell_setting           monoclinic
_symmetry_space_group_name_H-M   'P 21/c'
_symmetry_Int_Tables_number      14
_space_group_name_Hall           '-P 2ybc'
loop_
_symmetry_equiv_pos_site_id
_symmetry_equiv_pos_as_xyz
1 x,y,z
2 -x,1/2+y,1/2-z
3 -x,-y,-z
4 x,1/2-y,1/2+z
_cell_length_a                   13.993(5)
_cell_length_b                   8.456(3)
_cell_length_c                   16.886(5)
_cell_angle_alpha                90
_cell_angle_beta                 104.666(12)
_cell_angle_gamma                90
_cell_volume                     1932.93
_exptl_crystal_colour            colorless
_chemical_melting_point          '58 deg.C'
_cell_formula_units_Z            8
_exptl_crystal_preparation       luminescent
loop_
_atom_site_label
_atom_site_type_symbol
_atom_site_fract_x
_atom_site_fract_y
_atom_site_fract_z
N1 N 0.3191(2) 0.2296(4) 0.4307(2)
C1 C 0.3983(3) 0.3022(6) 0.4793(3)
N2 N 0.1512(2) 0.1492(4) 0.4269(2)
C2 C 0.4022(4) 0.3653(6) 0.5556(3)
C3 C 0.3212(4) 0.3536(5) 0.5875(3)
N3 N 0.0345(2) -0.0066(4) 0.3408(2)
C4 C 0.2371(3) 0.2795(5) 0.5407(2)
C5 C 0.1401(3) 0.2420(6) 0.5492(3)
C6 C 0.0915(3) 0.1651(5) 0.4822(3)
C7 C 0.2417(3) 0.2203(5) 0.4636(2)
C8 C 0.1224(3) 0.0639(5) 0.3528(2)
C9 C 0.1811(3) 0.0539(5) 0.2980(2)
C10 C 0.1465(4) -0.0337(6) 0.2275(3)
C11 C 0.0565(4) -0.1093(6) 0.2148(3)
C12 C 0.0037(4) -0.0908(6) 0.2718(3)
H1 H 0.4551(26) 0.3085(43) 0.4561(21)
H2 H 0.4625(29) 0.4095(47) 0.5879(23)
H3 H 0.3252(25) 0.3941(42) 0.6408(21)
H4 H 0.1181(28) 0.2592(48) 0.5985(24)
H5 H 0.0298(27) 0.1145(45) 0.4633(22)
H6 H 0.2431(24) 0.1170(39) 0.3062(19)
H7 H 0.1847(26) -0.0417(44) 0.1897(21)
H8 H 0.0378(27) -0.1631(45) 0.1656(23)
H9 H -0.0665(30) -0.1429(48) 0.2642(23)
N4 N 0.4573(2) 0.5393(4) 0.1150(2)
N5 N 0.2899(2) 0.5961(4) 0.1226(2)
N6 N 0.1672(2) 0.7590(4) 0.0476(2)
C13 C 0.5399(3) 0.4615(5) 0.1550(3)
C14 C 0.5500(4) 0.3783(6) 0.2266(3)
C15 C 0.4718(4) 0.3705(5) 0.2634(3)
C16 C 0.3852(3) 0.4474(5) 0.2247(2)
C17 C 0.2905(3) 0.4694(5) 0.2405(3)
C18 C 0.2359(3) 0.5562(6) 0.1793(3)
C19 C 0.3836(3) 0.5276(4) 0.1515(2)
C20 C 0.2536(3) 0.6882(4) 0.0505(2)
C21 C 0.3034(3) 0.7007(5) -0.0097(2)
C22 C 0.2631(4) 0.7929(6) -0.0766(3)
C23 C 0.1741(4) 0.8666(6) -0.0829(3)
C24 C 0.1294(4) 0.8455(6) -0.0203(3)
H10 H 0.5982(29) 0.4727(47) 0.1301(22)
H11 H 0.6119(30) 0.3315(49) 0.2533(24)
H12 H 0.4782(29) 0.3100(50) 0.3153(25)
H13 H 0.2697(25) 0.4238(42) 0.2839(21)
H14 H 0.1722(26) 0.5911(42) 0.1675(20)
H15 H 0.3637(28) 0.6441(45) -0.0022(22)
H16 H 0.2969(26) 0.8040(44) -0.1204(22)
H17 H 0.1406(29) 0.9265(49) -0.1311(25)
H18 H 0.0669(29) 0.8916(48) -0.0210(22)
loop_
_geom_bond_atom_site_label_1
_geom_bond_atom_site_label_2
_geom_bond_site_symmetry_1
_geom_bond_site_symmetry_2
N1 C1 1_555 1_555
C1 C2 1_555 1_555
N2 C6 1_555 1_555
C2 C3 1_555 1_555
C3 C4 1_555 1_555
N3 C8 1_555 1_555
C4 C5 1_555 1_555
C5 C6 1_555 1_555
C6 H5 1_555 1_555
N4 C13 1_555 1_555
C7 N1 1_555 1_555
N5 C18 1_555 1_555
C8 N2 1_555 1_555
C9 C8 1_555 1_555
N6 C20 1_555 1_555
C10 C9 1_555 1_555
C11 C10 1_555 1_555
C12 N3 1_555 1_555
C13 C14 1_555 1_555
C14 C15 1_555 1_555
C15 C16 1_555 1_555
C16 C17 1_555 1_555
C17 C18 1_555 1_555
C18 H14 1_555 1_555
C19 N4 1_555 1_555
C20 N5 1_555 1_555
C21 C20 1_555 1_555
C22 C21 1_555 1_555
C23 C22 1_555 1_555
C24 N6 1_555 1_555
H1 C1 1_555 1_555
H2 C2 1_555 1_555
H3 C3 1_555 1_555
H4 C5 1_555 1_555
H6 C9 1_555 1_555
H7 C10 1_555 1_555
H8 C11 1_555 1_555
H9 C12 1_555 1_555
H10 C13 1_555 1_555
H11 C14 1_555 1_555
H12 C15 1_555 1_555
H13 C17 1_555 1_555
H15 C21 1_555 1_555
H16 C22 1_555 1_555
H17 C23 1_555 1_555
H18 C24 1_555 1_555
N2 C7 1_555 1_555
C4 C7 1_555 1_555
N5 C19 1_555 1_555
C11 C12 1_555 1_555
C16 C19 1_555 1_555
C23 C24 1_555 1_555

#END
