
#######################################################################
#
#                 Cambridge Crystallographic Data Centre
#                                CCDC 
#
#######################################################################
#
# If this CIF has been generated from an entry in the Cambridge 
# Structural Database, then it will include bibliographic, chemical, 
# crystal, experimental, refinement or atomic coordinate data resulting 
# from the CCDC's data processing and validation procedures.
#
#######################################################################

data_UCEHUI
_chemical_formula_moiety         'C22 H22 N6'
_chemical_name_systematic        
1,10-dibenzyl-1,4,5,6,7,10-hexahydro[1,2,3]triazolo[4',5':3,4]cycloocta[1,2-d][1,2,3]triazole
_symmetry_cell_setting           triclinic
_symmetry_space_group_name_H-M   'P -1'
_symmetry_Int_Tables_number      2
_space_group_name_Hall           '-P 1'
loop_
_symmetry_equiv_pos_site_id
_symmetry_equiv_pos_as_xyz
1 x,y,z
2 -x,-y,-z
_cell_length_a                   9.077(4)
_cell_length_b                   10.503(4)
_cell_length_c                   11.236(4)
_cell_angle_alpha                71.951(5)
_cell_angle_beta                 88.879(4)
_cell_angle_gamma                67.801(4)
_cell_volume                     937.187
_exptl_crystal_colour            colorless
_exptl_crystal_description       irregular
_cell_formula_units_Z            2
loop_
_atom_site_label
_atom_site_type_symbol
_atom_site_fract_x
_atom_site_fract_y
_atom_site_fract_z
C1 C 0.50483(13) 0.71980(12) 0.27464(10)
H1 H 0.5042 0.6351 0.2611
C2 C 0.58063(13) 0.70811(13) 0.38621(11)
H2 H 0.6309 0.6157 0.4490
C3 C 0.58266(14) 0.83180(14) 0.40561(11)
H3 H 0.6335 0.8240 0.4821
C4 C 0.51057(15) 0.96658(14) 0.31349(12)
H4 H 0.5140 1.0507 0.3264
C5 C 0.43294(14) 0.97927(12) 0.20174(11)
H5 H 0.3826 1.0719 0.1392
C6 C 0.42961(12) 0.85571(12) 0.18238(10)
C7 C 0.34397(12) 0.86613(12) 0.06322(10)
H6 H 0.3221 0.9621 -0.0011
H7 H 0.4133 0.7899 0.0294
C8 C 0.14276(12) 0.74344(11) 0.07957(10)
C9 C -0.00333(12) 0.77451(11) 0.12683(10)
C10 C 0.22873(12) 0.62113(11) 0.03622(10)
C11 C 0.25813(13) 0.47507(11) 0.09221(10)
C12 C 0.28449(13) 0.75781(12) -0.18174(10)
H8 H 0.3944 0.7483 -0.2007
H9 H 0.2343 0.8462 -0.1572
C13 C 0.18918(13) 0.77475(11) -0.29880(10)
C14 C 0.02259(13) 0.84043(12) -0.31132(10)
H10 H -0.0304 0.8724 -0.2458
C15 C -0.06654(14) 0.85935(13) -0.41969(11)
H11 H -0.1801 0.9036 -0.4276
C16 C 0.00995(16) 0.81377(13) -0.51604(11)
H12 H -0.0510 0.8272 -0.5900
C17 C 0.17572(16) 0.74848(14) -0.50398(11)
H13 H 0.2283 0.7172 -0.5698
C18 C 0.26556(15) 0.72860(13) -0.39546(11)
H14 H 0.3791 0.6835 -0.3875
C19 C -0.10118(13) 0.68418(12) 0.15029(11)
H15 H -0.0937 0.6415 0.0821
H16 H -0.2149 0.7468 0.1492
C20 C -0.04332(14) 0.56084(13) 0.27834(11)
H17 H -0.0791 0.6038 0.3460
H18 H -0.0964 0.4930 0.2825
C21 C 0.13824(14) 0.47300(12) 0.30528(11)
H19 H 0.1907 0.5402 0.3055
H20 H 0.1613 0.4010 0.3910
C22 C 0.21500(15) 0.39189(13) 0.21328(12)
H21 H 0.3138 0.3083 0.2586
H22 H 0.1408 0.3516 0.1913
N1 N 0.19229(10) 0.84785(9) 0.08893(8)
N2 N 0.08187(11) 0.93983(10) 0.13723(8)
N3 N -0.03742(11) 0.89525(10) 0.16102(8)
N4 N 0.34125(11) 0.40266(10) 0.01437(9)
N5 N 0.36166(11) 0.49684(10) -0.08732(9)
N6 N 0.29271(11) 0.62932(10) -0.07558(8)
loop_
_geom_bond_atom_site_label_1
_geom_bond_atom_site_label_2
_geom_bond_site_symmetry_1
_geom_bond_site_symmetry_2
C1 H1 1_555 1_555
C2 C1 1_555 1_555
H2 C2 1_555 1_555
C3 C2 1_555 1_555
H3 C3 1_555 1_555
C4 C3 1_555 1_555
H4 C4 1_555 1_555
C5 C4 1_555 1_555
H5 C5 1_555 1_555
C6 C1 1_555 1_555
C7 C6 1_555 1_555
H6 C7 1_555 1_555
H7 C7 1_555 1_555
C8 C9 1_555 1_555
C9 C19 1_555 1_555
C10 C8 1_555 1_555
C11 C10 1_555 1_555
C12 H8 1_555 1_555
H9 C12 1_555 1_555
C13 C12 1_555 1_555
C14 C13 1_555 1_555
H10 C14 1_555 1_555
C15 C14 1_555 1_555
H11 C15 1_555 1_555
C16 C15 1_555 1_555
H12 C16 1_555 1_555
C17 C16 1_555 1_555
H13 C17 1_555 1_555
C18 C13 1_555 1_555
H14 C18 1_555 1_555
C19 H15 1_555 1_555
H16 C19 1_555 1_555
C20 C19 1_555 1_555
H17 C20 1_555 1_555
H18 C20 1_555 1_555
C21 C20 1_555 1_555
H19 C21 1_555 1_555
H20 C21 1_555 1_555
C22 C11 1_555 1_555
H21 C22 1_555 1_555
H22 C22 1_555 1_555
N1 C7 1_555 1_555
N2 N1 1_555 1_555
N3 C9 1_555 1_555
N4 C11 1_555 1_555
N5 N4 1_555 1_555
N6 C10 1_555 1_555
C5 C6 1_555 1_555
C8 N1 1_555 1_555
C12 N6 1_555 1_555
C17 C18 1_555 1_555
C21 C22 1_555 1_555
N2 N3 1_555 1_555
N5 N6 1_555 1_555

#END
