
#######################################################################
#
#                 Cambridge Crystallographic Data Centre
#                                CCDC 
#
#######################################################################
#
# If this CIF has been generated from an entry in the Cambridge 
# Structural Database, then it will include bibliographic, chemical, 
# crystal, experimental, refinement or atomic coordinate data resulting 
# from the CCDC's data processing and validation procedures.
#
#######################################################################

data_UCEJUK
_chemical_formula_moiety         'C30 H24 N6 O2,C2 H3 N1'
_chemical_name_systematic        
"3,3'-bis(4-methoxyphenyl)-5,5'-diphenyl-3H,3'H-4,4'-bi-1,2,3-triazole acetonitrile solvate"
_symmetry_cell_setting           triclinic
_symmetry_space_group_name_H-M   'P -1'
_symmetry_Int_Tables_number      2
_space_group_name_Hall           '-P 1'
loop_
_symmetry_equiv_pos_site_id
_symmetry_equiv_pos_as_xyz
1 x,y,z
2 -x,-y,-z
_cell_length_a                   10.074(4)
_cell_length_b                   12.014(4)
_cell_length_c                   13.149(5)
_cell_angle_alpha                63.293(4)
_cell_angle_beta                 83.120(4)
_cell_angle_gamma                76.074(4)
_cell_volume                     1379.72
_exptl_crystal_colour            colorless
_exptl_crystal_description       rectangular
_cell_formula_units_Z            2
loop_
_atom_site_label
_atom_site_type_symbol
_atom_site_fract_x
_atom_site_fract_y
_atom_site_fract_z
C1 C 0.19600(11) 0.34982(10) 0.33074(8)
H1 H 0.1451 0.3999 0.3670
C2 C 0.27062(11) 0.22805(10) 0.39643(9)
H2 H 0.2700 0.1956 0.4770
C3 C 0.34596(11) 0.15384(10) 0.34461(9)
H3 H 0.3967 0.0708 0.3894
C4 C 0.34636(11) 0.20232(10) 0.22642(9)
H4 H 0.3978 0.1520 0.1905
C5 C 0.27201(11) 0.32387(10) 0.16054(9)
H5 H 0.2732 0.3561 0.0800
C6 C 0.19531(10) 0.39906(9) 0.21221(8)
C7 C 0.11631(10) 0.52740(9) 0.14156(8)
C8 C 0.02875(9) 0.61613(9) 0.17203(8)
C9 C -0.11192(10) 0.83350(9) 0.05199(8)
C10 C -0.09235(10) 0.91184(9) 0.09805(8)
H6 H -0.0135 0.8894 0.1418
C11 C -0.18877(10) 1.02377(9) 0.07996(8)
H7 H -0.1762 1.0777 0.1116
C12 C -0.30393(10) 1.05596(9) 0.01499(8)
C13 C -0.32155(11) 0.97722(10) -0.03237(9)
H8 H -0.3993 1.0000 -0.0775
C14 C -0.22602(11) 0.86612(10) -0.01375(9)
H9 H -0.2382 0.8123 -0.0456
C15 C -0.37891(13) 1.25745(11) 0.01929(13)
H10 H -0.3657 1.2233 0.1013
H11 H -0.4562 1.3307 -0.0046
H12 H -0.2959 1.2845 -0.0218
C16 C -0.33645(11) 0.45021(10) 0.39748(9)
H13 H -0.3342 0.4480 0.4704
C17 C -0.42945(11) 0.39422(11) 0.37699(9)
H14 H -0.4905 0.3542 0.4359
C18 C -0.43381(11) 0.39631(10) 0.27078(9)
H15 H -0.4975 0.3580 0.2569
C19 C -0.34395(11) 0.45504(10) 0.18505(9)
H16 H -0.3462 0.4563 0.1125
C20 C -0.25080(10) 0.51193(10) 0.20463(9)
H17 H -0.1904 0.5522 0.1453
C21 C -0.24570(9) 0.51012(9) 0.31135(8)
C22 C -0.14904(9) 0.56848(9) 0.33711(8)
C23 C -0.03284(9) 0.61083(8) 0.28027(8)
C24 C 0.12739(10) 0.71340(9) 0.33063(8)
C25 C 0.10657(10) 0.81920(10) 0.35362(9)
H18 H 0.0185 0.8526 0.3754
C26 C 0.21563(11) 0.87471(10) 0.34428(10)
H19 H 0.2025 0.9464 0.3601
C27 C 0.34531(10) 0.82572(9) 0.31158(8)
C28 C 0.36531(10) 0.72086(9) 0.28784(8)
H20 H 0.4530 0.6883 0.2647
C29 C 0.25549(10) 0.66394(9) 0.29827(8)
H21 H 0.2685 0.5917 0.2833
C30 C 0.58352(11) 0.83007(10) 0.29152(10)
H22 H 0.6055 0.7438 0.3535
H23 H 0.6451 0.8808 0.2939
H24 H 0.5948 0.8255 0.2183
N1 N 0.12087(9) 0.57824(8) 0.02503(7)
N2 N 0.04210(9) 0.69280(8) -0.01780(7)
N3 N -0.01422(8) 0.71734(8) 0.07075(7)
N4 N -0.16760(8) 0.58981(8) 0.43224(7)
N5 N -0.07020(8) 0.64231(8) 0.43711(7)
N6 N 0.01317(8) 0.65542(7) 0.34570(7)
O1 O -0.40633(8) 1.16145(7) -0.00557(7)
O2 O 0.44493(7) 0.88865(7) 0.30443(7)
C31 C 0.84536(15) 0.10765(12) 0.34040(11)
C32 C 0.93586(16) 0.18961(14) 0.33104(14)
H25 H 1.0175 0.1378 0.3767
H26 H 0.8882 0.2521 0.3589
H27 H 0.9629 0.2342 0.2512
N7 N 0.77564(16) 0.04289(13) 0.34658(13)
loop_
_geom_bond_atom_site_label_1
_geom_bond_atom_site_label_2
_geom_bond_site_symmetry_1
_geom_bond_site_symmetry_2
C1 H1 1_555 1_555
C2 C1 1_555 1_555
H2 C2 1_555 1_555
C3 C2 1_555 1_555
H3 C3 1_555 1_555
C4 C3 1_555 1_555
H4 C4 1_555 1_555
C5 C4 1_555 1_555
H5 C5 1_555 1_555
C6 C1 1_555 1_555
C7 C6 1_555 1_555
C8 C7 1_555 1_555
C9 C10 1_555 1_555
C10 H6 1_555 1_555
C11 C10 1_555 1_555
H7 C11 1_555 1_555
C12 C11 1_555 1_555
C13 C12 1_555 1_555
H8 C13 1_555 1_555
C14 C9 1_555 1_555
H9 C14 1_555 1_555
C15 H10 1_555 1_555
H11 C15 1_555 1_555
H12 C15 1_555 1_555
C16 H13 1_555 1_555
C17 C16 1_555 1_555
H14 C17 1_555 1_555
C18 C17 1_555 1_555
H15 C18 1_555 1_555
C19 C18 1_555 1_555
H16 C19 1_555 1_555
C20 C19 1_555 1_555
H17 C20 1_555 1_555
C21 C16 1_555 1_555
C22 C21 1_555 1_555
C23 C8 1_555 1_555
C24 C25 1_555 1_555
C25 H18 1_555 1_555
C26 C25 1_555 1_555
H19 C26 1_555 1_555
C27 C26 1_555 1_555
C28 C27 1_555 1_555
H20 C28 1_555 1_555
C29 C24 1_555 1_555
H21 C29 1_555 1_555
C30 H22 1_555 1_555
H23 C30 1_555 1_555
H24 C30 1_555 1_555
N1 C7 1_555 1_555
N2 N1 1_555 1_555
N3 C8 1_555 1_555
N4 C22 1_555 1_555
N5 N4 1_555 1_555
N6 C23 1_555 1_555
O1 C12 1_555 1_555
O2 C27 1_555 1_555
C31 C32 1_555 1_555
C32 H25 1_555 1_555
H26 C32 1_555 1_555
H27 C32 1_555 1_555
N7 C31 1_555 1_555
C5 C6 1_555 1_555
C9 N3 1_555 1_555
C13 C14 1_555 1_555
C15 O1 1_555 1_555
C20 C21 1_555 1_555
C22 C23 1_555 1_555
C24 N6 1_555 1_555
C28 C29 1_555 1_555
C30 O2 1_555 1_555
N2 N3 1_555 1_555
N5 N6 1_555 1_555

#END
