
#######################################################################
#
#                 Cambridge Crystallographic Data Centre
#                                CCDC 
#
#######################################################################
#
# If this CIF has been generated from an entry in the Cambridge 
# Structural Database, then it will include bibliographic, chemical, 
# crystal, experimental, refinement or atomic coordinate data resulting 
# from the CCDC's data processing and validation procedures.
#
#######################################################################

data_UCEZUA
_chemical_formula_moiety         'C50 H68 N2 O12 2+,5(H2 O1),2(I1 1-)'
_chemical_name_systematic        
"4,4'-[c-2,t-4-bis(2,3,5,6,8,9,11,12,14,15-decahydro-1,4,7,10,13,16-benzohexaoxacyclooctadecin-18-yl)cyclobutane-r-1,t-3-diyl]bis(1-ethylpyridin-1-ium) bis(iodide) pentahydrate"
_symmetry_cell_setting           monoclinic
_symmetry_space_group_name_H-M   'P 21/c'
_symmetry_Int_Tables_number      14
_space_group_name_Hall           '-P 2ybc'
loop_
_symmetry_equiv_pos_site_id
_symmetry_equiv_pos_as_xyz
1 x,y,z
2 -x,1/2+y,1/2-z
3 -x,-y,-z
4 x,1/2-y,1/2+z
_cell_length_a                   13.502(17)
_cell_length_b                   27.31(3)
_cell_length_c                   15.45(2)
_cell_angle_alpha                90
_cell_angle_beta                 90.00(5)
_cell_angle_gamma                90
_cell_volume                     5697.03
_exptl_crystal_colour            yellowish
_exptl_crystal_description       plate
_cell_formula_units_Z            4
_exptl_crystal_recrystallization_method water
loop_
_atom_site_label
_atom_site_type_symbol
_atom_site_fract_x
_atom_site_fract_y
_atom_site_fract_z
O1 O 0.5111(10) 0.2867(5) 0.3203(10)
O2 O 0.3368(11) 0.2272(5) 0.3039(11)
O3 O 0.2529(11) 0.2479(5) 0.1359(11)
O4 O 0.3318(13) 0.3292(7) 0.0286(13)
O5 O 0.4583(12) 0.4030(5) 0.0947(12)
O6 O 0.5529(8) 0.3692(4) 0.2440(8)
N1 N 0.2936(13) 0.3887(6) 0.3344(12)
C1 C 0.2791(16) 0.3811(8) 0.4188(14)
H1 H 0.2510 0.3514 0.4393
C2 C 0.3076(17) 0.4192(9) 0.4772(17)
H2 H 0.2890 0.4179 0.5365
C3 C 0.3645(16) 0.4595(8) 0.4450(16)
C4 C 0.3660(16) 0.4645(8) 0.3503(15)
H3 H 0.3932 0.4926 0.3231
C5 C 0.3286(17) 0.4288(7) 0.3054(15)
H4 H 0.3271 0.4331 0.2444
C6 C 0.4212(15) 0.4881(6) 0.5076(13)
H5 H 0.3836 0.4935 0.5625
C7 C 0.5255(15) 0.4631(6) 0.5247(12)
H6 H 0.5361 0.4588 0.5883
C8 C 0.5453(16) 0.4149(7) 0.4777(14)
C9 C 0.5263(15) 0.3702(7) 0.5176(15)
H7 H 0.5198 0.3697 0.5789
C10 C 0.5160(16) 0.3249(8) 0.4723(15)
H8 H 0.5044 0.2950 0.5021
C11 C 0.5239(15) 0.3264(6) 0.3804(13)
C12 C 0.5526(14) 0.3723(6) 0.3377(12)
C13 C 0.5625(14) 0.4146(7) 0.3811(12)
H9 H 0.5799 0.4439 0.3515
C14 C 0.4892(17) 0.2376(7) 0.3657(15)
H10 H 0.5513 0.2206 0.3815
H11 H 0.4493 0.2428 0.4187
C15 C 0.4325(16) 0.2090(7) 0.3003(15)
H12 H 0.4610 0.2135 0.2418
H13 H 0.4333 0.1736 0.3146
C16 C 0.2706(15) 0.1968(7) 0.2585(14)
H14 H 0.2021 0.2057 0.2751
H15 H 0.2819 0.1625 0.2768
C17 C 0.2794(19) 0.1996(8) 0.1606(18)
H16 H 0.3481 0.1923 0.1424
H17 H 0.2345 0.1755 0.1331
C18 C 0.248(2) 0.2514(10) 0.039(2)
H18 H 0.3093 0.2379 0.0123
H19 H 0.1905 0.2332 0.0160
C19 C 0.239(2) 0.3046(10) 0.0196(19)
H20 H 0.2140 0.3090 -0.0402
H21 H 0.1901 0.3194 0.0596
C20 C 0.3309(19) 0.3804(9) 0.0001(18)
H22 H 0.2873 0.4001 0.0381
H23 H 0.3057 0.3827 -0.0599
C21 C 0.438(2) 0.3996(9) 0.005(2)
H24 H 0.4841 0.3767 -0.0239
H25 H 0.4433 0.4321 -0.0233
C22 C 0.5606(15) 0.4082(7) 0.1004(13)
H26 H 0.5829 0.4376 0.0685
H27 H 0.5945 0.3791 0.0762
C23 C 0.5821(14) 0.4133(6) 0.1980(11)
H28 H 0.6537 0.4193 0.2068
H29 H 0.5453 0.4417 0.2214
C24 C 0.2660(19) 0.3489(10) 0.264(2)
H30 H 0.2630 0.3641 0.2060
H31 H 0.3167 0.3227 0.2630
C25 C 0.1648(18) 0.3274(9) 0.2881(19)
H32 H 0.1468 0.3019 0.2463
H33 H 0.1147 0.3533 0.2871
H34 H 0.1681 0.3131 0.3462
O1B O 0.4889(10) 0.7133(5) 0.6797(10)
O2B O 0.6632(11) 0.7728(5) 0.6961(11)
O3B O 0.7471(11) 0.7521(5) 0.8641(11)
O4B O 0.6682(13) 0.6708(7) 0.9714(13)
O5B O 0.5417(12) 0.5970(5) 0.9053(12)
O6B O 0.4471(8) 0.6308(4) 0.7560(8)
N1B N 0.7064(13) 0.6113(6) 0.6656(12)
C1B C 0.7209(16) 0.6189(8) 0.5812(14)
H1B H 0.7490 0.6486 0.5607
C2B C 0.6924(17) 0.5808(9) 0.5228(17)
H2B H 0.7110 0.5821 0.4635
C3B C 0.6355(16) 0.5405(8) 0.5550(16)
C4B C 0.6340(16) 0.5355(8) 0.6497(15)
H3B H 0.6068 0.5074 0.6769
C5B C 0.6714(17) 0.5712(7) 0.6946(15)
H4B H 0.6729 0.5669 0.7556
C6B C 0.5788(15) 0.5119(6) 0.4924(13)
H5B H 0.6164 0.5065 0.4375
C7B C 0.4745(15) 0.5369(6) 0.4753(12)
H6B H 0.4639 0.5412 0.4117
C8B C 0.4547(16) 0.5851(7) 0.5223(14)
C9B C 0.4737(15) 0.6298(7) 0.4824(15)
H7B H 0.4802 0.6303 0.4211
C10B C 0.4840(16) 0.6751(8) 0.5277(15)
H8B H 0.4956 0.7050 0.4979
C11B C 0.4761(15) 0.6736(6) 0.6196(13)
C12B C 0.4474(14) 0.6277(6) 0.6623(12)
C13B C 0.4375(14) 0.5854(7) 0.6189(12)
H9B H 0.4201 0.5561 0.6485
C14B C 0.5108(17) 0.7624(7) 0.6343(15)
H10B H 0.4487 0.7794 0.6185
H11B H 0.5507 0.7572 0.5813
C15B C 0.5675(16) 0.7910(7) 0.6997(15)
H12B H 0.5390 0.7865 0.7582
H13B H 0.5667 0.8264 0.6854
C16B C 0.7294(15) 0.8032(7) 0.7415(14)
H14B H 0.7979 0.7943 0.7249
H15B H 0.7181 0.8375 0.7232
C17B C 0.7206(19) 0.8004(8) 0.8394(18)
H16B H 0.6519 0.8077 0.8576
H17B H 0.7655 0.8245 0.8669
C18B C 0.752(2) 0.7486(10) 0.961(2)
H18B H 0.6907 0.7621 0.9877
H19B H 0.8095 0.7668 0.9840
C19B C 0.761(2) 0.6954(10) 0.9804(19)
H20B H 0.7860 0.6910 1.0402
H21B H 0.8099 0.6806 0.9404
C20B C 0.6691(19) 0.6196(9) 0.9999(18)
H22B H 0.7127 0.5999 0.9619
H23B H 0.6943 0.6173 1.0599
C21B C 0.562(2) 0.6004(9) 0.995(2)
H24B H 0.5159 0.6233 1.0239
H25B H 0.5567 0.5679 1.0233
C22B C 0.4394(15) 0.5918(7) 0.8996(13)
H26B H 0.4171 0.5624 0.9315
H27B H 0.4055 0.6209 0.9238
C23B C 0.4179(14) 0.5867(6) 0.8020(11)
H28B H 0.3463 0.5807 0.7932
H29B H 0.4547 0.5583 0.7786
C24B C 0.7340(19) 0.6511(10) 0.736(2)
H30B H 0.7370 0.6359 0.7940
H31B H 0.6833 0.6773 0.7370
C25B C 0.8352(18) 0.6726(9) 0.7119(19)
H32B H 0.8532 0.6981 0.7537
H33B H 0.8853 0.6467 0.7129
H34B H 0.8319 0.6869 0.6538
I2 I 0.41685(13) 0.43963(5) 0.75733(9)
I2B I 0.58315(13) 0.56037(5) 0.24267(9)
I3 I 0.88870(14) 0.05694(6) 0.77226(14)
O7 O 1.0076(11) 0.2121(5) 0.1933(11)
O8 O 0.8300(11) 0.2729(5) 0.2374(11)
O9 O 0.7474(12) 0.2584(6) 0.4217(11)
O10 O 0.8330(12) 0.1821(6) 0.5114(11)
O11 O 0.9544(11) 0.1020(5) 0.4315(12)
O12 O 1.0491(11) 0.1282(5) 0.2646(10)
N2 N 0.7468(17) 0.0840(8) 0.2039(13)
C26 C 0.7435(19) 0.0987(9) 0.1185(18)
H35 H 0.7088 0.1277 0.1038
C27 C 0.7917(18) 0.0708(9) 0.0505(18)
H36 H 0.7827 0.0792 -0.0086
C28 C 0.850(2) 0.0324(9) 0.0737(18)
C29 C 0.8477(16) 0.0187(8) 0.1654(15)
H37 H 0.8819 -0.0100 0.1829
C30 C 0.7963(14) 0.0463(7) 0.2295(15)
H38 H 0.7985 0.0372 0.2888
C31 C 0.9155(16) 0.0086(7) 0.0012(14)
H39 H 0.8752 0.0034 -0.0523
C32 C 1.0183(17) 0.0395(9) -0.0221(18)
H40 H 1.0207 0.0470 -0.0854
C33 C 1.0349(15) 0.0848(7) 0.0288(14)
C34 C 1.0152(17) 0.1319(8) -0.0028(16)
H41 H 1.0027 0.1351 -0.0631
C35 C 1.0123(16) 0.1748(8) 0.0477(14)
H42 H 1.0080 0.2055 0.0190
C36 C 1.0150(18) 0.1743(8) 0.1285(16)
C37 C 1.0381(13) 0.1291(6) 0.1746(11)
C38 C 1.0520(16) 0.0850(7) 0.1269(15)
H43 H 1.0718 0.0558 0.1556
C39 C 0.9821(16) 0.2605(8) 0.1560(15)
H44 H 0.9357 0.2567 0.1068
H45 H 1.0423 0.2775 0.1354
C40 C 0.9313(14) 0.2903(7) 0.2326(14)
H46 H 0.9662 0.2841 0.2879
H47 H 0.9328 0.3258 0.2204
C41 C 0.7658(16) 0.3060(7) 0.2952(14)
H48 H 0.7759 0.3401 0.2754
H49 H 0.6957 0.2977 0.2834
C42 C 0.779(2) 0.3058(10) 0.390(2)
H50 H 0.8490 0.3116 0.4052
H51 H 0.7381 0.3319 0.4168
C43 C 0.745(2) 0.2579(9) 0.5203(19)
H52 H 0.8055 0.2725 0.5449
H53 H 0.6863 0.2761 0.5423
C44 C 0.7372(17) 0.2050(8) 0.5417(18)
H54 H 0.6800 0.1899 0.5117
H55 H 0.7288 0.2004 0.6049
C45 C 0.839(2) 0.1309(9) 0.5427(19)
H56 H 0.7858 0.1110 0.5156
H57 H 0.8296 0.1300 0.6063
C46 C 0.942(2) 0.1102(10) 0.518(2)
H58 H 0.9930 0.1333 0.5384
H59 H 0.9516 0.0789 0.5497
C47 C 1.0546(17) 0.0916(8) 0.4082(15)
H60 H 1.0772 0.0616 0.4383
H61 H 1.0980 0.1190 0.4261
C48 C 1.0618(17) 0.0840(7) 0.3055(14)
H62 H 1.1274 0.0702 0.2904
H63 H 1.0102 0.0607 0.2863
C49 C 0.6942(19) 0.1187(8) 0.2713(17)
H64 H 0.6350 0.1339 0.2448
H65 H 0.6729 0.0997 0.3226
C50 C 0.7639(17) 0.1559(8) 0.2966(16)
H66 H 0.7412 0.1716 0.3500
H67 H 0.7691 0.1805 0.2506
H68 H 0.8289 0.1409 0.3064
O7B O 0.9924(11) -0.2121(5) -0.1933(11)
O8B O 1.1700(11) -0.2729(5) -0.2374(11)
O9B O 1.2526(12) -0.2584(6) -0.4217(11)
O10B O 1.1670(12) -0.1821(6) -0.5114(11)
O11B O 1.0456(11) -0.1020(5) -0.4315(12)
O12B O 0.9509(11) -0.1282(5) -0.2646(10)
N2B N 1.2532(17) -0.0840(8) -0.2039(13)
C26B C 1.2565(19) -0.0987(9) -0.1185(18)
H35B H 1.2912 -0.1277 -0.1038
C27B C 1.2083(18) -0.0708(9) -0.0505(18)
H36B H 1.2173 -0.0792 0.0086
C28B C 1.150(2) -0.0324(9) -0.0737(18)
C29B C 1.1523(16) -0.0187(8) -0.1654(15)
H37B H 1.1181 0.0100 -0.1829
C30B C 1.2037(14) -0.0463(7) -0.2295(15)
H38B H 1.2015 -0.0372 -0.2888
C31B C 1.0845(16) -0.0086(7) -0.0012(14)
H39B H 1.1248 -0.0034 0.0523
C32B C 0.9817(17) -0.0395(9) 0.0221(18)
H40B H 0.9793 -0.0470 0.0854
C33B C 0.9651(15) -0.0848(7) -0.0288(14)
C34B C 0.9848(17) -0.1319(8) 0.0028(16)
H41B H 0.9973 -0.1351 0.0631
C35B C 0.9877(16) -0.1748(8) -0.0477(14)
H42B H 0.9920 -0.2055 -0.0190
C36B C 0.9850(18) -0.1743(8) -0.1285(16)
C37B C 0.9619(13) -0.1291(6) -0.1746(11)
C38B C 0.9480(16) -0.0850(7) -0.1269(15)
H43B H 0.9282 -0.0558 -0.1556
C39B C 1.0179(16) -0.2605(8) -0.1560(15)
H44B H 1.0643 -0.2567 -0.1068
H45B H 0.9577 -0.2775 -0.1354
C40B C 1.0687(14) -0.2903(7) -0.2326(14)
H46B H 1.0338 -0.2841 -0.2879
H47B H 1.0672 -0.3258 -0.2204
C41B C 1.2342(16) -0.3060(7) -0.2952(14)
H48B H 1.2241 -0.3401 -0.2754
H49B H 1.3043 -0.2977 -0.2834
C42B C 1.221(2) -0.3058(10) -0.390(2)
H50B H 1.1510 -0.3116 -0.4052
H51B H 1.2619 -0.3319 -0.4168
C43B C 1.255(2) -0.2579(9) -0.5203(19)
H52B H 1.1945 -0.2725 -0.5449
H53B H 1.3137 -0.2761 -0.5423
C44B C 1.2628(17) -0.2050(8) -0.5417(18)
H54B H 1.3200 -0.1899 -0.5117
H55B H 1.2712 -0.2004 -0.6049
C45B C 1.161(2) -0.1309(9) -0.5427(19)
H56B H 1.2142 -0.1110 -0.5156
H57B H 1.1704 -0.1300 -0.6063
C46B C 1.058(2) -0.1102(10) -0.518(2)
H58B H 1.0070 -0.1333 -0.5384
H59B H 1.0484 -0.0789 -0.5497
C47B C 0.9454(17) -0.0916(8) -0.4082(15)
H60B H 0.9228 -0.0616 -0.4383
H61B H 0.9020 -0.1190 -0.4261
C48B C 0.9382(17) -0.0840(7) -0.3055(14)
H62B H 0.8726 -0.0702 -0.2904
H63B H 0.9898 -0.0607 -0.2863
C49B C 1.3058(19) -0.1187(8) -0.2713(17)
H64B H 1.3650 -0.1339 -0.2448
H65B H 1.3271 -0.0997 -0.3226
C50B C 1.2361(17) -0.1559(8) -0.2966(16)
H66B H 1.2588 -0.1716 -0.3500
H67B H 1.2309 -0.1805 -0.2506
H68B H 1.1711 -0.1409 -0.3064
O13 O 0.4984(13) 0.2817(6) 0.1125(13)
O14 O 1.0025(14) 0.2181(5) 0.3996(14)
O15 O 0.7587(13) 0.0035(6) 0.6044(15)
O16 O 0.1408(14) 0.4310(7) 0.1690(14)
O17 O 0.8165(18) 0.0153(9) 0.4220(14)
I1? I 0.4177(10) 0.4401(4) 0.6254(7)
I4? I 0.8983(6) 0.0584(3) 0.6808(5)
loop_
_geom_bond_atom_site_label_1
_geom_bond_atom_site_label_2
_geom_bond_site_symmetry_1
_geom_bond_site_symmetry_2
O1 C11 1_555 1_555
O2 C15 1_555 1_555
O3 C17 1_555 1_555
O4 C19 1_555 1_555
O5 C21 1_555 1_555
O6 C12 1_555 1_555
N1 C1 1_555 1_555
C1 H1 1_555 1_555
C2 C1 1_555 1_555
H2 C2 1_555 1_555
C3 C2 1_555 1_555
C4 C3 1_555 1_555
H3 C4 1_555 1_555
C5 N1 1_555 1_555
H4 C5 1_555 1_555
C6 C3 1_555 1_555
H5 C6 1_555 1_555
C7 C6 1_555 1_555
H6 C7 1_555 1_555
C8 C7 1_555 1_555
C9 C8 1_555 1_555
H7 C9 1_555 1_555
C10 C9 1_555 1_555
H8 C10 1_555 1_555
C11 C10 1_555 1_555
C12 C11 1_555 1_555
C13 C8 1_555 1_555
H9 C13 1_555 1_555
C14 O1 1_555 1_555
H10 C14 1_555 1_555
H11 C14 1_555 1_555
C15 C14 1_555 1_555
H12 C15 1_555 1_555
H13 C15 1_555 1_555
C16 O2 1_555 1_555
H14 C16 1_555 1_555
H15 C16 1_555 1_555
C17 C16 1_555 1_555
H16 C17 1_555 1_555
H17 C17 1_555 1_555
C18 O3 1_555 1_555
H18 C18 1_555 1_555
H19 C18 1_555 1_555
C19 C18 1_555 1_555
H20 C19 1_555 1_555
H21 C19 1_555 1_555
C20 O4 1_555 1_555
H22 C20 1_555 1_555
H23 C20 1_555 1_555
C21 C20 1_555 1_555
H24 C21 1_555 1_555
H25 C21 1_555 1_555
C22 O5 1_555 1_555
H26 C22 1_555 1_555
H27 C22 1_555 1_555
C23 O6 1_555 1_555
H28 C23 1_555 1_555
H29 C23 1_555 1_555
C24 N1 1_555 1_555
H30 C24 1_555 1_555
H31 C24 1_555 1_555
C25 C24 1_555 1_555
H32 C25 1_555 1_555
H33 C25 1_555 1_555
H34 C25 1_555 1_555
O7 C36 1_555 1_555
O8 C40 1_555 1_555
O9 C42 1_555 1_555
O10 C44 1_555 1_555
O11 C46 1_555 1_555
O12 C37 1_555 1_555
N2 C26 1_555 1_555
C26 H35 1_555 1_555
C27 C26 1_555 1_555
H36 C27 1_555 1_555
C28 C27 1_555 1_555
C29 C28 1_555 1_555
H37 C29 1_555 1_555
C30 N2 1_555 1_555
H38 C30 1_555 1_555
C31 C28 1_555 1_555
H39 C31 1_555 1_555
C32 C31 1_555 1_555
H40 C32 1_555 1_555
C33 C32 1_555 1_555
C34 C33 1_555 1_555
H41 C34 1_555 1_555
C35 C34 1_555 1_555
H42 C35 1_555 1_555
C36 C35 1_555 1_555
C37 C36 1_555 1_555
C38 C33 1_555 1_555
H43 C38 1_555 1_555
C39 O7 1_555 1_555
H44 C39 1_555 1_555
H45 C39 1_555 1_555
C40 C39 1_555 1_555
H46 C40 1_555 1_555
H47 C40 1_555 1_555
C41 O8 1_555 1_555
H48 C41 1_555 1_555
H49 C41 1_555 1_555
C42 C41 1_555 1_555
H50 C42 1_555 1_555
H51 C42 1_555 1_555
C43 O9 1_555 1_555
H52 C43 1_555 1_555
H53 C43 1_555 1_555
C44 C43 1_555 1_555
H54 C44 1_555 1_555
H55 C44 1_555 1_555
C45 O10 1_555 1_555
H56 C45 1_555 1_555
H57 C45 1_555 1_555
C46 C45 1_555 1_555
H58 C46 1_555 1_555
H59 C46 1_555 1_555
C47 O11 1_555 1_555
H60 C47 1_555 1_555
H61 C47 1_555 1_555
C48 O12 1_555 1_555
H62 C48 1_555 1_555
H63 C48 1_555 1_555
C49 N2 1_555 1_555
H64 C49 1_555 1_555
H65 C49 1_555 1_555
C50 C49 1_555 1_555
H66 C50 1_555 1_555
H67 C50 1_555 1_555
H68 C50 1_555 1_555
O1B C11B 1_555 1_555
O2B C15B 1_555 1_555
O3B C17B 1_555 1_555
O4B C19B 1_555 1_555
O5B C21B 1_555 1_555
O6B C12B 1_555 1_555
N1B C1B 1_555 1_555
C1B H1B 1_555 1_555
C2B C1B 1_555 1_555
H2B C2B 1_555 1_555
C3B C2B 1_555 1_555
C4B C3B 1_555 1_555
H3B C4B 1_555 1_555
C5B N1B 1_555 1_555
H4B C5B 1_555 1_555
C6B C7 1_555 1_555
H5B C6B 1_555 1_555
C7B C6 1_555 1_555
H6B C7B 1_555 1_555
C8B C7B 1_555 1_555
C9B C8B 1_555 1_555
H7B C9B 1_555 1_555
C10B C9B 1_555 1_555
H8B C10B 1_555 1_555
C11B C10B 1_555 1_555
C12B C11B 1_555 1_555
C13B C8B 1_555 1_555
H9B C13B 1_555 1_555
C14B O1B 1_555 1_555
H10B C14B 1_555 1_555
H11B C14B 1_555 1_555
C15B C14B 1_555 1_555
H12B C15B 1_555 1_555
H13B C15B 1_555 1_555
C16B O2B 1_555 1_555
H14B C16B 1_555 1_555
H15B C16B 1_555 1_555
C17B C16B 1_555 1_555
H16B C17B 1_555 1_555
H17B C17B 1_555 1_555
C18B O3B 1_555 1_555
H18B C18B 1_555 1_555
H19B C18B 1_555 1_555
C19B C18B 1_555 1_555
H20B C19B 1_555 1_555
H21B C19B 1_555 1_555
C20B O4B 1_555 1_555
H22B C20B 1_555 1_555
H23B C20B 1_555 1_555
C21B C20B 1_555 1_555
H24B C21B 1_555 1_555
H25B C21B 1_555 1_555
C22B O5B 1_555 1_555
H26B C22B 1_555 1_555
H27B C22B 1_555 1_555
C23B O6B 1_555 1_555
H28B C23B 1_555 1_555
H29B C23B 1_555 1_555
C24B N1B 1_555 1_555
H30B C24B 1_555 1_555
H31B C24B 1_555 1_555
C25B C24B 1_555 1_555
H32B C25B 1_555 1_555
H33B C25B 1_555 1_555
H34B C25B 1_555 1_555
O7B C36B 1_555 1_555
O8B C40B 1_555 1_555
O9B C42B 1_555 1_555
O10B C44B 1_555 1_555
O11B C46B 1_555 1_555
O12B C37B 1_555 1_555
N2B C26B 1_555 1_555
C26B H35B 1_555 1_555
C27B C26B 1_555 1_555
H36B C27B 1_555 1_555
C28B C27B 1_555 1_555
C29B C28B 1_555 1_555
H37B C29B 1_555 1_555
C30B N2B 1_555 1_555
H38B C30B 1_555 1_555
C31B C32 1_555 1_555
H39B C31B 1_555 1_555
C32B C31 1_555 1_555
H40B C32B 1_555 1_555
C33B C32B 1_555 1_555
C34B C33B 1_555 1_555
H41B C34B 1_555 1_555
C35B C34B 1_555 1_555
H42B C35B 1_555 1_555
C36B C35B 1_555 1_555
C37B C36B 1_555 1_555
C38B C33B 1_555 1_555
H43B C38B 1_555 1_555
C39B O7B 1_555 1_555
H44B C39B 1_555 1_555
H45B C39B 1_555 1_555
C40B C39B 1_555 1_555
H46B C40B 1_555 1_555
H47B C40B 1_555 1_555
C41B O8B 1_555 1_555
H48B C41B 1_555 1_555
H49B C41B 1_555 1_555
C42B C41B 1_555 1_555
H50B C42B 1_555 1_555
H51B C42B 1_555 1_555
C43B O9B 1_555 1_555
H52B C43B 1_555 1_555
H53B C43B 1_555 1_555
C44B C43B 1_555 1_555
H54B C44B 1_555 1_555
H55B C44B 1_555 1_555
C45B O10B 1_555 1_555
H56B C45B 1_555 1_555
H57B C45B 1_555 1_555
C46B C45B 1_555 1_555
H58B C46B 1_555 1_555
H59B C46B 1_555 1_555
C47B O11B 1_555 1_555
H60B C47B 1_555 1_555
H61B C47B 1_555 1_555
C48B O12B 1_555 1_555
H62B C48B 1_555 1_555
H63B C48B 1_555 1_555
C49B N2B 1_555 1_555
H64B C49B 1_555 1_555
H65B C49B 1_555 1_555
C50B C49B 1_555 1_555
H66B C50B 1_555 1_555
H67B C50B 1_555 1_555
H68B C50B 1_555 1_555
C4 C5 1_555 1_555
C12 C13 1_555 1_555
C22 C23 1_555 1_555
C29 C30 1_555 1_555
C37 C38 1_555 1_555
C47 C48 1_555 1_555
C3B C6B 1_555 1_555
C4B C5B 1_555 1_555
C6B C7B 1_555 1_555
C12B C13B 1_555 1_555
C22B C23B 1_555 1_555
C28B C31B 1_555 1_555
C29B C30B 1_555 1_555
C31B C32B 1_555 1_555
C37B C38B 1_555 1_555
C47B C48B 1_555 1_555

#END
