
#######################################################################
#
#                 Cambridge Crystallographic Data Centre
#                                CCDC 
#
#######################################################################
#
# If this CIF has been generated from an entry in the Cambridge 
# Structural Database, then it will include bibliographic, chemical, 
# crystal, experimental, refinement or atomic coordinate data resulting 
# from the CCDC's data processing and validation procedures.
#
#######################################################################

data_UCOGAV
_chemical_formula_moiety         'C10 H9 N2 1+,H1 O4 S1 1-'
_chemical_name_systematic        "2,2'-Bipyridinium hydrogen sulfate"
_symmetry_cell_setting           monoclinic
_symmetry_space_group_name_H-M   'P 21/c'
_symmetry_Int_Tables_number      14
_space_group_name_Hall           '-P 2ybc'
loop_
_symmetry_equiv_pos_site_id
_symmetry_equiv_pos_as_xyz
1 x,y,z
2 -x,1/2+y,1/2-z
3 -x,-y,-z
4 x,1/2-y,1/2+z
_cell_length_a                   12.8274(4)
_cell_length_b                   4.4774(2)
_cell_length_c                   18.2844(5)
_cell_angle_alpha                90
_cell_angle_beta                 100.568(2)
_cell_angle_gamma                90
_cell_volume                     1032.32
_exptl_crystal_colour            pink
_exptl_crystal_description       plate
_chemical_melting_point          '418 K'
_cell_formula_units_Z            4
loop_
_atom_site_label
_atom_site_type_symbol
_atom_site_fract_x
_atom_site_fract_y
_atom_site_fract_z
N1 N 0.33239(17) 0.2531(5) 0.32521(11)
C1 C 0.28089(19) 0.2546(6) 0.38388(13)
C2 C 0.3176(2) 0.0668(6) 0.44311(14)
C3 C 0.4037(2) -0.1188(6) 0.44003(14)
C4 C 0.4546(2) -0.1106(6) 0.37940(14)
C5 C 0.4165(2) 0.0815(6) 0.32194(14)
N2 N 0.16619(17) 0.6042(5) 0.31266(12)
C6 C 0.19049(19) 0.4625(6) 0.37810(14)
C7 C 0.1372(2) 0.5108(6) 0.43683(15)
C8 C 0.0539(2) 0.7108(7) 0.42632(16)
C9 C 0.0270(2) 0.8579(6) 0.35880(16)
C10 C 0.0862(2) 0.8002(6) 0.30398(15)
H1 H 0.3090 0.3717 0.2874
H2 H 0.2844 0.0646 0.4855
H3 H 0.4278 -0.2525 0.4799
H4 H 0.5143 -0.2343 0.3776
H5 H 0.4501 0.0919 0.2798
H6 H 0.1576 0.4091 0.4828
H7 H 0.0153 0.7472 0.4651
H8 H -0.0304 0.9950 0.3503
H9 H 0.0690 0.9047 0.2581
S1 S 0.28324(5) 0.72539(14) 0.13661(3)
O1 O 0.20959(16) 0.9688(4) 0.16231(11)
O2 O 0.34670(14) 0.6073(4) 0.20444(10)
O3 O 0.34452(15) 0.8727(4) 0.08819(10)
O4 O 0.21062(15) 0.4977(4) 0.09861(10)
H10 H 0.2159 1.1593 0.1414
loop_
_geom_bond_atom_site_label_1
_geom_bond_atom_site_label_2
_geom_bond_site_symmetry_1
_geom_bond_site_symmetry_2
N1 C1 1_555 1_555
C1 C2 1_555 1_555
C2 C3 1_555 1_555
C3 C4 1_555 1_555
C4 C5 1_555 1_555
C5 N1 1_555 1_555
N2 C6 1_555 1_555
C6 C1 1_555 1_555
C7 C6 1_555 1_555
C8 C7 1_555 1_555
C9 C8 1_555 1_555
C10 N2 1_555 1_555
S1 O1 1_555 1_555
O1 H10 1_555 1_555
O2 S1 1_555 1_555
O3 S1 1_555 1_555
O4 S1 1_555 1_555
H1 N1 1_555 1_555
H2 C2 1_555 1_555
H3 C3 1_555 1_555
H4 C4 1_555 1_555
H5 C5 1_555 1_555
H6 C7 1_555 1_555
H7 C8 1_555 1_555
H8 C9 1_555 1_555
H9 C10 1_555 1_555
C9 C10 1_555 1_555

#END
