
#######################################################################
#
#                 Cambridge Crystallographic Data Centre
#                                CCDC 
#
#######################################################################
#
# If this CIF has been generated from an entry in the Cambridge 
# Structural Database, then it will include bibliographic, chemical, 
# crystal, experimental, refinement or atomic coordinate data resulting 
# from the CCDC's data processing and validation procedures.
#
#######################################################################

data_UCOHAY
_chemical_formula_moiety         'C28 H19 B1 N4 O3'
_chemical_name_systematic        
(methanolato)-(12-nitro-2,7-diphenyl-16,17,18-triazatetracyclo[11.2.1.1^3,6^.1^8,11^]octadeca-1(16),2,4,6,8,10,12,14-octaenato)-boron
_symmetry_cell_setting           triclinic
_symmetry_space_group_name_H-M   'P -1'
_symmetry_Int_Tables_number      2
_space_group_name_Hall           '-P 1'
loop_
_symmetry_equiv_pos_site_id
_symmetry_equiv_pos_as_xyz
1 x,y,z
2 -x,-y,-z
_cell_length_a                   9.943(3)
_cell_length_b                   9.971(3)
_cell_length_c                   12.372(4)
_cell_angle_alpha                113.244(7)
_cell_angle_beta                 101.922(2)
_cell_angle_gamma                94.166(13)
_cell_volume                     1086.38
_exptl_crystal_colour            orange
_exptl_crystal_description       prism
_cell_formula_units_Z            2
loop_
_atom_site_label
_atom_site_type_symbol
_atom_site_fract_x
_atom_site_fract_y
_atom_site_fract_z
O1 O 0.22751(13) 0.51178(16) 0.10761(11)
O2 O 0.04464(13) 0.34925(16) -0.01166(12)
N1 N 0.36926(13) 0.50300(17) -0.18065(13)
O3 O 0.39983(12) 0.26560(14) -0.31985(11)
N2 N 0.16343(14) 0.33055(17) -0.31322(13)
N3 N 0.30590(14) 0.45021(17) -0.39200(13)
N4 N 0.15469(15) 0.42933(18) 0.00531(14)
C1 C 0.20119(18) 0.4234(2) -0.09870(16)
C2 C 0.39934(17) 0.5693(2) -0.37348(16)
C3 C -0.02437(17) 0.2373(2) -0.63618(16)
C4 C 0.20813(17) 0.4019(2) -0.50092(15)
C5 C -0.08784(18) 0.0892(2) -0.67789(16)
H1 H -0.0611 0.0358 -0.6304
C6 C 0.08401(17) 0.3050(2) -0.51959(16)
C7 C 0.5597(2) 0.8985(2) -0.25931(17)
H2 H 0.4663 0.8961 -0.2989
C8 C -0.06602(18) 0.2478(2) -0.38844(16)
H3 H -0.1554 0.2060 -0.4438
C9 C 0.59376(18) 0.7830(2) -0.22842(15)
C10 C -0.16348(18) 0.2415(2) -0.81906(17)
H4 H -0.1881 0.2930 -0.8685
C11 C 0.41433(17) 0.6460(2) 0.01938(16)
H5 H 0.4145 0.6805 0.1028
C12 C 0.11098(18) 0.3411(2) -0.21736(16)
C13 C 0.73186(18) 0.7892(2) -0.16997(16)
H6 H 0.7561 0.7111 -0.1482
C14 C 0.05940(17) 0.2825(2) -0.41900(16)
C15 C 0.25178(17) 0.4876(2) -0.56113(16)
H7 H 0.2083 0.4759 -0.6410
C16 C 0.32721(17) 0.5159(2) -0.07958(16)
C17 C 0.48833(17) 0.6539(2) -0.25438(16)
C18 C 0.46514(16) 0.6233(2) -0.15741(16)
C19 C 0.49673(17) 0.7107(2) -0.02875(16)
H8 H 0.5638 0.7990 0.0158
C20 C 0.36709(17) 0.5893(2) -0.48326(16)
H9 H 0.4171 0.6610 -0.4996
C21 C -0.03541(18) 0.2848(2) -0.26663(17)
H10 H -0.0999 0.2750 -0.2222
C22 C -0.22684(18) 0.0959(2) -0.85841(17)
H11 H -0.2958 0.0485 -0.9337
C23 C -0.06492(17) 0.3122(2) -0.70864(16)
H12 H -0.0244 0.4129 -0.6818
C24 C -0.18878(19) 0.0200(2) -0.78717(17)
H13 H -0.2321 -0.0796 -0.8134
C25 C 0.83340(19) 0.9078(2) -0.14360(17)
H14 H 0.9270 0.9107 -0.1042
C26 C 0.3595(2) 0.1362(2) -0.42984(17)
H15 H 0.2667 0.0866 -0.4382
H16 H 0.4269 0.0692 -0.4293
H17 H 0.3571 0.1627 -0.4984
C27 C 0.6625(2) 1.0172(2) -0.23219(18)
H18 H 0.6391 1.0958 -0.2535
C28 C 0.7989(2) 1.0218(2) -0.17434(17)
H19 H 0.8686 1.1035 -0.1559
B1 B 0.3144(2) 0.3776(2) -0.30397(18)
loop_
_geom_bond_atom_site_label_1
_geom_bond_atom_site_label_2
_geom_bond_site_symmetry_1
_geom_bond_site_symmetry_2
O1 N4 1_555 1_555
O2 N4 1_555 1_555
N1 C16 1_555 1_555
O3 C26 1_555 1_555
N2 C12 1_555 1_555
N3 C2 1_555 1_555
N4 C1 1_555 1_555
C1 C12 1_555 1_555
C2 C17 1_555 1_555
C3 C5 1_555 1_555
C4 N3 1_555 1_555
C5 H1 1_555 1_555
C6 C3 1_555 1_555
C7 H2 1_555 1_555
C8 H3 1_555 1_555
C9 C7 1_555 1_555
C10 H4 1_555 1_555
C11 H5 1_555 1_555
C12 C21 1_555 1_555
C13 C9 1_555 1_555
H6 C13 1_555 1_555
C14 N2 1_555 1_555
C15 C4 1_555 1_555
H7 C15 1_555 1_555
C16 C1 1_555 1_555
C17 C9 1_555 1_555
C18 N1 1_555 1_555
C19 C11 1_555 1_555
H8 C19 1_555 1_555
C20 C2 1_555 1_555
H9 C20 1_555 1_555
C21 C8 1_555 1_555
H10 C21 1_555 1_555
C22 C10 1_555 1_555
H11 C22 1_555 1_555
C23 C3 1_555 1_555
H12 C23 1_555 1_555
C24 C5 1_555 1_555
H13 C24 1_555 1_555
C25 C13 1_555 1_555
H14 C25 1_555 1_555
C26 H15 1_555 1_555
H16 C26 1_555 1_555
H17 C26 1_555 1_555
C27 C7 1_555 1_555
H18 C27 1_555 1_555
C28 C25 1_555 1_555
H19 C28 1_555 1_555
B1 N1 1_555 1_555
O3 B1 1_555 1_555
N2 B1 1_555 1_555
N3 B1 1_555 1_555
C4 C6 1_555 1_555
C6 C14 1_555 1_555
C8 C14 1_555 1_555
C10 C23 1_555 1_555
C11 C16 1_555 1_555
C15 C20 1_555 1_555
C17 C18 1_555 1_555
C18 C19 1_555 1_555
C22 C24 1_555 1_555
C27 C28 1_555 1_555

#END
