
#######################################################################
#
#                 Cambridge Crystallographic Data Centre
#                                CCDC 
#
#######################################################################
#
# If this CIF has been generated from an entry in the Cambridge 
# Structural Database, then it will include bibliographic, chemical, 
# crystal, experimental, refinement or atomic coordinate data resulting 
# from the CCDC's data processing and validation procedures.
#
#######################################################################

data_UCOPAG01
_chemical_formula_moiety         'C36 H22 N2 O2 S3,2(C1 H1 Cl3)'
_chemical_name_systematic        
'10-(5,5-dioxido-8-(10H-phenothiazin-10-yl)dibenzo[b,d]thiophen-2-yl)-10H-phenothiazine chloroform solvate'
_symmetry_cell_setting           monoclinic
_symmetry_space_group_name_H-M   'C 2/c'
_symmetry_Int_Tables_number      15
_space_group_name_Hall           '-C 2yn'
loop_
_symmetry_equiv_pos_site_id
_symmetry_equiv_pos_as_xyz
1 x,y,z
2 -x,y,1/2-z
3 1/2+x,1/2+y,z
4 1/2-x,1/2+y,1/2-z
5 -x,-y,-z
6 x,-y,1/2+z
7 1/2-x,1/2-y,-z
8 1/2+x,1/2-y,1/2+z
_cell_length_a                   25.5365(15)
_cell_length_b                   7.5180(4)
_cell_length_c                   20.7378(13)
_cell_angle_alpha                90
_cell_angle_beta                 106.686(4)
_cell_angle_gamma                90
_cell_volume                     3813.67
_exptl_crystal_description       block
_cell_formula_units_Z            4
loop_
_atom_site_label
_atom_site_type_symbol
_atom_site_fract_x
_atom_site_fract_y
_atom_site_fract_z
C1 C 0.03987(11) -0.2463(3) 0.22388(14)
C2 C 0.08185(12) -0.2768(4) 0.19635(17)
H1 H 0.0926 -0.3922 0.1901
C3 C 0.10785(12) -0.1321(4) 0.17805(17)
H2 H 0.1368 -0.1498 0.1599
C4 C 0.09097(11) 0.0389(3) 0.18661(15)
C5 C 0.04827(10) 0.0692(3) 0.21476(14)
H3 H 0.0371 0.1845 0.2202
C6 C 0.02280(10) -0.0754(3) 0.23442(14)
C7 C 0.04165(14) 0.1943(4) 0.06027(18)
H4 H 0.0222 0.1141 0.0786
C8 C 0.01911(17) 0.2552(5) -0.0039(2)
H5 H -0.0151 0.2140 -0.0287
C9 C 0.0462(2) 0.3766(6) -0.0323(2)
H6 H 0.0306 0.4177 -0.0759
C10 C 0.0966(2) 0.4358(5) 0.0048(2)
H7 H 0.1147 0.5205 -0.0136
C11 C 0.12099(15) 0.3723(4) 0.06886(19)
C12 C 0.09327(12) 0.2499(4) 0.09860(16)
C13 C 0.15374(11) 0.2937(4) 0.21392(17)
C14 C 0.18729(12) 0.4188(4) 0.1943(2)
C15 C 0.22163(14) 0.5265(5) 0.2422(3)
H8 H 0.2426 0.6124 0.2288
C16 C 0.22519(17) 0.5086(6) 0.3088(3)
H9 H 0.2490 0.5804 0.3406
C17 C 0.19363(16) 0.3844(5) 0.3287(2)
H10 H 0.1963 0.3709 0.3742
C18 C 0.15796(13) 0.2799(4) 0.28144(19)
H11 H 0.1362 0.1981 0.2954
N1 N 0.11795(9) 0.1854(3) 0.16411(13)
O1 O 0.03177(10) -0.5092(3) 0.30620(12)
S1 S 0.0000 -0.40870(12) 0.2500
S2 S 0.18894(4) 0.43338(14) 0.11066(6)
C1A C -0.03987(11) -0.2463(3) 0.27612(14)
C2A C -0.08185(12) -0.2768(4) 0.30365(17)
H1A H -0.0926 -0.3922 0.3099
C3A C -0.10785(12) -0.1321(4) 0.32195(17)
H2A H -0.1368 -0.1498 0.3401
C4A C -0.09097(11) 0.0389(3) 0.31339(15)
C5A C -0.04827(10) 0.0692(3) 0.28524(14)
H3A H -0.0371 0.1845 0.2798
C6A C -0.02280(10) -0.0754(3) 0.26558(14)
C7A C -0.04165(14) 0.1943(4) 0.43973(18)
H4A H -0.0222 0.1141 0.4214
C8A C -0.01911(17) 0.2552(5) 0.5039(2)
H5A H 0.0151 0.2140 0.5287
C9A C -0.0462(2) 0.3766(6) 0.5323(2)
H6A H -0.0306 0.4177 0.5759
C10A C -0.0966(2) 0.4358(5) 0.4952(2)
H7A H -0.1147 0.5205 0.5136
C11A C -0.12099(15) 0.3723(4) 0.43114(19)
C12A C -0.09327(12) 0.2499(4) 0.40140(16)
C13A C -0.15374(11) 0.2937(4) 0.28608(17)
C14A C -0.18729(12) 0.4188(4) 0.3057(2)
C15A C -0.22163(14) 0.5265(5) 0.2578(3)
H8A H -0.2426 0.6124 0.2712
C16A C -0.22519(17) 0.5086(6) 0.1912(3)
H9A H -0.2490 0.5804 0.1594
C17A C -0.19363(16) 0.3844(5) 0.1713(2)
H10A H -0.1963 0.3709 0.1258
C18A C -0.15796(13) 0.2799(4) 0.21856(19)
H11A H -0.1362 0.1981 0.2046
N1A N -0.11795(9) 0.1854(3) 0.33589(13)
O1A O -0.03177(10) -0.5092(3) 0.19380(12)
S2A S -0.18894(4) 0.43338(14) 0.38934(6)
C20 C 0.35982(18) 0.4757(6) 0.0461(2)
H13 H 0.3784 0.3870 0.0258
Cl4 Cl 0.4072(3) 0.6058(13) 0.0878(4)
Cl5 Cl 0.3251(5) 0.3588(12) 0.0887(7)
Cl6 Cl 0.3205(3) 0.6033(10) -0.0215(3)
C19? C 0.35982(18) 0.4757(6) 0.0461(2)
H12? H 0.3741 0.4048 0.0153
Cl1? Cl 0.40942(14) 0.6366(6) 0.09344(18)
Cl2? Cl 0.3456(2) 0.3444(6) 0.1103(2)
Cl3? Cl 0.2985(3) 0.5768(10) 0.0060(4)
loop_
_geom_bond_atom_site_label_1
_geom_bond_atom_site_label_2
_geom_bond_site_symmetry_1
_geom_bond_site_symmetry_2
C1 C2 1_555 1_555
C2 H1 1_555 1_555
C3 C2 1_555 1_555
H2 C3 1_555 1_555
C4 C3 1_555 1_555
C5 C4 1_555 1_555
H3 C5 1_555 1_555
C6 C1 1_555 1_555
C7 H4 1_555 1_555
C8 C7 1_555 1_555
H5 C8 1_555 1_555
C9 C8 1_555 1_555
H6 C9 1_555 1_555
C10 C9 1_555 1_555
H7 C10 1_555 1_555
C11 C10 1_555 1_555
C12 C7 1_555 1_555
C13 C14 1_555 1_555
C14 C15 1_555 1_555
C15 H8 1_555 1_555
C16 C15 1_555 1_555
H9 C16 1_555 1_555
C17 C16 1_555 1_555
H10 C17 1_555 1_555
C18 C13 1_555 1_555
H11 C18 1_555 1_555
N1 C4 1_555 1_555
O1 S1 1_555 1_555
S1 C1 1_555 1_555
S2 C11 1_555 1_555
C20 H13 1_555 1_555
Cl4 C20 1_555 1_555
Cl5 C20 1_555 1_555
Cl6 C20 1_555 1_555
C1A S1 1_555 1_555
C2A C1A 1_555 1_555
H1A C2A 1_555 1_555
C3A C2A 1_555 1_555
H2A C3A 1_555 1_555
C4A C3A 1_555 1_555
C5A C4A 1_555 1_555
H3A C5A 1_555 1_555
C6A C6 1_555 1_555
C7A H4A 1_555 1_555
C8A C7A 1_555 1_555
H5A C8A 1_555 1_555
C9A C8A 1_555 1_555
H6A C9A 1_555 1_555
C10A C9A 1_555 1_555
H7A C10A 1_555 1_555
C11A C10A 1_555 1_555
C12A C7A 1_555 1_555
C13A C14A 1_555 1_555
C14A C15A 1_555 1_555
C15A H8A 1_555 1_555
C16A C15A 1_555 1_555
H9A C16A 1_555 1_555
C17A C16A 1_555 1_555
H10A C17A 1_555 1_555
C18A C13A 1_555 1_555
H11A C18A 1_555 1_555
N1A C4A 1_555 1_555
O1A S1 1_555 1_555
S2A C11A 1_555 1_555
C5 C6 1_555 1_555
C11 C12 1_555 1_555
C12 N1 1_555 1_555
C13 N1 1_555 1_555
C14 S2 1_555 1_555
C17 C18 1_555 1_555
C1A C6A 1_555 1_555
C5A C6A 1_555 1_555
C11A C12A 1_555 1_555
C12A N1A 1_555 1_555
C13A N1A 1_555 1_555
C14A S2A 1_555 1_555
C17A C18A 1_555 1_555

#END
