
#######################################################################
#
#                 Cambridge Crystallographic Data Centre
#                                CCDC 
#
#######################################################################
#
# If this CIF has been generated from an entry in the Cambridge 
# Structural Database, then it will include bibliographic, chemical, 
# crystal, experimental, refinement or atomic coordinate data resulting 
# from the CCDC's data processing and validation procedures.
#
#######################################################################

data_UCUMAH
_chemical_formula_moiety         'C16 H20 N4 O1'
_chemical_name_systematic        
N-Acetyl-N',N'-bis((2-pyridyl)methyl)ethylenediamine
_symmetry_cell_setting           triclinic
_symmetry_space_group_name_H-M   'P -1'
_symmetry_Int_Tables_number      2
_space_group_name_Hall           '-P 1'
loop_
_symmetry_equiv_pos_site_id
_symmetry_equiv_pos_as_xyz
1 x,y,z
2 -x,-y,-z
_cell_length_a                   9.3758(2)
_cell_length_b                   9.5178(2)
_cell_length_c                   10.2342(3)
_cell_angle_alpha                82.807(2)
_cell_angle_beta                 68.351(2)
_cell_angle_gamma                62.401(2)
_cell_volume                     751.101
_exptl_crystal_colour            colorless
_exptl_crystal_description       cuboid
_cell_formula_units_Z            2
_exptl_crystal_recrystallization_method 'petroleum ethers'
loop_
_atom_site_label
_atom_site_type_symbol
_atom_site_fract_x
_atom_site_fract_y
_atom_site_fract_z
O1 O 1.29230(15) 0.31217(14) 0.48102(12)
N1 N 0.88275(16) 0.79147(14) 0.82082(13)
N2 N 0.52039(18) 1.15595(17) 0.78546(17)
N3 N 1.11278(17) 0.74374(15) 1.04825(13)
N4 N 1.07506(17) 0.37077(15) 0.69052(14)
C1 C 0.7125(2) 0.88390(18) 0.80991(16)
H1 H 0.6238 0.8993 0.9046
H2 H 0.6974 0.8229 0.7488
C2 C 0.6847(2) 1.04489(18) 0.75059(16)
C3 C 0.8198(2) 1.07300(19) 0.66170(17)
H3 H 0.9349 0.9925 0.6407
C4 C 0.7863(2) 1.2194(2) 0.60333(18)
H4 H 0.8778 1.2404 0.5416
C5 C 0.6180(3) 1.3340(2) 0.63652(19)
H5 H 0.5903 1.4353 0.5978
C6 C 0.4915(2) 1.2969(2) 0.7276(2)
H6 H 0.3755 1.3764 0.7512
C7 C 0.89319(19) 0.84991(18) 0.94155(15)
H7 H 0.8308 0.8150 1.0295
H8 H 0.8367 0.9675 0.9463
C8 C 1.07755(19) 0.78932(16) 0.93018(15)
C9 C 1.2044(2) 0.78419(18) 0.80270(16)
H9 H 1.1770 0.8137 0.7196
C10 C 1.3697(2) 0.73620(19) 0.79717(18)
H10 H 1.4569 0.7341 0.7111
C11 C 1.4058(2) 0.69124(18) 0.91931(19)
H11 H 1.5181 0.6582 0.9195
C12 C 1.2747(2) 0.69542(18) 1.04111(17)
H12 H 1.3005 0.6623 1.1246
C13 C 0.9332(2) 0.62080(17) 0.82802(15)
H13 H 0.8306 0.6047 0.8825
H14 H 1.0164 0.5714 0.8777
C14 C 1.0137(3) 0.54107(19) 0.68272(17)
H15 H 0.9277 0.5844 0.6357
H16 H 1.1110 0.5640 0.6257
C15 C 1.2123(2) 0.26865(19) 0.58965(16)
C16 C 1.2644(2) 0.09625(19) 0.61831(18)
H17 H 1.2884 0.0383 0.5340
H18 H 1.1709 0.0861 0.6965
H19 H 1.3680 0.0519 0.6431
H20 H 1.028(3) 0.331(2) 0.765(2)
loop_
_geom_bond_atom_site_label_1
_geom_bond_atom_site_label_2
_geom_bond_site_symmetry_1
_geom_bond_site_symmetry_2
O1 C15 1_555 1_555
N1 C1 1_555 1_555
N2 C2 1_555 1_555
N3 C8 1_555 1_555
N4 C14 1_555 1_555
C1 H1 1_555 1_555
H2 C1 1_555 1_555
C2 C1 1_555 1_555
C3 C2 1_555 1_555
H3 C3 1_555 1_555
C4 C3 1_555 1_555
H4 C4 1_555 1_555
C5 C4 1_555 1_555
H5 C5 1_555 1_555
C6 N2 1_555 1_555
H6 C6 1_555 1_555
C7 N1 1_555 1_555
H7 C7 1_555 1_555
H8 C7 1_555 1_555
C8 C7 1_555 1_555
C9 C8 1_555 1_555
H9 C9 1_555 1_555
C10 C9 1_555 1_555
H10 C10 1_555 1_555
C11 C10 1_555 1_555
H11 C11 1_555 1_555
C12 N3 1_555 1_555
H12 C12 1_555 1_555
C13 N1 1_555 1_555
H13 C13 1_555 1_555
H14 C13 1_555 1_555
C14 C13 1_555 1_555
H15 C14 1_555 1_555
H16 C14 1_555 1_555
C15 N4 1_555 1_555
C16 C15 1_555 1_555
H17 C16 1_555 1_555
H18 C16 1_555 1_555
H19 C16 1_555 1_555
H20 N4 1_555 1_555
C5 C6 1_555 1_555
C11 C12 1_555 1_555

#END
