
#######################################################################
#
#                 Cambridge Crystallographic Data Centre
#                                CCDC 
#
#######################################################################
#
# If this CIF has been generated from an entry in the Cambridge 
# Structural Database, then it will include bibliographic, chemical, 
# crystal, experimental, refinement or atomic coordinate data resulting 
# from the CCDC's data processing and validation procedures.
#
#######################################################################

data_UCUPUE
_chemical_formula_moiety         'C16 H15 N3 O2'
_chemical_name_systematic        
'Methyl 6-amino-1-benzyl-1H-benzimidazole-5-carboxylate'
_symmetry_cell_setting           rhombohedral
_symmetry_space_group_name_H-M   'R 3'
_symmetry_Int_Tables_number      146
_space_group_name_Hall           'R 3'
loop_
_symmetry_equiv_pos_site_id
_symmetry_equiv_pos_as_xyz
1 x,y,z
2 1/3+x,2/3+y,2/3+z
3 2/3+x,1/3+y,1/3+z
4 -y,x-y,z
5 1/3-y,2/3+x-y,2/3+z
6 2/3-y,1/3+x-y,1/3+z
7 -x+y,-x,z
8 1/3-x+y,2/3-x,2/3+z
9 2/3-x+y,1/3-x,1/3+z
_cell_length_a                   28.3050(4)
_cell_length_b                   28.3050(4)
_cell_length_c                   9.3331(3)
_cell_angle_alpha                90
_cell_angle_beta                 90
_cell_angle_gamma                120.00
_cell_volume                     6475.64
_exptl_crystal_colour            'light brown'
_exptl_crystal_description       needle
_chemical_melting_point          158-160deg.C
_cell_formula_units_Z            18
_exptl_crystal_recrystallization_method hexane/tetrahydrofuran
loop_
_atom_site_label
_atom_site_type_symbol
_atom_site_fract_x
_atom_site_fract_y
_atom_site_fract_z
O1 O 0.25344(11) 0.23025(10) 0.6336(3)
O2 O 0.20954(8) 0.14238(9) 0.5803(2)
N1 N 0.37510(8) 0.12247(8) 0.9587(2)
N2 N 0.30796(10) 0.05715(8) 0.8272(3)
N3 N 0.33760(11) 0.26668(9) 0.8173(3)
C1 C 0.34745(11) 0.06893(10) 0.9166(3)
C2 C 0.27576(9) 0.11933(9) 0.7284(3)
C3 C 0.28483(9) 0.17269(9) 0.7311(3)
C4 C 0.32803(10) 0.21402(9) 0.8130(3)
C5 C 0.36182(10) 0.20104(9) 0.8947(3)
C6 C 0.42159(11) 0.14762(11) 1.0558(3)
C7 C 0.47511(10) 0.18353(10) 0.9802(3)
C8 C 0.51333(13) 0.23247(11) 1.0415(4)
C9 C 0.56396(15) 0.26381(14) 0.9769(5)
C10 C 0.57608(14) 0.24807(17) 0.8513(5)
C11 C 0.53793(14) 0.19979(17) 0.7899(4)
C12 C 0.48786(13) 0.16796(14) 0.8536(4)
C13 C 0.30882(9) 0.10691(9) 0.8074(3)
C14 C 0.35094(9) 0.14799(9) 0.8893(2)
C15 C 0.24946(11) 0.18590(11) 0.6446(3)
C16 C 0.17475(15) 0.15122(17) 0.4843(5)
H1 H 0.3670 0.2937 0.8740
H2 H 0.3149 0.2764 0.7632
H5 H 0.3579 0.0439 0.9540
H6 H 0.2462 0.0919 0.6730
H7 H 0.3910 0.2287 0.9506
H8 H 0.4163 0.1701 1.1235
H9 H 0.4247 0.1197 1.1059
H10 H 0.5050 0.2445 1.1292
H11 H 0.5904 0.2978 1.0193
H12 H 0.6112 0.2702 0.8082
H13 H 0.5462 0.1878 0.7020
H14 H 0.4616 0.1348 0.8075
H15 H 0.1474 0.1170 0.4448
H16 H 0.1966 0.1749 0.4082
H17 H 0.1574 0.1678 0.5355
O3 O 0.24851(10) 0.01401(8) 0.2107(3)
O4 O 0.21199(8) 0.05889(8) 0.1041(2)
N4 N 0.38119(8) 0.26117(8) 0.4276(3)
N5 N 0.31804(10) 0.25471(9) 0.2710(3)
N6 N 0.33154(12) 0.06991(10) 0.3924(3)
C17 C 0.35709(11) 0.28627(11) 0.3576(4)
C18 C 0.28107(10) 0.15468(10) 0.2206(3)
C19 C 0.28590(9) 0.10931(9) 0.2564(3)
C20 C 0.32642(9) 0.11397(9) 0.3551(3)
C21 C 0.36179(9) 0.16447(9) 0.4176(3)
C22 C 0.42740(10) 0.28676(11) 0.5253(3)
C23 C 0.48161(10) 0.30468(10) 0.4519(3)
C24 C 0.51825(12) 0.29196(13) 0.5140(4)
C25 C 0.56948(15) 0.31066(17) 0.4532(5)
C26 C 0.58428(14) 0.34249(17) 0.3335(5)
C27 C 0.54773(15) 0.35540(16) 0.2698(4)
C28 C 0.49723(13) 0.33646(13) 0.3310(4)
C29 C 0.35509(8) 0.20806(9) 0.3809(3)
C30 C 0.31552(9) 0.20411(9) 0.2840(3)
C31 C 0.24875(11) 0.05668(11) 0.1900(3)
C32 C 0.17587(15) 0.01038(16) 0.0270(5)
H3 H 0.3593 0.0741 0.4588
H4 H 0.3070 0.0347 0.3526
H18 H 0.3692 0.3240 0.3758
H19 H 0.2538 0.1509 0.1532
H20 H 0.3892 0.1678 0.4838
H21 H 0.4289 0.3184 0.5675
H22 H 0.4228 0.2612 0.5993
H23 H 0.5082 0.2703 0.5996
H24 H 0.5944 0.3008 0.4942
H25 H 0.6200 0.3564 0.2933
H26 H 0.5579 0.3778 0.1854
H27 H 0.4721 0.3451 0.2849
H28 H 0.1510 0.0164 -0.0291
H29 H 0.1557 -0.0192 0.0923
H30 H 0.1973 0.0015 -0.0352
loop_
_geom_bond_atom_site_label_1
_geom_bond_atom_site_label_2
_geom_bond_site_symmetry_1
_geom_bond_site_symmetry_2
O1 C15 1_555 1_555
O2 C15 1_555 1_555
O3 C31 1_555 1_555
O4 C31 1_555 1_555
N1 C1 1_555 1_555
N2 C1 1_555 1_555
N3 C4 1_555 1_555
N4 C17 1_555 1_555
N5 C17 1_555 1_555
N6 C20 1_555 1_555
C1 H5 1_555 1_555
C2 C3 1_555 1_555
C3 C4 1_555 1_555
C4 C5 1_555 1_555
C5 C14 1_555 1_555
C6 N1 1_555 1_555
C7 C6 1_555 1_555
C8 C7 1_555 1_555
C9 C8 1_555 1_555
C10 C9 1_555 1_555
C11 C10 1_555 1_555
C12 C7 1_555 1_555
C13 N2 1_555 1_555
C14 N1 1_555 1_555
C15 C3 1_555 1_555
C16 O2 1_555 1_555
C17 H18 1_555 1_555
C18 C19 1_555 1_555
C19 C20 1_555 1_555
C20 C21 1_555 1_555
C21 C29 1_555 1_555
C22 N4 1_555 1_555
C23 C22 1_555 1_555
C24 C23 1_555 1_555
C25 C24 1_555 1_555
C26 C25 1_555 1_555
C27 C26 1_555 1_555
C28 C23 1_555 1_555
C29 N4 1_555 1_555
C30 N5 1_555 1_555
C31 C19 1_555 1_555
C32 O4 1_555 1_555
H1 N3 1_555 1_555
H2 N3 1_555 1_555
H3 N6 1_555 1_555
H4 N6 1_555 1_555
H6 C2 1_555 1_555
H7 C5 1_555 1_555
H8 C6 1_555 1_555
H9 C6 1_555 1_555
H10 C8 1_555 1_555
H11 C9 1_555 1_555
H12 C10 1_555 1_555
H13 C11 1_555 1_555
H14 C12 1_555 1_555
H15 C16 1_555 1_555
H16 C16 1_555 1_555
H17 C16 1_555 1_555
H19 C18 1_555 1_555
H20 C21 1_555 1_555
H21 C22 1_555 1_555
H22 C22 1_555 1_555
H23 C24 1_555 1_555
H24 C25 1_555 1_555
H25 C26 1_555 1_555
H26 C27 1_555 1_555
H27 C28 1_555 1_555
H28 C32 1_555 1_555
H29 C32 1_555 1_555
H30 C32 1_555 1_555
C2 C13 1_555 1_555
C11 C12 1_555 1_555
C13 C14 1_555 1_555
C18 C30 1_555 1_555
C27 C28 1_555 1_555
C29 C30 1_555 1_555

#END
