
#######################################################################
#
#                 Cambridge Crystallographic Data Centre
#                                CCDC 
#
#######################################################################
#
# If this CIF has been generated from an entry in the Cambridge 
# Structural Database, then it will include bibliographic, chemical, 
# crystal, experimental, refinement or atomic coordinate data resulting 
# from the CCDC's data processing and validation procedures.
#
#######################################################################

data_UDARUO
_chemical_formula_moiety         'C40 H56 Ca1 N2 O4'
_chemical_name_systematic        
bis(1-Allylisoquinolin-2(1H)-yl)-tetrakis(tetrahydrofuran)-calcium
_symmetry_cell_setting           monoclinic
_symmetry_space_group_name_H-M   'P 21/c'
_symmetry_Int_Tables_number      14
_space_group_name_Hall           '-P 2ybc'
loop_
_symmetry_equiv_pos_site_id
_symmetry_equiv_pos_as_xyz
1 x,y,z
2 -x,1/2+y,1/2-z
3 -x,-y,-z
4 x,1/2-y,1/2+z
_cell_length_a                   9.5972(8)
_cell_length_b                   14.5749(12)
_cell_length_c                   13.3121(11)
_cell_angle_alpha                90
_cell_angle_beta                 92.3743(14)
_cell_angle_gamma                90
_cell_volume                     1860.47
_exptl_crystal_colour            colorless
_exptl_crystal_description       block
_cell_formula_units_Z            2
_chemical_properties_physical    'air-sensitive; moisture-sensitive'
_exptl_crystal_recrystallization_method tetrahydrofuran
loop_
_atom_site_label
_atom_site_type_symbol
_atom_site_fract_x
_atom_site_fract_y
_atom_site_fract_z
Ca1 Ca 0.5000 0.0000 0.5000
N1 N 0.64279(13) -0.12467(8) 0.45238(10)
O1 O 0.40392(12) 0.01203(7) 0.33186(8)
O2 O 0.31503(11) -0.10037(7) 0.54997(8)
C1 C 0.74023(16) -0.12129(10) 0.38311(12)
H1 H 0.7434 -0.0668 0.3441
C2 C 0.83582(16) -0.18802(11) 0.36239(12)
H2 H 0.8880 -0.1856 0.3034
C3 C 0.85379(16) -0.26179(10) 0.43357(11)
C4 C 0.97182(16) -0.31839(11) 0.44142(12)
H3 H 1.0411 -0.3136 0.3927
C5 C 0.98916(17) -0.38104(11) 0.51869(13)
H4 H 1.0685 -0.4201 0.5214
C6 C 0.89194(18) -0.38736(11) 0.59218(13)
H5 H 0.9057 -0.4291 0.6465
C7 C 0.77376(17) -0.33201(11) 0.58575(12)
H6 H 0.7072 -0.3356 0.6365
C8 C 0.75218(15) -0.27175(10) 0.50632(11)
C9 C 0.61828(16) -0.21829(10) 0.48932(12)
H7 H 0.5710 -0.2139 0.5547
C10 C 0.51936(16) -0.26784(10) 0.41269(12)
H8 H 0.4326 -0.2314 0.4043
H9 H 0.5639 -0.2687 0.3469
C11 C 0.48094(18) -0.36378(11) 0.43885(13)
H10 H 0.5550 -0.4047 0.4564
C12 C 0.3545(2) -0.39637(13) 0.43975(15)
H11 H 0.2773 -0.3579 0.4227
H12 H 0.3397 -0.4586 0.4574
C13 C 0.42410(19) -0.05408(12) 0.25256(12)
H13 H 0.4752 -0.1087 0.2787
H14 H 0.4766 -0.0266 0.1976
C14 C 0.2787(2) -0.07896(13) 0.21678(14)
H15 H 0.2401 -0.1280 0.2589
H16 H 0.2764 -0.0997 0.1459
C15 C 0.1982(2) 0.01053(14) 0.22768(16)
H17 H 0.1805 0.0399 0.1613
H18 H 0.1078 -0.0007 0.2587
C16 C 0.29131(18) 0.07057(11) 0.29511(13)
H19 H 0.3280 0.1228 0.2567
H20 H 0.2387 0.0949 0.3517
C17 C 0.3030(2) -0.15710(15) 0.63727(17)
H21 H 0.3600 -0.1316 0.6943
H22 H 0.3364 -0.2199 0.6234
C18 C 0.1533(2) -0.15924(16) 0.66212(17)
H23 H 0.1405 -0.1322 0.7293
H24 H 0.1184 -0.2231 0.6621
C19 C 0.07612(18) -0.10346(13) 0.58180(14)
H25 H -0.0106 -0.1348 0.5579
H26 H 0.0525 -0.0417 0.6071
C20 C 0.17888(18) -0.09746(14) 0.49972(14)
H27 H 0.1667 -0.1497 0.4526
H28 H 0.1662 -0.0395 0.4616
N1B N 0.35721(13) 0.12467(8) 0.54762(10)
O1B O 0.59608(12) -0.01203(7) 0.66814(8)
O2B O 0.68497(11) 0.10037(7) 0.45003(8)
C1B C 0.25977(16) 0.12129(10) 0.61689(12)
H1B H 0.2566 0.0668 0.6559
C2B C 0.16418(16) 0.18802(11) 0.63761(12)
H2B H 0.1120 0.1856 0.6966
C3B C 0.14621(16) 0.26179(10) 0.56643(11)
C4B C 0.02818(16) 0.31839(11) 0.55858(12)
H3B H -0.0411 0.3136 0.6073
C5B C 0.01084(17) 0.38104(11) 0.48131(13)
H4B H -0.0685 0.4201 0.4786
C6B C 0.10806(18) 0.38736(11) 0.40782(13)
H5B H 0.0943 0.4291 0.3535
C7B C 0.22624(17) 0.33201(11) 0.41425(12)
H6B H 0.2928 0.3356 0.3635
C8B C 0.24782(15) 0.27175(10) 0.49368(11)
C9B C 0.38172(16) 0.21829(10) 0.51068(12)
H7B H 0.4290 0.2139 0.4453
C10B C 0.48064(16) 0.26784(10) 0.58731(12)
H8B H 0.5674 0.2314 0.5957
H9B H 0.4361 0.2687 0.6531
C11B C 0.51906(18) 0.36378(11) 0.56115(13)
H10B H 0.4450 0.4047 0.5436
C12B C 0.6455(2) 0.39637(13) 0.56025(15)
H11B H 0.7227 0.3579 0.5773
H12B H 0.6603 0.4586 0.5426
C13B C 0.57590(19) 0.05408(12) 0.74744(12)
H13B H 0.5248 0.1087 0.7213
H14B H 0.5234 0.0266 0.8024
C14B C 0.7213(2) 0.07896(13) 0.78322(14)
H15B H 0.7599 0.1280 0.7411
H16B H 0.7236 0.0997 0.8541
C15B C 0.8018(2) -0.01053(14) 0.77232(16)
H17B H 0.8195 -0.0399 0.8387
H18B H 0.8922 0.0007 0.7413
C16B C 0.70869(18) -0.07057(11) 0.70489(13)
H19B H 0.6720 -0.1228 0.7433
H20B H 0.7613 -0.0949 0.6483
C17B C 0.6970(2) 0.15710(15) 0.36273(17)
H21B H 0.6400 0.1316 0.3057
H22B H 0.6636 0.2199 0.3766
C18B C 0.8467(2) 0.15924(16) 0.33788(17)
H23B H 0.8595 0.1322 0.2707
H24B H 0.8816 0.2231 0.3379
C19B C 0.92388(18) 0.10346(13) 0.41820(14)
H25B H 1.0106 0.1348 0.4421
H26B H 0.9475 0.0417 0.3929
C20B C 0.82112(18) 0.09746(14) 0.50028(14)
H27B H 0.8333 0.1497 0.5474
H28B H 0.8338 0.0395 0.5384
loop_
_geom_bond_atom_site_label_1
_geom_bond_atom_site_label_2
_geom_bond_site_symmetry_1
_geom_bond_site_symmetry_2
Ca1 N1 1_555 1_555
N1 C1 1_555 1_555
O1 Ca1 1_555 1_555
O2 Ca1 1_555 1_555
C1 H1 1_555 1_555
C2 C1 1_555 1_555
H2 C2 1_555 1_555
C3 C2 1_555 1_555
C4 C3 1_555 1_555
H3 C4 1_555 1_555
C5 C4 1_555 1_555
H4 C5 1_555 1_555
C6 C5 1_555 1_555
H5 C6 1_555 1_555
C7 C6 1_555 1_555
H6 C7 1_555 1_555
C8 C3 1_555 1_555
C9 N1 1_555 1_555
H7 C9 1_555 1_555
C10 C9 1_555 1_555
H8 C10 1_555 1_555
H9 C10 1_555 1_555
C11 C10 1_555 1_555
H10 C11 1_555 1_555
C12 C11 1_555 1_555
H11 C12 1_555 1_555
H12 C12 1_555 1_555
C13 O1 1_555 1_555
H13 C13 1_555 1_555
H14 C13 1_555 1_555
C14 C13 1_555 1_555
H15 C14 1_555 1_555
H16 C14 1_555 1_555
C15 C14 1_555 1_555
H17 C15 1_555 1_555
H18 C15 1_555 1_555
C16 O1 1_555 1_555
H19 C16 1_555 1_555
H20 C16 1_555 1_555
C17 O2 1_555 1_555
H21 C17 1_555 1_555
H22 C17 1_555 1_555
C18 C17 1_555 1_555
H23 C18 1_555 1_555
H24 C18 1_555 1_555
C19 C18 1_555 1_555
H25 C19 1_555 1_555
H26 C19 1_555 1_555
C20 O2 1_555 1_555
H27 C20 1_555 1_555
H28 C20 1_555 1_555
N1B Ca1 1_555 1_555
O1B Ca1 1_555 1_555
O2B Ca1 1_555 1_555
C1B N1B 1_555 1_555
H1B C1B 1_555 1_555
C2B C1B 1_555 1_555
H2B C2B 1_555 1_555
C3B C2B 1_555 1_555
C4B C3B 1_555 1_555
H3B C4B 1_555 1_555
C5B C4B 1_555 1_555
H4B C5B 1_555 1_555
C6B C5B 1_555 1_555
H5B C6B 1_555 1_555
C7B C6B 1_555 1_555
H6B C7B 1_555 1_555
C8B C3B 1_555 1_555
C9B N1B 1_555 1_555
H7B C9B 1_555 1_555
C10B C9B 1_555 1_555
H8B C10B 1_555 1_555
H9B C10B 1_555 1_555
C11B C10B 1_555 1_555
H10B C11B 1_555 1_555
C12B C11B 1_555 1_555
H11B C12B 1_555 1_555
H12B C12B 1_555 1_555
C13B O1B 1_555 1_555
H13B C13B 1_555 1_555
H14B C13B 1_555 1_555
C14B C13B 1_555 1_555
H15B C14B 1_555 1_555
H16B C14B 1_555 1_555
C15B C14B 1_555 1_555
H17B C15B 1_555 1_555
H18B C15B 1_555 1_555
C16B O1B 1_555 1_555
H19B C16B 1_555 1_555
H20B C16B 1_555 1_555
C17B O2B 1_555 1_555
H21B C17B 1_555 1_555
H22B C17B 1_555 1_555
C18B C17B 1_555 1_555
H23B C18B 1_555 1_555
H24B C18B 1_555 1_555
C19B C18B 1_555 1_555
H25B C19B 1_555 1_555
H26B C19B 1_555 1_555
C20B O2B 1_555 1_555
H27B C20B 1_555 1_555
H28B C20B 1_555 1_555
C7 C8 1_555 1_555
C8 C9 1_555 1_555
C15 C16 1_555 1_555
C19 C20 1_555 1_555
C7B C8B 1_555 1_555
C8B C9B 1_555 1_555
C15B C16B 1_555 1_555
C19B C20B 1_555 1_555

#END
