
#######################################################################
#
#                 Cambridge Crystallographic Data Centre
#                                CCDC 
#
#######################################################################
#
# If this CIF has been generated from an entry in the Cambridge 
# Structural Database, then it will include bibliographic, chemical, 
# crystal, experimental, refinement or atomic coordinate data resulting 
# from the CCDC's data processing and validation procedures.
#
#######################################################################

data_UDAZOQ
_chemical_formula_moiety         'C19 H18 O4'
_chemical_name_systematic        
2a-Acetyl-7a-methyl-4-(4-methylphenyl)-2,2a,7a,7b-tetrahydro-5H-furo[2,3,4-cd][1]benzofuran-5-one
_symmetry_cell_setting           monoclinic
_symmetry_space_group_name_H-M   'P 21/c'
_symmetry_Int_Tables_number      14
_space_group_name_Hall           '-P 2ybc'
loop_
_symmetry_equiv_pos_site_id
_symmetry_equiv_pos_as_xyz
1 x,y,z
2 -x,1/2+y,1/2-z
3 -x,-y,-z
4 x,1/2-y,1/2+z
_cell_length_a                   18.5151(11)
_cell_length_b                   8.7950(6)
_cell_length_c                   9.8239(6)
_cell_angle_alpha                90
_cell_angle_beta                 99.612(2)
_cell_angle_gamma                90
_cell_volume                     1577.27
_cell_formula_units_Z            4
loop_
_atom_site_label
_atom_site_type_symbol
_atom_site_fract_x
_atom_site_fract_y
_atom_site_fract_z
O1 O 0.24558(8) 1.03231(15) 1.00870(14)
O2 O 0.24229(6) 0.52835(12) 0.96457(11)
O3 O 0.41018(6) 0.61616(14) 0.96469(10)
O4 O 0.35507(7) 0.33180(17) 1.23346(15)
C1 C 0.03654(9) 0.7650(2) 0.64766(17)
C2 C 0.07338(10) 0.6279(2) 0.65513(19)
H1 H 0.0561 0.5513 0.5929
C3 C 0.13492(10) 0.6015(2) 0.75191(18)
H2 H 0.1585 0.5080 0.7535
C4 C 0.16218(8) 0.71260(19) 0.84721(15)
C5 C 0.12557(10) 0.8516(2) 0.84008(19)
H3 H 0.1424 0.9284 0.9024
C6 C 0.06433(10) 0.8758(2) 0.74059(19)
H4 H 0.0412 0.9700 0.7365
C7 C -0.03243(12) 0.7909(3) 0.5429(2)
H5 H -0.0502 0.8922 0.5530
H6 H -0.0692 0.7188 0.5581
H7 H -0.0216 0.7783 0.4514
C8 C 0.22652(8) 0.68048(18) 0.95231(15)
C9 C 0.27518(8) 0.76763(18) 1.03676(14)
C10 C 0.33152(8) 0.66598(17) 1.12078(14)
H8 H 0.3288 0.6695 1.2195
C11 C 0.31136(8) 0.50817(18) 1.05772(16)
C12 C 0.30117(10) 0.38617(19) 1.16374(18)
C13 C 0.22634(11) 0.3411(2) 1.1801(2)
H9 H 0.2288 0.2633 1.2492
H10 H 0.2007 0.3029 1.0939
H11 H 0.2008 0.4277 1.2078
C14 C 0.29087(10) 0.9300(2) 1.03323(16)
C15 C 0.37003(11) 0.9661(2) 1.05167(17)
H12 H 0.3838 1.0677 1.0508
C16 C 0.42228(10) 0.8614(2) 1.06935(16)
H13 H 0.4700 0.8926 1.0670
C17 C 0.40944(8) 0.6971(2) 1.09274(14)
C18 C 0.46814(9) 0.6368(2) 1.20716(17)
H14 H 0.5157 0.6589 1.1854
H15 H 0.4626 0.5289 1.2153
H16 H 0.4631 0.6847 1.2929
C19 C 0.37355(10) 0.4752(2) 0.97595(18)
H17 H 0.4072 0.4008 1.0240
H18 H 0.3539 0.4358 0.8851
loop_
_geom_bond_atom_site_label_1
_geom_bond_atom_site_label_2
_geom_bond_site_symmetry_1
_geom_bond_site_symmetry_2
O1 C14 1_555 1_555
O2 C8 1_555 1_555
O3 C17 1_555 1_555
O4 C12 1_555 1_555
C1 C2 1_555 1_555
C2 H1 1_555 1_555
C3 C2 1_555 1_555
H2 C3 1_555 1_555
C4 C3 1_555 1_555
C5 C4 1_555 1_555
H3 C5 1_555 1_555
C6 C1 1_555 1_555
H4 C6 1_555 1_555
C7 C1 1_555 1_555
H5 C7 1_555 1_555
H6 C7 1_555 1_555
H7 C7 1_555 1_555
C8 C4 1_555 1_555
C9 C8 1_555 1_555
C10 C9 1_555 1_555
H8 C10 1_555 1_555
C11 O2 1_555 1_555
C12 C11 1_555 1_555
C13 C12 1_555 1_555
H9 C13 1_555 1_555
H10 C13 1_555 1_555
H11 C13 1_555 1_555
C14 C9 1_555 1_555
C15 C14 1_555 1_555
H12 C15 1_555 1_555
C16 C15 1_555 1_555
H13 C16 1_555 1_555
C17 C10 1_555 1_555
C18 C17 1_555 1_555
H14 C18 1_555 1_555
H15 C18 1_555 1_555
H16 C18 1_555 1_555
C19 O3 1_555 1_555
H17 C19 1_555 1_555
H18 C19 1_555 1_555
C5 C6 1_555 1_555
C10 C11 1_555 1_555
C11 C19 1_555 1_555
C16 C17 1_555 1_555

#END
