
#######################################################################
#
#                 Cambridge Crystallographic Data Centre
#                                CCDC 
#
#######################################################################
#
# If this CIF has been generated from an entry in the Cambridge 
# Structural Database, then it will include bibliographic, chemical, 
# crystal, experimental, refinement or atomic coordinate data resulting 
# from the CCDC's data processing and validation procedures.
#
#######################################################################

data_UDEVEH
_chemical_formula_moiety         'C24 H20 F1 N5 O3,C2 H3 N1'
_chemical_name_systematic        
'N-[4-cyano-1-(4-fluorophenyl)-1H-pyrazol-5-yl]-7-(diethylamino)-2-oxo-2H-1-benzopyran-3-carboxamide acetonitrile solvate'
_chemical_properties_biological  
'tested against S. aureus, L. monocytogenes, E. coli and Salmonella'
_symmetry_cell_setting           monoclinic
_symmetry_space_group_name_H-M   'P 21/c'
_symmetry_Int_Tables_number      14
_space_group_name_Hall           '-P 2ybc'
loop_
_symmetry_equiv_pos_site_id
_symmetry_equiv_pos_as_xyz
1 x,y,z
2 -x,1/2+y,1/2-z
3 -x,-y,-z
4 x,1/2-y,1/2+z
_cell_length_a                   11.125(2)
_cell_length_b                   12.643(2)
_cell_length_c                   18.641(3)
_cell_angle_alpha                90
_cell_angle_beta                 106.887(2)
_cell_angle_gamma                90
_cell_volume                     2508.86
_exptl_crystal_colour            yellow
_exptl_crystal_description       block
_cell_formula_units_Z            4
loop_
_atom_site_label
_atom_site_type_symbol
_atom_site_fract_x
_atom_site_fract_y
_atom_site_fract_z
C25 C 0.9253(4) 0.9041(3) 0.3867(2)
H21 H 0.8444 0.8993 0.3502
H22 H 0.9214 0.8730 0.4330
H23 H 0.9862 0.8670 0.3688
C26 C 0.9599(8) 1.0093(4) 0.3985(4)
N6 N 1.0182(10) 1.0972(5) 0.4247(8)
N7 N 0.8734(13) 1.062(2) 0.4099(6)
O1 O 0.38693(11) 0.33758(9) 0.09877(7)
N1 N 0.29679(13) 0.05882(11) -0.02932(8)
O2 O 0.46904(11) 0.08146(10) -0.06951(7)
C1 C 0.56346(14) 0.36511(13) 0.05098(9)
C2 C 0.42893(14) 0.21209(12) 0.01189(9)
O3 O 0.25949(12) 0.20240(11) 0.06643(8)
C3 C 0.49057(15) 0.39648(13) 0.09697(9)
C4 C 0.40224(14) 0.11265(12) -0.03238(9)
C5 C 0.35285(15) 0.24622(13) 0.05831(9)
C6 C 0.53049(14) 0.27176(13) 0.00935(9)
H1 H 0.5790 0.2496 -0.0209
N2 N 0.19665(13) -0.10912(11) -0.03547(8)
C7 C 0.51461(17) 0.48489(13) 0.14157(9)
H2 H 0.4630 0.5022 0.1711
C8 C 0.61858(16) 0.54920(13) 0.14204(10)
C9 C 0.25784(14) -0.03589(12) -0.06517(10)
N3 N 0.64618(15) 0.63650(12) 0.18625(9)
N4 N 0.15811(15) -0.19403(12) -0.08259(10)
C10 C 0.66708(16) 0.43092(14) 0.05191(10)
H3 H 0.7181 0.4133 0.0221
C11 C 0.16448(15) -0.10579(12) 0.03345(10)
F1 F 0.07108(14) -0.10648(11) 0.22985(8)
C12 C 0.69354(17) 0.51890(14) 0.09521(10)
H4 H 0.7621 0.5604 0.0943
C13 C 0.26097(17) -0.07555(14) -0.13386(10)
C14 C 0.25286(17) -0.07595(15) 0.09937(11)
H5 H 0.3334 -0.0566 0.0991
C15 C 0.1021(2) -0.10569(15) 0.16421(12)
C16 C 0.04499(17) -0.13632(15) 0.03326(12)
H6 H -0.0138 -0.1565 -0.0112
C17 C 0.19812(19) -0.17311(16) -0.14044(12)
C18 C 0.01407(19) -0.13652(17) 0.09979(14)
H7 H -0.0656 -0.1573 0.1008
C19 C 0.3048(2) -0.02558(17) -0.18981(12)
C20 C 0.7504(2) 0.70730(15) 0.18613(13)
H8 H 0.7302 0.7784 0.1984
H9 H 0.7607 0.7089 0.1362
C21 C 0.5782(2) 0.66211(17) 0.24050(12)
H10 H 0.6348 0.6982 0.2829
H11 H 0.5517 0.5969 0.2588
C22 C 0.22049(19) -0.07511(16) 0.16541(12)
H12 H 0.2783 -0.0541 0.2100
N5 N 0.3339(2) 0.01164(19) -0.23794(12)
C23 C 0.8726(2) 0.6733(2) 0.24143(16)
H13 H 0.8620 0.6688 0.2906
H14 H 0.9368 0.7241 0.2416
H15 H 0.8966 0.6053 0.2272
C24 C 0.4654(3) 0.7303(2) 0.20845(17)
H16 H 0.4907 0.7949 0.1901
H17 H 0.4260 0.7461 0.2467
H18 H 0.4069 0.6936 0.1680
H19 H 0.2599(19) 0.0841(17) 0.0024(12)
H20 H 0.1853(19) -0.2220(17) -0.1798(12)
loop_
_geom_bond_atom_site_label_1
_geom_bond_atom_site_label_2
_geom_bond_site_symmetry_1
_geom_bond_site_symmetry_2
O1 C3 1_555 1_555
N1 C4 1_555 1_555
O2 C4 1_555 1_555
C1 C3 1_555 1_555
C2 C4 1_555 1_555
O3 C5 1_555 1_555
C3 C7 1_555 1_555
C5 O1 1_555 1_555
C6 C1 1_555 1_555
H1 C6 1_555 1_555
N2 C9 1_555 1_555
C7 H2 1_555 1_555
C8 C7 1_555 1_555
C9 N1 1_555 1_555
N3 C8 1_555 1_555
N4 N2 1_555 1_555
C10 C1 1_555 1_555
H3 C10 1_555 1_555
C11 N2 1_555 1_555
F1 C15 1_555 1_555
C12 C8 1_555 1_555
H4 C12 1_555 1_555
C13 C9 1_555 1_555
C14 C11 1_555 1_555
H5 C14 1_555 1_555
C15 C18 1_555 1_555
C16 C11 1_555 1_555
H6 C16 1_555 1_555
C17 N4 1_555 1_555
C18 C16 1_555 1_555
H7 C18 1_555 1_555
C19 C13 1_555 1_555
C20 N3 1_555 1_555
H8 C20 1_555 1_555
H9 C20 1_555 1_555
C21 N3 1_555 1_555
H10 C21 1_555 1_555
H11 C21 1_555 1_555
C22 C14 1_555 1_555
H12 C22 1_555 1_555
N5 C19 1_555 1_555
C23 C20 1_555 1_555
H13 C23 1_555 1_555
H14 C23 1_555 1_555
H15 C23 1_555 1_555
C24 C21 1_555 1_555
H16 C24 1_555 1_555
H17 C24 1_555 1_555
H18 C24 1_555 1_555
H19 N1 1_555 1_555
H20 C17 1_555 1_555
C25 H21 1_555 1_555
H22 C25 1_555 1_555
H23 C25 1_555 1_555
C26 C25 1_555 1_555
N6 C26 1_555 1_555
N7 C26 1_555 1_555
C2 C5 1_555 1_555
C2 C6 1_555 1_555
C10 C12 1_555 1_555
C13 C17 1_555 1_555
C15 C22 1_555 1_555
N6 N7 1_555 1_555

#END
