
#######################################################################
#
#                 Cambridge Crystallographic Data Centre
#                                CCDC 
#
#######################################################################
#
# If this CIF has been generated from an entry in the Cambridge 
# Structural Database, then it will include bibliographic, chemical, 
# crystal, experimental, refinement or atomic coordinate data resulting 
# from the CCDC's data processing and validation procedures.
#
#######################################################################

data_UDIKUQ
_chemical_formula_moiety         'C15 H15 Br1 F2 N2 O2'
_chemical_name_systematic        
5-bromo-4',4'-difluoro-1'-isopropyl-1-methyl-5'H-spiro[indole-3,3'-pyrrolidine]-2,5'(1H)-dione
_symmetry_cell_setting           monoclinic
_symmetry_space_group_name_H-M   'P 21/c'
_symmetry_Int_Tables_number      14
_space_group_name_Hall           '-P 2ybc'
loop_
_symmetry_equiv_pos_site_id
_symmetry_equiv_pos_as_xyz
1 x,y,z
2 -x,1/2+y,1/2-z
3 -x,-y,-z
4 x,1/2-y,1/2+z
_cell_length_a                   9.8109(16)
_cell_length_b                   13.772(2)
_cell_length_c                   10.9857(19)
_cell_angle_alpha                90
_cell_angle_beta                 90.801(4)
_cell_angle_gamma                90
_cell_volume                     1484.2
_exptl_crystal_colour            colorless
_exptl_crystal_description       Prism
_chemical_melting_point          '201-202 deg.C'
_cell_formula_units_Z            4
loop_
_atom_site_label
_atom_site_type_symbol
_atom_site_fract_x
_atom_site_fract_y
_atom_site_fract_z
Br1 Br 0.34753(9) 0.12427(6) -0.15892(8)
F1 F -0.0811(5) 0.0417(4) 0.1377(4)
F2 F -0.0289(5) -0.0110(3) 0.3191(5)
O1 O 0.0556(7) 0.1619(5) 0.4827(5)
O2 O -0.2853(6) 0.0848(4) 0.3435(6)
N1 N 0.2523(8) 0.1233(5) 0.3808(7)
N2 N -0.1630(7) 0.2177(5) 0.2777(6)
C1 C 0.3449(9) 0.1171(6) 0.4861(9)
H1 H 0.3016 0.1465 0.5570
H2 H 0.4295 0.1519 0.4684
H3 H 0.3656 0.0489 0.5034
C2 C 0.2896(9) 0.1168(6) 0.2599(8)
C3 C 0.4227(8) 0.1031(6) 0.2140(9)
H4 H 0.4991 0.0933 0.2667
C4 C 0.4358(9) 0.1045(6) 0.0888(9)
H5 H 0.5230 0.0957 0.0541
C5 C 0.3220(10) 0.1189(6) 0.0127(8)
C6 C 0.1920(9) 0.1311(6) 0.0584(8)
H6 H 0.1151 0.1398 0.0059
C7 C 0.1792(8) 0.1303(5) 0.1828(8)
C8 C 0.0558(9) 0.1467(6) 0.2600(8)
C9 C 0.1168(9) 0.1459(6) 0.3896(8)
C10 C -0.0581(8) 0.0695(6) 0.2554(7)
C11 C -0.1845(9) 0.1236(6) 0.3013(8)
C12 C -0.0256(8) 0.2392(6) 0.2339(8)
H7 H 0.0144 0.2953 0.2781
H8 H -0.0276 0.2539 0.1457
C13 C -0.2665(8) 0.2930(6) 0.2944(8)
H9 H -0.3521 0.2612 0.3225
C14 C -0.2967(10) 0.3436(7) 0.1731(9)
H10 H -0.2147 0.3775 0.1458
H11 H -0.3706 0.3906 0.1835
H12 H -0.3240 0.2952 0.1121
C15 C -0.2200(10) 0.3658(6) 0.3918(9)
H13 H -0.1884 0.3307 0.4645
H14 H -0.2966 0.4080 0.4131
H15 H -0.1454 0.4054 0.3602
loop_
_geom_bond_atom_site_label_1
_geom_bond_atom_site_label_2
_geom_bond_site_symmetry_1
_geom_bond_site_symmetry_2
Br1 C5 1_555 1_555
F1 C10 1_555 1_555
F2 C10 1_555 1_555
O1 C9 1_555 1_555
O2 C11 1_555 1_555
N1 C1 1_555 1_555
N2 C11 1_555 1_555
C1 H1 1_555 1_555
H2 C1 1_555 1_555
H3 C1 1_555 1_555
C2 N1 1_555 1_555
C3 C2 1_555 1_555
H4 C3 1_555 1_555
C4 C3 1_555 1_555
H5 C4 1_555 1_555
C5 C4 1_555 1_555
C6 C5 1_555 1_555
H6 C6 1_555 1_555
C7 C2 1_555 1_555
C8 C7 1_555 1_555
C9 N1 1_555 1_555
C10 C8 1_555 1_555
C11 C10 1_555 1_555
C12 N2 1_555 1_555
H7 C12 1_555 1_555
H8 C12 1_555 1_555
C13 N2 1_555 1_555
H9 C13 1_555 1_555
C14 C13 1_555 1_555
H10 C14 1_555 1_555
H11 C14 1_555 1_555
H12 C14 1_555 1_555
C15 C13 1_555 1_555
H13 C15 1_555 1_555
H14 C15 1_555 1_555
H15 C15 1_555 1_555
C6 C7 1_555 1_555
C8 C9 1_555 1_555
C8 C12 1_555 1_555

#END
