
#######################################################################
#
#                 Cambridge Crystallographic Data Centre
#                                CCDC 
#
#######################################################################
#
# If this CIF has been generated from an entry in the Cambridge 
# Structural Database, then it will include bibliographic, chemical, 
# crystal, experimental, refinement or atomic coordinate data resulting 
# from the CCDC's data processing and validation procedures.
#
#######################################################################

data_UDIWOV
_chemical_formula_moiety         'C5 H9 N2 1+,H1 F1,F1 1-'
_chemical_name_systematic        
'1,3-Dimethyl-1H-imidazolium fluoride hydrofluoride'
_symmetry_cell_setting           monoclinic
_symmetry_space_group_name_H-M   'P 21/c'
_symmetry_Int_Tables_number      14
_space_group_name_Hall           '-P 2ybc'
loop_
_symmetry_equiv_pos_site_id
_symmetry_equiv_pos_as_xyz
1 x,y,z
2 -x,1/2+y,1/2-z
3 -x,-y,-z
4 x,1/2-y,1/2+z
_cell_length_a                   10.6891(18)
_cell_length_b                   9.9120(17)
_cell_length_c                   14.702(3)
_cell_angle_alpha                90
_cell_angle_beta                 108.118(3)
_cell_angle_gamma                90
_cell_volume                     1480.45
_exptl_crystal_colour            colorless
_exptl_crystal_description       block
_cell_formula_units_Z            8
_chemical_properties_physical    hygroscopic
_exptl_crystal_recrystallization_method acetonitrile
loop_
_atom_site_label
_atom_site_type_symbol
_atom_site_fract_x
_atom_site_fract_y
_atom_site_fract_z
F1 F 1.0017(5) 0.4188(5) 0.6381(4)
H1 H 1.0940 0.3461 0.6699
F2 F 0.6202(6) 0.2875(6) 0.7471(4)
H2 H 0.4967 0.2709 0.7403
F3 F 0.9893(8) 0.2227(7) 0.6592(5)
F4 F 0.5541(6) 0.3704(6) 0.8507(3)
N1 N 1.2182(4) 0.4876(4) 0.9208(3)
N2 N 1.0620(4) 0.3506(4) 0.9169(4)
C1 C 1.1181(6) 0.4215(6) 0.8654(5)
H3 H 1.106(4) 0.430(4) 0.799(4)
C2 C 1.2252(6) 0.4600(6) 1.0109(4)
H4 H 1.2871 0.4946 1.0653
C3 C 1.1302(6) 0.3756(6) 1.0100(5)
H5 H 1.1128 0.3397 1.0633
C4 C 1.3042(7) 0.5771(7) 0.8898(5)
H6 H 1.3326 0.6493 0.9350
H7 H 1.2575 0.6136 0.8281
H8 H 1.3796 0.5277 0.8857
C5 C 0.9461(6) 0.2612(6) 0.8826(5)
H9 H 0.9516 0.1909 0.9285
H10 H 0.9442 0.2220 0.8224
H11 H 0.8674 0.3128 0.8744
N3 N 0.3214(6) 0.3944(6) 0.3978(4)
N4 N 0.3337(5) 0.4328(4) 0.5452(4)
C6 C 0.2704(8) 0.4601(8) 0.4573(7)
H12 H 0.205(7) 0.505(7) 0.434(5)
C7 C 0.4220(6) 0.3230(6) 0.4536(5)
H13 H 0.4770 0.2665 0.4328
C8 C 0.4298(6) 0.3469(5) 0.5445(5)
H14 H 0.4914 0.3101 0.5981
C9 C 0.2770(9) 0.3957(9) 0.2930(6)
H15 H 0.2425 0.4832 0.2706
H16 H 0.2095 0.3290 0.2695
H17 H 0.3499 0.3758 0.2702
C10 C 0.3077(7) 0.4874(7) 0.6313(6)
H18 H 0.2269 0.4504 0.6360
H19 H 0.3007 0.5839 0.6266
H20 H 0.3787 0.4633 0.6873
H21? H 0.6407 0.3001 0.8764
H22? H 0.8881 0.2868 0.5835
loop_
_geom_bond_atom_site_label_1
_geom_bond_atom_site_label_2
_geom_bond_site_symmetry_1
_geom_bond_site_symmetry_2
F1 H1 1_555 1_555
F2 H2 1_555 1_555
N1 C1 1_555 1_555
N2 C1 1_555 1_555
C1 H3 1_555 1_555
C2 N1 1_555 1_555
H4 C2 1_555 1_555
C3 N2 1_555 1_555
H5 C3 1_555 1_555
C4 N1 1_555 1_555
H6 C4 1_555 1_555
H7 C4 1_555 1_555
H8 C4 1_555 1_555
C5 N2 1_555 1_555
H9 C5 1_555 1_555
H10 C5 1_555 1_555
H11 C5 1_555 1_555
N3 C6 1_555 1_555
N4 C6 1_555 1_555
C6 H12 1_555 1_555
C7 N3 1_555 1_555
H13 C7 1_555 1_555
C8 N4 1_555 1_555
H14 C8 1_555 1_555
C9 N3 1_555 1_555
H15 C9 1_555 1_555
H16 C9 1_555 1_555
H17 C9 1_555 1_555
C10 N4 1_555 1_555
H18 C10 1_555 1_555
H19 C10 1_555 1_555
H20 C10 1_555 1_555
C2 C3 1_555 1_555
C7 C8 1_555 1_555

#END
