
#######################################################################
#
#                 Cambridge Crystallographic Data Centre
#                                CCDC 
#
#######################################################################
#
# If this CIF has been generated from an entry in the Cambridge 
# Structural Database, then it will include bibliographic, chemical, 
# crystal, experimental, refinement or atomic coordinate data resulting 
# from the CCDC's data processing and validation procedures.
#
#######################################################################

data_UDIXEL
_chemical_formula_moiety         'C26 H41 N1 O7,H2 O1'
_chemical_name_systematic        'Circinasine A monohydrate'
_symmetry_cell_setting           orthorhombic
_symmetry_space_group_name_H-M   'P 21 21 21'
_symmetry_Int_Tables_number      19
_space_group_name_Hall           'P 2ac 2ab'
loop_
_symmetry_equiv_pos_site_id
_symmetry_equiv_pos_as_xyz
1 x,y,z
2 1/2-x,-y,1/2+z
3 -x,1/2+y,1/2-z
4 1/2+x,1/2-y,-z
_cell_length_a                   9.1860(18)
_cell_length_b                   10.212(2)
_cell_length_c                   54.792(11)
_cell_angle_alpha                90
_cell_angle_beta                 90
_cell_angle_gamma                90
_cell_volume                     5139.9
_exptl_crystal_colour            colorless
_exptl_crystal_description       block
_cell_formula_units_Z            8
_exptl_crystal_recrystallization_method acetone/cyclohexane
loop_
_atom_site_label
_atom_site_type_symbol
_atom_site_fract_x
_atom_site_fract_y
_atom_site_fract_z
N1 N -0.0232(3) -0.7249(2) -0.45480(4)
O1 O -0.3781(3) -0.8369(2) -0.45010(4)
O2 O 0.0895(3) -0.8399(3) -0.36934(5)
O3 O -0.1655(2) -0.7271(2) -0.38072(4)
H1 H -0.1062 -0.7655 -0.3721
O4 O -0.1104(2) -0.29935(18) -0.41521(4)
H2 H -0.1620 -0.2723 -0.4041
O5 O -0.6338(2) -0.4019(2) -0.45083(4)
O6 O -0.4659(2) -0.2901(2) -0.47369(4)
O7 O -0.4371(2) -0.24445(19) -0.41706(4)
H3 H -0.3503 -0.2260 -0.4166
C1 C -0.2869(3) -0.8383(2) -0.42881(5)
H4 H -0.3492 -0.8588 -0.4148
C2 C -0.1774(4) -0.9502(3) -0.43140(6)
H5 H -0.2282 -1.0330 -0.4298
H6 H -0.1348 -0.9472 -0.4476
C3 C -0.0561(4) -0.9440(3) -0.41248(7)
H7 H 0.0175 -1.0088 -0.4164
H8 H -0.0955 -0.9654 -0.3965
C4 C 0.0145(3) -0.8081(3) -0.41150(5)
C5 C -0.1017(3) -0.7017(2) -0.40441(4)
C6 C -0.0291(3) -0.5654(3) -0.40596(5)
H9 H 0.0758 -0.5728 -0.4044
H10 H -0.0651 -0.5084 -0.3931
C7 C -0.0712(3) -0.5115(2) -0.43147(5)
H11 H 0.0147 -0.4775 -0.4400
C8 C -0.1862(3) -0.4035(2) -0.42823(4)
C9 C -0.3111(3) -0.4578(2) -0.41186(4)
H12 H -0.2847 -0.4492 -0.3946
C10 C -0.3524(3) -0.6038(2) -0.41771(4)
H13 H -0.3974 -0.6395 -0.4029
C11 C -0.2234(3) -0.6984(2) -0.42456(4)
C12 C -0.4784(3) -0.5887(3) -0.43719(5)
H14 H -0.4538 -0.6347 -0.4521
H15 H -0.5690 -0.6238 -0.4309
C13 C -0.4924(3) -0.4410(2) -0.44196(5)
C14 C -0.4537(3) -0.3825(3) -0.41702(5)
H16 H -0.5278 -0.4075 -0.4050
C15 C -0.2398(3) -0.3445(3) -0.45282(5)
H17 H -0.2464 -0.2502 -0.4510
H18 H -0.1668 -0.3621 -0.4652
C16 C -0.3866(3) -0.3950(3) -0.46209(5)
H19 H -0.3708 -0.4661 -0.4738
C17 C -0.1343(3) -0.6341(2) -0.44510(4)
H20 H -0.1992 -0.6058 -0.4583
C18 C 0.1424(4) -0.8125(3) -0.39314(6)
H21 H 0.2112 -0.8797 -0.3980
H22 H 0.1927 -0.7290 -0.3931
C19 C 0.0827(3) -0.7695(3) -0.43623(5)
H23 H 0.1528 -0.7000 -0.4335
H24 H 0.1352 -0.8443 -0.4427
C20 C 0.0509(4) -0.6716(3) -0.47648(6)
H25 H 0.1114 -0.5985 -0.4715
H26 H -0.0219 -0.6382 -0.4877
C21 C 0.1445(6) -0.7699(5) -0.48979(7)
H27 H 0.1890 -0.7286 -0.5037
H28 H 0.0853 -0.8417 -0.4952
H29 H 0.2189 -0.8018 -0.4790
C22 C -0.4831(5) -0.9387(4) -0.45082(11)
H30 H -0.5393 -0.9315 -0.4655
H31 H -0.5464 -0.9315 -0.4369
H32 H -0.4346 -1.0220 -0.4505
C23 C 0.2025(5) -0.8361(4) -0.35131(7)
H33 H 0.1618 -0.8542 -0.3355
H34 H 0.2465 -0.7508 -0.3512
H35 H 0.2749 -0.9008 -0.3551
C24 C -0.6154(3) -0.3269(3) -0.47339(6)
C25 C -0.7080(4) -0.2044(4) -0.47215(9)
H36 H -0.6815 -0.1543 -0.4580
H37 H -0.8089 -0.2284 -0.4711
H38 H -0.6924 -0.1527 -0.4865
C26 C -0.6544(5) -0.4115(4) -0.49534(7)
H39 H -0.5936 -0.4879 -0.4955
H40 H -0.6395 -0.3623 -0.5101
H41 H -0.7546 -0.4375 -0.4942
N2 N -1.0457(2) -0.4585(2) -0.30999(4)
O8 O -1.0263(2) -0.2459(2) -0.26593(3)
O9 O -0.6138(2) -0.5481(2) -0.33824(4)
O10 O -0.76523(19) -0.15815(18) -0.33637(3)
H42 H -0.7105 -0.1483 -0.3247
O11 O -1.2407(2) -0.1587(2) -0.37252(3)
H43 H -1.1885 -0.2110 -0.3798
O12 O -1.3686(2) 0.1047(2) -0.29309(4)
O13 O -1.5265(2) -0.0515(2) -0.30666(4)
O14 O -1.3324(2) 0.0936(2) -0.34794(4)
H44 H -1.3351 0.0364 -0.3584
C27 C -0.9101(3) -0.2362(3) -0.28352(4)
H45 H -0.8568 -0.1549 -0.2802
C28 C -0.8055(3) -0.3508(3) -0.27902(5)
H46 H -0.7461 -0.3314 -0.2648
H47 H -0.8618 -0.4288 -0.2754
C29 C -0.7060(3) -0.3782(3) -0.30080(5)
H48 H -0.6522 -0.4583 -0.2979
H49 H -0.6364 -0.3073 -0.3024
C30 C -0.7931(3) -0.3916(2) -0.32470(5)
C31 C -0.8692(3) -0.2601(2) -0.33094(4)
C32 C -0.9700(3) -0.2771(3) -0.35357(4)
H50 H -0.9661 -0.2001 -0.3639
H51 H -0.9408 -0.3528 -0.3631
C33 C -1.1259(3) -0.2963(2) -0.34311(4)
H52 H -1.1741 -0.3708 -0.3510
C34 C -1.2166(3) -0.1708(2) -0.34632(4)
C35 C -1.1229(3) -0.0534(2) -0.33745(5)
H53 H -1.0548 -0.0269 -0.3503
C36 C -1.0377(3) -0.0817(2) -0.31313(5)
H54 H -0.9523 -0.0242 -0.3133
C37 C -0.9783(2) -0.2248(2) -0.30964(4)
C38 C -1.1419(3) -0.0269(3) -0.29277(5)
H55 H -1.1616 -0.0933 -0.2805
H56 H -1.0991 0.0488 -0.2848
C39 C -1.2806(3) 0.0108(2) -0.30617(5)
C40 C -1.2221(3) 0.0627(3) -0.33050(5)
H57 H -1.1622 0.1405 -0.3275
C41 C -1.3695(3) -0.1778(3) -0.33403(5)
H58 H -1.4403 -0.1402 -0.3451
H59 H -1.3948 -0.2691 -0.3317
C42 C -1.3825(3) -0.1079(3) -0.30944(5)
H60 H -1.3652 -0.1708 -0.2962
C43 C -1.0978(3) -0.3253(2) -0.31544(4)
H61 H -1.1855 -0.3061 -0.3059
C44 C -0.6853(3) -0.4299(3) -0.34523(5)
H62 H -0.7375 -0.4428 -0.3604
H63 H -0.6144 -0.3608 -0.3476
C45 C -0.9125(3) -0.4987(2) -0.32309(5)
H64 H -0.9390 -0.5248 -0.3395
H65 H -0.8718 -0.5748 -0.3150
C46 C -1.1571(3) -0.5609(3) -0.31283(5)
H66 H -1.1146 -0.6448 -0.3086
H67 H -1.1858 -0.5650 -0.3298
C47 C -1.2924(4) -0.5392(4) -0.29728(8)
H68 H -1.3600 -0.6095 -0.3000
H69 H -1.3371 -0.4576 -0.3017
H70 H -1.2655 -0.5368 -0.2804
C48 C -0.9893(5) -0.1937(4) -0.24274(6)
H71 H -1.0704 -0.2032 -0.2318
H72 H -0.9655 -0.1026 -0.2444
H73 H -0.9068 -0.2400 -0.2363
C49 C -0.5085(4) -0.5876(4) -0.35566(7)
H74 H -0.4633 -0.6675 -0.3504
H75 H -0.4359 -0.5205 -0.3573
H76 H -0.5549 -0.6015 -0.3711
C50 C -1.5103(3) 0.0519(3) -0.28908(5)
C51 C -1.6225(4) 0.1567(4) -0.29434(9)
H77 H -1.6076 0.1906 -0.3105
H78 H -1.6128 0.2263 -0.2827
H79 H -1.7183 0.1197 -0.2932
C52 C -1.5211(6) -0.0031(5) -0.26307(7)
H80 H -1.4451 -0.0662 -0.2605
H81 H -1.6140 -0.0445 -0.2609
H82 H -1.5109 0.0670 -0.2515
O15 O -0.6384(3) -0.1233(3) -0.38570(6)
H85 H -0.716(6) -0.158(5) -0.3958(10)
H86 H -0.678(9) -0.106(8) -0.3673(14)
O16 O 0.1918(3) -0.2932(5) -0.41098(7)
H83 H 0.103(4) -0.266(7) -0.4160(12)
H84 H 0.236(5) -0.342(5) -0.4245(9)
loop_
_geom_bond_atom_site_label_1
_geom_bond_atom_site_label_2
_geom_bond_site_symmetry_1
_geom_bond_site_symmetry_2
N1 C17 1_555 1_555
O1 C1 1_555 1_555
O2 C18 1_555 1_555
O3 H1 1_555 1_555
O4 H2 1_555 1_555
O5 C13 1_555 1_555
O6 C16 1_555 1_555
O7 H3 1_555 1_555
C1 H4 1_555 1_555
C2 C1 1_555 1_555
H5 C2 1_555 1_555
H6 C2 1_555 1_555
C3 C2 1_555 1_555
H7 C3 1_555 1_555
H8 C3 1_555 1_555
C4 C3 1_555 1_555
C5 O3 1_555 1_555
C6 C5 1_555 1_555
H9 C6 1_555 1_555
H10 C6 1_555 1_555
C7 C6 1_555 1_555
H11 C7 1_555 1_555
C8 O4 1_555 1_555
C9 C8 1_555 1_555
H12 C9 1_555 1_555
C10 C9 1_555 1_555
H13 C10 1_555 1_555
C11 C1 1_555 1_555
C12 C10 1_555 1_555
H14 C12 1_555 1_555
H15 C12 1_555 1_555
C13 C12 1_555 1_555
C14 O7 1_555 1_555
H16 C14 1_555 1_555
C15 C8 1_555 1_555
H17 C15 1_555 1_555
H18 C15 1_555 1_555
C16 C13 1_555 1_555
H19 C16 1_555 1_555
C17 C7 1_555 1_555
H20 C17 1_555 1_555
C18 C4 1_555 1_555
H21 C18 1_555 1_555
H22 C18 1_555 1_555
C19 N1 1_555 1_555
H23 C19 1_555 1_555
H24 C19 1_555 1_555
C20 N1 1_555 1_555
H25 C20 1_555 1_555
H26 C20 1_555 1_555
C21 C20 1_555 1_555
H27 C21 1_555 1_555
H28 C21 1_555 1_555
H29 C21 1_555 1_555
C22 O1 1_555 1_555
H30 C22 1_555 1_555
H31 C22 1_555 1_555
H32 C22 1_555 1_555
C23 O2 1_555 1_555
H33 C23 1_555 1_555
H34 C23 1_555 1_555
H35 C23 1_555 1_555
C24 O5 1_555 1_555
C25 C24 1_555 1_555
H36 C25 1_555 1_555
H37 C25 1_555 1_555
H38 C25 1_555 1_555
C26 C24 1_555 1_555
H39 C26 1_555 1_555
H40 C26 1_555 1_555
H41 C26 1_555 1_555
N2 C43 1_555 1_555
O8 C27 1_555 1_555
O9 C44 1_555 1_555
O10 H42 1_555 1_555
O11 H43 1_555 1_555
O12 C39 1_555 1_555
O13 C42 1_555 1_555
O14 H44 1_555 1_555
C27 H45 1_555 1_555
C28 C27 1_555 1_555
H46 C28 1_555 1_555
H47 C28 1_555 1_555
C29 C28 1_555 1_555
H48 C29 1_555 1_555
H49 C29 1_555 1_555
C30 C29 1_555 1_555
C31 O10 1_555 1_555
C32 C31 1_555 1_555
H50 C32 1_555 1_555
H51 C32 1_555 1_555
C33 C32 1_555 1_555
H52 C33 1_555 1_555
C34 O11 1_555 1_555
C35 C34 1_555 1_555
H53 C35 1_555 1_555
C36 C35 1_555 1_555
H54 C36 1_555 1_555
C37 C27 1_555 1_555
C38 C36 1_555 1_555
H55 C38 1_555 1_555
H56 C38 1_555 1_555
C39 C38 1_555 1_555
C40 O14 1_555 1_555
H57 C40 1_555 1_555
C41 C34 1_555 1_555
H58 C41 1_555 1_555
H59 C41 1_555 1_555
C42 C39 1_555 1_555
H60 C42 1_555 1_555
C43 C33 1_555 1_555
H61 C43 1_555 1_555
C44 C30 1_555 1_555
H62 C44 1_555 1_555
H63 C44 1_555 1_555
C45 N2 1_555 1_555
H64 C45 1_555 1_555
H65 C45 1_555 1_555
C46 N2 1_555 1_555
H66 C46 1_555 1_555
H67 C46 1_555 1_555
C47 C46 1_555 1_555
H68 C47 1_555 1_555
H69 C47 1_555 1_555
H70 C47 1_555 1_555
C48 O8 1_555 1_555
H71 C48 1_555 1_555
H72 C48 1_555 1_555
H73 C48 1_555 1_555
C49 O9 1_555 1_555
H74 C49 1_555 1_555
H75 C49 1_555 1_555
H76 C49 1_555 1_555
C50 O12 1_555 1_555
C51 C50 1_555 1_555
H77 C51 1_555 1_555
H78 C51 1_555 1_555
H79 C51 1_555 1_555
C52 C50 1_555 1_555
H80 C52 1_555 1_555
H81 C52 1_555 1_555
H82 C52 1_555 1_555
O15 H85 1_555 1_555
O16 H83 1_555 1_555
H84 O16 1_555 1_555
H86 O15 1_555 1_555
O6 C24 1_555 1_555
C4 C5 1_555 1_555
C4 C19 1_555 1_555
C5 C11 1_555 1_555
C7 C8 1_555 1_555
C9 C14 1_555 1_555
C10 C11 1_555 1_555
C11 C17 1_555 1_555
C13 C14 1_555 1_555
C15 C16 1_555 1_555
O13 C50 1_555 1_555
C30 C31 1_555 1_555
C30 C45 1_555 1_555
C31 C37 1_555 1_555
C33 C34 1_555 1_555
C35 C40 1_555 1_555
C36 C37 1_555 1_555
C37 C43 1_555 1_555
C39 C40 1_555 1_555
C41 C42 1_555 1_555

#END
