
#######################################################################
#
#                 Cambridge Crystallographic Data Centre
#                                CCDC 
#
#######################################################################
#
# If this CIF has been generated from an entry in the Cambridge 
# Structural Database, then it will include bibliographic, chemical, 
# crystal, experimental, refinement or atomic coordinate data resulting 
# from the CCDC's data processing and validation procedures.
#
#######################################################################

data_UDOQUB
_chemical_formula_moiety         'C9 H16 B10 F1 N1 O1'
_chemical_name_systematic        
1-(2-Fluorophenylcarbamoyl)-1,2-dicarba-closo-dodecaborane(11)
_symmetry_cell_setting           triclinic
_symmetry_space_group_name_H-M   'P -1'
_symmetry_Int_Tables_number      2
_space_group_name_Hall           '-P 1'
loop_
_symmetry_equiv_pos_site_id
_symmetry_equiv_pos_as_xyz
1 x,y,z
2 -x,-y,-z
_cell_length_a                   6.735(2)
_cell_length_b                   11.253(4)
_cell_length_c                   11.649(4)
_cell_angle_alpha                114.63(3)
_cell_angle_beta                 90.84(3)
_cell_angle_gamma                106.42(3)
_cell_volume                     760.874
_cell_formula_units_Z            2
loop_
_atom_site_label
_atom_site_type_symbol
_atom_site_fract_x
_atom_site_fract_y
_atom_site_fract_z
N1 N 0.4524(3) 0.73358(18) 0.94455(17)
H1 H 0.5404 0.7195 0.8915
F1 F 0.8528(2) 0.87652(15) 1.01005(16)
C1 C 0.2703(3) 0.4987(2) 0.79838(19)
C2 C 0.5131(4) 0.8644(2) 1.0522(2)
C3 C 0.3760(4) 0.9234(2) 1.1262(2)
H2 H 0.2326 0.8774 1.1057
C4 C 0.2759(4) 0.6304(2) 0.9162(2)
C5 C 0.7215(4) 0.9362(2) 1.0849(2)
C6 C 0.0604(3) 0.3690(2) 0.7672(2)
H3 H -0.0630 0.3797 0.8280
B1 B 0.3586(4) 0.4970(3) 0.6619(2)
H4 H 0.4398 0.5896 0.6497
O1 O 0.1297(3) 0.63451(17) 0.97556(19)
B2 B 0.2886(4) 0.3658(3) 0.8295(3)
H5 H 0.3211 0.3733 0.9255
B3 B 0.3836(5) 0.2634(3) 0.6964(2)
H6 H 0.4806 0.2026 0.7047
C7 C 0.8010(4) 1.0629(3) 1.1877(3)
H7 H 0.9444 1.1089 1.2075
B4 B 0.1819(5) 0.3486(3) 0.5381(3)
H8 H 0.1471 0.3428 0.4431
B5 B 0.4258(4) 0.3443(3) 0.5913(2)
H9 H 0.5496 0.3356 0.5306
B6 B 0.1970(5) 0.2030(3) 0.5591(3)
H10 H 0.1720 0.1020 0.4775
B7 B 0.4821(4) 0.4445(3) 0.7585(2)
H11 H 0.6433 0.5031 0.8086
C8 C 0.4537(5) 1.0510(3) 1.2306(2)
H12 H 0.3623 1.0902 1.2809
B8 B 0.1125(5) 0.2176(3) 0.7061(2)
H13 H 0.0307 0.1271 0.7215
B9 B 0.0858(4) 0.4508(3) 0.6707(3)
H14 H -0.0115 0.5123 0.6645
C9 C 0.6656(5) 1.1202(3) 1.2605(2)
H15 H 0.7167 1.2062 1.3304
B10 B -0.0129(5) 0.2690(3) 0.6087(3)
H16 H -0.1756 0.2116 0.5610
loop_
_geom_bond_atom_site_label_1
_geom_bond_atom_site_label_2
_geom_bond_site_symmetry_1
_geom_bond_site_symmetry_2
N1 H1 1_555 1_555
F1 C5 1_555 1_555
C1 C4 1_555 1_555
C2 N1 1_555 1_555
C3 C2 1_555 1_555
H2 C3 1_555 1_555
C4 N1 1_555 1_555
C5 C2 1_555 1_555
C6 C1 1_555 1_555
H3 C6 1_555 1_555
B1 C1 1_555 1_555
H4 B1 1_555 1_555
O1 C4 1_555 1_555
B2 C1 1_555 1_555
H5 B2 1_555 1_555
B3 B2 1_555 1_555
H6 B3 1_555 1_555
C7 C5 1_555 1_555
H7 C7 1_555 1_555
B4 B1 1_555 1_555
H8 B4 1_555 1_555
B5 B1 1_555 1_555
H9 B5 1_555 1_555
B6 B3 1_555 1_555
H10 B6 1_555 1_555
B7 C1 1_555 1_555
H11 B7 1_555 1_555
C8 C3 1_555 1_555
H12 C8 1_555 1_555
B8 C6 1_555 1_555
H13 B8 1_555 1_555
B9 C1 1_555 1_555
H14 B9 1_555 1_555
C9 C7 1_555 1_555
H15 C9 1_555 1_555
B10 C6 1_555 1_555
H16 B10 1_555 1_555
C6 B2 1_555 1_555
C6 B9 1_555 1_555
B1 B7 1_555 1_555
B1 B9 1_555 1_555
B2 B7 1_555 1_555
B2 B8 1_555 1_555
B3 B5 1_555 1_555
B3 B7 1_555 1_555
B3 B8 1_555 1_555
B4 B5 1_555 1_555
B4 B6 1_555 1_555
B4 B9 1_555 1_555
B4 B10 1_555 1_555
B5 B6 1_555 1_555
B5 B7 1_555 1_555
B6 B8 1_555 1_555
B6 B10 1_555 1_555
C8 C9 1_555 1_555
B8 B10 1_555 1_555
B9 B10 1_555 1_555

#END
