
#######################################################################
#
#                 Cambridge Crystallographic Data Centre
#                                CCDC 
#
#######################################################################
#
# If this CIF has been generated from an entry in the Cambridge 
# Structural Database, then it will include bibliographic, chemical, 
# crystal, experimental, refinement or atomic coordinate data resulting 
# from the CCDC's data processing and validation procedures.
#
#######################################################################

data_UDOXER
_chemical_formula_moiety         'C33 H37 N1 O12'
_chemical_name_systematic        
trans-4,7,10,13,20,23,26,29,34,42-decaoxa-44-azapentacyclo[15.15.11.1^36,40^.0^3,30^.0^14,19^]tetratetraconta-1(32),2,14,16,18,30,36(44),37,39-nonaene-35,41-dione
_symmetry_cell_setting           triclinic
_symmetry_space_group_name_H-M   'P -1'
_symmetry_Int_Tables_number      2
_space_group_name_Hall           '-P 1'
loop_
_symmetry_equiv_pos_site_id
_symmetry_equiv_pos_as_xyz
1 x,y,z
2 -x,-y,-z
_cell_length_a                   7.8913(4)
_cell_length_b                   14.0530(7)
_cell_length_c                   14.1863(7)
_cell_angle_alpha                81.8840(10)
_cell_angle_beta                 79.6700(10)
_cell_angle_gamma                89.4280(10)
_cell_volume                     1532.02
_exptl_crystal_colour            colorless
_exptl_crystal_description       block
_cell_formula_units_Z            2
loop_
_atom_site_label
_atom_site_type_symbol
_atom_site_fract_x
_atom_site_fract_y
_atom_site_fract_z
N1 N 0.31700(13) 0.24644(7) 0.84939(7)
O1 O -0.07407(11) 0.37233(7) 0.86409(6)
O2 O 0.15444(11) 0.37021(6) 0.74319(6)
O3 O 0.66366(12) 0.09614(7) 0.89711(7)
O4 O 0.63881(11) 0.21258(6) 0.77347(6)
O5 O 0.40149(11) 0.45498(6) 0.29375(6)
O6 O 0.71183(11) 0.46881(7) 0.15801(6)
O7 O 0.93838(11) 0.30627(6) 0.17947(6)
O8 O 0.89279(11) 0.22681(6) 0.37482(6)
O9 O 0.79581(12) 0.03808(6) 0.38457(6)
O10 O 0.61401(12) -0.02795(6) 0.24202(7)
O11 O 0.44734(11) 0.15699(6) 0.26678(6)
O12 O 0.31564(11) 0.28686(6) 0.40795(6)
C1 C 0.06322(15) 0.34076(9) 0.83059(8)
C2 C 0.14984(15) 0.25931(8) 0.88328(8)
C3 C 0.05420(17) 0.20144(9) 0.96229(9)
H1 H -0.0642 0.2133 0.9839
C4 C 0.13701(18) 0.12599(9) 1.00852(9)
H2 H 0.0761 0.0850 1.0628
C5 C 0.30950(17) 0.11114(9) 0.97462(9)
H3 H 0.3690 0.0599 1.0049
C6 C 0.39379(16) 0.17333(8) 0.89496(8)
C7 C 0.58004(16) 0.15559(8) 0.85601(9)
C8 C 0.08903(16) 0.45150(9) 0.68579(9)
H4 H 0.1112 0.5120 0.7101
H5 H -0.0367 0.4440 0.6896
C9 C 0.18093(15) 0.45380(9) 0.58319(8)
C10 C 0.22933(15) 0.54089(8) 0.52608(9)
H6 H 0.2106 0.5988 0.5535
C11 C 0.30521(15) 0.54491(9) 0.42884(9)
H7 H 0.3375 0.6052 0.3906
C12 C 0.33351(15) 0.46068(9) 0.38812(8)
C13 C 0.28955(15) 0.37163(8) 0.44656(9)
C14 C 0.21401(15) 0.36893(8) 0.54260(8)
H8 H 0.1842 0.3087 0.5816
C15 C 0.81667(16) 0.19880(9) 0.72639(9)
H9 H 0.8774 0.1575 0.7718
H10 H 0.8779 0.2617 0.7088
C16 C 0.81826(15) 0.15257(9) 0.63692(9)
C17 C 0.77286(16) 0.05657(9) 0.64314(9)
H11 H 0.7466 0.0182 0.7048
C18 C 0.76535(16) 0.01590(9) 0.56035(9)
H12 H 0.7325 -0.0498 0.5657
C19 C 0.80585(15) 0.07103(9) 0.46936(9)
C20 C 0.85885(15) 0.16712(9) 0.46197(9)
C21 C 0.86237(15) 0.20706(8) 0.54565(9)
H13 H 0.8954 0.2726 0.5407
C22 C 0.45912(16) 0.54185(9) 0.23070(9)
H14 H 0.5355 0.5795 0.2603
H15 H 0.3598 0.5819 0.2175
C23 C 0.55560(16) 0.51117(9) 0.13876(9)
H16 H 0.4854 0.4642 0.1159
H17 H 0.5802 0.5675 0.0877
C24 C 0.80094(16) 0.42299(9) 0.08095(8)
H18 H 0.8219 0.4690 0.0203
H19 H 0.7312 0.3683 0.0710
C25 C 0.96984(16) 0.38763(9) 0.10689(9)
H20 H 1.0464 0.3701 0.0488
H21 H 1.0276 0.4391 0.1310
C26 C 1.08059(16) 0.28491(9) 0.22765(9)
H22 H 1.1088 0.3410 0.2574
H23 H 1.1829 0.2704 0.1807
C27 C 1.03363(16) 0.19956(9) 0.30454(9)
H24 H 0.9988 0.1444 0.2756
H25 H 1.1337 0.1805 0.3359
C28 C 0.73469(17) -0.05856(9) 0.38991(10)
H26 H 0.6154 -0.0659 0.4268
H27 H 0.8086 -0.1041 0.4233
C29 C 0.73974(18) -0.07939(10) 0.28793(10)
H28 H 0.8555 -0.0623 0.2493
H29 H 0.7207 -0.1492 0.2895
C30 C 0.67132(16) 0.06146(9) 0.18513(9)
H30 H 0.7297 0.0509 0.1197
H31 H 0.7539 0.0935 0.2158
C31 C 0.51525(16) 0.12307(9) 0.17833(9)
H32 H 0.5470 0.1787 0.1272
H33 H 0.4251 0.0852 0.1593
C32 C 0.53298(16) 0.24375(9) 0.27583(9)
H34 H 0.4939 0.2981 0.2330
H35 H 0.6588 0.2376 0.2554
C33 C 0.49469(15) 0.26345(9) 0.37854(9)
H36 H 0.5231 0.2062 0.4217
H37 H 0.5685 0.3176 0.3856
loop_
_geom_bond_atom_site_label_1
_geom_bond_atom_site_label_2
_geom_bond_site_symmetry_1
_geom_bond_site_symmetry_2
N1 C2 1_555 1_555
O1 C1 1_555 1_555
O2 C1 1_555 1_555
O3 C7 1_555 1_555
O4 C7 1_555 1_555
O5 C12 1_555 1_555
O6 C23 1_555 1_555
O7 C25 1_555 1_555
O8 C20 1_555 1_555
O9 C19 1_555 1_555
O10 C29 1_555 1_555
O11 C31 1_555 1_555
O12 C13 1_555 1_555
C1 C2 1_555 1_555
C2 C3 1_555 1_555
C3 H1 1_555 1_555
C4 C3 1_555 1_555
H2 C4 1_555 1_555
C5 C4 1_555 1_555
H3 C5 1_555 1_555
C6 N1 1_555 1_555
C7 C6 1_555 1_555
C8 O2 1_555 1_555
H4 C8 1_555 1_555
H5 C8 1_555 1_555
C9 C8 1_555 1_555
C10 C9 1_555 1_555
H6 C10 1_555 1_555
C11 C10 1_555 1_555
H7 C11 1_555 1_555
C12 C11 1_555 1_555
C13 C12 1_555 1_555
C14 C9 1_555 1_555
H8 C14 1_555 1_555
C15 O4 1_555 1_555
H9 C15 1_555 1_555
H10 C15 1_555 1_555
C16 C15 1_555 1_555
C17 C16 1_555 1_555
H11 C17 1_555 1_555
C18 C17 1_555 1_555
H12 C18 1_555 1_555
C19 C18 1_555 1_555
C20 C19 1_555 1_555
C21 C16 1_555 1_555
H13 C21 1_555 1_555
C22 O5 1_555 1_555
H14 C22 1_555 1_555
H15 C22 1_555 1_555
C23 C22 1_555 1_555
H16 C23 1_555 1_555
H17 C23 1_555 1_555
C24 O6 1_555 1_555
H18 C24 1_555 1_555
H19 C24 1_555 1_555
C25 C24 1_555 1_555
H20 C25 1_555 1_555
H21 C25 1_555 1_555
C26 O7 1_555 1_555
H22 C26 1_555 1_555
H23 C26 1_555 1_555
C27 O8 1_555 1_555
H24 C27 1_555 1_555
H25 C27 1_555 1_555
C28 O9 1_555 1_555
H26 C28 1_555 1_555
H27 C28 1_555 1_555
C29 C28 1_555 1_555
H28 C29 1_555 1_555
H29 C29 1_555 1_555
C30 O10 1_555 1_555
H30 C30 1_555 1_555
H31 C30 1_555 1_555
C31 C30 1_555 1_555
H32 C31 1_555 1_555
H33 C31 1_555 1_555
C32 O11 1_555 1_555
H34 C32 1_555 1_555
H35 C32 1_555 1_555
C33 O12 1_555 1_555
H36 C33 1_555 1_555
H37 C33 1_555 1_555
C5 C6 1_555 1_555
C13 C14 1_555 1_555
C20 C21 1_555 1_555
C26 C27 1_555 1_555
C32 C33 1_555 1_555

#END
