
#######################################################################
#
#                 Cambridge Crystallographic Data Centre
#                                CCDC 
#
#######################################################################
#
# If this CIF has been generated from an entry in the Cambridge 
# Structural Database, then it will include bibliographic, chemical, 
# crystal, experimental, refinement or atomic coordinate data resulting 
# from the CCDC's data processing and validation procedures.
#
#######################################################################

data_UDOXOB
_chemical_formula_moiety         
'C33 H37 N1 O12,C14 H18 N2 O2 2+,2(F6 P1 1-),0.5(C3 H6 O1)'
_chemical_name_systematic        
"(2)-(N,N'-hydroxyethyl-4,4'-dipyridinium)-(trans-4,7,10,13,20,23,26,29,34,42-decaoxa-44-azapentacyclo[15.15.11.1^36,40^.0^3,30^.0^14,19^]tetratetraconta-1(32),2,14,16,18,30,36(44),37,39-nonaene-35,41-dione)-pseudorotaxane bis(hexafluorophosphate) acetone solvate"
_symmetry_cell_setting           orthorhombic
_symmetry_space_group_name_H-M   'P b c a'
_symmetry_Int_Tables_number      61
_space_group_name_Hall           '-P 2ac 2ab'
loop_
_symmetry_equiv_pos_site_id
_symmetry_equiv_pos_as_xyz
1 x,y,z
2 1/2-x,-y,1/2+z
3 -x,1/2+y,1/2-z
4 1/2+x,1/2-y,-z
5 -x,-y,-z
6 1/2+x,y,1/2-z
7 x,1/2-y,1/2+z
8 1/2-x,1/2+y,z
_cell_length_a                   14.0661(12)
_cell_length_b                   19.6477(15)
_cell_length_c                   37.765(2)
_cell_angle_alpha                90
_cell_angle_beta                 90
_cell_angle_gamma                90
_cell_volume                     10437
_exptl_crystal_colour            orange
_exptl_crystal_description       plate
_cell_formula_units_Z            8
loop_
_atom_site_label
_atom_site_type_symbol
_atom_site_fract_x
_atom_site_fract_y
_atom_site_fract_z
P3 P 0.3788(7) 0.7865(4) 0.5625(3)
F13 F 0.3373(13) 0.7844(8) 0.5244(4)
F14 F 0.4392(11) 0.8505(8) 0.5506(6)
F15 F 0.4288(15) 0.7937(9) 0.6010(5)
F16 F 0.3094(14) 0.7178(17) 0.5733(9)
F17 F 0.3004(14) 0.8421(9) 0.5727(6)
F18 F 0.4613(15) 0.7353(10) 0.5496(8)
O1 O 0.7018(3) 0.4940(2) 0.71404(13)
O2 O 0.7742(4) 0.5875(3) 0.66156(16)
O3 O 0.7611(5) 0.6474(3) 0.5911(2)
O4 O 0.6213(3) 0.5471(2) 0.55813(11)
O5 O 0.6824(3) 0.3700(2) 0.69432(11)
O6 O 0.7709(3) 0.3139(2) 0.63549(11)
O7 O 0.7522(3) 0.3145(2) 0.56226(11)
O8 O 0.6333(3) 0.4236(2) 0.53619(11)
O9 O 0.2827(3) 0.3951(2) 0.70245(10)
O10 O 0.1721(3) 0.3217(2) 0.72085(13)
O11 O 0.2322(3) 0.4985(2) 0.59080(11)
O12 O 0.0858(3) 0.5354(2) 0.57590(12)
N1 N 0.1657(3) 0.4360(2) 0.64891(14)
C1 C 0.6147(5) 0.4660(3) 0.72026(16)
C2 C 0.6035(4) 0.3992(3) 0.70945(15)
C3 C 0.5167(4) 0.3676(3) 0.71261(15)
H4 H 0.5096 0.3220 0.7047
C4 C 0.4399(4) 0.4009(3) 0.72704(16)
C5 C 0.4526(5) 0.4672(3) 0.73876(17)
H5 H 0.4003 0.4910 0.7489
C6 C 0.5396(5) 0.4995(4) 0.73607(18)
H6 H 0.5476 0.5443 0.7450
C7 C 0.5368(4) 0.5155(3) 0.55207(16)
C8 C 0.5436(4) 0.4472(3) 0.53948(15)
C9 C 0.4616(4) 0.4114(3) 0.53257(16)
H7 H 0.4654 0.3662 0.5238
C10 C 0.3733(5) 0.4410(3) 0.53837(16)
H8 H 0.3174 0.4159 0.5329
C11 C 0.3649(5) 0.5058(3) 0.55193(16)
C12 C 0.4478(4) 0.5438(3) 0.55796(15)
H9 H 0.4429 0.5894 0.5662
C13 C 0.7179(6) 0.5640(4) 0.7224(3)
H10 H 0.7400 0.5682 0.7472
H11 H 0.6579 0.5899 0.7200
C14 C 0.7963(7) 0.5946(7) 0.6962(3)
H12 H 0.8047 0.6436 0.7015
H13 H 0.8578 0.5717 0.7008
C15 C 0.8433(6) 0.6003(5) 0.6369(3)
H14 H 0.8984 0.5705 0.6419
H15 H 0.8648 0.6480 0.6397
C16 C 0.8154(6) 0.5904(5) 0.6007(3)
H16 H 0.8721 0.5865 0.5853
H17 H 0.7772 0.5483 0.5983
C17 C 0.7203(6) 0.6452(4) 0.5584(3)
H18 H 0.7589 0.6153 0.5430
H19 H 0.7216 0.6915 0.5481
C18 C 0.6218(5) 0.6205(3) 0.55824(17)
H20 H 0.5880 0.6376 0.5795
H21 H 0.5884 0.6378 0.5370
C19 C 0.6824(5) 0.2974(3) 0.68857(18)
H22 H 0.6262 0.2839 0.6745
H23 H 0.6803 0.2730 0.7115
C20 C 0.7732(5) 0.2799(4) 0.66881(18)
H24 H 0.8292 0.2948 0.6826
H25 H 0.7775 0.2301 0.6652
C21 C 0.8452(5) 0.2916(4) 0.61310(17)
H26 H 0.8395 0.2420 0.6090
H27 H 0.9073 0.3005 0.6245
C22 C 0.8399(5) 0.3287(4) 0.57833(18)
H28 H 0.8462 0.3783 0.5823
H29 H 0.8925 0.3138 0.5627
C23 C 0.7464(5) 0.3369(3) 0.52628(18)
H30 H 0.7648 0.2995 0.5101
H31 H 0.7903 0.3755 0.5224
C24 C 0.6461(4) 0.3586(3) 0.51883(17)
H32 H 0.6357 0.3631 0.4930
H33 H 0.6006 0.3247 0.5283
C25 C 0.3445(5) 0.3668(4) 0.73035(18)
H34 H 0.3512 0.3169 0.7273
H35 H 0.3168 0.3757 0.7540
C26 C 0.1956(4) 0.3681(3) 0.70201(16)
C27 C 0.2696(4) 0.5359(3) 0.55990(17)
H36 H 0.2758 0.5850 0.5654
H37 H 0.2265 0.5307 0.5394
C28 C 0.1383(4) 0.5036(3) 0.59513(17)
C29 C 0.1292(4) 0.3998(3) 0.67635(16)
C30 C 0.0321(5) 0.3913(3) 0.68179(18)
H38 H 0.0098 0.3654 0.7013
C31 C -0.0302(5) 0.4200(3) 0.65910(19)
H39 H -0.0967 0.4156 0.6627
C32 C 0.0052(4) 0.4564(3) 0.63006(18)
H40 H -0.0366 0.4762 0.6132
C33 C 0.1016(4) 0.4626(3) 0.62664(16)
O13 O 0.4603(4) 0.2380(3) 0.52041(13)
H1 H 0.5178 0.2272 0.5185
O14 O 0.5607(6) 0.6837(5) 0.7134(3)
H2 H 0.5851 0.7203 0.7205
N2 N 0.4731(4) 0.2742(3) 0.59735(14)
N3 N 0.4625(4) 0.6110(3) 0.65960(17)
C34 C 0.4731(4) 0.4040(4) 0.62546(16)
C35 C 0.5561(4) 0.3719(4) 0.61666(17)
H41 H 0.6153 0.3942 0.6204
C36 C 0.5542(5) 0.3068(4) 0.60227(17)
H42 H 0.6122 0.2854 0.5959
C37 C 0.3909(5) 0.3035(4) 0.60640(19)
H43 H 0.3331 0.2791 0.6032
C38 C 0.3883(5) 0.3685(4) 0.62033(19)
H44 H 0.3292 0.3889 0.6264
C39 C 0.4700(5) 0.4754(4) 0.63923(16)
C40 C 0.3852(5) 0.5055(4) 0.65012(19)
H45 H 0.3286 0.4791 0.6505
C41 C 0.3818(5) 0.5731(4) 0.6604(2)
H46 H 0.3236 0.5929 0.6679
C42 C 0.5451(5) 0.5828(4) 0.65062(19)
H47 H 0.6012 0.6096 0.6514
C43 C 0.5511(4) 0.5176(4) 0.64060(17)
H48 H 0.6113 0.4994 0.6343
C44 C 0.4715(6) 0.2037(4) 0.5825(2)
H49 H 0.5373 0.1870 0.5793
H50 H 0.4385 0.1727 0.5991
C45 C 0.4212(8) 0.2041(5) 0.5479(2)
H51 H 0.4126 0.1562 0.5405
H52 H 0.3570 0.2232 0.5519
C46 C 0.4560(6) 0.6832(4) 0.6714(3)
H53 H 0.3952 0.7027 0.6629
H54 H 0.5083 0.7094 0.6604
C47 C 0.4613(6) 0.6913(4) 0.7113(3)
H55 H 0.4396 0.7367 0.7193
O16 O 0.4230(9) 0.8864(9) 0.4816(4)
C48 C 0.4498(18) 0.9461(12) 0.4915(6)
C49 C 0.4094(12) 1.0050(10) 0.4816(4)
H59 H 0.3535 0.9955 0.4669
C50 C 0.5317(10) 0.9447(11) 0.5134(4)
O16D O 0.5770(9) 1.1136(9) 0.5184(4)
C48D C 0.5502(18) 1.0539(12) 0.5085(6)
C49D C 0.5906(12) 0.9950(10) 0.5184(4)
H59D H 0.6465 1.0045 0.5331
C50D C 0.4683(10) 1.0553(11) 0.4866(4)
P1 P 0.3882(8) 0.1507(4) 0.6830(3)
F1 F 0.4526(17) 0.2194(9) 0.6706(6)
F2 F 0.3474(9) 0.1915(6) 0.7172(3)
F3 F 0.3308(6) 0.0851(4) 0.69412(19)
F4 F 0.4357(7) 0.1128(4) 0.6509(2)
F5 F 0.3054(7) 0.1770(7) 0.6593(4)
F6 F 0.4757(5) 0.1285(5) 0.7082(2)
P2? P 0.3754(12) 0.1738(6) 0.6833(4)
F7? F 0.4645(16) 0.1972(11) 0.6689(7)
F8? F 0.4051(11) 0.1963(8) 0.7201(3)
F9? F 0.2734(8) 0.1498(6) 0.6989(3)
F10? F 0.3430(12) 0.1446(8) 0.6445(3)
F11? F 0.3281(8) 0.2449(6) 0.6742(3)
F12? F 0.4213(13) 0.0992(6) 0.6897(4)
P4? P 0.3729(4) 0.7686(4) 0.5769(2)
F19? F 0.3316(5) 0.7833(4) 0.6154(2)
F20? F 0.4393(5) 0.8345(6) 0.5783(4)
F21? F 0.4541(5) 0.7236(5) 0.5931(3)
F22? F 0.4152(8) 0.7536(7) 0.5388(3)
F23? F 0.3108(13) 0.7057(11) 0.5743(5)
F24? F 0.2887(7) 0.8134(6) 0.5603(3)
O15? O 0.3691(8) 0.6685(5) 0.7273(3)
H3? H 0.3796 0.6502 0.7470
H56? H 0.4266 0.6551 0.7241
H57? H 0.5142 0.6636 0.7208
H58? H 0.4734 0.7396 0.7173
H60? H 0.4553 1.0319 0.4680
H61? H 0.3900 1.0304 0.5027
H62? H 0.5502 0.8973 0.5178
H63? H 0.5175 0.9671 0.5359
H64? H 0.5839 0.9686 0.5015
loop_
_geom_bond_atom_site_label_1
_geom_bond_atom_site_label_2
_geom_bond_site_symmetry_1
_geom_bond_site_symmetry_2
P1 F1 1_555 1_555
F2 P1 1_555 1_555
F3 P1 1_555 1_555
F4 P1 1_555 1_555
F5 P1 1_555 1_555
F6 P1 1_555 1_555
P3 F13 1_555 1_555
F14 P3 1_555 1_555
F15 P3 1_555 1_555
F16 P3 1_555 1_555
F17 P3 1_555 1_555
F18 P3 1_555 1_555
O1 C1 1_555 1_555
O2 C14 1_555 1_555
O3 C16 1_555 1_555
O4 C7 1_555 1_555
O5 C2 1_555 1_555
O6 C20 1_555 1_555
O7 C22 1_555 1_555
O8 C8 1_555 1_555
O9 C25 1_555 1_555
O10 C26 1_555 1_555
O11 C27 1_555 1_555
O12 C28 1_555 1_555
O13 H1 1_555 1_555
O14 H2 1_555 1_555
N1 C29 1_555 1_555
N2 C36 1_555 1_555
N3 C41 1_555 1_555
C1 C2 1_555 1_555
C2 C3 1_555 1_555
C3 H4 1_555 1_555
C4 C3 1_555 1_555
C5 C4 1_555 1_555
H5 C5 1_555 1_555
C6 C1 1_555 1_555
H6 C6 1_555 1_555
C7 C8 1_555 1_555
C8 C9 1_555 1_555
C9 H7 1_555 1_555
C10 C9 1_555 1_555
H8 C10 1_555 1_555
C11 C10 1_555 1_555
C12 C7 1_555 1_555
H9 C12 1_555 1_555
C13 O1 1_555 1_555
H10 C13 1_555 1_555
H11 C13 1_555 1_555
C14 C13 1_555 1_555
H12 C14 1_555 1_555
H13 C14 1_555 1_555
C15 O2 1_555 1_555
H14 C15 1_555 1_555
H15 C15 1_555 1_555
C16 C15 1_555 1_555
H16 C16 1_555 1_555
H17 C16 1_555 1_555
C17 O3 1_555 1_555
H18 C17 1_555 1_555
H19 C17 1_555 1_555
C18 O4 1_555 1_555
H20 C18 1_555 1_555
H21 C18 1_555 1_555
C19 O5 1_555 1_555
H22 C19 1_555 1_555
H23 C19 1_555 1_555
C20 C19 1_555 1_555
H24 C20 1_555 1_555
H25 C20 1_555 1_555
C21 O6 1_555 1_555
H26 C21 1_555 1_555
H27 C21 1_555 1_555
C22 C21 1_555 1_555
H28 C22 1_555 1_555
H29 C22 1_555 1_555
C23 O7 1_555 1_555
H30 C23 1_555 1_555
H31 C23 1_555 1_555
C24 O8 1_555 1_555
H32 C24 1_555 1_555
H33 C24 1_555 1_555
C25 C4 1_555 1_555
H34 C25 1_555 1_555
H35 C25 1_555 1_555
C26 O9 1_555 1_555
C27 C11 1_555 1_555
H36 C27 1_555 1_555
H37 C27 1_555 1_555
C28 O11 1_555 1_555
C29 C26 1_555 1_555
C30 C29 1_555 1_555
H38 C30 1_555 1_555
C31 C30 1_555 1_555
H39 C31 1_555 1_555
C32 C31 1_555 1_555
H40 C32 1_555 1_555
C33 N1 1_555 1_555
C34 C35 1_555 1_555
C35 H41 1_555 1_555
C36 C35 1_555 1_555
H42 C36 1_555 1_555
C37 N2 1_555 1_555
H43 C37 1_555 1_555
C38 C34 1_555 1_555
H44 C38 1_555 1_555
C39 C34 1_555 1_555
C40 C39 1_555 1_555
H45 C40 1_555 1_555
C41 C40 1_555 1_555
H46 C41 1_555 1_555
C42 N3 1_555 1_555
H47 C42 1_555 1_555
C43 C39 1_555 1_555
H48 C43 1_555 1_555
C44 N2 1_555 1_555
H49 C44 1_555 1_555
H50 C44 1_555 1_555
C45 O13 1_555 1_555
H51 C45 1_555 1_555
H52 C45 1_555 1_555
C46 N3 1_555 1_555
H53 C46 1_555 1_555
H54 C46 1_555 1_555
C47 O14 1_555 1_555
H55 C47 1_555 1_555
O16 C48 1_555 1_555
C48 C49 1_555 1_555
C49 H59 1_555 1_555
C50 C48 1_555 1_555
O16D C48D 1_555 1_555
C48D C49D 1_555 1_555
C49D C50 1_555 1_555
H59D C49D 1_555 1_555
C50D C49 1_555 1_555
C5 C6 1_555 1_555
C11 C12 1_555 1_555
C17 C18 1_555 1_555
C23 C24 1_555 1_555
C28 C33 1_555 1_555
C32 C33 1_555 1_555
C37 C38 1_555 1_555
C42 C43 1_555 1_555
C44 C45 1_555 1_555
C46 C47 1_555 1_555
C48D C50D 1_555 1_555

#END
