
#######################################################################
#
#                 Cambridge Crystallographic Data Centre
#                                CCDC 
#
#######################################################################
#
# If this CIF has been generated from an entry in the Cambridge 
# Structural Database, then it will include bibliographic, chemical, 
# crystal, experimental, refinement or atomic coordinate data resulting 
# from the CCDC's data processing and validation procedures.
#
#######################################################################

data_UDOYIW
_chemical_formula_moiety         'C33 H37 K1 N1 O12 1+,F6 P1 1-'
_chemical_name_systematic        
'(5,8,11,14,21,24,27,30,34,42-decaoxa-44-azapentacyclo[16.14.11.1^36,40^.0^4,31^.0^15,20^]tetratetraconta-1,3,15,17,19,31,36(44),37,39-nonaene-35,41-dione)-potassium hexafluorophosphate'
_symmetry_cell_setting           triclinic
_symmetry_space_group_name_H-M   'P -1'
_symmetry_Int_Tables_number      2
_space_group_name_Hall           '-P 1'
loop_
_symmetry_equiv_pos_site_id
_symmetry_equiv_pos_as_xyz
1 x,y,z
2 -x,-y,-z
_cell_length_a                   9.4151(10)
_cell_length_b                   10.1706(11)
_cell_length_c                   19.062(2)
_cell_angle_alpha                91.942(9)
_cell_angle_beta                 90.385(9)
_cell_angle_gamma                98.190(9)
_cell_volume                     1805.55
_exptl_crystal_colour            colorless
_exptl_crystal_description       plate
_cell_formula_units_Z            2
loop_
_atom_site_label
_atom_site_type_symbol
_atom_site_fract_x
_atom_site_fract_y
_atom_site_fract_z
K1 K 0.45141(7) 0.64655(6) 0.34694(3)
O1 O 0.5788(2) 0.4404(2) 0.28716(10)
O2 O 0.5808(2) 0.4820(2) 0.43297(11)
O3 O 0.7330(2) 0.7157(2) 0.38431(10)
O4 O 0.6134(2) 0.83225(19) 0.26367(10)
O5 O 0.4098(2) 0.5518(2) 0.21389(11)
O6 O 0.1899(2) 0.6625(2) 0.28557(11)
O7 O 0.2494(2) 0.7424(2) 0.42629(11)
O8 O 0.4328(2) 0.93223(19) 0.35254(10)
O9 O 0.7812(2) 0.7131(2) 0.00085(11)
O10 O 0.9032(3) 0.6645(2) -0.09592(13)
O11 O 0.6496(2) 1.1066(2) 0.05120(11)
O12 O 0.6842(3) 1.2786(2) -0.02097(12)
N1 N 0.7957(3) 0.9623(3) -0.03017(13)
C1 C 0.6301(3) 0.4732(3) 0.22202(16)
C2 C 0.5365(3) 0.5365(3) 0.18114(16)
C3 C 0.5752(3) 0.5745(3) 0.11388(17)
H1 H 0.5132 0.6185 0.0864
C4 C 0.7071(3) 0.5473(3) 0.08662(17)
C5 C 0.7971(3) 0.4843(3) 0.12715(17)
H2 H 0.8857 0.4658 0.1085
C6 C 0.7596(3) 0.4476(3) 0.19507(17)
H3 H 0.8229 0.4052 0.2227
C7 C 0.5519(3) 0.9426(3) 0.24371(16)
C8 C 0.4556(3) 0.9929(3) 0.28905(16)
C9 C 0.3894(3) 1.0999(3) 0.26832(17)
H4 H 0.3233 1.1353 0.2985
C10 C 0.4205(3) 1.1544(3) 0.20369(17)
H5 H 0.3752 1.2275 0.1902
C11 C 0.5165(3) 1.1046(3) 0.15790(16)
C12 C 0.5817(3) 0.9974(3) 0.17900(16)
H6 H 0.6473 0.9617 0.1487
C13 C 0.6679(4) 0.3712(3) 0.33017(17)
H7 H 0.7649 0.4229 0.3359
H8 H 0.6772 0.2830 0.3085
C14 C 0.5951(4) 0.3560(3) 0.39997(17)
H9 H 0.4988 0.3035 0.3932
H10 H 0.6514 0.3064 0.4311
C15 C 0.7083(3) 0.5465(3) 0.46789(17)
H11 H 0.7935 0.5125 0.4480
H12 H 0.7042 0.5280 0.5186
C16 C 0.7196(3) 0.6937(3) 0.45794(15)
H13 H 0.6329 0.7275 0.4762
H14 H 0.8044 0.7411 0.4837
C17 C 0.7660(3) 0.8538(3) 0.36896(17)
H15 H 0.8629 0.8903 0.3871
H16 H 0.6954 0.9050 0.3913
C18 C 0.7600(3) 0.8634(3) 0.29026(17)
H17 H 0.8001 0.9545 0.2772
H18 H 0.8196 0.8009 0.2683
C19 C 0.3005(3) 0.6071(3) 0.17764(17)
H19 H 0.2820 0.5633 0.1306
H20 H 0.3295 0.7035 0.1718
C20 C 0.1686(3) 0.5830(3) 0.22216(17)
H21 H 0.0848 0.6059 0.1960
H22 H 0.1490 0.4879 0.2334
C21 C 0.0941(4) 0.6190(3) 0.34016(18)
H23 H 0.1176 0.5341 0.3578
H24 H -0.0055 0.6032 0.3215
C22 C 0.1049(3) 0.7198(4) 0.39849(19)
H25 H 0.0786 0.8040 0.3813
H26 H 0.0374 0.6886 0.4360
C23 C 0.2919(4) 0.8753(3) 0.45312(16)
H27 H 0.3799 0.8783 0.4822
H28 H 0.2154 0.9017 0.4836
C24 C 0.3203(3) 0.9731(3) 0.39525(17)
H29 H 0.2323 0.9736 0.3666
H30 H 0.3502 1.0639 0.4155
C25 C 0.7436(4) 0.5707(3) 0.01084(17)
H31 H 0.8253 0.5241 -0.0026
H32 H 0.6603 0.5349 -0.0195
C26 C 0.8569(3) 0.7453(3) -0.05688(17)
C27 C 0.5466(3) 1.1721(3) 0.08942(17)
H33 H 0.4567 1.1670 0.0615
H34 H 0.5850 1.2669 0.0984
C28 C 0.7093(4) 1.1702(3) -0.00377(16)
C29 C 0.8776(4) 0.8907(3) -0.06805(17)
C30 C 0.9763(4) 0.9450(4) -0.1177(2)
H35 H 1.0314 0.8905 -0.1445
C31 C 0.9905(4) 1.0800(4) -0.1262(2)
H36 H 1.0598 1.1211 -0.1576
C32 C 0.9044(4) 1.1554(4) -0.0894(2)
H37 H 0.9108 1.2483 -0.0959
C33 C 0.8074(4) 1.0920(3) -0.04220(16)
P1 P 0.01014(9) 0.20860(8) 0.37062(4)
F1 F -0.15814(18) 0.15100(17) 0.36983(10)
F2 F 0.03974(18) 0.08916(17) 0.31745(9)
F3 F 0.03397(19) 0.11802(17) 0.43592(9)
F4 F 0.17830(18) 0.26573(16) 0.37215(9)
F5 F -0.0186(2) 0.32757(17) 0.42383(10)
F6 F -0.01328(19) 0.29754(17) 0.30486(9)
loop_
_geom_bond_atom_site_label_1
_geom_bond_atom_site_label_2
_geom_bond_site_symmetry_1
_geom_bond_site_symmetry_2
K1 O1 1_555 1_555
P1 F1 1_555 1_555
F2 P1 1_555 1_555
F3 P1 1_555 1_555
F4 P1 1_555 1_555
F5 P1 1_555 1_555
F6 P1 1_555 1_555
O1 C1 1_555 1_555
O2 K1 1_555 1_555
O3 K1 1_555 1_555
O4 K1 1_555 1_555
O5 K1 1_555 1_555
O6 K1 1_555 1_555
O7 K1 1_555 1_555
O8 K1 1_555 1_555
O9 C25 1_555 1_555
O10 C26 1_555 1_555
O11 C27 1_555 1_555
O12 C28 1_555 1_555
N1 C29 1_555 1_555
C1 C2 1_555 1_555
C2 O5 1_555 1_555
C3 C2 1_555 1_555
H1 C3 1_555 1_555
C4 C3 1_555 1_555
C5 C4 1_555 1_555
H2 C5 1_555 1_555
C6 C1 1_555 1_555
H3 C6 1_555 1_555
C7 O4 1_555 1_555
C8 O8 1_555 1_555
C9 C8 1_555 1_555
H4 C9 1_555 1_555
C10 C9 1_555 1_555
H5 C10 1_555 1_555
C11 C10 1_555 1_555
C12 C7 1_555 1_555
H6 C12 1_555 1_555
C13 O1 1_555 1_555
H7 C13 1_555 1_555
H8 C13 1_555 1_555
C14 O2 1_555 1_555
H9 C14 1_555 1_555
H10 C14 1_555 1_555
C15 O2 1_555 1_555
H11 C15 1_555 1_555
H12 C15 1_555 1_555
C16 O3 1_555 1_555
H13 C16 1_555 1_555
H14 C16 1_555 1_555
C17 O3 1_555 1_555
H15 C17 1_555 1_555
H16 C17 1_555 1_555
C18 O4 1_555 1_555
H17 C18 1_555 1_555
H18 C18 1_555 1_555
C19 O5 1_555 1_555
H19 C19 1_555 1_555
H20 C19 1_555 1_555
C20 O6 1_555 1_555
H21 C20 1_555 1_555
H22 C20 1_555 1_555
C21 O6 1_555 1_555
H23 C21 1_555 1_555
H24 C21 1_555 1_555
C22 O7 1_555 1_555
H25 C22 1_555 1_555
H26 C22 1_555 1_555
C23 O7 1_555 1_555
H27 C23 1_555 1_555
H28 C23 1_555 1_555
C24 O8 1_555 1_555
H29 C24 1_555 1_555
H30 C24 1_555 1_555
C25 C4 1_555 1_555
H31 C25 1_555 1_555
H32 C25 1_555 1_555
C26 O9 1_555 1_555
C27 C11 1_555 1_555
H33 C27 1_555 1_555
H34 C27 1_555 1_555
C28 O11 1_555 1_555
C29 C26 1_555 1_555
C30 C29 1_555 1_555
H35 C30 1_555 1_555
C31 C30 1_555 1_555
H36 C31 1_555 1_555
C32 C31 1_555 1_555
H37 C32 1_555 1_555
C33 N1 1_555 1_555
C5 C6 1_555 1_555
C7 C8 1_555 1_555
C11 C12 1_555 1_555
C13 C14 1_555 1_555
C15 C16 1_555 1_555
C17 C18 1_555 1_555
C19 C20 1_555 1_555
C21 C22 1_555 1_555
C23 C24 1_555 1_555
C28 C33 1_555 1_555
C32 C33 1_555 1_555

#END
