
#######################################################################
#
#                 Cambridge Crystallographic Data Centre
#                                CCDC 
#
#######################################################################
#
# If this CIF has been generated from an entry in the Cambridge 
# Structural Database, then it will include bibliographic, chemical, 
# crystal, experimental, refinement or atomic coordinate data resulting 
# from the CCDC's data processing and validation procedures.
#
#######################################################################

data_UDUBOL
_chemical_formula_moiety         'C42 H32 N12 O4'
_chemical_name_systematic        
N,N,N',N'-tetrakis(pyridin-2-ylmethyl)-2,8,14,20-tetraoxa-4,6,16,18,26,28-hexaazapentacyclo[19.3.1.1^3,7^.1^9,13^.1^15,19^]octacosa-1(25),3(28),4,6,9(27),10,12,15(26),16,18,21,23-dodecaene-5,17-diamine
_symmetry_cell_setting           monoclinic
_symmetry_space_group_name_H-M   'P 21/c'
_symmetry_Int_Tables_number      14
_space_group_name_Hall           '-P 2ybc'
loop_
_symmetry_equiv_pos_site_id
_symmetry_equiv_pos_as_xyz
1 x,y,z
2 -x,1/2+y,1/2-z
3 -x,-y,-z
4 x,1/2-y,1/2+z
_cell_length_a                   22.9892(7)
_cell_length_b                   14.1850(7)
_cell_length_c                   11.4255(11)
_cell_angle_alpha                90
_cell_angle_beta                 90.1570(19)
_cell_angle_gamma                90
_cell_volume                     3725.86
_exptl_crystal_colour            colorless
_exptl_crystal_description       prism
_cell_formula_units_Z            4
loop_
_atom_site_label
_atom_site_type_symbol
_atom_site_fract_x
_atom_site_fract_y
_atom_site_fract_z
O1 O 0.21441(10) 0.60811(15) 0.25786(18)
O2 O 0.08213(8) 0.44554(16) 0.03343(17)
O3 O 0.21125(8) 0.46784(16) -0.29388(17)
O4 O 0.34027(9) 0.63770(16) -0.0713(2)
N1 N 0.16955(11) 0.48193(18) 0.3315(2)
N2 N 0.09909(10) 0.40038(17) 0.2157(2)
N3 N 0.15145(10) 0.53031(17) 0.1351(2)
N4 N 0.27118(10) 0.55489(17) -0.1747(2)
N5 N 0.30522(10) 0.44957(17) -0.3212(2)
N6 N 0.37296(10) 0.53593(18) -0.2035(2)
N7 N 0.12167(11) 0.35081(18) 0.4011(2)
N8 N 0.21849(15) 0.2310(2) 0.6086(3)
N9 N 0.01801(16) 0.3648(2) 0.5206(3)
N10 N 0.40349(10) 0.43021(18) -0.3455(2)
N11 N 0.37504(17) 0.4952(3) -0.5767(3)
N12 N 0.51981(13) 0.3116(2) -0.2853(3)
C1 C 0.17662(13) 0.5362(2) 0.2397(3)
C2 C 0.13022(13) 0.4123(2) 0.3147(2)
C3 C 0.11299(12) 0.4600(2) 0.1328(2)
C4 C 0.15201(12) 0.4667(2) -0.1211(2)
H1 H 0.1803 0.4338 -0.0794
C5 C 0.09876(12) 0.4863(2) -0.0733(2)
C6 C 0.05655(13) 0.5365(2) -0.1324(3)
H2 H 0.0211 0.5502 -0.0974
C7 C 0.06846(14) 0.5658(2) -0.2451(3)
H3 H 0.0404 0.5990 -0.2870
C8 C 0.12076(14) 0.5467(2) -0.2957(3)
H4 H 0.1286 0.5667 -0.3715
C9 C 0.16182(12) 0.4974(2) -0.2328(2)
C10 C 0.26524(12) 0.4920(2) -0.2599(2)
C11 C 0.35975(13) 0.4733(2) -0.2883(3)
C12 C 0.32687(13) 0.5729(2) -0.1537(3)
C13 C 0.27326(14) 0.6191(2) 0.0857(3)
H5 H 0.2838 0.5560 0.0932
C14 C 0.29592(13) 0.6744(2) -0.0009(3)
C15 C 0.28058(16) 0.7671(2) -0.0142(3)
H6 H 0.2964 0.8031 -0.0742
C16 C 0.24168(17) 0.8057(2) 0.0618(3)
H7 H 0.2305 0.8683 0.0526
C17 C 0.21869(15) 0.7531(2) 0.1525(3)
H8 H 0.1933 0.7801 0.2060
C18 C 0.23430(13) 0.6602(2) 0.1614(3)
C19 C 0.15688(15) 0.3525(2) 0.5066(3)
H9 H 0.1321 0.3410 0.5737
H10 H 0.1738 0.4148 0.5156
C20 C 0.20489(13) 0.2804(2) 0.5054(3)
C21 C 0.23377(13) 0.26887(19) 0.4073(2)
H11 H 0.2233 0.3017 0.3400
C22 C 0.27738(17) 0.2104(3) 0.4067(3)
H12 H 0.2977 0.2029 0.3370
C23 C 0.29547(16) 0.1587(3) 0.5027(4)
H13 H 0.3269 0.1176 0.4977
C24 C 0.26571(16) 0.1697(2) 0.6051(3)
H14 H 0.2769 0.1366 0.6718
C25 C 0.08011(15) 0.2732(2) 0.3906(3)
H15 H 0.0976 0.2167 0.4230
H16 H 0.0727 0.2617 0.3082
C26 C 0.02327(14) 0.2904(2) 0.4507(3)
C27 C -0.02083(16) 0.2280(2) 0.4333(3)
H17 H -0.0158 0.1767 0.3838
C28 C -0.07189(18) 0.2414(3) 0.4884(4)
H18 H -0.1023 0.1990 0.4771
C29 C -0.0791(2) 0.3169(4) 0.5608(4)
H19 H -0.1141 0.3270 0.5994
C30 C -0.0337(2) 0.3768(3) 0.5749(4)
H20 H -0.0384 0.4286 0.6240
C31 C 0.39272(14) 0.3623(2) -0.4376(3)
H21 H 0.3555 0.3321 -0.4233
H22 H 0.4225 0.3140 -0.4341
C32 C 0.39206(13) 0.4037(2) -0.5582(3)
C33 C 0.40823(14) 0.3476(2) -0.6466(3)
H23 H 0.4200 0.2858 -0.6327
C34 C 0.40710(18) 0.3825(4) -0.7552(4)
H24 H 0.4182 0.3435 -0.8166
C35 C 0.39058(17) 0.4717(4) -0.7800(4)
H25 H 0.3905 0.4936 -0.8567
C36 C 0.37417(19) 0.5287(3) -0.6908(4)
H26 H 0.3623 0.5901 -0.7061
C37 C 0.46428(13) 0.4537(2) -0.3198(3)
H27 H 0.4661 0.5164 -0.2859
H28 H 0.4862 0.4546 -0.3922
C38 C 0.49189(13) 0.3840(2) -0.2362(3)
C39 C 0.48928(16) 0.3957(3) -0.1173(3)
H29 H 0.4685 0.4459 -0.0858
C40 C 0.5172(2) 0.3336(4) -0.0451(4)
H30 H 0.5161 0.3416 0.0357
C41 C 0.5466(2) 0.2601(4) -0.0931(5)
H31 H 0.5663 0.2170 -0.0462
C42 C 0.54637(19) 0.2511(3) -0.2105(5)
H32 H 0.5658 0.1998 -0.2424
loop_
_geom_bond_atom_site_label_1
_geom_bond_atom_site_label_2
_geom_bond_site_symmetry_1
_geom_bond_site_symmetry_2
O1 C1 1_555 1_555
O2 C3 1_555 1_555
O3 C9 1_555 1_555
O4 C12 1_555 1_555
N1 C1 1_555 1_555
N2 C2 1_555 1_555
N3 C1 1_555 1_555
N4 C10 1_555 1_555
N5 C10 1_555 1_555
N6 C11 1_555 1_555
N7 C2 1_555 1_555
N8 C20 1_555 1_555
N9 C26 1_555 1_555
N10 C11 1_555 1_555
N11 C32 1_555 1_555
N12 C38 1_555 1_555
C2 N1 1_555 1_555
C3 N2 1_555 1_555
C4 H1 1_555 1_555
C5 O2 1_555 1_555
C6 C5 1_555 1_555
H2 C6 1_555 1_555
C7 C6 1_555 1_555
H3 C7 1_555 1_555
C8 C7 1_555 1_555
H4 C8 1_555 1_555
C9 C4 1_555 1_555
C10 O3 1_555 1_555
C11 N5 1_555 1_555
C12 N4 1_555 1_555
C13 H5 1_555 1_555
C14 O4 1_555 1_555
C15 C14 1_555 1_555
H6 C15 1_555 1_555
C16 C15 1_555 1_555
H7 C16 1_555 1_555
C17 C16 1_555 1_555
H8 C17 1_555 1_555
C18 O1 1_555 1_555
C19 N7 1_555 1_555
H9 C19 1_555 1_555
H10 C19 1_555 1_555
C20 C19 1_555 1_555
C21 C20 1_555 1_555
H11 C21 1_555 1_555
C22 C21 1_555 1_555
H12 C22 1_555 1_555
C23 C22 1_555 1_555
H13 C23 1_555 1_555
C24 N8 1_555 1_555
H14 C24 1_555 1_555
C25 N7 1_555 1_555
H15 C25 1_555 1_555
H16 C25 1_555 1_555
C26 C25 1_555 1_555
C27 C26 1_555 1_555
H17 C27 1_555 1_555
C28 C27 1_555 1_555
H18 C28 1_555 1_555
C29 C28 1_555 1_555
H19 C29 1_555 1_555
C30 N9 1_555 1_555
H20 C30 1_555 1_555
C31 N10 1_555 1_555
H21 C31 1_555 1_555
H22 C31 1_555 1_555
C32 C31 1_555 1_555
C33 C32 1_555 1_555
H23 C33 1_555 1_555
C34 C33 1_555 1_555
H24 C34 1_555 1_555
C35 C34 1_555 1_555
H25 C35 1_555 1_555
C36 N11 1_555 1_555
H26 C36 1_555 1_555
C37 N10 1_555 1_555
H27 C37 1_555 1_555
H28 C37 1_555 1_555
C38 C37 1_555 1_555
C39 C38 1_555 1_555
H29 C39 1_555 1_555
C40 C39 1_555 1_555
H30 C40 1_555 1_555
C41 C40 1_555 1_555
H31 C41 1_555 1_555
C42 N12 1_555 1_555
H32 C42 1_555 1_555
N3 C3 1_555 1_555
N6 C12 1_555 1_555
C4 C5 1_555 1_555
C8 C9 1_555 1_555
C13 C14 1_555 1_555
C13 C18 1_555 1_555
C17 C18 1_555 1_555
C23 C24 1_555 1_555
C29 C30 1_555 1_555
C35 C36 1_555 1_555
C41 C42 1_555 1_555

#END
