
#######################################################################
#
#                 Cambridge Crystallographic Data Centre
#                                CCDC 
#
#######################################################################
#
# If this CIF has been generated from an entry in the Cambridge 
# Structural Database, then it will include bibliographic, chemical, 
# crystal, experimental, refinement or atomic coordinate data resulting 
# from the CCDC's data processing and validation procedures.
#
#######################################################################

data_UFAJUH
_chemical_formula_moiety         'C15 H12 N6 O1'
_chemical_name_systematic        
5-Amino-1-(5-methyl-1-phenylpyrazol-4-ylcarbonyl)pyrazole-4-carbonitrile
_symmetry_cell_setting           monoclinic
_symmetry_space_group_name_H-M   'P 21/n'
_symmetry_Int_Tables_number      14
_space_group_name_Hall           '-P 2yn'
loop_
_symmetry_equiv_pos_site_id
_symmetry_equiv_pos_as_xyz
1 x,y,z
2 1/2-x,1/2+y,1/2-z
3 -x,-y,-z
4 1/2+x,1/2-y,1/2+z
_cell_length_a                   7.496(2)
_cell_length_b                   12.345(4)
_cell_length_c                   15.426(5)
_cell_angle_alpha                90
_cell_angle_beta                 102.052(6)
_cell_angle_gamma                90
_cell_volume                     1396.03
_exptl_crystal_colour            colorless
_exptl_crystal_description       block
_chemical_melting_point          '486 K'
_cell_formula_units_Z            4
_exptl_crystal_recrystallization_method ethanol
loop_
_atom_site_label
_atom_site_type_symbol
_atom_site_fract_x
_atom_site_fract_y
_atom_site_fract_z
O1 O 0.1960(2) 0.37490(9) 0.35855(8)
N1 N 0.3081(2) 0.50869(11) 0.61167(9)
N2 N 0.3372(2) 0.61420(11) 0.58900(10)
N3 N 0.1562(2) 0.54513(11) 0.30584(9)
N4 N 0.1234(2) 0.65456(11) 0.31914(10)
N5 N 0.1473(2) 0.42064(12) 0.18564(10)
H1 H 0.1731 0.3647 0.2279
H2 H 0.1326 0.4113 0.1208
N6 N -0.0183(3) 0.63464(13) 0.00460(12)
C1 C 0.3436(2) 0.48244(14) 0.70408(11)
C2 C 0.2944(3) 0.55511(15) 0.76258(12)
H3 H 0.2362 0.6195 0.7420
C3 C 0.3319(3) 0.53180(17) 0.85192(13)
H4 H 0.3004 0.5813 0.8917
C4 C 0.4151(3) 0.43640(18) 0.88279(14)
H5 H 0.4384 0.4207 0.9431
C5 C 0.4639(3) 0.36406(17) 0.82421(13)
H6 H 0.5198 0.2991 0.8450
C6 C 0.4307(3) 0.38715(15) 0.73466(13)
H7 H 0.4667 0.3389 0.6953
C7 C 0.2505(2) 0.44502(13) 0.54006(11)
C8 C 0.1977(3) 0.32966(14) 0.54553(12)
H8 H 0.3005 0.2842 0.5432
H9 H 0.0994 0.3128 0.4967
H10 H 0.1591 0.3175 0.6003
C9 C 0.2420(2) 0.51173(13) 0.46691(11)
C10 C 0.2967(3) 0.61456(13) 0.50210(12)
H11 H 0.3033 0.6757 0.4677
C11 C 0.1981(2) 0.47117(13) 0.37665(11)
C12 C 0.1246(2) 0.51948(14) 0.21706(11)
C13 C 0.0704(3) 0.61514(14) 0.17264(11)
C14 C 0.0218(3) 0.62706(14) 0.07981(13)
C15 C 0.0725(3) 0.69317(14) 0.23900(12)
H12 H 0.0408 0.7653 0.2271
loop_
_geom_bond_atom_site_label_1
_geom_bond_atom_site_label_2
_geom_bond_site_symmetry_1
_geom_bond_site_symmetry_2
O1 C11 1_555 1_555
N1 N2 1_555 1_555
N2 C10 1_555 1_555
N3 N4 1_555 1_555
N4 C15 1_555 1_555
N5 H1 1_555 1_555
H2 N5 1_555 1_555
N6 C14 1_555 1_555
C1 N1 1_555 1_555
C2 C1 1_555 1_555
H3 C2 1_555 1_555
C3 C2 1_555 1_555
H4 C3 1_555 1_555
C4 C3 1_555 1_555
H5 C4 1_555 1_555
C5 C4 1_555 1_555
H6 C5 1_555 1_555
C6 C1 1_555 1_555
H7 C6 1_555 1_555
C7 N1 1_555 1_555
C8 C7 1_555 1_555
H8 C8 1_555 1_555
H9 C8 1_555 1_555
H10 C8 1_555 1_555
C9 C7 1_555 1_555
C10 C9 1_555 1_555
H11 C10 1_555 1_555
C11 N3 1_555 1_555
C12 N3 1_555 1_555
C13 C12 1_555 1_555
C14 C13 1_555 1_555
C15 C13 1_555 1_555
H12 C15 1_555 1_555
N5 C12 1_555 1_555
C5 C6 1_555 1_555
C9 C11 1_555 1_555

#END
