
#######################################################################
#
#                 Cambridge Crystallographic Data Centre
#                                CCDC 
#
#######################################################################
#
# If this CIF has been generated from an entry in the Cambridge 
# Structural Database, then it will include bibliographic, chemical, 
# crystal, experimental, refinement or atomic coordinate data resulting 
# from the CCDC's data processing and validation procedures.
#
#######################################################################

data_UFAKUI
_chemical_formula_moiety         'C20 H11 N3 O4'
_chemical_name_systematic        
(3RS)-2'-Amino-2,5'-dioxo-1,2-dihydro-5'H-spiro(indole-3,4'-pyrano(3,2-c)chromene)-3'-carbonitrile
_symmetry_cell_setting           monoclinic
_symmetry_space_group_name_H-M   'C 2/c'
_symmetry_Int_Tables_number      15
_space_group_name_Hall           '-C 2yn'
loop_
_symmetry_equiv_pos_site_id
_symmetry_equiv_pos_as_xyz
1 x,y,z
2 1/2+x,1/2+y,z
3 -x,y,1/2-z
4 1/2-x,1/2+y,1/2-z
5 -x,-y,-z
6 1/2-x,1/2-y,-z
7 x,-y,1/2+z
8 1/2+x,1/2-y,1/2+z
_cell_length_a                   25.265(4)
_cell_length_b                   11.0076(12)
_cell_length_c                   14.864(2)
_cell_angle_alpha                90
_cell_angle_beta                 125.820(3)
_cell_angle_gamma                90
_cell_volume                     3351.92
_exptl_crystal_colour            colorless
_exptl_crystal_description       block
_chemical_melting_point          '563-567 K'
_cell_formula_units_Z            8
_exptl_crystal_recrystallization_method 'aqueous ethanol'
loop_
_atom_site_label
_atom_site_type_symbol
_atom_site_fract_x
_atom_site_fract_y
_atom_site_fract_z
O1 O 0.27661(6) 0.34373(11) 0.22134(10)
O2 O 0.48118(6) 0.16044(12) 0.36788(11)
O3 O 0.42608(6) 0.24176(13) 0.20112(11)
O4 O 0.37375(6) -0.00143(12) 0.37643(11)
N1 N 0.46001(7) 0.07244(14) 0.54446(12)
H1 H 0.4763(9) 0.0014(19) 0.5746(17)
N2 N 0.31587(8) 0.17282(17) 0.55027(14)
N3 N 0.21451(7) 0.32125(16) 0.28103(14)
H2 H 0.2087(10) 0.3088(19) 0.3354(19)
H3 H 0.1874(10) 0.369(2) 0.2224(18)
C1 C 0.32893(8) 0.31103(16) 0.22205(15)
C2 C 0.38132(8) 0.25213(16) 0.30683(14)
C3 C 0.38915(8) 0.21902(15) 0.41237(14)
C4 C 0.32491(8) 0.24481(16) 0.39560(14)
C5 C 0.27354(8) 0.30078(16) 0.30509(14)
C6 C 0.43259(9) 0.21535(16) 0.29663(15)
C7 C 0.37258(9) 0.30335(17) 0.11484(15)
C8 C 0.37033(10) 0.32238(19) 0.02064(17)
H4 H 0.4044 0.2945 0.0165
C9 C 0.31716(11) 0.38302(19) -0.06707(17)
H5 H 0.3148 0.3971 -0.1324
C10 C 0.26699(10) 0.42402(19) -0.06187(17)
H6 H 0.2308 0.4657 -0.1233
C11 C 0.26960(9) 0.40437(18) 0.03233(15)
H7 H 0.2354 0.4326 0.0360
C12 C 0.32293(9) 0.34260(16) 0.12260(14)
C13 C 0.40581(8) 0.08170(16) 0.43953(15)
C14 C 0.48718(8) 0.18667(16) 0.59080(15)
C15 C 0.54420(9) 0.21274(19) 0.69336(16)
H8 H 0.5713 0.1499 0.7432
C16 C 0.56031(10) 0.3339(2) 0.72057(17)
H9 H 0.5991 0.3547 0.7905
C17 C 0.52090(10) 0.42502(19) 0.64776(17)
H10 H 0.5328 0.5075 0.6687
C18 C 0.46399(9) 0.39779(17) 0.54424(16)
H11 H 0.4371 0.4605 0.4940
C19 C 0.44769(8) 0.27733(16) 0.51654(14)
C20 C 0.31907(8) 0.20584(17) 0.47984(15)
loop_
_geom_bond_atom_site_label_1
_geom_bond_atom_site_label_2
_geom_bond_site_symmetry_1
_geom_bond_site_symmetry_2
O1 C1 1_555 1_555
O2 C6 1_555 1_555
O3 C6 1_555 1_555
O4 C13 1_555 1_555
N1 H1 1_555 1_555
N2 C20 1_555 1_555
N3 H2 1_555 1_555
H3 N3 1_555 1_555
C1 C2 1_555 1_555
C2 C3 1_555 1_555
C3 C4 1_555 1_555
C4 C5 1_555 1_555
C5 O1 1_555 1_555
C6 C2 1_555 1_555
C7 O3 1_555 1_555
C8 C7 1_555 1_555
H4 C8 1_555 1_555
C9 C8 1_555 1_555
H5 C9 1_555 1_555
C10 C9 1_555 1_555
H6 C10 1_555 1_555
C11 C10 1_555 1_555
H7 C11 1_555 1_555
C12 C1 1_555 1_555
C13 N1 1_555 1_555
C14 N1 1_555 1_555
C15 C14 1_555 1_555
H8 C15 1_555 1_555
C16 C15 1_555 1_555
H9 C16 1_555 1_555
C17 C16 1_555 1_555
H10 C17 1_555 1_555
C18 C17 1_555 1_555
H11 C18 1_555 1_555
C19 C3 1_555 1_555
C20 C4 1_555 1_555
N3 C5 1_555 1_555
C3 C13 1_555 1_555
C7 C12 1_555 1_555
C11 C12 1_555 1_555
C14 C19 1_555 1_555
C18 C19 1_555 1_555

#END
