
#######################################################################
#
#                 Cambridge Crystallographic Data Centre
#                                CCDC 
#
#######################################################################
#
# If this CIF has been generated from an entry in the Cambridge 
# Structural Database, then it will include bibliographic, chemical, 
# crystal, experimental, refinement or atomic coordinate data resulting 
# from the CCDC's data processing and validation procedures.
#
#######################################################################

data_UFIFUN
_chemical_formula_moiety         'C24 H20 N2 O1'
_chemical_name_systematic        
3-(3-ethyl-1H-indol-1-yl)-3-phenyl-2,3-dihydro-1H-isoindol-1-one
_symmetry_cell_setting           triclinic
_symmetry_space_group_name_H-M   'P -1'
_symmetry_Int_Tables_number      2
_space_group_name_Hall           '-P 1'
loop_
_symmetry_equiv_pos_site_id
_symmetry_equiv_pos_as_xyz
1 x,y,z
2 -x,-y,-z
_cell_length_a                   9.126(2)
_cell_length_b                   9.491(3)
_cell_length_c                   11.160(3)
_cell_angle_alpha                101.70(3)
_cell_angle_beta                 96.75(2)
_cell_angle_gamma                96.63(3)
_cell_volume                     930.284
_exptl_crystal_colour            'light yellow'
_exptl_crystal_description       block
_cell_formula_units_Z            2
loop_
_atom_site_label
_atom_site_type_symbol
_atom_site_fract_x
_atom_site_fract_y
_atom_site_fract_z
O1 O 0.2973(2) 0.4698(2) 0.4822(2)
N1 N 0.4909(3) 0.8817(2) 0.7498(2)
N2 N 0.4575(3) 0.6321(2) 0.6377(2)
H1 H 0.537188 0.625502 0.603901
C1 C 0.7314(4) 1.1851(4) 0.7041(4)
H2 H 0.718811 1.266537 0.671765
C2 C 0.8686(5) 1.1644(4) 0.7520(4)
H3 H 0.949201 1.234910 0.754109
C3 C 0.8940(4) 1.0453(5) 0.7972(4)
H4 H 0.990646 1.033606 0.826269
C4 C 0.7724(4) 0.9390(4) 0.7996(4)
H5 H 0.788121 0.857141 0.830373
C5 C 0.6317(3) 0.9589(3) 0.7559(3)
C6 C 0.6082(4) 1.0812(3) 0.7041(3)
C7 C 0.4546(4) 1.0719(3) 0.6601(3)
C8 C 0.3871(4) 0.9495(3) 0.6859(3)
H6 H 0.285960 0.914671 0.664367
C9 C 0.3773(5) 1.1755(3) 0.5957(3)
H7 H 0.394573 1.270693 0.651058
H8 H 0.424209 1.184327 0.523388
C10 C 0.2138(5) 1.1348(4) 0.5556(4)
H9 H 0.194937 1.044338 0.495519
H10 H 0.175676 1.209267 0.519518
H11 H 0.165418 1.124579 0.625823
C11 C 0.4551(3) 0.7283(3) 0.7572(3)
C12 C 0.5570(3) 0.6913(3) 0.8625(3)
C13 C 0.5916(4) 0.7851(3) 0.9766(3)
H12 H 0.556894 0.874539 0.989294
C14 C 0.6788(4) 0.7468(4) 1.0738(3)
H13 H 0.703006 0.811577 1.150161
C15 C 0.7285(4) 0.6139(4) 1.0566(3)
H14 H 0.786699 0.588603 1.120941
C16 C 0.6918(4) 0.5196(3) 0.9448(3)
H15 H 0.723607 0.428852 0.933272
C17 C 0.6074(3) 0.5577(3) 0.8477(3)
H16 H 0.584364 0.492483 0.771523
C18 C 0.3241(3) 0.5545(3) 0.5846(3)
C19 C 0.2166(3) 0.5903(3) 0.6724(3)
C20 C 0.2926(3) 0.6953(3) 0.7736(3)
C21 C 0.2185(3) 0.7508(3) 0.8698(3)
H17 H 0.267736 0.821149 0.937528
C22 C 0.0691(4) 0.6989(4) 0.8625(3)
H18 H 0.017302 0.735364 0.926085
C23 C -0.0052(4) 0.5934(4) 0.7621(3)
H19 H -0.105570 0.559694 0.759787
C24 C 0.0681(4) 0.5381(4) 0.6660(3)
H20 H 0.018673 0.467327 0.598682
loop_
_geom_bond_atom_site_label_1
_geom_bond_atom_site_label_2
_geom_bond_site_symmetry_1
_geom_bond_site_symmetry_2
O1 C18 1_555 1_555
N1 C5 1_555 1_555
N2 H1 1_555 1_555
C1 H2 1_555 1_555
C2 C1 1_555 1_555
H3 C2 1_555 1_555
C3 C2 1_555 1_555
H4 C3 1_555 1_555
C4 C3 1_555 1_555
H5 C4 1_555 1_555
C5 C4 1_555 1_555
C6 C1 1_555 1_555
C7 C6 1_555 1_555
C8 N1 1_555 1_555
H6 C8 1_555 1_555
C9 C7 1_555 1_555
H7 C9 1_555 1_555
H8 C9 1_555 1_555
C10 C9 1_555 1_555
H9 C10 1_555 1_555
H10 C10 1_555 1_555
H11 C10 1_555 1_555
C11 N1 1_555 1_555
C12 C11 1_555 1_555
C13 C12 1_555 1_555
H12 C13 1_555 1_555
C14 C13 1_555 1_555
H13 C14 1_555 1_555
C15 C14 1_555 1_555
H14 C15 1_555 1_555
C16 C15 1_555 1_555
H15 C16 1_555 1_555
C17 C12 1_555 1_555
H16 C17 1_555 1_555
C18 N2 1_555 1_555
C19 C18 1_555 1_555
C20 C11 1_555 1_555
C21 C20 1_555 1_555
H17 C21 1_555 1_555
C22 C21 1_555 1_555
H18 C22 1_555 1_555
C23 C22 1_555 1_555
H19 C23 1_555 1_555
C24 C19 1_555 1_555
H20 C24 1_555 1_555
N2 C11 1_555 1_555
C5 C6 1_555 1_555
C7 C8 1_555 1_555
C16 C17 1_555 1_555
C19 C20 1_555 1_555
C23 C24 1_555 1_555

#END
