
#######################################################################
#
#                 Cambridge Crystallographic Data Centre
#                                CCDC 
#
#######################################################################
#
# If this CIF has been generated from an entry in the Cambridge 
# Structural Database, then it will include bibliographic, chemical, 
# crystal, experimental, refinement or atomic coordinate data resulting 
# from the CCDC's data processing and validation procedures.
#
#######################################################################

data_UFIGEY
_chemical_formula_moiety         'C29 H28 Cl1 N3 O3'
_chemical_name_systematic        
2-t-butyl-8-chloro-3a-[(1-cyano-3,3-dimethyl-2-oxobutylidene)amino]-4-phenyl-3a,9b-dihydro-4H-furo[2,3-c][1]benzopyran-1-carbonitrile
_symmetry_cell_setting           triclinic
_symmetry_space_group_name_H-M   'P -1'
_symmetry_Int_Tables_number      2
_space_group_name_Hall           '-P 1'
loop_
_symmetry_equiv_pos_site_id
_symmetry_equiv_pos_as_xyz
1 x,y,z
2 -x,-y,-z
_cell_length_a                   9.9330(7)
_cell_length_b                   12.4636(12)
_cell_length_c                   23.3748(16)
_cell_angle_alpha                93.564(3)
_cell_angle_beta                 97.108(2)
_cell_angle_gamma                113.474(2)
_cell_volume                     2614.11
_exptl_crystal_colour            yellow
_exptl_crystal_description       block
_cell_formula_units_Z            4
loop_
_atom_site_label
_atom_site_type_symbol
_atom_site_fract_x
_atom_site_fract_y
_atom_site_fract_z
C1 C 0.8282(3) 0.8821(2) 0.14054(11)
C2 C 0.8073(3) 0.9639(2) 0.17686(11)
H1 H 0.8648 0.9912 0.2135
C3 C 0.7014(3) 1.0050(2) 0.15880(12)
H2 H 0.6863 1.0593 0.1834
C4 C 0.6180(3) 0.9654(2) 0.10414(12)
C5 C 0.6395(3) 0.8860(2) 0.06731(11)
H3 H 0.5826 0.8603 0.0305
C6 C 0.7467(3) 0.8436(2) 0.08500(10)
C7 C 0.7641(3) 0.7514(2) 0.04586(9)
H4 H 0.6651 0.6899 0.0308
C8 C 0.8583(3) 0.6938(2) 0.07727(9)
C9 C 0.9868(3) 0.7861(2) 0.12147(10)
H5 H 1.0477 0.8485 0.1004
C10 C 1.0866(3) 0.7385(2) 0.15462(10)
C11 C 1.2140(3) 0.7442(2) 0.13492(11)
H6 H 1.2396 0.7796 0.1017
C12 C 1.3045(3) 0.6977(3) 0.16425(14)
H7 H 1.3897 0.7010 0.1504
C13 C 1.2684(4) 0.6472(3) 0.21332(14)
H8 H 1.3287 0.6155 0.2328
C14 C 1.1440(4) 0.6430(3) 0.23408(12)
H9 H 1.1203 0.6090 0.2678
C15 C 1.0527(3) 0.6891(2) 0.20499(11)
H10 H 0.9685 0.6867 0.2195
C16 C 0.8360(3) 0.8775(2) -0.03774(11)
C17 C 0.8476(3) 0.7883(2) -0.00495(9)
C18 C 0.9273(3) 0.7254(2) -0.01215(10)
C19 C 1.0168(3) 0.7123(2) -0.05712(10)
C20 C 0.9682(4) 0.5824(3) -0.07764(15)
H11 H 0.9855 0.5429 -0.0454
H12 H 1.0242 0.5741 -0.1070
H13 H 0.8642 0.5482 -0.0935
C21 C 0.9987(4) 0.7760(4) -0.10843(14)
H14 H 0.8967 0.7417 -0.1270
H15 H 1.0607 0.7691 -0.1356
H16 H 1.0272 0.8577 -0.0953
C22 C 1.1801(3) 0.7631(3) -0.03029(15)
H17 H 1.2107 0.8436 -0.0143
H18 H 1.2384 0.7595 -0.0596
H19 H 1.1943 0.7182 0.0000
C23 C 0.6557(3) 0.4712(2) 0.01328(12)
C24 C 0.6819(3) 0.4972(2) 0.07682(10)
C25 C 0.5787(3) 0.3940(2) 0.10445(11)
C26 C 0.5810(3) 0.3952(2) 0.16912(11)
C27 C 0.4561(4) 0.2825(3) 0.18092(13)
H20 H 0.3618 0.2809 0.1644
H21 H 0.4605 0.2806 0.2221
H22 H 0.4675 0.2153 0.1637
C28 C 0.7302(4) 0.3995(3) 0.19749(13)
H23 H 0.7407 0.3298 0.1833
H24 H 0.7344 0.4036 0.2389
H25 H 0.8093 0.4678 0.1882
C29 C 0.5568(4) 0.5026(3) 0.19336(14)
H26 H 0.6401 0.5735 0.1895
H27 H 0.5473 0.4985 0.2336
H28 H 0.4677 0.5026 0.1721
Cl1 Cl 0.48182(8) 1.01646(7) 0.08284(3)
N1 N 0.8276(3) 0.9538(2) -0.06084(11)
N2 N 0.7701(2) 0.59489(17) 0.10538(8)
N3 N 0.6248(3) 0.4513(2) -0.03606(11)
O1 O 0.9279(2) 0.83808(15) 0.16281(7)
O2 O 0.92512(17) 0.65671(13) 0.03252(6)
O3 O 0.4959(2) 0.30969(18) 0.06995(8)
C30 C 1.0014(3) 0.2849(2) 0.34819(11)
C31 C 1.0910(4) 0.3347(3) 0.30767(13)
H29 H 1.0487 0.3302 0.2693
C32 C 1.2431(4) 0.3911(3) 0.32437(14)
H30 H 1.3039 0.4239 0.2972
C33 C 1.3043(3) 0.3985(2) 0.38130(14)
C34 C 1.2165(3) 0.3480(2) 0.42155(12)
H31 H 1.2596 0.3521 0.4597
C35 C 1.0622(3) 0.2904(2) 0.40516(11)
C36 C 0.9669(3) 0.2254(2) 0.44790(10)
H32 H 1.0106 0.1743 0.4649
C37 C 0.8050(3) 0.1467(2) 0.41884(10)
C38 C 0.7554(3) 0.2081(2) 0.37071(10)
H33 H 0.7661 0.2854 0.3879
C39 C 0.5978(3) 0.1420(2) 0.33948(10)
C40 C 0.4856(3) 0.1710(2) 0.35489(12)
H34 H 0.5071 0.2305 0.3850
C41 C 0.3411(3) 0.1118(3) 0.32571(14)
H35 H 0.2659 0.1311 0.3367
C42 C 0.3087(3) 0.0252(3) 0.28100(14)
H36 H 0.2118 -0.0140 0.2613
C43 C 0.4195(4) -0.0039(3) 0.26518(12)
H37 H 0.3979 -0.0627 0.2346
C44 C 0.5622(3) 0.0535(2) 0.29443(11)
H38 H 0.6363 0.0325 0.2837
C45 C 1.0486(3) 0.3986(2) 0.52883(11)
C46 C 0.9361(3) 0.2936(2) 0.49722(10)
C47 C 0.7955(3) 0.2371(2) 0.50563(10)
C48 C 0.7038(3) 0.2529(2) 0.54924(10)
C49 C 0.7970(3) 0.3583(3) 0.59524(12)
H39 H 0.8787 0.3455 0.6153
H40 H 0.7361 0.3668 0.6225
H41 H 0.8346 0.4286 0.5767
C50 C 0.6429(4) 0.1409(3) 0.57873(14)
H42 H 0.5841 0.0750 0.5499
H43 H 0.5822 0.1498 0.6060
H44 H 0.7241 0.1276 0.5988
C51 C 0.5751(3) 0.2756(3) 0.51768(13)
H45 H 0.6139 0.3440 0.4979
H46 H 0.5176 0.2883 0.5454
H47 H 0.5129 0.2085 0.4900
C52 C 0.8148(3) -0.0272(2) 0.49247(12)
C53 C 0.7950(2) -0.0444(2) 0.42884(10)
C54 C 0.7933(3) -0.1628(2) 0.40654(10)
C55 C 0.7965(3) -0.1944(2) 0.34341(10)
C56 C 0.6445(3) -0.2172(3) 0.30840(12)
H48 H 0.5686 -0.2827 0.3212
H49 H 0.6452 -0.2346 0.2679
H50 H 0.6245 -0.1483 0.3142
C57 C 0.8215(3) -0.3083(2) 0.33788(12)
H51 H 0.9165 -0.2948 0.3597
H52 H 0.8193 -0.3318 0.2977
H53 H 0.7445 -0.3695 0.3527
C58 C 0.9228(3) -0.0972(3) 0.32154(11)
H54 H 0.9020 -0.0284 0.3202
H55 H 0.9315 -0.1239 0.2833
H56 H 1.0143 -0.0782 0.3473
Cl2 Cl 1.49594(8) 0.47118(7) 0.40221(4)
N4 N 1.1442(3) 0.4839(2) 0.55176(10)
N5 N 0.7901(2) 0.03101(17) 0.39600(8)
N6 N 0.8424(3) -0.0145(2) 0.54179(11)
O4 O 0.8516(2) 0.22593(16) 0.32769(7)
O5 O 0.71589(17) 0.14100(13) 0.46379(6)
O6 O 0.7892(2) -0.22830(15) 0.44294(7)
loop_
_geom_bond_atom_site_label_1
_geom_bond_atom_site_label_2
_geom_bond_site_symmetry_1
_geom_bond_site_symmetry_2
C1 C2 1_555 1_555
C2 H1 1_555 1_555
C3 C2 1_555 1_555
H2 C3 1_555 1_555
C4 C3 1_555 1_555
C5 C4 1_555 1_555
H3 C5 1_555 1_555
C6 C1 1_555 1_555
C7 C6 1_555 1_555
H4 C7 1_555 1_555
C8 C7 1_555 1_555
C9 C8 1_555 1_555
H5 C9 1_555 1_555
C10 C9 1_555 1_555
C11 C10 1_555 1_555
H6 C11 1_555 1_555
C12 C11 1_555 1_555
H7 C12 1_555 1_555
C13 C12 1_555 1_555
H8 C13 1_555 1_555
C14 C13 1_555 1_555
H9 C14 1_555 1_555
C15 C10 1_555 1_555
H10 C15 1_555 1_555
C16 C17 1_555 1_555
C17 C7 1_555 1_555
C18 C17 1_555 1_555
C19 C18 1_555 1_555
C20 C19 1_555 1_555
H11 C20 1_555 1_555
H12 C20 1_555 1_555
H13 C20 1_555 1_555
C21 C19 1_555 1_555
H14 C21 1_555 1_555
H15 C21 1_555 1_555
H16 C21 1_555 1_555
C22 C19 1_555 1_555
H17 C22 1_555 1_555
H18 C22 1_555 1_555
H19 C22 1_555 1_555
C23 C24 1_555 1_555
C24 C25 1_555 1_555
C25 C26 1_555 1_555
C26 C27 1_555 1_555
C27 H20 1_555 1_555
H21 C27 1_555 1_555
H22 C27 1_555 1_555
C28 C26 1_555 1_555
H23 C28 1_555 1_555
H24 C28 1_555 1_555
H25 C28 1_555 1_555
C29 C26 1_555 1_555
H26 C29 1_555 1_555
H27 C29 1_555 1_555
H28 C29 1_555 1_555
Cl1 C4 1_555 1_555
N1 C16 1_555 1_555
N2 C8 1_555 1_555
N3 C23 1_555 1_555
O1 C1 1_555 1_555
O2 C8 1_555 1_555
O3 C25 1_555 1_555
C30 C31 1_555 1_555
C31 H29 1_555 1_555
C32 C31 1_555 1_555
H30 C32 1_555 1_555
C33 C32 1_555 1_555
C34 C33 1_555 1_555
H31 C34 1_555 1_555
C35 C30 1_555 1_555
C36 C35 1_555 1_555
H32 C36 1_555 1_555
C37 C36 1_555 1_555
C38 C37 1_555 1_555
H33 C38 1_555 1_555
C39 C38 1_555 1_555
C40 C39 1_555 1_555
H34 C40 1_555 1_555
C41 C40 1_555 1_555
H35 C41 1_555 1_555
C42 C41 1_555 1_555
H36 C42 1_555 1_555
C43 C42 1_555 1_555
H37 C43 1_555 1_555
C44 C39 1_555 1_555
H38 C44 1_555 1_555
C45 C46 1_555 1_555
C46 C36 1_555 1_555
C47 C46 1_555 1_555
C48 C47 1_555 1_555
C49 C48 1_555 1_555
H39 C49 1_555 1_555
H40 C49 1_555 1_555
H41 C49 1_555 1_555
C50 C48 1_555 1_555
H42 C50 1_555 1_555
H43 C50 1_555 1_555
H44 C50 1_555 1_555
C51 C48 1_555 1_555
H45 C51 1_555 1_555
H46 C51 1_555 1_555
H47 C51 1_555 1_555
C52 C53 1_555 1_555
C53 C54 1_555 1_555
C54 C55 1_555 1_555
C55 C56 1_555 1_555
C56 H48 1_555 1_555
H49 C56 1_555 1_555
H50 C56 1_555 1_555
C57 C55 1_555 1_555
H51 C57 1_555 1_555
H52 C57 1_555 1_555
H53 C57 1_555 1_555
C58 C55 1_555 1_555
H54 C58 1_555 1_555
H55 C58 1_555 1_555
H56 C58 1_555 1_555
Cl2 C33 1_555 1_555
N4 C45 1_555 1_555
N5 C37 1_555 1_555
N6 C52 1_555 1_555
O4 C30 1_555 1_555
O5 C37 1_555 1_555
O6 C54 1_555 1_555
C5 C6 1_555 1_555
C9 O1 1_555 1_555
C14 C15 1_555 1_555
C18 O2 1_555 1_555
C24 N2 1_555 1_555
C34 C35 1_555 1_555
C38 O4 1_555 1_555
C43 C44 1_555 1_555
C47 O5 1_555 1_555
C53 N5 1_555 1_555

#END
