
#######################################################################
#
#                 Cambridge Crystallographic Data Centre
#                                CCDC 
#
#######################################################################
#
# If this CIF has been generated from an entry in the Cambridge 
# Structural Database, then it will include bibliographic, chemical, 
# crystal, experimental, refinement or atomic coordinate data resulting 
# from the CCDC's data processing and validation procedures.
#
#######################################################################

data_UFIHEZ
_chemical_formula_moiety         'C24 H20 Br1 Cl1 N2 O2'
_chemical_name_systematic        
5-(2-bromophenyl)-2-t-butyl-9-chloro-3-methoxy-5H-[1]benzopyrano[3,4-b]pyridine-1-carbonitrile
_symmetry_cell_setting           triclinic
_symmetry_space_group_name_H-M   'P -1'
_symmetry_Int_Tables_number      2
_space_group_name_Hall           '-P 1'
loop_
_symmetry_equiv_pos_site_id
_symmetry_equiv_pos_as_xyz
1 x,y,z
2 -x,-y,-z
_cell_length_a                   9.2635(5)
_cell_length_b                   11.3364(6)
_cell_length_c                   11.3467(6)
_cell_angle_alpha                86.529(2)
_cell_angle_beta                 72.466(2)
_cell_angle_gamma                78.713(2)
_cell_volume                     1114.23
_exptl_crystal_colour            colorless
_exptl_crystal_description       block
_cell_formula_units_Z            2
loop_
_atom_site_label
_atom_site_type_symbol
_atom_site_fract_x
_atom_site_fract_y
_atom_site_fract_z
Br1 Br 0.20280(4) 0.48594(2) 0.87408(3)
C1 C 0.1525(3) 0.6523(2) 0.8388(2)
C2 C 0.0521(3) 0.7257(2) 0.9325(2)
H1 H 0.0098 0.6935 1.0097
C3 C 0.0150(3) 0.8464(2) 0.9110(3)
H2 H -0.0537 0.8964 0.9735
C4 C 0.0794(3) 0.8935(2) 0.7971(3)
H3 H 0.0560 0.9757 0.7830
C5 C 0.1786(3) 0.8189(2) 0.7040(2)
H4 H 0.2204 0.8517 0.6270
C6 C 0.2181(3) 0.6955(2) 0.7220(2)
C7 C 0.3277(3) 0.6137(2) 0.6195(2)
H5 H 0.2841 0.5413 0.6212
C8 C 0.3497(3) 0.6671(2) 0.4927(2)
C9 C 0.4686(3) 0.7262(2) 0.4405(2)
C10 C 0.5618(3) 0.7451(2) 0.5210(2)
C11 C 0.6429(3) 0.8386(2) 0.5094(2)
H6 H 0.6388 0.8968 0.4485
C12 C 0.7289(3) 0.8448(3) 0.5879(3)
C13 C 0.7381(3) 0.7602(3) 0.6784(3)
H7 H 0.8009 0.7635 0.7280
C14 C 0.6534(3) 0.6707(3) 0.6949(2)
H8 H 0.6570 0.6138 0.7570
C15 C 0.5625(3) 0.6651(2) 0.6189(2)
C16 C 0.6332(4) 0.8043(3) 0.2553(2)
C17 C 0.4927(3) 0.7600(2) 0.3140(2)
C18 C 0.3909(3) 0.7431(2) 0.2498(2)
C19 C 0.4037(3) 0.7762(3) 0.1134(3)
C20 C 0.2627(4) 0.8741(3) 0.1099(3)
H9 H 0.2646 0.9450 0.1511
H10 H 0.1697 0.8448 0.1509
H11 H 0.2665 0.8931 0.0256
C21 C 0.4054(4) 0.6626(3) 0.0441(3)
H12 H 0.4091 0.6831 -0.0400
H13 H 0.3138 0.6309 0.0837
H14 H 0.4943 0.6032 0.0454
C22 C 0.5478(4) 0.8252(3) 0.0416(3)
H15 H 0.5500 0.8976 0.0801
H16 H 0.5460 0.8423 -0.0420
H17 H 0.6378 0.7664 0.0414
C23 C 0.2655(3) 0.6906(3) 0.3228(3)
C24 C 0.0300(4) 0.6256(4) 0.3427(4)
H18 H 0.0676 0.5455 0.3665
H19 H -0.0390 0.6227 0.2950
H20 H -0.0238 0.6733 0.4154
Cl1 Cl 0.82986(11) 0.96252(8) 0.56973(8)
N1 N 0.7496(4) 0.8339(3) 0.2164(2)
N2 N 0.2473(2) 0.6500(2) 0.4360(2)
O1 O 0.47613(18) 0.57621(15) 0.64168(16)
O2 O 0.1568(2) 0.6782(2) 0.2702(2)
loop_
_geom_bond_atom_site_label_1
_geom_bond_atom_site_label_2
_geom_bond_site_symmetry_1
_geom_bond_site_symmetry_2
Br1 C1 1_555 1_555
C1 C2 1_555 1_555
C2 H1 1_555 1_555
C3 C2 1_555 1_555
H2 C3 1_555 1_555
C4 C3 1_555 1_555
H3 C4 1_555 1_555
C5 C4 1_555 1_555
H4 C5 1_555 1_555
C6 C1 1_555 1_555
C7 C6 1_555 1_555
H5 C7 1_555 1_555
C8 C7 1_555 1_555
C9 C8 1_555 1_555
C10 C9 1_555 1_555
C11 C10 1_555 1_555
H6 C11 1_555 1_555
C12 C11 1_555 1_555
C13 C12 1_555 1_555
H7 C13 1_555 1_555
C14 C13 1_555 1_555
H8 C14 1_555 1_555
C15 C10 1_555 1_555
C16 C17 1_555 1_555
C17 C9 1_555 1_555
C18 C17 1_555 1_555
C19 C18 1_555 1_555
C20 C19 1_555 1_555
H9 C20 1_555 1_555
H10 C20 1_555 1_555
H11 C20 1_555 1_555
C21 C19 1_555 1_555
H12 C21 1_555 1_555
H13 C21 1_555 1_555
H14 C21 1_555 1_555
C22 C19 1_555 1_555
H15 C22 1_555 1_555
H16 C22 1_555 1_555
H17 C22 1_555 1_555
C23 C18 1_555 1_555
C24 H18 1_555 1_555
H19 C24 1_555 1_555
H20 C24 1_555 1_555
Cl1 C12 1_555 1_555
N1 C16 1_555 1_555
N2 C8 1_555 1_555
O1 C7 1_555 1_555
O2 C23 1_555 1_555
C5 C6 1_555 1_555
C14 C15 1_555 1_555
C15 O1 1_555 1_555
C23 N2 1_555 1_555
C24 O2 1_555 1_555

#END
