
#######################################################################
#
#                 Cambridge Crystallographic Data Centre
#                                CCDC 
#
#######################################################################
#
# If this CIF has been generated from an entry in the Cambridge 
# Structural Database, then it will include bibliographic, chemical, 
# crystal, experimental, refinement or atomic coordinate data resulting 
# from the CCDC's data processing and validation procedures.
#
#######################################################################

data_UFOVIX
_chemical_formula_moiety         'C5 H3 N11 O2,C2 H6 O1'
_chemical_name_systematic        
'7-nitro-3-(1H-tetrazol-5-yl)[1,2,4]triazolo[5,1-c][1,2,4]triazin-4-amine ethanol solvate'
_symmetry_cell_setting           orthorhombic
_symmetry_space_group_name_H-M   'P n m a'
_symmetry_Int_Tables_number      62
_space_group_name_Hall           '-P 2ac 2n'
loop_
_symmetry_equiv_pos_site_id
_symmetry_equiv_pos_as_xyz
1 x,y,z
2 1/2-x,-y,1/2+z
3 -x,1/2+y,-z
4 1/2+x,1/2-y,1/2-z
5 -x,-y,-z
6 1/2+x,y,1/2-z
7 x,1/2-y,z
8 1/2-x,1/2+y,1/2+z
_cell_length_a                   27.752(5)
_cell_length_b                   6.2922(14)
_cell_length_c                   6.9744(16)
_cell_angle_alpha                90
_cell_angle_beta                 90
_cell_angle_gamma                90
_cell_volume                     1217.88
_exptl_crystal_description       needle
_cell_formula_units_Z            4
loop_
_atom_site_label
_atom_site_type_symbol
_atom_site_fract_x
_atom_site_fract_y
_atom_site_fract_z
C1 C 0.39997(19) 0.7500 0.4914(9)
C2 C 0.32618(19) 0.7500 0.4461(8)
C3 C 0.2540(2) 0.7500 0.6910(8)
C4 C 0.30051(19) 0.7500 0.7753(8)
C5 C 0.2118(2) 0.7500 0.8132(8)
N1 N 0.36791(17) 0.7500 0.3469(7)
N2 N 0.33619(16) 0.7500 0.6388(6)
N3 N 0.28125(16) 0.7500 0.3742(6)
N4 N 0.24619(15) 0.7500 0.5017(6)
N5 N 0.4515(2) 0.7500 0.4556(9)
N6 N 0.16598(17) 0.7500 0.7520(7)
H1 H 0.1528(19) 0.7500 0.639(6)
N7 N 0.13706(17) 0.7500 0.9068(7)
N8 N 0.16512(17) 0.7500 1.0565(7)
N9 N 0.21286(17) 0.7500 1.0042(7)
N10 N 0.31240(16) 0.7500 0.9588(7)
H2 H 0.2870(16) 0.7500 1.032(8)
H3 H 0.3422(13) 0.7500 0.992(9)
N11 N 0.38438(16) 0.7500 0.6727(7)
O1 O 0.4642(2) 0.6943(11) 0.2943(10)
O2 O 0.4785(2) 0.786(8) 0.5894(9)
O1F O 0.4642(2) 0.8057(11) 0.2943(10)
O2F O 0.4785(2) 0.714(8) 0.5894(9)
O3? O 0.12522(17) 0.700(2) 0.4224(8)
H4? H 0.1384 0.7149 0.3133
C6? C 0.0738(3) 0.7034(14) 0.3980(12)
H5? H 0.0611 0.5575 0.4136
H6? H 0.0662 0.7510 0.2661
C7? C 0.0495(4) 0.8462(18) 0.5371(17)
H7? H 0.0570 0.8001 0.6680
H8? H 0.0146 0.8406 0.5169
H9? H 0.0609 0.9921 0.5184
loop_
_geom_bond_atom_site_label_1
_geom_bond_atom_site_label_2
_geom_bond_site_symmetry_1
_geom_bond_site_symmetry_2
C1 N1 1_555 1_555
C2 N1 1_555 1_555
C3 C4 1_555 1_555
C4 N2 1_555 1_555
C5 C3 1_555 1_555
N2 C2 1_555 1_555
N3 C2 1_555 1_555
N4 C3 1_555 1_555
N5 C1 1_555 1_555
N6 C5 1_555 1_555
H1 N6 1_555 1_555
N7 N6 1_555 1_555
N8 N7 1_555 1_555
N9 C5 1_555 1_555
N10 C4 1_555 1_555
H2 N10 1_555 1_555
H3 N10 1_555 1_555
N11 C1 1_555 1_555
O1 N5 1_555 1_555
O2 N5 1_555 1_555
O1F N5 1_555 1_555
O2F N5 1_555 1_555
N2 N11 1_555 1_555
N3 N4 1_555 1_555
N8 N9 1_555 1_555
O1 O1F 1_555 1_555

#END
