
#######################################################################
#
#                 Cambridge Crystallographic Data Centre
#                                CCDC 
#
#######################################################################
#
# If this CIF has been generated from an entry in the Cambridge 
# Structural Database, then it will include bibliographic, chemical, 
# crystal, experimental, refinement or atomic coordinate data resulting 
# from the CCDC's data processing and validation procedures.
#
#######################################################################

data_UFUCIJ
_chemical_formula_moiety         'C36 H58 O7,C2 H4 O2'
_chemical_name_systematic        
'3,6,12-Tri-O-acetylprotopanaxatriol acetic acid solvate'
_symmetry_cell_setting           triclinic
_symmetry_space_group_name_H-M   'P 1'
_symmetry_Int_Tables_number      1
_space_group_name_Hall           'P 1'
loop_
_symmetry_equiv_pos_site_id
_symmetry_equiv_pos_as_xyz
1 x,y,z
_cell_length_a                   8.7254(17)
_cell_length_b                   9.5176(19)
_cell_length_c                   12.415(3)
_cell_angle_alpha                89.65(3)
_cell_angle_beta                 80.46(3)
_cell_angle_gamma                70.65(3)
_cell_volume                     957.989
_exptl_crystal_colour            colorless
_exptl_crystal_description       plate
_cell_formula_units_Z            1
loop_
_atom_site_label
_atom_site_type_symbol
_atom_site_fract_x
_atom_site_fract_y
_atom_site_fract_z
O1 O 0.9150(4) 1.1126(3) -0.3172(2)
O2 O 1.0228(6) 0.9063(6) -0.4257(4)
O3 O 0.2966(3) 1.2481(3) -0.1115(2)
O4 O 0.1887(5) 1.4362(4) 0.0169(3)
O5 O 0.6919(3) 0.5342(2) 0.20693(17)
O6 O 0.8508(4) 0.3916(3) 0.0595(2)
O7 O 0.4764(4) 0.4022(3) 0.3178(2)
H1 H 0.4632 0.3357 0.3566
C1 C 0.8446(4) 0.8756(4) -0.0828(3)
H2 H 0.9143 0.8264 -0.0310
H3 H 0.8274 0.7989 -0.1256
C2 C 0.9339(5) 0.9609(5) -0.1591(3)
H4 H 0.9576 1.0344 -0.1170
H5 H 1.0375 0.8926 -0.1977
C3 C 0.8253(5) 1.0378(4) -0.2404(3)
H6 H 0.8039 0.9610 -0.2818
C4 C 0.6583(5) 1.1528(4) -0.1898(3)
C5 C 0.5721(4) 1.0677(3) -0.1037(2)
H7 H 0.5517 0.9926 -0.1476
C6 C 0.4010(4) 1.1585(4) -0.0391(3)
H8 H 0.4128 1.2229 0.0180
C7 C 0.3099(4) 1.0573(4) 0.0115(3)
H9 H 0.2921 0.9998 -0.0465
H10 H 0.2026 1.1184 0.0504
C8 C 0.4007(4) 0.9489(3) 0.0913(2)
C9 C 0.5830(4) 0.8710(3) 0.0332(2)
H11 H 0.5742 0.8135 -0.0293
C10 C 0.6756(4) 0.9760(3) -0.0187(2)
C11 C 0.6788(4) 0.7524(4) 0.1050(3)
H12 H 0.7898 0.7026 0.0658
H13 H 0.6870 0.8010 0.1712
C12 C 0.5947(4) 0.6367(3) 0.1355(2)
H14 H 0.5933 0.5818 0.0693
C13 C 0.4189(4) 0.7117(4) 0.1959(2)
H15 H 0.4242 0.7701 0.2591
C14 C 0.3221(4) 0.8229(4) 0.1177(3)
C15 C 0.1457(5) 0.8754(5) 0.1876(4)
H16 H 0.1333 0.9540 0.2411
H17 H 0.0627 0.9119 0.1415
C16 C 0.1303(5) 0.7355(5) 0.2443(4)
H18 H 0.0619 0.6947 0.2090
H19 H 0.0793 0.7607 0.3204
C17 C 0.3057(4) 0.6193(4) 0.2361(3)
H20 H 0.3200 0.5451 0.1776
C18 C 0.3899(5) 1.0400(4) 0.1968(3)
H21 H 0.4378 1.1164 0.1788
H22 H 0.4489 0.9751 0.2468
H23 H 0.2765 1.0851 0.2303
C19 C 0.7139(5) 1.0726(4) 0.0664(3)
H24 H 0.7769 1.0089 0.1152
H25 H 0.6124 1.1382 0.1074
H26 H 0.7761 1.1304 0.0292
C20 C 0.3312(5) 0.5360(4) 0.3428(3)
C21 C 0.1902(7) 0.4732(7) 0.3766(5)
H27 H 0.2051 0.4215 0.4427
H28 H 0.1908 0.4053 0.3195
H29 H 0.0867 0.5536 0.3886
C22 C 0.3560(6) 0.6279(4) 0.4339(3)
H30 H 0.2652 0.7218 0.4452
H31 H 0.4565 0.6506 0.4100
C23 C 0.3672(8) 0.5537(6) 0.5441(4)
H32 H 0.2591 0.5512 0.5765
H33 H 0.4414 0.4515 0.5312
C24 C 0.4270(9) 0.6325(6) 0.6230(4)
H34 H 0.3468 0.7046 0.6710
C25 C 0.5854(9) 0.6096(5) 0.6318(3)
C26 C 0.7225(10) 0.4999(8) 0.5625(5)
H35 H 0.6812 0.4519 0.5119
H36 H 0.7839 0.4268 0.6069
H37 H 0.7931 0.5484 0.5228
C27 C 0.5611(5) 1.1958(5) -0.2859(3)
H38 H 0.6141 1.2476 -0.3378
H39 H 0.4503 1.2592 -0.2583
H40 H 0.5587 1.1071 -0.3210
C28 C 0.6749(6) 1.2940(4) -0.1408(4)
H41 H 0.7278 1.3406 -0.1969
H42 H 0.7398 1.2675 -0.0838
H43 H 0.5673 1.3621 -0.1111
C29 C 0.3118(5) 0.7409(4) 0.0139(3)
H44 H 0.2638 0.6653 0.0343
H45 H 0.4206 0.6956 -0.0276
H46 H 0.2446 0.8109 -0.0297
C30 C 1.0090(6) 1.0310(7) -0.4063(4)
C31 C 1.0992(9) 1.1173(9) -0.4757(6)
H47 H 1.1660 1.0564 -0.5389
H48 H 1.1685 1.1464 -0.4343
H49 H 1.0212 1.2048 -0.4986
C32 C 0.1964(5) 1.3847(4) -0.0730(4)
C33 C 0.0930(8) 1.4584(8) -0.1548(6)
H50 H 0.0223 1.5562 -0.1265
H51 H 0.0269 1.4001 -0.1696
H52 H 0.1629 1.4665 -0.2213
C34 C 0.8210(5) 0.4160(4) 0.1559(3)
C35 C 0.9139(6) 0.3246(5) 0.2355(4)
H53 H 1.0041 0.2431 0.1973
H54 H 0.8421 0.2862 0.2848
H55 H 0.9558 0.3848 0.2761
C36 C 0.6227(15) 0.6972(9) 0.7163(5)
H56 H 0.5216 0.7653 0.7559
H57 H 0.6902 0.7520 0.6817
H58 H 0.6804 0.6307 0.7660
O8 O 0.5085(5) 0.1458(4) 0.4200(3)
H59 H 0.4541 0.1077 0.3898
C37 C 0.6590(7) 0.0540(6) 0.4109(4)
C38 C 0.6770(9) -0.0949(6) 0.4529(5)
H60 H 0.7919 -0.1537 0.4433
H61 H 0.6209 -0.1431 0.4134
H62 H 0.6300 -0.0848 0.5292
O9 O 0.7702(8) 0.0895(9) 0.3707(9)
loop_
_geom_bond_atom_site_label_1
_geom_bond_atom_site_label_2
_geom_bond_site_symmetry_1
_geom_bond_site_symmetry_2
O1 C3 1_555 1_555
O2 C30 1_555 1_555
O3 C6 1_555 1_555
O4 C32 1_555 1_555
O5 C12 1_555 1_555
O6 C34 1_555 1_555
O7 H1 1_555 1_555
C1 H2 1_555 1_555
H3 C1 1_555 1_555
C2 C1 1_555 1_555
H4 C2 1_555 1_555
H5 C2 1_555 1_555
C3 C2 1_555 1_555
H6 C3 1_555 1_555
C4 C3 1_555 1_555
C5 C4 1_555 1_555
H7 C5 1_555 1_555
C6 C5 1_555 1_555
H8 C6 1_555 1_555
C7 C6 1_555 1_555
H9 C7 1_555 1_555
H10 C7 1_555 1_555
C8 C7 1_555 1_555
C9 C8 1_555 1_555
H11 C9 1_555 1_555
C10 C1 1_555 1_555
C11 C9 1_555 1_555
H12 C11 1_555 1_555
H13 C11 1_555 1_555
C12 C11 1_555 1_555
H14 C12 1_555 1_555
C13 C12 1_555 1_555
H15 C13 1_555 1_555
C14 C8 1_555 1_555
C15 C14 1_555 1_555
H16 C15 1_555 1_555
H17 C15 1_555 1_555
C16 C15 1_555 1_555
H18 C16 1_555 1_555
H19 C16 1_555 1_555
C17 C13 1_555 1_555
H20 C17 1_555 1_555
C18 C8 1_555 1_555
H21 C18 1_555 1_555
H22 C18 1_555 1_555
H23 C18 1_555 1_555
C19 C10 1_555 1_555
H24 C19 1_555 1_555
H25 C19 1_555 1_555
H26 C19 1_555 1_555
C20 O7 1_555 1_555
C21 C20 1_555 1_555
H27 C21 1_555 1_555
H28 C21 1_555 1_555
H29 C21 1_555 1_555
C22 C20 1_555 1_555
H30 C22 1_555 1_555
H31 C22 1_555 1_555
C23 C22 1_555 1_555
H32 C23 1_555 1_555
H33 C23 1_555 1_555
C24 C23 1_555 1_555
H34 C24 1_555 1_555
C25 C24 1_555 1_555
C26 C25 1_555 1_555
H35 C26 1_555 1_555
H36 C26 1_555 1_555
H37 C26 1_555 1_555
C27 C4 1_555 1_555
H38 C27 1_555 1_555
H39 C27 1_555 1_555
H40 C27 1_555 1_555
C28 C4 1_555 1_555
H41 C28 1_555 1_555
H42 C28 1_555 1_555
H43 C28 1_555 1_555
C29 C14 1_555 1_555
H44 C29 1_555 1_555
H45 C29 1_555 1_555
H46 C29 1_555 1_555
C30 O1 1_555 1_555
C31 C30 1_555 1_555
H47 C31 1_555 1_555
H48 C31 1_555 1_555
H49 C31 1_555 1_555
C32 O3 1_555 1_555
C33 C32 1_555 1_555
H50 C33 1_555 1_555
H51 C33 1_555 1_555
H52 C33 1_555 1_555
C34 O5 1_555 1_555
C35 C34 1_555 1_555
H53 C35 1_555 1_555
H54 C35 1_555 1_555
H55 C35 1_555 1_555
C36 C25 1_555 1_555
H56 C36 1_555 1_555
H57 C36 1_555 1_555
H58 C36 1_555 1_555
O8 H59 1_555 1_555
C37 O8 1_555 1_555
C38 C37 1_555 1_555
H60 C38 1_555 1_555
H61 C38 1_555 1_555
H62 C38 1_555 1_555
O9 C37 1_555 1_555
C5 C10 1_555 1_555
C9 C10 1_555 1_555
C13 C14 1_555 1_555
C16 C17 1_555 1_555
C17 C20 1_555 1_555

#END
