
#######################################################################
#
#                 Cambridge Crystallographic Data Centre
#                                CCDC 
#
#######################################################################
#
# If this CIF has been generated from an entry in the Cambridge 
# Structural Database, then it will include bibliographic, chemical, 
# crystal, experimental, refinement or atomic coordinate data resulting 
# from the CCDC's data processing and validation procedures.
#
#######################################################################

data_UFUHOT
_chemical_formula_moiety         'C22 H22 N2 O4 S1'
_chemical_name_systematic        
(3RS,2'SR)-1-benzyl-3-(1-(4-nitrobenzoyloxy)but-3-en-2-yl)pyrrolidine-2-thione
_symmetry_cell_setting           triclinic
_symmetry_space_group_name_H-M   'P -1'
_symmetry_Int_Tables_number      2
_space_group_name_Hall           '-P 1'
loop_
_symmetry_equiv_pos_site_id
_symmetry_equiv_pos_as_xyz
1 x,y,z
2 -x,-y,-z
_cell_length_a                   6.6493(13)
_cell_length_b                   10.852(2)
_cell_length_c                   14.037(3)
_cell_angle_alpha                87.214(3)
_cell_angle_beta                 85.458(3)
_cell_angle_gamma                75.190(3)
_cell_volume                     975.737
_exptl_crystal_colour            colorless
_exptl_crystal_description       block
_chemical_melting_point          '113 deg.C'
_cell_formula_units_Z            2
_exptl_crystal_recrystallization_method 'petrol/ethyl acetate'
loop_
_atom_site_label
_atom_site_type_symbol
_atom_site_fract_x
_atom_site_fract_y
_atom_site_fract_z
S1 S 0.18825(5) 0.07825(3) 0.57341(2)
N1 N -0.14645(16) 0.25785(10) 0.52063(7)
N2 N 0.94900(19) -0.31508(11) -0.05378(8)
O1 O 0.34235(14) 0.03793(9) 0.25082(7)
O2 O 0.10024(16) 0.02013(11) 0.15293(8)
O3 O 1.12764(17) -0.32671(13) -0.03214(9)
O4 O 0.90634(18) -0.36474(12) -0.12330(8)
C1 C 0.05791(19) 0.20485(11) 0.51252(9)
C2 C -0.2133(2) 0.37930(12) 0.46764(9)
H1 H -0.2480 0.4518 0.5113
H2 H -0.3364 0.3811 0.4318
C3 C -0.0247(2) 0.38442(12) 0.39950(9)
H3 H 0.0026 0.4700 0.3985
H4 H -0.0477 0.3645 0.3338
C4 C 0.15962(19) 0.28241(11) 0.43941(9)
H5 H 0.2437 0.3274 0.4744
C5 C -0.2959(2) 0.21176(13) 0.58558(10)
H6 H -0.2308 0.1236 0.6077
H7 H -0.4186 0.2097 0.5507
C6 C -0.3671(2) 0.29498(12) 0.67129(9)
C7 C -0.5782(2) 0.34329(13) 0.69607(10)
H8 H -0.6789 0.3258 0.6579
C8 C -0.6429(2) 0.41714(14) 0.77648(11)
H9 H -0.7875 0.4497 0.7931
C9 C -0.4979(3) 0.44316(13) 0.83214(10)
H10 H -0.5425 0.4932 0.8872
C10 C -0.2863(3) 0.39610(14) 0.80761(10)
H11 H -0.1862 0.4146 0.8456
C11 C -0.2215(2) 0.32229(13) 0.72778(10)
H12 H -0.0767 0.2900 0.7114
C12 C 0.30814(19) 0.19806(11) 0.36482(9)
H13 H 0.4108 0.1311 0.3998
C13 C 0.4278(2) 0.27420(12) 0.30097(9)
H14 H 0.3554 0.3572 0.2804
C14 C 0.6257(2) 0.23343(14) 0.27187(10)
H15 H 0.7027 0.1509 0.2912
H16 H 0.6916 0.2866 0.2316
C15 C 0.18696(19) 0.13122(12) 0.30554(9)
H17 H 0.0966 0.0889 0.3477
H18 H 0.0985 0.1933 0.2624
C16 C 0.2781(2) -0.00575(12) 0.17412(9)
C17 C 0.4577(2) -0.08845(12) 0.11693(9)
C18 C 0.6624(2) -0.10470(13) 0.14034(9)
H19 H 0.6907 -0.0653 0.1950
C19 C 0.8251(2) -0.17839(13) 0.08390(9)
H20 H 0.9658 -0.1896 0.0986
C20 C 0.7768(2) -0.23521(12) 0.00545(9)
C21 C 0.5750(2) -0.22037(13) -0.01980(9)
H21 H 0.5473 -0.2605 -0.0742
C22 C 0.4143(2) -0.14504(13) 0.03671(9)
H22 H 0.2741 -0.1320 0.0206
loop_
_geom_bond_atom_site_label_1
_geom_bond_atom_site_label_2
_geom_bond_site_symmetry_1
_geom_bond_site_symmetry_2
S1 C1 1_555 1_555
N1 C1 1_555 1_555
N2 O3 1_555 1_555
O1 C15 1_555 1_555
O2 C16 1_555 1_555
O4 N2 1_555 1_555
C1 C4 1_555 1_555
C2 N1 1_555 1_555
H1 C2 1_555 1_555
H2 C2 1_555 1_555
C3 C2 1_555 1_555
H3 C3 1_555 1_555
H4 C3 1_555 1_555
C4 C3 1_555 1_555
H5 C4 1_555 1_555
C5 N1 1_555 1_555
H6 C5 1_555 1_555
H7 C5 1_555 1_555
C6 C5 1_555 1_555
C7 C6 1_555 1_555
H8 C7 1_555 1_555
C8 C7 1_555 1_555
H9 C8 1_555 1_555
C9 C8 1_555 1_555
H10 C9 1_555 1_555
C10 C9 1_555 1_555
H11 C10 1_555 1_555
C11 C6 1_555 1_555
H12 C11 1_555 1_555
C12 C4 1_555 1_555
H13 C12 1_555 1_555
C13 C12 1_555 1_555
H14 C13 1_555 1_555
C14 C13 1_555 1_555
H15 C14 1_555 1_555
H16 C14 1_555 1_555
C15 C12 1_555 1_555
H17 C15 1_555 1_555
H18 C15 1_555 1_555
C16 O1 1_555 1_555
C17 C16 1_555 1_555
C18 C17 1_555 1_555
H19 C18 1_555 1_555
C19 C18 1_555 1_555
H20 C19 1_555 1_555
C20 N2 1_555 1_555
C21 C20 1_555 1_555
H21 C21 1_555 1_555
C22 C17 1_555 1_555
H22 C22 1_555 1_555
C10 C11 1_555 1_555
C19 C20 1_555 1_555
C21 C22 1_555 1_555

#END
