
#######################################################################
#
#                 Cambridge Crystallographic Data Centre
#                                CCDC 
#
#######################################################################
#
# If this CIF has been generated from an entry in the Cambridge 
# Structural Database, then it will include bibliographic, chemical, 
# crystal, experimental, refinement or atomic coordinate data resulting 
# from the CCDC's data processing and validation procedures.
#
#######################################################################

data_UFUYIE
_chemical_formula_moiety         'C23 H18 N2 O1'
_chemical_name_systematic        1,3-bis(1-naphthyl)-2-imidazolidinone
_symmetry_cell_setting           monoclinic
_symmetry_space_group_name_H-M   'P 21/c'
_symmetry_Int_Tables_number      14
_space_group_name_Hall           '-P 2ybc'
loop_
_symmetry_equiv_pos_site_id
_symmetry_equiv_pos_as_xyz
1 x,y,z
2 -x,1/2+y,1/2-z
3 -x,-y,-z
4 x,1/2-y,1/2+z
_cell_length_a                   13.2790(3)
_cell_length_b                   10.8498(3)
_cell_length_c                   12.4770(4)
_cell_angle_alpha                90
_cell_angle_beta                 107.042(17)
_cell_angle_gamma                90
_cell_volume                     1718.68
_chemical_melting_point          '198-200 deg.C'
_cell_formula_units_Z            4
_exptl_crystal_recrystallization_method hexane/chloroform
loop_
_atom_site_label
_atom_site_type_symbol
_atom_site_fract_x
_atom_site_fract_y
_atom_site_fract_z
O1 O 0.22085(10) 0.36725(14) -0.04818(11)
N1 N 0.30347(11) 0.34500(15) 0.14228(12)
N2 N 0.13195(11) 0.30931(15) 0.07808(12)
C1 C 0.21896(13) 0.34333(18) 0.04618(15)
C2 C 0.26670(14) 0.3368(2) 0.24120(16)
H1 H 0.2605 0.4179 0.2715
H2 H 0.3136 0.2867 0.2990
C3 C 0.16042(15) 0.2765(2) 0.19587(16)
H3 H 0.1652 0.1878 0.2060
H4 H 0.1102 0.3091 0.2314
C4 C 0.03471(13) 0.27472(18) -0.00214(15)
C5 C -0.05266(14) 0.3441(2) -0.01379(18)
H5 H -0.0494 0.4122 0.0324
C6 C -0.14780(15) 0.3151(2) -0.09425(19)
H6 H -0.2074 0.3627 -0.1002
C7 C -0.15283(15) 0.2172(2) -0.16366(18)
H7 H -0.2154 0.2006 -0.2191
C8 C -0.06428(14) 0.13969(19) -0.15307(16)
C9 C -0.06731(18) 0.0369(2) -0.22291(18)
H8 H -0.1281 0.0208 -0.2810
C10 C 0.0166(2) -0.0386(2) -0.2069(2)
H9 H 0.0131 -0.1057 -0.2543
C11 C 0.10856(18) -0.0169(2) -0.1200(2)
H10 H 0.1645 -0.0719 -0.1078
C12 C 0.11731(15) 0.08423(19) -0.05270(18)
H11 H 0.1798 0.0990 0.0034
C13 C 0.03094(13) 0.16719(18) -0.06819(15)
C14 C 0.40327(13) 0.39783(17) 0.14643(14)
C15 C 0.43670(14) 0.50327(19) 0.20646(16)
H12 H 0.3935 0.5414 0.2432
C16 C 0.53548(15) 0.5548(2) 0.21330(17)
H13 H 0.5569 0.6266 0.2543
C17 C 0.59954(14) 0.5006(2) 0.16068(16)
H14 H 0.6639 0.5368 0.1643
C18 C 0.56997(13) 0.38956(19) 0.10023(15)
C19 C 0.63706(15) 0.3303(2) 0.04719(18)
H15 H 0.7019 0.3655 0.0512
C20 C 0.60870(17) 0.2232(2) -0.00947(19)
H16 H 0.6542 0.1852 -0.0435
C21 C 0.51038(17) 0.1694(2) -0.01681(18)
H17 H 0.4913 0.0958 -0.0557
C22 C 0.44304(15) 0.22434(18) 0.03264(16)
H18 H 0.3783 0.1878 0.0268
C23 C 0.47003(13) 0.33637(17) 0.09289(14)
loop_
_geom_bond_atom_site_label_1
_geom_bond_atom_site_label_2
_geom_bond_site_symmetry_1
_geom_bond_site_symmetry_2
O1 C1 1_555 1_555
N1 C1 1_555 1_555
N2 C1 1_555 1_555
C2 N1 1_555 1_555
H1 C2 1_555 1_555
H2 C2 1_555 1_555
C3 N2 1_555 1_555
H3 C3 1_555 1_555
H4 C3 1_555 1_555
C4 N2 1_555 1_555
C5 C4 1_555 1_555
H5 C5 1_555 1_555
C6 C5 1_555 1_555
H6 C6 1_555 1_555
C7 C6 1_555 1_555
H7 C7 1_555 1_555
C8 C7 1_555 1_555
C9 C8 1_555 1_555
H8 C9 1_555 1_555
C10 C9 1_555 1_555
H9 C10 1_555 1_555
C11 C10 1_555 1_555
H10 C11 1_555 1_555
C12 C11 1_555 1_555
H11 C12 1_555 1_555
C13 C4 1_555 1_555
C14 N1 1_555 1_555
C15 C14 1_555 1_555
H12 C15 1_555 1_555
C16 C15 1_555 1_555
H13 C16 1_555 1_555
C17 C16 1_555 1_555
H14 C17 1_555 1_555
C18 C17 1_555 1_555
C19 C18 1_555 1_555
H15 C19 1_555 1_555
C20 C19 1_555 1_555
H16 C20 1_555 1_555
C21 C20 1_555 1_555
H17 C21 1_555 1_555
C22 C21 1_555 1_555
H18 C22 1_555 1_555
C23 C14 1_555 1_555
C2 C3 1_555 1_555
C8 C13 1_555 1_555
C12 C13 1_555 1_555
C18 C23 1_555 1_555
C22 C23 1_555 1_555

#END
