
#######################################################################
#
#                 Cambridge Crystallographic Data Centre
#                                CCDC 
#
#######################################################################
#
# If this CIF has been generated from an entry in the Cambridge 
# Structural Database, then it will include bibliographic, chemical, 
# crystal, experimental, refinement or atomic coordinate data resulting 
# from the CCDC's data processing and validation procedures.
#
#######################################################################

data_UGADEO
_chemical_formula_moiety         'C45 H67 B1 N2 S3'
_chemical_name_systematic        
2,2-dicyclohexyl-4,6-bis(2,6-di-isopropylphenyl)-5-(cyclohexylsulfanyl)-2H,4H-[1,3,2]dithiaborolo[4,5-d]imidazol-6-ium-2-ide
_symmetry_cell_setting           monoclinic
_symmetry_space_group_name_H-M   'C 2/c'
_symmetry_Int_Tables_number      15
_space_group_name_Hall           '-C 2yn'
loop_
_symmetry_equiv_pos_site_id
_symmetry_equiv_pos_as_xyz
1 x,y,z
2 -x,y,1/2-z
3 1/2+x,1/2+y,z
4 1/2-x,1/2+y,1/2-z
5 -x,-y,-z
6 x,-y,1/2+z
7 1/2-x,1/2-y,-z
8 1/2+x,1/2-y,1/2+z
_cell_length_a                   34.0880(16)
_cell_length_b                   10.7509(5)
_cell_length_c                   26.1095(12)
_cell_angle_alpha                90
_cell_angle_beta                 111.7780(10)
_cell_angle_gamma                90
_cell_volume                     8885.6
_exptl_crystal_colour            'pale yellow'
_exptl_crystal_description       plate
_chemical_melting_point          'decomposes above 185 deg.C'
_cell_formula_units_Z            8
_exptl_crystal_recrystallization_method toluene/hexane
loop_
_atom_site_label
_atom_site_type_symbol
_atom_site_fract_x
_atom_site_fract_y
_atom_site_fract_z
S1 S 0.57008(2) 0.53116(6) 0.75212(2)
S2 S 0.68366(2) 0.68525(6) 0.65965(2)
S3 S 0.59234(2) 0.67328(6) 0.56207(2)
N1 N 0.63508(4) 0.59222(15) 0.71702(6)
N2 N 0.57282(4) 0.58607(15) 0.65126(6)
C1 C 0.59400(6) 0.56315(18) 0.70579(7)
C2 C 0.63960(5) 0.63375(18) 0.66953(7)
C3 C 0.60066(5) 0.62947(18) 0.62833(7)
C4 C 0.52728(5) 0.58015(19) 0.62369(7)
C5 C 0.50428(7) 0.6879(2) 0.62183(10)
C6 C 0.46058(7) 0.6785(3) 0.59769(11)
H1 H 0.4440 0.7481 0.5964
C7 C 0.44160(7) 0.5696(3) 0.57601(11)
H2 H 0.4123 0.5654 0.5603
C8 C 0.46495(8) 0.4667(3) 0.57694(10)
H3 H 0.4513 0.3933 0.5614
C9 C 0.50888(6) 0.4685(2) 0.60065(8)
C10 C 0.5356(4) 0.3567(6) 0.6013(4)
H4 H 0.5630 0.3618 0.6318
C11 C 0.5408(3) 0.3561(6) 0.5466(3)
H5 H 0.5577 0.2861 0.5448
H6 H 0.5136 0.3504 0.5174
H7 H 0.5545 0.4316 0.5426
C12 C 0.5115(3) 0.2372(4) 0.6060(4)
H8 H 0.5284 0.1655 0.6065
H9 H 0.5060 0.2400 0.6395
H10 H 0.4852 0.2323 0.5750
C13 C 0.5250(2) 0.8193(7) 0.6353(5)
H11 H 0.5556 0.8060 0.6479
C14 C 0.5137(3) 0.9083(7) 0.5864(6)
H12 H 0.5193 0.8691 0.5568
H13 H 0.4842 0.9293 0.5742
H14 H 0.5303 0.9826 0.5973
C15 C 0.5168(3) 0.8760(14) 0.6832(5)
H15 H 0.5243 0.8175 0.7131
H16 H 0.5335 0.9500 0.6951
H17 H 0.4874 0.8967 0.6720
C16 C 0.66928(6) 0.5793(2) 0.77010(7)
C17 C 0.67305(6) 0.6691(2) 0.81015(8)
C18 C 0.70609(8) 0.6518(3) 0.86089(9)
H18 H 0.7099 0.7089 0.8891
C19 C 0.73287(8) 0.5528(3) 0.86988(10)
H19 H 0.7544 0.5430 0.9042
C20 C 0.72862(7) 0.4680(3) 0.82944(9)
H20 H 0.7476 0.4023 0.8365
C21 C 0.69641(6) 0.4777(2) 0.77782(8)
C22 C 0.69297(7) 0.3814(2) 0.73392(9)
H21 H 0.6682 0.4015 0.7010
C23 C 0.73182(9) 0.3850(3) 0.71833(12)
H22 H 0.7291 0.3235 0.6905
H23 H 0.7343 0.4659 0.7043
H24 H 0.7566 0.3678 0.7503
C24 C 0.68750(10) 0.2496(3) 0.75209(13)
H25 H 0.6855 0.1922 0.7231
H26 H 0.7114 0.2284 0.7846
H27 H 0.6622 0.2455 0.7601
C25 C 0.64402(8) 0.7805(2) 0.79968(10)
H28 H 0.6185 0.7607 0.7677
C26 C 0.63020(12) 0.8070(3) 0.84785(14)
H29 H 0.6119 0.8782 0.8394
H30 H 0.6154 0.7362 0.8540
H31 H 0.6546 0.8234 0.8804
C27 C 0.66389(11) 0.8942(3) 0.78494(16)
H32 H 0.6723 0.8749 0.7546
H33 H 0.6438 0.9610 0.7747
H34 H 0.6882 0.9189 0.8162
B1 B 0.65346(7) 0.7202(2) 0.57810(8)
C28 C 0.66957(8) 0.4897(2) 0.55330(11)
H35 H 0.6839 0.4707 0.5921
H36 H 0.6400 0.4679 0.5431
C29 C 0.68845(10) 0.4104(3) 0.52000(14)
H37 H 0.6722 0.4220 0.4810
H38 H 0.6867 0.3233 0.5287
C30 C 0.73388(10) 0.4439(3) 0.53216(14)
H39 H 0.7507 0.4241 0.5703
H40 H 0.7445 0.3951 0.5089
C31 C 0.73834(9) 0.5807(3) 0.52210(13)
H41 H 0.7245 0.5984 0.4831
H42 H 0.7680 0.6011 0.5328
C32 C 0.71901(7) 0.6613(2) 0.55465(11)
H43 H 0.7205 0.7477 0.5449
H44 H 0.7357 0.6523 0.5937
C33 C 0.67298(6) 0.6292(2) 0.54467(8)
H45 H 0.6569 0.6448 0.5055
C34 C 0.65536(6) 0.8671(2) 0.56769(8)
H46 H 0.6853 0.8881 0.5785
C35 C 0.63429(8) 0.9012(2) 0.50674(8)
H47 H 0.6049 0.8759 0.4937
H48 H 0.6478 0.8548 0.4859
C36 C 0.63635(10) 1.0389(2) 0.49507(11)
H49 H 0.6655 1.0628 0.5036
H50 H 0.6208 1.0546 0.4562
C37 C 0.61797(9) 1.1169(3) 0.52885(12)
H51 H 0.6211 1.2044 0.5221
H52 H 0.5881 1.0991 0.5178
C38 C 0.64007(9) 1.0896(3) 0.58934(12)
H53 H 0.6270 1.1373 0.6102
H54 H 0.6694 1.1151 0.6010
C39 C 0.63806(8) 0.9513(2) 0.60164(10)
H55 H 0.6541 0.9369 0.6405
H56 H 0.6089 0.9288 0.5943
C40 C 0.59225(17) 0.3812(3) 0.78276(16)
H57 H 0.6077 0.3449 0.7613
C41 C 0.62105(11) 0.3876(3) 0.84168(12)
H58 H 0.6067 0.4305 0.8624
H59 H 0.6457 0.4364 0.8444
C42 C 0.63543(14) 0.2615(4) 0.86755(16)
H60 H 0.6527 0.2708 0.9064
H61 H 0.6521 0.2202 0.8495
C43 C 0.59444(19) 0.1822(5) 0.8603(2)
H62 H 0.5787 0.2229 0.8798
H63 H 0.6029 0.1008 0.8767
C44 C 0.5677(2) 0.1677(5) 0.8036(2)
H64 H 0.5826 0.1217 0.7844
H65 H 0.5427 0.1211 0.8008
C45 C 0.55453(17) 0.3013(5) 0.7759(2)
H66 H 0.5380 0.2910 0.7369
H67 H 0.5369 0.3428 0.7925
C46? C 0.5341(8) 0.3581(14) 0.5921(6)
H68? H 0.5618 0.3953 0.5985
C47? C 0.5243(5) 0.2925(18) 0.5374(4)
H69? H 0.5442 0.2264 0.5417
H70? H 0.4962 0.2588 0.5252
H71? H 0.5262 0.3508 0.5105
C48? C 0.5450(7) 0.2552(12) 0.6372(5)
H72? H 0.5608 0.1902 0.6284
H73? H 0.5616 0.2905 0.6724
H74? H 0.5194 0.2215 0.6387
C49? C 0.5256(4) 0.7930(13) 0.6587(8)
H75? H 0.5562 0.7786 0.6742
C50? C 0.5158(7) 0.8982(14) 0.6184(11)
H76? H 0.5281 0.9735 0.6373
H77? H 0.5273 0.8806 0.5907
H78? H 0.4858 0.9081 0.6012
C51? C 0.5100(5) 0.8216(16) 0.7043(7)
H79? H 0.5256 0.8904 0.7257
H80? H 0.4805 0.8426 0.6887
H81? H 0.5138 0.7500 0.7277
C52? C 0.5830(9) 0.3741(13) 0.7807(7)
H82? H 0.6107 0.3483 0.7813
C53? C 0.5849(7) 0.3999(13) 0.8390(5)
H83? H 0.6017 0.4738 0.8533
H84? H 0.5566 0.4152 0.8381
C54? C 0.6040(9) 0.2913(17) 0.8761(6)
H85? H 0.6311 0.3194 0.9022
H86? H 0.5863 0.2764 0.8972
C55? C 0.6117(8) 0.165(2) 0.8552(8)
H87? H 0.6019 0.0999 0.8733
H88? H 0.6419 0.1533 0.8647
C56? C 0.5894(6) 0.1527(15) 0.7935(7)
H89? H 0.5762 0.0719 0.7833
H90? H 0.6084 0.1674 0.7742
C57? C 0.5560(6) 0.2585(19) 0.7827(9)
H91? H 0.5324 0.2465 0.7480
H92? H 0.5454 0.2648 0.8124
loop_
_geom_bond_atom_site_label_1
_geom_bond_atom_site_label_2
_geom_bond_site_symmetry_1
_geom_bond_site_symmetry_2
S1 C1 1_555 1_555
S2 C2 1_555 1_555
S3 C3 1_555 1_555
N1 C1 1_555 1_555
N2 C1 1_555 1_555
C2 N1 1_555 1_555
C3 N2 1_555 1_555
C4 N2 1_555 1_555
C5 C4 1_555 1_555
C6 C5 1_555 1_555
H1 C6 1_555 1_555
C7 C6 1_555 1_555
H2 C7 1_555 1_555
C8 C7 1_555 1_555
H3 C8 1_555 1_555
C9 C4 1_555 1_555
C10 C9 1_555 1_555
H4 C10 1_555 1_555
C11 C10 1_555 1_555
H5 C11 1_555 1_555
H6 C11 1_555 1_555
H7 C11 1_555 1_555
C12 C10 1_555 1_555
H8 C12 1_555 1_555
H9 C12 1_555 1_555
H10 C12 1_555 1_555
C13 C5 1_555 1_555
H11 C13 1_555 1_555
C14 C13 1_555 1_555
H12 C14 1_555 1_555
H13 C14 1_555 1_555
H14 C14 1_555 1_555
C15 C13 1_555 1_555
H15 C15 1_555 1_555
H16 C15 1_555 1_555
H17 C15 1_555 1_555
C16 N1 1_555 1_555
C17 C16 1_555 1_555
C18 C17 1_555 1_555
H18 C18 1_555 1_555
C19 C18 1_555 1_555
H19 C19 1_555 1_555
C20 C19 1_555 1_555
H20 C20 1_555 1_555
C21 C16 1_555 1_555
C22 C21 1_555 1_555
H21 C22 1_555 1_555
C23 C22 1_555 1_555
H22 C23 1_555 1_555
H23 C23 1_555 1_555
H24 C23 1_555 1_555
C24 C22 1_555 1_555
H25 C24 1_555 1_555
H26 C24 1_555 1_555
H27 C24 1_555 1_555
C25 C17 1_555 1_555
H28 C25 1_555 1_555
C26 C25 1_555 1_555
H29 C26 1_555 1_555
H30 C26 1_555 1_555
H31 C26 1_555 1_555
C27 C25 1_555 1_555
H32 C27 1_555 1_555
H33 C27 1_555 1_555
H34 C27 1_555 1_555
B1 S2 1_555 1_555
C28 H35 1_555 1_555
H36 C28 1_555 1_555
C29 C28 1_555 1_555
H37 C29 1_555 1_555
H38 C29 1_555 1_555
C30 C29 1_555 1_555
H39 C30 1_555 1_555
H40 C30 1_555 1_555
C31 C30 1_555 1_555
H41 C31 1_555 1_555
H42 C31 1_555 1_555
C32 C31 1_555 1_555
H43 C32 1_555 1_555
H44 C32 1_555 1_555
C33 B1 1_555 1_555
H45 C33 1_555 1_555
C34 B1 1_555 1_555
H46 C34 1_555 1_555
C35 C34 1_555 1_555
H47 C35 1_555 1_555
H48 C35 1_555 1_555
C36 C35 1_555 1_555
H49 C36 1_555 1_555
H50 C36 1_555 1_555
C37 C36 1_555 1_555
H51 C37 1_555 1_555
H52 C37 1_555 1_555
C38 C37 1_555 1_555
H53 C38 1_555 1_555
H54 C38 1_555 1_555
C39 C34 1_555 1_555
H55 C39 1_555 1_555
H56 C39 1_555 1_555
C40 S1 1_555 1_555
H57 C40 1_555 1_555
C41 C40 1_555 1_555
H58 C41 1_555 1_555
H59 C41 1_555 1_555
C42 C41 1_555 1_555
H60 C42 1_555 1_555
H61 C42 1_555 1_555
C43 C42 1_555 1_555
H62 C43 1_555 1_555
H63 C43 1_555 1_555
C44 C43 1_555 1_555
H64 C44 1_555 1_555
H65 C44 1_555 1_555
C45 C40 1_555 1_555
H66 C45 1_555 1_555
H67 C45 1_555 1_555
S3 B1 1_555 1_555
C2 C3 1_555 1_555
C8 C9 1_555 1_555
C20 C21 1_555 1_555
C28 C33 1_555 1_555
C32 C33 1_555 1_555
C38 C39 1_555 1_555
C44 C45 1_555 1_555

#END
