
#######################################################################
#
#                 Cambridge Crystallographic Data Centre
#                                CCDC 
#
#######################################################################
#
# If this CIF has been generated from an entry in the Cambridge 
# Structural Database, then it will include bibliographic, chemical, 
# crystal, experimental, refinement or atomic coordinate data resulting 
# from the CCDC's data processing and validation procedures.
#
#######################################################################

data_UGAQID
_chemical_compound_source        'root of Aconitum szechenyianum Gay'
_chemical_name_common            Songorine
_chemical_formula_moiety         'C22 H31 N1 O3'
_chemical_name_systematic        
11-Ethyl-7,16-dihydroxy-13-methyl-6-methylidene-11-azahexacyclo[7.7.2.1^5,8^.0^1,10^.0^2,8^.0^13,17^]nonadecan-4-one
_chemical_properties_biological  
'Songorine is found to enhance the orthodromic population spike and field excitatory postsynaptic potential (EPSP) in the CA1 region of hippocampal slices. Also shown to enhance the excitatory synaptic transmission in rat hippocampus and to be a non-competitive antagonist at the GABA!A$ receptor in rat brain'
_symmetry_cell_setting           orthorhombic
_symmetry_space_group_name_H-M   'P 21 21 21'
_symmetry_Int_Tables_number      19
_space_group_name_Hall           'P 2ac 2ab'
loop_
_symmetry_equiv_pos_site_id
_symmetry_equiv_pos_as_xyz
1 x,y,z
2 1/2-x,-y,1/2+z
3 -x,1/2+y,1/2-z
4 1/2+x,1/2-y,-z
_cell_length_a                   9.7733(7)
_cell_length_b                   13.4892(9)
_cell_length_c                   14.8097(10)
_cell_angle_alpha                90
_cell_angle_beta                 90
_cell_angle_gamma                90
_cell_volume                     1952.42
_exptl_crystal_colour            colorless
_exptl_crystal_description       prism
_chemical_melting_point          '202-204 deg.C'
_cell_formula_units_Z            4
_exptl_crystal_recrystallization_method acetone/water
loop_
_atom_site_label
_atom_site_type_symbol
_atom_site_fract_x
_atom_site_fract_y
_atom_site_fract_z
N1 N 0.3257(1) 0.8331(1) 0.59973(8)
O1 O 0.2642(1) 0.71747(8) 0.80647(8)
H1 H 0.2400 0.6968 0.8560
O2 O 0.6477(2) 0.7898(1) 1.01785(9)
O3 O 0.6244(2) 1.08808(9) 0.8347(1)
H2 H 0.6461 1.1331 0.8004
C1 C 0.2221(2) 0.8199(1) 0.7966(1)
H3 H 0.1958 0.8451 0.8562
C2 C 0.0969(2) 0.8209(1) 0.7367(1)
H4 H 0.0199 0.7936 0.7697
H5 H 0.1132 0.7792 0.6845
C3 C 0.0618(2) 0.9253(2) 0.7053(1)
H6 H -0.0144 0.9222 0.6635
H7 H 0.0335 0.9646 0.7569
C4 C 0.1825(2) 0.9757(1) 0.6594(1)
C5 C 0.3007(2) 0.9857(1) 0.7271(1)
H8 H 0.2749 1.0292 0.7773
C6 C 0.4341(2) 1.0229(1) 0.6810(1)
H9 H 0.4156 1.0475 0.6207
H10 H 0.4767 1.0752 0.7162
C7 C 0.5250(2) 0.9301(1) 0.6781(1)
H11 H 0.5898 0.9285 0.6276
C8 C 0.5902(2) 0.9160(1) 0.7709(1)
C9 C 0.4616(2) 0.8973(1) 0.8317(1)
H12 H 0.4428 0.9582 0.8656
C10 C 0.3426(2) 0.8815(1) 0.76228(9)
C11 C 0.4860(2) 0.8128(1) 0.9003(1)
H13 H 0.4200 0.8190 0.9489
H14 H 0.4697 0.7498 0.8706
C12 C 0.6263(2) 0.8119(1) 0.9397(1)
C13 C 0.7406(2) 0.8389(1) 0.8757(1)
H15 H 0.8245 0.8012 0.8873
C14 C 0.6901(2) 0.8281(1) 0.7783(1)
H16 H 0.6438 0.7653 0.7690
H17 H 0.7647 0.8341 0.7354
C15 C 0.6865(2) 0.9991(1) 0.8063(1)
H18 H 0.7527 1.0149 0.7587
C16 C 0.7619(2) 0.9493(2) 0.8828(1)
C17 C 0.8296(4) 0.9940(2) 0.9465(2)
H19 H 0.8699 0.9573 0.9925
H20 H 0.8379 1.0627 0.9459
C18 C 0.1349(3) 1.0781(2) 0.6265(2)
H21 H 0.1040 1.1166 0.6771
H22 H 0.0611 1.0702 0.5842
H23 H 0.2096 1.1116 0.5975
C19 C 0.2354(2) 0.9166(2) 0.5779(1)
H24 H 0.1573 0.8914 0.5446
H25 H 0.2844 0.9616 0.5384
C20 C 0.4176(2) 0.8456(1) 0.67710(9)
H26 H 0.4631 0.7824 0.6900
C21 C 0.3996(2) 0.7968(2) 0.5209(1)
H27 H 0.4594 0.7432 0.5395
H28 H 0.4566 0.8498 0.4976
C22 C 0.3083(3) 0.7602(2) 0.4462(2)
H29 H 0.2545 0.8142 0.4234
H30 H 0.2488 0.7094 0.4691
H31 H 0.3634 0.7334 0.3983
loop_
_geom_bond_atom_site_label_1
_geom_bond_atom_site_label_2
_geom_bond_site_symmetry_1
_geom_bond_site_symmetry_2
N1 C19 1_555 1_555
O1 H1 1_555 1_555
O2 C12 1_555 1_555
O3 H2 1_555 1_555
C1 O1 1_555 1_555
H3 C1 1_555 1_555
C2 C1 1_555 1_555
H4 C2 1_555 1_555
H5 C2 1_555 1_555
C3 C2 1_555 1_555
H6 C3 1_555 1_555
H7 C3 1_555 1_555
C4 C3 1_555 1_555
C5 C4 1_555 1_555
H8 C5 1_555 1_555
C6 C5 1_555 1_555
H9 C6 1_555 1_555
H10 C6 1_555 1_555
C7 C6 1_555 1_555
H11 C7 1_555 1_555
C8 C7 1_555 1_555
C9 C8 1_555 1_555
H12 C9 1_555 1_555
C10 C1 1_555 1_555
C11 C9 1_555 1_555
H13 C11 1_555 1_555
H14 C11 1_555 1_555
C12 C11 1_555 1_555
C13 C12 1_555 1_555
H15 C13 1_555 1_555
C14 C8 1_555 1_555
H16 C14 1_555 1_555
H17 C14 1_555 1_555
C15 O3 1_555 1_555
H18 C15 1_555 1_555
C16 C13 1_555 1_555
C17 C16 1_555 1_555
H19 C17 1_555 1_555
H20 C17 1_555 1_555
C18 C4 1_555 1_555
H21 C18 1_555 1_555
H22 C18 1_555 1_555
H23 C18 1_555 1_555
C19 C4 1_555 1_555
H24 C19 1_555 1_555
H25 C19 1_555 1_555
C20 N1 1_555 1_555
H26 C20 1_555 1_555
C21 N1 1_555 1_555
H27 C21 1_555 1_555
H28 C21 1_555 1_555
C22 C21 1_555 1_555
H29 C22 1_555 1_555
H30 C22 1_555 1_555
H31 C22 1_555 1_555
C5 C10 1_555 1_555
C7 C20 1_555 1_555
C8 C15 1_555 1_555
C9 C10 1_555 1_555
C10 C20 1_555 1_555
C13 C14 1_555 1_555
C15 C16 1_555 1_555

#END
