
#######################################################################
#
#                 Cambridge Crystallographic Data Centre
#                                CCDC 
#
#######################################################################
#
# If this CIF has been generated from an entry in the Cambridge 
# Structural Database, then it will include bibliographic, chemical, 
# crystal, experimental, refinement or atomic coordinate data resulting 
# from the CCDC's data processing and validation procedures.
#
#######################################################################

data_UGAVIK
_chemical_formula_moiety         'C4 H4 Cl1 N7 O7'
_chemical_name_systematic        
6-[chloro(dinitro)methyl]-3-nitro-1-nitroso-1,2,3,4-tetrahydro-1,3,5-triazine
_symmetry_cell_setting           monoclinic
_symmetry_space_group_name_H-M   'P 21/c'
_symmetry_Int_Tables_number      14
_space_group_name_Hall           '-P 2ybc'
loop_
_symmetry_equiv_pos_site_id
_symmetry_equiv_pos_as_xyz
1 x,y,z
2 -x,1/2+y,1/2-z
3 -x,-y,-z
4 x,1/2-y,1/2+z
_cell_length_a                   8.1381(17)
_cell_length_b                   11.242(2)
_cell_length_c                   11.677(2)
_cell_angle_alpha                90
_cell_angle_beta                 106.132(5)
_cell_angle_gamma                90
_cell_volume                     1026.25
_exptl_crystal_colour            colorless
_exptl_crystal_description       block
_cell_formula_units_Z            4
loop_
_atom_site_label
_atom_site_type_symbol
_atom_site_fract_x
_atom_site_fract_y
_atom_site_fract_z
Cl1 Cl 0.01931(8) 0.49336(6) 0.66309(6)
O1 O 0.1930(2) 0.18195(15) 0.69171(17)
O2 O 0.0610(2) 0.26545(17) 0.89188(16)
O3 O 0.6156(3) 0.17877(18) 0.70289(19)
N1 N 0.3991(2) 0.39952(18) 0.67680(17)
O4 O -0.0698(2) 0.24502(19) 0.62639(18)
O5 O 0.3655(3) 0.39366(19) 0.48682(17)
N2 N 0.4137(2) 0.39080(17) 0.88185(17)
O6 O 0.0801(3) 0.45668(19) 0.91354(18)
O7 O 0.6668(3) 0.16585(18) 0.8943(2)
N3 N 0.0873(2) 0.36478(19) 0.86166(18)
N4 N 0.0802(2) 0.25633(18) 0.67930(18)
N5 N 0.6642(2) 0.34749(17) 0.81257(18)
N6 N 0.6445(2) 0.22131(19) 0.8021(2)
N7 N 0.2932(3) 0.38559(19) 0.56437(18)
C1 C 0.3297(3) 0.38996(19) 0.7729(2)
C2 C 0.1355(3) 0.3762(2) 0.7424(2)
C3 C 0.5861(3) 0.4086(2) 0.7009(2)
H1 H 0.6231 0.3714 0.6353
H2 H 0.6213 0.4932 0.7069
C4 C 0.6010(3) 0.3947(2) 0.9095(2)
H3 H 0.6398 0.4781 0.9255
H4 H 0.6511 0.3480 0.9828
loop_
_geom_bond_atom_site_label_1
_geom_bond_atom_site_label_2
_geom_bond_site_symmetry_1
_geom_bond_site_symmetry_2
Cl1 C2 1_555 1_555
O1 N4 1_555 1_555
O2 N3 1_555 1_555
O3 N6 1_555 1_555
N1 N7 1_555 1_555
O4 N4 1_555 1_555
O5 N7 1_555 1_555
N2 C1 1_555 1_555
O6 N3 1_555 1_555
O7 N6 1_555 1_555
N3 C2 1_555 1_555
N4 C2 1_555 1_555
N5 N6 1_555 1_555
C1 N1 1_555 1_555
C2 C1 1_555 1_555
C3 N1 1_555 1_555
H1 C3 1_555 1_555
H2 C3 1_555 1_555
C4 N2 1_555 1_555
H3 C4 1_555 1_555
H4 C4 1_555 1_555
N5 C3 1_555 1_555
N5 C4 1_555 1_555

#END
