
#######################################################################
#
#                 Cambridge Crystallographic Data Centre
#                                CCDC 
#
#######################################################################
#
# If this CIF has been generated from an entry in the Cambridge 
# Structural Database, then it will include bibliographic, chemical, 
# crystal, experimental, refinement or atomic coordinate data resulting 
# from the CCDC's data processing and validation procedures.
#
#######################################################################

data_UGIFEW
_chemical_name_common            'Vannusal B'
_chemical_formula_moiety         'C32 H46 O7'
_chemical_name_systematic        
"2-(9'-Formyl-2,2',12'-trihydroxy-3-(2-hydroxypropan-2-yl)spiro[cyclopentane-1,11'-tetracyclo[8.2.2.0^1,9^.0^3,7^]tetradecane]-7'-en-6'-yl)-5-(prop-1-en-2-yl)cyclopentyl acetate"
_symmetry_cell_setting           orthorhombic
_symmetry_space_group_name_H-M   'P 21 21 21'
_symmetry_Int_Tables_number      19
_space_group_name_Hall           'P 2ac 2ab'
loop_
_symmetry_equiv_pos_site_id
_symmetry_equiv_pos_as_xyz
1 x,y,z
2 1/2-x,-y,1/2+z
3 -x,1/2+y,1/2-z
4 1/2+x,1/2-y,-z
_cell_length_a                   8.0392(16)
_cell_length_b                   12.061(2)
_cell_length_c                   31.538(6)
_cell_angle_alpha                90
_cell_angle_beta                 90
_cell_angle_gamma                90
_cell_volume                     3057.95
_exptl_crystal_colour            colorless
_exptl_crystal_description       parallelepiped
_chemical_melting_point          'above 200deg.C (dec)'
_cell_formula_units_Z            4
_exptl_crystal_recrystallization_method 'ethyl acetate/thf'
loop_
_atom_site_label
_atom_site_type_symbol
_atom_site_fract_x
_atom_site_fract_y
_atom_site_fract_z
O1 O 0.3429(3) 0.9350(2) 0.51641(7)
O2 O 0.2145(6) 0.7940(3) 0.48501(12)
O3 O 0.5289(3) 0.63751(19) 0.72645(7)
H1 H 0.4723 0.6885 0.7358
O4 O 0.9259(3) 0.67348(15) 0.76425(7)
H2 H 0.8890 0.6142 0.7557
O5 O 1.1641(2) 0.96926(15) 0.76450(7)
H3 H 1.2599 0.9518 0.7586
O6 O 0.4517(3) 0.86671(19) 0.73831(7)
O7 O 1.0710(5) 0.6770(2) 0.84492(9)
H4 H 1.0229 0.6773 0.8220
C1 C 0.0854(8) 1.1506(6) 0.49104(17)
H5 H 0.0174 1.1673 0.4681
H6 H 0.1848 1.1887 0.4949
C2 C 0.0412(5) 1.0735(4) 0.51793(14)
C3 C 0.1444(5) 1.0431(3) 0.55600(12)
H7 H 0.0677 1.0379 0.5801
C4 C 0.2839(6) 1.1208(4) 0.56951(15)
H8 H 0.2401 1.1816 0.5863
H9 H 0.3401 1.1511 0.5449
C5 C 0.4038(5) 1.0506(3) 0.59589(13)
H10 H 0.4027 1.0745 0.6253
H11 H 0.5163 1.0574 0.5851
C6 C 0.3430(4) 0.9306(3) 0.59219(10)
H12 H 0.2693 0.9176 0.6164
C7 C 0.4753(4) 0.8390(3) 0.59340(10)
H13 H 0.5589 0.8537 0.5715
C8 C 0.4013(6) 0.7224(3) 0.58641(12)
H14 H 0.2825 0.7226 0.5918
H15 H 0.4205 0.6977 0.5576
C9 C 0.4914(5) 0.6469(3) 0.61800(11)
H16 H 0.4240 0.5829 0.6252
H17 H 0.5971 0.6218 0.6067
C10 C 0.5164(4) 0.7225(2) 0.65646(10)
H18 H 0.4059 0.7327 0.6690
C11 C 0.5605(4) 0.8316(2) 0.63619(9)
C12 C 0.6579(4) 0.9063(2) 0.65524(9)
H19 H 0.6919 0.9702 0.6412
C13 C 0.7110(3) 0.8835(2) 0.70038(8)
C14 C 0.7599(3) 0.7610(2) 0.70607(9)
C15 C 0.9196(4) 0.7570(3) 0.67914(10)
H20 H 0.9950 0.7004 0.6896
H21 H 0.8938 0.7417 0.6497
C16 C 0.9962(4) 0.8732(3) 0.68410(10)
H22 H 1.1086 0.8689 0.6951
H23 H 0.9978 0.9124 0.6573
C17 C 0.8795(3) 0.9297(3) 0.71579(8)
H24 H 0.8863 1.0108 0.7156
C18 C 0.8949(3) 0.8777(2) 0.76015(8)
C19 C 0.8051(4) 0.9407(2) 0.79608(10)
H25 H 0.8312 1.0192 0.7952
H26 H 0.6855 0.9313 0.7941
C20 C 0.8719(4) 0.8880(3) 0.83598(10)
H27 H 0.8199 0.8167 0.8411
H28 H 0.8531 0.9354 0.8604
C21 C 1.0593(4) 0.8746(3) 0.82711(10)
H29 H 1.1113 0.9440 0.8363
C22 C 1.1480(5) 0.7819(3) 0.85169(11)
C23 C 1.1358(6) 0.8011(3) 0.89896(12)
H30 H 1.1918 0.7422 0.9137
H31 H 1.0209 0.8025 0.9072
H32 H 1.1869 0.8706 0.9060
C24 C 1.3307(7) 0.7770(5) 0.83957(16)
H33 H 1.3760 0.8506 0.8393
H34 H 1.3416 0.7446 0.8119
H35 H 1.3899 0.7327 0.8599
C25 C 1.0742(4) 0.8730(2) 0.77819(8)
H36 H 1.1306 0.8053 0.7687
C26 C 0.8136(4) 0.7606(2) 0.75337(8)
H37 H 0.7142 0.7548 0.7712
C27 C 0.5602(4) 0.9239(2) 0.72343(9)
H38 H 0.5490 1.0002 0.7266
C28 C 0.6280(4) 0.6768(2) 0.69228(10)
H39 H 0.6873 0.6126 0.6807
C29 C 0.2326(4) 0.9324(3) 0.55299(10)
H40 H 0.1550 0.8698 0.5521
C30 C -0.1167(7) 1.0112(4) 0.5127(2)
H41 H -0.1725 1.0362 0.4875
H42 H -0.1867 1.0237 0.5369
H43 H -0.0929 0.9335 0.5103
C31 C 0.3227(7) 0.8620(4) 0.48517(13)
C32 C 0.4489(8) 0.8779(6) 0.45153(14)
H44 H 0.4447 0.9531 0.4415
H45 H 0.4265 0.8282 0.4285
H46 H 0.5575 0.8628 0.4628
loop_
_geom_bond_atom_site_label_1
_geom_bond_atom_site_label_2
_geom_bond_site_symmetry_1
_geom_bond_site_symmetry_2
O1 C29 1_555 1_555
O2 C31 1_555 1_555
O3 H1 1_555 1_555
O4 H2 1_555 1_555
O5 H3 1_555 1_555
O6 C27 1_555 1_555
O7 H4 1_555 1_555
C1 H5 1_555 1_555
H6 C1 1_555 1_555
C2 C1 1_555 1_555
C3 C2 1_555 1_555
H7 C3 1_555 1_555
C4 C3 1_555 1_555
H8 C4 1_555 1_555
H9 C4 1_555 1_555
C5 C4 1_555 1_555
H10 C5 1_555 1_555
H11 C5 1_555 1_555
C6 C5 1_555 1_555
H12 C6 1_555 1_555
C7 C6 1_555 1_555
H13 C7 1_555 1_555
C8 C7 1_555 1_555
H14 C8 1_555 1_555
H15 C8 1_555 1_555
C9 C8 1_555 1_555
H16 C9 1_555 1_555
H17 C9 1_555 1_555
C10 C9 1_555 1_555
H18 C10 1_555 1_555
C11 C7 1_555 1_555
C12 C11 1_555 1_555
H19 C12 1_555 1_555
C13 C12 1_555 1_555
C14 C13 1_555 1_555
C15 C14 1_555 1_555
H20 C15 1_555 1_555
H21 C15 1_555 1_555
C16 C15 1_555 1_555
H22 C16 1_555 1_555
H23 C16 1_555 1_555
C17 C13 1_555 1_555
H24 C17 1_555 1_555
C18 C17 1_555 1_555
C19 C18 1_555 1_555
H25 C19 1_555 1_555
H26 C19 1_555 1_555
C20 C19 1_555 1_555
H27 C20 1_555 1_555
H28 C20 1_555 1_555
C21 C20 1_555 1_555
H29 C21 1_555 1_555
C22 O7 1_555 1_555
C23 C22 1_555 1_555
H30 C23 1_555 1_555
H31 C23 1_555 1_555
H32 C23 1_555 1_555
C24 C22 1_555 1_555
H33 C24 1_555 1_555
H34 C24 1_555 1_555
H35 C24 1_555 1_555
C25 O5 1_555 1_555
H36 C25 1_555 1_555
C26 O4 1_555 1_555
H37 C26 1_555 1_555
C27 C13 1_555 1_555
H38 C27 1_555 1_555
C28 O3 1_555 1_555
H39 C28 1_555 1_555
C29 C3 1_555 1_555
H40 C29 1_555 1_555
C30 C2 1_555 1_555
H41 C30 1_555 1_555
H42 C30 1_555 1_555
H43 C30 1_555 1_555
C31 O1 1_555 1_555
C32 C31 1_555 1_555
H44 C32 1_555 1_555
H45 C32 1_555 1_555
H46 C32 1_555 1_555
C6 C29 1_555 1_555
C10 C11 1_555 1_555
C10 C28 1_555 1_555
C14 C26 1_555 1_555
C14 C28 1_555 1_555
C16 C17 1_555 1_555
C18 C25 1_555 1_555
C18 C26 1_555 1_555
C21 C22 1_555 1_555
C21 C25 1_555 1_555

#END
