
#######################################################################
#
#                 Cambridge Crystallographic Data Centre
#                                CCDC 
#
#######################################################################
#
# If this CIF has been generated from an entry in the Cambridge 
# Structural Database, then it will include bibliographic, chemical, 
# crystal, experimental, refinement or atomic coordinate data resulting 
# from the CCDC's data processing and validation procedures.
#
#######################################################################

data_UGIQAE
_chemical_formula_moiety         'C20 H16 Br1 N4'
_chemical_name_systematic        
'6-(4-bromophenyl)-2,4-diphenyl-3,4-dihydro-1,2,4,5-tetrazin-1(2H)-yl radical'
_symmetry_cell_setting           orthorhombic
_symmetry_space_group_name_H-M   'P b c a'
_symmetry_Int_Tables_number      61
_space_group_name_Hall           '-P 2ac 2ab'
loop_
_symmetry_equiv_pos_site_id
_symmetry_equiv_pos_as_xyz
1 x,y,z
2 1/2-x,-y,1/2+z
3 1/2+x,1/2-y,-z
4 -x,1/2+y,1/2-z
5 -x,-y,-z
6 1/2+x,y,1/2-z
7 1/2-x,1/2+y,z
8 x,1/2-y,1/2+z
_cell_length_a                   7.213(5)
_cell_length_b                   21.471(16)
_cell_length_c                   22.174(16)
_cell_angle_alpha                90
_cell_angle_beta                 90
_cell_angle_gamma                90
_cell_volume                     3434.09
_exptl_crystal_colour            green
_exptl_crystal_description       plate
_cell_formula_units_Z            8
loop_
_atom_site_label
_atom_site_type_symbol
_atom_site_fract_x
_atom_site_fract_y
_atom_site_fract_z
C1 C 0.13673(17) 0.17768(6) 0.72621(5)
C2 C 0.1064(2) 0.20555(7) 0.67049(5)
H1 H 0.0780 0.2477 0.6683
C3 C 0.1187(2) 0.17035(8) 0.61802(5)
H2 H 0.0984 0.1890 0.5807
C4 C 0.1611(3) 0.10730(8) 0.62128(6)
C5 C 0.1914(2) 0.07944(7) 0.67700(6)
H3 H 0.2199 0.0372 0.6792
C6 C 0.1792(2) 0.11463(6) 0.72946(6)
H4 H 0.1995 0.0960 0.7667
C7 C 0.1811(2) 0.13982(6) 0.94834(5)
H5 H 0.2480 0.1229 0.9165
C8 C 0.07736(18) 0.19364(6) 0.93967(5)
C9 C -0.0227(2) 0.21900(7) 0.98730(5)
H6 H -0.0921 0.2550 0.9815
C10 C -0.0189(3) 0.19054(8) 1.04359(5)
H7 H -0.0859 0.2075 1.0755
C11 C 0.0848(3) 0.13672(8) 1.05226(5)
H8 H 0.0873 0.1177 1.0899
C12 C 0.1848(3) 0.11136(7) 1.00463(6)
H9 H 0.2542 0.0754 1.0104
C13 C 0.21065(19) 0.37109(5) 0.82980(5)
C14 C 0.3590(2) 0.38696(6) 0.79284(6)
H10 H 0.4048 0.3583 0.7652
C15 C 0.4387(2) 0.44572(6) 0.79721(7)
H11 H 0.5380 0.4563 0.7725
C16 C 0.3702(3) 0.48860(6) 0.83854(8)
H12 H 0.4236 0.5279 0.8415
C17 C 0.2219(3) 0.47273(5) 0.87550(7)
H13 H 0.1760 0.5014 0.9032
C18 C 0.1421(2) 0.41398(5) 0.87113(6)
H14 H 0.0429 0.4034 0.8959
Br1 Br 0.18846(8) 0.06119(3) 0.54970(2)
N1 N 0.1657(4) 0.27693(16) 0.77591(14)
N2 N 0.1394(4) 0.31010(16) 0.82724(15)
C19 C 0.1287(5) 0.21575(19) 0.78224(17)
N3 N 0.0749(5) 0.22156(16) 0.88252(14)
N4 N 0.1021(4) 0.18465(15) 0.83351(14)
C20 C 0.0132(6) 0.28464(19) 0.87185(18)
H15 H 0.0180 0.3088 0.9088
H16 H -0.1131 0.2849 0.8568
loop_
_geom_bond_atom_site_label_1
_geom_bond_atom_site_label_2
_geom_bond_site_symmetry_1
_geom_bond_site_symmetry_2
C1 C2 1_555 1_555
C2 H1 1_555 1_555
C3 C2 1_555 1_555
H2 C3 1_555 1_555
C4 C3 1_555 1_555
C5 C4 1_555 1_555
H3 C5 1_555 1_555
C6 C1 1_555 1_555
H4 C6 1_555 1_555
C7 H5 1_555 1_555
C8 C7 1_555 1_555
C9 C8 1_555 1_555
H6 C9 1_555 1_555
C10 C9 1_555 1_555
H7 C10 1_555 1_555
C11 C10 1_555 1_555
H8 C11 1_555 1_555
C12 C7 1_555 1_555
H9 C12 1_555 1_555
C13 C14 1_555 1_555
C14 H10 1_555 1_555
C15 C14 1_555 1_555
H11 C15 1_555 1_555
C16 C15 1_555 1_555
H12 C16 1_555 1_555
C17 C16 1_555 1_555
H13 C17 1_555 1_555
C18 C13 1_555 1_555
H14 C18 1_555 1_555
Br1 C4 1_555 1_555
N1 N2 1_555 1_555
N2 C13 1_555 1_555
C19 C1 1_555 1_555
N3 C8 1_555 1_555
N4 C19 1_555 1_555
C20 N2 1_555 1_555
H15 C20 1_555 1_555
H16 C20 1_555 1_555
C5 C6 1_555 1_555
C11 C12 1_555 1_555
C17 C18 1_555 1_555
N1 C19 1_555 1_555
N3 N4 1_555 1_555
N3 C20 1_555 1_555

#END
