
#######################################################################
#
#                 Cambridge Crystallographic Data Centre
#                                CCDC 
#
#######################################################################
#
# If this CIF has been generated from an entry in the Cambridge 
# Structural Database, then it will include bibliographic, chemical, 
# crystal, experimental, refinement or atomic coordinate data resulting 
# from the CCDC's data processing and validation procedures.
#
#######################################################################

data_UGISUA
_chemical_formula_moiety         'C23 H23 Br1 N2 O4'
_chemical_name_systematic        
'ethyl 8-(4-bromobenzoyl)-5-hydroxy-5-phenyl-1,2,3,5,6,7-hexahydroimidazo[1,2-a]pyridine-7-carboxylate'
_symmetry_cell_setting           monoclinic
_symmetry_space_group_name_H-M   'P 21/n'
_symmetry_Int_Tables_number      14
_space_group_name_Hall           '-P 2yn'
loop_
_symmetry_equiv_pos_site_id
_symmetry_equiv_pos_as_xyz
1 x,y,z
2 1/2-x,1/2+y,1/2-z
3 -x,-y,-z
4 1/2+x,1/2-y,1/2+z
_cell_length_a                   7.5265(12)
_cell_length_b                   20.326(3)
_cell_length_c                   13.302(2)
_cell_angle_alpha                90
_cell_angle_beta                 91.255(2)
_cell_angle_gamma                90
_cell_volume                     2034.5
_exptl_crystal_colour            yellow
_exptl_crystal_description       prism
_cell_formula_units_Z            4
loop_
_atom_site_label
_atom_site_type_symbol
_atom_site_fract_x
_atom_site_fract_y
_atom_site_fract_z
Br1 Br -0.40530(6) 0.37616(2) 0.69540(4)
O1 O 0.3480(4) 0.49844(16) 0.9171(2)
O2 O 0.2748(4) 0.79376(16) 0.8600(2)
H1 H 0.2926 0.7736 0.8061
O3 O 0.1410(5) 0.60684(17) 0.6798(2)
O4 O 0.1903(5) 0.71460(16) 0.7013(2)
N1 N 0.3668(5) 0.70151(19) 0.9552(3)
N2 N 0.5133(5) 0.60892(19) 0.9765(3)
H2 H 0.5479 0.5684 0.9645
C1 C -0.2141(6) 0.4240(2) 0.7561(3)
C2 C -0.2517(6) 0.4710(2) 0.8279(3)
H3 H -0.3704 0.4785 0.8480
C3 C -0.1109(6) 0.5072(2) 0.8702(3)
H4 H -0.1345 0.5396 0.9196
C4 C 0.0636(5) 0.4965(2) 0.8410(3)
C5 C 0.2197(5) 0.5328(2) 0.8858(3)
C6 C 0.2188(5) 0.6029(2) 0.8924(3)
C7 C 0.3615(5) 0.6356(2) 0.9399(3)
C8 C 0.2230(6) 0.7484(2) 0.9347(3)
C9 C 0.1923(6) 0.7875(2) 1.0315(3)
C10 C 0.1528(7) 0.7537(3) 1.1194(4)
H5 H 0.1429 0.7071 1.1182
C11 C 0.1279(7) 0.7874(3) 1.2086(4)
H6 H 0.0988 0.7639 1.2677
C12 C 0.1452(7) 0.8552(3) 1.2118(4)
H7 H 0.1283 0.8781 1.2731
C13 C 0.0975(6) 0.4469(2) 0.7706(3)
H8 H 0.2164 0.4379 0.7524
C14 C -0.0410(6) 0.4108(2) 0.7273(3)
H9 H -0.0180 0.3777 0.6788
C15 C 0.5400(6) 0.7217(2) 0.9981(4)
H10 H 0.5263 0.7542 1.0528
H11 H 0.6175 0.7403 0.9461
C16 C 0.6129(6) 0.6560(2) 1.0385(3)
H12 H 0.7424 0.6521 1.0283
H13 H 0.5880 0.6503 1.1107
C17 C 0.1871(7) 0.8895(3) 1.1257(4)
H14 H 0.2004 0.9359 1.1279
C18 C 0.2099(6) 0.8555(2) 1.0346(4)
H15 H 0.2374 0.8790 0.9752
C19 C 0.0544(6) 0.7096(2) 0.9033(3)
H16 H -0.0081 0.6967 0.9650
H17 H -0.0255 0.7395 0.8647
C20 C 0.0842(5) 0.6478(2) 0.8402(3)
H18 H -0.0312 0.6235 0.8353
C21 C 0.1436(6) 0.6615(2) 0.7341(3)
C22 C 0.2062(7) 0.6100(2) 0.5777(4)
H19 H 0.3135 0.6380 0.5750
H20 H 0.1142 0.6283 0.5314
C23 C 0.2500(9) 0.5399(3) 0.5491(5)
H21 H 0.3541 0.5249 0.5883
H22 H 0.2757 0.5378 0.4773
H23 H 0.1485 0.5114 0.5632
loop_
_geom_bond_atom_site_label_1
_geom_bond_atom_site_label_2
_geom_bond_site_symmetry_1
_geom_bond_site_symmetry_2
Br1 C1 1_555 1_555
O1 C5 1_555 1_555
O2 H1 1_555 1_555
O3 C21 1_555 1_555
O4 C21 1_555 1_555
N1 C7 1_555 1_555
N2 H2 1_555 1_555
C1 C2 1_555 1_555
C2 H3 1_555 1_555
C3 C2 1_555 1_555
H4 C3 1_555 1_555
C4 C3 1_555 1_555
C5 C4 1_555 1_555
C6 C5 1_555 1_555
C7 N2 1_555 1_555
C8 O2 1_555 1_555
C9 C8 1_555 1_555
C10 C9 1_555 1_555
H5 C10 1_555 1_555
C11 C10 1_555 1_555
H6 C11 1_555 1_555
C12 C11 1_555 1_555
H7 C12 1_555 1_555
C13 C4 1_555 1_555
H8 C13 1_555 1_555
C14 C1 1_555 1_555
H9 C14 1_555 1_555
C15 N1 1_555 1_555
H10 C15 1_555 1_555
H11 C15 1_555 1_555
C16 N2 1_555 1_555
H12 C16 1_555 1_555
H13 C16 1_555 1_555
C17 C12 1_555 1_555
H14 C17 1_555 1_555
C18 C9 1_555 1_555
H15 C18 1_555 1_555
C19 C8 1_555 1_555
H16 C19 1_555 1_555
H17 C19 1_555 1_555
C20 C6 1_555 1_555
H18 C20 1_555 1_555
C21 C20 1_555 1_555
C22 O3 1_555 1_555
H19 C22 1_555 1_555
H20 C22 1_555 1_555
C23 C22 1_555 1_555
H21 C23 1_555 1_555
H22 C23 1_555 1_555
H23 C23 1_555 1_555
N1 C8 1_555 1_555
C6 C7 1_555 1_555
C13 C14 1_555 1_555
C15 C16 1_555 1_555
C17 C18 1_555 1_555
C19 C20 1_555 1_555

#END
