
#######################################################################
#
#                 Cambridge Crystallographic Data Centre
#                                CCDC 
#
#######################################################################
#
# If this CIF has been generated from an entry in the Cambridge 
# Structural Database, then it will include bibliographic, chemical, 
# crystal, experimental, refinement or atomic coordinate data resulting 
# from the CCDC's data processing and validation procedures.
#
#######################################################################

data_UGIXOY
_chemical_formula_moiety         'C21 H22 O6'
_chemical_name_systematic        
'(Z)-(+-)-2-(3,5-Dimethoxyphenyl)-4-(4-methoxybenzylidene)-tetrahydrofuran-3-carboxylic acid'
_symmetry_cell_setting           triclinic
_symmetry_space_group_name_H-M   'P -1'
_symmetry_Int_Tables_number      2
_space_group_name_Hall           '-P 1'
loop_
_symmetry_equiv_pos_site_id
_symmetry_equiv_pos_as_xyz
1 x,y,z
2 -x,-y,-z
_cell_length_a                   8.768(5)
_cell_length_b                   9.974(6)
_cell_length_c                   11.576(6)
_cell_angle_alpha                100.586(7)
_cell_angle_beta                 93.277(7)
_cell_angle_gamma                111.067(6)
_cell_volume                     920.188
_exptl_crystal_colour            colorless
_exptl_crystal_description       sheet
_chemical_melting_point          167.3-168.2deg.C
_cell_formula_units_Z            2
_exptl_crystal_recrystallization_method ethanol/acetone
loop_
_atom_site_label
_atom_site_type_symbol
_atom_site_fract_x
_atom_site_fract_y
_atom_site_fract_z
O1 O 0.40982(18) 0.57555(14) 0.59804(11)
C1 C 0.3816(2) 0.62342(19) 0.71651(15)
H1 H 0.2888 0.6560 0.7140
C2 C 0.5406(2) 0.75535(19) 0.76828(15)
H2 H 0.6226 0.7191 0.7969
C3 C 0.5962(2) 0.8196(2) 0.66119(15)
C4 C 0.4883(3) 0.7058(2) 0.55534(16)
H3 H 0.4068 0.7384 0.5226
H4 H 0.5541 0.6878 0.4942
C5 C 0.3444(2) 0.5007(2) 0.78118(16)
C6 C 0.2114(2) 0.4683(2) 0.84368(17)
H5 H 0.1418 0.5200 0.8431
C7 C 0.1817(2) 0.3584(2) 0.90745(17)
C8 C 0.2826(2) 0.2807(2) 0.90840(17)
H6 H 0.2607 0.2054 0.9495
C9 C 0.4184(2) 0.3164(2) 0.84672(17)
C10 C 0.4493(2) 0.4242(2) 0.78309(16)
H7 H 0.5397 0.4461 0.7415
C11 C 0.0136(3) 0.2260(3) 1.0347(2)
H8 H -0.0096 0.1320 0.9830
H9 H -0.0804 0.2232 1.0743
H10 H 0.1072 0.2483 1.0925
C12 C 0.6716(3) 0.2852(3) 0.8206(3)
H11 H 0.6618 0.2736 0.7360
H12 H 0.7322 0.2291 0.8441
H13 H 0.7289 0.3874 0.8578
C13 C 0.5211(2) 0.86432(18) 0.86900(14)
C14 C 0.7197(2) 0.9463(2) 0.66648(16)
H14 H 0.7740 0.9940 0.7426
C15 C 0.7862(2) 1.0248(2) 0.57450(16)
C16 C 0.7124(3) 0.9855(2) 0.45612(17)
H15 H 0.6157 0.9026 0.4318
C17 C 0.7802(3) 1.0670(2) 0.37571(19)
H16 H 0.7297 1.0383 0.2975
C18 C 0.9235(2) 1.1919(2) 0.40973(17)
C19 C 0.9994(3) 1.2323(2) 0.52494(18)
H17 H 1.0965 1.3148 0.5488
C20 C 0.9297(3) 1.1490(2) 0.60415(18)
H18 H 0.9817 1.1777 0.6819
C21 C 1.1162(3) 1.4022(3) 0.3569(2)
H19 H 1.0908 1.4684 0.4168
H20 H 1.1408 1.4447 0.2889
H21 H 1.2099 1.3850 0.3876
O2 O 0.38266(16) 0.86511(15) 0.88514(12)
O3 O 0.65412(16) 0.95414(15) 0.93433(11)
H22 H 0.635(3) 1.037(3) 1.009(3)
O4 O 0.04808(18) 0.33494(19) 0.96792(16)
O5 O 0.51254(18) 0.23437(16) 0.85588(16)
O6 O 0.97955(19) 1.26755(18) 0.32355(14)
loop_
_geom_bond_atom_site_label_1
_geom_bond_atom_site_label_2
_geom_bond_site_symmetry_1
_geom_bond_site_symmetry_2
O1 C1 1_555 1_555
C1 H1 1_555 1_555
C2 C1 1_555 1_555
H2 C2 1_555 1_555
C3 C2 1_555 1_555
C4 O1 1_555 1_555
H3 C4 1_555 1_555
H4 C4 1_555 1_555
C5 C1 1_555 1_555
C6 C5 1_555 1_555
H5 C6 1_555 1_555
C7 C6 1_555 1_555
C8 C7 1_555 1_555
H6 C8 1_555 1_555
C9 C8 1_555 1_555
C10 C5 1_555 1_555
H7 C10 1_555 1_555
C11 H8 1_555 1_555
H9 C11 1_555 1_555
H10 C11 1_555 1_555
C12 H11 1_555 1_555
H12 C12 1_555 1_555
H13 C12 1_555 1_555
C13 C2 1_555 1_555
C14 C3 1_555 1_555
H14 C14 1_555 1_555
C15 C14 1_555 1_555
C16 C15 1_555 1_555
H15 C16 1_555 1_555
C17 C16 1_555 1_555
H16 C17 1_555 1_555
C18 C17 1_555 1_555
C19 C18 1_555 1_555
H17 C19 1_555 1_555
C20 C15 1_555 1_555
H18 C20 1_555 1_555
C21 H19 1_555 1_555
H20 C21 1_555 1_555
H21 C21 1_555 1_555
O2 C13 1_555 1_555
O3 C13 1_555 1_555
H22 O3 1_555 1_555
O4 C7 1_555 1_555
O5 C9 1_555 1_555
O6 C18 1_555 1_555
C3 C4 1_555 1_555
C9 C10 1_555 1_555
C11 O4 1_555 1_555
C12 O5 1_555 1_555
C19 C20 1_555 1_555
C21 O6 1_555 1_555

#END
