
#######################################################################
#
#                 Cambridge Crystallographic Data Centre
#                                CCDC 
#
#######################################################################
#
# If this CIF has been generated from an entry in the Cambridge 
# Structural Database, then it will include bibliographic, chemical, 
# crystal, experimental, refinement or atomic coordinate data resulting 
# from the CCDC's data processing and validation procedures.
#
#######################################################################

data_UGOXIY
_chemical_formula_moiety         'C28 H20 F12 N2 O4'
_chemical_name_systematic        
'Diethyl 2,5-bis((3,5-bis(trifluoromethyl)phenyl)amino)terephthalate'
_symmetry_cell_setting           triclinic
_symmetry_space_group_name_H-M   'P -1'
_symmetry_Int_Tables_number      2
_space_group_name_Hall           '-P 1'
loop_
_symmetry_equiv_pos_site_id
_symmetry_equiv_pos_as_xyz
1 x,y,z
2 -x,-y,-z
_cell_length_a                   8.1037(16)
_cell_length_b                   8.7303(17)
_cell_length_c                   10.723(2)
_cell_angle_alpha                71.70(3)
_cell_angle_beta                 86.18(3)
_cell_angle_gamma                82.37(3)
_cell_volume                     713.633
_exptl_crystal_colour            'blue green'
_exptl_crystal_description       block
_cell_formula_units_Z            1
_exptl_crystal_recrystallization_method chloroform
loop_
_atom_site_label
_atom_site_type_symbol
_atom_site_fract_x
_atom_site_fract_y
_atom_site_fract_z
C1 C -0.1176(5) 0.6821(4) 0.7943(4)
C2 C 0.0727(4) 1.2267(4) 0.6751(4)
C3 C 0.0041(3) 0.7968(3) 0.7232(3)
C4 C -0.0164(3) 0.9523(3) 0.7326(3)
H1 H -0.1015 0.9844 0.7850
C5 C 0.0918(3) 1.0581(3) 0.6630(3)
C6 C 0.2201(3) 1.0128(3) 0.5857(3)
H2 H 0.2929 1.0866 0.5406
C7 C 0.2402(3) 0.8558(3) 0.5758(2)
C8 C 0.1304(3) 0.7478(3) 0.6455(2)
H3 H 0.1417 0.6427 0.6400
C9 C 0.4309(3) 0.6583(3) 0.4961(2)
C10 C 0.4714(3) 0.6189(3) 0.3791(2)
C11 C 0.5379(3) 0.4611(3) 0.3859(2)
H4 H 0.5621 0.4355 0.3082
C12 C 0.4465(3) 0.7437(3) 0.2487(2)
C13 C 0.4217(7) 0.7929(5) 0.0204(3)
H5 H 0.3387 0.8827 0.0234
H6 H 0.5255 0.8364 -0.0134
C14 C 0.3686(9) 0.7114(7) -0.0646(4)
H7 H 0.4523 0.6243 -0.0690
H8 H 0.3521 0.7872 -0.1510
H9 H 0.2661 0.6684 -0.0307
N1 N 0.3675(3) 0.8167(2) 0.4929(2)
H10 H 0.4102 0.8956 0.4358
O1 O 0.4450(3) 0.6790(2) 0.15246(17)
O2 O 0.4289(3) 0.8880(2) 0.23147(18)
F1 F -0.0620(6) 0.5310(3) 0.8131(6)
F2 F -0.1601(5) 0.6947(4) 0.9121(3)
F3 F -0.2603(5) 0.7177(7) 0.7354(4)
F4 F 0.1518(5) 1.2367(4) 0.7720(4)
F5 F -0.0788(5) 1.2862(5) 0.6802(6)
F6 F 0.1406(4) 1.3351(3) 0.5689(4)
C1A C 1.1176(5) 0.3179(4) 0.2057(4)
C2A C 0.9273(4) -0.2267(4) 0.3249(4)
C3A C 0.9959(3) 0.2032(3) 0.2768(3)
C4A C 1.0164(3) 0.0477(3) 0.2674(3)
H1A H 1.1015 0.0156 0.2150
C5A C 0.9082(3) -0.0581(3) 0.3370(3)
C6A C 0.7799(3) -0.0128(3) 0.4143(3)
H2A H 0.7071 -0.0866 0.4594
C7A C 0.7598(3) 0.1442(3) 0.4242(2)
C8A C 0.8696(3) 0.2522(3) 0.3545(2)
H3A H 0.8583 0.3573 0.3600
C9A C 0.5691(3) 0.3417(3) 0.5039(2)
C10A C 0.5286(3) 0.3811(3) 0.6209(2)
C11A C 0.4621(3) 0.5389(3) 0.6141(2)
H4A H 0.4379 0.5645 0.6918
C12A C 0.5535(3) 0.2563(3) 0.7513(2)
C13A C 0.5783(7) 0.2071(5) 0.9796(3)
H5A H 0.6613 0.1173 0.9766
H6A H 0.4745 0.1636 1.0134
C14A C 0.6314(9) 0.2886(7) 1.0646(4)
H7A H 0.5477 0.3757 1.0690
H8A H 0.6479 0.2128 1.1510
H9A H 0.7339 0.3316 1.0307
N1A N 0.6325(3) 0.1833(2) 0.5071(2)
H10A H 0.5898 0.1044 0.5642
O1A O 0.5550(3) 0.3210(2) 0.84754(17)
O2A O 0.5711(3) 0.1120(2) 0.76853(18)
F1A F 1.0620(6) 0.4690(3) 0.1869(6)
F2A F 1.1601(5) 0.3053(4) 0.0879(3)
F3A F 1.2603(5) 0.2823(7) 0.2646(4)
F4A F 0.8482(5) -0.2367(4) 0.2280(4)
F5A F 1.0788(5) -0.2862(5) 0.3198(6)
F6A F 0.8594(4) -0.3351(3) 0.4311(4)
F7? F 0.186(2) 1.289(2) 0.6532(18)
F8? F -0.094(3) 1.303(3) 0.6570(17)
F9? F 0.022(3) 1.200(3) 0.820(2)
F10? F -0.161(3) 0.601(3) 0.701(2)
F11? F -0.051(4) 0.570(4) 0.875(3)
F12? F -0.252(3) 0.748(3) 0.809(3)
loop_
_geom_bond_atom_site_label_1
_geom_bond_atom_site_label_2
_geom_bond_site_symmetry_1
_geom_bond_site_symmetry_2
C1 C3 1_555 1_555
C2 C5 1_555 1_555
C3 C4 1_555 1_555
C4 H1 1_555 1_555
C5 C4 1_555 1_555
C6 C5 1_555 1_555
H2 C6 1_555 1_555
C7 C6 1_555 1_555
C8 C3 1_555 1_555
H3 C8 1_555 1_555
C9 C10 1_555 1_555
C10 C11 1_555 1_555
C11 H4 1_555 1_555
C12 C10 1_555 1_555
C13 H5 1_555 1_555
H6 C13 1_555 1_555
C14 C13 1_555 1_555
H7 C14 1_555 1_555
H8 C14 1_555 1_555
H9 C14 1_555 1_555
N1 C7 1_555 1_555
H10 N1 1_555 1_555
O1 C12 1_555 1_555
O2 C12 1_555 1_555
F1 C1 1_555 1_555
F2 C1 1_555 1_555
F3 C1 1_555 1_555
F4 C2 1_555 1_555
F5 C2 1_555 1_555
F6 C2 1_555 1_555
C1A C3A 1_555 1_555
C2A C5A 1_555 1_555
C3A C4A 1_555 1_555
C4A H1A 1_555 1_555
C5A C4A 1_555 1_555
C6A C5A 1_555 1_555
H2A C6A 1_555 1_555
C7A C6A 1_555 1_555
C8A C3A 1_555 1_555
H3A C8A 1_555 1_555
C9A C11 1_555 1_555
C10A C9A 1_555 1_555
C11A C9 1_555 1_555
H4A C11A 1_555 1_555
C12A C10A 1_555 1_555
C13A H5A 1_555 1_555
H6A C13A 1_555 1_555
C14A C13A 1_555 1_555
H7A C14A 1_555 1_555
H8A C14A 1_555 1_555
H9A C14A 1_555 1_555
N1A C7A 1_555 1_555
H10A N1A 1_555 1_555
O1A C12A 1_555 1_555
O2A C12A 1_555 1_555
F1A C1A 1_555 1_555
F2A C1A 1_555 1_555
F3A C1A 1_555 1_555
F4A C2A 1_555 1_555
F5A C2A 1_555 1_555
F6A C2A 1_555 1_555
C7 C8 1_555 1_555
C9 N1 1_555 1_555
C13 O1 1_555 1_555
C7A C8A 1_555 1_555
C9A N1A 1_555 1_555
C10A C11A 1_555 1_555
C13A O1A 1_555 1_555

#END
