
#######################################################################
#
#                 Cambridge Crystallographic Data Centre
#                                CCDC 
#
#######################################################################
#
# If this CIF has been generated from an entry in the Cambridge 
# Structural Database, then it will include bibliographic, chemical, 
# crystal, experimental, refinement or atomic coordinate data resulting 
# from the CCDC's data processing and validation procedures.
#
#######################################################################

data_UGOXAQ
_chemical_formula_moiety         'C20 H31 N1 O5'
_chemical_name_systematic        
'ent-1\b,7\a-dihydroxy-16-E-hydroxyiminobeyeran-19-oic acid'
_chemical_properties_biological  'biological activity'
_symmetry_cell_setting           monoclinic
_symmetry_space_group_name_H-M   'P 21'
_symmetry_Int_Tables_number      4
_space_group_name_Hall           'P 2yb'
loop_
_symmetry_equiv_pos_site_id
_symmetry_equiv_pos_as_xyz
1 x,y,z
2 -x,1/2+y,-z
_cell_length_a                   7.053
_cell_length_b                   18.44180(10)
_cell_length_c                   7.649
_cell_angle_alpha                90
_cell_angle_beta                 105.92
_cell_angle_gamma                90
_cell_volume                     956.747
_chemical_melting_point          '217-219 deg.C'
_cell_formula_units_Z            2
loop_
_atom_site_label
_atom_site_type_symbol
_atom_site_fract_x
_atom_site_fract_y
_atom_site_fract_z
O1 O 0.70440(17) 0.78926(8) 0.99084(14)
H1 H 0.663(4) 0.8276(16) 0.981(3)
O2 O 0.8857(2) 0.85428(8) 1.6722(2)
O3 O 0.8740(2) 0.73847(7) 1.74195(16)
H2 H 0.808(3) 0.7561(15) 1.806(3)
O4 O 1.22236(17) 0.58132(8) 1.3486(2)
H3 H 1.260(3) 0.5456(14) 1.325(3)
O5 O 0.3949(2) 0.44419(8) 1.29918(19)
H4 H 0.314(4) 0.4183(16) 1.298(4)
N1 N 0.44539(19) 0.44054(8) 1.13197(19)
C1 C 0.8656(2) 0.77670(8) 1.15107(19)
H5 H 0.9816 0.7652 1.1092
C2 C 0.9132(2) 0.84534(9) 1.2631(2)
H6 H 0.8014 0.8586 1.3072
H7 H 0.9369 0.8846 1.1873
C3 C 1.0938(2) 0.83498(9) 1.4236(2)
H8 H 1.1168 0.8790 1.4956
H9 H 1.2079 0.8269 1.3786
C4 C 1.0729(2) 0.77154(8) 1.5449(2)
C5 C 1.0166(2) 0.70285(8) 1.42355(18)
H10 H 1.1233 0.6985 1.3648
C6 C 1.0237(2) 0.63100(9) 1.52483(19)
H11 H 1.1343 0.6310 1.6332
H12 H 0.9035 0.6248 1.5616
C7 C 1.0453(2) 0.56971(9) 1.4012(2)
H13 H 1.0571 0.5240 1.4688
C8 C 0.8641(2) 0.56567(8) 1.2369(2)
C9 C 0.8121(2) 0.63975(9) 1.13772(18)
H14 H 0.9100 0.6467 1.0698
C10 C 0.82625(19) 0.70983(8) 1.26020(17)
C11 C 0.6130(2) 0.63108(10) 0.9926(2)
H15 H 0.5086 0.6284 1.0527
H16 H 0.5895 0.6737 0.9154
C12 C 0.6028(3) 0.56360(11) 0.8733(2)
H17 H 0.6804 0.5722 0.7885
H18 H 0.4672 0.5562 0.8030
C13 C 0.6778(2) 0.49429(10) 0.9817(2)
C14 C 0.8906(2) 0.50945(9) 1.0960(2)
H19 H 0.9694 0.5291 1.0213
H20 H 0.9529 0.4657 1.1552
C15 C 0.6879(2) 0.53227(9) 1.2939(2)
H21 H 0.7341 0.5031 1.4029
H22 H 0.6016 0.5700 1.3165
C16 C 0.5825(2) 0.48599(9) 1.1351(2)
C17 C 0.6541(3) 0.42908(12) 0.8563(3)
H23 H 0.5179 0.4238 0.7903
H24 H 0.6979 0.3862 0.9271
H25 H 0.7316 0.4360 0.7723
C18 C 1.2741(2) 0.76094(11) 1.6873(2)
H26 H 1.3065 0.8038 1.7608
H27 H 1.3741 0.7523 1.6262
H28 H 1.2667 0.7202 1.7632
C19 C 0.9321(2) 0.79215(10) 1.6558(2)
C20 C 0.6377(2) 0.72261(9) 1.3202(2)
H29 H 0.6532 0.7654 1.3942
H30 H 0.6145 0.6816 1.3889
H31 H 0.5276 0.7288 1.2148
loop_
_geom_bond_atom_site_label_1
_geom_bond_atom_site_label_2
_geom_bond_site_symmetry_1
_geom_bond_site_symmetry_2
O1 H1 1_555 1_555
O2 C19 1_555 1_555
O3 H2 1_555 1_555
O4 H3 1_555 1_555
O5 H4 1_555 1_555
N1 O5 1_555 1_555
C1 O1 1_555 1_555
H5 C1 1_555 1_555
C2 C1 1_555 1_555
H6 C2 1_555 1_555
H7 C2 1_555 1_555
C3 C2 1_555 1_555
H8 C3 1_555 1_555
H9 C3 1_555 1_555
C4 C3 1_555 1_555
C5 C4 1_555 1_555
H10 C5 1_555 1_555
C6 C5 1_555 1_555
H11 C6 1_555 1_555
H12 C6 1_555 1_555
C7 O4 1_555 1_555
H13 C7 1_555 1_555
C8 C7 1_555 1_555
C9 C8 1_555 1_555
H14 C9 1_555 1_555
C10 C1 1_555 1_555
C11 C9 1_555 1_555
H15 C11 1_555 1_555
H16 C11 1_555 1_555
C12 C11 1_555 1_555
H17 C12 1_555 1_555
H18 C12 1_555 1_555
C13 C12 1_555 1_555
C14 C8 1_555 1_555
H19 C14 1_555 1_555
H20 C14 1_555 1_555
C15 C8 1_555 1_555
H21 C15 1_555 1_555
H22 C15 1_555 1_555
C16 N1 1_555 1_555
C17 C13 1_555 1_555
H23 C17 1_555 1_555
H24 C17 1_555 1_555
H25 C17 1_555 1_555
C18 C4 1_555 1_555
H26 C18 1_555 1_555
H27 C18 1_555 1_555
H28 C18 1_555 1_555
C19 O3 1_555 1_555
C20 C10 1_555 1_555
H29 C20 1_555 1_555
H30 C20 1_555 1_555
H31 C20 1_555 1_555
C4 C19 1_555 1_555
C5 C10 1_555 1_555
C6 C7 1_555 1_555
C9 C10 1_555 1_555
C13 C14 1_555 1_555
C13 C16 1_555 1_555
C15 C16 1_555 1_555

#END
