
#######################################################################
#
#                 Cambridge Crystallographic Data Centre
#                                CCDC 
#
#######################################################################
#
# If this CIF has been generated from an entry in the Cambridge 
# Structural Database, then it will include bibliographic, chemical, 
# crystal, experimental, refinement or atomic coordinate data resulting 
# from the CCDC's data processing and validation procedures.
#
#######################################################################

data_UGOXEU
_chemical_formula_moiety         'C26 H22 F6 N2 O4'
_chemical_name_systematic        
'Diethyl 2,5-bis((4-(trifluoromethyl)phenyl)amino)terephthalate'
_symmetry_cell_setting           triclinic
_symmetry_space_group_name_H-M   'P -1'
_symmetry_Int_Tables_number      2
_space_group_name_Hall           '-P 1'
loop_
_symmetry_equiv_pos_site_id
_symmetry_equiv_pos_as_xyz
1 x,y,z
2 -x,-y,-z
_cell_length_a                   8.0887(16)
_cell_length_b                   10.414(2)
_cell_length_c                   15.741(3)
_cell_angle_alpha                105.83(3)
_cell_angle_beta                 103.84(3)
_cell_angle_gamma                96.21(3)
_cell_volume                     1217.1
_exptl_crystal_colour            red
_exptl_crystal_description       block
_cell_formula_units_Z            2
_exptl_crystal_recrystallization_method chloroform
loop_
_atom_site_label
_atom_site_type_symbol
_atom_site_fract_x
_atom_site_fract_y
_atom_site_fract_z
C1 C 0.2702(2) 0.19549(17) 1.03026(11)
C2 C 0.21070(19) 0.20193(15) 0.93478(9)
C3 C 0.0974(2) 0.09291(16) 0.86691(10)
H1 H 0.0547 0.0179 0.8818
C4 C 0.0477(2) 0.09510(15) 0.77740(10)
H2 H -0.0297 0.0219 0.7324
C5 C 0.1121(2) 0.20575(14) 0.75373(9)
C6 C 0.2240(2) 0.31518(15) 0.82252(10)
H3 H 0.2663 0.3907 0.8080
C7 C 0.2729(2) 0.31313(15) 0.91213(10)
H4 H 0.3483 0.3870 0.9576
C8 C 0.02954(19) 0.10794(14) 0.58333(9)
C9 C -0.06051(18) 0.12004(13) 0.49790(9)
C10 C -0.08892(18) 0.01272(14) 0.41765(9)
H5 H -0.1502 0.0220 0.3623
C11 C -0.12330(19) 0.24712(14) 0.49145(9)
C12 C -0.2775(2) 0.35763(16) 0.39347(11)
H6 H -0.1799 0.4297 0.4063
H7 H -0.3478 0.3889 0.4342
C13 C -0.3823(3) 0.3203(2) 0.29563(13)
H8 H -0.3119 0.2880 0.2561
H9 H -0.4228 0.3986 0.2836
H10 H -0.4796 0.2501 0.2842
F1 F 0.15012(16) 0.12490(13) 1.05364(7)
F2 F 0.31915(16) 0.31755(11) 1.09359(6)
F3 F 0.40792(14) 0.13367(11) 1.04249(7)
H21 H 0.051(3) 0.288(2) 0.6594(14)
N1 N 0.0616(2) 0.21371(14) 0.66432(9)
O1 O -0.21701(14) 0.23599(10) 0.40726(7)
O2 O -0.09098(18) 0.35127(11) 0.55498(8)
C1A C -0.2702(2) -0.19549(17) -0.03026(11)
C2A C -0.21070(19) -0.20193(15) 0.06522(9)
C3A C -0.0974(2) -0.09291(16) 0.13309(10)
H1A H -0.0547 -0.0179 0.1182
C4A C -0.0477(2) -0.09510(15) 0.22260(10)
H2A H 0.0297 -0.0219 0.2676
C5A C -0.1121(2) -0.20575(14) 0.24627(9)
C6A C -0.2240(2) -0.31518(15) 0.17748(10)
H3A H -0.2663 -0.3907 0.1920
C7A C -0.2729(2) -0.31313(15) 0.08787(10)
H4A H -0.3483 -0.3870 0.0424
C8A C -0.02954(19) -0.10794(14) 0.41667(9)
C9A C 0.06051(18) -0.12004(13) 0.50210(9)
C10A C 0.08892(18) -0.01272(14) 0.58235(9)
H5A H 0.1502 -0.0220 0.6377
C11A C 0.12330(19) -0.24712(14) 0.50855(9)
C12A C 0.2775(2) -0.35763(16) 0.60653(11)
H6A H 0.1799 -0.4297 0.5937
H7A H 0.3478 -0.3889 0.5658
C13A C 0.3823(3) -0.3203(2) 0.70437(13)
H8A H 0.3119 -0.2880 0.7439
H9A H 0.4228 -0.3986 0.7164
H10A H 0.4796 -0.2501 0.7158
F1A F -0.15012(16) -0.12490(13) -0.05364(7)
F2A F -0.31915(16) -0.31755(11) -0.09359(6)
F3A F -0.40792(14) -0.13367(11) -0.04249(7)
H21A H -0.051(3) -0.288(2) 0.3406(14)
N1A N -0.0616(2) -0.21371(14) 0.33568(9)
O1A O 0.21701(14) -0.23599(10) 0.59274(7)
O2A O 0.09098(18) -0.35127(11) 0.44502(8)
C14 C 0.7884(2) 0.28779(17) 1.03909(10)
C15 C 0.73049(19) 0.26456(15) 0.93835(9)
C16 C 0.6303(2) 0.14337(14) 0.87840(10)
H11 H 0.6012 0.0728 0.9009
C17 C 0.5726(2) 0.12577(14) 0.78517(10)
H12 H 0.5039 0.0441 0.7454
C18 C 0.6172(2) 0.23000(14) 0.75075(9)
C19 C 0.7167(2) 0.35221(15) 0.81174(10)
H13 H 0.7463 0.4231 0.7896
C20 C 0.7719(2) 0.36931(16) 0.90443(10)
H14 H 0.8376 0.4519 0.9446
C21 C 0.52830(19) 0.11197(13) 0.58094(9)
C22 C 0.43778(17) 0.11797(13) 0.49371(9)
C23 C 0.41156(18) 0.00742(13) 0.41575(9)
H15 H 0.3515 0.0133 0.3591
C24 C 0.37341(19) 0.24274(14) 0.48361(9)
C25 C 0.2145(2) 0.34779(15) 0.38404(10)
H16 H 0.3112 0.4203 0.3962
H17 H 0.1445 0.3792 0.4250
C26 C 0.1086(3) 0.3093(2) 0.28655(12)
H18 H 0.1777 0.2748 0.2468
H19 H 0.0696 0.3877 0.2738
H20 H 0.0103 0.2406 0.2761
F4 F 0.68848(16) 0.35944(11) 1.08335(6)
F5 F 0.78466(16) 0.17441(11) 1.06249(7)
F6 F 0.94971(15) 0.35950(14) 1.07808(7)
H22 H 0.543(3) 0.295(2) 0.6473(14)
N2 N 0.5587(2) 0.22279(14) 0.65872(8)
O3 O 0.27747(13) 0.22759(10) 0.39900(6)
O4 O 0.40524(18) 0.34973(11) 0.54478(7)
C14A C 0.2116(2) -0.28779(17) -0.03909(10)
C15A C 0.26951(19) -0.26456(15) 0.06165(9)
C16A C 0.3697(2) -0.14337(14) 0.12160(10)
H11A H 0.3988 -0.0728 0.0991
C17A C 0.4274(2) -0.12577(14) 0.21483(10)
H12A H 0.4961 -0.0441 0.2546
C18A C 0.3828(2) -0.23000(14) 0.24925(9)
C19A C 0.2833(2) -0.35221(15) 0.18826(10)
H13A H 0.2537 -0.4231 0.2104
C20A C 0.2281(2) -0.36931(16) 0.09557(10)
H14A H 0.1624 -0.4519 0.0554
C21A C 0.47170(19) -0.11197(13) 0.41906(9)
C22A C 0.56222(17) -0.11797(13) 0.50629(9)
C23A C 0.58844(18) -0.00742(13) 0.58425(9)
H15A H 0.6485 -0.0133 0.6409
C24A C 0.62659(19) -0.24274(14) 0.51639(9)
C25A C 0.7855(2) -0.34779(15) 0.61596(10)
H16A H 0.6888 -0.4203 0.6038
H17A H 0.8555 -0.3792 0.5750
C26A C 0.8914(3) -0.3093(2) 0.71345(12)
H18A H 0.8223 -0.2748 0.7532
H19A H 0.9304 -0.3877 0.7262
H20A H 0.9897 -0.2406 0.7239
F4A F 0.31152(16) -0.35944(11) -0.08335(6)
F5A F 0.21534(16) -0.17441(11) -0.06249(7)
F6A F 0.05029(15) -0.35950(14) -0.07808(7)
H22A H 0.457(3) -0.295(2) 0.3527(14)
N2A N 0.4413(2) -0.22279(14) 0.34128(8)
O3A O 0.72253(13) -0.22759(10) 0.60100(6)
O4A O 0.59476(18) -0.34973(11) 0.45522(7)
loop_
_geom_bond_atom_site_label_1
_geom_bond_atom_site_label_2
_geom_bond_site_symmetry_1
_geom_bond_site_symmetry_2
C1 C2 1_555 1_555
C2 C3 1_555 1_555
C3 H1 1_555 1_555
C4 C3 1_555 1_555
H2 C4 1_555 1_555
C5 C4 1_555 1_555
C6 C5 1_555 1_555
H3 C6 1_555 1_555
C7 C2 1_555 1_555
H4 C7 1_555 1_555
C8 C9 1_555 1_555
C9 C10 1_555 1_555
C10 H5 1_555 1_555
C11 C9 1_555 1_555
C12 H6 1_555 1_555
H7 C12 1_555 1_555
C13 C12 1_555 1_555
H8 C13 1_555 1_555
H9 C13 1_555 1_555
H10 C13 1_555 1_555
C14 C15 1_555 1_555
C15 C16 1_555 1_555
C16 H11 1_555 1_555
C17 C16 1_555 1_555
H12 C17 1_555 1_555
C18 C17 1_555 1_555
C19 C18 1_555 1_555
H13 C19 1_555 1_555
C20 C15 1_555 1_555
H14 C20 1_555 1_555
C21 C22 1_555 1_555
C22 C23 1_555 1_555
C23 H15 1_555 1_555
C24 C22 1_555 1_555
C25 H16 1_555 1_555
H17 C25 1_555 1_555
C26 C25 1_555 1_555
H18 C26 1_555 1_555
H19 C26 1_555 1_555
H20 C26 1_555 1_555
F1 C1 1_555 1_555
F2 C1 1_555 1_555
F3 C1 1_555 1_555
F4 C14 1_555 1_555
F5 C14 1_555 1_555
F6 C14 1_555 1_555
H21 N1 1_555 1_555
H22 N2 1_555 1_555
N1 C5 1_555 1_555
N2 C18 1_555 1_555
O1 C11 1_555 1_555
O2 C11 1_555 1_555
O3 C24 1_555 1_555
O4 C24 1_555 1_555
C1A C2A 1_555 1_555
C2A C3A 1_555 1_555
C3A H1A 1_555 1_555
C4A C3A 1_555 1_555
H2A C4A 1_555 1_555
C5A C4A 1_555 1_555
C6A C5A 1_555 1_555
H3A C6A 1_555 1_555
C7A C2A 1_555 1_555
H4A C7A 1_555 1_555
C8A C10 1_555 1_555
C9A C8A 1_555 1_555
C10A C8 1_555 1_555
H5A C10A 1_555 1_555
C11A C9A 1_555 1_555
C12A H6A 1_555 1_555
H7A C12A 1_555 1_555
C13A C12A 1_555 1_555
H8A C13A 1_555 1_555
H9A C13A 1_555 1_555
H10A C13A 1_555 1_555
C14A C15A 1_555 1_555
C15A C16A 1_555 1_555
C16A H11A 1_555 1_555
C17A C16A 1_555 1_555
H12A C17A 1_555 1_555
C18A C17A 1_555 1_555
C19A C18A 1_555 1_555
H13A C19A 1_555 1_555
C20A C15A 1_555 1_555
H14A C20A 1_555 1_555
C21A C23 1_555 1_555
C22A C21A 1_555 1_555
C23A C21 1_555 1_555
H15A C23A 1_555 1_555
C24A C22A 1_555 1_555
C25A H16A 1_555 1_555
H17A C25A 1_555 1_555
C26A C25A 1_555 1_555
H18A C26A 1_555 1_555
H19A C26A 1_555 1_555
H20A C26A 1_555 1_555
F1A C1A 1_555 1_555
F2A C1A 1_555 1_555
F3A C1A 1_555 1_555
F4A C14A 1_555 1_555
F5A C14A 1_555 1_555
F6A C14A 1_555 1_555
H21A N1A 1_555 1_555
H22A N2A 1_555 1_555
N1A C5A 1_555 1_555
N2A C18A 1_555 1_555
O1A C11A 1_555 1_555
O2A C11A 1_555 1_555
O3A C24A 1_555 1_555
O4A C24A 1_555 1_555
C6 C7 1_555 1_555
C8 N1 1_555 1_555
C12 O1 1_555 1_555
C19 C20 1_555 1_555
C21 N2 1_555 1_555
C25 O3 1_555 1_555
C6A C7A 1_555 1_555
C8A N1A 1_555 1_555
C9A C10A 1_555 1_555
C12A O1A 1_555 1_555
C19A C20A 1_555 1_555
C21A N2A 1_555 1_555
C22A C23A 1_555 1_555
C25A O3A 1_555 1_555

#END
