
#######################################################################
#
#                 Cambridge Crystallographic Data Centre
#                                CCDC 
#
#######################################################################
#
# If this CIF has been generated from an entry in the Cambridge 
# Structural Database, then it will include bibliographic, chemical, 
# crystal, experimental, refinement or atomic coordinate data resulting 
# from the CCDC's data processing and validation procedures.
#
#######################################################################

data_UHAJUK
_chemical_formula_moiety         'C21 H24 O2'
_chemical_name_systematic        
(1R,2R,4R,5R)-endo,endo-2,5-bis(2-methoxyphenyl)bicyclo[2.2.1]heptane
_symmetry_cell_setting           monoclinic
_symmetry_space_group_name_H-M   'P 21'
_symmetry_Int_Tables_number      4
_space_group_name_Hall           'P 2yb'
loop_
_symmetry_equiv_pos_site_id
_symmetry_equiv_pos_as_xyz
1 x,y,z
2 -x,1/2+y,-z
_cell_length_a                   10.203(8)
_cell_length_b                   7.485(6)
_cell_length_c                   11.343(10)
_cell_angle_alpha                90
_cell_angle_beta                 106.886(13)
_cell_angle_gamma                90
_cell_volume                     828.91
_cell_formula_units_Z            2
loop_
_atom_site_label
_atom_site_type_symbol
_atom_site_fract_x
_atom_site_fract_y
_atom_site_fract_z
O1 O 0.6371(2) 0.2254(3) 0.51907(18)
O2 O 0.7452(3) 0.4407(3) -0.11959(19)
C1 C 0.5534(3) 0.1754(7) 0.5940(3)
H1 H 0.4921 0.0818 0.5542
H2 H 0.5013 0.2769 0.6063
H3 H 0.6101 0.1338 0.6723
C2 C 0.7191(3) 0.0993(4) 0.4913(2)
C3 C 0.7456(4) -0.0638(5) 0.5507(3)
H4 H 0.7050 -0.0922 0.6119
C4 C 0.8314(4) -0.1834(5) 0.5198(3)
H5 H 0.8490 -0.2931 0.5597
C5 C 0.8912(3) -0.1415(5) 0.4302(3)
H6 H 0.9500 -0.2220 0.4090
C6 C 0.8634(3) 0.0213(4) 0.3715(3)
H7 H 0.9051 0.0481 0.3109
C7 C 0.7778(2) 0.1452(4) 0.3979(2)
C8 C 0.7449(2) 0.3247(4) 0.3373(2)
H8 H 0.7591 0.4128 0.4038
C9 C 0.8291(3) 0.3886(4) 0.2526(2)
H9 H 0.8951 0.4790 0.2929
H10 H 0.8772 0.2898 0.2285
C10 C 0.7218(3) 0.4659(3) 0.1418(2)
H11 H 0.7567 0.5582 0.0975
C11 C 0.6455(3) 0.3132(3) 0.0598(2)
H12 H 0.5752 0.3682 -0.0084
C12 C 0.5702(3) 0.2252(4) 0.1453(2)
H13 H 0.4728 0.2157 0.1043
H14 H 0.6065 0.1070 0.1707
C13 C 0.5973(3) 0.3498(4) 0.2546(2)
H15 H 0.5276 0.3464 0.2986
C14 C 0.6120(3) 0.5310(4) 0.1975(2)
H16 H 0.5289 0.5686 0.1360
H17 H 0.6441 0.6242 0.2585
C15 C 0.7314(2) 0.1986(4) 0.0040(2)
C16 C 0.7624(3) 0.0204(4) 0.0355(3)
H18 H 0.7276 -0.0321 0.0944
C17 C 0.8424(3) -0.0801(4) -0.0174(3)
H19 H 0.8618 -0.1987 0.0058
C18 C 0.8934(3) -0.0049(5) -0.1042(3)
H20 H 0.9487 -0.0720 -0.1397
C19 C 0.8634(3) 0.1704(5) -0.1400(3)
H21 H 0.8974 0.2209 -0.2000
C20 C 0.7833(3) 0.2692(4) -0.0865(2)
C21 C 0.7913(5) 0.5214(5) -0.2126(3)
H22 H 0.8895 0.5262 -0.1868
H23 H 0.7551 0.6404 -0.2273
H24 H 0.7606 0.4527 -0.2870
loop_
_geom_bond_atom_site_label_1
_geom_bond_atom_site_label_2
_geom_bond_site_symmetry_1
_geom_bond_site_symmetry_2
O1 C1 1_555 1_555
O2 C20 1_555 1_555
C1 H1 1_555 1_555
H2 C1 1_555 1_555
H3 C1 1_555 1_555
C2 O1 1_555 1_555
C3 C2 1_555 1_555
H4 C3 1_555 1_555
C4 C3 1_555 1_555
H5 C4 1_555 1_555
C5 C4 1_555 1_555
H6 C5 1_555 1_555
C6 C5 1_555 1_555
H7 C6 1_555 1_555
C7 C2 1_555 1_555
C8 C7 1_555 1_555
H8 C8 1_555 1_555
C9 C8 1_555 1_555
H9 C9 1_555 1_555
H10 C9 1_555 1_555
C10 C9 1_555 1_555
H11 C10 1_555 1_555
C11 C10 1_555 1_555
H12 C11 1_555 1_555
C12 C11 1_555 1_555
H13 C12 1_555 1_555
H14 C12 1_555 1_555
C13 C8 1_555 1_555
H15 C13 1_555 1_555
C14 C10 1_555 1_555
H16 C14 1_555 1_555
H17 C14 1_555 1_555
C15 C11 1_555 1_555
C16 C15 1_555 1_555
H18 C16 1_555 1_555
C17 C16 1_555 1_555
H19 C17 1_555 1_555
C18 C17 1_555 1_555
H20 C18 1_555 1_555
C19 C18 1_555 1_555
H21 C19 1_555 1_555
C20 C15 1_555 1_555
C21 O2 1_555 1_555
H22 C21 1_555 1_555
H23 C21 1_555 1_555
H24 C21 1_555 1_555
C6 C7 1_555 1_555
C12 C13 1_555 1_555
C13 C14 1_555 1_555
C19 C20 1_555 1_555

#END
