
#######################################################################
#
#                 Cambridge Crystallographic Data Centre
#                                CCDC 
#
#######################################################################
#
# If this CIF has been generated from an entry in the Cambridge 
# Structural Database, then it will include bibliographic, chemical, 
# crystal, experimental, refinement or atomic coordinate data resulting 
# from the CCDC's data processing and validation procedures.
#
#######################################################################

data_UHATUS
_chemical_formula_moiety         'C6 H6 N1 O2 1+,C1 H6 B11 Cl6 1-,C6 H5 N1 O2'
_chemical_name_systematic        
'bis(Nitrobenzene)hydronium hexachloro-carbadodecaborane(6)'
_symmetry_cell_setting           monoclinic
_symmetry_space_group_name_H-M   'P 21/m'
_symmetry_Int_Tables_number      11
_space_group_name_Hall           '-P 2yb'
loop_
_symmetry_equiv_pos_site_id
_symmetry_equiv_pos_as_xyz
1 x,y,z
2 x,1/2-y,z
3 -x,-y,-z
4 -x,1/2+y,-z
_cell_length_a                   7.6653(8)
_cell_length_b                   19.583(2)
_cell_length_c                   9.0121(9)
_cell_angle_alpha                90
_cell_angle_beta                 91.987(2)
_cell_angle_gamma                90
_cell_volume                     1351.99
_exptl_crystal_colour            colorless
_exptl_crystal_description       prism
_cell_formula_units_Z            2
_chemical_properties_physical    moisture-sensitive
_exptl_crystal_recrystallization_method nitrobenzene
loop_
_atom_site_label
_atom_site_type_symbol
_atom_site_fract_x
_atom_site_fract_y
_atom_site_fract_z
C2 C 0.1865(3) 0.54515(10) 0.2388(2)
C3 C 0.0572(3) 0.49818(12) 0.2042(2)
H5 H 0.0755 0.4625 0.1367
C4 C -0.1003(3) 0.50564(15) 0.2726(3)
H6 H -0.1909 0.4742 0.2531
C5 C -0.1246(3) 0.55867(16) 0.3688(3)
H7 H -0.2330 0.5636 0.4134
C6 C 0.0067(3) 0.60488(15) 0.4016(3)
H8 H -0.0126 0.6408 0.4682
C7 C 0.1662(3) 0.59849(12) 0.3369(2)
H9 H 0.2577 0.6293 0.3587
N1 N 0.3514(2) 0.53962(9) 0.16839(18)
O1 O 0.3540(2) 0.50041(8) 0.05565(17)
O2 O 0.4783(2) 0.57042(9) 0.21239(18)
H10 H 0.447(6) 0.501(3) 0.017(6)
C1 C 0.7615(4) 0.7500 0.9270(3)
H1 H 0.8642(6) 0.7500 0.9931(7)
B1 B 0.5627(4) 0.7500 1.0074(4)
H2 H 0.5416 0.7500 1.1287
B2 B 0.6431(3) 0.67677(12) 0.9158(3)
H3 H 0.6744 0.6291 0.9777
B3 B 0.7719(3) 0.70435(12) 0.7669(3)
H4 H 0.8865 0.6746 0.7316
B4 B 0.6357(4) 0.7500 0.6389(3)
Cl1 Cl 0.67054(12) 0.7500 0.44320(9)
B5 B 0.5553(3) 0.67617(11) 0.7320(2)
Cl2 Cl 0.50696(7) 0.59775(2) 0.63429(6)
B6 B 0.4250(3) 0.70446(11) 0.8804(2)
Cl3 Cl 0.23689(7) 0.65778(3) 0.93763(6)
B7 B 0.4195(4) 0.7500 0.7082(3)
Cl4 Cl 0.23103(9) 0.7500 0.58593(8)
B2A B 0.6431(3) 0.82323(12) 0.9158(3)
B3A B 0.7719(3) 0.79565(12) 0.7669(3)
H3A H 0.6744 0.8709 0.9777
B5A B 0.5553(3) 0.82383(11) 0.7320(2)
H4A H 0.8865 0.8254 0.7316
B6A B 0.4250(3) 0.79554(11) 0.8804(2)
Cl2A Cl 0.50696(7) 0.90225(2) 0.63429(6)
Cl3A Cl 0.23689(7) 0.84222(3) 0.93763(6)
loop_
_geom_bond_atom_site_label_1
_geom_bond_atom_site_label_2
_geom_bond_site_symmetry_1
_geom_bond_site_symmetry_2
C1 H1 1_555 1_555
B1 C1 1_555 1_555
H2 B1 1_555 1_555
B2 C1 1_555 1_555
H3 B2 1_555 1_555
B3 C1 1_555 1_555
H4 B3 1_555 1_555
B4 B3 1_555 1_555
Cl1 B4 1_555 1_555
B5 B2 1_555 1_555
Cl2 B5 1_555 1_555
B6 B1 1_555 1_555
Cl3 B6 1_555 1_555
B7 B4 1_555 1_555
Cl4 B7 1_555 1_555
C2 C3 1_555 1_555
C3 H5 1_555 1_555
C4 C3 1_555 1_555
H6 C4 1_555 1_555
C5 C4 1_555 1_555
H7 C5 1_555 1_555
C6 C5 1_555 1_555
H8 C6 1_555 1_555
C7 C2 1_555 1_555
H9 C7 1_555 1_555
N1 C2 1_555 1_555
O1 N1 1_555 1_555
O2 N1 1_555 1_555
H10 O1 1_555 1_555
B2A C1 1_555 1_555
B3A C1 1_555 1_555
H3A B2A 1_555 1_555
B5A B4 1_555 1_555
H4A B3A 1_555 1_555
B6A B1 1_555 1_555
Cl2A B5A 1_555 1_555
Cl3A B6A 1_555 1_555
B1 B2 1_555 1_555
B1 B2A 1_555 1_555
B2 B3 1_555 1_555
B2 B6 1_555 1_555
B3 B3A 1_555 1_555
B3 B5 1_555 1_555
B4 B5 1_555 1_555
B4 B3A 1_555 1_555
B5 B6 1_555 1_555
B5 B7 1_555 1_555
B6 B6A 1_555 1_555
B6 B7 1_555 1_555
B7 B5A 1_555 1_555
B7 B6A 1_555 1_555
C6 C7 1_555 1_555
B2A B5A 1_555 1_555
B2A B3A 1_555 1_555
B2A B6A 1_555 1_555
B3A B5A 1_555 1_555
B5A B6A 1_555 1_555

#END
