
#######################################################################
#
#                 Cambridge Crystallographic Data Centre
#                                CCDC 
#
#######################################################################
#
# If this CIF has been generated from an entry in the Cambridge 
# Structural Database, then it will include bibliographic, chemical, 
# crystal, experimental, refinement or atomic coordinate data resulting 
# from the CCDC's data processing and validation procedures.
#
#######################################################################

data_UHESAC
_chemical_formula_moiety         'C21 H39 N8 3+,3(H1 O1 1-),11(H2 O1)'
_chemical_name_systematic        
'1,8,11,14,27-Penta-aza-4,18,23-triazoniabicyclo[9.9.9]nonacosa-4,6,15,17,23,25-hexaene trihydroxide undecahydrate'
_symmetry_cell_setting           hexagonal
_symmetry_space_group_name_H-M   'P -6 c 2'
_symmetry_Int_Tables_number      188
_space_group_name_Hall           "P -6c 2'"
loop_
_symmetry_equiv_pos_site_id
_symmetry_equiv_pos_as_xyz
1 x,y,z
2 -y,x-y,z
3 -x+y,-x,z
4 x,y,1/2-z
5 -y,x-y,1/2-z
6 -x+y,-x,1/2-z
7 -y,-x,1/2+z
8 -x+y,y,1/2+z
9 x,x-y,1/2+z
10 -y,-x,-z
11 -x+y,y,-z
12 x,x-y,-z
_cell_length_a                   8.0397(9)
_cell_length_b                   8.0397(9)
_cell_length_c                   33.925(4)
_cell_angle_alpha                90
_cell_angle_beta                 90
_cell_angle_gamma                120
_cell_volume                     1899.02
_exptl_crystal_colour            colorless
_exptl_crystal_description       plate
_cell_formula_units_Z            2
_chemical_properties_physical    efflorescent
loop_
_atom_site_label
_atom_site_type_symbol
_atom_site_fract_x
_atom_site_fract_y
_atom_site_fract_z
N1 N 0.3333 0.6667 0.12348(13)
C1 C 0.3223(7) 0.4863(5) 0.11206(9)
H1 H 0.3853 0.5025 0.0861
H2 H 0.1859 0.3853 0.1093
C2 C 0.4178(8) 0.4242(7) 0.14200(10)
H3 H 0.4240 0.3117 0.1320
H4 H 0.5506 0.5296 0.1468
N2 N 0.3086(8) 0.3743(7) 0.17852(8)
H5 H 0.2107 0.2508 0.1760
C3 C 0.3934(10) 0.3870(8) 0.21318(10)
H7 H 0.5259 0.4251 0.2137
C4 C 0.2878(9) 0.3440(9) 0.2500
H8 H 0.1521 0.2887 0.2500
N1C N 0.3333 0.6667 0.37652(13)
C1C C 0.3223(7) 0.4863(5) 0.38794(9)
C1D C 0.5137(5) 0.8360(9) 0.38794(9)
C1A C 0.5137(5) 0.8360(9) 0.11206(9)
C1B C 0.1640(9) 0.6777(7) 0.11206(9)
C1E C 0.1640(9) 0.6777(7) 0.38794(9)
H1D H 0.4975 0.8828 0.4139
H1B H 0.1172 0.6147 0.0861
H1E H 0.1172 0.6147 0.4139
H1A H 0.4975 0.8828 0.0861
H1C H 0.3853 0.5025 0.4139
H2D H 0.6147 0.8006 0.3907
H2B H 0.1994 0.8141 0.1093
H2E H 0.1994 0.8141 0.3907
H2A H 0.6147 0.8006 0.1093
H2C H 0.1859 0.3853 0.3907
C2C C 0.4178(8) 0.4242(7) 0.35800(10)
C2D C 0.5758(7) 0.9936(11) 0.35800(10)
C2A C 0.5758(7) 0.9936(11) 0.14200(10)
C2B C 0.0064(11) 0.5822(8) 0.14200(10)
C2E C 0.0064(11) 0.5822(8) 0.35800(10)
H3D H 0.6883 1.1123 0.3680
H3B H -0.1123 0.5760 0.1320
H3E H -0.1123 0.5760 0.3680
H3A H 0.6883 1.1123 0.1320
H3C H 0.4240 0.3117 0.3680
H4D H 0.4704 1.0210 0.3532
H4B H -0.0210 0.4494 0.1468
H4E H -0.0210 0.4494 0.3532
H4A H 0.4704 1.0210 0.1468
H4C H 0.5506 0.5296 0.3532
N2C N 0.3086(8) 0.3743(7) 0.32148(8)
N2D N 0.6257(7) 0.9343(11) 0.32148(8)
N2A N 0.6257(7) 0.9343(11) 0.17852(8)
N2B N 0.0657(11) 0.6914(8) 0.17852(8)
N2E N 0.0657(11) 0.6914(8) 0.32148(8)
H5D H 0.7492 0.9599 0.3240
H5B H 0.0401 0.7893 0.1760
H5E H 0.0401 0.7893 0.3240
H5A H 0.7492 0.9599 0.1760
H5C H 0.2107 0.2508 0.3240
C3C C 0.3934(10) 0.3870(8) 0.28682(10)
C3D C 0.6130(8) 1.0064(13) 0.28682(10)
C3A C 0.6130(8) 1.0064(13) 0.21318(10)
C3B C -0.0064(13) 0.6066(10) 0.21318(10)
C3E C -0.0064(13) 0.6066(10) 0.28682(10)
H7D H 0.5749 1.1008 0.2863
H7B H -0.1008 0.4741 0.2137
H7E H -0.1008 0.4741 0.2863
H7A H 0.5749 1.1008 0.2137
H7C H 0.5259 0.4251 0.2863
C4A C 0.6560(9) 0.9438(13) 0.2500
C4B C 0.0562(13) 0.7122(9) 0.2500
H8B H 0.1366 0.8479 0.2500
H8A H 0.7113 0.8634 0.2500
O1 O 0.0000 0.0000 0.15948(11)
H9 H 0.0000 0.0000 0.1347
O2 O 0.0000 0.0000 0.07872(12)
O3 O -0.2461(5) -0.3167(6) 0.03481(7)
H12 H -0.3550 -0.3510 0.0250
H13 H -0.1680 -0.2880 0.0164
O4 O -0.3333 -0.6667 0.06618(13)
N3? N 0.3086(8) 0.3743(7) 0.17852(8)
H6? H 0.1850 0.3351 0.1778
H10? H -0.0186 0.0907 0.0714
H11? H 0.1133 0.0313 0.0714
H14? H -0.2500 -0.4060 0.0480
H15? H -0.2130 -0.2220 0.0490
H16? H -0.3300 -0.5660 0.0580
O5? O -0.5050(12) -0.3371(17) -0.00823(18)
H17? H -0.4788 -0.3024 -0.0334
H18? H -0.6235 -0.3731 -0.0066
loop_
_geom_bond_atom_site_label_1
_geom_bond_atom_site_label_2
_geom_bond_site_symmetry_1
_geom_bond_site_symmetry_2
N1 C1 1_555 1_555
C1 H1 1_555 1_555
H2 C1 1_555 1_555
C2 C1 1_555 1_555
H3 C2 1_555 1_555
H4 C2 1_555 1_555
N2 C2 1_555 1_555
H5 N2 1_555 1_555
C3 N2 1_555 1_555
H7 C3 1_555 1_555
C4 C3 1_555 1_555
H8 C4 1_555 1_555
O1 H9 1_555 1_555
O3 H12 1_555 1_555
H13 O3 1_555 1_555
N1C C1C 1_555 1_555
C1C H1C 1_555 1_555
C1D N1C 1_555 1_555
C1A N1 1_555 1_555
C1B N1 1_555 1_555
C1E N1C 1_555 1_555
H1D C1D 1_555 1_555
H1B C1B 1_555 1_555
H1E C1E 1_555 1_555
H1A C1A 1_555 1_555
H2D C1D 1_555 1_555
H2B C1B 1_555 1_555
H2E C1E 1_555 1_555
H2A C1A 1_555 1_555
H2C C1C 1_555 1_555
C2C C1C 1_555 1_555
C2D C1D 1_555 1_555
C2A C1A 1_555 1_555
C2B C1B 1_555 1_555
C2E C1E 1_555 1_555
H3D C2D 1_555 1_555
H3B C2B 1_555 1_555
H3E C2E 1_555 1_555
H3A C2A 1_555 1_555
H3C C2C 1_555 1_555
H4D C2D 1_555 1_555
H4B C2B 1_555 1_555
H4E C2E 1_555 1_555
H4A C2A 1_555 1_555
H4C C2C 1_555 1_555
N2C C2C 1_555 1_555
N2D C2D 1_555 1_555
N2A C2A 1_555 1_555
N2B C2B 1_555 1_555
N2E C2E 1_555 1_555
H5D N2D 1_555 1_555
H5B N2B 1_555 1_555
H5E N2E 1_555 1_555
H5A N2A 1_555 1_555
H5C N2C 1_555 1_555
C3C C4 1_555 1_555
C3D N2D 1_555 1_555
C3A N2A 1_555 1_555
C3B N2B 1_555 1_555
C3E N2E 1_555 1_555
H7D C3D 1_555 1_555
H7B C3B 1_555 1_555
H7E C3E 1_555 1_555
H7A C3A 1_555 1_555
H7C C3C 1_555 1_555
C4A C3D 1_555 1_555
C4B C3B 1_555 1_555
H8B C4B 1_555 1_555
H8A C4A 1_555 1_555
N2C C3C 1_555 1_555
C3A C4A 1_555 1_555
C3E C4B 1_555 1_555

#END
