
#######################################################################
#
#                 Cambridge Crystallographic Data Centre
#                                CCDC 
#
#######################################################################
#
# If this CIF has been generated from an entry in the Cambridge 
# Structural Database, then it will include bibliographic, chemical, 
# crystal, experimental, refinement or atomic coordinate data resulting 
# from the CCDC's data processing and validation procedures.
#
#######################################################################

data_UHIFUN
_chemical_formula_moiety         'C30 H50 Li2 N4 Si2'
_chemical_name_systematic        
bis(\m~2~-2-(Trimethylsilylamino)-3,3-dimethyl-1-(6-methyl-2-pyridyl)but-1-ene-N,N')-di-lithium
_symmetry_cell_setting           monoclinic
_symmetry_space_group_name_H-M   'C 2/c'
_symmetry_Int_Tables_number      15
_space_group_name_Hall           '-C 2yn'
loop_
_symmetry_equiv_pos_site_id
_symmetry_equiv_pos_as_xyz
1 x,y,z
2 -x,y,1/2-z
3 1/2+x,1/2+y,z
4 1/2-x,1/2+y,1/2-z
5 -x,-y,-z
6 x,-y,1/2+z
7 1/2-x,1/2-y,-z
8 1/2+x,1/2-y,1/2+z
_cell_length_a                   9.726(3)
_cell_length_b                   18.299(5)
_cell_length_c                   18.385(5)
_cell_angle_alpha                90
_cell_angle_beta                 94.539(4)
_cell_angle_gamma                90
_cell_volume                     3261.83
_cell_formula_units_Z            4
loop_
_atom_site_label
_atom_site_type_symbol
_atom_site_fract_x
_atom_site_fract_y
_atom_site_fract_z
Li1 Li 1.0999(4) 0.1362(2) 0.29707(19)
N1 N 1.17855(18) 0.14162(9) 0.40291(9)
N2 N 0.89466(17) 0.13642(9) 0.31291(9)
Si1 Si 0.85577(6) 0.05628(3) 0.35502(3)
C1 C 1.3788(3) 0.06616(16) 0.38817(15)
H1 H 1.3373 0.0191 0.3790
H2 H 1.4694 0.0601 0.4122
H3 H 1.3854 0.0913 0.3427
C2 C 1.2922(2) 0.10974(12) 0.43571(12)
C3 C 1.3264(3) 0.11626(13) 0.50969(13)
H4 H 1.4057 0.0940 0.5310
C4 C 1.2428(3) 0.15573(13) 0.55151(13)
H5 H 1.2643 0.1604 0.6015
C5 C 1.1274(3) 0.18811(13) 0.51902(12)
H6 H 1.0693 0.2148 0.5468
C6 C 1.0966(2) 0.18098(11) 0.44372(11)
C7 C 0.9790(2) 0.22072(12) 0.40894(12)
H7 H 0.9610 0.2655 0.4300
C8 C 0.8919(2) 0.20223(11) 0.35051(11)
C9 C 0.7773(2) 0.25697(13) 0.32453(12)
C10 C 0.7964(5) 0.33300(19) 0.3579(2)
H8 H 0.8837 0.3525 0.3465
H9 H 0.7939 0.3298 0.4099
H10 H 0.7237 0.3645 0.3384
C11 C 0.6405(3) 0.2261(2) 0.3447(2)
H11 H 0.5673 0.2587 0.3282
H12 H 0.6425 0.2207 0.3967
H13 H 0.6254 0.1793 0.3219
C12 C 0.7699(3) 0.26588(18) 0.24268(15)
H14 H 0.7396 0.2209 0.2198
H15 H 0.8595 0.2783 0.2280
H16 H 0.7059 0.3041 0.2282
C13 C 1.0003(3) -0.01155(14) 0.35797(16)
H17 H 1.0372 -0.0136 0.3111
H18 H 0.9663 -0.0589 0.3701
H19 H 1.0715 0.0031 0.3942
C14 C 0.7087(2) 0.00799(14) 0.30347(13)
H20 H 0.6311 0.0404 0.2968
H21 H 0.6835 -0.0342 0.3305
H22 H 0.7360 -0.0070 0.2567
C15 C 0.8071(3) 0.06959(15) 0.45039(13)
H23 H 0.8851 0.0880 0.4801
H24 H 0.7788 0.0237 0.4696
H25 H 0.7325 0.1039 0.4504
Li1A Li 0.9001(4) 0.1362(2) 0.20293(19)
N1A N 0.82145(18) 0.14162(9) 0.09709(9)
N2A N 1.10534(17) 0.13642(9) 0.18709(9)
Si1A Si 1.14423(6) 0.05628(3) 0.14498(3)
C1A C 0.6212(3) 0.06616(16) 0.11183(15)
H1A H 0.6627 0.0191 0.1210
H2A H 0.5306 0.0601 0.0878
H3A H 0.6146 0.0913 0.1573
C2A C 0.7078(2) 0.10974(12) 0.06429(12)
C3A C 0.6736(3) 0.11626(13) -0.00969(13)
H4A H 0.5943 0.0940 -0.0310
C4A C 0.7572(3) 0.15573(13) -0.05151(13)
H5A H 0.7357 0.1604 -0.1015
C5A C 0.8726(3) 0.18811(13) -0.01902(12)
H6A H 0.9307 0.2148 -0.0468
C6A C 0.9034(2) 0.18098(11) 0.05628(11)
C7A C 1.0210(2) 0.22072(12) 0.09106(12)
H7A H 1.0390 0.2655 0.0700
C8A C 1.1081(2) 0.20223(11) 0.14949(11)
C9A C 1.2227(2) 0.25697(13) 0.17547(12)
C10A C 1.2036(5) 0.33300(19) 0.1421(2)
H8A H 1.1163 0.3525 0.1535
H9A H 1.2061 0.3298 0.0901
H10A H 1.2763 0.3645 0.1616
C11A C 1.3595(3) 0.2261(2) 0.1553(2)
H11A H 1.4327 0.2587 0.1718
H12A H 1.3575 0.2207 0.1033
H13A H 1.3746 0.1793 0.1781
C12A C 1.2301(3) 0.26588(18) 0.25732(15)
H14A H 1.2604 0.2209 0.2802
H15A H 1.1405 0.2783 0.2720
H16A H 1.2941 0.3041 0.2718
C13A C 0.9997(3) -0.01155(14) 0.14203(16)
H17A H 0.9628 -0.0136 0.1889
H18A H 1.0337 -0.0589 0.1299
H19A H 0.9285 0.0031 0.1058
C14A C 1.2913(2) 0.00799(14) 0.19653(13)
H20A H 1.3689 0.0404 0.2032
H21A H 1.3165 -0.0342 0.1695
H22A H 1.2640 -0.0070 0.2433
C15A C 1.1929(3) 0.06959(15) 0.04961(13)
H23A H 1.1149 0.0880 0.0199
H24A H 1.2212 0.0237 0.0304
H25A H 1.2675 0.1039 0.0496
loop_
_geom_bond_atom_site_label_1
_geom_bond_atom_site_label_2
_geom_bond_site_symmetry_1
_geom_bond_site_symmetry_2
Li1 N1 1_555 1_555
N1 C2 1_555 1_555
N2 Li1 1_555 1_555
Si1 N2 1_555 1_555
C1 H1 1_555 1_555
H2 C1 1_555 1_555
H3 C1 1_555 1_555
C2 C1 1_555 1_555
C3 C2 1_555 1_555
H4 C3 1_555 1_555
C4 C3 1_555 1_555
H5 C4 1_555 1_555
C5 C4 1_555 1_555
H6 C5 1_555 1_555
C6 N1 1_555 1_555
C7 C6 1_555 1_555
H7 C7 1_555 1_555
C8 N2 1_555 1_555
C9 C8 1_555 1_555
C10 C9 1_555 1_555
H8 C10 1_555 1_555
H9 C10 1_555 1_555
H10 C10 1_555 1_555
C11 C9 1_555 1_555
H11 C11 1_555 1_555
H12 C11 1_555 1_555
H13 C11 1_555 1_555
C12 C9 1_555 1_555
H14 C12 1_555 1_555
H15 C12 1_555 1_555
H16 C12 1_555 1_555
C13 Si1 1_555 1_555
H17 C13 1_555 1_555
H18 C13 1_555 1_555
H19 C13 1_555 1_555
C14 Si1 1_555 1_555
H20 C14 1_555 1_555
H21 C14 1_555 1_555
H22 C14 1_555 1_555
C15 Si1 1_555 1_555
H23 C15 1_555 1_555
H24 C15 1_555 1_555
H25 C15 1_555 1_555
Li1A N2 1_555 1_555
N1A Li1A 1_555 1_555
N2A Li1 1_555 1_555
Si1A N2A 1_555 1_555
C1A H1A 1_555 1_555
H2A C1A 1_555 1_555
H3A C1A 1_555 1_555
C2A N1A 1_555 1_555
C3A C2A 1_555 1_555
H4A C3A 1_555 1_555
C4A C3A 1_555 1_555
H5A C4A 1_555 1_555
C5A C4A 1_555 1_555
H6A C5A 1_555 1_555
C6A N1A 1_555 1_555
C7A C6A 1_555 1_555
H7A C7A 1_555 1_555
C8A N2A 1_555 1_555
C9A C8A 1_555 1_555
C10A C9A 1_555 1_555
H8A C10A 1_555 1_555
H9A C10A 1_555 1_555
H10A C10A 1_555 1_555
C11A C9A 1_555 1_555
H11A C11A 1_555 1_555
H12A C11A 1_555 1_555
H13A C11A 1_555 1_555
C12A C9A 1_555 1_555
H14A C12A 1_555 1_555
H15A C12A 1_555 1_555
H16A C12A 1_555 1_555
C13A Si1A 1_555 1_555
H17A C13A 1_555 1_555
H18A C13A 1_555 1_555
H19A C13A 1_555 1_555
C14A Si1A 1_555 1_555
H20A C14A 1_555 1_555
H21A C14A 1_555 1_555
H22A C14A 1_555 1_555
C15A Si1A 1_555 1_555
H23A C15A 1_555 1_555
H24A C15A 1_555 1_555
H25A C15A 1_555 1_555
C5 C6 1_555 1_555
C7 C8 1_555 1_555
Li1A N2A 1_555 1_555
C1A C2A 1_555 1_555
C5A C6A 1_555 1_555
C7A C8A 1_555 1_555

#END
