
#######################################################################
#
#                 Cambridge Crystallographic Data Centre
#                                CCDC 
#
#######################################################################
#
# If this CIF has been generated from an entry in the Cambridge 
# Structural Database, then it will include bibliographic, chemical, 
# crystal, experimental, refinement or atomic coordinate data resulting 
# from the CCDC's data processing and validation procedures.
#
#######################################################################

data_UHOBIE01
_chemical_formula_moiety         'C33 H25 N1 O1'
_chemical_name_systematic        
2-(((4-(triphenylvinyl)phenyl)imino)methyl)phenol
_symmetry_cell_setting           monoclinic
_symmetry_space_group_name_H-M   'C 2/c'
_symmetry_Int_Tables_number      15
_space_group_name_Hall           '-C 2yn'
loop_
_symmetry_equiv_pos_site_id
_symmetry_equiv_pos_as_xyz
1 x,y,z
2 -x,y,1/2-z
3 1/2+x,1/2+y,z
4 1/2-x,1/2+y,1/2-z
5 -x,-y,-z
6 x,-y,1/2+z
7 1/2-x,1/2-y,-z
8 1/2+x,1/2-y,1/2+z
_cell_length_a                   56.337(8)
_cell_length_b                   5.7057(9)
_cell_length_c                   36.189(5)
_cell_angle_alpha                90
_cell_angle_beta                 121.942(5)
_cell_angle_gamma                90
_cell_volume                     9871.29
_exptl_crystal_colour            yellow
_exptl_crystal_description       Strip
_cell_formula_units_Z            16
loop_
_atom_site_label
_atom_site_type_symbol
_atom_site_fract_x
_atom_site_fract_y
_atom_site_fract_z
C1 C 0.73182(9) 0.4345(8) 0.79794(15)
C2 C 0.70672(10) 0.4852(10) 0.75959(17)
H1 H 0.6973 0.6234 0.7573
C3 C 0.69588(10) 0.3321(11) 0.72522(17)
H2 H 0.6789 0.3657 0.6998
C4 C 0.70985(10) 0.1304(11) 0.72806(17)
H3 H 0.7027 0.0303 0.7042
C5 C 0.73452(10) 0.0745(9) 0.76608(15)
H4 H 0.7436 -0.0654 0.7681
C6 C 0.74587(8) 0.2262(8) 0.80140(14)
C7 C 0.77210(9) 0.1642(8) 0.84076(14)
H5 H 0.7806 0.0227 0.8418
C8 C 0.80970(8) 0.2439(7) 0.91216(12)
C9 C 0.82531(9) 0.0428(7) 0.91842(13)
H6 H 0.8183 -0.0729 0.8971
C10 C 0.85109(8) 0.0135(7) 0.95599(13)
H7 H 0.8613 -0.1216 0.9594
C11 C 0.86227(8) 0.1797(7) 0.98886(12)
C12 C 0.84638(9) 0.3771(8) 0.98320(13)
H8 H 0.8531 0.4902 1.0050
C13 C 0.82049(9) 0.4069(7) 0.94531(13)
H9 H 0.8101 0.5405 0.9421
C14 C 0.89199(10) 0.1440(7) 1.02686(14)
C15 C 0.90007(9) 0.1774(8) 1.06813(14)
C16 C 0.87996(8) 0.2277(7) 1.08180(13)
C17 C 0.85893(9) 0.0765(9) 1.07438(14)
H10 H 0.8563 -0.0602 1.0587
C18 C 0.84177(11) 0.1228(11) 1.08969(18)
H11 H 0.8279 0.0160 1.0846
C19 C 0.84471(13) 0.3203(11) 1.11194(17)
H12 H 0.8326 0.3528 1.1213
C20 C 0.86583(13) 0.4733(11) 1.12067(18)
H13 H 0.8684 0.6081 1.1368
C21 C 0.88325(11) 0.4275(9) 1.10558(18)
H14 H 0.8974 0.5327 1.1115
C22 C 0.93032(9) 0.1645(8) 1.10374(14)
C23 C 0.93869(11) 0.0065(10) 1.13732(17)
H15 H 0.9257 -0.0949 1.1372
C24 C 0.96655(13) -0.0009(13) 1.17132(18)
H16 H 0.9723 -0.1103 1.1935
C25 C 0.98548(12) 0.1511(13) 1.1723(2)
H17 H 1.0041 0.1448 1.1952
C26 C 0.97757(11) 0.3101(12) 1.1406(2)
H18 H 0.9905 0.4159 1.1418
C27 C 0.95023(10) 0.3164(10) 1.10615(16)
H19 H 0.9450 0.4253 1.0840
C28 C 0.91257(9) 0.0752(8) 1.01356(13)
C29 C 0.91411(9) 0.2141(10) 0.98343(14)
H20 H 0.9037 0.3517 0.9734
C30 C 0.93106(13) 0.1478(15) 0.96824(19)
H21 H 0.9321 0.2394 0.9479
C31 C 0.94666(13) -0.0603(17) 0.9840(3)
H22 H 0.9583 -0.1070 0.9744
C32 C 0.94460(14) -0.1920(13) 1.0133(3)
H23 H 0.9548 -0.3302 1.0235
C33 C 0.92805(11) -0.1263(10) 1.02760(19)
H24 H 0.9270 -0.2205 1.0477
N1 N 0.78376(7) 0.2995(6) 0.87403(11)
O1 O 0.74232(8) 0.5910(7) 0.83064(11)
H25 H 0.7571 0.5412 0.8513
C34 C 0.75456(9) 0.0680(8) 0.55582(15)
C35 C 0.73103(10) 0.0134(9) 0.51555(16)
H26 H 0.7303 -0.1270 0.5019
C36 C 0.70903(10) 0.1654(10) 0.49596(16)
H27 H 0.6936 0.1274 0.4688
C37 C 0.70910(10) 0.3737(10) 0.51529(16)
H28 H 0.6938 0.4743 0.5018
C38 C 0.73235(9) 0.4287(9) 0.55492(15)
H29 H 0.7327 0.5699 0.5681
C39 C 0.75525(8) 0.2807(8) 0.57596(13)
C40 C 0.77962(9) 0.3512(8) 0.61692(13)
H30 H 0.7791 0.4944 0.6288
C41 C 0.82476(8) 0.3037(7) 0.67789(12)
C42 C 0.82526(9) 0.4987(9) 0.70057(14)
H31 H 0.8094 0.5926 0.6893
C43 C 0.84868(10) 0.5569(8) 0.73947(14)
H32 H 0.8484 0.6893 0.7542
C44 C 0.87253(10) 0.4261(8) 0.75732(14)
C45 C 0.87214(10) 0.2307(9) 0.73456(17)
H33 H 0.8881 0.1383 0.7458
C46 C 0.84856(9) 0.1700(8) 0.69551(15)
H34 H 0.8488 0.0368 0.6809
C47 C 0.89683(17) 0.4935(10) 0.8077(3)
C48 C 0.91876(16) 0.5207(10) 0.8120(3)
C49 C 0.92806(9) 0.5178(7) 0.77952(14)
C50 C 0.91803(12) 0.6696(11) 0.74520(18)
H35 H 0.9033 0.7692 0.7392
C51 C 0.92893(18) 0.6780(13) 0.7199(2)
H36 H 0.9220 0.7861 0.6973
C52 C 0.9492(2) 0.5361(14) 0.7267(3)
H37 H 0.9560 0.5405 0.7082
C53 C 0.96037(14) 0.3825(13) 0.7606(3)
H38 H 0.9749 0.2836 0.7655
C54 C 0.94978(10) 0.3749(10) 0.78816(16)
H39 H 0.9575 0.2738 0.8119
C55 C 0.94366(9) 0.5776(9) 0.86145(14)
C56 C 0.95918(14) 0.7756(11) 0.8681(2)
H40 H 0.9533 0.8865 0.8461
C57 C 0.98460(16) 0.8100(16) 0.9094(3)
H41 H 0.9959 0.9405 0.9150
C58 C 0.99131(14) 0.6367(19) 0.9404(3)
H42 H 1.0071 0.6578 0.9680
C59 C 0.97682(15) 0.4486(17) 0.9329(2)
H43 H 0.9829 0.3343 0.9544
C60 C 0.95325(10) 0.4170(11) 0.89465(15)
H44 H 0.9429 0.2815 0.8902
C61 C 0.88720(9) 0.5094(7) 0.83867(13)
C62 C 0.89139(9) 0.6968(8) 0.86554(15)
H45 H 0.9031 0.8184 0.8678
C63 C 0.87865(12) 0.7076(10) 0.88900(16)
H46 H 0.8816 0.8371 0.9065
C64 C 0.86201(11) 0.5325(11) 0.88687(17)
H47 H 0.8537 0.5400 0.9032
C65 C 0.85735(11) 0.3439(11) 0.86070(18)
H48 H 0.8457 0.2235 0.8591
C66 C 0.86976(11) 0.3310(9) 0.83677(15)
H49 H 0.8665 0.2014 0.8191
N2 N 0.80160(7) 0.2281(6) 0.63749(11)
O2 O 0.77604(7) -0.0840(6) 0.57495(12)
H50 H 0.7884 -0.0308 0.5984
loop_
_geom_bond_atom_site_label_1
_geom_bond_atom_site_label_2
_geom_bond_site_symmetry_1
_geom_bond_site_symmetry_2
C1 C2 1_555 1_555
C2 H1 1_555 1_555
C3 C2 1_555 1_555
H2 C3 1_555 1_555
C4 C3 1_555 1_555
H3 C4 1_555 1_555
C5 C4 1_555 1_555
H4 C5 1_555 1_555
C6 C1 1_555 1_555
C7 C6 1_555 1_555
H5 C7 1_555 1_555
C8 C9 1_555 1_555
C9 H6 1_555 1_555
C10 C9 1_555 1_555
H7 C10 1_555 1_555
C11 C10 1_555 1_555
C12 C11 1_555 1_555
H8 C12 1_555 1_555
C13 C8 1_555 1_555
H9 C13 1_555 1_555
C14 C11 1_555 1_555
C15 C14 1_555 1_555
C16 C15 1_555 1_555
C17 C16 1_555 1_555
H10 C17 1_555 1_555
C18 C17 1_555 1_555
H11 C18 1_555 1_555
C19 C18 1_555 1_555
H12 C19 1_555 1_555
C20 C19 1_555 1_555
H13 C20 1_555 1_555
C21 C16 1_555 1_555
H14 C21 1_555 1_555
C22 C15 1_555 1_555
C23 C22 1_555 1_555
H15 C23 1_555 1_555
C24 C23 1_555 1_555
H16 C24 1_555 1_555
C25 C24 1_555 1_555
H17 C25 1_555 1_555
C26 C25 1_555 1_555
H18 C26 1_555 1_555
C27 C22 1_555 1_555
H19 C27 1_555 1_555
C28 C14 1_555 1_555
C29 C28 1_555 1_555
H20 C29 1_555 1_555
C30 C29 1_555 1_555
H21 C30 1_555 1_555
C31 C30 1_555 1_555
H22 C31 1_555 1_555
C32 C31 1_555 1_555
H23 C32 1_555 1_555
C33 C28 1_555 1_555
H24 C33 1_555 1_555
N1 C7 1_555 1_555
O1 C1 1_555 1_555
H25 O1 1_555 1_555
C34 C35 1_555 1_555
C35 H26 1_555 1_555
C36 C35 1_555 1_555
H27 C36 1_555 1_555
C37 C36 1_555 1_555
H28 C37 1_555 1_555
C38 C37 1_555 1_555
H29 C38 1_555 1_555
C39 C34 1_555 1_555
C40 C39 1_555 1_555
H30 C40 1_555 1_555
C41 C42 1_555 1_555
C42 H31 1_555 1_555
C43 C42 1_555 1_555
H32 C43 1_555 1_555
C44 C43 1_555 1_555
C45 C44 1_555 1_555
H33 C45 1_555 1_555
C46 C41 1_555 1_555
H34 C46 1_555 1_555
C47 C44 1_555 1_555
C48 C47 1_555 1_555
C49 C48 1_555 1_555
C50 C49 1_555 1_555
H35 C50 1_555 1_555
C51 C50 1_555 1_555
H36 C51 1_555 1_555
C52 C51 1_555 1_555
H37 C52 1_555 1_555
C53 C52 1_555 1_555
H38 C53 1_555 1_555
C54 C49 1_555 1_555
H39 C54 1_555 1_555
C55 C48 1_555 1_555
C56 C55 1_555 1_555
H40 C56 1_555 1_555
C57 C56 1_555 1_555
H41 C57 1_555 1_555
C58 C57 1_555 1_555
H42 C58 1_555 1_555
C59 C58 1_555 1_555
H43 C59 1_555 1_555
C60 C55 1_555 1_555
H44 C60 1_555 1_555
C61 C47 1_555 1_555
C62 C61 1_555 1_555
H45 C62 1_555 1_555
C63 C62 1_555 1_555
H46 C63 1_555 1_555
C64 C63 1_555 1_555
H47 C64 1_555 1_555
C65 C64 1_555 1_555
H48 C65 1_555 1_555
C66 C61 1_555 1_555
H49 C66 1_555 1_555
N2 C40 1_555 1_555
O2 C34 1_555 1_555
H50 O2 1_555 1_555
C5 C6 1_555 1_555
C8 N1 1_555 1_555
C12 C13 1_555 1_555
C20 C21 1_555 1_555
C26 C27 1_555 1_555
C32 C33 1_555 1_555
C38 C39 1_555 1_555
C41 N2 1_555 1_555
C45 C46 1_555 1_555
C53 C54 1_555 1_555
C59 C60 1_555 1_555
C65 C66 1_555 1_555

#END
