
#######################################################################
#
#                 Cambridge Crystallographic Data Centre
#                                CCDC 
#
#######################################################################
#
# If this CIF has been generated from an entry in the Cambridge 
# Structural Database, then it will include bibliographic, chemical, 
# crystal, experimental, refinement or atomic coordinate data resulting 
# from the CCDC's data processing and validation procedures.
#
#######################################################################

data_UHOMUA
_chemical_formula_moiety         'C16 H25 B10 N1'
_chemical_name_systematic        
1-(4-(Dimethylamino)phenyl)-2-phenyl-1,2-dicarba-closo-dodecaborane
_symmetry_cell_setting           orthorhombic
_symmetry_space_group_name_H-M   'P b c a'
_symmetry_Int_Tables_number      61
_space_group_name_Hall           '-P 2ac 2ab'
loop_
_symmetry_equiv_pos_site_id
_symmetry_equiv_pos_as_xyz
1 x,y,z
2 1/2-x,-y,1/2+z
3 -x,1/2+y,1/2-z
4 1/2+x,1/2-y,-z
5 -x,-y,-z
6 1/2+x,y,1/2-z
7 x,1/2-y,1/2+z
8 1/2-x,1/2+y,z
_cell_length_a                   11.8404(14)
_cell_length_b                   25.207(3)
_cell_length_c                   26.306(3)
_cell_angle_alpha                90
_cell_angle_beta                 90
_cell_angle_gamma                90
_cell_volume                     7851.31
_exptl_crystal_colour            amber
_exptl_crystal_description       plate
_chemical_melting_point          '431.7 K'
_cell_formula_units_Z            16
loop_
_atom_site_label
_atom_site_type_symbol
_atom_site_fract_x
_atom_site_fract_y
_atom_site_fract_z
N1 N 0.40604(19) 0.60535(9) 0.38393(9)
C1 C 0.1806(2) 0.80448(10) 0.40130(9)
C2 C 0.1413(2) 0.82697(10) 0.46142(10)
B1 B 0.2505(3) 0.85713(12) 0.42886(12)
H1 H 0.3406 0.8546 0.4415
B2 B 0.2126(3) 0.85760(13) 0.36347(13)
H2 H 0.2774 0.8565 0.3325
B3 B 0.0810(3) 0.82396(14) 0.35803(13)
H3 H 0.0585 0.8003 0.3234
B4 B 0.0400(2) 0.80372(12) 0.42015(12)
H4 H -0.0081 0.7661 0.4269
B5 B 0.1485(3) 0.89462(12) 0.46298(13)
H5 H 0.1714 0.9180 0.4977
B6 B 0.1916(3) 0.91464(13) 0.40128(13)
H6 H 0.2430 0.9514 0.3951
B7 B 0.0848(3) 0.89424(14) 0.35756(14)
H7 H 0.0647 0.9176 0.3225
B8 B -0.0219(3) 0.86064(13) 0.39272(13)
H8 H -0.1128 0.8614 0.3809
B9 B 0.0173(3) 0.86109(12) 0.45774(13)
H9 H -0.0469 0.8620 0.4890
B10 B 0.0456(3) 0.91740(13) 0.41898(13)
H10 H 0.0000 0.9559 0.4243
C3 C 0.2405(2) 0.75264(10) 0.39670(9)
C4 C 0.3569(2) 0.74840(11) 0.40273(10)
H11 H 0.3996 0.7794 0.4101
C5 C 0.4123(2) 0.70018(10) 0.39834(11)
H12 H 0.4919 0.6988 0.4027
C6 C 0.3529(2) 0.65350(10) 0.38755(9)
C7 C 0.2356(2) 0.65817(10) 0.37980(10)
H13 H 0.1928 0.6275 0.3714
C8 C 0.1820(2) 0.70642(10) 0.38423(10)
H14 H 0.1029 0.7083 0.3786
C9 C 0.5276(2) 0.60085(12) 0.38944(12)
H15 H 0.5648 0.6252 0.3657
H16 H 0.5509 0.5644 0.3820
H17 H 0.5491 0.6099 0.4244
C10 C 0.3420(3) 0.55683(11) 0.37823(12)
H18 H 0.2941 0.5516 0.4082
H19 H 0.3940 0.5268 0.3748
H20 H 0.2945 0.5592 0.3478
C11 C 0.1735(2) 0.79438(10) 0.50695(10)
C12 C 0.2509(2) 0.81448(11) 0.54145(11)
H21 H 0.2858 0.8477 0.5350
C13 C 0.2777(3) 0.78677(13) 0.58498(11)
H22 H 0.3297 0.8014 0.6087
C14 C 0.2299(3) 0.73813(13) 0.59428(11)
H23 H 0.2490 0.7191 0.6242
C15 C 0.1545(3) 0.71700(12) 0.56030(11)
H24 H 0.1219 0.6832 0.5666
C16 C 0.1254(2) 0.74500(11) 0.51657(10)
H25 H 0.0726 0.7304 0.4933
N2 N 0.17517(19) 0.74618(8) 0.72695(9)
C17 C 0.1091(2) 0.52426(10) 0.69520(9)
C18 C 0.1035(2) 0.49584(10) 0.63448(9)
B11 B -0.0173(2) 0.50046(12) 0.67136(11)
H26 H -0.0899 0.5271 0.6615
B12 B 0.0241(3) 0.48878(12) 0.73545(11)
H27 H -0.0223 0.5068 0.7683
B13 B 0.1727(3) 0.48075(12) 0.73574(12)
H28 H 0.2256 0.4936 0.7688
B14 B 0.2212(2) 0.48715(12) 0.67220(11)
H29 H 0.3053 0.5051 0.6629
B15 B 0.0151(2) 0.44264(12) 0.63537(12)
H30 H -0.0375 0.4304 0.6020
B16 B -0.0349(3) 0.43656(12) 0.69869(11)
H31 H -0.1206 0.4200 0.7073
B17 B 0.0833(3) 0.42414(12) 0.73861(12)
H32 H 0.0765 0.3992 0.7737
B18 B 0.2065(3) 0.42327(12) 0.69956(12)
H33 H 0.2814 0.3980 0.7089
B19 B 0.1638(3) 0.43419(12) 0.63566(12)
H34 H 0.2103 0.4163 0.6028
B20 B 0.0772(3) 0.39564(13) 0.67677(12)
H35 H 0.0659 0.3519 0.6711
C19 C 0.1261(2) 0.58276(10) 0.70043(9)
C20 C 0.0376(2) 0.61843(10) 0.69732(10)
H36 H -0.0357 0.6056 0.6893
C21 C 0.0526(2) 0.67209(10) 0.70556(10)
H37 H -0.0103 0.6953 0.7026
C22 C 0.1588(2) 0.69289(10) 0.71821(9)
C23 C 0.2485(2) 0.65654(10) 0.72111(9)
H38 H 0.3221 0.6690 0.7292
C24 C 0.2319(2) 0.60318(10) 0.71241(9)
H39 H 0.2944 0.5797 0.7147
C25 C 0.0817(3) 0.78296(11) 0.72787(14)
H40 H 0.0383 0.7797 0.6963
H41 H 0.1105 0.8192 0.7310
H42 H 0.0327 0.7749 0.7569
C26 C 0.2836(2) 0.76501(11) 0.74494(12)
H43 H 0.3010 0.7484 0.7777
H44 H 0.2809 0.8036 0.7491
H45 H 0.3423 0.7558 0.7202
C27 C 0.1116(2) 0.53058(10) 0.58832(9)
C28 C 0.0156(3) 0.54516(12) 0.56216(10)
H46 H -0.0564 0.5349 0.5747
C29 C 0.0226(3) 0.57447(13) 0.51785(11)
H47 H -0.0443 0.5839 0.5001
C30 C 0.1259(3) 0.59004(13) 0.49941(11)
H48 H 0.1308 0.6106 0.4693
C31 C 0.2213(3) 0.57549(17) 0.52498(12)
H49 H 0.2931 0.5858 0.5123
C32 C 0.2147(3) 0.54594(15) 0.56911(12)
H50 H 0.2819 0.5361 0.5864
loop_
_geom_bond_atom_site_label_1
_geom_bond_atom_site_label_2
_geom_bond_site_symmetry_1
_geom_bond_site_symmetry_2
N1 C6 1_555 1_555
C1 C2 1_555 1_555
C2 B1 1_555 1_555
B1 C1 1_555 1_555
H1 B1 1_555 1_555
B2 C1 1_555 1_555
H2 B2 1_555 1_555
B3 C1 1_555 1_555
H3 B3 1_555 1_555
B4 C1 1_555 1_555
H4 B4 1_555 1_555
B5 C2 1_555 1_555
H5 B5 1_555 1_555
B6 B1 1_555 1_555
H6 B6 1_555 1_555
B7 B2 1_555 1_555
H7 B7 1_555 1_555
B8 B3 1_555 1_555
H8 B8 1_555 1_555
B9 C2 1_555 1_555
H9 B9 1_555 1_555
B10 B5 1_555 1_555
H10 B10 1_555 1_555
C3 C1 1_555 1_555
C4 C3 1_555 1_555
H11 C4 1_555 1_555
C5 C4 1_555 1_555
H12 C5 1_555 1_555
C6 C5 1_555 1_555
C7 C6 1_555 1_555
H13 C7 1_555 1_555
C8 C3 1_555 1_555
H14 C8 1_555 1_555
C9 N1 1_555 1_555
H15 C9 1_555 1_555
H16 C9 1_555 1_555
H17 C9 1_555 1_555
C10 N1 1_555 1_555
H18 C10 1_555 1_555
H19 C10 1_555 1_555
H20 C10 1_555 1_555
C11 C2 1_555 1_555
C12 C11 1_555 1_555
H21 C12 1_555 1_555
C13 C12 1_555 1_555
H22 C13 1_555 1_555
C14 C13 1_555 1_555
H23 C14 1_555 1_555
C15 C14 1_555 1_555
H24 C15 1_555 1_555
C16 C11 1_555 1_555
H25 C16 1_555 1_555
N2 C22 1_555 1_555
C17 C18 1_555 1_555
C18 B11 1_555 1_555
B11 C17 1_555 1_555
H26 B11 1_555 1_555
B12 C17 1_555 1_555
H27 B12 1_555 1_555
B13 C17 1_555 1_555
H28 B13 1_555 1_555
B14 C17 1_555 1_555
H29 B14 1_555 1_555
B15 C18 1_555 1_555
H30 B15 1_555 1_555
B16 B11 1_555 1_555
H31 B16 1_555 1_555
B17 B12 1_555 1_555
H32 B17 1_555 1_555
B18 B13 1_555 1_555
H33 B18 1_555 1_555
B19 C18 1_555 1_555
H34 B19 1_555 1_555
B20 B15 1_555 1_555
H35 B20 1_555 1_555
C19 C17 1_555 1_555
C20 C19 1_555 1_555
H36 C20 1_555 1_555
C21 C20 1_555 1_555
H37 C21 1_555 1_555
C22 C21 1_555 1_555
C23 C22 1_555 1_555
H38 C23 1_555 1_555
C24 C19 1_555 1_555
H39 C24 1_555 1_555
C25 N2 1_555 1_555
H40 C25 1_555 1_555
H41 C25 1_555 1_555
H42 C25 1_555 1_555
C26 N2 1_555 1_555
H43 C26 1_555 1_555
H44 C26 1_555 1_555
H45 C26 1_555 1_555
C27 C18 1_555 1_555
C28 C27 1_555 1_555
H46 C28 1_555 1_555
C29 C28 1_555 1_555
H47 C29 1_555 1_555
C30 C29 1_555 1_555
H48 C30 1_555 1_555
C31 C30 1_555 1_555
H49 C31 1_555 1_555
C32 C27 1_555 1_555
H50 C32 1_555 1_555
C2 B4 1_555 1_555
B1 B2 1_555 1_555
B1 B5 1_555 1_555
B2 B3 1_555 1_555
B2 B6 1_555 1_555
B3 B4 1_555 1_555
B3 B7 1_555 1_555
B4 B8 1_555 1_555
B4 B9 1_555 1_555
B5 B6 1_555 1_555
B5 B9 1_555 1_555
B6 B7 1_555 1_555
B6 B10 1_555 1_555
B7 B8 1_555 1_555
B7 B10 1_555 1_555
B8 B9 1_555 1_555
B8 B10 1_555 1_555
B9 B10 1_555 1_555
C7 C8 1_555 1_555
C15 C16 1_555 1_555
C18 B14 1_555 1_555
B11 B12 1_555 1_555
B11 B15 1_555 1_555
B12 B13 1_555 1_555
B12 B16 1_555 1_555
B13 B14 1_555 1_555
B13 B17 1_555 1_555
B14 B18 1_555 1_555
B14 B19 1_555 1_555
B15 B16 1_555 1_555
B15 B19 1_555 1_555
B16 B17 1_555 1_555
B16 B20 1_555 1_555
B17 B18 1_555 1_555
B17 B20 1_555 1_555
B18 B19 1_555 1_555
B18 B20 1_555 1_555
B19 B20 1_555 1_555
C23 C24 1_555 1_555
C31 C32 1_555 1_555

#END
