
#######################################################################
#
#                 Cambridge Crystallographic Data Centre
#                                CCDC 
#
#######################################################################
#
# If this CIF has been generated from an entry in the Cambridge 
# Structural Database, then it will include bibliographic, chemical, 
# crystal, experimental, refinement or atomic coordinate data resulting 
# from the CCDC's data processing and validation procedures.
#
#######################################################################

data_UHUPEU
_chemical_formula_moiety         'C24 H28 N1 O2 P1 S1'
_chemical_name_systematic        
N-(2-(diphenylphosphino)-1-(2-hydroxyphenyl)ethyl)-2-methylpropane-2-sulfinamide
_symmetry_cell_setting           orthorhombic
_symmetry_space_group_name_H-M   'P 21 21 21'
_symmetry_Int_Tables_number      19
_space_group_name_Hall           'P 2ac 2ab'
loop_
_symmetry_equiv_pos_site_id
_symmetry_equiv_pos_as_xyz
1 x,y,z
2 1/2-x,-y,1/2+z
3 -x,1/2+y,1/2-z
4 1/2+x,1/2-y,-z
_cell_length_a                   10.4651(5)
_cell_length_b                   12.8153(6)
_cell_length_c                   17.1585(8)
_cell_angle_alpha                90
_cell_angle_beta                 90
_cell_angle_gamma                90
_cell_volume                     2301.18
_exptl_crystal_colour            colorless
_exptl_crystal_description       block
_cell_formula_units_Z            4
loop_
_atom_site_label
_atom_site_type_symbol
_atom_site_fract_x
_atom_site_fract_y
_atom_site_fract_z
P1 P 0.21551(9) 0.43933(8) 0.89004(5)
S1 S 0.27272(13) 0.77220(8) 0.82008(6)
O1 O 0.5396(2) 0.6389(2) 1.00455(14)
H1 H 0.5786 0.6716 1.0397
O2 O 0.1719(6) 0.7800(4) 0.87924(19)
N1 N 0.3133(3) 0.6484(2) 0.80933(15)
H2 H 0.2910 0.6107 0.7687
C1 C 0.2429(3) 0.3027(3) 0.91583(18)
C2 C 0.3597(4) 0.2514(3) 0.9070(2)
H3 H 0.4324 0.2894 0.8898
C3 C 0.3714(4) 0.1457(3) 0.9229(2)
H4 H 0.4517 0.1121 0.9167
C4 C 0.2665(4) 0.0891(3) 0.9476(2)
H5 H 0.2741 0.0165 0.9576
C5 C 0.1518(4) 0.1382(3) 0.9576(2)
H6 H 0.0798 0.0995 0.9750
C6 C 0.1393(4) 0.2452(3) 0.9424(2)
H7 H 0.0593 0.2785 0.9503
C7 C 0.1744(3) 0.4947(3) 0.9844(2)
C8 C 0.2482(4) 0.4811(3) 1.0511(2)
H8 H 0.3249 0.4416 1.0486
C9 C 0.2101(5) 0.5248(3) 1.1209(2)
H9 H 0.2604 0.5149 1.1664
C10 C 0.0995(4) 0.5827(3) 1.1248(3)
H10 H 0.0730 0.6117 1.1731
C11 C 0.0285(4) 0.5984(3) 1.0599(3)
H11 H -0.0467 0.6397 1.0628
C12 C 0.0645(4) 0.5548(3) 0.9896(2)
H12 H 0.0136 0.5662 0.9445
C13 C 0.5299(3) 0.6380(3) 0.86757(19)
C14 C 0.5903(4) 0.6486(3) 0.7959(2)
H13 H 0.5433 0.6376 0.7492
C15 C 0.7189(4) 0.6754(3) 0.7919(2)
H14 H 0.7593 0.6823 0.7426
C16 C 0.7875(4) 0.6917(3) 0.8587(2)
H15 H 0.8750 0.7109 0.8558
C17 C 0.7296(4) 0.6802(3) 0.9303(2)
H16 H 0.7777 0.6910 0.9766
C18 C 0.6008(4) 0.6530(3) 0.9352(2)
C19 C 0.3905(3) 0.6071(3) 0.87449(18)
H17 H 0.3559 0.6356 0.9245
C20 C 0.3798(3) 0.4881(3) 0.8763(2)
H18 H 0.4341 0.4611 0.9190
H19 H 0.4138 0.4598 0.8267
C21 C 0.1912(4) 0.7969(4) 0.7285(2)
C22 C 0.0859(5) 0.7162(6) 0.7190(4)
H20 H 0.0409 0.7283 0.6697
H21 H 0.0255 0.7221 0.7624
H22 H 0.1235 0.6461 0.7187
C23 C 0.2816(7) 0.7859(6) 0.6625(3)
H23 H 0.2366 0.7992 0.6134
H24 H 0.3165 0.7149 0.6620
H25 H 0.3514 0.8362 0.6685
C24 C 0.1343(6) 0.9051(4) 0.7375(3)
H26 H 0.0882 0.9240 0.6898
H27 H 0.2029 0.9557 0.7467
H28 H 0.0751 0.9057 0.7817
loop_
_geom_bond_atom_site_label_1
_geom_bond_atom_site_label_2
_geom_bond_site_symmetry_1
_geom_bond_site_symmetry_2
P1 C1 1_555 1_555
S1 O2 1_555 1_555
O1 H1 1_555 1_555
N1 S1 1_555 1_555
H2 N1 1_555 1_555
C1 C2 1_555 1_555
C2 H3 1_555 1_555
C3 C2 1_555 1_555
H4 C3 1_555 1_555
C4 C3 1_555 1_555
H5 C4 1_555 1_555
C5 C4 1_555 1_555
H6 C5 1_555 1_555
C6 C1 1_555 1_555
H7 C6 1_555 1_555
C7 P1 1_555 1_555
C8 C7 1_555 1_555
H8 C8 1_555 1_555
C9 C8 1_555 1_555
H9 C9 1_555 1_555
C10 C9 1_555 1_555
H10 C10 1_555 1_555
C11 C10 1_555 1_555
H11 C11 1_555 1_555
C12 C7 1_555 1_555
H12 C12 1_555 1_555
C13 C14 1_555 1_555
C14 H13 1_555 1_555
C15 C14 1_555 1_555
H14 C15 1_555 1_555
C16 C15 1_555 1_555
H15 C16 1_555 1_555
C17 C16 1_555 1_555
H16 C17 1_555 1_555
C18 O1 1_555 1_555
C19 N1 1_555 1_555
H17 C19 1_555 1_555
C20 P1 1_555 1_555
H18 C20 1_555 1_555
H19 C20 1_555 1_555
C21 S1 1_555 1_555
C22 C21 1_555 1_555
H20 C22 1_555 1_555
H21 C22 1_555 1_555
H22 C22 1_555 1_555
C23 C21 1_555 1_555
H23 C23 1_555 1_555
H24 C23 1_555 1_555
H25 C23 1_555 1_555
C24 C21 1_555 1_555
H26 C24 1_555 1_555
H27 C24 1_555 1_555
H28 C24 1_555 1_555
C5 C6 1_555 1_555
C11 C12 1_555 1_555
C13 C18 1_555 1_555
C13 C19 1_555 1_555
C17 C18 1_555 1_555
C19 C20 1_555 1_555

#END
