
#######################################################################
#
#                 Cambridge Crystallographic Data Centre
#                                CCDC 
#
#######################################################################
#
# If this CIF has been generated from an entry in the Cambridge 
# Structural Database, then it will include bibliographic, chemical, 
# crystal, experimental, refinement or atomic coordinate data resulting 
# from the CCDC's data processing and validation procedures.
#
#######################################################################

data_UHUWEB
_chemical_formula_moiety         'C30 H39 N1 O7'
_chemical_name_systematic        
26-Hydroxy-4,8,12,23-tetramethyl-7H,10H-spiro[17,25-dioxa-19-azaheptacyclo[19.3.1.1^15,18^.0^1,19^.0^4,18^.0^6,15^.0^9,14^]hexacos-11-ene-5,3'-furan]-5',7,10(4'H)-trione
_symmetry_cell_setting           orthorhombic
_symmetry_space_group_name_H-M   'P 21 21 21'
_symmetry_Int_Tables_number      19
_space_group_name_Hall           'P 2ac 2ab'
loop_
_symmetry_equiv_pos_site_id
_symmetry_equiv_pos_as_xyz
1 x,y,z
2 1/2-x,-y,1/2+z
3 1/2+x,1/2-y,-z
4 -x,1/2+y,1/2-z
_cell_length_a                   7.789(5)
_cell_length_b                   13.978(4)
_cell_length_c                   24.003(3)
_cell_angle_alpha                90
_cell_angle_beta                 90
_cell_angle_gamma                90
_cell_volume                     2613.32
_exptl_crystal_colour            colorless
_exptl_crystal_description       plate
_cell_formula_units_Z            4
loop_
_atom_site_label
_atom_site_type_symbol
_atom_site_fract_x
_atom_site_fract_y
_atom_site_fract_z
O1 O 0.6059(4) 1.18800(16) 0.82150(10)
O2 O 0.6069(3) 1.00158(15) 0.67752(9)
O3 O 0.1805(3) 1.1085(2) 0.67272(12)
O4 O 0.0813(4) 0.7977(2) 0.47514(13)
O5 O 0.5852(4) 1.0211(2) 0.48647(11)
O6 O 0.7899(3) 1.23721(18) 0.54263(10)
O7 O 1.0377(3) 1.1751(2) 0.57024(11)
N1 N 0.5100(4) 1.1175(2) 0.74423(11)
C1 C 0.4193(5) 1.0680(3) 0.78921(14)
H1 H 0.4256 0.9991 0.7849
H2 H 0.2999 1.0874 0.7912
C2 C 0.5210(5) 1.1022(3) 0.84083(14)
H3 H 0.4428 1.1170 0.8716
C3 C 0.6578(6) 1.0319(3) 0.85947(15)
H4 H 0.6036 0.9756 0.8752
H5 H 0.7282 1.0610 0.8882
C4 C 0.7715(5) 1.0027(3) 0.81001(15)
H6 H 0.7048 0.9594 0.7863
C5 C 0.8167(5) 1.0908(3) 0.77574(15)
H7 H 0.8576 1.0704 0.7395
H8 H 0.9097 1.1246 0.7940
C6 C 0.6659(5) 1.1601(2) 0.76753(14)
C7 C 0.7120(6) 1.2471(3) 0.73327(14)
H9 H 0.8193 1.2742 0.7464
H10 H 0.6232 1.2953 0.7368
C8 C 0.7297(5) 1.2166(3) 0.67232(14)
H11 H 0.8221 1.1704 0.6692
H12 H 0.7604 1.2719 0.6501
C9 C 0.5629(4) 1.1721(2) 0.64881(13)
C10 C 0.5010(4) 1.0886(2) 0.68756(13)
C11 C 0.3255(4) 1.0485(2) 0.67129(13)
H13 H 0.3018 0.9978 0.6985
C12 C 0.3678(4) 0.9960(2) 0.61655(13)
C13 C 0.2101(4) 0.9401(2) 0.59574(13)
H14 H 0.1231 0.9880 0.5860
C14 C 0.1297(5) 0.8759(3) 0.64031(16)
H15 H 0.2154 0.8309 0.6535
H16 H 0.0946 0.9150 0.6717
C15 C -0.0232(5) 0.8212(2) 0.61911(17)
C16 C -0.0385(5) 0.8018(3) 0.56507(18)
H17 H -0.1381 0.7714 0.5531
C17 C 0.0916(5) 0.8253(3) 0.52337(18)
C18 C 0.2460(5) 0.8834(3) 0.54270(15)
H18 H 0.3377 0.8378 0.5514
C19 C 0.3139(5) 0.9493(3) 0.49581(15)
H19 H 0.3587 0.9082 0.4661
C20 C 0.4589(5) 1.0116(3) 0.51563(14)
C21 C 0.4346(4) 1.0669(2) 0.57050(13)
H20 H 0.3400 1.1117 0.5637
C22 C 0.5907(4) 1.1298(2) 0.58806(13)
C23 C 0.7713(4) 1.0857(3) 0.58242(14)
H21 H 0.8095 1.0591 0.6177
H22 H 0.7721 1.0355 0.5545
C24 C 0.8835(5) 1.1674(3) 0.56506(14)
C25 C 0.6090(4) 1.2114(3) 0.54456(15)
H23 H 0.5705 1.1898 0.5082
H24 H 0.5403 1.2662 0.5555
C26 C 0.1751(6) 1.0146(3) 0.46992(17)
H25 H 0.2234 1.0492 0.4391
H26 H 0.1348 1.0590 0.4975
H27 H 0.0809 0.9762 0.4571
C27 C -0.1502(5) 0.7899(3) 0.66202(18)
H28 H -0.2429 0.7566 0.6442
H29 H -0.1942 0.8449 0.6812
H30 H -0.0949 0.7480 0.6882
C28 C 0.5207(4) 0.9388(2) 0.63816(14)
H31 H 0.4825 0.8807 0.6565
H32 H 0.5971 0.9218 0.6078
C29 C 0.4264(5) 1.2526(2) 0.64861(16)
H33 H 0.3718 1.2556 0.6844
H34 H 0.3418 1.2393 0.6205
H35 H 0.4808 1.3127 0.6407
C30 C 0.9329(6) 0.9492(3) 0.8292(2)
H36 H 0.9965 0.9886 0.8546
H37 H 1.0031 0.9344 0.7975
H38 H 0.9000 0.8909 0.8476
H39 H 0.156(8) 1.126(4) 0.643(3)
loop_
_geom_bond_atom_site_label_1
_geom_bond_atom_site_label_2
_geom_bond_site_symmetry_1
_geom_bond_site_symmetry_2
O1 C2 1_555 1_555
O2 C10 1_555 1_555
O3 C11 1_555 1_555
O4 C17 1_555 1_555
O5 C20 1_555 1_555
O6 C24 1_555 1_555
O7 C24 1_555 1_555
N1 C1 1_555 1_555
C1 H1 1_555 1_555
H2 C1 1_555 1_555
C2 C1 1_555 1_555
H3 C2 1_555 1_555
C3 C2 1_555 1_555
H4 C3 1_555 1_555
H5 C3 1_555 1_555
C4 C3 1_555 1_555
H6 C4 1_555 1_555
C5 C4 1_555 1_555
H7 C5 1_555 1_555
H8 C5 1_555 1_555
C6 O1 1_555 1_555
C7 C6 1_555 1_555
H9 C7 1_555 1_555
H10 C7 1_555 1_555
C8 C7 1_555 1_555
H11 C8 1_555 1_555
H12 C8 1_555 1_555
C9 C8 1_555 1_555
C10 N1 1_555 1_555
C11 C10 1_555 1_555
H13 C11 1_555 1_555
C12 C11 1_555 1_555
C13 C12 1_555 1_555
H14 C13 1_555 1_555
C14 C13 1_555 1_555
H15 C14 1_555 1_555
H16 C14 1_555 1_555
C15 C14 1_555 1_555
C16 C15 1_555 1_555
H17 C16 1_555 1_555
C17 C16 1_555 1_555
C18 C13 1_555 1_555
H18 C18 1_555 1_555
C19 C18 1_555 1_555
H19 C19 1_555 1_555
C20 C19 1_555 1_555
C21 C12 1_555 1_555
H20 C21 1_555 1_555
C22 C9 1_555 1_555
C23 C22 1_555 1_555
H21 C23 1_555 1_555
H22 C23 1_555 1_555
C24 C23 1_555 1_555
C25 O6 1_555 1_555
H23 C25 1_555 1_555
H24 C25 1_555 1_555
C26 C19 1_555 1_555
H25 C26 1_555 1_555
H26 C26 1_555 1_555
H27 C26 1_555 1_555
C27 C15 1_555 1_555
H28 C27 1_555 1_555
H29 C27 1_555 1_555
H30 C27 1_555 1_555
C28 O2 1_555 1_555
H31 C28 1_555 1_555
H32 C28 1_555 1_555
C29 C9 1_555 1_555
H33 C29 1_555 1_555
H34 C29 1_555 1_555
H35 C29 1_555 1_555
C30 C4 1_555 1_555
H36 C30 1_555 1_555
H37 C30 1_555 1_555
H38 C30 1_555 1_555
H39 O3 1_555 1_555
N1 C6 1_555 1_555
C5 C6 1_555 1_555
C9 C10 1_555 1_555
C12 C28 1_555 1_555
C17 C18 1_555 1_555
C20 C21 1_555 1_555
C21 C22 1_555 1_555
C22 C25 1_555 1_555

#END
