
#######################################################################
#
#                 Cambridge Crystallographic Data Centre
#                                CCDC 
#
#######################################################################
#
# If this CIF has been generated from an entry in the Cambridge 
# Structural Database, then it will include bibliographic, chemical, 
# crystal, experimental, refinement or atomic coordinate data resulting 
# from the CCDC's data processing and validation procedures.
#
#######################################################################

data_UJEFEV
_chemical_name_common            
'5,10,15,20,25,30,35-Heptakis(hydroxymethyl)-2,4,7,9,12,14,17,19,22,24,27,29,32,34-tetradecaoxaoctacyclo[31.2.2.2$3,6!.2$8,11!.2$13,16!.2$18,21!.2$23,26!.2$28,31!]nonatetracontane-36,37,38,39,40,41,42,43,44,45,46,47,48,49-tetradecol quinolin-8-ol clathrate ethanol solvate triacontahydrate'
_chemical_formula_moiety         
'2(C42 H70 O35),C9 H7 N1 O1,2(C2 H6 O1),30(H2 O1)'
_chemical_name_systematic        
'\b-cyclodextrin quinolin-8-ol clathrate ethanol solvate triacontahydrate'
_symmetry_cell_setting           triclinic
_symmetry_space_group_name_H-M   'P 1'
_symmetry_Int_Tables_number      1
_space_group_name_Hall           'P 1'
loop_
_symmetry_equiv_pos_site_id
_symmetry_equiv_pos_as_xyz
1 x,y,z
_cell_length_a                   17.824(3)
_cell_length_b                   15.373(2)
_cell_length_c                   15.3803(19)
_cell_angle_alpha                103.271(11)
_cell_angle_beta                 113.384(14)
_cell_angle_gamma                99.023(12)
_cell_volume                     3616.98
_cell_formula_units_Z            1
loop_
_atom_site_label
_atom_site_type_symbol
_atom_site_fract_x
_atom_site_fract_y
_atom_site_fract_z
C1 C 0.2059(8) -0.0095(9) 0.2391(8)
H1 H 0.1963 -0.0661 0.2592
C2 C 0.2773(7) -0.0071(9) 0.2058(9)
H2 H 0.2586 -0.0622 0.1452
C3 C 0.2924(8) 0.0813(8) 0.1790(9)
H3 H 0.3098 0.1379 0.2377
C4 C 0.2077(8) 0.0768(8) 0.0896(10)
H4 H 0.1932 0.0248 0.0279
C5 C 0.1372(8) 0.0681(9) 0.1221(10)
H5 H 0.1494 0.1265 0.1764
C6 C 0.0521(7) 0.0527(9) 0.0356(9)
H6 H 0.0539 0.1037 0.0065
H7 H 0.0378 -0.0068 -0.0172
C7 C 0.2001(8) 0.1666(8) -0.0255(9)
H8 H 0.1852 0.1015 -0.0702
C8 C 0.2834(8) 0.2261(8) -0.0182(9)
H9 H 0.2712 0.2316 -0.0857
C9 C 0.3076(8) 0.3216(8) 0.0534(10)
H10 H 0.3174 0.3180 0.1210
C10 C 0.2321(7) 0.3628(7) 0.0116(8)
H11 H 0.2245 0.3708 -0.0538
C11 C 0.1510(8) 0.2997(8) -0.0008(9)
H12 H 0.1554 0.3002 0.0662
C12 C 0.0714(8) 0.3278(9) -0.0593(9)
H13 H 0.0199 0.2801 -0.0738
H14 H 0.0719 0.3876 -0.0174
C13 C 0.2387(7) 0.5277(7) 0.0459(9)
H15 H 0.2196 0.5061 -0.0279
C14 C 0.3224(7) 0.6056(8) 0.0985(8)
H16 H 0.3147 0.6565 0.0681
C15 C 0.3503(7) 0.6454(8) 0.2100(8)
H17 H 0.3627 0.5970 0.2433
C16 C 0.2784(7) 0.6790(8) 0.2211(8)
H18 H 0.2679 0.7284 0.1889
C17 C 0.1984(7) 0.5976(8) 0.1710(8)
H19 H 0.2087 0.5481 0.2030
C18 C 0.1223(8) 0.6280(9) 0.1764(11)
H20 H 0.0712 0.5739 0.1411
H21 H 0.1336 0.6513 0.2472
C19 C 0.3002(8) 0.8099(8) 0.3637(9)
H22 H 0.2947 0.8406 0.3116
C20 C 0.3846(7) 0.8618(8) 0.4574(8)
H23 H 0.3834 0.9269 0.4849
C21 C 0.3929(7) 0.8133(8) 0.5347(9)
H24 H 0.3964 0.7488 0.5095
C22 C 0.3174(7) 0.8100(8) 0.5553(9)
H25 H 0.3209 0.8741 0.5929
C23 C 0.2326(8) 0.7697(8) 0.4642(10)
H26 H 0.2232 0.7012 0.4367
C24 C 0.1588(8) 0.7862(9) 0.4830(9)
H27 H 0.1059 0.7612 0.4191
H28 H 0.1524 0.7529 0.5287
C25 C 0.3175(8) 0.7890(9) 0.7097(9)
H29 H 0.3172 0.8556 0.7212
C26 C 0.3933(8) 0.7790(8) 0.7938(9)
H30 H 0.3899 0.8050 0.8576
C27 C 0.3932(8) 0.6809(9) 0.7817(10)
H31 H 0.3987 0.6542 0.7194
C28 C 0.3111(7) 0.6241(7) 0.7729(8)
H32 H 0.3072 0.6480 0.8368
C29 C 0.2358(8) 0.6345(8) 0.6878(10)
H33 H 0.2363 0.6056 0.6228
C30 C 0.1514(8) 0.5900(9) 0.6838(11)
H34 H 0.1461 0.5235 0.6773
H35 H 0.1500 0.6209 0.7469
C31 C 0.3010(9) 0.4852(9) 0.8256(9)
H36 H 0.3056 0.5331 0.8852
C32 C 0.3738(7) 0.4395(8) 0.8580(8)
H37 H 0.3653 0.4051 0.9028
C33 C 0.3667(7) 0.3697(9) 0.7690(8)
H38 H 0.3739 0.4010 0.7215
C34 C 0.2801(7) 0.2982(8) 0.7179(9)
H39 H 0.2757 0.2615 0.7624
C35 C 0.2072(7) 0.3444(8) 0.6902(8)
H40 H 0.2052 0.3715 0.6364
C36 C 0.1226(8) 0.2790(9) 0.6581(10)
H41 H 0.0797 0.3144 0.6485
H42 H 0.1059 0.2324 0.5926
C37 C 0.2540(8) 0.1401(8) 0.6120(10)
H43 H 0.2548 0.1299 0.6742
C38 C 0.3229(7) 0.1048(8) 0.5938(8)
H44 H 0.3125 0.0374 0.5878
C39 C 0.3222(8) 0.1163(8) 0.4969(8)
H45 H 0.3310 0.1832 0.5007
C40 C 0.2343(7) 0.0590(8) 0.4152(8)
H46 H 0.2254 -0.0083 0.4097
C41 C 0.1648(8) 0.0967(9) 0.4351(9)
H47 H 0.1705 0.1622 0.4343
C42 C 0.0773(7) 0.0350(8) 0.3602(10)
H48 H 0.0339 0.0628 0.3709
H49 H 0.0694 0.0303 0.2917
O1 O 0.2319(5) 0.0731(6) 0.3227(6)
O2 O 0.3526(5) -0.0109(6) 0.2833(6)
H50 H 0.3419 -0.0227 0.3285
O3 O 0.3557(5) 0.0829(6) 0.1423(6)
H51 H 0.4024 0.0851 0.1881
O4 O 0.1288(5) -0.0105(6) 0.1577(6)
O5 O -0.0116(5) 0.0501(7) 0.0717(7)
H52 H -0.0499 0.0715 0.0384
O6 O 0.2221(6) 0.1669(5) 0.0751(6)
O7 O 0.3514(5) 0.1805(6) 0.0103(6)
H53 H 0.3970 0.2200 0.0541
O8 O 0.3829(5) 0.3780(6) 0.0598(7)
H54 H 0.3840 0.4344 0.0773
O9 O 0.1341(5) 0.2053(6) -0.0625(6)
O10 O 0.0675(6) 0.3372(6) -0.1495(6)
H55 H 0.1167 0.3480 -0.1454
O11 O 0.2545(5) 0.4520(5) 0.0856(6)
O12 O 0.3840(5) 0.5656(5) 0.0792(6)
H56 H 0.4166 0.6050 0.0710
O13 O 0.4237(5) 0.7244(6) 0.2540(6)
H57 H 0.4301 0.7412 0.2086
O14 O 0.1743(5) 0.5606(5) 0.0672(6)
O15 O 0.1071(6) 0.6977(7) 0.1330(7)
H58 H 0.0843 0.7314 0.1601
O16 O 0.3045(5) 0.7179(5) 0.3283(5)
O17 O 0.4535(5) 0.8649(5) 0.4303(6)
H59 H 0.4388 0.8203 0.3782
O18 O 0.4678(5) 0.8649(6) 0.6282(6)
H60 H 0.5112 0.8539 0.6240
O19 O 0.2306(5) 0.8124(5) 0.3865(6)
O20 O 0.1714(5) 0.8840(5) 0.5266(6)
H61 H 0.1357 0.9026 0.4855
O21 O 0.3227(5) 0.7510(5) 0.6184(6)
O22 O 0.4695(5) 0.8321(5) 0.8021(6)
H62 H 0.4647 0.8285 0.7448
O23 O 0.4619(5) 0.6717(6) 0.8651(6)
H63 H 0.4939 0.6477 0.8454
O24 O 0.2398(5) 0.7321(5) 0.7020(6)
O25 O 0.0812(6) 0.5982(6) 0.6007(7)
H64 H 0.0369 0.5572 0.5857
O26 O 0.3114(5) 0.5293(5) 0.7562(6)
O27 O 0.4538(5) 0.5073(6) 0.9148(6)
H65 H 0.4533 0.5523 0.8923
O28 O 0.4334(6) 0.3240(6) 0.8027(7)
H66 H 0.4198 0.2719 0.7598
O29 O 0.2215(5) 0.4178(5) 0.7794(6)
O30 O 0.1209(6) 0.2322(6) 0.7259(7)
H67 H 0.0930 0.2533 0.7546
O31 O 0.2731(5) 0.2374(5) 0.6265(6)
O32 O 0.4047(5) 0.1548(5) 0.6746(6)
H68 H 0.3993 0.1944 0.7179
O33 O 0.3847(5) 0.0809(6) 0.4762(6)
H69 H 0.4327 0.1063 0.5256
O34 O 0.1746(5) 0.0912(5) 0.5317(6)
O35 O 0.0656(6) -0.0573(6) 0.3700(7)
H70 H 0.0258 -0.0683 0.3855
C43 C 0.6825(7) 0.2086(8) 0.2073(9)
H71 H 0.6863 0.2001 0.1429
C44 C 0.6048(7) 0.1362(8) 0.1924(8)
H72 H 0.6117 0.0729 0.1694
C45 C 0.6006(8) 0.1480(9) 0.2890(10)
H73 H 0.5917 0.2101 0.3123
C46 C 0.6848(7) 0.1417(8) 0.3675(9)
H74 H 0.6925 0.0787 0.3456
C47 C 0.7574(8) 0.2142(9) 0.3798(9)
H75 H 0.7490 0.2767 0.4025
C48 C 0.8448(8) 0.2134(10) 0.4529(11)
H76 H 0.8444 0.2128 0.5170
H77 H 0.8578 0.1560 0.4255
C49 C 0.6939(7) 0.5506(8) 0.1961(9)
H78 H 0.6987 0.6028 0.1682
C50 C 0.6095(7) 0.4764(7) 0.1253(8)
H79 H 0.6078 0.4496 0.0586
C51 C 0.6016(7) 0.4018(8) 0.1717(10)
H80 H 0.6002 0.4275 0.2369
C52 C 0.6760(8) 0.3618(8) 0.1865(9)
H81 H 0.6717 0.3273 0.1204
C53 C 0.7599(7) 0.4375(7) 0.2474(9)
H82 H 0.7676 0.4639 0.3171
C54 C 0.8370(8) 0.3982(9) 0.2511(10)
H83 H 0.8903 0.4495 0.2864
H84 H 0.8426 0.3528 0.2882
C55 C 0.7600(8) 0.8486(9) 0.4965(8)
H85 H 0.7807 0.9181 0.5229
C56 C 0.6775(7) 0.8182(8) 0.3996(9)
H86 H 0.6882 0.8477 0.3525
C57 C 0.6486(7) 0.7137(7) 0.3502(8)
H87 H 0.6355 0.6827 0.3950
C58 C 0.7232(7) 0.6851(8) 0.3355(9)
H88 H 0.7381 0.7162 0.2918
C59 C 0.7974(7) 0.7113(8) 0.4362(9)
H89 H 0.7813 0.6808 0.4796
C60 C 0.8783(8) 0.6875(11) 0.4320(11)
H90 H 0.9271 0.7132 0.4996
H91 H 0.8681 0.6192 0.4088
C61 C 0.7826(7) 0.9034(8) 0.8576(9)
H92 H 0.7956 0.9419 0.9264
C62 C 0.7027(7) 0.9185(9) 0.7801(9)
H93 H 0.7147 0.9852 0.7831
C63 C 0.6851(6) 0.8598(8) 0.6807(8)
H94 H 0.6713 0.7930 0.6769
C64 C 0.7619(8) 0.8820(9) 0.6623(8)
H95 H 0.7718 0.9459 0.6569
C65 C 0.8406(8) 0.8739(8) 0.7424(8)
H96 H 0.8345 0.8070 0.7381
C66 C 0.9205(7) 0.9122(8) 0.7346(9)
H97 H 0.9708 0.9116 0.7932
H98 H 0.9194 0.8714 0.6738
C67 C 0.7731(7) 0.6347(8) 1.0201(10)
H99 H 0.7826 0.6136 1.0795
C68 C 0.7017(7) 0.6791(8) 1.0004(9)
H100 H 0.7198 0.7349 1.0601
C69 C 0.6878(8) 0.7133(8) 0.9107(10)
H101 H 0.6728 0.6593 0.8504
C70 C 0.7706(7) 0.7816(8) 0.9357(9)
H102 H 0.7839 0.8382 0.9925
C71 C 0.8439(8) 0.7369(8) 0.9617(10)
H103 H 0.8331 0.6860 0.9007
C72 C 0.9287(9) 0.8067(11) 0.9969(13)
H104 H 0.9751 0.7761 1.0134
H105 H 0.9277 0.8334 0.9438
C73 C 0.7323(7) 0.2736(7) 0.8630(8)
H106 H 0.7328 0.2110 0.8713
C74 C 0.6649(7) 0.3051(8) 0.8861(9)
H107 H 0.6775 0.3082 0.9563
C75 C 0.6621(7) 0.3992(8) 0.8753(9)
H108 H 0.6501 0.3977 0.8056
C76 C 0.7514(8) 0.4668(8) 0.9517(10)
H109 H 0.7620 0.4724 1.0219
C77 C 0.8188(7) 0.4334(7) 0.9297(9)
H110 H 0.8107 0.4363 0.8623
C78 C 0.9087(8) 0.4887(8) 1.0066(9)
H111 H 0.9499 0.4669 0.9852
H112 H 0.9166 0.5554 1.0127
C79 C 0.6839(7) 0.0829(8) 0.5031(9)
H113 H 0.6786 0.0255 0.4520
C80 C 0.6111(7) 0.0647(7) 0.5264(8)
H114 H 0.6139 0.0133 0.5563
C81 C 0.6180(8) 0.1538(9) 0.6029(9)
H115 H 0.6136 0.2057 0.5738
C82 C 0.7039(7) 0.1782(8) 0.6940(8)
H116 H 0.7051 0.1292 0.7271
C83 C 0.7776(8) 0.1901(8) 0.6675(9)
H117 H 0.7807 0.2445 0.6425
C84 C 0.8611(8) 0.2029(9) 0.7543(8)
H118 H 0.9053 0.2023 0.7306
H119 H 0.8773 0.2647 0.8043
O36 O 0.6701(5) 0.2988(5) 0.2417(6)
O37 O 0.5298(5) 0.1434(5) 0.1157(6)
H120 H 0.5258 0.1979 0.1310
O38 O 0.5289(5) 0.0741(6) 0.2730(6)
H121 H 0.5334 0.0709 0.3285
O39 O 0.7589(5) 0.2015(5) 0.2830(6)
O40 O 0.9100(6) 0.2933(7) 0.4710(7)
H122 H 0.9171 0.3364 0.5208
O41 O 0.6946(5) 0.5847(5) 0.2895(6)
O42 O 0.5417(5) 0.5211(5) 0.1150(6)
H123 H 0.5020 0.4863 0.1178
O43 O 0.5253(5) 0.3255(6) 0.1026(6)
H124 H 0.5098 0.2958 0.1348
O44 O 0.7636(5) 0.5105(5) 0.2053(6)
O45 O 0.8227(7) 0.3532(6) 0.1498(7)
H125 H 0.8642 0.3768 0.1416
O46 O 0.7400(5) 0.8137(5) 0.5678(6)
O47 O 0.6149(5) 0.8512(5) 0.4199(6)
H126 H 0.6374 0.9042 0.4634
O48 O 0.5745(5) 0.6875(6) 0.2562(6)
H127 H 0.5652 0.7354 0.2415
O49 O 0.8237(5) 0.8119(5) 0.4814(6)
O50 O 0.8970(6) 0.7271(7) 0.3643(9)
H128 H 0.8620 0.7568 0.3422
O51 O 0.7600(5) 0.8068(5) 0.8474(6)
O52 O 0.6324(5) 0.8967(5) 0.8023(7)
H129 H 0.6355 0.9425 0.8469
O53 O 0.6118(6) 0.8762(6) 0.6072(7)
H130 H 0.6086 0.8551 0.5500
O54 O 0.8538(5) 0.9270(5) 0.8397(6)
O55 O 0.9287(6) 1.0040(6) 0.7304(8)
H131 H 0.9468 1.0415 0.7881
O56 O 0.7495(6) 0.5547(5) 0.9344(6)
O57 O 0.6251(5) 0.6191(5) 0.9867(6)
H132 H 0.6166 0.5657 0.9490
O58 O 0.6204(5) 0.7574(6) 0.8912(7)
H133 H 0.6332 0.8031 0.9417
O59 O 0.8505(5) 0.6979(6) 1.0398(6)
O60 O 0.9425(7) 0.8798(8) 1.0857(9)
H134 H 0.9555 0.9320 1.0791
O61 O 0.7133(5) 0.2665(5) 0.7617(6)
O62 O 0.5839(5) 0.2374(6) 0.8180(6)
H135 H 0.5671 0.2079 0.8496
O63 O 0.6014(5) 0.4332(5) 0.9018(6)
H136 H 0.5520 0.4018 0.8586
O64 O 0.8134(5) 0.3377(5) 0.9298(6)
O65 O 0.9237(6) 0.4768(6) 1.1027(6)
H137 H 0.8856 0.4902 1.1178
O66 O 0.6787(5) 0.1560(5) 0.4604(6)
O67 O 0.5328(5) 0.0391(6) 0.4393(6)
H138 H 0.5117 0.0842 0.4390
O68 O 0.5481(5) 0.1312(6) 0.6276(6)
H139 H 0.5654 0.1546 0.6895
O69 O 0.7629(5) 0.1045(5) 0.5884(6)
O70 O 0.8603(6) 0.1346(6) 0.8011(6)
H140 H 0.8783 0.0924 0.7774
C85 C 0.4958(13) 0.383(2) 0.6326(15)
H141 H 0.5004 0.3546 0.6824
C86 C 0.5059(16) 0.481(2) 0.6595(16)
H142 H 0.5105 0.5134 0.7227
C87 C 0.5088(18) 0.526(3) 0.597(3)
H143 H 0.5194 0.5922 0.6167
C88 C 0.4956(12) 0.4743(15) 0.4939(17)
C89 C 0.4863(13) 0.382(2) 0.481(2)
C90 C 0.4717(12) 0.3192(16) 0.3798(15)
C91 C 0.4735(13) 0.3629(16) 0.3177(15)
H144 H 0.4686 0.3266 0.2557
C92 C 0.4814(16) 0.453(3) 0.331(2)
H145 H 0.4781 0.4750 0.2776
C93 C 0.4947(13) 0.518(2) 0.423(2)
H146 H 0.5020 0.5826 0.4341
N1 N 0.4805(10) 0.3290(12) 0.5428(14)
O71 O 0.4633(10) 0.2279(13) 0.3670(13)
H147 H 0.4671 0.2172 0.4195
C94 C 0.1906(16) 0.386(4) 0.382(3)
H148 H 0.2211 0.4413 0.4433
H149 H 0.1942 0.3302 0.4041
C95 C 0.1026(7) 0.3847(8) 0.3356(9)
H150 H 0.0665 0.3214 0.3147
H151 H 0.0912 0.4052 0.2769
H152 H 0.0901 0.4268 0.3832
O72 O 0.232(3) 0.388(8) 0.323(4)
H153 H 0.2771 0.4310 0.3544
C96 C 0.758(2) 0.523(4) 0.622(5)
H154 H 0.7789 0.4990 0.6797
H155 H 0.7236 0.5651 0.6329
C97 C 0.8332(10) 0.5718(13) 0.6055(15)
H156 H 0.8867 0.5639 0.6511
H157 H 0.8373 0.6382 0.6187
H158 H 0.8225 0.5437 0.5362
O73 O 0.718(7) 0.459(10) 0.542(7)
H159 H 0.6738 0.4286 0.5408
O74 O 0.0169(7) 0.3548(8) 0.1303(8)
O75 O 0.4649(6) 0.0289(6) 0.7538(6)
O76 O 0.5654(6) 0.9285(7) 0.0030(7)
O77 O 0.7871(6) 0.1706(6) 0.0581(7)
O78 O 0.4737(6) 0.7134(7) 0.0591(7)
O79 O 0.1678(6) 0.9482(6) 0.7051(7)
O80 O 0.6220(6) 0.0534(6) 0.9260(7)
O81 O 0.9733(6) 0.6290(7) 0.2688(7)
O82 O 0.0212(7) 0.7855(8) 0.2198(7)
O83 O 0.5087(7) 0.1963(7) 0.9277(8)
O84 O 0.9111(7) 0.1732(7) 0.9990(7)
O85 O 0.9579(8) 0.7128(9) 0.7702(10)
O86 O 0.0705(8) 0.6642(8) 0.9294(8)
O87 O 0.0015(8) 0.2460(8) 0.3712(9)
O88 O 0.4207(8) 0.9563(9) 0.0175(10)
O89 O 0.3326(8) 0.0510(10) 0.8329(9)
O90 O 0.0786(8) 0.5544(8) 0.4106(9)
O91 O 0.5545(11) 0.8944(8) 0.2483(9)
O92 O 0.9452(8) 0.4720(10) 0.5984(11)
O93 O 0.9973(11) 0.4733(9) 0.8110(10)
O94 O 0.0447(8) 0.0461(8) 0.6637(12)
O95 O 0.0611(10) 0.7711(9) 0.6856(13)
O96 O 0.2286(12) 0.7469(11) 0.9434(13)
O97 O 0.3784(10) 0.8572(10) 0.1402(15)
O98 O 0.6626(14) 0.8817(15) 0.1677(12)
O99 O 0.2343(11) 0.9130(11) 0.9005(12)
O100 O 0.8628(16) 0.0998(11) 0.2059(12)
O101 O 0.8384(17) 0.942(3) 0.232(4)
O102 O 0.9367(13) 0.9201(14) 0.411(2)
O103 O 0.906(2) 0.0401(18) 0.528(2)
loop_
_geom_bond_atom_site_label_1
_geom_bond_atom_site_label_2
_geom_bond_site_symmetry_1
_geom_bond_site_symmetry_2
C1 H1 1_555 1_555
C2 C1 1_555 1_555
H2 C2 1_555 1_555
C3 C2 1_555 1_555
H3 C3 1_555 1_555
C4 C3 1_555 1_555
H4 C4 1_555 1_555
C5 C4 1_555 1_555
H5 C5 1_555 1_555
C6 C5 1_555 1_555
H6 C6 1_555 1_555
H7 C6 1_555 1_555
C7 H8 1_555 1_555
C8 C7 1_555 1_555
H9 C8 1_555 1_555
C9 C8 1_555 1_555
H10 C9 1_555 1_555
C10 C9 1_555 1_555
H11 C10 1_555 1_555
C11 C10 1_555 1_555
H12 C11 1_555 1_555
C12 C11 1_555 1_555
H13 C12 1_555 1_555
H14 C12 1_555 1_555
C13 H15 1_555 1_555
C14 C13 1_555 1_555
H16 C14 1_555 1_555
C15 C14 1_555 1_555
H17 C15 1_555 1_555
C16 C15 1_555 1_555
H18 C16 1_555 1_555
C17 C16 1_555 1_555
H19 C17 1_555 1_555
C18 C17 1_555 1_555
H20 C18 1_555 1_555
H21 C18 1_555 1_555
C19 H22 1_555 1_555
C20 C19 1_555 1_555
H23 C20 1_555 1_555
C21 C20 1_555 1_555
H24 C21 1_555 1_555
C22 C21 1_555 1_555
H25 C22 1_555 1_555
C23 C22 1_555 1_555
H26 C23 1_555 1_555
C24 C23 1_555 1_555
H27 C24 1_555 1_555
H28 C24 1_555 1_555
C25 H29 1_555 1_555
C26 C25 1_555 1_555
H30 C26 1_555 1_555
C27 C26 1_555 1_555
H31 C27 1_555 1_555
C28 C27 1_555 1_555
H32 C28 1_555 1_555
C29 C28 1_555 1_555
H33 C29 1_555 1_555
C30 C29 1_555 1_555
H34 C30 1_555 1_555
H35 C30 1_555 1_555
C31 H36 1_555 1_555
C32 C31 1_555 1_555
H37 C32 1_555 1_555
C33 C32 1_555 1_555
H38 C33 1_555 1_555
C34 C33 1_555 1_555
H39 C34 1_555 1_555
C35 C34 1_555 1_555
H40 C35 1_555 1_555
C36 C35 1_555 1_555
H41 C36 1_555 1_555
H42 C36 1_555 1_555
C37 H43 1_555 1_555
C38 C37 1_555 1_555
H44 C38 1_555 1_555
C39 C38 1_555 1_555
H45 C39 1_555 1_555
C40 C39 1_555 1_555
H46 C40 1_555 1_555
C41 C40 1_555 1_555
H47 C41 1_555 1_555
C42 C41 1_555 1_555
H48 C42 1_555 1_555
H49 C42 1_555 1_555
O1 C1 1_555 1_555
O2 C2 1_555 1_555
H50 O2 1_555 1_555
O3 C3 1_555 1_555
H51 O3 1_555 1_555
O4 C1 1_555 1_555
O5 C6 1_555 1_555
H52 O5 1_555 1_555
O6 C4 1_555 1_555
O7 C8 1_555 1_555
H53 O7 1_555 1_555
O8 C9 1_555 1_555
H54 O8 1_555 1_555
O9 C7 1_555 1_555
O10 C12 1_555 1_555
H55 O10 1_555 1_555
O11 C10 1_555 1_555
O12 C14 1_555 1_555
H56 O12 1_555 1_555
O13 C15 1_555 1_555
H57 O13 1_555 1_555
O14 C13 1_555 1_555
O15 C18 1_555 1_555
H58 O15 1_555 1_555
O16 C16 1_555 1_555
O17 C20 1_555 1_555
H59 O17 1_555 1_555
O18 C21 1_555 1_555
H60 O18 1_555 1_555
O19 C19 1_555 1_555
O20 C24 1_555 1_555
H61 O20 1_555 1_555
O21 C22 1_555 1_555
O22 C26 1_555 1_555
H62 O22 1_555 1_555
O23 C27 1_555 1_555
H63 O23 1_555 1_555
O24 C25 1_555 1_555
O25 C30 1_555 1_555
H64 O25 1_555 1_555
O26 C28 1_555 1_555
O27 C32 1_555 1_555
H65 O27 1_555 1_555
O28 C33 1_555 1_555
H66 O28 1_555 1_555
O29 C31 1_555 1_555
O30 C36 1_555 1_555
H67 O30 1_555 1_555
O31 C34 1_555 1_555
O32 C38 1_555 1_555
H68 O32 1_555 1_555
O33 C39 1_555 1_555
H69 O33 1_555 1_555
O34 C37 1_555 1_555
O35 C42 1_555 1_555
H70 O35 1_555 1_555
C43 H71 1_555 1_555
C44 C43 1_555 1_555
H72 C44 1_555 1_555
C45 C44 1_555 1_555
H73 C45 1_555 1_555
C46 C45 1_555 1_555
H74 C46 1_555 1_555
C47 C46 1_555 1_555
H75 C47 1_555 1_555
C48 C47 1_555 1_555
H76 C48 1_555 1_555
H77 C48 1_555 1_555
C49 H78 1_555 1_555
C50 C49 1_555 1_555
H79 C50 1_555 1_555
C51 C50 1_555 1_555
H80 C51 1_555 1_555
C52 C51 1_555 1_555
H81 C52 1_555 1_555
C53 C52 1_555 1_555
H82 C53 1_555 1_555
C54 C53 1_555 1_555
H83 C54 1_555 1_555
H84 C54 1_555 1_555
C55 H85 1_555 1_555
C56 C55 1_555 1_555
H86 C56 1_555 1_555
C57 C56 1_555 1_555
H87 C57 1_555 1_555
C58 C57 1_555 1_555
H88 C58 1_555 1_555
C59 C58 1_555 1_555
H89 C59 1_555 1_555
C60 C59 1_555 1_555
H90 C60 1_555 1_555
H91 C60 1_555 1_555
C61 H92 1_555 1_555
C62 C61 1_555 1_555
H93 C62 1_555 1_555
C63 C62 1_555 1_555
H94 C63 1_555 1_555
C64 C63 1_555 1_555
H95 C64 1_555 1_555
C65 C64 1_555 1_555
H96 C65 1_555 1_555
C66 C65 1_555 1_555
H97 C66 1_555 1_555
H98 C66 1_555 1_555
C67 H99 1_555 1_555
C68 C67 1_555 1_555
H100 C68 1_555 1_555
C69 C68 1_555 1_555
H101 C69 1_555 1_555
C70 C69 1_555 1_555
H102 C70 1_555 1_555
C71 C70 1_555 1_555
H103 C71 1_555 1_555
C72 C71 1_555 1_555
H104 C72 1_555 1_555
H105 C72 1_555 1_555
C73 H106 1_555 1_555
C74 C73 1_555 1_555
H107 C74 1_555 1_555
C75 C74 1_555 1_555
H108 C75 1_555 1_555
C76 C75 1_555 1_555
H109 C76 1_555 1_555
C77 C76 1_555 1_555
H110 C77 1_555 1_555
C78 C77 1_555 1_555
H111 C78 1_555 1_555
H112 C78 1_555 1_555
C79 H113 1_555 1_555
C80 C79 1_555 1_555
H114 C80 1_555 1_555
C81 C80 1_555 1_555
H115 C81 1_555 1_555
C82 C81 1_555 1_555
H116 C82 1_555 1_555
C83 C82 1_555 1_555
H117 C83 1_555 1_555
C84 C83 1_555 1_555
H118 C84 1_555 1_555
H119 C84 1_555 1_555
O36 C43 1_555 1_555
O37 C44 1_555 1_555
H120 O37 1_555 1_555
O38 C45 1_555 1_555
H121 O38 1_555 1_555
O39 C43 1_555 1_555
O40 C48 1_555 1_555
H122 O40 1_555 1_555
O41 C49 1_555 1_555
O42 C50 1_555 1_555
H123 O42 1_555 1_555
O43 C51 1_555 1_555
H124 O43 1_555 1_555
O44 C49 1_555 1_555
O45 C54 1_555 1_555
H125 O45 1_555 1_555
O46 C55 1_555 1_555
O47 C56 1_555 1_555
H126 O47 1_555 1_555
O48 C57 1_555 1_555
H127 O48 1_555 1_555
O49 C55 1_555 1_555
O50 C60 1_555 1_555
H128 O50 1_555 1_555
O51 C61 1_555 1_555
O52 C62 1_555 1_555
H129 O52 1_555 1_555
O53 C63 1_555 1_555
H130 O53 1_555 1_555
O54 C61 1_555 1_555
O55 C66 1_555 1_555
H131 O55 1_555 1_555
O56 C67 1_555 1_555
O57 C68 1_555 1_555
H132 O57 1_555 1_555
O58 C69 1_555 1_555
H133 O58 1_555 1_555
O59 C67 1_555 1_555
O60 C72 1_555 1_555
H134 O60 1_555 1_555
O61 C73 1_555 1_555
O62 C74 1_555 1_555
H135 O62 1_555 1_555
O63 C75 1_555 1_555
H136 O63 1_555 1_555
O64 C73 1_555 1_555
O65 C78 1_555 1_555
H137 O65 1_555 1_555
O66 C46 1_555 1_555
O67 C80 1_555 1_555
H138 O67 1_555 1_555
O68 C81 1_555 1_555
H139 O68 1_555 1_555
O69 C79 1_555 1_555
O70 C84 1_555 1_555
H140 O70 1_555 1_555
C85 H141 1_555 1_555
C86 C85 1_555 1_555
H142 C86 1_555 1_555
C87 C86 1_555 1_555
H143 C87 1_555 1_555
C88 C87 1_555 1_555
C89 C88 1_555 1_555
C90 C89 1_555 1_555
C91 C90 1_555 1_555
H144 C91 1_555 1_555
C92 C91 1_555 1_555
H145 C92 1_555 1_555
C93 C88 1_555 1_555
H146 C93 1_555 1_555
N1 C85 1_555 1_555
O71 C90 1_555 1_555
H147 O71 1_555 1_555
C94 H148 1_555 1_555
H149 C94 1_555 1_555
C95 C94 1_555 1_555
H150 C95 1_555 1_555
H151 C95 1_555 1_555
H152 C95 1_555 1_555
O72 C94 1_555 1_555
H153 O72 1_555 1_555
C96 H154 1_555 1_555
H155 C96 1_555 1_555
C97 C96 1_555 1_555
H156 C97 1_555 1_555
H157 C97 1_555 1_555
H158 C97 1_555 1_555
O73 C96 1_555 1_555
H159 O73 1_555 1_555
C5 O4 1_555 1_555
C7 O6 1_555 1_555
C11 O9 1_555 1_555
C13 O11 1_555 1_555
C17 O14 1_555 1_555
C19 O16 1_555 1_555
C23 O19 1_555 1_555
C25 O21 1_555 1_555
C29 O24 1_555 1_555
C31 O26 1_555 1_555
C35 O29 1_555 1_555
C37 O31 1_555 1_555
C40 O1 1_555 1_555
C41 O34 1_555 1_555
C47 O39 1_555 1_555
C52 O36 1_555 1_555
C53 O44 1_555 1_555
C58 O41 1_555 1_555
C59 O49 1_555 1_555
C64 O46 1_555 1_555
C65 O54 1_555 1_555
C70 O51 1_555 1_555
C71 O59 1_555 1_555
C76 O56 1_555 1_555
C77 O64 1_555 1_555
C79 O66 1_555 1_555
C82 O61 1_555 1_555
C83 O69 1_555 1_555
C89 N1 1_555 1_555
C92 C93 1_555 1_555

#END
