
#######################################################################
#
#                 Cambridge Crystallographic Data Centre
#                                CCDC 
#
#######################################################################
#
# If this CIF has been generated from an entry in the Cambridge 
# Structural Database, then it will include bibliographic, chemical, 
# crystal, experimental, refinement or atomic coordinate data resulting 
# from the CCDC's data processing and validation procedures.
#
#######################################################################

data_UJEHIC
_chemical_formula_moiety         'C40 H32 Br2 N2 O4 S2'
_chemical_name_systematic        
N,N'-(Azulene-1,3-diylbis(2-(2-bromophenyl)ethene-2,1-diyl))bis(4-methylbenzenesulfonamide)
_symmetry_cell_setting           monoclinic
_symmetry_space_group_name_H-M   'C 2/c'
_symmetry_Int_Tables_number      15
_space_group_name_Hall           '-C 2yn'
loop_
_symmetry_equiv_pos_site_id
_symmetry_equiv_pos_as_xyz
1 x,y,z
2 -x,y,1/2-z
3 1/2+x,1/2+y,z
4 1/2-x,1/2+y,1/2-z
5 -x,-y,-z
6 x,-y,1/2+z
7 1/2-x,1/2-y,-z
8 1/2+x,1/2-y,1/2+z
_cell_length_a                   19.6374(12)
_cell_length_b                   10.7807(7)
_cell_length_c                   17.6991(11)
_cell_angle_alpha                90
_cell_angle_beta                 96.6440(10)
_cell_angle_gamma                90
_cell_volume                     3721.82
_exptl_crystal_colour            'dark blue'
_exptl_crystal_description       plate
_cell_formula_units_Z            4
loop_
_atom_site_label
_atom_site_type_symbol
_atom_site_fract_x
_atom_site_fract_y
_atom_site_fract_z
Br1 Br 0.15737(3) 0.58890(4) 0.15092(3)
S1 S 0.10953(4) 0.94696(8) -0.01360(4)
O1 O 0.05847(12) 1.0218(2) -0.05591(12)
O2 O 0.18022(11) 0.9756(2) -0.01436(12)
N1 N 0.09322(14) 0.9563(3) 0.07458(13)
C1 C 0.09823(16) 0.7908(3) -0.04076(17)
C2 C 0.0805(2) 0.5425(4) -0.0790(2)
C3 C 0.03396(19) 0.7387(4) -0.0459(2)
H1 H -0.0037 0.7865 -0.0368
C4 C 0.1444(2) 0.5965(5) -0.0729(3)
H2 H 0.1821 0.5488 -0.0818
C5 C 0.1536(2) 0.7198(4) -0.0540(2)
H3 H 0.1972 0.7547 -0.0502
C6 C 0.0257(2) 0.6152(4) -0.0647(3)
H4 H -0.0177 0.5801 -0.0678
C7 C 0.0696(3) 0.4075(5) -0.1022(4)
H5 H 0.0843 0.395 -0.1516
H6 H 0.0219 0.3871 -0.1039
H7 H 0.0959 0.3552 -0.0659
C8 C 0.11659(14) 0.8671(3) 0.20051(15)
C9 C 0.13380(15) 0.8907(3) 0.13149(16)
H8 H 0.176 0.8613 0.1201
C10 C 0.18821(17) 0.6763(3) 0.24182(19)
C11 C 0.16436(14) 0.7952(3) 0.25548(16)
C12 C 0.18665(17) 0.8487(3) 0.32527(18)
H9 H 0.1705 0.9268 0.3368
C13 C 0.25618(19) 0.6722(4) 0.3624(2)
H10 H 0.2875 0.6321 0.3977
C14 C 0.23256(19) 0.7880(4) 0.3781(2)
H11 H 0.2474 0.8259 0.4243
C15 C 0.05264(14) 0.9135(3) 0.22703(15)
C16 C 0.03430(14) 1.0379(3) 0.23609(15)
C17 C 0.000 0.8398(4) 0.250
H12 H 0.000 0.7536 0.250
C18 C 0.07490(17) 1.1402(3) 0.22561(18)
H13 H 0.118 1.1226 0.2113
C19 C 0.0603(2) 1.2649(3) 0.2334(2)
H14 H 0.0958 1.3194 0.2266
C20 C 0.000 1.3190(5) 0.250
H15 H 0.000 1.4053 0.250
C21 C 0.23373(19) 0.6154(4) 0.2948(2)
H16 H 0.249 0.5362 0.2845
H17 H 0.0510(17) 0.960(3) 0.0779(17)
Br1A Br -0.15737(3) 0.58890(4) 0.34908(3)
S1A S -0.10953(4) 0.94696(8) 0.51360(4)
O1A O -0.05847(12) 1.0218(2) 0.55591(12)
O2A O -0.18022(11) 0.9756(2) 0.51436(12)
N1A N -0.09322(14) 0.9563(3) 0.42542(13)
C1A C -0.09823(16) 0.7908(3) 0.54076(17)
C2A C -0.0805(2) 0.5425(4) 0.5790(2)
C3A C -0.03396(19) 0.7387(4) 0.5459(2)
H1A H 0.0037 0.7865 0.5368
C4A C -0.1444(2) 0.5965(5) 0.5729(3)
H2A H -0.1821 0.5488 0.5818
C5A C -0.1536(2) 0.7198(4) 0.5540(2)
H3A H -0.1972 0.7547 0.5502
C6A C -0.0257(2) 0.6152(4) 0.5647(3)
H4A H 0.0177 0.5801 0.5678
C7A C -0.0696(3) 0.4075(5) 0.6022(4)
H5A H -0.0843 0.395 0.6516
H6A H -0.0219 0.3871 0.6039
H7A H -0.0959 0.3552 0.5659
C8A C -0.11659(14) 0.8671(3) 0.29949(15)
C9A C -0.13380(15) 0.8907(3) 0.36851(16)
H8A H -0.176 0.8613 0.3799
C10A C -0.18821(17) 0.6763(3) 0.25818(19)
C11A C -0.16436(14) 0.7952(3) 0.24452(16)
C12A C -0.18665(17) 0.8487(3) 0.17473(18)
H9A H -0.1705 0.9268 0.1632
C13A C -0.25618(19) 0.6722(4) 0.1376(2)
H10A H -0.2875 0.6321 0.1023
C14A C -0.23256(19) 0.7880(4) 0.1219(2)
H11A H -0.2474 0.8259 0.0757
C15A C -0.05264(14) 0.9135(3) 0.27297(15)
C16A C -0.03430(14) 1.0379(3) 0.26391(15)
C18A C -0.07490(17) 1.1402(3) 0.27439(18)
H13A H -0.118 1.1226 0.2887
C19A C -0.0603(2) 1.2649(3) 0.2666(2)
H14A H -0.0958 1.3194 0.2734
C21A C -0.23373(19) 0.6154(4) 0.2052(2)
H16A H -0.249 0.5362 0.2155
H17A H -0.0510(17) 0.960(3) 0.4221(17)
loop_
_geom_bond_atom_site_label_1
_geom_bond_atom_site_label_2
_geom_bond_site_symmetry_1
_geom_bond_site_symmetry_2
Br1 C10 1_555 1_555
S1 O1 1_555 1_555
O2 S1 1_555 1_555
N1 S1 1_555 1_555
C1 S1 1_555 1_555
C2 C4 1_555 1_555
C3 C1 1_555 1_555
H1 C3 1_555 1_555
C4 H2 1_555 1_555
C5 C1 1_555 1_555
H3 C5 1_555 1_555
C6 C2 1_555 1_555
H4 C6 1_555 1_555
C7 C2 1_555 1_555
H5 C7 1_555 1_555
H6 C7 1_555 1_555
H7 C7 1_555 1_555
C8 C9 1_555 1_555
C9 N1 1_555 1_555
H8 C9 1_555 1_555
C10 C11 1_555 1_555
C11 C8 1_555 1_555
C12 C11 1_555 1_555
H9 C12 1_555 1_555
C13 H10 1_555 1_555
C14 C12 1_555 1_555
H11 C14 1_555 1_555
C15 C8 1_555 1_555
C16 C15 1_555 1_555
C17 C15 1_555 1_555
H12 C17 1_555 1_555
C18 C16 1_555 1_555
H13 C18 1_555 1_555
C19 C18 1_555 1_555
H14 C19 1_555 1_555
C20 C19 1_555 1_555
H15 C20 1_555 1_555
C21 C10 1_555 1_555
H16 C21 1_555 1_555
H17 N1 1_555 1_555
Br1A C10A 1_555 1_555
S1A O1A 1_555 1_555
O2A S1A 1_555 1_555
N1A S1A 1_555 1_555
C1A S1A 1_555 1_555
C2A C4A 1_555 1_555
C3A C1A 1_555 1_555
H1A C3A 1_555 1_555
C4A H2A 1_555 1_555
C5A C1A 1_555 1_555
H3A C5A 1_555 1_555
C6A C2A 1_555 1_555
H4A C6A 1_555 1_555
C7A C2A 1_555 1_555
H5A C7A 1_555 1_555
H6A C7A 1_555 1_555
H7A C7A 1_555 1_555
C8A C9A 1_555 1_555
C9A N1A 1_555 1_555
H8A C9A 1_555 1_555
C10A C11A 1_555 1_555
C11A C8A 1_555 1_555
C12A C11A 1_555 1_555
H9A C12A 1_555 1_555
C13A H10A 1_555 1_555
C14A C12A 1_555 1_555
H11A C14A 1_555 1_555
C15A C17 1_555 1_555
C16A C16 1_555 1_555
C18A C16A 1_555 1_555
H13A C18A 1_555 1_555
C19A C20 1_555 1_555
H14A C19A 1_555 1_555
C21A C10A 1_555 1_555
H16A C21A 1_555 1_555
H17A N1A 1_555 1_555
C3 C6 1_555 1_555
C4 C5 1_555 1_555
C13 C14 1_555 1_555
C13 C21 1_555 1_555
C3A C6A 1_555 1_555
C4A C5A 1_555 1_555
C8A C15A 1_555 1_555
C13A C14A 1_555 1_555
C13A C21A 1_555 1_555
C15A C16A 1_555 1_555
C18A C19A 1_555 1_555

#END
