
#######################################################################
#
#                 Cambridge Crystallographic Data Centre
#                                CCDC 
#
#######################################################################
#
# If this CIF has been generated from an entry in the Cambridge 
# Structural Database, then it will include bibliographic, chemical, 
# crystal, experimental, refinement or atomic coordinate data resulting 
# from the CCDC's data processing and validation procedures.
#
#######################################################################

data_UJEPII
_chemical_formula_moiety         'C30 H30 N16,2(C1 H1 Cl3)'
_chemical_name_systematic        
"Pyrimidine-4,6-dicarboxaldehyde 4,4'-bis(methyl(2-pyridyl)hydrazone) 6,6'-((pyrimidin-4,6-diyl)bis(methylhydrazone)) chloroform solvate"
_symmetry_cell_setting           triclinic
_symmetry_space_group_name_H-M   'P -1'
_symmetry_Int_Tables_number      2
_space_group_name_Hall           '-P 1'
loop_
_symmetry_equiv_pos_site_id
_symmetry_equiv_pos_as_xyz
1 x,y,z
2 -x,-y,-z
_cell_length_a                   11.4802(2)
_cell_length_b                   13.4750(2)
_cell_length_c                   13.7730(3)
_cell_angle_alpha                110.805(5)
_cell_angle_beta                 96.450(5)
_cell_angle_gamma                101.830(5)
_cell_volume                     1909.06
_exptl_crystal_colour            colorless
_exptl_crystal_description       prism
_chemical_melting_point          'above 250deg.C'
_cell_formula_units_Z            2
_exptl_crystal_recrystallization_method chloroform/acetonitrile
loop_
_atom_site_label
_atom_site_type_symbol
_atom_site_fract_x
_atom_site_fract_y
_atom_site_fract_z
N1 N 0.2233(6) 0.4488(5) -0.0938(5)
C1 C 0.2411(8) 0.4276(7) -0.1932(7)
C2 C 0.2155(8) 0.4876(7) -0.2510(6)
C3 C 0.1699(8) 0.5753(6) -0.2050(6)
C4 C 0.1514(7) 0.6009(6) -0.1026(6)
C5 C 0.1779(6) 0.5335(5) -0.0512(5)
N2 N 0.1588(5) 0.5544(4) 0.0529(4)
C6 C 0.1799(7) 0.4828(6) 0.1072(6)
N3 N 0.1255(5) 0.6474(4) 0.1009(4)
C7 C 0.1038(6) 0.6720(5) 0.1944(5)
C8 C 0.0729(6) 0.7752(5) 0.2460(5)
N4 N 0.0422(5) 0.7917(4) 0.3424(4)
C9 C 0.0127(7) 0.8848(6) 0.3884(5)
N5 N 0.0086(5) 0.9644(4) 0.3536(4)
C10 C 0.0415(6) 0.9474(5) 0.2590(5)
C11 C 0.0748(6) 0.8542(5) 0.2029(5)
C12 C 0.0406(6) 1.0370(5) 0.2227(5)
N6 N 0.0961(5) 1.0397(4) 0.1471(4)
N7 N 0.0975(5) 1.1208(4) 0.1097(4)
C13 C 0.0303(7) 1.2016(5) 0.1462(6)
C14 C 0.1635(6) 1.1160(5) 0.0299(5)
N8 N 0.1598(5) 1.1912(4) -0.0129(4)
C15 C 0.2179(7) 1.1800(5) -0.0934(5)
N9 N 0.2795(5) 1.1072(4) -0.1343(4)
C16 C 0.2857(7) 1.0364(5) -0.0869(5)
C17 C 0.2290(6) 1.0392(5) -0.0016(5)
N10 N 0.3509(5) 0.9602(4) -0.1245(4)
C18 C 0.4098(8) 0.9517(6) -0.2145(5)
N11 N 0.3658(5) 0.8993(4) -0.0669(4)
C19 C 0.4258(6) 0.8275(5) -0.0940(5)
C20 C 0.4448(6) 0.7678(5) -0.0255(5)
N12 N 0.4985(5) 0.6860(4) -0.0626(4)
C21 C 0.5182(6) 0.6320(5) -0.0007(5)
N13 N 0.4935(5) 0.6528(4) 0.0961(4)
C22 C 0.4404(6) 0.7354(5) 0.1329(5)
C23 C 0.4098(6) 0.7927(5) 0.0722(5)
C24 C 0.4181(6) 0.7602(5) 0.2409(5)
N14 N 0.3857(5) 0.8479(4) 0.2881(4)
N15 N 0.3646(5) 0.8714(4) 0.3876(4)
C25 C 0.3689(7) 0.7939(6) 0.4384(6)
C26 C 0.3381(6) 0.9712(6) 0.4365(5)
C27 C 0.3320(7) 1.0442(6) 0.3860(5)
C28 C 0.3031(7) 1.1406(6) 0.4384(6)
C29 C 0.2832(7) 1.1644(7) 0.5420(6)
C30 C 0.2938(7) 1.0904(7) 0.5853(6)
N16 N 0.3207(5) 0.9940(5) 0.5361(4)
H1 H 0.2736 0.3672 -0.2254
H2 H 0.2291 0.4688 -0.3213
H3 H 0.1511 0.6184 -0.2432
H4 H 0.1215 0.6624 -0.0683
H5 H 0.1621 0.5103 0.1760
H6 H 0.1287 0.4106 0.0679
H7 H 0.2624 0.4806 0.1130
H8 H 0.1078 0.6236 0.2299
H9 H -0.0085 0.8963 0.4555
H10 H 0.0983 0.8442 0.1368
H11 H 0.0001 1.0916 0.2540
H12 H -0.0080 1.1907 0.2006
H13 H 0.0843 1.2733 0.1733
H14 H -0.0296 1.1942 0.0888
H15 H 0.2147 1.2312 -0.1258
H16 H 0.2354 0.9903 0.0331
H17 H 0.4495 0.8943 -0.2272
H18 H 0.3505 0.9359 -0.2756
H19 H 0.4678 1.0193 -0.1992
H20 H 0.4574 0.8130 -0.1570
H21 H 0.5536 0.5726 -0.0281
H22 H 0.3666 0.8468 0.0963
H23 H 0.4275 0.7118 0.2755
H24 H 0.3885 0.7311 0.3918
H25 H 0.4290 0.8279 0.5020
H26 H 0.2919 0.7719 0.4546
H27 H 0.3477 1.0272 0.3165
H28 H 0.2967 1.1905 0.4051
H29 H 0.2629 1.2304 0.5803
H30 H 0.2814 1.1073 0.6558
C31 C 0.4753(8) 0.4138(7) 0.3026(6)
Cl1 Cl 0.5658(3) 0.3608(2) 0.3732(2)
Cl2 Cl 0.5138(3) 0.5570(2) 0.3652(2)
Cl3 Cl 0.3223(3) 0.3611(3) 0.2974(3)
C32 C 0.959(1) 0.316(1) 0.4911(9)
Cl4 Cl 0.8567(3) 0.2431(4) 0.3781(3)
Cl5 Cl 0.8910(6) 0.4328(4) 0.5510(5)
Cl6 Cl 1.0983(4) 0.3354(6) 0.4589(3)
loop_
_geom_bond_atom_site_label_1
_geom_bond_atom_site_label_2
_geom_bond_site_symmetry_1
_geom_bond_site_symmetry_2
N1 C1 1_555 1_555
C1 C2 1_555 1_555
C2 C3 1_555 1_555
C3 C4 1_555 1_555
C4 C5 1_555 1_555
C5 N1 1_555 1_555
N2 C5 1_555 1_555
C6 N2 1_555 1_555
N3 N2 1_555 1_555
C7 N3 1_555 1_555
C8 C7 1_555 1_555
N4 C8 1_555 1_555
C9 N4 1_555 1_555
N5 C9 1_555 1_555
C10 N5 1_555 1_555
C11 C8 1_555 1_555
C12 C10 1_555 1_555
N6 C12 1_555 1_555
N7 N6 1_555 1_555
C13 N7 1_555 1_555
C14 N7 1_555 1_555
N8 C14 1_555 1_555
C15 N8 1_555 1_555
N9 C15 1_555 1_555
C16 N9 1_555 1_555
C17 C14 1_555 1_555
N10 C16 1_555 1_555
C18 N10 1_555 1_555
N11 N10 1_555 1_555
C19 N11 1_555 1_555
C20 C19 1_555 1_555
N12 C20 1_555 1_555
C21 N12 1_555 1_555
N13 C21 1_555 1_555
C22 N13 1_555 1_555
C23 C20 1_555 1_555
C24 C22 1_555 1_555
N14 C24 1_555 1_555
N15 N14 1_555 1_555
C25 N15 1_555 1_555
C26 N15 1_555 1_555
C27 C26 1_555 1_555
C28 C27 1_555 1_555
C29 C28 1_555 1_555
C30 C29 1_555 1_555
N16 C26 1_555 1_555
C31 Cl1 1_555 1_555
Cl2 C31 1_555 1_555
Cl3 C31 1_555 1_555
C32 Cl4 1_555 1_555
Cl5 C32 1_555 1_555
Cl6 C32 1_555 1_555
H1 C1 1_555 1_555
H2 C2 1_555 1_555
H3 C3 1_555 1_555
H4 C4 1_555 1_555
H5 C6 1_555 1_555
H6 C6 1_555 1_555
H7 C6 1_555 1_555
H8 C7 1_555 1_555
H9 C9 1_555 1_555
H10 C11 1_555 1_555
H11 C12 1_555 1_555
H12 C13 1_555 1_555
H13 C13 1_555 1_555
H14 C13 1_555 1_555
H15 C15 1_555 1_555
H16 C17 1_555 1_555
H17 C18 1_555 1_555
H18 C18 1_555 1_555
H19 C18 1_555 1_555
H20 C19 1_555 1_555
H21 C21 1_555 1_555
H22 C23 1_555 1_555
H23 C24 1_555 1_555
H24 C25 1_555 1_555
H25 C25 1_555 1_555
H26 C25 1_555 1_555
H27 C27 1_555 1_555
H28 C28 1_555 1_555
H29 C29 1_555 1_555
H30 C30 1_555 1_555
C10 C11 1_555 1_555
C16 C17 1_555 1_555
C22 C23 1_555 1_555
C30 N16 1_555 1_555

#END
