
#######################################################################
#
#                 Cambridge Crystallographic Data Centre
#                                CCDC 
#
#######################################################################
#
# If this CIF has been generated from an entry in the Cambridge 
# Structural Database, then it will include bibliographic, chemical, 
# crystal, experimental, refinement or atomic coordinate data resulting 
# from the CCDC's data processing and validation procedures.
#
#######################################################################

data_UJERAD
_chemical_formula_moiety         'C24 H27 N2 1+,C7 H7 O3 S1 1-'
_chemical_name_systematic        
'4-(2-(4-(Dimethylamino)phenyl)vinyl)-1-(2,5-dimethylbenzyl)pyridinium 4-methylbenzenesulfonate'
_symmetry_cell_setting           monoclinic
_symmetry_space_group_name_H-M   'P 21'
_symmetry_Int_Tables_number      4
_space_group_name_Hall           'P 2yb'
loop_
_symmetry_equiv_pos_site_id
_symmetry_equiv_pos_as_xyz
1 x,y,z
2 -x,1/2+y,-z
_cell_length_a                   7.6688(3)
_cell_length_b                   15.1880(6)
_cell_length_c                   11.8332(5)
_cell_angle_alpha                90
_cell_angle_beta                 101.3468(11)
_cell_angle_gamma                90
_cell_volume                     1351.32
_exptl_crystal_colour            red
_exptl_crystal_description       plate
_cell_formula_units_Z            2
loop_
_atom_site_label
_atom_site_type_symbol
_atom_site_fract_x
_atom_site_fract_y
_atom_site_fract_z
S1 S 0.43740(8) 0.79691(4) 0.83642(5)
O1 O 0.5104(2) 0.86599(13) 0.77467(17)
O2 O 0.3933(3) 0.82726(13) 0.94332(16)
O3 O 0.5448(2) 0.71803(12) 0.84922(18)
C25 C -0.0918(4) 0.7198(2) 0.6040(3)
C26 C 0.0682(4) 0.6852(2) 0.5879(3)
H28 H 0.0680 0.6458 0.5277
C27 C 0.2285(4) 0.7072(2) 0.6583(3)
H29 H 0.3337 0.6823 0.6455
C28 C 0.2320(3) 0.76625(15) 0.7476(2)
C29 C 0.0729(3) 0.8019(2) 0.7634(2)
H30 H 0.0732 0.8421 0.8227
C30 C -0.0857(3) 0.7795(2) 0.6936(3)
H31 H -0.1906 0.8047 0.7065
C31 C -0.2653(4) 0.6942(2) 0.5270(4)
H32 H -0.3617 0.7230 0.5529
H33 H -0.2805 0.6316 0.5299
H34 H -0.2639 0.7118 0.4493
N1 N 0.2004(3) 0.65298(15) 1.2922(2)
N2 N -1.1679(3) 0.52043(13) 0.91879(17)
C1 C 0.2911(5) 0.7358(2) 1.2931(4)
H1 H 0.4137 0.7286 1.3293
H2 H 0.2366 0.7783 1.3352
H3 H 0.2835 0.7559 1.2153
C2 C 0.3009(4) 0.5793(2) 1.3502(3)
H4 H 0.4223 0.5967 1.3770
H5 H 0.2966 0.5310 1.2973
H6 H 0.2503 0.5614 1.4146
C3 C 0.0238(3) 0.64586(17) 1.2464(2)
C4 C -0.0668(3) 0.56518(17) 1.2440(2)
H7 H -0.0059 0.5157 1.2773
C5 C -0.2439(3) 0.55795(18) 1.1936(2)
H8 H -0.2998 0.5037 1.1944
C6 C -0.3421(3) 0.62915(17) 1.1413(2)
C7 C -0.2556(4) 0.70847(18) 1.1452(2)
H9 H -0.3187 0.7575 1.1126
C8 C -0.0788(4) 0.71822(18) 1.1954(2)
H10 H -0.0259 0.7733 1.1958
C9 C -0.5281(3) 0.62170(17) 1.0838(2)
H11 H -0.5839 0.6728 1.0518
C10 C -0.6257(3) 0.54812(17) 1.0730(2)
H12 H -0.5695 0.4967 1.1036
C11 C -0.8111(3) 0.54158(16) 1.0177(2)
C12 C -0.9154(3) 0.61166(17) 0.9649(2)
H13 H -0.8641 0.6669 0.9623
C13 C -1.0897(4) 0.60020(17) 0.9176(2)
H14 H -1.1566 0.6478 0.8839
C14 C -1.0717(3) 0.45015(17) 0.9667(2)
H15 H -1.1257 0.3953 0.9665
C15 C -0.8965(3) 0.45963(16) 1.0152(2)
H16 H -0.8319 0.4108 1.0474
C16 C -1.3570(3) 0.50823(19) 0.8670(2)
H17 H -1.4186 0.5637 0.8697
H18 H -1.4080 0.4660 0.9127
C17 C -1.3884(3) 0.47651(15) 0.7435(2)
C18 C -1.5608(3) 0.45028(17) 0.6922(2)
C19 C -1.5908(3) 0.42153(19) 0.5789(2)
H19 H -1.7047 0.4038 0.5438
C20 C -1.4564(4) 0.41851(17) 0.5165(2)
H20 H -1.4807 0.3986 0.4407
C21 C -1.2870(3) 0.44474(17) 0.5660(2)
C22 C -1.2548(3) 0.47341(17) 0.6797(2)
H21 H -1.1405 0.4910 0.7140
C23 C -1.7104(4) 0.4532(2) 0.7597(3)
H22 H -1.6647 0.4740 0.8364
H23 H -1.7587 0.3952 0.7632
H24 H -1.8021 0.4922 0.7220
C24 C -1.1381(4) 0.4391(2) 0.4998(3)
H25 H -1.0299 0.4601 0.5473
H26 H -1.1668 0.4747 0.4316
H27 H -1.1230 0.3790 0.4785
loop_
_geom_bond_atom_site_label_1
_geom_bond_atom_site_label_2
_geom_bond_site_symmetry_1
_geom_bond_site_symmetry_2
S1 O1 1_555 1_555
O2 S1 1_555 1_555
O3 S1 1_555 1_555
N1 C1 1_555 1_555
N2 C13 1_555 1_555
C1 H1 1_555 1_555
H2 C1 1_555 1_555
H3 C1 1_555 1_555
C2 N1 1_555 1_555
H4 C2 1_555 1_555
H5 C2 1_555 1_555
H6 C2 1_555 1_555
C3 N1 1_555 1_555
C4 C3 1_555 1_555
H7 C4 1_555 1_555
C5 C4 1_555 1_555
H8 C5 1_555 1_555
C6 C5 1_555 1_555
C7 C6 1_555 1_555
H9 C7 1_555 1_555
C8 C3 1_555 1_555
H10 C8 1_555 1_555
C9 C6 1_555 1_555
H11 C9 1_555 1_555
C10 C9 1_555 1_555
H12 C10 1_555 1_555
C11 C10 1_555 1_555
C12 C11 1_555 1_555
H13 C12 1_555 1_555
C13 C12 1_555 1_555
H14 C13 1_555 1_555
C14 N2 1_555 1_555
H15 C14 1_555 1_555
C15 C11 1_555 1_555
H16 C15 1_555 1_555
C16 N2 1_555 1_555
H17 C16 1_555 1_555
H18 C16 1_555 1_555
C17 C16 1_555 1_555
C18 C17 1_555 1_555
C19 C18 1_555 1_555
H19 C19 1_555 1_555
C20 C19 1_555 1_555
H20 C20 1_555 1_555
C21 C20 1_555 1_555
C22 C17 1_555 1_555
H21 C22 1_555 1_555
C23 C18 1_555 1_555
H22 C23 1_555 1_555
H23 C23 1_555 1_555
H24 C23 1_555 1_555
C24 C21 1_555 1_555
H25 C24 1_555 1_555
H26 C24 1_555 1_555
H27 C24 1_555 1_555
C25 C26 1_555 1_555
C26 H28 1_555 1_555
C27 C26 1_555 1_555
H29 C27 1_555 1_555
C28 S1 1_555 1_555
C29 C28 1_555 1_555
H30 C29 1_555 1_555
C30 C25 1_555 1_555
H31 C30 1_555 1_555
C31 C25 1_555 1_555
H32 C31 1_555 1_555
H33 C31 1_555 1_555
H34 C31 1_555 1_555
C7 C8 1_555 1_555
C14 C15 1_555 1_555
C21 C22 1_555 1_555
C27 C28 1_555 1_555
C29 C30 1_555 1_555

#END
