
#######################################################################
#
#                 Cambridge Crystallographic Data Centre
#                                CCDC 
#
#######################################################################
#
# If this CIF has been generated from an entry in the Cambridge 
# Structural Database, then it will include bibliographic, chemical, 
# crystal, experimental, refinement or atomic coordinate data resulting 
# from the CCDC's data processing and validation procedures.
#
#######################################################################

data_UJEXIQ
_chemical_compound_source        'Gmelina arborea'
_chemical_name_common            Arboreol
_chemical_formula_moiety         'C20 H18 O8'
_chemical_name_systematic        
1,4-bis(1,3-Benzodioxol-5-yl)-dihydro-1H,3H-furo(3,4-c)furan-1,6a(6H)-diol
_symmetry_cell_setting           monoclinic
_symmetry_space_group_name_H-M   'P 21'
_symmetry_Int_Tables_number      4
_space_group_name_Hall           'P 2yb'
loop_
_symmetry_equiv_pos_site_id
_symmetry_equiv_pos_as_xyz
1 x,y,z
2 -x,1/2+y,-z
_cell_length_a                   10.27620(10)
_cell_length_b                   5.9770(2)
_cell_length_c                   14.5640(3)
_cell_angle_alpha                90
_cell_angle_beta                 101.684(3)
_cell_angle_gamma                90
_cell_volume                     875.998
_cell_formula_units_Z            2
loop_
_atom_site_label
_atom_site_type_symbol
_atom_site_fract_x
_atom_site_fract_y
_atom_site_fract_z
C1 C 0.0719(11) 0.9242(14) 0.4304(6)
H1 H -0.0237 0.9127 0.4099
H2 H 0.1006 1.0646 0.4076
C2 C 0.2116(6) 0.7679(10) 0.5497(5)
C3 C 0.2273(6) 0.6676(11) 0.4702(4)
C4 C 0.3213(6) 0.5115(12) 0.4689(4)
H3 H 0.3318 0.4432 0.4135
C5 C 0.4014(6) 0.4580(9) 0.5544(4)
H4 H 0.4671 0.3502 0.5560
C6 C 0.3882(5) 0.5570(8) 0.6370(4)
C7 C 0.2893(6) 0.7179(9) 0.6347(4)
H5 H 0.2768 0.7884 0.6892
C8 C 0.4754(5) 0.4952(8) 0.7288(3)
H6 H 0.4556 0.5965 0.7771
C9 C 0.4617(4) 0.2499(8) 0.7619(3)
H7 H 0.4202 0.1527 0.7099
C10 C 0.3900(5) 0.2388(9) 0.8429(3)
H8 H 0.3339 0.3690 0.8434
H9 H 0.3355 0.1053 0.8388
C11 C 0.6000(5) 0.0959(7) 0.9043(3)
C12 C 0.6057(5) 0.1769(7) 0.8042(3)
C13 C 0.6856(5) 0.3920(7) 0.8020(3)
H10 H 0.6933 0.4736 0.8604
H11 H 0.7741 0.3586 0.7920
C14 C 0.7217(5) 0.1159(8) 0.9792(3)
C15 C 0.8151(5) -0.0536(8) 0.9895(3)
H12 H 0.8015 -0.1739 0.9482
C16 C 0.9301(5) -0.0490(8) 1.0610(3)
H13 H 0.9927 -0.1634 1.0678
C17 C 0.9456(5) 0.1319(9) 1.1200(3)
C18 C 1.0182(5) 0.3851(10) 1.2299(4)
H14 H 1.0126 0.3736 1.2954
H15 H 1.0888 0.4893 1.2248
C19 C 0.8543(5) 0.3023(7) 1.1078(3)
C20 C 0.7445(5) 0.3035(8) 1.0393(3)
H16 H 0.6858 0.4236 1.0317
O1 O 0.1348(5) 0.7429(9) 0.3942(3)
O2 O 0.1069(5) 0.9179(8) 0.5304(4)
O3 O 0.6118(3) 0.5205(5) 0.7246(2)
O4 O 0.4952(3) 0.2332(5) 0.9267(2)
O5 O 0.6611(3) 0.0132(4) 0.7528(2)
O6 O 0.5549(3) -0.1284(5) 0.8931(2)
O7 O 0.8951(3) 0.4629(6) 1.1759(2)
O8 O 1.0461(3) 0.1701(6) 1.1950(2)
H17 H 0.620(4) -0.109(4) 0.755(3)
H18 H 0.559(7) -0.189(11) 0.946(2)
loop_
_geom_bond_atom_site_label_1
_geom_bond_atom_site_label_2
_geom_bond_site_symmetry_1
_geom_bond_site_symmetry_2
C1 H1 1_555 1_555
H2 C1 1_555 1_555
C2 C3 1_555 1_555
C3 C4 1_555 1_555
C4 H3 1_555 1_555
C5 C4 1_555 1_555
H4 C5 1_555 1_555
C6 C5 1_555 1_555
C7 C2 1_555 1_555
H5 C7 1_555 1_555
C8 C6 1_555 1_555
H6 C8 1_555 1_555
C9 C8 1_555 1_555
H7 C9 1_555 1_555
C10 C9 1_555 1_555
H8 C10 1_555 1_555
H9 C10 1_555 1_555
C11 C12 1_555 1_555
C12 C9 1_555 1_555
C13 C12 1_555 1_555
H10 C13 1_555 1_555
H11 C13 1_555 1_555
C14 C11 1_555 1_555
C15 C14 1_555 1_555
H12 C15 1_555 1_555
C16 C15 1_555 1_555
H13 C16 1_555 1_555
C17 C16 1_555 1_555
C18 H14 1_555 1_555
H15 C18 1_555 1_555
C19 C17 1_555 1_555
C20 C14 1_555 1_555
H16 C20 1_555 1_555
O1 C1 1_555 1_555
O2 C1 1_555 1_555
O3 C8 1_555 1_555
O4 C10 1_555 1_555
O5 C12 1_555 1_555
O6 C11 1_555 1_555
O7 C18 1_555 1_555
O8 C17 1_555 1_555
H17 O5 1_555 1_555
H18 O6 1_555 1_555
C2 O2 1_555 1_555
C3 O1 1_555 1_555
C6 C7 1_555 1_555
C11 O4 1_555 1_555
C13 O3 1_555 1_555
C18 O8 1_555 1_555
C19 C20 1_555 1_555
C19 O7 1_555 1_555

#END
