
#######################################################################
#
#                 Cambridge Crystallographic Data Centre
#                                CCDC 
#
#######################################################################
#
# If this CIF has been generated from an entry in the Cambridge 
# Structural Database, then it will include bibliographic, chemical, 
# crystal, experimental, refinement or atomic coordinate data resulting 
# from the CCDC's data processing and validation procedures.
#
#######################################################################

data_UJIKIJ
_chemical_formula_moiety         'C22 H16 Cl1 N1 O2 S1'
_chemical_name_systematic        
8-Chloro-3-((4-methylphenyl)sulfonyl)-4-phenylquinoline
_symmetry_cell_setting           monoclinic
_symmetry_space_group_name_H-M   'P 21/c'
_symmetry_Int_Tables_number      14
_space_group_name_Hall           '-P 2ybc'
loop_
_symmetry_equiv_pos_site_id
_symmetry_equiv_pos_as_xyz
1 x,y,z
2 -x,1/2+y,1/2-z
3 -x,-y,-z
4 x,1/2-y,1/2+z
_cell_length_a                   10.375(2)
_cell_length_b                   16.767(4)
_cell_length_c                   10.757(2)
_cell_angle_alpha                90
_cell_angle_beta                 97.534(4)
_cell_angle_gamma                90
_cell_volume                     1855.11
_exptl_crystal_colour            colorless
_exptl_crystal_description       block
_cell_formula_units_Z            4
loop_
_atom_site_label
_atom_site_type_symbol
_atom_site_fract_x
_atom_site_fract_y
_atom_site_fract_z
S1 S 0.06172(7) 0.19864(5) 0.08735(6)
Cl1 Cl 0.51431(9) 0.40423(5) 0.48649(10)
O1 O 0.0069(2) 0.27395(15) 0.0446(2)
C1 C 0.2492(2) 0.16560(16) 0.2911(2)
C2 C 0.2131(2) 0.07992(16) 0.2893(2)
C3 C -0.0547(3) 0.14659(17) 0.1599(2)
C4 C 0.3494(3) 0.19397(17) 0.3844(2)
C5 C -0.1088(3) 0.18141(17) 0.2576(2)
H1 H -0.0810 0.2314 0.2877
C6 C 0.1888(3) 0.22167(17) 0.2098(2)
C7 C 0.3790(3) 0.27617(17) 0.3871(3)
N1 N 0.3183(2) 0.32979(14) 0.3047(2)
C8 C -0.2465(3) 0.06683(17) 0.2654(3)
C9 C 0.4187(3) 0.14291(19) 0.4727(3)
H2 H 0.4002 0.0886 0.4703
C10 C -0.2037(3) 0.14135(18) 0.3095(3)
H3 H -0.2401 0.1645 0.3753
C11 C 0.1449(3) 0.05050(17) 0.3815(2)
H4 H 0.1196 0.0849 0.4416
C12 C 0.4775(3) 0.30349(19) 0.4804(3)
C13 C -0.0930(3) 0.07184(18) 0.1166(3)
H5 H -0.0548 0.0481 0.0523
O2 O 0.1102(2) 0.14749(15) -0.00130(19)
C14 C 0.2265(3) 0.30194(19) 0.2212(3)
H6 H 0.1830 0.3381 0.1650
C15 C 0.2516(3) 0.02754(18) 0.2013(3)
H7 H 0.2982 0.0464 0.1392
C16 C 0.2211(3) -0.05221(19) 0.2058(3)
H8 H 0.2470 -0.0871 0.1465
C17 C -0.1888(3) 0.03284(18) 0.1699(3)
H9 H -0.2152 -0.0176 0.1408
C18 C 0.1523(3) -0.08063(19) 0.2975(3)
H10 H 0.1318 -0.1345 0.3003
C19 C -0.3539(3) 0.0249(2) 0.3193(3)
H11 H -0.3418 0.0309 0.4089
H12 H -0.3528 -0.0307 0.2984
H13 H -0.4359 0.0476 0.2853
C20 C 0.1142(3) -0.02894(18) 0.3851(3)
H14 H 0.0674 -0.0480 0.4470
C21 C 0.5426(3) 0.2530(2) 0.5653(3)
H15 H 0.6071 0.2726 0.6258
C22 C 0.5127(3) 0.1718(2) 0.5619(3)
H16 H 0.5570 0.1374 0.6204
loop_
_geom_bond_atom_site_label_1
_geom_bond_atom_site_label_2
_geom_bond_site_symmetry_1
_geom_bond_site_symmetry_2
S1 O1 1_555 1_555
Cl1 C12 1_555 1_555
C1 C2 1_555 1_555
C2 C11 1_555 1_555
C3 S1 1_555 1_555
C4 C1 1_555 1_555
C5 C3 1_555 1_555
H1 C5 1_555 1_555
C6 S1 1_555 1_555
C7 C4 1_555 1_555
N1 C7 1_555 1_555
C8 C10 1_555 1_555
C9 C4 1_555 1_555
H2 C9 1_555 1_555
C10 C5 1_555 1_555
H3 C10 1_555 1_555
C11 H4 1_555 1_555
C12 C7 1_555 1_555
C13 C3 1_555 1_555
H5 C13 1_555 1_555
O2 S1 1_555 1_555
C14 C6 1_555 1_555
H6 C14 1_555 1_555
C15 C2 1_555 1_555
H7 C15 1_555 1_555
C16 C15 1_555 1_555
H8 C16 1_555 1_555
C17 C8 1_555 1_555
H9 C17 1_555 1_555
C18 C16 1_555 1_555
H10 C18 1_555 1_555
C19 C8 1_555 1_555
H11 C19 1_555 1_555
H12 C19 1_555 1_555
H13 C19 1_555 1_555
C20 C11 1_555 1_555
H14 C20 1_555 1_555
C21 C12 1_555 1_555
H15 C21 1_555 1_555
C22 C9 1_555 1_555
H16 C22 1_555 1_555
C1 C6 1_555 1_555
N1 C14 1_555 1_555
C13 C17 1_555 1_555
C18 C20 1_555 1_555
C21 C22 1_555 1_555

#END
