
#######################################################################
#
#                 Cambridge Crystallographic Data Centre
#                                CCDC 
#
#######################################################################
#
# If this CIF has been generated from an entry in the Cambridge 
# Structural Database, then it will include bibliographic, chemical, 
# crystal, experimental, refinement or atomic coordinate data resulting 
# from the CCDC's data processing and validation procedures.
#
#######################################################################

data_UJILEG
_chemical_formula_moiety         'C37 H30 N2 O1'
_chemical_name_systematic        
1,1-Dimethyl-3-(1,2,3,4-tetraphenylspiro[4.5]deca-1,3,7,9-tetraen-6-ylidene)urea
_symmetry_cell_setting           monoclinic
_symmetry_space_group_name_H-M   'P 21/n'
_symmetry_Int_Tables_number      14
_space_group_name_Hall           '-P 2yn'
loop_
_symmetry_equiv_pos_site_id
_symmetry_equiv_pos_as_xyz
1 x,y,z
2 1/2-x,1/2+y,1/2-z
3 -x,-y,-z
4 1/2+x,1/2-y,1/2+z
_cell_length_a                   20.5458(11)
_cell_length_b                   14.0737(7)
_cell_length_c                   20.9813(11)
_cell_angle_alpha                90
_cell_angle_beta                 108.671(2)
_cell_angle_gamma                90
_cell_volume                     5747.57
_exptl_crystal_colour            yellow
_exptl_crystal_description       block
_cell_formula_units_Z            8
loop_
_atom_site_label
_atom_site_type_symbol
_atom_site_fract_x
_atom_site_fract_y
_atom_site_fract_z
C1 C -0.27496(14) 0.4293(2) 0.23253(14)
C2 C -0.26863(13) 0.3782(2) 0.29835(14)
C3 C -0.28150(15) 0.4311(2) 0.35177(16)
H1 H -0.2784 0.4004 0.3919
C4 C -0.29770(17) 0.5227(2) 0.34515(17)
H2 H -0.3071 0.5534 0.3805
C5 C -0.30139(16) 0.5765(2) 0.28600(17)
H3 H -0.3122 0.6409 0.2839
C6 C -0.28948(14) 0.5345(2) 0.23445(17)
H4 H -0.29 0.5715 0.1975
C7 C -0.21227(14) 0.41518(19) 0.20983(14)
C8 C -0.23243(13) 0.38229(19) 0.14577(15)
C9 C -0.30747(14) 0.36557(19) 0.12355(15)
C10 C -0.33319(14) 0.39014(19) 0.17268(15)
C11 C -0.14161(14) 0.4318(2) 0.25527(14)
C12 C -0.08808(15) 0.3754(2) 0.25055(15)
H5 H -0.0971 0.3279 0.2181
C13 C -0.02139(15) 0.3880(2) 0.29300(17)
H6 H 0.0139 0.35 0.2885
C14 C -0.00791(17) 0.4566(3) 0.34143(18)
H7 H 0.0367 0.4655 0.37
C15 C -0.05981(17) 0.5121(3) 0.34796(18)
H8 H -0.0505 0.5584 0.3813
C16 C -0.12649(15) 0.5000(2) 0.30514(16)
H9 H -0.1614 0.5383 0.3101
C17 C -0.18988(14) 0.3651(2) 0.10253(15)
C18 C -0.19275(16) 0.2785(3) 0.06977(17)
H10 H -0.2212 0.2304 0.076
C19 C -0.1532(2) 0.2634(4) 0.0277(2)
H11 H -0.1556 0.2056 0.0056
C20 C -0.1108(2) 0.3338(4) 0.0190(2)
H12 H -0.0842 0.3235 -0.0089
C21 C -0.1073(2) 0.4191(4) 0.0509(2)
H13 H -0.0782 0.4665 0.0449
C22 C -0.14683(16) 0.4353(3) 0.09205(17)
H14 H -0.1446 0.494 0.113
C23 C -0.34844(14) 0.3296(2) 0.05623(16)
C24 C -0.39246(15) 0.2534(2) 0.05084(18)
H15 H -0.3942 0.2224 0.0894
C25 C -0.43405(18) 0.2229(3) -0.0119(2)
H16 H -0.4633 0.1714 -0.0154
C26 C -0.4318(2) 0.2690(3) -0.0687(2)
H17 H -0.4606 0.2496 -0.1106
C27 C -0.38752(18) 0.3435(3) -0.06433(17)
H18 H -0.3857 0.3737 -0.1031
C28 C -0.34587(15) 0.3734(2) -0.00221(15)
H19 H -0.3156 0.4235 0.0007
C29 C -0.40681(14) 0.3921(2) 0.16771(15)
C30 C -0.43245(15) 0.3442(2) 0.21138(18)
H20 H -0.4027 0.3118 0.2477
C31 C -0.50241(17) 0.3436(3) 0.2017(2)
H21 H -0.5193 0.3108 0.2316
C32 C -0.54695(17) 0.3909(3) 0.1483(2)
H22 H -0.5939 0.3901 0.142
C33 C -0.52229(17) 0.4390(2) 0.10468(19)
H23 H -0.5524 0.4714 0.0685
C34 C -0.45263(15) 0.4400(2) 0.11397(16)
H24 H -0.4362 0.4731 0.0839
C35 C -0.25384(17) 0.2350(2) 0.35763(16)
C36 C -0.18939(17) 0.1370(2) 0.45017(17)
H25 H -0.2344 0.1117 0.4439
H26 H -0.1735 0.17 0.4924
H27 H -0.1584 0.0859 0.4502
C37 C -0.12855(15) 0.2262(2) 0.38389(16)
H28 H -0.1067 0.1691 0.376
H29 H -0.0987 0.2585 0.4225
H30 H -0.1381 0.2668 0.3452
N1 N -0.25255(11) 0.28964(18) 0.30131(12)
N2 N -0.19219(12) 0.20228(17) 0.39583(12)
O1 O -0.30750(12) 0.21421(17) 0.36748(13)
C38 C 0.25008(14) 0.6674(2) 0.25486(15)
C39 C 0.24248(13) 0.6183(2) 0.18845(15)
C40 C 0.25674(15) 0.6718(2) 0.13618(16)
H31 H 0.2543 0.6416 0.096
C41 C 0.27345(17) 0.7640(3) 0.14381(19)
H32 H 0.2841 0.7953 0.1093
C42 C 0.27562(17) 0.8165(2) 0.20320(18)
H33 H 0.2859 0.881 0.2059
C43 C 0.26300(15) 0.7732(2) 0.25411(17)
H34 H 0.262 0.8094 0.2909
C44 C 0.19144(14) 0.6481(2) 0.28223(15)
C45 C 0.21716(14) 0.6144(2) 0.34603(15)
C46 C 0.29274(14) 0.6020(2) 0.36305(14)
C47 C 0.31273(14) 0.6288(2) 0.31059(15)
C48 C 0.11960(14) 0.6605(2) 0.23879(15)
C49 C 0.10118(16) 0.7262(2) 0.18668(17)
H35 H 0.1348 0.7653 0.1798
C50 C 0.03445(17) 0.7348(3) 0.14491(18)
H36 H 0.0238 0.7794 0.1104
C51 C -0.01646(17) 0.6785(3) 0.15369(19)
H37 H -0.0616 0.6852 0.1258
C52 C 0.00021(16) 0.6126(3) 0.20407(17)
H38 H -0.0339 0.5738 0.2103
C53 C 0.06731(16) 0.6027(2) 0.24600(16)
H39 H 0.0777 0.5566 0.2796
C54 C 0.18075(15) 0.5954(2) 0.39484(15)
C55 C 0.13569(16) 0.6623(2) 0.40573(17)
H40 H 0.1276 0.7183 0.3809
C56 C 0.10277(18) 0.6473(3) 0.45251(19)
H41 H 0.0722 0.6924 0.4584
C57 C 0.1148(2) 0.5663(3) 0.49031(18)
H42 H 0.093 0.5567 0.5224
C58 C 0.15916(19) 0.4992(3) 0.48084(18)
H43 H 0.1674 0.4439 0.5065
C59 C 0.19168(16) 0.5133(2) 0.43315(16)
H44 H 0.2213 0.467 0.4267
C60 C 0.33913(14) 0.5660(2) 0.42813(15)
C61 C 0.34445(16) 0.6128(2) 0.48801(16)
H45 H 0.3173 0.6658 0.4874
C62 C 0.38968(19) 0.5814(3) 0.54825(18)
H46 H 0.3934 0.6138 0.5879
C63 C 0.4287(2) 0.5030(4) 0.5498(2)
H47 H 0.459 0.482 0.5905
C64 C 0.42392(18) 0.4548(3) 0.4917(2)
H48 H 0.4505 0.4007 0.4933
C65 C 0.37943(15) 0.4863(2) 0.43047(18)
H49 H 0.3767 0.4539 0.3911
C66 C 0.38287(14) 0.6348(2) 0.30551(15)
C67 C 0.42849(17) 0.7002(2) 0.34305(19)
H50 H 0.4156 0.7389 0.3729
C68 C 0.49314(18) 0.7096(3) 0.3374(2)
H51 H 0.5228 0.7555 0.3628
C69 C 0.51414(17) 0.6535(3) 0.29576(19)
H52 H 0.5577 0.6606 0.2919
C70 C 0.47043(17) 0.5865(3) 0.25961(18)
H53 H 0.4846 0.5463 0.2314
C71 C 0.40515(16) 0.5770(2) 0.26395(18)
H54 H 0.3758 0.5309 0.2384
C72 C 0.22556(19) 0.4743(2) 0.12978(17)
C73 C 0.16092(19) 0.3667(2) 0.04351(18)
H55 H 0.1172 0.3351 0.0309
H56 H 0.1969 0.3209 0.061
H57 H 0.1668 0.3972 0.0048
C74 C 0.10133(17) 0.4613(2) 0.10869(19)
H58 H 0.0627 0.4346 0.0744
H59 H 0.0965 0.5292 0.1091
H60 H 0.1032 0.4361 0.1517
N3 N 0.22448(12) 0.53062(18) 0.18475(12)
N4 N 0.16373(15) 0.43752(18) 0.09483(14)
O2 O 0.27824(13) 0.45404(18) 0.11769(13)
loop_
_geom_bond_atom_site_label_1
_geom_bond_atom_site_label_2
_geom_bond_site_symmetry_1
_geom_bond_site_symmetry_2
C1 C2 1_555 1_555
C2 C3 1_555 1_555
C3 H1 1_555 1_555
C4 C3 1_555 1_555
H2 C4 1_555 1_555
C5 C4 1_555 1_555
H3 C5 1_555 1_555
C6 C1 1_555 1_555
H4 C6 1_555 1_555
C7 C1 1_555 1_555
C8 C7 1_555 1_555
C9 C8 1_555 1_555
C10 C1 1_555 1_555
C11 C7 1_555 1_555
C12 C11 1_555 1_555
H5 C12 1_555 1_555
C13 C12 1_555 1_555
H6 C13 1_555 1_555
C14 C13 1_555 1_555
H7 C14 1_555 1_555
C15 C14 1_555 1_555
H8 C15 1_555 1_555
C16 C11 1_555 1_555
H9 C16 1_555 1_555
C17 C8 1_555 1_555
C18 C17 1_555 1_555
H10 C18 1_555 1_555
C19 C18 1_555 1_555
H11 C19 1_555 1_555
C20 C19 1_555 1_555
H12 C20 1_555 1_555
C21 C20 1_555 1_555
H13 C21 1_555 1_555
C22 C17 1_555 1_555
H14 C22 1_555 1_555
C23 C9 1_555 1_555
C24 C23 1_555 1_555
H15 C24 1_555 1_555
C25 C24 1_555 1_555
H16 C25 1_555 1_555
C26 C25 1_555 1_555
H17 C26 1_555 1_555
C27 C26 1_555 1_555
H18 C27 1_555 1_555
C28 C23 1_555 1_555
H19 C28 1_555 1_555
C29 C10 1_555 1_555
C30 C29 1_555 1_555
H20 C30 1_555 1_555
C31 C30 1_555 1_555
H21 C31 1_555 1_555
C32 C31 1_555 1_555
H22 C32 1_555 1_555
C33 C32 1_555 1_555
H23 C33 1_555 1_555
C34 C29 1_555 1_555
H24 C34 1_555 1_555
C35 N1 1_555 1_555
C36 H25 1_555 1_555
H26 C36 1_555 1_555
H27 C36 1_555 1_555
C37 H28 1_555 1_555
H29 C37 1_555 1_555
H30 C37 1_555 1_555
N1 C2 1_555 1_555
N2 C35 1_555 1_555
O1 C35 1_555 1_555
C38 C39 1_555 1_555
C39 C40 1_555 1_555
C40 H31 1_555 1_555
C41 C40 1_555 1_555
H32 C41 1_555 1_555
C42 C41 1_555 1_555
H33 C42 1_555 1_555
C43 C38 1_555 1_555
H34 C43 1_555 1_555
C44 C38 1_555 1_555
C45 C44 1_555 1_555
C46 C45 1_555 1_555
C47 C38 1_555 1_555
C48 C44 1_555 1_555
C49 C48 1_555 1_555
H35 C49 1_555 1_555
C50 C49 1_555 1_555
H36 C50 1_555 1_555
C51 C50 1_555 1_555
H37 C51 1_555 1_555
C52 C51 1_555 1_555
H38 C52 1_555 1_555
C53 C48 1_555 1_555
H39 C53 1_555 1_555
C54 C45 1_555 1_555
C55 C54 1_555 1_555
H40 C55 1_555 1_555
C56 C55 1_555 1_555
H41 C56 1_555 1_555
C57 C56 1_555 1_555
H42 C57 1_555 1_555
C58 C57 1_555 1_555
H43 C58 1_555 1_555
C59 C54 1_555 1_555
H44 C59 1_555 1_555
C60 C46 1_555 1_555
C61 C60 1_555 1_555
H45 C61 1_555 1_555
C62 C61 1_555 1_555
H46 C62 1_555 1_555
C63 C62 1_555 1_555
H47 C63 1_555 1_555
C64 C63 1_555 1_555
H48 C64 1_555 1_555
C65 C60 1_555 1_555
H49 C65 1_555 1_555
C66 C47 1_555 1_555
C67 C66 1_555 1_555
H50 C67 1_555 1_555
C68 C67 1_555 1_555
H51 C68 1_555 1_555
C69 C68 1_555 1_555
H52 C69 1_555 1_555
C70 C69 1_555 1_555
H53 C70 1_555 1_555
C71 C66 1_555 1_555
H54 C71 1_555 1_555
C72 N3 1_555 1_555
C73 H55 1_555 1_555
H56 C73 1_555 1_555
H57 C73 1_555 1_555
C74 H58 1_555 1_555
H59 C74 1_555 1_555
H60 C74 1_555 1_555
N3 C39 1_555 1_555
N4 C72 1_555 1_555
O2 C72 1_555 1_555
C5 C6 1_555 1_555
C9 C10 1_555 1_555
C15 C16 1_555 1_555
C21 C22 1_555 1_555
C27 C28 1_555 1_555
C33 C34 1_555 1_555
C36 N2 1_555 1_555
C37 N2 1_555 1_555
C42 C43 1_555 1_555
C46 C47 1_555 1_555
C52 C53 1_555 1_555
C58 C59 1_555 1_555
C64 C65 1_555 1_555
C70 C71 1_555 1_555
C73 N4 1_555 1_555
C74 N4 1_555 1_555

#END
