
#######################################################################
#
#                 Cambridge Crystallographic Data Centre
#                                CCDC 
#
#######################################################################
#
# If this CIF has been generated from an entry in the Cambridge 
# Structural Database, then it will include bibliographic, chemical, 
# crystal, experimental, refinement or atomic coordinate data resulting 
# from the CCDC's data processing and validation procedures.
#
#######################################################################

data_UJISAH
_chemical_name_common            Cyclohexamantane
_chemical_formula_moiety         'C26 H30'
_chemical_name_systematic        
'Dodecacyclo(12.12.0.0^2,11^.0^3,16^.0^5,18^.0^6,11^.0^7,20^.0^9,22^.0^10,2 5^.0^12,17^.0^12,21^.0^13,24^)hexacosane'
_symmetry_cell_setting           rhombohedral
_symmetry_space_group_name_H-M   'R -3'
_symmetry_Int_Tables_number      148
_space_group_name_Hall           '-R 3'
loop_
_symmetry_equiv_pos_site_id
_symmetry_equiv_pos_as_xyz
1 x,y,z
2 -y,x-y,z
3 -x+y,-x,z
4 2/3+x,1/3+y,1/3+z
5 2/3-y,1/3+x-y,1/3+z
6 2/3-x+y,1/3-x,1/3+z
7 1/3+x,2/3+y,2/3+z
8 2/3+y,1/3-x+y,1/3-z
9 2/3+x-y,1/3+x,1/3-z
10 -x,-y,-z
11 y,-x+y,-z
12 x-y,x,-z
13 1/3-x,2/3-y,2/3-z
14 1/3+y,2/3-x+y,2/3-z
15 1/3+x-y,2/3+x,2/3-z
16 2/3-x,1/3-y,1/3-z
17 1/3-y,2/3+x-y,2/3+z
18 1/3-x+y,2/3-x,2/3+z
_cell_length_a                   9.0630(10)
_cell_length_b                   9.0630(10)
_cell_length_c                   17.417(2)
_cell_angle_alpha                90
_cell_angle_beta                 90
_cell_angle_gamma                120.00
_cell_volume                     1238.93
_exptl_crystal_colour            colorless
_cell_formula_units_Z            3
loop_
_atom_site_label
_atom_site_type_symbol
_atom_site_fract_x
_atom_site_fract_y
_atom_site_fract_z
C1 C 0.0000 0.0000 0.4550(2)
C2 C -0.1853(2) -0.0727(2) 0.42751(11)
H1 H -0.1863(2) -0.0730(2) 0.37239(11)
C3 C -0.2946(2) -0.2566(2) 0.45580(11)
H2 H -0.4090(2) -0.3017(2) 0.43738(11)
C4 C -0.2548(2) 0.0413(2) 0.45586(11)
H3 H -0.3691(2) -0.0032(2) 0.43743(11)
C5 C -0.2234(2) -0.3675(2) 0.42667(13)
H4 H -0.2238(2) -0.3682(2) 0.37155(13)
H5 H -0.2934(2) -0.4825(2) 0.44426(13)
C1I C 0.0000 0.0000 0.5450(2)
C2I C 0.1853(2) 0.0727(2) 0.57249(11)
H1I H 0.1863(2) 0.0730(2) 0.62761(11)
C3I C 0.2946(2) 0.2566(2) 0.54420(11)
H2I H 0.4090(2) 0.3017(2) 0.56262(11)
C4B C 0.2961(3) 0.2548(2) 0.45586(11)
C2B C 0.1126(3) 0.1853(2) 0.42751(11)
C4K C -0.2961(3) -0.2548(2) 0.54414(11)
C2K C -0.1126(3) -0.1853(2) 0.57249(11)
C2J C -0.0727(2) 0.1126(3) 0.57249(11)
H1J H -0.0730(2) 0.1133(3) 0.62761(11)
C3J C -0.2566(2) 0.0380(3) 0.54420(11)
H2J H -0.3017(2) 0.1073(3) 0.56262(11)
C5B C -0.1441(3) 0.2234(2) 0.42667(13)
C3B C 0.0380(3) 0.2946(2) 0.45580(11)
H1B H 0.1133(3) 0.1863(2) 0.37239(11)
H2B H 0.1073(3) 0.4090(2) 0.43738(11)
C4J C 0.0413(2) 0.2961(3) 0.54414(11)
H3J H -0.0032(2) 0.3659(3) 0.56257(11)
C5I C 0.2234(2) 0.3675(2) 0.57333(13)
H4I H 0.2238(2) 0.3682(2) 0.62845(13)
H5I H 0.2934(2) 0.4825(2) 0.55574(13)
H4B H -0.1444(3) 0.2238(2) 0.37155(13)
H5B H -0.1891(3) 0.2934(2) 0.44426(13)
C5J C -0.3675(2) -0.1441(3) 0.57333(13)
H3K H -0.3659(3) -0.3691(2) 0.56257(11)
H4J H -0.3682(2) -0.1444(3) 0.62845(13)
H5J H -0.4825(2) -0.1891(3) 0.55574(13)
H1K H -0.1133(3) -0.1863(2) 0.62761(11)
C3K C -0.0380(3) -0.2946(2) 0.54420(11)
H2K H -0.1073(3) -0.4090(2) 0.56262(11)
C4A C -0.0413(2) -0.2961(3) 0.45586(11)
C2A C 0.0727(2) -0.1126(3) 0.42751(11)
H1A H 0.0730(2) -0.1133(3) 0.37239(11)
C3A C 0.2566(2) -0.0380(3) 0.45580(11)
H2A H 0.3017(2) -0.1073(3) 0.43738(11)
C4I C 0.2548(2) -0.0413(2) 0.54414(11)
H3I H 0.3691(2) 0.0032(2) 0.56257(11)
C5K C 0.1441(3) -0.2234(2) 0.57333(13)
H4K H 0.1444(3) -0.2238(2) 0.62845(13)
H5K H 0.1891(3) -0.2934(2) 0.55574(13)
C5A C 0.3675(2) 0.1441(3) 0.42667(13)
H3B H 0.3659(3) 0.3691(2) 0.43743(11)
H4A H 0.3682(2) 0.1444(3) 0.37155(13)
H5A H 0.4825(2) 0.1891(3) 0.44426(13)
H3A H 0.0032(2) -0.3659(3) 0.43743(11)
loop_
_geom_bond_atom_site_label_1
_geom_bond_atom_site_label_2
_geom_bond_site_symmetry_1
_geom_bond_site_symmetry_2
C1 C2 1_555 1_555
C2 H1 1_555 1_555
C3 C2 1_555 1_555
H2 C3 1_555 1_555
C4 C2 1_555 1_555
H3 C4 1_555 1_555
C5 C3 1_555 1_555
H4 C5 1_555 1_555
H5 C5 1_555 1_555
C1I C1 1_555 1_555
C2I C1I 1_555 1_555
H1I C2I 1_555 1_555
C3I C2I 1_555 1_555
H2I C3I 1_555 1_555
C4B C3I 1_555 1_555
C2B C1 1_555 1_555
C4K C3 1_555 1_555
C2K C1I 1_555 1_555
C2J C1I 1_555 1_555
H1J C2J 1_555 1_555
C3J C4 1_555 1_555
H2J C3J 1_555 1_555
C5B C4 1_555 1_555
C3B C2B 1_555 1_555
H1B C2B 1_555 1_555
H2B C3B 1_555 1_555
C4J C2J 1_555 1_555
H3J C4J 1_555 1_555
C5I C3I 1_555 1_555
H4I C5I 1_555 1_555
H5I C5I 1_555 1_555
H4B C5B 1_555 1_555
H5B C5B 1_555 1_555
C5J C4K 1_555 1_555
H3K C4K 1_555 1_555
H4J C5J 1_555 1_555
H5J C5J 1_555 1_555
H1K C2K 1_555 1_555
C3K C2K 1_555 1_555
H2K C3K 1_555 1_555
C4A C5 1_555 1_555
C2A C1 1_555 1_555
H1A C2A 1_555 1_555
C3A C2A 1_555 1_555
H2A C3A 1_555 1_555
C4I C2I 1_555 1_555
H3I C4I 1_555 1_555
C5K C3K 1_555 1_555
H4K C5K 1_555 1_555
H5K C5K 1_555 1_555
C5A C4B 1_555 1_555
H3B C4B 1_555 1_555
H4A C5A 1_555 1_555
H5A C5A 1_555 1_555
H3A C4A 1_555 1_555
C4B C2B 1_555 1_555
C4K C2K 1_555 1_555
C2J C3J 1_555 1_555
C3J C5J 1_555 1_555
C5B C3B 1_555 1_555
C3B C4J 1_555 1_555
C4J C5I 1_555 1_555
C3K C4A 1_555 1_555
C4A C2A 1_555 1_555
C3A C4I 1_555 1_555
C3A C5A 1_555 1_555
C4I C5K 1_555 1_555

#END
