
#######################################################################
#
#                 Cambridge Crystallographic Data Centre
#                                CCDC 
#
#######################################################################
#
# If this CIF has been generated from an entry in the Cambridge 
# Structural Database, then it will include bibliographic, chemical, 
# crystal, experimental, refinement or atomic coordinate data resulting 
# from the CCDC's data processing and validation procedures.
#
#######################################################################

data_UJUJEQ
_chemical_formula_moiety         'C7 H18 N3 1+,C7 H1 N4 1-'
_chemical_name_systematic        
"N,N,N',N',N'',N''-Hexamethylguanidinium 1,1,3,3-tetracyanoprop-2-en-1-ide"
_symmetry_cell_setting           orthorhombic
_symmetry_space_group_name_H-M   'P 21 21 21'
_symmetry_Int_Tables_number      19
_space_group_name_Hall           'P 2ac 2ab'
loop_
_symmetry_equiv_pos_site_id
_symmetry_equiv_pos_as_xyz
1 x,y,z
2 1/2-x,-y,1/2+z
3 1/2+x,1/2-y,-z
4 -x,1/2+y,1/2-z
_cell_length_a                   7.7705(5)
_cell_length_b                   9.8189(6)
_cell_length_c                   21.5478(14)
_cell_angle_alpha                90
_cell_angle_beta                 90
_cell_angle_gamma                90
_cell_volume                     1644.05
_exptl_crystal_colour            colorless
_exptl_crystal_description       block
_cell_formula_units_Z            4
loop_
_atom_site_label
_atom_site_type_symbol
_atom_site_fract_x
_atom_site_fract_y
_atom_site_fract_z
C1 C 0.473(2) 0.769(4) 0.1683(15)
C2 C 0.727(2) 0.7960(18) 0.1024(8)
H1 H 0.7249 0.8883 0.1197
H2 H 0.7264 0.8011 0.0570
H3 H 0.8315 0.7491 0.1163
C3 C 0.5426(8) 0.5938(8) 0.0903(4)
H4 H 0.4501 0.5437 0.1111
H5 H 0.6473 0.5381 0.0899
H6 H 0.5082 0.6143 0.0476
C4 C 0.201(2) 0.727(2) 0.2239(7)
H7 H 0.1281 0.6456 0.2203
H8 H 0.1284 0.8074 0.2293
H9 H 0.2774 0.7170 0.2598
C5 C 0.209(2) 0.7339(19) 0.1085(9)
H10 H 0.2879 0.7514 0.0739
H11 H 0.1173 0.8023 0.1084
H12 H 0.1588 0.6429 0.1040
C6 C 0.7115(10) 0.8155(9) 0.2409(4)
H13 H 0.7554 0.7291 0.2246
H14 H 0.7045 0.8105 0.2863
H15 H 0.7893 0.8895 0.2290
C7 C 0.446(2) 0.9560(16) 0.2432(9)
H16 H 0.3447 0.9769 0.2179
H17 H 0.5214 1.0361 0.2449
H18 H 0.4098 0.9316 0.2853
N1 N 0.5760(4) 0.7210(3) 0.12360(16)
N2 N 0.3046(3) 0.7416(3) 0.16741(14)
N3 N 0.5401(4) 0.8415(3) 0.21540(14)
N7 N 0.4223(3) -0.0855(2) -0.00048(8)
N8 N 0.5394(3) 0.2260(2) 0.13383(9)
N9 N 0.5537(3) 0.46050(19) -0.16125(9)
N10 N 0.4329(3) 0.03094(18) -0.15091(8)
C15 C 0.5027(3) 0.1647(2) 0.01848(9)
C16 C 0.5256(3) 0.2613(2) -0.02772(9)
H37 H 0.5563 0.3494 -0.0133
C17 C 0.5110(2) 0.2500(2) -0.09130(9)
C18 C 0.4570(3) 0.0269(2) 0.00714(9)
C19 C 0.5233(3) 0.1998(2) 0.08220(11)
C20 C 0.5355(3) 0.3669(2) -0.12963(9)
C21 C 0.4672(3) 0.1278(2) -0.12346(9)
C8? C 0.465(2) 0.764(5) 0.1653(18)
C9? C 0.7389(14) 0.7854(11) 0.2214(4)
H19? H 0.6659 0.7618 0.2569
H20? H 0.7886 0.8760 0.2278
H21? H 0.8315 0.7183 0.2174
C10? C 0.735(3) 0.805(2) 0.1080(9)
H22? H 0.6567 0.8222 0.0733
H23? H 0.8028 0.7227 0.0994
H24? H 0.8132 0.8827 0.1130
C11? C 0.411(2) 0.9432(18) 0.2423(10)
H25? H 0.4591 0.9251 0.2835
H26? H 0.3064 0.9983 0.2465
H27? H 0.4955 0.9927 0.2172
C12? C 0.218(3) 0.743(3) 0.2362(9)
H28? H 0.2096 0.6533 0.2168
H29? H 0.1137 0.7959 0.2267
H30? H 0.2284 0.7328 0.2813
C13? C 0.213(2) 0.729(2) 0.0983(11)
H31? H 0.1353 0.6535 0.1091
H32? H 0.2127 0.7416 0.0532
H33? H 0.1737 0.8122 0.1186
C14? C 0.4713(9) 0.5843(10) 0.0862(5)
H34? H 0.5800 0.5614 0.1067
H35? H 0.4942 0.6119 0.0432
H36? H 0.3955 0.5045 0.0863
N4? N 0.6359(4) 0.7857(4) 0.16509(19)
N5? N 0.3689(5) 0.8151(4) 0.21212(17)
N6? N 0.3883(4) 0.6959(3) 0.11918(17)
loop_
_geom_bond_atom_site_label_1
_geom_bond_atom_site_label_2
_geom_bond_site_symmetry_1
_geom_bond_site_symmetry_2
C1 N1 1_555 1_555
C2 H1 1_555 1_555
H2 C2 1_555 1_555
H3 C2 1_555 1_555
C3 H4 1_555 1_555
H5 C3 1_555 1_555
H6 C3 1_555 1_555
C4 H7 1_555 1_555
H8 C4 1_555 1_555
H9 C4 1_555 1_555
C5 H10 1_555 1_555
H11 C5 1_555 1_555
H12 C5 1_555 1_555
C6 H13 1_555 1_555
H14 C6 1_555 1_555
H15 C6 1_555 1_555
C7 H16 1_555 1_555
H17 C7 1_555 1_555
H18 C7 1_555 1_555
N1 C2 1_555 1_555
N2 C1 1_555 1_555
N3 C1 1_555 1_555
N7 C18 1_555 1_555
N8 C19 1_555 1_555
N9 C20 1_555 1_555
N10 C21 1_555 1_555
C15 C16 1_555 1_555
C16 H37 1_555 1_555
C17 C16 1_555 1_555
C18 C15 1_555 1_555
C19 C15 1_555 1_555
C20 C17 1_555 1_555
C21 C17 1_555 1_555
C3 N1 1_555 1_555
C4 N2 1_555 1_555
C5 N2 1_555 1_555
C6 N3 1_555 1_555
C7 N3 1_555 1_555

#END
