
#######################################################################
#
#                 Cambridge Crystallographic Data Centre
#                                CCDC 
#
#######################################################################
#
# If this CIF has been generated from an entry in the Cambridge 
# Structural Database, then it will include bibliographic, chemical, 
# crystal, experimental, refinement or atomic coordinate data resulting 
# from the CCDC's data processing and validation procedures.
#
#######################################################################

data_UJUWOL01
_chemical_name_common            Pyridine-2-carboxaldehyde-4-aminoantipyrine
_chemical_formula_moiety         'C17 H16 N4 O1'
_chemical_name_systematic        
1,5-Dimethyl-2-phenyl-4-((pyridin-4-ylmethylidene)amino)-1,2-dihydro-3H-pyrazol-3-one
_symmetry_cell_setting           monoclinic
_symmetry_space_group_name_H-M   'P 21/c'
_symmetry_Int_Tables_number      14
_space_group_name_Hall           '-P 2ybc'
loop_
_symmetry_equiv_pos_site_id
_symmetry_equiv_pos_as_xyz
1 x,y,z
2 -x,1/2+y,1/2-z
3 -x,-y,-z
4 x,1/2-y,1/2+z
_cell_length_a                   8.6820(12)
_cell_length_b                   24.934(3)
_cell_length_c                   7.0064(10)
_cell_angle_alpha                90
_cell_angle_beta                 97.942(3)
_cell_angle_gamma                90
_cell_volume                     1502.18
_exptl_crystal_colour            colorless
_exptl_crystal_description       needle
_cell_formula_units_Z            4
_exptl_crystal_recrystallization_method ethanol
loop_
_atom_site_label
_atom_site_type_symbol
_atom_site_fract_x
_atom_site_fract_y
_atom_site_fract_z
O1 O 0.2063(3) 0.57056(9) 0.2931(3)
N1 N -0.0382(4) 0.29691(14) 0.2623(6)
N2 N 0.1954(3) 0.46714(10) 0.0317(4)
N3 N 0.3393(3) 0.60403(10) 0.0536(4)
N4 N 0.3967(3) 0.58209(11) -0.1070(4)
C1 C 0.0625(4) 0.40165(14) 0.1998(5)
C2 C 0.0705(4) 0.36119(14) 0.0658(6)
H1 H 0.1095 0.3682 -0.0487
C3 C 0.0199(5) 0.31026(16) 0.1042(7)
H2 H 0.0272 0.2837 0.0128
C4 C -0.0481(5) 0.3354(2) 0.3874(7)
H3 H -0.0891 0.3271 0.4995
C5 C -0.0006(4) 0.38856(15) 0.3624(6)
H4 H -0.0120 0.4145 0.4549
C6 C 0.1190(4) 0.45611(13) 0.1705(5)
H5 H 0.0988 0.4832 0.2546
C7 C 0.2560(4) 0.51860(12) 0.0108(5)
C8 C 0.2558(4) 0.56421(13) 0.1379(5)
C9 C 0.3368(4) 0.53212(13) -0.1359(5)
C10 C 0.3599(4) 0.50065(13) -0.3100(5)
H6 H 0.3159 0.5198 -0.4234
H7 H 0.3096 0.4664 -0.3063
H8 H 0.4691 0.4954 -0.3126
C11 C 0.4452(4) 0.61809(13) -0.2514(5)
H9 H 0.5566 0.6176 -0.2426
H10 H 0.4109 0.6539 -0.2292
H11 H 0.4003 0.6065 -0.3775
C12 C 0.4248(5) 0.64478(13) 0.1655(5)
C13 C 0.3415(5) 0.68391(14) 0.2465(5)
H12 H 0.2335 0.6848 0.2216
C14 C 0.4218(7) 0.72163(16) 0.3653(6)
H13 H 0.3671 0.7474 0.4246
C15 C 0.5806(8) 0.72162(19) 0.3969(6)
H14 H 0.6332 0.7475 0.4763
C16 C 0.6634(5) 0.68329(17) 0.3112(6)
H15 H 0.7715 0.6837 0.3313
C17 C 0.5848(5) 0.64413(14) 0.1950(6)
H16 H 0.6395 0.6179 0.1381
loop_
_geom_bond_atom_site_label_1
_geom_bond_atom_site_label_2
_geom_bond_site_symmetry_1
_geom_bond_site_symmetry_2
O1 C8 1_555 1_555
N1 C3 1_555 1_555
N2 C6 1_555 1_555
N3 N4 1_555 1_555
N4 C9 1_555 1_555
C1 C2 1_555 1_555
C2 H1 1_555 1_555
C3 C2 1_555 1_555
H2 C3 1_555 1_555
C4 N1 1_555 1_555
H3 C4 1_555 1_555
C5 C1 1_555 1_555
H4 C5 1_555 1_555
C6 C1 1_555 1_555
H5 C6 1_555 1_555
C7 N2 1_555 1_555
C8 N3 1_555 1_555
C9 C7 1_555 1_555
C10 C9 1_555 1_555
H6 C10 1_555 1_555
H7 C10 1_555 1_555
H8 C10 1_555 1_555
C11 N4 1_555 1_555
H9 C11 1_555 1_555
H10 C11 1_555 1_555
H11 C11 1_555 1_555
C12 N3 1_555 1_555
C13 C12 1_555 1_555
H12 C13 1_555 1_555
C14 C13 1_555 1_555
H13 C14 1_555 1_555
C15 C14 1_555 1_555
H14 C15 1_555 1_555
C16 C15 1_555 1_555
H15 C16 1_555 1_555
C17 C12 1_555 1_555
H16 C17 1_555 1_555
C4 C5 1_555 1_555
C7 C8 1_555 1_555
C16 C17 1_555 1_555

#END
