
#######################################################################
#
#                 Cambridge Crystallographic Data Centre
#                                CCDC 
#
#######################################################################
#
# If this CIF has been generated from an entry in the Cambridge 
# Structural Database, then it will include bibliographic, chemical, 
# crystal, experimental, refinement or atomic coordinate data resulting 
# from the CCDC's data processing and validation procedures.
#
#######################################################################

data_UKAHOF
_chemical_formula_moiety         'C14 H15 N1 O4'
_chemical_name_systematic        
'Methyl 6-methoxy-1,2-dimethyl-3-oxo-2,3-dihydroisoquinoline-4-carboxylate'
_symmetry_cell_setting           triclinic
_symmetry_space_group_name_H-M   'P -1'
_symmetry_Int_Tables_number      2
_space_group_name_Hall           '-P 1'
loop_
_symmetry_equiv_pos_site_id
_symmetry_equiv_pos_as_xyz
1 x,y,z
2 -x,-y,-z
_cell_length_a                   7.8947(4)
_cell_length_b                   9.1007(5)
_cell_length_c                   10.3506(7)
_cell_angle_alpha                105.882(2)
_cell_angle_beta                 108.420(2)
_cell_angle_gamma                105.102(3)
_cell_volume                     627.649
_exptl_crystal_colour            yellow
_exptl_crystal_description       needle
_cell_formula_units_Z            2
loop_
_atom_site_label
_atom_site_type_symbol
_atom_site_fract_x
_atom_site_fract_y
_atom_site_fract_z
N1 N -0.1310(5) 0.1245(4) -0.0148(3)
C1 C -0.0648(6) 0.1982(5) -0.0959(4)
C2 C 0.0946(5) 0.3471(5) -0.0276(4)
C3 C 0.1654(6) 0.4344(5) -0.1073(4)
H1 H 0.1027 0.3902 -0.2110
C4 C 0.3193(6) 0.5782(5) -0.0377(4)
H2 H 0.3607 0.6345 -0.0927
C5 C 0.4195(6) 0.6452(5) 0.1189(4)
C6 C 0.3590(6) 0.5686(5) 0.2015(4)
H3 H 0.4276 0.6141 0.3048
C7 C 0.1917(5) 0.4194(5) 0.1313(4)
C8 C 0.1195(5) 0.3395(5) 0.2105(4)
C9 C -0.0471(6) 0.1929(5) 0.1433(4)
O1 O -0.1235(4) 0.1229(4) 0.2092(3)
C10 C -0.3026(6) -0.0304(5) -0.0839(5)
H4 H -0.4182 -0.0071 -0.1183
H5 H -0.3061 -0.0792 -0.0119
H6 H -0.2965 -0.1068 -0.1669
C11 C -0.1694(7) 0.1093(6) -0.2628(4)
H7 H -0.1398 0.0121 -0.2938
H8 H -0.1278 0.1827 -0.3089
H9 H -0.3075 0.0765 -0.2922
O2 O 0.5739(4) 0.7899(3) 0.1731(3)
C12 C 0.6905(6) 0.8622(6) 0.3291(5)
H10 H 0.6114 0.8844 0.3812
H11 H 0.7936 0.9648 0.3537
H12 H 0.7456 0.7865 0.3581
C13 C 0.2112(6) 0.4068(5) 0.3758(4)
O3 O 0.2910(5) 0.3422(4) 0.4483(3)
O4 O 0.1930(4) 0.5485(4) 0.4346(3)
C14 C 0.2777(8) 0.6238(7) 0.5948(5)
H13 H 0.2275 0.5443 0.6329
H14 H 0.2452 0.7193 0.6263
H15 H 0.4168 0.6581 0.6323
loop_
_geom_bond_atom_site_label_1
_geom_bond_atom_site_label_2
_geom_bond_site_symmetry_1
_geom_bond_site_symmetry_2
N1 C1 1_555 1_555
C1 C2 1_555 1_555
C2 C3 1_555 1_555
C3 H1 1_555 1_555
C4 C3 1_555 1_555
H2 C4 1_555 1_555
C5 C4 1_555 1_555
C6 C5 1_555 1_555
H3 C6 1_555 1_555
C7 C2 1_555 1_555
C8 C7 1_555 1_555
C9 N1 1_555 1_555
O1 C9 1_555 1_555
C10 N1 1_555 1_555
H4 C10 1_555 1_555
H5 C10 1_555 1_555
H6 C10 1_555 1_555
C11 C1 1_555 1_555
H7 C11 1_555 1_555
H8 C11 1_555 1_555
H9 C11 1_555 1_555
O2 C5 1_555 1_555
C12 O2 1_555 1_555
H10 C12 1_555 1_555
H11 C12 1_555 1_555
H12 C12 1_555 1_555
C13 C8 1_555 1_555
O3 C13 1_555 1_555
O4 C13 1_555 1_555
C14 O4 1_555 1_555
H13 C14 1_555 1_555
H14 C14 1_555 1_555
H15 C14 1_555 1_555
C6 C7 1_555 1_555
C8 C9 1_555 1_555

#END
