
#######################################################################
#
#                 Cambridge Crystallographic Data Centre
#                                CCDC 
#
#######################################################################
#
# If this CIF has been generated from an entry in the Cambridge 
# Structural Database, then it will include bibliographic, chemical, 
# crystal, experimental, refinement or atomic coordinate data resulting 
# from the CCDC's data processing and validation procedures.
#
#######################################################################

data_UKEFIB
_chemical_name_common            
'dimer of (2R,3S,10bR)-8,9-dimethoxy-2,10b-diphenyl-1,2,3,5,6,10b-hexahydropyrrolo[2,1-a]isoquinoline-2,3-diol'
_chemical_formula_moiety         'C52 H50 N2 O6'
_chemical_name_systematic        
2,3,11,12-Tetramethoxy-8a,9a,17a,18a-tetraphenyl-5,6,7a,8a,9,9a,14,15,16a,17a,18,18a-dodecahydrobenzo[7'',8'']indolizino[2'',3'':5',6'][1,4]dioxino[2',3':4,5]pyrrolo[2,1-a]isoquinoline
_symmetry_cell_setting           orthorhombic
_symmetry_space_group_name_H-M   'P n a 21'
_symmetry_Int_Tables_number      33
_space_group_name_Hall           'P 2c -2n'
loop_
_symmetry_equiv_pos_site_id
_symmetry_equiv_pos_as_xyz
1 x,y,z
2 -x,-y,1/2+z
3 1/2+x,1/2-y,z
4 1/2-x,1/2+y,1/2+z
_cell_length_a                   25.009(5)
_cell_length_b                   10.969(2)
_cell_length_c                   15.116(3)
_cell_angle_alpha                90
_cell_angle_beta                 90
_cell_angle_gamma                90
_cell_volume                     4146.68
_exptl_crystal_colour            colorless
_exptl_crystal_description       block
_cell_formula_units_Z            4
loop_
_atom_site_label
_atom_site_type_symbol
_atom_site_fract_x
_atom_site_fract_y
_atom_site_fract_z
O1 O -0.08891(9) 0.0006(2) -0.72538(14)
O2 O -0.05429(10) 0.18630(19) -0.63896(15)
O3 O -0.15713(7) -0.35645(17) -0.41620(13)
O4 O -0.09869(7) -0.19172(17) -0.34352(13)
O5 O -0.24469(10) -0.1511(2) -0.74796(14)
O6 O -0.21666(9) 0.04369(19) -0.66286(14)
N1 N -0.02039(9) -0.2915(2) -0.39518(15)
N2 N -0.23301(9) -0.2851(2) -0.33535(16)
C1 C -0.11445(14) -0.0979(3) -0.7692(2)
H1 H -0.1341 -0.0676 -0.8191
H2 H -0.1386 -0.1376 -0.7290
H3 H -0.0880 -0.1551 -0.7890
C2 C -0.06636(11) -0.0252(3) -0.64480(19)
C3 C -0.06084(11) -0.1398(3) -0.60914(19)
H4 H -0.0724 -0.2071 -0.6413
C4 C -0.03817(11) -0.1574(3) -0.52510(19)
C5 C -0.02100(11) -0.0573(3) -0.47737(19)
C6 C -0.02657(11) 0.0594(3) -0.5144(2)
H5 H -0.0155 0.1268 -0.4820
C7 C -0.04803(12) 0.0768(3) -0.5975(2)
C8 C -0.03166(16) 0.2903(3) -0.5964(3)
H6 H -0.0360 0.3606 -0.6336
H7 H 0.0057 0.2764 -0.5859
H8 H -0.0495 0.3039 -0.5410
C9 C -0.02849(11) -0.2871(3) -0.49202(18)
C10 C 0.01790(12) -0.2014(3) -0.3616(2)
H9 H 0.0531 -0.2201 -0.3850
H10 H 0.0197 -0.2081 -0.2977
C11 C 0.00344(12) -0.0700(3) -0.3862(2)
H11 H -0.0216 -0.0386 -0.3428
H12 H 0.0355 -0.0203 -0.3833
C12 C 0.02200(11) -0.3390(3) -0.53691(19)
C13 C 0.03489(13) -0.4612(3) -0.5263(2)
H13 H 0.0125 -0.5113 -0.4932
C14 C 0.08077(13) -0.5101(3) -0.5642(3)
H14 H 0.0882 -0.5927 -0.5575
C15 C 0.11534(13) -0.4372(4) -0.6115(2)
H15 H 0.1461 -0.4698 -0.6366
C16 C 0.10361(13) -0.3152(3) -0.6210(2)
H16 H 0.1268 -0.2650 -0.6523
C17 C 0.05744(12) -0.2668(3) -0.5843(2)
H17 H 0.0501 -0.1843 -0.5916
C18 C -0.07855(11) -0.3689(3) -0.50423(19)
H18 H -0.1047 -0.3282 -0.5413
H19 H -0.0687 -0.4453 -0.5321
C19 C -0.10203(10) -0.3926(2) -0.41090(19)
C20 C -0.07023(11) -0.3054(2) -0.35043(18)
H20 H -0.0649 -0.3417 -0.2919
C21 C -0.09708(12) -0.5270(3) -0.38491(19)
C22 C -0.13637(13) -0.6092(3) -0.4100(2)
H21 H -0.1668 -0.5811 -0.4389
C23 C -0.13082(16) -0.7323(3) -0.3928(3)
H22 H -0.1574 -0.7863 -0.4106
C24 C -0.08644(17) -0.7757(3) -0.3496(3)
H23 H -0.0830 -0.8585 -0.3378
C25 C -0.04696(16) -0.6952(3) -0.3238(2)
H24 H -0.0169 -0.7240 -0.2943
C26 C -0.05186(14) -0.5707(3) -0.3419(2)
H25 H -0.0249 -0.5172 -0.3251
C27 C -0.17846(11) -0.3209(2) -0.33126(18)
H26 H -0.1735 -0.3863 -0.2878
C28 C -0.14961(11) -0.2041(2) -0.30113(18)
C29 C -0.18476(11) -0.1008(2) -0.3400(2)
H27 H -0.1667 -0.0626 -0.3896
H28 H -0.1916 -0.0392 -0.2954
C30 C -0.23807(11) -0.1595(3) -0.37092(19)
C31 C -0.14414(11) -0.1940(3) -0.20129(19)
C32 C -0.17700(12) -0.2596(3) -0.1438(2)
H29 H -0.2016 -0.3147 -0.1669
C33 C -0.17358(14) -0.2439(3) -0.0531(2)
H30 H -0.1954 -0.2891 -0.0156
C34 C -0.13770(14) -0.1611(4) -0.0185(2)
H31 H -0.1354 -0.1504 0.0425
C35 C -0.10523(14) -0.0942(4) -0.0742(2)
H32 H -0.0815 -0.0374 -0.0508
C36 C -0.10799(13) -0.1115(3) -0.1648(2)
H33 H -0.0854 -0.0674 -0.2018
C37 C -0.28709(11) -0.0991(3) -0.3276(2)
C38 C -0.33152(13) -0.0613(3) -0.3753(2)
H34 H -0.3322 -0.0715 -0.4364
C39 C -0.37523(14) -0.0081(4) -0.3327(3)
H35 H -0.4046 0.0168 -0.3658
C40 C -0.37526(15) 0.0079(3) -0.2427(3)
H36 H -0.4045 0.0435 -0.2147
C41 C -0.33120(15) -0.0297(3) -0.1940(2)
H37 H -0.3308 -0.0195 -0.1329
C42 C -0.28801(13) -0.0820(3) -0.2360(2)
H38 H -0.2587 -0.1065 -0.2025
C43 C -0.27261(11) -0.3707(3) -0.3701(2)
H39 H -0.3080 -0.3433 -0.3531
H40 H -0.2667 -0.4500 -0.3435
C44 C -0.27056(12) -0.3837(3) -0.47071(19)
H41 H -0.2440 -0.4446 -0.4860
H42 H -0.3050 -0.4125 -0.4916
C45 C -0.25702(11) -0.2657(3) -0.51736(19)
C46 C -0.24236(10) -0.1612(2) -0.47187(18)
C47 C -0.23008(11) -0.0552(3) -0.52019(19)
H43 H -0.2217 0.0160 -0.4898
C48 C -0.23017(11) -0.0541(3) -0.6112(2)
C49 C -0.24482(11) -0.1604(3) -0.65741(19)
C50 C -0.25767(11) -0.2639(3) -0.6101(2)
H44 H -0.2670 -0.3344 -0.6406
C51 C -0.24425(16) -0.2625(3) -0.7962(2)
H45 H -0.2414 -0.2453 -0.8583
H46 H -0.2768 -0.3064 -0.7849
H47 H -0.2143 -0.3109 -0.7779
C52 C -0.18730(13) 0.1394(3) -0.6212(2)
H48 H -0.1720 0.1914 -0.6655
H49 H -0.1592 0.1049 -0.5857
H50 H -0.2109 0.1860 -0.5842
loop_
_geom_bond_atom_site_label_1
_geom_bond_atom_site_label_2
_geom_bond_site_symmetry_1
_geom_bond_site_symmetry_2
O1 C1 1_555 1_555
O2 C7 1_555 1_555
O3 C19 1_555 1_555
O4 C20 1_555 1_555
O5 C49 1_555 1_555
O6 C48 1_555 1_555
N1 C9 1_555 1_555
N2 C27 1_555 1_555
C1 H1 1_555 1_555
H2 C1 1_555 1_555
H3 C1 1_555 1_555
C2 O1 1_555 1_555
C3 C2 1_555 1_555
H4 C3 1_555 1_555
C4 C3 1_555 1_555
C5 C4 1_555 1_555
C6 C5 1_555 1_555
H5 C6 1_555 1_555
C7 C2 1_555 1_555
C8 O2 1_555 1_555
H6 C8 1_555 1_555
H7 C8 1_555 1_555
H8 C8 1_555 1_555
C9 C4 1_555 1_555
C10 N1 1_555 1_555
H9 C10 1_555 1_555
H10 C10 1_555 1_555
C11 C5 1_555 1_555
H11 C11 1_555 1_555
H12 C11 1_555 1_555
C12 C9 1_555 1_555
C13 C12 1_555 1_555
H13 C13 1_555 1_555
C14 C13 1_555 1_555
H14 C14 1_555 1_555
C15 C14 1_555 1_555
H15 C15 1_555 1_555
C16 C15 1_555 1_555
H16 C16 1_555 1_555
C17 C12 1_555 1_555
H17 C17 1_555 1_555
C18 C9 1_555 1_555
H18 C18 1_555 1_555
H19 C18 1_555 1_555
C19 C18 1_555 1_555
C20 N1 1_555 1_555
H20 C20 1_555 1_555
C21 C19 1_555 1_555
C22 C21 1_555 1_555
H21 C22 1_555 1_555
C23 C22 1_555 1_555
H22 C23 1_555 1_555
C24 C23 1_555 1_555
H23 C24 1_555 1_555
C25 C24 1_555 1_555
H24 C25 1_555 1_555
C26 C21 1_555 1_555
H25 C26 1_555 1_555
C27 O3 1_555 1_555
H26 C27 1_555 1_555
C28 O4 1_555 1_555
C29 C28 1_555 1_555
H27 C29 1_555 1_555
H28 C29 1_555 1_555
C30 N2 1_555 1_555
C31 C28 1_555 1_555
C32 C31 1_555 1_555
H29 C32 1_555 1_555
C33 C32 1_555 1_555
H30 C33 1_555 1_555
C34 C33 1_555 1_555
H31 C34 1_555 1_555
C35 C34 1_555 1_555
H32 C35 1_555 1_555
C36 C31 1_555 1_555
H33 C36 1_555 1_555
C37 C30 1_555 1_555
C38 C37 1_555 1_555
H34 C38 1_555 1_555
C39 C38 1_555 1_555
H35 C39 1_555 1_555
C40 C39 1_555 1_555
H36 C40 1_555 1_555
C41 C40 1_555 1_555
H37 C41 1_555 1_555
C42 C37 1_555 1_555
H38 C42 1_555 1_555
C43 N2 1_555 1_555
H39 C43 1_555 1_555
H40 C43 1_555 1_555
C44 C43 1_555 1_555
H41 C44 1_555 1_555
H42 C44 1_555 1_555
C45 C44 1_555 1_555
C46 C30 1_555 1_555
C47 C46 1_555 1_555
H43 C47 1_555 1_555
C48 C47 1_555 1_555
C49 C48 1_555 1_555
C50 C45 1_555 1_555
H44 C50 1_555 1_555
C51 O5 1_555 1_555
H45 C51 1_555 1_555
H46 C51 1_555 1_555
H47 C51 1_555 1_555
C52 O6 1_555 1_555
H48 C52 1_555 1_555
H49 C52 1_555 1_555
H50 C52 1_555 1_555
C6 C7 1_555 1_555
C10 C11 1_555 1_555
C16 C17 1_555 1_555
C19 C20 1_555 1_555
C25 C26 1_555 1_555
C27 C28 1_555 1_555
C29 C30 1_555 1_555
C35 C36 1_555 1_555
C41 C42 1_555 1_555
C45 C46 1_555 1_555
C49 C50 1_555 1_555

#END
