
#######################################################################
#
#                 Cambridge Crystallographic Data Centre
#                                CCDC 
#
#######################################################################
#
# If this CIF has been generated from an entry in the Cambridge 
# Structural Database, then it will include bibliographic, chemical, 
# crystal, experimental, refinement or atomic coordinate data resulting 
# from the CCDC's data processing and validation procedures.
#
#######################################################################

data_UKIJUV
_chemical_formula_moiety         'C2 N7 O6 1-,H5 N2 1+'
_chemical_name_systematic        
'hydrazinium dinitro(5-nitro-2H-tetrazol-2-yl)methanide'
_symmetry_cell_setting           orthorhombic
_symmetry_space_group_name_H-M   'P b c a'
_symmetry_Int_Tables_number      61
_space_group_name_Hall           '-P 2ac 2ab'
loop_
_symmetry_equiv_pos_site_id
_symmetry_equiv_pos_as_xyz
1 x,y,z
2 1/2-x,-y,1/2+z
3 1/2+x,1/2-y,-z
4 -x,1/2+y,1/2-z
5 -x,-y,-z
6 1/2+x,y,1/2-z
7 1/2-x,1/2+y,z
8 x,1/2-y,1/2+z
_cell_length_a                   6.43139(19)
_cell_length_b                   16.4647(4)
_cell_length_c                   16.8638(5)
_cell_angle_alpha                90
_cell_angle_beta                 90
_cell_angle_gamma                90
_cell_volume                     1785.72
_exptl_crystal_description       orthorhombic
_cell_formula_units_Z            8
loop_
_atom_site_label
_atom_site_type_symbol
_atom_site_fract_x
_atom_site_fract_y
_atom_site_fract_z
O1 O 0.03189(18) 0.96077(6) 0.39345(7)
O2 O 0.31145(17) 0.95736(7) 0.50788(7)
O3 O -0.49402(19) 0.82830(7) 0.72934(7)
O4 O -0.22713(18) 0.87606(7) 0.40750(7)
O5 O 0.23793(18) 0.87520(7) 0.60495(7)
O6 O -0.4346(2) 0.69795(7) 0.72883(8)
N1 N -0.0710(2) 0.74411(8) 0.54320(8)
N2 N -0.0613(2) 0.90736(8) 0.43200(8)
N3 N -0.1051(2) 0.82494(8) 0.54670(8)
N4 N -0.1833(2) 0.71217(8) 0.59995(8)
N5 N -0.4136(2) 0.76702(8) 0.70266(8)
N6 N -0.2359(2) 0.84729(8) 0.60414(8)
N7 N 0.1966(2) 0.90603(8) 0.53930(8)
C1 C -0.2784(2) 0.77595(9) 0.63434(9)
C2 C 0.0138(2) 0.88035(9) 0.50332(9)
N8 N 0.4584(2) 0.99020(8) 0.34853(8)
H1 H 0.5036 1.0413 0.3468
H2 H 0.5650 0.9571 0.3578
H3 H 0.3650 0.9851 0.3872
N9 N 0.3637(2) 0.96939(9) 0.27366(8)
H4 H 0.4533 0.9790 0.2346
H5 H 0.3296 0.9170 0.2738
loop_
_geom_bond_atom_site_label_1
_geom_bond_atom_site_label_2
_geom_bond_site_symmetry_1
_geom_bond_site_symmetry_2
O1 N2 1_555 1_555
O2 N7 1_555 1_555
O3 N5 1_555 1_555
O4 N2 1_555 1_555
O5 N7 1_555 1_555
O6 N5 1_555 1_555
N1 N3 1_555 1_555
N2 C2 1_555 1_555
N3 N6 1_555 1_555
N4 N1 1_555 1_555
N5 C1 1_555 1_555
N6 C1 1_555 1_555
N7 C2 1_555 1_555
C1 N4 1_555 1_555
C2 N3 1_555 1_555
N8 H1 1_555 1_555
H2 N8 1_555 1_555
H3 N8 1_555 1_555
N9 N8 1_555 1_555
H4 N9 1_555 1_555
H5 N9 1_555 1_555

#END
