
#######################################################################
#
#                 Cambridge Crystallographic Data Centre
#                                CCDC 
#
#######################################################################
#
# If this CIF has been generated from an entry in the Cambridge 
# Structural Database, then it will include bibliographic, chemical, 
# crystal, experimental, refinement or atomic coordinate data resulting 
# from the CCDC's data processing and validation procedures.
#
#######################################################################

data_UKIKAC
_chemical_formula_moiety         'C4 H2 N5 O6 1-,H5 N2 1+'
_chemical_name_systematic        
'hydrazinium dinitro(3-nitro-1H-pyrazol-1-yl)methanide'
_symmetry_cell_setting           monoclinic
_symmetry_space_group_name_H-M   'P 21/c'
_symmetry_Int_Tables_number      14
_space_group_name_Hall           '-P 2ybc'
loop_
_symmetry_equiv_pos_site_id
_symmetry_equiv_pos_as_xyz
1 x,y,z
2 -x,1/2+y,1/2-z
3 -x,-y,-z
4 x,1/2-y,1/2+z
_cell_length_a                   4.8027(2)
_cell_length_b                   27.5834(14)
_cell_length_c                   7.2531(4)
_cell_angle_alpha                90
_cell_angle_beta                 104.940(6)
_cell_angle_gamma                90
_cell_volume                     928.373
_exptl_crystal_description       monoclinic
_cell_formula_units_Z            4
loop_
_atom_site_label
_atom_site_type_symbol
_atom_site_fract_x
_atom_site_fract_y
_atom_site_fract_z
C1 C 0.2352(8) 0.21026(14) 0.5799(6)
H1 H 0.1894 0.2413 0.6205
O1 O 0.8775(5) 0.15854(10) 0.8901(3)
N1 N 0.4703(5) 0.13855(11) 0.5763(4)
N2 N 0.2388(6) 0.14226(11) 0.4231(4)
N3 N 0.6874(6) 0.18903(11) 0.8395(4)
O2 O 0.6760(7) 0.22727(10) 0.9229(5)
O3 O -0.1025(8) 0.07019(12) 0.4372(5)
O4 O -0.0655(6) 0.03719(11) 0.1725(4)
N4 N 0.0027(7) 0.06987(12) 0.2975(5)
O5 O 0.4927(6) 0.1450(2) 0.1493(4)
C2 C 0.0952(8) 0.18475(14) 0.4229(6)
H2 H -0.0728 0.1948 0.3298
C3 C 0.4629(7) 0.17962(13) 0.6668(5)
O6 O 0.3163(6) 0.07627(18) 0.0224(4)
N5 N 0.3381(6) 0.1088(2) 0.1440(4)
C4 C 0.1865(7) 0.10624(15) 0.2848(5)
N6 N 0.7369(13) 0.05266(13) 0.7713(5)
H3 H 0.7171 0.0820 0.7116
H4 H 0.8962 0.0374 0.7539
H5 H 0.7559 0.0571 0.8983
N7 N 0.4882(15) 0.02373(12) 0.6930(5)
H6 H 0.4898 0.0139 0.5735
H7 H 0.4896 -0.0027 0.7683
H8? H 0.3265 0.0415 0.6873
loop_
_geom_bond_atom_site_label_1
_geom_bond_atom_site_label_2
_geom_bond_site_symmetry_1
_geom_bond_site_symmetry_2
C1 H1 1_555 1_555
O1 N3 1_555 1_555
N1 N2 1_555 1_555
N2 C2 1_555 1_555
N3 O2 1_555 1_555
O3 N4 1_555 1_555
O4 N4 1_555 1_555
N4 C4 1_555 1_555
O5 N5 1_555 1_555
C2 C1 1_555 1_555
H2 C2 1_555 1_555
C3 C1 1_555 1_555
O6 N5 1_555 1_555
N5 C4 1_555 1_555
C4 N2 1_555 1_555
N6 H3 1_555 1_555
H4 N6 1_555 1_555
H5 N6 1_555 1_555
N7 N6 1_555 1_555
H6 N7 1_555 1_555
H7 N7 1_555 1_555
N1 C3 1_555 1_555
N3 C3 1_555 1_555

#END
