
#######################################################################
#
#                 Cambridge Crystallographic Data Centre
#                                CCDC 
#
#######################################################################
#
# If this CIF has been generated from an entry in the Cambridge 
# Structural Database, then it will include bibliographic, chemical, 
# crystal, experimental, refinement or atomic coordinate data resulting 
# from the CCDC's data processing and validation procedures.
#
#######################################################################

data_UKIVIV
_chemical_formula_moiety         'C24 H38 N4'
_chemical_name_systematic        4,5-bis(dibutylamino)phthalonitrile
_symmetry_cell_setting           monoclinic
_symmetry_space_group_name_H-M   'P 21/c'
_symmetry_Int_Tables_number      14
_space_group_name_Hall           '-P 2ybc'
loop_
_symmetry_equiv_pos_site_id
_symmetry_equiv_pos_as_xyz
1 x,y,z
2 -x,1/2+y,1/2-z
3 -x,-y,-z
4 x,1/2-y,1/2+z
_cell_length_a                   14.2971(14)
_cell_length_b                   9.9436(10)
_cell_length_c                   17.5443(18)
_cell_angle_alpha                90
_cell_angle_beta                 108.113(11)
_cell_angle_gamma                90
_cell_volume                     2370.58
_exptl_crystal_colour            yellow
_exptl_crystal_description       block
_cell_formula_units_Z            4
loop_
_atom_site_label
_atom_site_type_symbol
_atom_site_fract_x
_atom_site_fract_y
_atom_site_fract_z
N1 N 0.25256(11) 0.61792(17) 0.41036(9)
N2 N 0.24150(11) 0.65131(16) 0.57272(9)
C1 C 0.24790(13) 0.4096(2) 0.58491(12)
H1 H 0.2440 0.4192 0.6366
C2 C 0.24800(13) 0.5248(2) 0.54038(11)
C3 C 0.25317(12) 0.5090(2) 0.46039(11)
C4 C 0.26010(13) 0.3789(2) 0.43367(12)
H2 H 0.2644 0.3673 0.3823
C5 C 0.26092(14) 0.2659(2) 0.47971(13)
C6 C 0.25336(14) 0.2815(2) 0.55645(13)
C7 C 0.31751(14) 0.7519(2) 0.57331(12)
H3 H 0.2907 0.8409 0.5757
H4 H 0.3327 0.7454 0.5233
C8 C 0.28947(15) 0.5999(2) 0.34163(12)
H5 H 0.2800 0.6832 0.3114
H6 H 0.2503 0.5312 0.3068
C9 C 0.16985(14) 0.7127(2) 0.39449(12)
H7 H 0.1895 0.7971 0.3763
H8 H 0.1562 0.7302 0.4444
C10 C 0.25470(17) 0.1675(3) 0.60621(15)
C11 C 0.46875(16) 0.6485(2) 0.42380(15)
H9 H 0.4546 0.6432 0.4743
H10 H 0.5346 0.6134 0.4326
C12 C 0.26700(17) 0.1350(2) 0.44707(15)
C13 C 0.39675(15) 0.5604(2) 0.36345(14)
H11 H 0.4035 0.4693 0.3843
H12 H 0.4152 0.5592 0.3147
C14 C 0.20520(16) 0.6622(2) 0.64175(13)
H13 H 0.2112 0.7550 0.6597
H14 H 0.2468 0.6081 0.6851
C15 C 0.09945(17) 0.6180(3) 0.62531(15)
H15 H 0.0813 0.6327 0.6736
H16 H 0.0960 0.5220 0.6150
C16 C 0.07651(15) 0.6649(3) 0.33312(13)
H17 H 0.0568 0.5799 0.3505
H18 H 0.0889 0.6500 0.2825
C17 C 0.41151(15) 0.7375(2) 0.64164(13)
H19 H 0.4392 0.6491 0.6394
H20 H 0.3971 0.7446 0.6920
C18 C 0.48635(18) 0.8434(3) 0.63912(16)
H21 H 0.5033 0.8319 0.5901
H22 H 0.4561 0.9313 0.6368
N3 N 0.27193(19) 0.0328(2) 0.41955(16)
C19 C 0.46717(19) 0.7926(3) 0.39996(17)
H23 H 0.4829 0.7994 0.3507
H24 H 0.5148 0.8418 0.4413
H25 H 0.4028 0.8292 0.3925
N4 N 0.25525(19) 0.0761(2) 0.64616(14)
C20 C 0.02356(18) 0.6867(3) 0.55613(17)
H26 H 0.0369 0.6642 0.5067
H27 H -0.0410 0.6514 0.5523
C21 C -0.00656(18) 0.7661(3) 0.32101(16)
H28 H -0.0221 0.7744 0.3708
H29 H 0.0165 0.8532 0.3094
C22 C 0.57916(17) 0.8414(3) 0.70852(16)
H30 H 0.5646 0.8650 0.7567
H31 H 0.6250 0.9050 0.6993
H32 H 0.6074 0.7529 0.7141
C23 C -0.0975(2) 0.7321(5) 0.25636(19)
H33 H -0.0841 0.7294 0.2061
H34 H -0.1467 0.7990 0.2540
H35 H -0.1209 0.6458 0.2669
C24 C 0.0214(2) 0.8349(3) 0.5634(2)
H36 H 0.0104 0.8583 0.6130
H37 H -0.0307 0.8709 0.5194
H38 H 0.0832 0.8716 0.5625
loop_
_geom_bond_atom_site_label_1
_geom_bond_atom_site_label_2
_geom_bond_site_symmetry_1
_geom_bond_site_symmetry_2
N1 C3 1_555 1_555
N2 C2 1_555 1_555
C1 H1 1_555 1_555
C2 C1 1_555 1_555
C3 C2 1_555 1_555
C4 C3 1_555 1_555
H2 C4 1_555 1_555
C5 C4 1_555 1_555
C6 C1 1_555 1_555
C7 N2 1_555 1_555
H3 C7 1_555 1_555
H4 C7 1_555 1_555
C8 N1 1_555 1_555
H5 C8 1_555 1_555
H6 C8 1_555 1_555
C9 N1 1_555 1_555
H7 C9 1_555 1_555
H8 C9 1_555 1_555
C10 C6 1_555 1_555
C11 H9 1_555 1_555
H10 C11 1_555 1_555
C12 C5 1_555 1_555
C13 C8 1_555 1_555
H11 C13 1_555 1_555
H12 C13 1_555 1_555
C14 N2 1_555 1_555
H13 C14 1_555 1_555
H14 C14 1_555 1_555
C15 C14 1_555 1_555
H15 C15 1_555 1_555
H16 C15 1_555 1_555
C16 C9 1_555 1_555
H17 C16 1_555 1_555
H18 C16 1_555 1_555
C17 C7 1_555 1_555
H19 C17 1_555 1_555
H20 C17 1_555 1_555
C18 C17 1_555 1_555
H21 C18 1_555 1_555
H22 C18 1_555 1_555
N3 C12 1_555 1_555
C19 C11 1_555 1_555
H23 C19 1_555 1_555
H24 C19 1_555 1_555
H25 C19 1_555 1_555
N4 C10 1_555 1_555
C20 C15 1_555 1_555
H26 C20 1_555 1_555
H27 C20 1_555 1_555
C21 C16 1_555 1_555
H28 C21 1_555 1_555
H29 C21 1_555 1_555
C22 C18 1_555 1_555
H30 C22 1_555 1_555
H31 C22 1_555 1_555
H32 C22 1_555 1_555
C23 C21 1_555 1_555
H33 C23 1_555 1_555
H34 C23 1_555 1_555
H35 C23 1_555 1_555
C24 C20 1_555 1_555
H36 C24 1_555 1_555
H37 C24 1_555 1_555
H38 C24 1_555 1_555
C5 C6 1_555 1_555
C11 C13 1_555 1_555

#END
