
#######################################################################
#
#                 Cambridge Crystallographic Data Centre
#                                CCDC 
#
#######################################################################
#
# If this CIF has been generated from an entry in the Cambridge 
# Structural Database, then it will include bibliographic, chemical, 
# crystal, experimental, refinement or atomic coordinate data resulting 
# from the CCDC's data processing and validation procedures.
#
#######################################################################

data_UKUDOT
_chemical_formula_moiety         'C28 H35 K3 O4'
_chemical_name_systematic        
bis(\m~3~-2,6-Dimethylphenolato)-(\m~2~-2,6-dimethylphenolato)-(tetrahydrofuran)-tri-potassium
_symmetry_cell_setting           triclinic
_symmetry_space_group_name_H-M   'P -1'
_symmetry_Int_Tables_number      2
_space_group_name_Hall           '-P 1'
loop_
_symmetry_equiv_pos_site_id
_symmetry_equiv_pos_as_xyz
1 x,y,z
2 -x,-y,-z
_cell_length_a                   11.738(3)
_cell_length_b                   11.887(3)
_cell_length_c                   11.985(3)
_cell_angle_alpha                71.754(4)
_cell_angle_beta                 62.253(4)
_cell_angle_gamma                74.888(4)
_cell_volume                     1392.36
_exptl_crystal_colour            colorless
_exptl_crystal_description       plate
_cell_formula_units_Z            2
loop_
_atom_site_label
_atom_site_type_symbol
_atom_site_fract_x
_atom_site_fract_y
_atom_site_fract_z
K1 K 0.18338(5) 0.84049(5) 0.30467(5)
K2 K -0.08445(5) 0.70981(5) 0.39769(5)
K3 K -0.06468(5) 1.05174(5) 0.21991(5)
O1 O 0.13903(16) 0.62075(14) 0.40778(16)
O2 O -0.08334(16) 0.91636(14) 0.44363(15)
O3 O 0.03558(16) 0.85033(15) 0.15950(15)
O4 O 0.43303(18) 0.74795(18) 0.15655(19)
C1 C 0.2172(2) 0.5195(2) 0.4058(2)
C2 C 0.2295(2) 0.4417(2) 0.3299(2)
C3 C 0.3126(2) 0.3347(2) 0.3285(2)
H1 H 0.3214 0.2852 0.2754
C4 C 0.3834(2) 0.2982(2) 0.4028(3)
H2 H 0.4381 0.2235 0.4028
C5 C 0.3724(2) 0.3729(2) 0.4770(2)
H3 H 0.4212 0.3490 0.5274
C6 C 0.2919(2) 0.4820(2) 0.4796(2)
C7 C 0.1482(3) 0.4779(3) 0.2542(3)
H4 H 0.052(3) 0.478(2) 0.313(3)
H5 H 0.168(3) 0.425(3) 0.202(3)
H6 H 0.164(3) 0.560(3) 0.194(3)
C8 C 0.2837(3) 0.5626(3) 0.5587(3)
H7 H 0.195(3) 0.572(3) 0.631(3)
H8 H 0.305(3) 0.641(3) 0.504(3)
H9 H 0.344(3) 0.531(3) 0.601(3)
C9 C -0.1609(2) 0.9220(2) 0.5638(2)
C10 C -0.1203(2) 0.8635(2) 0.6651(2)
C11 C -0.2062(3) 0.8653(2) 0.7934(2)
H10 H -0.1778 0.8250 0.8600
C12 C -0.3323(3) 0.9247(2) 0.8261(3)
H11 H -0.3900 0.9247 0.9139
C13 C -0.3718(3) 0.9837(2) 0.7285(3)
H12 H -0.4576 1.0252 0.7501
C14 C -0.2896(2) 0.9843(2) 0.5988(2)
C15 C 0.0136(3) 0.7953(2) 0.6314(3)
H13 H 0.026(3) 0.733(2) 0.585(3)
H14 H 0.028(3) 0.753(2) 0.712(3)
H15 H 0.077(3) 0.847(2) 0.579(3)
C16 C -0.3379(3) 1.0453(3) 0.4957(3)
H16 H -0.321(3) 0.990(3) 0.439(3)
H17 H -0.299(3) 1.114(3) 0.440(3)
H18 H -0.427(3) 1.076(3) 0.530(3)
C17 C 0.0979(2) 0.8118(2) 0.0525(2)
C18 C 0.2169(2) 0.8524(2) -0.0447(2)
C19 C 0.2894(3) 0.8015(3) -0.1510(3)
H19 H 0.3706 0.8275 -0.2123
C20 C 0.2473(3) 0.7145(2) -0.1704(3)
H20 H 0.2993 0.6789 -0.2426
C21 C 0.1272(3) 0.6801(2) -0.0820(3)
H21 H 0.0958 0.6222 -0.0962
C22 C 0.0507(3) 0.7277(2) 0.0274(2)
C23 C 0.2644(3) 0.9510(3) -0.0308(3)
H22 H 0.312(4) 0.920(3) 0.025(4)
H23 H 0.201(4) 1.009(3) -0.004(3)
H24 H 0.328(3) 0.993(3) -0.109(3)
C24 C -0.0786(3) 0.6885(3) 0.1200(3)
H25 H -0.079(3) 0.626(3) 0.197(3)
H26 H -0.144(3) 0.751(3) 0.162(3)
H27 H -0.113(3) 0.658(3) 0.076(3)
C25 C 0.4458(3) 0.6710(3) 0.0792(3)
H28 H 0.4736 0.7140 -0.0126
H29 H 0.3617 0.6432 0.1089
C26 C 0.5463(3) 0.5666(3) 0.0942(4)
H30 H 0.5053 0.4991 0.1638
H31 H 0.5990 0.5390 0.0125
C27 C 0.6246(4) 0.6139(3) 0.1274(5)
H32 H 0.6995 0.6452 0.0486
H33 H 0.6579 0.5509 0.1860
C28 C 0.5382(3) 0.7122(3) 0.1932(4)
H34 H 0.5060 0.6835 0.2883
H35 H 0.5863 0.7803 0.1659
loop_
_geom_bond_atom_site_label_1
_geom_bond_atom_site_label_2
_geom_bond_site_symmetry_1
_geom_bond_site_symmetry_2
K1 O1 1_555 1_555
K2 O1 1_555 1_555
K3 O2 1_555 1_555
O1 C1 1_555 1_555
O2 K1 1_555 1_555
O3 K1 1_555 1_555
O4 K1 1_555 1_555
C1 C2 1_555 1_555
C2 C3 1_555 1_555
C3 H1 1_555 1_555
C4 C3 1_555 1_555
H2 C4 1_555 1_555
C5 C4 1_555 1_555
H3 C5 1_555 1_555
C6 C1 1_555 1_555
C7 C2 1_555 1_555
H4 C7 1_555 1_555
H5 C7 1_555 1_555
H6 C7 1_555 1_555
C8 C6 1_555 1_555
H7 C8 1_555 1_555
H8 C8 1_555 1_555
H9 C8 1_555 1_555
C9 O2 1_555 1_555
C10 C9 1_555 1_555
C11 C10 1_555 1_555
H10 C11 1_555 1_555
C12 C11 1_555 1_555
H11 C12 1_555 1_555
C13 C12 1_555 1_555
H12 C13 1_555 1_555
C14 C9 1_555 1_555
C15 C10 1_555 1_555
H13 C15 1_555 1_555
H14 C15 1_555 1_555
H15 C15 1_555 1_555
C16 C14 1_555 1_555
H16 C16 1_555 1_555
H17 C16 1_555 1_555
H18 C16 1_555 1_555
C17 O3 1_555 1_555
C18 C17 1_555 1_555
C19 C18 1_555 1_555
H19 C19 1_555 1_555
C20 C19 1_555 1_555
H20 C20 1_555 1_555
C21 C20 1_555 1_555
H21 C21 1_555 1_555
C22 C17 1_555 1_555
C23 C18 1_555 1_555
H22 C23 1_555 1_555
H23 C23 1_555 1_555
H24 C23 1_555 1_555
C24 C22 1_555 1_555
H25 C24 1_555 1_555
H26 C24 1_555 1_555
H27 C24 1_555 1_555
C25 O4 1_555 1_555
H28 C25 1_555 1_555
H29 C25 1_555 1_555
C26 C25 1_555 1_555
H30 C26 1_555 1_555
H31 C26 1_555 1_555
C27 C26 1_555 1_555
H32 C27 1_555 1_555
H33 C27 1_555 1_555
C28 O4 1_555 1_555
H34 C28 1_555 1_555
H35 C28 1_555 1_555
K2 O2 1_555 1_555
K2 O3 1_555 1_555
K3 O3 1_555 1_555
C5 C6 1_555 1_555
C13 C14 1_555 1_555
C21 C22 1_555 1_555
C27 C28 1_555 1_555

#END
