
#######################################################################
#
#                 Cambridge Crystallographic Data Centre
#                                CCDC 
#
#######################################################################
#
# If this CIF has been generated from an entry in the Cambridge 
# Structural Database, then it will include bibliographic, chemical, 
# crystal, experimental, refinement or atomic coordinate data resulting 
# from the CCDC's data processing and validation procedures.
#
#######################################################################

data_UKUDAF
_chemical_formula_moiety         'C51 H59 K4 N3 O4'
_chemical_name_systematic        
tetrakis(\m~3~-2-Isopropylphenolato)-tris(pyridine)-tetra-potassium
_symmetry_cell_setting           orthorhombic
_symmetry_space_group_name_H-M   'P 21 21 21'
_symmetry_Int_Tables_number      19
_space_group_name_Hall           'P 2ac 2ab'
loop_
_symmetry_equiv_pos_site_id
_symmetry_equiv_pos_as_xyz
1 x,y,z
2 1/2-x,-y,1/2+z
3 -x,1/2+y,1/2-z
4 1/2+x,1/2-y,-z
_cell_length_a                   16.348(8)
_cell_length_b                   17.500(8)
_cell_length_c                   17.999(9)
_cell_angle_alpha                90
_cell_angle_beta                 90
_cell_angle_gamma                90
_cell_volume                     5149.33
_exptl_crystal_colour            colorless
_exptl_crystal_description       irregular
_cell_formula_units_Z            4
loop_
_atom_site_label
_atom_site_type_symbol
_atom_site_fract_x
_atom_site_fract_y
_atom_site_fract_z
K1 K 0.16508(4) 0.90109(4) -0.05708(4)
K2 K 0.16403(4) 0.79778(4) 0.11588(3)
K3 K 0.03544(4) 0.71044(4) -0.05121(4)
K4 K 0.27067(4) 0.70920(4) -0.06444(3)
N1 N 0.1461(2) 1.06222(15) -0.05751(18)
N2 N 0.16797(18) 0.95177(15) 0.17713(15)
N3 N 0.1695(2) 0.78435(19) 0.27416(16)
O1 O 0.15089(12) 0.77375(11) -0.14065(10)
O2 O 0.15801(13) 0.66943(10) 0.03586(10)
O3 O 0.04040(12) 0.84254(12) 0.02025(11)
O4 O 0.28331(12) 0.83348(11) 0.01428(11)
C1 C 0.10461(16) 0.80077(17) -0.19442(16)
C2 C 0.03846(18) 0.85169(17) -0.18007(17)
H1 H 0.0275 0.8661 -0.1302
C3 C -0.01028(19) 0.88097(18) -0.23586(19)
H2 H -0.0531 0.9155 -0.2239
C4 C 0.00272(19) 0.86043(18) -0.30883(19)
H3 H -0.0312 0.8798 -0.3473
C5 C 0.06672(19) 0.81061(17) -0.32495(17)
H4 H 0.0762 0.7969 -0.3753
C6 C 0.11727(17) 0.78020(16) -0.27057(16)
C7 C 0.18425(17) 0.72329(17) -0.28905(17)
H5 H 0.2285 0.7307 -0.2514
C8 C 0.1541(2) 0.64185(18) -0.2804(2)
H6 H 0.1325 0.6346 -0.2301
H7 H 0.1995 0.6064 -0.2888
H8 H 0.1107 0.6319 -0.3168
C9 C 0.2234(3) 0.7351(2) -0.3652(2)
H9 H 0.1859 0.7174 -0.4040
H10 H 0.2746 0.7060 -0.3680
H11 H 0.2350 0.7896 -0.3725
C10 C 0.15857(18) 0.59472(16) 0.03252(15)
C11 C 0.1549(2) 0.55556(17) -0.03639(17)
H12 H 0.1527 0.5845 -0.0810
C12 C 0.1545(2) 0.47631(18) -0.0408(2)
H13 H 0.1525 0.4518 -0.0879
C13 C 0.1569(3) 0.43344(18) 0.0235(2)
H14 H 0.1551 0.3792 0.0213
C14 C 0.1620(3) 0.47069(18) 0.0913(2)
H15 H 0.1648 0.4406 0.1352
C15 C 0.1633(2) 0.54915(17) 0.09833(16)
C16 C 0.1697(2) 0.58832(18) 0.17363(17)
H16 H 0.1851 0.6427 0.1637
C17 C 0.0877(2) 0.5901(3) 0.2127(2)
H17 H 0.0477 0.6164 0.1813
H18 H 0.0931 0.6172 0.2600
H19 H 0.0692 0.5376 0.2220
C18 C 0.2360(2) 0.5554(2) 0.22322(19)
H20 H 0.2232 0.5019 0.2345
H21 H 0.2387 0.5847 0.2695
H22 H 0.2888 0.5582 0.1976
C19 C -0.01547(17) 0.84841(17) 0.07206(16)
C20 C -0.02958(18) 0.78866(18) 0.12356(17)
H23 H -0.0012 0.7417 0.1174
C21 C -0.08372(19) 0.7963(2) 0.18313(17)
H24 H -0.0904 0.7555 0.2175
C22 C -0.1271(2) 0.8626(2) 0.19195(19)
H25 H -0.1630 0.8687 0.2330
C23 C -0.11796(18) 0.92099(19) 0.14010(18)
H26 H -0.1490 0.9664 0.1461
C24 C -0.06549(18) 0.91542(17) 0.08028(16)
C25 C -0.05759(19) 0.97705(17) 0.02102(18)
H27 H 0.0013 0.9795 0.0061
C26 C -0.0825(2) 1.05693(18) 0.0474(2)
H28 H -0.0703 1.0943 0.0084
H29 H -0.0519 1.0700 0.0924
H30 H -0.1413 1.0576 0.0581
C27 C -0.1068(2) 0.9549(2) -0.04801(19)
H31 H -0.0924 0.9028 -0.0630
H32 H -0.0941 0.9904 -0.0886
H33 H -0.1654 0.9574 -0.0367
C28 C 0.33950(18) 0.84784(15) 0.06407(15)
C29 C 0.35753(17) 0.79544(19) 0.12171(15)
H34 H 0.3321 0.7466 0.1212
C30 C 0.41120(19) 0.8131(2) 0.17901(17)
H35 H 0.4202 0.7772 0.2177
C31 C 0.4516(2) 0.8825(2) 0.18019(19)
H36 H 0.4879 0.8947 0.2196
C32 C 0.43809(18) 0.93417(19) 0.12255(18)
H37 H 0.4666 0.9815 0.1227
C33 C 0.38398(17) 0.91846(17) 0.06470(17)
C34 C 0.3682(2) 0.97496(17) 0.00225(19)
H38 H 0.3083 0.9731 -0.0092
C35 C 0.4134(3) 0.9513(3) -0.0676(2)
H39 H 0.4723 0.9587 -0.0604
H40 H 0.3947 0.9826 -0.1095
H41 H 0.4023 0.8973 -0.0781
C36 C 0.3889(3) 1.0570(2) 0.0223(2)
H42 H 0.4483 1.0624 0.0273
H43 H 0.3626 1.0704 0.0694
H44 H 0.3692 1.0913 -0.0169
C37 C 0.1087(3) 1.0972(2) -0.1133(2)
H45 H 0.1052 1.0707 -0.1593
C38 C 0.0746(2) 1.1684(2) -0.1098(2)
H46 H 0.0473 1.1898 -0.1514
C39 C 0.0811(2) 1.2081(2) -0.0443(2)
H47 H 0.0595 1.2584 -0.0401
C40 C 0.1190(2) 1.1741(2) 0.0146(2)
H48 H 0.1230 1.1996 0.0611
C41 C 0.1515(3) 1.1019(2) 0.0054(2)
H49 H 0.1792 1.0793 0.0462
C42 C 0.2432(2) 0.9689(2) 0.20050(19)
H50 H 0.2848 0.9316 0.1940
C43 C 0.2646(2) 1.0369(2) 0.23324(19)
H51 H 0.3194 1.0463 0.2482
C44 C 0.2052(2) 1.0910(2) 0.2439(2)
H52 H 0.2177 1.1385 0.2667
C45 C 0.1267(2) 1.0747(2) 0.2207(2)
H53 H 0.0841 1.1110 0.2270
C46 C 0.1113(2) 1.0051(2) 0.1881(2)
H54 H 0.0569 0.9944 0.1726
C47 C 0.2189(3) 0.7476(2) 0.3204(2)
H55 H 0.2708 0.7313 0.3026
C48 C 0.1982(4) 0.7317(2) 0.3939(3)
H56 H 0.2352 0.7056 0.4257
C49 C 0.1239(4) 0.7546(3) 0.4188(3)
H57 H 0.1078 0.7438 0.4683
C50 C 0.0729(3) 0.7928(3) 0.3730(2)
H58 H 0.0209 0.8099 0.3898
C51 C 0.0982(3) 0.8064(3) 0.3016(2)
H59 H 0.0622 0.8335 0.2696
loop_
_geom_bond_atom_site_label_1
_geom_bond_atom_site_label_2
_geom_bond_site_symmetry_1
_geom_bond_site_symmetry_2
K1 N1 1_555 1_555
K2 N2 1_555 1_555
K3 O1 1_555 1_555
K4 O1 1_555 1_555
N1 C37 1_555 1_555
N2 C42 1_555 1_555
N3 K2 1_555 1_555
O1 K1 1_555 1_555
O2 K2 1_555 1_555
O3 K1 1_555 1_555
O4 K1 1_555 1_555
C1 O1 1_555 1_555
C2 C1 1_555 1_555
H1 C2 1_555 1_555
C3 C2 1_555 1_555
H2 C3 1_555 1_555
C4 C3 1_555 1_555
H3 C4 1_555 1_555
C5 C4 1_555 1_555
H4 C5 1_555 1_555
C6 C1 1_555 1_555
C7 C6 1_555 1_555
H5 C7 1_555 1_555
C8 C7 1_555 1_555
H6 C8 1_555 1_555
H7 C8 1_555 1_555
H8 C8 1_555 1_555
C9 C7 1_555 1_555
H9 C9 1_555 1_555
H10 C9 1_555 1_555
H11 C9 1_555 1_555
C10 O2 1_555 1_555
C11 C10 1_555 1_555
H12 C11 1_555 1_555
C12 C11 1_555 1_555
H13 C12 1_555 1_555
C13 C12 1_555 1_555
H14 C13 1_555 1_555
C14 C13 1_555 1_555
H15 C14 1_555 1_555
C15 C10 1_555 1_555
C16 C15 1_555 1_555
H16 C16 1_555 1_555
C17 C16 1_555 1_555
H17 C17 1_555 1_555
H18 C17 1_555 1_555
H19 C17 1_555 1_555
C18 C16 1_555 1_555
H20 C18 1_555 1_555
H21 C18 1_555 1_555
H22 C18 1_555 1_555
C19 O3 1_555 1_555
C20 C19 1_555 1_555
H23 C20 1_555 1_555
C21 C20 1_555 1_555
H24 C21 1_555 1_555
C22 C21 1_555 1_555
H25 C22 1_555 1_555
C23 C22 1_555 1_555
H26 C23 1_555 1_555
C24 C19 1_555 1_555
C25 C24 1_555 1_555
H27 C25 1_555 1_555
C26 C25 1_555 1_555
H28 C26 1_555 1_555
H29 C26 1_555 1_555
H30 C26 1_555 1_555
C27 C25 1_555 1_555
H31 C27 1_555 1_555
H32 C27 1_555 1_555
H33 C27 1_555 1_555
C28 O4 1_555 1_555
C29 C28 1_555 1_555
H34 C29 1_555 1_555
C30 C29 1_555 1_555
H35 C30 1_555 1_555
C31 C30 1_555 1_555
H36 C31 1_555 1_555
C32 C31 1_555 1_555
H37 C32 1_555 1_555
C33 C28 1_555 1_555
C34 C33 1_555 1_555
H38 C34 1_555 1_555
C35 C34 1_555 1_555
H39 C35 1_555 1_555
H40 C35 1_555 1_555
H41 C35 1_555 1_555
C36 C34 1_555 1_555
H42 C36 1_555 1_555
H43 C36 1_555 1_555
H44 C36 1_555 1_555
C37 H45 1_555 1_555
C38 C37 1_555 1_555
H46 C38 1_555 1_555
C39 C38 1_555 1_555
H47 C39 1_555 1_555
C40 C39 1_555 1_555
H48 C40 1_555 1_555
C41 N1 1_555 1_555
H49 C41 1_555 1_555
C42 H50 1_555 1_555
C43 C42 1_555 1_555
H51 C43 1_555 1_555
C44 C43 1_555 1_555
H52 C44 1_555 1_555
C45 C44 1_555 1_555
H53 C45 1_555 1_555
C46 N2 1_555 1_555
H54 C46 1_555 1_555
C47 N3 1_555 1_555
H55 C47 1_555 1_555
C48 C47 1_555 1_555
H56 C48 1_555 1_555
C49 C48 1_555 1_555
H57 C49 1_555 1_555
C50 C49 1_555 1_555
H58 C50 1_555 1_555
C51 N3 1_555 1_555
H59 C51 1_555 1_555
K2 O3 1_555 1_555
K2 O4 1_555 1_555
K3 O2 1_555 1_555
K3 O3 1_555 1_555
K4 O4 1_555 1_555
K4 O2 1_555 1_555
C5 C6 1_555 1_555
C14 C15 1_555 1_555
C23 C24 1_555 1_555
C32 C33 1_555 1_555
C40 C41 1_555 1_555
C45 C46 1_555 1_555
C50 C51 1_555 1_555

#END
