
#######################################################################
#
#                 Cambridge Crystallographic Data Centre
#                                CCDC 
#
#######################################################################
#
# If this CIF has been generated from an entry in the Cambridge 
# Structural Database, then it will include bibliographic, chemical, 
# crystal, experimental, refinement or atomic coordinate data resulting 
# from the CCDC's data processing and validation procedures.
#
#######################################################################

data_UKUDEJ
_chemical_formula_moiety         'C84 H126 K6 O12'
_chemical_name_systematic        
hexakis(\m~3~-2-t-Butylphenolato)-hexakis(tetrahydrofuran)-hexa-potassium
_symmetry_cell_setting           orthorhombic
_symmetry_space_group_name_H-M   'P b c a'
_symmetry_Int_Tables_number      61
_space_group_name_Hall           '-P 2ac 2ab'
loop_
_symmetry_equiv_pos_site_id
_symmetry_equiv_pos_as_xyz
1 x,y,z
2 1/2+x,y,1/2-z
3 x,1/2-y,1/2+z
4 1/2-x,1/2+y,z
5 -x,-y,-z
6 1/2-x,-y,1/2+z
7 -x,1/2+y,1/2-z
8 1/2+x,1/2-y,-z
_cell_length_a                   22.361(6)
_cell_length_b                   16.593(4)
_cell_length_c                   24.428(6)
_cell_angle_alpha                90
_cell_angle_beta                 90
_cell_angle_gamma                90
_cell_volume                     9063.67
_exptl_crystal_colour            colorless
_exptl_crystal_description       irregular
_cell_formula_units_Z            4
loop_
_atom_site_label
_atom_site_type_symbol
_atom_site_fract_x
_atom_site_fract_y
_atom_site_fract_z
K1 K 1.02741(7) 1.04323(10) 0.38580(7)
K2 K 0.88188(7) 1.07201(11) 0.46898(7)
K3 K 0.99894(9) 0.83826(15) 0.44270(10)
O1 O 0.9300(2) 0.9566(3) 0.40186(18)
O2 O 0.9734(2) 1.1618(3) 0.4495(2)
O3 O 1.0950(2) 0.9168(3) 0.4214(2)
O4 O 1.0739(3) 1.0894(4) 0.2902(2)
O5 O 0.7712(2) 1.1146(4) 0.4405(3)
O6 O 0.9849(4) 0.6874(6) 0.4138(5)
C1 C 0.8824(3) 0.9169(4) 0.3861(3)
C2 C 0.8456(3) 0.8787(5) 0.4248(3)
H1 H 0.8557 0.8839 0.4624
C3 C 0.7956(4) 0.8341(5) 0.4115(5)
H2 H 0.7729 0.8081 0.4392
C4 C 0.7795(4) 0.8280(6) 0.3587(5)
H3 H 0.7449 0.7983 0.3489
C5 C 0.8136(4) 0.8653(6) 0.3186(4)
H4 H 0.8014 0.8605 0.2815
C6 C 0.8648(3) 0.9090(4) 0.3303(3)
C7 C 0.9010(3) 0.9467(5) 0.2850(3)
C8 C 0.9047(5) 1.0376(6) 0.2927(5)
H5 H 0.936(4) 1.063(5) 0.266(4)
H6 H 0.866(4) 1.066(5) 0.286(3)
H7 H 0.920(3) 1.052(4) 0.327(3)
C9 C 0.8745(4) 0.9319(7) 0.2283(3)
H8 H 0.8704 0.8738 0.2221
H9 H 0.9009 0.9550 0.2004
H10 H 0.8350 0.9574 0.2259
C10 C 0.9640(4) 0.9113(5) 0.2834(3)
H11 H 0.9833 0.9188 0.3191
H12 H 0.9874 0.9386 0.2551
H13 H 0.9617 0.8536 0.2751
C11 C 1.0098(3) 1.2203(4) 0.4340(3)
C12 C 1.0710(3) 1.2139(5) 0.4462(3)
H14 H 1.0847 1.1673 0.4649
C13 C 1.1117(4) 1.2722(5) 0.4323(3)
H15 H 1.1525 1.2665 0.4425
C14 C 1.0932(4) 1.3393(5) 0.4034(3)
H16 H 1.1208 1.3804 0.3935
C15 C 1.0337(4) 1.3450(4) 0.3892(3)
H17 H 1.0214 1.3907 0.3687
C16 C 0.9906(3) 1.2885(4) 0.4029(3)
C17 C 0.9254(3) 1.2995(4) 0.3858(3)
C18 C 0.9147(4) 1.3755(5) 0.3526(4)
H18 H 0.9268 1.4227 0.3740
H19 H 0.8721 1.3798 0.3435
H20 H 0.9381 1.3732 0.3187
C19 C 0.8863(4) 1.3049(5) 0.4376(3)
H21 H 0.8945 1.2585 0.4613
H22 H 0.8440 1.3048 0.4271
H23 H 0.8955 1.3548 0.4573
C20 C 0.9051(4) 1.2291(5) 0.3509(4)
H24 H 0.9286 1.2277 0.3171
H25 H 0.8626 1.2355 0.3419
H26 H 0.9109 1.1788 0.3712
C21 C 1.1491(3) 0.9410(4) 0.4077(3)
C22 C 1.1687(3) 1.0178(5) 0.4224(3)
H27 H 1.1422 1.0513 0.4425
C23 C 1.2244(4) 1.0479(5) 0.4093(3)
H28 H 1.2353 1.1011 0.4196
C24 C 1.2638(4) 0.9995(6) 0.3810(3)
H29 H 1.3027 1.0183 0.3721
C25 C 1.2461(4) 0.9246(5) 0.3663(3)
H30 H 1.2737 0.8922 0.3464
C26 C 1.1908(3) 0.8918(4) 0.3781(3)
C27 C 1.1739(3) 0.8056(5) 0.3610(3)
C28 C 1.2246(4) 0.7627(6) 0.3302(4)
H31 H 1.2593 0.7570 0.3544
H32 H 1.2359 0.7945 0.2980
H33 H 1.2111 0.7092 0.3185
C29 C 1.1617(4) 0.7559(5) 0.4121(4)
H34 H 1.1968 0.7571 0.4360
H35 H 1.1531 0.7001 0.4016
H36 H 1.1272 0.7784 0.4316
C30 C 1.1194(4) 0.8070(5) 0.3230(4)
H37 H 1.1077 0.7517 0.3140
H38 H 1.1296 0.8360 0.2892
H39 H 1.0862 0.8344 0.3413
C31 C 1.1184(6) 1.0412(7) 0.2656(4)
H40 H 1.1041 1.0183 0.2306
H41 H 1.1305 0.9967 0.2902
C32 C 1.1699(6) 1.0992(16) 0.2561(6)
H42 H 1.1997 1.0958 0.2861
H43 H 1.1901 1.0880 0.2209
C33 C 1.1428(10) 1.1731(13) 0.2554(11)
H44 H 1.1379 1.1913 0.2170
H45 H 1.1683 1.2128 0.2746
C34 C 1.0864(9) 1.1691(7) 0.2810(5)
H46 H 1.0872 1.1990 0.3161
H47 H 1.0555 1.1934 0.2572
C35 C 0.7251(4) 1.1042(6) 0.4803(4)
H48 H 0.6984 1.1517 0.4818
H49 H 0.7419 1.0940 0.5171
C36 C 0.6924(6) 1.0303(9) 0.4583(6)
H50 H 0.7102 0.9800 0.4728
H51 H 0.6494 1.0319 0.4681
C37 C 0.7007(7) 1.0359(9) 0.3976(5)
H52 H 0.7103 0.9823 0.3821
H53 H 0.6639 1.0564 0.3799
C38 C 0.7494(5) 1.0907(7) 0.3892(4)
H54 H 0.7815 1.0641 0.3680
H55 H 0.7355 1.1384 0.3684
C39 C 0.9868(8) 0.6251(10) 0.4501(5)
H56 H 0.9462 0.6024 0.4552
H57 H 1.0014 0.6445 0.4860
C40 C 1.0252(11) 0.5661(9) 0.4296(7)
H58 H 1.0092 0.5110 0.4347
H59 H 1.0658 0.5699 0.4455
C41 C 1.0235(9) 0.5922(11) 0.3712(9)
H60 H 1.0119 0.5462 0.3477
H61 H 1.0638 0.6105 0.3598
C42 C 0.9793(9) 0.6600(14) 0.3642(7)
H62 H 0.9919 0.6996 0.3362
H63 H 0.9383 0.6405 0.3563
K2D K 1.11812(7) 0.92799(11) 0.53102(7)
O1D O 1.0700(2) 1.0434(3) 0.59814(18)
K1D K 0.97259(7) 0.95677(10) 0.61420(7)
O2D O 1.0266(2) 0.8382(3) 0.5505(2)
O5D O 1.2288(2) 0.8854(4) 0.5595(3)
C35D C 1.2749(4) 0.8958(6) 0.5197(4)
H48D H 1.3016 0.8483 0.5182
H49D H 1.2581 0.9060 0.4829
C36D C 1.3076(6) 0.9697(9) 0.5417(6)
H50D H 1.2898 1.0200 0.5272
H51D H 1.3506 0.9681 0.5319
C37D C 1.2993(7) 0.9641(9) 0.6024(5)
H52D H 1.2897 1.0177 0.6179
H53D H 1.3361 0.9436 0.6201
C38D C 1.2506(5) 0.9093(7) 0.6108(4)
H54D H 1.2185 0.9359 0.6320
H55D H 1.2645 0.8616 0.6316
C11D C 0.9902(3) 0.7797(4) 0.5660(3)
C12D C 0.9290(3) 0.7861(5) 0.5538(3)
H14D H 0.9153 0.8327 0.5351
C13D C 0.8883(4) 0.7278(5) 0.5677(3)
H15D H 0.8475 0.7335 0.5575
C14D C 0.9068(4) 0.6607(5) 0.5966(3)
H16D H 0.8792 0.6196 0.6065
C15D C 0.9663(4) 0.6550(4) 0.6108(3)
H17D H 0.9786 0.6093 0.6313
C16D C 1.0094(3) 0.7115(4) 0.5971(3)
C17D C 1.0746(3) 0.7005(4) 0.6142(3)
C18D C 1.0853(4) 0.6245(5) 0.6474(4)
H18D H 1.0732 0.5773 0.6260
H19D H 1.1279 0.6202 0.6565
H20D H 1.0619 0.6268 0.6813
C19D C 1.1137(4) 0.6951(5) 0.5624(3)
H21D H 1.1055 0.7415 0.5387
H22D H 1.1560 0.6952 0.5729
H23D H 1.1045 0.6452 0.5427
C20D C 1.0949(4) 0.7709(5) 0.6491(4)
H24D H 1.0714 0.7723 0.6829
H25D H 1.1374 0.7645 0.6581
H26D H 1.0891 0.8212 0.6288
O3D O 0.9050(2) 1.0832(3) 0.5786(2)
K3D K 1.00106(9) 1.16174(15) 0.55730(10)
C1D C 1.1176(3) 1.0831(4) 0.6139(3)
C2D C 1.1544(3) 1.1213(5) 0.5752(3)
H1D H 1.1443 1.1161 0.5376
C3D C 1.2044(4) 1.1659(5) 0.5885(5)
H2D H 1.2271 1.1919 0.5608
C4D C 1.2205(4) 1.1720(6) 0.6413(5)
H3D H 1.2551 1.2017 0.6511
C5D C 1.1864(4) 1.1347(6) 0.6814(4)
H4D H 1.1986 1.1395 0.7185
C6D C 1.1352(3) 1.0910(4) 0.6697(3)
C7D C 1.0990(3) 1.0533(5) 0.7150(3)
C8D C 1.0953(5) 0.9624(6) 0.7073(5)
H5D H 1.064(4) 0.937(5) 0.734(4)
H6D H 1.134(4) 0.934(5) 0.714(3)
H7D H 1.080(3) 0.948(4) 0.673(3)
C9D C 1.1255(4) 1.0681(7) 0.7717(3)
H8D H 1.1296 1.1262 0.7779
H9D H 1.0991 1.0450 0.7996
H10D H 1.1650 1.0426 0.7741
C10D C 1.0360(4) 1.0887(5) 0.7166(3)
H11D H 1.0167 1.0812 0.6809
H12D H 1.0126 1.0614 0.7449
H13D H 1.0383 1.1464 0.7249
O6D O 1.0151(4) 1.3126(6) 0.5862(5)
C39D C 1.0132(8) 1.3749(10) 0.5499(5)
H56D H 1.0538 1.3976 0.5448
H57D H 0.9986 1.3555 0.5140
C40D C 0.9748(11) 1.4339(9) 0.5704(7)
H58D H 0.9908 1.4890 0.5653
H59D H 0.9342 1.4301 0.5545
C41D C 0.9765(9) 1.4078(11) 0.6288(9)
H60D H 0.9881 1.4538 0.6523
H61D H 0.9362 1.3895 0.6402
C42D C 1.0207(9) 1.3400(14) 0.6358(7)
H62D H 1.0081 1.3004 0.6638
H63D H 1.0617 1.3595 0.6437
C21D C 0.8509(3) 1.0590(4) 0.5923(3)
C22D C 0.8313(3) 0.9822(5) 0.5776(3)
H27D H 0.8578 0.9487 0.5575
C23D C 0.7756(4) 0.9521(5) 0.5907(3)
H28D H 0.7647 0.8989 0.5804
C24D C 0.7362(4) 1.0005(6) 0.6190(3)
H29D H 0.6973 0.9817 0.6279
C25D C 0.7539(4) 1.0754(5) 0.6337(3)
H30D H 0.7263 1.1078 0.6536
C26D C 0.8092(3) 1.1082(4) 0.6219(3)
C27D C 0.8261(3) 1.1944(5) 0.6390(3)
C28D C 0.7754(4) 1.2373(6) 0.6698(4)
H31D H 0.7407 1.2430 0.6456
H32D H 0.7641 1.2055 0.7020
H33D H 0.7889 1.2908 0.6815
C29D C 0.8383(4) 1.2441(5) 0.5879(4)
H34D H 0.8032 1.2429 0.5640
H35D H 0.8469 1.2999 0.5984
H36D H 0.8728 1.2216 0.5684
C30D C 0.8806(4) 1.1930(5) 0.6770(4)
H37D H 0.8923 1.2483 0.6860
H38D H 0.8704 1.1640 0.7108
H39D H 0.9138 1.1656 0.6587
O4D O 0.9261(3) 0.9106(4) 0.7098(2)
C31D C 0.8816(6) 0.9588(7) 0.7344(4)
H40D H 0.8959 0.9817 0.7694
H41D H 0.8695 1.0033 0.7098
C32D C 0.8301(6) 0.9008(16) 0.7439(6)
H42D H 0.8003 0.9042 0.7139
H43D H 0.8099 0.9120 0.7791
C33D C 0.8572(10) 0.8269(13) 0.7446(11)
H44D H 0.8621 0.8087 0.7830
H45D H 0.8317 0.7872 0.7254
C34D C 0.9136(9) 0.8309(7) 0.7190(5)
H46D H 0.9128 0.8010 0.6839
H47D H 0.9445 0.8066 0.7428
loop_
_geom_bond_atom_site_label_1
_geom_bond_atom_site_label_2
_geom_bond_site_symmetry_1
_geom_bond_site_symmetry_2
K1 O1 1_555 1_555
K2 O1 1_555 1_555
K3 O1 1_555 1_555
O1 C1 1_555 1_555
O2 K1 1_555 1_555
O3 K1 1_555 1_555
O4 K1 1_555 1_555
O5 K2 1_555 1_555
O6 K3 1_555 1_555
C1 C2 1_555 1_555
C2 H1 1_555 1_555
C3 C2 1_555 1_555
H2 C3 1_555 1_555
C4 C3 1_555 1_555
H3 C4 1_555 1_555
C5 C4 1_555 1_555
H4 C5 1_555 1_555
C6 C1 1_555 1_555
C7 C6 1_555 1_555
C8 C7 1_555 1_555
H5 C8 1_555 1_555
H6 C8 1_555 1_555
H7 C8 1_555 1_555
C9 C7 1_555 1_555
H8 C9 1_555 1_555
H9 C9 1_555 1_555
H10 C9 1_555 1_555
C10 C7 1_555 1_555
H11 C10 1_555 1_555
H12 C10 1_555 1_555
H13 C10 1_555 1_555
C11 O2 1_555 1_555
C12 C11 1_555 1_555
H14 C12 1_555 1_555
C13 C12 1_555 1_555
H15 C13 1_555 1_555
C14 C13 1_555 1_555
H16 C14 1_555 1_555
C15 C14 1_555 1_555
H17 C15 1_555 1_555
C16 C11 1_555 1_555
C17 C16 1_555 1_555
C18 C17 1_555 1_555
H18 C18 1_555 1_555
H19 C18 1_555 1_555
H20 C18 1_555 1_555
C19 C17 1_555 1_555
H21 C19 1_555 1_555
H22 C19 1_555 1_555
H23 C19 1_555 1_555
C20 C17 1_555 1_555
H24 C20 1_555 1_555
H25 C20 1_555 1_555
H26 C20 1_555 1_555
C21 O3 1_555 1_555
C22 C21 1_555 1_555
H27 C22 1_555 1_555
C23 C22 1_555 1_555
H28 C23 1_555 1_555
C24 C23 1_555 1_555
H29 C24 1_555 1_555
C25 C24 1_555 1_555
H30 C25 1_555 1_555
C26 C21 1_555 1_555
C27 C26 1_555 1_555
C28 C27 1_555 1_555
H31 C28 1_555 1_555
H32 C28 1_555 1_555
H33 C28 1_555 1_555
C29 C27 1_555 1_555
H34 C29 1_555 1_555
H35 C29 1_555 1_555
H36 C29 1_555 1_555
C30 C27 1_555 1_555
H37 C30 1_555 1_555
H38 C30 1_555 1_555
H39 C30 1_555 1_555
C31 O4 1_555 1_555
H40 C31 1_555 1_555
H41 C31 1_555 1_555
C32 C31 1_555 1_555
H42 C32 1_555 1_555
H43 C32 1_555 1_555
C33 C32 1_555 1_555
H44 C33 1_555 1_555
H45 C33 1_555 1_555
C34 O4 1_555 1_555
H46 C34 1_555 1_555
H47 C34 1_555 1_555
C35 O5 1_555 1_555
H48 C35 1_555 1_555
H49 C35 1_555 1_555
C36 C35 1_555 1_555
H50 C36 1_555 1_555
H51 C36 1_555 1_555
C37 C36 1_555 1_555
H52 C37 1_555 1_555
H53 C37 1_555 1_555
C38 O5 1_555 1_555
H54 C38 1_555 1_555
H55 C38 1_555 1_555
C39 O6 1_555 1_555
H56 C39 1_555 1_555
H57 C39 1_555 1_555
C40 C39 1_555 1_555
H58 C40 1_555 1_555
H59 C40 1_555 1_555
C41 C40 1_555 1_555
H60 C41 1_555 1_555
H61 C41 1_555 1_555
C42 O6 1_555 1_555
H62 C42 1_555 1_555
H63 C42 1_555 1_555
K2D O3 1_555 1_555
O1D K2D 1_555 1_555
K1D O1D 1_555 1_555
O2D K3 1_555 1_555
O5D K2D 1_555 1_555
C35D O5D 1_555 1_555
H48D C35D 1_555 1_555
H49D C35D 1_555 1_555
C36D C35D 1_555 1_555
H50D C36D 1_555 1_555
H51D C36D 1_555 1_555
C37D C36D 1_555 1_555
H52D C37D 1_555 1_555
H53D C37D 1_555 1_555
C38D O5D 1_555 1_555
H54D C38D 1_555 1_555
H55D C38D 1_555 1_555
C11D O2D 1_555 1_555
C12D C11D 1_555 1_555
H14D C12D 1_555 1_555
C13D C12D 1_555 1_555
H15D C13D 1_555 1_555
C14D C13D 1_555 1_555
H16D C14D 1_555 1_555
C15D C14D 1_555 1_555
H17D C15D 1_555 1_555
C16D C11D 1_555 1_555
C17D C16D 1_555 1_555
C18D C17D 1_555 1_555
H18D C18D 1_555 1_555
H19D C18D 1_555 1_555
H20D C18D 1_555 1_555
C19D C17D 1_555 1_555
H21D C19D 1_555 1_555
H22D C19D 1_555 1_555
H23D C19D 1_555 1_555
C20D C17D 1_555 1_555
H24D C20D 1_555 1_555
H25D C20D 1_555 1_555
H26D C20D 1_555 1_555
O3D K2 1_555 1_555
K3D O2 1_555 1_555
C1D O1D 1_555 1_555
C2D C1D 1_555 1_555
H1D C2D 1_555 1_555
C3D C2D 1_555 1_555
H2D C3D 1_555 1_555
C4D C3D 1_555 1_555
H3D C4D 1_555 1_555
C5D C4D 1_555 1_555
H4D C5D 1_555 1_555
C6D C1D 1_555 1_555
C7D C6D 1_555 1_555
C8D C7D 1_555 1_555
H5D C8D 1_555 1_555
H6D C8D 1_555 1_555
H7D C8D 1_555 1_555
C9D C7D 1_555 1_555
H8D C9D 1_555 1_555
H9D C9D 1_555 1_555
H10D C9D 1_555 1_555
C10D C7D 1_555 1_555
H11D C10D 1_555 1_555
H12D C10D 1_555 1_555
H13D C10D 1_555 1_555
O6D K3D 1_555 1_555
C39D O6D 1_555 1_555
H56D C39D 1_555 1_555
H57D C39D 1_555 1_555
C40D C39D 1_555 1_555
H58D C40D 1_555 1_555
H59D C40D 1_555 1_555
C41D C40D 1_555 1_555
H60D C41D 1_555 1_555
H61D C41D 1_555 1_555
C42D O6D 1_555 1_555
H62D C42D 1_555 1_555
H63D C42D 1_555 1_555
C21D O3D 1_555 1_555
C22D C21D 1_555 1_555
H27D C22D 1_555 1_555
C23D C22D 1_555 1_555
H28D C23D 1_555 1_555
C24D C23D 1_555 1_555
H29D C24D 1_555 1_555
C25D C24D 1_555 1_555
H30D C25D 1_555 1_555
C26D C21D 1_555 1_555
C27D C26D 1_555 1_555
C28D C27D 1_555 1_555
H31D C28D 1_555 1_555
H32D C28D 1_555 1_555
H33D C28D 1_555 1_555
C29D C27D 1_555 1_555
H34D C29D 1_555 1_555
H35D C29D 1_555 1_555
H36D C29D 1_555 1_555
C30D C27D 1_555 1_555
H37D C30D 1_555 1_555
H38D C30D 1_555 1_555
H39D C30D 1_555 1_555
O4D K1D 1_555 1_555
C31D O4D 1_555 1_555
H40D C31D 1_555 1_555
H41D C31D 1_555 1_555
C32D C31D 1_555 1_555
H42D C32D 1_555 1_555
H43D C32D 1_555 1_555
C33D C32D 1_555 1_555
H44D C33D 1_555 1_555
H45D C33D 1_555 1_555
C34D O4D 1_555 1_555
H46D C34D 1_555 1_555
H47D C34D 1_555 1_555
K2 O2 1_555 1_555
K3 O3 1_555 1_555
C5 C6 1_555 1_555
C15 C16 1_555 1_555
C25 C26 1_555 1_555
C33 C34 1_555 1_555
C37 C38 1_555 1_555
C41 C42 1_555 1_555
K2D O2D 1_555 1_555
O1D K3D 1_555 1_555
K1D O2D 1_555 1_555
K1D O3D 1_555 1_555
C37D C38D 1_555 1_555
C15D C16D 1_555 1_555
O3D K3D 1_555 1_555
C5D C6D 1_555 1_555
C41D C42D 1_555 1_555
C25D C26D 1_555 1_555
C33D C34D 1_555 1_555

#END
