
#######################################################################
#
#                 Cambridge Crystallographic Data Centre
#                                CCDC 
#
#######################################################################
#
# If this CIF has been generated from an entry in the Cambridge 
# Structural Database, then it will include bibliographic, chemical, 
# crystal, experimental, refinement or atomic coordinate data resulting 
# from the CCDC's data processing and validation procedures.
#
#######################################################################

data_UKUJOZ
_chemical_formula_moiety         'C57 H88 I1 N1 O15 Si1'
_chemical_name_systematic        
"2-(Trimethylsilyl)ethyl 5-(2-(1-(acetyloxy)-6-(6''-(5-(acetyloxy)pent-1-en-1-yl)-6-methyl-2,3,3',3a,4',5'',6,6'',7,7a-decahydrodispiro(furo(3,2-b)pyran-5,2'-furan-5',2''-pyran)-2-yl)-6-hydroxy-2,4-dimethyl-5-oxohexyl)prop-2-en-1-yl)-6-iodo-3',5',7-trimethyloctahydro-1'H-spiro(5,9-epoxyfuro(3,2-b)oxocine-2,2'-piperidine)-1'-carboxylate"
_symmetry_cell_setting           monoclinic
_symmetry_space_group_name_H-M   'C 2'
_symmetry_Int_Tables_number      5
_space_group_name_Hall           'C 2y'
loop_
_symmetry_equiv_pos_site_id
_symmetry_equiv_pos_as_xyz
1 x,y,z
2 -x,y,-z
3 1/2+x,1/2+y,z
4 1/2-x,1/2+y,-z
_cell_length_a                   21.478(6)
_cell_length_b                   8.597(2)
_cell_length_c                   36.446(10)
_cell_angle_alpha                90
_cell_angle_beta                 94.718(5)
_cell_angle_gamma                90
_cell_volume                     6706.82
_exptl_crystal_colour            colorless
_exptl_crystal_description       parallelepiped
_cell_formula_units_Z            4
loop_
_atom_site_label
_atom_site_type_symbol
_atom_site_fract_x
_atom_site_fract_y
_atom_site_fract_z
I1 I 0.68858(8) 0.37785(19) 0.18541(6)
Si1 Si 0.3802(6) 1.0921(13) 0.0405(3)
O1 O 0.2278(7) 0.357(3) 0.4081(4)
O2 O 0.2756(8) 0.568(2) 0.3810(5)
O3 O 0.2689(9) 0.722(2) 0.3319(5)
O4 O 0.3642(10) 0.745(2) 0.2757(5)
O5 O 0.3487(8) 1.021(2) 0.2292(4)
H1 H 0.3709 0.9785 0.2141
O6 O 0.4698(7) 0.9447(18) 0.2316(4)
O7 O 0.5088(7) 0.4143(18) 0.2260(4)
O8 O 0.5352(8) 0.459(2) 0.1670(4)
O9 O 0.3954(6) 0.362(2) 0.1485(3)
O10 O 0.4660(13) -0.231(3) 0.4388(7)
O11 O 0.560(3) -0.191(7) 0.4624(15)
O12 O 0.6241(8) 0.612(2) 0.3168(5)
O13 O 0.6297(8) 0.358(3) 0.3214(5)
O14 O 0.3723(8) 0.830(2) 0.1674(5)
O15 O 0.3654(7) 0.854(2) 0.1089(4)
N1 N 0.3764(11) 0.619(3) 0.1309(6)
C1 C 0.416(2) -0.256(5) 0.4155(12)
H2 H 0.3878 -0.3328 0.4262
H3 H 0.4285 -0.2993 0.3921
C2 C 0.3784(15) -0.096(5) 0.4075(8)
H4 H 0.4073 -0.0130 0.4008
H5 H 0.3454 -0.1093 0.3871
C3 C 0.3507(17) -0.057(4) 0.4420(9)
H6 H 0.3799 -0.0799 0.4638
H7 H 0.3112 -0.1145 0.4442
C4 C 0.3393(18) 0.114(4) 0.4379(9)
H8 H 0.3726 0.1772 0.4308
C5 C 0.293(3) 0.174(7) 0.4426(14)
H9 H 0.2607 0.1092 0.4500
C6 C 0.2772(15) 0.352(4) 0.4383(8)
H10 H 0.3147 0.4101 0.4313
C7 C 0.2535(15) 0.423(4) 0.4727(8)
H11 H 0.2218 0.3534 0.4823
H12 H 0.2885 0.4339 0.4919
C8 C 0.2239(16) 0.586(4) 0.4636(9)
H13 H 0.2122 0.6562 0.4819
C9 C 0.2172(14) 0.613(4) 0.4310(8)
H14 H 0.2023 0.7153 0.4255
C10 C 0.2270(10) 0.525(3) 0.3997(6)
C11 C 0.1701(14) 0.525(4) 0.3686(7)
H15 H 0.1495 0.6274 0.3662
H16 H 0.1388 0.4441 0.3733
C12 C 0.2042(14) 0.486(4) 0.3353(8)
H17 H 0.2076 0.3720 0.3321
H18 H 0.1826 0.5311 0.3127
C13 C 0.2720(11) 0.563(3) 0.3440(6)
C14 C 0.3284(12) 0.474(3) 0.3279(7)
H19 H 0.3666 0.5340 0.3370
C15 C 0.3227(11) 0.495(3) 0.2880(6)
H20 H 0.3624 0.4606 0.2786
H21 H 0.2896 0.4241 0.2776
C16 C 0.3088(13) 0.649(3) 0.2730(7)
H22 H 0.2919 0.6398 0.2467
C17 C 0.2626(11) 0.752(2) 0.2955(6)
H23 H 0.2183 0.7332 0.2857
C18 C 0.2803(11) 0.902(3) 0.2872(7)
H24 H 0.2658 0.9761 0.3056
H25 H 0.2613 0.9329 0.2626
C19 C 0.3505(11) 0.907(3) 0.2878(7)
H26 H 0.3690 0.9236 0.3136
C20 C 0.3785(14) 1.012(4) 0.2639(8)
H27 H 0.3772 1.1182 0.2751
C21 C 0.4535(12) 0.968(3) 0.2605(7)
C22 C 0.4947(10) 0.979(3) 0.2950(6)
H28 H 0.4685 0.9502 0.3154
C23 C 0.5445(10) 0.864(4) 0.2953(6)
H29 H 0.5719 0.8770 0.3183
H30 H 0.5700 0.8868 0.2745
C24 C 0.5220(12) 0.687(3) 0.2923(7)
H31 H 0.4900 0.6770 0.2709
C25 C 0.5801(13) 0.600(4) 0.2838(7)
H32 H 0.5677 0.4875 0.2819
C26 C 0.6161(12) 0.632(3) 0.2509(7)
C27 C 0.5825(11) 0.614(3) 0.2142(6)
H33 H 0.6122 0.6391 0.1957
H34 H 0.5491 0.6932 0.2120
C28 C 0.5505(13) 0.447(3) 0.2026(7)
C29 C 0.6002(11) 0.333(3) 0.2134(7)
H35 H 0.6090 0.3301 0.2408
C30 C 0.5788(12) 0.172(3) 0.1982(6)
H36 H 0.5427 0.1461 0.2128
C31 C 0.5498(12) 0.193(3) 0.1615(6)
H37 H 0.5280 0.0950 0.1543
H38 H 0.5839 0.2058 0.1450
C32 C 0.5073(12) 0.315(3) 0.1537(7)
H39 H 0.4977 0.3223 0.1264
C33 C 0.4472(13) 0.309(3) 0.1718(7)
H40 H 0.4392 0.1978 0.1777
C34 C 0.4467(11) 0.398(4) 0.2069(6)
H41 H 0.4186 0.3445 0.2234
C35 C 0.4160(11) 0.549(3) 0.1925(6)
H42 H 0.3942 0.5979 0.2125
H43 H 0.4487 0.6215 0.1856
C36 C 0.3733(11) 0.524(3) 0.1622(6)
C37 C 0.3037(12) 0.480(3) 0.1672(6)
H44 H 0.2871 0.5826 0.1747
C38 C 0.2671(14) 0.457(4) 0.1320(7)
H45 H 0.2225 0.4621 0.1368
H46 H 0.2750 0.3491 0.1239
C39 C 0.2759(14) 0.562(4) 0.0999(8)
H47 H 0.2611 0.6686 0.1060
C40 C 0.3483(9) 0.568(3) 0.0970(5)
H48 H 0.3641 0.4638 0.0910
H49 H 0.3581 0.6410 0.0772
C41 C 0.3359(13) 0.329(3) 0.3435(8)
H50 H 0.3789 0.2936 0.3418
H51 H 0.3070 0.2558 0.3304
H52 H 0.3270 0.3337 0.3695
C42 C 0.5198(14) 1.153(4) 0.3040(8)
H53 H 0.5388 1.1570 0.3293
H54 H 0.4849 1.2261 0.3010
H55 H 0.5511 1.1804 0.2870
C43 C 0.4977(16) 0.640(4) 0.3220(8)
H56 H 0.4738 0.5440 0.3165
H57 H 0.4699 0.7200 0.3304
H58 H 0.5311 0.6186 0.3413
C44 C 0.6723(11) 0.686(3) 0.2547(7)
H59 H 0.6917 0.7063 0.2786
H60 H 0.6942 0.7059 0.2336
C45 C 0.6191(13) 0.038(3) 0.2042(7)
H61 H 0.6049 -0.0450 0.1872
H62 H 0.6179 0.0021 0.2297
H63 H 0.6620 0.0675 0.1999
C46 C 0.2906(10) 0.397(3) 0.1941(6)
H64 H 0.2453 0.3955 0.1956
H65 H 0.3109 0.4402 0.2169
H66 H 0.3056 0.2905 0.1907
C47 C 0.2422(15) 0.512(4) 0.0634(8)
H67 H 0.2429 0.5967 0.0456
H68 H 0.1987 0.4851 0.0672
H69 H 0.2631 0.4203 0.0540
C48 C 0.524(3) -0.206(8) 0.427(2)
C49 C 0.523(3) -0.101(10) 0.3988(17)
H70 H 0.5586 -0.1195 0.3845
H71 H 0.5244 0.0047 0.4087
H72 H 0.4839 -0.1146 0.3828
C50 C 0.6412(19) 0.490(5) 0.3336(10)
C51 C 0.6884(15) 0.524(4) 0.3674(8)
H73 H 0.7148 0.6124 0.3619
H74 H 0.7147 0.4320 0.3728
H75 H 0.6655 0.5482 0.3889
C52 C 0.3715(11) 0.786(3) 0.1384(6)
C53 C 0.3602(18) 1.037(4) 0.1160(9)
H76 H 0.4018 1.0796 0.1243
H77 H 0.3317 1.0567 0.1355
C54 C 0.3346(16) 1.120(4) 0.0797(9)
H78 H 0.3318 1.2326 0.0846
H79 H 0.2917 1.0817 0.0730
C55 C 0.350(3) 1.248(7) 0.0086(15)
H80 H 0.3552 1.2162 -0.0168
H81 H 0.3736 1.3438 0.0141
H82 H 0.3058 1.2655 0.0116
C56 C 0.3800(17) 0.905(5) 0.0159(10)
H83 H 0.4213 0.8861 0.0072
H84 H 0.3486 0.9078 -0.0052
H85 H 0.3698 0.8209 0.0326
C57 C 0.462(2) 1.139(7) 0.0592(14)
H86 H 0.4830 1.1952 0.0406
H87 H 0.4841 1.0418 0.0655
H88 H 0.4603 1.2031 0.0813
loop_
_geom_bond_atom_site_label_1
_geom_bond_atom_site_label_2
_geom_bond_site_symmetry_1
_geom_bond_site_symmetry_2
I1 C29 1_555 1_555
Si1 C54 1_555 1_555
O1 C6 1_555 1_555
O2 C10 1_555 1_555
O3 C13 1_555 1_555
O4 C16 1_555 1_555
O5 H1 1_555 1_555
O6 C21 1_555 1_555
O7 C28 1_555 1_555
O8 C28 1_555 1_555
O9 C33 1_555 1_555
O10 C1 1_555 1_555
O11 C48 1_555 1_555
O12 C25 1_555 1_555
O13 C50 1_555 1_555
O14 C52 1_555 1_555
O15 C52 1_555 1_555
N1 C36 1_555 1_555
C1 H2 1_555 1_555
H3 C1 1_555 1_555
C2 C1 1_555 1_555
H4 C2 1_555 1_555
H5 C2 1_555 1_555
C3 C2 1_555 1_555
H6 C3 1_555 1_555
H7 C3 1_555 1_555
C4 C3 1_555 1_555
H8 C4 1_555 1_555
C5 C4 1_555 1_555
H9 C5 1_555 1_555
C6 C5 1_555 1_555
H10 C6 1_555 1_555
C7 C6 1_555 1_555
H11 C7 1_555 1_555
H12 C7 1_555 1_555
C8 C7 1_555 1_555
H13 C8 1_555 1_555
C9 C8 1_555 1_555
H14 C9 1_555 1_555
C10 O1 1_555 1_555
C11 C10 1_555 1_555
H15 C11 1_555 1_555
H16 C11 1_555 1_555
C12 C11 1_555 1_555
H17 C12 1_555 1_555
H18 C12 1_555 1_555
C13 O2 1_555 1_555
C14 C13 1_555 1_555
H19 C14 1_555 1_555
C15 C14 1_555 1_555
H20 C15 1_555 1_555
H21 C15 1_555 1_555
C16 C15 1_555 1_555
H22 C16 1_555 1_555
C17 O3 1_555 1_555
H23 C17 1_555 1_555
C18 C17 1_555 1_555
H24 C18 1_555 1_555
H25 C18 1_555 1_555
C19 O4 1_555 1_555
H26 C19 1_555 1_555
C20 O5 1_555 1_555
H27 C20 1_555 1_555
C21 C20 1_555 1_555
C22 C21 1_555 1_555
H28 C22 1_555 1_555
C23 C22 1_555 1_555
H29 C23 1_555 1_555
H30 C23 1_555 1_555
C24 C23 1_555 1_555
H31 C24 1_555 1_555
C25 C24 1_555 1_555
H32 C25 1_555 1_555
C26 C25 1_555 1_555
C27 C26 1_555 1_555
H33 C27 1_555 1_555
H34 C27 1_555 1_555
C28 C27 1_555 1_555
C29 C28 1_555 1_555
H35 C29 1_555 1_555
C30 C29 1_555 1_555
H36 C30 1_555 1_555
C31 C30 1_555 1_555
H37 C31 1_555 1_555
H38 C31 1_555 1_555
C32 O8 1_555 1_555
H39 C32 1_555 1_555
C33 C32 1_555 1_555
H40 C33 1_555 1_555
C34 O7 1_555 1_555
H41 C34 1_555 1_555
C35 C34 1_555 1_555
H42 C35 1_555 1_555
H43 C35 1_555 1_555
C36 O9 1_555 1_555
C37 C36 1_555 1_555
H44 C37 1_555 1_555
C38 C37 1_555 1_555
H45 C38 1_555 1_555
H46 C38 1_555 1_555
C39 C38 1_555 1_555
H47 C39 1_555 1_555
C40 N1 1_555 1_555
H48 C40 1_555 1_555
H49 C40 1_555 1_555
C41 C14 1_555 1_555
H50 C41 1_555 1_555
H51 C41 1_555 1_555
H52 C41 1_555 1_555
C42 C22 1_555 1_555
H53 C42 1_555 1_555
H54 C42 1_555 1_555
H55 C42 1_555 1_555
C43 C24 1_555 1_555
H56 C43 1_555 1_555
H57 C43 1_555 1_555
H58 C43 1_555 1_555
C44 C26 1_555 1_555
H59 C44 1_555 1_555
H60 C44 1_555 1_555
C45 C30 1_555 1_555
H61 C45 1_555 1_555
H62 C45 1_555 1_555
H63 C45 1_555 1_555
C46 C37 1_555 1_555
H64 C46 1_555 1_555
H65 C46 1_555 1_555
H66 C46 1_555 1_555
C47 C39 1_555 1_555
H67 C47 1_555 1_555
H68 C47 1_555 1_555
H69 C47 1_555 1_555
C48 O10 1_555 1_555
C49 C48 1_555 1_555
H70 C49 1_555 1_555
H71 C49 1_555 1_555
H72 C49 1_555 1_555
C50 O12 1_555 1_555
C51 C50 1_555 1_555
H73 C51 1_555 1_555
H74 C51 1_555 1_555
H75 C51 1_555 1_555
C52 N1 1_555 1_555
C53 O15 1_555 1_555
H76 C53 1_555 1_555
H77 C53 1_555 1_555
C54 C53 1_555 1_555
H78 C54 1_555 1_555
H79 C54 1_555 1_555
C55 Si1 1_555 1_555
H80 C55 1_555 1_555
H81 C55 1_555 1_555
H82 C55 1_555 1_555
C56 Si1 1_555 1_555
H83 C56 1_555 1_555
H84 C56 1_555 1_555
H85 C56 1_555 1_555
C57 Si1 1_555 1_555
H86 C57 1_555 1_555
H87 C57 1_555 1_555
H88 C57 1_555 1_555
C9 C10 1_555 1_555
C12 C13 1_555 1_555
C16 C17 1_555 1_555
C18 C19 1_555 1_555
C19 C20 1_555 1_555
C31 C32 1_555 1_555
C33 C34 1_555 1_555
C35 C36 1_555 1_555
C39 C40 1_555 1_555

#END
