
#######################################################################
#
#                 Cambridge Crystallographic Data Centre
#                                CCDC 
#
#######################################################################
#
# If this CIF has been generated from an entry in the Cambridge 
# Structural Database, then it will include bibliographic, chemical, 
# crystal, experimental, refinement or atomic coordinate data resulting 
# from the CCDC's data processing and validation procedures.
#
#######################################################################

data_UKUTOJ
_chemical_formula_moiety         'C21 H21 N3 O4,H2 O1'
_chemical_name_systematic        
'6-Benzyl-4b-hydroxy-9-methyl-5,6,8,9-tetrahydro-4bH-6,9,11a-triazacyclonona(a)indene-7,10,12-trione monohydrate'
_symmetry_cell_setting           orthorhombic
_symmetry_space_group_name_H-M   'P 21 21 21'
_symmetry_Int_Tables_number      19
_space_group_name_Hall           'P 2ac 2ab'
loop_
_symmetry_equiv_pos_site_id
_symmetry_equiv_pos_as_xyz
1 x,y,z
2 1/2-x,-y,1/2+z
3 -x,1/2+y,1/2-z
4 1/2+x,1/2-y,-z
_cell_length_a                   7.469(3)
_cell_length_b                   8.452(4)
_cell_length_c                   31.817(12)
_cell_angle_alpha                90
_cell_angle_beta                 90
_cell_angle_gamma                90
_cell_volume                     2008.54
_exptl_crystal_colour            colorless
_exptl_crystal_description       'thin plate'
_chemical_melting_point          '146-148 deg.C'
_cell_formula_units_Z            4
_exptl_crystal_preparation       'irradiated product'
loop_
_atom_site_label
_atom_site_type_symbol
_atom_site_fract_x
_atom_site_fract_y
_atom_site_fract_z
O1 O 0.6101(6) 0.6068(6) 0.09452(14)
O2 O 1.1359(6) 0.6639(5) 0.03224(12)
H1 H 1.085(8) 0.759(8) 0.0204(18)
O3 O 0.8894(6) 0.2840(6) 0.15218(13)
O4 O 0.5499(6) 0.3208(5) 0.02149(13)
N1 N 0.8862(6) 0.5490(5) 0.06630(13)
N2 N 1.1342(6) 0.3837(5) 0.12065(15)
N3 N 0.7448(6) 0.2220(5) 0.06844(14)
C1 C 0.7721(9) 0.6241(7) 0.09365(18)
C2 C 0.8841(8) 0.7275(6) 0.12010(17)
C3 C 0.8428(9) 0.8212(7) 0.15361(18)
H4 H 0.7264 0.8239 0.1640
C4 C 0.9753(11) 0.9122(8) 0.1720(2)
H5 H 0.9489 0.9743 0.1954
C5 C 1.1465(10) 0.9111(7) 0.1558(2)
H6 H 1.2333 0.9764 0.1675
C6 C 1.1908(9) 0.8145(7) 0.1224(2)
H7 H 1.3072 0.8113 0.1121
C7 C 1.0573(8) 0.7225(6) 0.10479(17)
C8 C 1.0738(7) 0.6030(7) 0.07045(18)
C9 C 1.1951(9) 0.4655(7) 0.08257(18)
H8 H 1.1994 0.3905 0.0595
H9 H 1.3155 0.5049 0.0871
C10 C 0.9796(8) 0.2995(7) 0.12060(18)
C11 C 0.9316(8) 0.2055(7) 0.08216(16)
H10 H 1.0093 0.2378 0.0593
H11 H 0.9552 0.0946 0.0878
C12 C 0.6971(9) 0.3288(7) 0.04021(17)
C13 C 0.8230(8) 0.4635(7) 0.02960(17)
H12 H 0.9253 0.4215 0.0145
H13 H 0.7618 0.5369 0.0111
C14 C 0.6196(9) 0.0984(7) 0.0812(2)
H14 H 0.6266 0.0116 0.0618
H15 H 0.5001 0.1401 0.0813
H16 H 0.6499 0.0620 0.1089
C15 C 1.1933(9) 0.4501(7) 0.16187(18)
H17 H 1.0909 0.4944 0.1765
H18 H 1.2785 0.5349 0.1570
C16 C 1.2797(9) 0.3239(7) 0.18921(17)
C17 C 1.1937(10) 0.2569(8) 0.22234(19)
H19 H 1.0766 0.2874 0.2281
C18 C 1.2734(12) 0.1458(9) 0.2477(2)
H20 H 1.2116 0.0995 0.2699
C19 C 1.4507(12) 0.1050(9) 0.2390(2)
H21 H 1.5084 0.0306 0.2557
C20 C 1.5386(11) 0.1713(9) 0.2068(2)
H22 H 1.6567 0.1431 0.2015
C21 C 1.4558(9) 0.2801(8) 0.1819(2)
H23 H 1.5182 0.3255 0.1597
O5 O 0.4280(6) 0.5916(6) -0.01588(13)
H2 H 0.335(9) 0.622(8) 0.004(2)
H3 H 0.470(9) 0.498(8) -0.0031(19)
loop_
_geom_bond_atom_site_label_1
_geom_bond_atom_site_label_2
_geom_bond_site_symmetry_1
_geom_bond_site_symmetry_2
O1 C1 1_555 1_555
O2 H1 1_555 1_555
O3 C10 1_555 1_555
O4 C12 1_555 1_555
O5 H2 1_555 1_555
H3 O5 1_555 1_555
N1 C1 1_555 1_555
N2 C9 1_555 1_555
N3 C11 1_555 1_555
C1 C2 1_555 1_555
C2 C3 1_555 1_555
C3 H4 1_555 1_555
C4 C3 1_555 1_555
H5 C4 1_555 1_555
C5 C4 1_555 1_555
H6 C5 1_555 1_555
C6 C5 1_555 1_555
H7 C6 1_555 1_555
C7 C2 1_555 1_555
C8 O2 1_555 1_555
C9 C8 1_555 1_555
H8 C9 1_555 1_555
H9 C9 1_555 1_555
C10 N2 1_555 1_555
C11 C10 1_555 1_555
H10 C11 1_555 1_555
H11 C11 1_555 1_555
C12 N3 1_555 1_555
C13 N1 1_555 1_555
H12 C13 1_555 1_555
H13 C13 1_555 1_555
C14 N3 1_555 1_555
H14 C14 1_555 1_555
H15 C14 1_555 1_555
H16 C14 1_555 1_555
C15 N2 1_555 1_555
H17 C15 1_555 1_555
H18 C15 1_555 1_555
C16 C15 1_555 1_555
C17 C16 1_555 1_555
H19 C17 1_555 1_555
C18 C17 1_555 1_555
H20 C18 1_555 1_555
C19 C18 1_555 1_555
H21 C19 1_555 1_555
C20 C19 1_555 1_555
H22 C20 1_555 1_555
C21 C16 1_555 1_555
H23 C21 1_555 1_555
N1 C8 1_555 1_555
C6 C7 1_555 1_555
C7 C8 1_555 1_555
C12 C13 1_555 1_555
C20 C21 1_555 1_555

#END
