
#######################################################################
#
#                 Cambridge Crystallographic Data Centre
#                                CCDC 
#
#######################################################################
#
# If this CIF has been generated from an entry in the Cambridge 
# Structural Database, then it will include bibliographic, chemical, 
# crystal, experimental, refinement or atomic coordinate data resulting 
# from the CCDC's data processing and validation procedures.
#
#######################################################################

data_ULADOC
_chemical_formula_moiety         'C27 H38 O3'
_chemical_name_systematic        (25R)-4,6-Spirostadien-3-one
_symmetry_cell_setting           monoclinic
_symmetry_space_group_name_H-M   'P 21'
_symmetry_Int_Tables_number      4
_space_group_name_Hall           'P 2yb'
loop_
_symmetry_equiv_pos_site_id
_symmetry_equiv_pos_as_xyz
1 x,y,z
2 -x,1/2+y,-z
_cell_length_a                   10.133(7)
_cell_length_b                   7.231(4)
_cell_length_c                   16.007(10)
_cell_angle_alpha                90
_cell_angle_beta                 98.212(12)
_cell_angle_gamma                90
_cell_volume                     1160.83
_cell_formula_units_Z            2
loop_
_atom_site_label
_atom_site_type_symbol
_atom_site_fract_x
_atom_site_fract_y
_atom_site_fract_z
O1 O 0.7100(3) 0.6705(5) 0.3019(2)
O2 O 0.8004(3) 0.8456(5) 0.2007(2)
O3 O 0.5130(5) 0.6636(7) -0.4957(3)
C1 C 0.8122(8) 1.0020(13) 0.4792(5)
H1 H 0.8078 1.1150 0.4474
H2 H 0.8885 1.0049 0.5223
H3 H 0.7327 0.9887 0.5048
C2 C 0.8238(6) 0.8459(10) 0.4228(4)
H4 H 0.8336 0.7329 0.4569
C3 C 0.9437(5) 0.8603(10) 0.3751(4)
H5 H 0.9403 0.9778 0.3457
H6 H 1.0250 0.8579 0.4153
C4 C 0.7011(5) 0.8254(10) 0.3576(4)
H7 H 0.6236 0.8097 0.3862
H8 H 0.6886 0.9378 0.3243
C5 C 0.9479(5) 0.7085(10) 0.3134(4)
H9 H 0.9686 0.5935 0.3436
H10 H 1.0188 0.7328 0.2800
C6 C 0.8183(4) 0.6872(8) 0.2553(3)
C7 C 0.7692(6) 0.3413(9) 0.2311(4)
H11 H 0.6783 0.3510 0.2410
H12 H 0.8255 0.3162 0.2833
H13 H 0.7770 0.2425 0.1920
C8 C 0.8118(5) 0.5221(8) 0.1943(4)
H14 H 0.9012 0.5039 0.1791
C9 C 0.7215(5) 0.5912(7) 0.1155(3)
H15 H 0.6363 0.5250 0.1096
C10 C 0.6982(5) 0.7976(8) 0.1336(3)
H16 H 0.6103 0.8144 0.1513
C11 C 0.7059(5) 0.9032(8) 0.0539(3)
H17 H 0.7909 0.9660 0.0561
H18 H 0.6345 0.9934 0.0434
C12 C 0.6908(4) 0.7536(6) -0.0124(3)
H19 H 0.5977 0.7126 -0.0181
C13 C 0.7758(4) 0.5923(7) 0.0289(3)
C14 C 0.9258(4) 0.6369(8) 0.0400(4)
H20 H 0.9754 0.5331 0.0652
H21 H 0.9434 0.7432 0.0758
H22 H 0.9521 0.6624 -0.0141
C15 C 0.7457(5) 0.4211(7) -0.0236(3)
H23 H 0.6529 0.3874 -0.0245
H24 H 0.8003 0.3197 0.0014
C16 C 0.7200(4) 0.7927(6) -0.1016(3)
H25 H 0.8146 0.8250 -0.0978
C17 C 0.7741(5) 0.4544(8) -0.1151(4)
H26 H 0.8687 0.4762 -0.1143
H27 H 0.7503 0.3444 -0.1486
C18 C 0.6959(5) 0.6195(7) -0.1565(3)
H28 H 0.6014 0.5887 -0.1583
C19 C 0.6391(5) 0.9520(8) -0.1456(4)
H29 H 0.6128 1.0471 -0.1125
C20 C 0.6037(6) 0.9618(8) -0.2296(4)
H30 H 0.5672 1.0710 -0.2534
C21 C 0.6213(5) 0.8060(7) -0.2843(3)
C22 C 0.7176(4) 0.6538(7) -0.2504(3)
C23 C 0.8597(5) 0.7177(10) -0.2559(3)
H31 H 0.8716 0.7299 -0.3140
H32 H 0.9218 0.6284 -0.2289
H33 H 0.8751 0.8350 -0.2281
C24 C 0.6844(5) 0.4794(8) -0.3017(4)
H34 H 0.6017 0.4284 -0.2878
H35 H 0.7541 0.3887 -0.2860
C25 C 0.5553(6) 0.8027(8) -0.3628(4)
H36 H 0.4952 0.8976 -0.3792
C26 C 0.5719(5) 0.6612(9) -0.4233(4)
C27 C 0.6699(6) 0.5122(9) -0.3971(4)
H37 H 0.7558 0.5461 -0.4127
H38 H 0.6409 0.3988 -0.4266
loop_
_geom_bond_atom_site_label_1
_geom_bond_atom_site_label_2
_geom_bond_site_symmetry_1
_geom_bond_site_symmetry_2
O1 C4 1_555 1_555
O2 C6 1_555 1_555
O3 C26 1_555 1_555
C1 H1 1_555 1_555
H2 C1 1_555 1_555
H3 C1 1_555 1_555
C2 C1 1_555 1_555
H4 C2 1_555 1_555
C3 C2 1_555 1_555
H5 C3 1_555 1_555
H6 C3 1_555 1_555
C4 C2 1_555 1_555
H7 C4 1_555 1_555
H8 C4 1_555 1_555
C5 C3 1_555 1_555
H9 C5 1_555 1_555
H10 C5 1_555 1_555
C6 O1 1_555 1_555
C7 H11 1_555 1_555
H12 C7 1_555 1_555
H13 C7 1_555 1_555
C8 C6 1_555 1_555
H14 C8 1_555 1_555
C9 C8 1_555 1_555
H15 C9 1_555 1_555
C10 O2 1_555 1_555
H16 C10 1_555 1_555
C11 C10 1_555 1_555
H17 C11 1_555 1_555
H18 C11 1_555 1_555
C12 C11 1_555 1_555
H19 C12 1_555 1_555
C13 C9 1_555 1_555
C14 C13 1_555 1_555
H20 C14 1_555 1_555
H21 C14 1_555 1_555
H22 C14 1_555 1_555
C15 C13 1_555 1_555
H23 C15 1_555 1_555
H24 C15 1_555 1_555
C16 C12 1_555 1_555
H25 C16 1_555 1_555
C17 C15 1_555 1_555
H26 C17 1_555 1_555
H27 C17 1_555 1_555
C18 C16 1_555 1_555
H28 C18 1_555 1_555
C19 C16 1_555 1_555
H29 C19 1_555 1_555
C20 C19 1_555 1_555
H30 C20 1_555 1_555
C21 C20 1_555 1_555
C22 C18 1_555 1_555
C23 C22 1_555 1_555
H31 C23 1_555 1_555
H32 C23 1_555 1_555
H33 C23 1_555 1_555
C24 C22 1_555 1_555
H34 C24 1_555 1_555
H35 C24 1_555 1_555
C25 C21 1_555 1_555
H36 C25 1_555 1_555
C26 C25 1_555 1_555
C27 C24 1_555 1_555
H37 C27 1_555 1_555
H38 C27 1_555 1_555
C5 C6 1_555 1_555
C7 C8 1_555 1_555
C9 C10 1_555 1_555
C12 C13 1_555 1_555
C17 C18 1_555 1_555
C21 C22 1_555 1_555
C26 C27 1_555 1_555

#END
