
#######################################################################
#
#                 Cambridge Crystallographic Data Centre
#                                CCDC 
#
#######################################################################
#
# If this CIF has been generated from an entry in the Cambridge 
# Structural Database, then it will include bibliographic, chemical, 
# crystal, experimental, refinement or atomic coordinate data resulting 
# from the CCDC's data processing and validation procedures.
#
#######################################################################

data_ULALAU
_chemical_formula_moiety         'C16 H18 O2 Si1'
_chemical_name_systematic        
11-Trimethylsilyl-14-oxatetracyclo[6.5.1.0^2,7^.0^9,13^]tetradecan-2,4,6,11-tetraen-10-one
_symmetry_cell_setting           monoclinic
_symmetry_space_group_name_H-M   'C 2/c'
_symmetry_Int_Tables_number      15
_space_group_name_Hall           '-C 2yn'
loop_
_symmetry_equiv_pos_site_id
_symmetry_equiv_pos_as_xyz
1 x,y,z
2 -x,y,1/2-z
3 1/2+x,1/2+y,z
4 1/2-x,1/2+y,1/2-z
5 -x,-y,-z
6 x,-y,1/2+z
7 1/2-x,1/2-y,-z
8 1/2+x,1/2-y,1/2+z
_cell_length_a                   24.5270(10)
_cell_length_b                   9.2680(10)
_cell_length_c                   14.3580(10)
_cell_angle_alpha                90
_cell_angle_beta                 107.679(3)
_cell_angle_gamma                90
_cell_volume                     3109.67
_cell_formula_units_Z            8
_exptl_crystal_recrystallization_method hexane/ether
loop_
_atom_site_label
_atom_site_type_symbol
_atom_site_fract_x
_atom_site_fract_y
_atom_site_fract_z
Si1 Si 0.4038(1) 0.4074(1) 0.0956(1)
O1 O 0.2845(1) 0.5829(2) 0.0693(2)
O2 O 0.2620(1) 0.5776(2) -0.1935(1)
C1 C 0.2826(2) 0.4897(3) 0.0074(2)
C2 C 0.3312(1) 0.3968(2) 0.0043(2)
C3 C 0.3128(2) 0.3180(3) -0.0764(2)
C4 C 0.2526(2) 0.3464(3) -0.1381(2)
C5 C 0.2472(2) 0.4339(3) -0.2334(2)
C6 C 0.1850(2) 0.4508(3) -0.2883(2)
C7 C 0.1494(2) 0.3894(3) -0.3707(3)
C8 C 0.0922(2) 0.4278(4) -0.4009(3)
C9 C 0.0716(2) 0.5247(5) -0.3476(3)
C10 C 0.1072(2) 0.5873(3) -0.2623(3)
C11 C 0.1640(2) 0.5488(3) -0.2349(3)
C12 C 0.2154(2) 0.5885(2) -0.1497(2)
C13 C 0.2304(1) 0.4582(2) -0.0786(2)
C14 C 0.3986(2) 0.4080(5) 0.2215(3)
C15 C 0.4461(2) 0.2497(5) 0.0794(4)
C16 C 0.4372(2) 0.5794(4) 0.0747(4)
H1 H 0.3358 0.2497 -0.0935
H2 H 0.2293 0.2585 -0.1508
H3 H 0.2708 0.3979 -0.2726
H4 H 0.1634 0.3227 -0.4062
H5 H 0.0677 0.3878 -0.4575
H6 H 0.0330 0.5493 -0.3688
H7 H 0.0932 0.6520 -0.2257
H8 H 0.2127 0.6815 -0.1190
H9 H 0.1977 0.4234 -0.0592
H10 H 0.4358 0.4246 0.2671
H11 H 0.3844 0.3164 0.2351
H12 H 0.3730 0.4831 0.2277
H13 H 0.4446 0.2421 0.0120
H14 H 0.4305 0.1637 0.0987
H15 H 0.4851 0.2612 0.1192
H16 H 0.4382 0.5828 0.0084
H17 H 0.4755 0.5850 0.1184
H18 H 0.4152 0.6591 0.0865
loop_
_geom_bond_atom_site_label_1
_geom_bond_atom_site_label_2
_geom_bond_site_symmetry_1
_geom_bond_site_symmetry_2
Si1 C2 1_555 1_555
O1 C1 1_555 1_555
O2 C5 1_555 1_555
C1 C2 1_555 1_555
C2 C3 1_555 1_555
C3 C4 1_555 1_555
C4 C5 1_555 1_555
C5 C6 1_555 1_555
C6 C7 1_555 1_555
C7 C8 1_555 1_555
C8 C9 1_555 1_555
C9 C10 1_555 1_555
C10 C11 1_555 1_555
C11 C6 1_555 1_555
C12 O2 1_555 1_555
C13 C1 1_555 1_555
C14 Si1 1_555 1_555
C15 Si1 1_555 1_555
C16 Si1 1_555 1_555
H1 C3 1_555 1_555
H2 C4 1_555 1_555
H3 C5 1_555 1_555
H4 C7 1_555 1_555
H5 C8 1_555 1_555
H6 C9 1_555 1_555
H7 C10 1_555 1_555
H8 C12 1_555 1_555
H9 C13 1_555 1_555
H10 C14 1_555 1_555
H11 C14 1_555 1_555
H12 C14 1_555 1_555
H13 C15 1_555 1_555
H14 C15 1_555 1_555
H15 C15 1_555 1_555
H16 C16 1_555 1_555
H17 C16 1_555 1_555
H18 C16 1_555 1_555
C4 C13 1_555 1_555
C11 C12 1_555 1_555
C12 C13 1_555 1_555

#END
