
#######################################################################
#
#                 Cambridge Crystallographic Data Centre
#                                CCDC 
#
#######################################################################
#
# If this CIF has been generated from an entry in the Cambridge 
# Structural Database, then it will include bibliographic, chemical, 
# crystal, experimental, refinement or atomic coordinate data resulting 
# from the CCDC's data processing and validation procedures.
#
#######################################################################

data_ULELAA
_chemical_formula_moiety         'C24 H21 N1 O4 S1'
_chemical_name_systematic        
N-Benzyl-4-methyl-N-(4-methyl-1-oxo-1H-isochromen-3-yl)benzenesulfonamide
_symmetry_cell_setting           monoclinic
_symmetry_space_group_name_H-M   'P 21/c'
_symmetry_Int_Tables_number      14
_space_group_name_Hall           '-P 2ybc'
loop_
_symmetry_equiv_pos_site_id
_symmetry_equiv_pos_as_xyz
1 x,y,z
2 -x,1/2+y,1/2-z
3 -x,-y,-z
4 x,1/2-y,1/2+z
_cell_length_a                   10.2840(3)
_cell_length_b                   26.1213(7)
_cell_length_c                   15.8601(4)
_cell_angle_alpha                90
_cell_angle_beta                 102.6900(10)
_cell_angle_gamma                90
_cell_volume                     4156.45
_exptl_crystal_colour            colorless
_exptl_crystal_description       block
_cell_formula_units_Z            8
_exptl_crystal_recrystallization_method 'hexane/ethyl acetate'
loop_
_atom_site_label
_atom_site_type_symbol
_atom_site_fract_x
_atom_site_fract_y
_atom_site_fract_z
S1 S 0.90570(4) 0.581034(14) 0.80649(2)
O1 O 0.88945(11) 0.64648(4) 0.62757(7)
O2 O 0.99125(15) 0.69514(6) 0.54862(10)
O3 O 0.83747(12) 0.57507(5) 0.87539(7)
O4 O 0.96706(11) 0.53798(4) 0.77521(7)
N1 N 0.79114(12) 0.60204(5) 0.72232(8)
C1 C 0.9736(2) 0.57604(11) 0.36431(12)
H1 H 1.0108 0.5792 0.3148
C2 C 0.98487(19) 0.61598(10) 0.42254(13)
H2 H 1.0306 0.6464 0.4135
C3 C 0.92839(16) 0.61138(7) 0.49520(11)
C4 C 0.86231(15) 0.56639(7) 0.50857(10)
C5 C 0.80755(15) 0.56195(6) 0.58621(10)
C6 C 0.82700(14) 0.60097(6) 0.64135(9)
C7 C 1.02537(15) 0.62985(6) 0.83495(9)
C8 C 1.13865(16) 0.62909(6) 0.80083(10)
H3 H 1.1525 0.6021 0.7636
C9 C 1.23143(16) 0.66823(7) 0.82178(10)
H4 H 1.3085 0.6681 0.7980
C10 C 1.21343(16) 0.70771(6) 0.87699(10)
C11 C 1.31657(19) 0.74918(7) 0.90154(12)
H5 H 1.3595 0.7460 0.9629
H6 H 1.2735 0.7827 0.8910
H7 H 1.3838 0.7458 0.8667
C12 C 0.73386(17) 0.51467(6) 0.60114(11)
H8 H 0.6986 0.5190 0.6533
H9 H 0.7946 0.4853 0.6085
H10 H 0.6600 0.5087 0.5514
C13 C 0.9085(2) 0.53160(10) 0.37793(12)
H11 H 0.9018 0.5042 0.3378
C14 C 0.85342(18) 0.52657(8) 0.44845(11)
H12 H 0.8087 0.4958 0.4568
C15 C 0.93997(17) 0.65437(7) 0.55533(11)
C16 C 0.70249(15) 0.64437(6) 0.73728(11)
H13 H 0.7295 0.6764 0.7125
H14 H 0.7126 0.6496 0.8002
C17 C 0.55814(15) 0.63320(6) 0.69688(9)
C18 C 0.50304(15) 0.58548(6) 0.70585(10)
H15 H 0.5565 0.5595 0.7382
C19 C 0.37115(16) 0.57554(7) 0.66820(11)
H16 H 0.3347 0.5427 0.6742
C20 C 0.29207(17) 0.61321(8) 0.62193(11)
H17 H 0.2020 0.6060 0.5950
C21 C 0.34402(18) 0.66128(7) 0.61478(11)
H18 H 0.2889 0.6875 0.5845
C22 C 0.47712(17) 0.67140(6) 0.65190(10)
H19 H 0.5128 0.7045 0.6465
C23 C 1.00489(16) 0.66904(6) 0.89003(10)
H20 H 0.9273 0.6693 0.9133
C24 C 1.09894(17) 0.70756(6) 0.91056(10)
H21 H 1.0853 0.7344 0.9482
S2 S 0.33676(4) 0.318453(13) 0.96265(2)
O5 O 0.27002(11) 0.30961(4) 1.03166(7)
O6 O 0.43979(13) 0.46987(4) 0.76993(8)
O7 O 0.32872(10) 0.40806(4) 0.81728(6)
O8 O 0.38795(11) 0.27603(4) 0.92281(7)
N2 N 0.22540(12) 0.34707(5) 0.88441(8)
C25 C 0.7584(2) 0.48193(8) 1.05025(15)
H22 H 0.7250 0.5116 1.0140
H23 H 0.8420 0.4701 1.0369
H24 H 0.7741 0.4918 1.1113
C26 C 0.65668(17) 0.43946(6) 1.03262(11)
C27 C 0.67250(16) 0.39859(7) 0.97938(10)
H25 H 0.7499 0.3969 0.9560
C28 C 0.57755(16) 0.36048(6) 0.95993(10)
H26 H 0.5885 0.3331 0.9228
C29 C 0.46570(15) 0.36288(6) 0.99558(9)
C30 C 0.27175(14) 0.35960(5) 0.80955(9)
C31 C 0.26712(15) 0.32954(5) 0.74065(9)
C32 C 0.33299(15) 0.34728(5) 0.67365(9)
C33 C 0.39447(15) 0.39562(5) 0.68178(9)
C34 C 0.45987(15) 0.41359(6) 0.61918(10)
H27 H 0.4996 0.4466 0.6251
C35 C 0.46676(17) 0.38348(7) 0.54886(10)
H28 H 0.5119 0.3955 0.5065
C36 C 0.54464(18) 0.44053(6) 1.06825(11)
H29 H 0.5336 0.4679 1.1055
C37 C 0.44923(16) 0.40260(6) 1.05053(10)
H30 H 0.3734 0.4036 1.0755
C38 C 0.12659(15) 0.38249(6) 0.90885(10)
H31 H 0.1467 0.4180 0.8942
H32 H 0.1335 0.3807 0.9720
C39 C -0.01311(15) 0.36884(6) 0.86234(9)
C40 C -0.10080(17) 0.40720(7) 0.82473(10)
H33 H -0.0725 0.4419 0.8284
C41 C -0.22997(18) 0.39478(8) 0.78180(12)
H34 H -0.2895 0.4211 0.7564
C42 C -0.27181(18) 0.34504(9) 0.77591(12)
H35 H -0.3595 0.3368 0.7453
C43 C -0.18616(18) 0.30653(8) 0.81463(12)
H36 H -0.2159 0.2720 0.8116
C44 C -0.05730(17) 0.31838(6) 0.85776(11)
H37 H 0.0010 0.2919 0.8843
C45 C 0.34056(16) 0.31749(6) 0.60117(10)
H38 H 0.2996 0.2847 0.5939
C46 C 0.40705(17) 0.33543(7) 0.54049(10)
H39 H 0.4121 0.3146 0.4922
C47 C 0.39147(15) 0.42789(6) 0.75637(9)
C48 C 0.19795(19) 0.27867(6) 0.73108(11)
H40 H 0.1623 0.2718 0.7824
H41 H 0.2616 0.2518 0.7248
H42 H 0.1247 0.2792 0.6798
loop_
_geom_bond_atom_site_label_1
_geom_bond_atom_site_label_2
_geom_bond_site_symmetry_1
_geom_bond_site_symmetry_2
S1 O3 1_555 1_555
O1 C6 1_555 1_555
O2 C15 1_555 1_555
O4 S1 1_555 1_555
N1 S1 1_555 1_555
C1 H1 1_555 1_555
C2 C1 1_555 1_555
H2 C2 1_555 1_555
C3 C2 1_555 1_555
C4 C3 1_555 1_555
C5 C4 1_555 1_555
C6 N1 1_555 1_555
C7 S1 1_555 1_555
C8 C7 1_555 1_555
H3 C8 1_555 1_555
C9 C8 1_555 1_555
H4 C9 1_555 1_555
C10 C9 1_555 1_555
C11 C10 1_555 1_555
H5 C11 1_555 1_555
H6 C11 1_555 1_555
H7 C11 1_555 1_555
C12 C5 1_555 1_555
H8 C12 1_555 1_555
H9 C12 1_555 1_555
H10 C12 1_555 1_555
C13 C1 1_555 1_555
H11 C13 1_555 1_555
C14 C4 1_555 1_555
H12 C14 1_555 1_555
C15 O1 1_555 1_555
C16 N1 1_555 1_555
H13 C16 1_555 1_555
H14 C16 1_555 1_555
C17 C16 1_555 1_555
C18 C17 1_555 1_555
H15 C18 1_555 1_555
C19 C18 1_555 1_555
H16 C19 1_555 1_555
C20 C19 1_555 1_555
H17 C20 1_555 1_555
C21 C20 1_555 1_555
H18 C21 1_555 1_555
C22 C17 1_555 1_555
H19 C22 1_555 1_555
C23 C7 1_555 1_555
H20 C23 1_555 1_555
C24 C10 1_555 1_555
H21 C24 1_555 1_555
S2 O5 1_555 1_555
O6 C47 1_555 1_555
O7 C30 1_555 1_555
O8 S2 1_555 1_555
N2 S2 1_555 1_555
C25 H22 1_555 1_555
H23 C25 1_555 1_555
H24 C25 1_555 1_555
C26 C25 1_555 1_555
C27 C26 1_555 1_555
H25 C27 1_555 1_555
C28 C27 1_555 1_555
H26 C28 1_555 1_555
C29 S2 1_555 1_555
C30 N2 1_555 1_555
C31 C30 1_555 1_555
C32 C31 1_555 1_555
C33 C32 1_555 1_555
C34 C33 1_555 1_555
H27 C34 1_555 1_555
C35 C34 1_555 1_555
H28 C35 1_555 1_555
C36 C26 1_555 1_555
H29 C36 1_555 1_555
C37 C29 1_555 1_555
H30 C37 1_555 1_555
C38 N2 1_555 1_555
H31 C38 1_555 1_555
H32 C38 1_555 1_555
C39 C38 1_555 1_555
C40 C39 1_555 1_555
H33 C40 1_555 1_555
C41 C40 1_555 1_555
H34 C41 1_555 1_555
C42 C41 1_555 1_555
H35 C42 1_555 1_555
C43 C42 1_555 1_555
H36 C43 1_555 1_555
C44 C39 1_555 1_555
H37 C44 1_555 1_555
C45 C32 1_555 1_555
H38 C45 1_555 1_555
C46 C35 1_555 1_555
H39 C46 1_555 1_555
C47 O7 1_555 1_555
C48 C31 1_555 1_555
H40 C48 1_555 1_555
H41 C48 1_555 1_555
H42 C48 1_555 1_555
C3 C15 1_555 1_555
C5 C6 1_555 1_555
C13 C14 1_555 1_555
C21 C22 1_555 1_555
C23 C24 1_555 1_555
C28 C29 1_555 1_555
C33 C47 1_555 1_555
C36 C37 1_555 1_555
C43 C44 1_555 1_555
C45 C46 1_555 1_555

#END
