
#######################################################################
#
#                 Cambridge Crystallographic Data Centre
#                                CCDC 
#
#######################################################################
#
# If this CIF has been generated from an entry in the Cambridge 
# Structural Database, then it will include bibliographic, chemical, 
# crystal, experimental, refinement or atomic coordinate data resulting 
# from the CCDC's data processing and validation procedures.
#
#######################################################################

data_ULILOR
_chemical_name_common            'PDB Chemical Component code: HCC'
_chemical_formula_moiety         'C15 H12 O4,H2 O1'
_chemical_name_systematic        
'(E)-1-(2,4-Dihydroxyphenyl)-3-(4-hydroxyphenyl)prop-2-en-1-one monohydrate'
_symmetry_cell_setting           monoclinic
_symmetry_space_group_name_H-M   'P 21/c'
_symmetry_Int_Tables_number      14
_space_group_name_Hall           '-P 2ybc'
loop_
_symmetry_equiv_pos_site_id
_symmetry_equiv_pos_as_xyz
1 x,y,z
2 -x,1/2+y,1/2-z
3 -x,-y,-z
4 x,1/2-y,1/2+z
_cell_length_a                   11.489(2)
_cell_length_b                   9.5903(17)
_cell_length_c                   12.498(2)
_cell_angle_alpha                90
_cell_angle_beta                 103.649(3)
_cell_angle_gamma                90
_cell_volume                     1338.18
_exptl_crystal_colour            yellow
_exptl_crystal_description       block
_cell_formula_units_Z            4
_exptl_crystal_recrystallization_method ethanol/water
loop_
_atom_site_label
_atom_site_type_symbol
_atom_site_fract_x
_atom_site_fract_y
_atom_site_fract_z
C1 C 0.19653(18) 1.0001(2) 0.07068(17)
C2 C 0.10947(18) 1.1026(2) 0.07420(17)
C3 C 0.0605(2) 1.1156(2) 0.16459(19)
H1 H 0.0037 1.1844 0.1655
C4 C 0.0950(2) 1.0275(2) 0.25329(18)
C5 C 0.1818(2) 0.9256(3) 0.25306(19)
H2 H 0.2061 0.8663 0.3131
C6 C 0.2309(2) 0.9138(2) 0.16359(19)
H3 H 0.2892 0.8462 0.1644
C7 C 0.24678(19) 0.9881(2) -0.02538(18)
C8 C 0.3403(2) 0.8856(3) -0.02910(19)
H4 H 0.3588 0.8183 0.0258
C9 C 0.3990(2) 0.8858(3) -0.10772(19)
H5 H 0.3751 0.9540 -0.1613
C10 C 0.49523(19) 0.7959(2) -0.12387(17)
C11 C 0.5467(2) 0.6925(3) -0.05077(19)
H6 H 0.5169 0.6760 0.0111
C12 C 0.6406(2) 0.6134(3) -0.0672(2)
H7 H 0.6750 0.5458 -0.0161
C13 C 0.68407(19) 0.6350(3) -0.16102(18)
C14 C 0.6341(2) 0.7353(3) -0.23509(18)
H8 H 0.6628 0.7498 -0.2978
C15 C 0.5412(2) 0.8148(3) -0.21662(19)
H9 H 0.5080 0.8832 -0.2675
O1 O 0.07099(15) 1.19360(19) -0.01001(14)
H10 H 0.107(3) 1.171(3) -0.061(2)
O2 O 0.04269(18) 1.0443(2) 0.33756(14)
H11 H 0.069(3) 0.988(3) 0.387(2)
O3 O 0.21067(14) 1.06876(19) -0.10709(13)
O4 O 0.77775(17) 0.5545(2) -0.17385(14)
H12 H 0.784(3) 0.563(4) -0.2384(17)
O5 O 0.12061(17) 0.6281(2) 0.00416(14)
H13 H 0.072(2) 0.687(3) 0.017(3)
H14 H 0.149(3) 0.586(3) 0.0630(19)
loop_
_geom_bond_atom_site_label_1
_geom_bond_atom_site_label_2
_geom_bond_site_symmetry_1
_geom_bond_site_symmetry_2
C1 C2 1_555 1_555
C2 C3 1_555 1_555
C3 H1 1_555 1_555
C4 C3 1_555 1_555
C5 C4 1_555 1_555
H2 C5 1_555 1_555
C6 C1 1_555 1_555
H3 C6 1_555 1_555
C7 C1 1_555 1_555
C8 C7 1_555 1_555
H4 C8 1_555 1_555
C9 C8 1_555 1_555
H5 C9 1_555 1_555
C10 C9 1_555 1_555
C11 C10 1_555 1_555
H6 C11 1_555 1_555
C12 C11 1_555 1_555
H7 C12 1_555 1_555
C13 C12 1_555 1_555
C14 C13 1_555 1_555
H8 C14 1_555 1_555
C15 C10 1_555 1_555
H9 C15 1_555 1_555
O1 C2 1_555 1_555
H10 O1 1_555 1_555
O2 C4 1_555 1_555
H11 O2 1_555 1_555
O3 C7 1_555 1_555
O4 C13 1_555 1_555
H12 O4 1_555 1_555
O5 H13 1_555 1_555
H14 O5 1_555 1_555
C5 C6 1_555 1_555
C14 C15 1_555 1_555

#END
