
#######################################################################
#
#                 Cambridge Crystallographic Data Centre
#                                CCDC 
#
#######################################################################
#
# If this CIF has been generated from an entry in the Cambridge 
# Structural Database, then it will include bibliographic, chemical, 
# crystal, experimental, refinement or atomic coordinate data resulting 
# from the CCDC's data processing and validation procedures.
#
#######################################################################

data_ULINAF
_chemical_formula_moiety         'C18 H16 N6 O2 S2'
_chemical_name_systematic        
1,4-bis[5-(Pyridin-4-yl)-1,3,4-oxadiazol-2-ylsulfanyl]butane
_symmetry_cell_setting           monoclinic
_symmetry_space_group_name_H-M   'P 21/c'
_symmetry_Int_Tables_number      14
_space_group_name_Hall           '-P 2ybc'
loop_
_symmetry_equiv_pos_site_id
_symmetry_equiv_pos_as_xyz
1 x,y,z
2 -x,1/2+y,1/2-z
3 -x,-y,-z
4 x,1/2-y,1/2+z
_cell_length_a                   4.9780(6)
_cell_length_b                   5.7933(7)
_cell_length_c                   31.003(4)
_cell_angle_alpha                90
_cell_angle_beta                 92.588(5)
_cell_angle_gamma                90
_cell_volume                     893.185
_exptl_crystal_colour            'light yellow'
_exptl_crystal_description       prism
_cell_formula_units_Z            2
_exptl_crystal_recrystallization_method chloroform/ethanol
loop_
_atom_site_label
_atom_site_type_symbol
_atom_site_fract_x
_atom_site_fract_y
_atom_site_fract_z
S1 S 0.25227(6) 0.35176(5) 0.422550(9)
O1 O 0.61211(17) 0.17771(15) 0.37253(3)
N1 N 1.3455(2) -0.0526(2) 0.27364(3)
N2 N 0.7346(2) -0.15583(19) 0.40229(3)
N3 N 0.5348(2) -0.05632(19) 0.42735(3)
C1 C 1.1858(3) 0.1307(2) 0.27715(4)
H1 H 1.2063 0.2551 0.2576
C2 C 0.9910(3) 0.1507(2) 0.30774(4)
H2 H 0.8797 0.2836 0.3086
C3 C 0.9634(2) -0.0287(2) 0.33688(4)
C4 C 1.1268(3) -0.2220(2) 0.33375(4)
H3 H 1.1125 -0.3479 0.3531
C5 C 1.3118(3) -0.2262(2) 0.30146(4)
H4 H 1.4206 -0.3598 0.2990
C6 C 0.7718(2) -0.0138(2) 0.37112(4)
C7 C 0.4729(2) 0.1379(2) 0.40882(4)
C8 C 0.1260(3) 0.2236(2) 0.47114(4)
H5 H 0.0331 0.0764 0.4640
H6 H 0.2770 0.1908 0.4921
C9 C -0.0695(3) 0.3927(2) 0.49063(4)
H7 H -0.2052 0.4403 0.4680
H8 H -0.1652 0.3137 0.5137
S1B S -0.25227(6) 0.64824(5) 0.577450(9)
O1B O -0.61211(17) 0.82229(15) 0.62747(3)
N1B N -1.3455(2) 1.0526(2) 0.72636(3)
N2B N -0.7346(2) 1.15583(19) 0.59771(3)
N3B N -0.5348(2) 1.05632(19) 0.57265(3)
C1B C -1.1858(3) 0.8693(2) 0.72285(4)
H1B H -1.2063 0.7449 0.7424
C2B C -0.9910(3) 0.8493(2) 0.69226(4)
H2B H -0.8797 0.7164 0.6914
C3B C -0.9634(2) 1.0287(2) 0.66312(4)
C4B C -1.1268(3) 1.2220(2) 0.66625(4)
H3B H -1.1125 1.3479 0.6469
C5B C -1.3118(3) 1.2262(2) 0.69854(4)
H4B H -1.4206 1.3598 0.7010
C6B C -0.7718(2) 1.0138(2) 0.62888(4)
C7B C -0.4729(2) 0.8621(2) 0.59118(4)
C8B C -0.1260(3) 0.7764(2) 0.52886(4)
H5B H -0.0331 0.9236 0.5360
H6B H -0.2770 0.8092 0.5079
C9B C 0.0695(3) 0.6073(2) 0.50937(4)
H7B H 0.2052 0.5597 0.5320
H8B H 0.1652 0.6863 0.4863
loop_
_geom_bond_atom_site_label_1
_geom_bond_atom_site_label_2
_geom_bond_site_symmetry_1
_geom_bond_site_symmetry_2
S1 C7 1_555 1_555
O1 C6 1_555 1_555
N1 C1 1_555 1_555
N2 N3 1_555 1_555
N3 C7 1_555 1_555
C1 H1 1_555 1_555
C2 C1 1_555 1_555
H2 C2 1_555 1_555
C3 C2 1_555 1_555
C4 C3 1_555 1_555
H3 C4 1_555 1_555
C5 N1 1_555 1_555
H4 C5 1_555 1_555
C6 N2 1_555 1_555
C7 O1 1_555 1_555
C8 S1 1_555 1_555
H5 C8 1_555 1_555
H6 C8 1_555 1_555
C9 C8 1_555 1_555
H7 C9 1_555 1_555
H8 C9 1_555 1_555
S1B C7B 1_555 1_555
O1B C6B 1_555 1_555
N1B C1B 1_555 1_555
N2B N3B 1_555 1_555
N3B C7B 1_555 1_555
C1B H1B 1_555 1_555
C2B C1B 1_555 1_555
H2B C2B 1_555 1_555
C3B C2B 1_555 1_555
C4B C3B 1_555 1_555
H3B C4B 1_555 1_555
C5B N1B 1_555 1_555
H4B C5B 1_555 1_555
C6B N2B 1_555 1_555
C7B O1B 1_555 1_555
C8B S1B 1_555 1_555
H5B C8B 1_555 1_555
H6B C8B 1_555 1_555
C9B C9 1_555 1_555
H7B C9B 1_555 1_555
H8B C9B 1_555 1_555
C3 C6 1_555 1_555
C4 C5 1_555 1_555
C3B C6B 1_555 1_555
C4B C5B 1_555 1_555
C8B C9B 1_555 1_555

#END
