
#######################################################################
#
#                 Cambridge Crystallographic Data Centre
#                                CCDC 
#
#######################################################################
#
# If this CIF has been generated from an entry in the Cambridge 
# Structural Database, then it will include bibliographic, chemical, 
# crystal, experimental, refinement or atomic coordinate data resulting 
# from the CCDC's data processing and validation procedures.
#
#######################################################################

data_ULIPEK
_chemical_formula_moiety         'C26 H24 N1 O4 P1'
_chemical_name_systematic        
2-Phenyl-4-isobutylspiro(1,3,2-oxazaphospholane-2,2'-1',3',2'-phenanthro(9,10-d)dioxaphosphole)-5-one
_symmetry_cell_setting           orthorhombic
_symmetry_space_group_name_H-M   'P 21 21 21'
_symmetry_Int_Tables_number      19
_space_group_name_Hall           'P 2ac 2ab'
loop_
_symmetry_equiv_pos_site_id
_symmetry_equiv_pos_as_xyz
1 x,y,z
2 1/2-x,-y,1/2+z
3 -x,1/2+y,1/2-z
4 1/2+x,1/2-y,-z
_cell_length_a                   8.459(2)
_cell_length_b                   9.722(2)
_cell_length_c                   27.344(5)
_cell_angle_alpha                90
_cell_angle_beta                 90
_cell_angle_gamma                90
_cell_volume                     2248.73
_exptl_crystal_colour            'light yellow'
_exptl_crystal_description       grain
_chemical_melting_point          210-212deg.C
_cell_formula_units_Z            4
_exptl_crystal_recrystallization_method benzene/hexane
loop_
_atom_site_label
_atom_site_type_symbol
_atom_site_fract_x
_atom_site_fract_y
_atom_site_fract_z
P1 P 0.4487(3) 0.5350(2) 0.83496(7)
O1 O 0.5109(5) 0.3811(4) 0.85297(16)
O2 O 0.5163(5) 0.6098(4) 0.88831(14)
O3 O 0.3982(5) 0.4497(4) 0.78035(14)
O4 O 0.4417(7) 0.4501(5) 0.70001(14)
N1 N 0.5446(6) 0.6460(5) 0.80337(18)
H1 H 0.5903 0.7191 0.8178
C1 C 0.2438(9) 0.5678(8) 0.8503(2)
C2 C 0.1636(10) 0.4826(9) 0.8813(3)
H2 H 0.2099 0.3977 0.8920
C3 C 0.0129(11) 0.5247(10) 0.8935(3)
H3 H -0.0516 0.4662 0.9135
C4 C -0.0525(11) 0.6438(10) 0.8796(3)
H4 H -0.1539 0.6706 0.8922
C5 C 0.0304(12) 0.7233(9) 0.8491(4)
H5 H -0.0176 0.8077 0.8384
C6 C 0.1772(11) 0.6876(9) 0.8342(3)
H6 H 0.2359 0.7465 0.8126
C7 C 0.5820(9) 0.3831(8) 0.8993(2)
C8 C 0.5820(9) 0.5117(7) 0.9175(3)
C9 C 0.6510(8) 0.5402(8) 0.9646(3)
C10 C 0.6518(9) 0.6758(8) 0.9843(3)
H7 H 0.6066 0.7509 0.9662
C11 C 0.7143(9) 0.6945(9) 1.0290(3)
H8 H 0.7120 0.7836 1.0441
C12 C 0.7890(10) 0.5871(10) 1.0526(3)
H9 H 0.8419 0.6046 1.0831
C13 C 0.7912(9) 0.4522(10) 1.0341(3)
H10 H 0.8360 0.3795 1.0534
C14 C 0.7198(9) 0.4217(8) 0.9884(3)
C15 C 0.7228(9) 0.2891(7) 0.9669(3)
C16 C 0.7929(9) 0.1767(8) 0.9877(3)
H11 H 0.8436 0.1853 1.0190
C17 C 0.7919(9) 0.0530(9) 0.9659(3)
H12 H 0.8397 -0.0258 0.9811
C18 C 0.7211(9) 0.0366(9) 0.9210(3)
H13 H 0.7186 -0.0522 0.9057
C19 C 0.6531(8) 0.1442(7) 0.8978(2)
H14 H 0.6104 0.1356 0.8654
C20 C 0.6497(9) 0.2689(7) 0.9202(3)
C21 C 0.4633(10) 0.5010(7) 0.7394(3)
C22 C 0.5622(10) 0.6247(7) 0.7503(2)
H15 H 0.5204 0.7036 0.7336
C23 C 0.7418(11) 0.6089(9) 0.7368(3)
H16 H 0.7988 0.6858 0.7500
C24 C 0.8185(10) 0.4788(8) 0.7604(3)
H17 H 0.9281 0.4684 0.7520
H18 H 0.7606 0.3997 0.7493
H19 H 0.8081 0.4873 0.7952
C25 C 0.7712(11) 0.6130(9) 0.6820(3)
H20 H 0.7371 0.5281 0.6675
H21 H 0.7098 0.6866 0.6683
C26 C 0.9446(11) 0.6374(8) 0.6686(3)
H22 H 0.9621 0.6411 0.6340
H23 H 1.0048 0.5631 0.6824
H24 H 0.9773 0.7226 0.6832
loop_
_geom_bond_atom_site_label_1
_geom_bond_atom_site_label_2
_geom_bond_site_symmetry_1
_geom_bond_site_symmetry_2
P1 O1 1_555 1_555
O1 C7 1_555 1_555
O2 P1 1_555 1_555
O3 P1 1_555 1_555
O4 C21 1_555 1_555
N1 P1 1_555 1_555
H1 N1 1_555 1_555
C1 P1 1_555 1_555
C2 C1 1_555 1_555
H2 C2 1_555 1_555
C3 C2 1_555 1_555
H3 C3 1_555 1_555
C4 C3 1_555 1_555
H4 C4 1_555 1_555
C5 C4 1_555 1_555
H5 C5 1_555 1_555
C6 C1 1_555 1_555
H6 C6 1_555 1_555
C7 C8 1_555 1_555
C8 O2 1_555 1_555
C9 C8 1_555 1_555
C10 C9 1_555 1_555
H7 C10 1_555 1_555
C11 C10 1_555 1_555
H8 C11 1_555 1_555
C12 C11 1_555 1_555
H9 C12 1_555 1_555
C13 C12 1_555 1_555
H10 C13 1_555 1_555
C14 C9 1_555 1_555
C15 C14 1_555 1_555
C16 C15 1_555 1_555
H11 C16 1_555 1_555
C17 C16 1_555 1_555
H12 C17 1_555 1_555
C18 C17 1_555 1_555
H13 C18 1_555 1_555
C19 C18 1_555 1_555
H14 C19 1_555 1_555
C20 C7 1_555 1_555
C21 O3 1_555 1_555
C22 N1 1_555 1_555
H15 C22 1_555 1_555
C23 C22 1_555 1_555
H16 C23 1_555 1_555
C24 C23 1_555 1_555
H17 C24 1_555 1_555
H18 C24 1_555 1_555
H19 C24 1_555 1_555
C25 C23 1_555 1_555
H20 C25 1_555 1_555
H21 C25 1_555 1_555
C26 C25 1_555 1_555
H22 C26 1_555 1_555
H23 C26 1_555 1_555
H24 C26 1_555 1_555
C5 C6 1_555 1_555
C13 C14 1_555 1_555
C15 C20 1_555 1_555
C19 C20 1_555 1_555
C21 C22 1_555 1_555

#END
