
#######################################################################
#
#                 Cambridge Crystallographic Data Centre
#                                CCDC 
#
#######################################################################
#
# If this CIF has been generated from an entry in the Cambridge 
# Structural Database, then it will include bibliographic, chemical, 
# crystal, experimental, refinement or atomic coordinate data resulting 
# from the CCDC's data processing and validation procedures.
#
#######################################################################

data_ULIPEL
_chemical_name_common            
10-Benzyl-8-methyl-3-oxa-10-azatricyclo[6.3.1.0$1,5!]dodecane-2,12-dione
_chemical_formula_moiety         'C18 H21 N1 O3'
_chemical_name_systematic        
5-Benzyl-7-methylhexahydro-3a,7-methano-1H-furo[3,4-c]azocine-3,10(4H)-dione
_symmetry_cell_setting           orthorhombic
_symmetry_space_group_name_H-M   'P n a 21'
_symmetry_Int_Tables_number      33
_space_group_name_Hall           'P 2c -2n'
loop_
_symmetry_equiv_pos_site_id
_symmetry_equiv_pos_as_xyz
1 x,y,z
2 -x,-y,1/2+z
3 1/2+x,1/2-y,z
4 1/2-x,1/2+y,1/2+z
_cell_length_a                   10.795(2)
_cell_length_b                   14.386(3)
_cell_length_c                   9.797(2)
_cell_angle_alpha                90
_cell_angle_beta                 90
_cell_angle_gamma                90
_cell_volume                     1521.44
_exptl_crystal_colour            colorless
_exptl_crystal_description       prism
_cell_formula_units_Z            4
_exptl_crystal_recrystallization_method 'ethyl acetate/petroleum ether'
loop_
_atom_site_label
_atom_site_type_symbol
_atom_site_fract_x
_atom_site_fract_y
_atom_site_fract_z
O1 O 0.4992(4) 1.0732(2) 0.3736(5)
O2 O 0.6479(3) 0.9870(3) 0.2802(5)
O3 O 0.5495(4) 0.8809(3) 0.5463(4)
N1 N 0.3480(3) 0.7803(3) 0.2454(4)
C1 C 0.3691(5) 1.0624(4) 0.4104(7)
H1 H 0.3216 1.1164 0.3825
H2 H 0.3601 1.0542 0.5082
C2 C 0.3259(4) 0.9760(3) 0.3343(5)
H3 H 0.3083 0.9938 0.2398
C3 C 0.4465(4) 0.9178(3) 0.3349(5)
C4 C 0.5441(5) 0.9930(4) 0.3236(5)
C5 C 0.4612(4) 0.8689(3) 0.4713(5)
C6 C 0.3570(4) 0.8020(3) 0.4992(5)
C7 C 0.2386(4) 0.8628(4) 0.5110(6)
H4 H 0.1679 0.8219 0.5225
H5 H 0.2452 0.9004 0.5929
C8 C 0.2129(4) 0.9273(4) 0.3903(6)
H6 H 0.1754 0.8912 0.3176
H7 H 0.1532 0.9739 0.4186
C9 C 0.3758(6) 0.7484(4) 0.6313(6)
H8 H 0.4532 0.7157 0.6276
H9 H 0.3094 0.7046 0.6428
H10 H 0.3765 0.7909 0.7068
C10 C 0.3545(5) 0.7331(3) 0.3766(6)
H11 H 0.4286 0.6950 0.3792
H12 H 0.2835 0.6923 0.3858
C11 C 0.4512(4) 0.8433(3) 0.2246(5)
H13 H 0.4455 0.8718 0.1350
H14 H 0.5289 0.8096 0.2300
C12 C 0.3250(5) 0.7190(4) 0.1294(6)
H15 H 0.3046 0.7575 0.0513
H16 H 0.2523 0.6819 0.1500
C13 C 0.4275(4) 0.6538(3) 0.0878(5)
C14 C 0.5080(6) 0.6763(4) -0.0179(6)
H17 H 0.4984 0.7322 -0.0644
C15 C 0.6027(6) 0.6160(5) -0.0545(7)
H18 H 0.6555 0.6315 -0.1260
C16 C 0.6189(6) 0.5334(5) 0.0141(7)
H19 H 0.6829 0.4934 -0.0098
C17 C 0.5400(6) 0.5112(4) 0.1175(7)
H20 H 0.5504 0.4554 0.1641
C18 C 0.4448(5) 0.5703(3) 0.1542(6)
H21 H 0.3916 0.5535 0.2246
loop_
_geom_bond_atom_site_label_1
_geom_bond_atom_site_label_2
_geom_bond_site_symmetry_1
_geom_bond_site_symmetry_2
O1 C1 1_555 1_555
O2 C4 1_555 1_555
O3 C5 1_555 1_555
N1 C10 1_555 1_555
C1 H1 1_555 1_555
H2 C1 1_555 1_555
C2 C1 1_555 1_555
H3 C2 1_555 1_555
C3 C2 1_555 1_555
C4 O1 1_555 1_555
C5 C3 1_555 1_555
C6 C5 1_555 1_555
C7 C6 1_555 1_555
H4 C7 1_555 1_555
H5 C7 1_555 1_555
C8 C2 1_555 1_555
H6 C8 1_555 1_555
H7 C8 1_555 1_555
C9 C6 1_555 1_555
H8 C9 1_555 1_555
H9 C9 1_555 1_555
H10 C9 1_555 1_555
C10 C6 1_555 1_555
H11 C10 1_555 1_555
H12 C10 1_555 1_555
C11 N1 1_555 1_555
H13 C11 1_555 1_555
H14 C11 1_555 1_555
C12 N1 1_555 1_555
H15 C12 1_555 1_555
H16 C12 1_555 1_555
C13 C12 1_555 1_555
C14 C13 1_555 1_555
H17 C14 1_555 1_555
C15 C14 1_555 1_555
H18 C15 1_555 1_555
C16 C15 1_555 1_555
H19 C16 1_555 1_555
C17 C16 1_555 1_555
H20 C17 1_555 1_555
C18 C13 1_555 1_555
H21 C18 1_555 1_555
C3 C4 1_555 1_555
C3 C11 1_555 1_555
C7 C8 1_555 1_555
C17 C18 1_555 1_555

#END
