
#######################################################################
#
#                 Cambridge Crystallographic Data Centre
#                                CCDC 
#
#######################################################################
#
# If this CIF has been generated from an entry in the Cambridge 
# Structural Database, then it will include bibliographic, chemical, 
# crystal, experimental, refinement or atomic coordinate data resulting 
# from the CCDC's data processing and validation procedures.
#
#######################################################################

data_ULIPAG
_chemical_formula_moiety         'C25 H22 N1 O4 P1'
_chemical_name_systematic        
2-Phenyl-4-isopropylspiro((1,3,2-oxazaphospholane)-2,2'-(1',3',2'-phenanthro(9,10-d)dioxaphosphole))-5-one
_symmetry_cell_setting           monoclinic
_symmetry_space_group_name_H-M   'P 21'
_symmetry_Int_Tables_number      4
_space_group_name_Hall           'P 2yb'
loop_
_symmetry_equiv_pos_site_id
_symmetry_equiv_pos_as_xyz
1 x,y,z
2 -x,1/2+y,-z
_cell_length_a                   5.3430(10)
_cell_length_b                   20.438(4)
_cell_length_c                   9.872(2)
_cell_angle_alpha                90
_cell_angle_beta                 101.02(3)
_cell_angle_gamma                90
_cell_volume                     1058.15
_exptl_crystal_colour            colorless
_exptl_crystal_description       grain
_cell_formula_units_Z            2
_exptl_crystal_recrystallization_method benzene/hexane
loop_
_atom_site_label
_atom_site_type_symbol
_atom_site_fract_x
_atom_site_fract_y
_atom_site_fract_z
P1 P 0.4091(2) 0.71462(7) 0.99023(14)
O1 O 0.6289(6) 0.65747(17) 1.0106(4)
O2 O 0.2211(6) 0.67091(17) 0.8580(4)
O3 O 0.6046(6) 0.75378(18) 1.1289(4)
O4 O 0.5983(7) 0.80583(19) 1.3250(4)
N1 N 0.1759(6) 0.7183(2) 1.0745(4)
H1 H 0.0216 0.7022 1.0367
C1 C 0.4637(9) 0.7793(3) 0.8765(5)
C2 C 0.6389(10) 0.7726(3) 0.7892(6)
H2 H 0.7346 0.7329 0.7881
C3 C 0.6714(12) 0.8255(4) 0.7034(6)
H3 H 0.7905 0.8218 0.6423
C4 C 0.5351(13) 0.8820(4) 0.7034(7)
H4 H 0.5626 0.9174 0.6441
C5 C 0.3601(13) 0.8881(3) 0.7910(7)
H5 H 0.2635 0.9277 0.7920
C6 C 0.3288(10) 0.8368(3) 0.8765(6)
H6 H 0.2100 0.8407 0.9378
C7 C 0.5613(9) 0.6048(3) 0.9198(5)
C8 C 0.3406(9) 0.6143(2) 0.8352(5)
C9 C 0.2417(9) 0.5681(3) 0.7285(5)
C10 C 0.0123(9) 0.5775(3) 0.6347(5)
H7 H -0.0877 0.6158 0.6432
C11 C -0.0715(11) 0.5323(3) 0.5338(6)
H8 H -0.2266 0.5399 0.4685
C12 C 0.0722(13) 0.4767(3) 0.5261(7)
H9 H 0.0131 0.4445 0.4564
C13 C 0.2944(11) 0.4658(3) 0.6170(6)
H10 H 0.3913 0.4269 0.6089
C14 C 0.3898(9) 0.5107(3) 0.7208(6)
C15 C 0.6269(10) 0.5006(3) 0.8197(6)
C16 C 0.7843(10) 0.4445(3) 0.8184(6)
H11 H 0.7309 0.4113 0.7502
C17 C 1.0053(11) 0.4367(3) 0.9117(7)
H12 H 1.1070 0.3983 0.9078
C18 C 1.0850(10) 0.4830(3) 1.0134(7)
H13 H 1.2400 0.4765 1.0794
C19 C 0.9447(10) 0.5389(3) 1.0182(6)
H14 H 0.9996 0.5711 1.0884
C20 C 0.7174(9) 0.5483(2) 0.9209(5)
C21 C 0.4896(9) 0.7727(2) 1.2323(5)
C22 C 0.2197(8) 0.7472(3) 1.2112(5)
H15 H 0.1048 0.7833 1.2115
C23 C 0.1844(10) 0.6984(3) 1.3252(6)
H16 H 0.0234 0.6770 1.2953
C24 C 0.1733(12) 0.7338(4) 1.4619(6)
H17 H 0.1502 0.7028 1.5316
H18 H 0.3300 0.7572 1.4916
H19 H 0.0334 0.7641 1.4468
C25 C 0.3899(12) 0.6450(3) 1.3449(7)
H20 H 0.3926 0.6230 1.2593
H21 H 0.5523 0.6653 1.3777
H22 H 0.3554 0.6140 1.4119
loop_
_geom_bond_atom_site_label_1
_geom_bond_atom_site_label_2
_geom_bond_site_symmetry_1
_geom_bond_site_symmetry_2
P1 O1 1_555 1_555
O1 C7 1_555 1_555
O2 P1 1_555 1_555
O3 P1 1_555 1_555
O4 C21 1_555 1_555
N1 P1 1_555 1_555
H1 N1 1_555 1_555
C1 P1 1_555 1_555
C2 C1 1_555 1_555
H2 C2 1_555 1_555
C3 C2 1_555 1_555
H3 C3 1_555 1_555
C4 C3 1_555 1_555
H4 C4 1_555 1_555
C5 C4 1_555 1_555
H5 C5 1_555 1_555
C6 C1 1_555 1_555
H6 C6 1_555 1_555
C7 C8 1_555 1_555
C8 O2 1_555 1_555
C9 C8 1_555 1_555
C10 C9 1_555 1_555
H7 C10 1_555 1_555
C11 C10 1_555 1_555
H8 C11 1_555 1_555
C12 C11 1_555 1_555
H9 C12 1_555 1_555
C13 C12 1_555 1_555
H10 C13 1_555 1_555
C14 C9 1_555 1_555
C15 C14 1_555 1_555
C16 C15 1_555 1_555
H11 C16 1_555 1_555
C17 C16 1_555 1_555
H12 C17 1_555 1_555
C18 C17 1_555 1_555
H13 C18 1_555 1_555
C19 C18 1_555 1_555
H14 C19 1_555 1_555
C20 C7 1_555 1_555
C21 O3 1_555 1_555
C22 N1 1_555 1_555
H15 C22 1_555 1_555
C23 C22 1_555 1_555
H16 C23 1_555 1_555
C24 C23 1_555 1_555
H17 C24 1_555 1_555
H18 C24 1_555 1_555
H19 C24 1_555 1_555
C25 C23 1_555 1_555
H20 C25 1_555 1_555
H21 C25 1_555 1_555
H22 C25 1_555 1_555
C5 C6 1_555 1_555
C13 C14 1_555 1_555
C15 C20 1_555 1_555
C19 C20 1_555 1_555
C21 C22 1_555 1_555

#END
