
#######################################################################
#
#                 Cambridge Crystallographic Data Centre
#                                CCDC 
#
#######################################################################
#
# If this CIF has been generated from an entry in the Cambridge 
# Structural Database, then it will include bibliographic, chemical, 
# crystal, experimental, refinement or atomic coordinate data resulting 
# from the CCDC's data processing and validation procedures.
#
#######################################################################

data_ULIZUM
_chemical_formula_moiety         'C10 H10 N4,C7 H8 O3'
_chemical_name_systematic        
'5-Methoxybenzene-1,3-diol, (1E,3E)-1,4-bis(1H-imidazol-1-yl)buta-1,3-diene'
_symmetry_cell_setting           monoclinic
_symmetry_space_group_name_H-M   'P 21/c'
_symmetry_Int_Tables_number      14
_space_group_name_Hall           '-P 2ybc'
loop_
_symmetry_equiv_pos_site_id
_symmetry_equiv_pos_as_xyz
1 x,y,z
2 -x,1/2+y,1/2-z
3 -x,-y,-z
4 x,1/2-y,1/2+z
_cell_length_a                   9.4917(7)
_cell_length_b                   11.9090(9)
_cell_length_c                   14.9716(10)
_cell_angle_alpha                90
_cell_angle_beta                 96.097(2)
_cell_angle_gamma                90
_cell_volume                     1682.77
_exptl_crystal_colour            colorless
_exptl_crystal_description       block
_cell_formula_units_Z            4
loop_
_atom_site_label
_atom_site_type_symbol
_atom_site_fract_x
_atom_site_fract_y
_atom_site_fract_z
C1 C 0.3793(2) 0.3754(2) 0.11179(14)
H1 H 0.4693 0.4039 0.1067
C2 C 0.1602(2) 0.3634(2) 0.12242(15)
H2 H 0.0663 0.3831 0.1262
C3 C 0.2083(2) 0.2570(2) 0.12096(15)
H3 H 0.1555 0.1916 0.1240
C4 C 0.4484(2) 0.1771(2) 0.10778(13)
H4 H 0.5374 0.1958 0.0917
C5 C 0.4222(2) 0.0695(2) 0.12329(12)
H5 H 0.3332 0.0500 0.1389
C6 C 0.5249(2) -0.0178(2) 0.11708(13)
H6 H 0.6121 0.0009 0.0981
C7 C 0.5006(2) -0.1234(2) 0.13719(13)
H7 H 0.4126 -0.1410 0.1554
C8 C 0.7325(2) -0.2087(2) 0.10695(14)
H8 H 0.7783 -0.1467 0.0858
C9 C 0.7848(3) -0.3130(2) 0.11785(15)
H9 H 0.8744 -0.3351 0.1049
C10 C 0.5780(3) -0.3181(2) 0.15846(14)
H10 H 0.4946 -0.3432 0.1793
N1 N 0.26841(18) 0.43840(16) 0.11752(11)
N2 N 0.35019(16) 0.26455(15) 0.11408(10)
N3 N 0.59900(18) -0.21137(15) 0.13296(10)
N4 N 0.6877(2) -0.38240(18) 0.15065(12)
C11 C 0.8494(2) 0.19563(19) 0.00575(14)
H11 H 0.8733 0.1476 -0.0392
C12 C 0.8003(2) 0.30219(19) -0.01490(13)
C13 C 0.76230(19) 0.37357(18) 0.05217(12)
H12 H 0.7282 0.4453 0.0380
C14 C 0.77596(19) 0.33632(19) 0.14004(13)
C15 C 0.82643(19) 0.23019(18) 0.16299(13)
H13 H 0.8358 0.2062 0.2224
C16 C 0.8626(2) 0.16083(19) 0.09508(14)
C17 C 0.9456(3) 0.0178(2) 0.19935(18)
H14 H 1.0082 0.0701 0.2322
H15 H 0.9896 -0.0548 0.2001
H16 H 0.8587 0.0130 0.2267
O1 O 0.79083(17) 0.33607(14) -0.10248(9)
H17 H 0.7560 0.4065 -0.1070
O2 O 0.73942(15) 0.40322(13) 0.20792(9)
H18 H 0.7208 0.4708 0.1870
O3 O 0.91649(17) 0.05479(14) 0.10975(10)
loop_
_geom_bond_atom_site_label_1
_geom_bond_atom_site_label_2
_geom_bond_site_symmetry_1
_geom_bond_site_symmetry_2
C1 H1 1_555 1_555
C2 H2 1_555 1_555
C3 C2 1_555 1_555
H3 C3 1_555 1_555
C4 H4 1_555 1_555
C5 C4 1_555 1_555
H5 C5 1_555 1_555
C6 C5 1_555 1_555
H6 C6 1_555 1_555
C7 C6 1_555 1_555
H7 C7 1_555 1_555
C8 H8 1_555 1_555
C9 C8 1_555 1_555
H9 C9 1_555 1_555
C10 H10 1_555 1_555
N1 C1 1_555 1_555
N2 C1 1_555 1_555
N3 C7 1_555 1_555
N4 C9 1_555 1_555
C11 H11 1_555 1_555
C12 C11 1_555 1_555
C13 C12 1_555 1_555
H12 C13 1_555 1_555
C14 C13 1_555 1_555
C15 C14 1_555 1_555
H13 C15 1_555 1_555
C16 C11 1_555 1_555
C17 H14 1_555 1_555
H15 C17 1_555 1_555
H16 C17 1_555 1_555
O1 C12 1_555 1_555
H17 O1 1_555 1_555
O2 C14 1_555 1_555
H18 O2 1_555 1_555
O3 C16 1_555 1_555
C2 N1 1_555 1_555
C3 N2 1_555 1_555
C4 N2 1_555 1_555
C8 N3 1_555 1_555
C10 N3 1_555 1_555
C10 N4 1_555 1_555
C15 C16 1_555 1_555
C17 O3 1_555 1_555

#END
