
#######################################################################
#
#                 Cambridge Crystallographic Data Centre
#                                CCDC 
#
#######################################################################
#
# If this CIF has been generated from an entry in the Cambridge 
# Structural Database, then it will include bibliographic, chemical, 
# crystal, experimental, refinement or atomic coordinate data resulting 
# from the CCDC's data processing and validation procedures.
#
#######################################################################

data_ULOKIP
_chemical_formula_moiety         'C2 F4 I2,C6 H18 N3 O1 P1'
_chemical_name_systematic        
'1,2-Di-iodo-1,1,2,2-tetrafluoroethane hexamethylphosphoramide'
_symmetry_cell_setting           monoclinic
_symmetry_space_group_name_H-M   'P 21/c'
_symmetry_Int_Tables_number      14
_space_group_name_Hall           '-P 2ybc'
loop_
_symmetry_equiv_pos_site_id
_symmetry_equiv_pos_as_xyz
1 x,y,z
2 -x,1/2+y,1/2-z
3 -x,-y,-z
4 x,1/2-y,1/2+z
_cell_length_a                   7.0280(14)
_cell_length_b                   16.461(3)
_cell_length_c                   14.947(3)
_cell_angle_alpha                90
_cell_angle_beta                 101.89(3)
_cell_angle_gamma                90
_cell_volume                     1692.09
_exptl_crystal_colour            colorless
_exptl_crystal_description       block
_chemical_melting_point          '363 K'
_cell_formula_units_Z            4
_exptl_crystal_recrystallization_method sublimation
loop_
_atom_site_label
_atom_site_type_symbol
_atom_site_fract_x
_atom_site_fract_y
_atom_site_fract_z
I1 I 0.26639(7) 0.61557(3) 0.94292(3)
F1 F 0.4523(9) 0.5286(4) 1.1056(3)
F2 F 0.2851(8) 0.4486(3) 1.0049(5)
C1 C 0.4072(11) 0.5124(4) 1.0154(5)
C1B C 0.5928(11) 0.4876(4) 0.9846(5)
I1B I 0.73361(7) 0.38443(3) 1.05708(3)
F1B F 0.5477(9) 0.4714(4) 0.8944(3)
F2B F 0.7149(8) 0.5514(3) 0.9951(5)
I2 I 0.64548(7) 0.36488(3) 0.56299(3)
F3 F 0.4525(12) 0.4463(4) 0.3979(4)
F4 F 0.2812(8) 0.4511(4) 0.5020(5)
C2 C 0.4643(12) 0.4573(5) 0.4873(6)
C2B C 0.5357(12) 0.5427(5) 0.5127(6)
I2B I 0.35452(7) 0.63512(3) 0.43701(3)
F3B F 0.5475(12) 0.5537(4) 0.6021(4)
F4B F 0.7188(8) 0.5489(4) 0.4980(5)
P1 P 0.0438(2) 0.27607(11) 0.74432(13)
O1 O -0.0989(7) 0.2488(3) 0.6619(4)
N1 N 0.0619(11) 0.3735(4) 0.7667(5)
N2 N 0.2651(9) 0.2509(4) 0.7330(5)
N3 N -0.0184(10) 0.2381(4) 0.8372(5)
C3 C -0.0978(14) 0.1543(6) 0.8283(6)
C4 C 0.2946(14) 0.1844(6) 0.6728(7)
C5 C -0.0836(13) 0.4165(5) 0.8082(6)
C6 C 0.4398(13) 0.2733(7) 0.8002(7)
C7 C 0.1603(14) 0.4279(5) 0.7118(7)
C8 C 0.1008(14) 0.2540(6) 0.9286(6)
loop_
_geom_bond_atom_site_label_1
_geom_bond_atom_site_label_2
_geom_bond_site_symmetry_1
_geom_bond_site_symmetry_2
I1 C1 1_555 1_555
F1 C1 1_555 1_555
F2 C1 1_555 1_555
C1 C1B 1_555 1_555
I2 C2 1_555 1_555
F3 C2 1_555 1_555
F4 C2 1_555 1_555
C2 C2B 1_555 1_555
P1 O1 1_555 1_555
N1 P1 1_555 1_555
N2 P1 1_555 1_555
N3 P1 1_555 1_555
C3 N3 1_555 1_555
C4 N2 1_555 1_555
C5 N1 1_555 1_555
C6 N2 1_555 1_555
C7 N1 1_555 1_555
C8 N3 1_555 1_555
C1B I1B 1_555 1_555
F1B C1B 1_555 1_555
F2B C1B 1_555 1_555
C2B I2B 1_555 1_555
F3B C2B 1_555 1_555
F4B C2B 1_555 1_555

#END
