
#######################################################################
#
#                 Cambridge Crystallographic Data Centre
#                                CCDC 
#
#######################################################################
#
# If this CIF has been generated from an entry in the Cambridge 
# Structural Database, then it will include bibliographic, chemical, 
# crystal, experimental, refinement or atomic coordinate data resulting 
# from the CCDC's data processing and validation procedures.
#
#######################################################################

data_ULOKAH
_chemical_formula_moiety         'C2 F4 I2,C6 H14 N2'
_chemical_name_systematic        
'1,2-Di-iodo-1,1,2,2-tetrafluoroethane 1,4-dimethylpiperazine'
_symmetry_cell_setting           monoclinic
_symmetry_space_group_name_H-M   'C 2/c'
_symmetry_Int_Tables_number      15
_space_group_name_Hall           '-C 2yn'
loop_
_symmetry_equiv_pos_site_id
_symmetry_equiv_pos_as_xyz
1 x,y,z
2 1/2+x,1/2+y,z
3 x,-y,1/2+z
4 1/2+x,1/2-y,1/2+z
5 -x,-y,-z
6 1/2-x,1/2-y,-z
7 -x,y,1/2-z
8 1/2-x,1/2+y,1/2-z
_cell_length_a                   15.8483(3)
_cell_length_b                   10.4899(3)
_cell_length_c                   10.7354(3)
_cell_angle_alpha                90
_cell_angle_beta                 128.4878(13)
_cell_angle_gamma                90
_cell_volume                     1396.98
_exptl_crystal_colour            colorless
_exptl_crystal_description       column
_chemical_melting_point          '400 K'
_cell_formula_units_Z            4
_exptl_crystal_recrystallization_method sublimation
loop_
_atom_site_label
_atom_site_type_symbol
_atom_site_fract_x
_atom_site_fract_y
_atom_site_fract_z
N1 N 0.2817(2) 0.6700(2) 0.1324(4)
C1 C 0.3587(3) 0.5866(4) 0.2663(4)
H1 H 0.4240 0.5820 0.2785
H2 H 0.3283 0.5029 0.2464
H3 H 0.3743 0.6202 0.3618
C2 C 0.3261(3) 0.7983(3) 0.1559(4)
H4 H 0.3924 0.7930 0.1690
H5 H 0.3432 0.8349 0.2522
C3 C 0.2526(3) 0.6169(3) -0.0169(4)
H6 H 0.3172 0.6074 -0.0078
H7 H 0.2210 0.5331 -0.0348
C3E C 0.2474(3) 0.8831(3) 0.0169(4)
N1E N 0.2183(2) 0.8300(2) -0.1324(4)
C1E C 0.1413(3) 0.9134(4) -0.2663(4)
H1E H 0.0760 0.9180 -0.2785
H2E H 0.1717 0.9971 -0.2464
H3E H 0.1257 0.8798 -0.3618
C2E C 0.1739(3) 0.7017(3) -0.1559(4)
H4E H 0.1076 0.7070 -0.1690
H5E H 0.1568 0.6651 -0.2522
H6E H 0.1828 0.8926 0.0078
H7E H 0.2790 0.9669 0.0348
I1 I 0.112277(17) 0.67785(2) 0.15128(3)
C4 C -0.0065(6) 0.6399(8) 0.1818(8)
F1 F -0.1077(2) 0.6776(2) 0.0471(3)
C5 C -0.0128(7) 0.7180(9) 0.1825(10)
F2 F 0.0000 0.5173(3) 0.2500
F3 F 0.0000 0.8430(4) 0.2500
C4F C 0.0065(6) 0.6399(8) 0.3182(8)
I1F I -0.112277(17) 0.67785(2) 0.34872(3)
C5F C 0.0128(7) 0.7180(9) 0.3175(10)
F1F F 0.1077(2) 0.6776(2) 0.4529(3)
loop_
_geom_bond_atom_site_label_1
_geom_bond_atom_site_label_2
_geom_bond_site_symmetry_1
_geom_bond_site_symmetry_2
I1 C4 1_555 1_555
N1 C1 1_555 1_555
C1 H1 1_555 1_555
H2 C1 1_555 1_555
H3 C1 1_555 1_555
C2 N1 1_555 1_555
H4 C2 1_555 1_555
H5 C2 1_555 1_555
C3 N1 1_555 1_555
H6 C3 1_555 1_555
H7 C3 1_555 1_555
C4 F1 1_555 1_555
F1 C5 1_555 1_555
C5 I1 1_555 1_555
F2 C4 1_555 1_555
F3 C5 1_555 1_555
C4F C4 1_555 1_555
I1F C4F 1_555 1_555
C5F C4 1_555 1_555
F1F C4F 1_555 1_555
C3E C2 1_555 1_555
N1E C3E 1_555 1_555
C1E N1E 1_555 1_555
H1E C1E 1_555 1_555
H2E C1E 1_555 1_555
H3E C1E 1_555 1_555
C2E C3 1_555 1_555
H4E C2E 1_555 1_555
H5E C2E 1_555 1_555
H6E C3E 1_555 1_555
H7E C3E 1_555 1_555
C4 C5 1_555 1_555
C5 C4F 1_555 1_555
C5 C5F 1_555 1_555
F2 C4F 1_555 1_555
F3 C5F 1_555 1_555
C4F C5F 1_555 1_555
I1F C5F 1_555 1_555
C5F F1F 1_555 1_555
N1E C2E 1_555 1_555

#END
