
#######################################################################
#
#                 Cambridge Crystallographic Data Centre
#                                CCDC 
#
#######################################################################
#
# If this CIF has been generated from an entry in the Cambridge 
# Structural Database, then it will include bibliographic, chemical, 
# crystal, experimental, refinement or atomic coordinate data resulting 
# from the CCDC's data processing and validation procedures.
#
#######################################################################

data_ULUBAF
_chemical_formula_moiety         'C33 H31 N1 O5 S1'
_chemical_name_systematic        
'Ethyl 3-ethyl-1-((4-methylphenyl)sulfonyl)-6-(2-naphthyl)-2-oxo-3-phenyl-1,2,3,4-tetrahydropyridine-4-carboxylate'
_symmetry_cell_setting           monoclinic
_symmetry_space_group_name_H-M   'P 21/c'
_symmetry_Int_Tables_number      14
_space_group_name_Hall           '-P 2ybc'
loop_
_symmetry_equiv_pos_site_id
_symmetry_equiv_pos_as_xyz
1 x,y,z
2 -x,1/2+y,1/2-z
3 -x,-y,-z
4 x,1/2-y,1/2+z
_cell_length_a                   9.047(2)
_cell_length_b                   23.865(6)
_cell_length_c                   12.926(3)
_cell_angle_alpha                90
_cell_angle_beta                 100.916(4)
_cell_angle_gamma                90
_cell_volume                     2740.31
_exptl_crystal_colour            colorless
_exptl_crystal_description       platelet
_chemical_melting_point          '61-63 deg.C'
_cell_formula_units_Z            4
loop_
_atom_site_label
_atom_site_type_symbol
_atom_site_fract_x
_atom_site_fract_y
_atom_site_fract_z
S1 S 0.41457(9) 0.62224(4) 0.40003(7)
O1 O 0.1849(3) 0.69700(10) 0.45705(18)
O2 O 0.4538(3) 0.77181(13) 0.3804(2)
O3 O 0.4692(3) 0.82133(11) 0.2382(2)
O4 O 0.4959(3) 0.59689(11) 0.32826(19)
O5 O 0.4890(3) 0.65835(10) 0.47987(19)
N1 N 0.2761(3) 0.65998(11) 0.31951(19)
C1 C 0.2825(3) 0.66349(14) 0.2089(2)
C2 C 0.2009(4) 0.70147(13) 0.3667(2)
C3 C 0.1394(4) 0.75163(13) 0.2965(2)
C4 C 0.2551(4) 0.76545(13) 0.2277(2)
H1 H 0.2130 0.7957 0.1771
C5 C 0.2786(3) 0.71384(14) 0.1654(2)
H2 H 0.2908 0.7175 0.0943
C6 C 0.2662(11) 0.6093(3) 0.1520(6)
C7 C 0.3330(7) 0.6012(2) 0.0667(4)
H3 H 0.3955 0.6298 0.0472
C8 C 0.3111(6) 0.5510(2) 0.0065(4)
C9 C 0.3782(6) 0.5421(2) -0.0819(4)
H4 H 0.4368 0.5709 -0.1050
C10 C 0.3596(7) 0.4921(2) -0.1349(4)
H5 H 0.4051 0.4865 -0.1946
C11 C 0.2741(7) 0.4492(3) -0.1017(4)
H6 H 0.2637 0.4145 -0.1382
C12 C 0.2058(6) 0.4569(2) -0.0177(4)
H7 H 0.1463 0.4277 0.0032
C13 C 0.2225(6) 0.5081(2) 0.0390(4)
C14 C 0.1527(5) 0.51797(19) 0.1256(4)
H8 H 0.0903 0.4897 0.1462
C15 C 0.1717(6) 0.5667(2) 0.1806(4)
H9 H 0.1220 0.5723 0.2382
C16 C 0.1150(5) 0.80101(14) 0.3681(3)
H10 H 0.0347 0.7908 0.4072
H11 H 0.2087 0.8071 0.4205
C17 C 0.0715(5) 0.85589(15) 0.3092(3)
H12 H 0.0483 0.8842 0.3587
H13 H -0.0171 0.8497 0.2538
H14 H 0.1555 0.8689 0.2775
C18 C -0.0149(4) 0.73562(13) 0.2295(2)
C19 C -0.1195(4) 0.70764(14) 0.2763(3)
H15 H -0.0908 0.6947 0.3468
C20 C -0.2652(4) 0.69824(15) 0.2225(3)
H16 H -0.3348 0.6787 0.2559
C21 C -0.3090(4) 0.71711(16) 0.1209(3)
H17 H -0.4095 0.7116 0.0845
C22 C -0.2066(4) 0.74390(17) 0.0725(3)
H18 H -0.2360 0.7563 0.0017
C23 C -0.0607(4) 0.75304(15) 0.1258(3)
H19 H 0.0091 0.7715 0.0909
C24 C 0.4032(4) 0.78568(14) 0.2921(3)
C25 C 0.6167(5) 0.84186(18) 0.2906(4)
H20 H 0.6154 0.8513 0.3650
H21 H 0.6947 0.8130 0.2889
C26 C 0.6478(6) 0.8912(2) 0.2338(4)
H22 H 0.7451 0.9070 0.2674
H23 H 0.5684 0.9190 0.2345
H24 H 0.6512 0.8810 0.1608
C27 C 0.3225(4) 0.56954(13) 0.4590(3)
C28 C 0.3074(4) 0.51676(14) 0.4148(3)
H25 H 0.3414 0.5092 0.3510
C29 C 0.2415(5) 0.47483(15) 0.4654(3)
H26 H 0.2300 0.4384 0.4353
C30 C 0.1925(4) 0.48493(15) 0.5581(3)
C31 C 0.2116(4) 0.53766(16) 0.6012(3)
H27 H 0.1796 0.5450 0.6658
C32 C 0.2762(4) 0.58010(15) 0.5527(3)
H28 H 0.2887 0.6163 0.5836
C33 C 0.1237(4) 0.43799(17) 0.6116(4)
H29 H 0.0768 0.4534 0.6677
H30 H 0.2025 0.4113 0.6418
H31 H 0.0473 0.4188 0.5598
C34? C 0.129(2) 0.4268(6) 0.0237(14)
C35? C 0.204(2) 0.4304(7) -0.0614(15)
C36? C 0.281(2) 0.4781(7) -0.0757(14)
C37? C 0.283(2) 0.5246(6) -0.0070(14)
C38? C 0.363(2) 0.5738(6) -0.0182(14)
C39? C 0.368(3) 0.6173(8) 0.0496(18)
C40? C 0.284(5) 0.6157(10) 0.132(3)
C41? C 0.201(2) 0.5690(7) 0.1419(13)
C42? C 0.199(2) 0.5218(6) 0.0746(14)
C43? C 0.1223(19) 0.4720(5) 0.0878(12)
H32? H 0.0829 0.3925 0.0371
H33? H 0.2019 0.3999 -0.1089
H34? H 0.3336 0.4802 -0.1324
H35? H 0.4156 0.5766 -0.0751
H36? H 0.4288 0.6491 0.0422
H37? H 0.1421 0.5681 0.1955
H38? H 0.0647 0.4696 0.1419
loop_
_geom_bond_atom_site_label_1
_geom_bond_atom_site_label_2
_geom_bond_site_symmetry_1
_geom_bond_site_symmetry_2
S1 O4 1_555 1_555
O1 C2 1_555 1_555
O2 C24 1_555 1_555
O3 C24 1_555 1_555
O5 S1 1_555 1_555
N1 S1 1_555 1_555
C1 N1 1_555 1_555
C2 N1 1_555 1_555
C3 C2 1_555 1_555
C4 C3 1_555 1_555
H1 C4 1_555 1_555
C5 C1 1_555 1_555
H2 C5 1_555 1_555
C6 C1 1_555 1_555
C7 C6 1_555 1_555
H3 C7 1_555 1_555
C8 C7 1_555 1_555
C9 C8 1_555 1_555
H4 C9 1_555 1_555
C10 C9 1_555 1_555
H5 C10 1_555 1_555
C11 C10 1_555 1_555
H6 C11 1_555 1_555
C12 C11 1_555 1_555
H7 C12 1_555 1_555
C13 C8 1_555 1_555
C14 C13 1_555 1_555
H8 C14 1_555 1_555
C15 C6 1_555 1_555
H9 C15 1_555 1_555
C16 C3 1_555 1_555
H10 C16 1_555 1_555
H11 C16 1_555 1_555
C17 C16 1_555 1_555
H12 C17 1_555 1_555
H13 C17 1_555 1_555
H14 C17 1_555 1_555
C18 C3 1_555 1_555
C19 C18 1_555 1_555
H15 C19 1_555 1_555
C20 C19 1_555 1_555
H16 C20 1_555 1_555
C21 C20 1_555 1_555
H17 C21 1_555 1_555
C22 C21 1_555 1_555
H18 C22 1_555 1_555
C23 C18 1_555 1_555
H19 C23 1_555 1_555
C24 C4 1_555 1_555
C25 O3 1_555 1_555
H20 C25 1_555 1_555
H21 C25 1_555 1_555
C26 C25 1_555 1_555
H22 C26 1_555 1_555
H23 C26 1_555 1_555
H24 C26 1_555 1_555
C27 S1 1_555 1_555
C28 C27 1_555 1_555
H25 C28 1_555 1_555
C29 C28 1_555 1_555
H26 C29 1_555 1_555
C30 C29 1_555 1_555
C31 C30 1_555 1_555
H27 C31 1_555 1_555
C32 C27 1_555 1_555
H28 C32 1_555 1_555
C33 C30 1_555 1_555
H29 C33 1_555 1_555
H30 C33 1_555 1_555
H31 C33 1_555 1_555
C4 C5 1_555 1_555
C12 C13 1_555 1_555
C14 C15 1_555 1_555
C22 C23 1_555 1_555
C31 C32 1_555 1_555

#END
