
#######################################################################
#
#                 Cambridge Crystallographic Data Centre
#                                CCDC 
#
#######################################################################
#
# If this CIF has been generated from an entry in the Cambridge 
# Structural Database, then it will include bibliographic, chemical, 
# crystal, experimental, refinement or atomic coordinate data resulting 
# from the CCDC's data processing and validation procedures.
#
#######################################################################

data_UMEMAC
_chemical_formula_moiety         'C36 H56 N2 O4 S2'
_chemical_name_systematic        
(Z,Z)-bis(1-(2,3-Dihydrothieno[3,4-b][1,4]dioxin-5-yl)dodecylidene)hydrazine
_symmetry_cell_setting           monoclinic
_symmetry_space_group_name_H-M   'P 21/c'
_symmetry_Int_Tables_number      14
_space_group_name_Hall           '-P 2ybc'
loop_
_symmetry_equiv_pos_site_id
_symmetry_equiv_pos_as_xyz
1 x,y,z
2 -x,1/2+y,1/2-z
3 -x,-y,-z
4 x,1/2-y,1/2+z
_cell_length_a                   25.7143(12)
_cell_length_b                   7.7086(3)
_cell_length_c                   18.8672(8)
_cell_angle_alpha                90
_cell_angle_beta                 107.4390(10)
_cell_angle_gamma                90
_cell_volume                     3567.98
_exptl_crystal_colour            yellow
_exptl_crystal_description       plate
_cell_formula_units_Z            4
loop_
_atom_site_label
_atom_site_type_symbol
_atom_site_fract_x
_atom_site_fract_y
_atom_site_fract_z
S1 S 0.08804(8) 0.0753(3) -0.44361(10)
C1 C 0.0734(3) -0.0832(11) -0.5091(4)
H1 H 0.0434 -0.0784 -0.5531
C2 C 0.1088(3) -0.2164(10) -0.4922(3)
O1 O 0.1071(2) -0.3597(7) -0.5355(3)
C3 C 0.1507(4) -0.4685(16) -0.5093(7)
H2 H 0.1361 -0.5882 -0.5153
H3 H 0.1732 -0.4571 -0.5433
C4 C 0.1852(5) -0.4574(11) -0.4395(4)
H4 H 0.2220 -0.4837 -0.4429
H5 H 0.1755 -0.5532 -0.4109
O2 O 0.19025(18) -0.3080(5) -0.3956(2)
C5 C 0.1494(2) -0.1907(8) -0.4230(3)
C6 C 0.1445(2) -0.0382(8) -0.3880(3)
C7 C 0.1782(3) 0.0234(8) -0.3159(3)
C8 C 0.2249(3) -0.0906(9) -0.2704(3)
H6 H 0.2123 -0.2126 -0.2747
H7 H 0.2553 -0.0831 -0.2924
C9 C 0.2464(3) -0.0448(10) -0.1891(4)
H8 H 0.2162 -0.0542 -0.1670
H9 H 0.2584 0.0778 -0.1849
C10 C 0.2935(3) -0.1555(10) -0.1438(4)
H10 H 0.2822 -0.2788 -0.1492
H11 H 0.3245 -0.1423 -0.1641
C11 C 0.3119(3) -0.1112(11) -0.0639(4)
H12 H 0.2799 -0.1200 -0.0452
H13 H 0.3232 0.0122 -0.0597
C12 C 0.3577(3) -0.2143(12) -0.0118(4)
H14 H 0.3485 -0.3390 -0.0194
H15 H 0.3911 -0.1945 -0.0263
C13 C 0.3699(3) -0.1764(11) 0.0671(4)
H16 H 0.3359 -0.1944 0.0806
H17 H 0.3788 -0.0513 0.0738
C14 C 0.4140(3) -0.2726(12) 0.1220(4)
H18 H 0.4486 -0.2496 0.1110
H19 H 0.4063 -0.3983 0.1145
C15 C 0.4222(4) -0.2321(13) 0.2019(4)
H20 H 0.4300 -0.1064 0.2088
H21 H 0.3870 -0.2524 0.2119
C16 C 0.4647(5) -0.3245(14) 0.2601(5)
H22 H 0.5005 -0.2988 0.2528
H23 H 0.4583 -0.4508 0.2526
C17 C 0.4684(7) -0.2826(18) 0.3397(6)
H24 H 0.4817 -0.1617 0.3489
H25 H 0.4307 -0.2831 0.3429
C18 C 0.4976(9) -0.375(2) 0.3947(9)
H26 H 0.4936 -0.3309 0.4414
H27 H 0.5360 -0.3692 0.3963
H28 H 0.4854 -0.4964 0.3880
S2 S 0.03508(7) 0.4626(2) -0.39556(9)
C19 C -0.0024(3) 0.6459(9) -0.3978(3)
H29 H -0.0361 0.6685 -0.4345
C20 C 0.0212(3) 0.7551(8) -0.3417(3)
O3 O -0.00137(17) 0.9081(6) -0.3282(2)
C21 C 0.0383(3) 1.0174(9) -0.2791(3)
H30 H 0.0196 1.1141 -0.2623
H31 H 0.0623 1.0676 -0.3063
C22 C 0.0719(3) 0.9208(8) -0.2137(3)
H32 H 0.0975 1.0019 -0.1799
H33 H 0.0479 0.8708 -0.1866
O4 O 0.10238(17) 0.7835(5) -0.2348(2)
C23 C 0.0723(2) 0.6915(8) -0.2944(3)
C24 C 0.0854(2) 0.5346(8) -0.3162(3)
C25 C 0.1318(3) 0.4213(9) -0.2840(4)
C26 C 0.1723(3) 0.4704(9) -0.2119(4)
H34 H 0.1754 0.5984 -0.2089
H35 H 0.2084 0.4232 -0.2102
C27 C 0.1569(4) 0.4044(11) -0.1461(4)
H36 H 0.1190 0.4419 -0.1519
H37 H 0.1567 0.2761 -0.1482
C28 C 0.1909(6) 0.4567(13) -0.0708(5)
H38 H 0.2013 0.5796 -0.0737
H39 H 0.1675 0.4527 -0.0378
C29 C 0.2370(4) 0.3680(14) -0.0368(7)
H40 H 0.2609 0.3822 -0.0689
H41 H 0.2263 0.2442 -0.0403
C30 C 0.2735(4) 0.3929(13) 0.0416(6)
H42 H 0.3022 0.4730 0.0361
H43 H 0.2511 0.4621 0.0657
C31 C 0.2993(7) 0.2869(17) 0.0924(9)
H44 H 0.3184 0.2084 0.0669
H45 H 0.2702 0.2159 0.1025
C32 C 0.3388(5) 0.3146(15) 0.1661(7)
H46 H 0.3759 0.2930 0.1624
H47 H 0.3371 0.4379 0.1799
C33 C 0.3310(6) 0.2061(18) 0.2260(9)
H48 H 0.3307 0.0824 0.2118
H49 H 0.2953 0.2333 0.2332
C34 C 0.3754(6) 0.2357(17) 0.2975(8)
H50 H 0.4106 0.2107 0.2881
H51 H 0.3754 0.3608 0.3094
C35 C 0.3746(8) 0.138(3) 0.3649(11)
H52 H 0.3407 0.1692 0.3763
H53 H 0.3721 0.0129 0.3521
C36 C 0.4168(8) 0.157(2) 0.4286(10)
H54 H 0.4102 0.0858 0.4680
H55 H 0.4196 0.2795 0.4438
H56 H 0.4509 0.1212 0.4198
N1 N 0.1328(2) 0.2756(8) -0.3206(3)
N2 N 0.1756(2) 0.1687(8) -0.2820(3)
loop_
_geom_bond_atom_site_label_1
_geom_bond_atom_site_label_2
_geom_bond_site_symmetry_1
_geom_bond_site_symmetry_2
S1 C1 1_555 1_555
C1 H1 1_555 1_555
C2 C1 1_555 1_555
O1 C2 1_555 1_555
C3 O1 1_555 1_555
H2 C3 1_555 1_555
H3 C3 1_555 1_555
C4 C3 1_555 1_555
H4 C4 1_555 1_555
H5 C4 1_555 1_555
O2 C4 1_555 1_555
C5 C2 1_555 1_555
C6 S1 1_555 1_555
C7 C6 1_555 1_555
C8 C7 1_555 1_555
H6 C8 1_555 1_555
H7 C8 1_555 1_555
C9 C8 1_555 1_555
H8 C9 1_555 1_555
H9 C9 1_555 1_555
C10 C9 1_555 1_555
H10 C10 1_555 1_555
H11 C10 1_555 1_555
C11 C10 1_555 1_555
H12 C11 1_555 1_555
H13 C11 1_555 1_555
C12 C11 1_555 1_555
H14 C12 1_555 1_555
H15 C12 1_555 1_555
C13 C12 1_555 1_555
H16 C13 1_555 1_555
H17 C13 1_555 1_555
C14 C13 1_555 1_555
H18 C14 1_555 1_555
H19 C14 1_555 1_555
C15 C14 1_555 1_555
H20 C15 1_555 1_555
H21 C15 1_555 1_555
C16 C15 1_555 1_555
H22 C16 1_555 1_555
H23 C16 1_555 1_555
C17 C16 1_555 1_555
H24 C17 1_555 1_555
H25 C17 1_555 1_555
C18 C17 1_555 1_555
H26 C18 1_555 1_555
H27 C18 1_555 1_555
H28 C18 1_555 1_555
S2 C19 1_555 1_555
C19 H29 1_555 1_555
C20 C19 1_555 1_555
O3 C20 1_555 1_555
C21 O3 1_555 1_555
H30 C21 1_555 1_555
H31 C21 1_555 1_555
C22 C21 1_555 1_555
H32 C22 1_555 1_555
H33 C22 1_555 1_555
O4 C22 1_555 1_555
C23 C20 1_555 1_555
C24 S2 1_555 1_555
C25 C24 1_555 1_555
C26 C25 1_555 1_555
H34 C26 1_555 1_555
H35 C26 1_555 1_555
C27 C26 1_555 1_555
H36 C27 1_555 1_555
H37 C27 1_555 1_555
C28 C27 1_555 1_555
H38 C28 1_555 1_555
H39 C28 1_555 1_555
C29 C28 1_555 1_555
H40 C29 1_555 1_555
H41 C29 1_555 1_555
C30 C29 1_555 1_555
H42 C30 1_555 1_555
H43 C30 1_555 1_555
C31 C30 1_555 1_555
H44 C31 1_555 1_555
H45 C31 1_555 1_555
C32 C31 1_555 1_555
H46 C32 1_555 1_555
H47 C32 1_555 1_555
C33 C32 1_555 1_555
H48 C33 1_555 1_555
H49 C33 1_555 1_555
C34 C33 1_555 1_555
H50 C34 1_555 1_555
H51 C34 1_555 1_555
C35 C34 1_555 1_555
H52 C35 1_555 1_555
H53 C35 1_555 1_555
C36 C35 1_555 1_555
H54 C36 1_555 1_555
H55 C36 1_555 1_555
H56 C36 1_555 1_555
N1 C25 1_555 1_555
N2 C7 1_555 1_555
O2 C5 1_555 1_555
C5 C6 1_555 1_555
O4 C23 1_555 1_555
C23 C24 1_555 1_555
N1 N2 1_555 1_555

#END
