
#######################################################################
#
#                 Cambridge Crystallographic Data Centre
#                                CCDC 
#
#######################################################################
#
# If this CIF has been generated from an entry in the Cambridge 
# Structural Database, then it will include bibliographic, chemical, 
# crystal, experimental, refinement or atomic coordinate data resulting 
# from the CCDC's data processing and validation procedures.
#
#######################################################################

data_UMEROT
_chemical_formula_moiety         'C11 H14 Cl2 N4'
_chemical_name_systematic        
1,6-Dichloro-4,9-dimethyl-2,3,7,8-tetra-azatetracyclo(7.3.1.0^4,12^.0^6,10^)trideca-2,7-diene
_symmetry_cell_setting           monoclinic
_symmetry_space_group_name_H-M   'C 2/c'
_symmetry_Int_Tables_number      15
_space_group_name_Hall           '-C 2yn'
loop_
_symmetry_equiv_pos_site_id
_symmetry_equiv_pos_as_xyz
1 x,y,z
2 1/2+x,1/2+y,z
3 x,-y,1/2+z
4 1/2+x,1/2-y,1/2+z
5 -x,-y,-z
6 1/2-x,1/2-y,-z
7 -x,y,1/2-z
8 1/2-x,1/2+y,1/2-z
_cell_length_a                   14.8704(7)
_cell_length_b                   6.2544(3)
_cell_length_c                   13.6050(6)
_cell_angle_alpha                90
_cell_angle_beta                 91.327(3)
_cell_angle_gamma                90
_cell_volume                     1265
_exptl_crystal_colour            white
_cell_formula_units_Z            4
loop_
_atom_site_label
_atom_site_type_symbol
_atom_site_fract_x
_atom_site_fract_y
_atom_site_fract_z
C1 C -0.03588(13) 0.2263(3) 0.60496(15)
C2 C 0.06061(12) 0.2259(2) 0.64288(14)
C3 C 0.08082(11) 0.3791(2) 0.72813(13)
C4 C -0.10554(12) 0.2278(2) 0.68604(15)
C5 C -0.19926(15) 0.2650(5) 0.6405(2)
C6 C 0.0000 0.5190(3) 0.7500
Cl1 Cl 0.13390(4) 0.26656(9) 0.54104(4)
N1 N -0.10797(9) 0.0079(2) 0.73184(12)
N2 N 0.08613(9) 0.00649(19) 0.68031(12)
H1 H -0.0441(17) 0.357(4) 0.5629(17)
H2 H -0.0480(17) 0.095(5) 0.5570(18)
H3 H 0.1264(14) 0.469(3) 0.7135(14)
H4 H -0.239(2) 0.257(3) 0.693(2)
H5 H -0.198(2) 0.410(6) 0.612(2)
H6 H -0.219(3) 0.151(6) 0.590(3)
H7 H -0.0173(14) 0.606(4) 0.6887(14)
C4F C 0.10554(12) 0.2278(2) 0.81396(15)
C1F C 0.03588(13) 0.2263(3) 0.89504(15)
C2F C -0.06061(12) 0.2259(2) 0.85712(14)
C3F C -0.08082(11) 0.3791(2) 0.77187(13)
N2F N -0.08613(9) 0.00649(19) 0.81969(12)
Cl1F Cl -0.13390(4) 0.26656(9) 0.95896(4)
H7F H 0.0173(14) 0.606(4) 0.8113(14)
H3F H -0.1264(14) 0.469(3) 0.7865(14)
H1F H 0.0441(17) 0.357(4) 0.9371(17)
H2F H 0.0480(17) 0.095(5) 0.9430(18)
C5F C 0.19926(15) 0.2650(5) 0.8595(2)
H4F H 0.239(2) 0.257(3) 0.807(2)
H5F H 0.198(2) 0.410(6) 0.888(2)
H6F H 0.219(3) 0.151(6) 0.910(3)
N1F N 0.10797(9) 0.0079(2) 0.76816(12)
loop_
_geom_bond_atom_site_label_1
_geom_bond_atom_site_label_2
_geom_bond_site_symmetry_1
_geom_bond_site_symmetry_2
C1 C2 1_555 1_555
C2 C3 1_555 1_555
C3 C6 1_555 1_555
C4 C1 1_555 1_555
C5 C4 1_555 1_555
C6 H7 1_555 1_555
Cl1 C2 1_555 1_555
N1 C4 1_555 1_555
N2 C2 1_555 1_555
H1 C1 1_555 1_555
H2 C1 1_555 1_555
H3 C3 1_555 1_555
H4 C5 1_555 1_555
H5 C5 1_555 1_555
H6 C5 1_555 1_555
C4F C3 1_555 1_555
C1F C4F 1_555 1_555
C2F C1F 1_555 1_555
C3F C4 1_555 1_555
N2F N1 1_555 1_555
Cl1F C2F 1_555 1_555
H7F C6 1_555 1_555
H3F C3F 1_555 1_555
H1F C1F 1_555 1_555
H2F C1F 1_555 1_555
C5F C4F 1_555 1_555
H4F C5F 1_555 1_555
H5F C5F 1_555 1_555
H6F C5F 1_555 1_555
N1F N2 1_555 1_555
C6 C3F 1_555 1_555
C4F N1F 1_555 1_555
C2F C3F 1_555 1_555
C2F N2F 1_555 1_555

#END
