
#######################################################################
#
#                 Cambridge Crystallographic Data Centre
#                                CCDC 
#
#######################################################################
#
# If this CIF has been generated from an entry in the Cambridge 
# Structural Database, then it will include bibliographic, chemical, 
# crystal, experimental, refinement or atomic coordinate data resulting 
# from the CCDC's data processing and validation procedures.
#
#######################################################################

data_UMIMOS
_chemical_formula_moiety         'C10 H8 N4,C10 H18 O4'
_chemical_name_systematic        'Azopyridine sebacic acid'
_symmetry_cell_setting           triclinic
_symmetry_space_group_name_H-M   'P -1'
_symmetry_Int_Tables_number      2
_space_group_name_Hall           '-P 1'
loop_
_symmetry_equiv_pos_site_id
_symmetry_equiv_pos_as_xyz
1 x,y,z
2 -x,-y,-z
_cell_length_a                   5.7489(9)
_cell_length_b                   6.8495(6)
_cell_length_c                   13.441(2)
_cell_angle_alpha                93.007(9)
_cell_angle_beta                 90.337(7)
_cell_angle_gamma                106.569(11)
_cell_volume                     506.472
_exptl_crystal_colour            yellow
_exptl_crystal_description       block
_cell_formula_units_Z            1
loop_
_atom_site_label
_atom_site_type_symbol
_atom_site_fract_x
_atom_site_fract_y
_atom_site_fract_z
C1 C 0.0288(4) 0.1986(3) -0.70634(17)
C2 C -0.1705(4) 0.0862(3) -0.64101(17)
H1 H -0.1560 0.1622 -0.5772
H2 H -0.3251 0.0835 -0.6712
C3 C -0.1737(4) -0.1312(3) -0.62248(17)
H3 H -0.0211 -0.1305 -0.5910
H4 H -0.1892 -0.2093 -0.6857
C4 C -0.3824(4) -0.2338(3) -0.55611(18)
H5 H -0.3658 -0.1541 -0.4933
H6 H -0.5338 -0.2320 -0.5877
C5 C -0.3976(5) -0.4522(3) -0.53460(18)
H7 H -0.4207 -0.5338 -0.5970
H8 H -0.2448 -0.4554 -0.5048
O1 O 0.1858(4) 0.1316(3) -0.74075(15)
O2 O 0.0182(3) 0.3845(3) -0.72026(15)
H9 H 0.1300 0.4418 -0.7556
C5A C -0.6024(5) -0.5478(3) -0.46540(18)
C4A C -0.6176(4) -0.7662(3) -0.44389(18)
C3A C -0.8263(4) -0.8688(3) -0.37752(17)
C2A C -0.8295(4) -1.0862(3) -0.35899(17)
C1A C -1.0288(4) -1.1986(3) -0.29366(17)
O1A O -1.1858(4) -1.1316(3) -0.25925(15)
O2A O -1.0182(3) -1.3845(3) -0.27974(15)
H9A H -1.1300 -1.4418 -0.2444
H1A H -0.8440 -1.1622 -0.4228
H2A H -0.6749 -1.0835 -0.3288
H3A H -0.9789 -0.8695 -0.4090
H4A H -0.8108 -0.7907 -0.3143
H5A H -0.6342 -0.8459 -0.5067
H6A H -0.4662 -0.7680 -0.4123
H7A H -0.5793 -0.4662 -0.4030
H8A H -0.7552 -0.5446 -0.4952
N1 N 0.0039(4) 0.0881(3) -0.00986(14)
N2 N 0.6033(4) 0.3998(3) -0.17562(14)
C6 C 0.2110(4) 0.1846(4) -0.06834(16)
C7 C 0.3821(4) 0.0916(4) -0.10364(17)
H10 H 0.3671 -0.0440 -0.0920
C8 C 0.5757(4) 0.2051(4) -0.15669(17)
H11 H 0.6908 0.1431 -0.1800
C9 C 0.4343(5) 0.4861(4) -0.14305(18)
H12 H 0.4509 0.6208 -0.1571
C10 C 0.2359(5) 0.3845(4) -0.08940(18)
H13 H 0.1220 0.4495 -0.0680
N1A N -0.0039(4) -0.0881(3) 0.00986(14)
C6A C -0.2110(4) -0.1846(4) 0.06834(16)
C7A C -0.3821(4) -0.0916(4) 0.10364(17)
H10A H -0.3671 0.0440 0.0920
C8A C -0.5757(4) -0.2051(4) 0.15669(17)
N2A N -0.6033(4) -0.3998(3) 0.17562(14)
C9A C -0.4343(5) -0.4861(4) 0.14305(18)
H12A H -0.4509 -0.6208 0.1571
C10A C -0.2359(5) -0.3845(4) 0.08940(18)
H13A H -0.1220 -0.4495 0.0680
H11A H -0.6908 -0.1431 0.1800
loop_
_geom_bond_atom_site_label_1
_geom_bond_atom_site_label_2
_geom_bond_site_symmetry_1
_geom_bond_site_symmetry_2
C1 C2 1_555 1_555
C2 H1 1_555 1_555
H2 C2 1_555 1_555
C3 C2 1_555 1_555
H3 C3 1_555 1_555
H4 C3 1_555 1_555
C4 C3 1_555 1_555
H5 C4 1_555 1_555
H6 C4 1_555 1_555
C5 C4 1_555 1_555
H7 C5 1_555 1_555
H8 C5 1_555 1_555
O1 C1 1_555 1_555
O2 C1 1_555 1_555
H9 O2 1_555 1_555
N1 C6 1_555 1_555
N2 C8 1_555 1_555
C6 C7 1_555 1_555
C7 H10 1_555 1_555
C8 C7 1_555 1_555
H11 C8 1_555 1_555
C9 N2 1_555 1_555
H12 C9 1_555 1_555
C10 C6 1_555 1_555
H13 C10 1_555 1_555
C5A C5 1_555 1_555
C4A C5A 1_555 1_555
C3A C4A 1_555 1_555
C2A C3A 1_555 1_555
C1A C2A 1_555 1_555
O1A C1A 1_555 1_555
O2A C1A 1_555 1_555
H9A O2A 1_555 1_555
H1A C2A 1_555 1_555
H2A C2A 1_555 1_555
H3A C3A 1_555 1_555
H4A C3A 1_555 1_555
H5A C4A 1_555 1_555
H6A C4A 1_555 1_555
H7A C5A 1_555 1_555
H8A C5A 1_555 1_555
N1A N1 1_555 1_555
C6A N1A 1_555 1_555
C7A C6A 1_555 1_555
H10A C7A 1_555 1_555
C8A C7A 1_555 1_555
N2A C8A 1_555 1_555
C9A N2A 1_555 1_555
H12A C9A 1_555 1_555
C10A C6A 1_555 1_555
H13A C10A 1_555 1_555
H11A C8A 1_555 1_555
C9 C10 1_555 1_555
C9A C10A 1_555 1_555

#END
