
#######################################################################
#
#                 Cambridge Crystallographic Data Centre
#                                CCDC 
#
#######################################################################
#
# If this CIF has been generated from an entry in the Cambridge 
# Structural Database, then it will include bibliographic, chemical, 
# crystal, experimental, refinement or atomic coordinate data resulting 
# from the CCDC's data processing and validation procedures.
#
#######################################################################

data_UMIVIX
_chemical_formula_moiety         'C20 H22 Br1 N2 1+,Cl1 1-'
_chemical_name_systematic        
'5-benzyl-4-(4-bromophenyl)-1-t-butyl-1H-imidazol-3-ium chloride'
_symmetry_cell_setting           monoclinic
_symmetry_space_group_name_H-M   'P 21/c'
_symmetry_Int_Tables_number      14
_space_group_name_Hall           '-P 2ybc'
loop_
_symmetry_equiv_pos_site_id
_symmetry_equiv_pos_as_xyz
1 x,y,z
2 -x,1/2+y,1/2-z
3 -x,-y,-z
4 x,1/2-y,1/2+z
_cell_length_a                   13.8901(13)
_cell_length_b                   9.3222(3)
_cell_length_c                   15.5790(14)
_cell_angle_alpha                90
_cell_angle_beta                 109.618(6)
_cell_angle_gamma                90
_cell_volume                     1900.17
_exptl_crystal_colour            colorless
_exptl_crystal_description       prism
_cell_formula_units_Z            4
loop_
_atom_site_label
_atom_site_type_symbol
_atom_site_fract_x
_atom_site_fract_y
_atom_site_fract_z
Br1 Br 0.368397(17) 0.73041(2) 0.541446(15)
N1 N 0.15335(12) 0.04742(18) 0.44240(12)
H1 H 0.1413(19) 0.072(3) 0.4920(18)
N2 N 0.15623(12) -0.07955(18) 0.32583(11)
C1 C 0.12284(14) -0.0739(2) 0.39715(14)
H2 H 0.0833 -0.1459 0.4128
C2 C 0.21172(13) 0.0474(2) 0.32636(12)
C3 C 0.20928(13) 0.1265(2) 0.40011(12)
C4 C 0.13022(14) -0.2009(2) 0.25647(14)
C5 C 0.07782(16) -0.3222(2) 0.29080(15)
H3 H 0.1228 -0.3545 0.3507
H4 H 0.0638 -0.4025 0.2478
H5 H 0.0135 -0.2870 0.2958
C6 C 0.22846(15) -0.2605(2) 0.24616(15)
H6 H 0.2603 -0.1867 0.2198
H7 H 0.2121 -0.3444 0.2060
H8 H 0.2758 -0.2885 0.3061
C7 C 0.05508(15) -0.1441(2) 0.16632(14)
H9 H -0.0092 -0.1169 0.1750
H10 H 0.0418 -0.2190 0.1197
H11 H 0.0847 -0.0600 0.1467
C8 C 0.26218(14) 0.0869(2) 0.25806(13)
H12 H 0.2549 0.1916 0.2474
H13 H 0.2249 0.0388 0.1997
C9 C 0.37554(14) 0.0482(2) 0.28478(13)
C10 C 0.42717(15) -0.0310(2) 0.36227(15)
H14 H 0.3921 -0.0616 0.4019
C11 C 0.53073(16) -0.0660(2) 0.38231(17)
H15 H 0.5653 -0.1207 0.4351
C12 C 0.58268(17) -0.0207(3) 0.32496(18)
H16 H 0.6524 -0.0454 0.3377
C13 C 0.53176(18) 0.0609(3) 0.24912(17)
H17 H 0.5675 0.0942 0.2107
C14 C 0.42902(16) 0.0948(2) 0.22838(14)
H18 H 0.3950 0.1499 0.1756
C15 C 0.24873(14) 0.2706(2) 0.43272(12)
C16 C 0.33260(14) 0.3306(2) 0.41456(13)
H19 H 0.3660 0.2770 0.3809
C17 C 0.36755(15) 0.4677(2) 0.44520(14)
H20 H 0.4241 0.5076 0.4322
C18 C 0.31910(15) 0.5454(2) 0.49485(13)
C19 C 0.23559(15) 0.4893(2) 0.51361(13)
H21 H 0.2025 0.5438 0.5471
C20 C 0.20105(14) 0.3525(2) 0.48271(12)
H22 H 0.1442 0.3137 0.4956
Cl1 Cl 0.11968(4) 0.11294(5) 0.62197(3)
loop_
_geom_bond_atom_site_label_1
_geom_bond_atom_site_label_2
_geom_bond_site_symmetry_1
_geom_bond_site_symmetry_2
Br1 C18 1_555 1_555
N1 H1 1_555 1_555
N2 C1 1_555 1_555
C1 N1 1_555 1_555
H2 C1 1_555 1_555
C2 N2 1_555 1_555
C3 N1 1_555 1_555
C4 N2 1_555 1_555
C5 C4 1_555 1_555
H3 C5 1_555 1_555
H4 C5 1_555 1_555
H5 C5 1_555 1_555
C6 C4 1_555 1_555
H6 C6 1_555 1_555
H7 C6 1_555 1_555
H8 C6 1_555 1_555
C7 C4 1_555 1_555
H9 C7 1_555 1_555
H10 C7 1_555 1_555
H11 C7 1_555 1_555
C8 C2 1_555 1_555
H12 C8 1_555 1_555
H13 C8 1_555 1_555
C9 C8 1_555 1_555
C10 C9 1_555 1_555
H14 C10 1_555 1_555
C11 C10 1_555 1_555
H15 C11 1_555 1_555
C12 C11 1_555 1_555
H16 C12 1_555 1_555
C13 C12 1_555 1_555
H17 C13 1_555 1_555
C14 C9 1_555 1_555
H18 C14 1_555 1_555
C15 C3 1_555 1_555
C16 C15 1_555 1_555
H19 C16 1_555 1_555
C17 C16 1_555 1_555
H20 C17 1_555 1_555
C18 C17 1_555 1_555
C19 C18 1_555 1_555
H21 C19 1_555 1_555
C20 C15 1_555 1_555
H22 C20 1_555 1_555
C2 C3 1_555 1_555
C13 C14 1_555 1_555
C19 C20 1_555 1_555

#END
