
#######################################################################
#
#                 Cambridge Crystallographic Data Centre
#                                CCDC 
#
#######################################################################
#
# If this CIF has been generated from an entry in the Cambridge 
# Structural Database, then it will include bibliographic, chemical, 
# crystal, experimental, refinement or atomic coordinate data resulting 
# from the CCDC's data processing and validation procedures.
#
#######################################################################

data_UMUGEQ
_chemical_formula_moiety         'C32 H54 O5'
_chemical_name_systematic        
'12,25-dihydroxy-20,24-epoxydammaran-3-yl acetate'
_symmetry_cell_setting           orthorhombic
_symmetry_space_group_name_H-M   'P 21 21 21'
_symmetry_Int_Tables_number      19
_space_group_name_Hall           'P 2ac 2ab'
loop_
_symmetry_equiv_pos_site_id
_symmetry_equiv_pos_as_xyz
1 x,y,z
2 1/2-x,-y,1/2+z
3 -x,1/2+y,1/2-z
4 1/2+x,1/2-y,-z
_cell_length_a                   8.1615(5)
_cell_length_b                   13.5029(10)
_cell_length_c                   26.8693(19)
_cell_angle_alpha                90
_cell_angle_beta                 90
_cell_angle_gamma                90
_cell_volume                     2961.1
_cell_formula_units_Z            4
loop_
_atom_site_label
_atom_site_type_symbol
_atom_site_fract_x
_atom_site_fract_y
_atom_site_fract_z
O1 O 0.6023(3) -0.14154(18) 1.10861(9)
O2 O 0.7975(3) -0.0280(2) 1.12365(10)
O3 O 0.4007(3) 0.16569(18) 0.82230(9)
H1 H 0.3842 0.2180 0.8076
O4 O 0.2319(3) 0.31609(16) 0.77476(9)
O5 O 0.3361(3) 0.54418(19) 0.71305(14)
H2 H 0.4235 0.5720 0.7076
C1 C 0.5408(4) -0.0209(3) 0.98332(13)
H3 H 0.5951 -0.0329 0.9518
H4 H 0.5630 0.0470 0.9930
C2 C 0.6119(4) -0.0904(3) 1.02249(13)
H5 H 0.5981 -0.1585 1.0117
H6 H 0.7283 -0.0778 1.0260
C3 C 0.5291(4) -0.0764(2) 1.07200(13)
H7 H 0.5466 -0.0078 1.0827
C4 C 0.3433(4) -0.0964(2) 1.07095(12)
C5 C 0.2736(4) -0.0289(2) 1.02897(11)
H8 H 0.2972 0.0385 1.0404
C6 C 0.0859(4) -0.0319(3) 1.02475(13)
H9 H 0.0525 -0.0922 1.0080
H10 H 0.0378 -0.0318 1.0577
C7 C 0.0250(4) 0.0577(3) 0.99556(12)
H11 H 0.0519 0.1174 1.0139
H12 H -0.0934 0.0542 0.9929
C8 C 0.0981(4) 0.0655(2) 0.94305(12)
C9 C 0.2876(4) 0.0568(2) 0.94705(11)
H13 H 0.3209 0.1144 0.9668
C10 C 0.3548(4) -0.0343(2) 0.97647(11)
C11 C 0.3700(4) 0.0726(2) 0.89569(11)
H14 H 0.4879 0.0716 0.9001
H15 H 0.3412 0.0176 0.8742
C12 C 0.3224(4) 0.1687(2) 0.86995(12)
H16 H 0.3649 0.2249 0.8891
C13 C 0.1381(4) 0.1760(2) 0.86663(12)
H17 H 0.1016 0.1174 0.8481
C14 C 0.0579(4) 0.1688(2) 0.91906(12)
C15 C -0.1251(5) 0.1889(3) 0.90661(14)
H18 H -0.1828 0.1271 0.9010
H19 H -0.1778 0.2239 0.9338
C16 C -0.1261(5) 0.2519(3) 0.85954(15)
H20 H -0.1757 0.3158 0.8663
H21 H -0.1893 0.2194 0.8337
C17 C 0.0523(4) 0.2658(2) 0.84233(13)
H22 H 0.0950 0.3259 0.8581
C18 C 0.0676(4) 0.2785(2) 0.78573(13)
C19 C -0.0484(5) 0.3602(3) 0.76667(14)
H23 H -0.1447 0.3317 0.7511
H24 H -0.0829 0.4030 0.7937
C20 C 0.0498(5) 0.4155(3) 0.73015(16)
H25 H 0.0077 0.4818 0.7249
H26 H 0.0564 0.3811 0.6985
C21 C 0.2188(5) 0.4166(3) 0.75784(15)
H27 H 0.2128 0.4612 0.7866
C22 C 0.3658(4) 0.4437(2) 0.72591(15)
C23 C 0.5198(5) 0.4341(4) 0.7549(2)
H28 H 0.5134 0.4748 0.7841
H29 H 0.6107 0.4550 0.7348
H30 H 0.5350 0.3662 0.7645
C24 C 0.3721(7) 0.3808(4) 0.67932(18)
H31 H 0.4682 0.3974 0.6605
H32 H 0.2763 0.3931 0.6595
H33 H 0.3759 0.3121 0.6884
C25 C 0.2739(5) -0.0637(3) 1.12137(12)
H34 H 0.3246 -0.1013 1.1475
H35 H 0.1577 -0.0746 1.1219
H36 H 0.2960 0.0055 1.1263
C26 C 0.3058(5) -0.2071(2) 1.06483(15)
H37 H 0.3439 -0.2424 1.0936
H38 H 0.3604 -0.2318 1.0357
H39 H 0.1897 -0.2163 1.0614
C27 C 0.3271(5) -0.1343(2) 0.94939(13)
H40 H 0.4032 -0.1825 0.9618
H41 H 0.3438 -0.1255 0.9143
H42 H 0.2172 -0.1567 0.9553
C28 C 0.0202(5) -0.0182(3) 0.91126(14)
H43 H -0.0890 0.0004 0.9019
H44 H 0.0167 -0.0782 0.9304
H45 H 0.0850 -0.0286 0.8819
C29 C 0.1139(5) 0.2568(2) 0.95224(14)
H46 H 0.0559 0.2548 0.9833
H47 H 0.0908 0.3181 0.9355
H48 H 0.2294 0.2518 0.9584
C30 C 0.0483(5) 0.1829(3) 0.75656(13)
H49 H 0.1409 0.1407 0.7627
H50 H 0.0421 0.1976 0.7217
H51 H -0.0501 0.1498 0.7668
C31 C 0.7403(5) -0.1084(3) 1.13084(13)
C32 C 0.8108(5) -0.1840(3) 1.16515(15)
H52 H 0.8076 -0.1594 1.1987
H53 H 0.9223 -0.1972 1.1559
H54 H 0.7480 -0.2439 1.1630
loop_
_geom_bond_atom_site_label_1
_geom_bond_atom_site_label_2
_geom_bond_site_symmetry_1
_geom_bond_site_symmetry_2
O1 C3 1_555 1_555
O2 C31 1_555 1_555
O3 H1 1_555 1_555
O4 C18 1_555 1_555
O5 H2 1_555 1_555
C1 H3 1_555 1_555
H4 C1 1_555 1_555
C2 C1 1_555 1_555
H5 C2 1_555 1_555
H6 C2 1_555 1_555
C3 C2 1_555 1_555
H7 C3 1_555 1_555
C4 C3 1_555 1_555
C5 C4 1_555 1_555
H8 C5 1_555 1_555
C6 C5 1_555 1_555
H9 C6 1_555 1_555
H10 C6 1_555 1_555
C7 C6 1_555 1_555
H11 C7 1_555 1_555
H12 C7 1_555 1_555
C8 C7 1_555 1_555
C9 C8 1_555 1_555
H13 C9 1_555 1_555
C10 C1 1_555 1_555
C11 C9 1_555 1_555
H14 C11 1_555 1_555
H15 C11 1_555 1_555
C12 O3 1_555 1_555
H16 C12 1_555 1_555
C13 C12 1_555 1_555
H17 C13 1_555 1_555
C14 C8 1_555 1_555
C15 C14 1_555 1_555
H18 C15 1_555 1_555
H19 C15 1_555 1_555
C16 C15 1_555 1_555
H20 C16 1_555 1_555
H21 C16 1_555 1_555
C17 C13 1_555 1_555
H22 C17 1_555 1_555
C18 C17 1_555 1_555
C19 C18 1_555 1_555
H23 C19 1_555 1_555
H24 C19 1_555 1_555
C20 C19 1_555 1_555
H25 C20 1_555 1_555
H26 C20 1_555 1_555
C21 O4 1_555 1_555
H27 C21 1_555 1_555
C22 O5 1_555 1_555
C23 C22 1_555 1_555
H28 C23 1_555 1_555
H29 C23 1_555 1_555
H30 C23 1_555 1_555
C24 C22 1_555 1_555
H31 C24 1_555 1_555
H32 C24 1_555 1_555
H33 C24 1_555 1_555
C25 C4 1_555 1_555
H34 C25 1_555 1_555
H35 C25 1_555 1_555
H36 C25 1_555 1_555
C26 C4 1_555 1_555
H37 C26 1_555 1_555
H38 C26 1_555 1_555
H39 C26 1_555 1_555
C27 C10 1_555 1_555
H40 C27 1_555 1_555
H41 C27 1_555 1_555
H42 C27 1_555 1_555
C28 C8 1_555 1_555
H43 C28 1_555 1_555
H44 C28 1_555 1_555
H45 C28 1_555 1_555
C29 C14 1_555 1_555
H46 C29 1_555 1_555
H47 C29 1_555 1_555
H48 C29 1_555 1_555
C30 C18 1_555 1_555
H49 C30 1_555 1_555
H50 C30 1_555 1_555
H51 C30 1_555 1_555
C31 O1 1_555 1_555
C32 C31 1_555 1_555
H52 C32 1_555 1_555
H53 C32 1_555 1_555
H54 C32 1_555 1_555
C5 C10 1_555 1_555
C9 C10 1_555 1_555
C11 C12 1_555 1_555
C13 C14 1_555 1_555
C16 C17 1_555 1_555
C20 C21 1_555 1_555
C21 C22 1_555 1_555

#END
