
#######################################################################
#
#                 Cambridge Crystallographic Data Centre
#                                CCDC 
#
#######################################################################
#
# If this CIF has been generated from an entry in the Cambridge 
# Structural Database, then it will include bibliographic, chemical, 
# crystal, experimental, refinement or atomic coordinate data resulting 
# from the CCDC's data processing and validation procedures.
#
#######################################################################

data_UMUGAM
_chemical_formula_moiety         'C32 H54 O5'
_chemical_name_systematic        
'12,25-dihydroxy-20,24-epoxydammaran-3-yl acetate'
_symmetry_cell_setting           monoclinic
_symmetry_space_group_name_H-M   'P 21'
_symmetry_Int_Tables_number      4
_space_group_name_Hall           'P 2yb'
loop_
_symmetry_equiv_pos_site_id
_symmetry_equiv_pos_as_xyz
1 x,y,z
2 -x,1/2+y,-z
_cell_length_a                   7.7955(16)
_cell_length_b                   11.400(2)
_cell_length_c                   16.296(3)
_cell_angle_alpha                90
_cell_angle_beta                 92.26(3)
_cell_angle_gamma                90
_cell_volume                     1447.08
_exptl_crystal_colour            colorless
_exptl_crystal_description       block
_cell_formula_units_Z            2
loop_
_atom_site_label
_atom_site_type_symbol
_atom_site_fract_x
_atom_site_fract_y
_atom_site_fract_z
C1 C 0.4359(2) 0.64998(17) 0.99765(10)
H1 H 0.3829 0.7109 0.9637
H2 H 0.3970 0.5748 0.9762
C2 C 0.3778(2) 0.66344(18) 1.08537(11)
H3 H 0.4061 0.7417 1.1050
H4 H 0.2541 0.6544 1.0859
C3 C 0.4615(2) 0.57437(15) 1.14209(10)
H5 H 0.4231 0.4961 1.1246
C4 C 0.6588(2) 0.57607(15) 1.14526(10)
C5 C 0.71298(19) 0.56731(13) 1.05405(9)
H6 H 0.6672 0.4915 1.0350
C6 C 0.9074(2) 0.55653(16) 1.04504(10)
H7 H 0.9611 0.6317 1.0571
H8 H 0.9533 0.5000 1.0846
C7 C 0.9514(2) 0.51800(15) 0.95884(10)
H9 H 0.9060 0.4398 0.9490
H10 H 1.0753 0.5140 0.9556
C8 C 0.87966(18) 0.60086(14) 0.89097(9)
C9 C 0.68213(18) 0.61611(14) 0.90423(9)
H11 H 0.6351 0.5366 0.8993
C10 C 0.63334(19) 0.65784(13) 0.99198(9)
C11 C 0.59155(19) 0.68497(16) 0.83354(9)
H12 H 0.4690 0.6844 0.8417
H13 H 0.6298 0.7659 0.8362
C12 C 0.6235(2) 0.63732(17) 0.74822(10)
H14 H 0.5774 0.5575 0.7443
C13 C 0.8164(2) 0.63197(14) 0.73801(10)
H15 H 0.8608 0.7104 0.7514
C14 C 0.8996(2) 0.54718(14) 0.80304(10)
C15 C 1.0834(2) 0.53759(19) 0.77092(12)
H16 H 1.1496 0.6076 0.7841
H17 H 1.1430 0.4700 0.7943
C16 C 1.0544(3) 0.52413(19) 0.67830(12)
H18 H 1.0365 0.4423 0.6639
H19 H 1.1528 0.5530 0.6498
C17 C 0.8913(2) 0.59793(16) 0.65448(10)
H20 H 0.8086 0.5475 0.6245
C18 C 0.8204(3) 0.42264(16) 0.79534(13)
H21 H 0.8966 0.3668 0.8216
H22 H 0.8037 0.4027 0.7383
H23 H 0.7120 0.4213 0.8212
C19 C 0.6862(2) 0.78652(15) 1.00917(11)
H24 H 0.6093 0.8208 1.0470
H25 H 0.6810 0.8301 0.9587
H26 H 0.8012 0.7886 1.0325
C20 C 0.9359(2) 0.70249(18) 0.59937(10)
C21 C 1.0706(3) 0.7849(2) 0.63754(13)
H27 H 1.0321 0.8136 0.6891
H28 H 1.0878 0.8497 0.6012
H29 H 1.1767 0.7432 0.6465
C22 C 0.9839(3) 0.6613(2) 0.51271(11)
H30 H 1.0862 0.7013 0.4954
H31 H 1.0045 0.5774 0.5121
C23 C 0.8316(3) 0.6924(2) 0.45773(12)
H32 H 0.7529 0.6267 0.4523
H33 H 0.8676 0.7146 0.4036
C24 C 0.7480(2) 0.79500(17) 0.49981(10)
H34 H 0.8070 0.8676 0.4853
C25 C 0.5548(2) 0.81015(16) 0.48269(12)
C26 C 0.4832(3) 0.91117(19) 0.53203(16)
H35 H 0.4951 0.8934 0.5896
H36 H 0.3641 0.9221 0.5169
H37 H 0.5455 0.9816 0.5208
C27 C 0.5183(4) 0.8302(3) 0.39213(16)
H38 H 0.3975 0.8426 0.3822
H39 H 0.5540 0.7628 0.3619
H40 H 0.5803 0.8980 0.3747
C28 C 0.7306(3) 0.68343(19) 1.19164(11)
H41 H 0.8512 0.6906 1.1827
H42 H 0.7134 0.6743 1.2493
H43 H 0.6723 0.7527 1.1720
C29 C 0.7207(3) 0.4661(2) 1.19216(12)
H44 H 0.6662 0.4622 1.2439
H45 H 0.8430 0.4698 1.2015
H46 H 0.6918 0.3975 1.1603
C30 C 0.9805(2) 0.71709(15) 0.89782(11)
H47 H 1.0909 0.7073 0.8746
H48 H 0.9954 0.7388 0.9546
H49 H 0.9180 0.7775 0.8685
C31 C 0.2626(2) 0.53758(16) 1.24756(11)
C32 C 0.2021(3) 0.5793(2) 1.32793(12)
H50 H 0.1375 0.5183 1.3531
H51 H 0.1306 0.6471 1.3194
H52 H 0.2993 0.5995 1.3632
O1 O 0.40171(15) 0.59588(11) 1.22476(7)
O2 O 0.1935(2) 0.46261(14) 1.20654(9)
O3 O 0.53408(16) 0.70837(17) 0.68919(8)
H53 H 0.6024 0.7512 0.6667
O4 O 0.77967(16) 0.77140(12) 0.58526(7)
O5 O 0.46506(18) 0.70548(12) 0.50404(10)
H54 H 0.4829 0.6914 0.5530
loop_
_geom_bond_atom_site_label_1
_geom_bond_atom_site_label_2
_geom_bond_site_symmetry_1
_geom_bond_site_symmetry_2
C1 H1 1_555 1_555
H2 C1 1_555 1_555
C2 C1 1_555 1_555
H3 C2 1_555 1_555
H4 C2 1_555 1_555
C3 C2 1_555 1_555
H5 C3 1_555 1_555
C4 C3 1_555 1_555
C5 C4 1_555 1_555
H6 C5 1_555 1_555
C6 C5 1_555 1_555
H7 C6 1_555 1_555
H8 C6 1_555 1_555
C7 C6 1_555 1_555
H9 C7 1_555 1_555
H10 C7 1_555 1_555
C8 C7 1_555 1_555
C9 C8 1_555 1_555
H11 C9 1_555 1_555
C10 C1 1_555 1_555
C11 C9 1_555 1_555
H12 C11 1_555 1_555
H13 C11 1_555 1_555
C12 C11 1_555 1_555
H14 C12 1_555 1_555
C13 C12 1_555 1_555
H15 C13 1_555 1_555
C14 C8 1_555 1_555
C15 C14 1_555 1_555
H16 C15 1_555 1_555
H17 C15 1_555 1_555
C16 C15 1_555 1_555
H18 C16 1_555 1_555
H19 C16 1_555 1_555
C17 C13 1_555 1_555
H20 C17 1_555 1_555
C18 C14 1_555 1_555
H21 C18 1_555 1_555
H22 C18 1_555 1_555
H23 C18 1_555 1_555
C19 C10 1_555 1_555
H24 C19 1_555 1_555
H25 C19 1_555 1_555
H26 C19 1_555 1_555
C20 C17 1_555 1_555
C21 C20 1_555 1_555
H27 C21 1_555 1_555
H28 C21 1_555 1_555
H29 C21 1_555 1_555
C22 C20 1_555 1_555
H30 C22 1_555 1_555
H31 C22 1_555 1_555
C23 C22 1_555 1_555
H32 C23 1_555 1_555
H33 C23 1_555 1_555
C24 C23 1_555 1_555
H34 C24 1_555 1_555
C25 C24 1_555 1_555
C26 C25 1_555 1_555
H35 C26 1_555 1_555
H36 C26 1_555 1_555
H37 C26 1_555 1_555
C27 C25 1_555 1_555
H38 C27 1_555 1_555
H39 C27 1_555 1_555
H40 C27 1_555 1_555
C28 C4 1_555 1_555
H41 C28 1_555 1_555
H42 C28 1_555 1_555
H43 C28 1_555 1_555
C29 C4 1_555 1_555
H44 C29 1_555 1_555
H45 C29 1_555 1_555
H46 C29 1_555 1_555
C30 C8 1_555 1_555
H47 C30 1_555 1_555
H48 C30 1_555 1_555
H49 C30 1_555 1_555
C31 C32 1_555 1_555
C32 H50 1_555 1_555
H51 C32 1_555 1_555
H52 C32 1_555 1_555
O1 C3 1_555 1_555
O2 C31 1_555 1_555
O3 C12 1_555 1_555
H53 O3 1_555 1_555
O4 C20 1_555 1_555
O5 C25 1_555 1_555
H54 O5 1_555 1_555
C5 C10 1_555 1_555
C9 C10 1_555 1_555
C13 C14 1_555 1_555
C16 C17 1_555 1_555
C24 O4 1_555 1_555
C31 O1 1_555 1_555

#END
