
#######################################################################
#
#                 Cambridge Crystallographic Data Centre
#                                CCDC 
#
#######################################################################
#
# If this CIF has been generated from an entry in the Cambridge 
# Structural Database, then it will include bibliographic, chemical, 
# crystal, experimental, refinement or atomic coordinate data resulting 
# from the CCDC's data processing and validation procedures.
#
#######################################################################

data_UNAKOK
_chemical_formula_moiety         'C16 H18 N2 O2,C1 H4 O1'
_chemical_name_systematic        
'6-(2-Methylprop-1-en-1-yl)-3,4,5,6-tetrahydro-1H-azepino[5,4,3-cd]indol-5-ium-4-carboxylate methanol solvate'
_symmetry_cell_setting           monoclinic
_symmetry_space_group_name_H-M   'P 21'
_symmetry_Int_Tables_number      4
_space_group_name_Hall           'P 2yb'
loop_
_symmetry_equiv_pos_site_id
_symmetry_equiv_pos_as_xyz
1 x,y,z
2 -x,1/2+y,-z
_cell_length_a                   9.795(3)
_cell_length_b                   8.172(3)
_cell_length_c                   10.466(3)
_cell_angle_alpha                90
_cell_angle_beta                 103.89(2)
_cell_angle_gamma                90
_cell_volume                     813.251
_exptl_crystal_colour            colorless
_exptl_crystal_description       prism
_cell_formula_units_Z            2
loop_
_atom_site_label
_atom_site_type_symbol
_atom_site_fract_x
_atom_site_fract_y
_atom_site_fract_z
O1 O 1.0671(3) 0.6659(7) 0.6303(4)
O2 O 1.0992(3) 0.6420(6) 0.4270(4)
N1 N 0.8398(3) 0.6809(5) 0.3040(3)
H1 H 0.9222 0.6754 0.2805
H2 H 0.7972 0.5832 0.2857
N2 N 0.3876(4) 0.6407(6) 0.4396(4)
H3 H 0.3080 0.6214 0.4575
C1 C 1.0271(5) 0.6664(8) 0.5090(6)
C2 C 0.8712(4) 0.7065(7) 0.4514(4)
H4 H 0.8554 0.8219 0.4686
C3 C 0.7736(4) 0.6026(7) 0.5113(4)
H5 H 0.7901 0.4881 0.4960
H6 H 0.7963 0.6203 0.6057
C4 C 0.6202(4) 0.6404(6) 0.4558(4)
C5 C 0.5525(4) 0.7220(6) 0.3345(4)
C6 C 0.4066(4) 0.7218(7) 0.3287(4)
C7 C 0.3064(5) 0.7907(7) 0.2280(5)
H7 H 0.2112 0.7855 0.2268
C8 C 0.3524(5) 0.8670(8) 0.1297(5)
H8 H 0.2880 0.9180 0.0615
C9 C 0.4946(5) 0.8691(7) 0.1310(5)
H9 H 0.5221 0.9203 0.0619
C10 C 0.5968(5) 0.7991(6) 0.2294(5)
C11 C 0.7495(5) 0.8084(7) 0.2189(4)
H10 H 0.7869 0.9174 0.2466
C12 C 0.7596(5) 0.7783(7) 0.0775(4)
H11 H 0.7134 0.6862 0.0361
C13 C 0.8263(5) 0.8683(7) 0.0077(5)
C14 C 0.9133(7) 1.0151(9) 0.0585(6)
H12 H 0.9164 1.0296 0.1501
H13 H 0.8725 1.1102 0.0103
H14 H 1.0071 0.9998 0.0476
C15 C 0.8163(6) 0.8299(8) -0.1362(5)
H15 H 0.7598 0.7337 -0.1610
H16 H 0.9088 0.8111 -0.1490
H17 H 0.7738 0.9205 -0.1895
C16 C 0.5153(5) 0.5968(7) 0.5150(5)
H18 H 0.5296 0.5442 0.5959
O3 O 0.7432(5) 0.3723(5) 0.2275(4)
H19 H 0.8011 0.3020 0.2596
C17 C 0.6060(7) 0.3140(9) 0.2241(6)
H20 H 0.5734 0.2476 0.1472
H21 H 0.5436 0.4051 0.2216
H22 H 0.6082 0.2497 0.3014
loop_
_geom_bond_atom_site_label_1
_geom_bond_atom_site_label_2
_geom_bond_site_symmetry_1
_geom_bond_site_symmetry_2
O1 C1 1_555 1_555
O2 C1 1_555 1_555
N1 H1 1_555 1_555
H2 N1 1_555 1_555
N2 H3 1_555 1_555
C1 C2 1_555 1_555
C2 N1 1_555 1_555
H4 C2 1_555 1_555
C3 C2 1_555 1_555
H5 C3 1_555 1_555
H6 C3 1_555 1_555
C4 C3 1_555 1_555
C5 C4 1_555 1_555
C6 N2 1_555 1_555
C7 C6 1_555 1_555
H7 C7 1_555 1_555
C8 C7 1_555 1_555
H8 C8 1_555 1_555
C9 C8 1_555 1_555
H9 C9 1_555 1_555
C10 C5 1_555 1_555
C11 N1 1_555 1_555
H10 C11 1_555 1_555
C12 C11 1_555 1_555
H11 C12 1_555 1_555
C13 C12 1_555 1_555
C14 C13 1_555 1_555
H12 C14 1_555 1_555
H13 C14 1_555 1_555
H14 C14 1_555 1_555
C15 C13 1_555 1_555
H15 C15 1_555 1_555
H16 C15 1_555 1_555
H17 C15 1_555 1_555
C16 N2 1_555 1_555
H18 C16 1_555 1_555
O3 H19 1_555 1_555
C17 O3 1_555 1_555
H20 C17 1_555 1_555
H21 C17 1_555 1_555
H22 C17 1_555 1_555
C4 C16 1_555 1_555
C5 C6 1_555 1_555
C9 C10 1_555 1_555
C10 C11 1_555 1_555

#END
