
#######################################################################
#
#                 Cambridge Crystallographic Data Centre
#                                CCDC 
#
#######################################################################
#
# If this CIF has been generated from an entry in the Cambridge 
# Structural Database, then it will include bibliographic, chemical, 
# crystal, experimental, refinement or atomic coordinate data resulting 
# from the CCDC's data processing and validation procedures.
#
#######################################################################

data_UNEBEW
_chemical_formula_moiety         'C20 H15 B1 N2 O5'
_chemical_name_systematic        
4-methoxy-10-nitro-6-phenyl-6H-12,6-[1,3,2]benzoxazaborolo[2,3-b][1,3,2]benzoxazaborinine
_symmetry_cell_setting           monoclinic
_symmetry_space_group_name_H-M   'P 21/c'
_symmetry_Int_Tables_number      14
_space_group_name_Hall           '-P 2ybc'
loop_
_symmetry_equiv_pos_site_id
_symmetry_equiv_pos_as_xyz
1 x,y,z
2 -x,1/2+y,1/2-z
3 -x,-y,-z
4 x,1/2-y,1/2+z
_cell_length_a                   6.4668(3)
_cell_length_b                   15.4197(7)
_cell_length_c                   17.8568(9)
_cell_angle_alpha                90
_cell_angle_beta                 101.643(4)
_cell_angle_gamma                90
_cell_volume                     1743.97
_exptl_crystal_colour            yellow
_exptl_crystal_description       blocks
_cell_formula_units_Z            4
loop_
_atom_site_label
_atom_site_type_symbol
_atom_site_fract_x
_atom_site_fract_y
_atom_site_fract_z
C1 C 0.5001(3) 0.10094(13) -0.35650(11)
C2 C 0.5411(4) 0.18797(13) -0.36666(13)
H1 H 0.4599 0.2309 -0.3500
C3 C 0.7051(4) 0.20935(13) -0.40194(12)
H2 H 0.7357 0.2674 -0.4089
C4 C 0.8252(3) 0.14511(13) -0.42730(11)
C5 C 0.7869(3) 0.05754(13) -0.41932(11)
H3 H 0.8669 0.0149 -0.4370
C6 C 0.6237(3) 0.03766(12) -0.38377(11)
C7 C 0.5531(3) -0.11779(13) -0.39944(11)
H4 H 0.6468 -0.1273 -0.4319
C8 C 0.4172(3) -0.18549(13) -0.38331(11)
C9 C 0.4472(4) -0.27134(14) -0.40520(13)
H5 H 0.5563 -0.2847 -0.4301
C10 C 0.3148(4) -0.33521(15) -0.38963(15)
H6 H 0.3348 -0.3923 -0.4034
C11 C 0.1497(4) -0.31457(15) -0.35305(15)
H7 H 0.0624 -0.3586 -0.3418
C12 C 0.1131(3) -0.23020(14) -0.33320(13)
C13 C 0.2473(3) -0.16377(13) -0.34860(11)
C14 C -0.1373(4) -0.2705(2) -0.25814(17)
H8 H -0.2464 -0.2452 -0.2359
H9 H -0.0305 -0.2949 -0.2185
H10 H -0.1967 -0.3154 -0.2933
C15 C 0.5094(3) -0.04459(12) -0.22203(12)
C16 C 0.3878(4) -0.05082(16) -0.16575(13)
H11 H 0.2420 -0.0451 -0.1800
C17 C 0.4769(5) -0.06520(16) -0.08995(14)
H12 H 0.3917 -0.0682 -0.0539
C18 C 0.6910(5) -0.07512(16) -0.06775(14)
H13 H 0.7512 -0.0855 -0.0167
C19 C 0.8162(4) -0.06976(18) -0.12116(15)
H14 H 0.9616 -0.0765 -0.1063
C20 C 0.7265(4) -0.05433(16) -0.19727(14)
H15 H 0.8135 -0.0504 -0.2327
B1 B 0.3934(4) -0.02662(14) -0.30874(14)
N1 N 0.5422(3) -0.04335(10) -0.36778(9)
N2 N 0.9993(3) 0.17034(11) -0.46327(10)
O1 O 0.3486(2) 0.06845(9) -0.32321(9)
O2 O 0.2057(2) -0.08061(9) -0.33173(8)
O3 O -0.0454(3) -0.20518(11) -0.29803(11)
O4 O 1.0490(3) 0.24657(11) -0.46343(11)
O5 O 1.0899(3) 0.11318(11) -0.49217(10)
loop_
_geom_bond_atom_site_label_1
_geom_bond_atom_site_label_2
_geom_bond_site_symmetry_1
_geom_bond_site_symmetry_2
C1 C2 1_555 1_555
C2 H1 1_555 1_555
C3 C2 1_555 1_555
H2 C3 1_555 1_555
C4 C3 1_555 1_555
C5 C4 1_555 1_555
H3 C5 1_555 1_555
C6 C1 1_555 1_555
C7 H4 1_555 1_555
C8 C7 1_555 1_555
C9 C8 1_555 1_555
H5 C9 1_555 1_555
C10 C9 1_555 1_555
H6 C10 1_555 1_555
C11 C10 1_555 1_555
H7 C11 1_555 1_555
C12 C11 1_555 1_555
C13 C8 1_555 1_555
C14 H8 1_555 1_555
H9 C14 1_555 1_555
H10 C14 1_555 1_555
C15 C16 1_555 1_555
C16 H11 1_555 1_555
C17 C16 1_555 1_555
H12 C17 1_555 1_555
C18 C17 1_555 1_555
H13 C18 1_555 1_555
C19 C18 1_555 1_555
H14 C19 1_555 1_555
C20 C15 1_555 1_555
H15 C20 1_555 1_555
B1 C15 1_555 1_555
N1 C6 1_555 1_555
N2 C4 1_555 1_555
O1 C1 1_555 1_555
O2 C13 1_555 1_555
O3 C12 1_555 1_555
O4 N2 1_555 1_555
O5 N2 1_555 1_555
C5 C6 1_555 1_555
C7 N1 1_555 1_555
C12 C13 1_555 1_555
C14 O3 1_555 1_555
C19 C20 1_555 1_555
B1 N1 1_555 1_555
B1 O1 1_555 1_555
B1 O2 1_555 1_555

#END
