
#######################################################################
#
#                 Cambridge Crystallographic Data Centre
#                                CCDC 
#
#######################################################################
#
# If this CIF has been generated from an entry in the Cambridge 
# Structural Database, then it will include bibliographic, chemical, 
# crystal, experimental, refinement or atomic coordinate data resulting 
# from the CCDC's data processing and validation procedures.
#
#######################################################################

data_UNERIP
_chemical_formula_moiety         'C15 H13 N1 O2'
_chemical_name_systematic        
2-(4-Phenyl-4,5-dihydro-1,3-oxazol-2-yl)phenol
_symmetry_cell_setting           orthorhombic
_symmetry_space_group_name_H-M   'P 21 21 21'
_symmetry_Int_Tables_number      19
_space_group_name_Hall           'P 2ac 2ab'
loop_
_symmetry_equiv_pos_site_id
_symmetry_equiv_pos_as_xyz
1 x,y,z
2 1/2-x,-y,1/2+z
3 1/2+x,1/2-y,-z
4 -x,1/2+y,1/2-z
_cell_length_a                   5.786(5)
_cell_length_b                   10.730(5)
_cell_length_c                   19.722(5)
_cell_angle_alpha                90
_cell_angle_beta                 90
_cell_angle_gamma                90
_cell_volume                     1224.42
_exptl_crystal_colour            colorless
_exptl_crystal_description       block
_cell_formula_units_Z            4
loop_
_atom_site_label
_atom_site_type_symbol
_atom_site_fract_x
_atom_site_fract_y
_atom_site_fract_z
O1 O 0.6257(2) 0.21699(12) 0.92462(7)
O2 O 1.2074(3) 0.04158(12) 0.84062(7)
H1 H 1.1089 0.0131 0.8662
N1 N 0.8288(3) 0.03910(13) 0.91408(7)
C1 C 0.9586(4) 0.22064(19) 0.85208(9)
C2 C 0.6846(3) -0.07117(16) 1.01833(9)
C3 C 1.1546(4) 0.1615(2) 0.82533(9)
C4 C 0.7671(4) -0.20938(19) 1.13454(11)
H2 H 0.7955 -0.2559 1.1734
C5 C 0.6277(3) 0.00483(17) 0.95632(9)
H3 H 0.5174 -0.0417 0.9284
C6 C 0.5672(4) -0.22540(19) 1.09947(11)
H4 H 0.4578 -0.2825 1.1146
C7 C 0.8060(3) 0.15407(17) 0.89755(9)
C8 C 0.8854(3) -0.0548(2) 1.05462(10)
H5 H 0.9939 0.0034 1.0402
C9 C 0.9156(5) 0.3445(2) 0.83420(11)
H6 H 0.7857 0.3852 0.8510
C10 C 0.9274(4) -0.1241(2) 1.11228(10)
H7 H 1.0644 -0.1130 1.1362
C11 C 1.3023(5) 0.2251(3) 0.78265(10)
H8 H 1.4324 0.1855 0.7652
C12 C 0.5262(3) -0.15702(18) 1.04139(10)
H9 H 0.3895 -0.1692 1.0175
C13 C 0.5238(4) 0.13293(19) 0.97318(11)
H10 H 0.3569 0.1315 0.9686
H11 H 0.5627 0.1576 1.0191
C14 C 1.0666(6) 0.4068(3) 0.79145(13)
H12 H 1.0386 0.4895 0.7800
C15 C 1.2565(6) 0.3471(3) 0.76598(13)
H13 H 1.3560 0.3895 0.7370
loop_
_geom_bond_atom_site_label_1
_geom_bond_atom_site_label_2
_geom_bond_site_symmetry_1
_geom_bond_site_symmetry_2
O1 C7 1_555 1_555
O2 H1 1_555 1_555
N1 C5 1_555 1_555
C1 C3 1_555 1_555
C2 C5 1_555 1_555
C3 O2 1_555 1_555
C4 H2 1_555 1_555
C5 H3 1_555 1_555
C6 C4 1_555 1_555
H4 C6 1_555 1_555
C7 N1 1_555 1_555
C8 C2 1_555 1_555
H5 C8 1_555 1_555
C9 C1 1_555 1_555
H6 C9 1_555 1_555
C10 C4 1_555 1_555
H7 C10 1_555 1_555
C11 C3 1_555 1_555
H8 C11 1_555 1_555
C12 C2 1_555 1_555
H9 C12 1_555 1_555
C13 O1 1_555 1_555
H10 C13 1_555 1_555
H11 C13 1_555 1_555
C14 C9 1_555 1_555
H12 C14 1_555 1_555
C15 C11 1_555 1_555
H13 C15 1_555 1_555
C1 C7 1_555 1_555
C5 C13 1_555 1_555
C6 C12 1_555 1_555
C8 C10 1_555 1_555
C14 C15 1_555 1_555

#END
