
#######################################################################
#
#                 Cambridge Crystallographic Data Centre
#                                CCDC 
#
#######################################################################
#
# If this CIF has been generated from an entry in the Cambridge 
# Structural Database, then it will include bibliographic, chemical, 
# crystal, experimental, refinement or atomic coordinate data resulting 
# from the CCDC's data processing and validation procedures.
#
#######################################################################

data_UNICID
_chemical_formula_moiety         'C33 H41 N1 O7 S1'
_chemical_name_systematic        
'(1R,2S,5R)-5-Methyl-2-(1-methyl-1-phenylethyl)cyclohexyl (1R,4S,5R)-4-(methoxymethoxy)-2-((4-methylphenyl)sulfonyl)-3-oxo-2-azabicyclo(2.2.2)-oct-7-ene-5-carboxylate'
_symmetry_cell_setting           orthorhombic
_symmetry_space_group_name_H-M   'P 21 21 21'
_symmetry_Int_Tables_number      19
_space_group_name_Hall           'P 2ac 2ab'
loop_
_symmetry_equiv_pos_site_id
_symmetry_equiv_pos_as_xyz
1 x,y,z
2 1/2-x,-y,1/2+z
3 1/2+x,1/2-y,-z
4 -x,1/2+y,1/2-z
_cell_length_a                   11.6310(10)
_cell_length_b                   11.867(2)
_cell_length_c                   22.646(2)
_cell_angle_alpha                90
_cell_angle_beta                 90
_cell_angle_gamma                90
_cell_volume                     3125.72
_exptl_crystal_colour            colorless
_exptl_crystal_description       prism
_chemical_melting_point          178.5deg.C
_cell_formula_units_Z            4
loop_
_atom_site_label
_atom_site_type_symbol
_atom_site_fract_x
_atom_site_fract_y
_atom_site_fract_z
S1 S 1.06342(10) -0.38789(8) 1.00493(5)
O1 O 1.1411(4) -0.3482(3) 1.04794(13)
O2 O 0.9491(3) -0.4155(3) 1.02149(17)
O3 O 0.9530(3) -0.3818(2) 0.88530(13)
O4 O 1.0606(3) -0.1903(2) 0.73463(13)
O5 O 0.9359(2) -0.1894(2) 0.81610(10)
O6 O 0.8042(2) 0.02845(17) 0.87793(11)
O7 O 0.9896(2) 0.0707(2) 0.86206(17)
N1 N 1.0611(3) -0.2858(2) 0.95415(15)
C1 C 1.1131(4) -0.1725(3) 0.9639(2)
H1 H 1.1588 -0.1705 1.0002
C2 C 1.0012(3) -0.2975(3) 0.90108(17)
C3 C 1.0036(3) -0.1839(3) 0.86779(16)
C4 C 0.9393(3) -0.1029(3) 0.91060(15)
H2 H 0.8660 -0.1373 0.9220
C5 C 1.0141(4) -0.0879(3) 0.96609(19)
H3 H 1.0442 -0.0117 0.9676
H4 H 0.9681 -0.1005 1.0012
C6 C 1.1843(4) -0.1436(3) 0.9111(2)
H5 H 1.2616 -0.1239 0.9133
C7 C 1.1264(4) -0.1488(3) 0.8612(2)
H6 H 1.1592 -0.1320 0.8248
C8 C 0.9803(4) -0.2504(3) 0.76740(19)
H7 H 1.0158 -0.3191 0.7818
H8 H 0.9171 -0.2718 0.7418
C9 C 1.0164(5) -0.0899(4) 0.7083(2)
H9 H 0.9483 -0.1075 0.6862
H10 H 1.0732 -0.0583 0.6824
H11 H 0.9980 -0.0364 0.7387
C10 C 0.7187(3) 0.3336(3) 0.89725(18)
H12 H 0.7712 0.3687 0.8688
C11 C 0.7635(4) 0.2149(3) 0.91094(17)
H13 H 0.8407 0.2204 0.9269
H14 H 0.7150 0.1807 0.9408
C12 C 0.7655(3) 0.1394(2) 0.85656(16)
H15 H 0.8209 0.1689 0.8278
C13 C 0.6486(3) 0.1271(3) 0.82761(16)
H16 H 0.5964 0.0944 0.8569
C14 C 0.6053(4) 0.2479(3) 0.81384(17)
H17 H 0.6555 0.2820 0.7847
H18 H 0.5288 0.2434 0.7969
C15 C 0.6016(3) 0.3227(3) 0.8682(2)
H19 H 0.5743 0.3969 0.8570
H20 H 0.5475 0.2914 0.8964
C16 C 0.7125(4) 0.4081(4) 0.9509(2)
H21 H 0.6793 0.4793 0.9403
H22 H 0.7885 0.4199 0.9663
H23 H 0.6658 0.3726 0.9805
C17 C 0.6445(3) 0.0496(3) 0.77097(19)
C18 C 0.7461(4) 0.0752(5) 0.7309(2)
H24 H 0.7382 0.0339 0.6947
H25 H 0.8161 0.0535 0.7502
H26 H 0.7481 0.1545 0.7225
C19 C 0.6519(4) -0.0762(3) 0.7880(2)
H27 H 0.6325 -0.1218 0.7545
H28 H 0.5991 -0.0915 0.8196
H29 H 0.7287 -0.0935 0.8006
C20 C 0.5287(3) 0.0685(3) 0.74054(18)
C21 C 0.5186(5) 0.1241(4) 0.6870(2)
H30 H 0.5844 0.1480 0.6673
C22 C 0.4102(7) 0.1447(4) 0.6620(2)
H31 H 0.4047 0.1840 0.6266
C23 C 0.3142(6) 0.1079(5) 0.6891(3)
H32 H 0.2425 0.1209 0.6722
C24 C 0.3223(4) 0.0523(5) 0.7407(3)
H33 H 0.2558 0.0278 0.7596
C25 C 0.4285(4) 0.0311(4) 0.7661(2)
H34 H 0.4321 -0.0094 0.8012
C26 C 0.9154(3) 0.0092(3) 0.88040(17)
C27 C 1.1231(4) -0.5038(3) 0.96792(16)
C28 C 1.2366(4) -0.4985(4) 0.9499(2)
H35 H 1.2799 -0.4338 0.9564
C29 C 1.2841(4) -0.5902(4) 0.9223(2)
H36 H 1.3601 -0.5867 0.9096
C30 C 1.2218(4) -0.6877(4) 0.9130(2)
C31 C 1.1099(4) -0.6901(4) 0.9307(2)
H37 H 1.0664 -0.7546 0.9239
C32 C 1.0593(4) -0.5982(4) 0.9587(2)
H38 H 0.9830 -0.6013 0.9709
C33 C 1.2737(6) -0.7886(5) 0.8818(3)
H39 H 1.2229 -0.8520 0.8855
H40 H 1.3466 -0.8065 0.8993
H41 H 1.2843 -0.7713 0.8407
loop_
_geom_bond_atom_site_label_1
_geom_bond_atom_site_label_2
_geom_bond_site_symmetry_1
_geom_bond_site_symmetry_2
S1 O1 1_555 1_555
O2 S1 1_555 1_555
O3 C2 1_555 1_555
O4 C8 1_555 1_555
O5 C3 1_555 1_555
O6 C12 1_555 1_555
O7 C26 1_555 1_555
N1 S1 1_555 1_555
C1 N1 1_555 1_555
H1 C1 1_555 1_555
C2 N1 1_555 1_555
C3 C2 1_555 1_555
C4 C3 1_555 1_555
H2 C4 1_555 1_555
C5 C1 1_555 1_555
H3 C5 1_555 1_555
H4 C5 1_555 1_555
C6 C1 1_555 1_555
H5 C6 1_555 1_555
C7 C3 1_555 1_555
H6 C7 1_555 1_555
C8 O5 1_555 1_555
H7 C8 1_555 1_555
H8 C8 1_555 1_555
C9 O4 1_555 1_555
H9 C9 1_555 1_555
H10 C9 1_555 1_555
H11 C9 1_555 1_555
C10 H12 1_555 1_555
C11 C10 1_555 1_555
H13 C11 1_555 1_555
H14 C11 1_555 1_555
C12 C11 1_555 1_555
H15 C12 1_555 1_555
C13 C12 1_555 1_555
H16 C13 1_555 1_555
C14 C13 1_555 1_555
H17 C14 1_555 1_555
H18 C14 1_555 1_555
C15 C10 1_555 1_555
H19 C15 1_555 1_555
H20 C15 1_555 1_555
C16 C10 1_555 1_555
H21 C16 1_555 1_555
H22 C16 1_555 1_555
H23 C16 1_555 1_555
C17 C13 1_555 1_555
C18 C17 1_555 1_555
H24 C18 1_555 1_555
H25 C18 1_555 1_555
H26 C18 1_555 1_555
C19 C17 1_555 1_555
H27 C19 1_555 1_555
H28 C19 1_555 1_555
H29 C19 1_555 1_555
C20 C17 1_555 1_555
C21 C20 1_555 1_555
H30 C21 1_555 1_555
C22 C21 1_555 1_555
H31 C22 1_555 1_555
C23 C22 1_555 1_555
H32 C23 1_555 1_555
C24 C23 1_555 1_555
H33 C24 1_555 1_555
C25 C20 1_555 1_555
H34 C25 1_555 1_555
C26 O6 1_555 1_555
C27 S1 1_555 1_555
C28 C27 1_555 1_555
H35 C28 1_555 1_555
C29 C28 1_555 1_555
H36 C29 1_555 1_555
C30 C29 1_555 1_555
C31 C30 1_555 1_555
H37 C31 1_555 1_555
C32 C27 1_555 1_555
H38 C32 1_555 1_555
C33 C30 1_555 1_555
H39 C33 1_555 1_555
H40 C33 1_555 1_555
H41 C33 1_555 1_555
C4 C5 1_555 1_555
C4 C26 1_555 1_555
C6 C7 1_555 1_555
C14 C15 1_555 1_555
C24 C25 1_555 1_555
C31 C32 1_555 1_555

#END
