
#######################################################################
#
#                 Cambridge Crystallographic Data Centre
#                                CCDC 
#
#######################################################################
#
# If this CIF has been generated from an entry in the Cambridge 
# Structural Database, then it will include bibliographic, chemical, 
# crystal, experimental, refinement or atomic coordinate data resulting 
# from the CCDC's data processing and validation procedures.
#
#######################################################################

data_UNILEJ
_chemical_formula_moiety         'C19 H30 O4'
_chemical_name_systematic        
'13-Isopropyl-6-methyl-10-methylene-15,16-dioxatetracyclo[6.6.1.1^2,5^.0^9,14^]hexadecane-2,6-diol unknown solvate'
_symmetry_cell_setting           orthorhombic
_symmetry_space_group_name_H-M   'P b c a'
_symmetry_Int_Tables_number      61
_space_group_name_Hall           '-P 2ac 2ab'
loop_
_symmetry_equiv_pos_site_id
_symmetry_equiv_pos_as_xyz
1 x,y,z
2 1/2+x,1/2-y,-z
3 -x,1/2+y,1/2-z
4 1/2-x,-y,1/2+z
5 -x,-y,-z
6 1/2-x,1/2+y,z
7 x,1/2-y,1/2+z
8 1/2+x,y,1/2-z
_cell_length_a                   9.7581(16)
_cell_length_b                   19.351(3)
_cell_length_c                   19.541(3)
_cell_angle_alpha                90
_cell_angle_beta                 90
_cell_angle_gamma                90
_cell_volume                     3689.91
_exptl_crystal_colour            colorless
_exptl_crystal_description       block
_cell_formula_units_Z            8
loop_
_atom_site_label
_atom_site_type_symbol
_atom_site_fract_x
_atom_site_fract_y
_atom_site_fract_z
C1 C 0.4135(2) 0.74665(11) 0.47940(11)
C2 C 0.4584(2) 0.77581(12) 0.54816(11)
H1 H 0.3949 0.7612 0.5849
H2 H 0.5520 0.7601 0.5598
C3 C 0.4547(2) 0.85384(12) 0.53907(12)
H3 H 0.5458 0.8718 0.5256
H4 H 0.4255 0.8770 0.5818
C4 C 0.3496(2) 0.86492(11) 0.48198(12)
H5 H 0.2623 0.8805 0.5038
C5 C 0.3861(2) 0.91739(11) 0.42631(12)
C6 C 0.5287(2) 0.90774(11) 0.39249(11)
H6 H 0.5300 0.9375 0.3513
H7 H 0.5970 0.9272 0.4246
C7 C 0.5821(2) 0.83687(11) 0.37056(11)
H8 H 0.6684 0.8449 0.3442
C8 C 0.4877(2) 0.79231(11) 0.32504(10)
H9 H 0.3916 0.8089 0.3318
C9 C 0.5217(2) 0.79979(11) 0.24995(11)
C10 C 0.6310(2) 0.75279(12) 0.22327(12)
H10 H 0.7210 0.7671 0.2418
H11 H 0.6351 0.7562 0.1728
C11 C 0.6010(2) 0.67809(12) 0.24410(11)
H12 H 0.5094 0.6644 0.2270
H13 H 0.6699 0.6470 0.2233
C12 C 0.6053(2) 0.67098(11) 0.32200(11)
H14 H 0.6973 0.6879 0.3371
C13 C 0.4979(2) 0.71851(11) 0.35577(10)
H15 H 0.4059 0.6958 0.3534
C14 C 0.5336(2) 0.73328(11) 0.43090(11)
H16 H 0.5893 0.6940 0.4492
C15 C 0.2700(2) 0.92270(12) 0.37473(13)
H17 H 0.1830 0.9290 0.3990
H18 H 0.2660 0.8802 0.3475
H19 H 0.2861 0.9623 0.3445
C16 C 0.4580(3) 0.84586(13) 0.21142(13)
H20 H 0.4812 0.8503 0.1644
H21 H 0.3892 0.8746 0.2308
C17 C 0.5931(2) 0.59573(11) 0.34644(12)
H22 H 0.5918 0.5968 0.3976
C18 C 0.7156(3) 0.55166(13) 0.32526(14)
H23 H 0.7028 0.5043 0.3419
H24 H 0.7995 0.5710 0.3451
H25 H 0.7231 0.5513 0.2753
C19 C 0.4625(3) 0.55957(13) 0.32355(16)
H26 H 0.4621 0.5121 0.3409
H27 H 0.4585 0.5589 0.2734
H28 H 0.3828 0.5844 0.3416
O1 O 0.34010(16) 0.68441(8) 0.48341(8)
H29 H 0.2685 0.6905 0.5065
O2 O 0.32453(15) 0.79810(7) 0.45142(8)
O3 O 0.39207(17) 0.98396(8) 0.45957(9)
H30 H 0.3177(18) 0.9983(16) 0.4747(15)
O4 O 0.61767(14) 0.79437(7) 0.42907(7)
loop_
_geom_bond_atom_site_label_1
_geom_bond_atom_site_label_2
_geom_bond_site_symmetry_1
_geom_bond_site_symmetry_2
C1 C2 1_555 1_555
C2 H1 1_555 1_555
H2 C2 1_555 1_555
C3 C2 1_555 1_555
H3 C3 1_555 1_555
H4 C3 1_555 1_555
C4 C3 1_555 1_555
H5 C4 1_555 1_555
C5 C4 1_555 1_555
C6 C5 1_555 1_555
H6 C6 1_555 1_555
H7 C6 1_555 1_555
C7 C6 1_555 1_555
H8 C7 1_555 1_555
C8 C7 1_555 1_555
H9 C8 1_555 1_555
C9 C8 1_555 1_555
C10 C9 1_555 1_555
H10 C10 1_555 1_555
H11 C10 1_555 1_555
C11 C10 1_555 1_555
H12 C11 1_555 1_555
H13 C11 1_555 1_555
C12 C11 1_555 1_555
H14 C12 1_555 1_555
C13 C8 1_555 1_555
H15 C13 1_555 1_555
C14 C1 1_555 1_555
H16 C14 1_555 1_555
C15 C5 1_555 1_555
H17 C15 1_555 1_555
H18 C15 1_555 1_555
H19 C15 1_555 1_555
C16 C9 1_555 1_555
H20 C16 1_555 1_555
H21 C16 1_555 1_555
C17 C12 1_555 1_555
H22 C17 1_555 1_555
C18 C17 1_555 1_555
H23 C18 1_555 1_555
H24 C18 1_555 1_555
H25 C18 1_555 1_555
C19 C17 1_555 1_555
H26 C19 1_555 1_555
H27 C19 1_555 1_555
H28 C19 1_555 1_555
O1 C1 1_555 1_555
H29 O1 1_555 1_555
O2 C1 1_555 1_555
O3 C5 1_555 1_555
H30 O3 1_555 1_555
O4 C7 1_555 1_555
C4 O2 1_555 1_555
C12 C13 1_555 1_555
C13 C14 1_555 1_555
C14 O4 1_555 1_555

#END
