
#######################################################################
#
#                 Cambridge Crystallographic Data Centre
#                                CCDC 
#
#######################################################################
#
# If this CIF has been generated from an entry in the Cambridge 
# Structural Database, then it will include bibliographic, chemical, 
# crystal, experimental, refinement or atomic coordinate data resulting 
# from the CCDC's data processing and validation procedures.
#
#######################################################################

data_UNOMIV01
_chemical_formula_moiety         'C3 H1 I3 N2,0.5(C1 H4 O1)'
_chemical_name_systematic        '2,4,5-triiodo-1H-imidazole methanol solvate'
_symmetry_cell_setting           monoclinic
_symmetry_space_group_name_H-M   'P 21/c'
_symmetry_Int_Tables_number      14
_space_group_name_Hall           '-P 2ybc'
loop_
_symmetry_equiv_pos_site_id
_symmetry_equiv_pos_as_xyz
1 x,y,z
2 -x,1/2+y,1/2-z
3 -x,-y,-z
4 x,1/2-y,1/2+z
_cell_length_a                   11.4563(3)
_cell_length_b                   9.1817(2)
_cell_length_c                   17.9844(5)
_cell_angle_alpha                90
_cell_angle_beta                 94.6221(12)
_cell_angle_gamma                90
_cell_volume                     1885.6
_exptl_crystal_colour            colorless
_exptl_crystal_description       needle
_cell_formula_units_Z            8
loop_
_atom_site_label
_atom_site_type_symbol
_atom_site_fract_x
_atom_site_fract_y
_atom_site_fract_z
I1 I 0.98582(6) 0.68602(6) 0.36424(4)
I2 I 0.82622(5) 0.06232(5) 0.32337(3)
I3 I 1.13762(5) 0.06507(5) 0.43196(3)
N1 N 0.9003(7) 0.3789(7) 0.3408(4)
H1 H 0.8345 0.4094 0.3187
N2 N 1.0783(7) 0.3850(7) 0.3987(4)
C1 C 0.9895(7) 0.4612(8) 0.3675(5)
C2 C 0.9314(9) 0.2379(8) 0.3545(5)
C3 C 1.0401(8) 0.2422(7) 0.3914(5)
I4 I 0.34493(6) 0.26663(6) 0.28624(3)
I5 I 0.62110(7) 0.74880(7) 0.44592(4)
I6 I 0.30468(7) 0.73751(7) 0.51769(3)
N3 N 0.4907(6) 0.5097(7) 0.3571(3)
N4 N 0.3126(6) 0.5044(7) 0.3982(3)
H2 H 0.2406 0.4778 0.4025
C4 C 0.3871(8) 0.4466(8) 0.3528(4)
C5 C 0.4820(8) 0.6167(8) 0.4110(4)
C6 C 0.3720(8) 0.6132(8) 0.4365(4)
O1 O 0.6834(6) 0.4565(7) 0.2769(3)
H3 H 0.6250 0.4717 0.3002
C7 C 0.6509(10) 0.3728(11) 0.2130(5)
H4 H 0.7188 0.3571 0.1850
H5 H 0.5911 0.4240 0.1819
H6 H 0.6204 0.2796 0.2279
loop_
_geom_bond_atom_site_label_1
_geom_bond_atom_site_label_2
_geom_bond_site_symmetry_1
_geom_bond_site_symmetry_2
I1 C1 1_555 1_555
I2 C2 1_555 1_555
I3 C3 1_555 1_555
N1 H1 1_555 1_555
N2 C1 1_555 1_555
C1 N1 1_555 1_555
C2 N1 1_555 1_555
C3 N2 1_555 1_555
I4 C4 1_555 1_555
I5 C5 1_555 1_555
I6 C6 1_555 1_555
N3 C4 1_555 1_555
N4 H2 1_555 1_555
C4 N4 1_555 1_555
C5 N3 1_555 1_555
C6 N4 1_555 1_555
O1 H3 1_555 1_555
C7 O1 1_555 1_555
H4 C7 1_555 1_555
H5 C7 1_555 1_555
H6 C7 1_555 1_555
C2 C3 1_555 1_555
C5 C6 1_555 1_555

#END
