
#######################################################################
#
#                 Cambridge Crystallographic Data Centre
#                                CCDC 
#
#######################################################################
#
# If this CIF has been generated from an entry in the Cambridge 
# Structural Database, then it will include bibliographic, chemical, 
# crystal, experimental, refinement or atomic coordinate data resulting 
# from the CCDC's data processing and validation procedures.
#
#######################################################################

data_UNORIA
_chemical_formula_moiety         'C24 H38 O6'
_chemical_name_systematic        '4,11-dihydroxytax-12-ene-2,5-diyl diacetate'
_symmetry_cell_setting           monoclinic
_symmetry_space_group_name_H-M   'P 21/n'
_symmetry_Int_Tables_number      14
_space_group_name_Hall           '-P 2yn'
loop_
_symmetry_equiv_pos_site_id
_symmetry_equiv_pos_as_xyz
1 x,y,z
2 1/2-x,1/2+y,1/2-z
3 -x,-y,-z
4 1/2+x,1/2-y,1/2+z
_cell_length_a                   9.9204(8)
_cell_length_b                   13.3661(10)
_cell_length_c                   17.3465(12)
_cell_angle_alpha                90
_cell_angle_beta                 95.894(3)
_cell_angle_gamma                90
_cell_volume                     2287.94
_exptl_crystal_colour            colorless
_exptl_crystal_description       block
_cell_formula_units_Z            4
_exptl_crystal_recrystallization_method 'Re-crystallisation from solvent:'
loop_
_atom_site_label
_atom_site_type_symbol
_atom_site_fract_x
_atom_site_fract_y
_atom_site_fract_z
O1 O 0.20108(12) 0.58088(8) 0.07468(6)
O2 O 0.73876(12) 0.63165(9) 0.37551(6)
H1 H 0.781(2) 0.5783(16) 0.3757(11)
O3 O 0.61388(11) 0.78263(8) 0.06274(6)
O4 O 0.62974(13) 0.94006(9) 0.10870(7)
O5 O 0.34096(12) 0.82395(8) 0.02625(7)
H2 H 0.306(2) 0.8275(15) -0.0198(12)
O6 O 0.12229(13) 0.52784(10) -0.04517(7)
C1 C 0.1813(2) 0.40793(14) 0.05597(12)
H3 H 0.1641 0.3574 0.0152
H4 H 0.1174 0.3988 0.0949
H5 H 0.2742 0.4007 0.0806
C2 C 0.16344(17) 0.51009(13) 0.02120(10)
C3 C 0.19947(17) 0.68581(12) 0.05155(9)
H6 H 0.1486 0.6931 -0.0010
C4 C 0.34685(16) 0.72090(12) 0.04889(9)
C5 C 0.42506(16) 0.71171(12) 0.13118(9)
H7 H 0.4249 0.6385 0.1431
C6 C 0.35359(16) 0.76206(12) 0.19796(9)
C7 C 0.40848(16) 0.71917(13) 0.27881(9)
H8 H 0.3520 0.7491 0.3167
H9 H 0.3873 0.6468 0.2771
C8 C 0.55671(17) 0.72812(12) 0.31510(9)
H10 H 0.5553 0.7352 0.3718
H11 H 0.5939 0.7912 0.2961
C9 C 0.65881(16) 0.64235(12) 0.30085(9)
C10 C 0.58209(17) 0.54531(12) 0.28245(9)
C11 C 0.52002(19) 0.49569(13) 0.34868(10)
H12 H 0.4537 0.4456 0.3281
H13 H 0.4748 0.5463 0.3778
H14 H 0.5913 0.4630 0.3831
C12 C 0.12813(17) 0.74407(13) 0.11000(9)
H15 H 0.0338 0.7199 0.1098
H16 H 0.1252 0.8158 0.0958
C13 C 0.20270(17) 0.73117(13) 0.19061(9)
H17 H 0.1968 0.6601 0.2059
H18 H 0.1557 0.7713 0.2277
C14 C 0.56708(17) 0.50778(12) 0.21123(9)
H19 H 0.5116 0.4501 0.2026
C15 C 0.63083(17) 0.54939(12) 0.14350(9)
H20 H 0.5632 0.5484 0.0974
H21 H 0.7071 0.5057 0.1325
C16 C 0.68350(16) 0.65645(12) 0.15656(9)
H22 H 0.7545 0.6656 0.1202
C17 C 0.75839(16) 0.66500(12) 0.23914(9)
C18 C 0.82736(17) 0.76738(12) 0.25199(10)
H23 H 0.8707 0.7716 0.3053
H24 H 0.7594 0.8205 0.2432
H25 H 0.8960 0.7754 0.2157
C19 C 0.87406(17) 0.58698(12) 0.24527(10)
H26 H 0.9224 0.5905 0.1988
H27 H 0.8359 0.5198 0.2496
H28 H 0.9372 0.6011 0.2912
C20 C 0.57760(16) 0.74094(11) 0.13645(9)
H29 H 0.5937 0.7942 0.1769
C21 C 0.63147(17) 0.88133(12) 0.05592(10)
C22 C 0.6551(2) 0.90894(14) -0.02522(10)
H30 H 0.5685 0.9095 -0.0579
H31 H 0.7159 0.8599 -0.0455
H32 H 0.6965 0.9755 -0.0254
C23 C 0.40759(17) 0.65788(12) -0.01288(9)
H33 H 0.3510 0.6643 -0.0624
H34 H 0.4112 0.5876 0.0032
H35 H 0.4994 0.6816 -0.0189
C24 C 0.36332(18) 0.87695(12) 0.19945(10)
H36 H 0.3234 0.9039 0.1497
H37 H 0.4587 0.8970 0.2083
H38 H 0.3140 0.9031 0.2413
loop_
_geom_bond_atom_site_label_1
_geom_bond_atom_site_label_2
_geom_bond_site_symmetry_1
_geom_bond_site_symmetry_2
O1 C2 1_555 1_555
O2 H1 1_555 1_555
O3 C20 1_555 1_555
O4 C21 1_555 1_555
O5 H2 1_555 1_555
O6 C2 1_555 1_555
C1 H3 1_555 1_555
H4 C1 1_555 1_555
H5 C1 1_555 1_555
C2 C1 1_555 1_555
C3 O1 1_555 1_555
H6 C3 1_555 1_555
C4 O5 1_555 1_555
C5 C4 1_555 1_555
H7 C5 1_555 1_555
C6 C5 1_555 1_555
C7 C6 1_555 1_555
H8 C7 1_555 1_555
H9 C7 1_555 1_555
C8 C7 1_555 1_555
H10 C8 1_555 1_555
H11 C8 1_555 1_555
C9 O2 1_555 1_555
C10 C9 1_555 1_555
C11 C10 1_555 1_555
H12 C11 1_555 1_555
H13 C11 1_555 1_555
H14 C11 1_555 1_555
C12 C3 1_555 1_555
H15 C12 1_555 1_555
H16 C12 1_555 1_555
C13 C6 1_555 1_555
H17 C13 1_555 1_555
H18 C13 1_555 1_555
C14 C10 1_555 1_555
H19 C14 1_555 1_555
C15 C14 1_555 1_555
H20 C15 1_555 1_555
H21 C15 1_555 1_555
C16 C15 1_555 1_555
H22 C16 1_555 1_555
C17 C9 1_555 1_555
C18 C17 1_555 1_555
H23 C18 1_555 1_555
H24 C18 1_555 1_555
H25 C18 1_555 1_555
C19 C17 1_555 1_555
H26 C19 1_555 1_555
H27 C19 1_555 1_555
H28 C19 1_555 1_555
C20 C5 1_555 1_555
H29 C20 1_555 1_555
C21 O3 1_555 1_555
C22 C21 1_555 1_555
H30 C22 1_555 1_555
H31 C22 1_555 1_555
H32 C22 1_555 1_555
C23 C4 1_555 1_555
H33 C23 1_555 1_555
H34 C23 1_555 1_555
H35 C23 1_555 1_555
C24 C6 1_555 1_555
H36 C24 1_555 1_555
H37 C24 1_555 1_555
H38 C24 1_555 1_555
C3 C4 1_555 1_555
C8 C9 1_555 1_555
C12 C13 1_555 1_555
C16 C17 1_555 1_555
C16 C20 1_555 1_555

#END
