
#######################################################################
#
#                 Cambridge Crystallographic Data Centre
#                                CCDC 
#
#######################################################################
#
# If this CIF has been generated from an entry in the Cambridge 
# Structural Database, then it will include bibliographic, chemical, 
# crystal, experimental, refinement or atomic coordinate data resulting 
# from the CCDC's data processing and validation procedures.
#
#######################################################################

data_UNOXUS
_chemical_formula_moiety         'C30 H32 O4 Si1'
_chemical_name_systematic        
(2-(3,4-dimethoxyphenyl)-5-phenyl-3-((trimethylsilyl)ethynyl)tetrahydrofuran-3-yl)(phenyl)methanone
_symmetry_cell_setting           triclinic
_symmetry_space_group_name_H-M   'P -1'
_symmetry_Int_Tables_number      2
_space_group_name_Hall           '-P 1'
loop_
_symmetry_equiv_pos_site_id
_symmetry_equiv_pos_as_xyz
1 x,y,z
2 -x,-y,-z
_cell_length_a                   11.826(2)
_cell_length_b                   21.161(4)
_cell_length_c                   24.251(5)
_cell_angle_alpha                65.82(3)
_cell_angle_beta                 89.10(3)
_cell_angle_gamma                81.54(3)
_cell_volume                     5469.43
_exptl_crystal_colour            colorless
_exptl_crystal_description       prism
_cell_formula_units_Z            8
loop_
_atom_site_label
_atom_site_type_symbol
_atom_site_fract_x
_atom_site_fract_y
_atom_site_fract_z
Si1 Si 0.79419(8) 0.45957(5) -0.12702(4)
O1 O 0.86704(13) 0.26918(9) 0.12382(8)
O2 O 1.12042(13) 0.19322(9) 0.02673(8)
O3 O 0.82620(14) -0.00490(8) 0.11419(7)
O4 O 0.99105(14) -0.06091(9) 0.19591(7)
C1 C 0.9216(2) 0.31768(15) 0.21079(13)
H1 H 0.8420 0.3236 0.2016
C2 C 0.9587(3) 0.31604(16) 0.26525(14)
H2 H 0.9041 0.3213 0.2928
C3 C 1.0734(3) 0.30688(16) 0.28009(14)
H3 H 1.0984 0.3061 0.3174
C4 C 1.1513(3) 0.29894(15) 0.23974(13)
H4 H 1.2309 0.2917 0.2496
C5 C 1.1145(2) 0.30139(14) 0.18466(12)
H5 H 1.1692 0.2966 0.1570
C6 C 0.9989(2) 0.31078(13) 0.16979(12)
C7 C 0.9555(2) 0.31341(13) 0.11125(12)
H6 H 0.9202 0.3627 0.0855
C8 C 1.03888(19) 0.28777(13) 0.07345(11)
H7 H 1.0932 0.2460 0.0994
H8 H 1.0824 0.3250 0.0478
C9 C 0.95869(19) 0.26962(13) 0.03499(11)
C10 C 0.8699(2) 0.23479(12) 0.08375(11)
H9 H 0.7925 0.2450 0.0632
C11 C 0.90320(19) 0.15657(12) 0.11754(10)
C12 C 0.84697(19) 0.11276(12) 0.10115(10)
H10 H 0.7865 0.1329 0.0709
C13 C 0.8773(2) 0.04112(13) 0.12791(11)
C14 C 0.9670(2) 0.01074(13) 0.17252(11)
C15 C 1.0218(2) 0.05356(13) 0.19003(11)
H11 H 1.0818 0.0335 0.2206
C16 C 0.98886(19) 0.12616(13) 0.16274(11)
H12 H 1.0260 0.1551 0.1755
C17 C 1.0854(2) -0.09343(14) 0.23929(12)
H13 H 1.1558 -0.0773 0.2205
H14 H 1.0934 -0.1445 0.2534
H15 H 1.0719 -0.0808 0.2737
C18 C 0.7416(2) 0.02513(14) 0.06581(12)
H16 H 0.6777 0.0525 0.0764
H17 H 0.7137 -0.0123 0.0585
H18 H 0.7750 0.0559 0.0292
C19 C 1.0200(2) 0.21724(13) 0.01095(11)
C20 C 0.9590(2) 0.19665(12) -0.03117(11)
C21 C 1.0190(2) 0.14690(13) -0.04946(11)
H19 H 1.0949 0.1262 -0.0336
C22 C 0.9703(2) 0.12759(14) -0.08987(12)
H20 H 1.0128 0.0946 -0.1025
C23 C 0.8588(2) 0.15638(13) -0.11227(12)
H21 H 0.8252 0.1433 -0.1405
C24 C 0.7961(2) 0.20422(13) -0.09368(11)
H22 H 0.7192 0.2233 -0.1085
C25 C 0.8467(2) 0.22386(13) -0.05339(11)
H23 H 0.8037 0.2566 -0.0406
C26 C 0.9040(2) 0.33436(14) -0.01576(12)
C27 C 0.8632(2) 0.38583(14) -0.05844(12)
C28 C 0.7604(3) 0.53708(14) -0.11077(13)
H24 H 0.7037 0.5288 -0.0796
H25 H 0.7292 0.5775 -0.1477
H26 H 0.8301 0.5465 -0.0962
C29 C 0.8963(3) 0.4787(2) -0.18976(15)
H27 H 0.9649 0.4920 -0.1779
H28 H 0.8594 0.5173 -0.2264
H29 H 0.9179 0.4368 -0.1977
C30 C 0.6626(4) 0.4329(2) -0.1449(2)
H30 H 0.6831 0.3933 -0.1561
H31 H 0.6191 0.4724 -0.1787
H32 H 0.6159 0.4190 -0.1093
Si2 Si 0.26175(6) 0.47619(4) -0.07756(4)
O5 O 0.37682(13) 0.24248(8) 0.14799(7)
O6 O 0.62432(14) 0.21876(9) 0.01928(8)
O7 O 0.32740(14) -0.01542(8) 0.11799(7)
O8 O 0.50776(14) -0.07544(9) 0.18987(8)
C31 C 0.5225(2) 0.22895(13) 0.24399(11)
H33 H 0.5053 0.1873 0.2423
C32 C 0.5722(2) 0.22572(15) 0.29656(12)
H34 H 0.5907 0.1818 0.3303
C33 C 0.5947(2) 0.28570(15) 0.30004(12)
H35 H 0.6277 0.2834 0.3364
C34 C 0.5697(2) 0.34907(15) 0.25117(12)
H36 H 0.5857 0.3906 0.2535
C35 C 0.5208(2) 0.35210(14) 0.19823(12)
H37 H 0.5029 0.3961 0.1646
C36 C 0.4977(2) 0.29204(14) 0.19378(11)
C37 C 0.4484(2) 0.29641(13) 0.13563(11)
H38 H 0.4002 0.3433 0.1144
C38 C 0.53343(19) 0.28423(13) 0.09161(10)
H39 H 0.5950 0.2444 0.1129
H40 H 0.5679 0.3267 0.0681
C39 C 0.45497(19) 0.26737(13) 0.05112(11)
C40 C 0.3783(2) 0.21976(12) 0.09970(10)
H41 H 0.2987 0.2300 0.0816
C41 C 0.41887(19) 0.14135(12) 0.12387(10)
C42 C 0.35482(19) 0.10021(12) 0.10880(10)
H42 H 0.2883 0.1219 0.0827
C43 C 0.3859(2) 0.02842(13) 0.13099(10)
C44 C 0.4846(2) -0.00428(12) 0.16994(11)
C45 C 0.5483(2) 0.03601(13) 0.18531(11)
H43 H 0.6146 0.0145 0.2116
C46 C 0.5154(2) 0.10862(13) 0.16215(11)
H44 H 0.5601 0.1361 0.1729
C47 C 0.2331(2) 0.01792(13) 0.07450(11)
H45 H 0.1748 0.0432 0.0903
H46 H 0.2001 -0.0176 0.0667
H47 H 0.2600 0.0510 0.0368
C48 C 0.6038(2) -0.11067(14) 0.23233(12)
H48 H 0.6739 -0.0945 0.2133
H49 H 0.6102 -0.1614 0.2446
H50 H 0.5926 -0.1002 0.2680
C49 C 0.5200(2) 0.22897(13) 0.01572(11)
C50 C 0.4556(2) 0.20348(13) -0.02169(11)
C51 C 0.3417(2) 0.22808(13) -0.04185(11)
H51 H 0.2994 0.2628 -0.0311
C52 C 0.2890(2) 0.20284(14) -0.07727(11)
H52 H 0.2119 0.2213 -0.0919
C53 C 0.3483(2) 0.15078(14) -0.09138(12)
H53 H 0.3119 0.1332 -0.1156
C54 C 0.4607(2) 0.12403(14) -0.07037(11)
H54 H 0.5009 0.0873 -0.0792
C55 C 0.5144(2) 0.15071(13) -0.03659(11)
H55 H 0.5923 0.1331 -0.0232
C56 C 0.3857(2) 0.33401(13) 0.00926(11)
C57 C 0.3354(2) 0.39006(14) -0.02355(12)
C58 C 0.1074(2) 0.48264(15) -0.06264(14)
H56 H 0.0774 0.4429 -0.0648
H57 H 0.0662 0.5266 -0.0930
H58 H 0.0969 0.4819 -0.0222
C59 C 0.3238(2) 0.54547(13) -0.06519(12)
H59 H 0.2979 0.5471 -0.0272
H60 H 0.2987 0.5910 -0.0988
H61 H 0.4076 0.5348 -0.0631
C60 C 0.2856(3) 0.48100(16) -0.15427(12)
H62 H 0.3679 0.4764 -0.1606
H63 H 0.2474 0.5262 -0.1841
H64 H 0.2543 0.4430 -0.1589
Si3 Si 0.69222(7) 0.54737(4) 0.58884(4)
O9 O 0.74628(13) 0.75713(9) 0.35429(8)
O10 O 0.96818(14) 0.79314(9) 0.47264(8)
O11 O 0.56548(14) 1.01711(8) 0.38535(8)
O12 O 0.71426(14) 1.07555(9) 0.30983(8)
C61 C 0.8222(2) 0.69010(14) 0.27285(13)
H65 H 0.7447 0.6847 0.2816
C62 C 0.8645(3) 0.68805(15) 0.21991(13)
H66 H 0.8160 0.6812 0.1926
C63 C 0.9769(3) 0.69591(15) 0.20664(13)
H67 H 1.0055 0.6951 0.1701
C64 C 1.0464(3) 0.70483(15) 0.24625(13)
H68 H 1.1239 0.7099 0.2373
C65 C 1.0048(2) 0.70657(14) 0.29961(12)
H69 H 1.0544 0.7124 0.3271
C66 C 0.8918(2) 0.69990(13) 0.31317(11)
C67 C 0.8426(2) 0.70082(13) 0.37059(11)
H70 H 0.8142 0.6553 0.3936
C68 C 0.91669(19) 0.71476(13) 0.41291(11)
H71 H 0.9601 0.7535 0.3906
H72 H 0.9709 0.6723 0.4378
C69 C 0.82770(19) 0.73523(13) 0.45174(11)
C70 C 0.7286(2) 0.78077(12) 0.40188(11)
H73 H 0.6528 0.7705 0.4193
C71 C 0.72914(19) 0.85902(12) 0.37592(10)
C72 C 0.64705(19) 0.90063(13) 0.39365(10)
H74 H 0.5926 0.8793 0.4217
C73 C 0.6439(2) 0.97233(13) 0.37094(11)
C74 C 0.7242(2) 1.00438(13) 0.32944(11)
C75 C 0.8043(2) 0.96350(13) 0.31137(11)
H75 H 0.8588 0.9847 0.2832
C76 C 0.8062(2) 0.89114(13) 0.33406(11)
H76 H 0.8611 0.8637 0.3206
C77 C 0.4864(2) 0.98487(13) 0.42979(11)
H77 H 0.4379 0.9617 0.4140
H78 H 0.4383 1.0208 0.4391
H79 H 0.5288 0.9501 0.4667
C78 C 0.7939(2) 1.10921(14) 0.26648(12)
H80 H 0.8720 1.0912 0.2844
H81 H 0.7779 1.1599 0.2548
H82 H 0.7863 1.0995 0.2306
C79 C 0.8727(2) 0.77751(13) 0.48303(11)
C80 C 0.80224(19) 0.79908(12) 0.52627(10)
C81 C 0.8448(2) 0.84298(13) 0.54778(11)
H83 H 0.9144 0.8597 0.5332
C82 C 0.7883(2) 0.86286(14) 0.58978(12)
H84 H 0.8184 0.8930 0.6039
C83 C 0.6868(2) 0.83799(14) 0.61099(12)
H85 H 0.6481 0.8500 0.6408
C84 C 0.6420(2) 0.79601(14) 0.58894(12)
H86 H 0.5715 0.7802 0.6030
C85 C 0.6981(2) 0.77652(13) 0.54651(11)
H87 H 0.6660 0.7479 0.5313
C86 C 0.7889(2) 0.67122(13) 0.49671(11)
C87 C 0.7576(2) 0.61950(14) 0.53237(12)
C88 C 0.5965(3) 0.51942(16) 0.54522(14)
H88 H 0.5382 0.5592 0.5214
H89 H 0.5590 0.4812 0.5734
H90 H 0.6420 0.5033 0.5180
C89 C 0.8035(3) 0.47451(16) 0.63321(15)
H91 H 0.8450 0.4559 0.6064
H92 H 0.7680 0.4374 0.6642
H93 H 0.8569 0.4912 0.6527
C90 C 0.6067(3) 0.5835(2) 0.63616(17)
H94 H 0.6565 0.6019 0.6560
H95 H 0.5708 0.5464 0.6669
H96 H 0.5473 0.6214 0.6108
Si4 Si 0.18185(8) 0.54609(5) 0.58940(4)
O13 O 0.23512(13) 0.75296(8) 0.35265(7)
O14 O 0.47487(15) 0.77652(11) 0.47345(8)
O15 O 0.06422(14) 1.01089(8) 0.38454(7)
O16 O 0.21166(15) 1.07027(9) 0.30741(8)
C91 C 0.3748(2) 0.76851(13) 0.25517(11)
H97 H 0.3332 0.8092 0.2575
C92 C 0.4278(2) 0.77401(14) 0.20254(12)
H98 H 0.4233 0.8185 0.1694
C93 C 0.4872(2) 0.71544(15) 0.19780(12)
H99 H 0.5245 0.7194 0.1618
C94 C 0.4917(2) 0.65177(16) 0.24533(13)
H100 H 0.5304 0.6109 0.2420
C95 C 0.4402(2) 0.64617(15) 0.29845(13)
H101 H 0.4452 0.6015 0.3314
C96 C 0.3815(2) 0.70454(13) 0.30452(11)
C97 C 0.3310(2) 0.69797(13) 0.36367(11)
H102 H 0.3043 0.6514 0.3837
C98 C 0.4108(2) 0.70673(14) 0.40753(11)
H103 H 0.4570 0.7443 0.3862
H104 H 0.4627 0.6625 0.4308
C99 C 0.3266(2) 0.72681(13) 0.44862(11)
C100 C 0.22731(19) 0.77568(12) 0.40086(10)
H105 H 0.1523 0.7669 0.4199
C101 C 0.2319(2) 0.85323(13) 0.37634(10)
C102 C 0.14778(19) 0.89524(12) 0.39262(10)
H106 H 0.0917 0.8740 0.4196
C103 C 0.1444(2) 0.96641(13) 0.37047(11)
C104 C 0.2246(2) 0.99891(13) 0.32887(11)
C105 C 0.3090(2) 0.95724(14) 0.31352(11)
H107 H 0.3652 0.9783 0.2866
C106 C 0.3126(2) 0.88500(13) 0.33701(11)
H108 H 0.3712 0.8572 0.3259
C107 C -0.0095(2) 0.97730(14) 0.43165(12)
H109 H -0.0572 0.9517 0.4182
H110 H -0.0586 1.0128 0.4410
H111 H 0.0369 0.9445 0.4679
C108 C 0.2891(2) 1.10439(14) 0.26244(12)
H112 H 0.3678 1.0887 0.2798
H113 H 0.2702 1.1553 0.2491
H114 H 0.2822 1.0924 0.2278
C109 C 0.3763(2) 0.76619(14) 0.48111(11)
C110 C 0.3053(2) 0.79397(13) 0.52007(11)
C111 C 0.3425(2) 0.84643(14) 0.53252(12)
H115 H 0.4114 0.8631 0.5163
C112 C 0.2810(3) 0.87454(14) 0.56807(12)
H116 H 0.3061 0.9114 0.5750
C113 C 0.1829(3) 0.84895(15) 0.59359(12)
H117 H 0.1421 0.8669 0.6195
C114 C 0.1443(2) 0.79756(15) 0.58144(12)
H118 H 0.0767 0.7802 0.5989
C115 C 0.2031(2) 0.77100(13) 0.54392(11)
H119 H 0.1739 0.7370 0.5343
C116 C 0.2848(2) 0.66343(14) 0.49253(11)
C117 C 0.2483(2) 0.61372(15) 0.52860(13)
C118 C 0.0994(3) 0.50119(18) 0.55667(16)
H120 H 0.1509 0.4785 0.5358
H121 H 0.0401 0.5355 0.5277
H122 H 0.0635 0.4657 0.5890
C119 C 0.2928(3) 0.4859(2) 0.6419(2)
H123 H 0.3474 0.4654 0.6207
H124 H 0.2592 0.4485 0.6738
H125 H 0.3325 0.5107 0.6601
C120 C 0.0788(3) 0.5936(2) 0.62330(16)
H126 H 0.0438 0.5597 0.6574
H127 H 0.0190 0.6245 0.5927
H128 H 0.1192 0.6217 0.6377
loop_
_geom_bond_atom_site_label_1
_geom_bond_atom_site_label_2
_geom_bond_site_symmetry_1
_geom_bond_site_symmetry_2
Si1 C27 1_555 1_555
O1 C7 1_555 1_555
O2 C19 1_555 1_555
O3 C13 1_555 1_555
O4 C14 1_555 1_555
C1 H1 1_555 1_555
C2 C1 1_555 1_555
H2 C2 1_555 1_555
C3 C2 1_555 1_555
H3 C3 1_555 1_555
C4 C3 1_555 1_555
H4 C4 1_555 1_555
C5 C4 1_555 1_555
H5 C5 1_555 1_555
C6 C1 1_555 1_555
C7 C6 1_555 1_555
H6 C7 1_555 1_555
C8 C7 1_555 1_555
H7 C8 1_555 1_555
H8 C8 1_555 1_555
C9 C8 1_555 1_555
C10 O1 1_555 1_555
H9 C10 1_555 1_555
C11 C10 1_555 1_555
C12 C11 1_555 1_555
H10 C12 1_555 1_555
C13 C12 1_555 1_555
C14 C13 1_555 1_555
C15 C14 1_555 1_555
H11 C15 1_555 1_555
C16 C11 1_555 1_555
H12 C16 1_555 1_555
C17 O4 1_555 1_555
H13 C17 1_555 1_555
H14 C17 1_555 1_555
H15 C17 1_555 1_555
C18 O3 1_555 1_555
H16 C18 1_555 1_555
H17 C18 1_555 1_555
H18 C18 1_555 1_555
C19 C9 1_555 1_555
C20 C19 1_555 1_555
C21 C20 1_555 1_555
H19 C21 1_555 1_555
C22 C21 1_555 1_555
H20 C22 1_555 1_555
C23 C22 1_555 1_555
H21 C23 1_555 1_555
C24 C23 1_555 1_555
H22 C24 1_555 1_555
C25 C20 1_555 1_555
H23 C25 1_555 1_555
C26 C9 1_555 1_555
C27 C26 1_555 1_555
C28 Si1 1_555 1_555
H24 C28 1_555 1_555
H25 C28 1_555 1_555
H26 C28 1_555 1_555
C29 Si1 1_555 1_555
H27 C29 1_555 1_555
H28 C29 1_555 1_555
H29 C29 1_555 1_555
C30 Si1 1_555 1_555
H30 C30 1_555 1_555
H31 C30 1_555 1_555
H32 C30 1_555 1_555
Si2 C57 1_555 1_555
O5 C37 1_555 1_555
O6 C49 1_555 1_555
O7 C43 1_555 1_555
O8 C44 1_555 1_555
C31 H33 1_555 1_555
C32 C31 1_555 1_555
H34 C32 1_555 1_555
C33 C32 1_555 1_555
H35 C33 1_555 1_555
C34 C33 1_555 1_555
H36 C34 1_555 1_555
C35 C34 1_555 1_555
H37 C35 1_555 1_555
C36 C31 1_555 1_555
C37 C36 1_555 1_555
H38 C37 1_555 1_555
C38 C37 1_555 1_555
H39 C38 1_555 1_555
H40 C38 1_555 1_555
C39 C38 1_555 1_555
C40 O5 1_555 1_555
H41 C40 1_555 1_555
C41 C40 1_555 1_555
C42 C41 1_555 1_555
H42 C42 1_555 1_555
C43 C42 1_555 1_555
C44 C43 1_555 1_555
C45 C44 1_555 1_555
H43 C45 1_555 1_555
C46 C41 1_555 1_555
H44 C46 1_555 1_555
C47 O7 1_555 1_555
H45 C47 1_555 1_555
H46 C47 1_555 1_555
H47 C47 1_555 1_555
C48 O8 1_555 1_555
H48 C48 1_555 1_555
H49 C48 1_555 1_555
H50 C48 1_555 1_555
C49 C39 1_555 1_555
C50 C49 1_555 1_555
C51 C50 1_555 1_555
H51 C51 1_555 1_555
C52 C51 1_555 1_555
H52 C52 1_555 1_555
C53 C52 1_555 1_555
H53 C53 1_555 1_555
C54 C53 1_555 1_555
H54 C54 1_555 1_555
C55 C50 1_555 1_555
H55 C55 1_555 1_555
C56 C39 1_555 1_555
C57 C56 1_555 1_555
C58 Si2 1_555 1_555
H56 C58 1_555 1_555
H57 C58 1_555 1_555
H58 C58 1_555 1_555
C59 Si2 1_555 1_555
H59 C59 1_555 1_555
H60 C59 1_555 1_555
H61 C59 1_555 1_555
C60 Si2 1_555 1_555
H62 C60 1_555 1_555
H63 C60 1_555 1_555
H64 C60 1_555 1_555
Si3 C87 1_555 1_555
O9 C67 1_555 1_555
O10 C79 1_555 1_555
O11 C73 1_555 1_555
O12 C74 1_555 1_555
C61 H65 1_555 1_555
C62 C61 1_555 1_555
H66 C62 1_555 1_555
C63 C62 1_555 1_555
H67 C63 1_555 1_555
C64 C63 1_555 1_555
H68 C64 1_555 1_555
C65 C64 1_555 1_555
H69 C65 1_555 1_555
C66 C61 1_555 1_555
C67 C66 1_555 1_555
H70 C67 1_555 1_555
C68 C67 1_555 1_555
H71 C68 1_555 1_555
H72 C68 1_555 1_555
C69 C68 1_555 1_555
C70 O9 1_555 1_555
H73 C70 1_555 1_555
C71 C70 1_555 1_555
C72 C71 1_555 1_555
H74 C72 1_555 1_555
C73 C72 1_555 1_555
C74 C73 1_555 1_555
C75 C74 1_555 1_555
H75 C75 1_555 1_555
C76 C71 1_555 1_555
H76 C76 1_555 1_555
C77 O11 1_555 1_555
H77 C77 1_555 1_555
H78 C77 1_555 1_555
H79 C77 1_555 1_555
C78 O12 1_555 1_555
H80 C78 1_555 1_555
H81 C78 1_555 1_555
H82 C78 1_555 1_555
C79 C69 1_555 1_555
C80 C79 1_555 1_555
C81 C80 1_555 1_555
H83 C81 1_555 1_555
C82 C81 1_555 1_555
H84 C82 1_555 1_555
C83 C82 1_555 1_555
H85 C83 1_555 1_555
C84 C83 1_555 1_555
H86 C84 1_555 1_555
C85 C80 1_555 1_555
H87 C85 1_555 1_555
C86 C69 1_555 1_555
C87 C86 1_555 1_555
C88 Si3 1_555 1_555
H88 C88 1_555 1_555
H89 C88 1_555 1_555
H90 C88 1_555 1_555
C89 Si3 1_555 1_555
H91 C89 1_555 1_555
H92 C89 1_555 1_555
H93 C89 1_555 1_555
C90 Si3 1_555 1_555
H94 C90 1_555 1_555
H95 C90 1_555 1_555
H96 C90 1_555 1_555
Si4 C117 1_555 1_555
O13 C97 1_555 1_555
O14 C109 1_555 1_555
O15 C103 1_555 1_555
O16 C104 1_555 1_555
C91 H97 1_555 1_555
C92 C91 1_555 1_555
H98 C92 1_555 1_555
C93 C92 1_555 1_555
H99 C93 1_555 1_555
C94 C93 1_555 1_555
H100 C94 1_555 1_555
C95 C94 1_555 1_555
H101 C95 1_555 1_555
C96 C91 1_555 1_555
C97 C96 1_555 1_555
H102 C97 1_555 1_555
C98 C97 1_555 1_555
H103 C98 1_555 1_555
H104 C98 1_555 1_555
C99 C98 1_555 1_555
C100 O13 1_555 1_555
H105 C100 1_555 1_555
C101 C100 1_555 1_555
C102 C101 1_555 1_555
H106 C102 1_555 1_555
C103 C102 1_555 1_555
C104 C103 1_555 1_555
C105 C104 1_555 1_555
H107 C105 1_555 1_555
C106 C101 1_555 1_555
H108 C106 1_555 1_555
C107 O15 1_555 1_555
H109 C107 1_555 1_555
H110 C107 1_555 1_555
H111 C107 1_555 1_555
C108 O16 1_555 1_555
H112 C108 1_555 1_555
H113 C108 1_555 1_555
H114 C108 1_555 1_555
C109 C99 1_555 1_555
C110 C109 1_555 1_555
C111 C110 1_555 1_555
H115 C111 1_555 1_555
C112 C111 1_555 1_555
H116 C112 1_555 1_555
C113 C112 1_555 1_555
H117 C113 1_555 1_555
C114 C113 1_555 1_555
H118 C114 1_555 1_555
C115 C110 1_555 1_555
H119 C115 1_555 1_555
C116 C99 1_555 1_555
C117 C116 1_555 1_555
C118 Si4 1_555 1_555
H120 C118 1_555 1_555
H121 C118 1_555 1_555
H122 C118 1_555 1_555
C119 Si4 1_555 1_555
H123 C119 1_555 1_555
H124 C119 1_555 1_555
H125 C119 1_555 1_555
C120 Si4 1_555 1_555
H126 C120 1_555 1_555
H127 C120 1_555 1_555
H128 C120 1_555 1_555
C5 C6 1_555 1_555
C9 C10 1_555 1_555
C15 C16 1_555 1_555
C24 C25 1_555 1_555
C35 C36 1_555 1_555
C39 C40 1_555 1_555
C45 C46 1_555 1_555
C54 C55 1_555 1_555
C65 C66 1_555 1_555
C69 C70 1_555 1_555
C75 C76 1_555 1_555
C84 C85 1_555 1_555
C95 C96 1_555 1_555
C99 C100 1_555 1_555
C105 C106 1_555 1_555
C114 C115 1_555 1_555

#END
