
#######################################################################
#
#                 Cambridge Crystallographic Data Centre
#                                CCDC 
#
#######################################################################
#
# If this CIF has been generated from an entry in the Cambridge 
# Structural Database, then it will include bibliographic, chemical, 
# crystal, experimental, refinement or atomic coordinate data resulting 
# from the CCDC's data processing and validation procedures.
#
#######################################################################

data_UNUQIE
_chemical_name_common            
N'-Hydroxy-4-(trifluoromethyl)benzenecarboximidamide
_chemical_formula_moiety         'C8 H7 F3 N2 O1'
_chemical_name_systematic        
N'-hydroxy-4-(trifluoromethyl)benzene-1-carboximidamide
_symmetry_cell_setting           monoclinic
_symmetry_space_group_name_H-M   'P 21/c'
_symmetry_Int_Tables_number      14
_space_group_name_Hall           '-P 2ybc'
loop_
_symmetry_equiv_pos_site_id
_symmetry_equiv_pos_as_xyz
1 x,y,z
2 -x,1/2+y,1/2-z
3 -x,-y,-z
4 x,1/2-y,1/2+z
_cell_length_a                   9.8706(8)
_cell_length_b                   11.2540(12)
_cell_length_c                   8.4033(7)
_cell_angle_alpha                90
_cell_angle_beta                 104.61(2)
_cell_angle_gamma                90
_cell_volume                     903.286
_exptl_crystal_colour            colorless
_exptl_crystal_description       'irregular block'
_cell_formula_units_Z            4
loop_
_atom_site_label
_atom_site_type_symbol
_atom_site_fract_x
_atom_site_fract_y
_atom_site_fract_z
C1 C -0.0030(2) 0.6553(2) 0.2394(3)
F1 F -0.0355(6) 0.7584(3) 0.1633(6)
F2 F -0.0071(5) 0.5782(6) 0.1205(6)
F3 F -0.1063(3) 0.6322(8) 0.3082(5)
C2 C 0.1369(2) 0.65458(19) 0.3615(3)
C3 C 0.2008(2) 0.7593(2) 0.4227(3)
H1 H 0.1607 0.8316 0.3828
C4 C 0.3252(2) 0.75674(18) 0.5442(3)
H2 H 0.3685 0.8276 0.5857
C5 C 0.3858(2) 0.64908(16) 0.6046(2)
C6 C 0.5128(2) 0.64594(16) 0.7435(2)
N1 N 0.6164(2) 0.72612(19) 0.7499(3)
H3 H 0.620(3) 0.764(3) 0.665(4)
H4 H 0.689(3) 0.717(2) 0.830(4)
N2 N 0.51210(16) 0.56917(14) 0.85708(19)
O1 O 0.63766(15) 0.57836(13) 0.98654(18)
H5 H 0.618(3) 0.532(2) 1.059(3)
C7 C 0.3222(2) 0.54448(19) 0.5390(3)
H6 H 0.3633 0.4720 0.5765
C8 C 0.1980(2) 0.5470(2) 0.4181(3)
H7 H 0.1554 0.4763 0.3747
F4? F -0.082(2) 0.564(2) 0.260(3)
F5? F -0.0726(17) 0.7557(13) 0.244(4)
F6? F -0.0132(15) 0.629(2) 0.0833(8)
loop_
_geom_bond_atom_site_label_1
_geom_bond_atom_site_label_2
_geom_bond_site_symmetry_1
_geom_bond_site_symmetry_2
C1 F1 1_555 1_555
F2 C1 1_555 1_555
F3 C1 1_555 1_555
C2 C1 1_555 1_555
C3 C2 1_555 1_555
H1 C3 1_555 1_555
C4 C3 1_555 1_555
H2 C4 1_555 1_555
C5 C4 1_555 1_555
C6 C5 1_555 1_555
N1 C6 1_555 1_555
H3 N1 1_555 1_555
H4 N1 1_555 1_555
N2 C6 1_555 1_555
O1 N2 1_555 1_555
H5 O1 1_555 1_555
C7 C5 1_555 1_555
H6 C7 1_555 1_555
C8 C2 1_555 1_555
H7 C8 1_555 1_555
C7 C8 1_555 1_555

#END
