
#######################################################################
#
#                 Cambridge Crystallographic Data Centre
#                                CCDC 
#
#######################################################################
#
# If this CIF has been generated from an entry in the Cambridge 
# Structural Database, then it will include bibliographic, chemical, 
# crystal, experimental, refinement or atomic coordinate data resulting 
# from the CCDC's data processing and validation procedures.
#
#######################################################################

data_UNURAX
_chemical_formula_moiety         'C11 H16 Br1 N1 O3'
_chemical_name_systematic        
3-Bromo-5-methoxy-4-(4-methylpiperidin-1-yl)furan-2(5H)-one
_symmetry_cell_setting           monoclinic
_symmetry_space_group_name_H-M   'P 21/c'
_symmetry_Int_Tables_number      14
_space_group_name_Hall           '-P 2ybc'
loop_
_symmetry_equiv_pos_site_id
_symmetry_equiv_pos_as_xyz
1 x,y,z
2 -x,1/2+y,1/2-z
3 -x,-y,-z
4 x,1/2-y,1/2+z
_cell_length_a                   12.681(3)
_cell_length_b                   10.481(2)
_cell_length_c                   19.947(4)
_cell_angle_alpha                90
_cell_angle_beta                 103.312(3)
_cell_angle_gamma                90
_cell_volume                     2579.91
_exptl_crystal_colour            colorless
_exptl_crystal_description       block
_cell_formula_units_Z            8
loop_
_atom_site_label
_atom_site_type_symbol
_atom_site_fract_x
_atom_site_fract_y
_atom_site_fract_z
Br1 Br 1.00048(5) 1.05226(7) 0.10092(4)
O4 O 0.7183(3) 1.0359(4) 0.1600(2)
O5 O 0.7657(3) 0.8990(4) 0.25277(19)
O6 O 0.7896(4) 1.2032(4) 0.1166(2)
C12 C 0.8835(4) 1.0052(7) 0.1380(3)
C13 C 0.7516(4) 0.9100(6) 0.1824(3)
H17 H 0.6996 0.8466 0.1583
C14 C 0.6662(5) 0.8945(7) 0.2747(3)
H18 H 0.6295 0.9749 0.2652
H19 H 0.6811 0.8776 0.3233
H20 H 0.6212 0.8280 0.2503
C15 C 0.7992(5) 1.0965(8) 0.1355(3)
C16 C 0.8619(4) 0.8930(8) 0.1651(3)
N2 N 0.9149(4) 0.7825(6) 0.1810(3)
C17 C 0.8795(5) 0.5583(6) 0.1524(4)
H21 H 0.8384 0.5771 0.1061
H22 H 0.8503 0.4808 0.1676
C18 C 0.9979(5) 0.5364(7) 0.1510(3)
H23 H 1.0364 0.5084 0.1970
C19 C 0.8655(5) 0.6668(7) 0.1997(3)
H24 H 0.7889 0.6814 0.1964
H25 H 0.8989 0.6443 0.2470
C20 C 1.0304(4) 0.7653(6) 0.1837(4)
H26 H 1.0684 0.7449 0.2305
H27 H 1.0602 0.8442 0.1705
C21 C 1.0469(5) 0.6595(7) 0.1359(4)
H28 H 1.0150 0.6843 0.0888
H29 H 1.1240 0.6473 0.1401
C22 C 1.0082(6) 0.4312(7) 0.0999(4)
H30 H 0.9635 0.4515 0.0554
H31 H 0.9853 0.3515 0.1155
H32 H 1.0824 0.4246 0.0966
Br2 Br 0.31941(5) 0.60499(6) 0.02155(3)
O1 O 0.6037(3) 0.5375(5) 0.1551(2)
O2 O 0.5606(3) 0.3404(4) 0.1959(2)
O3 O 0.5209(4) 0.7230(5) 0.1260(2)
C1 C 0.5192(6) 0.6083(8) 0.1194(3)
C2 C 0.4753(4) 0.4075(7) 0.0838(3)
C3 C 0.4409(5) 0.5293(7) 0.0769(3)
C4 C 0.5806(4) 0.4055(7) 0.1396(3)
H1 H 0.6391 0.3649 0.1227
C5 C 0.6544(5) 0.3198(6) 0.2495(3)
H2 H 0.6972 0.2529 0.2363
H3 H 0.6330 0.2958 0.2908
H4 H 0.6963 0.3969 0.2574
N1 N 0.4366(3) 0.2963(5) 0.0557(2)
C6 C 0.2661(4) 0.1774(6) 0.0317(3)
H5 H 0.1984 0.1664 -0.0022
H6 H 0.2488 0.2032 0.0746
C7 C 0.3293(4) 0.2803(6) 0.0083(3)
H7 H 0.3388 0.2601 -0.0374
H8 H 0.2894 0.3598 0.0055
C8 C 0.2606(5) -0.0513(6) 0.0690(3)
H9 H 0.2400 -0.0211 0.1096
H10 H 0.3043 -0.1265 0.0800
H11 H 0.1967 -0.0712 0.0342
C9 C 0.4353(4) 0.0719(6) 0.0911(3)
H12 H 0.4256 0.0943 0.1365
H13 H 0.4767 -0.0066 0.0952
C10 C 0.3248(4) 0.0513(6) 0.0424(3)
H14 H 0.3367 0.0231 -0.0021
C11 C 0.4969(4) 0.1773(6) 0.0647(3)
H15 H 0.5659 0.1904 0.0970
H16 H 0.5113 0.1517 0.0209
loop_
_geom_bond_atom_site_label_1
_geom_bond_atom_site_label_2
_geom_bond_site_symmetry_1
_geom_bond_site_symmetry_2
Br1 C12 1_555 1_555
Br2 C3 1_555 1_555
O1 C1 1_555 1_555
O2 C4 1_555 1_555
O3 C1 1_555 1_555
C1 C3 1_555 1_555
C2 C3 1_555 1_555
C4 O1 1_555 1_555
H1 C4 1_555 1_555
C5 O2 1_555 1_555
H2 C5 1_555 1_555
H3 C5 1_555 1_555
H4 C5 1_555 1_555
N1 C2 1_555 1_555
C6 H5 1_555 1_555
H6 C6 1_555 1_555
C7 N1 1_555 1_555
H7 C7 1_555 1_555
H8 C7 1_555 1_555
C8 H9 1_555 1_555
H10 C8 1_555 1_555
H11 C8 1_555 1_555
C9 H12 1_555 1_555
H13 C9 1_555 1_555
C10 C6 1_555 1_555
H14 C10 1_555 1_555
C11 N1 1_555 1_555
H15 C11 1_555 1_555
H16 C11 1_555 1_555
O4 C13 1_555 1_555
O5 C13 1_555 1_555
O6 C15 1_555 1_555
C12 C15 1_555 1_555
C13 H17 1_555 1_555
C14 O5 1_555 1_555
H18 C14 1_555 1_555
H19 C14 1_555 1_555
H20 C14 1_555 1_555
C15 O4 1_555 1_555
C16 C12 1_555 1_555
N2 C16 1_555 1_555
C17 H21 1_555 1_555
H22 C17 1_555 1_555
C18 C17 1_555 1_555
H23 C18 1_555 1_555
C19 N2 1_555 1_555
H24 C19 1_555 1_555
H25 C19 1_555 1_555
C20 N2 1_555 1_555
H26 C20 1_555 1_555
H27 C20 1_555 1_555
C21 C18 1_555 1_555
H28 C21 1_555 1_555
H29 C21 1_555 1_555
C22 C18 1_555 1_555
H30 C22 1_555 1_555
H31 C22 1_555 1_555
H32 C22 1_555 1_555
C2 C4 1_555 1_555
C6 C7 1_555 1_555
C8 C10 1_555 1_555
C9 C10 1_555 1_555
C9 C11 1_555 1_555
C13 C16 1_555 1_555
C17 C19 1_555 1_555
C20 C21 1_555 1_555

#END
