
#######################################################################
#
#                 Cambridge Crystallographic Data Centre
#                                CCDC 
#
#######################################################################
#
# If this CIF has been generated from an entry in the Cambridge 
# Structural Database, then it will include bibliographic, chemical, 
# crystal, experimental, refinement or atomic coordinate data resulting 
# from the CCDC's data processing and validation procedures.
#
#######################################################################

data_UPACIZ
_chemical_formula_moiety         'C38 H50 N1 P1'
_chemical_name_systematic        
3,6-di-t-butyl-9-(2-(dicyclohexylphosphino)phenyl)-9H-carbazole
_symmetry_cell_setting           monoclinic
_symmetry_space_group_name_H-M   'P 21/c'
_symmetry_Int_Tables_number      14
_space_group_name_Hall           '-P 2ybc'
loop_
_symmetry_equiv_pos_site_id
_symmetry_equiv_pos_as_xyz
1 x,y,z
2 -x,1/2+y,1/2-z
3 -x,-y,-z
4 x,1/2-y,1/2+z
_cell_length_a                   13.980(3)
_cell_length_b                   18.462(4)
_cell_length_c                   13.002(3)
_cell_angle_alpha                90
_cell_angle_beta                 97.544(7)
_cell_angle_gamma                90
_cell_volume                     3326.75
_exptl_crystal_colour            colorless
_exptl_crystal_description       prism
_cell_formula_units_Z            4
loop_
_atom_site_label
_atom_site_type_symbol
_atom_site_fract_x
_atom_site_fract_y
_atom_site_fract_z
P1 P 0.36088(3) 0.55760(2) 0.54676(3)
N1 N 0.16925(9) 0.52989(6) 0.40578(9)
C1 C 0.15964(10) 0.57339(7) 0.49512(11)
C2 C 0.24069(10) 0.59408(7) 0.56331(10)
C3 C 0.22338(11) 0.63930(8) 0.64488(11)
H1 H 0.2772(12) 0.6532(9) 0.6943(13)
C4 C 0.13195(12) 0.66218(9) 0.65796(12)
H2 H 0.1234(11) 0.6918(9) 0.7156(12)
C5 C 0.05386(12) 0.64015(10) 0.59067(14)
H3 H -0.0080 0.6549 0.6003
C6 C 0.06772(12) 0.59591(10) 0.50855(14)
H4 H 0.0132(13) 0.5799(10) 0.4606(14)
C7 C 0.18436(10) 0.45567(7) 0.40239(11)
C8 C 0.20175(11) 0.40576(8) 0.48196(11)
H5 H 0.2084(11) 0.4210(9) 0.5534(12)
C9 C 0.21228(11) 0.33391(8) 0.45565(12)
H6 H 0.2240 0.3000 0.5087
C10 C 0.20611(10) 0.30995(8) 0.35304(12)
C11 C 0.19038(10) 0.36115(8) 0.27492(11)
H7 H 0.1856(11) 0.3468(8) 0.2022(12)
C12 C 0.17932(10) 0.43392(8) 0.29804(11)
C13 C 0.16032(10) 0.49817(7) 0.23580(11)
C14 C 0.15214(10) 0.55540(8) 0.30433(11)
C15 C 0.13189(12) 0.62532(9) 0.26827(12)
H8 H 0.1241(12) 0.6644(9) 0.3158(13)
C16 C 0.12375(12) 0.63619(9) 0.16316(13)
H9 H 0.1104 0.6828 0.1380
C17 C 0.13437(10) 0.58103(9) 0.09169(12)
C18 C 0.15265(10) 0.51152(8) 0.12957(11)
H10 H 0.1598 0.4737 0.0840
C19 C 0.12952(12) 0.59989(10) -0.02372(12)
C20 C 0.13204(19) 0.53283(13) -0.0919(2)
H11 H 0.1906 0.5064 -0.0713
H12 H 0.1295 0.5473 -0.1631
H13 H 0.0776 0.5025 -0.0843
C21 C 0.03571(15) 0.64023(12) -0.06075(15)
H14 H 0.0332 0.6515 -0.1331
H15 H 0.0334 0.6842 -0.0218
H16 H -0.0183 0.6102 -0.0505
C22 C 0.21536(15) 0.64784(14) -0.03778(17)
H17 H 0.2741 0.6222 -0.0151
H18 H 0.2129 0.6912 0.0026
H19 H 0.2132 0.6604 -0.1097
C23 C 0.21446(13) 0.22960(9) 0.32403(15)
C24 C 0.12348(17) 0.20665(11) 0.2531(2)
H20 H 0.0683 0.2123 0.2891
H21 H 0.1292 0.1568 0.2335
H22 H 0.1159 0.2364 0.1920
C25 C 0.30185(15) 0.21968(11) 0.26555(17)
H23 H 0.2946 0.2498 0.2049
H24 H 0.3062 0.1699 0.2453
H25 H 0.3595 0.2331 0.3098
C26 C 0.22740(18) 0.18005(14) 0.41912(18)
H26 H 0.1730 0.1852 0.4566
H27 H 0.2853 0.1932 0.4633
H28 H 0.2320 0.1307 0.3972
C27 C 0.41979(10) 0.55507(8) 0.68298(11)
H29 H 0.4127(10) 0.6015(8) 0.7179(11)
C28 C 0.37404(14) 0.49468(10) 0.74027(13)
H30 H 0.3063 0.5055 0.7417
H31 H 0.3782 0.4494 0.7032
C29 C 0.42402(16) 0.48624(13) 0.85094(14)
H32 H 0.4148 0.5300 0.8899
H33 H 0.3951 0.4463 0.8841
C30 C 0.53060(16) 0.47230(13) 0.85274(15)
H34 H 0.5611 0.4694 0.9241
H35 H 0.5400 0.4263 0.8194
C31 C 0.57689(13) 0.53185(13) 0.79748(15)
H36 H 0.6445 0.5204 0.7964
H37 H 0.5734 0.5768 0.8354
C32 C 0.52805(12) 0.54207(11) 0.68659(14)
H38 H 0.5385 0.4993 0.6462
H39 H 0.5570 0.5830 0.6556
C33 C 0.42066(11) 0.63497(8) 0.49004(11)
H40 H 0.4855(12) 0.6154(9) 0.4833(12)
C34 C 0.43374(13) 0.70561(9) 0.54971(14)
H41 H 0.4663 0.6964 0.6190
H42 H 0.3711 0.7265 0.5559
C35 C 0.49316(16) 0.75884(11) 0.49376(17)
H43 H 0.4980 0.8045 0.5310
H44 H 0.5579 0.7398 0.4943
C36 C 0.44918(16) 0.77214(11) 0.38281(17)
H45 H 0.3886 0.7979 0.3823
H46 H 0.4923 0.8023 0.3486
C37 C 0.43136(15) 0.70200(11) 0.32396(15)
H47 H 0.4927 0.6797 0.3157
H48 H 0.3977 0.7120 0.2554
C38 C 0.37186(13) 0.64983(10) 0.38000(12)
H49 H 0.3639 0.6046 0.3418
H50 H 0.3083 0.6703 0.3828
loop_
_geom_bond_atom_site_label_1
_geom_bond_atom_site_label_2
_geom_bond_site_symmetry_1
_geom_bond_site_symmetry_2
P1 C2 1_555 1_555
N1 C1 1_555 1_555
C1 C2 1_555 1_555
C2 C3 1_555 1_555
C3 H1 1_555 1_555
C4 C3 1_555 1_555
H2 C4 1_555 1_555
C5 C4 1_555 1_555
H3 C5 1_555 1_555
C6 C1 1_555 1_555
H4 C6 1_555 1_555
C7 N1 1_555 1_555
C8 C7 1_555 1_555
H5 C8 1_555 1_555
C9 C8 1_555 1_555
H6 C9 1_555 1_555
C10 C9 1_555 1_555
C11 C10 1_555 1_555
H7 C11 1_555 1_555
C12 C7 1_555 1_555
C13 C12 1_555 1_555
C14 N1 1_555 1_555
C15 C14 1_555 1_555
H8 C15 1_555 1_555
C16 C15 1_555 1_555
H9 C16 1_555 1_555
C17 C16 1_555 1_555
C18 C13 1_555 1_555
H10 C18 1_555 1_555
C19 C17 1_555 1_555
C20 C19 1_555 1_555
H11 C20 1_555 1_555
H12 C20 1_555 1_555
H13 C20 1_555 1_555
C21 C19 1_555 1_555
H14 C21 1_555 1_555
H15 C21 1_555 1_555
H16 C21 1_555 1_555
C22 C19 1_555 1_555
H17 C22 1_555 1_555
H18 C22 1_555 1_555
H19 C22 1_555 1_555
C23 C10 1_555 1_555
C24 C23 1_555 1_555
H20 C24 1_555 1_555
H21 C24 1_555 1_555
H22 C24 1_555 1_555
C25 C23 1_555 1_555
H23 C25 1_555 1_555
H24 C25 1_555 1_555
H25 C25 1_555 1_555
C26 C23 1_555 1_555
H26 C26 1_555 1_555
H27 C26 1_555 1_555
H28 C26 1_555 1_555
C27 P1 1_555 1_555
H29 C27 1_555 1_555
C28 C27 1_555 1_555
H30 C28 1_555 1_555
H31 C28 1_555 1_555
C29 C28 1_555 1_555
H32 C29 1_555 1_555
H33 C29 1_555 1_555
C30 C29 1_555 1_555
H34 C30 1_555 1_555
H35 C30 1_555 1_555
C31 C30 1_555 1_555
H36 C31 1_555 1_555
H37 C31 1_555 1_555
C32 C27 1_555 1_555
H38 C32 1_555 1_555
H39 C32 1_555 1_555
C33 P1 1_555 1_555
H40 C33 1_555 1_555
C34 C33 1_555 1_555
H41 C34 1_555 1_555
H42 C34 1_555 1_555
C35 C34 1_555 1_555
H43 C35 1_555 1_555
H44 C35 1_555 1_555
C36 C35 1_555 1_555
H45 C36 1_555 1_555
H46 C36 1_555 1_555
C37 C36 1_555 1_555
H47 C37 1_555 1_555
H48 C37 1_555 1_555
C38 C33 1_555 1_555
H49 C38 1_555 1_555
H50 C38 1_555 1_555
C5 C6 1_555 1_555
C11 C12 1_555 1_555
C13 C14 1_555 1_555
C17 C18 1_555 1_555
C31 C32 1_555 1_555
C37 C38 1_555 1_555

#END
