
#######################################################################
#
#                 Cambridge Crystallographic Data Centre
#                                CCDC 
#
#######################################################################
#
# If this CIF has been generated from an entry in the Cambridge 
# Structural Database, then it will include bibliographic, chemical, 
# crystal, experimental, refinement or atomic coordinate data resulting 
# from the CCDC's data processing and validation procedures.
#
#######################################################################

data_UPAPIM
_chemical_compound_source        
'leaves of the Australian rainforest tree Maytenus bilocularis'
_chemical_name_common            
(1S,4R,5S,6R,7R,9S,10S)-9-benzoyloxy-1,6,15-triacetoxy-9-benzoyloxy-8-oxodihydro-beta-agarofuran
_chemical_formula_moiety         'C28 H34 O10'
_chemical_name_systematic        
'(1S,4R,5S,6R,7R,9S,10S)-10-(acetoxymethyl)-9-(benzoyloxy)-4,11,11-trimethyl-8-oxo-octahydro-11H-5,7-methanobenzo[b]oxepine-1,6-diyl diacetate'
_chemical_properties_biological  'NO production inhibitor activity'
_symmetry_cell_setting           orthorhombic
_symmetry_space_group_name_H-M   'P 21 21 21'
_symmetry_Int_Tables_number      19
_space_group_name_Hall           'P 2ac 2ab'
loop_
_symmetry_equiv_pos_site_id
_symmetry_equiv_pos_as_xyz
1 x,y,z
2 1/2-x,-y,1/2+z
3 1/2+x,1/2-y,-z
4 -x,1/2+y,1/2-z
_cell_length_a                   10.9490(2)
_cell_length_b                   12.5734(2)
_cell_length_c                   20.2474(3)
_cell_angle_alpha                90
_cell_angle_beta                 90
_cell_angle_gamma                90
_cell_volume                     2787.38
_exptl_crystal_colour            colorless
_exptl_crystal_description       block
_chemical_melting_point          '272-274 deg.C'
_cell_formula_units_Z            4
_exptl_crystal_recrystallization_method ethanol
loop_
_atom_site_label
_atom_site_type_symbol
_atom_site_fract_x
_atom_site_fract_y
_atom_site_fract_z
O1 O 0.4223(2) 1.2047(2) 0.94100(14)
O2 O 0.2853(3) 1.2669(6) 1.00792(19)
O3 O 0.54164(16) 0.92466(16) 0.86909(11)
O4 O 0.7338(2) 0.9766(2) 0.87803(19)
O5 O 0.15362(16) 0.99568(16) 0.87329(10)
O6 O 0.2340(2) 0.83593(18) 0.76904(12)
O7 O 0.3918(3) 0.7288(2) 0.74639(13)
O8 O 0.3739(2) 0.7920(2) 0.98048(13)
O9 O 0.46048(18) 0.98841(19) 0.99293(10)
O10 O 0.3457(3) 0.9834(4) 1.08437(13)
C1 C 0.3312(3) 1.1561(2) 0.89870(16)
C2 C 0.3206(3) 1.2200(3) 0.8362(2)
C3 C 0.2244(3) 1.1726(3) 0.79120(19)
C4 C 0.2517(3) 1.0562(3) 0.77433(16)
C5 C 0.2701(2) 0.9920(2) 0.83802(14)
C6 C 0.2947(3) 0.8733(2) 0.82797(16)
C7 C 0.2380(3) 0.8277(2) 0.89054(16)
C8 C 0.3266(3) 0.8573(2) 0.94522(16)
C9 C 0.3534(3) 0.9761(2) 0.95316(14)
C10 C 0.3670(2) 1.0386(2) 0.88738(14)
C11 C 0.1170(3) 0.8907(2) 0.89610(18)
C12 C 0.0665(3) 0.8993(3) 0.9658(2)
C13 C 0.0159(3) 0.8465(3) 0.8515(2)
C14 C 0.3550(3) 1.0463(3) 0.72273(17)
C15 C 0.5008(2) 1.0337(2) 0.86417(15)
C16 C 0.3879(4) 1.2561(4) 0.99434(19)
C17 C 0.4925(5) 1.2977(4) 1.0325(3)
C18 C 0.2939(3) 0.7640(3) 0.73179(18)
C19 C 0.2229(5) 0.7392(4) 0.6711(2)
C20 C 0.4444(3) 0.9863(3) 1.05902(16)
C21 C 0.5628(3) 0.9871(3) 1.09504(16)
C22 C 0.5588(4) 0.9884(4) 1.16348(19)
C23 C 0.6660(5) 0.9869(5) 1.1997(2)
C24 C 0.7754(4) 0.9821(3) 1.1688(2)
C25 C 0.7809(4) 0.9804(3) 1.1012(2)
C26 C 0.6739(3) 0.9838(3) 1.06403(17)
C27 C 0.6595(3) 0.9067(3) 0.87843(15)
C28 C 0.6838(3) 0.7931(3) 0.8933(2)
H1 H 0.25080 1.15810 0.92200
H2 H 0.40030 1.22100 0.81310
H3 H 0.29830 1.29430 0.84710
H4 H 0.22040 1.21450 0.74990
H5 H 0.14370 1.17710 0.81300
H6 H 0.17640 1.02740 0.75290
H7 H 0.38430 0.85840 0.82610
H8 H 0.22440 0.74920 0.88750
H9 H 0.28360 1.00820 0.97800
H10 H 0.13060 0.92510 0.99560
H11 H 0.03860 0.82920 0.98060
H12 H -0.00230 0.94920 0.96620
H13 H -0.05810 0.88950 0.85680
H14 H -0.00160 0.77270 0.86390
H15 H 0.04270 0.84910 0.80540
H16 H 0.41560 1.10230 0.73020
H17 H 0.32070 1.05370 0.67830
H18 H 0.39410 0.97660 0.72700
H19 H 0.50720 1.05860 0.81790
H20 H 0.55230 1.08010 0.89220
H21 H 0.46320 1.34950 1.06500
H22 H 0.55030 1.33240 1.00240
H23 H 0.53340 1.23890 1.05530
H24 H 0.23280 0.79700 0.63900
H25 H 0.13630 0.73170 0.68230
H26 H 0.25280 0.67270 0.65180
H27 H 0.48230 0.99030 1.18560
H28 H 0.66280 0.98930 1.24660
H29 H 0.84850 0.97990 1.19390
H30 H 0.85780 0.97690 1.07960
H31 H 0.67800 0.98380 1.01720
H32 H 0.76380 0.77310 0.87550
H33 H 0.62040 0.74900 0.87290
H34 H 0.68310 0.78230 0.94120
loop_
_geom_bond_atom_site_label_1
_geom_bond_atom_site_label_2
_geom_bond_site_symmetry_1
_geom_bond_site_symmetry_2
O1 C1 1_555 1_555
O2 C16 1_555 1_555
O3 C15 1_555 1_555
O4 C27 1_555 1_555
O5 C5 1_555 1_555
O6 C6 1_555 1_555
O7 C18 1_555 1_555
O8 C8 1_555 1_555
O9 C9 1_555 1_555
O10 C20 1_555 1_555
C1 C2 1_555 1_555
C2 C3 1_555 1_555
C3 C4 1_555 1_555
C4 C5 1_555 1_555
C5 C6 1_555 1_555
C6 C7 1_555 1_555
C7 C8 1_555 1_555
C8 C9 1_555 1_555
C9 C10 1_555 1_555
C10 C1 1_555 1_555
C11 O5 1_555 1_555
C12 C11 1_555 1_555
C13 C11 1_555 1_555
C14 C4 1_555 1_555
C15 C10 1_555 1_555
C16 O1 1_555 1_555
C17 C16 1_555 1_555
C18 O6 1_555 1_555
C19 C18 1_555 1_555
C20 O9 1_555 1_555
C21 C20 1_555 1_555
C22 C21 1_555 1_555
C23 C22 1_555 1_555
C24 C23 1_555 1_555
C25 C24 1_555 1_555
C26 C21 1_555 1_555
C27 O3 1_555 1_555
C28 C27 1_555 1_555
H1 C1 1_555 1_555
H2 C2 1_555 1_555
H3 C2 1_555 1_555
H4 C3 1_555 1_555
H5 C3 1_555 1_555
H6 C4 1_555 1_555
H7 C6 1_555 1_555
H8 C7 1_555 1_555
H9 C9 1_555 1_555
H10 C12 1_555 1_555
H11 C12 1_555 1_555
H12 C12 1_555 1_555
H13 C13 1_555 1_555
H14 C13 1_555 1_555
H15 C13 1_555 1_555
H16 C14 1_555 1_555
H17 C14 1_555 1_555
H18 C14 1_555 1_555
H19 C15 1_555 1_555
H20 C15 1_555 1_555
H21 C17 1_555 1_555
H22 C17 1_555 1_555
H23 C17 1_555 1_555
H24 C19 1_555 1_555
H25 C19 1_555 1_555
H26 C19 1_555 1_555
H27 C22 1_555 1_555
H28 C23 1_555 1_555
H29 C24 1_555 1_555
H30 C25 1_555 1_555
H31 C26 1_555 1_555
H32 C28 1_555 1_555
H33 C28 1_555 1_555
H34 C28 1_555 1_555
C5 C10 1_555 1_555
C7 C11 1_555 1_555
C25 C26 1_555 1_555

#END
