
#######################################################################
#
#                 Cambridge Crystallographic Data Centre
#                                CCDC 
#
#######################################################################
#
# If this CIF has been generated from an entry in the Cambridge 
# Structural Database, then it will include bibliographic, chemical, 
# crystal, experimental, refinement or atomic coordinate data resulting 
# from the CCDC's data processing and validation procedures.
#
#######################################################################

data_UPAWIS
_chemical_formula_moiety         'C17 H14 N4 S1'
_chemical_name_systematic        
2-Phenyl-8,9,10,11-tetrahydro[1]benzothieno[3,2-e][1,2,4]triazolo[1,5-c]pyrimidine
_symmetry_cell_setting           monoclinic
_symmetry_space_group_name_H-M   'P 21/c'
_symmetry_Int_Tables_number      14
_space_group_name_Hall           '-P 2ybc'
loop_
_symmetry_equiv_pos_site_id
_symmetry_equiv_pos_as_xyz
1 x,y,z
2 -x,1/2+y,1/2-z
3 -x,-y,-z
4 x,1/2-y,1/2+z
_cell_length_a                   8.6239(16)
_cell_length_b                   20.512(4)
_cell_length_c                   8.5952(16)
_cell_angle_alpha                90
_cell_angle_beta                 111.975(3)
_cell_angle_gamma                90
_cell_volume                     1409.97
_exptl_crystal_colour            white
_exptl_crystal_description       block
_cell_formula_units_Z            4
loop_
_atom_site_label
_atom_site_type_symbol
_atom_site_fract_x
_atom_site_fract_y
_atom_site_fract_z
C1 C -0.1145(3) 0.57323(12) 0.5033(3)
C2 C -0.2370(3) 0.52330(12) 0.4477(3)
C3 C -0.4107(3) 0.44589(13) 0.3912(3)
C4 C -0.5006(3) 0.38839(13) 0.4128(3)
C5 C -0.3157(3) 0.56670(13) 0.1641(4)
H1 H -0.3857 0.5635 0.0517
C6 C -0.1062(3) 0.61456(13) 0.3786(4)
C7 C 0.0023(3) 0.58943(13) 0.6675(3)
C8 C 0.0944(3) 0.64270(13) 0.6629(3)
C9 C 0.2214(4) 0.67497(14) 0.8139(4)
H2 H 0.2104 0.7220 0.8025
H3 H 0.3332 0.6631 0.8226
C10 C 0.1936(4) 0.65306(15) 0.9725(4)
H4 H 0.2879 0.6667 1.0710
H5 H 0.0940 0.6739 0.9760
C11 C 0.1742(4) 0.57928(15) 0.9757(4)
H6 H 0.1642 0.5667 1.0803
H7 H 0.2735 0.5586 0.9710
C12 C 0.0201(4) 0.55527(13) 0.8282(3)
H8 H 0.0296 0.5087 0.8144
H9 H -0.0793 0.5629 0.8529
C13 C -0.6266(3) 0.35972(13) 0.2766(4)
H10 H -0.6562 0.3776 0.1699
C14 C -0.7074(4) 0.30477(14) 0.3003(4)
H11 H -0.7920 0.2862 0.2091
C15 C -0.6648(4) 0.27684(14) 0.4573(4)
H12 H -0.7186 0.2393 0.4715
C16 C -0.5407(4) 0.30559(15) 0.5931(4)
H13 H -0.5118 0.2875 0.6994
C17 C -0.4598(3) 0.36091(13) 0.5716(4)
H14 H -0.3773 0.3800 0.6638
N1 N -0.3331(3) 0.52294(11) 0.2782(3)
N2 N -0.4455(3) 0.47305(11) 0.2407(3)
N3 N -0.2852(3) 0.47484(10) 0.5218(3)
N4 N -0.2022(3) 0.61279(11) 0.2114(3)
S1 S 0.04561(9) 0.67369(3) 0.46182(9)
loop_
_geom_bond_atom_site_label_1
_geom_bond_atom_site_label_2
_geom_bond_site_symmetry_1
_geom_bond_site_symmetry_2
C1 C2 1_555 1_555
C2 N1 1_555 1_555
C3 C4 1_555 1_555
C4 C13 1_555 1_555
C5 H1 1_555 1_555
C6 C1 1_555 1_555
C7 C1 1_555 1_555
C8 C7 1_555 1_555
C9 C8 1_555 1_555
H2 C9 1_555 1_555
H3 C9 1_555 1_555
C10 C9 1_555 1_555
H4 C10 1_555 1_555
H5 C10 1_555 1_555
C11 C10 1_555 1_555
H6 C11 1_555 1_555
H7 C11 1_555 1_555
C12 C7 1_555 1_555
H8 C12 1_555 1_555
H9 C12 1_555 1_555
C13 H10 1_555 1_555
C14 C13 1_555 1_555
H11 C14 1_555 1_555
C15 C14 1_555 1_555
H12 C15 1_555 1_555
C16 C15 1_555 1_555
H13 C16 1_555 1_555
C17 C4 1_555 1_555
H14 C17 1_555 1_555
N1 C5 1_555 1_555
N2 C3 1_555 1_555
N3 C2 1_555 1_555
N4 C5 1_555 1_555
S1 C6 1_555 1_555
C3 N3 1_555 1_555
C6 N4 1_555 1_555
C8 S1 1_555 1_555
C11 C12 1_555 1_555
C16 C17 1_555 1_555
N1 N2 1_555 1_555

#END
