
#######################################################################
#
#                 Cambridge Crystallographic Data Centre
#                                CCDC 
#
#######################################################################
#
# If this CIF has been generated from an entry in the Cambridge 
# Structural Database, then it will include bibliographic, chemical, 
# crystal, experimental, refinement or atomic coordinate data resulting 
# from the CCDC's data processing and validation procedures.
#
#######################################################################

data_UPIDII
_chemical_formula_moiety         'C24 H29 N1 O2'
_chemical_name_systematic        
2-(2,6-dimethyl-1-octylpyridin-4(1H)-ylidene)-1H-indene-1,3(2H)-dione
_symmetry_cell_setting           triclinic
_symmetry_space_group_name_H-M   'P -1'
_symmetry_Int_Tables_number      2
_space_group_name_Hall           '-P 1'
loop_
_symmetry_equiv_pos_site_id
_symmetry_equiv_pos_as_xyz
1 x,y,z
2 -x,-y,-z
_cell_length_a                   7.9388(15)
_cell_length_b                   8.0318(15)
_cell_length_c                   17.599(3)
_cell_angle_alpha                82.094(3)
_cell_angle_beta                 88.252(3)
_cell_angle_gamma                65.864(3)
_cell_volume                     1013.92
_exptl_crystal_description       Block
_cell_formula_units_Z            2
loop_
_atom_site_label
_atom_site_type_symbol
_atom_site_fract_x
_atom_site_fract_y
_atom_site_fract_z
O1 O 0.82883(19) 1.04225(19) 0.28484(8)
O2 O 0.7265(2) 1.59398(19) 0.38558(8)
N1 N 0.7624(2) 1.0249(2) 0.58920(9)
C1 C 0.7853(2) 1.5006(3) 0.25946(11)
C2 C 0.7950(3) 1.6529(3) 0.21426(12)
H1 H 0.7816 1.7580 0.2349
C3 C 0.8259(3) 1.6393(3) 0.13607(12)
H2 H 0.8332 1.7380 0.1039
C4 C 0.8457(3) 1.4826(3) 0.10556(12)
H3 H 0.8634 1.4790 0.0532
C5 C 0.8395(3) 1.3294(3) 0.15222(12)
H4 H 0.8558 1.2228 0.1322
C6 C 0.8081(3) 1.3430(3) 0.22975(11)
C7 C 0.8006(2) 1.2011(3) 0.29402(10)
C8 C 0.7637(3) 1.2879(3) 0.36309(11)
C9 C 0.7533(3) 1.4738(3) 0.34400(11)
C10 C 0.7559(2) 1.2015(3) 0.43915(11)
C11 C 0.7359(3) 1.2919(3) 0.50446(11)
H5 H 0.7178 1.4150 0.4975
C12 C 0.7422(3) 1.2047(3) 0.57789(11)
C13 C 0.7744(2) 0.9329(2) 0.52753(11)
C14 C 0.7724(2) 1.0170(3) 0.45427(11)
H6 H 0.7821 0.9519 0.4134
C15 C 0.7356(3) 1.3001(3) 0.64585(12)
H7 H 0.8542 1.2458 0.6718
H8 H 0.6441 1.2873 0.6803
H9 H 0.7041 1.4284 0.6291
C16 C 0.7920(3) 0.7380(3) 0.54190(12)
H10 H 0.7860 0.6964 0.4939
H11 H 0.6932 0.7321 0.5734
H12 H 0.9082 0.6607 0.5677
C17 C 0.7674(3) 0.9315(3) 0.66856(10)
H13 H 0.8247 0.9794 0.7028
H14 H 0.8433 0.8008 0.6701
C18 C 0.5771(3) 0.9573(3) 0.69723(11)
H15 H 0.5190 0.9095 0.6633
H16 H 0.5009 1.0877 0.6965
C19 C 0.5899(3) 0.8576(3) 0.77902(11)
H17 H 0.6728 0.8845 0.8097
H18 H 0.4689 0.9057 0.8012
C20 C 0.6585(3) 0.6485(3) 0.78344(11)
H19 H 0.5797 0.6211 0.7507
H20 H 0.7826 0.5990 0.7641
C21 C 0.6599(3) 0.5539(3) 0.86504(11)
H21 H 0.7546 0.5633 0.8955
H22 H 0.5419 0.6183 0.8876
C22 C 0.6954(3) 0.3516(3) 0.86897(12)
H23 H 0.5971 0.3423 0.8409
H24 H 0.8104 0.2881 0.8442
C23 C 0.7062(4) 0.2574(3) 0.95073(13)
H25 H 0.5969 0.3293 0.9771
H26 H 0.8126 0.2557 0.9770
C24 C 0.7211(5) 0.0614(4) 0.95632(17)
H27 H 0.6172 0.0612 0.9299
H28 H 0.7224 0.0121 1.0093
H29 H 0.8331 -0.0131 0.9333
loop_
_geom_bond_atom_site_label_1
_geom_bond_atom_site_label_2
_geom_bond_site_symmetry_1
_geom_bond_site_symmetry_2
O1 C7 1_555 1_555
O2 C9 1_555 1_555
N1 C12 1_555 1_555
C1 C2 1_555 1_555
C2 H1 1_555 1_555
C3 C2 1_555 1_555
H2 C3 1_555 1_555
C4 C3 1_555 1_555
H3 C4 1_555 1_555
C5 C4 1_555 1_555
H4 C5 1_555 1_555
C6 C1 1_555 1_555
C7 C6 1_555 1_555
C8 C7 1_555 1_555
C9 C1 1_555 1_555
C10 C8 1_555 1_555
C11 C10 1_555 1_555
H5 C11 1_555 1_555
C12 C11 1_555 1_555
C13 N1 1_555 1_555
C14 C10 1_555 1_555
H6 C14 1_555 1_555
C15 C12 1_555 1_555
H7 C15 1_555 1_555
H8 C15 1_555 1_555
H9 C15 1_555 1_555
C16 C13 1_555 1_555
H10 C16 1_555 1_555
H11 C16 1_555 1_555
H12 C16 1_555 1_555
C17 N1 1_555 1_555
H13 C17 1_555 1_555
H14 C17 1_555 1_555
C18 C17 1_555 1_555
H15 C18 1_555 1_555
H16 C18 1_555 1_555
C19 C18 1_555 1_555
H17 C19 1_555 1_555
H18 C19 1_555 1_555
C20 C19 1_555 1_555
H19 C20 1_555 1_555
H20 C20 1_555 1_555
C21 C20 1_555 1_555
H21 C21 1_555 1_555
H22 C21 1_555 1_555
C22 C21 1_555 1_555
H23 C22 1_555 1_555
H24 C22 1_555 1_555
C23 C22 1_555 1_555
H25 C23 1_555 1_555
H26 C23 1_555 1_555
C24 C23 1_555 1_555
H27 C24 1_555 1_555
H28 C24 1_555 1_555
H29 C24 1_555 1_555
C5 C6 1_555 1_555
C8 C9 1_555 1_555
C13 C14 1_555 1_555

#END
