
#######################################################################
#
#                 Cambridge Crystallographic Data Centre
#                                CCDC 
#
#######################################################################
#
# If this CIF has been generated from an entry in the Cambridge 
# Structural Database, then it will include bibliographic, chemical, 
# crystal, experimental, refinement or atomic coordinate data resulting 
# from the CCDC's data processing and validation procedures.
#
#######################################################################

data_UPIHOS02
_chemical_formula_moiety         'C8 H20 N1 1+,C1 F3 O3 S1 1-'
_chemical_name_systematic        
'N-ethyl-N-isopropylpropan-2-aminium trifluoromethanesulfonate'
_symmetry_cell_setting           monoclinic
_symmetry_space_group_name_H-M   'P 21/n'
_symmetry_Int_Tables_number      14
_space_group_name_Hall           '-P 2yn'
loop_
_symmetry_equiv_pos_site_id
_symmetry_equiv_pos_as_xyz
1 x,y,z
2 1/2-x,1/2+y,1/2-z
3 -x,-y,-z
4 1/2+x,1/2-y,1/2+z
_cell_length_a                   10.4231(4)
_cell_length_b                   9.0667(4)
_cell_length_c                   14.4248(5)
_cell_angle_alpha                90
_cell_angle_beta                 91.138(4)
_cell_angle_gamma                90
_cell_volume                     1362.92
_exptl_crystal_colour            colorless
_exptl_crystal_description       block
_cell_formula_units_Z            4
loop_
_atom_site_label
_atom_site_type_symbol
_atom_site_fract_x
_atom_site_fract_y
_atom_site_fract_z
S1 S 0.49207(4) 0.25589(6) 0.21761(3)
F1 F 0.3164(3) 0.1691(4) 0.32745(19)
F2 F 0.25423(17) 0.3347(3) 0.23306(13)
F3 F 0.3723(2) 0.3892(4) 0.34882(14)
O1 O 0.5198(3) 0.3933(3) 0.17736(18)
O2 O 0.58306(16) 0.2045(2) 0.28658(12)
O3 O 0.45158(17) 0.1467(2) 0.15256(11)
C1 C 0.3513(2) 0.2904(4) 0.28414(17)
N1 N 0.77928(14) 0.27968(17) 0.41529(10)
H1 H 0.717(2) 0.277(2) 0.3790(14)
C2 C 0.8019(2) 0.4373(2) 0.44739(13)
H2 H 0.8014 0.4405 0.5146
H3 H 0.8858 0.4695 0.4276
C3 C 0.7013(3) 0.5416(3) 0.40926(18)
H4 H 0.7022 0.5397 0.3427
H5 H 0.7194 0.6398 0.4307
H6 H 0.6184 0.5117 0.4300
C4 C 0.89117(17) 0.2192(2) 0.36086(12)
H7 H 0.8688 0.1185 0.3419
C5 C 0.9083(2) 0.3092(3) 0.27297(13)
H8 H 0.9400 0.4056 0.2889
H9 H 0.8273 0.3183 0.2407
H10 H 0.9686 0.2606 0.2338
C6 C 1.01249(19) 0.2103(3) 0.42000(15)
H11 H 1.0770 0.1572 0.3871
H12 H 0.9947 0.1600 0.4769
H13 H 1.0428 0.3081 0.4336
C7 C 0.73739(18) 0.1796(2) 0.49426(12)
H14 H 0.8035 0.1823 0.5435
C8 C 0.6125(2) 0.2371(3) 0.53332(15)
H15 H 0.5477 0.2392 0.4851
H16 H 0.6255 0.3350 0.5571
H17 H 0.5854 0.1735 0.5824
C9 C 0.7208(2) 0.0208(2) 0.46219(15)
H18 H 0.6886 -0.0376 0.5121
H19 H 0.8022 -0.0177 0.4436
H20 H 0.6613 0.0174 0.4106
loop_
_geom_bond_atom_site_label_1
_geom_bond_atom_site_label_2
_geom_bond_site_symmetry_1
_geom_bond_site_symmetry_2
S1 O1 1_555 1_555
F1 C1 1_555 1_555
F2 C1 1_555 1_555
F3 C1 1_555 1_555
O2 S1 1_555 1_555
O3 S1 1_555 1_555
C1 S1 1_555 1_555
N1 H1 1_555 1_555
C2 N1 1_555 1_555
H2 C2 1_555 1_555
H3 C2 1_555 1_555
C3 C2 1_555 1_555
H4 C3 1_555 1_555
H5 C3 1_555 1_555
H6 C3 1_555 1_555
C4 N1 1_555 1_555
H7 C4 1_555 1_555
C5 C4 1_555 1_555
H8 C5 1_555 1_555
H9 C5 1_555 1_555
H10 C5 1_555 1_555
C6 C4 1_555 1_555
H11 C6 1_555 1_555
H12 C6 1_555 1_555
H13 C6 1_555 1_555
C7 N1 1_555 1_555
H14 C7 1_555 1_555
C8 C7 1_555 1_555
H15 C8 1_555 1_555
H16 C8 1_555 1_555
H17 C8 1_555 1_555
C9 C7 1_555 1_555
H18 C9 1_555 1_555
H19 C9 1_555 1_555
H20 C9 1_555 1_555

#END
