
#######################################################################
#
#                 Cambridge Crystallographic Data Centre
#                                CCDC 
#
#######################################################################
#
# If this CIF has been generated from an entry in the Cambridge 
# Structural Database, then it will include bibliographic, chemical, 
# crystal, experimental, refinement or atomic coordinate data resulting 
# from the CCDC's data processing and validation procedures.
#
#######################################################################

data_UPUMID
_chemical_formula_moiety         'C28 H43 N3 O5 2+,2(Cl1 O4 1-)'
_chemical_name_systematic        
'1-(3-ammoniopropyl)-4-((E)-2-[4-(1,4,7,10,13-pentaoxa-16-azacyclooctadecan-16-yl)phenyl]vinyl)pyridinium diperchlorate'
_symmetry_cell_setting           monoclinic
_symmetry_space_group_name_H-M   'P 21'
_symmetry_Int_Tables_number      4
_space_group_name_Hall           'P 2yb'
loop_
_symmetry_equiv_pos_site_id
_symmetry_equiv_pos_as_xyz
1 x,y,z
2 -x,1/2+y,-z
_cell_length_a                   9.8760(3)
_cell_length_b                   21.0048(6)
_cell_length_c                   15.9354(5)
_cell_angle_alpha                90
_cell_angle_beta                 92.053(2)
_cell_angle_gamma                90
_cell_volume                     3303.57
_exptl_crystal_colour            red
_exptl_crystal_description       block
_chemical_melting_point          '488-490 K'
_cell_formula_units_Z            4
_exptl_crystal_recrystallization_method 'acetonitrile / benzene'
loop_
_atom_site_label
_atom_site_type_symbol
_atom_site_fract_x
_atom_site_fract_y
_atom_site_fract_z
Cl1 Cl 0.63784(10) 0.13656(5) 0.46377(7)
O1 O 0.5920(4) 0.07305(18) 0.4748(2)
O2 O 0.5915(4) 0.16131(19) 0.3846(2)
O3 O 0.7799(4) 0.1385(3) 0.4701(4)
O4 O 0.5830(8) 0.1727(3) 0.5285(3)
Cl2 Cl 0.68321(12) 0.40160(5) 0.57792(7)
O5 O 0.7162(5) 0.41164(17) 0.6653(2)
O6 O 0.6646(4) 0.33423(15) 0.5634(2)
O7 O 0.5597(4) 0.43407(18) 0.5574(2)
O8 O 0.7861(5) 0.42565(18) 0.5274(4)
Cl3 Cl 0.12333(10) 0.07206(5) 0.96136(6)
O9 O 0.0089(3) 0.09193(16) 1.0074(2)
O10 O 0.1888(4) 0.12673(19) 0.9276(3)
O11 O 0.2173(3) 0.03792(16) 1.0144(2)
O12 O 0.0782(4) 0.03070(19) 0.8940(2)
Cl4 Cl 0.65329(11) 0.30307(5) 1.08857(7)
O13 O 0.6358(4) 0.28241(19) 1.1731(2)
O14 O 0.7409(6) 0.3564(3) 1.0874(3)
O15 O 0.7090(7) 0.2531(2) 1.0418(3)
O16 O 0.5264(5) 0.3222(3) 1.0531(3)
O20 O 0.3605(4) 0.51227(19) 0.7934(2)
O21 O 0.4426(3) 0.57312(16) 0.9388(2)
O22 O 0.3690(4) 0.50359(18) 1.0793(2)
O23 O 0.2294(4) 0.38519(16) 1.0395(2)
O24 O 0.0813(4) 0.41523(15) 0.87857(19)
N1 N 0.7857(4) -0.25279(16) 0.6536(2)
H1 H 0.7968 -0.2940 0.6377
H2 H 0.8019 -0.2493 0.7100
H3 H 0.8447 -0.2276 0.6262
N2 N 0.4453(3) -0.08144(17) 0.6722(2)
N3 N 0.1965(5) 0.41467(18) 0.7094(3)
C1 C 0.6454(4) -0.2325(2) 0.6324(3)
H4 H 0.5811 -0.2620 0.6584
H5 H 0.6292 -0.2341 0.5707
C2 C 0.6211(4) -0.1656(2) 0.6632(3)
H6 H 0.6810 -0.1356 0.6343
H7 H 0.6428 -0.1631 0.7243
C3 C 0.4737(4) -0.1471(2) 0.6459(3)
H8 H 0.4517 -0.1514 0.5851
H9 H 0.4145 -0.1767 0.6762
C4 C 0.3698(5) -0.0700(2) 0.7400(3)
H10 H 0.3385 -0.1047 0.7723
C5 C 0.3384(5) -0.0093(2) 0.7621(3)
H11 H 0.2840 -0.0026 0.8093
C6 C 0.3840(5) 0.0436(2) 0.7174(3)
C7 C 0.4658(5) 0.0298(2) 0.6493(3)
H12 H 0.5018 0.0639 0.6178
C8 C 0.4945(5) -0.0314(2) 0.6275(3)
H13 H 0.5492 -0.0393 0.5808
C9 C 0.3428(5) 0.1076(2) 0.7387(3)
H14 H 0.2859 0.1132 0.7850
C10 C 0.3807(5) 0.1593(2) 0.6967(3)
H15 H 0.4457 0.1522 0.6551
C11 C 0.3365(5) 0.2244(2) 0.7058(3)
C12 C 0.3909(5) 0.2719(2) 0.6546(3)
H16 H 0.4589 0.2604 0.6167
C13 C 0.3490(5) 0.3345(2) 0.6573(3)
H17 H 0.3903 0.3653 0.6228
C14 C 0.2467(5) 0.3530(2) 0.7103(3)
C15 C 0.1947(5) 0.3064(2) 0.7633(3)
H18 H 0.1270 0.3181 0.8012
C16 C 0.2387(5) 0.2438(2) 0.7621(3)
H19 H 0.2024 0.2138 0.7998
C17 C 0.2690(5) 0.4661(2) 0.6676(3)
H20 H 0.2933 0.4514 0.6111
H21 H 0.2073 0.5030 0.6602
C18 C 0.3898(6) 0.4866(3) 0.7123(3)
H22 H 0.4355 0.5195 0.6790
H23 H 0.4524 0.4501 0.7196
C19 C 0.3491(6) 0.5793(3) 0.7998(3)
H24 H 0.2702 0.5944 0.7653
H25 H 0.4317 0.5999 0.7791
C20 C 0.3313(5) 0.5961(3) 0.8916(3)
H26 H 0.3247 0.6429 0.8980
H27 H 0.2469 0.5768 0.9115
C21 C 0.4592(5) 0.5979(3) 1.0223(3)
H28 H 0.4500 0.6448 1.0204
H29 H 0.5516 0.5878 1.0445
C22 C 0.3590(5) 0.5717(3) 1.0797(3)
H30 H 0.3771 0.5881 1.1373
H31 H 0.2665 0.5849 1.0611
C23 C 0.2740(6) 0.4754(3) 1.1333(3)
H32 H 0.1821 0.4923 1.1200
H33 H 0.2983 0.4859 1.1925
C24 C 0.2755(6) 0.4049(3) 1.1211(3)
H34 H 0.3691 0.3891 1.1315
H35 H 0.2177 0.3849 1.1632
C25 C 0.0873(5) 0.3886(2) 1.0237(3)
H36 H 0.0429 0.3987 1.0768
H37 H 0.0540 0.3465 1.0042
C26 C 0.0484(5) 0.4373(2) 0.9600(3)
H38 H -0.0501 0.4457 0.9615
H39 H 0.0971 0.4775 0.9726
C27 C 0.0408(5) 0.4587(2) 0.8141(3)
H40 H 0.0963 0.4979 0.8187
H41 H -0.0554 0.4707 0.8201
C28 C 0.0589(5) 0.4280(2) 0.7301(3)
H42 H 0.0074 0.3876 0.7284
H43 H 0.0184 0.4562 0.6862
O25 O 0.8798(3) -0.29350(14) 0.4941(2)
O26 O 0.8019(3) -0.38552(14) 0.6091(2)
O27 O 0.7071(4) -0.35159(17) 0.7708(3)
O28 O 0.8351(4) -0.23997(17) 0.8327(2)
O29 O 1.0527(3) -0.23589(15) 0.72741(18)
N4 N 0.4193(5) 0.4332(2) 0.9260(3)
H44 H 0.4103 0.4634 0.9663
H45 H 0.3832 0.3959 0.9436
H46 H 0.3752 0.4460 0.8778
N5 N 0.7711(4) 0.28813(17) 0.8213(2)
N6 N 0.9994(3) -0.17485(16) 0.5640(2)
C29 C 0.5640(6) 0.4240(2) 0.9102(4)
H47 H 0.6169 0.4243 0.9642
H48 H 0.5967 0.4594 0.8753
C30 C 0.5862(5) 0.3604(2) 0.8649(3)
H49 H 0.5509 0.3247 0.8983
H50 H 0.5379 0.3605 0.8093
C31 C 0.7356(5) 0.3526(2) 0.8544(3)
H51 H 0.7672 0.3856 0.8152
H52 H 0.7835 0.3593 0.9093
C32 C 0.8402(6) 0.2471(3) 0.8707(4)
H53 H 0.8614 0.2602 0.9267
C33 C 0.7335(5) 0.2707(2) 0.7422(3)
H54 H 0.6829 0.2990 0.7068
C34 C 0.8811(8) 0.1905(4) 0.8484(6)
H55 H 0.9331 0.1648 0.8866
C35 C 0.8470(8) 0.1683(3) 0.7671(6)
C36 C 0.7700(8) 0.2106(4) 0.7131(5)
H56 H 0.7440 0.1978 0.6577
C37 C 0.8880(6) 0.1043(3) 0.7432(4)
H57 H 0.9422 0.0809 0.7829
C38 C 0.8558(6) 0.0757(3) 0.6700(4)
H58 H 0.8036 0.0996 0.6299
C39 C 0.8935(8) 0.0112(3) 0.6462(7)
C40 C 0.8636(8) -0.0097(4) 0.5643(6)
H59 H 0.8174 0.0178 0.5256
C41 C 0.9605(9) -0.0327(4) 0.6995(5)
H60 H 0.9823 -0.0201 0.7556
C42 C 0.8996(5) -0.0688(2) 0.5395(3)
H61 H 0.8780 -0.0809 0.4832
C43 C 0.9668(4) -0.11335(19) 0.5915(3)
C44 C 0.9971(4) -0.0942(2) 0.6744(3)
H62 H 1.0418 -0.1224 0.7129
C45 C 0.9654(5) -0.1886(2) 0.4750(3)
H63 H 1.0254 -0.1630 0.4397
H64 H 0.8710 -0.1747 0.4623
C46 C 0.9785(5) -0.2580(2) 0.4511(3)
H65 H 0.9640 -0.2631 0.3897
H66 H 1.0705 -0.2736 0.4669
C47 C 0.8870(5) -0.3601(2) 0.4759(4)
H67 H 0.9774 -0.3768 0.4935
H68 H 0.8736 -0.3671 0.4147
C48 C 0.7805(5) -0.3937(2) 0.5216(4)
H69 H 0.6904 -0.3767 0.5040
H70 H 0.7823 -0.4396 0.5076
C49 C 0.7079(6) -0.4227(2) 0.6559(4)
H71 H 0.7161 -0.4682 0.6409
H72 H 0.6140 -0.4089 0.6417
C50 C 0.7373(6) -0.4143(3) 0.7479(4)
H73 H 0.6820 -0.4444 0.7799
H74 H 0.8341 -0.4234 0.7611
C51 C 0.7283(6) -0.3406(3) 0.8592(4)
H75 H 0.8153 -0.3599 0.8788
H76 H 0.6546 -0.3608 0.8903
C52 C 0.7307(6) -0.2710(3) 0.8761(4)
H77 H 0.6421 -0.2524 0.8584
H78 H 0.7445 -0.2638 0.9371
C53 C 0.9708(6) -0.2561(3) 0.8612(3)
H79 H 0.9673 -0.2874 0.9075
H80 H 1.0174 -0.2175 0.8831
C54 C 1.0483(5) -0.2834(2) 0.7910(3)
H81 H 1.1413 -0.2949 0.8109
H82 H 1.0029 -0.3222 0.7687
C55 C 1.1209(5) -0.2564(2) 0.6546(3)
H83 H 1.0698 -0.2915 0.6265
H84 H 1.2126 -0.2722 0.6707
C56 C 1.1307(4) -0.2004(2) 0.5959(3)
H85 H 1.1811 -0.1659 0.6256
H86 H 1.1842 -0.2133 0.5474
O17? O 0.588(4) 0.2610(16) 1.0322(19)
O18? O 0.786(5) 0.292(3) 1.066(3)
O19? O 0.617(5) 0.3612(18) 1.076(2)
H87? H 0.8731 0.2558 0.9270
H88? H 0.6897 0.3057 0.7136
C57? C 0.862(3) 0.1825(14) 0.817(3)
H89? H 0.9107 0.1481 0.8424
C58? C 0.806(3) 0.1760(19) 0.730(2)
C59? C 0.729(4) 0.2280(19) 0.696(2)
H90? H 0.6804 0.2277 0.6438
C60? C 0.835(2) 0.1155(12) 0.6837(14)
H91? H 0.8042 0.1127 0.6267
C61? C 0.902(3) 0.0651(13) 0.7166(17)
H92? H 0.9374 0.0695 0.7726
C62? C 0.927(4) 0.006(2) 0.676(2)
C63? C 0.880(4) -0.0037(18) 0.597(3)
H93? H 0.8307 0.0303 0.5711
C64? C 0.991(5) -0.043(3) 0.720(3)
H94? H 1.0262 -0.0397 0.7758
H95? H 0.8693 -0.0761 0.4824
H96? H 1.0332 -0.1290 0.7071
loop_
_geom_bond_atom_site_label_1
_geom_bond_atom_site_label_2
_geom_bond_site_symmetry_1
_geom_bond_site_symmetry_2
Cl1 O1 1_555 1_555
O2 Cl1 1_555 1_555
O3 Cl1 1_555 1_555
O4 Cl1 1_555 1_555
Cl2 O5 1_555 1_555
O6 Cl2 1_555 1_555
O7 Cl2 1_555 1_555
O8 Cl2 1_555 1_555
Cl3 O9 1_555 1_555
O10 Cl3 1_555 1_555
O11 Cl3 1_555 1_555
O12 Cl3 1_555 1_555
Cl4 O13 1_555 1_555
O14 Cl4 1_555 1_555
O15 Cl4 1_555 1_555
O16 Cl4 1_555 1_555
O20 C18 1_555 1_555
O21 C20 1_555 1_555
O22 C22 1_555 1_555
O23 C24 1_555 1_555
O24 C26 1_555 1_555
N1 H1 1_555 1_555
H2 N1 1_555 1_555
H3 N1 1_555 1_555
N2 C3 1_555 1_555
N3 C14 1_555 1_555
C1 N1 1_555 1_555
H4 C1 1_555 1_555
H5 C1 1_555 1_555
C2 C1 1_555 1_555
H6 C2 1_555 1_555
H7 C2 1_555 1_555
C3 C2 1_555 1_555
H8 C3 1_555 1_555
H9 C3 1_555 1_555
C4 N2 1_555 1_555
H10 C4 1_555 1_555
C5 C4 1_555 1_555
H11 C5 1_555 1_555
C6 C5 1_555 1_555
C7 C6 1_555 1_555
H12 C7 1_555 1_555
C8 N2 1_555 1_555
H13 C8 1_555 1_555
C9 C6 1_555 1_555
H14 C9 1_555 1_555
C10 C9 1_555 1_555
H15 C10 1_555 1_555
C11 C10 1_555 1_555
C12 C11 1_555 1_555
H16 C12 1_555 1_555
C13 C12 1_555 1_555
H17 C13 1_555 1_555
C14 C13 1_555 1_555
C15 C14 1_555 1_555
H18 C15 1_555 1_555
C16 C11 1_555 1_555
H19 C16 1_555 1_555
C17 N3 1_555 1_555
H20 C17 1_555 1_555
H21 C17 1_555 1_555
C18 C17 1_555 1_555
H22 C18 1_555 1_555
H23 C18 1_555 1_555
C19 O20 1_555 1_555
H24 C19 1_555 1_555
H25 C19 1_555 1_555
C20 C19 1_555 1_555
H26 C20 1_555 1_555
H27 C20 1_555 1_555
C21 O21 1_555 1_555
H28 C21 1_555 1_555
H29 C21 1_555 1_555
C22 C21 1_555 1_555
H30 C22 1_555 1_555
H31 C22 1_555 1_555
C23 O22 1_555 1_555
H32 C23 1_555 1_555
H33 C23 1_555 1_555
C24 C23 1_555 1_555
H34 C24 1_555 1_555
H35 C24 1_555 1_555
C25 O23 1_555 1_555
H36 C25 1_555 1_555
H37 C25 1_555 1_555
C26 C25 1_555 1_555
H38 C26 1_555 1_555
H39 C26 1_555 1_555
C27 O24 1_555 1_555
H40 C27 1_555 1_555
H41 C27 1_555 1_555
C28 N3 1_555 1_555
H42 C28 1_555 1_555
H43 C28 1_555 1_555
O25 C46 1_555 1_555
O26 C48 1_555 1_555
O27 C50 1_555 1_555
O28 C52 1_555 1_555
O29 C54 1_555 1_555
N4 H44 1_555 1_555
H45 N4 1_555 1_555
H46 N4 1_555 1_555
N5 C31 1_555 1_555
N6 C43 1_555 1_555
C29 N4 1_555 1_555
H47 C29 1_555 1_555
H48 C29 1_555 1_555
C30 C29 1_555 1_555
H49 C30 1_555 1_555
H50 C30 1_555 1_555
C31 C30 1_555 1_555
H51 C31 1_555 1_555
H52 C31 1_555 1_555
C32 N5 1_555 1_555
H53 C32 1_555 1_555
C33 N5 1_555 1_555
H54 C33 1_555 1_555
C34 C32 1_555 1_555
H55 C34 1_555 1_555
C35 C34 1_555 1_555
C36 C33 1_555 1_555
H56 C36 1_555 1_555
C37 C35 1_555 1_555
H57 C37 1_555 1_555
C38 C37 1_555 1_555
H58 C38 1_555 1_555
C39 C38 1_555 1_555
C40 C39 1_555 1_555
H59 C40 1_555 1_555
C41 C39 1_555 1_555
H60 C41 1_555 1_555
C42 C40 1_555 1_555
H61 C42 1_555 1_555
C43 C42 1_555 1_555
C44 C41 1_555 1_555
H62 C44 1_555 1_555
C45 N6 1_555 1_555
H63 C45 1_555 1_555
H64 C45 1_555 1_555
C46 C45 1_555 1_555
H65 C46 1_555 1_555
H66 C46 1_555 1_555
C47 O25 1_555 1_555
H67 C47 1_555 1_555
H68 C47 1_555 1_555
C48 C47 1_555 1_555
H69 C48 1_555 1_555
H70 C48 1_555 1_555
C49 O26 1_555 1_555
H71 C49 1_555 1_555
H72 C49 1_555 1_555
C50 C49 1_555 1_555
H73 C50 1_555 1_555
H74 C50 1_555 1_555
C51 O27 1_555 1_555
H75 C51 1_555 1_555
H76 C51 1_555 1_555
C52 C51 1_555 1_555
H77 C52 1_555 1_555
H78 C52 1_555 1_555
C53 O28 1_555 1_555
H79 C53 1_555 1_555
H80 C53 1_555 1_555
C54 C53 1_555 1_555
H81 C54 1_555 1_555
H82 C54 1_555 1_555
C55 O29 1_555 1_555
H83 C55 1_555 1_555
H84 C55 1_555 1_555
C56 N6 1_555 1_555
H85 C56 1_555 1_555
H86 C56 1_555 1_555
C7 C8 1_555 1_555
C15 C16 1_555 1_555
C27 C28 1_555 1_555
C35 C36 1_555 1_555
C43 C44 1_555 1_555
C55 C56 1_555 1_555

#END
