
#######################################################################
#
#                 Cambridge Crystallographic Data Centre
#                                CCDC 
#
#######################################################################
#
# If this CIF has been generated from an entry in the Cambridge 
# Structural Database, then it will include bibliographic, chemical, 
# crystal, experimental, refinement or atomic coordinate data resulting 
# from the CCDC's data processing and validation procedures.
#
#######################################################################

data_UPUPUS
_chemical_formula_moiety         'C16 H8 F3 I1 O2'
_chemical_name_systematic        
3-iodo-4-phenyl-7-(trifluoromethyl)-2H-chromen-2-one
_symmetry_cell_setting           monoclinic
_symmetry_space_group_name_H-M   'P 21/c'
_symmetry_Int_Tables_number      14
_space_group_name_Hall           '-P 2ybc'
loop_
_symmetry_equiv_pos_site_id
_symmetry_equiv_pos_as_xyz
1 x,y,z
2 -x,1/2+y,1/2-z
3 -x,-y,-z
4 x,1/2-y,1/2+z
_cell_length_a                   10.3920(11)
_cell_length_b                   15.7128(16)
_cell_length_c                   9.0091(10)
_cell_angle_alpha                90
_cell_angle_beta                 102.556(3)
_cell_angle_gamma                90
_cell_volume                     1435.89
_exptl_crystal_colour            colorless
_exptl_crystal_description       block
_cell_formula_units_Z            4
loop_
_atom_site_label
_atom_site_type_symbol
_atom_site_fract_x
_atom_site_fract_y
_atom_site_fract_z
C1 C 0.2741(4) 0.0320(3) 0.4653(5)
H1 H 0.3467 0.0501 0.5381
C2 C 0.2070(5) -0.0407(3) 0.4887(5)
H2 H 0.2349 -0.0720 0.5776
C3 C 0.0994(4) -0.0674(2) 0.3818(5)
H3 H 0.0539 -0.1162 0.3989
C4 C 0.0593(4) -0.0224(2) 0.2505(5)
H4 H -0.0136 -0.0406 0.1782
C5 C 0.1259(4) 0.0497(2) 0.2245(4)
H5 H 0.0992 0.0795 0.1338
C6 C 0.2324(3) 0.07784(19) 0.3326(4)
C7 C 0.2991(3) 0.1591(2) 0.3055(4)
C8 C 0.2526(4) 0.2357(2) 0.3356(4)
C9 C 0.3148(3) 0.3161(2) 0.3064(4)
C10 C 0.4675(4) 0.2328(2) 0.2001(4)
C11 C 0.5715(4) 0.2354(2) 0.1285(5)
H6 H 0.6057 0.2871 0.1048
C12 C 0.6238(3) 0.1593(2) 0.0927(4)
C13 C 0.5758(3) 0.0816(2) 0.1307(4)
H7 H 0.6143 0.0310 0.1088
C14 C 0.4710(3) 0.0801(2) 0.2011(4)
H8 H 0.4375 0.0282 0.2246
C15 C 0.4137(3) 0.1561(2) 0.2379(4)
C16 C 0.7368(4) 0.1589(2) 0.0130(5)
F1 F 0.7046(3) 0.11989(18) -0.1213(3)
F2 F 0.8400(3) 0.1192(2) 0.0912(4)
F3 F 0.7745(4) 0.23637(18) -0.0188(5)
I1 I 0.08333(2) 0.250204(11) 0.41932(3)
O1 O 0.2836(3) 0.38618(15) 0.3374(3)
O2 O 0.4182(2) 0.30983(14) 0.2353(3)
loop_
_geom_bond_atom_site_label_1
_geom_bond_atom_site_label_2
_geom_bond_site_symmetry_1
_geom_bond_site_symmetry_2
C1 H1 1_555 1_555
C2 C1 1_555 1_555
H2 C2 1_555 1_555
C3 C2 1_555 1_555
H3 C3 1_555 1_555
C4 C3 1_555 1_555
H4 C4 1_555 1_555
C5 C4 1_555 1_555
H5 C5 1_555 1_555
C6 C1 1_555 1_555
C7 C6 1_555 1_555
C8 C7 1_555 1_555
C9 C8 1_555 1_555
C10 C11 1_555 1_555
C11 H6 1_555 1_555
C12 C11 1_555 1_555
C13 C12 1_555 1_555
H7 C13 1_555 1_555
C14 C13 1_555 1_555
H8 C14 1_555 1_555
C15 C7 1_555 1_555
C16 C12 1_555 1_555
F1 C16 1_555 1_555
F2 C16 1_555 1_555
F3 C16 1_555 1_555
I1 C8 1_555 1_555
O1 C9 1_555 1_555
O2 C9 1_555 1_555
C5 C6 1_555 1_555
C10 C15 1_555 1_555
C10 O2 1_555 1_555
C14 C15 1_555 1_555

#END
