
#######################################################################
#
#                 Cambridge Crystallographic Data Centre
#                                CCDC 
#
#######################################################################
#
# If this CIF has been generated from an entry in the Cambridge 
# Structural Database, then it will include bibliographic, chemical, 
# crystal, experimental, refinement or atomic coordinate data resulting 
# from the CCDC's data processing and validation procedures.
#
#######################################################################

data_UPUQOM
_chemical_formula_moiety         'C20 H21 Br1 O4'
_chemical_name_systematic        
9-Bromo-5a-hydroxy-8-isopropyl-3a,10c-dimethyl-5a,10c-dihydro-3H-phenanthro[10,1-bc]furan-4,6(2H,3aH)-dione
_symmetry_cell_setting           orthorhombic
_symmetry_space_group_name_H-M   'P 21 21 21'
_symmetry_Int_Tables_number      19
_space_group_name_Hall           'P 2ac 2ab'
loop_
_symmetry_equiv_pos_site_id
_symmetry_equiv_pos_as_xyz
1 x,y,z
2 1/2+x,1/2-y,-z
3 -x,1/2+y,1/2-z
4 1/2-x,-y,1/2+z
_cell_length_a                   6.4195(15)
_cell_length_b                   11.535(3)
_cell_length_c                   24.654(6)
_cell_angle_alpha                90
_cell_angle_beta                 90
_cell_angle_gamma                90
_cell_volume                     1825.6
_exptl_crystal_colour            colorless
_exptl_crystal_description       prism
_cell_formula_units_Z            4
loop_
_atom_site_label
_atom_site_type_symbol
_atom_site_fract_x
_atom_site_fract_y
_atom_site_fract_z
Br1 Br 0.62248(7) 0.66883(4) 0.416433(16)
O1 O 0.7141(3) 0.35119(19) 0.70421(10)
H1 H 0.6442 0.2915 0.6996
O2 O 0.4076(4) 0.30879(18) 0.63138(9)
O3 O 0.4180(4) 0.62881(18) 0.77558(9)
O4 O 0.4539(3) 0.49044(19) 0.71342(9)
C1 C 0.6429(6) 0.6326(3) 0.52861(14)
H2 H 0.7082 0.7055 0.5276
C2 C 0.5720(5) 0.5842(3) 0.48136(14)
C3 C 0.4652(6) 0.4775(3) 0.47980(16)
C4 C 0.4473(6) 0.4209(3) 0.52928(15)
H3 H 0.3811 0.3483 0.5300
C5 C 0.5214(5) 0.4658(3) 0.57734(15)
C6 C 0.6202(6) 0.5757(2) 0.57835(14)
C7 C 0.6763(5) 0.6282(3) 0.63038(15)
C8 C 0.7683(5) 0.5471(3) 0.67264(15)
C9 C 0.6166(6) 0.4440(3) 0.67874(13)
C10 C 0.5014(6) 0.4004(3) 0.62768(16)
C11 C 0.7553(6) 0.6019(3) 0.73023(15)
C12 C 0.5284(6) 0.5804(3) 0.74305(15)
C13 C 0.8084(6) 0.7315(3) 0.73000(14)
H4 H 0.7891 0.7622 0.7667
H5 H 0.9557 0.7407 0.7205
C14 C 0.6777(6) 0.8032(3) 0.69075(12)
H6 H 0.5431 0.8211 0.7076
H7 H 0.7490 0.8766 0.6833
C15 C 0.6421(6) 0.7404(3) 0.63880(14)
H8 H 0.5911 0.7839 0.6094
C16 C 0.3714(7) 0.4265(3) 0.42843(15)
H9 H 0.4216 0.4732 0.3974
C17 C 0.1327(7) 0.4363(3) 0.43007(14)
H10 H 0.0789 0.3890 0.4595
H11 H 0.0752 0.4094 0.3959
H12 H 0.0933 0.5165 0.4358
C18 C 0.4371(6) 0.3014(3) 0.41886(15)
H13 H 0.5877 0.2956 0.4209
H14 H 0.3908 0.2767 0.3832
H15 H 0.3748 0.2521 0.4463
C19 C 0.9875(5) 0.5101(3) 0.65528(13)
H16 H 0.9825 0.4783 0.6189
H17 H 1.0395 0.4517 0.6801
H18 H 1.0793 0.5769 0.6558
C20 C 0.8833(6) 0.5445(3) 0.77431(12)
H19 H 0.8506 0.5795 0.8090
H20 H 1.0303 0.5547 0.7666
H21 H 0.8510 0.4624 0.7755
loop_
_geom_bond_atom_site_label_1
_geom_bond_atom_site_label_2
_geom_bond_site_symmetry_1
_geom_bond_site_symmetry_2
Br1 C2 1_555 1_555
O1 H1 1_555 1_555
O2 C10 1_555 1_555
O3 C12 1_555 1_555
O4 C9 1_555 1_555
C1 H2 1_555 1_555
C2 C1 1_555 1_555
C3 C2 1_555 1_555
C4 C3 1_555 1_555
H3 C4 1_555 1_555
C5 C4 1_555 1_555
C6 C1 1_555 1_555
C7 C6 1_555 1_555
C8 C7 1_555 1_555
C9 O1 1_555 1_555
C10 C5 1_555 1_555
C11 C8 1_555 1_555
C12 O4 1_555 1_555
C13 C11 1_555 1_555
H4 C13 1_555 1_555
H5 C13 1_555 1_555
C14 C13 1_555 1_555
H6 C14 1_555 1_555
H7 C14 1_555 1_555
C15 C7 1_555 1_555
H8 C15 1_555 1_555
C16 C3 1_555 1_555
H9 C16 1_555 1_555
C17 C16 1_555 1_555
H10 C17 1_555 1_555
H11 C17 1_555 1_555
H12 C17 1_555 1_555
C18 C16 1_555 1_555
H13 C18 1_555 1_555
H14 C18 1_555 1_555
H15 C18 1_555 1_555
C19 C8 1_555 1_555
H16 C19 1_555 1_555
H17 C19 1_555 1_555
H18 C19 1_555 1_555
C20 C11 1_555 1_555
H19 C20 1_555 1_555
H20 C20 1_555 1_555
H21 C20 1_555 1_555
C5 C6 1_555 1_555
C8 C9 1_555 1_555
C9 C10 1_555 1_555
C11 C12 1_555 1_555
C14 C15 1_555 1_555

#END
