
#######################################################################
#
#                 Cambridge Crystallographic Data Centre
#                                CCDC 
#
#######################################################################
#
# If this CIF has been generated from an entry in the Cambridge 
# Structural Database, then it will include bibliographic, chemical, 
# crystal, experimental, refinement or atomic coordinate data resulting 
# from the CCDC's data processing and validation procedures.
#
#######################################################################

data_UQASUC
_chemical_formula_moiety         'C28 H28 N2'
_chemical_name_systematic        
2,2,5-triphenyl-2,3,7,8,9,10-hexahydro-1H,6aH-pyrrolo[1,2-c]benzimidazole
_symmetry_cell_setting           monoclinic
_symmetry_space_group_name_H-M   'P 21/c'
_symmetry_Int_Tables_number      14
_space_group_name_Hall           '-P 2ybc'
loop_
_symmetry_equiv_pos_site_id
_symmetry_equiv_pos_as_xyz
1 x,y,z
2 -x,1/2+y,1/2-z
3 -x,-y,-z
4 x,1/2-y,1/2+z
_cell_length_a                   18.3248(9)
_cell_length_b                   15.0664(8)
_cell_length_c                   16.5116(8)
_cell_angle_alpha                90
_cell_angle_beta                 112.927(3)
_cell_angle_gamma                90
_cell_volume                     4198.54
_exptl_crystal_colour            colorless
_exptl_crystal_description       block
_cell_formula_units_Z            8
loop_
_atom_site_label
_atom_site_type_symbol
_atom_site_fract_x
_atom_site_fract_y
_atom_site_fract_z
C1 C 0.37851(14) 0.25092(16) 0.12273(16)
H1 H 0.3391 0.2249 0.1432
H2 H 0.3586 0.2450 0.0580
C2 C 0.39408(14) 0.34933(16) 0.15039(16)
C3 C 0.47577(14) 0.36172(17) 0.14296(17)
H3 H 0.4681 0.3805 0.0827
H4 H 0.5075 0.4075 0.1850
C4 C 0.51824(14) 0.27067(17) 0.16479(16)
C5 C 0.54942(15) 0.24342(18) 0.09503(17)
H5 H 0.5051 0.2427 0.0366
H6 H 0.5888 0.2876 0.0933
C6 C 0.58772(16) 0.15238(19) 0.11426(18)
H7 H 0.6081 0.1375 0.0685
H8 H 0.5471 0.1077 0.1112
C7 C 0.65680(17) 0.1470(2) 0.2060(2)
H9 H 0.6489 0.0946 0.2378
H10 H 0.7073 0.1389 0.1982
C8 C 0.66267(15) 0.22958(19) 0.26093(18)
H11 H 0.6859 0.2783 0.2385
H12 H 0.6990 0.2175 0.3224
C9 C 0.58275(14) 0.25996(17) 0.25999(16)
H13 H 0.5902 0.3185 0.2907
C10 C 0.48079(14) 0.17471(16) 0.25112(16)
C11 C 0.43031(14) 0.11183(17) 0.27511(17)
C12 C 0.43850(16) 0.10481(19) 0.36246(17)
H14 H 0.4753 0.1417 0.4060
C13 C 0.39314(17) 0.0442(2) 0.38601(19)
H15 H 0.3992 0.0396 0.4457
C14 C 0.33885(16) -0.00978(19) 0.32271(19)
H16 H 0.3075 -0.0507 0.3389
C15 C 0.33076(15) -0.00375(17) 0.23626(18)
H17 H 0.2941 -0.0411 0.1931
C16 C 0.37581(15) 0.05661(17) 0.21202(17)
H18 H 0.3697 0.0605 0.1523
C17 C 0.39665(15) 0.36234(16) 0.24383(16)
C18 C 0.33546(15) 0.32774(18) 0.26510(17)
H19 H 0.2927 0.2975 0.2213
C19 C 0.33609(16) 0.3369(2) 0.34924(18)
H20 H 0.2944 0.3122 0.3627
C20 C 0.39748(16) 0.38223(19) 0.41363(18)
H21 H 0.3981 0.3885 0.4711
C21 C 0.45749(17) 0.41798(18) 0.39336(18)
H22 H 0.4995 0.4492 0.4371
C22 C 0.45706(16) 0.40869(18) 0.30958(17)
H23 H 0.4986 0.4343 0.2966
C23 C 0.33265(14) 0.41288(17) 0.08789(16)
C24 C 0.35009(15) 0.50318(17) 0.09073(16)
H24 H 0.3993 0.5245 0.1321
C25 C 0.29622(15) 0.56233(18) 0.03359(17)
H25 H 0.3091 0.6236 0.0361
C26 C 0.22395(16) 0.53273(19) -0.02693(17)
H26 H 0.1875 0.5733 -0.0662
C27 C 0.20542(15) 0.44323(18) -0.02955(17)
H27 H 0.1559 0.4223 -0.0705
C28 C 0.25912(15) 0.38410(18) 0.02761(17)
H28 H 0.2456 0.3230 0.0256
N1 N 0.55063(12) 0.19622(15) 0.30537(14)
N2 N 0.45568(12) 0.20688(14) 0.16505(13)
C29 C 0.12067(14) 0.39568(17) 0.37571(16)
H29 H 0.1595 0.3727 0.3528
H30 H 0.1423 0.3877 0.4403
C30 C 0.10193(15) 0.49517(17) 0.35092(16)
C31 C 0.02163(15) 0.50306(18) 0.36129(17)
H31 H 0.0304 0.5213 0.4220
H32 H -0.0124 0.5479 0.3199
C32 C -0.01814(15) 0.41073(18) 0.34094(16)
C33 C -0.04336(16) 0.38124(19) 0.41480(18)
H33 H -0.0849 0.4221 0.4169
H34 H 0.0027 0.3861 0.4716
C34 C -0.07516(18) 0.2857(2) 0.40422(19)
H35 H -0.1065 0.2780 0.4409
H36 H -0.0299 0.2441 0.4261
C35 C -0.12727(16) 0.2621(2) 0.30845(18)
H37 H -0.0963 0.2257 0.2833
H38 H -0.1731 0.2264 0.3070
C36 C -0.15726(15) 0.34563(19) 0.25233(18)
H39 H -0.1873 0.3829 0.2780
H40 H -0.1934 0.3286 0.1921
C37 C -0.08712(15) 0.39878(18) 0.24838(17)
H41 H -0.1059 0.4583 0.2216
C38 C 0.01770(14) 0.32727(17) 0.24484(16)
C39 C 0.06903(15) 0.27320(17) 0.21357(17)
C40 C 0.06404(16) 0.2820(2) 0.12780(18)
H42 H 0.0281 0.3236 0.0894
C41 C 0.11127(17) 0.2306(2) 0.0978(2)
H43 H 0.1078 0.2373 0.0392
C42 C 0.16368(16) 0.1693(2) 0.1535(2)
H44 H 0.1956 0.1337 0.1328
C43 C 0.16934(16) 0.16026(19) 0.2396(2)
H45 H 0.2055 0.1188 0.2778
C44 C 0.12231(16) 0.21168(17) 0.26967(19)
H46 H 0.1262 0.2052 0.3285
C45 C 0.09676(15) 0.51206(17) 0.25710(16)
C46 C 0.02954(15) 0.54486(18) 0.18932(17)
H47 H -0.0169 0.5564 0.2001
C47 C 0.02901(16) 0.56104(19) 0.10652(17)
H48 H -0.0174 0.5837 0.0613
C48 C 0.09616(16) 0.54416(19) 0.08972(18)
H49 H 0.0958 0.5548 0.0328
C49 C 0.16343(16) 0.51195(19) 0.15575(18)
H50 H 0.2096 0.5008 0.1445
C50 C 0.16387(15) 0.49588(18) 0.23829(17)
H51 H 0.2106 0.4734 0.2832
C51 C 0.16485(15) 0.55780(18) 0.41234(16)
C52 C 0.14826(16) 0.64790(18) 0.41198(17)
H52 H 0.0969 0.6691 0.3761
C53 C 0.20555(16) 0.70752(19) 0.46323(18)
H53 H 0.1930 0.7687 0.4627
C54 C 0.28118(17) 0.67784(19) 0.51526(17)
H54 H 0.3207 0.7186 0.5495
C55 C 0.29824(16) 0.58848(19) 0.51673(17)
H55 H 0.3496 0.5676 0.5528
C56 C 0.24091(15) 0.52894(18) 0.46586(16)
H56 H 0.2536 0.4676 0.4674
N3 N 0.04423(12) 0.35007(14) 0.33416(13)
N4 N -0.05323(12) 0.34951(14) 0.19411(14)
loop_
_geom_bond_atom_site_label_1
_geom_bond_atom_site_label_2
_geom_bond_site_symmetry_1
_geom_bond_site_symmetry_2
C1 H1 1_555 1_555
H2 C1 1_555 1_555
C2 C1 1_555 1_555
C3 C2 1_555 1_555
H3 C3 1_555 1_555
H4 C3 1_555 1_555
C4 C3 1_555 1_555
C5 C4 1_555 1_555
H5 C5 1_555 1_555
H6 C5 1_555 1_555
C6 C5 1_555 1_555
H7 C6 1_555 1_555
H8 C6 1_555 1_555
C7 C6 1_555 1_555
H9 C7 1_555 1_555
H10 C7 1_555 1_555
C8 C7 1_555 1_555
H11 C8 1_555 1_555
H12 C8 1_555 1_555
C9 C4 1_555 1_555
H13 C9 1_555 1_555
C10 C11 1_555 1_555
C11 C12 1_555 1_555
C12 H14 1_555 1_555
C13 C12 1_555 1_555
H15 C13 1_555 1_555
C14 C13 1_555 1_555
H16 C14 1_555 1_555
C15 C14 1_555 1_555
H17 C15 1_555 1_555
C16 C11 1_555 1_555
H18 C16 1_555 1_555
C17 C2 1_555 1_555
C18 C17 1_555 1_555
H19 C18 1_555 1_555
C19 C18 1_555 1_555
H20 C19 1_555 1_555
C20 C19 1_555 1_555
H21 C20 1_555 1_555
C21 C20 1_555 1_555
H22 C21 1_555 1_555
C22 C17 1_555 1_555
H23 C22 1_555 1_555
C23 C2 1_555 1_555
C24 C23 1_555 1_555
H24 C24 1_555 1_555
C25 C24 1_555 1_555
H25 C25 1_555 1_555
C26 C25 1_555 1_555
H26 C26 1_555 1_555
C27 C26 1_555 1_555
H27 C27 1_555 1_555
C28 C23 1_555 1_555
H28 C28 1_555 1_555
N1 C9 1_555 1_555
N2 C1 1_555 1_555
C29 H29 1_555 1_555
H30 C29 1_555 1_555
C30 C29 1_555 1_555
C31 C30 1_555 1_555
H31 C31 1_555 1_555
H32 C31 1_555 1_555
C32 C31 1_555 1_555
C33 C32 1_555 1_555
H33 C33 1_555 1_555
H34 C33 1_555 1_555
C34 C33 1_555 1_555
H35 C34 1_555 1_555
H36 C34 1_555 1_555
C35 C34 1_555 1_555
H37 C35 1_555 1_555
H38 C35 1_555 1_555
C36 C35 1_555 1_555
H39 C36 1_555 1_555
H40 C36 1_555 1_555
C37 C32 1_555 1_555
H41 C37 1_555 1_555
C38 C39 1_555 1_555
C39 C40 1_555 1_555
C40 H42 1_555 1_555
C41 C40 1_555 1_555
H43 C41 1_555 1_555
C42 C41 1_555 1_555
H44 C42 1_555 1_555
C43 C42 1_555 1_555
H45 C43 1_555 1_555
C44 C39 1_555 1_555
H46 C44 1_555 1_555
C45 C30 1_555 1_555
C46 C45 1_555 1_555
H47 C46 1_555 1_555
C47 C46 1_555 1_555
H48 C47 1_555 1_555
C48 C47 1_555 1_555
H49 C48 1_555 1_555
C49 C48 1_555 1_555
H50 C49 1_555 1_555
C50 C45 1_555 1_555
H51 C50 1_555 1_555
C51 C30 1_555 1_555
C52 C51 1_555 1_555
H52 C52 1_555 1_555
C53 C52 1_555 1_555
H53 C53 1_555 1_555
C54 C53 1_555 1_555
H54 C54 1_555 1_555
C55 C54 1_555 1_555
H55 C55 1_555 1_555
C56 C51 1_555 1_555
H56 C56 1_555 1_555
N3 C29 1_555 1_555
N4 C37 1_555 1_555
C4 N2 1_555 1_555
C8 C9 1_555 1_555
C10 N1 1_555 1_555
C10 N2 1_555 1_555
C15 C16 1_555 1_555
C21 C22 1_555 1_555
C27 C28 1_555 1_555
C32 N3 1_555 1_555
C36 C37 1_555 1_555
C38 N3 1_555 1_555
C38 N4 1_555 1_555
C43 C44 1_555 1_555
C49 C50 1_555 1_555
C55 C56 1_555 1_555

#END
