
#######################################################################
#
#                 Cambridge Crystallographic Data Centre
#                                CCDC 
#
#######################################################################
#
# If this CIF has been generated from an entry in the Cambridge 
# Structural Database, then it will include bibliographic, chemical, 
# crystal, experimental, refinement or atomic coordinate data resulting 
# from the CCDC's data processing and validation procedures.
#
#######################################################################

data_UQASEM
_chemical_formula_moiety         'C32 H35 N1 O4 S1'
_chemical_name_systematic        
14-ethoxy-3,3a-dimethyl-7-(phenylsulfonyl)-1,2,3,3a,4,5,7,13,14,15a-decahydrofuro[2',3':8,8a]naphtho[2,1-b]carbazole
_symmetry_cell_setting           monoclinic
_symmetry_space_group_name_H-M   'P 21/c'
_symmetry_Int_Tables_number      14
_space_group_name_Hall           '-P 2ybc'
loop_
_symmetry_equiv_pos_site_id
_symmetry_equiv_pos_as_xyz
1 x,y,z
2 -x,1/2+y,1/2-z
3 -x,-y,-z
4 x,1/2-y,1/2+z
_cell_length_a                   10.8289(8)
_cell_length_b                   11.3994(8)
_cell_length_c                   22.3626(16)
_cell_angle_alpha                90
_cell_angle_beta                 102.7250(10)
_cell_angle_gamma                90
_cell_volume                     2692.7
_exptl_crystal_colour            colorless
_exptl_crystal_description       prismatic
_cell_formula_units_Z            4
loop_
_atom_site_label
_atom_site_type_symbol
_atom_site_fract_x
_atom_site_fract_y
_atom_site_fract_z
S1 S 0.69517(4) 0.22971(4) 0.67122(2)
N1 N 0.82989(13) 0.27931(11) 0.65679(6)
O1 O 1.10637(10) 0.84424(9) 0.55540(5)
O2 O 1.25688(12) 0.69740(11) 0.55785(6)
O3 O 0.60496(14) 0.22734(13) 0.61459(6)
O4 O 0.72594(14) 0.12488(11) 0.70574(7)
C1 C 0.95290(16) 0.25893(13) 0.69440(8)
C2 C 1.0004(2) 0.16187(15) 0.72967(9)
H1 H 0.9487 0.0988 0.7340
C3 C 1.1266(2) 0.16271(18) 0.75781(10)
H2 H 1.1604 0.0987 0.7817
C4 C 1.2054(2) 0.25573(18) 0.75181(10)
H3 H 1.2904 0.2535 0.7717
C5 C 1.15811(17) 0.35178(16) 0.71632(8)
H4 H 1.2105 0.4144 0.7121
C6 C 1.03101(16) 0.35299(13) 0.68721(7)
C7 C 0.95608(14) 0.43512(13) 0.64495(7)
C8 C 0.83419(14) 0.38985(12) 0.62694(7)
C9 C 0.74394(14) 0.44511(14) 0.58284(7)
H5 H 0.6627 0.4143 0.5710
C10 C 0.77635(14) 0.54801(13) 0.55618(7)
C11 C 0.89841(13) 0.59702(12) 0.57425(6)
C12 C 0.98687(14) 0.53832(12) 0.61869(7)
H6 H 1.0682 0.5688 0.6310
C13 C 0.67969(16) 0.59863(15) 0.50335(9)
H7 H 0.6188 0.6448 0.5192
H8 H 0.6344 0.5352 0.4791
C14 C 0.74141(18) 0.67524(16) 0.46296(8)
H9 H 0.6759 0.7133 0.4326
H10 H 0.7903 0.6261 0.4414
C15 C 0.82893(16) 0.76981(14) 0.49909(8)
C16 C 0.94230(14) 0.70406(13) 0.54236(7)
C17 C 1.02364(14) 0.78893(13) 0.58941(7)
H11 H 1.0759 0.7416 0.6220
C18 C 0.95560(16) 0.87960(15) 0.61911(8)
H12 H 1.0155 0.9400 0.6370
H13 H 0.9249 0.8428 0.6521
C19 C 0.84534(17) 0.93660(15) 0.57559(10)
H14 H 0.8768 0.9878 0.5477
H15 H 0.7978 0.9840 0.5987
C20 C 0.75840(16) 0.84425(15) 0.53899(9)
H16 H 0.7339 0.7909 0.5687
C21 C 1.04363(16) 0.66337(14) 0.50774(8)
H17 H 1.0749 0.5860 0.5215
H18 H 1.0083 0.6604 0.4640
C22 C 1.14995(16) 0.75341(14) 0.52227(8)
H19 H 1.1689 0.7842 0.4844
C23 C 0.64890(15) 0.33772(15) 0.71770(8)
C24 C 0.53758(19) 0.3975(2) 0.69906(11)
H20 H 0.4855 0.3829 0.6608
C25 C 0.5035(2) 0.4797(2) 0.73773(13)
H21 H 0.4271 0.5195 0.7257
C26 C 0.5806(2) 0.5032(2) 0.79332(12)
H22 H 0.5569 0.5587 0.8192
C27 C 0.6920(2) 0.4453(2) 0.81074(10)
H23 H 0.7454 0.4625 0.8483
C28 C 0.72667(19) 0.3619(2) 0.77374(9)
H24 H 0.8026 0.3216 0.7864
C29 C 0.6371(2) 0.90288(19) 0.50363(14)
H25 H 0.6574 0.9569 0.4743
H26 H 0.5975 0.9445 0.5317
H27 H 0.5802 0.8441 0.4827
C30 C 0.8716(2) 0.84772(17) 0.45095(9)
H28 H 0.9335 0.9032 0.4713
H29 H 0.7999 0.8890 0.4275
H30 H 0.9080 0.7995 0.4241
C31 C 1.36998(19) 0.7640(2) 0.56436(11)
H31 H 1.3550 0.8443 0.5752
H32 H 1.3977 0.7647 0.5260
C32 C 1.4694(2) 0.7094(3) 0.61359(14)
H33 H 1.4857 0.6309 0.6019
H34 H 1.4405 0.7076 0.6512
H35 H 1.5458 0.7548 0.6193
loop_
_geom_bond_atom_site_label_1
_geom_bond_atom_site_label_2
_geom_bond_site_symmetry_1
_geom_bond_site_symmetry_2
S1 N1 1_555 1_555
N1 C1 1_555 1_555
O1 C17 1_555 1_555
O2 C22 1_555 1_555
O3 S1 1_555 1_555
O4 S1 1_555 1_555
C1 C2 1_555 1_555
C2 H1 1_555 1_555
C3 C2 1_555 1_555
H2 C3 1_555 1_555
C4 C3 1_555 1_555
H3 C4 1_555 1_555
C5 C4 1_555 1_555
H4 C5 1_555 1_555
C6 C1 1_555 1_555
C7 C6 1_555 1_555
C8 N1 1_555 1_555
C9 C8 1_555 1_555
H5 C9 1_555 1_555
C10 C9 1_555 1_555
C11 C10 1_555 1_555
C12 C7 1_555 1_555
H6 C12 1_555 1_555
C13 C10 1_555 1_555
H7 C13 1_555 1_555
H8 C13 1_555 1_555
C14 C13 1_555 1_555
H9 C14 1_555 1_555
H10 C14 1_555 1_555
C15 C14 1_555 1_555
C16 C11 1_555 1_555
C17 C16 1_555 1_555
H11 C17 1_555 1_555
C18 C17 1_555 1_555
H12 C18 1_555 1_555
H13 C18 1_555 1_555
C19 C18 1_555 1_555
H14 C19 1_555 1_555
H15 C19 1_555 1_555
C20 C15 1_555 1_555
H16 C20 1_555 1_555
C21 C16 1_555 1_555
H17 C21 1_555 1_555
H18 C21 1_555 1_555
C22 O1 1_555 1_555
H19 C22 1_555 1_555
C23 S1 1_555 1_555
C24 C23 1_555 1_555
H20 C24 1_555 1_555
C25 C24 1_555 1_555
H21 C25 1_555 1_555
C26 C25 1_555 1_555
H22 C26 1_555 1_555
C27 C26 1_555 1_555
H23 C27 1_555 1_555
C28 C23 1_555 1_555
H24 C28 1_555 1_555
C29 C20 1_555 1_555
H25 C29 1_555 1_555
H26 C29 1_555 1_555
H27 C29 1_555 1_555
C30 C15 1_555 1_555
H28 C30 1_555 1_555
H29 C30 1_555 1_555
H30 C30 1_555 1_555
C31 O2 1_555 1_555
H31 C31 1_555 1_555
H32 C31 1_555 1_555
C32 C31 1_555 1_555
H33 C32 1_555 1_555
H34 C32 1_555 1_555
H35 C32 1_555 1_555
C5 C6 1_555 1_555
C7 C8 1_555 1_555
C11 C12 1_555 1_555
C15 C16 1_555 1_555
C19 C20 1_555 1_555
C21 C22 1_555 1_555
C27 C28 1_555 1_555

#END
