
#######################################################################
#
#                 Cambridge Crystallographic Data Centre
#                                CCDC 
#
#######################################################################
#
# If this CIF has been generated from an entry in the Cambridge 
# Structural Database, then it will include bibliographic, chemical, 
# crystal, experimental, refinement or atomic coordinate data resulting 
# from the CCDC's data processing and validation procedures.
#
#######################################################################

data_UQIKOW
_chemical_formula_moiety         'C22 H23 Cl1 N2 O4 S1'
_chemical_name_systematic        
"t-butyl 1-(4-chlorobenzyl)-4'-hydroxy-2-oxo-1,2-dihydro-3'H-spiro[indole-3,2'-[1,3]thiazolidine]-3'-carboxylate"
_symmetry_cell_setting           orthorhombic
_symmetry_space_group_name_H-M   'P 21 21 21'
_symmetry_Int_Tables_number      19
_space_group_name_Hall           'P 2ac 2ab'
loop_
_symmetry_equiv_pos_site_id
_symmetry_equiv_pos_as_xyz
1 x,y,z
2 1/2-x,-y,1/2+z
3 -x,1/2+y,1/2-z
4 1/2+x,1/2-y,-z
_cell_length_a                   8.828(3)
_cell_length_b                   9.811(3)
_cell_length_c                   24.766(8)
_cell_angle_alpha                90
_cell_angle_beta                 90
_cell_angle_gamma                90
_cell_volume                     2145.02
_exptl_crystal_colour            colorless
_exptl_crystal_description       Prism
_cell_formula_units_Z            4
loop_
_atom_site_label
_atom_site_type_symbol
_atom_site_fract_x
_atom_site_fract_y
_atom_site_fract_z
S1 S 0.35497(4) 0.87539(3) 0.043699(13)
Cl1 Cl 0.92624(6) 0.53720(5) 0.372776(18)
O1 O 0.69177(11) 0.85958(10) 0.10373(4)
O2 O 0.30099(12) 0.57848(10) -0.00120(4)
H1 H 0.2633 0.5906 -0.0320
O3 O 0.60369(12) 0.53970(10) 0.12954(4)
O4 O 0.61775(12) 0.44567(9) 0.04543(4)
N1 N 0.52282(13) 0.84183(12) 0.17384(5)
N2 N 0.49353(13) 0.64122(11) 0.05733(4)
C1 C 0.61152(18) 0.90911(15) 0.21564(6)
H2 H 0.5457 0.9743 0.2352
H3 H 0.6939 0.9618 0.1984
C2 C 0.67993(17) 0.81095(15) 0.25586(6)
C3 C 0.69138(19) 0.84761(18) 0.30989(6)
H4 H 0.6475 0.9306 0.3220
C4 C 0.7667(2) 0.7638(2) 0.34648(6)
H5 H 0.7772 0.7906 0.3832
C5 C 0.82533(18) 0.64221(17) 0.32896(6)
C6 C 0.80888(18) 0.60046(16) 0.27568(6)
H6 H 0.8471 0.5147 0.2642
C7 C 0.73617(18) 0.68553(16) 0.23955(6)
H7 H 0.7245 0.6577 0.2030
C8 C 0.38269(16) 0.77677(14) 0.18336(5)
C9 C 0.30419(18) 0.76576(16) 0.23144(6)
H8 H 0.3433 0.8022 0.2641
C10 C 0.16447(19) 0.69846(17) 0.22980(7)
H9 H 0.1061 0.6910 0.2619
C11 C 0.10949(18) 0.64242(18) 0.18227(6)
H10 H 0.0146 0.5967 0.1823
C12 C 0.19224(17) 0.65243(15) 0.13428(6)
H11 H 0.1551 0.6136 0.1017
C13 C 0.32893(16) 0.72004(13) 0.13541(5)
C14 C 0.43935(16) 0.75249(13) 0.09104(5)
C15 C 0.57063(16) 0.82304(13) 0.12232(5)
C16 C 0.44019(17) 0.79172(13) -0.01402(5)
H12 H 0.3784 0.8059 -0.0469
H13 H 0.5437 0.8268 -0.0206
C17 C 0.44439(15) 0.64193(13) 0.00134(5)
H14 H 0.5188 0.5919 -0.0218
C18 C 0.57505(15) 0.53906(13) 0.08160(5)
C19 C 0.71315(17) 0.32713(14) 0.06141(6)
C20 C 0.86114(19) 0.37494(16) 0.08562(7)
H15 H 0.9133 0.4345 0.0599
H16 H 0.9251 0.2959 0.0937
H17 H 0.8409 0.4254 0.1190
C21 C 0.6247(2) 0.23560(15) 0.09945(6)
H18 H 0.6030 0.2850 0.1330
H19 H 0.6847 0.1542 0.1077
H20 H 0.5294 0.2085 0.0823
C22 C 0.7387(2) 0.25865(16) 0.00706(7)
H21 H 0.6413 0.2287 -0.0077
H22 H 0.8052 0.1796 0.0118
H23 H 0.7860 0.3235 -0.0178
loop_
_geom_bond_atom_site_label_1
_geom_bond_atom_site_label_2
_geom_bond_site_symmetry_1
_geom_bond_site_symmetry_2
S1 C14 1_555 1_555
Cl1 C5 1_555 1_555
O1 C15 1_555 1_555
O2 H1 1_555 1_555
O3 C18 1_555 1_555
O4 C18 1_555 1_555
N1 C1 1_555 1_555
N2 C14 1_555 1_555
C1 H2 1_555 1_555
H3 C1 1_555 1_555
C2 C1 1_555 1_555
C3 C2 1_555 1_555
H4 C3 1_555 1_555
C4 C3 1_555 1_555
H5 C4 1_555 1_555
C5 C4 1_555 1_555
C6 C5 1_555 1_555
H6 C6 1_555 1_555
C7 C2 1_555 1_555
H7 C7 1_555 1_555
C8 N1 1_555 1_555
C9 C8 1_555 1_555
H8 C9 1_555 1_555
C10 C9 1_555 1_555
H9 C10 1_555 1_555
C11 C10 1_555 1_555
H10 C11 1_555 1_555
C12 C11 1_555 1_555
H11 C12 1_555 1_555
C13 C8 1_555 1_555
C14 C13 1_555 1_555
C15 N1 1_555 1_555
C16 S1 1_555 1_555
H12 C16 1_555 1_555
H13 C16 1_555 1_555
C17 O2 1_555 1_555
H14 C17 1_555 1_555
C18 N2 1_555 1_555
C19 O4 1_555 1_555
C20 C19 1_555 1_555
H15 C20 1_555 1_555
H16 C20 1_555 1_555
H17 C20 1_555 1_555
C21 C19 1_555 1_555
H18 C21 1_555 1_555
H19 C21 1_555 1_555
H20 C21 1_555 1_555
C22 C19 1_555 1_555
H21 C22 1_555 1_555
H22 C22 1_555 1_555
H23 C22 1_555 1_555
N2 C17 1_555 1_555
C6 C7 1_555 1_555
C12 C13 1_555 1_555
C14 C15 1_555 1_555
C16 C17 1_555 1_555

#END
