
#######################################################################
#
#                 Cambridge Crystallographic Data Centre
#                                CCDC 
#
#######################################################################
#
# If this CIF has been generated from an entry in the Cambridge 
# Structural Database, then it will include bibliographic, chemical, 
# crystal, experimental, refinement or atomic coordinate data resulting 
# from the CCDC's data processing and validation procedures.
#
#######################################################################

data_UQOQAU
_chemical_formula_moiety         'C28 H17 N1 O3'
_chemical_name_systematic        
'6-oxo-5-phenyl-6H-pyrido[3,2,1-jk]carbazol-4-yl benzoate'
_symmetry_cell_setting           monoclinic
_symmetry_space_group_name_H-M   'P 21/c'
_symmetry_Int_Tables_number      14
_space_group_name_Hall           '-P 2ybc'
loop_
_symmetry_equiv_pos_site_id
_symmetry_equiv_pos_as_xyz
1 x,y,z
2 -x,1/2+y,1/2-z
3 -x,-y,-z
4 x,1/2-y,1/2+z
_cell_length_a                   8.4935(17)
_cell_length_b                   37.583(8)
_cell_length_c                   6.8115(14)
_cell_angle_alpha                90
_cell_angle_beta                 109.54(3)
_cell_angle_gamma                90
_cell_volume                     2049.08
_exptl_crystal_colour            orange
_exptl_crystal_description       block
_cell_formula_units_Z            4
_exptl_crystal_recrystallization_method dichloromethane
_exptl_crystal_preparation       Luminescent
loop_
_atom_site_label
_atom_site_type_symbol
_atom_site_fract_x
_atom_site_fract_y
_atom_site_fract_z
C1 C 1.06780(19) 0.19529(4) 0.2241(2)
C2 C 1.03392(19) 0.15655(4) 0.2076(2)
C3 C 0.8780(2) 0.14420(4) 0.1073(2)
N1 N 0.92787(15) 0.21664(3) 0.14026(18)
C4 C 0.73811(19) 0.16676(4) 0.0104(2)
C5 C 0.5738(2) 0.15749(5) -0.1079(3)
H1 H 0.5431 0.1337 -0.1282
C6 C 0.45699(9) 0.18385(2) -0.19456(11)
H2 H 0.3489 0.1772 -0.2737
C7 C 0.49531(9) 0.21980(2) -0.16768(11)
H3 H 0.4145 0.2369 -0.2277
C8 C 0.65641(9) 0.22971(2) -0.04958(11)
C9 C 0.77183(9) 0.20270(2) 0.03352(11)
C10 C 0.91326(9) 0.25440(2) 0.12938(11)
C11 C 0.74682(19) 0.26291(4) 0.0111(2)
C12 C 0.6997(2) 0.29839(4) -0.0210(2)
H4 H 0.5907 0.3046 -0.0990
C13 C 0.8180(2) 0.32433(4) 0.0654(3)
H5 H 0.7882 0.3482 0.0449
C14 C 0.98041(15) 0.31521(3) 0.18220(17)
H6 H 1.0573 0.3332 0.2394
C15 C 1.03160(15) 0.27998(3) 0.21621(17)
H7 H 1.1409 0.2740 0.2942
C16 C 1.1779(2) 0.13268(4) 0.3049(3)
C17 C 1.3164(2) 0.13336(5) 0.2404(3)
H8 H 1.3191 0.1493 0.1371
C18 C 1.4492(3) 0.11104(6) 0.3258(4)
H9 H 1.5401 0.1116 0.2787
C19 C 1.4482(3) 0.08803(6) 0.4794(4)
H10 H 1.5388 0.0730 0.5375
C20 C 1.31392(13) 0.08688(2) 0.54943(16)
H11 H 1.3144 0.0712 0.6554
C21 C 1.17686(13) 0.10922(2) 0.46136(16)
H12 H 1.0855 0.1084 0.5075
C22 C 0.87104(13) 0.08723(2) -0.04632(16)
C23 C 0.81959(13) 0.05008(2) -0.03398(16)
C24 C 0.8242(3) 0.02686(6) -0.1879(4)
H13 H 0.8589 0.0348 -0.2962
C25 C 0.7771(4) -0.00851(7) -0.1818(5)
H14 H 0.7787 -0.0242 -0.2868
C26 C 0.7291(4) -0.01992(8) -0.0234(7)
H15 H 0.7001 -0.0437 -0.0178
C27 C 0.7226(3) 0.00288(5) 0.1290(3)
H16 H 0.6868 -0.0052 0.2361
C28 C 0.7690(3) 0.03812(5) 0.1253(3)
H17 H 0.7658 0.0536 0.2304
O1 O 1.20670(13) 0.20820(3) 0.30599(18)
O2 O 0.84399(15) 0.10767(3) 0.10374(18)
O3 O 0.9284(2) 0.09891(4) -0.1703(2)
loop_
_geom_bond_atom_site_label_1
_geom_bond_atom_site_label_2
_geom_bond_site_symmetry_1
_geom_bond_site_symmetry_2
C1 C2 1_555 1_555
C2 C3 1_555 1_555
C3 C4 1_555 1_555
N1 C1 1_555 1_555
C4 C5 1_555 1_555
C5 H1 1_555 1_555
C6 C5 1_555 1_555
H2 C6 1_555 1_555
C7 C6 1_555 1_555
H3 C7 1_555 1_555
C8 C7 1_555 1_555
C9 N1 1_555 1_555
C10 N1 1_555 1_555
C11 C8 1_555 1_555
C12 C11 1_555 1_555
H4 C12 1_555 1_555
C13 C12 1_555 1_555
H5 C13 1_555 1_555
C14 C13 1_555 1_555
H6 C14 1_555 1_555
C15 C10 1_555 1_555
H7 C15 1_555 1_555
C16 C2 1_555 1_555
C17 C16 1_555 1_555
H8 C17 1_555 1_555
C18 C17 1_555 1_555
H9 C18 1_555 1_555
C19 C18 1_555 1_555
H10 C19 1_555 1_555
C20 C19 1_555 1_555
H11 C20 1_555 1_555
C21 C16 1_555 1_555
H12 C21 1_555 1_555
C22 C23 1_555 1_555
C23 C24 1_555 1_555
C24 H13 1_555 1_555
C25 C24 1_555 1_555
H14 C25 1_555 1_555
C26 C25 1_555 1_555
H15 C26 1_555 1_555
C27 C26 1_555 1_555
H16 C27 1_555 1_555
C28 C23 1_555 1_555
H17 C28 1_555 1_555
O1 C1 1_555 1_555
O2 C3 1_555 1_555
O3 C22 1_555 1_555
C4 C9 1_555 1_555
C8 C9 1_555 1_555
C10 C11 1_555 1_555
C14 C15 1_555 1_555
C20 C21 1_555 1_555
C22 O2 1_555 1_555
C27 C28 1_555 1_555

#END
