
#######################################################################
#
#                 Cambridge Crystallographic Data Centre
#                                CCDC 
#
#######################################################################
#
# If this CIF has been generated from an entry in the Cambridge 
# Structural Database, then it will include bibliographic, chemical, 
# crystal, experimental, refinement or atomic coordinate data resulting 
# from the CCDC's data processing and validation procedures.
#
#######################################################################

data_UQOVON
_chemical_name_common            
'2,2,2-trichloroethyl 2-(4-bromophenyl)-3-(4-(3-methylbutyl)phenyl)propanoate'
_chemical_formula_moiety         'C22 H24 Br1 Cl3 O2'
_chemical_name_systematic        
'2,2,2-trichloroethyl (S)-2-(4-bromophenyl)-3-(4-isopentylphenyl)propanoate'
_symmetry_cell_setting           monoclinic
_symmetry_space_group_name_H-M   'P 21'
_symmetry_Int_Tables_number      4
_space_group_name_Hall           'P 2yb'
loop_
_symmetry_equiv_pos_site_id
_symmetry_equiv_pos_as_xyz
1 x,y,z
2 -x,1/2+y,-z
_cell_length_a                   11.0837(14)
_cell_length_b                   5.7610(7)
_cell_length_c                   18.212(2)
_cell_angle_alpha                90
_cell_angle_beta                 105.1848(16)
_cell_angle_gamma                90
_cell_volume                     1122.29
_exptl_crystal_colour            colorless
_exptl_crystal_description       needle
_cell_formula_units_Z            2
loop_
_atom_site_label
_atom_site_type_symbol
_atom_site_fract_x
_atom_site_fract_y
_atom_site_fract_z
Br1 Br 0.58065(5) 0.50711(11) 0.68487(3)
Cl1 Cl 0.56955(12) 0.7797(2) 0.06782(7)
Cl2 Cl 0.60746(16) 0.3156(2) 0.12753(8)
Cl3 Cl 0.80875(13) 0.6490(3) 0.16831(8)
O1 O 0.7646(3) 0.8064(7) 0.3505(2)
O2 O 0.6434(3) 0.5325(7) 0.27748(18)
C1 C 0.6075(5) 0.2788(11) 0.5507(3)
H1 H 0.5583 0.1593 0.5642
C2 C 0.6380(5) 0.4748(11) 0.5949(3)
C3 C 0.9703(5) 0.2199(10) 0.3033(3)
H2 H 0.9220 0.0867 0.3074
C4 C 0.7499(5) 0.6308(10) 0.5109(3)
H3 H 0.7980 0.7516 0.4971
C5 C 0.5985(5) 0.6909(10) 0.2160(3)
H4 H 0.6293 0.8493 0.2316
H5 H 0.5060 0.6940 0.2018
C6 C 0.6505(5) 0.2601(10) 0.4856(3)
H6 H 0.6312 0.1251 0.4547
C7 C 0.9796(5) 0.4015(10) 0.3553(3)
C8 C 0.7298(5) 0.6093(9) 0.3404(3)
C9 C 0.7213(5) 0.4359(9) 0.4650(3)
C10 C 0.9167(5) 0.3935(11) 0.4190(3)
H7 H 0.9487 0.5240 0.4541
H8 H 0.9415 0.2478 0.4478
C11 C 1.0307(5) 0.2319(11) 0.2457(3)
H9 H 1.0227 0.1066 0.2109
C12 C 1.1032(5) 0.4242(10) 0.2378(3)
C13 C 0.7097(5) 0.6533(10) 0.5771(3)
H10 H 0.7306 0.7861 0.6088
C14 C 1.1128(5) 0.6049(11) 0.2895(3)
H11 H 1.1615 0.7376 0.2854
C15 C 0.7717(5) 0.4067(10) 0.3949(3)
H12 H 0.7379 0.2593 0.3683
C16 C 1.0514(5) 0.5937(10) 0.3478(3)
H13 H 1.0590 0.7192 0.3825
C17 C 1.2200(6) 0.6650(13) 0.0666(4)
H14 H 1.3014 0.5803 0.0822
C18 C 1.2482(7) 0.9153(14) 0.0531(5)
H15 H 1.2910 0.9238 0.0124
H16 H 1.3020 0.9811 0.0999
H17 H 1.1699 1.0033 0.0382
C19 C 1.1684(7) 0.4344(12) 0.1745(4)
H18 H 1.2576 0.3952 0.1963
H19 H 1.1321 0.3129 0.1367
C20 C 0.6449(5) 0.6127(9) 0.1485(3)
C21 C 1.1442(7) 0.5563(16) -0.0056(4)
H20 H 1.0675 0.6461 -0.0253
H21 H 1.1227 0.3967 0.0046
H22 H 1.1931 0.5551 -0.0434
C22 C 1.1617(7) 0.6598(15) 0.1339(4)
H23 H 1.2034 0.7792 0.1710
H24 H 1.0726 0.7045 0.1153
loop_
_geom_bond_atom_site_label_1
_geom_bond_atom_site_label_2
_geom_bond_site_symmetry_1
_geom_bond_site_symmetry_2
Br1 C2 1_555 1_555
Cl1 C20 1_555 1_555
Cl2 C20 1_555 1_555
Cl3 C20 1_555 1_555
O1 C8 1_555 1_555
O2 C5 1_555 1_555
C1 H1 1_555 1_555
C2 C1 1_555 1_555
C3 H2 1_555 1_555
C4 H3 1_555 1_555
C5 H4 1_555 1_555
H5 C5 1_555 1_555
C6 C1 1_555 1_555
H6 C6 1_555 1_555
C7 C3 1_555 1_555
C8 O2 1_555 1_555
C9 C4 1_555 1_555
C10 C7 1_555 1_555
H7 C10 1_555 1_555
H8 C10 1_555 1_555
C11 C3 1_555 1_555
H9 C11 1_555 1_555
C12 C11 1_555 1_555
C13 C2 1_555 1_555
H10 C13 1_555 1_555
C14 C12 1_555 1_555
H11 C14 1_555 1_555
C15 C8 1_555 1_555
H12 C15 1_555 1_555
C16 C7 1_555 1_555
H13 C16 1_555 1_555
C17 H14 1_555 1_555
C18 C17 1_555 1_555
H15 C18 1_555 1_555
H16 C18 1_555 1_555
H17 C18 1_555 1_555
C19 C12 1_555 1_555
H18 C19 1_555 1_555
H19 C19 1_555 1_555
C20 C5 1_555 1_555
C21 C17 1_555 1_555
H20 C21 1_555 1_555
H21 C21 1_555 1_555
H22 C21 1_555 1_555
C22 C17 1_555 1_555
H23 C22 1_555 1_555
H24 C22 1_555 1_555
C4 C13 1_555 1_555
C6 C9 1_555 1_555
C9 C15 1_555 1_555
C10 C15 1_555 1_555
C14 C16 1_555 1_555
C19 C22 1_555 1_555

#END
