
#######################################################################
#
#                 Cambridge Crystallographic Data Centre
#                                CCDC 
#
#######################################################################
#
# If this CIF has been generated from an entry in the Cambridge 
# Structural Database, then it will include bibliographic, chemical, 
# crystal, experimental, refinement or atomic coordinate data resulting 
# from the CCDC's data processing and validation procedures.
#
#######################################################################

data_UQUBAL
_chemical_formula_moiety         'C30 H36 N2 O2'
_chemical_name_systematic        
3'-(hexylamino)-1'-(hexyliminio)-1-oxo-1H,1'H-2,2'-biinden-3-olate
_symmetry_cell_setting           tetragonal
_symmetry_space_group_name_H-M   'I 41/a c d'
_symmetry_Int_Tables_number      142
_space_group_name_Hall           '-I 4bd 2c'
loop_
_symmetry_equiv_pos_site_id
_symmetry_equiv_pos_as_xyz
1 x,y,z
2 1/2-x,-y,1/2+z
3 1/4-y,3/4+x,1/4+z
4 1/4+y,1/4-x,3/4+z
5 1/2-x,y,-z
6 x,-y,1/2-z
7 1/4+y,3/4+x,3/4-z
8 1/4-y,1/4-x,1/4-z
9 1/2+x,1/2+y,1/2+z
10 -x,1/2-y,z
11 3/4-y,1/4+x,3/4+z
12 3/4+y,3/4-x,1/4+z
13 -x,1/2+y,1/2-z
14 1/2+x,1/2-y,-z
15 3/4+y,1/4+x,1/4-z
16 3/4-y,3/4-x,3/4-z
17 -x,-y,-z
18 1/2+x,y,1/2-z
19 3/4+y,1/4-x,3/4-z
20 3/4-y,3/4+x,1/4-z
21 1/2+x,-y,z
22 -x,y,1/2+z
23 3/4-y,1/4-x,1/4+z
24 3/4+y,3/4+x,3/4+z
25 1/2-x,1/2-y,1/2-z
26 x,1/2+y,-z
27 1/4+y,3/4-x,1/4-z
28 1/4-y,1/4+x,3/4-z
29 x,1/2-y,1/2+z
30 1/2-x,1/2+y,z
31 1/4-y,3/4-x,3/4+z
32 1/4+y,1/4+x,1/4+z
_cell_length_a                   28.3662(7)
_cell_length_b                   28.3662(7)
_cell_length_c                   13.2230(4)
_cell_angle_alpha                90
_cell_angle_beta                 90
_cell_angle_gamma                90
_cell_volume                     10639.8
_exptl_crystal_colour            red
_exptl_crystal_description       block
_cell_formula_units_Z            16
loop_
_atom_site_label
_atom_site_type_symbol
_atom_site_fract_x
_atom_site_fract_y
_atom_site_fract_z
H1 H 0.7985 0.3956 0.2341
H2 H 0.7208 0.4173 0.2446
H3 H 0.6499 0.4595 0.2475
H4 H 1.0144 0.4873 0.0750
H5 H 1.0854 0.4947 0.1636
H6 H 0.8914 0.4109 0.2168
H7 H 0.8676 0.3611 0.2263
H8 H 0.8787 0.4210 0.3958
H9 H 0.8627 0.3682 0.4002
H10 H 0.9547 0.3970 0.3464
H11 H 0.9386 0.3441 0.3511
H12 H 0.9396 0.4036 0.5228
H13 H 0.9271 0.3499 0.5255
H14 H 1.0178 0.3858 0.4845
H15 H 1.0057 0.3318 0.4822
H16 H 0.9995 0.3871 0.6591
H17 H 1.0416 0.3529 0.6361
H18 H 0.9910 0.3325 0.6551
C1 C 0.81202(4) 0.45991(5) 0.24653(9)
C2 C 0.76212(4) 0.47542(4) 0.24771(9)
C3 C 0.72070(4) 0.45011(5) 0.24655(9)
C4 C 0.67846(5) 0.47562(5) 0.24842(9)
C5 C 0.84172(6) 0.5000 0.2500
C6 C 0.89376(6) 0.5000 0.2500
C7 C 0.92254(4) 0.49301(5) 0.16339(10)
C8 C 0.97303(4) 0.49605(5) 0.19781(9)
C9 C 1.01446(5) 0.49239(5) 0.14450(10)
C10 C 1.05689(5) 0.49657(6) 0.19814(11)
C11 C 0.86835(4) 0.39271(5) 0.25448(10)
C12 C 0.88316(5) 0.39023(5) 0.36528(10)
C13 C 0.93399(5) 0.37503(5) 0.38079(10)
C14 C 0.94683(5) 0.37326(6) 0.49267(11)
C15 C 0.99795(6) 0.36161(7) 0.51417(12)
C16 C 1.00848(6) 0.35820(7) 0.62643(13)
N1 N 0.82190(4) 0.41444(4) 0.24353(8)
O1 O 0.91087(3) 0.48509(3) 0.07346(7)
H1E H 0.7985 0.6044 0.2659
H2E H 0.7208 0.5827 0.2554
H3E H 0.6499 0.5405 0.2525
H4E H 1.0144 0.5127 0.4250
H5E H 1.0854 0.5053 0.3364
H6E H 0.8914 0.5891 0.2832
H7E H 0.8676 0.6389 0.2737
H8E H 0.8787 0.5790 0.1042
H9E H 0.8627 0.6318 0.0998
H10E H 0.9547 0.6030 0.1536
H11E H 0.9386 0.6559 0.1489
H12E H 0.9396 0.5964 -0.0228
H13E H 0.9271 0.6501 -0.0255
H14E H 1.0178 0.6142 0.0155
H15E H 1.0057 0.6682 0.0178
H16E H 0.9995 0.6129 -0.1591
H17E H 1.0416 0.6471 -0.1361
H18E H 0.9910 0.6675 -0.1551
C1E C 0.81202(4) 0.54009(5) 0.25347(9)
C2E C 0.76212(4) 0.52458(4) 0.25229(9)
C3E C 0.72070(4) 0.54989(5) 0.25345(9)
C4E C 0.67846(5) 0.52438(5) 0.25158(9)
C7E C 0.92254(4) 0.50699(5) 0.33661(10)
C8E C 0.97303(4) 0.50395(5) 0.30219(9)
C9E C 1.01446(5) 0.50761(5) 0.35550(10)
C10E C 1.05689(5) 0.50343(6) 0.30186(11)
C11E C 0.86835(4) 0.60729(5) 0.24552(10)
C12E C 0.88316(5) 0.60977(5) 0.13472(10)
C13E C 0.93399(5) 0.62497(5) 0.11921(10)
C14E C 0.94683(5) 0.62674(6) 0.00733(11)
C15E C 0.99795(6) 0.63839(7) -0.01417(12)
C16E C 1.00848(6) 0.64180(7) -0.12643(13)
N1E N 0.82190(4) 0.58556(4) 0.25647(8)
O1E O 0.91087(3) 0.51491(3) 0.42654(7)
loop_
_geom_bond_atom_site_label_1
_geom_bond_atom_site_label_2
_geom_bond_site_symmetry_1
_geom_bond_site_symmetry_2
H1 N1 1_555 1_555
H2 C3 1_555 1_555
H3 C4 1_555 1_555
H4 C9 1_555 1_555
H5 C10 1_555 1_555
H6 C11 1_555 1_555
H7 C11 1_555 1_555
H8 C12 1_555 1_555
H9 C12 1_555 1_555
H10 C13 1_555 1_555
H11 C13 1_555 1_555
H12 C14 1_555 1_555
H13 C14 1_555 1_555
H14 C15 1_555 1_555
H15 C15 1_555 1_555
H16 C16 1_555 1_555
H17 C16 1_555 1_555
H18 C16 1_555 1_555
C1 C2 1_555 1_555
C2 C3 1_555 1_555
C3 C4 1_555 1_555
C4 C4E 1_555 1_555
C5 C1 1_555 1_555
C6 C5 1_555 1_555
C7 C6 1_555 1_555
C8 C7 1_555 1_555
C9 C8 1_555 1_555
C10 C9 1_555 1_555
C11 C12 1_555 1_555
C12 C13 1_555 1_555
C13 C14 1_555 1_555
C14 C15 1_555 1_555
C15 C16 1_555 1_555
N1 C1 1_555 1_555
O1 C7 1_555 1_555
H1E N1E 1_555 1_555
H2E C3E 1_555 1_555
H3E C4E 1_555 1_555
H4E C9E 1_555 1_555
H5E C10E 1_555 1_555
H6E C11E 1_555 1_555
H7E C11E 1_555 1_555
H8E C12E 1_555 1_555
H9E C12E 1_555 1_555
H10E C13E 1_555 1_555
H11E C13E 1_555 1_555
H12E C14E 1_555 1_555
H13E C14E 1_555 1_555
H14E C15E 1_555 1_555
H15E C15E 1_555 1_555
H16E C16E 1_555 1_555
H17E C16E 1_555 1_555
H18E C16E 1_555 1_555
C1E C5 1_555 1_555
C2E C2 1_555 1_555
C3E C2E 1_555 1_555
C4E C3E 1_555 1_555
C7E C6 1_555 1_555
C8E C8 1_555 1_555
C9E C8E 1_555 1_555
C10E C10 1_555 1_555
C11E C12E 1_555 1_555
C12E C13E 1_555 1_555
C13E C14E 1_555 1_555
C14E C15E 1_555 1_555
C15E C16E 1_555 1_555
N1E C1E 1_555 1_555
O1E C7E 1_555 1_555
C11 N1 1_555 1_555
C1E C2E 1_555 1_555
C7E C8E 1_555 1_555
C9E C10E 1_555 1_555
C11E N1E 1_555 1_555

#END
