
#######################################################################
#
#                 Cambridge Crystallographic Data Centre
#                                CCDC 
#
#######################################################################
#
# If this CIF has been generated from an entry in the Cambridge 
# Structural Database, then it will include bibliographic, chemical, 
# crystal, experimental, refinement or atomic coordinate data resulting 
# from the CCDC's data processing and validation procedures.
#
#######################################################################

data_UQUMEA
_chemical_name_common            
'methyl 8-((4-methylphenyl)sulfonyl)-4-phenyl-4a,5,6,7,8,8a-hexahydro-4H-pyrano[2,3-b]pyridine-2-carboxylate'
_chemical_formula_moiety         'C23 H25 N1 O5 S1'
_chemical_name_systematic        
'ethyl (4S,4aS,8aR)-4-phenyl-8-tosyl-4a,5,6,7,8,8a-hexahydro-4H-pyrano[2,3-b]pyridine-2-carboxylate'
_symmetry_cell_setting           orthorhombic
_symmetry_space_group_name_H-M   'P 21 21 21'
_symmetry_Int_Tables_number      19
_space_group_name_Hall           'P 2ac 2ab'
loop_
_symmetry_equiv_pos_site_id
_symmetry_equiv_pos_as_xyz
1 x,y,z
2 1/2-x,-y,1/2+z
3 -x,1/2+y,1/2-z
4 1/2+x,1/2-y,-z
_cell_length_a                   8.9297(14)
_cell_length_b                   12.796(2)
_cell_length_c                   19.439(3)
_cell_angle_alpha                90
_cell_angle_beta                 90
_cell_angle_gamma                90
_cell_volume                     2221.19
_exptl_crystal_colour            colorless
_exptl_crystal_description       prismatic
_cell_formula_units_Z            4
loop_
_atom_site_label
_atom_site_type_symbol
_atom_site_fract_x
_atom_site_fract_y
_atom_site_fract_z
S1 S 0.44877(8) 0.56666(6) 0.91481(5)
N1 N 0.4803(3) 0.69206(19) 0.92595(13)
O1 O 0.6869(2) 0.74956(16) 0.86311(10)
O2 O 0.9869(4) 0.8686(3) 0.7785(2)
O3 O 0.9502(3) 0.7090(2) 0.81811(13)
O4 O 0.3969(3) 0.55478(19) 0.84551(15)
O5 O 0.3571(3) 0.5343(2) 0.97033(18)
C1 C 0.5332(4) 0.7271(3) 0.99370(17)
H1 H 0.6412 0.7194 0.9962
H2 H 0.4891 0.6838 1.0293
C2 C 0.4917(4) 0.8399(3) 1.00603(17)
H3 H 0.5403 0.8642 1.0477
H4 H 0.3843 0.8451 1.0127
C3 C 0.5376(3) 0.9088(2) 0.94647(14)
H5 H 0.6460 0.9115 0.9438
H6 H 0.5012 0.9792 0.9542
C4 C 0.4752(3) 0.8676(2) 0.87892(15)
H7 H 0.3657 0.8683 0.8821
C5 C 0.5250(3) 0.7553(2) 0.86849(15)
H8 H 0.4798 0.7277 0.8263
C6 C 0.7503(3) 0.8257(2) 0.82273(15)
C7 C 0.6804(4) 0.9090(3) 0.79998(15)
H9 H 0.7333 0.9562 0.7728
C8 C 0.5206(3) 0.9316(2) 0.81555(15)
H10 H 0.4612 0.9059 0.7767
C9 C 0.4837(4) 1.0463(2) 0.82470(15)
C10 C 0.5896(5) 1.1194(3) 0.84266(19)
H11 H 0.6889 1.0993 0.8484
C11 C 0.5489(6) 1.2232(3) 0.8522(2)
H12 H 0.6211 1.2719 0.8648
C12 C 0.4047(6) 1.2542(3) 0.8435(2)
H13 H 0.3784 1.3239 0.8493
C13 C 0.2983(5) 1.1821(3) 0.82589(18)
H14 H 0.1993 1.2028 0.8203
C14 C 0.3370(4) 1.0789(3) 0.81643(16)
H15 H 0.2637 1.0306 0.8044
C15 C 0.9082(4) 0.8054(3) 0.80500(17)
C16 C 1.1024(5) 0.6824(5) 0.7991(3)
H16 H 1.1150 0.6915 0.7504
H17 H 1.1221 0.6110 0.8111
H18 H 1.1709 0.7272 0.8232
C17 C 0.6198(3) 0.4998(2) 0.92274(15)
C18 C 0.6536(4) 0.4462(3) 0.98208(16)
H19 H 0.5871 0.4463 1.0189
C19 C 0.7866(4) 0.3927(3) 0.98641(18)
H20 H 0.8091 0.3557 1.0263
C20 C 0.8866(4) 0.3927(3) 0.93320(19)
C21 C 0.8509(4) 0.4467(3) 0.87421(18)
H21 H 0.9176 0.4468 0.8375
C22 C 0.7183(4) 0.5006(2) 0.86877(16)
H22 H 0.6957 0.5373 0.8288
C23 C 1.0340(5) 0.3359(4) 0.9398(3)
H23 H 1.1138 0.3806 0.9247
H24 H 1.0320 0.2740 0.9120
H25 H 1.0500 0.3169 0.9871
loop_
_geom_bond_atom_site_label_1
_geom_bond_atom_site_label_2
_geom_bond_site_symmetry_1
_geom_bond_site_symmetry_2
S1 N1 1_555 1_555
N1 C1 1_555 1_555
O1 C5 1_555 1_555
O2 C15 1_555 1_555
O3 C15 1_555 1_555
O4 S1 1_555 1_555
O5 S1 1_555 1_555
C1 H1 1_555 1_555
H2 C1 1_555 1_555
C2 C1 1_555 1_555
H3 C2 1_555 1_555
H4 C2 1_555 1_555
C3 C2 1_555 1_555
H5 C3 1_555 1_555
H6 C3 1_555 1_555
C4 C3 1_555 1_555
H7 C4 1_555 1_555
C5 N1 1_555 1_555
H8 C5 1_555 1_555
C6 O1 1_555 1_555
C7 C6 1_555 1_555
H9 C7 1_555 1_555
C8 C4 1_555 1_555
H10 C8 1_555 1_555
C9 C8 1_555 1_555
C10 C9 1_555 1_555
H11 C10 1_555 1_555
C11 C10 1_555 1_555
H12 C11 1_555 1_555
C12 C11 1_555 1_555
H13 C12 1_555 1_555
C13 C12 1_555 1_555
H14 C13 1_555 1_555
C14 C9 1_555 1_555
H15 C14 1_555 1_555
C15 C6 1_555 1_555
C16 O3 1_555 1_555
H16 C16 1_555 1_555
H17 C16 1_555 1_555
H18 C16 1_555 1_555
C17 S1 1_555 1_555
C18 C17 1_555 1_555
H19 C18 1_555 1_555
C19 C18 1_555 1_555
H20 C19 1_555 1_555
C20 C19 1_555 1_555
C21 C20 1_555 1_555
H21 C21 1_555 1_555
C22 C17 1_555 1_555
H22 C22 1_555 1_555
C23 C20 1_555 1_555
H23 C23 1_555 1_555
H24 C23 1_555 1_555
H25 C23 1_555 1_555
C4 C5 1_555 1_555
C7 C8 1_555 1_555
C13 C14 1_555 1_555
C21 C22 1_555 1_555

#END
