
#######################################################################
#
#                 Cambridge Crystallographic Data Centre
#                                CCDC 
#
#######################################################################
#
# If this CIF has been generated from an entry in the Cambridge 
# Structural Database, then it will include bibliographic, chemical, 
# crystal, experimental, refinement or atomic coordinate data resulting 
# from the CCDC's data processing and validation procedures.
#
#######################################################################

data_UQUNEB
_chemical_formula_moiety         'C42 H32 Cl1 O6 P1'
_chemical_name_systematic        
"methyl 5-(4-chlorophenyl)-4-(2-methoxy-2-oxo-1-(triphenylphosphoranylidene)ethyl)-1',3'-dioxo-1',3'-dihydrospiro[cyclopent-3-ene-1,2'-indene]-2-carboxylate"
_symmetry_cell_setting           triclinic
_symmetry_space_group_name_H-M   'P -1'
_symmetry_Int_Tables_number      2
_space_group_name_Hall           '-P 1'
loop_
_symmetry_equiv_pos_site_id
_symmetry_equiv_pos_as_xyz
1 x,y,z
2 -x,-y,-z
_cell_length_a                   7.9763(11)
_cell_length_b                   12.9051(17)
_cell_length_c                   16.918(2)
_cell_angle_alpha                90.949(5)
_cell_angle_beta                 92.645(4)
_cell_angle_gamma                90.109(4)
_cell_volume                     1739.35
_exptl_crystal_colour            yellow
_exptl_crystal_description       block
_cell_formula_units_Z            2
loop_
_atom_site_label
_atom_site_type_symbol
_atom_site_fract_x
_atom_site_fract_y
_atom_site_fract_z
C1 C 0.6729(4) 0.6267(3) 0.1660(2)
H1 H 0.6174 0.5718 0.1884
C2 C 0.5833(4) 0.6969(3) 0.1207(2)
H2 H 0.4678 0.6893 0.1126
C3 C 0.6651(5) 0.7785(3) 0.0874(2)
H3 H 0.6046 0.8256 0.0563
C4 C 0.8361(5) 0.7905(3) 0.0999(2)
H4 H 0.8900 0.8464 0.0781
C5 C 0.9278(4) 0.7203(2) 0.14476(19)
H5 H 1.0434 0.7282 0.1523
C6 C 0.8464(4) 0.6372(2) 0.17885(17)
C7 C 1.0947(4) 0.6961(3) 0.3342(2)
H6 H 1.0706 0.7418 0.2933
C8 C 1.1698(5) 0.7323(3) 0.4044(2)
H7 H 1.1966 0.8023 0.4103
C9 C 1.2058(5) 0.6660(4) 0.4659(2)
H8 H 1.2561 0.6910 0.5132
C10 C 1.1670(4) 0.5633(3) 0.4569(2)
H9 H 1.1913 0.5184 0.4983
C11 C 1.0915(4) 0.5251(3) 0.38670(19)
H10 H 1.0656 0.4550 0.3812
C12 C 1.0550(3) 0.5922(2) 0.32457(17)
C13 C 1.1311(4) 0.5149(3) 0.09260(19)
H11 H 1.0440 0.5521 0.0681
C14 C 1.2579(4) 0.4748(3) 0.0481(2)
H12 H 1.2557 0.4850 -0.0063
C15 C 1.3869(4) 0.4199(3) 0.0838(2)
H13 H 1.4702 0.3915 0.0535
C16 C 1.3930(4) 0.4071(3) 0.1646(2)
H14 H 1.4815 0.3710 0.1889
C17 C 1.2683(4) 0.4477(2) 0.20952(19)
H15 H 1.2745 0.4400 0.2641
C18 C 1.1332(3) 0.4999(2) 0.17395(17)
C19 C 0.5724(5) 0.5711(3) 0.3877(2)
H16 H 0.4777 0.5892 0.3536
H17 H 0.6034 0.6293 0.4213
H18 H 0.5434 0.5135 0.4196
C20 C 0.7139(3) 0.4430(2) 0.31244(17)
C21 C 0.8376(3) 0.4297(2) 0.25416(17)
C22 C 0.8480(3) 0.3293(2) 0.21187(17)
C23 C 0.8814(4) 0.3098(2) 0.13644(18)
H19 H 0.8961 0.3614 0.0997
C24 C 0.8927(4) 0.1964(2) 0.11705(17)
H20 H 1.0114 0.1767 0.1193
C25 C 0.8177(4) 0.1661(3) 0.03610(19)
C26 C 0.7396(5) 0.0229(3) -0.0459(2)
H21 H 0.6339 0.0550 -0.0595
H22 H 0.7245 -0.0508 -0.0433
H23 H 0.8182 0.0381 -0.0855
C27 C 0.8691(4) 0.0389(2) 0.21359(18)
C28 C 0.7210(4) -0.0164(2) 0.24212(19)
C29 C 0.7112(6) -0.1076(3) 0.2847(2)
H24 H 0.8070 -0.1433 0.3016
C30 C 0.5509(7) -0.1430(3) 0.3008(3)
H25 H 0.5400 -0.2040 0.3286
C31 C 0.4085(6) -0.0900(4) 0.2766(3)
H26 H 0.3039 -0.1154 0.2890
C32 C 0.4178(5) -0.0013(3) 0.2348(2)
H27 H 0.3212 0.0336 0.2177
C33 C 0.5753(4) 0.0355(2) 0.21831(19)
C34 C 0.6192(4) 0.1274(2) 0.17238(18)
C35 C 0.8080(3) 0.1453(2) 0.18632(17)
C36 C 0.8279(4) 0.2281(2) 0.25650(17)
H28 H 0.7240 0.2307 0.2851
C37 C 0.9744(4) 0.2063(2) 0.31439(18)
C38 C 1.1373(4) 0.2300(3) 0.2968(2)
H29 H 1.1569 0.2604 0.2486
C39 C 1.2724(5) 0.2100(3) 0.3487(3)
H30 H 1.3806 0.2286 0.3362
C40 C 1.2447(7) 0.1630(4) 0.4176(3)
C41 C 1.0861(7) 0.1361(4) 0.4370(2)
H31 H 1.0693 0.1023 0.4841
C42 C 0.9487(6) 0.1593(3) 0.3856(2)
H32 H 0.8404 0.1430 0.3995
Cl1 Cl 1.4244(9) 0.1416(7) 0.4823(4)
O1 O 0.7104(3) 0.54322(16) 0.34073(13)
O2 O 0.6157(3) 0.37879(17) 0.33546(14)
O3 O 0.7828(4) 0.2241(2) -0.01612(14)
O4 O 0.8031(3) 0.06225(17) 0.02980(13)
O5 O 1.0097(3) 0.00527(18) 0.21082(15)
O6 O 0.5248(3) 0.17735(19) 0.13036(15)
P1 P 0.95932(9) 0.53704(6) 0.23343(4)
Cl2? Cl 1.379(7) 0.116(4) 0.4865(11)
loop_
_geom_bond_atom_site_label_1
_geom_bond_atom_site_label_2
_geom_bond_site_symmetry_1
_geom_bond_site_symmetry_2
C1 H1 1_555 1_555
C2 C1 1_555 1_555
H2 C2 1_555 1_555
C3 C2 1_555 1_555
H3 C3 1_555 1_555
C4 C3 1_555 1_555
H4 C4 1_555 1_555
C5 C4 1_555 1_555
H5 C5 1_555 1_555
C6 C1 1_555 1_555
C7 H6 1_555 1_555
C8 C7 1_555 1_555
H7 C8 1_555 1_555
C9 C8 1_555 1_555
H8 C9 1_555 1_555
C10 C9 1_555 1_555
H9 C10 1_555 1_555
C11 C10 1_555 1_555
H10 C11 1_555 1_555
C12 C7 1_555 1_555
C13 H11 1_555 1_555
C14 C13 1_555 1_555
H12 C14 1_555 1_555
C15 C14 1_555 1_555
H13 C15 1_555 1_555
C16 C15 1_555 1_555
H14 C16 1_555 1_555
C17 C16 1_555 1_555
H15 C17 1_555 1_555
C18 C13 1_555 1_555
C19 H16 1_555 1_555
H17 C19 1_555 1_555
H18 C19 1_555 1_555
C20 C21 1_555 1_555
C21 C22 1_555 1_555
C22 C23 1_555 1_555
C23 H19 1_555 1_555
C24 C23 1_555 1_555
H20 C24 1_555 1_555
C25 C24 1_555 1_555
C26 H21 1_555 1_555
H22 C26 1_555 1_555
H23 C26 1_555 1_555
C27 C28 1_555 1_555
C28 C29 1_555 1_555
C29 H24 1_555 1_555
C30 C29 1_555 1_555
H25 C30 1_555 1_555
C31 C30 1_555 1_555
H26 C31 1_555 1_555
C32 C31 1_555 1_555
H27 C32 1_555 1_555
C33 C28 1_555 1_555
C34 C33 1_555 1_555
C35 C24 1_555 1_555
C36 C22 1_555 1_555
H28 C36 1_555 1_555
C37 C36 1_555 1_555
C38 C37 1_555 1_555
H29 C38 1_555 1_555
C39 C38 1_555 1_555
H30 C39 1_555 1_555
C40 C39 1_555 1_555
C41 C40 1_555 1_555
H31 C41 1_555 1_555
C42 C37 1_555 1_555
H32 C42 1_555 1_555
Cl1 C40 1_555 1_555
O1 C19 1_555 1_555
O2 C20 1_555 1_555
O3 C25 1_555 1_555
O4 C25 1_555 1_555
O5 C27 1_555 1_555
O6 C34 1_555 1_555
P1 C6 1_555 1_555
C5 C6 1_555 1_555
C11 C12 1_555 1_555
C12 P1 1_555 1_555
C17 C18 1_555 1_555
C18 P1 1_555 1_555
C20 O1 1_555 1_555
C21 P1 1_555 1_555
C26 O4 1_555 1_555
C27 C35 1_555 1_555
C32 C33 1_555 1_555
C34 C35 1_555 1_555
C35 C36 1_555 1_555
C41 C42 1_555 1_555

#END
