
#######################################################################
#
#                 Cambridge Crystallographic Data Centre
#                                CCDC 
#
#######################################################################
#
# If this CIF has been generated from an entry in the Cambridge 
# Structural Database, then it will include bibliographic, chemical, 
# crystal, experimental, refinement or atomic coordinate data resulting 
# from the CCDC's data processing and validation procedures.
#
#######################################################################

data_URADOH
_chemical_name_common            
1-(2,4-Dinitrophenyl)-2-(1-(2-thienyl)ethylidene)hydrazine
_chemical_formula_moiety         'C12 H10 N4 O4 S1'
_chemical_name_systematic        
(E)-1-(2,4-Dinitrophenyl)-2-[1-(thiophen-2-yl)ethylidene]hydrazine
_symmetry_cell_setting           monoclinic
_symmetry_space_group_name_H-M   'P 21/c'
_symmetry_Int_Tables_number      14
_space_group_name_Hall           '-P 2ybc'
loop_
_symmetry_equiv_pos_site_id
_symmetry_equiv_pos_as_xyz
1 x,y,z
2 -x,1/2+y,1/2-z
3 -x,-y,-z
4 x,1/2-y,1/2+z
_cell_length_a                   9.4868(5)
_cell_length_b                   15.3912(8)
_cell_length_c                   8.9756(4)
_cell_angle_alpha                90
_cell_angle_beta                 91.672(2)
_cell_angle_gamma                90
_cell_volume                     1310
_exptl_crystal_colour            orange
_exptl_crystal_description       block
_cell_formula_units_Z            4
loop_
_atom_site_label
_atom_site_type_symbol
_atom_site_fract_x
_atom_site_fract_y
_atom_site_fract_z
S1 S 0.18528(6) 0.07603(4) 1.08312(6)
O1 O 0.38055(16) 0.48642(10) 0.89817(17)
O2 O 0.5358(2) 0.53354(10) 0.7464(2)
O3 O 0.82477(16) 0.34691(11) 0.46978(17)
O4 O 0.82742(17) 0.20890(11) 0.51711(18)
N1 N 0.29668(17) 0.24567(11) 1.00495(18)
N2 N 0.35684(18) 0.31993(13) 0.9518(2)
H1 H 0.328(2) 0.3673(18) 0.967(3)
N3 N 0.47704(19) 0.47362(12) 0.8097(2)
N4 N 0.78273(18) 0.28269(13) 0.53639(19)
C1 C 0.4601(2) 0.31302(13) 0.8510(2)
C2 C 0.5214(2) 0.38567(13) 0.7812(2)
C3 C 0.6272(2) 0.37572(14) 0.6779(2)
H2 H 0.6662 0.4239 0.6322
C4 C 0.6724(2) 0.29369(14) 0.6451(2)
C5 C 0.6148(2) 0.22010(14) 0.7110(2)
H3 H 0.6469 0.1649 0.6866
C6 C 0.5112(2) 0.23004(13) 0.8115(2)
H4 H 0.4731 0.1810 0.8553
C7 C 0.2011(2) 0.25572(14) 1.1041(2)
C8 C 0.1380(2) 0.17563(14) 1.1560(2)
C9 C 0.0380(2) 0.16528(15) 1.2632(2)
H5 H -0.0017 0.2113 1.3144
C10 C 0.0020(2) 0.07644(14) 1.2874(2)
H6 H -0.0628 0.0581 1.3565
C11 C 0.0736(2) 0.02170(16) 1.1973(2)
H7 H 0.0630 -0.0384 1.1977
C12 C 0.1551(2) 0.34159(14) 1.1648(2)
H8 H 0.2364 0.3740 1.1986
H9 H 0.0941 0.3321 1.2468
H10 H 0.1054 0.3736 1.0880
loop_
_geom_bond_atom_site_label_1
_geom_bond_atom_site_label_2
_geom_bond_site_symmetry_1
_geom_bond_site_symmetry_2
S1 C8 1_555 1_555
O1 N3 1_555 1_555
O2 N3 1_555 1_555
O3 N4 1_555 1_555
O4 N4 1_555 1_555
N1 N2 1_555 1_555
N2 H1 1_555 1_555
N3 C2 1_555 1_555
N4 C4 1_555 1_555
C1 N2 1_555 1_555
C2 C1 1_555 1_555
C3 C2 1_555 1_555
H2 C3 1_555 1_555
C4 C3 1_555 1_555
C5 C4 1_555 1_555
H3 C5 1_555 1_555
C6 C1 1_555 1_555
H4 C6 1_555 1_555
C7 N1 1_555 1_555
C8 C7 1_555 1_555
C9 C8 1_555 1_555
H5 C9 1_555 1_555
C10 C9 1_555 1_555
H6 C10 1_555 1_555
C11 S1 1_555 1_555
H7 C11 1_555 1_555
C12 C7 1_555 1_555
H8 C12 1_555 1_555
H9 C12 1_555 1_555
H10 C12 1_555 1_555
C5 C6 1_555 1_555
C10 C11 1_555 1_555

#END
