
#######################################################################
#
#                 Cambridge Crystallographic Data Centre
#                                CCDC 
#
#######################################################################
#
# If this CIF has been generated from an entry in the Cambridge 
# Structural Database, then it will include bibliographic, chemical, 
# crystal, experimental, refinement or atomic coordinate data resulting 
# from the CCDC's data processing and validation procedures.
#
#######################################################################

data_URALAB
_chemical_formula_moiety         'C15 H16 N2 O2'
_chemical_name_systematic        
2-Ethoxy-6-(((3-methylpyridin-2-yl)imino)methyl)phenol
_symmetry_cell_setting           monoclinic
_symmetry_space_group_name_H-M   'P 21/n'
_symmetry_Int_Tables_number      14
_space_group_name_Hall           '-P 2yn'
loop_
_symmetry_equiv_pos_site_id
_symmetry_equiv_pos_as_xyz
1 x,y,z
2 1/2-x,1/2+y,1/2-z
3 -x,-y,-z
4 1/2+x,1/2-y,1/2+z
_cell_length_a                   4.8200(10)
_cell_length_b                   38.385(3)
_cell_length_c                   7.207(2)
_cell_angle_alpha                90
_cell_angle_beta                 96.381(2)
_cell_angle_gamma                90
_cell_volume                     1325.15
_exptl_crystal_colour            yellow
_exptl_crystal_description       block
_cell_formula_units_Z            4
loop_
_atom_site_label
_atom_site_type_symbol
_atom_site_fract_x
_atom_site_fract_y
_atom_site_fract_z
N1 N 0.6449(5) 0.84753(6) 0.0653(4)
N2 N 0.9399(6) 0.80518(7) 0.2233(4)
O1 O 0.3096(5) 0.89291(6) -0.1048(3)
H1 H 0.4207 0.8767 -0.0957
O2 O -0.0665(5) 0.94125(6) -0.0911(3)
C1 C 0.3479(6) 0.88351(8) 0.2257(5)
C2 C 0.2310(6) 0.90021(8) 0.0638(4)
C3 C 0.0320(7) 0.92615(8) 0.0768(5)
C4 C -0.0520(7) 0.93435(9) 0.2466(5)
H2 H -0.1876 0.9514 0.2543
C5 C 0.0632(8) 0.91749(10) 0.4080(5)
H3 H 0.0057 0.9234 0.5229
C6 C 0.2592(7) 0.89243(9) 0.3978(5)
H4 H 0.3351 0.8811 0.5058
C7 C 0.5550(7) 0.85676(8) 0.2183(5)
H5 H 0.6260 0.8458 0.3286
C8 C 0.8476(6) 0.82108(8) 0.0640(5)
C9 C 0.9424(7) 0.81326(8) -0.1071(5)
C10 C 1.1400(7) 0.78743(9) -0.1066(5)
H6 H 1.2096 0.7813 -0.2174
C11 C 1.2348(7) 0.77076(9) 0.0558(6)
H7 H 1.3680 0.7532 0.0568
C12 C 1.1299(7) 0.78039(9) 0.2162(5)
H8 H 1.1950 0.7690 0.3263
C13 C 0.8314(7) 0.83182(9) -0.2831(4)
H9 H 0.9225 0.8231 -0.3855
H10 H 0.8669 0.8563 -0.2689
H11 H 0.6340 0.8279 -0.3074
C14 C -0.2849(7) 0.96607(9) -0.0914(5)
H12 H -0.2220 0.9861 -0.0165
H13 H -0.4439 0.9559 -0.0399
C15 C -0.3642(9) 0.97670(11) -0.2899(6)
H14 H -0.2014 0.9847 -0.3428
H15 H -0.4995 0.9951 -0.2943
H16 H -0.4427 0.9571 -0.3600
loop_
_geom_bond_atom_site_label_1
_geom_bond_atom_site_label_2
_geom_bond_site_symmetry_1
_geom_bond_site_symmetry_2
N1 C7 1_555 1_555
N2 C8 1_555 1_555
O1 H1 1_555 1_555
O2 C3 1_555 1_555
C1 C2 1_555 1_555
C2 O1 1_555 1_555
C3 C2 1_555 1_555
C4 C3 1_555 1_555
H2 C4 1_555 1_555
C5 C4 1_555 1_555
H3 C5 1_555 1_555
C6 C1 1_555 1_555
H4 C6 1_555 1_555
C7 C1 1_555 1_555
H5 C7 1_555 1_555
C8 N1 1_555 1_555
C9 C8 1_555 1_555
C10 C9 1_555 1_555
H6 C10 1_555 1_555
C11 C10 1_555 1_555
H7 C11 1_555 1_555
C12 N2 1_555 1_555
H8 C12 1_555 1_555
C13 C9 1_555 1_555
H9 C13 1_555 1_555
H10 C13 1_555 1_555
H11 C13 1_555 1_555
C14 O2 1_555 1_555
H12 C14 1_555 1_555
H13 C14 1_555 1_555
C15 C14 1_555 1_555
H14 C15 1_555 1_555
H15 C15 1_555 1_555
H16 C15 1_555 1_555
C5 C6 1_555 1_555
C11 C12 1_555 1_555

#END
