
#######################################################################
#
#                 Cambridge Crystallographic Data Centre
#                                CCDC 
#
#######################################################################
#
# If this CIF has been generated from an entry in the Cambridge 
# Structural Database, then it will include bibliographic, chemical, 
# crystal, experimental, refinement or atomic coordinate data resulting 
# from the CCDC's data processing and validation procedures.
#
#######################################################################

data_URAPEK
_chemical_formula_moiety         'C36 H35 N5 O3'
_chemical_name_systematic        
3',6'-bis(diethylamino)-2-(7-oxo-7,8-dihydro-1,8-naphthyridin-2-yl)spiro[isoindole-1,9'-xanthen]-3(2H)-one
_symmetry_cell_setting           triclinic
_symmetry_space_group_name_H-M   'P -1'
_symmetry_Int_Tables_number      2
_space_group_name_Hall           '-P 1'
loop_
_symmetry_equiv_pos_site_id
_symmetry_equiv_pos_as_xyz
1 x,y,z
2 -x,-y,-z
_cell_length_a                   16.9751(5)
_cell_length_b                   20.3272(6)
_cell_length_c                   20.5345(6)
_cell_angle_alpha                90.308(2)
_cell_angle_beta                 105.442(3)
_cell_angle_gamma                107.538(3)
_cell_volume                     6483.99
_exptl_crystal_colour            yellow
_exptl_crystal_description       block
_cell_formula_units_Z            8
loop_
_atom_site_label
_atom_site_type_symbol
_atom_site_fract_x
_atom_site_fract_y
_atom_site_fract_z
O1 O 0.24035(18) 0.23972(16) 0.05458(11)
N1 N 0.16694(16) 0.08525(14) 0.07939(12)
N2 N 0.04537(16) 0.11599(14) 0.07267(13)
H1 H 0.0755 0.1571 0.0680
C1 C 0.08490(19) 0.06584(17) 0.08099(14)
N3 N 0.29100(17) 0.06047(14) 0.08103(13)
C2 C 0.28530(19) 0.15439(17) 0.00466(15)
C3 C 0.23714(19) 0.13334(17) -0.11837(15)
H2 H 0.2367 0.1097 -0.1574
C4 C 0.33527(19) 0.18539(18) 0.12930(15)
O2 O -0.07041(16) 0.15373(15) 0.06208(13)
C5 C 0.2421(2) 0.20310(19) -0.00081(16)
C6 C 0.0382(2) -0.00215(18) 0.08930(16)
C7 C 0.2061(2) 0.03643(18) 0.08474(15)
C8 C 0.28146(18) 0.12014(17) -0.05539(15)
H3 H 0.3097 0.0871 -0.0532
N4 N 0.14651(19) 0.19456(17) -0.18570(14)
O3 O 0.32278(17) -0.04324(14) 0.07332(14)
C9 C 0.0820(2) -0.05120(19) 0.09573(16)
H4 H 0.0538 -0.0967 0.1017
C10 C -0.0394(2) 0.10542(19) 0.07125(16)
N5 N 0.3530(2) 0.32804(17) 0.28611(14)
C11 C 0.4209(2) 0.13548(18) 0.07137(15)
C12 C 0.3819(2) 0.18405(18) 0.19595(16)
H5 H 0.4102 0.1510 0.2056
C13 C 0.19275(19) 0.18234(18) -0.12365(15)
C14 C 0.1656(2) -0.03329(19) 0.09331(16)
H6 H 0.1946 -0.0659 0.0972
C15 C 0.3879(2) 0.22945(19) 0.24792(16)
H7 H 0.4197 0.2266 0.2917
C16 C 0.2969(2) 0.2810(2) 0.16855(17)
H8 H 0.2674 0.3131 0.1585
C17 C 0.4254(2) 0.06856(19) 0.07083(16)
C18 C 0.33172(18) 0.13625(17) 0.07244(15)
C19 C 0.2921(2) 0.2340(2) 0.11769(16)
C20 C 0.1962(2) 0.2173(2) -0.06321(16)
H9 H 0.1677 0.2501 -0.0649
C21 C 0.3462(2) 0.28055(19) 0.23544(16)
C22 C -0.0859(2) 0.0358(2) 0.08101(17)
H10 H -0.1429 0.0257 0.0817
C23 C 0.5654(2) 0.1778(2) 0.06418(17)
H11 H 0.6134 0.2145 0.0631
C24 C -0.0493(2) -0.0151(2) 0.08911(17)
H12 H -0.0816 -0.0595 0.0947
C25 C 0.4990(2) 0.0546(2) 0.06567(17)
H13 H 0.5013 0.0094 0.0648
C26 C 0.3426(2) 0.01963(19) 0.07480(16)
C27 C 0.4141(2) 0.3344(2) 0.35268(17)
H14 H 0.4094 0.2883 0.3672
H15 H 0.3984 0.3595 0.3849
C28 C 0.4904(2) 0.1914(2) 0.06817(16)
H16 H 0.4875 0.2363 0.0687
C29 C 0.0990(2) 0.2439(2) -0.19187(18)
H17 H 0.0733 0.2411 -0.1546
H18 H 0.0527 0.2315 -0.2338
C30 C 0.5691(2) 0.1103(2) 0.06183(17)
H19 H 0.6188 0.1024 0.0577
C31 C 0.1529(2) 0.1652(2) -0.24800(16)
H20 H 0.2110 0.1635 -0.2412
H21 H 0.1423 0.1953 -0.2835
C32 C 0.3247(3) 0.3881(2) 0.2687(2)
H22 H 0.3349 0.4016 0.2257
H23 H 0.3592 0.4263 0.3029
C33 C 0.5078(3) 0.3713(2) 0.3549(2)
H24 H 0.5440 0.3736 0.4002
H25 H 0.5135 0.4173 0.3417
H26 H 0.5246 0.3461 0.3242
C34 C 0.0900(3) 0.0929(2) -0.2711(2)
H27 H 0.0970 0.0762 -0.3123
H28 H 0.0323 0.0943 -0.2789
H29 H 0.1011 0.0625 -0.2366
C35 C 0.1546(3) 0.3173(2) -0.1914(2)
H30 H 0.1203 0.3478 -0.1955
H31 H 0.1791 0.3207 -0.2289
H32 H 0.1999 0.3302 -0.1496
C36 C 0.2316(4) 0.3756(3) 0.2634(3)
H33 H 0.2170 0.4170 0.2516
H34 H 0.2213 0.3635 0.3061
H35 H 0.1969 0.3385 0.2289
O4 O 0.24302(17) 0.76761(15) 0.06025(11)
N6 N 0.15612(16) 0.60268(14) 0.08389(12)
C37 C 0.27866(19) 0.63675(17) -0.04143(16)
H36 H 0.3049 0.6023 -0.0370
C38 C 0.28248(18) 0.67431(16) 0.01714(15)
N7 N 0.02631(17) 0.62431(15) 0.06167(13)
H37 H 0.0541 0.6655 0.0551
N8 N 0.15468(18) 0.71374(17) -0.17850(13)
C39 C 0.2011(2) 0.55881(18) 0.09931(15)
C40 C 0.2431(2) 0.72552(18) 0.00757(16)
O5 O -0.09650(17) 0.65470(16) 0.04046(15)
C41 C 0.23703(19) 0.64903(17) -0.10618(16)
H38 H 0.2360 0.6228 -0.1438
C42 C 0.07198(19) 0.57844(17) 0.07820(15)
C43 C 0.33765(19) 0.81237(18) 0.24198(15)
C44 C 0.32871(19) 0.71168(17) 0.14101(15)
C45 C 0.3775(2) 0.76027(18) 0.25837(16)
H39 H 0.4072 0.7585 0.3031
C46 C 0.32757(19) 0.65989(17) 0.08658(15)
C47 C 0.2008(2) 0.74005(19) -0.05660(16)
H40 H 0.1758 0.7753 -0.0606
C48 C 0.4191(2) 0.66069(18) 0.09367(16)
N9 N 0.28863(17) 0.58642(15) 0.10349(14)
C49 C 0.37253(19) 0.71213(18) 0.20870(16)
H41 H 0.3996 0.6787 0.2209
C50 C 0.19658(19) 0.70063(18) -0.11527(15)
C51 C 0.2922(2) 0.8115(2) 0.17384(16)
H42 H 0.2645 0.8444 0.1609
C52 C 0.2885(2) 0.76135(19) 0.12532(15)
C53 C 0.0276(2) 0.51013(18) 0.08778(15)
C54 C -0.0634(2) 0.4923(2) 0.08070(17)
H43 H -0.0936 0.4475 0.0870
C55 C 0.4853(2) 0.71090(19) 0.07818(16)
H44 H 0.4755 0.7492 0.0570
O6 O 0.34099(19) 0.50007(16) 0.15455(16)
C56 C -0.0605(2) 0.6097(2) 0.05471(17)
C57 C 0.3032(2) 0.9145(2) 0.27585(18)
H45 H 0.2916 0.9292 0.3164
H46 H 0.2483 0.8947 0.2419
C58 C 0.1555(2) 0.6787(2) -0.24020(16)
H47 H 0.2086 0.6674 -0.2321
H48 H 0.1540 0.7098 -0.2758
C59 C 0.5021(2) 0.8976(2) 0.35322(19)
H49 H 0.5407 0.9027 0.3980
H50 H 0.5120 0.9416 0.3347
H51 H 0.5121 0.8651 0.3247
C60 C 0.4096(2) 0.87095(19) 0.35680(17)
H52 H 0.4013 0.8273 0.3770
H53 H 0.4010 0.9036 0.3868
C61 C 0.1642(2) 0.48922(19) 0.10970(17)
H54 H 0.1975 0.4598 0.1203
C62 C 0.0774(2) 0.46592(19) 0.10377(17)
H55 H 0.0516 0.4201 0.1105
C63 C 0.1077(2) 0.7637(2) -0.18808(17)
H56 H 0.0829 0.7640 -0.1507
H57 H 0.0607 0.7492 -0.2295
C64 C 0.5812(2) 0.6473(2) 0.1282(2)
H58 H 0.6367 0.6442 0.1410
C65 C -0.1051(2) 0.5390(2) 0.06516(18)
H59 H -0.1638 0.5260 0.0610
C66 C 0.4333(2) 0.6036(2) 0.12373(18)
C67 C 0.3521(2) 0.5559(2) 0.13076(19)
C68 C 0.3556(3) 0.9786(2) 0.2496(2)
H60 H 0.3239 1.0111 0.2403
H61 H 0.3663 0.9652 0.2087
H62 H 0.4094 0.9998 0.2832
C69 C 0.5664(2) 0.7031(2) 0.09478(18)
H63 H 0.6112 0.7357 0.0834
C70 C 0.5153(2) 0.5960(2) 0.1429(2)
H64 H 0.5251 0.5580 0.1646
C71 C 0.0802(3) 0.6133(3) -0.2635(2)
H65 H 0.0830 0.5920 -0.3043
H66 H 0.0275 0.6244 -0.2722
H67 H 0.0822 0.5819 -0.2288
C72 C 0.1641(3) 0.8367(3) -0.1921(2)
H68 H 0.1301 0.8675 -0.1983
H69 H 0.1877 0.8369 -0.2297
H70 H 0.2100 0.8516 -0.1508
N10 N 0.34359(18) 0.86053(16) 0.29187(13)
O7 O 0.74245(16) 0.89196(12) 0.44110(11)
N11 N 0.83141(16) 0.76724(15) 0.41205(12)
C73 C 0.66031(19) 0.79285(18) 0.35897(15)
N12 N 0.96205(16) 0.85190(15) 0.42938(13)
H71 H 0.9364 0.8805 0.4370
N13 N 0.84366(18) 0.87876(16) 0.67850(14)
C74 C 0.75740(18) 0.77355(18) 0.60480(16)
H72 H 0.7602 0.7473 0.6418
C75 C 0.70723(18) 0.77755(17) 0.48244(15)
C76 C 0.66108(19) 0.74127(17) 0.41172(15)
N14 N 0.69679(17) 0.68652(14) 0.39465(13)
C77 C 0.61820(19) 0.77153(18) 0.29053(16)
H73 H 0.5917 0.7245 0.2773
C78 C 0.79783(19) 0.84626(18) 0.61494(15)
C79 C 0.7458(2) 0.84891(18) 0.49310(16)
N15 N 0.64940(18) 0.93569(17) 0.20970(14)
C80 C 0.6995(2) 0.86306(18) 0.37560(15)
C81 C 0.7902(2) 0.88323(18) 0.55717(16)
H74 H 0.8152 0.9311 0.5619
C82 C 0.71373(18) 0.74144(18) 0.54013(15)
H75 H 0.6876 0.6937 0.5349
C83 C 0.5684(2) 0.69787(17) 0.40521(15)
O8 O 1.08559(16) 0.94110(16) 0.44282(14)
C84 C 0.7849(2) 0.70075(18) 0.39845(15)
C85 C 0.6967(2) 0.91183(18) 0.32784(16)
H76 H 0.7236 0.9588 0.3415
O9 O 0.64070(18) 0.57363(15) 0.34253(16)
C86 C 0.6146(2) 0.81795(19) 0.24181(15)
H77 H 0.5860 0.8014 0.1967
C87 C 0.91558(19) 0.78325(18) 0.41607(15)
C88 C 0.9560(2) 0.7345(2) 0.40633(16)
C89 C 0.6531(2) 0.88951(18) 0.25900(16)
C90 C 0.8189(2) 0.6478(2) 0.39007(17)
H78 H 0.7843 0.6017 0.3821
C91 C 0.8438(2) 0.8428(2) 0.73940(17)
H79 H 0.7892 0.8063 0.7320
H80 H 0.8491 0.8751 0.7765
C92 C 0.9047(2) 0.6653(2) 0.39388(17)
H81 H 0.9287 0.6310 0.3881
C93 C 0.5043(2) 0.71618(19) 0.42155(16)
H82 H 0.5155 0.7598 0.4430
C94 C 1.0452(2) 0.7595(2) 0.40914(18)
H83 H 1.0736 0.7283 0.4032
C95 C 0.5837(2) 0.9121(2) 0.14415(16)
H84 H 0.5913 0.8717 0.1247
H85 H 0.5935 0.9482 0.1138
C96 C 0.6322(2) 0.62442(19) 0.36714(18)
C97 C 0.6902(3) 1.0096(2) 0.22616(18)
H86 H 0.7055 1.0294 0.1866
H87 H 0.7433 1.0172 0.2621
C98 C 0.8919(2) 0.9522(2) 0.68923(18)
H88 H 0.9131 0.9657 0.6503
H89 H 0.9414 0.9601 0.7287
C99 C 1.0882(2) 0.8274(2) 0.42022(18)
H90 H 1.1459 0.8424 0.4208
C100 C 0.4907(2) 0.8938(2) 0.14675(19)
H91 H 0.4526 0.8789 0.1018
H92 H 0.4815 0.9338 0.1645
H93 H 0.4795 0.8571 0.1756
C101 C 0.4041(2) 0.6048(2) 0.3715(2)
H94 H 0.3481 0.5745 0.3590
C102 C 0.4218(2) 0.6684(2) 0.40547(19)
H95 H 0.3782 0.6797 0.4178
C103 C 0.5514(2) 0.63279(18) 0.37438(17)
C104 C 1.0478(2) 0.8781(2) 0.43133(17)
C105 C 0.9160(3) 0.8112(3) 0.7595(2)
H96 H 0.9132 0.7883 0.8000
H97 H 0.9703 0.8471 0.7678
H98 H 0.9102 0.7782 0.7236
C106 C 0.4694(2) 0.5853(2) 0.3558(2)
H99 H 0.4583 0.5421 0.3337
C107 C 0.8393(3) 0.9969(3) 0.6996(3)
H100 H 0.8742 1.0447 0.7063
H101 H 0.8193 0.9846 0.7388
H102 H 0.7909 0.9900 0.6604
C108 C 0.6369(3) 1.0489(2) 0.2486(2)
H103 H 0.6695 1.0972 0.2583
H104 H 0.6228 1.0309 0.2886
H105 H 0.5850 1.0433 0.2129
O10 O 0.77187(15) 0.37424(13) 0.44772(11)
N16 N 0.84337(16) 0.25715(15) 0.42307(12)
N17 N 0.71767(17) 0.16975(15) 0.41753(13)
N18 N 0.86113(19) 0.37529(16) 0.68802(14)
C109 C 0.8040(2) 0.18891(18) 0.41465(15)
C110 C 0.67798(19) 0.22486(18) 0.42768(15)
O11 O 1.08076(17) 0.44649(15) 0.44958(14)
C111 C 0.7202(2) 0.34291(19) 0.38435(15)
O12 O 0.68381(18) 0.04940(14) 0.42000(15)
C112 C 0.67535(19) 0.27278(18) 0.37224(16)
C113 C 0.7685(2) 0.33579(18) 0.50266(15)
C114 C 0.72433(18) 0.26628(17) 0.49644(15)
C115 C 0.8138(2) 0.37371(18) 0.56518(16)
H106 H 0.8426 0.4208 0.5673
C116 C 0.9736(2) 0.2361(2) 0.41590(16)
C117 C 0.77004(18) 0.26922(18) 0.61898(15)
H107 H 0.7691 0.2458 0.6577
N19 N 0.96559(17) 0.34980(16) 0.43463(13)
H108 H 0.9346 0.3752 0.4389
C118 C 0.5193(2) 0.2003(2) 0.43221(16)
H109 H 0.5226 0.2468 0.4333
C119 C 0.81560(19) 0.34013(19) 0.62543(15)
C120 C 0.92627(19) 0.27960(18) 0.42398(15)
N20 N 0.6603(2) 0.40745(18) 0.21693(15)
C121 C 0.6219(2) 0.2917(2) 0.25410(17)
H110 H 0.5890 0.2735 0.2102
C122 C 0.5889(2) 0.17945(18) 0.42811(15)
C123 C 0.8446(2) 0.1397(2) 0.40519(17)
H111 H 0.8150 0.0925 0.3991
C124 C 0.7165(2) 0.3881(2) 0.33415(17)
H112 H 0.7474 0.4350 0.3446
C125 C 0.6266(2) 0.24777(19) 0.30521(16)
H113 H 0.5969 0.2007 0.2949
C126 C 1.0629(2) 0.2688(2) 0.41940(17)
H114 H 1.0959 0.2412 0.4138
C127 C 0.72654(18) 0.23382(17) 0.55587(15)
H115 H 0.6977 0.1866 0.5531
C128 C 0.9292(2) 0.1643(2) 0.40528(17)
H116 H 0.9576 0.1334 0.3983
C129 C 0.6657(2) 0.3631(2) 0.26704(17)
C130 C 0.5958(2) 0.3835(2) 0.15104(18)
H117 H 0.5988 0.3396 0.1350
H118 H 0.6103 0.4165 0.1188
C131 C 0.6655(2) 0.10273(19) 0.42127(17)
C132 C 1.0507(2) 0.3829(2) 0.43908(17)
C133 C 0.5842(2) 0.11015(19) 0.42714(17)
C134 C 1.0994(2) 0.3373(2) 0.43046(18)
H119 H 1.1573 0.3564 0.4327
C135 C 0.4400(2) 0.0791(2) 0.43549(19)
H120 H 0.3900 0.0460 0.4387
C136 C 0.8513(2) 0.3438(2) 0.74987(16)
H121 H 0.7926 0.3134 0.7418
H122 H 0.8613 0.3798 0.7850
C137 C 0.4446(2) 0.1489(2) 0.43462(18)
H123 H 0.3965 0.1614 0.4357
C138 C 0.9094(2) 0.4485(2) 0.69577(18)
H124 H 0.9365 0.4588 0.6594
H125 H 0.9546 0.4591 0.7383
C139 C 0.5100(2) 0.0593(2) 0.43150(19)
H126 H 0.5074 0.0129 0.4317
C140 C 0.5036(3) 0.3742(3) 0.1519(3)
H127 H 0.4655 0.3583 0.1072
H128 H 0.4994 0.4176 0.1664
H129 H 0.4879 0.3406 0.1828
C141 C 0.6940(4) 0.4815(2) 0.2341(2)
H130 H 0.6847 0.4923 0.2770
H131 H 0.6627 0.5040 0.1997
C142 C 0.9131(3) 0.3022(3) 0.7747(2)
H132 H 0.9043 0.2825 0.8156
H133 H 0.9713 0.3322 0.7837
H134 H 0.9025 0.2657 0.7406
C143 C 0.8541(3) 0.4940(2) 0.6948(2)
H135 H 0.8889 0.5418 0.7001
H136 H 0.8281 0.4849 0.7314
H137 H 0.8099 0.4845 0.6524
C144 C 0.7889(5) 0.5103(3) 0.2398(3)
H138 H 0.8081 0.5595 0.2513
H139 H 0.7984 0.5007 0.1973
H140 H 0.8204 0.4891 0.2746
loop_
_geom_bond_atom_site_label_1
_geom_bond_atom_site_label_2
_geom_bond_site_symmetry_1
_geom_bond_site_symmetry_2
O1 C5 1_555 1_555
N1 C1 1_555 1_555
N2 H1 1_555 1_555
C1 N2 1_555 1_555
N3 C7 1_555 1_555
C2 C5 1_555 1_555
C3 H2 1_555 1_555
C4 C12 1_555 1_555
O2 C10 1_555 1_555
C5 C20 1_555 1_555
C6 C1 1_555 1_555
C7 N1 1_555 1_555
C8 C2 1_555 1_555
H3 C8 1_555 1_555
N4 C13 1_555 1_555
O3 C26 1_555 1_555
C9 C6 1_555 1_555
H4 C9 1_555 1_555
C10 N2 1_555 1_555
N5 C21 1_555 1_555
C11 C17 1_555 1_555
C12 H5 1_555 1_555
C13 C3 1_555 1_555
C14 C7 1_555 1_555
H6 C14 1_555 1_555
C15 C12 1_555 1_555
H7 C15 1_555 1_555
C16 H8 1_555 1_555
C17 C25 1_555 1_555
C18 N3 1_555 1_555
C19 O1 1_555 1_555
C20 C13 1_555 1_555
H9 C20 1_555 1_555
C21 C15 1_555 1_555
C22 C10 1_555 1_555
H10 C22 1_555 1_555
C23 H11 1_555 1_555
C24 C6 1_555 1_555
H12 C24 1_555 1_555
C25 H13 1_555 1_555
C26 N3 1_555 1_555
C27 N5 1_555 1_555
H14 C27 1_555 1_555
H15 C27 1_555 1_555
C28 C11 1_555 1_555
H16 C28 1_555 1_555
C29 N4 1_555 1_555
H17 C29 1_555 1_555
H18 C29 1_555 1_555
C30 C23 1_555 1_555
H19 C30 1_555 1_555
C31 N4 1_555 1_555
H20 C31 1_555 1_555
H21 C31 1_555 1_555
C32 N5 1_555 1_555
H22 C32 1_555 1_555
H23 C32 1_555 1_555
C33 C27 1_555 1_555
H24 C33 1_555 1_555
H25 C33 1_555 1_555
H26 C33 1_555 1_555
C34 C31 1_555 1_555
H27 C34 1_555 1_555
H28 C34 1_555 1_555
H29 C34 1_555 1_555
C35 C29 1_555 1_555
H30 C35 1_555 1_555
H31 C35 1_555 1_555
H32 C35 1_555 1_555
C36 C32 1_555 1_555
H33 C36 1_555 1_555
H34 C36 1_555 1_555
H35 C36 1_555 1_555
O4 C40 1_555 1_555
N6 C39 1_555 1_555
C37 H36 1_555 1_555
C38 C37 1_555 1_555
N7 H37 1_555 1_555
N8 C50 1_555 1_555
C39 N9 1_555 1_555
C40 C38 1_555 1_555
O5 C56 1_555 1_555
C41 C37 1_555 1_555
H38 C41 1_555 1_555
C42 N6 1_555 1_555
C43 C45 1_555 1_555
C44 C46 1_555 1_555
C45 H39 1_555 1_555
C46 C38 1_555 1_555
C47 C40 1_555 1_555
H40 C47 1_555 1_555
C48 C46 1_555 1_555
N9 C46 1_555 1_555
C49 C44 1_555 1_555
H41 C49 1_555 1_555
C50 C41 1_555 1_555
C51 C43 1_555 1_555
H42 C51 1_555 1_555
C52 O4 1_555 1_555
C53 C42 1_555 1_555
C54 C53 1_555 1_555
H43 C54 1_555 1_555
C55 C48 1_555 1_555
H44 C55 1_555 1_555
O6 C67 1_555 1_555
C56 N7 1_555 1_555
C57 H45 1_555 1_555
H46 C57 1_555 1_555
C58 N8 1_555 1_555
H47 C58 1_555 1_555
H48 C58 1_555 1_555
C59 H49 1_555 1_555
H50 C59 1_555 1_555
H51 C59 1_555 1_555
C60 C59 1_555 1_555
H52 C60 1_555 1_555
H53 C60 1_555 1_555
C61 C39 1_555 1_555
H54 C61 1_555 1_555
C62 C53 1_555 1_555
H55 C62 1_555 1_555
C63 N8 1_555 1_555
H56 C63 1_555 1_555
H57 C63 1_555 1_555
C64 H58 1_555 1_555
C65 C54 1_555 1_555
H59 C65 1_555 1_555
C66 C48 1_555 1_555
C67 N9 1_555 1_555
C68 C57 1_555 1_555
H60 C68 1_555 1_555
H61 C68 1_555 1_555
H62 C68 1_555 1_555
C69 C55 1_555 1_555
H63 C69 1_555 1_555
C70 C64 1_555 1_555
H64 C70 1_555 1_555
C71 C58 1_555 1_555
H65 C71 1_555 1_555
H66 C71 1_555 1_555
H67 C71 1_555 1_555
C72 C63 1_555 1_555
H68 C72 1_555 1_555
H69 C72 1_555 1_555
H70 C72 1_555 1_555
N10 C43 1_555 1_555
O7 C79 1_555 1_555
N11 C84 1_555 1_555
C73 C76 1_555 1_555
N12 H71 1_555 1_555
N13 C78 1_555 1_555
C74 H72 1_555 1_555
C75 C76 1_555 1_555
C76 N14 1_555 1_555
N14 C84 1_555 1_555
C77 C73 1_555 1_555
H73 C77 1_555 1_555
C78 C74 1_555 1_555
C79 C75 1_555 1_555
N15 C89 1_555 1_555
C80 O7 1_555 1_555
C81 C78 1_555 1_555
H74 C81 1_555 1_555
C82 C74 1_555 1_555
H75 C82 1_555 1_555
C83 C76 1_555 1_555
O8 C104 1_555 1_555
C84 C90 1_555 1_555
C85 C80 1_555 1_555
H76 C85 1_555 1_555
O9 C96 1_555 1_555
C86 C77 1_555 1_555
H77 C86 1_555 1_555
C87 N11 1_555 1_555
C88 C87 1_555 1_555
C89 C85 1_555 1_555
C90 H78 1_555 1_555
C91 N13 1_555 1_555
H79 C91 1_555 1_555
H80 C91 1_555 1_555
C92 C88 1_555 1_555
H81 C92 1_555 1_555
C93 C83 1_555 1_555
H82 C93 1_555 1_555
C94 C88 1_555 1_555
H83 C94 1_555 1_555
C95 N15 1_555 1_555
H84 C95 1_555 1_555
H85 C95 1_555 1_555
C96 N14 1_555 1_555
C97 N15 1_555 1_555
H86 C97 1_555 1_555
H87 C97 1_555 1_555
C98 N13 1_555 1_555
H88 C98 1_555 1_555
H89 C98 1_555 1_555
C99 C94 1_555 1_555
H90 C99 1_555 1_555
C100 C95 1_555 1_555
H91 C100 1_555 1_555
H92 C100 1_555 1_555
H93 C100 1_555 1_555
C101 H94 1_555 1_555
C102 C93 1_555 1_555
H95 C102 1_555 1_555
C103 C83 1_555 1_555
C104 N12 1_555 1_555
C105 C91 1_555 1_555
H96 C105 1_555 1_555
H97 C105 1_555 1_555
H98 C105 1_555 1_555
C106 C101 1_555 1_555
H99 C106 1_555 1_555
C107 C98 1_555 1_555
H100 C107 1_555 1_555
H101 C107 1_555 1_555
H102 C107 1_555 1_555
C108 C97 1_555 1_555
H103 C108 1_555 1_555
H104 C108 1_555 1_555
H105 C108 1_555 1_555
O10 C111 1_555 1_555
N16 C109 1_555 1_555
N17 C109 1_555 1_555
N18 C119 1_555 1_555
C109 C123 1_555 1_555
C110 N17 1_555 1_555
O11 C132 1_555 1_555
C111 C112 1_555 1_555
O12 C131 1_555 1_555
C112 C110 1_555 1_555
C113 O10 1_555 1_555
C114 C110 1_555 1_555
C115 C113 1_555 1_555
H106 C115 1_555 1_555
C116 C120 1_555 1_555
C117 H107 1_555 1_555
N19 H108 1_555 1_555
C118 H109 1_555 1_555
C119 C115 1_555 1_555
C120 N16 1_555 1_555
N20 C129 1_555 1_555
C121 H110 1_555 1_555
C122 C110 1_555 1_555
C123 H111 1_555 1_555
C124 C111 1_555 1_555
H112 C124 1_555 1_555
C125 C112 1_555 1_555
H113 C125 1_555 1_555
C126 C116 1_555 1_555
H114 C126 1_555 1_555
C127 C114 1_555 1_555
H115 C127 1_555 1_555
C128 C116 1_555 1_555
H116 C128 1_555 1_555
C129 C121 1_555 1_555
C130 N20 1_555 1_555
H117 C130 1_555 1_555
H118 C130 1_555 1_555
C131 N17 1_555 1_555
C132 N19 1_555 1_555
C133 C122 1_555 1_555
C134 C126 1_555 1_555
H119 C134 1_555 1_555
C135 H120 1_555 1_555
C136 N18 1_555 1_555
H121 C136 1_555 1_555
H122 C136 1_555 1_555
C137 C118 1_555 1_555
H123 C137 1_555 1_555
C138 N18 1_555 1_555
H124 C138 1_555 1_555
H125 C138 1_555 1_555
C139 C133 1_555 1_555
H126 C139 1_555 1_555
C140 C130 1_555 1_555
H127 C140 1_555 1_555
H128 C140 1_555 1_555
H129 C140 1_555 1_555
C141 N20 1_555 1_555
H130 C141 1_555 1_555
H131 C141 1_555 1_555
C142 C136 1_555 1_555
H132 C142 1_555 1_555
H133 C142 1_555 1_555
H134 C142 1_555 1_555
C143 C138 1_555 1_555
H135 C143 1_555 1_555
H136 C143 1_555 1_555
H137 C143 1_555 1_555
C144 C141 1_555 1_555
H138 C144 1_555 1_555
H139 C144 1_555 1_555
H140 C144 1_555 1_555
C2 C18 1_555 1_555
C3 C8 1_555 1_555
C4 C18 1_555 1_555
C4 C19 1_555 1_555
C9 C14 1_555 1_555
C11 C18 1_555 1_555
C16 C19 1_555 1_555
C16 C21 1_555 1_555
C17 C26 1_555 1_555
C22 C24 1_555 1_555
C23 C28 1_555 1_555
C25 C30 1_555 1_555
N7 C42 1_555 1_555
C44 C52 1_555 1_555
C45 C49 1_555 1_555
C47 C50 1_555 1_555
C51 C52 1_555 1_555
C56 C65 1_555 1_555
C57 N10 1_555 1_555
C60 N10 1_555 1_555
C61 C62 1_555 1_555
C64 C69 1_555 1_555
C66 C67 1_555 1_555
C66 C70 1_555 1_555
C73 C80 1_555 1_555
N12 C87 1_555 1_555
C75 C82 1_555 1_555
C79 C81 1_555 1_555
C86 C89 1_555 1_555
C90 C92 1_555 1_555
C96 C103 1_555 1_555
C99 C104 1_555 1_555
C101 C102 1_555 1_555
C103 C106 1_555 1_555
C113 C114 1_555 1_555
C117 C119 1_555 1_555
C117 C127 1_555 1_555
N19 C120 1_555 1_555
C118 C122 1_555 1_555
C121 C125 1_555 1_555
C123 C128 1_555 1_555
C124 C129 1_555 1_555
C131 C133 1_555 1_555
C132 C134 1_555 1_555
C135 C137 1_555 1_555
C135 C139 1_555 1_555

#END
