
#######################################################################
#
#                 Cambridge Crystallographic Data Centre
#                                CCDC 
#
#######################################################################
#
# If this CIF has been generated from an entry in the Cambridge 
# Structural Database, then it will include bibliographic, chemical, 
# crystal, experimental, refinement or atomic coordinate data resulting 
# from the CCDC's data processing and validation procedures.
#
#######################################################################

data_URAZIY
_chemical_formula_moiety         'C11 H11 Cl1 O2'
_chemical_name_systematic        
(3S,5S)-3-(4-chlorophenyl)-5-methyldihydrofuran-2(3H)-one
_chemical_properties_biological  'antiviral activity'
_symmetry_cell_setting           orthorhombic
_symmetry_space_group_name_H-M   'P 21 21 21'
_symmetry_Int_Tables_number      19
_space_group_name_Hall           'P 2ac 2ab'
loop_
_symmetry_equiv_pos_site_id
_symmetry_equiv_pos_as_xyz
1 x,y,z
2 1/2-x,-y,1/2+z
3 -x,1/2+y,1/2-z
4 1/2+x,1/2-y,-z
_cell_length_a                   6.1375(12)
_cell_length_b                   7.7099(15)
_cell_length_c                   20.954(4)
_cell_angle_alpha                90
_cell_angle_beta                 90
_cell_angle_gamma                90
_cell_volume                     991.533
_exptl_crystal_colour            colorless
_exptl_crystal_description       prism
_chemical_melting_point          '311-313 K'
_cell_formula_units_Z            4
loop_
_atom_site_label
_atom_site_type_symbol
_atom_site_fract_x
_atom_site_fract_y
_atom_site_fract_z
Cl1 Cl 0.43530(8) 0.80019(7) 0.17371(2)
O1 O 1.1816(2) 0.69453(17) 0.48422(6)
O2 O 1.2031(2) 0.90842(18) 0.41284(6)
C1 C 1.3178(3) 0.3988(3) 0.49042(9)
H1 H 1.4083 0.4176 0.4525
H2 H 1.2750 0.2765 0.4927
H3 H 1.4008 0.4297 0.5287
C2 C 1.1169(3) 0.5104(2) 0.48634(8)
H4 H 1.0221 0.4893 0.5244
C3 C 0.9845(3) 0.4852(2) 0.42525(8)
H5 H 1.0023 0.3662 0.4083
H6 H 0.8278 0.5075 0.4329
C4 C 1.0804(3) 0.6190(2) 0.37957(8)
H7 H 1.2112 0.5661 0.3588
C5 C 1.1594(3) 0.7596(2) 0.42479(8)
C6 C 0.9281(3) 0.6781(2) 0.32740(8)
C7 C 0.7372(3) 0.7675(3) 0.34191(8)
H8 H 0.7104 0.8018 0.3847
C8 C 0.5856(3) 0.8073(2) 0.29515(8)
H9 H 0.4559 0.8685 0.3055
C9 C 0.6277(3) 0.7555(2) 0.23258(8)
C10 C 0.8162(3) 0.6682(2) 0.21682(8)
H10 H 0.8432 0.6346 0.1739
C11 C 0.9661(3) 0.6300(2) 0.26433(8)
H11 H 1.0964 0.5702 0.2537
loop_
_geom_bond_atom_site_label_1
_geom_bond_atom_site_label_2
_geom_bond_site_symmetry_1
_geom_bond_site_symmetry_2
Cl1 C9 1_555 1_555
O1 C2 1_555 1_555
O2 C5 1_555 1_555
C1 H1 1_555 1_555
H2 C1 1_555 1_555
H3 C1 1_555 1_555
C2 C1 1_555 1_555
H4 C2 1_555 1_555
C3 C2 1_555 1_555
H5 C3 1_555 1_555
H6 C3 1_555 1_555
C4 C3 1_555 1_555
H7 C4 1_555 1_555
C5 O1 1_555 1_555
C6 C4 1_555 1_555
C7 C6 1_555 1_555
H8 C7 1_555 1_555
C8 C7 1_555 1_555
H9 C8 1_555 1_555
C9 C8 1_555 1_555
C10 C9 1_555 1_555
H10 C10 1_555 1_555
C11 C6 1_555 1_555
H11 C11 1_555 1_555
C4 C5 1_555 1_555
C10 C11 1_555 1_555

#END
