
#######################################################################
#
#                 Cambridge Crystallographic Data Centre
#                                CCDC 
#
#######################################################################
#
# If this CIF has been generated from an entry in the Cambridge 
# Structural Database, then it will include bibliographic, chemical, 
# crystal, experimental, refinement or atomic coordinate data resulting 
# from the CCDC's data processing and validation procedures.
#
#######################################################################

data_UREFAZ
_chemical_formula_moiety         'C16 H21 Br1 O2'
_chemical_name_systematic        
(5-Bromo-2-methoxyphenyl)(4-ethylcyclohexyl)methanone
_symmetry_cell_setting           monoclinic
_symmetry_space_group_name_H-M   'P 21/c'
_symmetry_Int_Tables_number      14
_space_group_name_Hall           '-P 2ybc'
loop_
_symmetry_equiv_pos_site_id
_symmetry_equiv_pos_as_xyz
1 x,y,z
2 -x,1/2+y,1/2-z
3 -x,-y,-z
4 x,1/2-y,1/2+z
_cell_length_a                   14.204(3)
_cell_length_b                   11.276(2)
_cell_length_c                   9.604(2)
_cell_angle_alpha                90
_cell_angle_beta                 102.329(4)
_cell_angle_gamma                90
_cell_volume                     1502.74
_exptl_crystal_colour            colorless
_exptl_crystal_description       prism
_cell_formula_units_Z            4
_exptl_crystal_recrystallization_method 'dichloromethane/petroleum ether'
loop_
_atom_site_label
_atom_site_type_symbol
_atom_site_fract_x
_atom_site_fract_y
_atom_site_fract_z
Br1 Br 0.359389(12) 1.039199(15) 0.078211(19)
O1 O 0.67370(8) 1.14977(9) 0.58965(11)
O2 O 0.71492(8) 0.90082(11) 0.30034(13)
C1 C 0.66083(12) 1.24071(14) 0.68801(17)
H1 H 0.6506 1.3170 0.6382
H2 H 0.7184 1.2455 0.7650
H3 H 0.6047 1.2219 0.7281
C2 C 0.59954(11) 1.12527(13) 0.47931(16)
C3 C 0.51379(11) 1.19027(13) 0.45009(17)
H4 H 0.5046 1.2526 0.5124
C4 C 0.44236(11) 1.16512(13) 0.33205(17)
H5 H 0.3845 1.2102 0.3123
C5 C 0.45613(11) 1.07334(14) 0.24293(17)
C6 C 0.54008(11) 1.00793(14) 0.26967(17)
H6 H 0.5482 0.9459 0.2063
C7 C 0.61305(11) 1.03146(12) 0.38797(16)
C8 C 0.70157(11) 0.95429(13) 0.40477(17)
C9 C 0.77081(11) 0.93956(12) 0.54697(17)
H7 H 0.7377 0.9641 0.6244
C10 C 0.80398(11) 0.81086(13) 0.57217(17)
H8 H 0.7474 0.7589 0.5690
H9 H 0.8367 0.7853 0.4960
C11 C 0.87275(11) 0.79932(13) 0.71633(17)
H10 H 0.8930 0.7155 0.7317
H11 H 0.8386 0.8217 0.7921
C12 C 0.96177(11) 0.87687(13) 0.72848(17)
H12 H 0.9971 0.8502 0.6545
C13 C 0.93087(11) 1.00610(14) 0.69645(18)
H13 H 0.9005 1.0362 0.7731
H14 H 0.9887 1.0550 0.6959
C14 C 0.86004(10) 1.01921(14) 0.55324(17)
H15 H 0.8924 0.9971 0.4753
H16 H 0.8394 1.1030 0.5393
C15 C 1.02894(11) 0.86209(15) 0.87409(18)
H17 H 0.9958 0.8927 0.9476
H18 H 1.0405 0.7763 0.8923
C16 C 1.12570(12) 0.92389(19) 0.8919(2)
H19 H 1.1575 0.8988 0.8157
H20 H 1.1662 0.9029 0.9846
H21 H 1.1159 1.0099 0.8870
loop_
_geom_bond_atom_site_label_1
_geom_bond_atom_site_label_2
_geom_bond_site_symmetry_1
_geom_bond_site_symmetry_2
Br1 C5 1_555 1_555
O1 C1 1_555 1_555
O2 C8 1_555 1_555
C1 H1 1_555 1_555
H2 C1 1_555 1_555
H3 C1 1_555 1_555
C2 O1 1_555 1_555
C3 C2 1_555 1_555
H4 C3 1_555 1_555
C4 C3 1_555 1_555
H5 C4 1_555 1_555
C5 C4 1_555 1_555
C6 C5 1_555 1_555
H6 C6 1_555 1_555
C7 C2 1_555 1_555
C8 C7 1_555 1_555
C9 C8 1_555 1_555
H7 C9 1_555 1_555
C10 C9 1_555 1_555
H8 C10 1_555 1_555
H9 C10 1_555 1_555
C11 C10 1_555 1_555
H10 C11 1_555 1_555
H11 C11 1_555 1_555
C12 C11 1_555 1_555
H12 C12 1_555 1_555
C13 C12 1_555 1_555
H13 C13 1_555 1_555
H14 C13 1_555 1_555
C14 C9 1_555 1_555
H15 C14 1_555 1_555
H16 C14 1_555 1_555
C15 C12 1_555 1_555
H17 C15 1_555 1_555
H18 C15 1_555 1_555
C16 C15 1_555 1_555
H19 C16 1_555 1_555
H20 C16 1_555 1_555
H21 C16 1_555 1_555
C6 C7 1_555 1_555
C13 C14 1_555 1_555

#END
