
#######################################################################
#
#                 Cambridge Crystallographic Data Centre
#                                CCDC 
#
#######################################################################
#
# If this CIF has been generated from an entry in the Cambridge 
# Structural Database, then it will include bibliographic, chemical, 
# crystal, experimental, refinement or atomic coordinate data resulting 
# from the CCDC's data processing and validation procedures.
#
#######################################################################

data_UREGUU
_chemical_formula_moiety         'C16 H20 N2 O6'
_chemical_name_systematic        'Diethyl 4,6-diacetamidoisophthalate'
_symmetry_cell_setting           triclinic
_symmetry_space_group_name_H-M   'P -1'
_symmetry_Int_Tables_number      2
_space_group_name_Hall           '-P 1'
loop_
_symmetry_equiv_pos_site_id
_symmetry_equiv_pos_as_xyz
1 x,y,z
2 -x,-y,-z
_cell_length_a                   7.951(3)
_cell_length_b                   10.249(3)
_cell_length_c                   11.109(4)
_cell_angle_alpha                76.70(3)
_cell_angle_beta                 77.42(3)
_cell_angle_gamma                76.50(2)
_cell_volume                     843.669
_exptl_crystal_colour            colorless
_exptl_crystal_description       block
_cell_formula_units_Z            2
loop_
_atom_site_label
_atom_site_type_symbol
_atom_site_fract_x
_atom_site_fract_y
_atom_site_fract_z
O1 O 0.9467(4) -0.1465(3) 0.6464(2)
O2 O 1.1334(4) -0.2976(3) 0.7586(2)
O3 O 1.0473(5) -0.3487(3) 1.2179(3)
O4 O 0.7415(4) -0.0447(3) 1.3243(3)
O5 O 0.5572(4) 0.2164(3) 0.7774(3)
O6 O 0.5009(4) 0.2628(3) 0.9676(3)
N1 N 1.0637(4) -0.3063(3) 1.0068(3)
H1 H 1.113(4) -0.338(4) 0.938(3)
N2 N 0.6413(4) 0.0776(3) 1.1468(3)
H2 H 0.581(5) 0.150(4) 1.120(3)
C1 C 0.9150(4) -0.1332(4) 0.8583(3)
C2 C 0.9442(4) -0.1847(3) 0.9824(3)
C3 C 0.8541(4) -0.1138(3) 1.0777(3)
H3 H 0.8745 -0.1477 1.1594
C4 C 0.7336(4) 0.0075(3) 1.0518(3)
C5 C 0.7021(4) 0.0591(3) 0.9291(3)
C6 C 0.7941(4) -0.0127(3) 0.8356(3)
H4 H 0.7736 0.0216 0.7539
C7 C 1.0103(5) -0.2022(4) 0.7527(3)
C8 C 1.0398(7) -0.1987(5) 0.5319(4)
H5 H 1.1655 -0.2192 0.5310
H6 H 1.0160 -0.1303 0.4581
C9 C 0.9772(8) -0.3269(6) 0.5304(5)
H7 H 1.0175 -0.3987 0.5961
H8 H 1.0233 -0.3543 0.4507
H9 H 0.8512 -0.3090 0.5434
C10 C 1.1082(5) -0.3819(4) 1.1169(4)
C11 C 1.2385(6) -0.5100(4) 1.1039(4)
H10 H 1.2382 -0.5696 1.1844
H11 H 1.3533 -0.4888 1.0722
H12 H 1.2081 -0.5544 1.0466
C12 C 0.6424(5) 0.0486(4) 1.2735(3)
C13 C 0.5091(6) 0.1480(5) 1.3433(4)
H13 H 0.3951 0.1530 1.3249
H14 H 0.5399 0.2367 1.3177
H15 H 0.5073 0.1177 1.4320
C14 C 0.5778(5) 0.1888(4) 0.8965(4)
C15 C 0.4366(9) 0.3443(6) 0.7425(5)
H16 H 0.4848 0.4216 0.7463
H17 H 0.3245 0.3465 0.7987
C16 C 0.4146(9) 0.3488(6) 0.6092(5)
H18 H 0.3796 0.2666 0.6051
H19 H 0.5239 0.3565 0.5534
H20 H 0.3262 0.4263 0.5848
loop_
_geom_bond_atom_site_label_1
_geom_bond_atom_site_label_2
_geom_bond_site_symmetry_1
_geom_bond_site_symmetry_2
O1 C7 1_555 1_555
O2 C7 1_555 1_555
O3 C10 1_555 1_555
O4 C12 1_555 1_555
O5 C14 1_555 1_555
O6 C14 1_555 1_555
N1 H1 1_555 1_555
N2 H2 1_555 1_555
C1 C2 1_555 1_555
C2 N1 1_555 1_555
C3 C2 1_555 1_555
H3 C3 1_555 1_555
C4 N2 1_555 1_555
C5 C4 1_555 1_555
C6 C1 1_555 1_555
H4 C6 1_555 1_555
C7 C1 1_555 1_555
C8 O1 1_555 1_555
H5 C8 1_555 1_555
H6 C8 1_555 1_555
C9 C8 1_555 1_555
H7 C9 1_555 1_555
H8 C9 1_555 1_555
H9 C9 1_555 1_555
C10 N1 1_555 1_555
C11 C10 1_555 1_555
H10 C11 1_555 1_555
H11 C11 1_555 1_555
H12 C11 1_555 1_555
C12 N2 1_555 1_555
C13 C12 1_555 1_555
H13 C13 1_555 1_555
H14 C13 1_555 1_555
H15 C13 1_555 1_555
C14 C5 1_555 1_555
C15 O5 1_555 1_555
H16 C15 1_555 1_555
H17 C15 1_555 1_555
C16 C15 1_555 1_555
H18 C16 1_555 1_555
H19 C16 1_555 1_555
H20 C16 1_555 1_555
C3 C4 1_555 1_555
C5 C6 1_555 1_555

#END
