
#######################################################################
#
#                 Cambridge Crystallographic Data Centre
#                                CCDC 
#
#######################################################################
#
# If this CIF has been generated from an entry in the Cambridge 
# Structural Database, then it will include bibliographic, chemical, 
# crystal, experimental, refinement or atomic coordinate data resulting 
# from the CCDC's data processing and validation procedures.
#
#######################################################################

data_UREPAJ
_chemical_formula_moiety         'C5 H8 N3 1+,C24 H20 B1 1-,C20 H18 N6'
_chemical_name_systematic        
'2,6-Diaminopyridinium tetraphenylborate 1,2-bis(5,7-dimethyl-1,8-naphthyridin-2-yl)diazene'
_symmetry_cell_setting           triclinic
_symmetry_space_group_name_H-M   'P -1'
_symmetry_Int_Tables_number      2
_space_group_name_Hall           '-P 1'
loop_
_symmetry_equiv_pos_site_id
_symmetry_equiv_pos_as_xyz
1 x,y,z
2 -x,-y,-z
_cell_length_a                   9.2700(8)
_cell_length_b                   14.5143(10)
_cell_length_c                   15.9754(13)
_cell_angle_alpha                93.623(5)
_cell_angle_beta                 104.266(5)
_cell_angle_gamma                101.876(5)
_cell_volume                     2023.82
_exptl_crystal_colour            red
_exptl_crystal_description       plate
_cell_formula_units_Z            2
loop_
_atom_site_label
_atom_site_type_symbol
_atom_site_fract_x
_atom_site_fract_y
_atom_site_fract_z
C1 C -0.0022(4) 0.6545(2) 0.4229(2)
H1 H 0.1078 0.6666 0.4506
H2 H -0.0576 0.6544 0.4679
H3 H -0.0232 0.7043 0.3862
C2 C -0.0538(4) 0.5599(2) 0.3681(2)
C3 C -0.1584(4) 0.4860(2) 0.3901(2)
H4 H -0.1940 0.4960 0.4401
C4 C -0.2084(4) 0.4000(2) 0.3396(2)
C5 C -0.3193(4) 0.3201(2) 0.3621(2)
H5 H -0.3539 0.3432 0.4110
H6 H -0.2685 0.2685 0.3784
H7 H -0.4075 0.2967 0.3116
C6 C -0.1513(4) 0.3876(2) 0.2658(2)
C7 C -0.0435(4) 0.4647(2) 0.2495(2)
C8 C -0.1281(4) 0.2975(2) 0.1409(2)
H8 H -0.1547 0.2411 0.1015
C9 C -0.0201(4) 0.3773(2) 0.1314(2)
C10 C 0.0958(4) 0.2935(2) -0.0507(2)
C11 C -0.1935(4) 0.3032(2) 0.2082(2)
H9 H -0.2669 0.2506 0.2161
C12 C 0.0664(4) 0.2038(2) -0.0984(2)
H10 H 0.0038 0.1500 -0.0839
C13 C 0.1303(4) 0.1963(2) -0.1658(2)
H11 H 0.1102 0.1369 -0.2003
C14 C 0.2263(4) 0.2763(2) -0.1846(2)
C15 C 0.3010(4) 0.2757(2) -0.2525(2)
C16 C 0.2785(4) 0.1871(2) -0.3127(2)
H12 H 0.3433 0.1997 -0.3527
H13 H 0.1710 0.1673 -0.3462
H14 H 0.3064 0.1366 -0.2786
C17 C 0.3947(4) 0.3599(2) -0.2600(2)
H15 H 0.4472 0.3623 -0.3042
C18 C 0.4143(4) 0.4434(2) -0.2028(2)
C19 C 0.5224(4) 0.5332(2) -0.2113(2)
H16 H 0.4934 0.5881 -0.1868
H17 H 0.5171 0.5377 -0.2728
H18 H 0.6270 0.5321 -0.1797
C20 C 0.2503(4) 0.3635(2) -0.1314(2)
N1 N 0.0032(3) 0.55059(18) 0.30024(17)
N2 N 0.0221(3) 0.45896(18) 0.18203(17)
N3 N 0.0568(3) 0.37649(19) 0.06346(17)
N4 N 0.0220(3) 0.2969(2) 0.01827(18)
N5 N 0.1833(3) 0.37119(18) -0.06553(17)
N6 N 0.3438(3) 0.44677(18) -0.14110(18)
C21 C 0.2972(4) 0.6386(2) 0.0729(2)
C22 C 0.3877(4) 0.7207(2) 0.0572(2)
H19 H 0.4334 0.7199 0.0102
C23 C 0.4104(4) 0.8035(2) 0.1107(2)
H20 H 0.4703 0.8602 0.0990
C24 C 0.3484(4) 0.8065(2) 0.1808(2)
H21 H 0.3652 0.8644 0.2168
C25 C 0.2613(4) 0.7237(2) 0.1979(2)
N7 N 0.2625(3) 0.55485(19) 0.02383(17)
H42 H 0.2029 0.5055 0.0369
H43 H 0.2993 0.5491 -0.0215
N8 N 0.2360(3) 0.64251(18) 0.14261(16)
H44 H 0.1778 0.5904 0.1523
N9 N 0.1999(4) 0.7172(2) 0.26545(18)
H45 H 0.1460 0.6624 0.2729
H46 H 0.2135 0.7677 0.3025
C26 C 0.1943(4) 0.2941(2) 0.3487(2)
H22 H 0.1188 0.2950 0.2965
C27 C 0.2582(4) 0.3782(3) 0.4048(2)
H23 H 0.2258 0.4346 0.3906
C28 C 0.3695(4) 0.3794(3) 0.4815(2)
H24 H 0.4139 0.4363 0.5202
C29 C 0.4139(4) 0.2964(2) 0.5004(2)
H25 H 0.4901 0.2962 0.5525
C30 C 0.3483(4) 0.2130(2) 0.4441(2)
H26 H 0.3806 0.1569 0.4594
C31 C 0.2364(3) 0.2082(2) 0.3658(2)
C32 C 0.2986(4) 0.2010(2) 0.1835(2)
H27 H 0.3137 0.2593 0.2186
C33 C 0.3457(4) 0.2021(3) 0.1072(2)
H28 H 0.3930 0.2606 0.0915
C34 C 0.3244(4) 0.1191(3) 0.0541(2)
H29 H 0.3558 0.1200 0.0018
C35 C 0.2568(4) 0.0346(2) 0.0780(2)
H30 H 0.2408 -0.0232 0.0420
C36 C 0.2124(4) 0.0343(2) 0.1546(2)
H31 H 0.1677 -0.0248 0.1703
C37 C 0.2299(3) 0.1169(2) 0.21029(19)
C38 C -0.1165(3) 0.0656(2) 0.1803(2)
H32 H -0.0681 0.0573 0.1354
C39 C -0.2754(4) 0.0488(2) 0.1590(2)
H33 H -0.3325 0.0313 0.0999
C40 C -0.3512(4) 0.0574(2) 0.2226(2)
H34 H -0.4597 0.0445 0.2081
C41 C -0.2647(4) 0.0852(2) 0.3080(2)
H35 H -0.3143 0.0911 0.3529
C42 C -0.1064(4) 0.1046(2) 0.3282(2)
H36 H -0.0502 0.1257 0.3870
C43 C -0.0252(3) 0.0944(2) 0.2663(2)
C44 C 0.1203(4) -0.0330(2) 0.3938(2)
H37 H 0.0220 -0.0220 0.3918
C45 C 0.1699(4) -0.1019(2) 0.4433(2)
H38 H 0.1057 -0.1365 0.4741
C46 C 0.3121(4) -0.1201(2) 0.4477(2)
H39 H 0.3461 -0.1672 0.4811
C47 C 0.4040(4) -0.0684(2) 0.4026(2)
H40 H 0.5025 -0.0793 0.4053
C48 C 0.3519(4) -0.0005(2) 0.3533(2)
H41 H 0.4165 0.0334 0.3222
C49 C 0.2092(3) 0.0205(2) 0.34715(19)
B1 B 0.1629(4) 0.1103(3) 0.2967(2)
loop_
_geom_bond_atom_site_label_1
_geom_bond_atom_site_label_2
_geom_bond_site_symmetry_1
_geom_bond_site_symmetry_2
C1 H1 1_555 1_555
H2 C1 1_555 1_555
H3 C1 1_555 1_555
C2 C1 1_555 1_555
C3 C2 1_555 1_555
H4 C3 1_555 1_555
C4 C3 1_555 1_555
C5 C4 1_555 1_555
H5 C5 1_555 1_555
H6 C5 1_555 1_555
H7 C5 1_555 1_555
C6 C4 1_555 1_555
C7 C6 1_555 1_555
C8 H8 1_555 1_555
C9 C8 1_555 1_555
C10 C12 1_555 1_555
C11 C6 1_555 1_555
H9 C11 1_555 1_555
C12 H10 1_555 1_555
C13 C12 1_555 1_555
H11 C13 1_555 1_555
C14 C13 1_555 1_555
C15 C14 1_555 1_555
C16 C15 1_555 1_555
H12 C16 1_555 1_555
H13 C16 1_555 1_555
H14 C16 1_555 1_555
C17 C15 1_555 1_555
H15 C17 1_555 1_555
C18 C17 1_555 1_555
C19 C18 1_555 1_555
H16 C19 1_555 1_555
H17 C19 1_555 1_555
H18 C19 1_555 1_555
C20 C14 1_555 1_555
C21 C22 1_555 1_555
C22 H19 1_555 1_555
C23 C22 1_555 1_555
H20 C23 1_555 1_555
C24 C23 1_555 1_555
H21 C24 1_555 1_555
C25 C24 1_555 1_555
C26 H22 1_555 1_555
C27 C26 1_555 1_555
H23 C27 1_555 1_555
C28 C27 1_555 1_555
H24 C28 1_555 1_555
C29 C28 1_555 1_555
H25 C29 1_555 1_555
C30 C29 1_555 1_555
H26 C30 1_555 1_555
C31 C26 1_555 1_555
C32 H27 1_555 1_555
C33 C32 1_555 1_555
H28 C33 1_555 1_555
C34 C33 1_555 1_555
H29 C34 1_555 1_555
C35 C34 1_555 1_555
H30 C35 1_555 1_555
C36 C35 1_555 1_555
H31 C36 1_555 1_555
C37 C32 1_555 1_555
C38 H32 1_555 1_555
C39 C38 1_555 1_555
H33 C39 1_555 1_555
C40 C39 1_555 1_555
H34 C40 1_555 1_555
C41 C40 1_555 1_555
H35 C41 1_555 1_555
C42 C41 1_555 1_555
H36 C42 1_555 1_555
C43 C38 1_555 1_555
C44 H37 1_555 1_555
C45 C44 1_555 1_555
H38 C45 1_555 1_555
C46 C45 1_555 1_555
H39 C46 1_555 1_555
C47 C46 1_555 1_555
H40 C47 1_555 1_555
C48 C47 1_555 1_555
H41 C48 1_555 1_555
C49 C44 1_555 1_555
B1 C31 1_555 1_555
N1 C2 1_555 1_555
N2 C7 1_555 1_555
N3 C9 1_555 1_555
N4 C10 1_555 1_555
N5 C10 1_555 1_555
N6 C18 1_555 1_555
N7 C21 1_555 1_555
H42 N7 1_555 1_555
H43 N7 1_555 1_555
N8 C21 1_555 1_555
H44 N8 1_555 1_555
N9 C25 1_555 1_555
H45 N9 1_555 1_555
H46 N9 1_555 1_555
C7 N1 1_555 1_555
C8 C11 1_555 1_555
C9 N2 1_555 1_555
C20 N5 1_555 1_555
C20 N6 1_555 1_555
C25 N8 1_555 1_555
C30 C31 1_555 1_555
C36 C37 1_555 1_555
C37 B1 1_555 1_555
C42 C43 1_555 1_555
C43 B1 1_555 1_555
C48 C49 1_555 1_555
C49 B1 1_555 1_555
N3 N4 1_555 1_555

#END
