
#######################################################################
#
#                 Cambridge Crystallographic Data Centre
#                                CCDC 
#
#######################################################################
#
# If this CIF has been generated from an entry in the Cambridge 
# Structural Database, then it will include bibliographic, chemical, 
# crystal, experimental, refinement or atomic coordinate data resulting 
# from the CCDC's data processing and validation procedures.
#
#######################################################################

data_UREWOE
_chemical_formula_moiety         'C14 H19 N3 S1'
_chemical_name_systematic        
3-[(Cyclohexylidene)amino]-1-(4-methylphenyl)thiourea
_symmetry_cell_setting           orthorhombic
_symmetry_space_group_name_H-M   'I b c a'
_symmetry_Int_Tables_number      73
_space_group_name_Hall           '-I 2b 2c'
loop_
_symmetry_equiv_pos_site_id
_symmetry_equiv_pos_as_xyz
1 x,y,z
2 -x,1/2-y,z
3 x,-y,1/2-z
4 1/2-x,y,-z
5 1/2+x,1/2+y,1/2+z
6 1/2-x,-y,1/2+z
7 1/2+x,1/2-y,-z
8 -x,1/2+y,1/2-z
9 -x,-y,-z
10 x,1/2+y,-z
11 -x,y,1/2+z
12 1/2+x,-y,z
13 1/2-x,1/2-y,1/2-z
14 1/2+x,y,1/2-z
15 1/2-x,1/2+y,z
16 x,1/2-y,1/2+z
_cell_length_a                   14.9151(4)
_cell_length_b                   22.5593(5)
_cell_length_c                   17.1642(3)
_cell_angle_alpha                90
_cell_angle_beta                 90
_cell_angle_gamma                90
_cell_volume                     5775.31
_exptl_crystal_colour            colorless
_exptl_crystal_description       prismatic
_cell_formula_units_Z            16
loop_
_atom_site_label
_atom_site_type_symbol
_atom_site_fract_x
_atom_site_fract_y
_atom_site_fract_z
S1 S 0.88952(5) 0.07068(3) 0.17935(3)
N1 N 0.84361(13) 0.02381(8) 0.04022(10)
N2 N 0.78485(14) -0.01953(8) 0.14881(10)
N3 N 0.74084(15) -0.05790(8) 0.09883(10)
C1 C 0.89252(14) 0.06343(9) -0.00784(12)
C2 C 0.89188(19) 0.12432(11) 0.00239(14)
H1 H 0.8572 0.1413 0.0414
C3 C 0.94341(19) 0.15961(10) -0.04609(14)
H2 H 0.9435 0.2004 -0.0385
C4 C 0.99514(19) 0.13567(10) -0.10592(13)
C5 C 0.99072(18) 0.07526(10) -0.11773(13)
H3 H 1.0221 0.0585 -0.1590
C6 C 0.94050(17) 0.03922(10) -0.06944(12)
H4 H 0.9388 -0.0014 -0.0782
C7 C 1.0565(2) 0.17332(13) -0.15541(18)
H5 H 1.0221 0.1928 -0.1951
H6 H 1.1011 0.1486 -0.1793
H7 H 1.0853 0.2025 -0.1233
C8 C 0.83781(15) 0.02349(9) 0.11831(12)
C9 C 0.68926(18) -0.09724(10) 0.12732(14)
C10 C 0.6399(2) -0.13589(14) 0.07092(18)
H8 H 0.6617 -0.1284 0.0186
H9 H 0.5765 -0.1262 0.0723
C11 C 0.6526(3) -0.20137(15) 0.0908(2)
H10 H 0.6166 -0.2254 0.0559
H11 H 0.7149 -0.2122 0.0835
C12 C 0.6250(3) -0.21354(16) 0.1747(2)
H12 H 0.5615 -0.2058 0.1808
H13 H 0.6358 -0.2549 0.1869
C13 C 0.6773(2) -0.17499(16) 0.2301(2)
H14 H 0.7401 -0.1861 0.2279
H15 H 0.6563 -0.1820 0.2827
C14 C 0.6686(2) -0.10938(14) 0.21164(16)
H16 H 0.6081 -0.0963 0.2232
H17 H 0.7096 -0.0870 0.2443
H18 H 0.8188(16) -0.0081(12) 0.0192(16)
H19 H 0.799(2) -0.0305(14) 0.195(2)
loop_
_geom_bond_atom_site_label_1
_geom_bond_atom_site_label_2
_geom_bond_site_symmetry_1
_geom_bond_site_symmetry_2
S1 C8 1_555 1_555
N1 C1 1_555 1_555
N2 N3 1_555 1_555
N3 C9 1_555 1_555
C1 C2 1_555 1_555
C2 H1 1_555 1_555
C3 C2 1_555 1_555
H2 C3 1_555 1_555
C4 C3 1_555 1_555
C5 C4 1_555 1_555
H3 C5 1_555 1_555
C6 C1 1_555 1_555
H4 C6 1_555 1_555
C7 C4 1_555 1_555
H5 C7 1_555 1_555
H6 C7 1_555 1_555
H7 C7 1_555 1_555
C8 N1 1_555 1_555
C9 C10 1_555 1_555
C10 H8 1_555 1_555
H9 C10 1_555 1_555
C11 C10 1_555 1_555
H10 C11 1_555 1_555
H11 C11 1_555 1_555
C12 C11 1_555 1_555
H12 C12 1_555 1_555
H13 C12 1_555 1_555
C13 C12 1_555 1_555
H14 C13 1_555 1_555
H15 C13 1_555 1_555
C14 C9 1_555 1_555
H16 C14 1_555 1_555
H17 C14 1_555 1_555
H18 N1 1_555 1_555
H19 N2 1_555 1_555
N2 C8 1_555 1_555
C5 C6 1_555 1_555
C13 C14 1_555 1_555

#END
