
#######################################################################
#
#                 Cambridge Crystallographic Data Centre
#                                CCDC 
#
#######################################################################
#
# If this CIF has been generated from an entry in the Cambridge 
# Structural Database, then it will include bibliographic, chemical, 
# crystal, experimental, refinement or atomic coordinate data resulting 
# from the CCDC's data processing and validation procedures.
#
#######################################################################

data_URIFAD
_chemical_compound_source        'leaves of Psidium guajava'
_chemical_name_common            
5,7-Dihydroxy-10,13,13,17-tetramethyl-9-phenyl-2-oxapentacyclo[8.7.2.0$1,11!.0$3,8!.0$12,14!]nonadeca-3,5,7-triene-4,6-dicarbaldehyde
_chemical_formula_moiety         'C30 H34 O5'
_chemical_name_systematic        'Psiguadial A'
_chemical_properties_biological  
'tested for inhibition of the growth of human hepatoma cells'
_symmetry_cell_setting           orthorhombic
_symmetry_space_group_name_H-M   'P 21 21 21'
_symmetry_Int_Tables_number      19
_space_group_name_Hall           'P 2ac 2ab'
loop_
_symmetry_equiv_pos_site_id
_symmetry_equiv_pos_as_xyz
1 x,y,z
2 1/2-x,-y,1/2+z
3 -x,1/2+y,1/2-z
4 1/2+x,1/2-y,-z
_cell_length_a                   11.1759(2)
_cell_length_b                   13.5506(2)
_cell_length_c                   15.9913(2)
_cell_angle_alpha                90
_cell_angle_beta                 90
_cell_angle_gamma                90
_cell_volume                     2421.72
_exptl_crystal_colour            colorless
_exptl_crystal_description       block
_cell_formula_units_Z            4
loop_
_atom_site_label
_atom_site_type_symbol
_atom_site_fract_x
_atom_site_fract_y
_atom_site_fract_z
O1 O 0.47015(13) 0.64716(11) 0.15202(9)
O2 O 0.12483(15) 0.70206(14) 0.19160(13)
O3 O 0.16934(14) 0.74539(15) 0.34300(13)
H1 H 0.1279 0.7295 0.3029
O4 O 0.40359(17) 0.78100(14) 0.53095(11)
O5 O 0.57184(14) 0.73826(12) 0.43101(9)
H2 H 0.5382 0.7582 0.4733
C1 C 0.54782(19) 0.55904(15) 0.13782(13)
C2 C 0.5376(2) 0.48573(16) 0.21150(14)
H3 H 0.4658 0.4989 0.2437
H4 H 0.5339 0.4185 0.1909
C3 C 0.6496(2) 0.50013(16) 0.26614(14)
H5 H 0.7013 0.4428 0.2625
H6 H 0.6271 0.5098 0.3242
C4 C 0.71413(19) 0.59251(16) 0.23197(13)
C5 C 0.67980(18) 0.59307(15) 0.13824(12)
H7 H 0.6852 0.6605 0.1164
C6 C 0.75784(19) 0.52491(16) 0.08613(12)
H8 H 0.7687 0.4585 0.1092
C7 C 0.7452(2) 0.52938(17) -0.00844(13)
H9 H 0.7488 0.4655 -0.0371
C8 C 0.6549(2) 0.60144(19) -0.04310(14)
H10 H 0.6654 0.6064 -0.1032
H11 H 0.6697 0.6661 -0.0193
C9 C 0.5262(2) 0.5711(2) -0.02440(15)
H12 H 0.4974 0.5319 -0.0710
H13 H 0.4778 0.6305 -0.0223
C10 C 0.5039(2) 0.51269(18) 0.05601(15)
H14 H 0.5492 0.4512 0.0498
C11 C 0.8612(2) 0.56227(17) 0.03274(14)
C12 C 0.8979(2) 0.66947(19) 0.03146(16)
H15 H 0.9643 0.6779 -0.0060
H16 H 0.9209 0.6896 0.0867
H17 H 0.8319 0.7091 0.0128
C13 C 0.9658(2) 0.4928(2) 0.02478(17)
H18 H 1.0261 0.5224 -0.0099
H19 H 0.9395 0.4321 0.0000
H20 H 0.9984 0.4798 0.0792
C14 C 0.3719(2) 0.4820(2) 0.05999(18)
H21 H 0.3486 0.4537 0.0074
H22 H 0.3234 0.5389 0.0713
H23 H 0.3611 0.4343 0.1037
C15 C 0.8497(2) 0.58674(19) 0.24664(14)
H24 H 0.8814 0.5297 0.2187
H25 H 0.8654 0.5818 0.3055
H26 H 0.8872 0.6451 0.2249
C16 C 0.66646(18) 0.68575(15) 0.27866(12)
H27 H 0.6993 0.6799 0.3353
C17 C 0.53189(18) 0.69239(15) 0.29172(13)
C18 C 0.44484(19) 0.67819(15) 0.23098(13)
C19 C 0.3212(2) 0.69856(15) 0.24561(14)
C20 C 0.2848(2) 0.72758(16) 0.32557(16)
C21 C 0.3687(2) 0.73918(16) 0.39019(14)
C22 C 0.49115(19) 0.72291(15) 0.37120(14)
C23 C 0.71605(19) 0.78344(16) 0.24630(13)
C24 C 0.8155(2) 0.82482(19) 0.28552(14)
H28 H 0.8509 0.7921 0.3303
C25 C 0.8626(2) 0.9149(2) 0.25843(17)
H29 H 0.9282 0.9420 0.2858
C26 C 0.8125(2) 0.96368(18) 0.19153(17)
H30 H 0.8446 1.0232 0.1733
C27 C 0.7146(2) 0.92360(17) 0.15182(17)
H31 H 0.6808 0.9560 0.1063
C28 C 0.6660(2) 0.83500(16) 0.17932(14)
H32 H 0.5989 0.8095 0.1526
C29 C 0.2333(2) 0.68805(18) 0.18047(17)
H33 H 0.2592 0.6698 0.1274
C30 C 0.3330(2) 0.76702(18) 0.47300(16)
H34 H 0.2518 0.7750 0.4836
loop_
_geom_bond_atom_site_label_1
_geom_bond_atom_site_label_2
_geom_bond_site_symmetry_1
_geom_bond_site_symmetry_2
O1 C1 1_555 1_555
O2 C29 1_555 1_555
O3 H1 1_555 1_555
O4 C30 1_555 1_555
O5 H2 1_555 1_555
C1 C2 1_555 1_555
C2 H3 1_555 1_555
H4 C2 1_555 1_555
C3 C2 1_555 1_555
H5 C3 1_555 1_555
H6 C3 1_555 1_555
C4 C3 1_555 1_555
C5 C1 1_555 1_555
H7 C5 1_555 1_555
C6 C5 1_555 1_555
H8 C6 1_555 1_555
C7 C6 1_555 1_555
H9 C7 1_555 1_555
C8 C7 1_555 1_555
H10 C8 1_555 1_555
H11 C8 1_555 1_555
C9 C8 1_555 1_555
H12 C9 1_555 1_555
H13 C9 1_555 1_555
C10 C1 1_555 1_555
H14 C10 1_555 1_555
C11 C6 1_555 1_555
C12 C11 1_555 1_555
H15 C12 1_555 1_555
H16 C12 1_555 1_555
H17 C12 1_555 1_555
C13 C11 1_555 1_555
H18 C13 1_555 1_555
H19 C13 1_555 1_555
H20 C13 1_555 1_555
C14 C10 1_555 1_555
H21 C14 1_555 1_555
H22 C14 1_555 1_555
H23 C14 1_555 1_555
C15 C4 1_555 1_555
H24 C15 1_555 1_555
H25 C15 1_555 1_555
H26 C15 1_555 1_555
C16 C4 1_555 1_555
H27 C16 1_555 1_555
C17 C16 1_555 1_555
C18 O1 1_555 1_555
C19 C18 1_555 1_555
C20 O3 1_555 1_555
C21 C20 1_555 1_555
C22 O5 1_555 1_555
C23 C16 1_555 1_555
C24 C23 1_555 1_555
H28 C24 1_555 1_555
C25 C24 1_555 1_555
H29 C25 1_555 1_555
C26 C25 1_555 1_555
H30 C26 1_555 1_555
C27 C26 1_555 1_555
H31 C27 1_555 1_555
C28 C23 1_555 1_555
H32 C28 1_555 1_555
C29 C19 1_555 1_555
H33 C29 1_555 1_555
C30 C21 1_555 1_555
H34 C30 1_555 1_555
C4 C5 1_555 1_555
C7 C11 1_555 1_555
C9 C10 1_555 1_555
C17 C18 1_555 1_555
C17 C22 1_555 1_555
C19 C20 1_555 1_555
C21 C22 1_555 1_555
C27 C28 1_555 1_555

#END
