
#######################################################################
#
#                 Cambridge Crystallographic Data Centre
#                                CCDC 
#
#######################################################################
#
# If this CIF has been generated from an entry in the Cambridge 
# Structural Database, then it will include bibliographic, chemical, 
# crystal, experimental, refinement or atomic coordinate data resulting 
# from the CCDC's data processing and validation procedures.
#
#######################################################################

data_URIRUK
_chemical_formula_moiety         'C33 H26 N2'
_chemical_name_systematic        
4-(2-(4-(benzylideneamino)phenyl)vinyl)-N,N-diphenylaniline
_symmetry_cell_setting           triclinic
_symmetry_space_group_name_H-M   'P -1'
_symmetry_Int_Tables_number      2
_space_group_name_Hall           '-P 1'
loop_
_symmetry_equiv_pos_site_id
_symmetry_equiv_pos_as_xyz
1 x,y,z
2 -x,-y,-z
_cell_length_a                   9.806(3)
_cell_length_b                   15.377(5)
_cell_length_c                   24.836(8)
_cell_angle_alpha                88.030(4)
_cell_angle_beta                 88.733(4)
_cell_angle_gamma                82.218(4)
_cell_volume                     3707.68
_cell_formula_units_Z            6
loop_
_atom_site_label
_atom_site_type_symbol
_atom_site_fract_x
_atom_site_fract_y
_atom_site_fract_z
C1 C 0.3740(7) 0.1961(4) 0.0547(3)
H1 H 0.3911 0.1355 0.0605
C2 C 0.2824(7) 0.2307(5) 0.0155(3)
H2 H 0.2358 0.1941 -0.0043
C3 C 0.2613(7) 0.3200(6) 0.0061(3)
H3 H 0.2004 0.3440 -0.0204
C4 C 0.3293(7) 0.3743(5) 0.0354(3)
H4 H 0.3151 0.4348 0.0289
C5 C 0.4189(7) 0.3382(5) 0.0747(3)
H5 H 0.4657 0.3746 0.0945
C6 C 0.4398(7) 0.2500(5) 0.0850(2)
C7 C 0.7344(7) 0.1983(4) 0.0682(3)
H6 H 0.6791 0.1878 0.0399
C8 C 0.8742(8) 0.1986(4) 0.0597(3)
H7 H 0.9118 0.1888 0.0254
C9 C 0.9588(7) 0.2132(4) 0.1009(3)
H8 H 1.0530 0.2118 0.0949
C10 C 0.9016(8) 0.2299(4) 0.1514(3)
H9 H 0.9573 0.2405 0.1796
C11 C 0.7602(8) 0.2309(4) 0.1603(3)
H10 H 0.7217 0.2434 0.1941
C12 C 0.6772(7) 0.2134(4) 0.1185(3)
C13 C 0.4752(7) 0.1725(4) 0.1717(2)
C14 C 0.3368(6) 0.1935(4) 0.1852(2)
H11 H 0.2811 0.2348 0.1644
C15 C 0.2813(6) 0.1526(4) 0.2302(2)
H12 H 0.1880 0.1664 0.2383
C16 C 0.3615(7) 0.0916(4) 0.2632(2)
C17 C 0.5007(7) 0.0729(4) 0.2493(2)
H13 H 0.5576 0.0337 0.2709
C18 C 0.5564(6) 0.1111(4) 0.2043(2)
H14 H 0.6491 0.0958 0.1955
C19 C 0.3014(6) 0.0519(4) 0.3102(2)
H15 H 0.2059 0.0606 0.3133
C20 C 0.3697(6) 0.0039(4) 0.3496(2)
H16 H 0.4651 -0.0055 0.3460
C21 C 0.3095(8) -0.0359(4) 0.3985(2)
C22 C 0.1735(8) -0.0370(4) 0.4067(3)
H17 H 0.1119 -0.0136 0.3804
C23 C 0.1248(7) -0.0726(5) 0.4540(3)
H18 H 0.0301 -0.0681 0.4599
C24 C 0.2100(8) -0.1143(4) 0.4926(3)
C25 C 0.3479(7) -0.1156(4) 0.4838(3)
H19 H 0.4095 -0.1431 0.5090
C26 C 0.3978(6) -0.0761(4) 0.4372(3)
H20 H 0.4922 -0.0769 0.4322
C27 C 0.2076(8) -0.2061(5) 0.5666(3)
H21 H 0.2991 -0.2261 0.5582
C28 C 0.1405(9) -0.2439(4) 0.6148(3)
C29 C 0.0015(8) -0.2269(5) 0.6236(3)
H22 H -0.0563 -0.1905 0.6007
C30 C -0.0479(7) -0.2690(5) 0.6706(3)
H23 H -0.1425 -0.2622 0.6770
C31 C 0.0353(8) -0.3194(4) 0.7071(3)
H24 H -0.0016 -0.3443 0.7378
C32 C 0.1724(8) -0.3312(4) 0.6967(3)
H25 H 0.2312 -0.3651 0.7204
C33 C 0.2261(7) -0.2931(5) 0.6507(3)
H26 H 0.3207 -0.3010 0.6443
N1 N 0.5326(5) 0.2134(3) 0.12678(19)
N2 N 0.1453(6) -0.1510(4) 0.5389(2)
C34 C 0.7135(8) 0.4705(4) 0.0893(3)
H27 H 0.6409 0.4722 0.0657
C35 C 0.8498(10) 0.4477(4) 0.0718(3)
H28 H 0.8667 0.4320 0.0362
C36 C 0.9573(8) 0.4477(5) 0.1044(4)
H29 H 1.0471 0.4348 0.0913
C37 C 0.9323(8) 0.4670(5) 0.1575(4)
H30 H 1.0055 0.4653 0.1808
C38 C 0.7999(9) 0.4888(4) 0.1764(3)
H31 H 0.7849 0.5027 0.2124
C39 C 0.6893(7) 0.4906(4) 0.1434(3)
C40 C 0.3122(7) 0.5575(4) 0.1421(3)
H32 H 0.2876 0.5164 0.1676
C41 C 0.2109(7) 0.6081(5) 0.1129(3)
H33 H 0.1188 0.6019 0.1190
C42 C 0.2478(8) 0.6684(5) 0.0745(3)
H34 H 0.1810 0.7023 0.0540
C43 C 0.3854(9) 0.6772(5) 0.0671(3)
H35 H 0.4107 0.7181 0.0417
C44 C 0.4841(7) 0.6278(4) 0.0961(3)
H36 H 0.5761 0.6349 0.0904
C45 C 0.4491(7) 0.5666(4) 0.1341(2)
C46 C 0.5154(6) 0.4806(5) 0.2158(3)
C47 C 0.4943(6) 0.3929(5) 0.2229(3)
H37 H 0.5066 0.3557 0.1940
C48 C 0.4549(6) 0.3612(4) 0.2731(3)
H38 H 0.4394 0.3030 0.2774
C49 C 0.4385(6) 0.4153(5) 0.3167(3)
C50 C 0.4610(6) 0.5022(5) 0.3092(3)
H39 H 0.4514 0.5395 0.3382
C51 C 0.4974(6) 0.5333(4) 0.2592(3)
H40 H 0.5100 0.5920 0.2547
C52 C 0.3951(6) 0.3851(4) 0.3715(2)
H41 H 0.3757 0.4277 0.3973
C53 C 0.3819(6) 0.3039(4) 0.3865(3)
H42 H 0.4033 0.2617 0.3606
C54 C 0.3371(7) 0.2725(5) 0.4396(3)
C55 C 0.3195(7) 0.1852(5) 0.4470(3)
H43 H 0.3409 0.1482 0.4183
C56 C 0.2724(7) 0.1499(4) 0.4941(3)
H44 H 0.2573 0.0915 0.4964
C57 C 0.2480(6) 0.2023(5) 0.5380(3)
C58 C 0.2637(6) 0.2894(5) 0.5328(3)
H45 H 0.2449 0.3255 0.5621
C59 C 0.3076(6) 0.3242(4) 0.4839(3)
H46 H 0.3172 0.3835 0.4810
C60 C 0.2068(7) 0.0963(5) 0.6034(3)
H47 H 0.2472 0.0547 0.5795
C61 C 0.1535(7) 0.0666(6) 0.6576(3)
C62 C 0.1744(7) -0.0238(6) 0.6666(3)
H48 H 0.2187 -0.0608 0.6409
C63 C 0.1261(8) -0.0576(5) 0.7162(3)
H49 H 0.1396 -0.1178 0.7236
C64 C 0.0607(8) -0.0030(7) 0.7527(3)
H50 H 0.0301 -0.0254 0.7854
C65 C 0.0393(8) 0.0870(6) 0.7413(4)
H51 H -0.0070 0.1233 0.7669
C66 C 0.0842(8) 0.1267(6) 0.6925(3)
H52 H 0.0687 0.1868 0.6849
N3 N 0.5513(6) 0.5127(3) 0.1631(2)
N4 N 0.1976(6) 0.1745(4) 0.5905(2)
C67 C 0.7406(8) 0.7860(5) 0.1410(2)
H53 H 0.7077 0.7361 0.1554
C68 C 0.8760(8) 0.7817(5) 0.1243(2)
H54 H 0.9326 0.7281 0.1265
C69 C 0.9296(7) 0.8547(6) 0.1044(3)
H55 H 1.0221 0.8508 0.0944
C70 C 0.8441(8) 0.9342(5) 0.0995(2)
H56 H 0.8779 0.9840 0.0853
C71 C 0.7065(7) 0.9380(5) 0.1162(2)
H57 H 0.6494 0.9914 0.1136
C72 C 0.6526(7) 0.8650(5) 0.1365(2)
C73 C 0.4222(6) 0.9172(4) 0.0655(3)
H58 H 0.5007 0.8876 0.0494
C74 C 0.3179(8) 0.9612(4) 0.0341(3)
H59 H 0.3263 0.9601 -0.0033
C75 C 0.2034(7) 1.0059(4) 0.0571(3)
H60 H 0.1337 1.0345 0.0357
C76 C 0.1912(6) 1.0084(4) 0.1122(3)
H61 H 0.1130 1.0388 0.1281
C77 C 0.2959(7) 0.9655(4) 0.1444(2)
H62 H 0.2893 0.9695 0.1817
C78 C 0.4080(7) 0.9177(4) 0.1213(3)
C79 C 0.4811(7) 0.8370(4) 0.2054(2)
C80 C 0.3639(7) 0.7985(4) 0.2144(2)
H63 H 0.3050 0.7947 0.1860
C81 C 0.3320(6) 0.7655(4) 0.2647(3)
H64 H 0.2499 0.7421 0.2699
C82 C 0.4197(7) 0.7663(4) 0.3080(3)
C83 C 0.5399(6) 0.8023(4) 0.2978(2)
H65 H 0.6018 0.8021 0.3256
C84 C 0.5724(6) 0.8385(4) 0.2481(2)
H66 H 0.6532 0.8634 0.2431
C85 C 0.3938(6) 0.7283(4) 0.3620(2)
H67 H 0.4669 0.7205 0.3856
C86 C 0.2749(7) 0.7041(4) 0.3799(2)
H68 H 0.1996 0.7163 0.3575
C87 C 0.2526(7) 0.6595(4) 0.4324(2)
C88 C 0.3595(6) 0.6236(4) 0.4647(2)
H69 H 0.4495 0.6300 0.4545
C89 C 0.3342(6) 0.5781(4) 0.5123(2)
H70 H 0.4077 0.5554 0.5339
C90 C 0.2015(7) 0.5656(4) 0.5283(3)
C91 C 0.0973(6) 0.6017(4) 0.4961(2)
H71 H 0.0072 0.5949 0.5060
C92 C 0.1209(7) 0.6475(4) 0.4497(2)
H72 H 0.0463 0.6714 0.4290
C93 C 0.0788(7) 0.5204(4) 0.6031(3)
H73 H 0.0046 0.5608 0.5921
C94 C 0.0639(7) 0.4635(5) 0.6525(2)
C95 C 0.1935(9) 0.4087(4) 0.6672(3)
H74 H 0.2809 0.4048 0.6514
C96 C 0.1413(7) 0.3615(5) 0.7153(3)
H75 H 0.2083 0.3205 0.7310
C97 C 0.0124(9) 0.3657(4) 0.7419(3)
H76 H 0.0004 0.3303 0.7723
C98 C -0.0932(7) 0.4223(5) 0.7223(3)
H77 H -0.1797 0.4279 0.7390
C99 C -0.0685(7) 0.4724(4) 0.6760(2)
H78 H -0.1393 0.5113 0.6608
N5 N 0.5127(5) 0.8721(3) 0.1542(2)
N6 N 0.1888(5) 0.5146(3) 0.5765(2)
loop_
_geom_bond_atom_site_label_1
_geom_bond_atom_site_label_2
_geom_bond_site_symmetry_1
_geom_bond_site_symmetry_2
C1 H1 1_555 1_555
C2 C1 1_555 1_555
H2 C2 1_555 1_555
C3 C2 1_555 1_555
H3 C3 1_555 1_555
C4 C3 1_555 1_555
H4 C4 1_555 1_555
C5 C4 1_555 1_555
H5 C5 1_555 1_555
C6 C1 1_555 1_555
C7 H6 1_555 1_555
C8 C7 1_555 1_555
H7 C8 1_555 1_555
C9 C8 1_555 1_555
H8 C9 1_555 1_555
C10 C9 1_555 1_555
H9 C10 1_555 1_555
C11 C10 1_555 1_555
H10 C11 1_555 1_555
C12 C7 1_555 1_555
C13 C14 1_555 1_555
C14 H11 1_555 1_555
C15 C14 1_555 1_555
H12 C15 1_555 1_555
C16 C15 1_555 1_555
C17 C16 1_555 1_555
H13 C17 1_555 1_555
C18 C13 1_555 1_555
H14 C18 1_555 1_555
C19 C16 1_555 1_555
H15 C19 1_555 1_555
C20 C19 1_555 1_555
H16 C20 1_555 1_555
C21 C20 1_555 1_555
C22 C21 1_555 1_555
H17 C22 1_555 1_555
C23 C22 1_555 1_555
H18 C23 1_555 1_555
C24 C23 1_555 1_555
C25 C24 1_555 1_555
H19 C25 1_555 1_555
C26 C21 1_555 1_555
H20 C26 1_555 1_555
C27 H21 1_555 1_555
C28 C27 1_555 1_555
C29 C28 1_555 1_555
H22 C29 1_555 1_555
C30 C29 1_555 1_555
H23 C30 1_555 1_555
C31 C30 1_555 1_555
H24 C31 1_555 1_555
C32 C31 1_555 1_555
H25 C32 1_555 1_555
C33 C28 1_555 1_555
H26 C33 1_555 1_555
N1 C6 1_555 1_555
N2 C24 1_555 1_555
C34 H27 1_555 1_555
C35 C34 1_555 1_555
H28 C35 1_555 1_555
C36 C35 1_555 1_555
H29 C36 1_555 1_555
C37 C36 1_555 1_555
H30 C37 1_555 1_555
C38 C37 1_555 1_555
H31 C38 1_555 1_555
C39 C34 1_555 1_555
C40 H32 1_555 1_555
C41 C40 1_555 1_555
H33 C41 1_555 1_555
C42 C41 1_555 1_555
H34 C42 1_555 1_555
C43 C42 1_555 1_555
H35 C43 1_555 1_555
C44 C43 1_555 1_555
H36 C44 1_555 1_555
C45 C40 1_555 1_555
C46 C47 1_555 1_555
C47 H37 1_555 1_555
C48 C47 1_555 1_555
H38 C48 1_555 1_555
C49 C48 1_555 1_555
C50 C49 1_555 1_555
H39 C50 1_555 1_555
C51 C46 1_555 1_555
H40 C51 1_555 1_555
C52 C49 1_555 1_555
H41 C52 1_555 1_555
C53 C52 1_555 1_555
H42 C53 1_555 1_555
C54 C53 1_555 1_555
C55 C54 1_555 1_555
H43 C55 1_555 1_555
C56 C55 1_555 1_555
H44 C56 1_555 1_555
C57 C56 1_555 1_555
C58 C57 1_555 1_555
H45 C58 1_555 1_555
C59 C54 1_555 1_555
H46 C59 1_555 1_555
C60 H47 1_555 1_555
C61 C60 1_555 1_555
C62 C61 1_555 1_555
H48 C62 1_555 1_555
C63 C62 1_555 1_555
H49 C63 1_555 1_555
C64 C63 1_555 1_555
H50 C64 1_555 1_555
C65 C64 1_555 1_555
H51 C65 1_555 1_555
C66 C61 1_555 1_555
H52 C66 1_555 1_555
N3 C39 1_555 1_555
N4 C57 1_555 1_555
C67 H53 1_555 1_555
C68 C67 1_555 1_555
H54 C68 1_555 1_555
C69 C68 1_555 1_555
H55 C69 1_555 1_555
C70 C69 1_555 1_555
H56 C70 1_555 1_555
C71 C70 1_555 1_555
H57 C71 1_555 1_555
C72 C67 1_555 1_555
C73 H58 1_555 1_555
C74 C73 1_555 1_555
H59 C74 1_555 1_555
C75 C74 1_555 1_555
H60 C75 1_555 1_555
C76 C75 1_555 1_555
H61 C76 1_555 1_555
C77 C76 1_555 1_555
H62 C77 1_555 1_555
C78 C73 1_555 1_555
C79 C80 1_555 1_555
C80 H63 1_555 1_555
C81 C80 1_555 1_555
H64 C81 1_555 1_555
C82 C81 1_555 1_555
C83 C82 1_555 1_555
H65 C83 1_555 1_555
C84 C79 1_555 1_555
H66 C84 1_555 1_555
C85 C82 1_555 1_555
H67 C85 1_555 1_555
C86 C85 1_555 1_555
H68 C86 1_555 1_555
C87 C86 1_555 1_555
C88 C87 1_555 1_555
H69 C88 1_555 1_555
C89 C88 1_555 1_555
H70 C89 1_555 1_555
C90 C89 1_555 1_555
C91 C90 1_555 1_555
H71 C91 1_555 1_555
C92 C87 1_555 1_555
H72 C92 1_555 1_555
C93 H73 1_555 1_555
C94 C93 1_555 1_555
C95 C94 1_555 1_555
H74 C95 1_555 1_555
C96 C95 1_555 1_555
H75 C96 1_555 1_555
C97 C96 1_555 1_555
H76 C97 1_555 1_555
C98 C97 1_555 1_555
H77 C98 1_555 1_555
C99 C94 1_555 1_555
H78 C99 1_555 1_555
N5 C72 1_555 1_555
N6 C90 1_555 1_555
C5 C6 1_555 1_555
C11 C12 1_555 1_555
C12 N1 1_555 1_555
C13 N1 1_555 1_555
C17 C18 1_555 1_555
C25 C26 1_555 1_555
C27 N2 1_555 1_555
C32 C33 1_555 1_555
C38 C39 1_555 1_555
C44 C45 1_555 1_555
C45 N3 1_555 1_555
C46 N3 1_555 1_555
C50 C51 1_555 1_555
C58 C59 1_555 1_555
C60 N4 1_555 1_555
C65 C66 1_555 1_555
C71 C72 1_555 1_555
C77 C78 1_555 1_555
C78 N5 1_555 1_555
C79 N5 1_555 1_555
C83 C84 1_555 1_555
C91 C92 1_555 1_555
C93 N6 1_555 1_555
C98 C99 1_555 1_555

#END
