
#######################################################################
#
#                 Cambridge Crystallographic Data Centre
#                                CCDC 
#
#######################################################################
#
# If this CIF has been generated from an entry in the Cambridge 
# Structural Database, then it will include bibliographic, chemical, 
# crystal, experimental, refinement or atomic coordinate data resulting 
# from the CCDC's data processing and validation procedures.
#
#######################################################################

data_URISAQ
_chemical_formula_moiety         'C7 H6 O3,C7 H7 N1 O1'
_chemical_name_systematic        'Salicylic acid benzamide'
_symmetry_cell_setting           monoclinic
_symmetry_space_group_name_H-M   'P 21/c'
_symmetry_Int_Tables_number      14
_space_group_name_Hall           '-P 2ybc'
loop_
_symmetry_equiv_pos_site_id
_symmetry_equiv_pos_as_xyz
1 x,y,z
2 -x,1/2+y,1/2-z
3 -x,-y,-z
4 x,1/2-y,1/2+z
_cell_length_a                   5.4523(3)
_cell_length_b                   9.6459(7)
_cell_length_c                   23.9008(15)
_cell_angle_alpha                90
_cell_angle_beta                 92.716(2)
_cell_angle_gamma                90
_cell_volume                     1255.59
_exptl_crystal_colour            colorless
_exptl_crystal_description       hexagonal
_cell_formula_units_Z            4
loop_
_atom_site_label
_atom_site_type_symbol
_atom_site_fract_x
_atom_site_fract_y
_atom_site_fract_z
C1 C 0.33386(19) 0.66357(12) 0.39559(4)
C2 C 0.3663(2) 0.75993(13) 0.43923(5)
C3 C 0.5597(3) 0.74317(15) 0.47917(6)
C4 C 0.7178(2) 0.63293(17) 0.47534(6)
C5 C 0.6882(2) 0.53674(16) 0.43226(6)
C6 C 0.4974(2) 0.55242(13) 0.39267(5)
C7 C 0.1287(2) 0.68139(12) 0.35340(5)
H1 H 0.581(3) 0.8152(18) 0.5081(7)
H2 H 0.857(3) 0.6241(19) 0.5042(7)
H3 H 0.801(3) 0.4609(19) 0.4294(7)
H4 H 0.478(3) 0.4858(17) 0.3623(6)
H5 H -0.045(4) 0.592(2) 0.2949(8)
H6 H 0.108(4) 0.872(2) 0.4156(9)
O1 O 0.10029(17) 0.57942(9) 0.31713(4)
O2 O -0.00558(18) 0.78404(10) 0.35272(4)
O3 O 0.21752(18) 0.87124(11) 0.44508(4)
C8 C -0.61066(19) 0.67599(11) 0.19075(4)
C9 C -0.8217(2) 0.75749(13) 0.18620(5)
C10 C -0.9782(2) 0.74650(15) 0.13872(6)
C11 C -0.9247(3) 0.65584(15) 0.09626(6)
C12 C -0.7158(3) 0.57471(14) 0.10066(5)
C13 C -0.5588(2) 0.58377(13) 0.14810(5)
C14 C -0.4331(2) 0.68484(12) 0.24023(4)
H7 H -0.862(2) 0.8186(15) 0.2158(6)
H8 H -1.124(3) 0.7998(19) 0.1360(7)
H9 H -1.035(3) 0.6474(17) 0.0627(7)
H10 H -0.672(3) 0.5099(17) 0.0720(7)
H11 H -0.409(3) 0.5300(16) 0.1507(6)
H12 H -0.496(3) 0.8796(19) 0.2562(7)
H13 H -0.301(3) 0.8099(16) 0.2970(7)
N1 N -0.4165(2) 0.80379(12) 0.26795(5)
O4 O -0.30395(16) 0.58198(9) 0.25385(4)
loop_
_geom_bond_atom_site_label_1
_geom_bond_atom_site_label_2
_geom_bond_site_symmetry_1
_geom_bond_site_symmetry_2
C1 C2 1_555 1_555
C2 C3 1_555 1_555
C3 C4 1_555 1_555
C4 C5 1_555 1_555
C5 C6 1_555 1_555
C6 C1 1_555 1_555
C7 C1 1_555 1_555
H1 C3 1_555 1_555
H2 C4 1_555 1_555
H3 C5 1_555 1_555
H4 C6 1_555 1_555
H5 O1 1_555 1_555
H6 O3 1_555 1_555
O1 C7 1_555 1_555
O2 C7 1_555 1_555
O3 C2 1_555 1_555
C8 C9 1_555 1_555
C9 C10 1_555 1_555
C10 C11 1_555 1_555
C11 C12 1_555 1_555
C12 C13 1_555 1_555
C13 C8 1_555 1_555
C14 C8 1_555 1_555
H7 C9 1_555 1_555
H8 C10 1_555 1_555
H9 C11 1_555 1_555
H10 C12 1_555 1_555
H11 C13 1_555 1_555
H12 N1 1_555 1_555
H13 N1 1_555 1_555
N1 C14 1_555 1_555
O4 C14 1_555 1_555

#END
