
#######################################################################
#
#                 Cambridge Crystallographic Data Centre
#                                CCDC 
#
#######################################################################
#
# If this CIF has been generated from an entry in the Cambridge 
# Structural Database, then it will include bibliographic, chemical, 
# crystal, experimental, refinement or atomic coordinate data resulting 
# from the CCDC's data processing and validation procedures.
#
#######################################################################

data_URIYOL
_chemical_formula_moiety         'C8 H8 Cl1 N1 O1'
_chemical_name_systematic        2-chloro-N-hydroxy-1-phenylethanimine
_symmetry_cell_setting           monoclinic
_symmetry_space_group_name_H-M   'P 21/c'
_symmetry_Int_Tables_number      14
_space_group_name_Hall           '-P 2ybc'
loop_
_symmetry_equiv_pos_site_id
_symmetry_equiv_pos_as_xyz
1 x,y,z
2 -x,1/2+y,1/2-z
3 -x,-y,-z
4 x,1/2-y,1/2+z
_cell_length_a                   11.461(3)
_cell_length_b                   18.171(5)
_cell_length_c                   7.917(2)
_cell_angle_alpha                90
_cell_angle_beta                 106.770(4)
_cell_angle_gamma                90
_cell_volume                     1578.66
_exptl_crystal_colour            colorless
_exptl_crystal_description       block
_cell_formula_units_Z            8
_exptl_crystal_recrystallization_method hexane/toluene
loop_
_atom_site_label
_atom_site_type_symbol
_atom_site_fract_x
_atom_site_fract_y
_atom_site_fract_z
Cl1 Cl -0.14083(3) 0.27016(2) 0.18326(4)
O1 O 0.15720(8) 0.26890(5) 0.35810(13)
H1 H 0.2180 0.2567 0.4368
N1 N 0.13657(9) 0.34458(5) 0.37085(14)
C1 C 0.01420(11) 0.44702(7) 0.24876(15)
C2 C 0.04508(11) 0.36799(6) 0.24645(16)
C3 C 0.10263(12) 0.49872(7) 0.33152(17)
H2 H 0.1826 0.4837 0.3828
C4 C -0.02950(11) 0.31854(7) 0.10385(16)
H3 H 0.0233 0.2835 0.0696
H4 H -0.0704 0.3476 0.0010
C5 C -0.10545(12) 0.47073(7) 0.17103(17)
H5 H -0.1648 0.4371 0.1133
C6 C -0.04789(13) 0.59533(7) 0.26255(17)
H6 H -0.0685 0.6446 0.2680
C7 C 0.07183(13) 0.57218(7) 0.33765(18)
H7 H 0.1314 0.6062 0.3922
C8 C -0.13583(12) 0.54471(8) 0.17998(17)
H8 H -0.2158 0.5600 0.1300
Cl2 Cl 0.64836(3) 0.35573(2) 0.77681(4)
O2 O 0.34266(9) 0.36591(5) 0.65999(13)
H9 H 0.2794 0.3783 0.5862
N2 N 0.35816(9) 0.28972(6) 0.65099(14)
C9 C 0.47853(11) 0.18596(7) 0.76733(15)
C10 C 0.45587(11) 0.26626(6) 0.76282(15)
C11 C 0.59793(11) 0.15888(7) 0.82375(16)
H10 H 0.6630 0.1912 0.8631
C12 C 0.54506(11) 0.31641(7) 0.88645(15)
H11 H 0.5909 0.2889 0.9892
H12 H 0.5014 0.3554 0.9259
C13 C 0.38163(12) 0.13646(7) 0.71179(17)
H13 H 0.3020 0.1539 0.6738
C14 C 0.61917(12) 0.08355(7) 0.82091(17)
H14 H 0.6987 0.0659 0.8554
C15 C 0.52281(13) 0.03471(8) 0.76708(19)
H15 H 0.5375 -0.0156 0.7670
C16 C 0.40381(13) 0.06121(7) 0.71311(19)
H16 H 0.3389 0.0285 0.6778
loop_
_geom_bond_atom_site_label_1
_geom_bond_atom_site_label_2
_geom_bond_site_symmetry_1
_geom_bond_site_symmetry_2
Cl1 C4 1_555 1_555
O1 H1 1_555 1_555
N1 O1 1_555 1_555
C1 C2 1_555 1_555
C2 N1 1_555 1_555
C3 C1 1_555 1_555
H2 C3 1_555 1_555
C4 C2 1_555 1_555
H3 C4 1_555 1_555
H4 C4 1_555 1_555
C5 C1 1_555 1_555
H5 C5 1_555 1_555
C6 H6 1_555 1_555
C7 C3 1_555 1_555
H7 C7 1_555 1_555
C8 C5 1_555 1_555
H8 C8 1_555 1_555
Cl2 C12 1_555 1_555
O2 H9 1_555 1_555
N2 O2 1_555 1_555
C9 C10 1_555 1_555
C10 N2 1_555 1_555
C11 C9 1_555 1_555
H10 C11 1_555 1_555
C12 C10 1_555 1_555
H11 C12 1_555 1_555
H12 C12 1_555 1_555
C13 C9 1_555 1_555
H13 C13 1_555 1_555
C14 C11 1_555 1_555
H14 C14 1_555 1_555
C15 C14 1_555 1_555
H15 C15 1_555 1_555
C16 C13 1_555 1_555
H16 C16 1_555 1_555
C6 C7 1_555 1_555
C6 C8 1_555 1_555
C15 C16 1_555 1_555

#END
