
#######################################################################
#
#                 Cambridge Crystallographic Data Centre
#                                CCDC 
#
#######################################################################
#
# If this CIF has been generated from an entry in the Cambridge 
# Structural Database, then it will include bibliographic, chemical, 
# crystal, experimental, refinement or atomic coordinate data resulting 
# from the CCDC's data processing and validation procedures.
#
#######################################################################

data_URUDER03
_chemical_name_common            'Isoniazid 4-aminosalicylic acid'
_chemical_formula_moiety         'C7 H7 N1 O3,C6 H7 N3 O1'
_chemical_name_systematic        'Isonicotinohydrazide 4-aminosalicylic acid'
_symmetry_cell_setting           orthorhombic
_symmetry_space_group_name_H-M   'P n a 21'
_symmetry_Int_Tables_number      33
_space_group_name_Hall           'P 2c -2n'
loop_
_symmetry_equiv_pos_site_id
_symmetry_equiv_pos_as_xyz
1 x,y,z
2 -x,-y,1/2+z
3 1/2-x,1/2+y,1/2+z
4 1/2+x,1/2-y,z
_cell_length_a                   21.879(9)
_cell_length_b                   16.520(7)
_cell_length_c                   7.263(3)
_cell_angle_alpha                90
_cell_angle_beta                 90
_cell_angle_gamma                90
_cell_volume                     2625.15
_exptl_crystal_colour            yellow
_exptl_crystal_description       block
_cell_formula_units_Z            8
loop_
_atom_site_label
_atom_site_type_symbol
_atom_site_fract_x
_atom_site_fract_y
_atom_site_fract_z
O1 O 0.11423(9) 0.10547(11) 0.9162(4)
N1 N 0.20085(10) 0.38484(12) 0.9102(4)
N2 N 0.21581(10) 0.08116(12) 0.9303(4)
N3 N 0.21012(13) -0.00505(13) 0.9284(4)
C1 C 0.24334(12) 0.33388(15) 0.8459(4)
C2 C 0.23515(11) 0.25018(15) 0.8474(4)
C3 C 0.18114(11) 0.21922(13) 0.9174(4)
C4 C 0.13691(11) 0.27230(15) 0.9814(4)
C5 C 0.14837(11) 0.35537(15) 0.9765(4)
C6 C 0.16715(11) 0.12957(14) 0.9222(4)
H1 H 0.2558(15) 0.1001(17) 0.950(5)
H2 H 0.202(3) -0.028(4) 0.809(11)
H3 H 0.1848(18) -0.023(2) 1.014(6)
H4 H 0.2801(14) 0.3551(18) 0.811(5)
H6 H 0.2671(14) 0.2138(19) 0.796(5)
H10 H 0.0982(14) 0.2524(19) 1.035(5)
H11 H 0.1185(14) 0.3974(18) 1.029(5)
O2 O 0.31662(9) 0.50669(11) 0.9862(3)
O3 O 0.22124(8) 0.53733(10) 0.9008(4)
O4 O 0.39842(9) 0.61723(12) 0.9902(3)
N4 N 0.33249(12) 0.89188(13) 0.9192(4)
C7 C 0.29276(11) 0.64374(14) 0.9184(4)
C8 C 0.35268(11) 0.67117(15) 0.9542(3)
C9 C 0.36580(12) 0.75324(16) 0.9539(4)
C10 C 0.32016(11) 0.81085(14) 0.9175(4)
C11 C 0.26096(12) 0.78345(15) 0.8712(4)
C12 C 0.24848(11) 0.70161(14) 0.8725(3)
C13 C 0.27738(11) 0.55718(14) 0.9363(4)
H5 H 0.212(2) 0.467(3) 0.902(9)
H7 H 0.3666(18) 0.909(2) 0.961(6)
H8 H 0.2998(14) 0.9247(18) 0.920(5)
H9 H 0.370(2) 0.565(3) 0.981(8)
H12 H 0.4030(16) 0.773(2) 0.985(5)
H13 H 0.2293(14) 0.8226(19) 0.849(5)
H14 H 0.2071(13) 0.6780(17) 0.841(5)
O5 O 0.42397(9) 0.00228(10) 0.1144(3)
O6 O 0.52130(8) 0.03651(10) 0.1708(4)
O7 O 0.34717(8) 0.11651(11) 0.0365(3)
N5 N 0.40891(12) 0.38968(13) 0.1445(4)
C14 C 0.44925(11) 0.14109(14) 0.1486(4)
C15 C 0.39152(11) 0.16921(15) 0.0928(4)
C16 C 0.37828(11) 0.25136(15) 0.0914(4)
C17 C 0.42225(11) 0.30809(14) 0.1448(4)
C18 C 0.48001(12) 0.28058(15) 0.2045(4)
C19 C 0.49271(11) 0.19888(15) 0.2048(4)
C20 C 0.46390(11) 0.05427(15) 0.1436(4)
H15 H 0.533(2) -0.020(3) 0.166(9)
H16 H 0.3629(16) 0.063(2) 0.052(6)
H17 H 0.4420(16) 0.428(2) 0.159(6)
H18 H 0.3759(19) 0.404(2) 0.068(6)
H19 H 0.3343(16) 0.2668(19) 0.057(5)
H20 H 0.5099(14) 0.3200(18) 0.243(5)
H21 H 0.5293(14) 0.1806(17) 0.247(5)
O8 O 0.37605(8) 0.39971(11) 0.6692(3)
N6 N 0.45661(10) 0.11683(13) 0.6594(3)
N7 N 0.47756(10) 0.42099(12) 0.6511(4)
N8 N 0.47327(12) 0.50616(14) 0.6510(6)
C21 C 0.50058(12) 0.16618(16) 0.7196(4)
C22 C 0.49473(12) 0.24952(15) 0.7230(4)
C23 C 0.44037(11) 0.28353(14) 0.6619(4)
C24 C 0.39409(12) 0.23248(17) 0.6012(4)
C25 C 0.40384(12) 0.14951(16) 0.6013(4)
C26 C 0.42816(11) 0.37308(14) 0.6611(4)
H22 H 0.5382(14) 0.1348(19) 0.765(5)
H23 H 0.5229(14) 0.2775(19) 0.763(5)
H24 H 0.5151(18) 0.406(2) 0.627(6)
H25 H 0.443(2) 0.520(3) 0.550(7)
H26 H 0.453(2) 0.516(3) 0.757(7)
H27 H 0.3569(16) 0.253(2) 0.564(5)
H28 H 0.3712(15) 0.1095(19) 0.561(5)
loop_
_geom_bond_atom_site_label_1
_geom_bond_atom_site_label_2
_geom_bond_site_symmetry_1
_geom_bond_site_symmetry_2
O1 C6 1_555 1_555
O2 C13 1_555 1_555
O3 C13 1_555 1_555
O4 C8 1_555 1_555
N1 C1 1_555 1_555
N2 N3 1_555 1_555
N3 H2 1_555 1_555
N4 C10 1_555 1_555
C1 C2 1_555 1_555
C2 C3 1_555 1_555
C3 C4 1_555 1_555
C4 C5 1_555 1_555
C5 N1 1_555 1_555
C6 N2 1_555 1_555
C7 C8 1_555 1_555
C8 C9 1_555 1_555
C9 C10 1_555 1_555
C10 C11 1_555 1_555
C11 C12 1_555 1_555
C12 C7 1_555 1_555
C13 C7 1_555 1_555
O5 C20 1_555 1_555
O6 C20 1_555 1_555
O7 C15 1_555 1_555
N5 C17 1_555 1_555
C14 C15 1_555 1_555
C15 C16 1_555 1_555
C16 C17 1_555 1_555
C17 C18 1_555 1_555
C18 C19 1_555 1_555
C19 C14 1_555 1_555
C20 C14 1_555 1_555
O8 C26 1_555 1_555
N6 C21 1_555 1_555
N7 N8 1_555 1_555
N8 H25 1_555 1_555
C21 C22 1_555 1_555
C22 C23 1_555 1_555
C23 C24 1_555 1_555
C24 C25 1_555 1_555
C25 N6 1_555 1_555
C26 N7 1_555 1_555
H1 N2 1_555 1_555
H3 N3 1_555 1_555
H4 C1 1_555 1_555
H5 O3 1_555 1_555
H6 C2 1_555 1_555
H7 N4 1_555 1_555
H8 N4 1_555 1_555
H9 O4 1_555 1_555
H10 C4 1_555 1_555
H11 C5 1_555 1_555
H12 C9 1_555 1_555
H13 C11 1_555 1_555
H14 C12 1_555 1_555
H15 O6 1_555 1_555
H16 O7 1_555 1_555
H17 N5 1_555 1_555
H18 N5 1_555 1_555
H19 C16 1_555 1_555
H20 C18 1_555 1_555
H21 C19 1_555 1_555
H22 C21 1_555 1_555
H23 C22 1_555 1_555
H24 N7 1_555 1_555
H26 N8 1_555 1_555
H27 C24 1_555 1_555
H28 C25 1_555 1_555
C3 C6 1_555 1_555
C23 C26 1_555 1_555

#END
