
#######################################################################
#
#                 Cambridge Crystallographic Data Centre
#                                CCDC 
#
#######################################################################
#
# If this CIF has been generated from an entry in the Cambridge 
# Structural Database, then it will include bibliographic, chemical, 
# crystal, experimental, refinement or atomic coordinate data resulting 
# from the CCDC's data processing and validation procedures.
#
#######################################################################

data_URUDER10
_chemical_name_common            'Isoniazid 4-aminosalicylic acid'
_chemical_formula_moiety         'C7 H7 N1 O3,C6 H7 N3 O1'
_chemical_name_systematic        'Isonicotinohydrazide 4-aminosalicylic acid'
_symmetry_cell_setting           orthorhombic
_symmetry_space_group_name_H-M   'P n a 21'
_symmetry_Int_Tables_number      33
_space_group_name_Hall           'P 2c -2n'
loop_
_symmetry_equiv_pos_site_id
_symmetry_equiv_pos_as_xyz
1 x,y,z
2 -x,-y,1/2+z
3 1/2-x,1/2+y,1/2+z
4 1/2+x,1/2-y,z
_cell_length_a                   21.840(2)
_cell_length_b                   16.5060(17)
_cell_length_c                   7.2541(7)
_cell_angle_alpha                90
_cell_angle_beta                 90
_cell_angle_gamma                90
_cell_volume                     2615.04
_exptl_crystal_colour            yellow
_exptl_crystal_description       block
_cell_formula_units_Z            8
loop_
_atom_site_label
_atom_site_type_symbol
_atom_site_fract_x
_atom_site_fract_y
_atom_site_fract_z
O1 O 0.11409(8) 0.10534(11) 0.9156(4)
N1 N 0.20095(10) 0.38478(12) 0.9104(4)
N2 N 0.21592(10) 0.08089(12) 0.9301(4)
N3 N 0.21026(12) -0.00515(13) 0.9285(4)
C1 C 0.24326(11) 0.33362(15) 0.8455(4)
C2 C 0.23520(11) 0.25020(15) 0.8470(4)
C3 C 0.18099(10) 0.21935(13) 0.9178(4)
C4 C 0.13686(11) 0.27221(16) 0.9815(4)
C5 C 0.14824(11) 0.35542(15) 0.9762(4)
C6 C 0.16720(11) 0.12967(14) 0.9220(4)
H1 H 0.2569(19) 0.098(2) 0.947(7)
H2 H 0.1854(18) -0.022(2) 1.019(6)
H3 H 0.197(2) -0.024(3) 0.811(9)
H4 H 0.2801(14) 0.3516(18) 0.807(5)
H6 H 0.2655(15) 0.221(2) 0.798(6)
H10 H 0.0990(14) 0.253(2) 1.041(5)
H11 H 0.1194(13) 0.3956(17) 1.033(5)
O2 O 0.31656(9) 0.50644(11) 0.9869(3)
O3 O 0.22104(8) 0.53717(10) 0.9012(4)
O4 O 0.39849(8) 0.61702(12) 0.9905(3)
N4 N 0.33245(11) 0.89186(13) 0.9187(4)
C7 C 0.29262(10) 0.64366(14) 0.9184(4)
C8 C 0.35254(11) 0.67081(15) 0.9547(4)
C9 C 0.36566(11) 0.75314(16) 0.9546(4)
C10 C 0.32020(11) 0.81069(14) 0.9170(4)
C11 C 0.26104(11) 0.78306(15) 0.8710(4)
C12 C 0.24835(11) 0.70180(15) 0.8726(4)
C13 C 0.27723(11) 0.55711(14) 0.9372(4)
H5 H 0.213(2) 0.463(3) 0.896(9)
H7 H 0.3656(17) 0.9059(19) 0.965(5)
H8 H 0.2983(17) 0.927(2) 0.912(6)
H9 H 0.376(2) 0.567(3) 0.994(7)
H12 H 0.4031(17) 0.774(2) 0.985(6)
H13 H 0.2302(18) 0.820(2) 0.854(6)
H14 H 0.2052(15) 0.6806(19) 0.847(5)
O5 O 0.42399(9) 0.00214(10) 0.1149(3)
O6 O 0.52141(8) 0.03635(11) 0.1705(4)
O7 O 0.34718(8) 0.11622(11) 0.0362(3)
N5 N 0.40882(11) 0.38946(13) 0.1445(4)
C14 C 0.44927(11) 0.14091(14) 0.1476(4)
C15 C 0.39140(11) 0.16917(15) 0.0927(4)
C16 C 0.37831(11) 0.25096(15) 0.0914(4)
C17 C 0.42218(11) 0.30806(14) 0.1445(4)
C18 C 0.47997(11) 0.28063(15) 0.2050(4)
C19 C 0.49275(11) 0.19855(15) 0.2044(4)
C20 C 0.46398(11) 0.05421(15) 0.1438(4)
H15 H 0.533(2) -0.015(3) 0.162(10)
H16 H 0.3613(19) 0.060(2) 0.049(7)
H17 H 0.3754(19) 0.402(2) 0.069(7)
H18 H 0.4389(18) 0.422(2) 0.147(7)
H19 H 0.3335(15) 0.2665(19) 0.062(5)
H20 H 0.5090(14) 0.3180(18) 0.240(5)
H21 H 0.5311(12) 0.1756(16) 0.249(4)
O8 O 0.37601(8) 0.39987(12) 0.6694(4)
N6 N 0.45652(10) 0.11688(13) 0.6593(3)
N7 N 0.47747(10) 0.42108(13) 0.6510(4)
N8 N 0.47327(11) 0.50650(14) 0.6521(5)
C21 C 0.50069(12) 0.16624(15) 0.7199(4)
C22 C 0.49493(11) 0.24972(16) 0.7232(4)
C23 C 0.44024(10) 0.28401(14) 0.6623(4)
C24 C 0.39397(11) 0.23262(17) 0.6009(4)
C25 C 0.40378(11) 0.14981(16) 0.6009(4)
C26 C 0.42809(11) 0.37340(14) 0.6608(4)
H22 H 0.5373(13) 0.1305(19) 0.758(5)
H23 H 0.5246(18) 0.281(2) 0.759(6)
H24 H 0.5148(15) 0.4016(19) 0.636(6)
H25 H 0.445(2) 0.518(3) 0.562(8)
H26 H 0.455(2) 0.516(3) 0.768(9)
H27 H 0.3561(16) 0.255(2) 0.560(6)
H28 H 0.3735(16) 0.110(2) 0.563(6)
loop_
_geom_bond_atom_site_label_1
_geom_bond_atom_site_label_2
_geom_bond_site_symmetry_1
_geom_bond_site_symmetry_2
O1 C6 1_555 1_555
O2 C13 1_555 1_555
O3 C13 1_555 1_555
O4 C8 1_555 1_555
N1 C1 1_555 1_555
N2 N3 1_555 1_555
N3 H2 1_555 1_555
N4 C10 1_555 1_555
C1 C2 1_555 1_555
C2 C3 1_555 1_555
C3 C4 1_555 1_555
C4 C5 1_555 1_555
C5 N1 1_555 1_555
C6 N2 1_555 1_555
C7 C8 1_555 1_555
C8 C9 1_555 1_555
C9 C10 1_555 1_555
C10 C11 1_555 1_555
C11 C12 1_555 1_555
C12 C7 1_555 1_555
C13 C7 1_555 1_555
O5 C20 1_555 1_555
O6 C20 1_555 1_555
O7 C15 1_555 1_555
N5 C17 1_555 1_555
C14 C15 1_555 1_555
C15 C16 1_555 1_555
C16 C17 1_555 1_555
C17 C18 1_555 1_555
C18 C19 1_555 1_555
C19 C14 1_555 1_555
C20 C14 1_555 1_555
O8 C26 1_555 1_555
N6 C21 1_555 1_555
N7 N8 1_555 1_555
N8 H25 1_555 1_555
C21 C22 1_555 1_555
C22 C23 1_555 1_555
C23 C24 1_555 1_555
C24 C25 1_555 1_555
C25 N6 1_555 1_555
C26 N7 1_555 1_555
H1 N2 1_555 1_555
H3 N3 1_555 1_555
H4 C1 1_555 1_555
H5 O3 1_555 1_555
H6 C2 1_555 1_555
H7 N4 1_555 1_555
H8 N4 1_555 1_555
H9 O4 1_555 1_555
H10 C4 1_555 1_555
H11 C5 1_555 1_555
H12 C9 1_555 1_555
H13 C11 1_555 1_555
H14 C12 1_555 1_555
H15 O6 1_555 1_555
H16 O7 1_555 1_555
H17 N5 1_555 1_555
H18 N5 1_555 1_555
H19 C16 1_555 1_555
H20 C18 1_555 1_555
H21 C19 1_555 1_555
H22 C21 1_555 1_555
H23 C22 1_555 1_555
H24 N7 1_555 1_555
H26 N8 1_555 1_555
H27 C24 1_555 1_555
H28 C25 1_555 1_555
C3 C6 1_555 1_555
C23 C26 1_555 1_555

#END
