
#######################################################################
#
#                 Cambridge Crystallographic Data Centre
#                                CCDC 
#
#######################################################################
#
# If this CIF has been generated from an entry in the Cambridge 
# Structural Database, then it will include bibliographic, chemical, 
# crystal, experimental, refinement or atomic coordinate data resulting 
# from the CCDC's data processing and validation procedures.
#
#######################################################################

data_URUSEH01
_chemical_formula_moiety         'C22 H32 O2 Si1'
_chemical_name_systematic        
(3-(1,3-dioxolan-2-ylidene)-3-(4-methylphenyl)prop-1-yn-1-yl)(triisopropyl)silane
_symmetry_cell_setting           orthorhombic
_symmetry_space_group_name_H-M   'P b c a'
_symmetry_Int_Tables_number      61
_space_group_name_Hall           '-P 2ac 2ab'
loop_
_symmetry_equiv_pos_site_id
_symmetry_equiv_pos_as_xyz
1 x,y,z
2 1/2-x,-y,1/2+z
3 1/2+x,1/2-y,-z
4 -x,1/2+y,1/2-z
5 -x,-y,-z
6 1/2+x,y,1/2-z
7 1/2-x,1/2+y,z
8 x,1/2-y,1/2+z
_cell_length_a                   12.7034(11)
_cell_length_b                   11.6077(10)
_cell_length_c                   28.683(5)
_cell_angle_alpha                90
_cell_angle_beta                 90
_cell_angle_gamma                90
_cell_volume                     4229.52
_exptl_crystal_colour            colorless
_exptl_crystal_description       block
_cell_formula_units_Z            8
loop_
_atom_site_label
_atom_site_type_symbol
_atom_site_fract_x
_atom_site_fract_y
_atom_site_fract_z
Si1 Si 0.0180(2) 0.7573(2) 0.41772(7)
O1 O 0.2691(3) 0.9124(4) 0.22617(14)
O2 O 0.2756(3) 0.9369(3) 0.30330(14)
C1 C 0.0695(4) 0.7776(4) 0.2355(2)
C2 C 0.1348(4) 0.8259(5) 0.2736(2)
C3 C -0.0240(4) 0.7215(4) 0.2466(2)
H1 H -0.0431 0.7135 0.2785
C4 C 0.0959(5) 0.7835(5) 0.1882(2)
H2 H 0.1600 0.8191 0.1789
C5 C 0.2237(4) 0.8889(4) 0.2673(2)
C6 C -0.0899(5) 0.6772(5) 0.2128(2)
H3 H -0.1533 0.6401 0.2219
C7 C 0.1020(5) 0.8076(5) 0.3209(2)
C8 C 0.3701(4) 0.9934(5) 0.2858(2)
H4 H 0.4342 0.9504 0.2949
H5 H 0.3755 1.0733 0.2975
C9 C 0.0295(5) 0.7381(5) 0.1549(2)
H6 H 0.0493 0.7428 0.1231
C10 C -0.1388(6) 0.6371(6) 0.1287(3)
H7 H -0.1442 0.5534 0.1323
H8 H -0.1103 0.6552 0.0978
H9 H -0.2088 0.6717 0.1320
C11 C -0.0655(5) 0.6856(5) 0.1663(2)
C12 C 0.0710(6) 0.7870(5) 0.3595(2)
C13 C 0.3552(5) 0.9917(6) 0.2338(2)
H10 H 0.3374 1.0695 0.2221
H11 H 0.4199 0.9646 0.2180
C14 C -0.0187(12) 0.5981(13) 0.4156(5)
H12 H -0.0560 0.5827 0.4457
C15 C 0.0735(12) 0.5189(12) 0.4157(4)
H13 H 0.1205 0.5388 0.3898
H14 H 0.0491 0.4393 0.4120
H15 H 0.1115 0.5264 0.4452
C16 C -0.1012(19) 0.9600(17) 0.4231(9)
H16 H -0.0386 0.9852 0.4403
H17 H -0.1642 0.9930 0.4376
H18 H -0.0964 0.9860 0.3907
C17 C 0.1261(17) 0.7757(15) 0.4635(5)
H19 H 0.1746 0.7081 0.4612
C18 C 0.1902(14) 0.8835(14) 0.4564(6)
H20 H 0.2277 0.8788 0.4266
H21 H 0.2413 0.8911 0.4819
H22 H 0.1435 0.9506 0.4562
C19 C -0.0963(13) 0.5681(17) 0.3783(6)
H23 H -0.1635 0.6065 0.3848
H24 H -0.1070 0.4845 0.3778
H25 H -0.0695 0.5938 0.3481
C20 C -0.1082(14) 0.8289(16) 0.4244(6)
H26 H -0.1373 0.8065 0.4555
C21 C 0.0771(19) 0.7752(17) 0.5119(5)
H27 H 0.0206 0.8326 0.5133
H28 H 0.1311 0.7940 0.5351
H29 H 0.0482 0.6986 0.5185
C22 C -0.1870(15) 0.7913(16) 0.3876(7)
H30 H -0.1753 0.8352 0.3589
H31 H -0.2586 0.8055 0.3990
H32 H -0.1781 0.7089 0.3813
C23? C -0.140(2) 0.862(2) 0.4732(8)
H33? H -0.1980 0.8203 0.4583
H34? H -0.1668 0.9309 0.4886
H35? H -0.1065 0.8114 0.4964
C24? C -0.0592(17) 0.896(2) 0.4367(8)
H36? H -0.0082 0.9504 0.4513
C25? C -0.103(2) 0.534(2) 0.4470(7)
H37? H -0.0841 0.4622 0.4312
H38? H -0.1789 0.5347 0.4533
H39? H -0.0644 0.5398 0.4765
C26? C -0.0751(18) 0.6349(18) 0.4164(7)
H40? H -0.0343 0.5887 0.3931
C27? C -0.168(2) 0.661(2) 0.3837(8)
H41? H -0.2286 0.6851 0.4021
H42? H -0.1856 0.5910 0.3661
H43? H -0.1479 0.7221 0.3620
C28? C -0.115(2) 0.958(2) 0.3964(8)
H44? H -0.0625 0.9860 0.3740
H45? H -0.1549 1.0238 0.4087
H46? H -0.1633 0.9049 0.3807
C29? C 0.134(2) 0.719(2) 0.4534(7)
H47? H 0.1709 0.6564 0.4359
C30? C 0.115(2) 0.672(2) 0.5020(7)
H48? H 0.0789 0.7296 0.5209
H49? H 0.1826 0.6521 0.5165
H50? H 0.0713 0.6022 0.4999
C31? C 0.210(2) 0.818(2) 0.4547(8)
H51? H 0.1954 0.8701 0.4286
H52? H 0.2820 0.7886 0.4522
H53? H 0.2019 0.8597 0.4842
loop_
_geom_bond_atom_site_label_1
_geom_bond_atom_site_label_2
_geom_bond_site_symmetry_1
_geom_bond_site_symmetry_2
Si1 C12 1_555 1_555
O1 C5 1_555 1_555
O2 C5 1_555 1_555
C1 C2 1_555 1_555
C2 C5 1_555 1_555
C3 C1 1_555 1_555
H1 C3 1_555 1_555
C4 C1 1_555 1_555
H2 C4 1_555 1_555
C6 C3 1_555 1_555
H3 C6 1_555 1_555
C7 C2 1_555 1_555
C8 O2 1_555 1_555
H4 C8 1_555 1_555
H5 C8 1_555 1_555
C9 C4 1_555 1_555
H6 C9 1_555 1_555
C10 H7 1_555 1_555
H8 C10 1_555 1_555
H9 C10 1_555 1_555
C11 C6 1_555 1_555
C12 C7 1_555 1_555
C13 O1 1_555 1_555
H10 C13 1_555 1_555
H11 C13 1_555 1_555
C14 Si1 1_555 1_555
H12 C14 1_555 1_555
C15 C14 1_555 1_555
H13 C15 1_555 1_555
H14 C15 1_555 1_555
H15 C15 1_555 1_555
C16 H16 1_555 1_555
H17 C16 1_555 1_555
H18 C16 1_555 1_555
C17 Si1 1_555 1_555
H19 C17 1_555 1_555
C18 C17 1_555 1_555
H20 C18 1_555 1_555
H21 C18 1_555 1_555
H22 C18 1_555 1_555
C19 C14 1_555 1_555
H23 C19 1_555 1_555
H24 C19 1_555 1_555
H25 C19 1_555 1_555
C20 Si1 1_555 1_555
H26 C20 1_555 1_555
C21 C17 1_555 1_555
H27 C21 1_555 1_555
H28 C21 1_555 1_555
H29 C21 1_555 1_555
C22 C20 1_555 1_555
H30 C22 1_555 1_555
H31 C22 1_555 1_555
H32 C22 1_555 1_555
C8 C13 1_555 1_555
C9 C11 1_555 1_555
C10 C11 1_555 1_555
C16 C20 1_555 1_555

#END
