
#######################################################################
#
#                 Cambridge Crystallographic Data Centre
#                                CCDC 
#
#######################################################################
#
# If this CIF has been generated from an entry in the Cambridge 
# Structural Database, then it will include bibliographic, chemical, 
# crystal, experimental, refinement or atomic coordinate data resulting 
# from the CCDC's data processing and validation procedures.
#
#######################################################################

data_USEQEP
_chemical_compound_source        'Formosan soft coral Lemnalia flava'
_chemical_name_common            'Flavalin B'
_chemical_formula_moiety         'C15 H22 O3'
_chemical_name_systematic        
9-Hydroxy-5,6,8-trimethyl-10-oxatricyclo-[5.3.3.0^1,6^]tridec-2-en-13-one
_chemical_properties_biological  'tested for anticancer activity'
_symmetry_cell_setting           monoclinic
_symmetry_space_group_name_H-M   'P 21'
_symmetry_Int_Tables_number      4
_space_group_name_Hall           'P 2yb'
loop_
_symmetry_equiv_pos_site_id
_symmetry_equiv_pos_as_xyz
1 x,y,z
2 -x,1/2+y,-z
_cell_length_a                   6.7198(2)
_cell_length_b                   12.2064(4)
_cell_length_c                   8.2198(2)
_cell_angle_alpha                90
_cell_angle_beta                 107.7460(10)
_cell_angle_gamma                90
_cell_volume                     642.144
_exptl_crystal_colour            colorless
_exptl_crystal_description       prism
_cell_formula_units_Z            2
loop_
_atom_site_label
_atom_site_type_symbol
_atom_site_fract_x
_atom_site_fract_y
_atom_site_fract_z
O1 O 0.07643(15) 0.76612(8) 0.14135(12)
O2 O -0.10020(15) 0.63910(9) -0.04988(12)
H1 H -0.1692 0.6203 0.0122
O3 O 0.69033(16) 0.58458(9) 0.18288(13)
C1 C 0.1903(2) 0.91113(12) 0.33245(18)
H2 H 0.1627 0.9758 0.2698
C2 C 0.1607(2) 0.90908(13) 0.48442(18)
H3 H 0.1133 0.9726 0.5231
C3 C 0.1992(2) 0.80990(13) 0.59788(18)
H4 H 0.0821 0.8000 0.6422
H5 H 0.3233 0.8219 0.6942
C4 C 0.2281(2) 0.70563(12) 0.50399(18)
H6 H 0.0911 0.6869 0.4245
C5 C 0.3760(2) 0.72859(12) 0.39473(17)
C6 C 0.4157(2) 0.62612(12) 0.29896(17)
H7 H 0.4794 0.5694 0.3831
C7 C 0.5645(2) 0.65283(12) 0.19806(17)
C8 C 0.5496(2) 0.76254(12) 0.10951(17)
H8 H 0.4963 0.7500 -0.0127
H9 H 0.6900 0.7915 0.1333
C9 C 0.4135(2) 0.85155(13) 0.15577(18)
H10 H 0.5054 0.9075 0.2224
H11 H 0.3294 0.8857 0.0508
C10 C 0.2668(2) 0.81325(12) 0.25608(17)
C11 C 0.2107(2) 0.57988(12) 0.17386(17)
H12 H 0.1195 0.5589 0.2417
C12 C 0.0987(2) 0.66979(11) 0.04975(17)
H13 H 0.1823 0.6878 -0.0257
C13 C 0.2464(2) 0.47799(12) 0.07883(19)
H14 H 0.1144 0.4446 0.0210
H15 H 0.3319 0.4269 0.1589
H16 H 0.3154 0.4983 -0.0032
C14 C 0.2956(3) 0.60956(13) 0.62775(19)
H17 H 0.4342 0.6226 0.7026
H18 H 0.2944 0.5433 0.5644
H19 H 0.2008 0.6024 0.6940
C15 C 0.5891(2) 0.77173(13) 0.50884(18)
H20 H 0.6454 0.7218 0.6017
H21 H 0.5706 0.8424 0.5534
H22 H 0.6839 0.7778 0.4423
loop_
_geom_bond_atom_site_label_1
_geom_bond_atom_site_label_2
_geom_bond_site_symmetry_1
_geom_bond_site_symmetry_2
O1 C10 1_555 1_555
O2 H1 1_555 1_555
O3 C7 1_555 1_555
C1 H2 1_555 1_555
C2 C1 1_555 1_555
H3 C2 1_555 1_555
C3 C2 1_555 1_555
H4 C3 1_555 1_555
H5 C3 1_555 1_555
C4 C3 1_555 1_555
H6 C4 1_555 1_555
C5 C4 1_555 1_555
C6 C5 1_555 1_555
H7 C6 1_555 1_555
C7 C6 1_555 1_555
C8 C7 1_555 1_555
H8 C8 1_555 1_555
H9 C8 1_555 1_555
C9 C8 1_555 1_555
H10 C9 1_555 1_555
H11 C9 1_555 1_555
C10 C1 1_555 1_555
C11 C6 1_555 1_555
H12 C11 1_555 1_555
C12 O1 1_555 1_555
H13 C12 1_555 1_555
C13 C11 1_555 1_555
H14 C13 1_555 1_555
H15 C13 1_555 1_555
H16 C13 1_555 1_555
C14 C4 1_555 1_555
H17 C14 1_555 1_555
H18 C14 1_555 1_555
H19 C14 1_555 1_555
C15 C5 1_555 1_555
H20 C15 1_555 1_555
H21 C15 1_555 1_555
H22 C15 1_555 1_555
O2 C12 1_555 1_555
C5 C10 1_555 1_555
C9 C10 1_555 1_555
C11 C12 1_555 1_555

#END
