
#######################################################################
#
#                 Cambridge Crystallographic Data Centre
#                                CCDC 
#
#######################################################################
#
# If this CIF has been generated from an entry in the Cambridge 
# Structural Database, then it will include bibliographic, chemical, 
# crystal, experimental, refinement or atomic coordinate data resulting 
# from the CCDC's data processing and validation procedures.
#
#######################################################################

data_USOCUB
_chemical_compound_source        'Senecio laetus Edgew'
_chemical_name_common            
6beta-Hydroxyeremophil-7(11)-en-8beta,12-olide
_chemical_formula_moiety         'C15 H22 O3'
_chemical_name_systematic        
4-Hydroxy-3,4a,5-trimethyl-4a,5,6,7,8,8a,9,9a-octahydronaphtho[2,3-b]furan-2(4H)-one
_symmetry_cell_setting           orthorhombic
_symmetry_space_group_name_H-M   'P 21 21 21'
_symmetry_Int_Tables_number      19
_space_group_name_Hall           'P 2ac 2ab'
loop_
_symmetry_equiv_pos_site_id
_symmetry_equiv_pos_as_xyz
1 x,y,z
2 1/2-x,-y,1/2+z
3 -x,1/2+y,1/2-z
4 1/2+x,1/2-y,-z
_cell_length_a                   8.0141(16)
_cell_length_b                   9.969(2)
_cell_length_c                   16.482(3)
_cell_angle_alpha                90
_cell_angle_beta                 90
_cell_angle_gamma                90
_cell_volume                     1316.79
_exptl_crystal_colour            colorless
_exptl_crystal_description       block
_cell_formula_units_Z            4
loop_
_atom_site_label
_atom_site_type_symbol
_atom_site_fract_x
_atom_site_fract_y
_atom_site_fract_z
C1 C 0.1478(3) 1.0934(2) -0.03828(13)
C2 C 0.3268(3) 1.0825(2) -0.05855(13)
C3 C 0.4112(3) 1.0805(2) 0.01139(12)
C4 C 0.2914(2) 1.0938(3) 0.08081(12)
H1 H 0.3130 1.1778 0.1099
C5 C 0.3057(3) 0.9777(3) 0.13851(14)
H2 H 0.2681 0.8962 0.1120
H3 H 0.2354 0.9933 0.1854
C6 C 0.4879(3) 0.9612(3) 0.16573(12)
H4 H 0.4924 0.8796 0.1989
C7 C 0.5409(3) 1.0768(3) 0.22055(13)
H5 H 0.4673 1.0804 0.2672
H6 H 0.5293 1.1606 0.1911
C8 C 0.7215(3) 1.0626(3) 0.24987(13)
H7 H 0.7529 1.1411 0.2811
H8 H 0.7314 0.9845 0.2846
C9 C 0.8371(3) 1.0479(3) 0.17726(13)
H9 H 0.9506 1.0361 0.1965
H10 H 0.8336 1.1297 0.1455
C10 C 0.7906(3) 0.9293(2) 0.12286(13)
H11 H 0.8622 0.9345 0.0748
C11 C 0.6069(2) 0.9379(2) 0.09238(12)
C12 C 0.5903(2) 1.0574(2) 0.03156(12)
H12 H 0.6343 1.1384 0.0576
C13 C 0.3809(3) 1.0747(3) -0.14545(12)
H13 H 0.4807 1.1265 -0.1528
H14 H 0.2943 1.1096 -0.1797
H15 H 0.4024 0.9829 -0.1596
C14 C 0.5597(3) 0.8095(2) 0.04675(15)
H16 H 0.6471 0.7864 0.0095
H17 H 0.4578 0.8239 0.0173
H18 H 0.5444 0.7377 0.0848
C15 C 0.8317(4) 0.7963(3) 0.16557(18)
H19 H 0.9469 0.7961 0.1815
H20 H 0.8113 0.7230 0.1291
H21 H 0.7625 0.7867 0.2128
O1 O 0.0277(2) 1.09467(19) -0.08281(10)
O2 O 0.12877(17) 1.09976(19) 0.04302(9)
O3 O 0.67936(19) 1.0359(2) -0.04189(9)
H22 H 0.7767 1.0594 -0.0360
loop_
_geom_bond_atom_site_label_1
_geom_bond_atom_site_label_2
_geom_bond_site_symmetry_1
_geom_bond_site_symmetry_2
C1 C2 1_555 1_555
C2 C3 1_555 1_555
C3 C4 1_555 1_555
C4 H1 1_555 1_555
C5 C4 1_555 1_555
H2 C5 1_555 1_555
H3 C5 1_555 1_555
C6 C5 1_555 1_555
H4 C6 1_555 1_555
C7 C6 1_555 1_555
H5 C7 1_555 1_555
H6 C7 1_555 1_555
C8 C7 1_555 1_555
H7 C8 1_555 1_555
H8 C8 1_555 1_555
C9 C8 1_555 1_555
H9 C9 1_555 1_555
H10 C9 1_555 1_555
C10 C9 1_555 1_555
H11 C10 1_555 1_555
C11 C6 1_555 1_555
C12 C3 1_555 1_555
H12 C12 1_555 1_555
C13 C2 1_555 1_555
H13 C13 1_555 1_555
H14 C13 1_555 1_555
H15 C13 1_555 1_555
C14 C11 1_555 1_555
H16 C14 1_555 1_555
H17 C14 1_555 1_555
H18 C14 1_555 1_555
C15 C10 1_555 1_555
H19 C15 1_555 1_555
H20 C15 1_555 1_555
H21 C15 1_555 1_555
O1 C1 1_555 1_555
O2 C1 1_555 1_555
O3 C12 1_555 1_555
H22 O3 1_555 1_555
C4 O2 1_555 1_555
C10 C11 1_555 1_555
C11 C12 1_555 1_555

#END
