
#######################################################################
#
#                 Cambridge Crystallographic Data Centre
#                                CCDC 
#
#######################################################################
#
# If this CIF has been generated from an entry in the Cambridge 
# Structural Database, then it will include bibliographic, chemical, 
# crystal, experimental, refinement or atomic coordinate data resulting 
# from the CCDC's data processing and validation procedures.
#
#######################################################################

data_USUCAO
_chemical_compound_source        'Aspergillus wentii SD-310'
_chemical_name_common            'Asperether A'
_chemical_formula_moiety         'C19 H26 O4'
_chemical_name_systematic        
6,6,11a-trimethyl-1,2,3a,6,7,8,9,10,11,11a-decahydrophenanthro[1,2-b]furan-1,4,7-triol
_chemical_properties_biological  'tested for antitumour activity'
_symmetry_cell_setting           orthorhombic
_symmetry_space_group_name_H-M   'P 21 21 2'
_symmetry_Int_Tables_number      18
_space_group_name_Hall           'P 2 2ab'
loop_
_symmetry_equiv_pos_site_id
_symmetry_equiv_pos_as_xyz
1 x,y,z
2 -x,-y,z
3 1/2-x,1/2+y,-z
4 1/2+x,1/2-y,-z
_cell_length_a                   20.3794(7)
_cell_length_b                   9.1072(3)
_cell_length_c                   9.1422(3)
_cell_angle_alpha                90
_cell_angle_beta                 90
_cell_angle_gamma                90
_cell_volume                     1696.79
_cell_formula_units_Z            4
loop_
_atom_site_label
_atom_site_type_symbol
_atom_site_fract_x
_atom_site_fract_y
_atom_site_fract_z
O1 O 0.60323(13) 0.7688(2) -0.17470(18)
H1 H 0.5924 0.7280 -0.2509
O2 O 0.55570(8) 0.60544(17) 0.60065(15)
H2 H 0.5200 0.6459 0.5909
O3 O 0.56097(8) 0.2634(2) 0.6048(2)
O4 O 0.67309(11) -0.0269(2) 0.6721(3)
H3 H 0.6539 -0.0839 0.7268
C1 C 0.67392(16) 0.4680(3) 0.0571(3)
H4 H 0.6529 0.3855 0.0091
H5 H 0.7186 0.4397 0.0800
C2 C 0.67497(16) 0.5987(3) -0.0469(3)
H6 H 0.7050 0.6727 -0.0104
H7 H 0.6903 0.5673 -0.1424
C3 C 0.60762(16) 0.6628(3) -0.0603(3)
H8 H 0.5774 0.5825 -0.0841
C4 C 0.58406(13) 0.7327(3) 0.0827(3)
C5 C 0.59870(12) 0.6279(2) 0.2109(2)
C6 C 0.57130(11) 0.6613(2) 0.3466(2)
H9 H 0.5463 0.7461 0.3573
C7 C 0.58070(11) 0.5705(2) 0.4647(2)
C8 C 0.61619(10) 0.4408(2) 0.4520(2)
C9 C 0.64454(11) 0.4065(2) 0.3172(2)
C10 C 0.63763(11) 0.5024(3) 0.1982(2)
C11 C 0.68289(13) 0.2654(3) 0.3003(3)
H10 H 0.7294 0.2885 0.2995
H11 H 0.6721 0.2218 0.2065
C12 C 0.66988(14) 0.1530(3) 0.4201(3)
H12 H 0.7018 0.0744 0.4126
H13 H 0.6267 0.1107 0.4059
C13 C 0.67368(11) 0.2206(3) 0.5728(3)
C14 C 0.62268(11) 0.3419(3) 0.5830(3)
H14 H 0.6318 0.4019 0.6697
C15 C 0.57372(13) 0.1243(3) 0.6699(3)
H15 H 0.5583 0.0458 0.6070
H16 H 0.5517 0.1165 0.7636
C16 C 0.64707(13) 0.1151(3) 0.6895(3)
H17 H 0.6587 0.1523 0.7866
C17 C 0.61871(17) 0.8811(3) 0.1068(3)
H18 H 0.6654 0.8664 0.1076
H19 H 0.6051 0.9220 0.1987
H20 H 0.6073 0.9472 0.0291
C18 C 0.51010(16) 0.7594(4) 0.0720(3)
H21 H 0.5010 0.8209 -0.0109
H22 H 0.4950 0.8068 0.1595
H23 H 0.4879 0.6672 0.0605
C19 C 0.74264(13) 0.2721(3) 0.6092(4)
H24 H 0.7566 0.3428 0.5378
H25 H 0.7720 0.1897 0.6083
H26 H 0.7429 0.3165 0.7044
loop_
_geom_bond_atom_site_label_1
_geom_bond_atom_site_label_2
_geom_bond_site_symmetry_1
_geom_bond_site_symmetry_2
O1 H1 1_555 1_555
O2 H2 1_555 1_555
O3 C14 1_555 1_555
O4 H3 1_555 1_555
C1 H4 1_555 1_555
H5 C1 1_555 1_555
C2 C1 1_555 1_555
H6 C2 1_555 1_555
H7 C2 1_555 1_555
C3 O1 1_555 1_555
H8 C3 1_555 1_555
C4 C3 1_555 1_555
C5 C4 1_555 1_555
C6 C5 1_555 1_555
H9 C6 1_555 1_555
C7 O2 1_555 1_555
C8 C7 1_555 1_555
C9 C8 1_555 1_555
C10 C1 1_555 1_555
C11 C9 1_555 1_555
H10 C11 1_555 1_555
H11 C11 1_555 1_555
C12 C11 1_555 1_555
H12 C12 1_555 1_555
H13 C12 1_555 1_555
C13 C12 1_555 1_555
C14 C8 1_555 1_555
H14 C14 1_555 1_555
C15 O3 1_555 1_555
H15 C15 1_555 1_555
H16 C15 1_555 1_555
C16 O4 1_555 1_555
H17 C16 1_555 1_555
C17 C4 1_555 1_555
H18 C17 1_555 1_555
H19 C17 1_555 1_555
H20 C17 1_555 1_555
C18 C4 1_555 1_555
H21 C18 1_555 1_555
H22 C18 1_555 1_555
H23 C18 1_555 1_555
C19 C13 1_555 1_555
H24 C19 1_555 1_555
H25 C19 1_555 1_555
H26 C19 1_555 1_555
C2 C3 1_555 1_555
C5 C10 1_555 1_555
C6 C7 1_555 1_555
C9 C10 1_555 1_555
C13 C14 1_555 1_555
C13 C16 1_555 1_555
C15 C16 1_555 1_555

#END
