
#######################################################################
#
#                 Cambridge Crystallographic Data Centre
#                                CCDC 
#
#######################################################################
#
# If this CIF has been generated from an entry in the Cambridge 
# Structural Database, then it will include bibliographic, chemical, 
# crystal, experimental, refinement or atomic coordinate data resulting 
# from the CCDC's data processing and validation procedures.
#
#######################################################################

data_USUPIJ
_chemical_formula_moiety         'C38 H46 O4'
_chemical_name_systematic        
'bis(4-(4-propylcyclohexyl)phenyl) isophthalate'
_symmetry_cell_setting           monoclinic
_symmetry_space_group_name_H-M   'C 2'
_symmetry_Int_Tables_number      5
_space_group_name_Hall           'C 2y'
loop_
_symmetry_equiv_pos_site_id
_symmetry_equiv_pos_as_xyz
1 x,y,z
2 -x,y,-z
3 1/2+x,1/2+y,z
4 1/2-x,1/2+y,-z
_cell_length_a                   8.9592(5)
_cell_length_b                   6.9728(4)
_cell_length_c                   25.5601(16)
_cell_angle_alpha                90
_cell_angle_beta                 96.069(3)
_cell_angle_gamma                90
_cell_volume                     1587.81
_exptl_crystal_colour            colorless
_exptl_crystal_description       plates
_cell_formula_units_Z            2
loop_
_atom_site_label
_atom_site_type_symbol
_atom_site_fract_x
_atom_site_fract_y
_atom_site_fract_z
C1 C 0.5000 -0.0497(5) 1.0000
H1 H 0.5000 0.0866 1.0000
C2 C 0.5471(3) -0.1495(3) 0.95777(9)
C3 C 0.5506(3) -0.3482(4) 0.95863(9)
H2 H 0.5880 -0.4162 0.9306
C4 C 0.5000 -0.4482(5) 1.0000
H3 H 0.5000 -0.5845 1.0000
C5 C 0.5919(3) -0.0515(3) 0.91015(9)
O1 O 0.63710(19) -0.1334(2) 0.87336(6)
O2 O 0.56837(17) 0.1403(2) 0.91135(6)
C6 C 0.5997(3) 0.2469(3) 0.86649(8)
C7 C 0.7448(3) 0.2719(3) 0.85523(9)
H4 H 0.8253 0.2095 0.8756
C8 C 0.7719(2) 0.3901(4) 0.81338(9)
H5 H 0.8721 0.4086 0.8055
C9 C 0.6553(2) 0.4817(3) 0.78291(8)
C10 C 0.5097(3) 0.4508(3) 0.79540(9)
H6 H 0.4282 0.5111 0.7750
C11 C 0.4814(3) 0.3335(3) 0.83718(9)
H7 H 0.3815 0.3137 0.8453
C12 C 0.6885(2) 0.6069(3) 0.73692(8)
H8 H 0.7984 0.6358 0.7415
C13 C 0.6557(3) 0.5019(3) 0.68434(9)
H9 H 0.7160 0.3829 0.6851
H10 H 0.5483 0.4655 0.6793
C14 C 0.6922(3) 0.6265(4) 0.63815(10)
H11 H 0.6644 0.5561 0.6049
H12 H 0.8017 0.6500 0.6411
C15 C 0.6102(3) 0.8191(3) 0.63585(9)
H13 H 0.4997 0.8015 0.6267
C16 C 0.6435(3) 0.9223(3) 0.68841(9)
H14 H 0.5847 1.0427 0.6876
H15 H 0.7513 0.9567 0.6935
C17 C 0.6055(3) 0.8000(3) 0.73473(9)
H16 H 0.4959 0.7764 0.7316
H17 H 0.6330 0.8708 0.7679
C18 C 0.6830(6) 0.9362(6) 0.59069(17)
H18 H 0.7875 0.9722 0.6034
H19 H 0.6855 0.8540 0.5592
C19 C 0.5927(5) 1.1147(6) 0.57616(17)
H20 H 0.5972 1.2007 0.6071
H21 H 0.4864 1.0787 0.5666
C20 C 0.6500(6) 1.2227(7) 0.53009(19)
H22 H 0.5883 1.3371 0.5221
H23 H 0.7546 1.2610 0.5396
H24 H 0.6439 1.1390 0.4991
C2A C 0.4529(3) -0.1495(3) 1.04223(9)
C3A C 0.4494(3) -0.3482(4) 1.04137(9)
H2A H 0.4120 -0.4162 1.0694
C5A C 0.4081(3) -0.0515(3) 1.08985(9)
O1A O 0.36290(19) -0.1334(2) 1.12664(6)
O2A O 0.43163(17) 0.1403(2) 1.08865(6)
C6A C 0.4003(3) 0.2469(3) 1.13351(8)
C7A C 0.2552(3) 0.2719(3) 1.14477(9)
H4A H 0.1747 0.2095 1.1244
C8A C 0.2281(2) 0.3901(4) 1.18662(9)
H5A H 0.1279 0.4086 1.1945
C9A C 0.3447(2) 0.4817(3) 1.21709(8)
C10A C 0.4903(3) 0.4508(3) 1.20460(9)
H6A H 0.5718 0.5111 1.2250
C11A C 0.5186(3) 0.3335(3) 1.16282(9)
H7A H 0.6185 0.3137 1.1547
C12A C 0.3115(2) 0.6069(3) 1.26308(8)
H8A H 0.2016 0.6358 1.2585
C13A C 0.3443(3) 0.5019(3) 1.31566(9)
H9A H 0.2840 0.3829 1.3149
H10A H 0.4517 0.4655 1.3207
C14A C 0.3078(3) 0.6265(4) 1.36185(10)
H11A H 0.3356 0.5561 1.3951
H12A H 0.1983 0.6500 1.3589
C15A C 0.3898(3) 0.8191(3) 1.36415(9)
H13A H 0.5003 0.8015 1.3733
C16A C 0.3565(3) 0.9223(3) 1.31159(9)
H14A H 0.4153 1.0427 1.3124
H15A H 0.2487 0.9567 1.3065
C17A C 0.3945(3) 0.8000(3) 1.26527(9)
H16A H 0.5041 0.7764 1.2684
H17A H 0.3670 0.8708 1.2321
C18A C 0.3170(6) 0.9362(6) 1.40931(17)
H18A H 0.2125 0.9722 1.3966
H19A H 0.3145 0.8540 1.4408
C19A C 0.4073(5) 1.1147(6) 1.42384(17)
H20A H 0.4028 1.2007 1.3929
H21A H 0.5136 1.0787 1.4334
C20A C 0.3500(6) 1.2227(7) 1.46991(19)
H22A H 0.4117 1.3371 1.4779
H23A H 0.2454 1.2610 1.4604
H24A H 0.3561 1.1390 1.5009
H25? H 0.5023 0.7818 0.6354
C21? C 0.6114(5) 0.9454(6) 0.58809(16)
H26? H 0.5479 1.0598 0.5918
H27? H 0.5703 0.8743 0.5562
C22? C 0.7724(5) 1.0070(7) 0.58273(19)
H28? H 0.8145 1.0698 0.6158
H29? H 0.8337 0.8918 0.5775
C23? C 0.7833(6) 1.1443(8) 0.53712(19)
H30? H 0.8885 1.1795 0.5353
H31? H 0.7438 1.0820 0.5042
H32? H 0.7246 1.2599 0.5424
loop_
_geom_bond_atom_site_label_1
_geom_bond_atom_site_label_2
_geom_bond_site_symmetry_1
_geom_bond_site_symmetry_2
C1 H1 1_555 1_555
C2 C1 1_555 1_555
C3 C2 1_555 1_555
H2 C3 1_555 1_555
C4 C3 1_555 1_555
H3 C4 1_555 1_555
C5 C2 1_555 1_555
O1 C5 1_555 1_555
O2 C5 1_555 1_555
C6 O2 1_555 1_555
C7 C6 1_555 1_555
H4 C7 1_555 1_555
C8 C7 1_555 1_555
H5 C8 1_555 1_555
C9 C8 1_555 1_555
C10 C9 1_555 1_555
H6 C10 1_555 1_555
C11 C6 1_555 1_555
H7 C11 1_555 1_555
C12 C9 1_555 1_555
H8 C12 1_555 1_555
C13 C12 1_555 1_555
H9 C13 1_555 1_555
H10 C13 1_555 1_555
C14 C13 1_555 1_555
H11 C14 1_555 1_555
H12 C14 1_555 1_555
C15 C14 1_555 1_555
H13 C15 1_555 1_555
C16 C15 1_555 1_555
H14 C16 1_555 1_555
H15 C16 1_555 1_555
C17 C12 1_555 1_555
H16 C17 1_555 1_555
H17 C17 1_555 1_555
C18 C15 1_555 1_555
H18 C18 1_555 1_555
H19 C18 1_555 1_555
C19 C18 1_555 1_555
H20 C19 1_555 1_555
H21 C19 1_555 1_555
C20 C19 1_555 1_555
H22 C20 1_555 1_555
H23 C20 1_555 1_555
H24 C20 1_555 1_555
C2A C1 1_555 1_555
C3A C4 1_555 1_555
H2A C3A 1_555 1_555
C5A C2A 1_555 1_555
O1A C5A 1_555 1_555
O2A C5A 1_555 1_555
C6A O2A 1_555 1_555
C7A C6A 1_555 1_555
H4A C7A 1_555 1_555
C8A C7A 1_555 1_555
H5A C8A 1_555 1_555
C9A C8A 1_555 1_555
C10A C9A 1_555 1_555
H6A C10A 1_555 1_555
C11A C6A 1_555 1_555
H7A C11A 1_555 1_555
C12A C9A 1_555 1_555
H8A C12A 1_555 1_555
C13A C12A 1_555 1_555
H9A C13A 1_555 1_555
H10A C13A 1_555 1_555
C14A C13A 1_555 1_555
H11A C14A 1_555 1_555
H12A C14A 1_555 1_555
C15A C14A 1_555 1_555
H13A C15A 1_555 1_555
C16A C15A 1_555 1_555
H14A C16A 1_555 1_555
H15A C16A 1_555 1_555
C17A C12A 1_555 1_555
H16A C17A 1_555 1_555
H17A C17A 1_555 1_555
C18A C15A 1_555 1_555
H18A C18A 1_555 1_555
H19A C18A 1_555 1_555
C19A C18A 1_555 1_555
H20A C19A 1_555 1_555
H21A C19A 1_555 1_555
C20A C19A 1_555 1_555
H22A C20A 1_555 1_555
H23A C20A 1_555 1_555
H24A C20A 1_555 1_555
C10 C11 1_555 1_555
C16 C17 1_555 1_555
C2A C3A 1_555 1_555
C10A C11A 1_555 1_555
C16A C17A 1_555 1_555

#END
