
#######################################################################
#
#                 Cambridge Crystallographic Data Centre
#                                CCDC 
#
#######################################################################
#
# If this CIF has been generated from an entry in the Cambridge 
# Structural Database, then it will include bibliographic, chemical, 
# crystal, experimental, refinement or atomic coordinate data resulting 
# from the CCDC's data processing and validation procedures.
#
#######################################################################

data_USUQUW
_chemical_formula_moiety         'C28 H23 Br1 N2 O2'
_chemical_name_systematic        
3-((4-bromophenyl)amino)-3-(diphenylmethyl)-2-methoxyisoindolin-1-one
_symmetry_cell_setting           monoclinic
_symmetry_space_group_name_H-M   'P 21/c'
_symmetry_Int_Tables_number      14
_space_group_name_Hall           '-P 2ybc'
loop_
_symmetry_equiv_pos_site_id
_symmetry_equiv_pos_as_xyz
1 x,y,z
2 -x,1/2+y,1/2-z
3 -x,-y,-z
4 x,1/2-y,1/2+z
_cell_length_a                   8.1067(3)
_cell_length_b                   15.9970(7)
_cell_length_c                   18.8373(7)
_cell_angle_alpha                90
_cell_angle_beta                 99.636(4)
_cell_angle_gamma                90
_cell_volume                     2408.41
_exptl_crystal_colour            colorless
_exptl_crystal_description       platelet
_cell_formula_units_Z            4
loop_
_atom_site_label
_atom_site_type_symbol
_atom_site_fract_x
_atom_site_fract_y
_atom_site_fract_z
Br1 Br 1.13128(10) 0.02102(5) -0.12736(4)
O1 O 0.7308(9) 0.3251(5) 0.1758(4)
O2 O 0.6599(8) 0.3847(3) 0.0325(4)
N1 N 0.5546(8) 0.2295(4) -0.0606(3)
H1 H 0.4885 0.2473 -0.0981
N2 N 0.6352(8) 0.3039(3) 0.0543(3)
C1 C 0.5878(8) 0.1989(4) 0.1270(3)
C2 C 0.5860(11) 0.1437(6) 0.1842(4)
H2 H 0.6384 0.1584 0.2302
C3 C 0.5073(14) 0.0680(7) 0.1726(6)
H3 H 0.5024 0.0318 0.2108
C4 C 0.4365(11) 0.0466(6) 0.1045(7)
H4 H 0.3861 -0.0056 0.0968
C5 C 0.4361(10) 0.0988(5) 0.0466(4)
H5 H 0.3883 0.0821 0.0004
C6 C 0.5101(8) 0.1782(5) 0.0590(4)
C7 C 0.5111(8) 0.2515(4) 0.0081(3)
C8 C 0.6588(9) 0.2818(5) 0.1266(4)
C9 C 0.8286(14) 0.3921(6) 0.0197(8)
H6 H 0.8382 0.3658 -0.0253
H7 H 0.9030 0.3653 0.0579
H8 H 0.8577 0.4501 0.0177
C10 C 0.6884(9) 0.1837(4) -0.0730(3)
C11 C 0.8172(8) 0.1545(4) -0.0180(3)
H9 H 0.8153 0.1683 0.0298
C12 C 0.9438(8) 0.1062(4) -0.0352(3)
H10 H 1.0244 0.0846 0.0011
C13 C 0.9522(8) 0.0895(4) -0.1059(3)
C14 C 0.8351(9) 0.1206(4) -0.1614(3)
H11 H 0.8431 0.1093 -0.2091
C15 C 0.7059(9) 0.1688(4) -0.1442(3)
H12 H 0.6288 0.1919 -0.1811
C16 C 0.3222(8) 0.2826(4) -0.0057(3)
H13 H 0.2534 0.2320 -0.0127
C17 C 0.2801(9) 0.3250(6) 0.0630(4)
C18 C 0.3114(12) 0.4065(7) 0.0802(6)
H14 H 0.3599 0.4419 0.0504
C19 C 0.267(2) 0.4353(13) 0.1457(11)
H15 H 0.2850 0.4913 0.1580
C20 C 0.202(3) 0.387(2) 0.1892(8)
H16 H 0.1798 0.4079 0.2327
C21 C 0.167(2) 0.3066(18) 0.1706(11)
H17 H 0.1178 0.2727 0.2012
C22 C 0.2034(14) 0.2733(8) 0.1070(6)
H18 H 0.1771 0.2182 0.0942
C23 C 0.2683(8) 0.3362(4) -0.0731(3)
C24 C 0.3458(14) 0.4061(5) -0.0940(5)
H19 H 0.4446 0.4243 -0.0658
C25 C 0.2823(19) 0.4502(7) -0.1550(6)
H20 H 0.3379 0.4972 -0.1680
C26 C 0.1398(16) 0.4248(7) -0.1956(7)
H21 H 0.0944 0.4568 -0.2353
C27 C 0.0616(14) 0.3566(9) -0.1816(7)
H22 H -0.0324 0.3386 -0.2131
C28 C 0.1219(12) 0.3093(7) -0.1167(5)
H23 H 0.0646 0.2624 -0.1046
loop_
_geom_bond_atom_site_label_1
_geom_bond_atom_site_label_2
_geom_bond_site_symmetry_1
_geom_bond_site_symmetry_2
Br1 C13 1_555 1_555
O1 C8 1_555 1_555
O2 N2 1_555 1_555
N1 H1 1_555 1_555
N2 C7 1_555 1_555
C1 C2 1_555 1_555
C2 H2 1_555 1_555
C3 C2 1_555 1_555
H3 C3 1_555 1_555
C4 C3 1_555 1_555
H4 C4 1_555 1_555
C5 C4 1_555 1_555
H5 C5 1_555 1_555
C6 C1 1_555 1_555
C7 N1 1_555 1_555
C8 N2 1_555 1_555
C9 O2 1_555 1_555
H6 C9 1_555 1_555
H7 C9 1_555 1_555
H8 C9 1_555 1_555
C10 N1 1_555 1_555
C11 C10 1_555 1_555
H9 C11 1_555 1_555
C12 C11 1_555 1_555
H10 C12 1_555 1_555
C13 C12 1_555 1_555
C14 C13 1_555 1_555
H11 C14 1_555 1_555
C15 C10 1_555 1_555
H12 C15 1_555 1_555
C16 C7 1_555 1_555
H13 C16 1_555 1_555
C17 C16 1_555 1_555
C18 C17 1_555 1_555
H14 C18 1_555 1_555
C19 C18 1_555 1_555
H15 C19 1_555 1_555
C20 C19 1_555 1_555
H16 C20 1_555 1_555
C21 C20 1_555 1_555
H17 C21 1_555 1_555
C22 C17 1_555 1_555
H18 C22 1_555 1_555
C23 C16 1_555 1_555
C24 C23 1_555 1_555
H19 C24 1_555 1_555
C25 C24 1_555 1_555
H20 C25 1_555 1_555
C26 C25 1_555 1_555
H21 C26 1_555 1_555
C27 C26 1_555 1_555
H22 C27 1_555 1_555
C28 C23 1_555 1_555
H23 C28 1_555 1_555
C1 C8 1_555 1_555
C5 C6 1_555 1_555
C6 C7 1_555 1_555
C14 C15 1_555 1_555
C21 C22 1_555 1_555
C27 C28 1_555 1_555

#END
