
#######################################################################
#
#                 Cambridge Crystallographic Data Centre
#                                CCDC 
#
#######################################################################
#
# If this CIF has been generated from an entry in the Cambridge 
# Structural Database, then it will include bibliographic, chemical, 
# crystal, experimental, refinement or atomic coordinate data resulting 
# from the CCDC's data processing and validation procedures.
#
#######################################################################

data_UTELEL
_chemical_formula_moiety         'C28 H22 Br1 N1 O4'
_chemical_name_systematic        
'(E)-Benzyl (4-(4-bromophenyl)-5-cyano-6-(4-methoxyphenyl)-3,4-dihydro-2H-pyran-2-ylidene)acetate'
_symmetry_cell_setting           monoclinic
_symmetry_space_group_name_H-M   'P 21'
_symmetry_Int_Tables_number      4
_space_group_name_Hall           'P 2yb'
loop_
_symmetry_equiv_pos_site_id
_symmetry_equiv_pos_as_xyz
1 x,y,z
2 -x,1/2+y,-z
_cell_length_a                   10.9092(13)
_cell_length_b                   8.4633(10)
_cell_length_c                   13.4958(16)
_cell_angle_alpha                90
_cell_angle_beta                 99.195(2)
_cell_angle_gamma                90
_cell_volume                     1230.03
_exptl_crystal_colour            colorless
_exptl_crystal_description       prismatic
_cell_formula_units_Z            2
loop_
_atom_site_label
_atom_site_type_symbol
_atom_site_fract_x
_atom_site_fract_y
_atom_site_fract_z
Br1 Br 0.64146(7) 0.59012(10) 0.37002(3)
O1 O 0.54526(17) 0.2656(2) 0.86588(15)
O2 O 0.9019(2) 0.2856(4) 0.7686(2)
O3 O 0.8516(2) 0.0385(3) 0.7205(2)
O4 O 0.02968(19) 0.1666(3) 0.99460(18)
N1 N 0.3555(3) 0.7776(4) 0.8644(3)
C1 C 0.4696(2) 0.3919(3) 0.87910(18)
C2 C 0.5004(3) 0.5410(3) 0.85690(19)
C3 C 0.6234(2) 0.5769(3) 0.8248(2)
H1 H 0.6529 0.6784 0.8544
C4 C 0.7144(3) 0.4487(4) 0.8697(2)
H2 H 0.7927 0.4613 0.8451
H3 H 0.7301 0.4585 0.9422
C5 C 0.6619(2) 0.2914(3) 0.84134(19)
C6 C 0.7101(3) 0.1696(3) 0.7981(2)
H4 H 0.6650 0.0759 0.7896
C7 C 0.8311(3) 0.1759(4) 0.7630(2)
C8 C 0.9560(3) 0.0301(6) 0.6659(3)
H5 H 0.9972 -0.0711 0.6789
H6 H 1.0154 0.1122 0.6901
C9 C 0.9166(3) 0.0493(4) 0.5565(3)
C10 C 0.8095(3) 0.1294(6) 0.5150(3)
H7 H 0.7584 0.1718 0.5572
C11 C 0.7769(4) 0.1477(7) 0.4118(4)
H8 H 0.7052 0.2020 0.3847
C12 C 0.8541(6) 0.0829(10) 0.3501(4)
H9 H 0.8343 0.0936 0.2808
C13 C 0.9572(6) 0.0048(10) 0.3901(4)
H10 H 1.0077 -0.0389 0.3480
C14 C 0.9894(5) -0.0120(7) 0.4920(4)
H11 H 1.0618 -0.0658 0.5177
C15 C 0.3545(2) 0.3372(3) 0.91253(18)
C16 C 0.2962(3) 0.4246(3) 0.9783(2)
H12 H 0.3309 0.5196 1.0037
C17 C 0.1863(3) 0.3719(3) 1.0068(2)
H13 H 0.1480 0.4314 1.0510
C18 C 0.1342(2) 0.2315(3) 0.9695(2)
C19 C 0.1932(3) 0.1425(3) 0.9044(2)
H14 H 0.1581 0.0478 0.8790
C20 C 0.3026(3) 0.1930(3) 0.8776(2)
H15 H 0.3425 0.1308 0.8357
C21 C -0.0285(4) 0.2455(5) 1.0676(4)
H16 H 0.0303 0.2590 1.1281
H17 H -0.0974 0.1838 1.0818
H18 H -0.0575 0.3471 1.0424
C22 C 0.4162(3) 0.6693(4) 0.8620(2)
C23 C 0.6185(2) 0.5883(3) 0.7117(2)
C24 C 0.7006(4) 0.6858(5) 0.6729(3)
H19 H 0.7521 0.7525 0.7157
C25 C 0.7075(5) 0.6861(6) 0.5722(4)
H20 H 0.7642 0.7514 0.5475
C26 C 0.6320(4) 0.5914(6) 0.5092(3)
C27 C 0.5460(4) 0.4954(5) 0.5442(3)
H21 H 0.4928 0.4319 0.5004
C28 C 0.5406(3) 0.4960(5) 0.6460(2)
H22 H 0.4828 0.4321 0.6704
loop_
_geom_bond_atom_site_label_1
_geom_bond_atom_site_label_2
_geom_bond_site_symmetry_1
_geom_bond_site_symmetry_2
Br1 C26 1_555 1_555
O1 C1 1_555 1_555
O2 C7 1_555 1_555
O3 C7 1_555 1_555
O4 C18 1_555 1_555
N1 C22 1_555 1_555
C1 C2 1_555 1_555
C2 C3 1_555 1_555
C3 H1 1_555 1_555
C4 C3 1_555 1_555
H2 C4 1_555 1_555
H3 C4 1_555 1_555
C5 O1 1_555 1_555
C6 C5 1_555 1_555
H4 C6 1_555 1_555
C7 C6 1_555 1_555
C8 O3 1_555 1_555
H5 C8 1_555 1_555
H6 C8 1_555 1_555
C9 C8 1_555 1_555
C10 C9 1_555 1_555
H7 C10 1_555 1_555
C11 C10 1_555 1_555
H8 C11 1_555 1_555
C12 C11 1_555 1_555
H9 C12 1_555 1_555
C13 C12 1_555 1_555
H10 C13 1_555 1_555
C14 C9 1_555 1_555
H11 C14 1_555 1_555
C15 C1 1_555 1_555
C16 C15 1_555 1_555
H12 C16 1_555 1_555
C17 C16 1_555 1_555
H13 C17 1_555 1_555
C18 C17 1_555 1_555
C19 C18 1_555 1_555
H14 C19 1_555 1_555
C20 C15 1_555 1_555
H15 C20 1_555 1_555
C21 O4 1_555 1_555
H16 C21 1_555 1_555
H17 C21 1_555 1_555
H18 C21 1_555 1_555
C22 C2 1_555 1_555
C23 C3 1_555 1_555
C24 C23 1_555 1_555
H19 C24 1_555 1_555
C25 C24 1_555 1_555
H20 C25 1_555 1_555
C26 C25 1_555 1_555
C27 C26 1_555 1_555
H21 C27 1_555 1_555
C28 C23 1_555 1_555
H22 C28 1_555 1_555
C4 C5 1_555 1_555
C13 C14 1_555 1_555
C19 C20 1_555 1_555
C27 C28 1_555 1_555

#END
