
#######################################################################
#
#                 Cambridge Crystallographic Data Centre
#                                CCDC 
#
#######################################################################
#
# If this CIF has been generated from an entry in the Cambridge 
# Structural Database, then it will include bibliographic, chemical, 
# crystal, experimental, refinement or atomic coordinate data resulting 
# from the CCDC's data processing and validation procedures.
#
#######################################################################

data_UTEPAL
_chemical_formula_moiety         'C18 H14 O3 S1'
_chemical_name_systematic        
'rac-2-(1-Naphthyloxy)-2-(2-thienyl)cyclopropanecarboxylic acid'
_symmetry_cell_setting           monoclinic
_symmetry_space_group_name_H-M   'P 21/n'
_symmetry_Int_Tables_number      14
_space_group_name_Hall           '-P 2yn'
loop_
_symmetry_equiv_pos_site_id
_symmetry_equiv_pos_as_xyz
1 x,y,z
2 1/2-x,1/2+y,1/2-z
3 -x,-y,-z
4 1/2+x,1/2-y,1/2+z
_cell_length_a                   12.268(4)
_cell_length_b                   7.245(2)
_cell_length_c                   17.100(5)
_cell_angle_alpha                90
_cell_angle_beta                 92.048(5)
_cell_angle_gamma                90
_cell_volume                     1518.91
_cell_formula_units_Z            4
loop_
_atom_site_label
_atom_site_type_symbol
_atom_site_fract_x
_atom_site_fract_y
_atom_site_fract_z
S1 S 0.1306(1) 0.7705(1) 0.2476(1)
O1 O -0.0734(1) 0.4899(2) 0.0899(1)
O2 O -0.0216(1) 0.7220(2) 0.0136(1)
O3 O -0.1012(1) 0.9123(2) 0.2543(1)
C1 C -0.0687(2) 0.6653(3) 0.0705(1)
C2 C -0.1255(2) 0.7862(3) 0.1253(1)
C3 C -0.0570(2) 0.9129(3) 0.1791(1)
C4 C -0.1251(2) 0.9921(3) 0.1133(1)
C5 C 0.0632(2) 0.9087(2) 0.1798(1)
C6 C 0.1343(2) 0.9861(3) 0.1299(1)
C7 C 0.2441(2) 0.9332(3) 0.1478(1)
C8 C 0.2542(2) 0.8176(3) 0.2090(1)
C9 C -0.0898(1) 1.0700(3) 0.2992(1)
C10 C -0.0609(2) 1.2395(3) 0.2717(1)
C11 C -0.0537(2) 1.3897(3) 0.3241(1)
C12 C -0.0741(2) 1.3687(3) 0.4011(1)
C13 C -0.1058(2) 1.1956(3) 0.4307(1)
C14 C -0.1308(2) 1.1675(3) 0.5099(1)
C15 C -0.1647(2) 1.0001(3) 0.5359(1)
C16 C -0.1751(2) 0.8507(3) 0.4841(1)
C17 C -0.1498(2) 0.8708(3) 0.4078(1)
C18 C -0.1150(1) 1.0430(3) 0.3790(1)
H1 H -0.0380(30) 0.4210(40) 0.0516(18)
H2 H -0.1848(19) 0.7310(30) 0.1485(13)
H3 H -0.0890(17) 1.0350(30) 0.0675(13)
H4 H -0.1899(19) 1.0540(30) 0.1259(13)
H5 H 0.1123(19) 1.0670(30) 0.0908(14)
H6 H 0.3048(18) 0.9710(30) 0.1195(12)
H7 H 0.3140(20) 0.7650(30) 0.2330(14)
H8 H -0.0466(17) 1.2540(30) 0.2207(13)
H9 H -0.0328(18) 1.5050(30) 0.3045(13)
H10 H -0.0668(16) 1.4710(30) 0.4368(13)
H11 H -0.1220(20) 1.2680(30) 0.5448(15)
H12 H -0.1830(20) 0.9890(30) 0.5886(16)
H13 H -0.2006(19) 0.7330(30) 0.5007(14)
H14 H -0.1560(17) 0.7700(30) 0.3714(12)
loop_
_geom_bond_atom_site_label_1
_geom_bond_atom_site_label_2
_geom_bond_site_symmetry_1
_geom_bond_site_symmetry_2
S1 C5 1_555 1_555
O1 C1 1_555 1_555
O2 C1 1_555 1_555
O3 C3 1_555 1_555
C1 C2 1_555 1_555
C2 C3 1_555 1_555
C3 C4 1_555 1_555
C4 C2 1_555 1_555
C5 C3 1_555 1_555
C6 C5 1_555 1_555
C7 C6 1_555 1_555
C8 S1 1_555 1_555
C9 O3 1_555 1_555
C10 C9 1_555 1_555
C11 C10 1_555 1_555
C12 C11 1_555 1_555
C13 C12 1_555 1_555
C14 C13 1_555 1_555
C15 C14 1_555 1_555
C16 C15 1_555 1_555
C17 C16 1_555 1_555
C18 C9 1_555 1_555
H1 O1 1_555 1_555
H2 C2 1_555 1_555
H3 C4 1_555 1_555
H4 C4 1_555 1_555
H5 C6 1_555 1_555
H6 C7 1_555 1_555
H7 C8 1_555 1_555
H8 C10 1_555 1_555
H9 C11 1_555 1_555
H10 C12 1_555 1_555
H11 C14 1_555 1_555
H12 C15 1_555 1_555
H13 C16 1_555 1_555
H14 C17 1_555 1_555
C7 C8 1_555 1_555
C13 C18 1_555 1_555
C17 C18 1_555 1_555

#END
