
#######################################################################
#
#                 Cambridge Crystallographic Data Centre
#                                CCDC 
#
#######################################################################
#
# If this CIF has been generated from an entry in the Cambridge 
# Structural Database, then it will include bibliographic, chemical, 
# crystal, experimental, refinement or atomic coordinate data resulting 
# from the CCDC's data processing and validation procedures.
#
#######################################################################

data_UTERIW
_chemical_compound_source        'roots of Sophora flavescens'
_chemical_formula_moiety         'C26 H36 N4 O2'
_chemical_name_systematic        'flavesine F'
_chemical_properties_biological  
'tested for inhibitory activity against HBV DNA in HepG2.2.15 cells'
_symmetry_cell_setting           orthorhombic
_symmetry_space_group_name_H-M   'P 21 21 21'
_symmetry_Int_Tables_number      19
_space_group_name_Hall           'P 2ac 2ab'
loop_
_symmetry_equiv_pos_site_id
_symmetry_equiv_pos_as_xyz
1 x,y,z
2 1/2-x,-y,1/2+z
3 1/2+x,1/2-y,-z
4 -x,1/2+y,1/2-z
_cell_length_a                   8.96337(9)
_cell_length_b                   13.08470(13)
_cell_length_c                   19.0292(2)
_cell_angle_alpha                90
_cell_angle_beta                 90
_cell_angle_gamma                90
_cell_volume                     2231.8
_exptl_crystal_colour            colorless
_exptl_crystal_description       block
_cell_formula_units_Z            4
loop_
_atom_site_label
_atom_site_type_symbol
_atom_site_fract_x
_atom_site_fract_y
_atom_site_fract_z
C1 C -0.4176(2) -0.46801(15) -0.51906(9)
H1 H -0.5088 -0.4635 -0.5464
H2 H -0.3381 -0.4887 -0.5505
C2 C -0.8182(2) -0.38307(14) -0.37381(10)
C3 C -0.3815(2) -0.36388(15) -0.48945(10)
H3 H -0.4648 -0.3393 -0.4616
H4 H -0.3649 -0.3159 -0.5275
C4 C -0.8118(2) -0.42572(16) -0.44274(10)
H5 H -0.7867 -0.3840 -0.4805
C5 C -0.2428(2) -0.37062(14) -0.44396(9)
H6 H -0.2261 -0.3054 -0.4210
H7 H -0.1569 -0.3851 -0.4734
C6 C -0.8415(2) -0.52570(16) -0.45418(10)
H8 H -0.8369 -0.5518 -0.4996
C7 C -0.25869(18) -0.45439(13) -0.38839(8)
H9 H -0.1612 -0.4631 -0.3658
C8 C -0.8791(2) -0.59022(14) -0.39830(9)
H10 H -0.9002 -0.6587 -0.4068
C9 C -0.30156(18) -0.55693(13) -0.42171(8)
H11 H -0.2196 -0.5790 -0.4522
C10 C -0.88491(17) -0.55305(12) -0.33151(8)
C11 C -0.32407(18) -0.63790(12) -0.36488(8)
H12 H -0.2281 -0.6475 -0.3411
C12 C -0.92638(18) -0.61933(13) -0.27005(9)
H13 H -0.9934 -0.6734 -0.2866
C13 C -0.3660(2) -0.74017(13) -0.39925(10)
H14 H -0.2830 -0.7647 -0.4273
H15 H -0.3865 -0.7905 -0.3631
C14 C -1.00696(19) -0.55741(15) -0.21398(10)
H16 H -1.0949 -0.5248 -0.2335
H17 H -1.0372 -0.6010 -0.1753
C15 C -0.5026(2) -0.72741(13) -0.44568(10)
H18 H -0.5227 -0.7909 -0.4703
H19 H -0.5887 -0.7113 -0.4168
C16 C -0.8955(2) -0.47775(13) -0.18917(9)
H20 H -0.9422 -0.4382 -0.1514
C17 C -0.4769(2) -0.64237(14) -0.49848(10)
H21 H -0.3979 -0.6625 -0.5305
H22 H -0.5670 -0.6324 -0.5259
C18 C -0.8595(2) -0.40485(13) -0.24909(9)
H23 H -0.9342 -0.3512 -0.2497
H24 H -0.7640 -0.3729 -0.2395
C19 C -0.43762(17) -0.60381(11) -0.30899(8)
H25 H -0.5337 -0.5928 -0.3323
C20 C -0.75561(19) -0.52912(13) -0.15930(8)
H26 H -0.6865 -0.4772 -0.1431
H27 H -0.7829 -0.5712 -0.1193
C21 C -0.45951(17) -0.68414(12) -0.25214(8)
H28 H -0.3631 -0.7098 -0.2371
H29 H -0.5162 -0.7410 -0.2710
C22 C -0.54178(17) -0.63896(12) -0.18938(8)
H30 H -0.5621 -0.6928 -0.1549
C23 C -0.78779(18) -0.66922(12) -0.23785(9)
H31 H -0.8175 -0.7131 -0.1992
H32 H -0.7390 -0.7113 -0.2729
C24 C -0.43385(18) -0.56140(13) -0.15811(8)
H33 H -0.4801 -0.5293 -0.1177
H34 H -0.3450 -0.5967 -0.1420
C25 C -0.38948(17) -0.47985(12) -0.21019(8)
C26 C -0.36999(19) -0.42446(12) -0.33158(8)
H35 H -0.3361 -0.3625 -0.3086
H36 H -0.4659 -0.4102 -0.3531
N1 N -0.43630(15) -0.54602(11) -0.46478(7)
N2 N -0.85317(15) -0.45191(10) -0.31964(7)
N3 N -0.68334(14) -0.59226(10) -0.21228(7)
N4 N -0.38786(15) -0.50524(10) -0.27907(7)
O1 O -0.35379(14) -0.39432(9) -0.18909(6)
O2 O -0.7949(2) -0.29235(11) -0.35907(8)
H37? H -0.6616 -0.5507 -0.2492
H38? H -0.5128 -0.5267 -0.4363
loop_
_geom_bond_atom_site_label_1
_geom_bond_atom_site_label_2
_geom_bond_site_symmetry_1
_geom_bond_site_symmetry_2
C1 H1 1_555 1_555
H2 C1 1_555 1_555
C2 C4 1_555 1_555
C3 C1 1_555 1_555
H3 C3 1_555 1_555
H4 C3 1_555 1_555
C4 H5 1_555 1_555
C5 C3 1_555 1_555
H6 C5 1_555 1_555
H7 C5 1_555 1_555
C6 C4 1_555 1_555
H8 C6 1_555 1_555
C7 C5 1_555 1_555
H9 C7 1_555 1_555
C8 C6 1_555 1_555
H10 C8 1_555 1_555
C9 C7 1_555 1_555
H11 C9 1_555 1_555
C10 C8 1_555 1_555
C11 C9 1_555 1_555
H12 C11 1_555 1_555
C12 C10 1_555 1_555
H13 C12 1_555 1_555
C13 C11 1_555 1_555
H14 C13 1_555 1_555
H15 C13 1_555 1_555
C14 C12 1_555 1_555
H16 C14 1_555 1_555
H17 C14 1_555 1_555
C15 C13 1_555 1_555
H18 C15 1_555 1_555
H19 C15 1_555 1_555
C16 C14 1_555 1_555
H20 C16 1_555 1_555
C17 C15 1_555 1_555
H21 C17 1_555 1_555
H22 C17 1_555 1_555
C18 C16 1_555 1_555
H23 C18 1_555 1_555
H24 C18 1_555 1_555
C19 C11 1_555 1_555
H25 C19 1_555 1_555
C20 C16 1_555 1_555
H26 C20 1_555 1_555
H27 C20 1_555 1_555
C21 C19 1_555 1_555
H28 C21 1_555 1_555
H29 C21 1_555 1_555
C22 C21 1_555 1_555
H30 C22 1_555 1_555
C23 C12 1_555 1_555
H31 C23 1_555 1_555
H32 C23 1_555 1_555
C24 C22 1_555 1_555
H33 C24 1_555 1_555
H34 C24 1_555 1_555
C25 C24 1_555 1_555
C26 C7 1_555 1_555
H35 C26 1_555 1_555
H36 C26 1_555 1_555
N1 C1 1_555 1_555
N2 C2 1_555 1_555
N3 C20 1_555 1_555
N4 C19 1_555 1_555
O1 C25 1_555 1_555
O2 C2 1_555 1_555
C9 N1 1_555 1_555
C10 N2 1_555 1_555
C17 N1 1_555 1_555
C18 N2 1_555 1_555
C22 N3 1_555 1_555
C23 N3 1_555 1_555
C25 N4 1_555 1_555
C26 N4 1_555 1_555

#END
