
#######################################################################
#
#                 Cambridge Crystallographic Data Centre
#                                CCDC 
#
#######################################################################
#
# If this CIF has been generated from an entry in the Cambridge 
# Structural Database, then it will include bibliographic, chemical, 
# crystal, experimental, refinement or atomic coordinate data resulting 
# from the CCDC's data processing and validation procedures.
#
#######################################################################

data_UTEYEY
_chemical_formula_moiety         'C21 H22 N2 O2'
_chemical_name_systematic        
(E)-3-(2-(Benzyloxy)-4-(diethylamino)phenyl)-2-formylacrylonitrile
_symmetry_cell_setting           monoclinic
_symmetry_space_group_name_H-M   'P 21/c'
_symmetry_Int_Tables_number      14
_space_group_name_Hall           '-P 2ybc'
loop_
_symmetry_equiv_pos_site_id
_symmetry_equiv_pos_as_xyz
1 x,y,z
2 -x,1/2+y,1/2-z
3 -x,-y,-z
4 x,1/2-y,1/2+z
_cell_length_a                   9.3916(19)
_cell_length_b                   11.835(2)
_cell_length_c                   16.208(3)
_cell_angle_alpha                90
_cell_angle_beta                 95.66(3)
_cell_angle_gamma                90
_cell_volume                     1792.73
_exptl_crystal_colour            red
_exptl_crystal_description       block
_chemical_melting_point          '168-169 deg.C'
_cell_formula_units_Z            4
_exptl_crystal_recrystallization_method ethanol/water
loop_
_atom_site_label
_atom_site_type_symbol
_atom_site_fract_x
_atom_site_fract_y
_atom_site_fract_z
O1 O 0.26400(12) 0.10507(8) 0.05065(6)
O2 O -0.15073(13) 0.31219(11) -0.20664(7)
N1 N 0.33634(13) -0.29363(10) 0.01042(7)
N2 N -0.14601(16) 0.02746(14) -0.26209(9)
C1 C 0.27696(15) -0.19347(12) -0.01417(9)
C2 C 0.30689(15) -0.09347(12) 0.03205(9)
H1 H 0.3726 -0.0957 0.0805
C3 C 0.24206(15) 0.00687(12) 0.00775(9)
C4 C 0.14514(15) 0.01636(13) -0.06535(9)
C5 C 0.12075(16) -0.08407(13) -0.11131(9)
H2 H 0.0582 -0.0814 -0.1610
C6 C 0.18212(16) -0.18420(13) -0.08812(9)
H3 H 0.1616 -0.2492 -0.1216
C7 C 0.30906(17) -0.39709(13) -0.03830(10)
H4 H 0.3917 -0.4487 -0.0273
H5 H 0.3005 -0.3777 -0.0980
C8 C 0.1743(2) -0.45767(15) -0.01867(11)
H6 H 0.1614 -0.5262 -0.0526
H7 H 0.0917 -0.4078 -0.0309
H8 H 0.1827 -0.4783 0.0402
C9 C 0.42554(17) -0.30724(13) 0.08940(9)
H9 H 0.4170 -0.3860 0.1089
H10 H 0.3891 -0.2567 0.1312
C10 C 0.58232(17) -0.28079(16) 0.08311(11)
H11 H 0.6364 -0.2914 0.1374
H12 H 0.5919 -0.2023 0.0652
H13 H 0.6198 -0.3315 0.0427
C11 C 0.36384(16) 0.10752(12) 0.12329(9)
H14 H 0.4611 0.0888 0.1088
H15 H 0.3363 0.0516 0.1643
C12 C 0.36170(15) 0.22447(12) 0.15876(8)
C13 C 0.48775(16) 0.27454(13) 0.19130(9)
H16 H 0.5757 0.2351 0.1903
C14 C 0.48681(18) 0.38170(14) 0.22536(10)
H17 H 0.5742 0.4153 0.2476
C15 C 0.36015(18) 0.44035(14) 0.22741(9)
H18 H 0.3600 0.5139 0.2509
C16 C 0.23417(18) 0.39108(14) 0.19496(10)
H19 H 0.1466 0.4310 0.1958
C17 C 0.23431(17) 0.28373(14) 0.16114(10)
H20 H 0.1466 0.2502 0.1394
C18 C 0.08283(15) 0.12241(13) -0.08690(9)
H21 H 0.1161 0.1821 -0.0508
C19 C -0.01660(15) 0.15554(14) -0.15000(9)
C20 C -0.05978(17) 0.27300(15) -0.15616(10)
H22 H -0.0127 0.3240 -0.1172
C21 C -0.08674(16) 0.08226(15) -0.21142(10)
loop_
_geom_bond_atom_site_label_1
_geom_bond_atom_site_label_2
_geom_bond_site_symmetry_1
_geom_bond_site_symmetry_2
O1 C3 1_555 1_555
O2 C20 1_555 1_555
N1 C1 1_555 1_555
N2 C21 1_555 1_555
C1 C2 1_555 1_555
C2 H1 1_555 1_555
C3 C2 1_555 1_555
C4 C3 1_555 1_555
C5 C4 1_555 1_555
H2 C5 1_555 1_555
C6 C1 1_555 1_555
H3 C6 1_555 1_555
C7 N1 1_555 1_555
H4 C7 1_555 1_555
H5 C7 1_555 1_555
C8 C7 1_555 1_555
H6 C8 1_555 1_555
H7 C8 1_555 1_555
H8 C8 1_555 1_555
C9 N1 1_555 1_555
H9 C9 1_555 1_555
H10 C9 1_555 1_555
C10 C9 1_555 1_555
H11 C10 1_555 1_555
H12 C10 1_555 1_555
H13 C10 1_555 1_555
C11 O1 1_555 1_555
H14 C11 1_555 1_555
H15 C11 1_555 1_555
C12 C11 1_555 1_555
C13 C12 1_555 1_555
H16 C13 1_555 1_555
C14 C13 1_555 1_555
H17 C14 1_555 1_555
C15 C14 1_555 1_555
H18 C15 1_555 1_555
C16 C15 1_555 1_555
H19 C16 1_555 1_555
C17 C12 1_555 1_555
H20 C17 1_555 1_555
C18 C4 1_555 1_555
H21 C18 1_555 1_555
C19 C18 1_555 1_555
C20 C19 1_555 1_555
H22 C20 1_555 1_555
C21 C19 1_555 1_555
C5 C6 1_555 1_555
C16 C17 1_555 1_555

#END
