
#######################################################################
#
#                 Cambridge Crystallographic Data Centre
#                                CCDC 
#
#######################################################################
#
# If this CIF has been generated from an entry in the Cambridge 
# Structural Database, then it will include bibliographic, chemical, 
# crystal, experimental, refinement or atomic coordinate data resulting 
# from the CCDC's data processing and validation procedures.
#
#######################################################################

data_UTIGIO
_chemical_formula_moiety         'C21 H12 O7'
_chemical_name_systematic        
1-(2-Hydroxy-1,3-dioxo-2,3-dihydro-1H-inden-2-yl)-7-methyl-1H-furo[3,4-b]chromene-3,9-dione
_symmetry_cell_setting           triclinic
_symmetry_space_group_name_H-M   'P -1'
_symmetry_Int_Tables_number      2
_space_group_name_Hall           '-P 1'
loop_
_symmetry_equiv_pos_site_id
_symmetry_equiv_pos_as_xyz
1 x,y,z
2 -x,-y,-z
_cell_length_a                   11.3453(6)
_cell_length_b                   12.7065(9)
_cell_length_c                   13.4497(8)
_cell_angle_alpha                114.756(6)
_cell_angle_beta                 106.315(5)
_cell_angle_gamma                93.883(5)
_cell_volume                     1651.15
_exptl_crystal_colour            white
_exptl_crystal_description       needle
_chemical_melting_point          '262-264 deg.C'
_cell_formula_units_Z            4
_exptl_crystal_recrystallization_method dichloromethane
loop_
_atom_site_label
_atom_site_type_symbol
_atom_site_fract_x
_atom_site_fract_y
_atom_site_fract_z
O1 O 0.56261(9) 0.66438(9) 0.02849(9)
O2 O 0.84483(9) 0.67638(9) -0.03141(9)
O3 O 0.84610(10) 0.63546(10) 0.28163(10)
C1 C 0.53557(14) 0.64045(13) 0.11244(13)
C2 C 0.68102(13) 0.66680(13) 0.03193(13)
C3 C 0.72220(14) 0.68722(13) -0.05413(13)
O4 O 0.66818(10) 0.70993(10) -0.13005(9)
O5 O 1.06243(10) 0.69378(12) 0.23600(10)
H1 H 1.0118 0.6867 0.2671
C4 C 0.62758(14) 0.62902(13) 0.19903(13)
C5 C 0.77508(13) 0.65075(13) 0.10582(13)
C6 C 0.41091(14) 0.62868(13) 0.10430(13)
H2 H 0.3511 0.6370 0.0461
C7 C 0.58912(14) 0.60513(13) 0.27875(13)
H3 H 0.6489 0.5972 0.3373
O6 O 1.13552(10) 0.64932(10) 0.03282(10)
C8 C 0.75912(14) 0.63741(13) 0.20345(13)
C9 C 0.46531(14) 0.59280(13) 0.27364(14)
C10 C 0.88606(13) 0.64807(14) 0.06609(13)
H4 H 0.9007 0.5672 0.0367
O7 O 0.94163(11) 0.90294(11) 0.27732(11)
C11 C 1.06191(14) 0.92867(14) 0.16416(13)
C12 C 0.37706(14) 0.60441(13) 0.18436(14)
H5 H 0.2931 0.5955 0.1789
C13 C 1.09863(14) 0.73528(15) 0.08638(14)
C14 C 1.00968(14) 0.73411(14) 0.15441(13)
C15 C 0.42449(15) 0.56585(15) 0.35884(14)
H6 H 0.3860 0.4832 0.3230
H7 H 0.3651 0.6127 0.3818
H8 H 0.4963 0.5844 0.4262
C16 C 1.12284(14) 0.85463(14) 0.09495(13)
C17 C 0.99622(14) 0.86350(15) 0.20891(14)
C18 C 1.19198(15) 0.89543(15) 0.04295(14)
H9 H 1.2327 0.8462 -0.0032
C19 C 1.06878(15) 1.04503(15) 0.18288(14)
H10 H 1.0281 1.0944 0.2289
C20 C 1.19823(15) 1.01174(16) 0.06213(15)
H11 H 1.2438 1.0412 0.0282
C21 C 1.13739(15) 1.08569(16) 0.13151(15)
H12 H 1.1432 1.1637 0.1433
O8 O 0.41762(10) 0.27687(9) 0.36796(9)
O9 O 0.64553(10) 0.10450(10) 0.15048(10)
O10 O 0.62021(10) 0.39835(9) 0.35297(10)
H13 H 0.5607 0.3701 0.3639
O11 O 0.50156(11) -0.05629(9) 0.26113(10)
O12 O 0.69727(10) 0.36298(11) 0.14987(10)
C22 C 0.43925(14) 0.17659(14) 0.33530(13)
C23 C 0.67892(14) 0.30717(14) 0.29815(13)
C24 C 0.39340(13) 0.08796(13) 0.36621(13)
C25 C 0.90633(14) 0.33003(14) 0.37870(14)
C26 C 0.31685(14) 0.11312(14) 0.43561(13)
H14 H 0.2939 0.1863 0.4605
O13 O 0.77014(12) 0.26138(12) 0.45857(11)
C27 C 0.42572(14) -0.02266(14) 0.33009(14)
C28 C 0.78547(15) 0.29356(14) 0.38934(14)
C29 C 0.74898(14) 0.34751(14) 0.23259(14)
C30 C 0.51757(14) 0.13385(14) 0.26382(13)
C31 C 0.38545(15) -0.10536(14) 0.36193(14)
H15 H 0.4090 -0.1782 0.3380
C32 C 0.58192(14) 0.19306(14) 0.21185(14)
H16 H 0.5188 0.2083 0.1556
C33 C 0.62276(16) 0.00342(15) 0.16122(15)
O14 O 0.66437(13) -0.08117(11) 0.11788(12)
C34 C 0.54113(15) 0.02541(14) 0.23334(14)
C35 C 0.27482(14) 0.03152(15) 0.46776(14)
C36 C 0.88462(14) 0.36002(14) 0.28804(14)
C37 C 1.02806(16) 0.33712(15) 0.44515(15)
H17 H 1.0431 0.3182 0.5067
C38 C 0.31051(15) -0.07813(15) 0.42899(14)
H18 H 0.2824 -0.1340 0.4495
C39 C 0.98287(16) 0.39574(16) 0.25907(16)
H19 H 0.9680 0.4149 0.1977
C40 C 0.19300(17) 0.05925(17) 0.54309(16)
H20 H 0.2429 0.0781 0.6214
H21 H 0.1265 -0.0084 0.5129
H22 H 0.1577 0.1257 0.5428
C41 C 1.12540(16) 0.37312(17) 0.41643(17)
H23 H 1.2077 0.3784 0.4593
C42 C 1.10315(17) 0.40182(17) 0.32427(18)
H24 H 1.1707 0.4254 0.3066
loop_
_geom_bond_atom_site_label_1
_geom_bond_atom_site_label_2
_geom_bond_site_symmetry_1
_geom_bond_site_symmetry_2
O1 C1 1_555 1_555
O2 C3 1_555 1_555
O3 C8 1_555 1_555
C1 C4 1_555 1_555
C2 O1 1_555 1_555
C3 C2 1_555 1_555
O4 C3 1_555 1_555
O5 H1 1_555 1_555
C4 C7 1_555 1_555
C5 C2 1_555 1_555
C6 C1 1_555 1_555
H2 C6 1_555 1_555
C7 H3 1_555 1_555
O6 C13 1_555 1_555
C8 C4 1_555 1_555
C9 C7 1_555 1_555
C10 O2 1_555 1_555
H4 C10 1_555 1_555
O7 C17 1_555 1_555
C11 C16 1_555 1_555
C12 C6 1_555 1_555
H5 C12 1_555 1_555
C13 C14 1_555 1_555
C14 O5 1_555 1_555
C15 C9 1_555 1_555
H6 C15 1_555 1_555
H7 C15 1_555 1_555
H8 C15 1_555 1_555
C16 C13 1_555 1_555
C17 C11 1_555 1_555
C18 C16 1_555 1_555
H9 C18 1_555 1_555
C19 C11 1_555 1_555
H10 C19 1_555 1_555
C20 C18 1_555 1_555
H11 C20 1_555 1_555
C21 C19 1_555 1_555
H12 C21 1_555 1_555
O8 C22 1_555 1_555
O9 C32 1_555 1_555
O10 H13 1_555 1_555
O11 C27 1_555 1_555
O12 C29 1_555 1_555
C22 C24 1_555 1_555
C23 O10 1_555 1_555
C24 C26 1_555 1_555
C25 C28 1_555 1_555
C26 H14 1_555 1_555
O13 C28 1_555 1_555
C27 C24 1_555 1_555
C28 C23 1_555 1_555
C29 C23 1_555 1_555
C30 C22 1_555 1_555
C31 C27 1_555 1_555
H15 C31 1_555 1_555
C32 C23 1_555 1_555
H16 C32 1_555 1_555
C33 O9 1_555 1_555
O14 C33 1_555 1_555
C34 O11 1_555 1_555
C35 C26 1_555 1_555
C36 C25 1_555 1_555
C37 C25 1_555 1_555
H17 C37 1_555 1_555
C38 C31 1_555 1_555
H18 C38 1_555 1_555
C39 C36 1_555 1_555
H19 C39 1_555 1_555
C40 C35 1_555 1_555
H20 C40 1_555 1_555
H21 C40 1_555 1_555
H22 C40 1_555 1_555
C41 C37 1_555 1_555
H23 C41 1_555 1_555
C42 C39 1_555 1_555
H24 C42 1_555 1_555
C5 C8 1_555 1_555
C5 C10 1_555 1_555
C9 C12 1_555 1_555
C10 C14 1_555 1_555
C14 C17 1_555 1_555
C20 C21 1_555 1_555
C29 C36 1_555 1_555
C30 C32 1_555 1_555
C30 C34 1_555 1_555
C33 C34 1_555 1_555
C35 C38 1_555 1_555
C41 C42 1_555 1_555

#END
