
#######################################################################
#
#                 Cambridge Crystallographic Data Centre
#                                CCDC 
#
#######################################################################
#
# If this CIF has been generated from an entry in the Cambridge 
# Structural Database, then it will include bibliographic, chemical, 
# crystal, experimental, refinement or atomic coordinate data resulting 
# from the CCDC's data processing and validation procedures.
#
#######################################################################

data_UTISUM
_chemical_formula_moiety         'C16 H12 N2'
_chemical_name_systematic        6-Methyl-11H-indolo[3,2-c]quinoline
_symmetry_cell_setting           monoclinic
_symmetry_space_group_name_H-M   'P 21/c'
_symmetry_Int_Tables_number      14
_space_group_name_Hall           '-P 2ybc'
loop_
_symmetry_equiv_pos_site_id
_symmetry_equiv_pos_as_xyz
1 x,y,z
2 -x,1/2+y,1/2-z
3 -x,-y,-z
4 x,1/2-y,1/2+z
_cell_length_a                   4.927(1)
_cell_length_b                   18.473(4)
_cell_length_c                   13.015(3)
_cell_angle_alpha                90
_cell_angle_beta                 99.80(3)
_cell_angle_gamma                90
_cell_volume                     1167.29
_chemical_melting_point          '281-283 deg.C'
_cell_formula_units_Z            4
loop_
_atom_site_label
_atom_site_type_symbol
_atom_site_fract_x
_atom_site_fract_y
_atom_site_fract_z
N1 N 0.2224(3) 0.66906(9) 0.78625(12)
H1 H 0.2975 0.6779 0.7326
C1 C -0.0618(5) 0.68327(12) 1.11847(18)
H2 H -0.0389 0.7131 1.1797
H3 H 0.0025 0.6352 1.1372
H4 H -0.2532 0.6815 1.0878
N2 N 0.2401(4) 0.77451(9) 1.06805(12)
C2 C 0.1002(4) 0.71429(11) 1.04178(15)
C3 C 0.0999(4) 0.67953(10) 0.94457(14)
C4 C -0.0298(4) 0.61516(11) 0.89533(15)
C5 C -0.2074(5) 0.56176(12) 0.92125(19)
H5 H -0.2678 0.5631 0.9851
C6 C -0.2922(5) 0.50695(14) 0.8508(2)
H6 H -0.4134 0.4719 0.8672
C7 C -0.2005(5) 0.50326(13) 0.7565(2)
H7 H -0.2592 0.4655 0.7109
C8 C -0.0238(5) 0.55442(12) 0.72887(18)
H8 H 0.0413 0.5512 0.6660
C9 C 0.0546(4) 0.61097(11) 0.79735(15)
C10 C 0.2501(4) 0.71019(11) 0.87410(14)
C11 C 0.4007(4) 0.77498(10) 0.89878(14)
C12 C 0.5614(4) 0.80914(12) 0.83344(17)
H9 H 0.5743 0.7888 0.7691
C13 C 0.6986(5) 0.87175(13) 0.86351(18)
H10 H 0.8045 0.8939 0.8198
C14 C 0.6802(5) 0.90261(13) 0.95991(18)
H11 H 0.7725 0.9456 0.9798
C15 C 0.5281(5) 0.87022(12) 1.02516(17)
H12 H 0.5178 0.8916 1.0891
C16 C 0.3867(4) 0.80533(11) 0.99775(15)
loop_
_geom_bond_atom_site_label_1
_geom_bond_atom_site_label_2
_geom_bond_site_symmetry_1
_geom_bond_site_symmetry_2
N1 H1 1_555 1_555
C1 H2 1_555 1_555
H3 C1 1_555 1_555
H4 C1 1_555 1_555
N2 C2 1_555 1_555
C2 C1 1_555 1_555
C3 C2 1_555 1_555
C4 C3 1_555 1_555
C5 C4 1_555 1_555
H5 C5 1_555 1_555
C6 C5 1_555 1_555
H6 C6 1_555 1_555
C7 C6 1_555 1_555
H7 C7 1_555 1_555
C8 C7 1_555 1_555
H8 C8 1_555 1_555
C9 N1 1_555 1_555
C10 N1 1_555 1_555
C11 C10 1_555 1_555
C12 C11 1_555 1_555
H9 C12 1_555 1_555
C13 C12 1_555 1_555
H10 C13 1_555 1_555
C14 C13 1_555 1_555
H11 C14 1_555 1_555
C15 C14 1_555 1_555
H12 C15 1_555 1_555
C16 N2 1_555 1_555
C3 C10 1_555 1_555
C4 C9 1_555 1_555
C8 C9 1_555 1_555
C11 C16 1_555 1_555
C15 C16 1_555 1_555

#END
