
#######################################################################
#
#                 Cambridge Crystallographic Data Centre
#                                CCDC 
#
#######################################################################
#
# If this CIF has been generated from an entry in the Cambridge 
# Structural Database, then it will include bibliographic, chemical, 
# crystal, experimental, refinement or atomic coordinate data resulting 
# from the CCDC's data processing and validation procedures.
#
#######################################################################

data_UTIWEA
_chemical_formula_moiety         'C14 H16 N2 O3'
_chemical_name_systematic        
'Ethyl 2-cyano-3-((4-ethoxyphenyl)amino)acrylate'
_symmetry_cell_setting           triclinic
_symmetry_space_group_name_H-M   'P -1'
_symmetry_Int_Tables_number      2
_space_group_name_Hall           '-P 1'
loop_
_symmetry_equiv_pos_site_id
_symmetry_equiv_pos_as_xyz
1 x,y,z
2 -x,-y,-z
_cell_length_a                   8.4186(10)
_cell_length_b                   12.5730(15)
_cell_length_c                   13.2177(15)
_cell_angle_alpha                79.947(2)
_cell_angle_beta                 84.258(2)
_cell_angle_gamma                79.707(2)
_cell_volume                     1351.98
_exptl_crystal_colour            colorless
_exptl_crystal_description       block
_cell_formula_units_Z            4
loop_
_atom_site_label
_atom_site_type_symbol
_atom_site_fract_x
_atom_site_fract_y
_atom_site_fract_z
C1 C 0.2219(2) 0.38475(15) 1.15963(13)
C2 C 0.1678(2) 0.47778(15) 1.09201(13)
H1 H 0.0792 0.5273 1.1119
C3 C 0.2451(2) 0.49805(15) 0.99429(13)
H2 H 0.2084 0.5613 0.9493
C4 C 0.3754(2) 0.42513(15) 0.96375(13)
C5 C 0.4316(2) 0.33259(16) 1.03174(14)
H3 H 0.5210 0.2836 1.0120
C6 C 0.3550(2) 0.31245(16) 1.12955(14)
H4 H 0.3934 0.2501 1.1750
C7 C 0.0009(2) 0.41699(17) 1.28514(15)
H5 H -0.0756 0.4151 1.2355
H6 H 0.0087 0.4929 1.2861
C8 C -0.0548(3) 0.36429(19) 1.38941(16)
H7 H -0.0722(4) 0.2920(10) 1.38622(16)
H8 H -0.1536(14) 0.4064(6) 1.4124(4)
H9 H 0.0258(11) 0.3607(2) 1.4365(7)
C9 C 0.5659(2) 0.39020(15) 0.81596(13)
H10 H 0.6076 0.3222 0.8519
C10 C 0.6334(2) 0.41979(15) 0.71728(13)
C11 C 0.7615(2) 0.34496(16) 0.67778(13)
C12 C 0.5763(2) 0.52493(15) 0.65596(13)
C13 C 0.6048(3) 0.64595(16) 0.49959(14)
H11 H 0.6170 0.7052 0.5348
H12 H 0.4919 0.6534 0.4860
C14 C 0.7085(3) 0.65010(18) 0.40101(15)
H13 H 0.8213(15) 0.6407(2) 0.4157(2)
H14 H 0.6789(5) 0.7204(9) 0.3579(6)
H15 H 0.6928(3) 0.5919(8) 0.3654(5)
N1 N 0.44759(18) 0.45088(12) 0.86254(11)
H16 H 0.4095 0.5132 0.8280
N2 N 0.8644(2) 0.28356(15) 0.64759(14)
O1 O 0.15520(15) 0.35825(11) 1.25738(9)
O2 O 0.46561(16) 0.59182(11) 0.68483(10)
O3 O 0.65604(15) 0.54111(10) 0.56279(9)
O4 O 1.08241(19) -0.20070(12) 0.84972(11)
O5 O 0.90739(15) -0.14131(10) 0.97546(9)
O6 O 1.41873(16) 0.05320(10) 0.28446(9)
N3 N 0.7399(2) 0.12946(15) 0.89939(14)
N4 N 1.11804(19) -0.05215(13) 0.67523(12)
H17 H 1.1475 -0.1178 0.7062
C15 C 1.3479(2) 0.02194(15) 0.38001(13)
C16 C 1.3777(2) -0.08074(16) 0.43799(15)
H18 H 1.4505 -0.1357 0.4116
C17 C 1.3010(3) -0.10324(16) 0.53474(15)
H19 H 1.3236 -0.1729 0.5731
C18 C 1.1921(2) -0.02403(16) 0.57476(13)
C19 C 1.1605(2) 0.07938(16) 0.51703(15)
H20 H 1.0871 0.1340 0.5435
C20 C 1.2378(2) 0.10195(16) 0.41999(15)
H21 H 1.2153 0.1715 0.3815
C21 C 1.5307(2) -0.02593(16) 0.23801(14)
H22 H 1.4795 -0.0874 0.2314
H23 H 1.6225 -0.0529 0.2796
C22 C 1.5849(3) 0.02967(19) 0.13405(15)
H24 H 1.4937(12) 0.0571(4) 0.0947(6)
H25 H 1.6584(10) -0.0213(7) 0.0998(5)
H26 H 1.6371(8) 0.0885(8) 0.14168(17)
C23 C 1.0100(2) 0.01119(16) 0.72535(14)
H27 H 0.9756 0.0820 0.6923
C24 C 0.9427(2) -0.01889(15) 0.82401(13)
C25 C 0.8297(2) 0.06221(16) 0.86701(14)
C26 C 0.9463(3) -0.24796(15) 1.03776(15)
H28 H 1.0605 -0.2634 1.0499
H29 H 0.9222 -0.3043 1.0028
C27 C 0.8455(3) -0.24608(17) 1.13806(16)
H30 H 0.8734(5) -0.1927(7) 1.1729(5)
H31 H 0.8654(4) -0.3161(9) 1.1797(6)
H32 H 0.7341(15) -0.2282(3) 1.1250(2)
C28 C 0.9860(2) -0.12849(16) 0.88209(14)
loop_
_geom_bond_atom_site_label_1
_geom_bond_atom_site_label_2
_geom_bond_site_symmetry_1
_geom_bond_site_symmetry_2
C1 C2 1_555 1_555
C2 H1 1_555 1_555
C3 C2 1_555 1_555
H2 C3 1_555 1_555
C4 C3 1_555 1_555
C5 C4 1_555 1_555
H3 C5 1_555 1_555
C6 C1 1_555 1_555
H4 C6 1_555 1_555
C7 H5 1_555 1_555
H6 C7 1_555 1_555
C8 C7 1_555 1_555
H7 C8 1_555 1_555
H8 C8 1_555 1_555
H9 C8 1_555 1_555
C9 H10 1_555 1_555
C10 C9 1_555 1_555
C11 C10 1_555 1_555
C12 C10 1_555 1_555
C13 H11 1_555 1_555
H12 C13 1_555 1_555
C14 C13 1_555 1_555
H13 C14 1_555 1_555
H14 C14 1_555 1_555
H15 C14 1_555 1_555
N1 C4 1_555 1_555
H16 N1 1_555 1_555
N2 C11 1_555 1_555
O1 C1 1_555 1_555
O2 C12 1_555 1_555
O3 C12 1_555 1_555
O4 C28 1_555 1_555
O5 C26 1_555 1_555
O6 C15 1_555 1_555
N3 C25 1_555 1_555
N4 H17 1_555 1_555
C15 C16 1_555 1_555
C16 H18 1_555 1_555
C17 C16 1_555 1_555
H19 C17 1_555 1_555
C18 N4 1_555 1_555
C19 C18 1_555 1_555
H20 C19 1_555 1_555
C20 C15 1_555 1_555
H21 C20 1_555 1_555
C21 O6 1_555 1_555
H22 C21 1_555 1_555
H23 C21 1_555 1_555
C22 C21 1_555 1_555
H24 C22 1_555 1_555
H25 C22 1_555 1_555
H26 C22 1_555 1_555
C23 N4 1_555 1_555
H27 C23 1_555 1_555
C24 C23 1_555 1_555
C25 C24 1_555 1_555
C26 H28 1_555 1_555
H29 C26 1_555 1_555
C27 C26 1_555 1_555
H30 C27 1_555 1_555
H31 C27 1_555 1_555
H32 C27 1_555 1_555
C28 O5 1_555 1_555
C5 C6 1_555 1_555
C7 O1 1_555 1_555
C9 N1 1_555 1_555
C13 O3 1_555 1_555
C17 C18 1_555 1_555
C19 C20 1_555 1_555
C24 C28 1_555 1_555

#END
