
#######################################################################
#
#                 Cambridge Crystallographic Data Centre
#                                CCDC 
#
#######################################################################
#
# If this CIF has been generated from an entry in the Cambridge 
# Structural Database, then it will include bibliographic, chemical, 
# crystal, experimental, refinement or atomic coordinate data resulting 
# from the CCDC's data processing and validation procedures.
#
#######################################################################

data_UTOZUZ
_chemical_formula_moiety         'C24 H18 B2'
_chemical_name_systematic        
9,18-Di-\mH-tetrabenzo[b,d,g,i][1,6]diborecine
_symmetry_cell_setting           monoclinic
_symmetry_space_group_name_H-M   'P 21/n'
_symmetry_Int_Tables_number      14
_space_group_name_Hall           '-P 2yn'
loop_
_symmetry_equiv_pos_site_id
_symmetry_equiv_pos_as_xyz
1 x,y,z
2 1/2-x,1/2+y,1/2-z
3 -x,-y,-z
4 1/2+x,1/2-y,1/2+z
_cell_length_a                   12.7199(11)
_cell_length_b                   7.2298(7)
_cell_length_c                   18.0394(17)
_cell_angle_alpha                90
_cell_angle_beta                 99.098(2)
_cell_angle_gamma                90
_cell_volume                     1638.07
_exptl_crystal_colour            colorless
_exptl_crystal_description       needle
_cell_formula_units_Z            4
_exptl_crystal_recrystallization_method benzene
loop_
_atom_site_label
_atom_site_type_symbol
_atom_site_fract_x
_atom_site_fract_y
_atom_site_fract_z
B1 B 0.57180(17) 0.3813(3) 0.71038(12)
H1 H 0.6334(14) 0.495(3) 0.7505(10)
B2 B 0.67650(17) 0.3571(3) 0.78789(12)
H2 H 0.6153(14) 0.248(3) 0.7472(10)
C1 C 0.60679(14) 0.3440(3) 0.63232(10)
C2 C 0.71549(14) 0.3147(2) 0.62642(10)
C3 C 0.74086(15) 0.2440(3) 0.55892(10)
H3 H 0.8133 0.2194 0.5555
C4 C 0.66427(16) 0.2092(3) 0.49748(10)
H4 H 0.6840 0.1632 0.4523
C5 C 0.55852(16) 0.2419(3) 0.50219(11)
H5 H 0.5051 0.2209 0.4599
C6 C 0.53109(15) 0.3053(3) 0.56859(11)
H6 H 0.4579 0.3235 0.5714
C7 C 0.79095(14) 0.3595(2) 0.76571(10)
C8 C 0.80461(14) 0.3497(2) 0.68905(10)
C9 C 0.90712(14) 0.3769(3) 0.67177(10)
H7 H 0.9168 0.3745 0.6206
C10 C 0.99416(15) 0.4070(3) 0.72611(11)
H8 H 1.0628 0.4216 0.7124
C11 C 0.98149(14) 0.4160(3) 0.80086(10)
H9 H 1.0411 0.4363 0.8388
C12 C 0.88067(14) 0.3948(2) 0.81948(10)
H10 H 0.8721 0.4047 0.8707
C13 C 0.46128(14) 0.4307(3) 0.73338(11)
C14 C 0.44766(14) 0.4301(3) 0.80998(11)
C15 C 0.35377(15) 0.5086(3) 0.82876(12)
H11 H 0.3446 0.5124 0.8800
C16 C 0.27474(15) 0.5802(3) 0.77501(12)
H12 H 0.2123 0.6316 0.7894
C17 C 0.28674(15) 0.5770(3) 0.70054(12)
H13 H 0.2319 0.6229 0.6632
C18 C 0.37926(15) 0.5063(3) 0.68062(11)
H14 H 0.3878 0.5089 0.6293
C19 C 0.63790(14) 0.3322(2) 0.86566(10)
C20 C 0.52820(15) 0.3543(3) 0.87165(11)
C21 C 0.49504(16) 0.2981(3) 0.93886(11)
H15 H 0.4219 0.3092 0.9434
C22 C 0.56447(17) 0.2278(3) 0.99839(11)
H16 H 0.5392 0.1935 1.0433
C23 C 0.67138(16) 0.2069(3) 0.99302(11)
H17 H 0.7199 0.1587 1.0339
C24 C 0.70591(15) 0.2574(3) 0.92710(10)
H18 H 0.7789 0.2407 0.9232
loop_
_geom_bond_atom_site_label_1
_geom_bond_atom_site_label_2
_geom_bond_site_symmetry_1
_geom_bond_site_symmetry_2
B1 H1 1_555 1_555
H1 B2 1_555 1_555
B2 H2 1_555 1_555
H2 B1 1_555 1_555
C1 B1 1_555 1_555
C2 C1 1_555 1_555
C3 C2 1_555 1_555
H3 C3 1_555 1_555
C4 C3 1_555 1_555
H4 C4 1_555 1_555
C5 C4 1_555 1_555
H5 C5 1_555 1_555
C6 C1 1_555 1_555
H6 C6 1_555 1_555
C7 B2 1_555 1_555
C8 C2 1_555 1_555
C9 C8 1_555 1_555
H7 C9 1_555 1_555
C10 C9 1_555 1_555
H8 C10 1_555 1_555
C11 C10 1_555 1_555
H9 C11 1_555 1_555
C12 C7 1_555 1_555
H10 C12 1_555 1_555
C13 B1 1_555 1_555
C14 C13 1_555 1_555
C15 C14 1_555 1_555
H11 C15 1_555 1_555
C16 C15 1_555 1_555
H12 C16 1_555 1_555
C17 C16 1_555 1_555
H13 C17 1_555 1_555
C18 C13 1_555 1_555
H14 C18 1_555 1_555
C19 B2 1_555 1_555
C20 C14 1_555 1_555
C21 C20 1_555 1_555
H15 C21 1_555 1_555
C22 C21 1_555 1_555
H16 C22 1_555 1_555
C23 C22 1_555 1_555
H17 C23 1_555 1_555
C24 C19 1_555 1_555
H18 C24 1_555 1_555
C5 C6 1_555 1_555
C7 C8 1_555 1_555
C11 C12 1_555 1_555
C17 C18 1_555 1_555
C19 C20 1_555 1_555
C23 C24 1_555 1_555

#END
