
#######################################################################
#
#                 Cambridge Crystallographic Data Centre
#                                CCDC 
#
#######################################################################
#
# If this CIF has been generated from an entry in the Cambridge 
# Structural Database, then it will include bibliographic, chemical, 
# crystal, experimental, refinement or atomic coordinate data resulting 
# from the CCDC's data processing and validation procedures.
#
#######################################################################

data_UTOZEJ
_chemical_formula_moiety         'C34 H28 B2 N2,0.5(C6 H6)'
_chemical_name_systematic        
"5-(2'-(Pyridinium-1-yl)dihydidoboranylbiphenyl-2-yl)-5-(pyridinium-1-yl)5H-dibenzo[b,d]borole benzene solvate"
_symmetry_cell_setting           monoclinic
_symmetry_space_group_name_H-M   'C 2/c'
_symmetry_Int_Tables_number      15
_space_group_name_Hall           '-C 2yn'
loop_
_symmetry_equiv_pos_site_id
_symmetry_equiv_pos_as_xyz
1 x,y,z
2 -x,y,1/2-z
3 1/2+x,1/2+y,z
4 1/2-x,1/2+y,1/2-z
5 -x,-y,-z
6 x,-y,1/2+z
7 1/2-x,1/2-y,-z
8 1/2+x,1/2-y,1/2+z
_cell_length_a                   21.5133(18)
_cell_length_b                   14.0740(13)
_cell_length_c                   19.1807(15)
_cell_angle_alpha                90
_cell_angle_beta                 93.461(7)
_cell_angle_gamma                90
_cell_volume                     5796.91
_exptl_crystal_colour            colorless
_exptl_crystal_description       plate
_cell_formula_units_Z            8
loop_
_atom_site_label
_atom_site_type_symbol
_atom_site_fract_x
_atom_site_fract_y
_atom_site_fract_z
B1 B 0.20703(15) 0.5214(2) 0.58259(16)
B2 B 0.37751(19) 0.5180(3) 0.77483(18)
H1 H 0.3278(16) 0.547(2) 0.7850(17)
H2 H 0.4120(15) 0.578(2) 0.7677(16)
C1 C 0.14135(12) 0.57344(19) 0.59866(14)
C2 C 0.10057(12) 0.57077(19) 0.53854(14)
C3 C 0.04018(13) 0.6071(2) 0.53863(17)
H3 H 0.0131 0.6042 0.4977
C4 C 0.02041(13) 0.6472(2) 0.59884(17)
H4 H -0.0208 0.6713 0.5996
C5 C 0.05999(13) 0.6528(2) 0.65814(16)
H5 H 0.0460 0.6817 0.6992
C6 C 0.12036(13) 0.6163(2) 0.65822(15)
H6 H 0.1473 0.6208 0.6992
C7 C 0.19192(12) 0.49661(17) 0.50016(13)
C8 C 0.13065(12) 0.52716(18) 0.47949(14)
C9 C 0.10607(13) 0.51827(19) 0.41127(14)
H7 H 0.0648 0.5391 0.3991
C10 C 0.14161(13) 0.4792(2) 0.36115(14)
H8 H 0.1251 0.4738 0.3142
C11 C 0.20147(14) 0.4478(2) 0.37944(14)
H9 H 0.2258 0.4199 0.3451
C12 C 0.22609(12) 0.45715(19) 0.44803(13)
H10 H 0.2674 0.4360 0.4595
N1 N 0.20790(9) 0.42577(15) 0.62961(11)
C13 C 0.22070(13) 0.4327(2) 0.69907(13)
H11 H 0.2329 0.4925 0.7183
C14 C 0.21673(14) 0.3560(2) 0.74293(15)
H12 H 0.2257 0.3632 0.7917
C15 C 0.19968(14) 0.2689(2) 0.71584(16)
H13 H 0.1965 0.2153 0.7455
C16 C 0.18734(14) 0.2606(2) 0.64481(15)
H14 H 0.1761 0.2009 0.6246
C17 C 0.19149(13) 0.33996(19) 0.60347(15)
H15 H 0.1824 0.3340 0.5546
C18 C 0.26782(12) 0.58884(18) 0.59919(12)
C19 C 0.32910(12) 0.56489(18) 0.62527(12)
C20 C 0.37473(13) 0.63621(19) 0.63316(13)
H16 H 0.4153 0.6191 0.6511
C21 C 0.36301(13) 0.72973(19) 0.61604(13)
H17 H 0.3948 0.7764 0.6220
C22 C 0.30371(12) 0.75408(19) 0.58988(13)
H18 H 0.2945 0.8179 0.5769
C23 C 0.25817(13) 0.68563(18) 0.58273(13)
H19 H 0.2177 0.7047 0.5657
C24 C 0.34937(11) 0.46562(18) 0.64356(13)
C25 C 0.37393(12) 0.44203(19) 0.71150(14)
C26 C 0.39135(14) 0.3468(2) 0.72173(15)
H20 H 0.4085 0.3285 0.7665
C27 C 0.38505(14) 0.2783(2) 0.67066(16)
H21 H 0.3966 0.2144 0.6810
C28 C 0.36200(14) 0.3024(2) 0.60482(16)
H22 H 0.3577 0.2560 0.5689
C29 C 0.34506(13) 0.39642(19) 0.59175(15)
H23 H 0.3301 0.4139 0.5459
N2 N 0.40150(11) 0.46614(16) 0.84560(11)
C30 C 0.46272(14) 0.4588(2) 0.86280(16)
H24 H 0.4917 0.4858 0.8330
C31 C 0.48417(15) 0.4131(3) 0.92228(17)
H25 H 0.5277 0.4080 0.9330
C32 C 0.44316(16) 0.3744(2) 0.96680(16)
H26 H 0.4578 0.3434 1.0086
C33 C 0.38048(16) 0.3819(2) 0.94901(16)
H27 H 0.3509 0.3557 0.9784
C34 C 0.36106(14) 0.4275(2) 0.88840(14)
H28 H 0.3177 0.4320 0.8762
C35 C 0.5000 0.9446(4) 0.7500
H29 H 0.5000 1.0121 0.7500
C36 C 0.53096(15) 0.8962(3) 0.70102(19)
H30 H 0.5525 0.9302 0.6671
C37 C 0.5000 0.7501(4) 0.7500
H31 H 0.5000 0.6826 0.7500
C38 C 0.53115(16) 0.7987(3) 0.7006(2)
H32 H 0.5526 0.7651 0.6664
C36A C 0.46904(15) 0.8962(3) 0.79898(19)
H30A H 0.4475 0.9302 0.8329
C38A C 0.46885(16) 0.7987(3) 0.7994(2)
H32A H 0.4474 0.7651 0.8336
loop_
_geom_bond_atom_site_label_1
_geom_bond_atom_site_label_2
_geom_bond_site_symmetry_1
_geom_bond_site_symmetry_2
B1 C1 1_555 1_555
B2 H1 1_555 1_555
H2 B2 1_555 1_555
C1 C2 1_555 1_555
C2 C3 1_555 1_555
C3 H3 1_555 1_555
C4 C3 1_555 1_555
H4 C4 1_555 1_555
C5 C4 1_555 1_555
H5 C5 1_555 1_555
C6 C1 1_555 1_555
H6 C6 1_555 1_555
C7 B1 1_555 1_555
C8 C2 1_555 1_555
C9 C8 1_555 1_555
H7 C9 1_555 1_555
C10 C9 1_555 1_555
H8 C10 1_555 1_555
C11 C10 1_555 1_555
H9 C11 1_555 1_555
C12 C7 1_555 1_555
H10 C12 1_555 1_555
N1 B1 1_555 1_555
C13 N1 1_555 1_555
H11 C13 1_555 1_555
C14 C13 1_555 1_555
H12 C14 1_555 1_555
C15 C14 1_555 1_555
H13 C15 1_555 1_555
C16 C15 1_555 1_555
H14 C16 1_555 1_555
C17 N1 1_555 1_555
H15 C17 1_555 1_555
C18 B1 1_555 1_555
C19 C18 1_555 1_555
C20 C19 1_555 1_555
H16 C20 1_555 1_555
C21 C20 1_555 1_555
H17 C21 1_555 1_555
C22 C21 1_555 1_555
H18 C22 1_555 1_555
C23 C18 1_555 1_555
H19 C23 1_555 1_555
C24 C19 1_555 1_555
C25 B2 1_555 1_555
C26 C25 1_555 1_555
H20 C26 1_555 1_555
C27 C26 1_555 1_555
H21 C27 1_555 1_555
C28 C27 1_555 1_555
H22 C28 1_555 1_555
C29 C24 1_555 1_555
H23 C29 1_555 1_555
N2 B2 1_555 1_555
C30 N2 1_555 1_555
H24 C30 1_555 1_555
C31 C30 1_555 1_555
H25 C31 1_555 1_555
C32 C31 1_555 1_555
H26 C32 1_555 1_555
C33 C32 1_555 1_555
H27 C33 1_555 1_555
C34 N2 1_555 1_555
H28 C34 1_555 1_555
C35 H29 1_555 1_555
C36 C35 1_555 1_555
H30 C36 1_555 1_555
C37 H31 1_555 1_555
C38 C36 1_555 1_555
H32 C38 1_555 1_555
C36A C35 1_555 1_555
H30A C36A 1_555 1_555
C38A C37 1_555 1_555
H32A C38A 1_555 1_555
C5 C6 1_555 1_555
C7 C8 1_555 1_555
C11 C12 1_555 1_555
C16 C17 1_555 1_555
C22 C23 1_555 1_555
C24 C25 1_555 1_555
C28 C29 1_555 1_555
C33 C34 1_555 1_555
C37 C38 1_555 1_555
C36A C38A 1_555 1_555

#END
