
#######################################################################
#
#                 Cambridge Crystallographic Data Centre
#                                CCDC 
#
#######################################################################
#
# If this CIF has been generated from an entry in the Cambridge 
# Structural Database, then it will include bibliographic, chemical, 
# crystal, experimental, refinement or atomic coordinate data resulting 
# from the CCDC's data processing and validation procedures.
#
#######################################################################

data_UTUBOB
_chemical_formula_moiety         
'2(C42 H24 O18 S6 6-),6(C1 H6 N3 1+),2(N1 O3 1-),6(C3 H7 N1 O1),3(Na1 1+),7(Cl1 1-),2(C1 H1 O2),18(H2 O1),12(C2 H8 N1 1+)'
_chemical_name_systematic        
'Hexaguanidinium tri-sodium bis[hexakis(4-sulfonatophenyl)benzene] dinitrate dodecakis(dimethylammonium) heptachloride hexakis(dimethylformamide) bis(formic acid) octadecahydrate clathrate'
_symmetry_cell_setting           cubic
_symmetry_space_group_name_H-M   'I -4 3 m'
_symmetry_Int_Tables_number      217
_space_group_name_Hall           'I -4 2 3'
loop_
_symmetry_equiv_pos_site_id
_symmetry_equiv_pos_as_xyz
1 x,y,z
2 y,-x,-z
3 x,-y,-z
4 z,x,y
5 -x,-y,z
6 -y,-x,z
7 x,-z,-y
8 -y,x,-z
9 -x,y,-z
10 -z,-x,y
11 y,x,z
12 -x,z,-y
13 z,-x,-y
14 x,z,y
15 -z,x,-y
16 -x,-z,y
17 y,z,x
18 z,-y,-x
19 -z,-y,x
20 y,-z,-x
21 z,y,x
22 -y,z,-x
23 -y,-z,x
24 -z,y,-x
25 1/2+x,1/2+y,1/2+z
26 1/2+y,1/2-x,1/2-z
27 1/2+x,1/2-y,1/2-z
28 1/2+z,1/2+x,1/2+y
29 1/2-x,1/2-y,1/2+z
30 1/2-y,1/2-x,1/2+z
31 1/2+x,1/2-z,1/2-y
32 1/2-y,1/2+x,1/2-z
33 1/2-x,1/2+y,1/2-z
34 1/2-z,1/2-x,1/2+y
35 1/2+y,1/2+x,1/2+z
36 1/2-x,1/2+z,1/2-y
37 1/2+z,1/2-x,1/2-y
38 1/2+x,1/2+z,1/2+y
39 1/2-z,1/2+x,1/2-y
40 1/2-x,1/2-z,1/2+y
41 1/2+y,1/2+z,1/2+x
42 1/2+z,1/2-y,1/2-x
43 1/2-z,1/2-y,1/2+x
44 1/2+y,1/2-z,1/2-x
45 1/2+z,1/2+y,1/2+x
46 1/2-y,1/2+z,1/2-x
47 1/2-y,1/2-z,1/2+x
48 1/2-z,1/2+y,1/2-x
_cell_length_a                   26.7455(11)
_cell_length_b                   26.7455(11)
_cell_length_c                   26.7455(11)
_cell_angle_alpha                90
_cell_angle_beta                 90
_cell_angle_gamma                90
_cell_volume                     19131.6
_exptl_crystal_colour            colorless
_exptl_crystal_description       polygon
_cell_formula_units_Z            4
loop_
_atom_site_label
_atom_site_type_symbol
_atom_site_fract_x
_atom_site_fract_y
_atom_site_fract_z
N1 N 0.7745(10) 0.2255(10) 0.2255(10)
O4 O 0.7540(5) 0.1895(7) 0.2460(5)
O4E O 0.8105(7) 0.2460(5) 0.2460(5)
O4I O 0.7540(5) 0.2460(5) 0.1895(7)
C8 C 0.8587(7) 0.3284(11) 0.1413(7)
N2 N 0.8756(5) 0.3109(6) 0.1840(6)
H5 H 0.8585 0.2880 0.2004
H6 H 0.9041 0.3220 0.1962
N3 N 0.8838(6) 0.3636(8) 0.1162(6)
H7 H 0.8718 0.3753 0.0879
N2W N 0.8160(6) 0.3109(6) 0.1244(5)
H5W H 0.7996 0.2880 0.1415
H6W H 0.8038 0.3220 0.0959
H7W H 0.9121 0.3753 0.1282
N4 N 0.4883(8) 0.1855(6) 0.1855(6)
O5 O 0.4492(9) 0.2402(7) 0.2402(7)
C9 C 0.4868(13) 0.2214(8) 0.2214(8)
H8 H 0.5181 0.2333 0.2333
C10 C 0.4421(13) 0.1663(11) 0.1663(11)
C11 C 0.5363(9) 0.1685(7) 0.1685(7)
H12 H 0.5326 0.1417 0.1418
H13 H 0.5553 0.1561 0.1985
H14 H 0.5542 0.1967 0.1546
Na1 Na 0.2500 0.0000 -0.5000
S1 S 0.3151(2) 0.10856(17) -0.5031(2)
O1 O 0.2986(5) 0.0640(4) -0.4777(4)
O2 O 0.2806(5) 0.1270(5) -0.5390(6)
O3 O 0.3675(5) 0.1056(4) -0.5167(5)
C1 C 0.3105(4) 0.2723(4) -0.3470(4)
C2 C 0.3099(5) 0.2318(5) -0.3855(4)
C3 C 0.3355(5) 0.2391(6) -0.4299(5)
H1 H 0.3511 0.2703 -0.4366
C4 C 0.3382(6) 0.2003(6) -0.4651(6)
H2 H 0.3587 0.2033 -0.4940
C5 C 0.3099(6) 0.1570(5) -0.4565(5)
C6 C 0.2855(5) 0.1527(5) -0.4130(6)
H3 H 0.2676 0.1227 -0.4066
C7 C 0.2851(5) 0.1889(5) -0.3775(4)
H4 H 0.2673 0.1840 -0.3472
S1W S 0.5031(2) 0.10856(17) -0.3151(2)
S1N S 0.5031(2) 0.3151(2) -0.10856(17)
S1F S 0.3151(2) 0.5031(2) -0.10856(17)
S1S S 0.10856(17) 0.5031(2) -0.3151(2)
S1J S 0.10856(17) 0.3151(2) -0.5031(2)
O1W O 0.4777(4) 0.0640(4) -0.2986(5)
O1N O 0.4777(4) 0.2986(5) -0.0640(4)
O1F O 0.2986(5) 0.4777(4) -0.0640(4)
O1S O 0.0640(4) 0.4777(4) -0.2986(5)
O1J O 0.0640(4) 0.2986(5) -0.4777(4)
O2W O 0.5390(6) 0.1270(5) -0.2806(5)
O2N O 0.5390(6) 0.2806(5) -0.1270(5)
O2F O 0.2806(5) 0.5390(6) -0.1270(5)
O2S O 0.1270(5) 0.5390(6) -0.2806(5)
O2J O 0.1270(5) 0.2806(5) -0.5390(6)
O3W O 0.5167(5) 0.1056(4) -0.3675(5)
O3N O 0.5167(5) 0.3675(5) -0.1056(4)
O3F O 0.3675(5) 0.5167(5) -0.1056(4)
O3S O 0.1056(4) 0.5167(5) -0.3675(5)
O3J O 0.1056(4) 0.3675(5) -0.5167(5)
C1J C 0.2723(4) 0.3105(4) -0.3470(4)
C1S C 0.2723(4) 0.3470(4) -0.3105(4)
C1F C 0.3105(4) 0.3470(4) -0.2723(4)
C1N C 0.3470(4) 0.3105(4) -0.2723(4)
C1W C 0.3470(4) 0.2723(4) -0.3105(4)
C2W C 0.3855(4) 0.2318(5) -0.3099(5)
C2N C 0.3855(4) 0.3099(5) -0.2318(5)
C2F C 0.3099(5) 0.3855(4) -0.2318(5)
C2S C 0.2318(5) 0.3855(4) -0.3099(5)
C2J C 0.2318(5) 0.3099(5) -0.3855(4)
C3W C 0.4299(5) 0.2391(6) -0.3355(5)
C3N C 0.4299(5) 0.3355(5) -0.2391(6)
C3F C 0.3355(5) 0.4299(5) -0.2391(6)
C3S C 0.2391(6) 0.4299(5) -0.3355(5)
C3J C 0.2391(6) 0.3355(5) -0.4299(5)
H1W H 0.4366 0.2703 -0.3511
H1N H 0.4366 0.3511 -0.2703
H1F H 0.3511 0.4366 -0.2703
H1S H 0.2703 0.4366 -0.3511
H1J H 0.2703 0.3511 -0.4366
C4W C 0.4651(6) 0.2003(6) -0.3382(6)
C4N C 0.4651(6) 0.3382(6) -0.2003(6)
C4F C 0.3382(6) 0.4651(6) -0.2003(6)
C4S C 0.2003(6) 0.4651(6) -0.3382(6)
C4J C 0.2003(6) 0.3382(6) -0.4651(6)
H2W H 0.4940 0.2033 -0.3587
H2N H 0.4940 0.3587 -0.2033
H2F H 0.3587 0.4940 -0.2033
H2S H 0.2033 0.4940 -0.3587
H2J H 0.2033 0.3587 -0.4940
C5W C 0.4565(5) 0.1570(5) -0.3099(6)
C5N C 0.4565(5) 0.3099(6) -0.1570(5)
C5F C 0.3099(6) 0.4565(5) -0.1570(5)
C5S C 0.1570(5) 0.4565(5) -0.3099(6)
C5J C 0.1570(5) 0.3099(6) -0.4565(5)
C6W C 0.4130(6) 0.1527(5) -0.2855(5)
C6N C 0.4130(6) 0.2855(5) -0.1527(5)
C6F C 0.2855(5) 0.4130(6) -0.1527(5)
C6S C 0.1527(5) 0.4130(6) -0.2855(5)
C6J C 0.1527(5) 0.2855(5) -0.4130(6)
H3W H 0.4066 0.1227 -0.2676
H3N H 0.4066 0.2676 -0.1227
H3F H 0.2676 0.4066 -0.1227
H3S H 0.1227 0.4066 -0.2676
H3J H 0.1227 0.2676 -0.4066
C7W C 0.3775(4) 0.1889(5) -0.2851(5)
C7N C 0.3775(4) 0.2851(5) -0.1889(5)
C7F C 0.2851(5) 0.3775(4) -0.1889(5)
C7S C 0.1889(5) 0.3775(4) -0.2851(5)
C7J C 0.1889(5) 0.2851(5) -0.3775(4)
H4W H 0.3472 0.1840 -0.2673
H4N H 0.3472 0.2673 -0.1840
H4F H 0.2673 0.3472 -0.1840
H4S H 0.1840 0.3472 -0.2673
H4J H 0.1840 0.2673 -0.3472
H9? H 0.4316 0.1862 0.1369
H10? H 0.4159 0.1670 0.1913
H11? H 0.4478 0.1316 0.1552
loop_
_geom_bond_atom_site_label_1
_geom_bond_atom_site_label_2
_geom_bond_site_symmetry_1
_geom_bond_site_symmetry_2
S1 O1 1_555 1_555
O2 S1 1_555 1_555
O3 S1 1_555 1_555
C1 C2 1_555 1_555
C2 C3 1_555 1_555
C3 H1 1_555 1_555
C4 C3 1_555 1_555
H2 C4 1_555 1_555
C5 S1 1_555 1_555
C6 C5 1_555 1_555
H3 C6 1_555 1_555
C7 C2 1_555 1_555
H4 C7 1_555 1_555
N1 O4 1_555 1_555
C8 N2 1_555 1_555
N2 H5 1_555 1_555
H6 N2 1_555 1_555
N3 C8 1_555 1_555
H7 N3 1_555 1_555
N4 C9 1_555 1_555
O5 C9 1_555 1_555
C9 H8 1_555 1_555
C10 N4 1_555 1_555
C11 N4 1_555 1_555
H12 C11 1_555 1_555
H13 C11 1_555 1_555
H14 C11 1_555 1_555
S1W O1W 1_555 1_555
S1N O1N 1_555 1_555
S1F O1F 1_555 1_555
S1S O1S 1_555 1_555
S1J O1J 1_555 1_555
O2W S1W 1_555 1_555
O2N S1N 1_555 1_555
O2F S1F 1_555 1_555
O2S S1S 1_555 1_555
O2J S1J 1_555 1_555
O3W S1W 1_555 1_555
O3N S1N 1_555 1_555
O3F S1F 1_555 1_555
O3S S1S 1_555 1_555
O3J S1J 1_555 1_555
C1J C1 1_555 1_555
C1S C1J 1_555 1_555
C1F C1S 1_555 1_555
C1N C1F 1_555 1_555
C1W C1 1_555 1_555
C2W C1W 1_555 1_555
C2N C1N 1_555 1_555
C2F C1F 1_555 1_555
C2S C1S 1_555 1_555
C2J C1J 1_555 1_555
C3W C2W 1_555 1_555
C3N C2N 1_555 1_555
C3F C2F 1_555 1_555
C3S C2S 1_555 1_555
C3J C2J 1_555 1_555
H1W C3W 1_555 1_555
H1N C3N 1_555 1_555
H1F C3F 1_555 1_555
H1S C3S 1_555 1_555
H1J C3J 1_555 1_555
C4W C3W 1_555 1_555
C4N C3N 1_555 1_555
C4F C3F 1_555 1_555
C4S C3S 1_555 1_555
C4J C3J 1_555 1_555
H2W C4W 1_555 1_555
H2N C4N 1_555 1_555
H2F C4F 1_555 1_555
H2S C4S 1_555 1_555
H2J C4J 1_555 1_555
C5W S1W 1_555 1_555
C5N S1N 1_555 1_555
C5F S1F 1_555 1_555
C5S S1S 1_555 1_555
C5J S1J 1_555 1_555
C6W C5W 1_555 1_555
C6N C5N 1_555 1_555
C6F C5F 1_555 1_555
C6S C5S 1_555 1_555
C6J C5J 1_555 1_555
H3W C6W 1_555 1_555
H3N C6N 1_555 1_555
H3F C6F 1_555 1_555
H3S C6S 1_555 1_555
H3J C6J 1_555 1_555
C7W C2W 1_555 1_555
C7N C2N 1_555 1_555
C7F C2F 1_555 1_555
C7S C2S 1_555 1_555
C7J C2J 1_555 1_555
H4W C7W 1_555 1_555
H4N C7N 1_555 1_555
H4F C7F 1_555 1_555
H4S C7S 1_555 1_555
H4J C7J 1_555 1_555
O4E N1 1_555 1_555
O4I N1 1_555 1_555
N2W C8 1_555 1_555
H5W N2W 1_555 1_555
H6W N2W 1_555 1_555
H7W N3 1_555 1_555
C4 C5 1_555 1_555
C6 C7 1_555 1_555
C1N C1W 1_555 1_555
C4W C5W 1_555 1_555
C4N C5N 1_555 1_555
C4F C5F 1_555 1_555
C4S C5S 1_555 1_555
C4J C5J 1_555 1_555
C6W C7W 1_555 1_555
C6N C7N 1_555 1_555
C6F C7F 1_555 1_555
C6S C7S 1_555 1_555
C6J C7J 1_555 1_555

#END
