
#######################################################################
#
#                 Cambridge Crystallographic Data Centre
#                                CCDC 
#
#######################################################################
#
# If this CIF has been generated from an entry in the Cambridge 
# Structural Database, then it will include bibliographic, chemical, 
# crystal, experimental, refinement or atomic coordinate data resulting 
# from the CCDC's data processing and validation procedures.
#
#######################################################################

data_UTUJIE
_chemical_formula_moiety         'C17 H27 N2 O3 1+,F6 P1 1-'
_chemical_name_systematic        
'3-carbamoyl-1-(10-carboxydecyl)pyridinium hexafluorophosphate'
_symmetry_cell_setting           triclinic
_symmetry_space_group_name_H-M   'P -1'
_symmetry_Int_Tables_number      2
_space_group_name_Hall           '-P 1'
loop_
_symmetry_equiv_pos_site_id
_symmetry_equiv_pos_as_xyz
1 x,y,z
2 -x,-y,-z
_cell_length_a                   6.241(4)
_cell_length_b                   9.506(7)
_cell_length_c                   18.651(13)
_cell_angle_alpha                99.873(15)
_cell_angle_beta                 93.890(15)
_cell_angle_gamma                105.674(14)
_cell_volume                     1041.95
_exptl_crystal_colour            colorless
_exptl_crystal_description       Columnar
_cell_formula_units_Z            2
loop_
_atom_site_label
_atom_site_type_symbol
_atom_site_fract_x
_atom_site_fract_y
_atom_site_fract_z
P1 P 0.31441(15) 0.17201(11) 0.41246(5)
F1 F 0.5641(4) 0.1604(4) 0.41842(15)
F2 F 0.0675(4) 0.1830(4) 0.40564(16)
F3 F 0.2278(6) 0.0071(3) 0.36537(18)
F4 F 0.4011(7) 0.3333(4) 0.4596(3)
F5 F 0.2784(5) 0.1075(5) 0.48483(16)
F6 F 0.3535(5) 0.2339(4) 0.33830(17)
O1 O 0.3804(5) 0.3634(3) 0.72101(17)
O2 O -0.0939(5) 0.9432(3) 1.22058(16)
O3 O -0.0078(5) 0.7315(3) 1.22234(17)
H1 H -0.1340 0.7060 1.2373
N1 N 1.0015(4) 0.5684(3) 0.67702(14)
N2 N 0.3641(6) 0.1413(4) 0.6530(2)
H2 H 0.2370 0.0970 0.6680
H3 H 0.4274 0.0896 0.6218
C1 C 0.7979(5) 0.4968(3) 0.69148(18)
H4 H 0.7333 0.5431 0.7301
C2 C 0.6787(5) 0.3571(4) 0.65163(18)
C3 C 0.7708(6) 0.2946(4) 0.59317(19)
H5 H 0.6922 0.1998 0.5642
C4 C 0.9774(6) 0.3713(4) 0.5775(2)
H6 H 1.0409 0.3302 0.5370
C5 C 1.0913(6) 0.5064(4) 0.6202(2)
H7 H 1.2355 0.5574 0.6098
C6 C 1.1294(6) 0.7146(4) 0.7243(2)
H8 H 1.0242 0.7730 0.7387
H9 H 1.2377 0.7716 0.6959
C7 C 1.2554(6) 0.6945(4) 0.7931(2)
H10 H 1.3608 0.7922 0.8168
H11 H 1.3460 0.6261 0.7779
C8 C 1.1109(6) 0.6337(4) 0.8505(2)
H12 H 0.9995 0.5385 0.8266
H13 H 1.2083 0.6119 0.8887
C9 C 0.9883(7) 0.7383(4) 0.8870(2)
H14 H 0.8981 0.7650 0.8486
H15 H 1.1001 0.8311 0.9135
C10 C 0.8348(7) 0.6744(4) 0.9405(2)
H16 H 0.7127 0.5880 0.9132
H17 H 0.9211 0.6380 0.9761
C11 C 0.7329(7) 0.7866(4) 0.9821(2)
H18 H 0.6503 0.8245 0.9462
H19 H 0.8557 0.8721 1.0098
C12 C 0.5745(6) 0.7266(4) 1.0352(2)
H20 H 0.6554 0.6880 1.0712
H21 H 0.4490 0.6426 1.0078
C13 C 0.4808(7) 0.8455(4) 1.0758(2)
H22 H 0.6064 0.9262 1.1054
H23 H 0.4102 0.8889 1.0393
C14 C 0.3098(6) 0.7886(4) 1.1257(2)
H24 H 0.1792 0.7121 1.0960
H25 H 0.3770 0.7407 1.1608
C15 C 0.2310(7) 0.9120(4) 1.1678(2)
H26 H 0.3553 0.9751 1.2052
H27 H 0.2014 0.9750 1.1333
C16 C 0.0259(6) 0.8657(4) 1.2055(2)
C17 C 0.4608(6) 0.2863(4) 0.6776(2)
loop_
_geom_bond_atom_site_label_1
_geom_bond_atom_site_label_2
_geom_bond_site_symmetry_1
_geom_bond_site_symmetry_2
P1 F1 1_555 1_555
F2 P1 1_555 1_555
F3 P1 1_555 1_555
F4 P1 1_555 1_555
F5 P1 1_555 1_555
F6 P1 1_555 1_555
O1 C17 1_555 1_555
O2 C16 1_555 1_555
O3 H1 1_555 1_555
N1 C1 1_555 1_555
N2 H2 1_555 1_555
H3 N2 1_555 1_555
C1 H4 1_555 1_555
C2 C1 1_555 1_555
C3 C2 1_555 1_555
H5 C3 1_555 1_555
C4 C3 1_555 1_555
H6 C4 1_555 1_555
C5 N1 1_555 1_555
H7 C5 1_555 1_555
C6 N1 1_555 1_555
H8 C6 1_555 1_555
H9 C6 1_555 1_555
C7 C6 1_555 1_555
H10 C7 1_555 1_555
H11 C7 1_555 1_555
C8 C7 1_555 1_555
H12 C8 1_555 1_555
H13 C8 1_555 1_555
C9 C8 1_555 1_555
H14 C9 1_555 1_555
H15 C9 1_555 1_555
C10 C9 1_555 1_555
H16 C10 1_555 1_555
H17 C10 1_555 1_555
C11 C10 1_555 1_555
H18 C11 1_555 1_555
H19 C11 1_555 1_555
C12 C11 1_555 1_555
H20 C12 1_555 1_555
H21 C12 1_555 1_555
C13 C12 1_555 1_555
H22 C13 1_555 1_555
H23 C13 1_555 1_555
C14 C13 1_555 1_555
H24 C14 1_555 1_555
H25 C14 1_555 1_555
C15 C14 1_555 1_555
H26 C15 1_555 1_555
H27 C15 1_555 1_555
C16 O3 1_555 1_555
C17 N2 1_555 1_555
C2 C17 1_555 1_555
C4 C5 1_555 1_555
C15 C16 1_555 1_555

#END
