
#######################################################################
#
#                 Cambridge Crystallographic Data Centre
#                                CCDC 
#
#######################################################################
#
# If this CIF has been generated from an entry in the Cambridge 
# Structural Database, then it will include bibliographic, chemical, 
# crystal, experimental, refinement or atomic coordinate data resulting 
# from the CCDC's data processing and validation procedures.
#
#######################################################################

data_UTUJUQ
_chemical_formula_moiety         'C17 H27 N2 O3 1+,Br1 1-'
_chemical_name_systematic        
'3-carbamoyl-1-(10-carboxydecyl)pyridinium bromide'
_symmetry_cell_setting           triclinic
_symmetry_space_group_name_H-M   'P -1'
_symmetry_Int_Tables_number      2
_space_group_name_Hall           '-P 1'
loop_
_symmetry_equiv_pos_site_id
_symmetry_equiv_pos_as_xyz
1 x,y,z
2 -x,-y,-z
_cell_length_a                   4.6813(3)
_cell_length_b                   8.4396(5)
_cell_length_c                   23.3456(15)
_cell_angle_alpha                80.193(2)
_cell_angle_beta                 88.216(2)
_cell_angle_gamma                80.574(2)
_cell_volume                     896.59
_exptl_crystal_colour            colorless
_exptl_crystal_description       Acicular
_cell_formula_units_Z            2
loop_
_atom_site_label
_atom_site_type_symbol
_atom_site_fract_x
_atom_site_fract_y
_atom_site_fract_z
Br1 Br 0.96037(5) 0.00558(3) 0.861574(9)
O1 O -0.0715(3) 0.7335(2) 0.01593(7)
O2 O 0.9860(4) 0.7643(2) 0.73074(8)
O3 O 0.6593(4) 0.9798(2) 0.74268(8)
H1 H 0.7550 0.9744 0.7730
N1 N 0.6659(4) 0.5459(2) 0.15081(8)
N2 N 0.3286(4) 0.8501(2) -0.00762(8)
H2 H 0.2413 0.9217 -0.0361
H3 H 0.5114 0.8501 0.0001
C1 C 0.5319(5) 0.6607(3) 0.10876(9)
H4 H 0.5639 0.7702 0.1053
C2 C 0.3478(5) 0.6193(3) 0.07067(9)
C3 C 0.3017(5) 0.4582(3) 0.07708(9)
H5 H 0.1698 0.4285 0.0523
C4 C 0.4481(5) 0.3416(3) 0.11959(10)
H6 H 0.4228 0.2309 0.1234
C5 C 0.6305(5) 0.3881(3) 0.15629(10)
H7 H 0.7323 0.3090 0.1857
C6 C 0.8447(5) 0.5938(3) 0.19470(9)
H8 H 0.9125 0.6974 0.1784
H9 H 1.0167 0.5090 0.2045
C7 C 0.6656(5) 0.6144(3) 0.24932(9)
H10 H 0.4980 0.7022 0.2395
H11 H 0.5901 0.5122 0.2643
C8 C 0.8446(5) 0.6561(3) 0.29634(9)
H12 H 0.9065 0.7628 0.2825
H13 H 1.0208 0.5730 0.3037
C9 C 0.6758(5) 0.6634(3) 0.35302(9)
H14 H 0.4999 0.7466 0.3454
H15 H 0.6123 0.5568 0.3663
C10 C 0.8466(5) 0.7038(3) 0.40160(9)
H16 H 0.9219 0.8066 0.3876
H17 H 1.0146 0.6163 0.4116
C11 C 0.6645(5) 0.7219(3) 0.45617(10)
H18 H 0.5002 0.8118 0.4462
H19 H 0.5832 0.6205 0.4690
C12 C 0.8305(5) 0.7565(3) 0.50639(9)
H20 H 0.9249 0.8530 0.4928
H21 H 0.9849 0.6626 0.5186
C13 C 0.6400(5) 0.7874(3) 0.55860(9)
H22 H 0.5361 0.6939 0.5706
H23 H 0.4931 0.8854 0.5468
C14 C 0.8062(5) 0.8121(3) 0.61055(10)
H24 H 0.9237 0.8994 0.5979
H25 H 0.9405 0.7105 0.6248
C15 C 0.6073(5) 0.8577(3) 0.66032(10)
H26 H 0.4905 0.9663 0.6477
H27 H 0.4724 0.7779 0.6696
C16 C 0.7740(5) 0.8612(3) 0.71447(10)
C17 C 0.1843(5) 0.7421(3) 0.02378(9)
loop_
_geom_bond_atom_site_label_1
_geom_bond_atom_site_label_2
_geom_bond_site_symmetry_1
_geom_bond_site_symmetry_2
O1 C17 1_555 1_555
O2 C16 1_555 1_555
O3 H1 1_555 1_555
N1 C1 1_555 1_555
N2 H2 1_555 1_555
H3 N2 1_555 1_555
C1 H4 1_555 1_555
C2 C1 1_555 1_555
C3 C2 1_555 1_555
H5 C3 1_555 1_555
C4 C3 1_555 1_555
H6 C4 1_555 1_555
C5 N1 1_555 1_555
H7 C5 1_555 1_555
C6 N1 1_555 1_555
H8 C6 1_555 1_555
H9 C6 1_555 1_555
C7 C6 1_555 1_555
H10 C7 1_555 1_555
H11 C7 1_555 1_555
C8 C7 1_555 1_555
H12 C8 1_555 1_555
H13 C8 1_555 1_555
C9 C8 1_555 1_555
H14 C9 1_555 1_555
H15 C9 1_555 1_555
C10 C9 1_555 1_555
H16 C10 1_555 1_555
H17 C10 1_555 1_555
C11 C10 1_555 1_555
H18 C11 1_555 1_555
H19 C11 1_555 1_555
C12 C11 1_555 1_555
H20 C12 1_555 1_555
H21 C12 1_555 1_555
C13 C12 1_555 1_555
H22 C13 1_555 1_555
H23 C13 1_555 1_555
C14 C13 1_555 1_555
H24 C14 1_555 1_555
H25 C14 1_555 1_555
C15 C14 1_555 1_555
H26 C15 1_555 1_555
H27 C15 1_555 1_555
C16 O3 1_555 1_555
C17 N2 1_555 1_555
C2 C17 1_555 1_555
C4 C5 1_555 1_555
C15 C16 1_555 1_555

#END
