
#######################################################################
#
#                 Cambridge Crystallographic Data Centre
#                                CCDC 
#
#######################################################################
#
# If this CIF has been generated from an entry in the Cambridge 
# Structural Database, then it will include bibliographic, chemical, 
# crystal, experimental, refinement or atomic coordinate data resulting 
# from the CCDC's data processing and validation procedures.
#
#######################################################################

data_UTUKAX
_chemical_formula_moiety         'C17 H27 N2 O3 1+,B1 F4 1-'
_chemical_name_systematic        
'3-carbamoyl-1-(10-carboxydecyl)pyridinium tetrafluoroborate'
_symmetry_cell_setting           triclinic
_symmetry_space_group_name_H-M   'P -1'
_symmetry_Int_Tables_number      2
_space_group_name_Hall           '-P 1'
loop_
_symmetry_equiv_pos_site_id
_symmetry_equiv_pos_as_xyz
1 x,y,z
2 -x,-y,-z
_cell_length_a                   6.9325(4)
_cell_length_b                   9.5052(6)
_cell_length_c                   15.5569(10)
_cell_angle_alpha                100.851(3)
_cell_angle_beta                 90.364(2)
_cell_angle_gamma                104.223(2)
_cell_volume                     974.437
_exptl_crystal_colour            yellow
_exptl_crystal_description       lamellar
_cell_formula_units_Z            2
loop_
_atom_site_label
_atom_site_type_symbol
_atom_site_fract_x
_atom_site_fract_y
_atom_site_fract_z
B1 B 0.8823(3) 0.92309(19) 0.82527(12)
F1 F 0.89610(13) 0.77841(10) 0.81743(6)
F2 F 1.02265(18) 1.01328(12) 0.88859(8)
F3 F 0.92469(14) 0.96616(12) 0.74396(7)
F4 F 0.69125(14) 0.93261(11) 0.84512(6)
O1 O 0.80606(15) 0.49208(12) 0.92322(7)
O2 O 1.65911(17) 0.74984(12) 0.21885(8)
O3 O 1.70262(17) 0.96782(13) 0.30899(8)
H1 H 1.8205 0.9780 0.2937
N1 N 0.32386(16) 0.63640(13) 0.86584(8)
N2 N 0.89500(18) 0.66083(14) 1.04839(8)
H2 H 0.9966 0.6262 1.0604
H3 H 0.8701 0.7368 1.0843
C1 C 0.4842(2) 0.59012(15) 0.88551(9)
H4 H 0.5150 0.5086 0.8478
C2 C 0.60457(19) 0.66026(15) 0.96024(9)
C3 C 0.5546(2) 0.77688(15) 1.01563(9)
H5 H 0.6346 0.8261 1.0675
C4 C 0.3864(2) 0.82106(16) 0.99450(10)
H6 H 0.3492 0.8997 1.0323
C5 C 0.2745(2) 0.75035(16) 0.91864(9)
H7 H 0.1613 0.7819 0.9032
C6 C 0.1984(2) 0.56144(16) 0.78398(9)
H8 H 0.0583 0.5644 0.7936
H9 H 0.2029 0.4563 0.7697
C7 C 0.2703(2) 0.63559(17) 0.70721(10)
H10 H 0.2747 0.7422 0.7237
H11 H 0.1727 0.5921 0.6567
C8 C 0.4757(2) 0.61945(17) 0.67909(10)
H12 H 0.5740 0.6658 0.7291
H13 H 0.4724 0.5129 0.6645
C9 C 0.5445(2) 0.68924(18) 0.60074(10)
H14 H 0.5416 0.7947 0.6140
H15 H 0.4507 0.6393 0.5496
C10 C 0.7543(2) 0.67837(19) 0.57728(10)
H16 H 0.8476 0.7298 0.6283
H17 H 0.7570 0.5728 0.5657
C11 C 0.8276(2) 0.74402(19) 0.49805(10)
H18 H 0.8143 0.8471 0.5073
H19 H 0.7418 0.6868 0.4457
C12 C 1.0438(2) 0.74401(19) 0.48044(10)
H20 H 1.1313 0.8129 0.5290
H21 H 1.0615 0.6436 0.4798
C13 C 1.1083(2) 0.78913(19) 0.39441(10)
H22 H 1.0844 0.8875 0.3941
H23 H 1.0240 0.7177 0.3458
C14 C 1.3265(2) 0.79621(19) 0.37736(10)
H24 H 1.3570 0.7036 0.3867
H25 H 1.4121 0.8795 0.4197
C15 C 1.3736(2) 0.8171(2) 0.28423(10)
H26 H 1.2958 0.7294 0.2424
H27 H 1.3302 0.9044 0.2735
C16 C 1.5905(2) 0.83840(17) 0.26661(10)
C17 C 0.77957(19) 0.59861(15) 0.97626(9)
loop_
_geom_bond_atom_site_label_1
_geom_bond_atom_site_label_2
_geom_bond_site_symmetry_1
_geom_bond_site_symmetry_2
B1 F1 1_555 1_555
F2 B1 1_555 1_555
F3 B1 1_555 1_555
F4 B1 1_555 1_555
O1 C17 1_555 1_555
O2 C16 1_555 1_555
O3 H1 1_555 1_555
N1 C1 1_555 1_555
N2 H2 1_555 1_555
H3 N2 1_555 1_555
C1 H4 1_555 1_555
C2 C1 1_555 1_555
C3 C2 1_555 1_555
H5 C3 1_555 1_555
C4 C3 1_555 1_555
H6 C4 1_555 1_555
C5 N1 1_555 1_555
H7 C5 1_555 1_555
C6 N1 1_555 1_555
H8 C6 1_555 1_555
H9 C6 1_555 1_555
C7 C6 1_555 1_555
H10 C7 1_555 1_555
H11 C7 1_555 1_555
C8 C7 1_555 1_555
H12 C8 1_555 1_555
H13 C8 1_555 1_555
C9 C8 1_555 1_555
H14 C9 1_555 1_555
H15 C9 1_555 1_555
C10 C9 1_555 1_555
H16 C10 1_555 1_555
H17 C10 1_555 1_555
C11 C10 1_555 1_555
H18 C11 1_555 1_555
H19 C11 1_555 1_555
C12 C11 1_555 1_555
H20 C12 1_555 1_555
H21 C12 1_555 1_555
C13 C12 1_555 1_555
H22 C13 1_555 1_555
H23 C13 1_555 1_555
C14 C13 1_555 1_555
H24 C14 1_555 1_555
H25 C14 1_555 1_555
C15 C14 1_555 1_555
H26 C15 1_555 1_555
H27 C15 1_555 1_555
C16 O3 1_555 1_555
C17 N2 1_555 1_555
C2 C17 1_555 1_555
C4 C5 1_555 1_555
C15 C16 1_555 1_555

#END
