
#######################################################################
#
#                 Cambridge Crystallographic Data Centre
#                                CCDC 
#
#######################################################################
#
# If this CIF has been generated from an entry in the Cambridge 
# Structural Database, then it will include bibliographic, chemical, 
# crystal, experimental, refinement or atomic coordinate data resulting 
# from the CCDC's data processing and validation procedures.
#
#######################################################################

data_UTURAE
_chemical_formula_moiety         'C19 H20 N1 O2 Se1 1+,I3 1-'
_chemical_name_systematic        
'2-(2-(3,4-dimethoxyphenyl)vinyl)-3-ethyl-1,3-benzoselenazolediium triiodide'
_symmetry_cell_setting           monoclinic
_symmetry_space_group_name_H-M   'P 21/c'
_symmetry_Int_Tables_number      14
_space_group_name_Hall           '-P 2ybc'
loop_
_symmetry_equiv_pos_site_id
_symmetry_equiv_pos_as_xyz
1 x,y,z
2 -x,1/2+y,1/2-z
3 -x,-y,-z
4 x,1/2-y,1/2+z
_cell_length_a                   15.2110(3)
_cell_length_b                   14.7644(3)
_cell_length_c                   21.0641(4)
_cell_angle_alpha                90
_cell_angle_beta                 108.775(1)
_cell_angle_gamma                90
_cell_volume                     4478.89
_exptl_crystal_colour            'dark violet'
_exptl_crystal_description       prism
_cell_formula_units_Z            8
loop_
_atom_site_label
_atom_site_type_symbol
_atom_site_fract_x
_atom_site_fract_y
_atom_site_fract_z
I1 I 0.323376(16) 0.886986(15) 0.212573(10)
I2 I 0.514349(16) 0.854728(16) 0.223239(11)
I3 I 0.124738(17) 0.916458(17) 0.200890(11)
I4 I 0.228684(16) 1.048436(17) -0.232369(11)
I5 I 0.220884(17) 0.863304(17) -0.277295(11)
I6 I 0.245304(17) 1.246977(17) -0.203874(11)
Se1 Se 0.34768(2) 1.13453(2) -0.048662(15)
O1 O 0.39186(17) 0.60720(15) 0.05963(11)
O2 O 0.28788(16) 0.55161(15) -0.05301(11)
N1 N 0.47071(17) 1.12068(17) 0.07522(12)
C1 C 0.4136(2) 1.0687(2) 0.02812(15)
C2 C 0.4067(2) 1.2382(2) -0.00178(15)
C3 C 0.4682(2) 1.2140(2) 0.06110(15)
C4 C 0.5202(2) 1.2808(2) 0.10402(16)
C5 C 0.5082(2) 1.3695(2) 0.08282(17)
C6 C 0.4454(2) 1.3931(2) 0.02064(18)
C7 C 0.3948(2) 1.3276(2) -0.02201(16)
C8 C 0.4031(2) 0.9725(2) 0.03284(15)
C9 C 0.3463(2) 0.9254(2) -0.01875(15)
C10 C 0.3293(2) 0.8285(2) -0.02535(15)
C11 C 0.3718(2) 0.7653(2) 0.02599(15)
C12 C 0.3556(2) 0.6742(2) 0.01480(15)
C13 C 0.2963(2) 0.6432(2) -0.04847(16)
C14 C 0.2540(2) 0.7040(2) -0.09840(15)
C15 C 0.2704(2) 0.7960(2) -0.08639(15)
C16 C 0.4498(3) 0.6331(2) 0.12519(15)
C17 C 0.2331(3) 0.5147(2) -0.11682(17)
C18 C 0.5327(2) 1.0872(2) 0.14032(15)
C19 C 0.4909(3) 1.1016(2) 0.19580(16)
H1 H 0.3526(2) 1.3436(2) -0.06461(16)
H2 H 0.4375(2) 1.4550(2) 0.00766(18)
H3 H 0.5435(2) 1.4156(2) 0.11118(17)
H4 H 0.5627(2) 1.2654(2) 0.14666(16)
H5 H 0.2407(2) 0.8380(2) -0.12076(15)
H6 H 0.2141(2) 0.6835(2) -0.14056(15)
H7 H 0.4116(2) 0.7859(2) 0.06819(15)
H8 H 0.4367(2) 0.9417(2) 0.07293(15)
H9 H 0.3122(2) 0.9607(2) -0.05637(15)
H10 H 0.5033(9) 0.6673(15) 0.12165(18)
H11 H 0.4143(6) 0.6711(14) 0.1463(5)
H12 H 0.4716(14) 0.5788(3) 0.1525(4)
H13 H 0.2645(9) 0.5259(15) -0.1500(4)
H14 H 0.2257(15) 0.4493(4) -0.1124(3)
H15 H 0.1719(7) 0.5437(12) -0.1314(6)
H16 H 0.5445(2) 1.0218(2) 0.13656(15)
H17 H 0.5930(2) 1.1192(2) 0.15177(15)
H18 H 0.4316(8) 1.0694(14) 0.1848(6)
H19 H 0.5335(8) 1.0783(15) 0.2381(3)
H20 H 0.4806(16) 1.1664(3) 0.2004(8)
Se2 Se 0.14494(2) 0.78143(2) 0.043270(16)
O3 O 0.10385(16) 1.30956(16) -0.06653(11)
O4 O 0.21805(16) 1.36856(16) 0.04159(11)
N2 N 0.02417(18) 0.80481(18) -0.07987(12)
C20 C 0.0780(2) 0.8533(2) -0.02916(16)
C21 C 0.0912(2) 0.6821(2) -0.01064(16)
C22 C 0.0298(2) 0.7103(2) -0.07227(16)
C23 C -0.0170(2) 0.6470(2) -0.12006(18)
C24 C -0.0005(3) 0.5562(3) -0.1050(2)
C25 C 0.0629(3) 0.5281(3) -0.04344(19)
C26 C 0.1088(2) 0.5907(2) 0.00424(18)
C27 C 0.0860(2) 0.9500(2) -0.02966(16)
C28 C 0.1444(2) 0.9964(2) 0.02232(16)
C29 C 0.1606(2) 1.0932(2) 0.02709(16)
C30 C 0.1178(2) 1.1539(2) -0.02565(15)
C31 C 0.1385(2) 1.2444(2) -0.01913(15)
C32 C 0.2026(2) 1.2781(2) 0.04157(16)
C33 C 0.2440(2) 1.2196(2) 0.09388(16)
C34 C 0.2229(2) 1.1274(2) 0.08580(16)
C35 C 0.0396(2) 1.2808(3) -0.12872(16)
C36 C 0.2831(3) 1.4068(3) 0.10097(17)
C37 C -0.0350(2) 0.8458(2) -0.14344(16)
C38 C 0.0177(3) 0.8572(3) -0.19288(17)
H21 H 0.1513(2) 0.5720(2) 0.04604(18)
H22 H 0.0742(3) 0.4654(3) -0.03466(19)
H23 H -0.0326(3) 0.5120(3) -0.1368(2)
H24 H -0.0593(2) 0.6656(2) -0.16195(18)
H25 H 0.2519(2) 1.0870(2) 0.12146(16)
H26 H 0.2861(2) 1.2418(2) 0.13470(16)
H27 H 0.0743(2) 1.1318(2) -0.06591(15)
H28 H 0.0491(2) 0.9826(2) -0.06780(16)
H29 H 0.1786(2) 0.9614(2) 0.06003(16)
H30 H 0.0182(12) 1.3335(3) -0.1580(5)
H31 H 0.0700(5) 1.2378(12) -0.1503(6)
H32 H -0.0136(8) 1.2515(14) -0.1207(2)
H33 H 0.2949(13) 1.4702(5) 0.0926(4)
H34 H 0.2572(8) 1.4037(15) 0.1379(4)
H35 H 0.3414(6) 1.3727(10) 0.1129(7)
H36 H -0.0898(2) 0.8067(2) -0.16350(16)
H37 H -0.0574(2) 0.9056(2) -0.13400(16)
H38 H -0.0233(6) 0.8840(16) -0.2344(5)
H39 H 0.0712(10) 0.8971(14) -0.1735(5)
H40 H 0.0394(15) 0.7980(3) -0.2027(10)
loop_
_geom_bond_atom_site_label_1
_geom_bond_atom_site_label_2
_geom_bond_site_symmetry_1
_geom_bond_site_symmetry_2
I1 I2 1_555 1_555
I3 I1 1_555 1_555
I4 I5 1_555 1_555
I6 I4 1_555 1_555
Se1 C1 1_555 1_555
O1 C12 1_555 1_555
O2 C13 1_555 1_555
N1 C1 1_555 1_555
C1 C8 1_555 1_555
C2 Se1 1_555 1_555
C3 N1 1_555 1_555
C4 C3 1_555 1_555
C5 C4 1_555 1_555
C6 C5 1_555 1_555
C7 C2 1_555 1_555
C8 C9 1_555 1_555
C9 C10 1_555 1_555
C10 C11 1_555 1_555
C11 C12 1_555 1_555
C12 C13 1_555 1_555
C13 C14 1_555 1_555
C14 C15 1_555 1_555
C15 C10 1_555 1_555
C16 O1 1_555 1_555
C17 O2 1_555 1_555
C18 N1 1_555 1_555
C19 C18 1_555 1_555
H1 C7 1_555 1_555
H2 C6 1_555 1_555
H3 C5 1_555 1_555
H4 C4 1_555 1_555
H5 C15 1_555 1_555
H6 C14 1_555 1_555
H7 C11 1_555 1_555
H8 C8 1_555 1_555
H9 C9 1_555 1_555
H10 C16 1_555 1_555
H11 C16 1_555 1_555
H12 C16 1_555 1_555
H13 C17 1_555 1_555
H14 C17 1_555 1_555
H15 C17 1_555 1_555
H16 C18 1_555 1_555
H17 C18 1_555 1_555
H18 C19 1_555 1_555
H19 C19 1_555 1_555
H20 C19 1_555 1_555
Se2 C20 1_555 1_555
O3 C31 1_555 1_555
O4 C32 1_555 1_555
N2 C20 1_555 1_555
C20 C27 1_555 1_555
C21 Se2 1_555 1_555
C22 N2 1_555 1_555
C23 C22 1_555 1_555
C24 C23 1_555 1_555
C25 C24 1_555 1_555
C26 C21 1_555 1_555
C27 C28 1_555 1_555
C28 C29 1_555 1_555
C29 C30 1_555 1_555
C30 C31 1_555 1_555
C31 C32 1_555 1_555
C32 C33 1_555 1_555
C33 C34 1_555 1_555
C34 C29 1_555 1_555
C35 O3 1_555 1_555
C36 O4 1_555 1_555
C37 N2 1_555 1_555
C38 C37 1_555 1_555
H21 C26 1_555 1_555
H22 C25 1_555 1_555
H23 C24 1_555 1_555
H24 C23 1_555 1_555
H25 C34 1_555 1_555
H26 C33 1_555 1_555
H27 C30 1_555 1_555
H28 C27 1_555 1_555
H29 C28 1_555 1_555
H30 C35 1_555 1_555
H31 C35 1_555 1_555
H32 C35 1_555 1_555
H33 C36 1_555 1_555
H34 C36 1_555 1_555
H35 C36 1_555 1_555
H36 C37 1_555 1_555
H37 C37 1_555 1_555
H38 C38 1_555 1_555
H39 C38 1_555 1_555
H40 C38 1_555 1_555
C2 C3 1_555 1_555
C6 C7 1_555 1_555
C21 C22 1_555 1_555
C25 C26 1_555 1_555

#END
