
#######################################################################
#
#                 Cambridge Crystallographic Data Centre
#                                CCDC 
#
#######################################################################
#
# If this CIF has been generated from an entry in the Cambridge 
# Structural Database, then it will include bibliographic, chemical, 
# crystal, experimental, refinement or atomic coordinate data resulting 
# from the CCDC's data processing and validation procedures.
#
#######################################################################

data_UVADEB
_chemical_formula_moiety         'C22 H25 Br1 N2 O3 S3'
_chemical_name_systematic        
N-((2-Bromophenyl)(2-(ethylsulfanyl)-4-isopropyl-5-oxo-4,5-dihydro-1,3-thiazol-4-yl)methyl)-4-methylbenzenesulfonamide
_symmetry_cell_setting           orthorhombic
_symmetry_space_group_name_H-M   'P 21 21 21'
_symmetry_Int_Tables_number      19
_space_group_name_Hall           'P 2ac 2ab'
loop_
_symmetry_equiv_pos_site_id
_symmetry_equiv_pos_as_xyz
1 x,y,z
2 1/2-x,-y,1/2+z
3 -x,1/2+y,1/2-z
4 1/2+x,1/2-y,-z
_cell_length_a                   7.7364(15)
_cell_length_b                   13.139(3)
_cell_length_c                   24.286(5)
_cell_angle_alpha                90
_cell_angle_beta                 90
_cell_angle_gamma                90
_cell_volume                     2468.64
_exptl_crystal_colour            colorless
_exptl_crystal_description       block
_cell_formula_units_Z            4
_chemical_properties_physical    'Moisture-, heat- and oxygen-sensitive'
loop_
_atom_site_label
_atom_site_type_symbol
_atom_site_fract_x
_atom_site_fract_y
_atom_site_fract_z
Br1 Br 0.20976(5) 1.11179(3) 0.154679(19)
C1 C 0.4381(5) 1.0679(3) 0.13587(14)
C2 C 0.5651(5) 1.1415(3) 0.13794(15)
H1 H 0.5396 1.2067 0.1504
C3 C 0.7311(5) 1.1169(3) 0.12129(16)
H2 H 0.8177 1.1660 0.1220
C4 C 0.7676(5) 1.0203(3) 0.10375(14)
H3 H 0.8790 1.0036 0.0926
C5 C 0.6397(4) 0.9478(3) 0.10262(14)
H4 H 0.6668 0.8824 0.0908
C6 C 0.4703(5) 0.9693(3) 0.11862(13)
C7 C 0.3299(4) 0.8883(3) 0.11621(13)
H5 H 0.2187 0.9241 0.1158
C8 C 0.3300(4) 0.8177(3) 0.16840(14)
C9 C 0.5066(5) 0.7650(3) 0.17308(15)
C10 C 0.4294(5) 0.8827(3) 0.24873(14)
C11 C 0.1856(5) 0.7357(3) 0.16662(15)
H6 H 0.2140 0.6891 0.1365
C12 C 0.0097(5) 0.7800(3) 0.1541(2)
H7 H -0.0200 0.8291 0.1818
H8 H -0.0749 0.7265 0.1538
H9 H 0.0122 0.8125 0.1187
C13 C 0.1857(6) 0.6726(3) 0.22018(16)
H10 H 0.1499 0.7147 0.2504
H11 H 0.3001 0.6473 0.2271
H12 H 0.1072 0.6164 0.2164
C14 C 0.2240(7) 0.9986(3) 0.31603(19)
H13 H 0.2222 1.0521 0.3435
H14 H 0.1909 1.0287 0.2811
C15 C 0.0947(8) 0.9210(4) 0.3311(2)
H15 H 0.1398 0.8790 0.3601
H16 H 0.0693 0.8795 0.2996
H17 H -0.0091 0.9538 0.3435
C16 C 0.4134(6) 1.0567(3) -0.00938(15)
H18 H 0.3120 1.0854 0.0041
C17 C 0.5529(7) 1.1179(3) -0.02225(17)
H19 H 0.5442 1.1880 -0.0174
C18 C 0.7038(7) 1.0773(3) -0.04209(16)
C19 C 0.7131(6) 0.9736(3) -0.05030(15)
H20 H 0.8137 0.9451 -0.0645
C20 C 0.5763(5) 0.9123(3) -0.03783(15)
H21 H 0.5850 0.8426 -0.0437
C21 C 0.4256(5) 0.9520(3) -0.01669(13)
C22 C 0.8593(8) 1.1447(4) -0.0528(2)
H22 H 0.8992 1.1344 -0.0898
H23 H 0.9499 1.1276 -0.0274
H24 H 0.8272 1.2147 -0.0479
N1 N 0.3358(4) 0.8245(2) 0.06631(11)
H25 H 0.3761 0.7636 0.0680
N2 N 0.3037(4) 0.8835(2) 0.21580(10)
O1 O 0.5611(4) 0.7031(2) 0.14122(11)
O2 O 0.1150(4) 0.9290(3) 0.02015(12)
O3 O 0.2563(5) 0.7842(2) -0.02828(10)
S1 S 0.61261(15) 0.80697(10) 0.23373(5)
S2 S 0.44190(19) 0.95074(11) 0.31021(5)
S3 S 0.26530(14) 0.87007(9) 0.00775(4)
loop_
_geom_bond_atom_site_label_1
_geom_bond_atom_site_label_2
_geom_bond_site_symmetry_1
_geom_bond_site_symmetry_2
Br1 C1 1_555 1_555
C1 C2 1_555 1_555
C2 H1 1_555 1_555
C3 C2 1_555 1_555
H2 C3 1_555 1_555
C4 C3 1_555 1_555
H3 C4 1_555 1_555
C5 C4 1_555 1_555
H4 C5 1_555 1_555
C6 C1 1_555 1_555
C7 C6 1_555 1_555
H5 C7 1_555 1_555
C8 C7 1_555 1_555
C9 C8 1_555 1_555
C10 N2 1_555 1_555
C11 C8 1_555 1_555
H6 C11 1_555 1_555
C12 C11 1_555 1_555
H7 C12 1_555 1_555
H8 C12 1_555 1_555
H9 C12 1_555 1_555
C13 C11 1_555 1_555
H10 C13 1_555 1_555
H11 C13 1_555 1_555
H12 C13 1_555 1_555
C14 H13 1_555 1_555
H14 C14 1_555 1_555
C15 C14 1_555 1_555
H15 C15 1_555 1_555
H16 C15 1_555 1_555
H17 C15 1_555 1_555
C16 H18 1_555 1_555
C17 C16 1_555 1_555
H19 C17 1_555 1_555
C18 C17 1_555 1_555
C19 C18 1_555 1_555
H20 C19 1_555 1_555
C20 C19 1_555 1_555
H21 C20 1_555 1_555
C21 C16 1_555 1_555
C22 C18 1_555 1_555
H22 C22 1_555 1_555
H23 C22 1_555 1_555
H24 C22 1_555 1_555
N1 C7 1_555 1_555
H25 N1 1_555 1_555
N2 C8 1_555 1_555
O1 C9 1_555 1_555
O2 S3 1_555 1_555
O3 S3 1_555 1_555
S1 C9 1_555 1_555
S2 C10 1_555 1_555
S3 C21 1_555 1_555
C5 C6 1_555 1_555
C10 S1 1_555 1_555
C14 S2 1_555 1_555
C20 C21 1_555 1_555
N1 S3 1_555 1_555

#END
