
#######################################################################
#
#                 Cambridge Crystallographic Data Centre
#                                CCDC 
#
#######################################################################
#
# If this CIF has been generated from an entry in the Cambridge 
# Structural Database, then it will include bibliographic, chemical, 
# crystal, experimental, refinement or atomic coordinate data resulting 
# from the CCDC's data processing and validation procedures.
#
#######################################################################

data_UVAHAB
_chemical_formula_moiety         'C26 H16 S2'
_chemical_name_systematic        
2,7-Diphenylthieno[3',2':5,6]naphtho[2,1-b]thiophene
_symmetry_cell_setting           monoclinic
_symmetry_space_group_name_H-M   'P 21/c'
_symmetry_Int_Tables_number      14
_space_group_name_Hall           '-P 2ybc'
loop_
_symmetry_equiv_pos_site_id
_symmetry_equiv_pos_as_xyz
1 x,y,z
2 -x,1/2+y,1/2-z
3 -x,-y,-z
4 x,1/2-y,1/2+z
_cell_length_a                   9.5175(14)
_cell_length_b                   5.8072(8)
_cell_length_c                   16.988(2)
_cell_angle_alpha                90
_cell_angle_beta                 90.954(2)
_cell_angle_gamma                90
_cell_volume                     938.797
_exptl_crystal_colour            colorless
_exptl_crystal_description       platelet
_cell_formula_units_Z            2
loop_
_atom_site_label
_atom_site_type_symbol
_atom_site_fract_x
_atom_site_fract_y
_atom_site_fract_z
S1 S 0.07798(5) 0.40888(9) 0.69846(3)
C1 C -0.1307(2) 0.2436(3) 0.49845(13)
C2 C -0.05653(18) 0.0415(3) 0.47591(12)
C3 C -0.0969(2) 0.3629(4) 0.56511(14)
C4 C 0.01555(19) 0.2825(3) 0.61319(12)
C5 C 0.09187(19) 0.0845(3) 0.59362(12)
C6 C 0.1997(2) 0.0397(3) 0.65133(13)
C7 C 0.20616(19) 0.1959(3) 0.71122(12)
C8 C 0.29809(19) 0.1979(3) 0.78079(11)
C9 C 0.3953(2) 0.0219(4) 0.79450(13)
C10 C 0.2907(2) 0.3730(4) 0.83732(15)
C11 C 0.3760(3) 0.3703(4) 0.90346(15)
C12 C 0.4803(2) 0.0215(4) 0.86035(15)
C13 C 0.4726(2) 0.1952(4) 0.91585(14)
H1 H -0.2080 0.2964 0.4668
H2 H -0.1460 0.4994 0.5783
H3 H 0.2613 -0.0897 0.6478
H4 H 0.4040 -0.0981 0.7570
H5 H 0.2255 0.4940 0.8310
H6 H 0.3717 0.4953 0.9398
H7 H 0.5465 -0.0991 0.8684
H8 H 0.5304 0.1924 0.9624
S1B S -0.07798(5) -0.40888(9) 0.30154(3)
C1B C 0.1307(2) -0.2436(3) 0.50155(13)
C2B C 0.05653(18) -0.0415(3) 0.52409(12)
C3B C 0.0969(2) -0.3629(4) 0.43489(14)
C4B C -0.01555(19) -0.2825(3) 0.38681(12)
C5B C -0.09187(19) -0.0845(3) 0.40638(12)
C6B C -0.1997(2) -0.0397(3) 0.34867(13)
C7B C -0.20616(19) -0.1959(3) 0.28878(12)
C8B C -0.29809(19) -0.1979(3) 0.21921(11)
C9B C -0.3953(2) -0.0219(4) 0.20550(13)
C10B C -0.2907(2) -0.3730(4) 0.16268(15)
C11B C -0.3760(3) -0.3703(4) 0.09654(15)
C12B C -0.4803(2) -0.0215(4) 0.13965(15)
C13B C -0.4726(2) -0.1952(4) 0.08415(14)
H1B H 0.2080 -0.2964 0.5332
H2B H 0.1460 -0.4994 0.4217
H3B H -0.2613 0.0897 0.3522
H4B H -0.4040 0.0981 0.2430
H5B H -0.2255 -0.4940 0.1690
H6B H -0.3717 -0.4953 0.0602
H7B H -0.5465 0.0991 0.1316
H8B H -0.5304 -0.1924 0.0376
loop_
_geom_bond_atom_site_label_1
_geom_bond_atom_site_label_2
_geom_bond_site_symmetry_1
_geom_bond_site_symmetry_2
S1 C4 1_555 1_555
C1 C2 1_555 1_555
C2 C2B 1_555 1_555
C3 C1 1_555 1_555
C4 C3 1_555 1_555
C5 C4 1_555 1_555
C6 C5 1_555 1_555
C7 S1 1_555 1_555
C8 C7 1_555 1_555
C9 C8 1_555 1_555
C10 C8 1_555 1_555
C11 C10 1_555 1_555
C12 C9 1_555 1_555
C13 C11 1_555 1_555
H1 C1 1_555 1_555
H2 C3 1_555 1_555
H3 C6 1_555 1_555
H4 C9 1_555 1_555
H5 C10 1_555 1_555
H6 C11 1_555 1_555
H7 C12 1_555 1_555
H8 C13 1_555 1_555
S1B C4B 1_555 1_555
C1B C2B 1_555 1_555
C2B C5 1_555 1_555
C3B C1B 1_555 1_555
C4B C3B 1_555 1_555
C5B C2 1_555 1_555
C6B C5B 1_555 1_555
C7B S1B 1_555 1_555
C8B C7B 1_555 1_555
C9B C8B 1_555 1_555
C10B C8B 1_555 1_555
C11B C10B 1_555 1_555
C12B C9B 1_555 1_555
C13B C11B 1_555 1_555
H1B C1B 1_555 1_555
H2B C3B 1_555 1_555
H3B C6B 1_555 1_555
H4B C9B 1_555 1_555
H5B C10B 1_555 1_555
H6B C11B 1_555 1_555
H7B C12B 1_555 1_555
H8B C13B 1_555 1_555
C6 C7 1_555 1_555
C12 C13 1_555 1_555
C4B C5B 1_555 1_555
C6B C7B 1_555 1_555
C12B C13B 1_555 1_555

#END
