
#######################################################################
#
#                 Cambridge Crystallographic Data Centre
#                                CCDC 
#
#######################################################################
#
# If this CIF has been generated from an entry in the Cambridge 
# Structural Database, then it will include bibliographic, chemical, 
# crystal, experimental, refinement or atomic coordinate data resulting 
# from the CCDC's data processing and validation procedures.
#
#######################################################################

data_UVASOA
_chemical_formula_moiety         'C29 H43 N3 O4'
_chemical_name_systematic        
'Prop-2-yn-1-yl 3-(2-azidoacetoxy)cholan-24-oate'
_symmetry_cell_setting           orthorhombic
_symmetry_space_group_name_H-M   'P 21 21 21'
_symmetry_Int_Tables_number      19
_space_group_name_Hall           'P 2ac 2ab'
loop_
_symmetry_equiv_pos_site_id
_symmetry_equiv_pos_as_xyz
1 x,y,z
2 1/2-x,-y,1/2+z
3 -x,1/2+y,1/2-z
4 1/2+x,1/2-y,-z
_cell_length_a                   7.6587(13)
_cell_length_b                   9.9078(13)
_cell_length_c                   36.420(8)
_cell_angle_alpha                90
_cell_angle_beta                 90
_cell_angle_gamma                90
_cell_volume                     2763.58
_exptl_crystal_colour            colorless
_exptl_crystal_description       plate
_cell_formula_units_Z            4
loop_
_atom_site_label
_atom_site_type_symbol
_atom_site_fract_x
_atom_site_fract_y
_atom_site_fract_z
O1 O 0.0815(3) 0.8126(2) 0.28365(4)
O2 O 0.2729(2) 0.82223(17) 0.33086(4)
O3 O 0.3733(3) 0.3484(2) 0.64983(5)
O4 O 0.1517(3) 0.37444(19) 0.68958(4)
N1 N 0.0889(3) 1.0918(3) 0.27523(6)
N2 N 0.1424(4) 1.0745(3) 0.24374(7)
N3 N 0.1743(5) 1.0685(4) 0.21346(7)
C1 C 0.2031(4) 1.0245(3) 0.30281(7)
H1 H 0.3244 1.0418 0.2968
H2 H 0.1803 1.0623 0.3269
C2 C 0.1723(3) 0.8767(3) 0.30377(6)
C3 C 0.4373(3) 0.6419(3) 0.35548(6)
H3 H 0.4461 0.6971 0.3774
H4 H 0.5347 0.6646 0.3396
C4 C 0.2690(3) 0.6750(2) 0.33592(6)
H5 H 0.2692 0.6312 0.3118
C5 C 0.1097(3) 0.6283(3) 0.35727(6)
H6 H 0.1011 0.6784 0.3801
H7 H 0.0049 0.6454 0.3430
C6 C 0.1246(3) 0.4794(3) 0.36538(6)
H8 H 0.1251 0.4304 0.3423
H9 H 0.0219 0.4512 0.3790
C7 C 0.2881(3) 0.4394(2) 0.38741(6)
C8 C 0.4504(3) 0.4924(3) 0.36636(6)
H10 H 0.4575 0.4407 0.3435
C9 C 0.6200(3) 0.4666(3) 0.38718(6)
H11 H 0.7162 0.5075 0.3739
H12 H 0.6411 0.3701 0.3884
C10 C 0.6139(3) 0.5252(3) 0.42695(6)
H13 H 0.7198 0.5002 0.4399
H14 H 0.6092 0.6230 0.4257
C11 C 0.4557(3) 0.4732(3) 0.44818(6)
H15 H 0.4672 0.3753 0.4512
C12 C 0.2853(3) 0.5025(2) 0.42709(5)
H16 H 0.2806 0.6006 0.4237
C13 C 0.1237(3) 0.4647(3) 0.44899(6)
H17 H 0.1162 0.3671 0.4505
H18 H 0.0211 0.4965 0.4360
C14 C 0.1222(3) 0.5238(3) 0.48842(6)
H19 H 0.1114 0.6212 0.4871
H20 H 0.0216 0.4892 0.5016
C15 C 0.2884(3) 0.4874(2) 0.50944(6)
C16 C 0.4438(3) 0.5389(2) 0.48666(6)
H21 H 0.4227 0.6353 0.4825
C17 C 0.6007(3) 0.5304(3) 0.51156(6)
H22 H 0.6870 0.5980 0.5051
H23 H 0.6541 0.4418 0.5103
C18 C 0.5229(3) 0.5580(3) 0.55077(6)
H24 H 0.5541 0.4858 0.5675
H25 H 0.5671 0.6424 0.5605
C19 C 0.3223(3) 0.5650(2) 0.54586(6)
H26 H 0.2931 0.6598 0.5413
C20 C 0.2925(4) 0.2843(2) 0.38856(7)
H27 H 0.3927 0.2550 0.4022
H28 H 0.2991 0.2496 0.3640
H29 H 0.1883 0.2514 0.4002
C21 C 0.2985(4) 0.3370(2) 0.51671(7)
H30 H 0.4044 0.3169 0.5297
H31 H 0.2975 0.2891 0.4938
H32 H 0.2000 0.3096 0.5312
C22 C 0.2210(3) 0.5219(3) 0.58105(6)
H33 H 0.2448 0.4259 0.5853
C23 C 0.0238(3) 0.5379(3) 0.57607(7)
H34 H -0.0136 0.4862 0.5552
H35 H -0.0036 0.6314 0.5722
H36 H -0.0352 0.5062 0.5977
C24 C 0.2907(4) 0.6010(2) 0.61465(6)
H37 H 0.4163 0.5896 0.6159
H38 H 0.2673 0.6962 0.6110
C25 C 0.2110(4) 0.5575(3) 0.65155(6)
H39 H 0.2495 0.6192 0.6706
H40 H 0.0848 0.5635 0.6500
C26 C 0.2604(3) 0.4180(3) 0.66201(6)
C27 C 0.1947(4) 0.2428(3) 0.70462(7)
H41 H 0.2973 0.2493 0.7201
H42 H 0.2192 0.1797 0.6849
C28 C 0.0459(5) 0.1965(3) 0.72601(7)
C29 C -0.0672(5) 0.1547(4) 0.74249(9)
H43 H -0.1601 0.1204 0.7560
loop_
_geom_bond_atom_site_label_1
_geom_bond_atom_site_label_2
_geom_bond_site_symmetry_1
_geom_bond_site_symmetry_2
O1 C2 1_555 1_555
O2 C2 1_555 1_555
O3 C26 1_555 1_555
O4 C26 1_555 1_555
N1 N2 1_555 1_555
N2 N3 1_555 1_555
C1 N1 1_555 1_555
H1 C1 1_555 1_555
H2 C1 1_555 1_555
C2 C1 1_555 1_555
C3 H3 1_555 1_555
H4 C3 1_555 1_555
C4 O2 1_555 1_555
H5 C4 1_555 1_555
C5 C4 1_555 1_555
H6 C5 1_555 1_555
H7 C5 1_555 1_555
C6 C5 1_555 1_555
H8 C6 1_555 1_555
H9 C6 1_555 1_555
C7 C6 1_555 1_555
C8 C3 1_555 1_555
H10 C8 1_555 1_555
C9 C8 1_555 1_555
H11 C9 1_555 1_555
H12 C9 1_555 1_555
C10 C9 1_555 1_555
H13 C10 1_555 1_555
H14 C10 1_555 1_555
C11 C10 1_555 1_555
H15 C11 1_555 1_555
C12 C7 1_555 1_555
H16 C12 1_555 1_555
C13 C12 1_555 1_555
H17 C13 1_555 1_555
H18 C13 1_555 1_555
C14 C13 1_555 1_555
H19 C14 1_555 1_555
H20 C14 1_555 1_555
C15 C14 1_555 1_555
C16 C11 1_555 1_555
H21 C16 1_555 1_555
C17 C16 1_555 1_555
H22 C17 1_555 1_555
H23 C17 1_555 1_555
C18 C17 1_555 1_555
H24 C18 1_555 1_555
H25 C18 1_555 1_555
C19 C15 1_555 1_555
H26 C19 1_555 1_555
C20 C7 1_555 1_555
H27 C20 1_555 1_555
H28 C20 1_555 1_555
H29 C20 1_555 1_555
C21 C15 1_555 1_555
H30 C21 1_555 1_555
H31 C21 1_555 1_555
H32 C21 1_555 1_555
C22 C19 1_555 1_555
H33 C22 1_555 1_555
C23 C22 1_555 1_555
H34 C23 1_555 1_555
H35 C23 1_555 1_555
H36 C23 1_555 1_555
C24 C22 1_555 1_555
H37 C24 1_555 1_555
H38 C24 1_555 1_555
C25 C24 1_555 1_555
H39 C25 1_555 1_555
H40 C25 1_555 1_555
C26 C25 1_555 1_555
C27 O4 1_555 1_555
H41 C27 1_555 1_555
H42 C27 1_555 1_555
C28 C27 1_555 1_555
C29 C28 1_555 1_555
H43 C29 1_555 1_555
C3 C4 1_555 1_555
C7 C8 1_555 1_555
C11 C12 1_555 1_555
C15 C16 1_555 1_555
C18 C19 1_555 1_555

#END
