
#######################################################################
#
#                 Cambridge Crystallographic Data Centre
#                                CCDC 
#
#######################################################################
#
# If this CIF has been generated from an entry in the Cambridge 
# Structural Database, then it will include bibliographic, chemical, 
# crystal, experimental, refinement or atomic coordinate data resulting 
# from the CCDC's data processing and validation procedures.
#
#######################################################################

data_UVASIU
_chemical_formula_moiety         'C29 H43 N3 O5'
_chemical_name_systematic        
'Prop-2-yn-1-yl 3-(2-azidoacetoxy)-12-hydroxycholan-24-oate'
_symmetry_cell_setting           orthorhombic
_symmetry_space_group_name_H-M   'P 21 21 21'
_symmetry_Int_Tables_number      19
_space_group_name_Hall           'P 2ac 2ab'
loop_
_symmetry_equiv_pos_site_id
_symmetry_equiv_pos_as_xyz
1 x,y,z
2 1/2-x,-y,1/2+z
3 -x,1/2+y,1/2-z
4 1/2+x,1/2-y,-z
_cell_length_a                   7.5970(13)
_cell_length_b                   10.1544(13)
_cell_length_c                   36.149(6)
_cell_angle_alpha                90
_cell_angle_beta                 90
_cell_angle_gamma                90
_cell_volume                     2788.64
_exptl_crystal_colour            colorless
_exptl_crystal_description       prism
_cell_formula_units_Z            4
loop_
_atom_site_label
_atom_site_type_symbol
_atom_site_fract_x
_atom_site_fract_y
_atom_site_fract_z
O1 O 0.0801(4) 0.1788(2) 0.71592(6)
O2 O 0.2654(3) 0.1677(2) 0.66755(5)
O3 O 0.0850(3) 0.3612(2) 0.51562(6)
H1 H 0.0913 0.3283 0.4949
O4 O 0.3643(4) 0.6672(2) 0.35087(6)
O5 O 0.1480(3) 0.6365(2) 0.30948(5)
N1 N 0.1736(8) -0.0719(4) 0.78585(10)
N2 N 0.1380(6) -0.0782(3) 0.75568(9)
N3 N 0.0839(5) -0.0952(3) 0.72406(8)
C1 C 0.1939(5) -0.0314(3) 0.69597(8)
H2 H 0.1652 -0.0674 0.6719
H3 H 0.3165 -0.0510 0.7010
C2 C 0.1689(4) 0.1170(3) 0.69512(8)
C3 C 0.4414(4) 0.3411(3) 0.64410(8)
H4 H 0.4434 0.2919 0.6211
H5 H 0.5396 0.3113 0.6591
C4 C 0.2715(4) 0.3121(3) 0.66427(7)
H6 H 0.2747 0.3518 0.6890
C5 C 0.1131(4) 0.3631(3) 0.64313(8)
H7 H 0.0062 0.3461 0.6570
H8 H 0.1042 0.3190 0.6194
C6 C 0.1368(4) 0.5121(3) 0.63740(8)
H9 H 0.1412 0.5545 0.6614
H10 H 0.0346 0.5460 0.6244
C7 C 0.3034(4) 0.5501(3) 0.61551(8)
C8 C 0.4653(4) 0.4895(3) 0.63547(8)
H11 H 0.4767 0.5349 0.6593
C9 C 0.6363(4) 0.5124(3) 0.61437(8)
H12 H 0.7313 0.4670 0.6270
H13 H 0.6632 0.6058 0.6145
C10 C 0.6270(3) 0.4641(3) 0.57424(7)
H14 H 0.7349 0.4877 0.5615
H15 H 0.6172 0.3688 0.5740
C11 C 0.4703(3) 0.5234(3) 0.55356(7)
H16 H 0.4887 0.6186 0.5515
C12 C 0.2967(3) 0.4995(3) 0.57479(7)
H17 H 0.2820 0.4037 0.5762
C13 C 0.1386(4) 0.5515(3) 0.55287(8)
H18 H 0.0315 0.5284 0.5660
H19 H 0.1453 0.6469 0.5519
C14 C 0.1267(4) 0.4985(3) 0.51342(8)
H20 H 0.0303 0.5438 0.5007
C15 C 0.2979(3) 0.5224(2) 0.49171(7)
C16 C 0.4521(3) 0.4664(3) 0.51460(7)
H21 H 0.4271 0.3724 0.5178
C17 C 0.6097(4) 0.4742(3) 0.48840(8)
H22 H 0.6948 0.4058 0.4940
H23 H 0.6670 0.5593 0.4902
C18 C 0.5292(4) 0.4539(3) 0.44969(8)
H24 H 0.5721 0.3725 0.4389
H25 H 0.5614 0.5262 0.4335
C19 C 0.3262(3) 0.4481(3) 0.45448(7)
H26 H 0.2953 0.3557 0.4588
C20 C 0.3176(5) 0.7026(3) 0.61701(9)
H27 H 0.3216 0.7309 0.6423
H28 H 0.2171 0.7410 0.6051
H29 H 0.4230 0.7303 0.6046
C21 C 0.3162(4) 0.6729(2) 0.48503(8)
H30 H 0.2987 0.7190 0.5079
H31 H 0.2295 0.7009 0.4674
H32 H 0.4317 0.6918 0.4756
C22 C 0.2244(4) 0.4930(3) 0.41982(7)
H33 H 0.2483 0.5868 0.4160
C23 C 0.0235(4) 0.4757(4) 0.42472(9)
H34 H -0.0358 0.5050 0.4028
H35 H -0.0156 0.5269 0.4455
H36 H -0.0028 0.3845 0.4290
C24 C 0.2894(4) 0.4184(3) 0.38577(7)
H37 H 0.2666 0.3254 0.3895
H38 H 0.4159 0.4295 0.3841
C25 C 0.2088(5) 0.4587(3) 0.34872(7)
H39 H 0.2508 0.3991 0.3297
H40 H 0.0820 0.4493 0.3502
C26 C 0.2522(4) 0.5985(3) 0.33750(8)
C27 C 0.1886(6) 0.7652(3) 0.29382(9)
H41 H 0.2140 0.8276 0.3134
H42 H 0.2909 0.7592 0.2778
C28 C 0.0366(7) 0.8081(4) 0.27280(10)
C29 C -0.0840(9) 0.8458(5) 0.25659(13)
H43 H -0.1814 0.8762 0.2435
loop_
_geom_bond_atom_site_label_1
_geom_bond_atom_site_label_2
_geom_bond_site_symmetry_1
_geom_bond_site_symmetry_2
O1 C2 1_555 1_555
O2 C2 1_555 1_555
O3 H1 1_555 1_555
O4 C26 1_555 1_555
O5 C26 1_555 1_555
N1 N2 1_555 1_555
N2 N3 1_555 1_555
N3 C1 1_555 1_555
C1 H2 1_555 1_555
H3 C1 1_555 1_555
C2 C1 1_555 1_555
C3 H4 1_555 1_555
H5 C3 1_555 1_555
C4 O2 1_555 1_555
H6 C4 1_555 1_555
C5 C4 1_555 1_555
H7 C5 1_555 1_555
H8 C5 1_555 1_555
C6 C5 1_555 1_555
H9 C6 1_555 1_555
H10 C6 1_555 1_555
C7 C6 1_555 1_555
C8 C3 1_555 1_555
H11 C8 1_555 1_555
C9 C8 1_555 1_555
H12 C9 1_555 1_555
H13 C9 1_555 1_555
C10 C9 1_555 1_555
H14 C10 1_555 1_555
H15 C10 1_555 1_555
C11 C10 1_555 1_555
H16 C11 1_555 1_555
C12 C7 1_555 1_555
H17 C12 1_555 1_555
C13 C12 1_555 1_555
H18 C13 1_555 1_555
H19 C13 1_555 1_555
C14 O3 1_555 1_555
H20 C14 1_555 1_555
C15 C14 1_555 1_555
C16 C11 1_555 1_555
H21 C16 1_555 1_555
C17 C16 1_555 1_555
H22 C17 1_555 1_555
H23 C17 1_555 1_555
C18 C17 1_555 1_555
H24 C18 1_555 1_555
H25 C18 1_555 1_555
C19 C15 1_555 1_555
H26 C19 1_555 1_555
C20 C7 1_555 1_555
H27 C20 1_555 1_555
H28 C20 1_555 1_555
H29 C20 1_555 1_555
C21 C15 1_555 1_555
H30 C21 1_555 1_555
H31 C21 1_555 1_555
H32 C21 1_555 1_555
C22 C19 1_555 1_555
H33 C22 1_555 1_555
C23 C22 1_555 1_555
H34 C23 1_555 1_555
H35 C23 1_555 1_555
H36 C23 1_555 1_555
C24 C22 1_555 1_555
H37 C24 1_555 1_555
H38 C24 1_555 1_555
C25 C24 1_555 1_555
H39 C25 1_555 1_555
H40 C25 1_555 1_555
C26 C25 1_555 1_555
C27 O5 1_555 1_555
H41 C27 1_555 1_555
H42 C27 1_555 1_555
C28 C27 1_555 1_555
C29 C28 1_555 1_555
H43 C29 1_555 1_555
C3 C4 1_555 1_555
C7 C8 1_555 1_555
C11 C12 1_555 1_555
C13 C14 1_555 1_555
C15 C16 1_555 1_555
C18 C19 1_555 1_555

#END
