
#######################################################################
#
#                 Cambridge Crystallographic Data Centre
#                                CCDC 
#
#######################################################################
#
# If this CIF has been generated from an entry in the Cambridge 
# Structural Database, then it will include bibliographic, chemical, 
# crystal, experimental, refinement or atomic coordinate data resulting 
# from the CCDC's data processing and validation procedures.
#
#######################################################################

data_UVEXID
_chemical_formula_moiety         'C18 H16 N2 O1'
_chemical_name_systematic        
(3-(2-(4-Hydroxyphenyl)vinyl)-5-methylcyclohex-2-en-1-ylidene)malononitrile
_symmetry_cell_setting           monoclinic
_symmetry_space_group_name_H-M   'C c'
_symmetry_Int_Tables_number      9
_space_group_name_Hall           'C -2yc'
loop_
_symmetry_equiv_pos_site_id
_symmetry_equiv_pos_as_xyz
1 x,y,z
2 x,-y,1/2+z
3 1/2+x,1/2+y,z
4 1/2+x,1/2-y,1/2+z
_cell_length_a                   10.9906(10)
_cell_length_b                   13.9947(10)
_cell_length_c                   9.9856(9)
_cell_angle_alpha                90
_cell_angle_beta                 93.944(3)
_cell_angle_gamma                90
_cell_volume                     1532.25
_cell_formula_units_Z            4
loop_
_atom_site_label
_atom_site_type_symbol
_atom_site_fract_x
_atom_site_fract_y
_atom_site_fract_z
O1 O 0.4762(3) 0.08165(17) -0.4912(2)
H1 H 0.4452 0.1225 -0.5417
N1 N 0.8957(3) 0.2795(3) 0.8102(3)
N2 N 0.8734(4) 0.0116(3) 0.5834(4)
C1 C 0.8669(3) 0.2393(3) 0.7141(3)
C2 C 0.8537(3) 0.0918(3) 0.5867(4)
C3 C 0.8318(3) 0.1921(2) 0.5902(3)
C4 C 0.7815(3) 0.2425(2) 0.4815(3)
C5 C 0.7501(3) 0.1981(2) 0.3560(3)
H2 H 0.7609 0.1324 0.3486
C6 C 0.7047(3) 0.24744(19) 0.2458(3)
C7 C 0.6773(3) 0.1987(2) 0.1203(3)
H3 H 0.6945 0.1337 0.1168
C8 C 0.6282(3) 0.2411(2) 0.0071(3)
H4 H 0.6158 0.3067 0.0127
C9 C 0.5926(3) 0.1978(2) -0.1214(3)
C10 C 0.6023(3) 0.1008(2) -0.1476(3)
H5 H 0.6363 0.0604 -0.0811
C11 C 0.5623(3) 0.0634(2) -0.2706(3)
H6 H 0.5675 -0.0020 -0.2856
C12 C 0.5145(3) 0.1227(2) -0.3718(3)
C13 C 0.5034(3) 0.2193(2) -0.3490(3)
H7 H 0.4692 0.2595 -0.4155
C14 C 0.5443(3) 0.2551(2) -0.2253(3)
H8 H 0.5392 0.3206 -0.2109
C15 C 0.7653(3) 0.3469(2) 0.4935(3)
H9 H 0.7321 0.3604 0.5791
H10 H 0.8448 0.3771 0.4943
C16 C 0.6855(3) 0.3530(2) 0.2559(3)
H11 H 0.7484 0.3851 0.2093
H12 H 0.6076 0.3688 0.2097
C17 C 0.6873(7) 0.3894(3) 0.3891(4)
H13 H 0.6070 0.3688 0.4151
C18 C 0.6740(5) 0.4975(3) 0.3965(4)
H14 H 0.6695 0.5165 0.4884
H15 H 0.6010 0.5168 0.3454
H16 H 0.7433 0.5273 0.3604
loop_
_geom_bond_atom_site_label_1
_geom_bond_atom_site_label_2
_geom_bond_site_symmetry_1
_geom_bond_site_symmetry_2
O1 H1 1_555 1_555
N1 C1 1_555 1_555
N2 C2 1_555 1_555
C1 C3 1_555 1_555
C2 C3 1_555 1_555
C3 C4 1_555 1_555
C4 C5 1_555 1_555
C5 H2 1_555 1_555
C6 C5 1_555 1_555
C7 C6 1_555 1_555
H3 C7 1_555 1_555
C8 C7 1_555 1_555
H4 C8 1_555 1_555
C9 C8 1_555 1_555
C10 C9 1_555 1_555
H5 C10 1_555 1_555
C11 C10 1_555 1_555
H6 C11 1_555 1_555
C12 O1 1_555 1_555
C13 C12 1_555 1_555
H7 C13 1_555 1_555
C14 C9 1_555 1_555
H8 C14 1_555 1_555
C15 C4 1_555 1_555
H9 C15 1_555 1_555
H10 C15 1_555 1_555
C16 C6 1_555 1_555
H11 C16 1_555 1_555
H12 C16 1_555 1_555
C17 C15 1_555 1_555
H13 C17 1_555 1_555
C18 C17 1_555 1_555
H14 C18 1_555 1_555
H15 C18 1_555 1_555
H16 C18 1_555 1_555
C11 C12 1_555 1_555
C13 C14 1_555 1_555
C16 C17 1_555 1_555

#END
