
#######################################################################
#
#                 Cambridge Crystallographic Data Centre
#                                CCDC 
#
#######################################################################
#
# If this CIF has been generated from an entry in the Cambridge 
# Structural Database, then it will include bibliographic, chemical, 
# crystal, experimental, refinement or atomic coordinate data resulting 
# from the CCDC's data processing and validation procedures.
#
#######################################################################

data_UVIKUH
_chemical_formula_moiety         'C29 H38 P1 1+,C2 F6 N1 O4 S2 1-'
_chemical_name_systematic        
'tributyl(pyren-1-ylmethyl)phosphonium bis(trifluoromethanesulfonyl)amide'
_symmetry_cell_setting           triclinic
_symmetry_space_group_name_H-M   'P -1'
_symmetry_Int_Tables_number      2
_space_group_name_Hall           '-P 1'
loop_
_symmetry_equiv_pos_site_id
_symmetry_equiv_pos_as_xyz
1 x,y,z
2 -x,-y,-z
_cell_length_a                   10.7725(3)
_cell_length_b                   16.6577(5)
_cell_length_c                   18.3152(7)
_cell_angle_alpha                98.142(3)
_cell_angle_beta                 94.137(3)
_cell_angle_gamma                92.423(2)
_cell_volume                     3240.38
_exptl_crystal_colour            'yellowish yellow'
_exptl_crystal_description       block
_cell_formula_units_Z            4
loop_
_atom_site_label
_atom_site_type_symbol
_atom_site_fract_x
_atom_site_fract_y
_atom_site_fract_z
S1 S 0.49127(5) 0.77772(3) 0.25245(3)
S2 S 0.60037(5) 0.64000(3) 0.18579(3)
F1 F 0.72773(13) 0.80275(10) 0.30009(9)
F2 F 0.60213(14) 0.79892(11) 0.38573(9)
F3 F 0.61308(16) 0.90329(10) 0.32952(10)
F4 F 0.4575(2) 0.67721(11) 0.07376(11)
F5 F 0.5540(2) 0.56802(12) 0.05039(11)
O1 O 0.50608(19) 0.81678(11) 0.18871(11)
O2 O 0.38173(16) 0.79068(12) 0.29106(11)
F6 F 0.3956(2) 0.56979(14) 0.11514(13)
O3 O 0.6265(2) 0.56288(12) 0.20715(11)
O4 O 0.69937(18) 0.68806(12) 0.16374(11)
N1 N 0.51435(18) 0.68417(12) 0.24334(11)
C1 C 0.6164(2) 0.82335(15) 0.32107(13)
C2 C 0.4949(3) 0.61282(16) 0.10139(16)
S3 S -0.00222(5) 0.27877(3) 0.26703(3)
S4 S 0.10696(5) 0.14103(3) 0.20060(3)
F7 F 0.23422(13) 0.31059(10) 0.31195(9)
F8 F 0.11209(15) 0.31102(11) 0.39959(9)
F9 F 0.11420(17) 0.40983(10) 0.33673(11)
O5 O 0.12990(17) 0.06269(11) 0.22009(11)
F10 F -0.0234(2) 0.18247(13) 0.08565(11)
O6 O 0.20712(17) 0.18709(12) 0.17727(11)
F11 F -0.11313(18) 0.09131(15) 0.13593(13)
O7 O -0.11131(17) 0.29018(12) 0.30638(13)
O8 O 0.0077(2) 0.31500(13) 0.20167(12)
N2 N 0.02780(18) 0.18646(12) 0.26117(12)
F12 F 0.0378(2) 0.06055(17) 0.07069(14)
C3 C 0.1225(2) 0.33058(15) 0.33252(14)
C4 C -0.0043(3) 0.11817(17) 0.11771(15)
P1 P 0.55299(5) 0.32615(3) 0.21777(3)
C5 C 0.2980(2) 0.50908(14) 0.46310(12)
C6 C 0.45721(19) 0.45046(13) 0.38354(12)
C7 C 0.6226(2) 0.38639(14) 0.30257(12)
H1 H 0.7011 0.3642 0.3168
H2 H 0.6402 0.4416 0.2935
C8 C 0.3810(2) 0.44698(14) 0.44354(12)
C9 C 0.4476(2) 0.52023(14) 0.34460(12)
H3 H 0.4967 0.5243 0.3054
C10 C 0.5386(2) 0.38787(14) 0.36570(12)
C11 C 0.2917(2) 0.57641(14) 0.42369(13)
C12 C 0.3873(2) 0.38053(14) 0.48470(13)
C13 C 0.3096(2) 0.37839(15) 0.54502(13)
H4 H 0.3146 0.3357 0.5726
C14 C 0.3694(2) 0.57936(14) 0.36381(13)
H5 H 0.3658 0.6231 0.3375
C15 C 0.4196(2) 0.37655(14) 0.18466(12)
H6 H 0.3589 0.3791 0.2214
H7 H 0.4459 0.4319 0.1801
C16 C 0.5439(2) 0.32381(14) 0.40756(13)
H8 H 0.5985 0.2829 0.3961
C17 C 0.2299(2) 0.43683(16) 0.56254(13)
H9 H 0.1797 0.4331 0.6013
C18 C 0.3557(2) 0.33612(14) 0.11020(13)
H10 H 0.4120 0.3396 0.0716
H11 H 0.3366 0.2791 0.1124
C19 C 0.7994(2) 0.37777(16) 0.06282(14)
H12 H 0.8711 0.3512 0.0814
H13 H 0.7580 0.3416 0.0212
C20 C 0.4697(2) 0.32015(14) 0.46558(13)
H14 H 0.4747 0.2767 0.4923
C21 C 0.2208(2) 0.50480(15) 0.52257(13)
C22 C 0.6655(2) 0.31439(13) 0.14906(12)
H15 H 0.7373 0.2892 0.1691
H16 H 0.6290 0.2778 0.1063
C23 C 0.7100(2) 0.39362(14) 0.12350(14)
H17 H 0.6386 0.4205 0.1051
H18 H 0.7516 0.4295 0.1653
C24 C 0.5045(2) 0.22552(14) 0.23440(13)
H19 H 0.4558 0.2305 0.2772
H20 H 0.4507 0.1995 0.1922
C25 C 0.6128(2) 0.17068(14) 0.24768(14)
H21 H 0.6514 0.1562 0.2017
H22 H 0.6752 0.2005 0.2833
C26 C 0.1409(2) 0.56715(17) 0.54103(15)
H23 H 0.0894 0.5641 0.5792
C27 C 0.1666(2) 0.33530(17) 0.01962(15)
H24 H 0.2197 0.3354 -0.0203
H25 H 0.0934 0.3639 0.0093
H26 H 0.1428 0.2803 0.0247
C28 C 0.1375(2) 0.63332(16) 0.50332(15)
H27 H 0.0851 0.6749 0.5171
C29 C 0.2362(2) 0.37685(16) 0.09120(14)
H28 H 0.2563 0.4331 0.0866
H29 H 0.1823 0.3762 0.1313
C30 C 0.2117(2) 0.63814(15) 0.44502(14)
H30 H 0.2082 0.6828 0.4199
C31 C 0.8430(3) 0.45648(18) 0.03709(17)
H31 H 0.8986 0.4447 -0.0013
H32 H 0.8857 0.4918 0.0780
H33 H 0.7722 0.4826 0.0183
C32 C 0.5694(2) 0.09321(16) 0.27636(18)
H34 H 0.6412 0.0620 0.2861
H35 H 0.5323 0.1079 0.3228
C33 C 0.4751(3) 0.04034(18) 0.2224(3)
H36 H 0.5082 0.0297 0.1749
H37 H 0.3992 0.0680 0.2178
H38 H 0.4585 -0.0101 0.2405
P2 P 1.05338(5) 0.84477(3) 0.21602(3)
C34 C 0.9492(2) 0.94580(14) 0.39278(12)
C35 C 1.1123(2) 0.88364(14) 0.31055(12)
H39 H 1.1835 0.8534 0.3236
H40 H 1.1413 0.9399 0.3126
C36 C 1.0188(2) 0.87894(14) 0.36736(12)
C37 C 0.7937(2) 1.00446(14) 0.47489(13)
C38 C 0.8653(2) 0.93820(14) 0.44832(12)
C39 C 0.8048(2) 1.07881(15) 0.44616(13)
C40 C 0.9582(2) 1.02259(14) 0.36506(13)
H41 H 1.0122 1.0290 0.3287
C41 C 0.8900(2) 1.08550(14) 0.39068(13)
H42 H 0.8988 1.1342 0.3718
C42 C 0.9207(2) 0.79885(14) 0.45060(13)
H43 H 0.9113 0.7497 0.4686
C43 C 1.0027(2) 0.80654(14) 0.39663(13)
H44 H 1.0481 0.7624 0.3795
C44 C 0.8525(2) 0.86389(14) 0.47802(13)
C45 C 0.7679(2) 0.85801(16) 0.53442(14)
H45 H 0.7598 0.8098 0.5543
C46 C 1.1792(2) 0.86655(14) 0.16064(12)
H46 H 1.1886 0.9249 0.1622
H47 H 1.2556 0.8491 0.1834
C47 C 1.2775(2) 0.84883(16) 0.03839(14)
H48 H 1.3520 0.8316 0.0635
H49 H 1.2684 0.8187 -0.0112
C48 C 0.7000(2) 0.92096(17) 0.55913(14)
H50 H 0.6460 0.9153 0.5956
C49 C 0.9149(2) 0.89650(14) 0.19269(13)
H51 H 0.8596 0.8953 0.2321
H52 H 0.9389 0.9530 0.1910
C50 C 1.1240(2) 0.68466(14) 0.22097(14)
H53 H 1.1554 0.6985 0.2724
H54 H 1.1906 0.6966 0.1906
C51 C 0.8422(2) 0.86181(15) 0.11939(14)
H55 H 0.8951 0.8656 0.0792
H56 H 0.8201 0.8048 0.1198
C52 C 0.6531(2) 1.13516(17) 0.52760(15)
H57 H 0.6071 1.1787 0.5454
C53 C 0.7094(2) 0.99636(16) 0.53037(13)
C54 C 1.0139(2) 0.73702(14) 0.20531(13)
H58 H 0.9502 0.7275 0.2384
H59 H 0.9784 0.7194 0.1551
C55 C 0.7249(2) 0.90590(16) 0.10554(16)
H60 H 0.7471 0.9622 0.1021
H61 H 0.6740 0.9049 0.1471
C56 C 1.1649(2) 0.82736(16) 0.07943(13)
H62 H 1.1553 0.7688 0.0769
H63 H 1.0902 0.8457 0.0554
C57 C 0.6400(2) 1.06259(18) 0.55530(15)
H64 H 0.5843 1.0576 0.5911
C58 C 0.6495(2) 0.86775(18) 0.03491(18)
H65 H 0.6994 0.8686 -0.0063
H66 H 0.5767 0.8979 0.0276
H67 H 0.6246 0.8126 0.0389
C59 C 0.7344(2) 1.14350(16) 0.47336(14)
H68 H 0.7421 1.1926 0.4549
C60 C 1.2947(2) 0.93838(17) 0.03318(15)
H69 H 1.3600 0.9467 0.0016
H70 H 1.3166 0.9680 0.0816
H71 H 1.2184 0.9573 0.0130
C61 C 1.0867(3) 0.59349(15) 0.20502(17)
H72 H 1.0546 0.5802 0.1537
H73 H 1.1607 0.5633 0.2117
C62 C 0.9899(3) 0.56600(19) 0.2533(2)
H74 H 0.9759 0.5081 0.2426
H75 H 0.9134 0.5915 0.2435
H76 H 1.0190 0.5810 0.3044
loop_
_geom_bond_atom_site_label_1
_geom_bond_atom_site_label_2
_geom_bond_site_symmetry_1
_geom_bond_site_symmetry_2
S1 O1 1_555 1_555
S2 O3 1_555 1_555
F1 C1 1_555 1_555
F2 C1 1_555 1_555
F3 C1 1_555 1_555
F4 C2 1_555 1_555
F5 C2 1_555 1_555
O2 S1 1_555 1_555
F6 C2 1_555 1_555
O4 S2 1_555 1_555
N1 S1 1_555 1_555
C1 S1 1_555 1_555
C2 S2 1_555 1_555
S3 O7 1_555 1_555
S4 O5 1_555 1_555
F7 C3 1_555 1_555
F8 C3 1_555 1_555
F9 C3 1_555 1_555
F10 C4 1_555 1_555
O6 S4 1_555 1_555
F11 C4 1_555 1_555
O8 S3 1_555 1_555
N2 S3 1_555 1_555
F12 C4 1_555 1_555
C3 S3 1_555 1_555
C4 S4 1_555 1_555
P1 C7 1_555 1_555
C5 C8 1_555 1_555
C6 C8 1_555 1_555
C7 H1 1_555 1_555
H2 C7 1_555 1_555
C8 C12 1_555 1_555
C9 C6 1_555 1_555
H3 C9 1_555 1_555
C10 C6 1_555 1_555
C11 C5 1_555 1_555
C12 C13 1_555 1_555
C13 H4 1_555 1_555
C14 C9 1_555 1_555
H5 C14 1_555 1_555
C15 P1 1_555 1_555
H6 C15 1_555 1_555
H7 C15 1_555 1_555
C16 C10 1_555 1_555
H8 C16 1_555 1_555
C17 C13 1_555 1_555
H9 C17 1_555 1_555
C18 C15 1_555 1_555
H10 C18 1_555 1_555
H11 C18 1_555 1_555
C19 H12 1_555 1_555
H13 C19 1_555 1_555
C20 C12 1_555 1_555
H14 C20 1_555 1_555
C21 C5 1_555 1_555
C22 P1 1_555 1_555
H15 C22 1_555 1_555
H16 C22 1_555 1_555
C23 C19 1_555 1_555
H17 C23 1_555 1_555
H18 C23 1_555 1_555
C24 P1 1_555 1_555
H19 C24 1_555 1_555
H20 C24 1_555 1_555
C25 C24 1_555 1_555
H21 C25 1_555 1_555
H22 C25 1_555 1_555
C26 C21 1_555 1_555
H23 C26 1_555 1_555
C27 H24 1_555 1_555
H25 C27 1_555 1_555
H26 C27 1_555 1_555
C28 C26 1_555 1_555
H27 C28 1_555 1_555
C29 C18 1_555 1_555
H28 C29 1_555 1_555
H29 C29 1_555 1_555
C30 C11 1_555 1_555
H30 C30 1_555 1_555
C31 C19 1_555 1_555
H31 C31 1_555 1_555
H32 C31 1_555 1_555
H33 C31 1_555 1_555
C32 C25 1_555 1_555
H34 C32 1_555 1_555
H35 C32 1_555 1_555
C33 C32 1_555 1_555
H36 C33 1_555 1_555
H37 C33 1_555 1_555
H38 C33 1_555 1_555
P2 C35 1_555 1_555
C34 C36 1_555 1_555
C35 H39 1_555 1_555
H40 C35 1_555 1_555
C36 C35 1_555 1_555
C37 C38 1_555 1_555
C38 C34 1_555 1_555
C39 C37 1_555 1_555
C40 C34 1_555 1_555
H41 C40 1_555 1_555
C41 C39 1_555 1_555
H42 C41 1_555 1_555
C42 H43 1_555 1_555
C43 C36 1_555 1_555
H44 C43 1_555 1_555
C44 C38 1_555 1_555
C45 C44 1_555 1_555
H45 C45 1_555 1_555
C46 P2 1_555 1_555
H46 C46 1_555 1_555
H47 C46 1_555 1_555
C47 H48 1_555 1_555
H49 C47 1_555 1_555
C48 C45 1_555 1_555
H50 C48 1_555 1_555
C49 P2 1_555 1_555
H51 C49 1_555 1_555
H52 C49 1_555 1_555
C50 H53 1_555 1_555
H54 C50 1_555 1_555
C51 C49 1_555 1_555
H55 C51 1_555 1_555
H56 C51 1_555 1_555
C52 H57 1_555 1_555
C53 C37 1_555 1_555
C54 P2 1_555 1_555
H58 C54 1_555 1_555
H59 C54 1_555 1_555
C55 C51 1_555 1_555
H60 C55 1_555 1_555
H61 C55 1_555 1_555
C56 C46 1_555 1_555
H62 C56 1_555 1_555
H63 C56 1_555 1_555
C57 C52 1_555 1_555
H64 C57 1_555 1_555
C58 C55 1_555 1_555
H65 C58 1_555 1_555
H66 C58 1_555 1_555
H67 C58 1_555 1_555
C59 C39 1_555 1_555
H68 C59 1_555 1_555
C60 C47 1_555 1_555
H69 C60 1_555 1_555
H70 C60 1_555 1_555
H71 C60 1_555 1_555
C61 C50 1_555 1_555
H72 C61 1_555 1_555
H73 C61 1_555 1_555
C62 C61 1_555 1_555
H74 C62 1_555 1_555
H75 C62 1_555 1_555
H76 C62 1_555 1_555
S2 N1 1_555 1_555
S4 N2 1_555 1_555
C7 C10 1_555 1_555
C11 C14 1_555 1_555
C16 C20 1_555 1_555
C17 C21 1_555 1_555
C22 C23 1_555 1_555
C27 C29 1_555 1_555
C28 C30 1_555 1_555
C40 C41 1_555 1_555
C42 C43 1_555 1_555
C42 C44 1_555 1_555
C47 C56 1_555 1_555
C48 C53 1_555 1_555
C50 C54 1_555 1_555
C52 C59 1_555 1_555
C53 C57 1_555 1_555

#END
