
#######################################################################
#
#                 Cambridge Crystallographic Data Centre
#                                CCDC 
#
#######################################################################
#
# If this CIF has been generated from an entry in the Cambridge 
# Structural Database, then it will include bibliographic, chemical, 
# crystal, experimental, refinement or atomic coordinate data resulting 
# from the CCDC's data processing and validation procedures.
#
#######################################################################

data_UVISIC
_chemical_formula_moiety         '2(C28 H30 N8 O8),C1 H2 Cl2'
_chemical_name_systematic        
'24,33-Dimethoxy-8,11,21,27,30,36-hexaoxa-5,14,23,25,32,34,37,39-octaazahexacyclo[16.11.7.1^3,28^.1^16,20^.1^22,26^.1^31,35^]tetraconta-1,3(38),16(40),17,19,22(39),23,25,28,31(37),32,34-dodecaene dichloromethane'
_symmetry_cell_setting           monoclinic
_symmetry_space_group_name_H-M   'P 21/c'
_symmetry_Int_Tables_number      14
_space_group_name_Hall           '-P 2ybc'
loop_
_symmetry_equiv_pos_site_id
_symmetry_equiv_pos_as_xyz
1 x,y,z
2 -x,1/2+y,1/2-z
3 -x,-y,-z
4 x,1/2-y,1/2+z
_cell_length_a                   15.195(6)
_cell_length_b                   25.537(9)
_cell_length_c                   17.451(7)
_cell_angle_alpha                90
_cell_angle_beta                 114.634(4)
_cell_angle_gamma                90
_cell_volume                     6155.3
_exptl_crystal_colour            colorless
_exptl_crystal_description       block
_cell_formula_units_Z            4
loop_
_atom_site_label
_atom_site_type_symbol
_atom_site_fract_x
_atom_site_fract_y
_atom_site_fract_z
O1 O 0.3963(3) 0.79069(17) 0.2245(2)
O2 O 0.7236(3) 0.77474(15) 0.2951(2)
O3 O 0.7672(3) 0.79755(15) 0.5828(2)
O4 O 0.4418(3) 0.77452(15) 0.5138(2)
O5 O 0.5260(3) 0.86557(16) 0.0650(3)
O6 O 0.6342(3) 0.87039(15) 0.7410(2)
N1 N 0.4607(3) 0.82883(18) 0.1453(3)
N2 N 0.6297(3) 0.81884(18) 0.1798(3)
N3 N 0.5611(3) 0.78077(18) 0.2673(3)
N4 N 0.7010(3) 0.83467(17) 0.6616(3)
N5 N 0.5343(4) 0.82006(17) 0.6290(3)
N6 N 0.6042(3) 0.78234(17) 0.5415(3)
C1 C 0.4232(4) 0.7527(2) 0.4338(4)
C2 C 0.3883(4) 0.7024(2) 0.4206(4)
H1 H 0.3805 0.6840 0.4646
C3 C 0.3643(4) 0.6785(3) 0.3429(4)
C4 C 0.3692(4) 0.7080(2) 0.2776(4)
H2 H 0.3503 0.6932 0.2230
C5 C 0.4021(4) 0.7593(2) 0.2936(3)
C6 C 0.4311(4) 0.7830(2) 0.3719(4)
H3 H 0.4548 0.8179 0.3821
C7 C 0.4768(4) 0.8005(2) 0.2128(4)
C8 C 0.5410(5) 0.8364(2) 0.1333(4)
C9 C 0.6334(4) 0.7920(2) 0.2465(3)
C10 C 0.6066(5) 0.8735(3) 0.0429(4)
H4 H 0.5876 0.8978 -0.0048
H5 H 0.6256 0.8399 0.0273
H6 H 0.6613 0.8882 0.0913
C11 C 0.7445(4) 0.7546(2) 0.3764(4)
C12 C 0.7822(4) 0.7049(2) 0.3937(4)
H7 H 0.7883 0.6846 0.3505
C13 C 0.8111(4) 0.6843(2) 0.4735(4)
C14 C 0.8014(4) 0.7153(2) 0.5356(4)
H8 H 0.8199 0.7019 0.5909
C15 C 0.7653(4) 0.7651(2) 0.5164(4)
C16 C 0.7357(4) 0.7860(2) 0.4369(4)
H9 H 0.7103 0.8205 0.4243
C17 C 0.6867(4) 0.8046(2) 0.5951(4)
C18 C 0.6211(4) 0.8404(2) 0.6745(3)
C19 C 0.5315(4) 0.7929(2) 0.5626(4)
C20 C 0.5528(5) 0.8773(3) 0.7631(4)
H10 H 0.5690 0.9038 0.8075
H11 H 0.5385 0.8440 0.7835
H12 H 0.4960 0.8888 0.7133
C21 C 0.8490(5) 0.6291(2) 0.4932(5)
H13 H 0.902(4) 0.627(2) 0.550(4)
H14 H 0.876(4) 0.616(2) 0.453(4)
N13 N 0.7773(4) 0.5947(2) 0.4974(4)
H15 H 0.727(5) 0.596(3) 0.454(4)
C22 C 0.8088(5) 0.5401(2) 0.5204(5)
H16 H 0.834(4) 0.528(2) 0.481(4)
H17 H 0.856(4) 0.543(2) 0.579(4)
C23 C 0.7254(5) 0.5070(3) 0.5147(5)
H18 H 0.699(4) 0.519(2) 0.558(4)
H19 H 0.741(4) 0.471(3) 0.529(4)
O13 O 0.6519(3) 0.50880(16) 0.4313(3)
C24 C 0.5818(5) 0.4690(2) 0.4159(5)
H20 H 0.5522 0.4723 0.4566
H21 H 0.6135 0.4343 0.4241
C25 C 0.5048(5) 0.4731(3) 0.3278(5)
H22 H 0.470(5) 0.439(3) 0.305(4)
H23 H 0.537(5) 0.482(3) 0.291(4)
O14 O 0.4372(3) 0.51217(16) 0.3230(3)
C26 C 0.3601(5) 0.5156(3) 0.2412(5)
H24 H 0.389(5) 0.531(3) 0.205(4)
H25 H 0.331(5) 0.485(3) 0.220(4)
C27 C 0.2768(6) 0.5461(3) 0.2448(5)
H26 H 0.271(5) 0.531(3) 0.300(4)
H27 H 0.214(5) 0.541(3) 0.188(4)
N14 N 0.2871(7) 0.6030(3) 0.2516(4)
H28 H 0.227(7) 0.618(4) 0.230(6)
C28 C 0.3470(7) 0.6181(3) 0.3360(5)
H29 H 0.414(6) 0.597(3) 0.346(5)
H30 H 0.328(5) 0.601(3) 0.380(5)
O7 O -0.2951(3) 0.57043(16) -0.0182(2)
O8 O -0.3911(3) 0.50452(16) 0.1804(2)
O9 O -0.0640(3) 0.52202(16) 0.3911(2)
O10 O 0.0321(3) 0.57850(17) 0.1885(2)
O11 O -0.5879(3) 0.60815(16) -0.0332(3)
O12 O 0.1883(3) 0.63364(16) 0.4539(2)
N7 N -0.4425(4) 0.58969(18) -0.0267(3)
N8 N -0.4935(3) 0.55318(18) 0.0749(3)
N9 N -0.3362(3) 0.53437(18) 0.0835(3)
N10 N 0.0599(3) 0.57843(18) 0.4264(3)
N11 N 0.1104(3) 0.60706(18) 0.3213(3)
N12 N -0.0212(3) 0.54720(18) 0.2847(3)
C29 C -0.0442(4) 0.5505(2) 0.1270(4)
C30 C -0.0242(5) 0.5029(2) 0.1002(4)
H31 H 0.0386 0.4880 0.1276
C31 C -0.0947(5) 0.4770(2) 0.0340(4)
C32 C -0.1859(5) 0.4999(2) -0.0052(4)
H32 H -0.2353 0.4832 -0.0521
C33 C -0.2041(4) 0.5466(2) 0.0244(3)
C34 C -0.1339(4) 0.5731(2) 0.0900(4)
H33 H -0.1471 0.6058 0.1090
C35 C -0.3610(4) 0.5642(2) 0.0142(3)
C36 C -0.5054(4) 0.5820(2) 0.0072(4)
C37 C -0.4057(4) 0.5316(2) 0.1095(3)
C38 C -0.6617(5) 0.6048(3) -0.0036(5)
H34 H -0.7183 0.6250 -0.0409
H35 H -0.6377 0.6190 0.0537
H36 H -0.6803 0.5681 -0.0032
C39 C -0.2982(4) 0.4835(2) 0.2278(3)
C40 C -0.2860(4) 0.4298(2) 0.2229(4)
H37 H -0.3380 0.4091 0.1855
C41 C -0.1981(5) 0.4066(2) 0.2724(4)
C42 C -0.1233(4) 0.4379(2) 0.3269(4)
H38 H -0.0625 0.4228 0.3616
C43 C -0.1380(4) 0.4912(2) 0.3303(3)
C44 C -0.2250(4) 0.5152(2) 0.2814(3)
H39 H -0.2339 0.5518 0.2845
C45 C -0.0069(4) 0.5501(2) 0.3651(4)
C46 C 0.1161(4) 0.6054(2) 0.3990(4)
C47 C 0.0404(4) 0.5777(2) 0.2685(4)
C48 C 0.2012(5) 0.6338(3) 0.5403(4)
H40 H 0.2573 0.6555 0.5739
H41 H 0.2121 0.5979 0.5622
H42 H 0.1431 0.6481 0.5437
C49 C -0.1884(7) 0.3479(3) 0.2646(5)
H43 H -0.237(5) 0.331(3) 0.282(4)
H44 H -0.204(5) 0.338(3) 0.210(5)
N15 N -0.0997(11) 0.3242(8) 0.3163(14)
C50 C -0.1151(12) 0.2662(5) 0.2874(14)
H46 H -0.1595 0.2488 0.3078
H47 H -0.1441 0.2642 0.2250
C51 C -0.0226(15) 0.2405(5) 0.3214(15)
H48 H 0.0119 0.2478 0.3825
H49 H -0.0309 0.2022 0.3133
O15 O 0.0294(4) 0.26033(18) 0.2783(3)
C54 C 0.0522(6) 0.2269(3) 0.2242(5)
H55 H 0.0585 0.1906 0.2457
H56 H 0.1155 0.2375 0.2256
C55 C -0.0211(6) 0.2281(3) 0.1363(5)
H57 H -0.0031 0.2029 0.1020
H58 H -0.0848 0.2175 0.1340
O16 O -0.0272(4) 0.2791(2) 0.1031(3)
C56 C -0.1080(9) 0.2835(3) 0.0238(6)
H59 H -0.1686 0.2867 0.0317
H60 H -0.1128 0.2521 -0.0111
C57 C -0.0924(15) 0.3325(7) -0.0196(10)
H61 H -0.1385 0.3330 -0.0797
H62 H -0.0257 0.3331 -0.0162
N17 N -0.1093(5) 0.3803(2) 0.0265(4)
H63 H -0.071(5) 0.378(3) 0.088(5)
C58 C -0.0730(6) 0.4257(3) 0.0006(5)
H64 H 0.002(5) 0.420(3) 0.020(4)
H65 H -0.117(5) 0.422(3) -0.061(4)
C59 C 0.1404(5) 0.3638(3) 0.2271(4)
H66 H 0.1951 0.3502 0.2778
H67 H 0.1018 0.3336 0.1952
Cl1 Cl 0.06771(17) 0.40419(8) 0.25842(13)
Cl2 Cl 0.18606(16) 0.39790(8) 0.16409(15)
H45? H -0.08(2) 0.329(12) 0.345(16)
N16? N -0.0933(18) 0.3298(9) 0.311(3)
H50? H -0.0429 0.3499 0.3196
C52? C -0.0808(16) 0.2731(7) 0.3463(19)
H51? H -0.1373 0.2617 0.3564
H52? H -0.0210 0.2692 0.3988
C53? C -0.074(2) 0.2426(7) 0.2697(19)
H53? H -0.0771 0.2043 0.2760
H54? H -0.1254 0.2537 0.2150
C60? C 0.304(3) 0.6341(12) 0.311(3)
C61? C -0.007(7) 0.303(4) 0.036(6)
C62? C -0.101(3) 0.334(2) -0.006(3)
H68? H 0.2387 0.6466 0.2727
H69? H 0.2985 0.6158 0.3583
H70? H 0.0007 0.2767 -0.0024
H71? H 0.0503 0.3263 0.0582
H72? H -0.1122 0.3400 -0.0657
H73? H -0.1545 0.3112 -0.0074
H74? H 0.3819 0.6030 0.2508
N18? N 0.334(2) 0.5970(9) 0.266(2)
loop_
_geom_bond_atom_site_label_1
_geom_bond_atom_site_label_2
_geom_bond_site_symmetry_1
_geom_bond_site_symmetry_2
O1 C5 1_555 1_555
O2 C9 1_555 1_555
O3 C15 1_555 1_555
O4 C1 1_555 1_555
O5 C8 1_555 1_555
O6 C18 1_555 1_555
O7 C33 1_555 1_555
O8 C37 1_555 1_555
O9 C43 1_555 1_555
O10 C29 1_555 1_555
O11 C36 1_555 1_555
O12 C46 1_555 1_555
N1 C7 1_555 1_555
N2 C8 1_555 1_555
N3 C7 1_555 1_555
N4 C17 1_555 1_555
N5 C18 1_555 1_555
N6 C17 1_555 1_555
N7 C35 1_555 1_555
N8 C36 1_555 1_555
N9 C35 1_555 1_555
N10 C45 1_555 1_555
N11 C46 1_555 1_555
N12 C45 1_555 1_555
C1 C2 1_555 1_555
C2 H1 1_555 1_555
C3 C2 1_555 1_555
C4 C3 1_555 1_555
H2 C4 1_555 1_555
C5 C4 1_555 1_555
C6 C1 1_555 1_555
H3 C6 1_555 1_555
C7 O1 1_555 1_555
C8 N1 1_555 1_555
C9 N2 1_555 1_555
C10 O5 1_555 1_555
H4 C10 1_555 1_555
H5 C10 1_555 1_555
H6 C10 1_555 1_555
C11 O2 1_555 1_555
C12 C11 1_555 1_555
H7 C12 1_555 1_555
C13 C12 1_555 1_555
C14 C13 1_555 1_555
H8 C14 1_555 1_555
C15 C14 1_555 1_555
C16 C11 1_555 1_555
H9 C16 1_555 1_555
C17 O3 1_555 1_555
C18 N4 1_555 1_555
C19 O4 1_555 1_555
C20 O6 1_555 1_555
H10 C20 1_555 1_555
H11 C20 1_555 1_555
H12 C20 1_555 1_555
C21 C13 1_555 1_555
H13 C21 1_555 1_555
H14 C21 1_555 1_555
N13 C21 1_555 1_555
H15 N13 1_555 1_555
C22 N13 1_555 1_555
H16 C22 1_555 1_555
H17 C22 1_555 1_555
C23 C22 1_555 1_555
H18 C23 1_555 1_555
H19 C23 1_555 1_555
O13 C23 1_555 1_555
C24 O13 1_555 1_555
H20 C24 1_555 1_555
H21 C24 1_555 1_555
C25 C24 1_555 1_555
H22 C25 1_555 1_555
H23 C25 1_555 1_555
O14 C25 1_555 1_555
C26 O14 1_555 1_555
H24 C26 1_555 1_555
H25 C26 1_555 1_555
C27 C26 1_555 1_555
H26 C27 1_555 1_555
H27 C27 1_555 1_555
N14 C27 1_555 1_555
H28 N14 1_555 1_555
C28 C3 1_555 1_555
H29 C28 1_555 1_555
H30 C28 1_555 1_555
C29 C30 1_555 1_555
C30 H31 1_555 1_555
C31 C30 1_555 1_555
C32 C31 1_555 1_555
H32 C32 1_555 1_555
C33 C32 1_555 1_555
C34 C29 1_555 1_555
H33 C34 1_555 1_555
C35 O7 1_555 1_555
C36 N7 1_555 1_555
C37 N8 1_555 1_555
C38 O11 1_555 1_555
H34 C38 1_555 1_555
H35 C38 1_555 1_555
H36 C38 1_555 1_555
C39 O8 1_555 1_555
C40 C39 1_555 1_555
H37 C40 1_555 1_555
C41 C40 1_555 1_555
C42 C41 1_555 1_555
H38 C42 1_555 1_555
C43 C42 1_555 1_555
C44 C39 1_555 1_555
H39 C44 1_555 1_555
C45 O9 1_555 1_555
C46 N10 1_555 1_555
C47 O10 1_555 1_555
C48 O12 1_555 1_555
H40 C48 1_555 1_555
H41 C48 1_555 1_555
H42 C48 1_555 1_555
C49 C41 1_555 1_555
H43 C49 1_555 1_555
H44 C49 1_555 1_555
N15 C49 1_555 1_555
C50 N15 1_555 1_555
H46 C50 1_555 1_555
H47 C50 1_555 1_555
C51 C50 1_555 1_555
H48 C51 1_555 1_555
H49 C51 1_555 1_555
O15 C51 1_555 1_555
C54 O15 1_555 1_555
H55 C54 1_555 1_555
H56 C54 1_555 1_555
C55 C54 1_555 1_555
H57 C55 1_555 1_555
H58 C55 1_555 1_555
O16 C55 1_555 1_555
C56 O16 1_555 1_555
H59 C56 1_555 1_555
H60 C56 1_555 1_555
C57 C56 1_555 1_555
H61 C57 1_555 1_555
H62 C57 1_555 1_555
N17 C57 1_555 1_555
H63 N17 1_555 1_555
C58 C31 1_555 1_555
H64 C58 1_555 1_555
H65 C58 1_555 1_555
C59 H66 1_555 1_555
H67 C59 1_555 1_555
Cl1 C59 1_555 1_555
Cl2 C59 1_555 1_555
N3 C9 1_555 1_555
N5 C19 1_555 1_555
N6 C19 1_555 1_555
N9 C37 1_555 1_555
N11 C47 1_555 1_555
N12 C47 1_555 1_555
C5 C6 1_555 1_555
C15 C16 1_555 1_555
N14 C28 1_555 1_555
C33 C34 1_555 1_555
C43 C44 1_555 1_555
N17 C58 1_555 1_555

#END
