
#######################################################################
#
#                 Cambridge Crystallographic Data Centre
#                                CCDC 
#
#######################################################################
#
# If this CIF has been generated from an entry in the Cambridge 
# Structural Database, then it will include bibliographic, chemical, 
# crystal, experimental, refinement or atomic coordinate data resulting 
# from the CCDC's data processing and validation procedures.
#
#######################################################################

data_UVOCEP
_chemical_formula_moiety         'C15 H12 Cl2 O3'
_chemical_name_systematic        
'methyl 3,4-dichloro-4-(2-naphthyl)-2-oxobutanoate'
_symmetry_cell_setting           orthorhombic
_symmetry_space_group_name_H-M   'P b c a'
_symmetry_Int_Tables_number      61
_space_group_name_Hall           '-P 2ac 2ab'
loop_
_symmetry_equiv_pos_site_id
_symmetry_equiv_pos_as_xyz
1 x,y,z
2 1/2-x,-y,1/2+z
3 1/2+x,1/2-y,-z
4 -x,1/2+y,1/2-z
5 -x,-y,-z
6 1/2+x,y,1/2-z
7 1/2-x,1/2+y,z
8 x,1/2-y,1/2+z
_cell_length_a                   7.1786(3)
_cell_length_b                   20.0394(12)
_cell_length_c                   20.1954(8)
_cell_angle_alpha                90
_cell_angle_beta                 90
_cell_angle_gamma                90
_cell_volume                     2905.21
_exptl_crystal_colour            colorless
_exptl_crystal_description       block
_cell_formula_units_Z            8
loop_
_atom_site_label
_atom_site_type_symbol
_atom_site_fract_x
_atom_site_fract_y
_atom_site_fract_z
Cl1 Cl 0.37081(17) 0.82652(8) 0.23229(8)
Cl2 Cl 0.2339(2) 0.75195(6) 0.03756(6)
O1 O 0.2888(6) 0.91123(18) 0.0968(4)
O2 O -0.1464(4) 0.84280(17) 0.0882(2)
O3 O -0.0253(5) 0.92161(15) 0.0227(2)
C1 C 0.3380(6) 0.6687(2) 0.1901(2)
H1 H 0.2233 0.6831 0.2061
C2 C 0.3849(6) 0.6032(2) 0.1949(2)
H2 H 0.3007 0.5733 0.2134
C3 C 0.5605(6) 0.5798(2) 0.17210(19)
C4 C 0.6149(7) 0.5123(2) 0.1792(3)
H3 H 0.5315 0.4815 0.1967
C5 C 0.7881(8) 0.4922(3) 0.1606(3)
H4 H 0.8233 0.4480 0.1667
C6 C 0.9160(8) 0.5381(3) 0.1321(3)
H5 H 1.0340 0.5238 0.1194
C7 C 0.8652(7) 0.6028(3) 0.1233(3)
H6 H 0.9484 0.6324 0.1037
C8 C 0.6855(6) 0.6261(2) 0.1438(2)
C9 C 0.6321(5) 0.6937(2) 0.1382(2)
H7 H 0.7138 0.7239 0.1186
C10 C 0.4640(6) 0.71608(19) 0.16069(19)
C11 C 0.4062(6) 0.7872(2) 0.1525(2)
H8 H 0.5048 0.8111 0.1289
C12 C 0.2256(6) 0.79588(19) 0.1152(2)
H9 H 0.1230 0.7782 0.1420
C13 C 0.1791(7) 0.8662(2) 0.0939(3)
C14 C -0.0193(5) 0.87521(19) 0.0677(2)
C15 C -0.2067(9) 0.9345(3) -0.0085(3)
H10 H -0.1939 0.9696 -0.0405
H11 H -0.2950 0.9476 0.0247
H12 H -0.2496 0.8947 -0.0301
loop_
_geom_bond_atom_site_label_1
_geom_bond_atom_site_label_2
_geom_bond_site_symmetry_1
_geom_bond_site_symmetry_2
Cl1 C11 1_555 1_555
Cl2 C12 1_555 1_555
O1 C13 1_555 1_555
O2 C14 1_555 1_555
O3 C14 1_555 1_555
C1 H1 1_555 1_555
C2 C1 1_555 1_555
H2 C2 1_555 1_555
C3 C2 1_555 1_555
C4 C3 1_555 1_555
H3 C4 1_555 1_555
C5 C4 1_555 1_555
H4 C5 1_555 1_555
C6 C5 1_555 1_555
H5 C6 1_555 1_555
C7 C6 1_555 1_555
H6 C7 1_555 1_555
C8 C3 1_555 1_555
C9 C8 1_555 1_555
H7 C9 1_555 1_555
C10 C1 1_555 1_555
C11 C10 1_555 1_555
H8 C11 1_555 1_555
C12 C11 1_555 1_555
H9 C12 1_555 1_555
C13 C12 1_555 1_555
C14 C13 1_555 1_555
C15 O3 1_555 1_555
H10 C15 1_555 1_555
H11 C15 1_555 1_555
H12 C15 1_555 1_555
C7 C8 1_555 1_555
C9 C10 1_555 1_555

#END
