
#######################################################################
#
#                 Cambridge Crystallographic Data Centre
#                                CCDC 
#
#######################################################################
#
# If this CIF has been generated from an entry in the Cambridge 
# Structural Database, then it will include bibliographic, chemical, 
# crystal, experimental, refinement or atomic coordinate data resulting 
# from the CCDC's data processing and validation procedures.
#
#######################################################################

data_UVOFIW02
_chemical_formula_moiety         'C24 H20 O2 S1'
_chemical_name_systematic        
4-methyl-1-((4-methylphenyl)sulfonyl)-2-phenylnaphthalene
_symmetry_cell_setting           monoclinic
_symmetry_space_group_name_H-M   'P 21/n'
_symmetry_Int_Tables_number      14
_space_group_name_Hall           '-P 2yn'
loop_
_symmetry_equiv_pos_site_id
_symmetry_equiv_pos_as_xyz
1 x,y,z
2 1/2-x,1/2+y,1/2-z
3 -x,-y,-z
4 1/2+x,1/2-y,1/2+z
_cell_length_a                   9.2961(2)
_cell_length_b                   10.1519(2)
_cell_length_c                   20.8230(5)
_cell_angle_alpha                90
_cell_angle_beta                 102.2670(10)
_cell_angle_gamma                90
_cell_volume                     1920.26
_exptl_crystal_colour            white
_exptl_crystal_description       block
_cell_formula_units_Z            4
loop_
_atom_site_label
_atom_site_type_symbol
_atom_site_fract_x
_atom_site_fract_y
_atom_site_fract_z
S1 S -0.00248(3) 0.58118(3) 0.140189(15)
O1 O -0.08637(11) 0.57221(11) 0.19042(5)
C1 C 0.18554(12) 0.61865(12) 0.17695(6)
C2 C 0.29068(13) 0.62489(12) 0.13488(6)
C3 C 0.25560(15) 0.59790(13) 0.06649(7)
H1 H 0.1604 0.5717 0.0470
C4 C 0.43856(13) 0.66316(13) 0.16322(7)
C5 C -0.06306(13) 0.72402(13) 0.09404(6)
C6 C 0.22649(14) 0.65146(12) 0.24289(6)
O2 O -0.00782(12) 0.47124(10) 0.09605(5)
C7 C 0.12963(14) 0.65838(13) 0.29182(6)
C8 C 0.47950(14) 0.69428(14) 0.23129(8)
C9 C 0.35831(17) 0.60936(15) 0.02828(8)
H2 H 0.3317 0.5920 -0.0165
C10 C 0.37507(15) 0.68871(15) 0.26845(7)
H3 H 0.4025 0.7104 0.3128
C11 C 0.54195(16) 0.67199(15) 0.12161(8)
H4 H 0.6387 0.6955 0.1398
C12 C -0.10726(15) 0.71978(14) 0.02630(7)
H5 H -0.1023 0.6414 0.0037
C13 C -0.16529(15) 0.95193(15) 0.02519(8)
C14 C 0.09557(17) 0.78115(15) 0.31384(7)
H6 H 0.1300 0.8568 0.2969
C15 C -0.15913(16) 0.83405(16) -0.00760(7)
H7 H -0.1902 0.8313 -0.0531
C16 C 0.50287(18) 0.64699(16) 0.05620(9)
H8 H 0.5719 0.6549 0.0300
C17 C -0.07071(17) 0.84056(15) 0.12799(7)
H9 H -0.0424 0.8427 0.1736
C18 C 0.01067(19) 0.79199(19) 0.36083(8)
H10 H -0.0130 0.8747 0.3748
C19 C 0.08128(17) 0.54657(16) 0.31918(7)
H11 H 0.1057 0.4635 0.3059
C20 C -0.00325(18) 0.55824(19) 0.36615(7)
H12 H -0.0364 0.4829 0.3839
C21 C -0.12073(18) 0.95307(16) 0.09328(8)
H13 H -0.1248 1.0315 0.1159
C22 C 0.63416(17) 0.7363(2) 0.26241(10)
H14 H 0.6406 0.7545 0.3082
H15 H 0.6588 0.8142 0.2409
H16 H 0.7016 0.6670 0.2579
C23 C -0.2182(2) 1.07663(18) -0.01141(10)
H17 H -0.1884 1.0771 -0.0528
H18 H -0.1762 1.1513 0.0141
H19 H -0.3236 1.0810 -0.0189
C24 C -0.03863(19) 0.6802(2) 0.38678(8)
H20 H -0.0958 0.6872 0.4182
loop_
_geom_bond_atom_site_label_1
_geom_bond_atom_site_label_2
_geom_bond_site_symmetry_1
_geom_bond_site_symmetry_2
S1 O1 1_555 1_555
C1 S1 1_555 1_555
C2 C1 1_555 1_555
C3 C2 1_555 1_555
H1 C3 1_555 1_555
C4 C2 1_555 1_555
C5 S1 1_555 1_555
C6 C1 1_555 1_555
O2 S1 1_555 1_555
C7 C6 1_555 1_555
C8 C4 1_555 1_555
C9 C3 1_555 1_555
H2 C9 1_555 1_555
C10 C6 1_555 1_555
H3 C10 1_555 1_555
C11 C4 1_555 1_555
H4 C11 1_555 1_555
C12 C5 1_555 1_555
H5 C12 1_555 1_555
C13 C15 1_555 1_555
C14 C7 1_555 1_555
H6 C14 1_555 1_555
C15 C12 1_555 1_555
H7 C15 1_555 1_555
C16 C9 1_555 1_555
H8 C16 1_555 1_555
C17 C5 1_555 1_555
H9 C17 1_555 1_555
C18 C14 1_555 1_555
H10 C18 1_555 1_555
C19 C7 1_555 1_555
H11 C19 1_555 1_555
C20 C19 1_555 1_555
H12 C20 1_555 1_555
C21 C13 1_555 1_555
H13 C21 1_555 1_555
C22 C8 1_555 1_555
H14 C22 1_555 1_555
H15 C22 1_555 1_555
H16 C22 1_555 1_555
C23 C13 1_555 1_555
H17 C23 1_555 1_555
H18 C23 1_555 1_555
H19 C23 1_555 1_555
C24 C18 1_555 1_555
H20 C24 1_555 1_555
C8 C10 1_555 1_555
C11 C16 1_555 1_555
C17 C21 1_555 1_555
C20 C24 1_555 1_555

#END
