
#######################################################################
#
#                 Cambridge Crystallographic Data Centre
#                                CCDC 
#
#######################################################################
#
# If this CIF has been generated from an entry in the Cambridge 
# Structural Database, then it will include bibliographic, chemical, 
# crystal, experimental, refinement or atomic coordinate data resulting 
# from the CCDC's data processing and validation procedures.
#
#######################################################################

data_UVOZAH
_chemical_formula_moiety         'C29 H28 N2 O2 S1'
_chemical_name_systematic        
(2R,4S)-4-Benzyl-3-((4-methylphenyl)sulfonyl)-1,2-diphenylimidazolidine
_symmetry_cell_setting           orthorhombic
_symmetry_space_group_name_H-M   'P 21 21 21'
_symmetry_Int_Tables_number      19
_space_group_name_Hall           'P 2ac 2ab'
loop_
_symmetry_equiv_pos_site_id
_symmetry_equiv_pos_as_xyz
1 x,y,z
2 1/2-x,-y,1/2+z
3 -x,1/2+y,1/2-z
4 1/2+x,1/2-y,-z
_cell_length_a                   7.9943(10)
_cell_length_b                   16.668(2)
_cell_length_c                   18.837(2)
_cell_angle_alpha                90
_cell_angle_beta                 90
_cell_angle_gamma                90
_cell_volume                     2510.01
_exptl_crystal_colour            colorless
_exptl_crystal_description       block
_cell_formula_units_Z            4
loop_
_atom_site_label
_atom_site_type_symbol
_atom_site_fract_x
_atom_site_fract_y
_atom_site_fract_z
C1 C 0.9022(6) 1.0988(2) 0.4093(2)
H1 H 0.9731 1.0938 0.4502
H2 H 0.7893 1.1086 0.4243
H3 H 0.9400 1.1427 0.3805
C2 C 0.9085(5) 1.0225(2) 0.3669(2)
C3 C 0.8506(4) 1.0194(2) 0.2977(3)
H4 H 0.8082 1.0658 0.2770
C4 C 0.8539(4) 0.9502(2) 0.2591(2)
H5 H 0.8140 0.9500 0.2127
C5 C 0.9156(4) 0.88082(19) 0.28821(17)
C6 C 0.9752(4) 0.88183(19) 0.35724(19)
H6 H 1.0181 0.8354 0.3777
C7 C 0.9701(4) 0.9523(2) 0.39519(19)
H7 H 1.0097 0.9525 0.4416
C8 C 0.5754(4) 0.78275(19) 0.23541(15)
H8 H 0.6007 0.8242 0.2001
C9 C 0.5125(4) 0.82305(17) 0.30334(16)
H9 H 0.5511 0.8781 0.3061
H10 H 0.3912 0.8226 0.3052
C10 C 0.7101(3) 0.72084(17) 0.33374(15)
H11 H 0.8143 0.7306 0.3597
C11 C 0.4559(4) 0.72249(19) 0.20337(16)
H12 H 0.4468 0.6770 0.2353
H13 H 0.3461 0.7470 0.2000
C12 C 0.5056(4) 0.6923(2) 0.13105(16)
C13 C 0.4545(5) 0.73147(19) 0.07122(18)
H14 H 0.3915 0.7781 0.0759
C14 C 0.4932(6) 0.7043(3) 0.00438(19)
H15 H 0.4572 0.7322 -0.0355
C15 C 0.5844(6) 0.6363(3) -0.0028(2)
H16 H 0.6096 0.6169 -0.0479
C16 C 0.6397(5) 0.5960(3) 0.0561(3)
H17 H 0.7043 0.5499 0.0511
C17 C 0.5991(5) 0.6242(2) 0.1226(2)
H18 H 0.6358 0.5965 0.1625
C18 C 0.6651(4) 0.63187(18) 0.34059(15)
C19 C 0.5334(4) 0.60651(18) 0.38142(17)
H19 H 0.4672 0.6443 0.4044
C20 C 0.4967(5) 0.5254(2) 0.3892(2)
H20 H 0.4052 0.5091 0.4161
C21 C 0.5973(6) 0.4696(2) 0.3566(2)
H21 H 0.5761 0.4152 0.3624
C22 C 0.7292(5) 0.4946(2) 0.3154(2)
H22 H 0.7963 0.4567 0.2930
C23 C 0.7633(4) 0.5750(2) 0.30707(17)
H23 H 0.8526 0.5911 0.2788
C24 C 0.5876(4) 0.80421(17) 0.42978(15)
C25 C 0.4984(4) 0.87337(17) 0.44853(16)
H24 H 0.4374 0.9011 0.4144
C26 C 0.5013(4) 0.90034(19) 0.51815(19)
H25 H 0.4425 0.9466 0.5300
C27 C 0.5885(4) 0.8606(2) 0.56973(17)
H26 H 0.5897 0.8792 0.6163
C28 C 0.6741(4) 0.7925(2) 0.55084(16)
H27 H 0.7337 0.7649 0.5855
C29 C 0.6746(3) 0.76365(18) 0.48180(16)
H28 H 0.7333 0.7172 0.4707
N1 N 0.5826(3) 0.77538(13) 0.36042(11)
N2 N 0.7348(3) 0.74434(12) 0.25887(13)
O1 O 0.9064(3) 0.80903(13) 0.16707(11)
O2 O 1.0419(2) 0.73869(13) 0.26821(12)
S1 S 0.91254(10) 0.78995(5) 0.24055(4)
loop_
_geom_bond_atom_site_label_1
_geom_bond_atom_site_label_2
_geom_bond_site_symmetry_1
_geom_bond_site_symmetry_2
C1 H1 1_555 1_555
H2 C1 1_555 1_555
H3 C1 1_555 1_555
C2 C1 1_555 1_555
C3 C2 1_555 1_555
H4 C3 1_555 1_555
C4 C3 1_555 1_555
H5 C4 1_555 1_555
C5 C4 1_555 1_555
C6 C5 1_555 1_555
H6 C6 1_555 1_555
C7 C2 1_555 1_555
H7 C7 1_555 1_555
C8 H8 1_555 1_555
C9 C8 1_555 1_555
H9 C9 1_555 1_555
H10 C9 1_555 1_555
C10 H11 1_555 1_555
C11 C8 1_555 1_555
H12 C11 1_555 1_555
H13 C11 1_555 1_555
C12 C11 1_555 1_555
C13 C12 1_555 1_555
H14 C13 1_555 1_555
C14 C13 1_555 1_555
H15 C14 1_555 1_555
C15 C14 1_555 1_555
H16 C15 1_555 1_555
C16 C15 1_555 1_555
H17 C16 1_555 1_555
C17 C12 1_555 1_555
H18 C17 1_555 1_555
C18 C10 1_555 1_555
C19 C18 1_555 1_555
H19 C19 1_555 1_555
C20 C19 1_555 1_555
H20 C20 1_555 1_555
C21 C20 1_555 1_555
H21 C21 1_555 1_555
C22 C21 1_555 1_555
H22 C22 1_555 1_555
C23 C18 1_555 1_555
H23 C23 1_555 1_555
C24 C25 1_555 1_555
C25 H24 1_555 1_555
C26 C25 1_555 1_555
H25 C26 1_555 1_555
C27 C26 1_555 1_555
H26 C27 1_555 1_555
C28 C27 1_555 1_555
H27 C28 1_555 1_555
C29 C24 1_555 1_555
H28 C29 1_555 1_555
N1 C9 1_555 1_555
N2 C8 1_555 1_555
O1 S1 1_555 1_555
O2 S1 1_555 1_555
S1 C5 1_555 1_555
C6 C7 1_555 1_555
C10 N1 1_555 1_555
C10 N2 1_555 1_555
C16 C17 1_555 1_555
C22 C23 1_555 1_555
C24 N1 1_555 1_555
C28 C29 1_555 1_555
N2 S1 1_555 1_555

#END
