
#######################################################################
#
#                 Cambridge Crystallographic Data Centre
#                                CCDC 
#
#######################################################################
#
# If this CIF has been generated from an entry in the Cambridge 
# Structural Database, then it will include bibliographic, chemical, 
# crystal, experimental, refinement or atomic coordinate data resulting 
# from the CCDC's data processing and validation procedures.
#
#######################################################################

data_UVUFOH
_chemical_formula_moiety         'C21 H18 F6 O6'
_chemical_name_systematic        
2,2'-((3,3,4,4,5,5-Hexafluorocyclopent-1-ene-1,2-diyl)-bis(5-methylfuran-4,2-diyl))bis(1,3-dioxolane)
_symmetry_cell_setting           monoclinic
_symmetry_space_group_name_H-M   'C 2/c'
_symmetry_Int_Tables_number      15
_space_group_name_Hall           '-C 2yn'
loop_
_symmetry_equiv_pos_site_id
_symmetry_equiv_pos_as_xyz
1 x,y,z
2 -x,y,1/2-z
3 1/2+x,1/2+y,z
4 1/2-x,1/2+y,1/2-z
5 -x,-y,-z
6 x,-y,1/2+z
7 1/2-x,1/2-y,-z
8 1/2+x,1/2-y,1/2+z
_cell_length_a                   21.390(4)
_cell_length_b                   8.9727(10)
_cell_length_c                   10.6721(18)
_cell_angle_alpha                90
_cell_angle_beta                 93.767(13)
_cell_angle_gamma                90
_cell_volume                     2043.83
_exptl_crystal_colour            yellow
_exptl_crystal_description       prism
_cell_formula_units_Z            4
loop_
_atom_site_label
_atom_site_type_symbol
_atom_site_fract_x
_atom_site_fract_y
_atom_site_fract_z
C1 C 0.29337(11) 0.0631(3) 0.0540(2)
H1 H 0.2854 0.1096 -0.0286
C2 C 0.34744(11) 0.1411(3) 0.1221(2)
C3 C 0.37898(11) 0.2662(3) 0.1005(2)
H2 H 0.3720 0.3307 0.0329
C4 C 0.42606(10) 0.2811(3) 0.2034(2)
C5 C 0.46979(10) 0.4042(2) 0.2265(2)
C6 C 0.44768(12) 0.5603(3) 0.2019(3)
C7 C 0.5000 0.6607(4) 0.2500
C8 C 0.41850(11) 0.1628(3) 0.2804(2)
C9 C 0.44932(12) 0.1122(3) 0.4014(2)
H3 H 0.4302 0.0212 0.4268
H4 H 0.4447 0.1872 0.4642
H5 H 0.4930 0.0953 0.3915
C10 C 0.27896(13) -0.1647(3) 0.1416(3)
H6 H 0.3085 -0.1662 0.2146
H7 H 0.2666 -0.2660 0.1201
C11 C 0.22351(15) -0.0704(4) 0.1640(3)
H8 H 0.1864 -0.1085 0.1176
H9 H 0.2160 -0.0684 0.2526
O1 O 0.37034(7) 0.07514(19) 0.23249(15)
O2 O 0.30490(9) -0.0900(2) 0.03696(18)
O3 O 0.23853(8) 0.0751(2) 0.1210(2)
F1 F 0.38794(17) 0.5867(4) 0.2171(6)
F2 F 0.4486(3) 0.5804(6) 0.0616(5)
F3 F 0.50459(19) 0.7865(4) 0.1974(4)
F4 F 0.46993(16) 0.7005(5) 0.3691(4)
C1A C 0.70663(11) 0.0631(3) 0.4460(2)
H1A H 0.7146 0.1096 0.5286
C2A C 0.65256(11) 0.1411(3) 0.3779(2)
C3A C 0.62102(11) 0.2662(3) 0.3995(2)
H2A H 0.6280 0.3307 0.4671
C4A C 0.57394(10) 0.2811(3) 0.2966(2)
C5A C 0.53021(10) 0.4042(2) 0.2735(2)
C6A C 0.55232(12) 0.5603(3) 0.2981(3)
C8A C 0.58150(11) 0.1628(3) 0.2196(2)
C9A C 0.55068(12) 0.1122(3) 0.0986(2)
H3A H 0.5698 0.0212 0.0732
H4A H 0.5553 0.1872 0.0358
H5A H 0.5070 0.0953 0.1085
C10A C 0.72104(13) -0.1647(3) 0.3584(3)
H6A H 0.6915 -0.1662 0.2854
H7A H 0.7334 -0.2660 0.3799
C11A C 0.77649(15) -0.0704(4) 0.3360(3)
H8A H 0.8136 -0.1085 0.3824
H9A H 0.7840 -0.0684 0.2474
O1A O 0.62966(7) 0.07514(19) 0.26751(15)
O2A O 0.69510(9) -0.0900(2) 0.46304(18)
O3A O 0.76147(8) 0.0751(2) 0.3790(2)
F1A F 0.61206(17) 0.5867(4) 0.2829(6)
F2A F 0.5514(3) 0.5804(6) 0.4384(5)
F5? F 0.4049(2) 0.5989(4) 0.2984(6)
F6? F 0.4200(3) 0.5921(6) 0.0997(6)
loop_
_geom_bond_atom_site_label_1
_geom_bond_atom_site_label_2
_geom_bond_site_symmetry_1
_geom_bond_site_symmetry_2
C1 H1 1_555 1_555
C2 C1 1_555 1_555
C3 C2 1_555 1_555
H2 C3 1_555 1_555
C4 C3 1_555 1_555
C5 C4 1_555 1_555
C6 C5 1_555 1_555
C7 C6 1_555 1_555
C8 C4 1_555 1_555
C9 C8 1_555 1_555
H3 C9 1_555 1_555
H4 C9 1_555 1_555
H5 C9 1_555 1_555
C10 H6 1_555 1_555
H7 C10 1_555 1_555
C11 C10 1_555 1_555
H8 C11 1_555 1_555
H9 C11 1_555 1_555
O1 C2 1_555 1_555
O2 C1 1_555 1_555
O3 C1 1_555 1_555
F1 C6 1_555 1_555
F2 C6 1_555 1_555
F3 C7 1_555 1_555
F4 C7 1_555 1_555
C1A H1A 1_555 1_555
C2A C1A 1_555 1_555
C3A C2A 1_555 1_555
H2A C3A 1_555 1_555
C4A C3A 1_555 1_555
C5A C5 1_555 1_555
C6A C7 1_555 1_555
C8A C4A 1_555 1_555
C9A C8A 1_555 1_555
H3A C9A 1_555 1_555
H4A C9A 1_555 1_555
H5A C9A 1_555 1_555
C10A H6A 1_555 1_555
H7A C10A 1_555 1_555
C11A C10A 1_555 1_555
H8A C11A 1_555 1_555
H9A C11A 1_555 1_555
O1A C2A 1_555 1_555
O2A C1A 1_555 1_555
O3A C1A 1_555 1_555
F1A C6A 1_555 1_555
F2A C6A 1_555 1_555
C8 O1 1_555 1_555
C10 O2 1_555 1_555
C11 O3 1_555 1_555
C4A C5A 1_555 1_555
C5A C6A 1_555 1_555
C8A O1A 1_555 1_555
C10A O2A 1_555 1_555
C11A O3A 1_555 1_555

#END
