
#######################################################################
#
#                 Cambridge Crystallographic Data Centre
#                                CCDC 
#
#######################################################################
#
# If this CIF has been generated from an entry in the Cambridge 
# Structural Database, then it will include bibliographic, chemical, 
# crystal, experimental, refinement or atomic coordinate data resulting 
# from the CCDC's data processing and validation procedures.
#
#######################################################################

data_UVUKOM
_chemical_formula_moiety         'C28 H8 F12'
_chemical_name_systematic        
1,2,3-Trifluoro-6,7,8-tris(3,4,5-trifluorophenyl)naphthalene
_symmetry_cell_setting           monoclinic
_symmetry_space_group_name_H-M   'P 21/c'
_symmetry_Int_Tables_number      14
_space_group_name_Hall           '-P 2ybc'
loop_
_symmetry_equiv_pos_site_id
_symmetry_equiv_pos_as_xyz
1 x,y,z
2 -x,1/2+y,1/2-z
3 -x,-y,-z
4 x,1/2-y,1/2+z
_cell_length_a                   11.3562(2)
_cell_length_b                   11.7305(3)
_cell_length_c                   18.1443(4)
_cell_angle_alpha                90
_cell_angle_beta                 107.1070(10)
_cell_angle_gamma                90
_cell_volume                     2310.13
_exptl_crystal_colour            colorless
_cell_formula_units_Z            4
loop_
_atom_site_label
_atom_site_type_symbol
_atom_site_fract_x
_atom_site_fract_y
_atom_site_fract_z
C1 C 0.17843(16) 0.61631(15) 0.01376(10)
C2 C 0.21552(15) 0.58695(14) 0.09325(10)
C3 C 0.30132(15) 0.50135(14) 0.12108(10)
C4 C 0.35361(15) 0.44192(14) 0.06961(10)
C5 C 0.44564(17) 0.35674(16) 0.09263(12)
C6 C 0.49610(17) 0.30683(15) 0.04131(13)
C7 C 0.45661(19) 0.33727(16) -0.03589(13)
C8 C 0.36719(19) 0.41520(16) -0.06259(12)
H1 H 0.3402 0.4328 -0.1149
C9 C 0.31448(16) 0.47013(15) -0.01021(11)
C10 C 0.22665(17) 0.55735(15) -0.03575(11)
H2 H 0.2006 0.5755 -0.0879
C11 C 0.09202(17) 0.71330(15) -0.01601(10)
C12 C 0.1329(2) 0.80822(17) -0.04573(13)
H3 H 0.2141 0.8119 -0.0469
C13 C 0.0543(2) 0.89765(18) -0.07364(14)
C14 C -0.0646(2) 0.89512(17) -0.07210(13)
C15 C -0.10518(19) 0.80089(19) -0.04227(14)
C16 C -0.02985(18) 0.71003(17) -0.01498(13)
H4 H -0.0599 0.6463 0.0042
C17 C 0.16650(16) 0.65388(14) 0.14808(10)
C18 C 0.22162(18) 0.75650(16) 0.17755(11)
H5 H 0.2893 0.7836 0.1639
C19 C 0.1747(2) 0.81745(17) 0.22722(12)
C20 C 0.0743(2) 0.78035(19) 0.24733(12)
C21 C 0.02141(19) 0.67862(19) 0.21877(12)
C22 C 0.06639(17) 0.61526(17) 0.16944(11)
H6 H 0.0294 0.5463 0.1504
C23 C 0.34018(16) 0.47811(14) 0.20616(10)
C24 C 0.44120(18) 0.53435(18) 0.25466(12)
H7 H 0.4887 0.5830 0.2346
C25 C 0.4697(2) 0.51647(19) 0.33337(13)
C26 C 0.4002(2) 0.44683(18) 0.36396(12)
C27 C 0.3021(2) 0.39143(17) 0.31546(12)
C28 C 0.27194(18) 0.40549(16) 0.23726(11)
H8 H 0.2055 0.3661 0.2051
F1 F 0.48777(11) 0.32345(10) 0.16638(7)
F2 F 0.58653(11) 0.22959(11) 0.06574(9)
F3 F 0.51286(13) 0.28757(11) -0.08370(9)
F4 F 0.09284(17) 0.99013(13) -0.10319(13)
F5 F -0.13987(14) 0.98352(12) -0.09880(10)
F6 F -0.22221(12) 0.79980(13) -0.03925(13)
F7 F 0.22830(15) 0.91636(12) 0.25787(9)
F8 F 0.02835(14) 0.84289(13) 0.29458(8)
F9 F -0.07618(14) 0.64178(15) 0.23989(9)
F10 F 0.56770(14) 0.56881(14) 0.38082(9)
F11 F 0.42629(17) 0.43281(13) 0.44037(7)
F12 F 0.23481(16) 0.32241(13) 0.34697(8)
loop_
_geom_bond_atom_site_label_1
_geom_bond_atom_site_label_2
_geom_bond_site_symmetry_1
_geom_bond_site_symmetry_2
C1 C2 1_555 1_555
C2 C3 1_555 1_555
C3 C4 1_555 1_555
C4 C5 1_555 1_555
C5 C6 1_555 1_555
C6 C7 1_555 1_555
C7 C8 1_555 1_555
C8 H1 1_555 1_555
C9 C4 1_555 1_555
C10 C1 1_555 1_555
H2 C10 1_555 1_555
C11 C1 1_555 1_555
C12 C11 1_555 1_555
H3 C12 1_555 1_555
C13 C12 1_555 1_555
C14 C13 1_555 1_555
C15 C14 1_555 1_555
C16 C11 1_555 1_555
H4 C16 1_555 1_555
C17 C2 1_555 1_555
C18 C17 1_555 1_555
H5 C18 1_555 1_555
C19 C18 1_555 1_555
C20 C19 1_555 1_555
C21 C20 1_555 1_555
C22 C17 1_555 1_555
H6 C22 1_555 1_555
C23 C3 1_555 1_555
C24 C23 1_555 1_555
H7 C24 1_555 1_555
C25 C24 1_555 1_555
C26 C25 1_555 1_555
C27 C26 1_555 1_555
C28 C23 1_555 1_555
H8 C28 1_555 1_555
F1 C5 1_555 1_555
F2 C6 1_555 1_555
F3 C7 1_555 1_555
F4 C13 1_555 1_555
F5 C14 1_555 1_555
F6 C15 1_555 1_555
F7 C19 1_555 1_555
F8 C20 1_555 1_555
F9 C21 1_555 1_555
F10 C25 1_555 1_555
F11 C26 1_555 1_555
F12 C27 1_555 1_555
C8 C9 1_555 1_555
C9 C10 1_555 1_555
C15 C16 1_555 1_555
C21 C22 1_555 1_555
C27 C28 1_555 1_555

#END
