
#######################################################################
#
#                 Cambridge Crystallographic Data Centre
#                                CCDC 
#
#######################################################################
#
# If this CIF has been generated from an entry in the Cambridge 
# Structural Database, then it will include bibliographic, chemical, 
# crystal, experimental, refinement or atomic coordinate data resulting 
# from the CCDC's data processing and validation procedures.
#
#######################################################################

data_UWAJAF
_chemical_formula_moiety         'C14 H4 Cl2 N2 O6,C14 H12 S1'
_chemical_name_systematic        
'1,5-dichloro-4,8-dinitro-9,10-anthraquinone 4,6-dimethyldibenzo[b,d]thiophene'
_symmetry_cell_setting           orthorhombic
_symmetry_space_group_name_H-M   'P c n b'
_symmetry_Int_Tables_number      60
_space_group_name_Hall           '-P 2b 2ac'
loop_
_symmetry_equiv_pos_site_id
_symmetry_equiv_pos_as_xyz
1 x,y,z
2 -x,1/2-y,z
3 1/2+x,-y,1/2-z
4 1/2-x,1/2+y,1/2-z
5 -x,-y,-z
6 x,1/2+y,-z
7 1/2-x,y,1/2+z
8 1/2+x,1/2-y,1/2+z
_cell_length_a                   10.6317(8)
_cell_length_b                   14.5110(10)
_cell_length_c                   16.1526(9)
_cell_angle_alpha                90
_cell_angle_beta                 90
_cell_angle_gamma                90
_cell_volume                     2491.97
_exptl_crystal_colour            orange
_exptl_crystal_description       Needle
_cell_formula_units_Z            4
loop_
_atom_site_label
_atom_site_type_symbol
_atom_site_fract_x
_atom_site_fract_y
_atom_site_fract_z
C1 C 0.5775(2) 0.0104(2) 0.42576(15)
C2 C 0.6354(2) 0.02253(19) 0.50863(14)
C3 C 0.7634(2) 0.04388(19) 0.51890(15)
C4 C 0.8146(2) 0.0544(2) 0.59712(17)
H1 H 0.8992 0.0694 0.6028
C5 C 0.7415(3) 0.0430(2) 0.66613(17)
H2 H 0.7760 0.0495 0.7187
C6 C 0.6171(2) 0.0219(2) 0.65673(16)
C7 C 0.5607(2) 0.01176(19) 0.57937(14)
O1 O 0.63712(19) 0.0164(2) 0.36270(13)
O2 O 0.5047(2) 0.0784(2) 0.76761(14)
O3 O 0.5410(2) -0.0674(2) 0.76351(15)
N1 N 0.5462(2) 0.0095(2) 0.73462(15)
Cl1 Cl 0.86638(6) 0.05790(6) 0.43736(4)
C1D C 0.4225(2) -0.0104(2) 0.57424(15)
C2D C 0.3646(2) -0.02253(19) 0.49137(14)
C3D C 0.2366(2) -0.04388(19) 0.48110(15)
C4D C 0.1854(2) -0.0544(2) 0.40288(17)
H1D H 0.1008 -0.0694 0.3972
C5D C 0.2585(3) -0.0430(2) 0.33387(17)
H2D H 0.2240 -0.0495 0.2813
C6D C 0.3829(2) -0.0219(2) 0.34327(16)
C7D C 0.4393(2) -0.01176(19) 0.42063(14)
O1D O 0.36288(19) -0.0164(2) 0.63730(13)
O2D O 0.4953(2) -0.0784(2) 0.23239(14)
O3D O 0.4590(2) 0.0674(2) 0.23649(15)
N1D N 0.4538(2) -0.0095(2) 0.26538(15)
Cl1D Cl 0.13362(6) -0.05790(6) 0.56264(4)
C8 C 0.3876(4) 0.2327(3) 0.4731(3)
C9 C 0.4340(4) 0.2395(2) 0.5562(3)
C10 C 0.3526(5) 0.2246(4) 0.6185(4)
H3 H 0.3807 0.2286 0.6729
C11 C 0.2295(6) 0.2038(4) 0.6032(6)
H4 H 0.1756 0.1924 0.6474
C12 C 0.1840(6) 0.1992(4) 0.5239(8)
H5 H 0.0991 0.1866 0.5157
C13 C 0.2599(6) 0.2128(3) 0.4562(5)
C14 C 0.2123(7) 0.2092(4) 0.3711(6)
H6 H 0.2573 0.1630 0.3406
H7 H 0.2241 0.2681 0.3451
H8 H 0.1243 0.1943 0.3717
S1 S 0.5000 0.2500 0.39831(14)
C8A C 0.6124(4) 0.2673(3) 0.4731(3)
C9A C 0.5660(4) 0.2605(2) 0.5562(3)
C10A C 0.6474(5) 0.2754(4) 0.6185(4)
H3A H 0.6193 0.2714 0.6729
C11A C 0.7705(6) 0.2962(4) 0.6032(6)
H4A H 0.8244 0.3076 0.6474
C12A C 0.8160(6) 0.3008(4) 0.5239(8)
H5A H 0.9009 0.3134 0.5157
C13A C 0.7401(6) 0.2872(3) 0.4562(5)
C14A C 0.7877(7) 0.2908(4) 0.3711(6)
H6A H 0.7427 0.3370 0.3406
H7A H 0.7759 0.2319 0.3451
H8A H 0.8757 0.3057 0.3717
loop_
_geom_bond_atom_site_label_1
_geom_bond_atom_site_label_2
_geom_bond_site_symmetry_1
_geom_bond_site_symmetry_2
C1 C2 1_555 1_555
C2 C3 1_555 1_555
C3 C4 1_555 1_555
C4 H1 1_555 1_555
C5 C4 1_555 1_555
H2 C5 1_555 1_555
C6 C5 1_555 1_555
C7 C2 1_555 1_555
O1 C1 1_555 1_555
O2 N1 1_555 1_555
O3 N1 1_555 1_555
N1 C6 1_555 1_555
Cl1 C3 1_555 1_555
C8 C9 1_555 1_555
C9 C10 1_555 1_555
C10 H3 1_555 1_555
C11 C10 1_555 1_555
H4 C11 1_555 1_555
C12 C11 1_555 1_555
H5 C12 1_555 1_555
C13 C8 1_555 1_555
C14 C13 1_555 1_555
H6 C14 1_555 1_555
H7 C14 1_555 1_555
H8 C14 1_555 1_555
S1 C8 1_555 1_555
C1D C7 1_555 1_555
C2D C1D 1_555 1_555
C3D C2D 1_555 1_555
C4D C3D 1_555 1_555
H1D C4D 1_555 1_555
C5D C4D 1_555 1_555
H2D C5D 1_555 1_555
C6D C5D 1_555 1_555
C7D C1 1_555 1_555
O1D C1D 1_555 1_555
O2D N1D 1_555 1_555
O3D N1D 1_555 1_555
N1D C6D 1_555 1_555
Cl1D C3D 1_555 1_555
C8A S1 1_555 1_555
C9A C9 1_555 1_555
C10A C9A 1_555 1_555
H3A C10A 1_555 1_555
C11A C10A 1_555 1_555
H4A C11A 1_555 1_555
C12A C11A 1_555 1_555
H5A C12A 1_555 1_555
C13A C8A 1_555 1_555
C14A C13A 1_555 1_555
H6A C14A 1_555 1_555
H7A C14A 1_555 1_555
H8A C14A 1_555 1_555
C6 C7 1_555 1_555
C12 C13 1_555 1_555
C2D C7D 1_555 1_555
C6D C7D 1_555 1_555
C8A C9A 1_555 1_555
C12A C13A 1_555 1_555

#END
