
#######################################################################
#
#                 Cambridge Crystallographic Data Centre
#                                CCDC 
#
#######################################################################
#
# If this CIF has been generated from an entry in the Cambridge 
# Structural Database, then it will include bibliographic, chemical, 
# crystal, experimental, refinement or atomic coordinate data resulting 
# from the CCDC's data processing and validation procedures.
#
#######################################################################

data_UWEVUO
_chemical_formula_moiety         'C26 H16 F5 N3'
_chemical_name_systematic        
(1-(4-(Dimethylamino)phenyl)-3-(pentafluorophenyl)-2-phenylprop-2-en-1-ylidene)malononitrile
_symmetry_cell_setting           triclinic
_symmetry_space_group_name_H-M   'P -1'
_symmetry_Int_Tables_number      2
_space_group_name_Hall           '-P 1'
loop_
_symmetry_equiv_pos_site_id
_symmetry_equiv_pos_as_xyz
1 x,y,z
2 -x,-y,-z
_cell_length_a                   9.4718(7)
_cell_length_b                   10.0314(7)
_cell_length_c                   12.5863(10)
_cell_angle_alpha                69.866(3)
_cell_angle_beta                 83.756(3)
_cell_angle_gamma                73.520(4)
_cell_volume                     1076.6
_exptl_crystal_colour            amber
_exptl_crystal_description       cube
_cell_formula_units_Z            2
loop_
_atom_site_label
_atom_site_type_symbol
_atom_site_fract_x
_atom_site_fract_y
_atom_site_fract_z
F1 F 0.7057(3) 0.3048(3) 0.0808(2)
F2 F 0.9430(3) 0.3470(3) 0.1497(2)
F3 F 1.0989(3) 0.1414(4) 0.3298(3)
F4 F 1.0217(3) -0.1151(4) 0.4356(2)
F5 F 0.7868(3) -0.1617(3) 0.3646(2)
N1 N 0.1349(5) -0.1271(5) 0.0972(4)
N2 N 0.3929(5) -0.1869(6) 0.3781(4)
N3 N 0.1955(4) 0.4851(5) -0.3250(3)
C1 C 0.3612(5) 0.0936(5) 0.1143(4)
C2 C 0.4727(4) 0.1262(5) 0.1708(4)
C3 C 0.6114(5) 0.0424(5) 0.1800(4)
C4 C 0.3110(5) -0.0256(5) 0.1740(4)
C5 C 0.2115(5) -0.0800(5) 0.1302(4)
C6 C 0.3570(5) -0.1146(6) 0.2873(4)
C7 C 0.4184(4) 0.2495(5) 0.2190(4)
C8 C 0.3464(5) 0.3926(5) 0.1529(4)
C9 C 0.2972(5) 0.5037(5) 0.2007(4)
C10 C 0.3168(5) 0.4717(6) 0.3144(4)
C11 C 0.3849(5) 0.3297(6) 0.3822(4)
C12 C 0.4366(5) 0.2198(6) 0.3332(4)
C13 C 0.7362(4) 0.0711(5) 0.2217(4)
C14 C 0.7812(5) 0.1993(5) 0.1699(4)
C15 C 0.9016(5) 0.2228(5) 0.2047(4)
C16 C 0.9823(5) 0.1184(6) 0.2947(4)
C17 C 0.9431(5) -0.0117(6) 0.3485(4)
C18 C 0.8236(5) -0.0332(5) 0.3106(4)
C19 C 0.3149(5) 0.1922(5) 0.0014(4)
C20 C 0.4122(5) 0.2698(5) -0.0688(4)
C21 C 0.3747(5) 0.3634(5) -0.1767(4)
C22 C 0.2353(4) 0.3895(5) -0.2207(4)
C23 C 0.1362(5) 0.3113(5) -0.1490(4)
C24 C 0.1767(5) 0.2163(5) -0.0425(4)
C25 C 0.2965(5) 0.5643(6) -0.3965(4)
C26 C 0.0466(5) 0.5187(6) -0.3651(4)
H1 H 0.6321 -0.0455 0.1573
H2 H 0.3307 0.4144 0.0723
H3 H 0.2487 0.6041 0.1539
H4 H 0.2824 0.5502 0.3481
H5 H 0.3963 0.3074 0.4634
H6 H 0.4866 0.1200 0.3802
H7 H 0.5089 0.2566 -0.0399
H8 H 0.4464 0.4128 -0.2238
H9 H 0.0382 0.3259 -0.1766
H10 H 0.1071 0.1636 0.0043
H11 H 0.2473 0.6292 -0.4780
H12 H 0.3977 0.4866 -0.4073
H13 H 0.3195 0.6359 -0.3572
H14 H 0.0339 0.6029 -0.4473
H15 H -0.0318 0.5574 -0.3062
H16 H 0.0274 0.4205 -0.3714
loop_
_geom_bond_atom_site_label_1
_geom_bond_atom_site_label_2
_geom_bond_site_symmetry_1
_geom_bond_site_symmetry_2
F1 C14 1_555 1_555
F2 C15 1_555 1_555
F3 C16 1_555 1_555
F4 C17 1_555 1_555
F5 C18 1_555 1_555
N1 C5 1_555 1_555
N2 C6 1_555 1_555
N3 C22 1_555 1_555
C1 C2 1_555 1_555
C2 C3 1_555 1_555
C3 C13 1_555 1_555
C4 C1 1_555 1_555
C5 C4 1_555 1_555
C6 C4 1_555 1_555
C7 C2 1_555 1_555
C8 C7 1_555 1_555
C9 C8 1_555 1_555
C10 C9 1_555 1_555
C11 C10 1_555 1_555
C12 C7 1_555 1_555
C13 C14 1_555 1_555
C14 C15 1_555 1_555
C15 C16 1_555 1_555
C16 C17 1_555 1_555
C17 C18 1_555 1_555
C18 C13 1_555 1_555
C19 C1 1_555 1_555
C20 C19 1_555 1_555
C21 C20 1_555 1_555
C22 C21 1_555 1_555
C23 C22 1_555 1_555
C24 C19 1_555 1_555
C25 N3 1_555 1_555
C26 N3 1_555 1_555
H1 C3 1_555 1_555
H2 C8 1_555 1_555
H3 C9 1_555 1_555
H4 C10 1_555 1_555
H5 C11 1_555 1_555
H6 C12 1_555 1_555
H7 C20 1_555 1_555
H8 C21 1_555 1_555
H9 C23 1_555 1_555
H10 C24 1_555 1_555
H11 C25 1_555 1_555
H12 C25 1_555 1_555
H13 C25 1_555 1_555
H14 C26 1_555 1_555
H15 C26 1_555 1_555
H16 C26 1_555 1_555
C11 C12 1_555 1_555
C23 C24 1_555 1_555

#END
