
#######################################################################
#
#                 Cambridge Crystallographic Data Centre
#                                CCDC 
#
#######################################################################
#
# If this CIF has been generated from an entry in the Cambridge 
# Structural Database, then it will include bibliographic, chemical, 
# crystal, experimental, refinement or atomic coordinate data resulting 
# from the CCDC's data processing and validation procedures.
#
#######################################################################

data_UWUFUO
_chemical_formula_moiety         'C86 H100 N8 O10'
_chemical_name_systematic        
1,15-bis(2-(benzyloxy)ethyl)-4,8,11,18,22,25-hexakis(1-phenylethyl)-1,4,8,11,15,18,22,25-octaazacyclooctacosane-2,5,9,12,16,19,23,26-octone
_symmetry_cell_setting           monoclinic
_symmetry_space_group_name_H-M   'P 21'
_symmetry_Int_Tables_number      4
_space_group_name_Hall           'P 2yb'
loop_
_symmetry_equiv_pos_site_id
_symmetry_equiv_pos_as_xyz
1 x,y,z
2 -x,1/2+y,-z
_cell_length_a                   12.6648(5)
_cell_length_b                   22.9295(11)
_cell_length_c                   13.0147(6)
_cell_angle_alpha                90
_cell_angle_beta                 94.084(2)
_cell_angle_gamma                90
_cell_volume                     3769.84
_exptl_crystal_colour            colorless
_exptl_crystal_description       prism
_cell_formula_units_Z            2
loop_
_atom_site_label
_atom_site_type_symbol
_atom_site_fract_x
_atom_site_fract_y
_atom_site_fract_z
O1 O 0.43410(15) 0.67291(8) 1.37070(14)
O2 O 0.22563(16) 0.84437(9) 1.39105(15)
O3 O 0.57325(16) 0.83885(9) 1.56749(15)
O4 O 0.74028(16) 0.68418(9) 1.63722(14)
O5 O 0.67166(15) 0.49547(8) 1.28894(14)
O6 O 0.44079(15) 0.48865(8) 1.13128(14)
O7 O 0.26684(15) 0.37094(9) 1.20921(15)
O8 O 0.60326(16) 0.33212(9) 0.93275(15)
O9 O 0.71972(16) 0.48795(9) 0.86720(14)
O10 O 0.63767(15) 0.68711(9) 1.19237(15)
N1 N 0.46102(17) 0.67422(10) 1.16513(16)
N2 N 0.41267(18) 0.76968(9) 1.38633(16)
N3 N 0.67866(18) 0.77124(10) 1.50204(17)
N4 N 0.75654(17) 0.61545(10) 1.51286(16)
N5 N 0.50369(17) 0.49836(9) 1.33598(16)
N6 N 0.45522(18) 0.39057(10) 1.12634(16)
N7 N 0.69696(18) 0.40493(9) 1.01378(16)
N8 N 0.70514(17) 0.56525(10) 0.97478(16)
C1 C 0.3701(2) 0.63895(12) 1.12259(19)
H1 H 0.3881 0.5979 1.1352
C2 C 0.3513(2) 0.64671(13) 1.0067(2)
C3 C 0.3576(2) 0.70124(13) 0.9606(2)
H2 H 0.3771 0.7336 1.0006
C4 C 0.3351(2) 0.70760(14) 0.8551(2)
H3 H 0.3395 0.7441 0.8247
C5 C 0.3059(2) 0.65911(16) 0.7950(2)
H4 H 0.2908 0.6633 0.7244
C6 C 0.2992(2) 0.60493(16) 0.8402(2)
H5 H 0.2798 0.5727 0.7999
C7 C 0.3215(2) 0.59842(14) 0.9458(2)
H6 H 0.3166 0.5618 0.976
C8 C 0.2686(2) 0.65122(14) 1.1753(2)
H7 H 0.2816 0.6463 1.2484
H8 H 0.2144 0.6246 1.15
H9 H 0.2459 0.6905 1.1607
C9 C 0.4435(2) 0.72934(11) 1.21593(19)
H10 H 0.3809 0.7479 1.1833
H11 H 0.5033 0.7549 1.2077
C10 C 0.42902(19) 0.72128(11) 1.33054(19)
C11 C 0.4005(2) 0.82828(11) 1.3417(2)
H12 H 0.4449 0.8315 1.2842
H13 H 0.4251 0.8567 1.393
C12 C 0.2875(2) 0.84279(13) 1.3043(2)
H14 H 0.285 0.8803 1.2699
H15 H 0.2601 0.8135 1.2558
C13 C 0.1156(2) 0.84925(15) 1.3625(3)
H16 H 0.1053 0.8777 1.3077
H17 H 0.08 0.8636 1.4211
C14 C 0.0651(2) 0.79207(15) 1.3267(2)
C15 C -0.0264(3) 0.79270(17) 1.2617(3)
H18 H -0.052 0.828 1.2351
C16 C -0.0804(3) 0.7417(2) 1.2356(3)
H19 H -0.1427 0.743 1.1934
C17 C -0.0415(3) 0.68916(19) 1.2725(3)
H20 H -0.0772 0.6548 1.2548
C18 C 0.0509(3) 0.68751(17) 1.3362(3)
H21 H 0.0777 0.652 1.3607
C19 C 0.1036(3) 0.73913(15) 1.3635(3)
H22 H 0.1653 0.7379 1.4068
C20 C 0.3993(2) 0.76193(12) 1.49716(19)
H23 H 0.3456 0.7325 1.5059
H24 H 0.3748 0.7983 1.5253
C21 C 0.5025(2) 0.74349(12) 1.5571(2)
H25 H 0.491 0.7401 1.6297
H26 H 0.5246 0.7057 1.5328
C22 C 0.5880(2) 0.78792(12) 1.54244(19)
C23 C 0.7639(2) 0.81469(12) 1.5002(2)
H27 H 0.7521 0.8433 1.554
C24 C 0.7614(2) 0.84778(13) 1.3989(2)
C25 C 0.7101(2) 0.82721(14) 1.3084(2)
H28 H 0.6721 0.7925 1.3087
C26 C 0.7153(3) 0.85833(16) 1.2173(3)
H29 H 0.6813 0.844 1.1568
C27 C 0.7702(3) 0.91018(17) 1.2154(3)
H30 H 0.7733 0.9306 1.1539
C28 C 0.8207(3) 0.93174(16) 1.3054(3)
H31 H 0.857 0.967 1.305
C29 C 0.8165(3) 0.90034(15) 1.3963(3)
H32 H 0.8512 0.9146 1.4565
C30 C 0.8730(2) 0.78767(14) 1.5267(2)
H33 H 0.8723 0.7669 1.5907
H34 H 0.9253 0.818 1.533
H35 H 0.8896 0.7612 1.473
C31 C 0.6954(2) 0.71296(12) 1.4620(2)
H36 H 0.7479 0.7149 1.4114
H37 H 0.6298 0.699 1.4275
C32 C 0.7325(2) 0.66940(12) 1.5462(2)
C33 C 0.8046(2) 0.57261(12) 1.5874(2)
H38 H 0.7966 0.5885 1.6564
C34 C 0.9225(2) 0.57090(14) 1.5730(2)
C35 C 0.9844(2) 0.61656(17) 1.6148(2)
H39 H 0.9535 0.6452 1.6535
C36 C 1.0913(3) 0.6197(2) 1.5993(3)
H40 H 1.132 0.6501 1.6281
C37 C 1.1369(3) 0.5779(2) 1.5414(3)
H41 H 1.2088 0.5797 1.5314
C38 C 1.0760(3) 0.53276(16) 1.4978(3)
H42 H 1.1067 0.5049 1.4574
C39 C 0.9696(2) 0.52925(14) 1.5145(2)
H43 H 0.9293 0.4986 1.4861
C40 C 0.7485(2) 0.51380(14) 1.5824(2)
H44 H 0.6748 0.5193 1.5925
H45 H 0.7796 0.4887 1.6353
H46 H 0.7558 0.4963 1.5162
C41 C 0.7373(2) 0.59672(12) 1.40476(19)
H47 H 0.7815 0.5633 1.392
H48 H 0.7561 0.628 1.3593
C42 C 0.62055(19) 0.58048(11) 1.38168(19)
H49 H 0.5857 0.5813 1.4457
H50 H 0.5874 0.61 1.3367
C43 C 0.6018(2) 0.52121(11) 1.33171(18)
C44 C 0.41752(19) 0.52947(12) 1.38502(19)
H51 H 0.4234 0.5709 1.3676
C45 C 0.4320(2) 0.52467(12) 1.50231(19)
C46 C 0.4439(2) 0.57548(12) 1.5608(2)
H52 H 0.4351 0.6116 1.5288
C47 C 0.4685(2) 0.57265(13) 1.6660(2)
H53 H 0.4793 0.6068 1.7038
C48 C 0.4772(3) 0.51932(14) 1.7149(2)
H54 H 0.4938 0.5174 1.7856
C49 C 0.4608(3) 0.46869(14) 1.6578(2)
H55 H 0.4643 0.4327 1.6909
C50 C 0.4394(3) 0.47096(12) 1.5517(2)
H56 H 0.4299 0.4367 1.5139
C51 C 0.3081(2) 0.50902(14) 1.3422(2)
H57 H 0.3058 0.508 1.2684
H58 H 0.2552 0.5355 1.3636
H59 H 0.2945 0.4707 1.368
C52 C 0.4857(2) 0.44049(11) 1.29321(18)
H60 H 0.4288 0.4219 1.327
H61 H 0.5491 0.4172 1.3067
C53 C 0.4572(2) 0.44242(11) 1.17715(19)
C54 C 0.4384(2) 0.33544(12) 1.1790(2)
H62 H 0.4691 0.338 1.2493
H63 H 0.4746 0.3045 1.1447
C55 C 0.3214(2) 0.32011(12) 1.1802(2)
H64 H 0.2941 0.3071 1.1125
H65 H 0.3118 0.289 1.2291
C56 C 0.1552(2) 0.36323(13) 1.2049(2)
H66 H 0.1354 0.3443 1.2673
H67 H 0.1328 0.3386 1.1468
C57 C 0.1015(2) 0.42174(13) 1.1936(2)
C58 C 0.0144(2) 0.43464(16) 1.2475(2)
H68 H -0.0083 0.4082 1.2954
C59 C -0.0396(3) 0.48699(18) 1.2304(3)
H69 H -0.0988 0.4952 1.2663
C60 C -0.0054(3) 0.52690(16) 1.1599(3)
H70 H -0.0418 0.5618 1.1483
C61 C 0.0827(3) 0.51488(15) 1.1070(3)
H71 H 0.1064 0.5418 1.0604
C62 C 0.1356(2) 0.46265(14) 1.1236(2)
H72 H 0.1947 0.4546 1.0876
C63 C 0.4244(2) 0.39228(12) 1.01550(18)
H73 H 0.3594 0.4144 1.0042
H74 H 0.4104 0.3529 0.9911
C64 C 0.5092(2) 0.41956(12) 0.95299(19)
H75 H 0.4839 0.4217 0.8809
H76 H 0.5246 0.4588 0.9773
C65 C 0.6082(2) 0.38271(12) 0.96480(19)
C66 C 0.7909(2) 0.36739(12) 1.0273(2)
H77 H 0.7755 0.3326 0.985
C67 C 0.8106(2) 0.34617(12) 1.1378(2)
C68 C 0.7575(2) 0.36771(12) 1.2196(2)
H78 H 0.7071 0.3969 1.2078
C69 C 0.7787(2) 0.34600(14) 1.3189(2)
H79 H 0.7435 0.3613 1.3731
C70 C 0.8520(2) 0.30170(14) 1.3374(2)
H80 H 0.8655 0.2869 1.4035
C71 C 0.9051(2) 0.27966(14) 1.2565(2)
H81 H 0.9543 0.2499 1.2682
C72 C 0.8850(2) 0.30180(13) 1.1583(2)
H82 H 0.9218 0.2869 1.1047
C73 C 0.8879(2) 0.39601(14) 0.9856(2)
H83 H 0.8711 0.4084 0.9159
H84 H 0.9451 0.3684 0.9873
H85 H 0.9086 0.4292 1.0273
C74 C 0.7049(2) 0.46590(11) 1.04587(19)
H86 H 0.7678 0.471 1.0921
H87 H 0.6439 0.4759 1.0833
C75 C 0.7105(2) 0.50738(12) 0.95380(19)
C76 C 0.7237(2) 0.60691(12) 0.89103(19)
H88 H 0.7167 0.585 0.8262
C77 C 0.8380(2) 0.62776(13) 0.9054(2)
C78 C 0.8680(2) 0.67795(14) 0.9611(2)
H89 H 0.8166 0.7018 0.9867
C79 C 0.9744(3) 0.69223(16) 0.9784(2)
H90 H 0.994 0.725 1.0174
C80 C 1.0507(3) 0.65827(16) 0.9382(2)
H91 H 1.1217 0.6686 0.9487
C81 C 1.0223(2) 0.60904(15) 0.8826(2)
H92 H 1.074 0.5861 0.8553
C82 C 0.9162(2) 0.59363(14) 0.8671(2)
H93 H 0.8976 0.5599 0.8305
C83 C 0.6424(2) 0.65599(13) 0.8821(2)
H94 H 0.5725 0.6397 0.8731
H95 H 0.6551 0.68 0.8238
H96 H 0.6482 0.6792 0.9436
C84 C 0.6948(2) 0.58934(11) 1.07823(19)
H97 H 0.7345 0.6255 1.0853
H98 H 0.7251 0.5621 1.1293
C85 C 0.5791(2) 0.60105(11) 1.09874(19)
H99 H 0.5371 0.6022 1.0334
H100 H 0.5533 0.569 1.1386
C86 C 0.5629(2) 0.65770(11) 1.15610(19)
loop_
_geom_bond_atom_site_label_1
_geom_bond_atom_site_label_2
_geom_bond_site_symmetry_1
_geom_bond_site_symmetry_2
O1 C10 1_555 1_555
O2 C12 1_555 1_555
O3 C22 1_555 1_555
O4 C32 1_555 1_555
O5 C43 1_555 1_555
O6 C53 1_555 1_555
O7 C55 1_555 1_555
O8 C65 1_555 1_555
O9 C75 1_555 1_555
O10 C86 1_555 1_555
N1 C1 1_555 1_555
N2 C10 1_555 1_555
N3 C22 1_555 1_555
N4 C32 1_555 1_555
N5 C43 1_555 1_555
N6 C53 1_555 1_555
N7 C65 1_555 1_555
N8 C75 1_555 1_555
C1 H1 1_555 1_555
C2 C1 1_555 1_555
C3 C2 1_555 1_555
H2 C3 1_555 1_555
C4 C3 1_555 1_555
H3 C4 1_555 1_555
C5 C4 1_555 1_555
H4 C5 1_555 1_555
C6 C5 1_555 1_555
H5 C6 1_555 1_555
C7 C2 1_555 1_555
H6 C7 1_555 1_555
C8 C1 1_555 1_555
H7 C8 1_555 1_555
H8 C8 1_555 1_555
H9 C8 1_555 1_555
C9 N1 1_555 1_555
H10 C9 1_555 1_555
H11 C9 1_555 1_555
C10 C9 1_555 1_555
C11 N2 1_555 1_555
H12 C11 1_555 1_555
H13 C11 1_555 1_555
C12 C11 1_555 1_555
H14 C12 1_555 1_555
H15 C12 1_555 1_555
C13 O2 1_555 1_555
H16 C13 1_555 1_555
H17 C13 1_555 1_555
C14 C13 1_555 1_555
C15 C14 1_555 1_555
H18 C15 1_555 1_555
C16 C15 1_555 1_555
H19 C16 1_555 1_555
C17 C16 1_555 1_555
H20 C17 1_555 1_555
C18 C17 1_555 1_555
H21 C18 1_555 1_555
C19 C14 1_555 1_555
H22 C19 1_555 1_555
C20 N2 1_555 1_555
H23 C20 1_555 1_555
H24 C20 1_555 1_555
C21 C20 1_555 1_555
H25 C21 1_555 1_555
H26 C21 1_555 1_555
C22 C21 1_555 1_555
C23 N3 1_555 1_555
H27 C23 1_555 1_555
C24 C23 1_555 1_555
C25 C24 1_555 1_555
H28 C25 1_555 1_555
C26 C25 1_555 1_555
H29 C26 1_555 1_555
C27 C26 1_555 1_555
H30 C27 1_555 1_555
C28 C27 1_555 1_555
H31 C28 1_555 1_555
C29 C24 1_555 1_555
H32 C29 1_555 1_555
C30 C23 1_555 1_555
H33 C30 1_555 1_555
H34 C30 1_555 1_555
H35 C30 1_555 1_555
C31 N3 1_555 1_555
H36 C31 1_555 1_555
H37 C31 1_555 1_555
C32 C31 1_555 1_555
C33 N4 1_555 1_555
H38 C33 1_555 1_555
C34 C33 1_555 1_555
C35 C34 1_555 1_555
H39 C35 1_555 1_555
C36 C35 1_555 1_555
H40 C36 1_555 1_555
C37 C36 1_555 1_555
H41 C37 1_555 1_555
C38 C37 1_555 1_555
H42 C38 1_555 1_555
C39 C34 1_555 1_555
H43 C39 1_555 1_555
C40 C33 1_555 1_555
H44 C40 1_555 1_555
H45 C40 1_555 1_555
H46 C40 1_555 1_555
C41 N4 1_555 1_555
H47 C41 1_555 1_555
H48 C41 1_555 1_555
C42 C41 1_555 1_555
H49 C42 1_555 1_555
H50 C42 1_555 1_555
C43 C42 1_555 1_555
C44 N5 1_555 1_555
H51 C44 1_555 1_555
C45 C44 1_555 1_555
C46 C45 1_555 1_555
H52 C46 1_555 1_555
C47 C46 1_555 1_555
H53 C47 1_555 1_555
C48 C47 1_555 1_555
H54 C48 1_555 1_555
C49 C48 1_555 1_555
H55 C49 1_555 1_555
C50 C45 1_555 1_555
H56 C50 1_555 1_555
C51 C44 1_555 1_555
H57 C51 1_555 1_555
H58 C51 1_555 1_555
H59 C51 1_555 1_555
C52 N5 1_555 1_555
H60 C52 1_555 1_555
H61 C52 1_555 1_555
C53 C52 1_555 1_555
C54 N6 1_555 1_555
H62 C54 1_555 1_555
H63 C54 1_555 1_555
C55 C54 1_555 1_555
H64 C55 1_555 1_555
H65 C55 1_555 1_555
C56 O7 1_555 1_555
H66 C56 1_555 1_555
H67 C56 1_555 1_555
C57 C56 1_555 1_555
C58 C57 1_555 1_555
H68 C58 1_555 1_555
C59 C58 1_555 1_555
H69 C59 1_555 1_555
C60 C59 1_555 1_555
H70 C60 1_555 1_555
C61 C60 1_555 1_555
H71 C61 1_555 1_555
C62 C57 1_555 1_555
H72 C62 1_555 1_555
C63 N6 1_555 1_555
H73 C63 1_555 1_555
H74 C63 1_555 1_555
C64 C63 1_555 1_555
H75 C64 1_555 1_555
H76 C64 1_555 1_555
C65 C64 1_555 1_555
C66 N7 1_555 1_555
H77 C66 1_555 1_555
C67 C66 1_555 1_555
C68 C67 1_555 1_555
H78 C68 1_555 1_555
C69 C68 1_555 1_555
H79 C69 1_555 1_555
C70 C69 1_555 1_555
H80 C70 1_555 1_555
C71 C70 1_555 1_555
H81 C71 1_555 1_555
C72 C67 1_555 1_555
H82 C72 1_555 1_555
C73 C66 1_555 1_555
H83 C73 1_555 1_555
H84 C73 1_555 1_555
H85 C73 1_555 1_555
C74 N7 1_555 1_555
H86 C74 1_555 1_555
H87 C74 1_555 1_555
C75 C74 1_555 1_555
C76 N8 1_555 1_555
H88 C76 1_555 1_555
C77 C76 1_555 1_555
C78 C77 1_555 1_555
H89 C78 1_555 1_555
C79 C78 1_555 1_555
H90 C79 1_555 1_555
C80 C79 1_555 1_555
H91 C80 1_555 1_555
C81 C80 1_555 1_555
H92 C81 1_555 1_555
C82 C77 1_555 1_555
H93 C82 1_555 1_555
C83 C76 1_555 1_555
H94 C83 1_555 1_555
H95 C83 1_555 1_555
H96 C83 1_555 1_555
C84 N8 1_555 1_555
H97 C84 1_555 1_555
H98 C84 1_555 1_555
C85 C84 1_555 1_555
H99 C85 1_555 1_555
H100 C85 1_555 1_555
C86 N1 1_555 1_555
C6 C7 1_555 1_555
C18 C19 1_555 1_555
C28 C29 1_555 1_555
C38 C39 1_555 1_555
C49 C50 1_555 1_555
C61 C62 1_555 1_555
C71 C72 1_555 1_555
C81 C82 1_555 1_555
C85 C86 1_555 1_555

#END
