
#######################################################################
#
#                 Cambridge Crystallographic Data Centre
#                                CCDC 
#
#######################################################################
#
# If this CIF has been generated from an entry in the Cambridge 
# Structural Database, then it will include bibliographic, chemical, 
# crystal, experimental, refinement or atomic coordinate data resulting 
# from the CCDC's data processing and validation procedures.
#
#######################################################################

data_UWUGOK
_chemical_formula_moiety         'C23 H26 B10'
_chemical_name_systematic        
1-(3-(anthracen-9-yl)phenyl)-2-methyl-1,2-dicarba-closo-dodecaborane(10)
_symmetry_cell_setting           monoclinic
_symmetry_space_group_name_H-M   'P 21/n'
_symmetry_Int_Tables_number      14
_space_group_name_Hall           '-P 2yn'
loop_
_symmetry_equiv_pos_site_id
_symmetry_equiv_pos_as_xyz
1 x,y,z
2 1/2-x,1/2+y,1/2-z
3 -x,-y,-z
4 1/2+x,1/2-y,1/2+z
_cell_length_a                   7.684(3)
_cell_length_b                   23.434(7)
_cell_length_c                   12.637(4)
_cell_angle_alpha                90
_cell_angle_beta                 94.433(6)
_cell_angle_gamma                90
_cell_volume                     2268.7
_exptl_crystal_colour            colorless
_exptl_crystal_description       block
_cell_formula_units_Z            4
loop_
_atom_site_label
_atom_site_type_symbol
_atom_site_fract_x
_atom_site_fract_y
_atom_site_fract_z
B1 B 0.0169(3) 0.76648(9) 0.10428(16)
B2 B -0.1201(3) 0.80280(10) 0.0074(2)
B3 B -0.0616(3) 0.78050(9) -0.11866(18)
B4 B 0.1112(3) 0.73064(8) -0.09966(16)
B5 B -0.2466(3) 0.75086(11) -0.0651(2)
B6 B -0.1034(3) 0.70650(9) -0.13121(19)
B7 B 0.0320(3) 0.67097(8) -0.03373(17)
B8 B -0.0255(3) 0.69292(9) 0.09245(18)
B9 B -0.1978(3) 0.74273(11) 0.0743(2)
B10 B -0.1895(3) 0.68320(10) -0.0122(2)
C1 C 0.3318(2) 0.71481(8) 0.07870(16)
H1 H 0.3888 0.7512 0.0854
H2 H 0.3917 0.6910 0.0315
H3 H 0.3336 0.6970 0.1472
C2 C 0.1462(2) 0.72295(6) 0.03511(13)
C3 C 0.0915(2) 0.78797(6) -0.01498(12)
C4 C 0.2280(2) 0.83423(6) -0.01312(13)
C5 C 0.2579(2) 0.86929(6) 0.07518(13)
H4 H 0.1921 0.8640 0.1332
C6 C 0.3838(2) 0.91204(6) 0.07895(13)
C7 C 0.4792(2) 0.91994(7) -0.00865(14)
H5 H 0.5652 0.9479 -0.0073
C8 C 0.4470(3) 0.88640(7) -0.09798(14)
H6 H 0.5097 0.8926 -0.1570
C9 C 0.3229(2) 0.84392(7) -0.10045(13)
H7 H 0.3026 0.8216 -0.1610
C10 C 0.4144(2) 0.94889(6) 0.17551(13)
C11 C 0.5721(2) 0.94390(7) 0.23977(13)
C12 C 0.7024(3) 0.90246(8) 0.22182(15)
H8 H 0.6838 0.8771 0.1655
C13 C 0.8532(3) 0.89921(9) 0.28521(18)
H9 H 0.9356 0.8716 0.2717
C14 C 0.8866(3) 0.93687(9) 0.37063(17)
H10 H 0.9918 0.9348 0.4121
C15 C 0.7658(3) 0.97611(8) 0.39260(16)
H11 H 0.7886 1.0006 0.4500
C16 C 0.6040(2) 0.98087(7) 0.32974(14)
C17 C 0.4764(3) 1.01937(7) 0.35426(15)
H12 H 0.4972 1.0430 0.4129
C18 C 0.3171(3) 1.02370(6) 0.29334(14)
C19 C 0.1856(3) 1.06255(7) 0.31985(16)
H13 H 0.2042 1.0849 0.3805
C20 C 0.0344(3) 1.06782(8) 0.25909(17)
H14 H -0.0501 1.0935 0.2781
C21 C 0.0043(3) 1.03432(8) 0.16641(17)
H15 H -0.0994 1.0385 0.1241
C22 C 0.1253(3) 0.99610(7) 0.13873(15)
H16 H 0.1028 0.9744 0.0776
C23 C 0.2864(2) 0.98836(6) 0.20111(13)
H17 H 0.225(2) 0.7293(7) -0.1396(14)
H18 H 0.077(2) 0.7857(7) 0.1779(15)
H19 H -0.152(2) 0.8473(7) 0.0209(14)
H20 H -0.051(2) 0.8115(7) -0.1824(15)
H21 H 0.095(2) 0.6314(7) -0.0446(13)
H22 H -0.137(2) 0.6864(7) -0.2093(15)
H23 H 0.005(2) 0.6651(7) 0.1629(16)
H24 H -0.296(3) 0.7478(8) 0.1349(17)
H25 H -0.283(2) 0.6461(8) -0.0091(15)
H26 H -0.384(2) 0.7607(8) -0.1004(15)
loop_
_geom_bond_atom_site_label_1
_geom_bond_atom_site_label_2
_geom_bond_site_symmetry_1
_geom_bond_site_symmetry_2
B1 B2 1_555 1_555
B2 B3 1_555 1_555
B3 B4 1_555 1_555
B4 B6 1_555 1_555
B5 B2 1_555 1_555
B6 B3 1_555 1_555
B7 B4 1_555 1_555
B8 B1 1_555 1_555
B9 B1 1_555 1_555
B10 B5 1_555 1_555
C1 H1 1_555 1_555
H2 C1 1_555 1_555
H3 C1 1_555 1_555
C2 B1 1_555 1_555
C3 B1 1_555 1_555
C4 C3 1_555 1_555
C5 C4 1_555 1_555
H4 C5 1_555 1_555
C6 C5 1_555 1_555
C7 C6 1_555 1_555
H5 C7 1_555 1_555
C8 C7 1_555 1_555
H6 C8 1_555 1_555
C9 C4 1_555 1_555
H7 C9 1_555 1_555
C10 C6 1_555 1_555
C11 C10 1_555 1_555
C12 C11 1_555 1_555
H8 C12 1_555 1_555
C13 C12 1_555 1_555
H9 C13 1_555 1_555
C14 C13 1_555 1_555
H10 C14 1_555 1_555
C15 C14 1_555 1_555
H11 C15 1_555 1_555
C16 C11 1_555 1_555
C17 C16 1_555 1_555
H12 C17 1_555 1_555
C18 C17 1_555 1_555
C19 C18 1_555 1_555
H13 C19 1_555 1_555
C20 C19 1_555 1_555
H14 C20 1_555 1_555
C21 C20 1_555 1_555
H15 C21 1_555 1_555
C22 C21 1_555 1_555
H16 C22 1_555 1_555
C23 C10 1_555 1_555
H17 B4 1_555 1_555
H18 B1 1_555 1_555
H19 B2 1_555 1_555
H20 B3 1_555 1_555
H21 B7 1_555 1_555
H22 B6 1_555 1_555
H23 B8 1_555 1_555
H24 B9 1_555 1_555
H25 B10 1_555 1_555
H26 B5 1_555 1_555
B2 B9 1_555 1_555
B2 C3 1_555 1_555
B3 B5 1_555 1_555
B3 C3 1_555 1_555
B4 C2 1_555 1_555
B4 C3 1_555 1_555
B5 B6 1_555 1_555
B5 B9 1_555 1_555
B6 B7 1_555 1_555
B6 B10 1_555 1_555
B7 B8 1_555 1_555
B7 B10 1_555 1_555
B7 C2 1_555 1_555
B8 B9 1_555 1_555
B8 B10 1_555 1_555
B8 C2 1_555 1_555
B9 B10 1_555 1_555
C1 C2 1_555 1_555
C2 C3 1_555 1_555
C8 C9 1_555 1_555
C15 C16 1_555 1_555
C18 C23 1_555 1_555
C22 C23 1_555 1_555

#END
