
#######################################################################
#
#                 Cambridge Crystallographic Data Centre
#                                CCDC 
#
#######################################################################
#
# If this CIF has been generated from an entry in the Cambridge 
# Structural Database, then it will include bibliographic, chemical, 
# crystal, experimental, refinement or atomic coordinate data resulting 
# from the CCDC's data processing and validation procedures.
#
#######################################################################

data_UXASIW
_chemical_formula_moiety         'C23 H23 N1 O1'
_chemical_name_systematic        
Diphenyl((2R)-l-((S)-1-phenylethyl)aziridin-2-yl)methanol
_symmetry_cell_setting           triclinic
_symmetry_space_group_name_H-M   'P 1'
_symmetry_Int_Tables_number      1
_space_group_name_Hall           'P 1'
loop_
_symmetry_equiv_pos_site_id
_symmetry_equiv_pos_as_xyz
1 x,y,z
_cell_length_a                   5.8386(12)
_cell_length_b                   8.7672(18)
_cell_length_c                   19.138(4)
_cell_angle_alpha                92.43(3)
_cell_angle_beta                 91.28(3)
_cell_angle_gamma                106.86(3)
_cell_volume                     936.073
_exptl_crystal_colour            colorless
_exptl_crystal_description       prismatic
_chemical_melting_point          '91.4-92.0 deg.C'
_cell_formula_units_Z            2
loop_
_atom_site_label
_atom_site_type_symbol
_atom_site_fract_x
_atom_site_fract_y
_atom_site_fract_z
O1 O 0.0312(5) 0.4585(4) 0.51348(17)
N1 N 0.4095(6) 0.4915(4) 0.59787(15)
C1 C 0.2840(9) 0.1712(6) 0.6378(2)
H1 H 0.1708 0.2124 0.6170
C3 C 0.2217(12) 0.0102(7) 0.6499(3)
H3 H 0.0686 -0.0551 0.6376
C5 C 0.3875(15) -0.0526(7) 0.6803(3)
H5 H 0.3485 -0.1608 0.6886
C7 C 0.6108(14) 0.0464(8) 0.6983(4)
H7 H 0.7236 0.0055 0.7195
C9 C 0.6697(10) 0.2046(7) 0.6855(3)
H9 H 0.8238 0.2690 0.6974
C11 C 0.5077(8) 0.2720(5) 0.65533(19)
C13 C 0.5803(8) 0.4483(5) 0.64476(19)
H11 H 0.7379 0.4784 0.6239
C15 C 0.5962(11) 0.5464(7) 0.7139(2)
H13 H 0.6429 0.6579 0.7050
H14 H 0.7129 0.5246 0.7450
H15 H 0.4428 0.5179 0.7350
C17 C 0.5133(9) 0.6388(5) 0.5607(2)
H19 H 0.4128 0.7074 0.5523
H20 H 0.6819 0.6940 0.5695
C19 C 0.4498(7) 0.4818(5) 0.52295(18)
H23 H 0.5840 0.4421 0.5095
C21 C 0.2215(6) 0.4211(5) 0.47713(17)
C23 C 0.1600(6) 0.2396(4) 0.46323(18)
C25 C 0.3254(8) 0.1737(5) 0.4319(2)
H25 H 0.4700 0.2411 0.4181
C27 C 0.2791(11) 0.0094(6) 0.4207(3)
H27 H 0.3928 -0.0322 0.4004
C29 C 0.0681(12) -0.0891(6) 0.4395(3)
H29 H 0.0372 -0.1990 0.4330
C31 C -0.1005(10) -0.0270(7) 0.4682(3)
H31 H -0.2477 -0.0952 0.4796
C33 C -0.0542(8) 0.1376(6) 0.4805(2)
H33 H -0.1696 0.1779 0.5005
C35 C 0.2408(7) 0.5015(4) 0.40796(17)
C37 C 0.0337(8) 0.4817(6) 0.3674(2)
H35 H -0.1125 0.4211 0.3832
C39 C 0.0421(9) 0.5507(6) 0.3041(2)
H37 H -0.0982 0.5364 0.2774
C41 C 0.2565(10) 0.6406(6) 0.2798(2)
H39 H 0.2615 0.6878 0.2370
C43 C 0.4624(10) 0.6601(6) 0.3191(2)
H41 H 0.6081 0.7202 0.3028
C45 C 0.4550(8) 0.5912(5) 0.3830(2)
H43 H 0.5961 0.6054 0.4093
H46 H 0.079(12) 0.454(9) 0.555(4)
O2 O -1.3197(5) 0.2530(4) 0.03570(16)
N2 N -0.9722(5) 0.2364(4) -0.04842(15)
C2 C -0.4688(8) 0.5493(6) -0.0857(2)
H2 H -0.3598 0.5020 -0.0668
C4 C -0.4002(12) 0.7118(8) -0.0938(3)
H4 H -0.2476 0.7737 -0.0789
C6 C -0.5566(15) 0.7815(8) -0.1237(4)
H6 H -0.5084 0.8905 -0.1304
C8 C -0.7846(13) 0.6917(8) -0.1440(3)
H8 H -0.8910 0.7401 -0.1637
C10 C -0.8560(9) 0.5288(6) -0.1349(2)
H10 H -1.0105 0.4680 -0.1486
C12 C -0.6970(7) 0.4561(5) -0.10540(18)
C14 C -0.7713(7) 0.2788(5) -0.09591(18)
H12 H -0.6355 0.2510 -0.0746
C16 C -0.8473(12) 0.1784(7) -0.1643(2)
H16 H -0.8922 0.0672 -0.1547
H17 H -0.7163 0.2013 -0.1954
H18 H -0.9813 0.2035 -0.1857
C18 C -0.9816(8) 0.0946(5) -0.0076(2)
H21 H -1.1380 0.0237 0.0019
H22 H -0.8576 0.0426 -0.0146
C20 C -0.9111(6) 0.2568(4) 0.02677(17)
H24 H -0.7414 0.3028 0.0403
C22 C -1.0902(6) 0.3095(4) 0.07144(18)
C24 C -1.0324(7) 0.4910(4) 0.08423(17)
C26 C -0.8201(8) 0.5986(5) 0.0654(2)
H26 H -0.7041 0.5617 0.0436
C28 C -0.7806(10) 0.7614(6) 0.0790(3)
H28 H -0.6392 0.8326 0.0653
C30 C -0.9450(10) 0.8183(5) 0.1120(2)
H30 H -0.9163 0.9273 0.1213
C32 C -1.1566(10) 0.7109(6) 0.1316(3)
H32 H -1.2703 0.7481 0.1545
C34 C -1.1985(8) 0.5508(5) 0.1175(2)
H34 H -1.3418 0.4805 0.1304
C36 C -1.1067(7) 0.2297(4) 0.14148(18)
C38 C -0.9010(8) 0.2561(5) 0.1831(2)
H36 H -0.7571 0.3230 0.1686
C40 C -0.9081(10) 0.1839(6) 0.2459(2)
H38 H -0.7679 0.2000 0.2729
C42 C -1.1173(11) 0.0898(6) 0.2685(2)
H40 H -1.1212 0.0423 0.3112
C44 C -1.3223(11) 0.0650(7) 0.2287(3)
H42 H -1.4664 0.0012 0.2444
C46 C -1.3171(8) 0.1349(5) 0.1640(2)
H44 H -1.4570 0.1166 0.1366
H45 H -1.270(9) 0.267(6) -0.015(3)
loop_
_geom_bond_atom_site_label_1
_geom_bond_atom_site_label_2
_geom_bond_site_symmetry_1
_geom_bond_site_symmetry_2
O1 C21 1_555 1_555
O2 C22 1_555 1_555
N1 C13 1_555 1_555
N2 C14 1_555 1_555
C1 H1 1_555 1_555
C2 H2 1_555 1_555
C3 C1 1_555 1_555
H3 C3 1_555 1_555
C4 C2 1_555 1_555
H4 C4 1_555 1_555
C5 C3 1_555 1_555
H5 C5 1_555 1_555
C6 C4 1_555 1_555
H6 C6 1_555 1_555
C7 C5 1_555 1_555
H7 C7 1_555 1_555
C8 C6 1_555 1_555
H8 C8 1_555 1_555
C9 C7 1_555 1_555
H9 C9 1_555 1_555
C10 C8 1_555 1_555
H10 C10 1_555 1_555
C11 C1 1_555 1_555
C12 C2 1_555 1_555
C13 C11 1_555 1_555
H11 C13 1_555 1_555
C14 C12 1_555 1_555
H12 C14 1_555 1_555
C15 C13 1_555 1_555
H13 C15 1_555 1_555
H14 C15 1_555 1_555
H15 C15 1_555 1_555
C16 C14 1_555 1_555
H16 C16 1_555 1_555
H17 C16 1_555 1_555
H18 C16 1_555 1_555
C17 N1 1_555 1_555
H19 C17 1_555 1_555
H20 C17 1_555 1_555
C18 N2 1_555 1_555
H21 C18 1_555 1_555
H22 C18 1_555 1_555
C19 N1 1_555 1_555
H23 C19 1_555 1_555
C20 N2 1_555 1_555
H24 C20 1_555 1_555
C21 C19 1_555 1_555
C22 C20 1_555 1_555
C23 C21 1_555 1_555
C24 C22 1_555 1_555
C25 C23 1_555 1_555
H25 C25 1_555 1_555
C26 C24 1_555 1_555
H26 C26 1_555 1_555
C27 C25 1_555 1_555
H27 C27 1_555 1_555
C28 C26 1_555 1_555
H28 C28 1_555 1_555
C29 C27 1_555 1_555
H29 C29 1_555 1_555
C30 C28 1_555 1_555
H30 C30 1_555 1_555
C31 C29 1_555 1_555
H31 C31 1_555 1_555
C32 C30 1_555 1_555
H32 C32 1_555 1_555
C33 C23 1_555 1_555
H33 C33 1_555 1_555
C34 C24 1_555 1_555
H34 C34 1_555 1_555
C35 C21 1_555 1_555
C36 C22 1_555 1_555
C37 C35 1_555 1_555
H35 C37 1_555 1_555
C38 C36 1_555 1_555
H36 C38 1_555 1_555
C39 C37 1_555 1_555
H37 C39 1_555 1_555
C40 C38 1_555 1_555
H38 C40 1_555 1_555
C41 C39 1_555 1_555
H39 C41 1_555 1_555
C42 C40 1_555 1_555
H40 C42 1_555 1_555
C43 C41 1_555 1_555
H41 C43 1_555 1_555
C44 C42 1_555 1_555
H42 C44 1_555 1_555
C45 C35 1_555 1_555
H43 C45 1_555 1_555
C46 C36 1_555 1_555
H44 C46 1_555 1_555
H45 O2 1_555 1_555
H46 O1 1_555 1_555
C9 C11 1_555 1_555
C10 C12 1_555 1_555
C17 C19 1_555 1_555
C18 C20 1_555 1_555
C31 C33 1_555 1_555
C32 C34 1_555 1_555
C43 C45 1_555 1_555
C44 C46 1_555 1_555

#END
