
#######################################################################
#
#                 Cambridge Crystallographic Data Centre
#                                CCDC 
#
#######################################################################
#
# If this CIF has been generated from an entry in the Cambridge 
# Structural Database, then it will include bibliographic, chemical, 
# crystal, experimental, refinement or atomic coordinate data resulting 
# from the CCDC's data processing and validation procedures.
#
#######################################################################

data_UXEGAH
_chemical_formula_moiety         'C22 H30 O6'
_chemical_name_systematic        
'1,7-dihydroxy-15-oxo-7,20-epoxykaur-16-en-11-yl acetate'
_symmetry_cell_setting           orthorhombic
_symmetry_space_group_name_H-M   'P 21 21 21'
_symmetry_Int_Tables_number      19
_space_group_name_Hall           'P 2ac 2ab'
loop_
_symmetry_equiv_pos_site_id
_symmetry_equiv_pos_as_xyz
1 x,y,z
2 1/2-x,-y,1/2+z
3 1/2+x,1/2-y,-z
4 -x,1/2+y,1/2-z
_cell_length_a                   5.979(4)
_cell_length_b                   16.735(12)
_cell_length_c                   20.323(15)
_cell_angle_alpha                90
_cell_angle_beta                 90
_cell_angle_gamma                90
_cell_volume                     2033.49
_exptl_crystal_colour            colorless
_exptl_crystal_description       block
_cell_formula_units_Z            4
loop_
_atom_site_label
_atom_site_type_symbol
_atom_site_fract_x
_atom_site_fract_y
_atom_site_fract_z
C1 C 0.3989(5) 0.32832(15) 0.71942(14)
H1 H 0.2356 0.3320 0.7225
C2 C 0.4671(6) 0.34966(16) 0.64969(14)
H2 H 0.6290 0.3521 0.6471
H3 H 0.4090 0.4022 0.6389
C3 C 0.3811(7) 0.28935(18) 0.59987(15)
H4 H 0.4278 0.3055 0.5561
H5 H 0.2189 0.2891 0.6008
C4 C 0.4674(6) 0.20423(17) 0.61361(15)
C5 C 0.4048(5) 0.18244(15) 0.68570(13)
H6 H 0.2412 0.1793 0.6865
C6 C 0.4890(6) 0.09792(16) 0.70632(15)
H7 H 0.3627 0.0621 0.7116
H8 H 0.5857 0.0764 0.6724
C7 C 0.6161(5) 0.10403(15) 0.77040(15)
C8 C 0.4710(5) 0.13261(16) 0.82733(14)
C9 C 0.3483(5) 0.21273(14) 0.80550(13)
H9 H 0.1951 0.1984 0.7930
C10 C 0.4700(5) 0.24357(15) 0.74142(14)
C11 C 0.3328(6) 0.27121(15) 0.86359(14)
H10 H 0.4723 0.3017 0.8666
C12 C 0.2828(7) 0.23253(18) 0.93073(15)
H11 H 0.1229 0.2238 0.9344
H12 H 0.3261 0.2694 0.9653
C13 C 0.4041(6) 0.15225(19) 0.94194(15)
H13 H 0.4555 0.1466 0.9875
C14 C 0.5972(6) 0.14528(18) 0.89298(15)
H14 H 0.6928 0.1001 0.9032
H15 H 0.6865 0.1937 0.8920
C15 C 0.2886(6) 0.07363(16) 0.84821(16)
C16 C 0.2554(6) 0.08279(19) 0.92121(17)
C17 C 0.1250(7) 0.0360(2) 0.9560(2)
H16 H 0.0474 -0.0053 0.9356
H17 H 0.1100 0.0442 1.0010
C18 C 0.7181(7) 0.1992(2) 0.59837(17)
H18 H 0.7982 0.2354 0.6264
H19 H 0.7433 0.2133 0.5532
H20 H 0.7697 0.1456 0.6060
C19 C 0.3456(7) 0.14544(19) 0.56715(15)
H21 H 0.3969 0.0920 0.5755
H22 H 0.3769 0.1594 0.5223
H23 H 0.1874 0.1483 0.5748
C20 C 0.7199(5) 0.24097(15) 0.75545(16)
H24 H 0.7999 0.2673 0.7201
H25 H 0.7509 0.2697 0.7959
C21 C 0.1591(7) 0.39984(18) 0.87589(16)
C22 C -0.0352(6) 0.44923(18) 0.85350(19)
H26 H -0.1238 0.4190 0.8230
H27 H 0.0186 0.4968 0.8324
H28 H -0.1252 0.4636 0.8908
O1 O 0.1487(4) 0.32576(11) 0.84910(9)
O2 O 0.3029(5) 0.42087(13) 0.91317(13)
O3 O 0.4943(4) 0.38429(11) 0.76532(11)
O4 O 0.7149(4) 0.02883(12) 0.78496(12)
O5 O 0.1796(4) 0.02973(12) 0.81295(11)
O6 O 0.7988(3) 0.15896(10) 0.76159(10)
H29 H 0.430(5) 0.4293(12) 0.7612(16)
H30 H 0.852(6) 0.0332(19) 0.7942(17)
loop_
_geom_bond_atom_site_label_1
_geom_bond_atom_site_label_2
_geom_bond_site_symmetry_1
_geom_bond_site_symmetry_2
C1 H1 1_555 1_555
C2 C1 1_555 1_555
H2 C2 1_555 1_555
H3 C2 1_555 1_555
C3 C2 1_555 1_555
H4 C3 1_555 1_555
H5 C3 1_555 1_555
C4 C3 1_555 1_555
C5 C4 1_555 1_555
H6 C5 1_555 1_555
C6 C5 1_555 1_555
H7 C6 1_555 1_555
H8 C6 1_555 1_555
C7 C6 1_555 1_555
C8 C7 1_555 1_555
C9 C8 1_555 1_555
H9 C9 1_555 1_555
C10 C1 1_555 1_555
C11 C9 1_555 1_555
H10 C11 1_555 1_555
C12 C11 1_555 1_555
H11 C12 1_555 1_555
H12 C12 1_555 1_555
C13 C12 1_555 1_555
H13 C13 1_555 1_555
C14 C8 1_555 1_555
H14 C14 1_555 1_555
H15 C14 1_555 1_555
C15 C8 1_555 1_555
C16 C13 1_555 1_555
C17 C16 1_555 1_555
H16 C17 1_555 1_555
H17 C17 1_555 1_555
C18 C4 1_555 1_555
H18 C18 1_555 1_555
H19 C18 1_555 1_555
H20 C18 1_555 1_555
C19 C4 1_555 1_555
H21 C19 1_555 1_555
H22 C19 1_555 1_555
H23 C19 1_555 1_555
C20 C10 1_555 1_555
H24 C20 1_555 1_555
H25 C20 1_555 1_555
C21 C22 1_555 1_555
C22 H26 1_555 1_555
H27 C22 1_555 1_555
H28 C22 1_555 1_555
O1 C11 1_555 1_555
O2 C21 1_555 1_555
O3 C1 1_555 1_555
O4 C7 1_555 1_555
O5 C15 1_555 1_555
O6 C7 1_555 1_555
H29 O3 1_555 1_555
H30 O4 1_555 1_555
C5 C10 1_555 1_555
C9 C10 1_555 1_555
C13 C14 1_555 1_555
C15 C16 1_555 1_555
C20 O6 1_555 1_555
C21 O1 1_555 1_555

#END
