
#######################################################################
#
#                 Cambridge Crystallographic Data Centre
#                                CCDC 
#
#######################################################################
#
# If this CIF has been generated from an entry in the Cambridge 
# Structural Database, then it will include bibliographic, chemical, 
# crystal, experimental, refinement or atomic coordinate data resulting 
# from the CCDC's data processing and validation procedures.
#
#######################################################################

data_UXERUL
_chemical_formula_moiety         'C20 H21 N1 O3 S1'
_chemical_name_systematic        
10-((4-Methylphenyl)sulfonyl)-3-oxa-10-azatetracyclo[10.2.1.0^2,11^.0^4,9^]pentadeca-4,6,8-triene
_symmetry_cell_setting           monoclinic
_symmetry_space_group_name_H-M   'C 2/c'
_symmetry_Int_Tables_number      15
_space_group_name_Hall           '-C 2yn'
loop_
_symmetry_equiv_pos_site_id
_symmetry_equiv_pos_as_xyz
1 x,y,z
2 -x,y,1/2-z
3 1/2+x,1/2+y,z
4 1/2-x,1/2+y,1/2-z
5 -x,-y,-z
6 x,-y,1/2+z
7 1/2-x,1/2-y,-z
8 1/2+x,1/2-y,1/2+z
_cell_length_a                   18.1117(13)
_cell_length_b                   8.9175(6)
_cell_length_c                   21.5176(16)
_cell_angle_alpha                90
_cell_angle_beta                 98.018(2)
_cell_angle_gamma                90
_cell_volume                     3441.36
_exptl_crystal_colour            white
_exptl_crystal_description       block
_cell_formula_units_Z            8
loop_
_atom_site_label
_atom_site_type_symbol
_atom_site_fract_x
_atom_site_fract_y
_atom_site_fract_z
S1 S 0.11261(3) 0.80036(7) 0.11495(3)
C1 C 0.08857(12) 1.1830(3) 0.20514(11)
C2 C 0.07054(12) 1.0688(2) 0.15970(11)
C3 C 0.18692(13) 0.8779(3) 0.08133(11)
C4 C 0.15406(13) 0.9167(3) 0.22909(11)
H1 H 0.1957 0.9769 0.2183
C5 C 0.11906(13) 1.0027(3) 0.27892(11)
H2 H 0.0663 0.9750 0.2755
C6 C 0.02906(13) 1.3682(3) 0.13364(12)
H3 H 0.0168 1.4678 0.1244
C7 C 0.30693(14) 0.9991(3) 0.02967(11)
C8 C 0.25976(14) 0.8419(3) 0.10702(12)
H4 H 0.2685 0.7781 0.1415
C9 C 0.23427(15) 1.0355(3) 0.00601(12)
H5 H 0.2255 1.1015 -0.0277
C10 C 0.06789(13) 1.3307(3) 0.19078(12)
H6 H 0.0807 1.4053 0.2205
C11 C 0.17381(14) 0.9762(3) 0.03111(11)
H7 H 0.1253 1.0022 0.0145
C12 C 0.00814(13) 1.2569(3) 0.08975(12)
H8 H -0.0195 1.2811 0.0514
C13 C 0.02845(13) 1.1101(3) 0.10311(11)
H9 H 0.0136 1.0364 0.0734
C14 C 0.15903(14) 0.9421(3) 0.34072(11)
H10 H 0.1673 1.0141 0.3754
C15 C 0.11462(16) 0.8005(3) 0.35294(12)
H11 H 0.0622 0.8232 0.3527
H12 H 0.1341 0.7546 0.3927
C16 C 0.12673(16) 0.6970(3) 0.29645(13)
H13 H 0.1438 0.5982 0.3109
H14 H 0.0811 0.6868 0.2672
C17 C 0.18717(15) 0.7802(3) 0.26601(12)
H15 H 0.2184 0.7158 0.2435
C18 C 0.22981(13) 0.8679(3) 0.32191(12)
H16 H 0.2548 0.8027 0.3543
H17 H 0.2647 0.9401 0.3090
C19 C 0.37129(15) 1.0597(3) -0.00007(13)
H18 H 0.3872 0.9856 -0.0277
H19 H 0.4118 1.0837 0.0321
H20 H 0.3558 1.1485 -0.0236
C20 C 0.31891(14) 0.9015(3) 0.08101(12)
H21 H 0.3674 0.8763 0.0979
O1 O 0.12385(9) 1.15866(18) 0.26578(7)
N1 N 0.09597(11) 0.9141(2) 0.17329(9)
O2 O 0.04768(10) 0.7985(2) 0.06895(9)
O3 O 0.13756(11) 0.66293(19) 0.14494(8)
loop_
_geom_bond_atom_site_label_1
_geom_bond_atom_site_label_2
_geom_bond_site_symmetry_1
_geom_bond_site_symmetry_2
S1 C3 1_555 1_555
C1 C2 1_555 1_555
C2 C13 1_555 1_555
C3 C8 1_555 1_555
C4 H1 1_555 1_555
C5 C4 1_555 1_555
H2 C5 1_555 1_555
C6 H3 1_555 1_555
C7 C9 1_555 1_555
C8 H4 1_555 1_555
C9 H5 1_555 1_555
C10 C1 1_555 1_555
H6 C10 1_555 1_555
C11 C3 1_555 1_555
H7 C11 1_555 1_555
C12 C6 1_555 1_555
H8 C12 1_555 1_555
C13 C12 1_555 1_555
H9 C13 1_555 1_555
C14 C5 1_555 1_555
H10 C14 1_555 1_555
C15 C14 1_555 1_555
H11 C15 1_555 1_555
H12 C15 1_555 1_555
C16 C15 1_555 1_555
H13 C16 1_555 1_555
H14 C16 1_555 1_555
C17 C4 1_555 1_555
H15 C17 1_555 1_555
C18 C14 1_555 1_555
H16 C18 1_555 1_555
H17 C18 1_555 1_555
C19 C7 1_555 1_555
H18 C19 1_555 1_555
H19 C19 1_555 1_555
H20 C19 1_555 1_555
C20 C7 1_555 1_555
H21 C20 1_555 1_555
O1 C1 1_555 1_555
N1 S1 1_555 1_555
O2 S1 1_555 1_555
O3 S1 1_555 1_555
C2 N1 1_555 1_555
C4 N1 1_555 1_555
C5 O1 1_555 1_555
C6 C10 1_555 1_555
C8 C20 1_555 1_555
C9 C11 1_555 1_555
C16 C17 1_555 1_555
C17 C18 1_555 1_555

#END
