
#######################################################################
#
#                 Cambridge Crystallographic Data Centre
#                                CCDC 
#
#######################################################################
#
# If this CIF has been generated from an entry in the Cambridge 
# Structural Database, then it will include bibliographic, chemical, 
# crystal, experimental, refinement or atomic coordinate data resulting 
# from the CCDC's data processing and validation procedures.
#
#######################################################################

data_UXEXEC
_chemical_formula_moiety         'C20 H20 I2 N2'
_chemical_name_systematic        
10-iodo-1-(4-iodophenyl)-2,3,3a,3b,4,5,6,11b-octahydro-1H-dipyrrolo[1,2-a:3',2'-c]quinoline
_symmetry_cell_setting           orthorhombic
_symmetry_space_group_name_H-M   'P 21 21 21'
_symmetry_Int_Tables_number      19
_space_group_name_Hall           'P 2ac 2ab'
loop_
_symmetry_equiv_pos_site_id
_symmetry_equiv_pos_as_xyz
1 x,y,z
2 1/2-x,-y,1/2+z
3 -x,1/2+y,1/2-z
4 1/2+x,1/2-y,-z
_cell_length_a                   8.0059(11)
_cell_length_b                   12.7607(17)
_cell_length_c                   18.742(3)
_cell_angle_alpha                90
_cell_angle_beta                 90
_cell_angle_gamma                90
_cell_volume                     1914.7
_exptl_crystal_colour            colorless
_exptl_crystal_description       needle
_cell_formula_units_Z            4
loop_
_atom_site_label
_atom_site_type_symbol
_atom_site_fract_x
_atom_site_fract_y
_atom_site_fract_z
I1 I -0.05288(5) 0.10032(3) 0.231820(19)
N1 N 0.0367(5) 0.3615(2) 0.51267(15)
C1 C 0.0119(4) 0.4755(3) 0.51818(18)
H1 H -0.0576 0.4999 0.4784
C2 C -0.0083(7) 0.4001(4) 0.6339(2)
H2 H 0.0975 0.4227 0.6540
H3 H -0.0826 0.3802 0.6724
C3 C -0.0853(5) 0.4860(3) 0.5884(2)
H4 H -0.2024 0.4680 0.5794
C4 C -0.0215(5) 0.1876(3) 0.3254(2)
C5 C 0.0179(4) 0.3063(3) 0.45087(19)
C6 C 0.0067(4) 0.3531(3) 0.3831(2)
H5 H 0.0117 0.4257 0.3798
C7 C -0.0104(5) 0.1384(3) 0.3907(2)
H6 H -0.0173 0.0657 0.3931
C8 C 0.0107(5) 0.1954(3) 0.4521(2)
H7 H 0.0205 0.1605 0.4955
C9 C -0.0784(5) 0.5976(4) 0.6171(2)
H8 H -0.1334 0.6448 0.5832
C10 C -0.0112(5) 0.2958(3) 0.3220(2)
H9 H -0.0165 0.3296 0.2781
C11 C -0.0510(9) 0.6956(6) 0.7242(3)
H10 H -0.0512 0.6883 0.7758
H11 H -0.0925 0.7647 0.7119
C12 C 0.0163(6) 0.3111(4) 0.5826(2)
H12 H 0.1149 0.2708 0.5950
H13 H -0.0799 0.2649 0.5827
C13 C 0.2097(5) 0.6104(3) 0.5739(2)
C14 C 0.1743(4) 0.5365(3) 0.51942(19)
N2 N 0.0948(5) 0.6298(3) 0.6261(2)
C15 C 0.2924(5) 0.5185(3) 0.4671(2)
H14 H 0.2699 0.4705 0.4310
C16 C 0.1247(8) 0.6784(4) 0.6940(3)
H15 H 0.1830 0.7445 0.6883
H16 H 0.1898 0.6331 0.7248
C17 C 0.3656(6) 0.6600(4) 0.5735(3)
H17 H 0.3914 0.7069 0.6099
C18 C 0.4434(5) 0.5708(3) 0.4674(2)
I2 I 0.61782(4) 0.53768(4) 0.38728(2)
C19 C 0.4807(6) 0.6417(4) 0.5213(3)
H18 H 0.5830 0.6762 0.5218
C20 C -0.1529(8) 0.6137(6) 0.6909(3)
H19 H -0.2685 0.6358 0.6874
H20 H -0.1477 0.5494 0.7184
loop_
_geom_bond_atom_site_label_1
_geom_bond_atom_site_label_2
_geom_bond_site_symmetry_1
_geom_bond_site_symmetry_2
I1 C4 1_555 1_555
N1 C1 1_555 1_555
C1 H1 1_555 1_555
C2 H2 1_555 1_555
H3 C2 1_555 1_555
C3 C1 1_555 1_555
H4 C3 1_555 1_555
C4 C7 1_555 1_555
C5 N1 1_555 1_555
C6 C5 1_555 1_555
H5 C6 1_555 1_555
C7 H6 1_555 1_555
C8 C5 1_555 1_555
H7 C8 1_555 1_555
C9 C3 1_555 1_555
H8 C9 1_555 1_555
C10 C4 1_555 1_555
H9 C10 1_555 1_555
C11 H10 1_555 1_555
H11 C11 1_555 1_555
C12 N1 1_555 1_555
H12 C12 1_555 1_555
H13 C12 1_555 1_555
C13 C14 1_555 1_555
C14 C1 1_555 1_555
N2 C9 1_555 1_555
C15 C14 1_555 1_555
H14 C15 1_555 1_555
C16 C11 1_555 1_555
H15 C16 1_555 1_555
H16 C16 1_555 1_555
C17 C13 1_555 1_555
H17 C17 1_555 1_555
C18 C15 1_555 1_555
I2 C18 1_555 1_555
C19 C17 1_555 1_555
H18 C19 1_555 1_555
C20 C9 1_555 1_555
H19 C20 1_555 1_555
H20 C20 1_555 1_555
C2 C3 1_555 1_555
C2 C12 1_555 1_555
C6 C10 1_555 1_555
C7 C8 1_555 1_555
C11 C20 1_555 1_555
C13 N2 1_555 1_555
N2 C16 1_555 1_555
C18 C19 1_555 1_555

#END
