
#######################################################################
#
#                 Cambridge Crystallographic Data Centre
#                                CCDC 
#
#######################################################################
#
# If this CIF has been generated from an entry in the Cambridge 
# Structural Database, then it will include bibliographic, chemical, 
# crystal, experimental, refinement or atomic coordinate data resulting 
# from the CCDC's data processing and validation procedures.
#
#######################################################################

data_UXEZON
_chemical_formula_moiety         'C40 H42 N6 O2'
_chemical_name_systematic        
2,3-bis((2-(benzyloxy)-4-(diethylamino)benzylidene)amino)but-2-enedinitrile
_symmetry_cell_setting           monoclinic
_symmetry_space_group_name_H-M   'P 21/c'
_symmetry_Int_Tables_number      14
_space_group_name_Hall           '-P 2ybc'
loop_
_symmetry_equiv_pos_site_id
_symmetry_equiv_pos_as_xyz
1 x,y,z
2 -x,1/2+y,1/2-z
3 -x,-y,-z
4 x,1/2-y,1/2+z
_cell_length_a                   9.29748(17)
_cell_length_b                   17.0234(3)
_cell_length_c                   11.6312(2)
_cell_angle_alpha                90
_cell_angle_beta                 96.4898(7)
_cell_angle_gamma                90
_cell_volume                     1829.13
_exptl_crystal_colour            purple
_exptl_crystal_description       block
_cell_formula_units_Z            2
loop_
_atom_site_label
_atom_site_type_symbol
_atom_site_fract_x
_atom_site_fract_y
_atom_site_fract_z
O1 O 0.48829(14) 0.08800(7) 0.16336(12)
N1 N 0.9585(2) 0.16806(12) 0.05674(19)
N2 N 0.83237(16) -0.02476(9) 0.05924(13)
N3 N 0.25840(19) -0.15484(10) 0.25170(17)
C1 C 0.9541(2) 0.10213(13) 0.03980(18)
C2 C 0.94488(19) 0.01794(11) 0.02412(16)
C3 C 0.7219(2) 0.01053(12) 0.09424(16)
C4 C 0.60257(19) -0.03150(11) 0.13118(16)
C5 C 0.5982(2) -0.11415(12) 0.13288(17)
C6 C 0.4862(2) -0.15516(12) 0.16953(18)
C7 C 0.3664(2) -0.11522(12) 0.20730(17)
C8 C 0.3660(2) -0.03262(11) 0.20206(16)
C9 C 0.48090(19) 0.00772(11) 0.16596(16)
C10 C 0.3631(2) 0.13236(12) 0.18308(18)
C11 C 0.3405(2) 0.13965(11) 0.30904(19)
C12 C 0.2179(2) 0.17777(15) 0.3381(2)
C13 C 0.1944(3) 0.18639(19) 0.4520(2)
C14 C 0.2909(3) 0.15631(18) 0.5390(2)
C15 C 0.4121(3) 0.11891(17) 0.5119(2)
C16 C 0.4373(2) 0.11089(14) 0.3971(2)
C17 C 0.1252(2) -0.11596(16) 0.2787(2)
C18 C 0.1383(3) -0.0811(2) 0.3987(2)
C19 C 0.2721(2) -0.23931(13) 0.2800(2)
C20 C 0.2156(3) -0.29078(18) 0.1818(2)
H1 H 0.7201 0.0663 0.0947
H2 H 0.6770 -0.1422 0.1074
H3 H 0.4871 -0.2110 0.1688
H4 H 0.2847 -0.0043 0.2228
H5 H 0.3728 0.1837 0.1528
H6 H 0.2802 0.1077 0.1434
H7 H 0.1506 0.1990 0.2786
H8 H 0.1101 0.2126 0.4710
H9 H 0.2731 0.1618 0.6174
H10 H 0.4786 0.0980 0.5722
H11 H 0.5235 0.0859 0.3795
H12 H 0.1041 -0.0742 0.2253
H13 H 0.0479 -0.1528 0.2709
H14 H 0.1095 -0.1197 0.4505
H15 H 0.0796 -0.0357 0.4020
H16 H 0.2368 -0.0676 0.4201
H17 H 0.3718 -0.2511 0.2994
H18 H 0.2210 -0.2501 0.3445
H19 H 0.1161 -0.3009 0.1869
H20 H 0.2673 -0.3390 0.1845
H21 H 0.2260 -0.2646 0.1111
O1B O 1.51171(14) -0.08800(7) -0.16336(12)
N1B N 1.0415(2) -0.16806(12) -0.05674(19)
N2B N 1.16763(16) 0.02476(9) -0.05924(13)
N3B N 1.74160(19) 0.15484(10) -0.25170(17)
C1B C 1.0459(2) -0.10213(13) -0.03980(18)
C2B C 1.05512(19) -0.01794(11) -0.02412(16)
C3B C 1.2781(2) -0.01053(12) -0.09424(16)
C4B C 1.39743(19) 0.03150(11) -0.13118(16)
C5B C 1.4018(2) 0.11415(12) -0.13288(17)
C6B C 1.5138(2) 0.15516(12) -0.16953(18)
C7B C 1.6336(2) 0.11522(12) -0.20730(17)
C8B C 1.6340(2) 0.03262(11) -0.20206(16)
C9B C 1.51910(19) -0.00772(11) -0.16596(16)
C10B C 1.6369(2) -0.13236(12) -0.18308(18)
C11B C 1.6595(2) -0.13965(11) -0.30904(19)
C12B C 1.7821(2) -0.17777(15) -0.3381(2)
C13B C 1.8056(3) -0.18639(19) -0.4520(2)
C14B C 1.7091(3) -0.15631(18) -0.5390(2)
C15B C 1.5879(3) -0.11891(17) -0.5119(2)
C16B C 1.5627(2) -0.11089(14) -0.3971(2)
C17B C 1.8748(2) 0.11596(16) -0.2787(2)
C18B C 1.8617(3) 0.0811(2) -0.3987(2)
C19B C 1.7279(2) 0.23931(13) -0.2800(2)
C20B C 1.7844(3) 0.29078(18) -0.1818(2)
H1B H 1.2799 -0.0663 -0.0947
H2B H 1.3230 0.1422 -0.1074
H3B H 1.5129 0.2110 -0.1688
H4B H 1.7153 0.0043 -0.2228
H5B H 1.6272 -0.1837 -0.1528
H6B H 1.7198 -0.1077 -0.1434
H7B H 1.8494 -0.1990 -0.2786
H8B H 1.8899 -0.2126 -0.4710
H9B H 1.7269 -0.1618 -0.6174
H10B H 1.5214 -0.0980 -0.5722
H11B H 1.4765 -0.0859 -0.3795
H12B H 1.8959 0.0742 -0.2253
H13B H 1.9521 0.1528 -0.2709
H14B H 1.8905 0.1197 -0.4505
H15B H 1.9204 0.0357 -0.4020
H16B H 1.7632 0.0676 -0.4201
H17B H 1.6282 0.2511 -0.2994
H18B H 1.7790 0.2501 -0.3445
H19B H 1.8839 0.3009 -0.1869
H20B H 1.7327 0.3390 -0.1845
H21B H 1.7740 0.2646 -0.1111
loop_
_geom_bond_atom_site_label_1
_geom_bond_atom_site_label_2
_geom_bond_site_symmetry_1
_geom_bond_site_symmetry_2
O1 C9 1_555 1_555
N1 C1 1_555 1_555
N2 C2 1_555 1_555
N3 C7 1_555 1_555
C1 C2 1_555 1_555
C2 C2B 1_555 1_555
C3 N2 1_555 1_555
C4 C3 1_555 1_555
C5 C4 1_555 1_555
C6 C5 1_555 1_555
C7 C6 1_555 1_555
C8 C7 1_555 1_555
C9 C4 1_555 1_555
C10 O1 1_555 1_555
C11 C10 1_555 1_555
C12 C11 1_555 1_555
C13 C12 1_555 1_555
C14 C13 1_555 1_555
C15 C14 1_555 1_555
C16 C11 1_555 1_555
C17 N3 1_555 1_555
C18 C17 1_555 1_555
C19 N3 1_555 1_555
C20 C19 1_555 1_555
H1 C3 1_555 1_555
H2 C5 1_555 1_555
H3 C6 1_555 1_555
H4 C8 1_555 1_555
H5 C10 1_555 1_555
H6 C10 1_555 1_555
H7 C12 1_555 1_555
H8 C13 1_555 1_555
H9 C14 1_555 1_555
H10 C15 1_555 1_555
H11 C16 1_555 1_555
H12 C17 1_555 1_555
H13 C17 1_555 1_555
H14 C18 1_555 1_555
H15 C18 1_555 1_555
H16 C18 1_555 1_555
H17 C19 1_555 1_555
H18 C19 1_555 1_555
H19 C20 1_555 1_555
H20 C20 1_555 1_555
H21 C20 1_555 1_555
O1B C9B 1_555 1_555
N1B C1B 1_555 1_555
N2B C2B 1_555 1_555
N3B C7B 1_555 1_555
C1B C2B 1_555 1_555
C3B N2B 1_555 1_555
C4B C3B 1_555 1_555
C5B C4B 1_555 1_555
C6B C5B 1_555 1_555
C7B C6B 1_555 1_555
C8B C7B 1_555 1_555
C9B C4B 1_555 1_555
C10B O1B 1_555 1_555
C11B C10B 1_555 1_555
C12B C11B 1_555 1_555
C13B C12B 1_555 1_555
C14B C13B 1_555 1_555
C15B C14B 1_555 1_555
C16B C11B 1_555 1_555
C17B N3B 1_555 1_555
C18B C17B 1_555 1_555
C19B N3B 1_555 1_555
C20B C19B 1_555 1_555
H1B C3B 1_555 1_555
H2B C5B 1_555 1_555
H3B C6B 1_555 1_555
H4B C8B 1_555 1_555
H5B C10B 1_555 1_555
H6B C10B 1_555 1_555
H7B C12B 1_555 1_555
H8B C13B 1_555 1_555
H9B C14B 1_555 1_555
H10B C15B 1_555 1_555
H11B C16B 1_555 1_555
H12B C17B 1_555 1_555
H13B C17B 1_555 1_555
H14B C18B 1_555 1_555
H15B C18B 1_555 1_555
H16B C18B 1_555 1_555
H17B C19B 1_555 1_555
H18B C19B 1_555 1_555
H19B C20B 1_555 1_555
H20B C20B 1_555 1_555
H21B C20B 1_555 1_555
C8 C9 1_555 1_555
C15 C16 1_555 1_555
C8B C9B 1_555 1_555
C15B C16B 1_555 1_555

#END
