
#######################################################################
#
#                 Cambridge Crystallographic Data Centre
#                                CCDC 
#
#######################################################################
#
# If this CIF has been generated from an entry in the Cambridge 
# Structural Database, then it will include bibliographic, chemical, 
# crystal, experimental, refinement or atomic coordinate data resulting 
# from the CCDC's data processing and validation procedures.
#
#######################################################################

data_UXINOF
_chemical_formula_moiety         'C42 H44 N6 S6 Si1'
_chemical_name_systematic        
7,7'-(4,4-bis(2-ethylhexyl)-4H-thieno[2',3':4,5]silolo[3,2-b]thiene-2,6-diyl)bis(4-(2-thienyl)[1,2,5]thiadiazolo[3,4-c]pyridine)
_symmetry_cell_setting           monoclinic
_symmetry_space_group_name_H-M   'P 21/n'
_symmetry_Int_Tables_number      14
_space_group_name_Hall           '-P 2yn'
loop_
_symmetry_equiv_pos_site_id
_symmetry_equiv_pos_as_xyz
1 x,y,z
2 1/2-x,1/2+y,1/2-z
3 -x,-y,-z
4 1/2+x,1/2-y,1/2+z
_cell_length_a                   18.817(4)
_cell_length_b                   7.9805(17)
_cell_length_c                   28.301(6)
_cell_angle_alpha                90
_cell_angle_beta                 107.018(3)
_cell_angle_gamma                90
_cell_volume                     4063.84
_exptl_crystal_colour            red
_exptl_crystal_description       needle
_cell_formula_units_Z            4
loop_
_atom_site_label
_atom_site_type_symbol
_atom_site_fract_x
_atom_site_fract_y
_atom_site_fract_z
C1 C 0.2779(10) -0.4744(15) 1.2534(6)
H1 H 0.2935 -0.5359 1.2834
C2 C 0.2089(9) -0.4601(16) 1.2268(6)
H2 H 0.1696 -0.5094 1.2368
C3 C 0.1948(6) -0.3670(8) 1.1818(3)
H3 H 0.1477 -0.3481 1.1584
C4 C 0.2654(6) -0.3072(9) 1.1788(3)
C5 C 0.2835(6) -0.2094(8) 1.1413(4)
C6 C 0.2271(5) -0.1480(9) 1.0993(4)
C7 C 0.2462(5) -0.0561(8) 1.0612(3)
C8 C 0.3238(4) -0.0257(7) 1.0670(3)
C9 C 0.3713(4) -0.0891(8) 1.1093(3)
H4 H 0.4227 -0.0686 1.1144
C10 C 0.3497(3) 0.0652(7) 1.0310(3)
C11 C 0.3105(4) 0.1152(8) 0.9846(3)
H5 H 0.2587 0.0957 0.9713
C12 C 0.3526(3) 0.1980(8) 0.9576(2)
C13 C 0.4255(3) 0.2066(6) 0.9858(2)
C14 C 0.4753(3) 0.2932(7) 0.9628(2)
C15 C 0.4442(3) 0.3509(8) 0.9162(2)
C16 C 0.4984(3) 0.4360(7) 0.8989(2)
H6 H 0.4874 0.4877 0.8673
C17 C 0.5676(3) 0.4361(7) 0.9321(2)
C18 C 0.6360(3) 0.5041(7) 0.9257(2)
C19 C 0.7037(3) 0.4732(7) 0.9592(2)
H7 H 0.7034 0.4102 0.9876
C20 C 0.7753(3) 0.6145(7) 0.9179(2)
C21 C 0.7092(3) 0.6611(7) 0.8811(2)
C22 C 0.6390(3) 0.6038(7) 0.8850(2)
C23 C 0.8491(3) 0.6590(7) 0.9156(2)
C24 C 0.9835(4) 0.6879(10) 0.9341(4)
H8 H 1.0361 0.6875 0.9476
C25 C 0.9486(4) 0.7538(10) 0.8908(3)
H9 H 0.9736 0.8045 0.8697
C26 C 0.8697(3) 0.7419(8) 0.8785(3)
H10 H 0.8360 0.7846 0.8491
C27 C 0.2857(3) 0.4928(11) 0.8877(3)
H11 H 0.3118 0.5731 0.9136
H12 H 0.2861 0.5416 0.8556
C28 C 0.2088(4) 0.4878(12) 0.8881(6)
H13 H 0.2214 0.4991 0.9248
C29 C 0.1666(5) 0.3427(12) 0.8863(5)
H14 H 0.1986 0.2640 0.9104
H15 H 0.1600 0.2932 0.8532
C30 C 0.0968(5) 0.3369(16) 0.8944(7)
H16 H 0.0660 0.4243 0.8732
H17 H 0.1040 0.3719 0.9290
C31 C 0.0525(7) 0.1848(15) 0.8867(9)
H18 H 0.0264 0.1728 0.9122
H19 H 0.0839 0.0847 0.8875
C32 C -0.0048(10) 0.209(3) 0.8336(8)
H20 H -0.0241 0.3240 0.8305
H21 H -0.0461 0.1300 0.8293
H22 H 0.0202 0.1887 0.8083
C33 C 0.1680(5) 0.6628(17) 0.8775(5)
H23 H 0.1790 0.7187 0.8492
H24 H 0.1136 0.6476 0.8696
C34 C 0.1936(6) 0.7556(17) 0.9187(5)
H25 H 0.1859 0.6949 0.9469
H26 H 0.1668 0.8624 0.9145
H27 H 0.2468 0.7770 0.9247
C35 C 0.3126(5) 0.1518(13) 0.8438(3)
H28 H 0.2693 0.0916 0.8486
H29 H 0.2928 0.2236 0.8143
C36 C 0.3540(6) 0.032(2) 0.8297(6)
H30 H 0.3768 -0.0330 0.8606
C37 C 0.4156(8) 0.0969(18) 0.8164(5)
H31 H 0.4503 0.1518 0.8455
H32 H 0.4424 0.0039 0.8060
C38 C 0.3920(11) 0.214(3) 0.7776(8)
H33 H 0.3535 0.1606 0.7502
H34 H 0.3684 0.3098 0.7895
C39 C 0.4415(18) 0.269(2) 0.7611(7)
H35 H 0.4470 0.1890 0.7357
H36 H 0.4886 0.2658 0.7884
C40 C 0.4345(19) 0.442(3) 0.7387(10)
H37 H 0.4459 0.5264 0.7651
H38 H 0.3836 0.4592 0.7173
H39 H 0.4694 0.4540 0.7191
C41 C 0.3211(9) -0.097(2) 0.7925(6)
H40 H 0.3165 -0.0508 0.7592
H41 H 0.2705 -0.1231 0.7941
C42 C 0.3668(7) -0.2578(18) 0.7995(6)
H42 H 0.4062 -0.2463 0.7836
H43 H 0.3344 -0.3518 0.7846
H44 H 0.3890 -0.2790 0.8349
N1 N 0.1532(4) -0.1651(8) 1.0899(3)
N2 N 0.1887(4) -0.0059(8) 1.0239(3)
N3 N 0.3531(4) -0.1786(7) 1.1451(2)
N4 N 0.7716(2) 0.5232(6) 0.95609(19)
N5 N 0.7033(2) 0.7559(6) 0.84100(18)
N6 N 0.5814(3) 0.6567(6) 0.84695(18)
S1 S 0.3370(2) -0.3702(3) 1.22829(12)
S2 S 0.11626(13) -0.0721(3) 1.03799(11)
S3 S 0.44232(8) 0.11918(18) 1.04298(6)
S4 S 0.56814(7) 0.33500(17) 0.98621(6)
S5 S 0.61707(9) 0.7663(2) 0.81192(6)
S6 S 0.92436(8) 0.6030(2) 0.96336(8)
Si1 Si 0.34303(9) 0.2988(3) 0.89677(7)
loop_
_geom_bond_atom_site_label_1
_geom_bond_atom_site_label_2
_geom_bond_site_symmetry_1
_geom_bond_site_symmetry_2
C1 H1 1_555 1_555
C2 C1 1_555 1_555
H2 C2 1_555 1_555
C3 C2 1_555 1_555
H3 C3 1_555 1_555
C4 C3 1_555 1_555
C5 C4 1_555 1_555
C6 C5 1_555 1_555
C7 C6 1_555 1_555
C8 C7 1_555 1_555
C9 C8 1_555 1_555
H4 C9 1_555 1_555
C10 C8 1_555 1_555
C11 C10 1_555 1_555
H5 C11 1_555 1_555
C12 C11 1_555 1_555
C13 C12 1_555 1_555
C14 C13 1_555 1_555
C15 C14 1_555 1_555
C16 C15 1_555 1_555
H6 C16 1_555 1_555
C17 C16 1_555 1_555
C18 C17 1_555 1_555
C19 C18 1_555 1_555
H7 C19 1_555 1_555
C20 C21 1_555 1_555
C21 C22 1_555 1_555
C22 C18 1_555 1_555
C23 C20 1_555 1_555
C24 H8 1_555 1_555
C25 C24 1_555 1_555
H9 C25 1_555 1_555
C26 C23 1_555 1_555
H10 C26 1_555 1_555
C27 H11 1_555 1_555
H12 C27 1_555 1_555
C28 C27 1_555 1_555
H13 C28 1_555 1_555
C29 C28 1_555 1_555
H14 C29 1_555 1_555
H15 C29 1_555 1_555
C30 C29 1_555 1_555
H16 C30 1_555 1_555
H17 C30 1_555 1_555
C31 C30 1_555 1_555
H18 C31 1_555 1_555
H19 C31 1_555 1_555
C32 C31 1_555 1_555
H20 C32 1_555 1_555
H21 C32 1_555 1_555
H22 C32 1_555 1_555
C33 C28 1_555 1_555
H23 C33 1_555 1_555
H24 C33 1_555 1_555
C34 C33 1_555 1_555
H25 C34 1_555 1_555
H26 C34 1_555 1_555
H27 C34 1_555 1_555
C35 H28 1_555 1_555
H29 C35 1_555 1_555
C36 C35 1_555 1_555
H30 C36 1_555 1_555
C37 C36 1_555 1_555
H31 C37 1_555 1_555
H32 C37 1_555 1_555
C38 C37 1_555 1_555
H33 C38 1_555 1_555
H34 C38 1_555 1_555
C39 C38 1_555 1_555
H35 C39 1_555 1_555
H36 C39 1_555 1_555
C40 C39 1_555 1_555
H37 C40 1_555 1_555
H38 C40 1_555 1_555
H39 C40 1_555 1_555
C41 C36 1_555 1_555
H40 C41 1_555 1_555
H41 C41 1_555 1_555
C42 C41 1_555 1_555
H42 C42 1_555 1_555
H43 C42 1_555 1_555
H44 C42 1_555 1_555
N1 C6 1_555 1_555
N2 C7 1_555 1_555
N3 C5 1_555 1_555
N4 C19 1_555 1_555
N5 C21 1_555 1_555
N6 C22 1_555 1_555
S1 C1 1_555 1_555
S2 N1 1_555 1_555
S3 C10 1_555 1_555
S4 C14 1_555 1_555
S5 N5 1_555 1_555
S6 C23 1_555 1_555
Si1 C12 1_555 1_555
C4 S1 1_555 1_555
C9 N3 1_555 1_555
C13 S3 1_555 1_555
C15 Si1 1_555 1_555
C17 S4 1_555 1_555
C20 N4 1_555 1_555
C24 S6 1_555 1_555
C25 C26 1_555 1_555
C27 Si1 1_555 1_555
C35 Si1 1_555 1_555
N2 S2 1_555 1_555
N6 S5 1_555 1_555

#END
