
#######################################################################
#
#                 Cambridge Crystallographic Data Centre
#                                CCDC 
#
#######################################################################
#
# If this CIF has been generated from an entry in the Cambridge 
# Structural Database, then it will include bibliographic, chemical, 
# crystal, experimental, refinement or atomic coordinate data resulting 
# from the CCDC's data processing and validation procedures.
#
#######################################################################

data_UXOYIQ
_chemical_name_common            'PDB Chemical Component code: ATV'
_chemical_formula_moiety         'C15 H11 N1 O3'
_chemical_name_systematic        
2-(Oxiran-2-ylmethyl)-1H-benzo[de]isoquinoline-1,3(2H)-dione
_symmetry_cell_setting           monoclinic
_symmetry_space_group_name_H-M   'P 21/c'
_symmetry_Int_Tables_number      14
_space_group_name_Hall           '-P 2ybc'
loop_
_symmetry_equiv_pos_site_id
_symmetry_equiv_pos_as_xyz
1 x,y,z
2 -x,1/2+y,1/2-z
3 -x,-y,-z
4 x,1/2-y,1/2+z
_cell_length_a                   7.750(4)
_cell_length_b                   12.748(6)
_cell_length_c                   11.584(8)
_cell_angle_alpha                90
_cell_angle_beta                 95.65(3)
_cell_angle_gamma                90
_cell_volume                     1138.9
_exptl_crystal_colour            colorless
_exptl_crystal_description       block
_cell_formula_units_Z            4
loop_
_atom_site_label
_atom_site_type_symbol
_atom_site_fract_x
_atom_site_fract_y
_atom_site_fract_z
O1 O 0.6990(2) 0.79913(15) 0.80431(16)
O2 O 0.9874(2) 0.83125(15) 1.16392(17)
O3 O 0.6232(3) 0.6070(2) 0.9932(2)
N1 N 0.8433(2) 0.81558(16) 0.98419(18)
C1 C 0.7710(8) 0.5298(3) 1.0072(4)
C2 C 0.7995(3) 0.6328(2) 1.0447(2)
C3 C 0.9029(5) 0.7059(2) 0.9779(3)
C4 C 0.7406(3) 0.8547(2) 0.8882(2)
C5 C 0.6858(3) 0.96554(19) 0.8935(2)
C6 C 0.7317(3) 1.02516(19) 0.9947(2)
C7 C 0.8335(3) 0.98154(19) 1.0899(2)
C8 C 0.8963(3) 0.8722(2) 1.0849(2)
C9 C 0.8781(4) 1.0402(2) 1.1887(2)
C10 C 0.8153(4) 1.1449(2) 1.1947(3)
C11 C 0.7163(4) 1.1877(2) 1.1037(3)
C12 C 0.6716(3) 1.1307(2) 1.0003(2)
C13 C 0.5722(3) 1.1726(2) 0.9028(3)
C14 C 0.5316(4) 1.1137(2) 0.8050(3)
C15 C 0.5883(3) 1.0090(2) 0.8001(2)
H1 H 0.768(5) 0.517(2) 0.928(5)
H2 H 0.712(5) 0.471(3) 1.059(3)
H3 H 0.793(3) 0.650(2) 1.126(3)
H4 H 0.897(3) 0.6842(19) 0.897(2)
H5 H 1.021(4) 0.7044(17) 1.010(2)
H6 H 0.550(3) 0.964(2) 0.722(2)
H7 H 0.468(3) 1.141(2) 0.740(2)
H8 H 0.522(3) 1.246(2) 0.903(2)
H9 H 0.674(3) 1.265(2) 1.105(2)
H10 H 0.859(3) 1.1832(19) 1.272(2)
H11 H 0.959(3) 1.0111(17) 1.256(2)
loop_
_geom_bond_atom_site_label_1
_geom_bond_atom_site_label_2
_geom_bond_site_symmetry_1
_geom_bond_site_symmetry_2
O1 C4 1_555 1_555
O2 C8 1_555 1_555
O3 C1 1_555 1_555
N1 C3 1_555 1_555
C1 C2 1_555 1_555
C2 O3 1_555 1_555
C3 C2 1_555 1_555
C4 N1 1_555 1_555
C5 C4 1_555 1_555
C6 C5 1_555 1_555
C7 C6 1_555 1_555
C8 N1 1_555 1_555
C9 C7 1_555 1_555
C10 C9 1_555 1_555
C11 C10 1_555 1_555
C12 C6 1_555 1_555
C13 C12 1_555 1_555
C14 C13 1_555 1_555
C15 C5 1_555 1_555
H1 C1 1_555 1_555
H2 C1 1_555 1_555
H3 C2 1_555 1_555
H4 C3 1_555 1_555
H5 C3 1_555 1_555
H6 C15 1_555 1_555
H7 C14 1_555 1_555
H8 C13 1_555 1_555
H9 C11 1_555 1_555
H10 C10 1_555 1_555
H11 C9 1_555 1_555
C7 C8 1_555 1_555
C11 C12 1_555 1_555
C14 C15 1_555 1_555

#END
