
#######################################################################
#
#                 Cambridge Crystallographic Data Centre
#                                CCDC 
#
#######################################################################
#
# If this CIF has been generated from an entry in the Cambridge 
# Structural Database, then it will include bibliographic, chemical, 
# crystal, experimental, refinement or atomic coordinate data resulting 
# from the CCDC's data processing and validation procedures.
#
#######################################################################

data_UXOZEN
_chemical_formula_moiety         'C20 H12 N4 O4 S1'
_chemical_name_systematic        
2,2'-(5-Thia-3,7-diazatricyclo[4.1.0.0^2,4^]heptane-3,7-diyl)bis(1H-isoindole-1,3(2H)-dione)
_symmetry_cell_setting           monoclinic
_symmetry_space_group_name_H-M   'P 21/n'
_symmetry_Int_Tables_number      14
_space_group_name_Hall           '-P 2yn'
loop_
_symmetry_equiv_pos_site_id
_symmetry_equiv_pos_as_xyz
1 x,y,z
2 1/2-x,1/2+y,1/2-z
3 -x,-y,-z
4 1/2+x,1/2-y,1/2+z
_cell_length_a                   12.104(3)
_cell_length_b                   4.4707(12)
_cell_length_c                   32.765(9)
_cell_angle_alpha                90
_cell_angle_beta                 90.586(6)
_cell_angle_gamma                90
_cell_volume                     1772.93
_exptl_crystal_colour            colorless
_exptl_crystal_description       prism
_cell_formula_units_Z            4
loop_
_atom_site_label
_atom_site_type_symbol
_atom_site_fract_x
_atom_site_fract_y
_atom_site_fract_z
S1 S 0.51350(4) 0.81967(12) 0.190750(16)
O1 O 0.25566(12) 0.7199(3) 0.10434(5)
O2 O 0.47084(11) 1.4564(3) 0.04955(4)
O3 O 0.84055(12) 0.6652(3) 0.22077(4)
O4 O 0.87050(12) 1.3185(3) 0.11385(5)
N1 N 0.44526(13) 1.1153(4) 0.12088(5)
N2 N 0.38209(13) 1.0785(4) 0.08438(5)
N3 N 0.71870(13) 0.9081(4) 0.15683(5)
N4 N 0.82647(12) 1.0065(4) 0.16799(5)
C1 C 0.48450(17) 0.8197(4) 0.13726(6)
H1 H 0.4564 0.6359 0.1246
C2 C 0.56083(15) 1.0073(4) 0.11412(6)
H2 H 0.5823 0.9444 0.0867
C3 C 0.64518(16) 1.1527(4) 0.14128(6)
H3 H 0.6743 1.3521 0.1352
C4 C 0.63241(16) 1.0485(5) 0.18354(6)
H4 H 0.6566 1.1798 0.2059
C5 C 0.28862(15) 0.8987(4) 0.07967(6)
C6 C 0.24410(16) 0.9725(5) 0.03835(6)
C7 C 0.15486(17) 0.8561(5) 0.01748(7)
H5 H 0.1094 0.7131 0.0293
C8 C 0.13511(17) 0.9609(5) -0.02206(7)
H6 H 0.0752 0.8868 -0.0369
C9 C 0.20255(17) 1.1714(5) -0.03946(6)
H7 H 0.1878 1.2352 -0.0660
C10 C 0.29280(18) 1.2917(5) -0.01827(6)
H8 H 0.3381 1.4357 -0.0299
C11 C 0.31168(16) 1.1866(4) 0.02085(6)
C12 C 0.39924(16) 1.2691(4) 0.05096(6)
C13 C 0.88276(16) 0.8507(5) 0.19910(6)
C14 C 0.99814(16) 0.9595(5) 0.19732(6)
C15 C 1.08872(17) 0.8866(5) 0.22114(6)
H9 H 1.0828 0.7579 0.2433
C16 C 1.18964(17) 1.0139(5) 0.21059(6)
H10 H 1.2526 0.9668 0.2258
C17 C 1.19814(18) 1.2094(5) 0.17792(7)
H11 H 1.2665 1.2921 0.1718
C18 C 1.10605(17) 1.2841(5) 0.15419(7)
H12 H 1.1114 1.4155 0.1323
C19 C 1.00665(16) 1.1554(4) 0.16450(6)
C20 C 0.89681(17) 1.1817(4) 0.14427(6)
loop_
_geom_bond_atom_site_label_1
_geom_bond_atom_site_label_2
_geom_bond_site_symmetry_1
_geom_bond_site_symmetry_2
S1 C1 1_555 1_555
O1 C5 1_555 1_555
O2 C12 1_555 1_555
O3 C13 1_555 1_555
O4 C20 1_555 1_555
N1 N2 1_555 1_555
N2 C5 1_555 1_555
N3 N4 1_555 1_555
N4 C13 1_555 1_555
C1 N1 1_555 1_555
H1 C1 1_555 1_555
C2 N1 1_555 1_555
H2 C2 1_555 1_555
C3 N3 1_555 1_555
H3 C3 1_555 1_555
C4 S1 1_555 1_555
H4 C4 1_555 1_555
C5 C6 1_555 1_555
C6 C7 1_555 1_555
C7 H5 1_555 1_555
C8 C7 1_555 1_555
H6 C8 1_555 1_555
C9 C8 1_555 1_555
H7 C9 1_555 1_555
C10 C9 1_555 1_555
H8 C10 1_555 1_555
C11 C6 1_555 1_555
C12 N2 1_555 1_555
C13 C14 1_555 1_555
C14 C15 1_555 1_555
C15 H9 1_555 1_555
C16 C15 1_555 1_555
H10 C16 1_555 1_555
C17 C16 1_555 1_555
H11 C17 1_555 1_555
C18 C17 1_555 1_555
H12 C18 1_555 1_555
C19 C14 1_555 1_555
C20 N4 1_555 1_555
N3 C4 1_555 1_555
C1 C2 1_555 1_555
C2 C3 1_555 1_555
C3 C4 1_555 1_555
C10 C11 1_555 1_555
C11 C12 1_555 1_555
C18 C19 1_555 1_555
C19 C20 1_555 1_555

#END
