
#######################################################################
#
#                 Cambridge Crystallographic Data Centre
#                                CCDC 
#
#######################################################################
#
# If this CIF has been generated from an entry in the Cambridge 
# Structural Database, then it will include bibliographic, chemical, 
# crystal, experimental, refinement or atomic coordinate data resulting 
# from the CCDC's data processing and validation procedures.
#
#######################################################################

data_UYEDEJ
_chemical_formula_moiety         '2(C27 H31 N3 O6),C2 H3 N1'
_chemical_name_systematic        
"t-butyl 3-((t-butoxycarbonyl)amino)-5'-methoxy-2-oxo-2,3-dihydro-1H,1'H-3,3'-biindole-1-carboxylate acetonitrile solvate"
_symmetry_cell_setting           monoclinic
_symmetry_space_group_name_H-M   'P 21'
_symmetry_Int_Tables_number      4
_space_group_name_Hall           'P 2yb'
loop_
_symmetry_equiv_pos_site_id
_symmetry_equiv_pos_as_xyz
1 x,y,z
2 -x,1/2+y,-z
_cell_length_a                   13.7593(3)
_cell_length_b                   15.2494(3)
_cell_length_c                   14.6075(3)
_cell_angle_alpha                90
_cell_angle_beta                 114.668(2)
_cell_angle_gamma                90
_cell_volume                     2785.26
_exptl_crystal_colour            colorless
_exptl_crystal_description       block
_cell_formula_units_Z            2
loop_
_atom_site_label
_atom_site_type_symbol
_atom_site_fract_x
_atom_site_fract_y
_atom_site_fract_z
O1 O 0.9911(3) 0.1717(2) 0.2241(3)
O2 O 0.91914(17) 0.09832(17) 0.62707(19)
O3 O 0.75151(17) 0.15361(17) 0.5645(2)
O4 O 0.68484(18) 0.21449(18) 0.33281(19)
O5 O 0.4413(2) 0.3148(3) 0.3957(3)
O6 O 0.4825(2) 0.2633(3) 0.27426(19)
N1 N 0.9300(2) 0.47094(18) 0.3986(2)
H1 H 0.9480 0.5247 0.3968
N2 N 0.87423(18) 0.21812(17) 0.5284(2)
H2 H 0.9341 0.2162 0.5230
N3 N 0.61430(18) 0.30590(17) 0.41761(19)
C1 C 0.9878(6) 0.0930(3) 0.2648(4)
H3 H 1.0222 0.0499 0.2405
H4 H 0.9147 0.0764 0.2461
H5 H 1.0242 0.0967 0.3369
C2 C 0.9729(3) 0.2458(2) 0.2673(2)
C3 C 1.0145(3) 0.3235(3) 0.2454(3)
H6 H 1.0501 0.3212 0.2035
C4 C 1.0031(3) 0.4018(2) 0.2846(2)
H7 H 1.0299 0.4533 0.2697
C5 C 0.9500(2) 0.4026(2) 0.3477(2)
C6 C 0.9064(2) 0.32562(19) 0.3687(2)
C7 C 0.9171(2) 0.2462(2) 0.3267(2)
H8 H 0.8874 0.1950 0.3384
C8 C 0.8770(2) 0.4396(2) 0.4526(2)
H9 H 0.8558 0.4734 0.4941
C9 C 0.8597(2) 0.35195(19) 0.4369(2)
C10 C 0.8049(2) 0.29295(19) 0.4837(2)
C11 C 0.8525(2) 0.1517(2) 0.5776(2)
C12 C 0.7080(3) 0.0905(3) 0.6142(4)
C13 C 0.7711(6) 0.0969(5) 0.7283(5)
H10 H 0.7709 0.1565 0.7493
H11 H 0.8434 0.0782 0.7464
H12 H 0.7385 0.0600 0.7609
C14 C 0.7122(4) -0.0002(3) 0.5767(4)
H13 H 0.6720 -0.0020 0.5050
H14 H 0.6823 -0.0409 0.6080
H15 H 0.7853 -0.0157 0.5932
C15 C 0.5944(5) 0.1218(5) 0.5783(8)
H16 H 0.5940 0.1820 0.5974
H17 H 0.5576 0.0866 0.6084
H18 H 0.5590 0.1167 0.5063
C16 C 0.6957(2) 0.26332(19) 0.3997(2)
C17 C 0.6594(2) 0.3504(2) 0.5125(2)
C18 C 0.7699(2) 0.3416(2) 0.5548(2)
C19 C 0.8308(3) 0.3735(3) 0.6497(3)
H19 H 0.9046 0.3659 0.6788
C20 C 0.7811(4) 0.4167(4) 0.7013(3)
H20 H 0.8213 0.4386 0.7656
C21 C 0.6706(4) 0.4275(3) 0.6573(4)
H21 H 0.6379 0.4573 0.6924
C22 C 0.6083(3) 0.3948(3) 0.5623(3)
H22 H 0.5346 0.4025 0.5329
C23 C 0.5031(2) 0.2960(2) 0.3620(2)
C24 C 0.3716(3) 0.2429(5) 0.2014(3)
C25 C 0.3077(6) 0.3265(8) 0.1732(8)
H23 H 0.3138 0.3563 0.2332
H24 H 0.2340 0.3129 0.1326
H25 H 0.3346 0.3634 0.1358
C26 C 0.3201(7) 0.1806(7) 0.2446(6)
H26 H 0.2493 0.1675 0.1955
H27 H 0.3162 0.2062 0.3030
H28 H 0.3614 0.1276 0.2635
C27 C 0.3879(6) 0.2060(14) 0.1166(6)
H29 H 0.3226 0.1796 0.0699
H30 H 0.4431 0.1623 0.1407
H31 H 0.4088 0.2517 0.0833
O7 O 0.9209(3) 0.4825(2) 0.0123(3)
O8 O 0.68069(18) 0.65278(17) 0.11986(18)
O9 O 0.4545(3) 0.8478(3) 0.0750(4)
O10 O 0.48255(18) 0.7055(2) 0.0586(2)
O11 O 0.90804(16) 0.65417(16) 0.45413(15)
O12 O 0.74556(15) 0.71017(16) 0.35398(14)
N4 N 0.9594(3) 0.8382(2) 0.0682(2)
H32 H 0.9881 0.8779 0.0456
N5 N 0.6238(2) 0.7934(2) 0.1375(2)
N6 N 0.87222(18) 0.7055(2) 0.29863(18)
H33 H 0.9285 0.6811 0.2985
C28 C 0.8310(4) 0.4419(4) 0.0157(4)
H34 H 0.7674 0.4717 -0.0291
H35 H 0.8358 0.4444 0.0831
H36 H 0.8281 0.3817 -0.0046
C29 C 0.9328(3) 0.5711(3) 0.0318(3)
C30 C 0.8917(3) 0.6154(3) 0.0899(3)
H37 H 0.8554 0.5855 0.1217
C31 C 0.9057(2) 0.7069(3) 0.1002(2)
C32 C 0.9614(3) 0.7503(3) 0.0521(2)
C33 C 1.0061(3) 0.7039(3) -0.0038(3)
H38 H 1.0448 0.7328 -0.0338
C34 C 0.9916(3) 0.6158(3) -0.0131(3)
H39 H 1.0210 0.5842 -0.0498
C35 C 0.9043(3) 0.8530(3) 0.1261(2)
H40 H 0.8916 0.9079 0.1468
C36 C 0.8705(2) 0.7748(2) 0.1487(2)
C37 C 0.6983(2) 0.7251(2) 0.1518(2)
C38 C 0.8114(2) 0.7639(2) 0.2157(2)
C39 C 0.7842(3) 0.8505(2) 0.2485(3)
C40 C 0.8509(4) 0.9078(3) 0.3206(3)
H41 H 0.9235 0.8958 0.3552
C41 C 0.8072(5) 0.9831(3) 0.3402(4)
H42 H 0.8506 1.0218 0.3895
C42 C 0.7010(5) 1.0012(3) 0.2879(4)
H43 H 0.6739 1.0536 0.3002
C43 C 0.6318(4) 0.9431(3) 0.2164(4)
H44 H 0.5591 0.9550 0.1822
C44 C 0.6760(3) 0.8670(2) 0.1984(3)
C45 C 0.5115(3) 0.7860(3) 0.0866(3)
C46 C 0.3687(3) 0.6789(4) 0.0100(3)
C47 C 0.3768(5) 0.5818(6) -0.0073(8)
H45 H 0.4181 0.5733 -0.0458
H46 H 0.3064 0.5581 -0.0436
H47 H 0.4110 0.5526 0.0564
C48 C 0.3112(5) 0.7290(7) -0.0857(5)
H48 H 0.3178 0.7908 -0.0715
H49 H 0.2369 0.7130 -0.1148
H50 H 0.3419 0.7155 -0.1322
C49 C 0.3208(5) 0.6944(7) 0.0838(6)
H51 H 0.3577 0.6594 0.1429
H52 H 0.2465 0.6784 0.0536
H53 H 0.3275 0.7553 0.1022
C50 C 0.8458(2) 0.68709(18) 0.3764(2)
C51 C 0.7049(2) 0.7201(2) 0.4331(2)
C52 C 0.5931(3) 0.7540(4) 0.3730(3)
H54 H 0.5965 0.8084 0.3414
H55 H 0.5582 0.7633 0.4171
H56 H 0.5534 0.7119 0.3223
C53 C 0.7033(3) 0.6329(3) 0.4807(3)
H57 H 0.6658 0.5909 0.4290
H58 H 0.6677 0.6389 0.5246
H59 H 0.7753 0.6132 0.5189
C54 C 0.7731(4) 0.7865(3) 0.5090(3)
H60 H 0.8450 0.7648 0.5421
H61 H 0.7447 0.7966 0.5580
H62 H 0.7732 0.8406 0.4752
N7 N 0.5219(8) 0.4969(6) 0.2710(7)
C55 C 0.6516(7) 0.4537(6) 0.1952(6)
H63 H 0.6269 0.4771 0.1282
H64 H 0.6562 0.3910 0.1927
H65 H 0.7209 0.4773 0.2362
C56 C 0.5787(7) 0.4769(4) 0.2372(5)
loop_
_geom_bond_atom_site_label_1
_geom_bond_atom_site_label_2
_geom_bond_site_symmetry_1
_geom_bond_site_symmetry_2
O1 C1 1_555 1_555
O2 C11 1_555 1_555
O3 C11 1_555 1_555
O4 C16 1_555 1_555
O5 C23 1_555 1_555
O6 C23 1_555 1_555
N1 H1 1_555 1_555
N2 H2 1_555 1_555
N3 C16 1_555 1_555
C1 H3 1_555 1_555
H4 C1 1_555 1_555
H5 C1 1_555 1_555
C2 O1 1_555 1_555
C3 C2 1_555 1_555
H6 C3 1_555 1_555
C4 C3 1_555 1_555
H7 C4 1_555 1_555
C5 N1 1_555 1_555
C6 C5 1_555 1_555
C7 C2 1_555 1_555
H8 C7 1_555 1_555
C8 N1 1_555 1_555
H9 C8 1_555 1_555
C9 C6 1_555 1_555
C10 N2 1_555 1_555
C11 N2 1_555 1_555
C12 O3 1_555 1_555
C13 C12 1_555 1_555
H10 C13 1_555 1_555
H11 C13 1_555 1_555
H12 C13 1_555 1_555
C14 C12 1_555 1_555
H13 C14 1_555 1_555
H14 C14 1_555 1_555
H15 C14 1_555 1_555
C15 C12 1_555 1_555
H16 C15 1_555 1_555
H17 C15 1_555 1_555
H18 C15 1_555 1_555
C16 C10 1_555 1_555
C17 N3 1_555 1_555
C18 C10 1_555 1_555
C19 C18 1_555 1_555
H19 C19 1_555 1_555
C20 C19 1_555 1_555
H20 C20 1_555 1_555
C21 C20 1_555 1_555
H21 C21 1_555 1_555
C22 C17 1_555 1_555
H22 C22 1_555 1_555
C23 N3 1_555 1_555
C24 O6 1_555 1_555
C25 C24 1_555 1_555
H23 C25 1_555 1_555
H24 C25 1_555 1_555
H25 C25 1_555 1_555
C26 C24 1_555 1_555
H26 C26 1_555 1_555
H27 C26 1_555 1_555
H28 C26 1_555 1_555
C27 C24 1_555 1_555
H29 C27 1_555 1_555
H30 C27 1_555 1_555
H31 C27 1_555 1_555
O7 C28 1_555 1_555
O8 C37 1_555 1_555
O9 C45 1_555 1_555
O10 C45 1_555 1_555
O11 C50 1_555 1_555
O12 C50 1_555 1_555
N4 H32 1_555 1_555
N5 C37 1_555 1_555
N6 H33 1_555 1_555
C28 H34 1_555 1_555
H35 C28 1_555 1_555
H36 C28 1_555 1_555
C29 O7 1_555 1_555
C30 C29 1_555 1_555
H37 C30 1_555 1_555
C31 C30 1_555 1_555
C32 N4 1_555 1_555
C33 C32 1_555 1_555
H38 C33 1_555 1_555
C34 C29 1_555 1_555
H39 C34 1_555 1_555
C35 N4 1_555 1_555
H40 C35 1_555 1_555
C36 C31 1_555 1_555
C37 C38 1_555 1_555
C38 N6 1_555 1_555
C39 C38 1_555 1_555
C40 C39 1_555 1_555
H41 C40 1_555 1_555
C41 C40 1_555 1_555
H42 C41 1_555 1_555
C42 C41 1_555 1_555
H43 C42 1_555 1_555
C43 C42 1_555 1_555
H44 C43 1_555 1_555
C44 N5 1_555 1_555
C45 N5 1_555 1_555
C46 O10 1_555 1_555
C47 C46 1_555 1_555
H45 C47 1_555 1_555
H46 C47 1_555 1_555
H47 C47 1_555 1_555
C48 C46 1_555 1_555
H48 C48 1_555 1_555
H49 C48 1_555 1_555
H50 C48 1_555 1_555
C49 C46 1_555 1_555
H51 C49 1_555 1_555
H52 C49 1_555 1_555
H53 C49 1_555 1_555
C50 N6 1_555 1_555
C51 O12 1_555 1_555
C52 C51 1_555 1_555
H54 C52 1_555 1_555
H55 C52 1_555 1_555
H56 C52 1_555 1_555
C53 C51 1_555 1_555
H57 C53 1_555 1_555
H58 C53 1_555 1_555
H59 C53 1_555 1_555
C54 C51 1_555 1_555
H60 C54 1_555 1_555
H61 C54 1_555 1_555
H62 C54 1_555 1_555
N7 C56 1_555 1_555
C55 H63 1_555 1_555
H64 C55 1_555 1_555
H65 C55 1_555 1_555
C56 C55 1_555 1_555
C4 C5 1_555 1_555
C6 C7 1_555 1_555
C8 C9 1_555 1_555
C9 C10 1_555 1_555
C17 C18 1_555 1_555
C21 C22 1_555 1_555
C31 C32 1_555 1_555
C33 C34 1_555 1_555
C35 C36 1_555 1_555
C36 C38 1_555 1_555
C39 C44 1_555 1_555
C43 C44 1_555 1_555

#END
