
#######################################################################
#
#                 Cambridge Crystallographic Data Centre
#                                CCDC 
#
#######################################################################
#
# If this CIF has been generated from an entry in the Cambridge 
# Structural Database, then it will include bibliographic, chemical, 
# crystal, experimental, refinement or atomic coordinate data resulting 
# from the CCDC's data processing and validation procedures.
#
#######################################################################

data_UYEDIN
_chemical_formula_moiety         'C31 H31 N3 O6'
_chemical_name_systematic        
't-butyl (1-benzyl-3-(4-((4-methoxyphenyl)amino)-2-oxo-2,5-dihydrofuran-3-yl)-2-oxo-2,3-dihydro-1H-indol-3-yl)carbamate'
_symmetry_cell_setting           monoclinic
_symmetry_space_group_name_H-M   'P 21'
_symmetry_Int_Tables_number      4
_space_group_name_Hall           'P 2yb'
loop_
_symmetry_equiv_pos_site_id
_symmetry_equiv_pos_as_xyz
1 x,y,z
2 -x,1/2+y,-z
_cell_length_a                   11.5239(4)
_cell_length_b                   10.1583(4)
_cell_length_c                   25.5949(10)
_cell_angle_alpha                90
_cell_angle_beta                 92.599(3)
_cell_angle_gamma                90
_cell_volume                     2993.14
_exptl_crystal_colour            colorless
_exptl_crystal_description       PRISM
_cell_formula_units_Z            4
loop_
_atom_site_label
_atom_site_type_symbol
_atom_site_fract_x
_atom_site_fract_y
_atom_site_fract_z
O1 O 0.4596(5) 0.7300(5) 0.4813(2)
O2 O 0.6742(5) 0.5997(6) 0.4119(2)
O3 O 0.7272(5) 0.4123(6) 0.4565(2)
O4 O 0.2084(6) 0.3816(8) 0.3850(2)
O5 O 0.1729(5) 0.3470(7) 0.4683(2)
O6 O 0.2621(7) 0.5649(7) 0.7528(2)
N1 N 0.3963(6) 0.7374(7) 0.3944(3)
N2 N 0.5445(6) 0.4644(6) 0.4501(2)
H1 H 0.5382 0.4012 0.4722
N3 N 0.3903(6) 0.5207(7) 0.5462(2)
H2 H 0.4552 0.5555 0.5382
C1 C 0.4402(7) 0.5260(8) 0.4282(3)
C2 C 0.4342(7) 0.6771(8) 0.4392(3)
C3 C 0.3972(8) 0.6508(9) 0.3513(3)
C4 C 0.3773(10) 0.6767(12) 0.2991(4)
H3 H 0.3592 0.7614 0.2875
C5 C 0.3846(10) 0.5741(15) 0.2642(4)
H4 H 0.3698 0.5896 0.2287
C6 C 0.4137(10) 0.4479(13) 0.2809(4)
H5 H 0.4197 0.3802 0.2568
C7 C 0.4337(8) 0.4233(10) 0.3336(3)
H6 H 0.4531 0.3389 0.3451
C8 C 0.4249(7) 0.5245(9) 0.3692(3)
C9 C 0.3386(7) 0.4662(8) 0.4557(3)
C10 C 0.3255(7) 0.4625(8) 0.5080(3)
C11 C 0.2208(8) 0.3804(10) 0.5185(3)
H7 H 0.2429 0.3019 0.5381
H8 H 0.1656 0.4301 0.5380
C12 C 0.2393(8) 0.3967(10) 0.4294(3)
C13 C 0.3588(7) 0.5288(9) 0.5994(3)
C14 C 0.3410(8) 0.4228(9) 0.6295(3)
H9 H 0.3503 0.3390 0.6156
C15 C 0.3092(9) 0.4364(9) 0.6806(3)
H10 H 0.2950 0.3619 0.7005
C16 C 0.2985(9) 0.5604(9) 0.7026(3)
C17 C 0.3253(9) 0.6676(9) 0.6741(3)
H11 H 0.3220 0.7510 0.6889
C18 C 0.3576(8) 0.6527(8) 0.6230(3)
H12 H 0.3789 0.7264 0.6041
C19 C 0.2291(12) 0.6907(11) 0.7721(4)
H13 H 0.1668 0.7257 0.7501
H14 H 0.2944 0.7494 0.7719
H15 H 0.2039 0.6816 0.8071
C20 C 0.6511(7) 0.5030(8) 0.4371(3)
C21 C 0.8545(7) 0.4183(9) 0.4503(3)
C22 C 0.8805(9) 0.4221(13) 0.3936(4)
H16 H 0.8391 0.3526 0.3755
H17 H 0.9625 0.4106 0.3900
H18 H 0.8568 0.5054 0.3791
C23 C 0.9056(10) 0.5323(12) 0.4793(4)
H19 H 0.8853 0.6122 0.4611
H20 H 0.9886 0.5235 0.4820
H21 H 0.8759 0.5351 0.5138
C24 C 0.8905(10) 0.2875(12) 0.4744(5)
H22 H 0.8638 0.2824 0.5093
H23 H 0.9737 0.2802 0.4754
H24 H 0.8570 0.2171 0.4537
C25 C 0.3667(9) 0.8747(9) 0.3904(4)
H25 H 0.4084 0.9128 0.3620
H26 H 0.3936 0.9183 0.4224
C26 C 0.2388(8) 0.9034(9) 0.3811(3)
C27 C 0.1576(10) 0.8067(12) 0.3762(5)
H27 H 0.1785 0.7184 0.3788
C28 C 0.0384(12) 0.8450(17) 0.3668(5)
H28 H -0.0187 0.7805 0.3629
C29 C 0.0076(11) 0.9751(17) 0.3634(5)
H29 H -0.0698 0.9990 0.3575
C30 C 0.0916(11) 1.0690(14) 0.3688(4)
H30 H 0.0716 1.1576 0.3671
C31 C 0.2038(9) 1.0335(11) 0.3766(4)
H31 H 0.2601 1.0992 0.3791
O7 O 0.0374(3) 0.3775(4) 1.01822(18)
O8 O -0.1757(3) 0.2444(4) 1.0903(2)
O9 O -0.2253(3) 0.0540(4) 1.04746(19)
O10 O 0.2882(5) 0.0372(7) 1.1188(2)
O11 O 0.3279(4) -0.0024(6) 1.0356(2)
O12 O 0.2174(8) 0.1731(7) 0.7455(3)
N4 N 0.1023(5) 0.3929(6) 1.1046(2)
N5 N -0.0426(4) 0.1134(5) 1.0529(2)
H32 H -0.0340 0.0499 1.0312
N6 N 0.1159(4) 0.1723(5) 0.9555(2)
H33 H 0.0568 0.2181 0.9639
C32 C 0.0605(4) 0.1799(6) 1.0742(2)
C33 C 0.0619(4) 0.3303(6) 1.0609(2)
C34 C 0.1050(5) 0.3100(8) 1.1486(3)
C35 C 0.1272(7) 0.3426(10) 1.1998(3)
H34 H 0.1459 0.4285 1.2095
C36 C 0.1211(9) 0.2444(13) 1.2367(4)
H35 H 0.1387 0.2632 1.2717
C37 C 0.0886(9) 0.1164(12) 1.2218(4)
H36 H 0.0829 0.0513 1.2471
C38 C 0.0653(6) 0.0867(9) 1.1704(3)
H37 H 0.0435 0.0015 1.1609
C39 C 0.0739(5) 0.1821(7) 1.1327(3)
C40 C 0.1632(4) 0.1183(6) 1.0471(2)
C41 C 0.1754(4) 0.1135(6) 0.9947(3)
C42 C 0.2817(5) 0.0287(8) 0.9850(3)
H38 H 0.2597 -0.0506 0.9659
H39 H 0.3378 0.0770 0.9654
C43 C 0.2625(5) 0.0500(8) 1.0736(3)
C44 C 0.1383(5) 0.1683(6) 0.9020(2)
C45 C 0.1619(5) 0.0516(7) 0.8764(3)
H40 H 0.1619 -0.0271 0.8949
C46 C 0.1852(7) 0.0498(8) 0.8246(3)
H41 H 0.1959 -0.0301 0.8078
C47 C 0.1930(8) 0.1664(9) 0.7970(3)
C48 C 0.1638(9) 0.2831(9) 0.8222(3)
H42 H 0.1599 0.3613 0.8033
C49 C 0.1410(6) 0.2841(7) 0.8739(3)
H43 H 0.1271 0.3636 0.8905
C50 C 0.2744(15) 0.0653(14) 0.7242(4)
H44 H 0.3017 0.0888 0.6906
H45 H 0.2215 -0.0074 0.7205
H46 H 0.3392 0.0407 0.7471
C51 C -0.1532(5) 0.1470(6) 1.0656(3)
C52 C -0.3519(5) 0.0586(7) 1.0532(3)
C53 C -0.4018(6) 0.1732(9) 1.0223(4)
H47 H -0.3711 0.2539 1.0367
H48 H -0.4848 0.1732 1.0239
H49 H -0.3811 0.1655 0.9865
C54 C -0.3796(6) 0.0641(10) 1.1101(3)
H50 H -0.3483 -0.0124 1.1278
H51 H -0.4623 0.0661 1.1132
H52 H -0.3459 0.1419 1.1258
C55 C -0.3879(5) -0.0722(8) 1.0297(4)
H53 H -0.3780 -0.0704 0.9927
H54 H -0.4680 -0.0887 1.0362
H55 H -0.3407 -0.1408 1.0453
C56 C 0.1343(6) 0.5317(7) 1.1059(3)
H56 H 0.0924 0.5745 1.1332
H57 H 0.1090 0.5715 1.0729
C57 C 0.2623(6) 0.5587(7) 1.1154(3)
C58 C 0.3466(6) 0.4627(9) 1.1177(3)
H58 H 0.3251 0.3748 1.1139
C59 C 0.4626(7) 0.4945(11) 1.1255(4)
H59 H 0.5184 0.4284 1.1266
C60 C 0.4956(7) 0.6240(12) 1.1317(4)
H60 H 0.5736 0.6454 1.1373
C61 C 0.4124(8) 0.7220(10) 1.1296(4)
H61 H 0.4342 0.8098 1.1332
C62 C 0.2960(7) 0.6887(8) 1.1219(3)
H62 H 0.2399 0.7546 1.1210
loop_
_geom_bond_atom_site_label_1
_geom_bond_atom_site_label_2
_geom_bond_site_symmetry_1
_geom_bond_site_symmetry_2
O1 C2 1_555 1_555
O2 C20 1_555 1_555
O3 C20 1_555 1_555
O4 C12 1_555 1_555
O5 C11 1_555 1_555
O6 C16 1_555 1_555
N1 C2 1_555 1_555
N2 H1 1_555 1_555
N3 H2 1_555 1_555
C1 N2 1_555 1_555
C2 C1 1_555 1_555
C3 N1 1_555 1_555
C4 C3 1_555 1_555
H3 C4 1_555 1_555
C5 C4 1_555 1_555
H4 C5 1_555 1_555
C6 C5 1_555 1_555
H5 C6 1_555 1_555
C7 C6 1_555 1_555
H6 C7 1_555 1_555
C8 C1 1_555 1_555
C9 C1 1_555 1_555
C10 N3 1_555 1_555
C11 C10 1_555 1_555
H7 C11 1_555 1_555
H8 C11 1_555 1_555
C12 O5 1_555 1_555
C13 N3 1_555 1_555
C14 C13 1_555 1_555
H9 C14 1_555 1_555
C15 C14 1_555 1_555
H10 C15 1_555 1_555
C16 C15 1_555 1_555
C17 C16 1_555 1_555
H11 C17 1_555 1_555
C18 C13 1_555 1_555
H12 C18 1_555 1_555
C19 O6 1_555 1_555
H13 C19 1_555 1_555
H14 C19 1_555 1_555
H15 C19 1_555 1_555
C20 N2 1_555 1_555
C21 O3 1_555 1_555
C22 C21 1_555 1_555
H16 C22 1_555 1_555
H17 C22 1_555 1_555
H18 C22 1_555 1_555
C23 C21 1_555 1_555
H19 C23 1_555 1_555
H20 C23 1_555 1_555
H21 C23 1_555 1_555
C24 C21 1_555 1_555
H22 C24 1_555 1_555
H23 C24 1_555 1_555
H24 C24 1_555 1_555
C25 N1 1_555 1_555
H25 C25 1_555 1_555
H26 C25 1_555 1_555
C26 C25 1_555 1_555
C27 C26 1_555 1_555
H27 C27 1_555 1_555
C28 C27 1_555 1_555
H28 C28 1_555 1_555
C29 C28 1_555 1_555
H29 C29 1_555 1_555
C30 C29 1_555 1_555
H30 C30 1_555 1_555
C31 C26 1_555 1_555
H31 C31 1_555 1_555
O7 C33 1_555 1_555
O8 C51 1_555 1_555
O9 C51 1_555 1_555
O10 C43 1_555 1_555
O11 C42 1_555 1_555
O12 C47 1_555 1_555
N4 C33 1_555 1_555
N5 H32 1_555 1_555
N6 H33 1_555 1_555
C32 N5 1_555 1_555
C33 C32 1_555 1_555
C34 N4 1_555 1_555
C35 C34 1_555 1_555
H34 C35 1_555 1_555
C36 C35 1_555 1_555
H35 C36 1_555 1_555
C37 C36 1_555 1_555
H36 C37 1_555 1_555
C38 C37 1_555 1_555
H37 C38 1_555 1_555
C39 C32 1_555 1_555
C40 C32 1_555 1_555
C41 N6 1_555 1_555
C42 C41 1_555 1_555
H38 C42 1_555 1_555
H39 C42 1_555 1_555
C43 O11 1_555 1_555
C44 N6 1_555 1_555
C45 C44 1_555 1_555
H40 C45 1_555 1_555
C46 C45 1_555 1_555
H41 C46 1_555 1_555
C47 C46 1_555 1_555
C48 C47 1_555 1_555
H42 C48 1_555 1_555
C49 C44 1_555 1_555
H43 C49 1_555 1_555
C50 O12 1_555 1_555
H44 C50 1_555 1_555
H45 C50 1_555 1_555
H46 C50 1_555 1_555
C51 N5 1_555 1_555
C52 O9 1_555 1_555
C53 C52 1_555 1_555
H47 C53 1_555 1_555
H48 C53 1_555 1_555
H49 C53 1_555 1_555
C54 C52 1_555 1_555
H50 C54 1_555 1_555
H51 C54 1_555 1_555
H52 C54 1_555 1_555
C55 C52 1_555 1_555
H53 C55 1_555 1_555
H54 C55 1_555 1_555
H55 C55 1_555 1_555
C56 N4 1_555 1_555
H56 C56 1_555 1_555
H57 C56 1_555 1_555
C57 C56 1_555 1_555
C58 C57 1_555 1_555
H58 C58 1_555 1_555
C59 C58 1_555 1_555
H59 C59 1_555 1_555
C60 C59 1_555 1_555
H60 C60 1_555 1_555
C61 C60 1_555 1_555
H61 C61 1_555 1_555
C62 C57 1_555 1_555
H62 C62 1_555 1_555
C3 C8 1_555 1_555
C7 C8 1_555 1_555
C9 C10 1_555 1_555
C9 C12 1_555 1_555
C17 C18 1_555 1_555
C30 C31 1_555 1_555
C34 C39 1_555 1_555
C38 C39 1_555 1_555
C40 C41 1_555 1_555
C40 C43 1_555 1_555
C48 C49 1_555 1_555
C61 C62 1_555 1_555

#END
