
#######################################################################
#
#                 Cambridge Crystallographic Data Centre
#                                CCDC 
#
#######################################################################
#
# If this CIF has been generated from an entry in the Cambridge 
# Structural Database, then it will include bibliographic, chemical, 
# crystal, experimental, refinement or atomic coordinate data resulting 
# from the CCDC's data processing and validation procedures.
#
#######################################################################

data_UYEFAH
_chemical_formula_moiety         'C31 H29 N1 O9 S1'
_chemical_name_systematic        
'dimethyl (9-(methoxycarbonyl)-11-((4-methylphenyl)sulfonyl)-10-oxo-12-phenyl-11-azatricyclo[7.2.1.0^2,7^]dodeca-2,4,6-trien-8-yl)malonate'
_symmetry_cell_setting           monoclinic
_symmetry_space_group_name_H-M   'P 21/n'
_symmetry_Int_Tables_number      14
_space_group_name_Hall           '-P 2yn'
loop_
_symmetry_equiv_pos_site_id
_symmetry_equiv_pos_as_xyz
1 x,y,z
2 1/2-x,1/2+y,1/2-z
3 -x,-y,-z
4 1/2+x,1/2-y,1/2+z
_cell_length_a                   11.4464(3)
_cell_length_b                   16.3031(3)
_cell_length_c                   15.9696(4)
_cell_angle_alpha                90
_cell_angle_beta                 108.147(3)
_cell_angle_gamma                90
_cell_volume                     2831.89
_exptl_crystal_colour            colorless
_exptl_crystal_description       block
_cell_formula_units_Z            4
loop_
_atom_site_label
_atom_site_type_symbol
_atom_site_fract_x
_atom_site_fract_y
_atom_site_fract_z
S1 S 0.44199(5) 0.54488(3) 0.13403(3)
O1 O 0.42531(14) 0.31546(9) 0.13751(10)
O2 O 0.44496(16) 0.17785(10) 0.14521(11)
O3 O 0.47814(16) 0.15057(10) 0.34810(12)
O4 O 0.66882(15) 0.14690(10) 0.33667(12)
O5 O 0.62635(15) 0.45510(10) 0.46892(10)
O6 O 0.61958(16) 0.31804(10) 0.45518(11)
O7 O 0.40928(14) 0.43775(10) 0.28812(10)
O8 O 0.32801(15) 0.50160(10) 0.10406(11)
O9 O 0.51101(16) 0.56443(10) 0.07618(10)
N1 N 0.53969(17) 0.48838(11) 0.21407(12)
C1 C 0.64837(19) 0.31926(13) 0.28927(14)
H1 H 0.7172 0.2917 0.3325
C2 C 0.6296(2) 0.40151(13) 0.33222(13)
C3 C 0.7236(2) 0.46717(13) 0.32534(14)
H2 H 0.7087 0.5167 0.3553
C4 C 0.6733(2) 0.48292(14) 0.22495(14)
H3 H 0.7052 0.5340 0.2081
C5 C 0.69979(19) 0.40978(14) 0.17576(14)
C6 C 0.68804(19) 0.33157(14) 0.20710(14)
C7 C 0.7165(2) 0.26348(15) 0.16430(16)
H4 H 0.7099 0.2110 0.1852
C8 C 0.7547(2) 0.27388(16) 0.09035(16)
H5 H 0.7735 0.2283 0.0619
C9 C 0.7648(2) 0.35170(16) 0.05905(16)
H6 H 0.7898 0.3583 0.0094
C10 C 0.7377(2) 0.41998(15) 0.10143(15)
H7 H 0.7448 0.4723 0.0804
C11 C 0.5344(2) 0.26149(13) 0.27505(14)
H8 H 0.4775 0.2889 0.3008
C12 C 0.4643(2) 0.24512(13) 0.17818(15)
C13 C 0.3675(2) 0.31086(16) 0.04291(16)
H9 H 0.4246 0.2883 0.0160
H10 H 0.3436 0.3649 0.0200
H11 H 0.2962 0.2764 0.0302
C14 C 0.5703(2) 0.18017(14) 0.32296(14)
C15 C 0.5020(3) 0.07397(16) 0.3959(2)
H12 H 0.5210 0.0323 0.3596
H13 H 0.4306 0.0580 0.4113
H14 H 0.5704 0.0807 0.4486
C16 C 0.6242(2) 0.38532(14) 0.42514(14)
C17 C 0.6280(2) 0.44423(17) 0.55948(16)
H15 H 0.5538 0.4173 0.5603
H16 H 0.6336 0.4968 0.5875
H17 H 0.6976 0.4114 0.5905
C18 C 0.8596(2) 0.44764(13) 0.36083(14)
C19 C 0.9404(2) 0.48507(14) 0.32374(15)
H18 H 0.9099 0.5190 0.2750
C20 C 1.0666(2) 0.47253(16) 0.35838(17)
H19 H 1.1197 0.4976 0.3325
C21 C 1.1131(2) 0.42258(16) 0.43160(17)
H20 H 1.1973 0.4135 0.4545
C22 C 1.0336(2) 0.38647(16) 0.47014(16)
H21 H 1.0646 0.3539 0.5200
C23 C 0.9075(2) 0.39835(14) 0.43509(15)
H22 H 0.8547 0.3733 0.4613
C24 C 0.5088(2) 0.44326(13) 0.27683(14)
C25 C 0.4212(2) 0.63453(13) 0.18897(14)
C26 C 0.4947(2) 0.70208(15) 0.18946(16)
H23 H 0.5532 0.7007 0.1601
C27 C 0.4796(2) 0.77171(15) 0.23457(17)
H24 H 0.5282 0.8175 0.2349
C28 C 0.3935(2) 0.77474(15) 0.27924(16)
C29 C 0.3202(2) 0.70608(16) 0.27670(18)
H25 H 0.2613 0.7075 0.3058
C30 C 0.3330(2) 0.63555(15) 0.23177(17)
H26 H 0.2835 0.5900 0.2304
C31 C 0.3801(3) 0.84999(18) 0.3302(2)
H27 H 0.4494 0.8855 0.3372
H28 H 0.3763 0.8340 0.3872
H29 H 0.3059 0.8784 0.2988
loop_
_geom_bond_atom_site_label_1
_geom_bond_atom_site_label_2
_geom_bond_site_symmetry_1
_geom_bond_site_symmetry_2
S1 O8 1_555 1_555
O1 C12 1_555 1_555
O2 C12 1_555 1_555
O3 C14 1_555 1_555
O4 C14 1_555 1_555
O5 C16 1_555 1_555
O6 C16 1_555 1_555
O7 C24 1_555 1_555
O9 S1 1_555 1_555
N1 S1 1_555 1_555
C1 H1 1_555 1_555
C2 C1 1_555 1_555
C3 C2 1_555 1_555
H2 C3 1_555 1_555
C4 N1 1_555 1_555
H3 C4 1_555 1_555
C5 C4 1_555 1_555
C6 C1 1_555 1_555
C7 C6 1_555 1_555
H4 C7 1_555 1_555
C8 C7 1_555 1_555
H5 C8 1_555 1_555
C9 C8 1_555 1_555
H6 C9 1_555 1_555
C10 C5 1_555 1_555
H7 C10 1_555 1_555
C11 C1 1_555 1_555
H8 C11 1_555 1_555
C12 C11 1_555 1_555
C13 O1 1_555 1_555
H9 C13 1_555 1_555
H10 C13 1_555 1_555
H11 C13 1_555 1_555
C14 C11 1_555 1_555
C15 O3 1_555 1_555
H12 C15 1_555 1_555
H13 C15 1_555 1_555
H14 C15 1_555 1_555
C16 C2 1_555 1_555
C17 O5 1_555 1_555
H15 C17 1_555 1_555
H16 C17 1_555 1_555
H17 C17 1_555 1_555
C18 C3 1_555 1_555
C19 C18 1_555 1_555
H18 C19 1_555 1_555
C20 C19 1_555 1_555
H19 C20 1_555 1_555
C21 C20 1_555 1_555
H20 C21 1_555 1_555
C22 C21 1_555 1_555
H21 C22 1_555 1_555
C23 C18 1_555 1_555
H22 C23 1_555 1_555
C24 N1 1_555 1_555
C25 S1 1_555 1_555
C26 C25 1_555 1_555
H23 C26 1_555 1_555
C27 C26 1_555 1_555
H24 C27 1_555 1_555
C28 C27 1_555 1_555
C29 C28 1_555 1_555
H25 C29 1_555 1_555
C30 C25 1_555 1_555
H26 C30 1_555 1_555
C31 C28 1_555 1_555
H27 C31 1_555 1_555
H28 C31 1_555 1_555
H29 C31 1_555 1_555
C2 C24 1_555 1_555
C3 C4 1_555 1_555
C5 C6 1_555 1_555
C9 C10 1_555 1_555
C22 C23 1_555 1_555
C29 C30 1_555 1_555

#END
