
#######################################################################
#
#                 Cambridge Crystallographic Data Centre
#                                CCDC 
#
#######################################################################
#
# If this CIF has been generated from an entry in the Cambridge 
# Structural Database, then it will include bibliographic, chemical, 
# crystal, experimental, refinement or atomic coordinate data resulting 
# from the CCDC's data processing and validation procedures.
#
#######################################################################

data_UYIMEV
_chemical_formula_moiety         'C25 H24 Br1 N1 O3 S1'
_chemical_name_systematic        
3a-Bromo-2,2-diphenyl-7-(phenylsulfonyl)octahydrofuro[2,3-b]pyridine
_symmetry_cell_setting           monoclinic
_symmetry_space_group_name_H-M   'P 21/c'
_symmetry_Int_Tables_number      14
_space_group_name_Hall           '-P 2ybc'
loop_
_symmetry_equiv_pos_site_id
_symmetry_equiv_pos_as_xyz
1 x,y,z
2 -x,1/2+y,1/2-z
3 -x,-y,-z
4 x,1/2-y,1/2+z
_cell_length_a                   8.6459(3)
_cell_length_b                   31.0413(11)
_cell_length_c                   8.5495(3)
_cell_angle_alpha                90
_cell_angle_beta                 105.4380(10)
_cell_angle_gamma                90
_cell_volume                     2211.73
_exptl_crystal_colour            colorless
_cell_formula_units_Z            4
loop_
_atom_site_label
_atom_site_type_symbol
_atom_site_fract_x
_atom_site_fract_y
_atom_site_fract_z
Br1 Br 1.39386(3) 0.075114(8) 0.24346(3)
C1 C 0.6327(4) 0.23775(12) 0.3344(4)
H1 H 0.5302 0.2495 0.3006
C2 C 0.6536(3) 0.19704(11) 0.3999(3)
H2 H 0.5654 0.1812 0.4101
C3 C 0.8052(3) 0.17970(9) 0.4505(3)
H3 H 0.8195 0.1521 0.4946
C4 C 0.9361(3) 0.20330(8) 0.4359(2)
C5 C 1.1154(2) 0.11633(6) 0.2942(2)
H4 H 1.1491 0.0979 0.3904
C6 C 0.6528(3) 0.09574(9) -0.3128(3)
H5 H 0.6488 0.0855 -0.4160
C7 C 0.8970(2) 0.07796(6) 0.1274(2)
C8 C 0.8177(2) 0.04413(6) 0.2093(2)
C9 C 0.8395(3) 0.04381(8) 0.3753(3)
H6 H 0.8976 0.0658 0.4384
C10 C 0.7758(3) 0.01111(9) 0.4479(3)
H7 H 0.7918 0.0113 0.5599
C11 C 0.6901(3) -0.02140(8) 0.3587(3)
H8 H 0.6478 -0.0433 0.4092
C12 C 0.9148(3) 0.24420(8) 0.3697(3)
H9 H 1.0026 0.2602 0.3595
C13 C 0.7620(4) 0.26103(10) 0.3189(3)
H10 H 0.7468 0.2885 0.2737
C14 C 1.1617(3) 0.19009(7) 0.2006(3)
H11 H 1.2115 0.2172 0.2426
H12 H 1.0505 0.1957 0.1442
C15 C 1.2472(3) 0.17109(8) 0.0842(3)
H13 H 1.3597 0.1669 0.1393
H14 H 1.2402 0.1908 -0.0055
C16 C 1.1720(3) 0.12847(7) 0.0205(2)
H15 H 1.2297 0.1162 -0.0519
H16 H 1.0619 0.1332 -0.0415
C17 C 1.1746(2) 0.09698(7) 0.1559(2)
C18 C 0.6664(3) -0.02167(8) 0.1929(3)
H17 H 0.6080 -0.0438 0.1310
C19 C 0.7291(3) 0.01085(7) 0.1188(3)
H18 H 0.7120 0.0106 0.0067
C20 C 1.0575(2) 0.05994(7) 0.1047(2)
H19 H 1.0922 0.0349 0.1727
H20 H 1.0465 0.0521 -0.0076
C21 C 0.7777(2) 0.09517(7) -0.0253(2)
C22 C 0.7705(3) 0.08062(8) -0.1798(3)
H21 H 0.8450 0.0605 -0.1950
C23 C 0.5438(3) 0.12525(8) -0.2936(3)
H22 H 0.4656 0.1353 -0.3831
C24 C 0.5496(3) 0.14023(8) -0.1411(3)
H23 H 0.4753 0.1605 -0.1273
C25 C 0.6659(3) 0.12524(7) -0.0079(3)
H24 H 0.6687 0.1356 0.0949
N1 N 1.1699(2) 0.15984(5) 0.33600(19)
O1 O 1.2399(2) 0.21577(6) 0.5476(2)
O2 O 1.1287(2) 0.14628(6) 0.60713(17)
O3 O 0.94513(16) 0.11489(4) 0.23376(15)
S1 S 1.12975(7) 0.18098(2) 0.49832(6)
loop_
_geom_bond_atom_site_label_1
_geom_bond_atom_site_label_2
_geom_bond_site_symmetry_1
_geom_bond_site_symmetry_2
Br1 C17 1_555 1_555
C1 H1 1_555 1_555
C2 C1 1_555 1_555
H2 C2 1_555 1_555
C3 C2 1_555 1_555
H3 C3 1_555 1_555
C4 C3 1_555 1_555
C5 H4 1_555 1_555
C6 H5 1_555 1_555
C7 C8 1_555 1_555
C8 C9 1_555 1_555
C9 H6 1_555 1_555
C10 C9 1_555 1_555
H7 C10 1_555 1_555
C11 C10 1_555 1_555
H8 C11 1_555 1_555
C12 C4 1_555 1_555
H9 C12 1_555 1_555
C13 C1 1_555 1_555
H10 C13 1_555 1_555
C14 H11 1_555 1_555
H12 C14 1_555 1_555
C15 C14 1_555 1_555
H13 C15 1_555 1_555
H14 C15 1_555 1_555
C16 C15 1_555 1_555
H15 C16 1_555 1_555
H16 C16 1_555 1_555
C17 C5 1_555 1_555
C18 C11 1_555 1_555
H17 C18 1_555 1_555
C19 C8 1_555 1_555
H18 C19 1_555 1_555
C20 C7 1_555 1_555
H19 C20 1_555 1_555
H20 C20 1_555 1_555
C21 C7 1_555 1_555
C22 C6 1_555 1_555
H21 C22 1_555 1_555
C23 C6 1_555 1_555
H22 C23 1_555 1_555
C24 C23 1_555 1_555
H23 C24 1_555 1_555
C25 C21 1_555 1_555
H24 C25 1_555 1_555
N1 C5 1_555 1_555
O1 S1 1_555 1_555
O2 S1 1_555 1_555
O3 C5 1_555 1_555
S1 C4 1_555 1_555
C7 O3 1_555 1_555
C12 C13 1_555 1_555
C14 N1 1_555 1_555
C16 C17 1_555 1_555
C17 C20 1_555 1_555
C18 C19 1_555 1_555
C21 C22 1_555 1_555
C24 C25 1_555 1_555
N1 S1 1_555 1_555

#END
