
#######################################################################
#
#                 Cambridge Crystallographic Data Centre
#                                CCDC 
#
#######################################################################
#
# If this CIF has been generated from an entry in the Cambridge 
# Structural Database, then it will include bibliographic, chemical, 
# crystal, experimental, refinement or atomic coordinate data resulting 
# from the CCDC's data processing and validation procedures.
#
#######################################################################

data_UYIWIK
_chemical_formula_moiety         'C24 H27 B1 F2 N2 O2'
_chemical_name_systematic        
5,5-difluoro-10-(3-formyl-4-hydroxy-2-methyl-5-isopropylphenyl)-1,3,7,9-tetramethyl-5H-dipyrrolo[1,2-c:2',1'-f][1,3,2]diazaborinin-4-ium-5-ide
_symmetry_cell_setting           triclinic
_symmetry_space_group_name_H-M   'P -1'
_symmetry_Int_Tables_number      2
_space_group_name_Hall           '-P 1'
loop_
_symmetry_equiv_pos_site_id
_symmetry_equiv_pos_as_xyz
1 x,y,z
2 -x,-y,-z
_cell_length_a                   8.3457(12)
_cell_length_b                   8.8632(14)
_cell_length_c                   15.254(2)
_cell_angle_alpha                87.065(4)
_cell_angle_beta                 88.132(5)
_cell_angle_gamma                68.586(4)
_cell_volume                     1048.94
_exptl_crystal_colour            pink
_exptl_crystal_description       diamond
_cell_formula_units_Z            2
loop_
_atom_site_label
_atom_site_type_symbol
_atom_site_fract_x
_atom_site_fract_y
_atom_site_fract_z
B1 B 0.3708(4) 0.4278(4) 0.4018(2)
F1 F 0.3894(2) 0.3929(2) 0.49096(10)
F2 F 0.2408(2) 0.3790(2) 0.37209(12)
N1 N 0.5399(3) 0.3391(3) 0.35124(14)
N2 N 0.3235(3) 0.6118(3) 0.38010(14)
C1 C 0.5509(3) 0.5785(3) 0.27027(17)
C2 C 0.6186(3) 0.4121(3) 0.28805(17)
C3 C 0.4047(3) 0.6796(3) 0.31548(18)
C4 C 0.7651(3) 0.2854(3) 0.25267(18)
C5 C 0.6308(4) 0.1787(3) 0.35543(19)
C6 C 0.3192(4) 0.8502(3) 0.31361(19)
C7 C 0.1982(4) 0.7336(4) 0.41819(18)
C8 C 0.5847(4) 0.0665(4) 0.4188(2)
H1 H 0.6145 0.0819 0.4771
H2 H 0.6467 -0.0436 0.4035
H3 H 0.4633 0.0892 0.4166
C9 C 0.8950(4) 0.2958(4) 0.1848(2)
H4 H 0.9713 0.3401 0.2100
H5 H 0.8369 0.3646 0.1361
H6 H 0.9600 0.1893 0.1650
C10 C 0.1926(4) 0.8813(4) 0.37813(19)
H7 H 0.1162 0.9835 0.3926
C11 C 0.3512(4) 0.9764(3) 0.2533(2)
H8 H 0.3150 0.9686 0.1951
H9 H 0.4717 0.9588 0.2521
H10 H 0.2871 1.0824 0.2741
C12 C 0.7683(4) 0.1443(3) 0.29554(19)
H11 H 0.8495 0.0416 0.2861
C13 C 0.0893(4) 0.7065(4) 0.4930(2)
H12 H 0.0577 0.6155 0.4819
H13 H -0.0127 0.8016 0.4988
H14 H 0.1533 0.6851 0.5464
C14 C 0.6613(3) 0.7378(3) 0.05027(18)
C15 C 0.7890(3) 0.6772(3) 0.22548(18)
C16 C 0.8764(3) 0.7325(3) 0.15769(19)
C17 C 0.5794(3) 0.6841(3) 0.11763(18)
H15 H 0.4780 0.6690 0.1055
C18 C 0.8129(4) 0.7613(3) 0.07128(19)
C19 C 0.6411(3) 0.6507(3) 0.20408(18)
C20 C 1.0354(4) 0.7566(4) 0.1752(2)
H16 H 1.0783 0.7320 0.2318
C21 C 0.8537(4) 0.6459(4) 0.31825(18)
H17 H 0.7646 0.6370 0.3572
H18 H 0.8856 0.7341 0.3348
H19 H 0.9522 0.5467 0.3218
C22 C 0.5983(4) 0.7687(4) -0.04355(18)
H20 H 0.6178 0.8656 -0.0673
O1 O 1.1174(3) 0.8073(3) 0.12033(15)
O2 O 0.8968(3) 0.8114(3) 0.00551(13)
H21 H 0.9802 0.8254 0.0253
C23 C 0.4074(4) 0.8006(4) -0.0509(2)
H22 H 0.3876 0.7015 -0.0386
H23 H 0.3703 0.8410 -0.1093
H24 H 0.3437 0.8795 -0.0095
C24 C 0.7043(4) 0.6270(4) -0.0994(2)
H25 H 0.8242 0.6105 -0.0955
H26 H 0.6693 0.6509 -0.1594
H27 H 0.6861 0.5305 -0.0783
loop_
_geom_bond_atom_site_label_1
_geom_bond_atom_site_label_2
_geom_bond_site_symmetry_1
_geom_bond_site_symmetry_2
B1 F1 1_555 1_555
F2 B1 1_555 1_555
N1 B1 1_555 1_555
N2 B1 1_555 1_555
C1 C2 1_555 1_555
C2 N1 1_555 1_555
C3 N2 1_555 1_555
C4 C2 1_555 1_555
C5 N1 1_555 1_555
C6 C3 1_555 1_555
C7 N2 1_555 1_555
C8 C5 1_555 1_555
H1 C8 1_555 1_555
H2 C8 1_555 1_555
H3 C8 1_555 1_555
C9 C4 1_555 1_555
H4 C9 1_555 1_555
H5 C9 1_555 1_555
H6 C9 1_555 1_555
C10 C6 1_555 1_555
H7 C10 1_555 1_555
C11 C6 1_555 1_555
H8 C11 1_555 1_555
H9 C11 1_555 1_555
H10 C11 1_555 1_555
C12 C4 1_555 1_555
H11 C12 1_555 1_555
C13 C7 1_555 1_555
H12 C13 1_555 1_555
H13 C13 1_555 1_555
H14 C13 1_555 1_555
C14 C17 1_555 1_555
C15 C16 1_555 1_555
C16 C18 1_555 1_555
C17 H15 1_555 1_555
C18 C14 1_555 1_555
C19 C1 1_555 1_555
C20 C16 1_555 1_555
H16 C20 1_555 1_555
C21 C15 1_555 1_555
H17 C21 1_555 1_555
H18 C21 1_555 1_555
H19 C21 1_555 1_555
C22 C14 1_555 1_555
H20 C22 1_555 1_555
O1 C20 1_555 1_555
O2 C18 1_555 1_555
H21 O2 1_555 1_555
C23 C22 1_555 1_555
H22 C23 1_555 1_555
H23 C23 1_555 1_555
H24 C23 1_555 1_555
C24 C22 1_555 1_555
H25 C24 1_555 1_555
H26 C24 1_555 1_555
H27 C24 1_555 1_555
C1 C3 1_555 1_555
C5 C12 1_555 1_555
C7 C10 1_555 1_555
C15 C19 1_555 1_555
C17 C19 1_555 1_555

#END
