
#######################################################################
#
#                 Cambridge Crystallographic Data Centre
#                                CCDC 
#
#######################################################################
#
# If this CIF has been generated from an entry in the Cambridge 
# Structural Database, then it will include bibliographic, chemical, 
# crystal, experimental, refinement or atomic coordinate data resulting 
# from the CCDC's data processing and validation procedures.
#
#######################################################################

data_UYOMOL
_chemical_formula_moiety         'C48 H39 N6 O1 P1'
_chemical_name_systematic        
"N,N',N''-Trimethyl-N''',N'''',N'''''-tris(9-phenanthrylmethylene)phosphoric trihydrazide"
_symmetry_cell_setting           monoclinic
_symmetry_space_group_name_H-M   'C 2/c'
_symmetry_Int_Tables_number      15
_space_group_name_Hall           '-C 2yn'
loop_
_symmetry_equiv_pos_site_id
_symmetry_equiv_pos_as_xyz
1 x,y,z
2 -x,y,1/2-z
3 1/2+x,1/2+y,z
4 1/2-x,1/2+y,1/2-z
5 -x,-y,-z
6 x,-y,1/2+z
7 1/2-x,1/2-y,-z
8 1/2+x,1/2-y,1/2+z
_cell_length_a                   32.718(5)
_cell_length_b                   15.104(5)
_cell_length_c                   18.160(5)
_cell_angle_alpha                90
_cell_angle_beta                 96.330(5)
_cell_angle_gamma                90
_cell_volume                     8919.46
_exptl_crystal_colour            yellow
_cell_formula_units_Z            8
loop_
_atom_site_label
_atom_site_type_symbol
_atom_site_fract_x
_atom_site_fract_y
_atom_site_fract_z
P1 P 0.73662(5) 0.56127(13) 0.45391(9)
O1 O 0.69970(13) 0.6098(3) 0.4261(2)
N1 N 0.76054(15) 0.5166(4) 0.3857(3)
N2 N 0.78484(15) 0.4478(4) 0.4073(3)
N3 N 0.77104(15) 0.6231(4) 0.5053(3)
N4 N 0.81042(15) 0.6223(4) 0.4853(3)
N5 N 0.72597(14) 0.4765(4) 0.5089(3)
N6 N 0.75709(13) 0.4511(3) 0.5607(2)
C1 C 0.6928(2) 0.4153(5) 0.4820(4)
H1 H 0.7042 0.3654 0.4588
H2 H 0.6736 0.4451 0.4467
H3 H 0.6790 0.3954 0.5229
C2 C 0.75560(18) 0.3728(4) 0.5909(3)
H4 H 0.7332 0.3368 0.5755
C3 C 0.78649(17) 0.3385(4) 0.6468(3)
C4 C 0.77947(19) 0.2574(4) 0.6727(3)
H5 H 0.7562 0.2274 0.6520
C5 C 0.7953(2) 0.1263(5) 0.7533(4)
H6 H 0.7726 0.0969 0.7297
C6 C 0.8199(2) 0.0861(6) 0.8116(4)
H7 H 0.8143 0.0288 0.8265
C7 C 0.8537(3) 0.1344(5) 0.8478(4)
H8 H 0.8689 0.1105 0.8894
C8 C 0.8644(2) 0.2169(5) 0.8219(4)
H9 H 0.8883 0.2438 0.8439
C9 C 0.88675(19) 0.3916(4) 0.7631(3)
H10 H 0.9039 0.3661 0.8015
C10 C 0.8976(2) 0.4720(5) 0.7357(4)
H11 H 0.9222 0.4992 0.7536
C11 C 0.87066(19) 0.5122(4) 0.6800(3)
H12 H 0.8769 0.5677 0.6620
C12 C 0.83506(18) 0.4699(4) 0.6520(3)
H13 H 0.8179 0.4969 0.6143
C13 C 0.82405(18) 0.3881(4) 0.6783(3)
C14 C 0.85075(18) 0.3464(4) 0.7354(3)
C15 C 0.84076(18) 0.2618(4) 0.7636(3)
C16 C 0.80550(18) 0.2138(4) 0.7303(3)
C17 C 0.7682(2) 0.5719(5) 0.3218(3)
H14 H 0.7526 0.6257 0.3225
H15 H 0.7600 0.5403 0.2768
H16 H 0.7969 0.5858 0.3246
C18 C 0.81215(19) 0.4179(5) 0.3668(3)
H17 H 0.8152 0.4423 0.3207
C19 C 0.83805(19) 0.3438(5) 0.3972(3)
C20 C 0.85230(18) 0.3399(5) 0.4677(4)
H18 H 0.8460 0.3865 0.4981
C21 C 0.8907(2) 0.2710(6) 0.5759(4)
H19 H 0.8851 0.3196 0.6045
C22 C 0.9135(2) 0.1988(6) 0.6084(5)
H20 H 0.9205 0.1963 0.6594
C23 C 0.9250(2) 0.1332(6) 0.5640(4)
H21 H 0.9417 0.0875 0.5843
C24 C 0.9121(2) 0.1334(5) 0.4886(4)
H22 H 0.9199 0.0869 0.4596
C25 C 0.8786(3) 0.1280(5) 0.3311(4)
H23 H 0.8952 0.0812 0.3494
C26 C 0.8606(3) 0.1264(6) 0.2578(5)
H24 H 0.8649 0.0782 0.2277
C27 C 0.8368(3) 0.1958(6) 0.2300(5)
H25 H 0.8246 0.1935 0.1813
C28 C 0.8303(2) 0.2698(5) 0.2732(4)
H26 H 0.8144 0.3165 0.2525
C29 C 0.84735(19) 0.2744(5) 0.3472(3)
C30 C 0.8717(2) 0.2021(5) 0.3790(3)
C31 C 0.88834(19) 0.1996(5) 0.4559(4)
C32 C 0.87694(18) 0.2689(5) 0.5012(3)
C33 C 0.7605(2) 0.6712(5) 0.5715(4)
H27 H 0.7716 0.6401 0.6153
H28 H 0.7312 0.6749 0.5703
H29 H 0.7719 0.7297 0.5719
C34 C 0.83760(19) 0.6696(5) 0.5235(4)
H30 H 0.8309 0.7039 0.5630
C35 C 0.8806(2) 0.6677(5) 0.5023(4)
C36 C 0.8965(2) 0.5943(5) 0.4722(3)
H31 H 0.8797 0.5444 0.4668
C37 C 0.9510(2) 0.5133(6) 0.4180(4)
H32 H 0.9339 0.4640 0.4116
C38 C 0.9901(3) 0.5079(8) 0.3963(5)
H33 H 0.9997 0.4563 0.3764
C39 C 1.0145(3) 0.5841(7) 0.4059(6)
H34 H 1.0410 0.5805 0.3921
C40 C 1.0025(3) 0.6663(7) 0.4347(5)
H35 H 1.0196 0.7156 0.4387
C41 C 0.9688(3) 0.8260(6) 0.4984(5)
H36 H 0.9952 0.8288 0.4843
C42 C 0.9535(3) 0.8975(7) 0.5287(5)
H37 H 0.9697 0.9480 0.5357
C43 C 0.9148(3) 0.8987(6) 0.5496(5)
H38 H 0.9044 0.9500 0.5688
C44 C 0.8911(2) 0.8227(5) 0.5418(4)
H39 H 0.8650 0.8227 0.5574
C45 C 0.9055(2) 0.7477(5) 0.5114(4)
C46 C 0.9459(2) 0.7438(6) 0.4867(4)
C47 C 0.9610(2) 0.6673(6) 0.4576(4)
C48 C 0.9366(2) 0.5871(5) 0.4483(4)
loop_
_geom_bond_atom_site_label_1
_geom_bond_atom_site_label_2
_geom_bond_site_symmetry_1
_geom_bond_site_symmetry_2
P1 O1 1_555 1_555
N1 P1 1_555 1_555
N2 N1 1_555 1_555
N3 P1 1_555 1_555
N4 N3 1_555 1_555
N5 P1 1_555 1_555
N6 N5 1_555 1_555
C1 N5 1_555 1_555
H1 C1 1_555 1_555
H2 C1 1_555 1_555
H3 C1 1_555 1_555
C2 N6 1_555 1_555
H4 C2 1_555 1_555
C3 C2 1_555 1_555
C4 C3 1_555 1_555
H5 C4 1_555 1_555
C5 H6 1_555 1_555
C6 C5 1_555 1_555
H7 C6 1_555 1_555
C7 C6 1_555 1_555
H8 C7 1_555 1_555
C8 C7 1_555 1_555
H9 C8 1_555 1_555
C9 H10 1_555 1_555
C10 C9 1_555 1_555
H11 C10 1_555 1_555
C11 C10 1_555 1_555
H12 C11 1_555 1_555
C12 C11 1_555 1_555
H13 C12 1_555 1_555
C13 C3 1_555 1_555
C14 C9 1_555 1_555
C15 C8 1_555 1_555
C16 C4 1_555 1_555
C17 N1 1_555 1_555
H14 C17 1_555 1_555
H15 C17 1_555 1_555
H16 C17 1_555 1_555
C18 N2 1_555 1_555
H17 C18 1_555 1_555
C19 C18 1_555 1_555
C20 C19 1_555 1_555
H18 C20 1_555 1_555
C21 H19 1_555 1_555
C22 C21 1_555 1_555
H20 C22 1_555 1_555
C23 C22 1_555 1_555
H21 C23 1_555 1_555
C24 C23 1_555 1_555
H22 C24 1_555 1_555
C25 H23 1_555 1_555
C26 C25 1_555 1_555
H24 C26 1_555 1_555
C27 C26 1_555 1_555
H25 C27 1_555 1_555
C28 C27 1_555 1_555
H26 C28 1_555 1_555
C29 C19 1_555 1_555
C30 C25 1_555 1_555
C31 C24 1_555 1_555
C32 C20 1_555 1_555
C33 N3 1_555 1_555
H27 C33 1_555 1_555
H28 C33 1_555 1_555
H29 C33 1_555 1_555
C34 N4 1_555 1_555
H30 C34 1_555 1_555
C35 C34 1_555 1_555
C36 C35 1_555 1_555
H31 C36 1_555 1_555
C37 H32 1_555 1_555
C38 C37 1_555 1_555
H33 C38 1_555 1_555
C39 C38 1_555 1_555
H34 C39 1_555 1_555
C40 C39 1_555 1_555
H35 C40 1_555 1_555
C41 H36 1_555 1_555
C42 C41 1_555 1_555
H37 C42 1_555 1_555
C43 C42 1_555 1_555
H38 C43 1_555 1_555
C44 C43 1_555 1_555
H39 C44 1_555 1_555
C45 C35 1_555 1_555
C46 C41 1_555 1_555
C47 C40 1_555 1_555
C48 C36 1_555 1_555
C5 C16 1_555 1_555
C12 C13 1_555 1_555
C13 C14 1_555 1_555
C14 C15 1_555 1_555
C15 C16 1_555 1_555
C21 C32 1_555 1_555
C28 C29 1_555 1_555
C29 C30 1_555 1_555
C30 C31 1_555 1_555
C31 C32 1_555 1_555
C37 C48 1_555 1_555
C44 C45 1_555 1_555
C45 C46 1_555 1_555
C46 C47 1_555 1_555
C47 C48 1_555 1_555

#END
