
#######################################################################
#
#                 Cambridge Crystallographic Data Centre
#                                CCDC 
#
#######################################################################
#
# If this CIF has been generated from an entry in the Cambridge 
# Structural Database, then it will include bibliographic, chemical, 
# crystal, experimental, refinement or atomic coordinate data resulting 
# from the CCDC's data processing and validation procedures.
#
#######################################################################

data_UYOMIF
_chemical_formula_moiety         'C48 H39 N6 O1 P1,C1 H1 Cl3'
_chemical_name_systematic        
"N''',N'''',N'''''-tris(9-anthrylmethylene)-N,N',N''-trimethylphosphoric trihydrazide chloroform solvate"
_symmetry_cell_setting           triclinic
_symmetry_space_group_name_H-M   'P -1'
_symmetry_Int_Tables_number      2
_space_group_name_Hall           '-P 1'
loop_
_symmetry_equiv_pos_site_id
_symmetry_equiv_pos_as_xyz
1 x,y,z
2 -x,-y,-z
_cell_length_a                   11.122(6)
_cell_length_b                   13.445(7)
_cell_length_c                   14.471(8)
_cell_angle_alpha                81.166(10)
_cell_angle_beta                 82.114(11)
_cell_angle_gamma                82.625(12)
_cell_volume                     2105.27
_exptl_crystal_colour            yellow
_cell_formula_units_Z            2
loop_
_atom_site_label
_atom_site_type_symbol
_atom_site_fract_x
_atom_site_fract_y
_atom_site_fract_z
P1 P 0.09964(11) 0.00329(9) 0.80228(9)
O1 O 0.0654(3) -0.0981(2) 0.8285(2)
N1 N 0.3035(4) -0.0261(3) 0.8623(3)
N2 N -0.0231(4) 0.1741(3) 0.7460(3)
N3 N 0.1676(3) 0.0213(3) 0.6930(3)
N4 N 0.1931(3) 0.0359(3) 0.8698(3)
N5 N -0.0223(3) 0.0873(3) 0.8116(3)
N6 N 0.2417(3) 0.0983(3) 0.6729(3)
C1 C 0.3521(5) 0.2889(4) 0.6185(3)
C2 C 0.2500(5) 0.3089(4) 0.6872(3)
H1 H 0.1871 0.2676 0.6976
C3 C -0.1203(4) 0.0727(4) 0.8889(3)
H2 H -0.1269 0.1262 0.9269
H3 H -0.1025 0.0087 0.9269
H4 H -0.1960 0.0735 0.8638
C4 C 0.3649(4) 0.2085(3) 0.5650(3)
C5 C 0.2834(4) 0.1273(4) 0.5888(3)
H5 H 0.2622 0.0969 0.5407
C6 C -0.1328(5) 0.3271(4) 0.6748(4)
C7 C -0.0828(5) 0.3243(4) 0.5795(4)
C8 C 0.1333(5) -0.0276(4) 0.6190(4)
H6 H 0.0789 0.0190 0.5828
H7 H 0.0932 -0.0860 0.6468
H8 H 0.2052 -0.0481 0.5786
C9 C 0.5152(5) -0.0585(4) 0.8737(4)
C10 C 0.5429(5) 0.2777(4) 0.4690(4)
C11 C 0.4717(5) 0.1280(4) 0.4269(3)
H9 H 0.4203 0.0769 0.4389
C12 C 0.3965(5) 0.0014(5) 0.8878(4)
H10 H 0.3896 0.0601 0.9157
C13 C 0.4417(5) 0.3588(4) 0.6002(4)
C14 C 0.5341(5) 0.3492(4) 0.5279(4)
H11 H 0.5936 0.3935 0.5184
C15 C 0.5428(5) -0.1499(5) 0.9317(4)
C16 C 0.3369(7) 0.4513(5) 0.7224(5)
H12 H 0.3328 0.5033 0.7588
C17 C 0.7148(5) -0.0831(6) 0.7809(4)
C18 C 0.5591(5) 0.1300(5) 0.3511(4)
H13 H 0.5656 0.0807 0.3116
C19 C 0.4582(4) 0.2029(4) 0.4877(3)
C20 C 0.6334(5) 0.2741(5) 0.3897(4)
H14 H 0.6900 0.3210 0.3777
C21 C 0.2436(6) 0.3867(4) 0.7372(4)
H15 H 0.1767 0.3978 0.7820
C22 C 0.7386(6) -0.1752(6) 0.8384(5)
H16 H 0.8124 -0.2146 0.8259
C23 C -0.0081(6) 0.2426(5) 0.5446(4)
H17 H 0.0120 0.1853 0.5868
C24 C 0.6005(5) -0.0234(5) 0.7994(4)
C25 C 0.6626(7) 0.1001(7) 0.6682(5)
H18 H 0.6455 0.1610 0.6298
C26 C -0.2037(5) 0.4129(4) 0.7016(4)
C27 C -0.1843(7) 0.4928(6) 0.5391(5)
H19 H -0.2027 0.5476 0.4938
C28 C -0.2319(5) 0.4992(4) 0.6324(5)
C29 C 0.5778(6) 0.0701(6) 0.7403(4)
H20 H 0.5045 0.1108 0.7511
C30 C 0.7990(6) -0.0461(8) 0.7044(5)
H21 H 0.8736 -0.0843 0.6916
C31 C 0.4934(9) -0.2732(7) 1.0681(6)
H22 H 0.4404 -0.2940 1.1210
C32 C 0.6566(6) -0.2094(5) 0.9127(5)
C33 C -0.2523(6) 0.4234(5) 0.7954(5)
H23 H -0.2358 0.3700 0.8425
C34 C -0.3468(7) 0.5897(5) 0.7503(7)
H24 H -0.3946 0.6476 0.7671
C35 C -0.1113(6) 0.4093(5) 0.5104(5)
C36 C -0.3220(6) 0.5079(5) 0.8198(5)
H25 H -0.3531 0.5113 0.8824
C37 C 0.4624(6) -0.1856(6) 1.0117(5)
H26 H 0.3873 -0.1485 1.0256
C38 C 0.7737(7) 0.0430(8) 0.6499(5)
H27 H 0.8305 0.0659 0.6004
C39 C 0.0359(7) 0.2434(6) 0.4535(4)
H28 H 0.0851 0.1872 0.4344
C40 C 0.6804(8) -0.3020(6) 0.9740(7)
H29 H 0.7530 -0.3430 0.9617
C41 C 0.6388(6) 0.2040(5) 0.3314(4)
H30 H 0.6960 0.2053 0.2781
C42 C 0.0090(8) 0.3269(8) 0.3871(5)
H31 H 0.0416 0.3270 0.3244
C44 C 0.4312(7) 0.4376(4) 0.6560(4)
H33 H 0.4916 0.4813 0.6462
C45 C -0.3021(6) 0.5855(5) 0.6589(7)
H34 H -0.3185 0.6409 0.6136
C46 C 0.6013(12) -0.3311(7) 1.0482(7)
H35 H 0.6199 -0.3915 1.0868
C47 C -0.0629(7) 0.4059(7) 0.4138(5)
H36 H -0.0826 0.4607 0.3688
C48 C 0.1884(5) 0.1345(4) 0.8988(4)
H37 H 0.2077 0.1268 0.9623
H38 H 0.1078 0.1693 0.8955
H39 H 0.2464 0.1729 0.8578
C49 C -0.1169(5) 0.2382(4) 0.7474(3)
H40 H -0.1791 0.2287 0.7969
Cl1 Cl 0.0311(2) 0.6597(2) 1.02583(17)
Cl2 Cl 0.2707(3) 0.6550(3) 0.92878(19)
Cl3 Cl 0.0745(4) 0.6165(3) 0.8406(2)
C43 C 0.1156(7) 0.6828(5) 0.9183(4)
H32 H 0.1000 0.7550 0.8947
loop_
_geom_bond_atom_site_label_1
_geom_bond_atom_site_label_2
_geom_bond_site_symmetry_1
_geom_bond_site_symmetry_2
P1 O1 1_555 1_555
Cl1 C43 1_555 1_555
Cl2 C43 1_555 1_555
Cl3 C43 1_555 1_555
N1 N4 1_555 1_555
N2 N5 1_555 1_555
N3 P1 1_555 1_555
N4 P1 1_555 1_555
N5 P1 1_555 1_555
N6 N3 1_555 1_555
C1 C2 1_555 1_555
C2 H1 1_555 1_555
C3 N5 1_555 1_555
H2 C3 1_555 1_555
H3 C3 1_555 1_555
H4 C3 1_555 1_555
C4 C1 1_555 1_555
C5 N6 1_555 1_555
H5 C5 1_555 1_555
C6 C7 1_555 1_555
C7 C23 1_555 1_555
C8 N3 1_555 1_555
H6 C8 1_555 1_555
H7 C8 1_555 1_555
H8 C8 1_555 1_555
C9 C12 1_555 1_555
C10 C14 1_555 1_555
C11 H9 1_555 1_555
C12 N1 1_555 1_555
H10 C12 1_555 1_555
C13 C1 1_555 1_555
C14 C13 1_555 1_555
H11 C14 1_555 1_555
C15 C9 1_555 1_555
C16 H12 1_555 1_555
C17 C22 1_555 1_555
C18 C11 1_555 1_555
H13 C18 1_555 1_555
C19 C4 1_555 1_555
C20 C10 1_555 1_555
H14 C20 1_555 1_555
C21 C2 1_555 1_555
H15 C21 1_555 1_555
C22 H16 1_555 1_555
C23 H17 1_555 1_555
C24 C9 1_555 1_555
C25 H18 1_555 1_555
C26 C6 1_555 1_555
C27 H19 1_555 1_555
C28 C26 1_555 1_555
C29 C24 1_555 1_555
H20 C29 1_555 1_555
C30 C17 1_555 1_555
H21 C30 1_555 1_555
C31 H22 1_555 1_555
C32 C15 1_555 1_555
C33 C26 1_555 1_555
H23 C33 1_555 1_555
C34 H24 1_555 1_555
C35 C7 1_555 1_555
C36 C33 1_555 1_555
H25 C36 1_555 1_555
C37 C15 1_555 1_555
H26 C37 1_555 1_555
C38 C25 1_555 1_555
H27 C38 1_555 1_555
C39 C23 1_555 1_555
H28 C39 1_555 1_555
C40 C32 1_555 1_555
H29 C40 1_555 1_555
C41 C18 1_555 1_555
H30 C41 1_555 1_555
C42 C39 1_555 1_555
H31 C42 1_555 1_555
C43 H32 1_555 1_555
C44 C13 1_555 1_555
H33 C44 1_555 1_555
C45 C28 1_555 1_555
H34 C45 1_555 1_555
C46 C31 1_555 1_555
H35 C46 1_555 1_555
C47 C35 1_555 1_555
H36 C47 1_555 1_555
C48 N4 1_555 1_555
H37 C48 1_555 1_555
H38 C48 1_555 1_555
H39 C48 1_555 1_555
C49 N2 1_555 1_555
H40 C49 1_555 1_555
C4 C5 1_555 1_555
C6 C49 1_555 1_555
C10 C19 1_555 1_555
C11 C19 1_555 1_555
C16 C21 1_555 1_555
C16 C44 1_555 1_555
C17 C24 1_555 1_555
C20 C41 1_555 1_555
C22 C32 1_555 1_555
C25 C29 1_555 1_555
C27 C28 1_555 1_555
C27 C35 1_555 1_555
C30 C38 1_555 1_555
C31 C37 1_555 1_555
C34 C36 1_555 1_555
C34 C45 1_555 1_555
C40 C46 1_555 1_555
C42 C47 1_555 1_555

#END
