
#######################################################################
#
#                 Cambridge Crystallographic Data Centre
#                                CCDC 
#
#######################################################################
#
# If this CIF has been generated from an entry in the Cambridge 
# Structural Database, then it will include bibliographic, chemical, 
# crystal, experimental, refinement or atomic coordinate data resulting 
# from the CCDC's data processing and validation procedures.
#
#######################################################################

data_UYOQUV
_chemical_formula_moiety         'C20 H16 N2 O2'
_chemical_name_systematic        
15b-Methyl-1H-benzo[e]indolo[1,2-a]pyrrolo-[2,1-c][1,4]diazepine-3,9(2H,15bH)-dione
_symmetry_cell_setting           orthorhombic
_symmetry_space_group_name_H-M   'P n a 21'
_symmetry_Int_Tables_number      33
_space_group_name_Hall           'P 2c -2n'
loop_
_symmetry_equiv_pos_site_id
_symmetry_equiv_pos_as_xyz
1 x,y,z
2 -x,-y,1/2+z
3 1/2+x,1/2-y,z
4 1/2-x,1/2+y,1/2+z
_cell_length_a                   17.9076(16)
_cell_length_b                   7.1357(6)
_cell_length_c                   11.9889(11)
_cell_angle_alpha                90
_cell_angle_beta                 90
_cell_angle_gamma                90
_cell_volume                     1531.98
_exptl_crystal_colour            colorless
_exptl_crystal_description       prismatic
_cell_formula_units_Z            4
loop_
_atom_site_label
_atom_site_type_symbol
_atom_site_fract_x
_atom_site_fract_y
_atom_site_fract_z
N1 N 0.18075(10) 0.1677(2) 0.55624(16)
N2 N 0.03430(10) 0.3259(3) 0.62390(17)
O1 O 0.25112(10) 0.2267(3) 0.40059(18)
O2 O -0.05370(10) 0.1649(4) 0.5327(3)
C1 C 0.23441(13) 0.2622(3) 0.4962(2)
C2 C 0.26573(13) 0.4114(4) 0.5710(3)
H1 H 0.2440 0.5327 0.5542
H2 H 0.3196 0.4197 0.5634
C3 C 0.24419(13) 0.3474(4) 0.6869(2)
H3 H 0.2369 0.4540 0.7360
H4 H 0.2825 0.2671 0.7183
C4 C 0.17041(13) 0.2383(3) 0.6712(2)
C5 C 0.10385(12) 0.3673(3) 0.6770(2)
C6 C 0.09664(13) 0.5257(3) 0.73555(19)
H5 H 0.1341 0.5819 0.7775
C7 C 0.02181(14) 0.5953(3) 0.7233(2)
C8 C -0.01424(17) 0.7524(4) 0.7672(3)
H6 H 0.0110 0.8343 0.8143
C9 C -0.08740(18) 0.7838(4) 0.7398(3)
H7 H -0.1123 0.8876 0.7684
C10 C -0.12431(16) 0.6610(4) 0.6694(3)
H8 H -0.1740 0.6849 0.6519
C11 C -0.09052(13) 0.5045(4) 0.6240(3)
H9 H -0.1160 0.4247 0.5759
C12 C -0.01609(12) 0.4716(3) 0.6539(2)
C13 C 0.01108(13) 0.1720(4) 0.5611(2)
C14 C 0.06047(12) 0.0161(3) 0.5237(2)
C15 C 0.02222(16) -0.1410(4) 0.4838(2)
H10 H -0.0295 -0.1459 0.4909
C16 C 0.05861(18) -0.2877(4) 0.4346(2)
H11 H 0.0317 -0.3903 0.4087
C17 C 0.13552(18) -0.2833(4) 0.4232(2)
H12 H 0.1604 -0.3816 0.3884
C18 C 0.17486(15) -0.1321(3) 0.4640(2)
H13 H 0.2266 -0.1298 0.4580
C19 C 0.13782(13) 0.0170(3) 0.51403(18)
C20 C 0.16271(17) 0.0793(4) 0.7546(2)
H14 H 0.1166 0.0141 0.7417
H15 H 0.1629 0.1293 0.8290
H16 H 0.2037 -0.0060 0.7460
loop_
_geom_bond_atom_site_label_1
_geom_bond_atom_site_label_2
_geom_bond_site_symmetry_1
_geom_bond_site_symmetry_2
N1 C1 1_555 1_555
N2 C5 1_555 1_555
O1 C1 1_555 1_555
O2 C13 1_555 1_555
C1 C2 1_555 1_555
C2 H1 1_555 1_555
H2 C2 1_555 1_555
C3 C2 1_555 1_555
H3 C3 1_555 1_555
H4 C3 1_555 1_555
C4 N1 1_555 1_555
C5 C4 1_555 1_555
C6 C5 1_555 1_555
H5 C6 1_555 1_555
C7 C6 1_555 1_555
C8 C7 1_555 1_555
H6 C8 1_555 1_555
C9 C8 1_555 1_555
H7 C9 1_555 1_555
C10 C9 1_555 1_555
H8 C10 1_555 1_555
C11 C10 1_555 1_555
H9 C11 1_555 1_555
C12 N2 1_555 1_555
C13 N2 1_555 1_555
C14 C13 1_555 1_555
C15 C14 1_555 1_555
H10 C15 1_555 1_555
C16 C15 1_555 1_555
H11 C16 1_555 1_555
C17 C16 1_555 1_555
H12 C17 1_555 1_555
C18 C17 1_555 1_555
H13 C18 1_555 1_555
C19 N1 1_555 1_555
C20 C4 1_555 1_555
H14 C20 1_555 1_555
H15 C20 1_555 1_555
H16 C20 1_555 1_555
C3 C4 1_555 1_555
C7 C12 1_555 1_555
C11 C12 1_555 1_555
C14 C19 1_555 1_555
C18 C19 1_555 1_555

#END
