
#######################################################################
#
#                 Cambridge Crystallographic Data Centre
#                                CCDC 
#
#######################################################################
#
# If this CIF has been generated from an entry in the Cambridge 
# Structural Database, then it will include bibliographic, chemical, 
# crystal, experimental, refinement or atomic coordinate data resulting 
# from the CCDC's data processing and validation procedures.
#
#######################################################################

data_UYORAD
_chemical_formula_moiety         'C24 H26 O2'
_chemical_name_systematic        
2-(2,6-dimethylphenyl)-3-hydroxy-5-(5,6,7,8-tetrahydronaphthalen-1-ylmethyl)cyclopent-2-en-1-one
_symmetry_cell_setting           monoclinic
_symmetry_space_group_name_H-M   'P 21/c'
_symmetry_Int_Tables_number      14
_space_group_name_Hall           '-P 2ybc'
loop_
_symmetry_equiv_pos_site_id
_symmetry_equiv_pos_as_xyz
1 x,y,z
2 -x,1/2+y,1/2-z
3 -x,-y,-z
4 x,1/2-y,1/2+z
_cell_length_a                   17.8091(8)
_cell_length_b                   6.5520(3)
_cell_length_c                   16.0289(7)
_cell_angle_alpha                90
_cell_angle_beta                 103.194(2)
_cell_angle_gamma                90
_cell_volume                     1820.96
_cell_formula_units_Z            4
loop_
_atom_site_label
_atom_site_type_symbol
_atom_site_fract_x
_atom_site_fract_y
_atom_site_fract_z
C1 C 0.13708(11) 0.5879(3) 0.26268(13)
C2 C 0.09740(12) 0.7566(4) 0.22161(13)
H1 H 0.0979 0.7817 0.1646
C3 C 0.05718(12) 0.8881(4) 0.26333(14)
H2 H 0.0309 0.9998 0.2349
C4 C 0.05704(12) 0.8496(4) 0.34840(14)
H3 H 0.0306 0.9374 0.3772
C5 C 0.09558(12) 0.6825(3) 0.39137(14)
C6 C 0.09272(14) 0.6513(4) 0.48446(14)
H4 H 0.1041 0.7800 0.5145
H5 H 0.0407 0.6122 0.4869
C7 C 0.1475(3) 0.4932(6) 0.5299(2)
H6 H 0.1345 0.4565 0.5835
H7 H 0.1997 0.5463 0.5426
C8 C 0.1420(3) 0.3051(5) 0.4719(2)
H8 H 0.0886 0.2623 0.4535
H9 H 0.1713 0.1934 0.5033
C9 C 0.17409(14) 0.3590(3) 0.39361(15)
H10 H 0.2292 0.3826 0.4117
H11 H 0.1659 0.2454 0.3538
C10 C 0.13523(11) 0.5476(3) 0.34918(13)
C11 C 0.18175(12) 0.4555(4) 0.21396(13)
H12 H 0.1610 0.4742 0.1530
H13 H 0.1745 0.3135 0.2274
C12 C 0.26900(12) 0.5027(3) 0.23453(13)
H14 H 0.2915 0.4716 0.2948
C13 C 0.30806(12) 0.3742(3) 0.17777(13)
C14 C 0.34261(11) 0.5024(3) 0.12375(13)
C15 C 0.33226(12) 0.6999(3) 0.14530(13)
C16 C 0.28870(12) 0.7231(3) 0.21517(13)
H15 H 0.2423 0.8035 0.1956
H16 H 0.3205 0.7876 0.2655
C17 C 0.38039(11) 0.4267(3) 0.05623(13)
C18 C 0.44892(12) 0.3129(3) 0.07937(14)
C19 C 0.48284(12) 0.2400(4) 0.01525(14)
H17 H 0.5294 0.1702 0.0302
C20 C 0.44857(13) 0.2694(4) -0.07039(14)
H18 H 0.4707 0.2143 -0.1126
C21 C 0.38101(13) 0.3818(3) -0.09284(14)
H19 H 0.3580 0.4014 -0.1505
C22 C 0.34704(11) 0.4659(3) -0.03089(13)
C23 C 0.48818(13) 0.2785(3) 0.17198(14)
H20 H 0.5340 0.1987 0.1753
H21 H 0.4538 0.2072 0.2001
H22 H 0.5018 0.4077 0.1995
C24 C 0.27823(12) 0.6035(3) -0.05836(14)
H23 H 0.2444 0.5869 -0.0200
H24 H 0.2513 0.5687 -0.1155
H25 H 0.2951 0.7429 -0.0570
O1 O 0.35821(8) 0.8605(2) 0.11019(9)
H26 H 0.3433 0.9654 0.1292
O2 O 0.30665(9) 0.1843(2) 0.17896(10)
H27? H 0.0414 0.6832 0.4915
H28? H 0.1286 0.7443 0.5202
C25? C 0.1142(6) 0.4202(17) 0.5156(7)
H29? H 0.1201 0.4107 0.5771
H30? H 0.0729 0.3290 0.4884
C26? C 0.1864(7) 0.3593(17) 0.4929(6)
H31? H 0.2015 0.2242 0.5153
H32? H 0.2272 0.4541 0.5178
H33? H 0.2239 0.3439 0.3794
H34? H 0.1433 0.2408 0.3711
loop_
_geom_bond_atom_site_label_1
_geom_bond_atom_site_label_2
_geom_bond_site_symmetry_1
_geom_bond_site_symmetry_2
C1 C2 1_555 1_555
C2 H1 1_555 1_555
C3 C2 1_555 1_555
H2 C3 1_555 1_555
C4 C3 1_555 1_555
H3 C4 1_555 1_555
C5 C4 1_555 1_555
C6 C5 1_555 1_555
H4 C6 1_555 1_555
H5 C6 1_555 1_555
C7 C6 1_555 1_555
H6 C7 1_555 1_555
H7 C7 1_555 1_555
C8 C7 1_555 1_555
H8 C8 1_555 1_555
H9 C8 1_555 1_555
C9 C8 1_555 1_555
H10 C9 1_555 1_555
H11 C9 1_555 1_555
C10 C1 1_555 1_555
C11 C1 1_555 1_555
H12 C11 1_555 1_555
H13 C11 1_555 1_555
C12 C11 1_555 1_555
H14 C12 1_555 1_555
C13 C12 1_555 1_555
C14 C13 1_555 1_555
C15 C14 1_555 1_555
C16 C12 1_555 1_555
H15 C16 1_555 1_555
H16 C16 1_555 1_555
C17 C14 1_555 1_555
C18 C17 1_555 1_555
C19 C18 1_555 1_555
H17 C19 1_555 1_555
C20 C19 1_555 1_555
H18 C20 1_555 1_555
C21 C20 1_555 1_555
H19 C21 1_555 1_555
C22 C17 1_555 1_555
C23 C18 1_555 1_555
H20 C23 1_555 1_555
H21 C23 1_555 1_555
H22 C23 1_555 1_555
C24 C22 1_555 1_555
H23 C24 1_555 1_555
H24 C24 1_555 1_555
H25 C24 1_555 1_555
O1 C15 1_555 1_555
H26 O1 1_555 1_555
O2 C13 1_555 1_555
C5 C10 1_555 1_555
C9 C10 1_555 1_555
C15 C16 1_555 1_555
C21 C22 1_555 1_555

#END
