
#######################################################################
#
#                 Cambridge Crystallographic Data Centre
#                                CCDC 
#
#######################################################################
#
# If this CIF has been generated from an entry in the Cambridge 
# Structural Database, then it will include bibliographic, chemical, 
# crystal, experimental, refinement or atomic coordinate data resulting 
# from the CCDC's data processing and validation procedures.
#
#######################################################################

data_UYUDAU
_chemical_formula_moiety         'C75 H13 N1 O1'
_chemical_name_systematic        
2-benzyl-6-methyl-1,2-dihydro-C60fullereno(c)isoquinolin-1-one
_symmetry_cell_setting           monoclinic
_symmetry_space_group_name_H-M   'P 21/c'
_symmetry_Int_Tables_number      14
_space_group_name_Hall           '-P 2ybc'
loop_
_symmetry_equiv_pos_site_id
_symmetry_equiv_pos_as_xyz
1 x,y,z
2 -x,1/2+y,1/2-z
3 -x,-y,-z
4 x,1/2-y,1/2+z
_cell_length_a                   18.8594(17)
_cell_length_b                   10.0842(9)
_cell_length_c                   19.9788(18)
_cell_angle_alpha                90
_cell_angle_beta                 93.459(2)
_cell_angle_gamma                90
_cell_volume                     3792.69
_exptl_crystal_colour            black
_exptl_crystal_description       tabular
_cell_formula_units_Z            4
loop_
_atom_site_label
_atom_site_type_symbol
_atom_site_fract_x
_atom_site_fract_y
_atom_site_fract_z
C1 C 0.16054(11) 0.0825(2) 0.25764(11)
C2 C 0.23409(11) 0.01423(19) 0.23991(10)
C3 C 0.27917(11) -0.03558(19) 0.30248(11)
C4 C 0.25525(12) -0.04273(19) 0.36617(11)
C5 C 0.18872(12) 0.0227(2) 0.38147(11)
C6 C 0.15112(11) 0.0924(2) 0.33347(11)
C7 C 0.28827(11) 0.1113(2) 0.21222(10)
C8 C 0.27259(12) 0.2354(2) 0.18809(10)
C9 C 0.20520(12) 0.2990(2) 0.20290(10)
C10 C 0.15746(11) 0.2340(2) 0.24037(11)
C11 C 0.35301(12) -0.00729(19) 0.29549(11)
C12 C 0.40149(11) 0.0029(2) 0.35130(12)
C13 C 0.45670(11) 0.1041(2) 0.35271(12)
C14 C 0.46230(11) 0.1873(2) 0.29781(12)
C15 C 0.41284(12) 0.1759(2) 0.23976(11)
C16 C 0.35846(11) 0.0813(2) 0.23945(11)
C17 C 0.47676(11) 0.3283(2) 0.30866(12)
C18 C 0.43618(12) 0.4017(2) 0.25682(11)
C19 C 0.39671(12) 0.3072(2) 0.21430(11)
C20 C 0.32783(12) 0.3359(2) 0.18987(10)
C21 C 0.40433(12) 0.5222(2) 0.27255(12)
C22 C 0.33317(13) 0.5529(2) 0.24642(11)
C23 C 0.29495(13) 0.4608(2) 0.20607(11)
C24 C 0.22020(13) 0.4393(2) 0.21386(11)
C25 C 0.48417(11) 0.3777(2) 0.37359(12)
C26 C 0.45153(11) 0.5044(2) 0.38939(12)
C27 C 0.41311(12) 0.5747(2) 0.34001(11)
C28 C 0.34640(12) 0.6386(2) 0.35525(12)
C29 C 0.29701(13) 0.6255(2) 0.29747(12)
C30 C 0.46475(11) 0.1548(2) 0.42000(12)
C31 C 0.47786(11) 0.2904(2) 0.43021(12)
C32 C 0.38026(13) 0.1551(2) 0.50912(11)
C33 C 0.39452(12) 0.2956(2) 0.51991(11)
C34 C 0.44194(12) 0.3609(2) 0.48139(11)
C35 C 0.37631(12) -0.0080(2) 0.41719(11)
C36 C 0.41532(12) 0.0864(2) 0.46074(11)
C37 C 0.30420(12) -0.0286(2) 0.42428(11)
C38 C 0.19739(12) 0.0746(2) 0.44886(11)
C39 C 0.16624(12) 0.1954(2) 0.46518(11)
C40 C 0.12644(11) 0.2683(2) 0.41433(12)
C41 C 0.12092(11) 0.2183(2) 0.34934(11)
C42 C 0.13986(12) 0.4090(2) 0.42521(12)
C43 C 0.14534(12) 0.4926(2) 0.37077(12)
C44 C 0.13763(11) 0.4413(2) 0.30312(12)
C45 C 0.12525(11) 0.3049(2) 0.29272(11)
C46 C 0.30567(13) 0.1334(2) 0.51709(11)
C47 C 0.27300(13) 0.2589(2) 0.53326(11)
C48 C 0.32853(13) 0.3593(2) 0.53514(11)
C49 C 0.31243(12) 0.4859(2) 0.51118(11)
C50 C 0.24168(13) 0.5177(2) 0.48488(11)
C51 C 0.18847(13) 0.4212(2) 0.48349(11)
C52 C 0.20511(12) 0.2888(2) 0.50840(11)
C53 C 0.42535(12) 0.4937(2) 0.45597(11)
C54 C 0.36248(12) 0.5545(2) 0.47076(11)
C55 C 0.32167(12) 0.6283(2) 0.41936(11)
C56 C 0.24714(12) 0.6061(2) 0.42805(12)
C57 C 0.19994(12) 0.5943(2) 0.37217(12)
C58 C 0.22572(13) 0.6043(2) 0.30532(12)
C59 C 0.26818(12) 0.0439(2) 0.47488(11)
C60 C 0.18622(12) 0.5090(2) 0.26269(12)
C61 C 0.09286(12) -0.0736(2) 0.17516(11)
C62 C 0.16097(12) -0.1242(2) 0.15219(11)
C63 C 0.15730(12) -0.2143(2) 0.09857(11)
H1 H 0.1128 -0.2325 0.0756
C64 C 0.21733(12) -0.2764(2) 0.07902(11)
H2 H 0.2141 -0.3368 0.0425
C65 C 0.28314(12) -0.25166(19) 0.11229(10)
C66 C 0.28615(12) -0.1611(2) 0.16515(11)
H3 H 0.3307 -0.1433 0.1881
C67 C 0.22564(12) -0.0954(2) 0.18544(10)
C68 C 0.35017(12) -0.3161(2) 0.09187(11)
H4 H 0.3898 -0.2901 0.1231
H5 H 0.3599 -0.2877 0.0464
H6 H 0.3446 -0.4127 0.0927
C69 C 0.02746(11) 0.0455(2) 0.25493(11)
H7 H -0.0108 0.0306 0.2196
H8 H 0.0270 0.1408 0.2668
C70 C 0.01117(11) -0.0345(2) 0.31604(12)
C71 C -0.03131(14) 0.0206(2) 0.36261(13)
H9 H -0.0485 0.1085 0.3562
C72 C -0.04920(16) -0.0502(3) 0.41859(15)
H10 H -0.0784 -0.0106 0.4501
C73 C -0.02442(15) -0.1792(3) 0.42870(14)
H11 H -0.0365 -0.2281 0.4670
C74 C 0.01809(13) -0.2353(2) 0.38213(13)
H12 H 0.0352 -0.3232 0.3885
C75 C 0.03579(12) -0.1635(2) 0.32616(12)
H13 H 0.0650 -0.2028 0.2945
N1 N 0.09589(9) 0.01395(17) 0.22744(9)
O1 O 0.03603(9) -0.11584(17) 0.15113(9)
loop_
_geom_bond_atom_site_label_1
_geom_bond_atom_site_label_2
_geom_bond_site_symmetry_1
_geom_bond_site_symmetry_2
C1 C2 1_555 1_555
C2 C3 1_555 1_555
C3 C4 1_555 1_555
C4 C5 1_555 1_555
C5 C6 1_555 1_555
C6 C1 1_555 1_555
C7 C2 1_555 1_555
C8 C7 1_555 1_555
C9 C8 1_555 1_555
C10 C1 1_555 1_555
C11 C3 1_555 1_555
C12 C11 1_555 1_555
C13 C12 1_555 1_555
C14 C13 1_555 1_555
C15 C14 1_555 1_555
C16 C7 1_555 1_555
C17 C14 1_555 1_555
C18 C17 1_555 1_555
C19 C15 1_555 1_555
C20 C8 1_555 1_555
C21 C18 1_555 1_555
C22 C21 1_555 1_555
C23 C20 1_555 1_555
C24 C9 1_555 1_555
C25 C17 1_555 1_555
C26 C25 1_555 1_555
C27 C21 1_555 1_555
C28 C27 1_555 1_555
C29 C22 1_555 1_555
C30 C13 1_555 1_555
C31 C25 1_555 1_555
C32 C33 1_555 1_555
C33 C34 1_555 1_555
C34 C31 1_555 1_555
C35 C12 1_555 1_555
C36 C30 1_555 1_555
C37 C4 1_555 1_555
C38 C5 1_555 1_555
C39 C38 1_555 1_555
C40 C39 1_555 1_555
C41 C6 1_555 1_555
C42 C40 1_555 1_555
C43 C42 1_555 1_555
C44 C43 1_555 1_555
C45 C10 1_555 1_555
C46 C32 1_555 1_555
C47 C46 1_555 1_555
C48 C33 1_555 1_555
C49 C48 1_555 1_555
C50 C49 1_555 1_555
C51 C42 1_555 1_555
C52 C39 1_555 1_555
C53 C26 1_555 1_555
C54 C49 1_555 1_555
C55 C28 1_555 1_555
C56 C50 1_555 1_555
C57 C43 1_555 1_555
C58 C29 1_555 1_555
C59 C37 1_555 1_555
C60 C24 1_555 1_555
C61 C62 1_555 1_555
C62 C63 1_555 1_555
C63 H1 1_555 1_555
C64 C63 1_555 1_555
H2 C64 1_555 1_555
C65 C64 1_555 1_555
C66 C65 1_555 1_555
H3 C66 1_555 1_555
C67 C2 1_555 1_555
C68 C65 1_555 1_555
H4 C68 1_555 1_555
H5 C68 1_555 1_555
H6 C68 1_555 1_555
C69 H7 1_555 1_555
H8 C69 1_555 1_555
C70 C69 1_555 1_555
C71 C70 1_555 1_555
H9 C71 1_555 1_555
C72 C71 1_555 1_555
H10 C72 1_555 1_555
C73 C72 1_555 1_555
H11 C73 1_555 1_555
C74 C73 1_555 1_555
H12 C74 1_555 1_555
C75 C70 1_555 1_555
H13 C75 1_555 1_555
N1 C1 1_555 1_555
O1 C61 1_555 1_555
C9 C10 1_555 1_555
C11 C16 1_555 1_555
C15 C16 1_555 1_555
C18 C19 1_555 1_555
C19 C20 1_555 1_555
C22 C23 1_555 1_555
C23 C24 1_555 1_555
C26 C27 1_555 1_555
C28 C29 1_555 1_555
C30 C31 1_555 1_555
C32 C36 1_555 1_555
C34 C53 1_555 1_555
C35 C36 1_555 1_555
C35 C37 1_555 1_555
C38 C59 1_555 1_555
C40 C41 1_555 1_555
C41 C45 1_555 1_555
C44 C45 1_555 1_555
C44 C60 1_555 1_555
C46 C59 1_555 1_555
C47 C48 1_555 1_555
C47 C52 1_555 1_555
C50 C51 1_555 1_555
C51 C52 1_555 1_555
C53 C54 1_555 1_555
C54 C55 1_555 1_555
C55 C56 1_555 1_555
C56 C57 1_555 1_555
C57 C58 1_555 1_555
C58 C60 1_555 1_555
C61 N1 1_555 1_555
C62 C67 1_555 1_555
C66 C67 1_555 1_555
C69 N1 1_555 1_555
C74 C75 1_555 1_555

#END
