
#######################################################################
#
#                 Cambridge Crystallographic Data Centre
#                                CCDC 
#
#######################################################################
#
# If this CIF has been generated from an entry in the Cambridge 
# Structural Database, then it will include bibliographic, chemical, 
# crystal, experimental, refinement or atomic coordinate data resulting 
# from the CCDC's data processing and validation procedures.
#
#######################################################################

data_UZABIH
_chemical_formula_moiety         'C33 H35 N1 O6 Si1,C6 H6'
_chemical_name_systematic        
'Methyl (6-(((t-butyl(diphenyl)silyl)oxy)methyl)-5-(1,3-dioxo-1,3-dihydro-2H-isoindol-2-yl)-5,6-dihydro-2H-pyran-2-yl)acetate benzene solvate'
_symmetry_cell_setting           monoclinic
_symmetry_space_group_name_H-M   'C 2'
_symmetry_Int_Tables_number      5
_space_group_name_Hall           'C 2y'
loop_
_symmetry_equiv_pos_site_id
_symmetry_equiv_pos_as_xyz
1 x,y,z
2 -x,y,-z
3 1/2+x,1/2+y,z
4 1/2-x,1/2+y,-z
_cell_length_a                   17.4200(3)
_cell_length_b                   11.1931(2)
_cell_length_c                   19.4979(5)
_cell_angle_alpha                90
_cell_angle_beta                 113.1130(10)
_cell_angle_gamma                90
_cell_volume                     3496.62
_exptl_crystal_colour            colorless
_exptl_crystal_description       plate
_cell_formula_units_Z            4
loop_
_atom_site_label
_atom_site_type_symbol
_atom_site_fract_x
_atom_site_fract_y
_atom_site_fract_z
Si1 Si 0.36332(2) 0.12470(4) 0.79462(2)
O1 O 0.22160(6) 0.27025(10) 0.60217(5)
O2 O 0.05373(7) 0.34221(11) 0.63854(7)
O3 O 0.12228(8) 0.51541(12) 0.67778(7)
O4 O 0.30066(6) 0.09868(10) 0.70654(5)
O5 O 0.31698(7) 0.47280(11) 0.55194(7)
O6 O 0.45323(6) 0.11809(11) 0.56268(6)
N1 N 0.36438(7) 0.27924(12) 0.54666(6)
C1 C 0.32691(8) 0.11909(15) 0.64666(8)
H1 H 0.3457 0.0428 0.6327
H2 H 0.3747 0.1752 0.6632
C2 C 0.25635(9) 0.17051(15) 0.57937(8)
H3 H 0.2121 0.1082 0.5586
C3 C 0.28636(9) 0.20781(15) 0.51829(8)
H4 H 0.2980 0.1331 0.4959
C4 C 0.21667(9) 0.27320(17) 0.45736(8)
H5 H 0.2191 0.2830 0.4099
C5 C 0.15246(10) 0.31685(17) 0.46925(9)
H6 H 0.1086 0.3539 0.4289
C6 C 0.14571(9) 0.31045(15) 0.54370(9)
H7 H 0.0998 0.2539 0.5398
C7 C 0.12744(10) 0.43065(16) 0.56954(10)
H8 H 0.1787 0.4799 0.5862
H9 H 0.0843 0.4720 0.5268
C8 C 0.09754(9) 0.42173(16) 0.63242(9)
C9 C 0.08560(15) 0.5251(2) 0.73229(12)
H10 H 0.0249 0.5157 0.7076
H11 H 0.0986 0.6036 0.7563
H12 H 0.1084 0.4625 0.7700
C10 C 0.37234(9) 0.40351(15) 0.55967(8)
C11 C 0.46373(9) 0.42893(15) 0.58537(8)
C12 C 0.50578(10) 0.53687(15) 0.60422(8)
H13 H 0.4770 0.6103 0.6005
C13 C 0.59316(10) 0.53225(16) 0.62915(9)
H14 H 0.6244 0.6043 0.6422
C14 C 0.63481(9) 0.42415(16) 0.63514(9)
H15 H 0.6940 0.4240 0.6528
C15 C 0.59180(9) 0.31612(15) 0.61592(9)
H16 H 0.6201 0.2423 0.6199
C16 C 0.50538(9) 0.32196(15) 0.59065(8)
C17 C 0.44244(9) 0.22446(15) 0.56588(8)
C18 C 0.29387(9) 0.14708(15) 0.84746(8)
C19 C 0.23268(10) 0.25049(18) 0.81229(10)
H17 H 0.2017 0.2347 0.7590
H18 H 0.2639 0.3253 0.8186
H19 H 0.1935 0.2572 0.8369
C20 C 0.24433(11) 0.03207(18) 0.84460(10)
H20 H 0.2096 0.0435 0.8733
H21 H 0.2832 -0.0341 0.8660
H22 H 0.2086 0.0136 0.7927
C21 C 0.34670(11) 0.17784(19) 0.92936(9)
H23 H 0.3818 0.2474 0.9316
H24 H 0.3822 0.1096 0.9536
H25 H 0.3098 0.1962 0.9551
C22 C 0.43374(9) -0.00876(15) 0.82877(8)
C23 C 0.42790(11) -0.10338(16) 0.78016(10)
H26 H 0.3871 -0.1001 0.7306
C24 C 0.48045(13) -0.20242(17) 0.80257(11)
H27 H 0.4765 -0.2642 0.7679
C25 C 0.53868(11) -0.21064(18) 0.87565(11)
H28 H 0.5737 -0.2789 0.8915
C26 C 0.54533(10) -0.11886(17) 0.92523(10)
H29 H 0.5849 -0.1242 0.9753
C27 C 0.49418(10) -0.01869(17) 0.90189(9)
H30 H 0.5003 0.0444 0.9362
C28 C 0.42623(9) 0.26255(15) 0.79815(8)
C29 C 0.38756(10) 0.36226(15) 0.75504(9)
H31 H 0.3292 0.3600 0.7260
C30 C 0.43218(11) 0.46412(16) 0.75362(10)
H32 H 0.4045 0.5304 0.7237
C31 C 0.51746(11) 0.46897(16) 0.79611(11)
H33 H 0.5484 0.5384 0.7951
C32 C 0.55692(10) 0.37271(17) 0.83964(11)
H34 H 0.6151 0.3766 0.8694
C33 C 0.51240(10) 0.26961(17) 0.84053(10)
H35 H 0.5407 0.2034 0.8702
C34 C 0.37452(14) 0.5142(2) 0.96776(13)
H36 H 0.4158 0.4596 0.9978
C35 C 0.39495(14) 0.6012(2) 0.92781(15)
H37 H 0.4496 0.6039 0.9281
C36 C 0.29365(15) 0.5067(2) 0.96395(12)
H38 H 0.2788 0.4456 0.9903
C37 C 0.23562(15) 0.5870(2) 0.92244(14)
H39 H 0.1802 0.5821 0.9200
C38 C 0.25652(16) 0.6758(3) 0.88374(18)
H40 H 0.2155 0.7314 0.8545
C39 C 0.33676(16) 0.6833(2) 0.88780(17)
H41 H 0.3519 0.7460 0.8627
loop_
_geom_bond_atom_site_label_1
_geom_bond_atom_site_label_2
_geom_bond_site_symmetry_1
_geom_bond_site_symmetry_2
Si1 O4 1_555 1_555
O1 C2 1_555 1_555
O2 C8 1_555 1_555
O3 C8 1_555 1_555
O4 C1 1_555 1_555
O5 C10 1_555 1_555
O6 C17 1_555 1_555
N1 C3 1_555 1_555
C1 H1 1_555 1_555
H2 C1 1_555 1_555
C2 C1 1_555 1_555
H3 C2 1_555 1_555
C3 C2 1_555 1_555
H4 C3 1_555 1_555
C4 C3 1_555 1_555
H5 C4 1_555 1_555
C5 C4 1_555 1_555
H6 C5 1_555 1_555
C6 O1 1_555 1_555
H7 C6 1_555 1_555
C7 C6 1_555 1_555
H8 C7 1_555 1_555
H9 C7 1_555 1_555
C8 C7 1_555 1_555
C9 O3 1_555 1_555
H10 C9 1_555 1_555
H11 C9 1_555 1_555
H12 C9 1_555 1_555
C10 N1 1_555 1_555
C11 C10 1_555 1_555
C12 C11 1_555 1_555
H13 C12 1_555 1_555
C13 C12 1_555 1_555
H14 C13 1_555 1_555
C14 C13 1_555 1_555
H15 C14 1_555 1_555
C15 C14 1_555 1_555
H16 C15 1_555 1_555
C16 C11 1_555 1_555
C17 N1 1_555 1_555
C18 Si1 1_555 1_555
C19 C18 1_555 1_555
H17 C19 1_555 1_555
H18 C19 1_555 1_555
H19 C19 1_555 1_555
C20 C18 1_555 1_555
H20 C20 1_555 1_555
H21 C20 1_555 1_555
H22 C20 1_555 1_555
C21 C18 1_555 1_555
H23 C21 1_555 1_555
H24 C21 1_555 1_555
H25 C21 1_555 1_555
C22 Si1 1_555 1_555
C23 C22 1_555 1_555
H26 C23 1_555 1_555
C24 C23 1_555 1_555
H27 C24 1_555 1_555
C25 C24 1_555 1_555
H28 C25 1_555 1_555
C26 C25 1_555 1_555
H29 C26 1_555 1_555
C27 C22 1_555 1_555
H30 C27 1_555 1_555
C28 Si1 1_555 1_555
C29 C28 1_555 1_555
H31 C29 1_555 1_555
C30 C29 1_555 1_555
H32 C30 1_555 1_555
C31 C30 1_555 1_555
H33 C31 1_555 1_555
C32 C31 1_555 1_555
H34 C32 1_555 1_555
C33 C28 1_555 1_555
H35 C33 1_555 1_555
C34 H36 1_555 1_555
C35 C34 1_555 1_555
H37 C35 1_555 1_555
C36 C34 1_555 1_555
H38 C36 1_555 1_555
C37 C36 1_555 1_555
H39 C37 1_555 1_555
C38 C37 1_555 1_555
H40 C38 1_555 1_555
C39 C35 1_555 1_555
H41 C39 1_555 1_555
C5 C6 1_555 1_555
C15 C16 1_555 1_555
C16 C17 1_555 1_555
C26 C27 1_555 1_555
C32 C33 1_555 1_555
C38 C39 1_555 1_555

#END
