
#######################################################################
#
#                 Cambridge Crystallographic Data Centre
#                                CCDC 
#
#######################################################################
#
# If this CIF has been generated from an entry in the Cambridge 
# Structural Database, then it will include bibliographic, chemical, 
# crystal, experimental, refinement or atomic coordinate data resulting 
# from the CCDC's data processing and validation procedures.
#
#######################################################################

data_UZEMAP
_chemical_formula_moiety         'C22 H24 Se2'
_chemical_name_systematic        
2,7-di-t-butyl[1]benzoselenopheno[3,2-b][1]benzoselenophene
_symmetry_cell_setting           monoclinic
_symmetry_space_group_name_H-M   'P 21/c'
_symmetry_Int_Tables_number      14
_space_group_name_Hall           '-P 2ybc'
loop_
_symmetry_equiv_pos_site_id
_symmetry_equiv_pos_as_xyz
1 x,y,z
2 -x,1/2+y,1/2-z
3 -x,-y,-z
4 x,1/2-y,1/2+z
_cell_length_a                   15.0173(8)
_cell_length_b                   6.2596(4)
_cell_length_c                   10.1581(6)
_cell_angle_alpha                90
_cell_angle_beta                 94.473(3)
_cell_angle_gamma                90
_cell_volume                     951.976
_exptl_crystal_colour            colorless
_exptl_crystal_description       platelet
_cell_formula_units_Z            2
loop_
_atom_site_label
_atom_site_type_symbol
_atom_site_fract_x
_atom_site_fract_y
_atom_site_fract_z
Se1 Se 0.59779(3) 0.26578(6) 0.98889(4)
C1 C 0.3121(3) 0.2635(5) 0.7075(5)
H1 H 0.2972 0.3725 0.6476
C2 C 0.3948(3) 0.2688(5) 0.7807(4)
H2 H 0.4344 0.3797 0.7680
C3 C 0.4971(2) 0.0872(5) 0.9606(3)
C4 C 0.7243(2) 0.0657(5) 1.1897(3)
H3 H 0.7632 0.1793 1.1798
C5 C 0.4181(2) 0.1099(5) 0.8721(3)
C6 C 0.6415(2) 0.0605(5) 1.1157(3)
C7 C 0.2513(2) 0.0977(6) 0.7224(3)
C8 C 0.1611(2) 0.0956(6) 0.6399(4)
C9 C 0.0905(3) -0.0238(8) 0.7107(4)
H4 H 0.0817 0.0464 0.7927
H5 H 0.0353 -0.0251 0.6563
H6 H 0.1099 -0.1679 0.7279
C10 C 0.1269(3) 0.3205(9) 0.6097(6)
H7 H 0.1183 0.3935 0.6908
H8 H 0.1698 0.3969 0.5624
H9 H 0.0712 0.3130 0.5567
C11 C 0.1743(3) -0.0166(9) 0.5109(4)
H10 H 0.1958 -0.1589 0.5286
H11 H 0.1184 -0.0229 0.4583
H12 H 0.2170 0.0609 0.4640
Se1B Se 0.40221(3) -0.26578(6) 1.01111(4)
C1B C 0.6879(3) -0.2635(5) 1.2925(5)
H1B H 0.7028 -0.3725 1.3524
C2B C 0.6052(3) -0.2688(5) 1.2193(4)
H2B H 0.5656 -0.3797 1.2320
C3B C 0.5029(2) -0.0872(5) 1.0394(3)
C4B C 0.2757(2) -0.0657(5) 0.8103(3)
H3B H 0.2368 -0.1793 0.8202
C5B C 0.5819(2) -0.1099(5) 1.1279(3)
C6B C 0.3585(2) -0.0605(5) 0.8843(3)
C7B C 0.7487(2) -0.0977(6) 1.2776(3)
C8B C 0.8389(2) -0.0956(6) 1.3601(4)
C9B C 0.9095(3) 0.0238(8) 1.2893(4)
H4B H 0.9183 -0.0464 1.2073
H5B H 0.9647 0.0251 1.3437
H6B H 0.8901 0.1679 1.2721
C10B C 0.8731(3) -0.3205(9) 1.3903(6)
H7B H 0.8817 -0.3935 1.3092
H8B H 0.8302 -0.3969 1.4376
H9B H 0.9288 -0.3130 1.4433
C11B C 0.8257(3) 0.0166(9) 1.4891(4)
H10B H 0.8042 0.1589 1.4714
H11B H 0.8816 0.0229 1.5417
H12B H 0.7830 -0.0609 1.5360
loop_
_geom_bond_atom_site_label_1
_geom_bond_atom_site_label_2
_geom_bond_site_symmetry_1
_geom_bond_site_symmetry_2
Se1 C3 1_555 1_555
C1 H1 1_555 1_555
C2 C1 1_555 1_555
H2 C2 1_555 1_555
C3 C5 1_555 1_555
C4 H3 1_555 1_555
C5 C2 1_555 1_555
C6 Se1 1_555 1_555
C7 C1 1_555 1_555
C8 C7 1_555 1_555
C9 C8 1_555 1_555
H4 C9 1_555 1_555
H5 C9 1_555 1_555
H6 C9 1_555 1_555
C10 C8 1_555 1_555
H7 C10 1_555 1_555
H8 C10 1_555 1_555
H9 C10 1_555 1_555
C11 C8 1_555 1_555
H10 C11 1_555 1_555
H11 C11 1_555 1_555
H12 C11 1_555 1_555
Se1B C3B 1_555 1_555
C1B H1B 1_555 1_555
C2B C1B 1_555 1_555
H2B C2B 1_555 1_555
C3B C3 1_555 1_555
C4B C7 1_555 1_555
H3B C4B 1_555 1_555
C5B C6 1_555 1_555
C6B C5 1_555 1_555
C7B C4 1_555 1_555
C8B C7B 1_555 1_555
C9B C8B 1_555 1_555
H4B C9B 1_555 1_555
H5B C9B 1_555 1_555
H6B C9B 1_555 1_555
C10B C8B 1_555 1_555
H7B C10B 1_555 1_555
H8B C10B 1_555 1_555
H9B C10B 1_555 1_555
C11B C8B 1_555 1_555
H10B C11B 1_555 1_555
H11B C11B 1_555 1_555
H12B C11B 1_555 1_555
C4 C6 1_555 1_555
Se1B C6B 1_555 1_555
C1B C7B 1_555 1_555
C2B C5B 1_555 1_555
C3B C5B 1_555 1_555
C4B C6B 1_555 1_555

#END
