
#######################################################################
#
#                 Cambridge Crystallographic Data Centre
#                                CCDC 
#
#######################################################################
#
# If this CIF has been generated from an entry in the Cambridge 
# Structural Database, then it will include bibliographic, chemical, 
# crystal, experimental, refinement or atomic coordinate data resulting 
# from the CCDC's data processing and validation procedures.
#
#######################################################################

data_UZUJUV
_chemical_compound_source        'whole plants of Ajuga ciliata Bunge'
_chemical_name_common            'Ajugaciliatin A'
_chemical_formula_moiety         'C34 H51 Cl1 O11'
_chemical_name_systematic        
'2-(4-Acetoxy-4a-(acetoxymethyl)-5-(chloromethyl)-5-hydroxy-1,2-dimethyl-8-((2-methylbutanoyl)oxy)decahydronaphthalen-1-yl)-1-(5-oxo-2,5-dihydrofuran-3-yl)ethyl 2-methylbutanoate'
_chemical_properties_biological  'no neuroprotective activity or cytotoxicity'
_symmetry_cell_setting           orthorhombic
_symmetry_space_group_name_H-M   'P 21 21 21'
_symmetry_Int_Tables_number      19
_space_group_name_Hall           'P 2ac 2ab'
loop_
_symmetry_equiv_pos_site_id
_symmetry_equiv_pos_as_xyz
1 x,y,z
2 1/2+x,1/2-y,-z
3 -x,1/2+y,1/2-z
4 1/2-x,-y,1/2+z
_cell_length_a                   8.7420(10)
_cell_length_b                   19.5690(18)
_cell_length_c                   20.181(2)
_cell_angle_alpha                90
_cell_angle_beta                 90
_cell_angle_gamma                90
_cell_volume                     3452.41
_exptl_crystal_colour            colorless
_exptl_crystal_description       prism
_chemical_melting_point          '167-169 deg.C'
_cell_formula_units_Z            4
loop_
_atom_site_label
_atom_site_type_symbol
_atom_site_fract_x
_atom_site_fract_y
_atom_site_fract_z
Cl1 Cl 0.29459(11) 0.70130(4) 0.30244(4)
O1 O 0.1580(2) 0.40376(10) 0.35517(10)
O2 O -0.0742(4) 0.37431(14) 0.31695(18)
O3 O 0.0013(3) 0.67673(10) 0.39099(12)
H1 H 0.0145 0.6958 0.4278
O4 O -0.1331(2) 0.60702(9) 0.50833(11)
O5 O -0.2806(3) 0.52703(12) 0.55570(12)
O6 O 0.1274(2) 0.67006(9) 0.52290(11)
O7 O 0.3636(2) 0.71076(11) 0.53946(13)
O8 O 0.5138(3) 0.43612(10) 0.37850(10)
O9 O 0.5913(3) 0.54501(12) 0.39437(13)
C1 C 0.1002(4) 0.47122(14) 0.37055(15)
H2 H -0.0112 0.4680 0.3814
C2 C 0.1206(4) 0.51579(15) 0.31032(15)
H3 H 0.0719 0.4938 0.2715
H4 H 0.2310 0.5212 0.3007
C3 C 0.0485(4) 0.58618(16) 0.32197(15)
H5 H 0.0706 0.6157 0.2833
H6 H -0.0639 0.5809 0.3250
C4 C 0.1058(3) 0.62154(14) 0.38435(15)
C5 C 0.1014(3) 0.57208(13) 0.44743(14)
C6 C 0.1887(3) 0.60246(13) 0.50557(15)
H7 H 0.2974 0.6088 0.4914
C7 C 0.1886(4) 0.55678(15) 0.56553(15)
H8 H 0.0823 0.5439 0.5769
H9 H 0.2332 0.5814 0.6038
C8 C 0.2816(4) 0.49295(15) 0.55118(14)
H10 H 0.3869 0.5089 0.5394
C9 C 0.2211(4) 0.45189(13) 0.48953(14)
C10 C 0.1868(3) 0.50243(13) 0.43046(13)
H11 H 0.2892 0.5162 0.4129
C11 C 0.3485(3) 0.39920(14) 0.47026(15)
H12 H 0.3626 0.3681 0.5085
H13 H 0.3084 0.3712 0.4332
C12 C 0.5055(3) 0.42482(14) 0.45005(14)
H14 H 0.5293 0.4663 0.4733
C13 C 0.0576(4) 0.35871(17) 0.32985(19)
C14 C 0.1360(8) 0.2898(3) 0.3234(3)
H15 H 0.1661 0.2761 0.3693
C15 C 0.2831(6) 0.2927(2) 0.2837(2)
H16 H 0.3572 0.3224 0.3071
H17 H 0.3277 0.2463 0.2813
C16 C 0.2599(11) 0.3195(4) 0.2144(3)
H18 H 0.1624 0.3026 0.1970
H19 H 0.3437 0.3038 0.1860
H20 H 0.2586 0.3696 0.2153
C17 C 0.0248(7) 0.2356(3) 0.2995(4)
H21 H -0.0580 0.2304 0.3319
H22 H 0.0786 0.1920 0.2945
H23 H -0.0183 0.2493 0.2567
C18 C 0.2683(4) 0.65047(14) 0.37585(14)
H24 H 0.3416 0.6119 0.3748
H25 H 0.2931 0.6788 0.4150
C19 C -0.0697(3) 0.55722(14) 0.46343(17)
H26 H -0.1294 0.5574 0.4217
H27 H -0.0786 0.5112 0.4834
C20 C -0.2394(3) 0.58532(15) 0.55172(15)
C21 C -0.2939(4) 0.64132(17) 0.59496(18)
H28 H -0.3828 0.6634 0.5745
H29 H -0.2121 0.6750 0.6007
H30 H -0.3230 0.6227 0.6382
C22 C 0.2269(3) 0.71736(14) 0.54403(14)
C23 C 0.1463(4) 0.77826(15) 0.57160(16)
H31 H 0.2212 0.8140 0.5818
H32 H 0.0920 0.7653 0.6122
H33 H 0.0728 0.7955 0.5390
C24 C 0.2979(6) 0.45103(19) 0.61457(16)
H34 H 0.3497 0.4784 0.6484
H35 H 0.3581 0.4099 0.6054
H36 H 0.1962 0.4379 0.6306
C25 C 0.0820(4) 0.40815(16) 0.50996(18)
H37 H 0.1171 0.3682 0.5350
H38 H 0.0274 0.3930 0.4702
H39 H 0.0132 0.4355 0.5377
C26 C 0.5760(4) 0.49629(17) 0.35841(16)
C27 C 0.6199(5) 0.49636(19) 0.28652(17)
H40 H 0.7328 0.4884 0.2852
C28 C 0.5934(5) 0.5672(2) 0.25548(19)
H41 H 0.4821 0.5741 0.2492
H42 H 0.6298 0.6026 0.2868
C29 C 0.6721(7) 0.5771(3) 0.1905(2)
H43 H 0.7831 0.5752 0.1970
H44 H 0.6439 0.6217 0.1720
H45 H 0.6408 0.5409 0.1598
C30 C 0.5490(6) 0.4398(2) 0.24673(18)
H46 H 0.5780 0.3956 0.2659
H47 H 0.5855 0.4423 0.2009
H48 H 0.4374 0.4445 0.2475
C31 C 0.622(3) 0.3709(10) 0.4657(6)
C32 C 0.6487(10) 0.3099(4) 0.4224(4)
H49 H 0.5529 0.2838 0.4159
H50 H 0.6889 0.3239 0.3786
O10 O 0.7587(8) 0.2702(3) 0.4577(4)
C33 C 0.791(2) 0.2980(8) 0.5162(6)
C34 C 0.7018(12) 0.3636(5) 0.5216(6)
H51 H 0.7021 0.3942 0.5582
O11 O 0.8675(6) 0.2763(3) 0.5623(3)
C35? C 0.114(2) 0.2863(5) 0.3221(7)
C36? C 0.109(2) 0.2724(8) 0.2477(6)
C37? C 0.164(3) 0.3320(9) 0.2068(8)
C38? C 0.0085(19) 0.2347(8) 0.3576(8)
C39? C 0.625(4) 0.3724(15) 0.4668(8)
C40? C 0.6667(18) 0.3547(9) 0.5368(7)
C41? C 0.8093(12) 0.2893(5) 0.4687(6)
C42? C 0.7106(12) 0.3342(5) 0.4258(5)
H52? H 0.5278 0.4667 0.4729
H53? H 0.2217 0.2821 0.3389
H54? H 0.1724 0.2319 0.2377
H55? H 0.0020 0.2616 0.2350
H56? H 0.2296 0.3613 0.2341
H57? H 0.0763 0.3583 0.1909
H58? H 0.2229 0.3150 0.1689
H59? H -0.0979 0.2499 0.3536
H60? H 0.0366 0.2320 0.4045
H61? H 0.0196 0.1896 0.3371
H62? H 0.7066 0.3955 0.5602
H63? H 0.5760 0.3376 0.5610
H64? H 0.7091 0.3354 0.3787
O12? O 0.7809(18) 0.3032(9) 0.5330(6)
O13? O 0.9062(7) 0.2493(3) 0.4490(4)
loop_
_geom_bond_atom_site_label_1
_geom_bond_atom_site_label_2
_geom_bond_site_symmetry_1
_geom_bond_site_symmetry_2
Cl1 C18 1_555 1_555
O1 C1 1_555 1_555
O2 C13 1_555 1_555
O3 H1 1_555 1_555
O4 C19 1_555 1_555
O5 C20 1_555 1_555
O6 C6 1_555 1_555
O7 C22 1_555 1_555
O8 C12 1_555 1_555
O9 C26 1_555 1_555
C1 H2 1_555 1_555
C2 C1 1_555 1_555
H3 C2 1_555 1_555
H4 C2 1_555 1_555
C3 C2 1_555 1_555
H5 C3 1_555 1_555
H6 C3 1_555 1_555
C4 O3 1_555 1_555
C5 C4 1_555 1_555
C6 C5 1_555 1_555
H7 C6 1_555 1_555
C7 C6 1_555 1_555
H8 C7 1_555 1_555
H9 C7 1_555 1_555
C8 C7 1_555 1_555
H10 C8 1_555 1_555
C9 C8 1_555 1_555
C10 C1 1_555 1_555
H11 C10 1_555 1_555
C11 C9 1_555 1_555
H12 C11 1_555 1_555
H13 C11 1_555 1_555
C12 C11 1_555 1_555
H14 C12 1_555 1_555
C13 O1 1_555 1_555
C14 C13 1_555 1_555
H15 C14 1_555 1_555
C15 C14 1_555 1_555
H16 C15 1_555 1_555
H17 C15 1_555 1_555
C16 C15 1_555 1_555
H18 C16 1_555 1_555
H19 C16 1_555 1_555
H20 C16 1_555 1_555
C17 C14 1_555 1_555
H21 C17 1_555 1_555
H22 C17 1_555 1_555
H23 C17 1_555 1_555
C18 C4 1_555 1_555
H24 C18 1_555 1_555
H25 C18 1_555 1_555
C19 C5 1_555 1_555
H26 C19 1_555 1_555
H27 C19 1_555 1_555
C20 O4 1_555 1_555
C21 C20 1_555 1_555
H28 C21 1_555 1_555
H29 C21 1_555 1_555
H30 C21 1_555 1_555
C22 O6 1_555 1_555
C23 C22 1_555 1_555
H31 C23 1_555 1_555
H32 C23 1_555 1_555
H33 C23 1_555 1_555
C24 C8 1_555 1_555
H34 C24 1_555 1_555
H35 C24 1_555 1_555
H36 C24 1_555 1_555
C25 C9 1_555 1_555
H37 C25 1_555 1_555
H38 C25 1_555 1_555
H39 C25 1_555 1_555
C26 O8 1_555 1_555
C27 C26 1_555 1_555
H40 C27 1_555 1_555
C28 C27 1_555 1_555
H41 C28 1_555 1_555
H42 C28 1_555 1_555
C29 C28 1_555 1_555
H43 C29 1_555 1_555
H44 C29 1_555 1_555
H45 C29 1_555 1_555
C30 C27 1_555 1_555
H46 C30 1_555 1_555
H47 C30 1_555 1_555
H48 C30 1_555 1_555
C31 C12 1_555 1_555
C32 C31 1_555 1_555
H49 C32 1_555 1_555
H50 C32 1_555 1_555
O10 C32 1_555 1_555
C33 O10 1_555 1_555
C34 C31 1_555 1_555
H51 C34 1_555 1_555
O11 C33 1_555 1_555
C3 C4 1_555 1_555
C5 C10 1_555 1_555
C9 C10 1_555 1_555
C33 C34 1_555 1_555

#END
