
#######################################################################
#
#                 Cambridge Crystallographic Data Centre
#                                CCDC 
#
#######################################################################
#
# If this CIF has been generated from an entry in the Cambridge 
# Structural Database, then it will include bibliographic, chemical, 
# crystal, experimental, refinement or atomic coordinate data resulting 
# from the CCDC's data processing and validation procedures.
#
#######################################################################

data_VABHOX
_chemical_formula_moiety         'C16 H16 N2 O1'
_chemical_name_systematic        
(Z)-1-Phenyl-3-(3-pyridylmethylamino)but-2-en-1-one
_symmetry_cell_setting           monoclinic
_symmetry_space_group_name_H-M   'P 21/c'
_symmetry_Int_Tables_number      14
_space_group_name_Hall           '-P 2ybc'
loop_
_symmetry_equiv_pos_site_id
_symmetry_equiv_pos_as_xyz
1 x,y,z
2 -x,1/2+y,1/2-z
3 -x,-y,-z
4 x,1/2-y,1/2+z
_cell_length_a                   10.256(2)
_cell_length_b                   10.5851(13)
_cell_length_c                   12.7122(14)
_cell_angle_alpha                90
_cell_angle_beta                 99.111(17)
_cell_angle_gamma                90
_cell_volume                     1362.63
_exptl_crystal_colour            colorless
_exptl_crystal_description       block
_chemical_melting_point          '353.45-354.35 K'
_cell_formula_units_Z            4
_exptl_crystal_recrystallization_method 'dichloromethane/petroleum ether'
loop_
_atom_site_label
_atom_site_type_symbol
_atom_site_fract_x
_atom_site_fract_y
_atom_site_fract_z
O1 O 0.73670(14) 0.56511(13) 0.69319(11)
N1 N 0.59836(16) 0.37872(14) 0.58418(13)
H1 H 0.6149 0.4207 0.6427
N2 N 0.5078(2) -0.05640(17) 0.67650(16)
C1 C 1.0847(2) 0.8702(2) 0.6330(2)
H2 H 1.1485 0.9334 0.6384
C2 C 1.0519(2) 0.8161(2) 0.7229(2)
H3 H 1.0933 0.8426 0.7897
C3 C 0.9572(2) 0.7219(2) 0.71505(18)
H4 H 0.9345 0.6868 0.7767
C4 C 0.89565(18) 0.67926(17) 0.61661(15)
C5 C 0.9296(2) 0.7356(2) 0.52626(18)
H5 H 0.8889 0.7090 0.4593
C6 C 1.0232(3) 0.8308(2) 0.5344(2)
H6 H 1.0445 0.8682 0.4732
C7 C 0.79188(18) 0.57881(16) 0.61283(15)
C8 C 0.7605(2) 0.50372(17) 0.52032(15)
H7 H 0.8073 0.5183 0.4646
C9 C 0.6656(2) 0.41061(16) 0.50683(15)
C10 C 0.6336(2) 0.3439(2) 0.40183(17)
H8 H 0.6344 0.2543 0.4134
H9 H 0.6982 0.3654 0.3578
H10 H 0.5476 0.3693 0.3670
C11 C 0.49955(19) 0.27955(18) 0.57884(17)
H11 H 0.4534 0.2741 0.5062
H12 H 0.4354 0.3033 0.6238
C12 C 0.55373(18) 0.14986(16) 0.61276(14)
C13 C 0.6826(2) 0.11570(19) 0.61395(18)
H13 H 0.7427 0.1733 0.5941
C14 C 0.7228(2) -0.0054(2) 0.64491(18)
H14 H 0.8097 -0.0308 0.6454
C15 C 0.6321(3) -0.0869(2) 0.67473(18)
H15 H 0.6595 -0.1683 0.6949
C16 C 0.4712(2) 0.06032(19) 0.64491(16)
H16 H 0.3834 0.0827 0.6446
loop_
_geom_bond_atom_site_label_1
_geom_bond_atom_site_label_2
_geom_bond_site_symmetry_1
_geom_bond_site_symmetry_2
O1 C7 1_555 1_555
N1 H1 1_555 1_555
N2 C15 1_555 1_555
C1 H2 1_555 1_555
C2 C1 1_555 1_555
H3 C2 1_555 1_555
C3 C2 1_555 1_555
H4 C3 1_555 1_555
C4 C3 1_555 1_555
C5 C4 1_555 1_555
H5 C5 1_555 1_555
C6 C1 1_555 1_555
H6 C6 1_555 1_555
C7 C4 1_555 1_555
C8 C7 1_555 1_555
H7 C8 1_555 1_555
C9 N1 1_555 1_555
C10 C9 1_555 1_555
H8 C10 1_555 1_555
H9 C10 1_555 1_555
H10 C10 1_555 1_555
C11 N1 1_555 1_555
H11 C11 1_555 1_555
H12 C11 1_555 1_555
C12 C11 1_555 1_555
C13 C12 1_555 1_555
H13 C13 1_555 1_555
C14 C13 1_555 1_555
H14 C14 1_555 1_555
C15 C14 1_555 1_555
H15 C15 1_555 1_555
C16 N2 1_555 1_555
H16 C16 1_555 1_555
C5 C6 1_555 1_555
C8 C9 1_555 1_555
C12 C16 1_555 1_555

#END
