
#######################################################################
#
#                 Cambridge Crystallographic Data Centre
#                                CCDC 
#
#######################################################################
#
# If this CIF has been generated from an entry in the Cambridge 
# Structural Database, then it will include bibliographic, chemical, 
# crystal, experimental, refinement or atomic coordinate data resulting 
# from the CCDC's data processing and validation procedures.
#
#######################################################################

data_VABJOA
_chemical_formula_moiety         'C20 H23 F3 N2 O3'
_chemical_name_systematic        
"Ethyl 1'-isopropyl-4'-methyl-5'-oxo-4'-(2,2,2-trifluoroethyl)spiro[indole-3,3'-pyrrolidine]-2-carboxylate"
_symmetry_cell_setting           triclinic
_symmetry_space_group_name_H-M   'P -1'
_symmetry_Int_Tables_number      2
_space_group_name_Hall           '-P 1'
loop_
_symmetry_equiv_pos_site_id
_symmetry_equiv_pos_as_xyz
1 x,y,z
2 -x,-y,-z
_cell_length_a                   8.6021(17)
_cell_length_b                   9.945(2)
_cell_length_c                   13.054(3)
_cell_angle_alpha                110.17(3)
_cell_angle_beta                 93.32(3)
_cell_angle_gamma                109.96(3)
_cell_volume                     965.573
_exptl_crystal_colour            colorless
_cell_formula_units_Z            2
loop_
_atom_site_label
_atom_site_type_symbol
_atom_site_fract_x
_atom_site_fract_y
_atom_site_fract_z
F1 F 0.82635(9) 1.04027(9) 0.22206(6)
F2 F 0.78593(9) 0.90843(10) 0.04783(6)
F3 F 0.95679(8) 0.88945(9) 0.16180(7)
O1 O 0.73515(10) 0.91727(9) 0.51072(6)
O2 O 0.53990(10) 0.70086(9) 0.37807(6)
O3 O 0.38160(10) 0.48575(9) 0.10026(6)
N1 N 0.65214(11) 1.09335(11) 0.42071(7)
N2 N 0.24597(11) 0.62997(10) 0.20493(7)
C1 C 0.59066(13) 1.15818(13) 0.35391(9)
C2 C 0.63319(14) 1.31443(13) 0.37820(9)
H1 H 0.7148 1.3912 0.4424
C3 C 0.55241(15) 1.35553(14) 0.30554(10)
H2 H 0.5806 1.4621 0.3193
C4 C 0.43122(15) 1.24254(14) 0.21328(9)
H3 H 0.3755 1.2730 0.1656
C5 C 0.38950(14) 1.08496(13) 0.18916(9)
H4 H 0.3056 1.0083 0.1261
C6 C 0.47279(13) 1.04259(12) 0.25902(9)
C7 C 0.45637(13) 0.88630(12) 0.26036(8)
C8 C 0.58041(13) 0.94514(12) 0.37034(8)
C9 C 0.61388(13) 0.83999(13) 0.41912(8)
C10 C 0.78590(15) 0.82171(14) 0.55857(9)
H5 H 0.6849 0.7323 0.5540
H6 H 0.8396 0.8838 0.6381
C11 C 0.90789(15) 0.76374(15) 0.49714(11)
H7 H 0.8503 0.6919 0.4207
H8 H 0.9500 0.7098 0.5351
H9 H 1.0028 0.8518 0.4956
C12 C 0.27285(13) 0.79121(12) 0.26693(9)
H10 H 0.2623 0.8097 0.3453
H11 H 0.1900 0.8202 0.2329
C13 C 0.09913(14) 0.49993(13) 0.20485(9)
H12 H 0.0961 0.4032 0.1449
C14 C -0.06331(14) 0.52100(16) 0.17666(10)
H13 H -0.0641 0.6149 0.2345
H14 H -0.1605 0.4306 0.1728
H15 H -0.0696 0.5310 0.1046
C15 C 0.11425(16) 0.47964(16) 0.31501(11)
H16 H 0.2175 0.4621 0.3286
H17 H 0.0162 0.3904 0.3118
H18 H 0.1187 0.5735 0.3756
C16 C 0.37074(13) 0.61049(13) 0.15186(8)
C17 C 0.49074(13) 0.76877(13) 0.15655(8)
C18 C 0.42555(14) 0.77436(13) 0.04616(9)
H19 H 0.4387 0.6923 -0.0164
H20 H 0.4905 0.8757 0.0445
H21 H 0.3060 0.7587 0.0403
C19 C 0.67011(13) 0.76879(13) 0.15970(9)
H22 H 0.7067 0.7644 0.2314
H23 H 0.6628 0.6716 0.0999
C20 C 0.80640(14) 0.90090(14) 0.14736(9)
loop_
_geom_bond_atom_site_label_1
_geom_bond_atom_site_label_2
_geom_bond_site_symmetry_1
_geom_bond_site_symmetry_2
F1 C20 1_555 1_555
F2 C20 1_555 1_555
F3 C20 1_555 1_555
O1 C9 1_555 1_555
O2 C9 1_555 1_555
O3 C16 1_555 1_555
N1 C1 1_555 1_555
N2 C12 1_555 1_555
C1 C2 1_555 1_555
C2 H1 1_555 1_555
C3 C2 1_555 1_555
H2 C3 1_555 1_555
C4 C3 1_555 1_555
H3 C4 1_555 1_555
C5 C4 1_555 1_555
H4 C5 1_555 1_555
C6 C1 1_555 1_555
C7 C6 1_555 1_555
C8 N1 1_555 1_555
C9 C8 1_555 1_555
C10 O1 1_555 1_555
H5 C10 1_555 1_555
H6 C10 1_555 1_555
C11 C10 1_555 1_555
H7 C11 1_555 1_555
H8 C11 1_555 1_555
H9 C11 1_555 1_555
C12 C7 1_555 1_555
H10 C12 1_555 1_555
H11 C12 1_555 1_555
C13 N2 1_555 1_555
H12 C13 1_555 1_555
C14 C13 1_555 1_555
H13 C14 1_555 1_555
H14 C14 1_555 1_555
H15 C14 1_555 1_555
C15 C13 1_555 1_555
H16 C15 1_555 1_555
H17 C15 1_555 1_555
H18 C15 1_555 1_555
C16 N2 1_555 1_555
C17 C7 1_555 1_555
C18 C17 1_555 1_555
H19 C18 1_555 1_555
H20 C18 1_555 1_555
H21 C18 1_555 1_555
C19 C17 1_555 1_555
H22 C19 1_555 1_555
H23 C19 1_555 1_555
C20 C19 1_555 1_555
C5 C6 1_555 1_555
C7 C8 1_555 1_555
C16 C17 1_555 1_555

#END
