
#######################################################################
#
#                 Cambridge Crystallographic Data Centre
#                                CCDC 
#
#######################################################################
#
# If this CIF has been generated from an entry in the Cambridge 
# Structural Database, then it will include bibliographic, chemical, 
# crystal, experimental, refinement or atomic coordinate data resulting 
# from the CCDC's data processing and validation procedures.
#
#######################################################################

data_VABKIU
_chemical_compound_source        'rhizome of Alpinia mutica'
_chemical_name_common            'Flavokavain B'
_chemical_formula_moiety         'C17 H16 O4'
_chemical_name_systematic        
(E)-1-(2-Hydroxy-4,6-dimethoxyphenyl)-3-phenylprop-2-en-1-one
_chemical_properties_biological  
'rhizomes of source plant used to strengthen stomach'
_symmetry_cell_setting           orthorhombic
_symmetry_space_group_name_H-M   'P 21 21 21'
_symmetry_Int_Tables_number      19
_space_group_name_Hall           'P 2ac 2ab'
loop_
_symmetry_equiv_pos_site_id
_symmetry_equiv_pos_as_xyz
1 x,y,z
2 1/2-x,-y,1/2+z
3 -x,1/2+y,1/2-z
4 1/2+x,1/2-y,-z
_cell_length_a                   4.9668(10)
_cell_length_b                   12.305(3)
_cell_length_c                   22.552(5)
_cell_angle_alpha                90
_cell_angle_beta                 90
_cell_angle_gamma                90
_cell_volume                     1378.3
_exptl_crystal_colour            'faint yellow'
_exptl_crystal_description       prism
_cell_formula_units_Z            4
_exptl_crystal_recrystallization_method 'petroleum ether/ether'
loop_
_atom_site_label
_atom_site_type_symbol
_atom_site_fract_x
_atom_site_fract_y
_atom_site_fract_z
O1 O 0.5688(6) 0.96830(19) 0.22125(11)
O2 O 0.3291(6) 0.9379(2) 0.12751(11)
H1 H 0.440(7) 0.958(4) 0.1541(14)
O3 O -0.3912(5) 0.68445(19) 0.12028(10)
O4 O 0.0995(6) 0.72577(18) 0.29718(11)
C1 C 0.7327(8) 0.9257(3) 0.40417(17)
C2 C 0.5796(9) 0.8616(3) 0.44201(16)
H2 H 0.4369 0.8191 0.4262
C3 C 0.6311(10) 0.8586(3) 0.50210(18)
H3 H 0.5230 0.8150 0.5274
C4 C 0.8406(9) 0.9191(3) 0.52537(17)
H4 H 0.8762 0.9177 0.5668
C5 C 0.9976(9) 0.9815(3) 0.48823(18)
H5 H 1.1418 1.0229 0.5042
C6 C 0.9476(9) 0.9846(3) 0.42798(17)
H6 H 1.0594 1.0267 0.4027
C7 C 0.6751(8) 0.9328(3) 0.34039(17)
H7 H 0.7994 0.9723 0.3167
C8 C 0.4658(8) 0.8891(3) 0.31275(16)
H8 H 0.3381 0.8493 0.3354
C9 C 0.4237(8) 0.8998(3) 0.24859(16)
C10 C 0.2169(8) 0.8393(3) 0.21647(16)
C11 C 0.1737(8) 0.8639(3) 0.15591(16)
C12 C -0.0285(8) 0.8174(3) 0.12220(16)
H9 H -0.0586 0.8392 0.0823
C13 C -0.1857(8) 0.7377(3) 0.14850(16)
C14 C -0.1454(8) 0.7058(3) 0.20702(16)
H10 H -0.2544 0.6504 0.2238
C15 C 0.0513(8) 0.7543(3) 0.24038(15)
C16 C -0.0619(9) 0.6404(3) 0.32205(16)
H11 H -0.0115 0.6292 0.3636
H12 H -0.0320 0.5731 0.2998
H13 H -0.2525 0.6606 0.3197
C17 C -0.4398(9) 0.7113(3) 0.05989(15)
H14 H -0.5907 0.6679 0.0449
H15 H -0.2783 0.6957 0.0364
H16 H -0.4839 0.7887 0.0567
loop_
_geom_bond_atom_site_label_1
_geom_bond_atom_site_label_2
_geom_bond_site_symmetry_1
_geom_bond_site_symmetry_2
O1 C9 1_555 1_555
O2 H1 1_555 1_555
O3 C13 1_555 1_555
O4 C15 1_555 1_555
C1 C2 1_555 1_555
C2 H2 1_555 1_555
C3 C2 1_555 1_555
H3 C3 1_555 1_555
C4 C3 1_555 1_555
H4 C4 1_555 1_555
C5 C4 1_555 1_555
H5 C5 1_555 1_555
C6 C1 1_555 1_555
H6 C6 1_555 1_555
C7 C1 1_555 1_555
H7 C7 1_555 1_555
C8 C7 1_555 1_555
H8 C8 1_555 1_555
C9 C8 1_555 1_555
C10 C9 1_555 1_555
C11 O2 1_555 1_555
C12 C11 1_555 1_555
H9 C12 1_555 1_555
C13 C12 1_555 1_555
C14 C13 1_555 1_555
H10 C14 1_555 1_555
C15 C10 1_555 1_555
C16 O4 1_555 1_555
H11 C16 1_555 1_555
H12 C16 1_555 1_555
H13 C16 1_555 1_555
C17 O3 1_555 1_555
H14 C17 1_555 1_555
H15 C17 1_555 1_555
H16 C17 1_555 1_555
C5 C6 1_555 1_555
C10 C11 1_555 1_555
C14 C15 1_555 1_555

#END
