
#######################################################################
#
#                 Cambridge Crystallographic Data Centre
#                                CCDC 
#
#######################################################################
#
# If this CIF has been generated from an entry in the Cambridge 
# Structural Database, then it will include bibliographic, chemical, 
# crystal, experimental, refinement or atomic coordinate data resulting 
# from the CCDC's data processing and validation procedures.
#
#######################################################################

data_VABLOZ
_chemical_formula_moiety         'C8 H10 N5 1+,C2 F3 O2 1-'
_chemical_name_systematic        
'2-Amino-3-(1-methyl-1,2,4-triazol-3-yl)pyridine trifluoroacetic acid solvate'
_symmetry_cell_setting           monoclinic
_symmetry_space_group_name_H-M   'P 21/n'
_symmetry_Int_Tables_number      14
_space_group_name_Hall           '-P 2yn'
loop_
_symmetry_equiv_pos_site_id
_symmetry_equiv_pos_as_xyz
1 x,y,z
2 1/2-x,1/2+y,1/2-z
3 -x,-y,-z
4 1/2+x,1/2-y,1/2+z
_cell_length_a                   4.615(2)
_cell_length_b                   26.328(9)
_cell_length_c                   10.224(5)
_cell_angle_alpha                90
_cell_angle_beta                 90.59(4)
_cell_angle_gamma                90
_cell_volume                     1242.19
_exptl_crystal_colour            colorless
_cell_formula_units_Z            4
loop_
_atom_site_label
_atom_site_type_symbol
_atom_site_fract_x
_atom_site_fract_y
_atom_site_fract_z
F1 F 0.1621(9) 0.5769(1) 0.4838(3)
F2 F 0.1655(8) 0.5088(1) 0.3725(3)
F3 F 0.5244(8) 0.5585(2) 0.3678(4)
O1 O 0.0815(9) 0.5600(1) 0.1533(3)
O2 O 0.0595(9) 0.6319(2) 0.2704(4)
C1 C 0.2381(13) 0.5572(2) 0.3697(5)
C2 C 0.1112(11) 0.5864(2) 0.2527(5)
N1 N -0.1772(9) 0.0891(2) 0.5224(4)
N2 N -0.1594(9) 0.1674(2) 0.4231(4)
N3 N 0.2364(9) 0.2339(2) 0.5202(4)
N4 N 0.4133(10) 0.2729(2) 0.5560(4)
N5 N 0.4902(10) 0.2138(2) 0.7003(4)
C3 C -0.0950(12) 0.0544(2) 0.6118(5)
C4 C 0.1121(13) 0.0657(2) 0.7000(6)
C5 C 0.2348(12) 0.1139(2) 0.6988(5)
C6 C 0.1552(10) 0.1494(2) 0.6101(4)
C7 C -0.0630(10) 0.1361(2) 0.5154(4)
C8 C 0.2888(10) 0.1995(2) 0.6093(4)
C9 C 0.5591(12) 0.2590(2) 0.6615(5)
C10 C 0.4267(16) 0.3184(2) 0.4800(6)
H1 H -0.086(12) 0.205(2) 0.433(5)
H2 H -0.285(11) 0.161(2) 0.367(5)
H3 H -0.339(13) 0.091(2) 0.470(6)
H4 H -0.187(8) 0.023(2) 0.604(3)
H5 H 0.170(9) 0.052(2) 0.750(4)
H6 H 0.380(10) 0.127(2) 0.756(4)
H7 H 0.705(10) 0.272(2) 0.697(4)
H8 H 0.577(2) 0.3446(2) 0.525(1)
H9 H 0.215(2) 0.3357(2) 0.474(1)
H10 H 0.499(2) 0.3092(2) 0.383(1)
loop_
_geom_bond_atom_site_label_1
_geom_bond_atom_site_label_2
_geom_bond_site_symmetry_1
_geom_bond_site_symmetry_2
F1 C1 1_555 1_555
F2 C1 1_555 1_555
F3 C1 1_555 1_555
O1 C2 1_555 1_555
O2 C2 1_555 1_555
C1 C2 1_555 1_555
N1 C3 1_555 1_555
N2 C7 1_555 1_555
N3 N4 1_555 1_555
N4 C9 1_555 1_555
N5 C8 1_555 1_555
C3 C4 1_555 1_555
C4 C5 1_555 1_555
C5 C6 1_555 1_555
C6 C7 1_555 1_555
C7 N1 1_555 1_555
C8 N3 1_555 1_555
C9 N5 1_555 1_555
C10 N4 1_555 1_555
H1 N2 1_555 1_555
H2 N2 1_555 1_555
H3 N1 1_555 1_555
H4 C3 1_555 1_555
H5 C4 1_555 1_555
H6 C5 1_555 1_555
H7 C9 1_555 1_555
H8 C10 1_555 1_555
H9 C10 1_555 1_555
H10 C10 1_555 1_555
C6 C8 1_555 1_555

#END
