
#######################################################################
#
#                 Cambridge Crystallographic Data Centre
#                                CCDC 
#
#######################################################################
#
# If this CIF has been generated from an entry in the Cambridge 
# Structural Database, then it will include bibliographic, chemical, 
# crystal, experimental, refinement or atomic coordinate data resulting 
# from the CCDC's data processing and validation procedures.
#
#######################################################################

data_VABPET
_chemical_formula_moiety         'C22 H22 Cl1 N1 O4 S1,0.5(C1 H4 O1)'
_chemical_name_systematic        
'4-(2-Chlorophenyl)-1,4-dihydro-2,6-dimethyl-3-(methoxycarbonyl)-5-(4-methoxyphenylsulfinyl)pyridine methanol solvate'
_symmetry_cell_setting           monoclinic
_symmetry_space_group_name_H-M   'P 21'
_symmetry_Int_Tables_number      4
_space_group_name_Hall           'P 2yb'
loop_
_symmetry_equiv_pos_site_id
_symmetry_equiv_pos_as_xyz
1 x,y,z
2 -x,1/2+y,-z
_cell_length_a                   11.088(3)
_cell_length_b                   14.964(4)
_cell_length_c                   14.238(3)
_cell_angle_alpha                90
_cell_angle_beta                 110.14(2)
_cell_angle_gamma                90
_cell_volume                     2217.93
_chemical_melting_point          175-177deg.C
_cell_formula_units_Z            4
loop_
_atom_site_label
_atom_site_type_symbol
_atom_site_fract_x
_atom_site_fract_y
_atom_site_fract_z
C1 C 0.0324(11) 0.1893 0.5605(8)
C2 C -0.0513(15) 0.1244(13) 0.5162(12)
C3 C -0.0879(15) 0.0594(15) 0.5714(11)
C4 C -0.0263(15) 0.0596(14) 0.6718(11)
C5 C 0.0587(15) 0.1209(14) 0.7177(10)
C6 C 0.0911(11) 0.1867(14) 0.6647(9)
C7 C -0.1751(26) -0.0503(19) 0.6862(18)
C8 C -0.0676(13) 0.2768(14) 0.2592(9)
C9 C -0.1234(11) 0.3244(13) 0.3262(7)
C10 C -0.0718(10) 0.3249(12) 0.4284(8)
C11 C -0.1410(12) 0.3726(12) 0.4892(8)
C12 C -0.2195(11) 0.4491(13) 0.4284(8)
C13 C -0.2647(12) 0.4446(13) 0.3305(9)
C14 C -0.3621(14) 0.5071(14) 0.2588(10)
C15 C -0.2529(14) 0.5236(13) 0.4828(11)
C16 C -0.2184(17) 0.5830(14) 0.6464(12)
C17 C -0.2243(11) 0.3105(13) 0.5269(8)
C18 C -0.3251(14) 0.2650(13) 0.4567(10)
C19 C -0.4063(13) 0.2073(14) 0.4813(12)
C20 C -0.3892(17) 0.1925(14) 0.5831(12)
C21 C -0.2922(15) 0.2377(14) 0.6526(12)
C22 C -0.2114(13) 0.2936(13) 0.6250(9)
O1 O 0.1606(8) 0.3397(11) 0.5656(6)
O2 O -0.0566(13) -0.0029(13) 0.7343(10)
O3 O -0.3270(12) 0.5841(12) 0.4454(9)
O4 O -0.1952(10) 0.5162(11) 0.5818(7)
N1 N -0.2256(10) 0.3781(12) 0.2791(6)
S1 S 0.0765(3) 0.2729(9) 0.4895(2)
Cl1 Cl -0.0858(3) 0.3457(10) 0.7215(2)
C23 C -0.5026(14) -0.3228(13) 0.9528(9)
C24 C -0.4080(18) -0.3780(13) 1.0160(12)
C25 C -0.3604(23) -0.4462(15) 0.9811(15)
C26 C -0.3979(26) -0.4646(16) 0.8840(18)
C27 C -0.4918(24) -0.4143(18) 0.8174(16)
C28 C -0.5441(17) -0.3456(17) 0.8533(12)
C29 C -0.2449(28) -0.5718(21) 0.8916(26)
C30 C -0.4563(14) -0.2221(14) 1.2329(9)
C31 C -0.3966(10) -0.1723(12) 1.1701(8)
C32 C -0.4281(11) -0.1747(12) 1.0675(8)
C33 C -0.3600(12) -0.1242(13) 1.0136(8)
C34 C -0.2881(13) -0.0473(12) 1.0753(9)
C35 C -0.2509(12) -0.0508(12) 1.1788(9)
C36 C -0.1660(13) 0.0156(14) 1.2547(10)
C37 C -0.2471(13) 0.0271(13) 1.0279(9)
C38 C -0.2609(19) 0.0874(14) 0.8744(12)
C39 C -0.2671(11) -0.1829(12) 0.9807(8)
C40 C -0.1598(12) -0.2207(14) 1.0543(9)
C41 C -0.0726(14) -0.2714(14) 1.0314(12)
C42 C -0.0863(14) -0.2902(14) 0.9328(13)
C43 C -0.1959(15) -0.2558(15) 0.8575(11)
C44 C -0.2794(13) -0.2042(13) 0.8830(9)
O5 O -0.6449(8) -0.1784(12) 0.9186(6)
O6 O -0.3522(25) -0.5299(15) 0.8366(19)
O7 O -0.1783(12) 0.0889(13) 1.0643(9)
O8 O -0.2950(10) 0.0183(11) 0.9305(6)
N2 N -0.2962(11) -0.1161(12) 1.2251(7)
S2 S -0.5685(3) -0.2358(10) 1.0031(2)
Cl2 Cl -0.4088(3) -0.1617(10) 0.7824(2)
O9 O 0.6347(19) 0.9510(17) 0.4219(18)
C45 C 0.5497(26) 0.9308(23) 0.4623(19)
loop_
_geom_bond_atom_site_label_1
_geom_bond_atom_site_label_2
_geom_bond_site_symmetry_1
_geom_bond_site_symmetry_2
C1 C2 1_555 1_555
C2 C3 1_555 1_555
C3 C4 1_555 1_555
C4 C5 1_555 1_555
C5 C6 1_555 1_555
C6 C1 1_555 1_555
C7 O2 1_555 1_555
C8 C9 1_555 1_555
C9 C10 1_555 1_555
C10 C11 1_555 1_555
C11 C12 1_555 1_555
C12 C13 1_555 1_555
C13 C14 1_555 1_555
C15 C12 1_555 1_555
C16 O4 1_555 1_555
C17 C11 1_555 1_555
C18 C17 1_555 1_555
C19 C18 1_555 1_555
C20 C19 1_555 1_555
C21 C20 1_555 1_555
C22 C17 1_555 1_555
O1 S1 1_555 1_555
O2 C4 1_555 1_555
O3 C15 1_555 1_555
O4 C15 1_555 1_555
N1 C9 1_555 1_555
S1 C1 1_555 1_555
Cl1 C22 1_555 1_555
C23 C24 1_555 1_555
C24 C25 1_555 1_555
C25 C26 1_555 1_555
C26 C27 1_555 1_555
C27 C28 1_555 1_555
C28 C23 1_555 1_555
C29 O6 1_555 1_555
C30 C31 1_555 1_555
C31 C32 1_555 1_555
C32 C33 1_555 1_555
C33 C34 1_555 1_555
C34 C35 1_555 1_555
C35 C36 1_555 1_555
C37 C34 1_555 1_555
C38 O8 1_555 1_555
C39 C33 1_555 1_555
C40 C39 1_555 1_555
C41 C40 1_555 1_555
C42 C41 1_555 1_555
C43 C42 1_555 1_555
C44 C39 1_555 1_555
O5 S2 1_555 1_555
O6 C26 1_555 1_555
O7 C37 1_555 1_555
O8 C37 1_555 1_555
N2 C31 1_555 1_555
S2 C23 1_555 1_555
Cl2 C44 1_555 1_555
O9 C45 1_555 1_555
C10 S1 1_555 1_555
C13 N1 1_555 1_555
C21 C22 1_555 1_555
C32 S2 1_555 1_555
C35 N2 1_555 1_555
C43 C44 1_555 1_555

#END
