
#######################################################################
#
#                 Cambridge Crystallographic Data Centre
#                                CCDC 
#
#######################################################################
#
# If this CIF has been generated from an entry in the Cambridge 
# Structural Database, then it will include bibliographic, chemical, 
# crystal, experimental, refinement or atomic coordinate data resulting 
# from the CCDC's data processing and validation procedures.
#
#######################################################################

data_VABRUN
_chemical_formula_moiety         'C19 H13 F2 N3 O3'
_chemical_name_systematic        
4-(4-Fluoroanilino)-N-(4-fluorophenyl)-3-nitrobenzamide
_symmetry_cell_setting           triclinic
_symmetry_space_group_name_H-M   'P -1'
_symmetry_Int_Tables_number      2
_space_group_name_Hall           '-P 1'
loop_
_symmetry_equiv_pos_site_id
_symmetry_equiv_pos_as_xyz
1 x,y,z
2 -x,-y,-z
_cell_length_a                   7.8510(16)
_cell_length_b                   8.2720(17)
_cell_length_c                   13.835(3)
_cell_angle_alpha                74.75(3)
_cell_angle_beta                 85.67(3)
_cell_angle_gamma                70.76(3)
_cell_volume                     818.376
_exptl_crystal_colour            colorless
_exptl_crystal_description       block
_cell_formula_units_Z            2
_exptl_crystal_recrystallization_method methanol
loop_
_atom_site_label
_atom_site_type_symbol
_atom_site_fract_x
_atom_site_fract_y
_atom_site_fract_z
F1 F 0.7511(3) 0.0655(3) -0.12706(14)
N1 N 0.1978(4) -0.2157(3) 0.58538(17)
H1 H 0.2383 -0.2652 0.5372
F2 F -0.0468(3) -0.6359(3) 0.90592(15)
C1 C 0.0848(6) -0.5958(5) 0.7467(3)
H2 H 0.0888 -0.7083 0.7443
N2 N 0.4401(4) 0.3033(3) 0.20096(18)
H3 H 0.4232 0.4141 0.1934
O1 O 0.1462(4) 0.0382(3) 0.63333(16)
C2 C 0.1458(5) -0.4877(4) 0.6679(3)
H4 H 0.1932 -0.5290 0.6120
O2 O 0.3708(4) 0.5620(3) 0.29073(19)
C3 C 0.1378(4) -0.3197(4) 0.6703(2)
N3 N 0.3373(4) 0.4670(4) 0.3685(2)
C4 C 0.0683(5) -0.2610(5) 0.7541(2)
H5 H 0.0612 -0.1478 0.7569
O3 O 0.3066(5) 0.5176(4) 0.4448(2)
C5 C 0.0093(5) -0.3689(5) 0.8339(2)
H6 H -0.0360 -0.3301 0.8909
C6 C 0.0189(5) -0.5329(5) 0.8276(3)
C7 C 0.1996(4) -0.0465(4) 0.5702(2)
C8 C 0.2697(4) 0.0325(4) 0.4724(2)
C9 C 0.3296(4) -0.0471(4) 0.3930(2)
H7 H 0.3288 -0.1616 0.3996
C10 C 0.3893(4) 0.0400(4) 0.3058(2)
H8 H 0.4292 -0.0178 0.2550
C11 C 0.3924(4) 0.2150(4) 0.2904(2)
C12 C 0.3347(4) 0.2909(4) 0.3723(2)
C13 C 0.2751(4) 0.2014(4) 0.4597(2)
H9 H 0.2376 0.2568 0.5116
C14 C 0.5150(5) 0.2322(4) 0.1184(2)
C15 C 0.6711(5) 0.0901(5) 0.1283(2)
H10 H 0.7234 0.0318 0.1914
C16 C 0.7504(5) 0.0333(5) 0.0459(3)
H11 H 0.8563 -0.0623 0.0524
C17 C 0.6702(6) 0.1204(5) -0.0458(3)
C18 C 0.5142(5) 0.2600(5) -0.0589(2)
H12 H 0.4617 0.3155 -0.1221
C19 C 0.4358(5) 0.3171(4) 0.0244(2)
H13 H 0.3298 0.4126 0.0173
loop_
_geom_bond_atom_site_label_1
_geom_bond_atom_site_label_2
_geom_bond_site_symmetry_1
_geom_bond_site_symmetry_2
F1 C17 1_555 1_555
N1 H1 1_555 1_555
F2 C6 1_555 1_555
C1 H2 1_555 1_555
N2 H3 1_555 1_555
O1 C7 1_555 1_555
C2 C1 1_555 1_555
H4 C2 1_555 1_555
O2 N3 1_555 1_555
C3 N1 1_555 1_555
N3 O3 1_555 1_555
C4 C3 1_555 1_555
H5 C4 1_555 1_555
C5 C4 1_555 1_555
H6 C5 1_555 1_555
C6 C1 1_555 1_555
C7 N1 1_555 1_555
C8 C7 1_555 1_555
C9 C8 1_555 1_555
H7 C9 1_555 1_555
C10 C9 1_555 1_555
H8 C10 1_555 1_555
C11 N2 1_555 1_555
C12 N3 1_555 1_555
C13 C8 1_555 1_555
H9 C13 1_555 1_555
C14 N2 1_555 1_555
C15 C14 1_555 1_555
H10 C15 1_555 1_555
C16 C15 1_555 1_555
H11 C16 1_555 1_555
C17 C16 1_555 1_555
C18 C17 1_555 1_555
H12 C18 1_555 1_555
C19 C14 1_555 1_555
H13 C19 1_555 1_555
C2 C3 1_555 1_555
C5 C6 1_555 1_555
C10 C11 1_555 1_555
C11 C12 1_555 1_555
C12 C13 1_555 1_555
C18 C19 1_555 1_555

#END
