
#######################################################################
#
#                 Cambridge Crystallographic Data Centre
#                                CCDC 
#
#######################################################################
#
# If this CIF has been generated from an entry in the Cambridge 
# Structural Database, then it will include bibliographic, chemical, 
# crystal, experimental, refinement or atomic coordinate data resulting 
# from the CCDC's data processing and validation procedures.
#
#######################################################################

data_VABTUP01
_chemical_formula_moiety         'C4 H12 N1 1+,C7 H5 O3 1-'
_chemical_name_systematic        'Diethylammonium 4-hydroxybenzoate'
_symmetry_cell_setting           orthorhombic
_symmetry_space_group_name_H-M   'P b c a'
_symmetry_Int_Tables_number      61
_space_group_name_Hall           '-P 2ac 2ab'
loop_
_symmetry_equiv_pos_site_id
_symmetry_equiv_pos_as_xyz
1 x,y,z
2 1/2-x,-y,1/2+z
3 -x,1/2+y,1/2-z
4 1/2+x,1/2-y,-z
5 -x,-y,-z
6 1/2+x,y,1/2-z
7 x,1/2-y,1/2+z
8 1/2-x,1/2+y,z
_cell_length_a                   12.176(2)
_cell_length_b                   10.728(2)
_cell_length_c                   17.666(4)
_cell_angle_alpha                90
_cell_angle_beta                 90
_cell_angle_gamma                90
_cell_volume                     2307.61
_exptl_crystal_colour            colorless
_exptl_crystal_description       block
_cell_formula_units_Z            8
loop_
_atom_site_label
_atom_site_type_symbol
_atom_site_fract_x
_atom_site_fract_y
_atom_site_fract_z
O1 O 0.24422(15) 0.09456(18) 0.33500(10)
O2 O 0.50149(15) 0.41062(18) 0.08724(9)
O3 O 0.60910(13) 0.24555(17) 0.09248(8)
C1 C 0.37951(19) 0.3256(3) 0.21436(13)
C2 C 0.30929(19) 0.2764(2) 0.26859(13)
C3 C 0.31225(18) 0.1497(2) 0.28373(12)
C4 C 0.38718(19) 0.0743(3) 0.24596(13)
C5 C 0.45739(19) 0.1255(2) 0.19307(13)
C6 C 0.45423(16) 0.2519(2) 0.17510(11)
C7 C 0.52606(19) 0.3064(2) 0.11441(13)
H1 H 0.3788(16) 0.412(2) 0.2060(11)
H2 H 0.2627(18) 0.330(2) 0.2985(11)
H3 H 0.5099(17) 0.0727(19) 0.1654(11)
H9 H 0.3886(17) -0.014(2) 0.2601(13)
H16 H 0.199(3) 0.157(3) 0.3583(17)
N1 N 0.65273(18) 0.4237(2) -0.03758(12)
C8 C 0.5657(3) 0.2567(5) -0.1116(3)
C9 C 0.6696(3) 0.3275(3) -0.09683(18)
C10 C 0.7518(3) 0.4996(3) -0.01915(18)
C11 C 0.8427(3) 0.4268(4) 0.0163(2)
H4 H 0.874(2) 0.368(3) -0.0156(16)
H5 H 0.818(3) 0.370(3) 0.0648(17)
H6 H 0.723(2) 0.564(3) 0.0193(17)
H7 H 0.588(2) 0.481(3) -0.0562(17)
H8 H 0.545(3) 0.208(3) -0.0677(19)
H10 H 0.688(2) 0.377(3) -0.1441(18)
H11 H 0.727(3) 0.278(3) -0.0801(16)
H12 H 0.904(3) 0.489(4) 0.039(2)
H13 H 0.622(2) 0.385(3) 0.0097(16)
H14 H 0.774(2) 0.536(3) -0.0660(16)
H15 H 0.574(2) 0.193(3) -0.1493(17)
H17 H 0.507(3) 0.314(3) -0.124(2)
loop_
_geom_bond_atom_site_label_1
_geom_bond_atom_site_label_2
_geom_bond_site_symmetry_1
_geom_bond_site_symmetry_2
O1 C3 1_555 1_555
O2 C7 1_555 1_555
O3 C7 1_555 1_555
C1 C2 1_555 1_555
C2 C3 1_555 1_555
C3 C4 1_555 1_555
C4 C5 1_555 1_555
C5 C6 1_555 1_555
C6 C1 1_555 1_555
C7 C6 1_555 1_555
N1 C9 1_555 1_555
C8 C9 1_555 1_555
C9 H10 1_555 1_555
C10 N1 1_555 1_555
C11 C10 1_555 1_555
H1 C1 1_555 1_555
H2 C2 1_555 1_555
H3 C5 1_555 1_555
H4 C11 1_555 1_555
H5 C11 1_555 1_555
H6 C10 1_555 1_555
H7 N1 1_555 1_555
H8 C8 1_555 1_555
H9 C4 1_555 1_555
H11 C9 1_555 1_555
H12 C11 1_555 1_555
H13 N1 1_555 1_555
H14 C10 1_555 1_555
H15 C8 1_555 1_555
H16 O1 1_555 1_555
H17 C8 1_555 1_555

#END
