
#######################################################################
#
#                 Cambridge Crystallographic Data Centre
#                                CCDC 
#
#######################################################################
#
# If this CIF has been generated from an entry in the Cambridge 
# Structural Database, then it will include bibliographic, chemical, 
# crystal, experimental, refinement or atomic coordinate data resulting 
# from the CCDC's data processing and validation procedures.
#
#######################################################################

data_VABYOO
_chemical_compound_source        'Kaempferia rotunda Val'
_chemical_formula_moiety         'C18 H18 O5'
_chemical_name_systematic        
(E)-1-(2-Hydroxy-4,6-dimethoxyphenyl)-3-(4-methoxyphenyl)prop-2-en-1-one
_symmetry_cell_setting           monoclinic
_symmetry_space_group_name_H-M   'P 21/n'
_symmetry_Int_Tables_number      14
_space_group_name_Hall           '-P 2yn'
loop_
_symmetry_equiv_pos_site_id
_symmetry_equiv_pos_as_xyz
1 x,y,z
2 1/2-x,1/2+y,1/2-z
3 -x,-y,-z
4 1/2+x,1/2-y,1/2+z
_cell_length_a                   12.8502(8)
_cell_length_b                   8.3226(5)
_cell_length_c                   14.1865(9)
_cell_angle_alpha                90
_cell_angle_beta                 97.7650(10)
_cell_angle_gamma                90
_cell_volume                     1503.29
_exptl_crystal_colour            yellow
_exptl_crystal_description       'irregular block'
_cell_formula_units_Z            4
_exptl_crystal_recrystallization_method n-hexane/ether
loop_
_atom_site_label
_atom_site_type_symbol
_atom_site_fract_x
_atom_site_fract_y
_atom_site_fract_z
O1 O 0.71889(6) 0.58291(10) 0.67517(6)
H1 H 0.7343(14) 0.536(2) 0.6242(9)
O2 O 0.44911(7) 0.93407(10) 0.74558(6)
O3 O 0.45229(6) 0.75473(10) 0.42926(5)
O4 O 0.72544(6) 0.50207(10) 0.50890(6)
O5 O 0.61863(7) 0.54719(10) -0.08390(5)
C1 C 0.63266(9) 0.66965(13) 0.64416(8)
C2 C 0.58866(9) 0.75693(13) 0.71251(8)
H2 H 0.6199 0.7560 0.7771
C3 C 0.49855(9) 0.84502(13) 0.68446(8)
C4 C 0.45027(9) 0.84618(14) 0.58972(8)
H3 H 0.3869 0.9041 0.5724
C5 C 0.49567(9) 0.76227(13) 0.52174(8)
C6 C 0.59130(8) 0.67424(13) 0.54579(7)
C7 C 0.49545(11) 0.93606(16) 0.84345(8)
H4 H 0.4487 0.9924 0.8815
H5 H 0.5632 0.9917 0.8491
H6 H 0.5061 0.8255 0.8665
C8 C 0.35464(9) 0.83628(15) 0.40224(8)
H7 H 0.3332 0.8236 0.3337
H8 H 0.3632 0.9507 0.4176
H9 H 0.3008 0.7903 0.4370
C9 C 0.64968(9) 0.59271(13) 0.47819(8)
C10 C 0.62915(9) 0.61886(14) 0.37466(8)
H10 H 0.5914 0.7110 0.3497
C11 C 0.66420(9) 0.51130(14) 0.31598(8)
H11 H 0.6976 0.4182 0.3446
C12 C 0.65630(8) 0.52262(14) 0.21240(8)
C13 C 0.67036(9) 0.38511(14) 0.15961(8)
H12 H 0.6880 0.2870 0.1922
C14 C 0.65939(9) 0.38694(14) 0.06058(8)
H13 H 0.6686 0.2912 0.0262
C15 C 0.63480(8) 0.53098(14) 0.01267(8)
C16 C 0.62576(9) 0.67210(14) 0.06464(8)
H14 H 0.6127 0.7714 0.0322
C17 C 0.63562(9) 0.66808(14) 0.16271(8)
H15 H 0.6284 0.7645 0.1971
C18 C 0.63148(10) 0.40641(15) -0.13935(8)
H16 H 0.6141 0.4319 -0.2071
H17 H 0.5847 0.3215 -0.1222
H18 H 0.7045 0.3696 -0.1267
loop_
_geom_bond_atom_site_label_1
_geom_bond_atom_site_label_2
_geom_bond_site_symmetry_1
_geom_bond_site_symmetry_2
O1 H1 1_555 1_555
O2 C3 1_555 1_555
O3 C5 1_555 1_555
O4 C9 1_555 1_555
O5 C15 1_555 1_555
C1 O1 1_555 1_555
C2 C1 1_555 1_555
H2 C2 1_555 1_555
C3 C2 1_555 1_555
C4 C3 1_555 1_555
H3 C4 1_555 1_555
C5 C4 1_555 1_555
C6 C1 1_555 1_555
C7 O2 1_555 1_555
H4 C7 1_555 1_555
H5 C7 1_555 1_555
H6 C7 1_555 1_555
C8 O3 1_555 1_555
H7 C8 1_555 1_555
H8 C8 1_555 1_555
H9 C8 1_555 1_555
C9 C6 1_555 1_555
C10 C9 1_555 1_555
H10 C10 1_555 1_555
C11 C10 1_555 1_555
H11 C11 1_555 1_555
C12 C11 1_555 1_555
C13 C12 1_555 1_555
H12 C13 1_555 1_555
C14 C13 1_555 1_555
H13 C14 1_555 1_555
C15 C14 1_555 1_555
C16 C15 1_555 1_555
H14 C16 1_555 1_555
C17 C12 1_555 1_555
H15 C17 1_555 1_555
C18 O5 1_555 1_555
H16 C18 1_555 1_555
H17 C18 1_555 1_555
H18 C18 1_555 1_555
C5 C6 1_555 1_555
C16 C17 1_555 1_555

#END
