
#######################################################################
#
#                 Cambridge Crystallographic Data Centre
#                                CCDC 
#
#######################################################################
#
# If this CIF has been generated from an entry in the Cambridge 
# Structural Database, then it will include bibliographic, chemical, 
# crystal, experimental, refinement or atomic coordinate data resulting 
# from the CCDC's data processing and validation procedures.
#
#######################################################################

data_VACCEJ
_chemical_formula_moiety         'C17 H14 Br1 Cl1 N4 O2'
_chemical_name_systematic        
3-Bromo-1-(3-chloropyridin-2-yl)-N-(4-ethoxyphenyl)-1H-pyrazole-5-carboxamide
_symmetry_cell_setting           monoclinic
_symmetry_space_group_name_H-M   'P 21/c'
_symmetry_Int_Tables_number      14
_space_group_name_Hall           '-P 2ybc'
loop_
_symmetry_equiv_pos_site_id
_symmetry_equiv_pos_as_xyz
1 x,y,z
2 -x,1/2+y,1/2-z
3 -x,-y,-z
4 x,1/2-y,1/2+z
_cell_length_a                   16.821(3)
_cell_length_b                   10.195(2)
_cell_length_c                   10.064(2)
_cell_angle_alpha                90
_cell_angle_beta                 101.09(3)
_cell_angle_gamma                90
_cell_volume                     1693.65
_exptl_crystal_colour            colorless
_exptl_crystal_description       rectangle
_cell_formula_units_Z            4
loop_
_atom_site_label
_atom_site_type_symbol
_atom_site_fract_x
_atom_site_fract_y
_atom_site_fract_z
Br1 Br 0.023579(14) 0.06344(2) 0.32526(2)
Cl1 Cl 0.07553(4) 0.63129(7) 0.54321(6)
O1 O 0.49241(10) 0.39661(16) 1.23908(18)
O2 O 0.25436(9) 0.48804(16) 0.66299(16)
N1 N 0.26429(11) 0.29027(19) 0.77115(19)
N2 N 0.09269(10) 0.31241(18) 0.35049(19)
N3 N 0.14508(10) 0.38461(18) 0.44293(18)
N4 N 0.21996(11) 0.49665(19) 0.3078(2)
C1 C 0.32339(13) 0.3197(2) 0.8882(2)
C2 C 0.34708(16) 0.4465(2) 0.9280(3)
H1 H 0.3250 0.5177 0.8759
C3 C 0.40344(16) 0.4662(3) 1.0450(3)
H2 H 0.4189 0.5514 1.0712
C4 C 0.43755(13) 0.3629(2) 1.1245(2)
C5 C 0.41491(13) 0.2361(2) 1.0851(2)
H3 H 0.4372 0.1650 1.1372
C6 C 0.35841(13) 0.2165(2) 0.9668(2)
H4 H 0.3437 0.1313 0.9398
C7 C 0.53387(14) 0.2914(2) 1.3173(2)
H5 H 0.5647 0.2407 1.2631
H6 H 0.4954 0.2336 1.3481
C8 C 0.58986(14) 0.3521(3) 1.4367(3)
H7 H 0.6282 0.4079 1.4048
H8 H 0.6182 0.2841 1.4925
H9 H 0.5588 0.4031 1.4886
C9 C 0.23427(13) 0.3734(2) 0.6695(2)
C10 C 0.17324(13) 0.3141(2) 0.5591(2)
C11 C 0.13590(13) 0.1945(2) 0.5421(2)
H10 H 0.1412 0.1253 0.6033
C12 C 0.08813(13) 0.1993(2) 0.4129(2)
C13 C 0.17110(13) 0.5071(2) 0.3970(2)
C14 C 0.14284(13) 0.6260(2) 0.4354(2)
C15 C 0.16840(15) 0.7398(2) 0.3811(3)
H11 H 0.1510 0.8214 0.4056
C16 C 0.21971(15) 0.7303(2) 0.2907(3)
H12 H 0.2381 0.8052 0.2532
C17 C 0.24346(14) 0.6071(3) 0.2566(2)
H13 H 0.2777 0.6011 0.1945
H14 H 0.2473(12) 0.2088(11) 0.765(2)
loop_
_geom_bond_atom_site_label_1
_geom_bond_atom_site_label_2
_geom_bond_site_symmetry_1
_geom_bond_site_symmetry_2
Br1 C12 1_555 1_555
Cl1 C14 1_555 1_555
O1 C4 1_555 1_555
O2 C9 1_555 1_555
N1 C1 1_555 1_555
N2 N3 1_555 1_555
N3 C10 1_555 1_555
N4 C13 1_555 1_555
C1 C2 1_555 1_555
C2 H1 1_555 1_555
C3 C2 1_555 1_555
H2 C3 1_555 1_555
C4 C3 1_555 1_555
C5 C4 1_555 1_555
H3 C5 1_555 1_555
C6 C1 1_555 1_555
H4 C6 1_555 1_555
C7 O1 1_555 1_555
H5 C7 1_555 1_555
H6 C7 1_555 1_555
C8 C7 1_555 1_555
H7 C8 1_555 1_555
H8 C8 1_555 1_555
H9 C8 1_555 1_555
C9 N1 1_555 1_555
C10 C9 1_555 1_555
C11 C10 1_555 1_555
H10 C11 1_555 1_555
C12 N2 1_555 1_555
C13 N3 1_555 1_555
C14 C13 1_555 1_555
C15 C14 1_555 1_555
H11 C15 1_555 1_555
C16 C15 1_555 1_555
H12 C16 1_555 1_555
C17 N4 1_555 1_555
H13 C17 1_555 1_555
H14 N1 1_555 1_555
C5 C6 1_555 1_555
C11 C12 1_555 1_555
C16 C17 1_555 1_555

#END
