
#######################################################################
#
#                 Cambridge Crystallographic Data Centre
#                                CCDC 
#
#######################################################################
#
# If this CIF has been generated from an entry in the Cambridge 
# Structural Database, then it will include bibliographic, chemical, 
# crystal, experimental, refinement or atomic coordinate data resulting 
# from the CCDC's data processing and validation procedures.
#
#######################################################################

data_VACDUA
_chemical_name_common            
'Ethyl 3-[2-(p-tolylcarbamothioyl)hydrazinylidene]butanoate'
_chemical_formula_moiety         'C14 H19 N3 O2 S1'
_chemical_name_systematic        
'Ethyl 3-(((4-methylphenyl)carbamothioyl)hydrazono)butanoate'
_symmetry_cell_setting           orthorhombic
_symmetry_space_group_name_H-M   'I b c a'
_symmetry_Int_Tables_number      73
_space_group_name_Hall           '-I 2b 2c'
loop_
_symmetry_equiv_pos_site_id
_symmetry_equiv_pos_as_xyz
1 x,y,z
2 1/2-x,-y,1/2+z
3 -x,1/2+y,1/2-z
4 1/2+x,1/2-y,-z
5 1/2+x,1/2+y,1/2+z
6 -x,1/2-y,z
7 1/2-x,y,-z
8 x,-y,1/2-z
9 -x,-y,-z
10 1/2+x,y,1/2-z
11 x,1/2-y,1/2+z
12 1/2-x,1/2+y,z
13 1/2-x,1/2-y,1/2-z
14 x,1/2+y,-z
15 1/2+x,-y,z
16 -x,y,1/2+z
_cell_length_a                   14.1747(3)
_cell_length_b                   25.1439(4)
_cell_length_c                   17.4381(2)
_cell_angle_alpha                90
_cell_angle_beta                 90
_cell_angle_gamma                90
_cell_volume                     6215.07
_exptl_crystal_colour            colorless
_exptl_crystal_description       prismatic
_cell_formula_units_Z            16
loop_
_atom_site_label
_atom_site_type_symbol
_atom_site_fract_x
_atom_site_fract_y
_atom_site_fract_z
S1 S 0.89584(5) 0.56086(3) 0.67758(3)
N1 N 0.84677(12) 0.51980(8) 0.54081(10)
N2 N 0.78883(13) 0.47864(8) 0.64691(10)
H1 H 0.7853 0.4742 0.6957
N3 N 0.74049(14) 0.44509(7) 0.59763(10)
C1 C 0.88957(13) 0.55867(8) 0.49298(12)
C2 C 0.93995(16) 0.54086(9) 0.42997(11)
H2 H 0.9461 0.5046 0.4210
C3 C 0.98110(17) 0.57697(10) 0.38031(13)
H3 H 1.0146 0.5646 0.3381
C4 C 0.97320(18) 0.63105(10) 0.39238(14)
C5 C 0.9206(2) 0.64823(10) 0.45486(15)
H4 H 0.9137 0.6845 0.4636
C6 C 0.87831(18) 0.61255(10) 0.50432(14)
H5 H 0.8423 0.6249 0.5452
C7 C 1.0220(3) 0.66988(14) 0.33947(19)
H6 H 1.0114 0.7055 0.3573
H7 H 0.9970 0.6662 0.2886
H8 H 1.0885 0.6627 0.3389
C8 C 0.84189(14) 0.51858(9) 0.61720(11)
C9 C 0.68544(16) 0.41050(9) 0.62652(13)
C10 C 0.6300(2) 0.37820(11) 0.56998(17)
H9 H 0.6424 0.3924 0.5193
H10 H 0.5636 0.3838 0.5805
C11 C 0.6470(3) 0.31894(13) 0.56713(19)
C12 C 0.6676(2) 0.40351(14) 0.71046(17)
H11 H 0.7242 0.3913 0.7350
H12 H 0.6183 0.3778 0.7178
H13 H 0.6489 0.4369 0.7324
O1 O 0.6285(3) 0.29160(13) 0.5138(2)
C13 C 0.7213(7) 0.2436(2) 0.6246(4)
H14 H 0.7212 0.2299 0.5726
H15 H 0.7831 0.2372 0.6466
C14 C 0.6501(10) 0.2163(3) 0.6696(5)
H16 H 0.6632 0.1789 0.6701
H17 H 0.5891 0.2224 0.6473
H18 H 0.6509 0.2297 0.7211
O2 O 0.7016(4) 0.30089(13) 0.6237(2)
H19 H 0.8246(18) 0.4946(12) 0.5181(15)
C15? C 0.6327(18) 0.2371(11) 0.6442(15)
C16? C 0.7322(16) 0.2172(10) 0.6520(14)
H20? H 0.6033 0.2200 0.6005
H21? H 0.5973 0.2272 0.6896
H22? H 0.7318 0.1792 0.6561
H23? H 0.7603 0.2322 0.6972
H24? H 0.7680 0.2276 0.6078
O3? O 0.6275(10) 0.2960(5) 0.6341(7)
loop_
_geom_bond_atom_site_label_1
_geom_bond_atom_site_label_2
_geom_bond_site_symmetry_1
_geom_bond_site_symmetry_2
S1 C8 1_555 1_555
N1 C1 1_555 1_555
N2 H1 1_555 1_555
N3 N2 1_555 1_555
C1 C2 1_555 1_555
C2 H2 1_555 1_555
C3 C2 1_555 1_555
H3 C3 1_555 1_555
C4 C3 1_555 1_555
C5 C4 1_555 1_555
H4 C5 1_555 1_555
C6 C1 1_555 1_555
H5 C6 1_555 1_555
C7 C4 1_555 1_555
H6 C7 1_555 1_555
H7 C7 1_555 1_555
H8 C7 1_555 1_555
C8 N1 1_555 1_555
C9 N3 1_555 1_555
C10 C9 1_555 1_555
H9 C10 1_555 1_555
H10 C10 1_555 1_555
C11 C10 1_555 1_555
C12 C9 1_555 1_555
H11 C12 1_555 1_555
H12 C12 1_555 1_555
H13 C12 1_555 1_555
O1 C11 1_555 1_555
C13 H14 1_555 1_555
H15 C13 1_555 1_555
C14 C13 1_555 1_555
H16 C14 1_555 1_555
H17 C14 1_555 1_555
H18 C14 1_555 1_555
O2 C11 1_555 1_555
H19 N1 1_555 1_555
N2 C8 1_555 1_555
C5 C6 1_555 1_555
C13 O2 1_555 1_555

#END
