
#######################################################################
#
#                 Cambridge Crystallographic Data Centre
#                                CCDC 
#
#######################################################################
#
# If this CIF has been generated from an entry in the Cambridge 
# Structural Database, then it will include bibliographic, chemical, 
# crystal, experimental, refinement or atomic coordinate data resulting 
# from the CCDC's data processing and validation procedures.
#
#######################################################################

data_VACKAN
_chemical_name_common            
2,2'-(3,8-Dioxa-2,9-diazadeca-1,9-diene-1,10-diyl)bis(4-methoxyphenol)
_chemical_formula_moiety         'C20 H24 N2 O6'
_chemical_name_systematic        
4,4'-Dimethoxy-2,2'-[(butane-1,4-diyldioxy)bis(nitrilomethylidyne)]diphenol
_symmetry_cell_setting           monoclinic
_symmetry_space_group_name_H-M   'P 21/c'
_symmetry_Int_Tables_number      14
_space_group_name_Hall           '-P 2ybc'
loop_
_symmetry_equiv_pos_site_id
_symmetry_equiv_pos_as_xyz
1 x,y,z
2 -x,1/2+y,1/2-z
3 -x,-y,-z
4 x,1/2-y,1/2+z
_cell_length_a                   4.7310(4)
_cell_length_b                   17.1418(16)
_cell_length_c                   12.2648(12)
_cell_angle_alpha                90
_cell_angle_beta                 90.9810(10)
_cell_angle_gamma                90
_cell_volume                     994.503
_exptl_crystal_colour            'pale yellow'
_exptl_crystal_description       needle
_chemical_melting_point          '398-399 K'
_cell_formula_units_Z            2
loop_
_atom_site_label
_atom_site_type_symbol
_atom_site_fract_x
_atom_site_fract_y
_atom_site_fract_z
N1 N 0.4274(5) 0.32971(13) 0.62366(17)
O1 O 0.2476(4) 0.37363(10) 0.55503(13)
O2 O 0.6869(5) 0.27865(12) 0.80239(14)
H1 H 0.5744 0.3054 0.7672
O3 O 1.2686(5) 0.07207(12) 0.54439(19)
C1 C 0.1003(7) 0.43013(16) 0.6187(2)
H2 H 0.2336 0.4642 0.6562
H3 H -0.0147 0.4043 0.6726
C2 C -0.0830(7) 0.47634(15) 0.5412(2)
H4 H -0.1998 0.5116 0.5829
H5 H -0.2080 0.4408 0.5021
C3 C 0.5649(7) 0.27896(16) 0.5696(2)
H6 H 0.5341 0.2752 0.4947
C4 C 0.7676(6) 0.22699(15) 0.6220(2)
C5 C 0.8222(7) 0.22862(17) 0.7338(2)
C6 C 1.0185(8) 0.17800(19) 0.7794(2)
H7 H 1.0521 0.1781 0.8544
C7 C 1.1646(8) 0.12723(18) 0.7136(3)
H8 H 1.2999 0.0942 0.7444
C8 C 1.1118(7) 0.12492(17) 0.6016(2)
C9 C 0.9145(6) 0.17495(16) 0.5571(2)
H9 H 0.8787 0.1740 0.4823
C10 C 1.2332(8) 0.07222(19) 0.4288(3)
H10 H 1.0414 0.0589 0.4099
H11 H 1.3588 0.0347 0.3975
H12 H 1.2757 0.1232 0.4010
N1B N -0.4274(5) 0.67029(13) 0.37634(17)
O1B O -0.2476(4) 0.62637(10) 0.44497(13)
O2B O -0.6869(5) 0.72135(12) 0.19761(14)
H1B H -0.5744 0.6946 0.2328
O3B O -1.2686(5) 0.92793(12) 0.45561(19)
C1B C -0.1003(7) 0.56987(16) 0.3813(2)
H2B H -0.2336 0.5358 0.3438
H3B H 0.0147 0.5957 0.3274
C2B C 0.0830(7) 0.52366(15) 0.4588(2)
H4B H 0.1998 0.4884 0.4171
H5B H 0.2080 0.5592 0.4979
C3B C -0.5649(7) 0.72104(16) 0.4304(2)
H6B H -0.5341 0.7248 0.5053
C4B C -0.7676(6) 0.77301(15) 0.3780(2)
C5B C -0.8222(7) 0.77138(17) 0.2662(2)
C6B C -1.0185(8) 0.82200(19) 0.2206(2)
H7B H -1.0521 0.8219 0.1456
C7B C -1.1646(8) 0.87277(18) 0.2864(3)
H8B H -1.2999 0.9058 0.2556
C8B C -1.1118(7) 0.87508(17) 0.3984(2)
C9B C -0.9145(6) 0.82505(16) 0.4429(2)
H9B H -0.8787 0.8260 0.5177
C10B C -1.2332(8) 0.92778(19) 0.5712(3)
H10B H -1.0414 0.9411 0.5901
H11B H -1.3588 0.9653 0.6025
H12B H -1.2757 0.8768 0.5990
loop_
_geom_bond_atom_site_label_1
_geom_bond_atom_site_label_2
_geom_bond_site_symmetry_1
_geom_bond_site_symmetry_2
N1 O1 1_555 1_555
O1 C1 1_555 1_555
O2 H1 1_555 1_555
O3 C8 1_555 1_555
C1 H2 1_555 1_555
H3 C1 1_555 1_555
C2 C1 1_555 1_555
H4 C2 1_555 1_555
H5 C2 1_555 1_555
C3 N1 1_555 1_555
H6 C3 1_555 1_555
C4 C3 1_555 1_555
C5 O2 1_555 1_555
C6 C5 1_555 1_555
H7 C6 1_555 1_555
C7 C6 1_555 1_555
H8 C7 1_555 1_555
C8 C7 1_555 1_555
C9 C4 1_555 1_555
H9 C9 1_555 1_555
C10 O3 1_555 1_555
H10 C10 1_555 1_555
H11 C10 1_555 1_555
H12 C10 1_555 1_555
N1B O1B 1_555 1_555
O1B C1B 1_555 1_555
O2B H1B 1_555 1_555
O3B C8B 1_555 1_555
C1B H2B 1_555 1_555
H3B C1B 1_555 1_555
C2B C2 1_555 1_555
H4B C2B 1_555 1_555
H5B C2B 1_555 1_555
C3B N1B 1_555 1_555
H6B C3B 1_555 1_555
C4B C3B 1_555 1_555
C5B O2B 1_555 1_555
C6B C5B 1_555 1_555
H7B C6B 1_555 1_555
C7B C6B 1_555 1_555
H8B C7B 1_555 1_555
C8B C7B 1_555 1_555
C9B C4B 1_555 1_555
H9B C9B 1_555 1_555
C10B O3B 1_555 1_555
H10B C10B 1_555 1_555
H11B C10B 1_555 1_555
H12B C10B 1_555 1_555
C4 C5 1_555 1_555
C8 C9 1_555 1_555
C1B C2B 1_555 1_555
C4B C5B 1_555 1_555
C8B C9B 1_555 1_555

#END
