
#######################################################################
#
#                 Cambridge Crystallographic Data Centre
#                                CCDC 
#
#######################################################################
#
# If this CIF has been generated from an entry in the Cambridge 
# Structural Database, then it will include bibliographic, chemical, 
# crystal, experimental, refinement or atomic coordinate data resulting 
# from the CCDC's data processing and validation procedures.
#
#######################################################################

data_VACVON
_chemical_formula_moiety         'C30 H27 F2 N3 O2'
_chemical_name_systematic        
5''-(2-fluorobenzylidene)-4'-(2-fluorophenyl)-1',1''-dimethyl-4''H-dispiro[indole-3,2'-pyrrolidine-3',3''-piperidine]-2,4''(1H)-dione
_symmetry_cell_setting           monoclinic
_symmetry_space_group_name_H-M   'P 21/c'
_symmetry_Int_Tables_number      14
_space_group_name_Hall           '-P 2ybc'
loop_
_symmetry_equiv_pos_site_id
_symmetry_equiv_pos_as_xyz
1 x,y,z
2 -x,1/2+y,1/2-z
3 -x,-y,-z
4 x,1/2-y,1/2+z
_cell_length_a                   10.2853(9)
_cell_length_b                   15.9349(14)
_cell_length_c                   17.3282(12)
_cell_angle_alpha                90
_cell_angle_beta                 119.641(4)
_cell_angle_gamma                90
_cell_volume                     2468.37
_exptl_crystal_colour            colorless
_exptl_crystal_description       Prism
_cell_formula_units_Z            4
loop_
_atom_site_label
_atom_site_type_symbol
_atom_site_fract_x
_atom_site_fract_y
_atom_site_fract_z
F1 F 0.07145(14) 0.95339(9) 0.24066(8)
F2 F 0.92914(17) 0.83509(9) 0.40591(11)
O1 O 0.52797(15) 0.84115(8) 0.29781(9)
O2 O 0.62171(13) 0.53906(8) 0.45545(9)
N1 N 0.56102(15) 0.73513(9) 0.52128(9)
N2 N 0.38020(15) 0.57037(9) 0.41958(9)
N3 N 0.50478(16) 0.62844(10) 0.27557(9)
C1 C 0.1173(2) 0.97528(12) 0.32556(13)
C2 C 0.0186(2) 1.01883(13) 0.34292(14)
H1 H -0.0771 1.0317 0.2975
C3 C 0.0649(2) 1.04287(12) 0.42892(14)
H2 H 0.0000 1.0723 0.4419
C4 C 0.2072(2) 1.02349(12) 0.49613(13)
H3 H 0.2384 1.0405 0.5540
C5 C 0.3039(2) 0.97845(11) 0.47709(13)
H4 H 0.3992 0.9653 0.5229
C6 C 0.2609(2) 0.95258(11) 0.39068(13)
C7 C 0.3563(2) 0.90600(11) 0.36466(12)
H5 H 0.3408 0.9175 0.3081
C8 C 0.46239(19) 0.84927(11) 0.41115(12)
C9 C 0.53408(19) 0.80872(11) 0.36297(11)
C10 C 0.60905(18) 0.72325(11) 0.39758(11)
C11 C 0.67848(18) 0.72364(11) 0.49842(11)
H6 H 0.7300 0.6710 0.5227
H7 H 0.7508 0.7688 0.5236
C12 C 0.50719(19) 0.82113(11) 0.50386(12)
H8 H 0.5851 0.8580 0.5460
H9 H 0.4218 0.8261 0.5130
C13 C 0.6142(2) 0.71313(13) 0.61377(12)
H10 H 0.5372 0.7246 0.6283
H11 H 0.7014 0.7457 0.6514
H12 H 0.6389 0.6545 0.6225
C14 C 0.48335(17) 0.65358(10) 0.34976(11)
C15 C 0.32191(18) 0.67641(11) 0.31867(11)
C16 C 0.22563(19) 0.73058(12) 0.25355(11)
H13 H 0.2579 0.7616 0.2207
C17 C 0.0796(2) 0.73846(13) 0.23741(12)
H14 H 0.0140 0.7752 0.1938
C18 C 0.03143(19) 0.69182(13) 0.28604(12)
H15 H -0.0655 0.6991 0.2758
C19 C 0.12486(19) 0.63454(12) 0.34960(11)
H16 H 0.0919 0.6023 0.3813
C20 C 0.26910(18) 0.62731(11) 0.36383(11)
C21 C 0.50677(18) 0.58129(11) 0.41521(11)
C22 C 0.66529(18) 0.62474(12) 0.30893(11)
H17 H 0.6872 0.6251 0.2605
H18 H 0.7086 0.5749 0.3447
C23 C 0.72398(19) 0.70401(11) 0.36511(11)
H19 H 0.7167 0.7497 0.3253
C24 C 0.4263(2) 0.55263(15) 0.22941(14)
H20 H 0.4609 0.5062 0.2700
H21 H 0.4454 0.5416 0.1815
H22 H 0.3208 0.5600 0.2062
C25 C 0.88638(19) 0.69789(13) 0.43730(12)
C26 C 0.9839(2) 0.76386(15) 0.45342(16)
C27 C 1.1363(3) 0.7597(2) 0.51583(19)
H23 H 1.1984 0.8054 0.5248
C28 C 1.1931(3) 0.6871(2) 0.56363(17)
H24 H 1.2949 0.6826 0.6038
C29 C 1.0998(2) 0.6221(2) 0.55192(14)
H25 H 1.1376 0.5738 0.5860
C30 C 0.9483(2) 0.62686(15) 0.48957(12)
H26 H 0.8868 0.5814 0.4826
loop_
_geom_bond_atom_site_label_1
_geom_bond_atom_site_label_2
_geom_bond_site_symmetry_1
_geom_bond_site_symmetry_2
F1 C1 1_555 1_555
F2 C26 1_555 1_555
O1 C9 1_555 1_555
O2 C21 1_555 1_555
N1 C11 1_555 1_555
N2 C20 1_555 1_555
N3 C14 1_555 1_555
C1 C2 1_555 1_555
C2 H1 1_555 1_555
C3 C2 1_555 1_555
H2 C3 1_555 1_555
C4 C3 1_555 1_555
H3 C4 1_555 1_555
C5 C4 1_555 1_555
H4 C5 1_555 1_555
C6 C1 1_555 1_555
C7 C6 1_555 1_555
H5 C7 1_555 1_555
C8 C7 1_555 1_555
C9 C8 1_555 1_555
C10 C9 1_555 1_555
C11 C10 1_555 1_555
H6 C11 1_555 1_555
H7 C11 1_555 1_555
C12 N1 1_555 1_555
H8 C12 1_555 1_555
H9 C12 1_555 1_555
C13 N1 1_555 1_555
H10 C13 1_555 1_555
H11 C13 1_555 1_555
H12 C13 1_555 1_555
C14 C10 1_555 1_555
C15 C14 1_555 1_555
C16 C15 1_555 1_555
H13 C16 1_555 1_555
C17 C16 1_555 1_555
H14 C17 1_555 1_555
C18 C17 1_555 1_555
H15 C18 1_555 1_555
C19 C18 1_555 1_555
H16 C19 1_555 1_555
C20 C15 1_555 1_555
C21 N2 1_555 1_555
C22 N3 1_555 1_555
H17 C22 1_555 1_555
H18 C22 1_555 1_555
C23 C10 1_555 1_555
H19 C23 1_555 1_555
C24 N3 1_555 1_555
H20 C24 1_555 1_555
H21 C24 1_555 1_555
H22 C24 1_555 1_555
C25 C23 1_555 1_555
C26 C25 1_555 1_555
C27 C26 1_555 1_555
H23 C27 1_555 1_555
C28 C27 1_555 1_555
H24 C28 1_555 1_555
C29 C28 1_555 1_555
H25 C29 1_555 1_555
C30 C25 1_555 1_555
H26 C30 1_555 1_555
C5 C6 1_555 1_555
C8 C12 1_555 1_555
C14 C21 1_555 1_555
C19 C20 1_555 1_555
C22 C23 1_555 1_555
C29 C30 1_555 1_555

#END
