
#######################################################################
#
#                 Cambridge Crystallographic Data Centre
#                                CCDC 
#
#######################################################################
#
# If this CIF has been generated from an entry in the Cambridge 
# Structural Database, then it will include bibliographic, chemical, 
# crystal, experimental, refinement or atomic coordinate data resulting 
# from the CCDC's data processing and validation procedures.
#
#######################################################################

data_VADGEO
_chemical_formula_moiety         'C12 H13 Cl1 O2'
_chemical_name_systematic        
1-(2-Chloroprop-2-en-1-yl)-2-methyl-8-oxatetracyclo[4.3.0.0^2,4^.0^3,7^]nonan-9-one
_symmetry_cell_setting           orthorhombic
_symmetry_space_group_name_H-M   'P 21 21 21'
_symmetry_Int_Tables_number      19
_space_group_name_Hall           'P 2ac 2ab'
loop_
_symmetry_equiv_pos_site_id
_symmetry_equiv_pos_as_xyz
1 x,y,z
2 1/2-x,-y,1/2+z
3 -x,1/2+y,1/2-z
4 1/2+x,1/2-y,-z
_cell_length_a                   6.79200(10)
_cell_length_b                   12.2189(2)
_cell_length_c                   13.1263(2)
_cell_angle_alpha                90
_cell_angle_beta                 90
_cell_angle_gamma                90
_cell_volume                     1089.36
_exptl_crystal_colour            colorless
_exptl_crystal_description       block
_cell_formula_units_Z            4
loop_
_atom_site_label
_atom_site_type_symbol
_atom_site_fract_x
_atom_site_fract_y
_atom_site_fract_z
Cl1 Cl -0.15476(7) 0.20805(3) 0.90598(3)
O1 O -0.06330(16) 0.15939(8) 0.65776(9)
O2 O 0.26339(15) 0.16137(7) 0.68169(8)
C1 C 0.0786(3) 0.42029(13) 0.54794(11)
H1 H -0.0202 0.4734 0.5706
H2 H 0.0126 0.3570 0.5175
H3 H 0.1649 0.4545 0.4973
C2 C 0.4028(2) 0.33365(11) 0.62819(11)
H4 H 0.4727 0.3239 0.5618
C3 C -0.1260(2) 0.41711(11) 0.95743(10)
H5 H -0.1063 0.4929 0.9452
H6 H -0.1515 0.3918 1.0246
C4 C 0.4024(2) 0.24788(10) 0.71124(11)
H7 H 0.5357 0.2213 0.7321
C5 C 0.3752(2) 0.44444(10) 0.67892(11)
H8 H 0.4246 0.5134 0.6469
C6 C 0.37992(19) 0.42746(11) 0.79254(10)
H9 H 0.2969 0.4810 0.8294
H10 H 0.5155 0.4287 0.8202
C7 C 0.0812(2) 0.20624(9) 0.68708(10)
C8 C 0.19834(19) 0.38382(9) 0.63691(9)
C9 C 0.29164(16) 0.31330(9) 0.79310(9)
H11 H 0.2771 0.2775 0.8612
C10 C -0.11787(16) 0.34722(9) 0.88154(9)
C11 C -0.07902(15) 0.37541(9) 0.77235(9)
H12 H -0.0651 0.4558 0.7665
H13 H -0.1946 0.3534 0.7312
C12 C 0.10355(16) 0.32180(8) 0.72765(8)
loop_
_geom_bond_atom_site_label_1
_geom_bond_atom_site_label_2
_geom_bond_site_symmetry_1
_geom_bond_site_symmetry_2
Cl1 C10 1_555 1_555
O1 C7 1_555 1_555
O2 C4 1_555 1_555
C1 H1 1_555 1_555
H2 C1 1_555 1_555
H3 C1 1_555 1_555
C2 H4 1_555 1_555
C3 H5 1_555 1_555
H6 C3 1_555 1_555
C4 C2 1_555 1_555
H7 C4 1_555 1_555
C5 C2 1_555 1_555
H8 C5 1_555 1_555
C6 C5 1_555 1_555
H9 C6 1_555 1_555
H10 C6 1_555 1_555
C7 O2 1_555 1_555
C8 C1 1_555 1_555
C9 C4 1_555 1_555
H11 C9 1_555 1_555
C10 C3 1_555 1_555
C11 C10 1_555 1_555
H12 C11 1_555 1_555
H13 C11 1_555 1_555
C12 C7 1_555 1_555
C2 C8 1_555 1_555
C5 C8 1_555 1_555
C6 C9 1_555 1_555
C8 C12 1_555 1_555
C9 C12 1_555 1_555
C11 C12 1_555 1_555

#END
