
#######################################################################
#
#                 Cambridge Crystallographic Data Centre
#                                CCDC 
#
#######################################################################
#
# If this CIF has been generated from an entry in the Cambridge 
# Structural Database, then it will include bibliographic, chemical, 
# crystal, experimental, refinement or atomic coordinate data resulting 
# from the CCDC's data processing and validation procedures.
#
#######################################################################

data_VAFSUT
_chemical_formula_moiety         'C24 H42 Br1 Li2 N5'
_chemical_name_systematic        
(\m-bromo)-(\m-diphenyamido)-bis(N,N,N',N'-tetramethylethane-1,2-diamine)-di-lithium
_symmetry_cell_setting           orthorhombic
_symmetry_space_group_name_H-M   'P b c a'
_symmetry_Int_Tables_number      61
_space_group_name_Hall           '-P 2ac 2ab'
loop_
_symmetry_equiv_pos_site_id
_symmetry_equiv_pos_as_xyz
1 x,y,z
2 1/2-x,-y,1/2+z
3 -x,1/2+y,1/2-z
4 1/2+x,1/2-y,-z
5 -x,-y,-z
6 1/2+x,y,1/2-z
7 x,1/2-y,1/2+z
8 1/2-x,1/2+y,z
_cell_length_a                   16.2498(12)
_cell_length_b                   10.6751(8)
_cell_length_c                   31.989(3)
_cell_angle_alpha                90
_cell_angle_beta                 90
_cell_angle_gamma                90
_cell_volume                     5549.08
_exptl_crystal_colour            colorless
_exptl_crystal_description       slab
_cell_formula_units_Z            8
_exptl_crystal_recrystallization_method toluene
loop_
_atom_site_label
_atom_site_type_symbol
_atom_site_fract_x
_atom_site_fract_y
_atom_site_fract_z
Br1 Br 0.56058(2) 0.49118(2) 0.11707(2)
Li1 Li 0.5834(3) 0.2564(4) 0.12975(14)
Li2 Li 0.4239(3) 0.3718(4) 0.12371(14)
N1 N 0.46431(12) 0.19825(18) 0.14344(6)
N2 N 0.66296(14) 0.1968(2) 0.08103(7)
N3 N 0.67904(13) 0.2001(2) 0.17239(7)
N4 N 0.35557(14) 0.4276(2) 0.06804(7)
N5 N 0.33235(13) 0.4732(2) 0.15865(7)
C1 C 0.45843(15) 0.0879(2) 0.11996(8)
C2 C 0.43574(17) 0.0985(3) 0.07795(8)
H1 H 0.4215 0.1787 0.0673
C3 C 0.4334(2) -0.0041(3) 0.05127(9)
H2 H 0.4170 0.0070 0.0230
C4 C 0.4545(2) -0.1219(3) 0.06537(10)
H3 H 0.4525 -0.1922 0.0472
C5 C 0.4785(2) -0.1350(3) 0.10644(10)
H4 H 0.4942 -0.2153 0.1165
C6 C 0.48036(17) -0.0329(2) 0.13355(9)
H5 H 0.4968 -0.0451 0.1618
C7 C 0.45569(14) 0.1958(2) 0.18684(8)
C8 C 0.48739(15) 0.2977(2) 0.20969(8)
H6 H 0.5149 0.3630 0.1951
C9 C 0.47976(15) 0.3059(2) 0.25273(8)
H7 H 0.5026 0.3757 0.2671
C10 C 0.43912(17) 0.2132(3) 0.27515(8)
H8 H 0.4346 0.2177 0.3047
C11 C 0.40537(16) 0.1139(3) 0.25318(9)
H9 H 0.3764 0.0506 0.2680
C12 C 0.41278(15) 0.1048(2) 0.21025(8)
H10 H 0.3885 0.0357 0.1962
C13 C 0.6580(3) 0.2797(4) 0.04397(12)
H11 H 0.6595 0.3674 0.0530
H12 H 0.6065 0.2635 0.0290
H13 H 0.7047 0.2629 0.0254
C14 C 0.6538(2) 0.0683(3) 0.06660(12)
H14 H 0.7028 0.0439 0.0506
H15 H 0.6051 0.0619 0.0487
H16 H 0.6476 0.0125 0.0907
C15 C 0.7403(2) 0.2220(4) 0.10197(11)
H17 H 0.7468 0.3137 0.1052
H18 H 0.7860 0.1915 0.0842
C16 C 0.74634(18) 0.1618(3) 0.14400(9)
H19 H 0.7451 0.0697 0.1406
H20 H 0.7998 0.1844 0.1568
C17 C 0.65977(19) 0.0966(3) 0.20108(9)
H21 H 0.7083 0.0773 0.2181
H22 H 0.6440 0.0224 0.1849
H23 H 0.6141 0.1211 0.2194
C18 C 0.70428(18) 0.3096(3) 0.19689(11)
H24 H 0.7549 0.2902 0.2122
H25 H 0.6607 0.3313 0.2168
H26 H 0.7141 0.3805 0.1781
C19 C 0.2884(2) 0.3461(3) 0.05401(11)
H27 H 0.2571 0.3167 0.0783
H28 H 0.3113 0.2740 0.0390
H29 H 0.2519 0.3931 0.0353
C20 C 0.4082(2) 0.4568(3) 0.03226(10)
H30 H 0.4327 0.3794 0.0215
H31 H 0.4519 0.5144 0.0410
H32 H 0.3751 0.4963 0.0103
C21 C 0.3210(2) 0.5449(3) 0.08578(10)
H33 H 0.2826 0.5826 0.0653
H34 H 0.3663 0.6053 0.0906
C22 C 0.27612(19) 0.5228(3) 0.12633(9)
H35 H 0.2518 0.6026 0.1362
H36 H 0.2308 0.4625 0.1217
C23 C 0.28651(18) 0.4001(3) 0.18991(10)
H37 H 0.3247 0.3688 0.2112
H38 H 0.2593 0.3292 0.1762
H39 H 0.2450 0.4536 0.2032
C24 C 0.37366(19) 0.5781(3) 0.18006(9)
H40 H 0.3326 0.6292 0.1946
H41 H 0.4026 0.6297 0.1594
H42 H 0.4133 0.5450 0.2003
loop_
_geom_bond_atom_site_label_1
_geom_bond_atom_site_label_2
_geom_bond_site_symmetry_1
_geom_bond_site_symmetry_2
Br1 Li1 1_555 1_555
Li1 N1 1_555 1_555
Li2 Br1 1_555 1_555
N1 Li2 1_555 1_555
N2 Li1 1_555 1_555
N3 Li1 1_555 1_555
N4 Li2 1_555 1_555
N5 Li2 1_555 1_555
C1 N1 1_555 1_555
C2 C1 1_555 1_555
H1 C2 1_555 1_555
C3 C2 1_555 1_555
H2 C3 1_555 1_555
C4 C3 1_555 1_555
H3 C4 1_555 1_555
C5 C4 1_555 1_555
H4 C5 1_555 1_555
C6 C1 1_555 1_555
H5 C6 1_555 1_555
C7 N1 1_555 1_555
C8 C7 1_555 1_555
H6 C8 1_555 1_555
C9 C8 1_555 1_555
H7 C9 1_555 1_555
C10 C9 1_555 1_555
H8 C10 1_555 1_555
C11 C10 1_555 1_555
H9 C11 1_555 1_555
C12 C7 1_555 1_555
H10 C12 1_555 1_555
C13 N2 1_555 1_555
H11 C13 1_555 1_555
H12 C13 1_555 1_555
H13 C13 1_555 1_555
C14 N2 1_555 1_555
H14 C14 1_555 1_555
H15 C14 1_555 1_555
H16 C14 1_555 1_555
C15 N2 1_555 1_555
H17 C15 1_555 1_555
H18 C15 1_555 1_555
C16 N3 1_555 1_555
H19 C16 1_555 1_555
H20 C16 1_555 1_555
C17 N3 1_555 1_555
H21 C17 1_555 1_555
H22 C17 1_555 1_555
H23 C17 1_555 1_555
C18 N3 1_555 1_555
H24 C18 1_555 1_555
H25 C18 1_555 1_555
H26 C18 1_555 1_555
C19 N4 1_555 1_555
H27 C19 1_555 1_555
H28 C19 1_555 1_555
H29 C19 1_555 1_555
C20 N4 1_555 1_555
H30 C20 1_555 1_555
H31 C20 1_555 1_555
H32 C20 1_555 1_555
C21 N4 1_555 1_555
H33 C21 1_555 1_555
H34 C21 1_555 1_555
C22 N5 1_555 1_555
H35 C22 1_555 1_555
H36 C22 1_555 1_555
C23 N5 1_555 1_555
H37 C23 1_555 1_555
H38 C23 1_555 1_555
H39 C23 1_555 1_555
C24 N5 1_555 1_555
H40 C24 1_555 1_555
H41 C24 1_555 1_555
H42 C24 1_555 1_555
C5 C6 1_555 1_555
C11 C12 1_555 1_555
C15 C16 1_555 1_555
C21 C22 1_555 1_555

#END
