
#######################################################################
#
#                 Cambridge Crystallographic Data Centre
#                                CCDC 
#
#######################################################################
#
# If this CIF has been generated from an entry in the Cambridge 
# Structural Database, then it will include bibliographic, chemical, 
# crystal, experimental, refinement or atomic coordinate data resulting 
# from the CCDC's data processing and validation procedures.
#
#######################################################################

data_VAFSAY
_chemical_formula_moiety         'C19 H15 Cl2 N1 O5'
_chemical_name_systematic        
'Methyl 3-(2,4-dichlorophenyl)-2-((1,3-dioxo-1,3-dihydro-2H-isoindol-2-yl)methyl)-3-hydroxypropanoate'
_symmetry_cell_setting           monoclinic
_symmetry_space_group_name_H-M   'P 21/c'
_symmetry_Int_Tables_number      14
_space_group_name_Hall           '-P 2ybc'
loop_
_symmetry_equiv_pos_site_id
_symmetry_equiv_pos_as_xyz
1 x,y,z
2 -x,1/2+y,1/2-z
3 -x,-y,-z
4 x,1/2-y,1/2+z
_cell_length_a                   10.2329(5)
_cell_length_b                   41.119(2)
_cell_length_c                   8.6616(4)
_cell_angle_alpha                90
_cell_angle_beta                 98.394(3)
_cell_angle_gamma                90
_cell_volume                     3605.47
_exptl_crystal_colour            colorless
_exptl_crystal_description       prism
_cell_formula_units_Z            8
loop_
_atom_site_label
_atom_site_type_symbol
_atom_site_fract_x
_atom_site_fract_y
_atom_site_fract_z
C1 C 0.6566(4) 0.04071(10) 0.3402(5)
C2 C 0.6628(4) 0.01416(10) 0.4389(6)
H1 H 0.6604 -0.0071 0.3983
C3 C 0.6724(4) 0.01915(11) 0.5976(6)
C4 C 0.6702(4) 0.05047(11) 0.6569(5)
H2 H 0.6730 0.0539 0.7646
C5 C 0.6640(4) 0.07634(10) 0.5561(5)
H3 H 0.6626 0.0975 0.5970
C6 C 0.6599(3) 0.07261(9) 0.3960(4)
C7 C 0.6588(4) 0.10173(9) 0.2890(5)
H4 H 0.5864 0.0987 0.2011
C8 C 0.7896(3) 0.10576(9) 0.2205(4)
H5 H 0.8119 0.0845 0.1777
C9 C 0.7717(4) 0.13023(9) 0.0869(4)
C10 C 0.6411(4) 0.14550(10) -0.1474(5)
H6 H 0.5652 0.1379 -0.2187
H7 H 0.7170 0.1471 -0.2024
H8 H 0.6222 0.1667 -0.1071
C11 C 0.9089(4) 0.11724(9) 0.3334(4)
H9 H 0.9854 0.1179 0.2774
H10 H 0.8921 0.1396 0.3649
C12 C 0.9894(4) 0.06581(9) 0.4743(5)
C13 C 1.0171(4) 0.05611(9) 0.6400(5)
C14 C 1.0589(4) 0.02704(10) 0.7095(5)
H11 H 1.0757 0.0089 0.6493
C15 C 1.0754(4) 0.02544(11) 0.8701(6)
H12 H 1.1043 0.0059 0.9197
C16 C 1.0508(4) 0.05165(12) 0.9598(5)
H13 H 1.0630 0.0497 1.0691
C17 C 1.0080(4) 0.08112(11) 0.8910(5)
H14 H 0.9913 0.0992 0.9517
C18 C 0.9912(4) 0.08269(9) 0.7306(4)
C19 C 0.9446(4) 0.10984(9) 0.6241(4)
N1 N 0.9434(3) 0.09785(7) 0.4734(4)
O1 O 0.6309(3) 0.12983(7) 0.3726(3)
H29 H 0.6297 0.1460 0.3151
O2 O 0.8418(3) 0.15350(7) 0.0776(3)
O3 O 0.6695(3) 0.12280(7) -0.0196(3)
O4 O 1.0012(3) 0.05053(7) 0.3567(3)
O5 O 0.9110(3) 0.13697(7) 0.6550(3)
Cl1 Cl 0.64037(13) 0.03289(3) 0.14140(14)
Cl2 Cl 0.68609(13) -0.01383(3) 0.72450(17)
C20 C 0.2757(4) 0.12038(10) 0.3512(5)
C21 C 0.3207(4) 0.09988(10) 0.4734(5)
H15 H 0.3569 0.0795 0.4549
C22 C 0.3115(4) 0.10999(11) 0.6237(5)
C23 C 0.2606(4) 0.14023(11) 0.6504(6)
H16 H 0.2573 0.1474 0.7529
C24 C 0.2149(4) 0.15984(11) 0.5250(6)
H17 H 0.1796 0.1803 0.5440
C25 C 0.2189(4) 0.15051(10) 0.3719(5)
C26 C 0.1582(4) 0.17109(11) 0.2343(6)
H18 H 0.1156 0.1563 0.1517
C27 C 0.2612(4) 0.19205(9) 0.1646(5)
H19 H 0.3211 0.1771 0.1191
C28 C 0.1874(4) 0.21207(10) 0.0321(5)
C29 C 0.0472(5) 0.20787(11) -0.2096(5)
H20 H 0.0087 0.1915 -0.2828
H21 H 0.1016 0.2224 -0.2612
H22 H -0.0226 0.2202 -0.1720
C30 C 0.3453(4) 0.21311(10) 0.2844(5)
H23 H 0.2891 0.2294 0.3248
H24 H 0.3843 0.1995 0.3721
C31 C 0.5535(4) 0.21298(9) 0.1648(4)
C32 C 0.6378(4) 0.23802(9) 0.1040(4)
C33 C 0.7515(4) 0.23510(10) 0.0388(5)
H25 H 0.7888 0.2146 0.0248
C34 C 0.8102(4) 0.26370(11) -0.0062(5)
H26 H 0.8891 0.2625 -0.0497
C35 C 0.7527(4) 0.29386(11) 0.0129(5)
H27 H 0.7925 0.3128 -0.0197
C36 C 0.6381(4) 0.29651(10) 0.0789(5)
H28 H 0.5996 0.3169 0.0916
C37 C 0.5822(4) 0.26840(9) 0.1254(4)
C38 C 0.4646(4) 0.26330(9) 0.2053(5)
N2 N 0.4510(3) 0.22961(7) 0.2177(4)
O6 O 0.0597(3) 0.19198(9) 0.2787(5)
H30 H 0.0268 0.2029 0.2022
O7 O 0.1818(3) 0.24113(7) 0.0282(3)
O8 O 0.1282(3) 0.19223(7) -0.0788(3)
O9 O 0.5677(3) 0.18371(6) 0.1681(3)
O10 O 0.3963(3) 0.28350(7) 0.2564(4)
Cl3 Cl 0.28935(13) 0.10680(3) 0.16323(14)
Cl4 Cl 0.36420(12) 0.08392(3) 0.77852(14)
loop_
_geom_bond_atom_site_label_1
_geom_bond_atom_site_label_2
_geom_bond_site_symmetry_1
_geom_bond_site_symmetry_2
C1 C2 1_555 1_555
C2 H1 1_555 1_555
C3 C2 1_555 1_555
C4 C3 1_555 1_555
H2 C4 1_555 1_555
C5 C4 1_555 1_555
H3 C5 1_555 1_555
C6 C1 1_555 1_555
C7 C6 1_555 1_555
H4 C7 1_555 1_555
C8 C7 1_555 1_555
H5 C8 1_555 1_555
C9 C8 1_555 1_555
C10 H6 1_555 1_555
H7 C10 1_555 1_555
H8 C10 1_555 1_555
C11 C8 1_555 1_555
H9 C11 1_555 1_555
H10 C11 1_555 1_555
C12 C13 1_555 1_555
C13 C14 1_555 1_555
C14 H11 1_555 1_555
C15 C14 1_555 1_555
H12 C15 1_555 1_555
C16 C15 1_555 1_555
H13 C16 1_555 1_555
C17 C16 1_555 1_555
H14 C17 1_555 1_555
C18 C13 1_555 1_555
C19 C18 1_555 1_555
C20 C21 1_555 1_555
C21 H15 1_555 1_555
C22 C21 1_555 1_555
C23 C22 1_555 1_555
H16 C23 1_555 1_555
C24 C23 1_555 1_555
H17 C24 1_555 1_555
C25 C20 1_555 1_555
C26 C25 1_555 1_555
H18 C26 1_555 1_555
C27 C26 1_555 1_555
H19 C27 1_555 1_555
C28 C27 1_555 1_555
C29 H20 1_555 1_555
H21 C29 1_555 1_555
H22 C29 1_555 1_555
C30 C27 1_555 1_555
H23 C30 1_555 1_555
H24 C30 1_555 1_555
C31 C32 1_555 1_555
C32 C33 1_555 1_555
C33 H25 1_555 1_555
C34 C33 1_555 1_555
H26 C34 1_555 1_555
C35 C34 1_555 1_555
H27 C35 1_555 1_555
C36 C35 1_555 1_555
H28 C36 1_555 1_555
C37 C32 1_555 1_555
C38 C37 1_555 1_555
N1 C11 1_555 1_555
N2 C30 1_555 1_555
O1 C7 1_555 1_555
H29 O1 1_555 1_555
O2 C9 1_555 1_555
O3 C9 1_555 1_555
O4 C12 1_555 1_555
O5 C19 1_555 1_555
O6 C26 1_555 1_555
H30 O6 1_555 1_555
O7 C28 1_555 1_555
O8 C28 1_555 1_555
O9 C31 1_555 1_555
O10 C38 1_555 1_555
Cl1 C1 1_555 1_555
Cl2 C3 1_555 1_555
Cl3 C20 1_555 1_555
Cl4 C22 1_555 1_555
C5 C6 1_555 1_555
C10 O3 1_555 1_555
C12 N1 1_555 1_555
C17 C18 1_555 1_555
C19 N1 1_555 1_555
C24 C25 1_555 1_555
C29 O8 1_555 1_555
C31 N2 1_555 1_555
C36 C37 1_555 1_555
C38 N2 1_555 1_555

#END
