
#######################################################################
#
#                 Cambridge Crystallographic Data Centre
#                                CCDC 
#
#######################################################################
#
# If this CIF has been generated from an entry in the Cambridge 
# Structural Database, then it will include bibliographic, chemical, 
# crystal, experimental, refinement or atomic coordinate data resulting 
# from the CCDC's data processing and validation procedures.
#
#######################################################################

data_VAFSEC
_chemical_formula_moiety         'C17 H18 N4 O4 S1'
_chemical_name_systematic        
5-Azido-4-phenyl-1-(phenylsulfonyl)piperidine-3,4-diol
_symmetry_cell_setting           monoclinic
_symmetry_space_group_name_H-M   'P 21/n'
_symmetry_Int_Tables_number      14
_space_group_name_Hall           '-P 2yn'
loop_
_symmetry_equiv_pos_site_id
_symmetry_equiv_pos_as_xyz
1 x,y,z
2 1/2-x,1/2+y,1/2-z
3 -x,-y,-z
4 1/2+x,1/2-y,1/2+z
_cell_length_a                   8.4093(4)
_cell_length_b                   10.0507(4)
_cell_length_c                   21.1495(9)
_cell_angle_alpha                90
_cell_angle_beta                 91.3410(10)
_cell_angle_gamma                90
_cell_volume                     1787.05
_exptl_crystal_colour            colorless
_cell_formula_units_Z            4
loop_
_atom_site_label
_atom_site_type_symbol
_atom_site_fract_x
_atom_site_fract_y
_atom_site_fract_z
C1 C 0.4752(2) -0.02511(16) 0.16930(7)
H1 H 0.5382 0.0311 0.1423
H2 H 0.4368 -0.1002 0.1446
C2 C 0.57596(17) -0.07359(14) 0.22511(7)
H3 H 0.5158 -0.1390 0.2492
C3 C 0.62966(16) 0.04090(13) 0.26904(7)
C4 C 0.48642(17) 0.12960(13) 0.28664(7)
H4 H 0.5258 0.2092 0.3088
C5 C 0.38968(19) 0.17182(15) 0.22817(7)
H5 H 0.2969 0.2220 0.2405
H6 H 0.4536 0.2277 0.2013
C6 C 0.72142(18) -0.01363(15) 0.32673(7)
C7 C 0.8697(2) 0.03559(19) 0.34449(9)
H7 H 0.9156 0.1034 0.3212
C8 C 0.9503(3) -0.0163(3) 0.39728(12)
H8 H 1.0496 0.0176 0.4089
C9 C 0.8863(3) -0.1155(3) 0.43192(10)
H9 H 0.9413 -0.1488 0.4671
C10 C 0.7404(3) -0.1664(2) 0.41491(9)
H10 H 0.6958 -0.2341 0.4387
C11 C 0.6594(2) -0.11675(17) 0.36227(8)
H11 H 0.5615 -0.1532 0.3505
C12 C 0.19104(17) 0.09673(17) 0.08043(7)
C13 C 0.1990(2) 0.23228(19) 0.06994(9)
H12 H 0.1926 0.2916 0.1036
C14 C 0.2164(3) 0.2789(2) 0.00899(10)
H13 H 0.2208 0.3700 0.0015
C15 C 0.2273(3) 0.1917(3) -0.04037(10)
H14 H 0.2398 0.2236 -0.0812
C16 C 0.2198(3) 0.0578(3) -0.02972(10)
H15 H 0.2267 -0.0010 -0.0635
C17 C 0.2021(3) 0.0088(2) 0.03076(9)
H16 H 0.1977 -0.0824 0.0378
O1 O 0.71266(13) -0.13515(11) 0.20009(5)
H17 H 0.7374 -0.1998 0.2218
O2 O 0.72589(12) 0.12968(10) 0.23353(5)
H18 H 0.8032 0.0894 0.2204
O3 O 0.13630(16) -0.10273(13) 0.15296(6)
O4 O 0.06116(13) 0.12086(13) 0.19058(6)
S1 S 0.16935(5) 0.03600(4) 0.158146(18)
N1 N 0.34034(16) 0.05056(13) 0.19387(6)
N2 N 0.3777(6) 0.0535(3) 0.32959(17)
N3 N 0.3758(3) 0.0976(3) 0.38275(11)
N4 N 0.3635(5) 0.1234(4) 0.43424(13)
N5? N 0.385(4) 0.076(3) 0.3217(12)
N6? N 0.321(2) 0.1172(18) 0.3693(7)
N7? N 0.260(3) 0.164(2) 0.4106(8)
loop_
_geom_bond_atom_site_label_1
_geom_bond_atom_site_label_2
_geom_bond_site_symmetry_1
_geom_bond_site_symmetry_2
C1 H1 1_555 1_555
H2 C1 1_555 1_555
C2 C1 1_555 1_555
H3 C2 1_555 1_555
C3 C2 1_555 1_555
C4 C3 1_555 1_555
H4 C4 1_555 1_555
C5 C4 1_555 1_555
H5 C5 1_555 1_555
H6 C5 1_555 1_555
C6 C3 1_555 1_555
C7 C6 1_555 1_555
H7 C7 1_555 1_555
C8 C7 1_555 1_555
H8 C8 1_555 1_555
C9 C8 1_555 1_555
H9 C9 1_555 1_555
C10 C9 1_555 1_555
H10 C10 1_555 1_555
C11 C6 1_555 1_555
H11 C11 1_555 1_555
C12 C13 1_555 1_555
C13 H12 1_555 1_555
C14 C13 1_555 1_555
H13 C14 1_555 1_555
C15 C14 1_555 1_555
H14 C15 1_555 1_555
C16 C15 1_555 1_555
H15 C16 1_555 1_555
C17 C12 1_555 1_555
H16 C17 1_555 1_555
O1 C2 1_555 1_555
H17 O1 1_555 1_555
O2 C3 1_555 1_555
H18 O2 1_555 1_555
O3 S1 1_555 1_555
O4 S1 1_555 1_555
S1 C12 1_555 1_555
N1 C1 1_555 1_555
N2 C4 1_555 1_555
N3 N2 1_555 1_555
N4 N3 1_555 1_555
C5 N1 1_555 1_555
C10 C11 1_555 1_555
C16 C17 1_555 1_555
S1 N1 1_555 1_555

#END
