
#######################################################################
#
#                 Cambridge Crystallographic Data Centre
#                                CCDC 
#
#######################################################################
#
# If this CIF has been generated from an entry in the Cambridge 
# Structural Database, then it will include bibliographic, chemical, 
# crystal, experimental, refinement or atomic coordinate data resulting 
# from the CCDC's data processing and validation procedures.
#
#######################################################################

data_VAFTED
_chemical_formula_moiety         'C18 H17 F3 O2'
_chemical_name_systematic        
bis(4-fluorophenyl)(4-fluorotetrahydro-2H-pyran-4-yl)methanol
_symmetry_cell_setting           monoclinic
_symmetry_space_group_name_H-M   'P 21/c'
_symmetry_Int_Tables_number      14
_space_group_name_Hall           '-P 2ybc'
loop_
_symmetry_equiv_pos_site_id
_symmetry_equiv_pos_as_xyz
1 x,y,z
2 -x,1/2+y,1/2-z
3 -x,-y,-z
4 x,1/2-y,1/2+z
_cell_length_a                   9.0753(3)
_cell_length_b                   18.3180(5)
_cell_length_c                   10.3404(3)
_cell_angle_alpha                90
_cell_angle_beta                 115.7480(10)
_cell_angle_gamma                90
_cell_volume                     1548.33
_exptl_crystal_colour            colorless
_cell_formula_units_Z            4
loop_
_atom_site_label
_atom_site_type_symbol
_atom_site_fract_x
_atom_site_fract_y
_atom_site_fract_z
C1 C 0.32087(18) 0.39555(8) 0.05697(15)
C2 C 0.4225(2) 0.39305(9) -0.02781(17)
H1 H 0.5161 0.4252 0.0168
H2 H 0.4630 0.3438 -0.0256
C3 C 0.3221(2) 0.41619(10) -0.18281(17)
H3 H 0.3914 0.4162 -0.2326
H4 H 0.2350 0.3811 -0.2300
C4 C 0.1420(2) 0.48666(11) -0.12765(19)
H5 H 0.0558 0.4514 -0.1763
H6 H 0.0920 0.5345 -0.1387
C5 C 0.2294(2) 0.46762(10) 0.03080(17)
H7 H 0.1499 0.4648 0.0700
H8 H 0.3063 0.5062 0.0810
C6 C 0.42233(18) 0.38002(8) 0.22152(15)
C7 C 0.30875(18) 0.38135(8) 0.29679(15)
C8 C 0.3039(2) 0.44179(9) 0.37547(15)
H9 H 0.3716 0.4814 0.3839
C9 C 0.1999(2) 0.44440(11) 0.44186(17)
H10 H 0.1977 0.4850 0.4950
C10 C 0.1013(2) 0.38583(11) 0.42698(18)
C11 C 0.1005(2) 0.32504(10) 0.34986(19)
H11 H 0.0309 0.2861 0.3410
C12 C 0.2062(2) 0.32288(9) 0.28505(18)
H12 H 0.2083 0.2818 0.2331
C13 C 0.52081(18) 0.30837(8) 0.25583(16)
C14 C 0.6602(2) 0.30459(10) 0.38485(19)
H13 H 0.6895 0.3445 0.4465
C15 C 0.7571(2) 0.24243(13) 0.4238(3)
H14 H 0.8492 0.2401 0.5115
C16 C 0.7152(3) 0.18502(11) 0.3319(3)
C17 C 0.5779(3) 0.18558(10) 0.2052(3)
H15 H 0.5502 0.1452 0.1446
C18 C 0.4798(2) 0.24745(9) 0.16799(19)
H16 H 0.3847 0.2480 0.0824
F1 F 0.20064(12) 0.34023(5) 0.00028(10)
F2 F -0.00093(16) 0.38825(8) 0.49231(14)
F3 F 0.8121(2) 0.12494(8) 0.3679(3)
O1 O 0.25326(14) 0.48680(7) -0.19223(12)
O2 O 0.53130(13) 0.43996(6) 0.28021(12)
H17 H 0.5959 0.4415 0.2442
loop_
_geom_bond_atom_site_label_1
_geom_bond_atom_site_label_2
_geom_bond_site_symmetry_1
_geom_bond_site_symmetry_2
C1 C2 1_555 1_555
C2 H1 1_555 1_555
H2 C2 1_555 1_555
C3 C2 1_555 1_555
H3 C3 1_555 1_555
H4 C3 1_555 1_555
C4 H5 1_555 1_555
H6 C4 1_555 1_555
C5 C1 1_555 1_555
H7 C5 1_555 1_555
H8 C5 1_555 1_555
C6 C1 1_555 1_555
C7 C6 1_555 1_555
C8 C7 1_555 1_555
H9 C8 1_555 1_555
C9 C8 1_555 1_555
H10 C9 1_555 1_555
C10 C9 1_555 1_555
C11 C10 1_555 1_555
H11 C11 1_555 1_555
C12 C7 1_555 1_555
H12 C12 1_555 1_555
C13 C6 1_555 1_555
C14 C13 1_555 1_555
H13 C14 1_555 1_555
C15 C14 1_555 1_555
H14 C15 1_555 1_555
C16 C15 1_555 1_555
C17 C16 1_555 1_555
H15 C17 1_555 1_555
C18 C13 1_555 1_555
H16 C18 1_555 1_555
F1 C1 1_555 1_555
F2 C10 1_555 1_555
F3 C16 1_555 1_555
O1 C3 1_555 1_555
O2 C6 1_555 1_555
H17 O2 1_555 1_555
C4 C5 1_555 1_555
C4 O1 1_555 1_555
C11 C12 1_555 1_555
C17 C18 1_555 1_555

#END
