
#######################################################################
#
#                 Cambridge Crystallographic Data Centre
#                                CCDC 
#
#######################################################################
#
# If this CIF has been generated from an entry in the Cambridge 
# Structural Database, then it will include bibliographic, chemical, 
# crystal, experimental, refinement or atomic coordinate data resulting 
# from the CCDC's data processing and validation procedures.
#
#######################################################################

data_VAGSAZ
_chemical_formula_moiety         'C29 H25 N1 O7'
_chemical_name_systematic        
'Dimethyl 1-methyl-8-(4-nitrophenyl)-9-phenyl-5,9-dihydro-2-oxabenzo[cd]azulene-4,4(3H)-dicarboxylate'
_symmetry_cell_setting           triclinic
_symmetry_space_group_name_H-M   'P -1'
_symmetry_Int_Tables_number      2
_space_group_name_Hall           '-P 1'
loop_
_symmetry_equiv_pos_site_id
_symmetry_equiv_pos_as_xyz
1 x,y,z
2 -x,-y,-z
_cell_length_a                   7.9544(2)
_cell_length_b                   11.8108(3)
_cell_length_c                   14.0463(4)
_cell_angle_alpha                92.2960(10)
_cell_angle_beta                 106.1490(10)
_cell_angle_gamma                107.5580(10)
_cell_volume                     1197.37
_exptl_crystal_colour            yellow
_exptl_crystal_description       block
_cell_formula_units_Z            2
loop_
_atom_site_label
_atom_site_type_symbol
_atom_site_fract_x
_atom_site_fract_y
_atom_site_fract_z
N1 N 0.72488(18) 0.66115(13) 1.11203(10)
C1 C 0.7341(2) 0.39984(14) 0.96001(11)
H1 H 0.7327 0.3198 0.9665
C2 C 0.7344(2) 0.47086(14) 1.04062(11)
H2 H 0.7354 0.4410 1.1025
C3 C 0.7332(2) 0.58643(14) 1.02920(11)
C4 C 0.7321(2) 0.63233(14) 0.94024(12)
H3 H 0.7296 0.7116 0.9337
C5 C 0.7345(2) 0.56055(14) 0.86113(12)
H4 H 0.7352 0.5915 0.7998
C6 C 0.73595(19) 0.44321(13) 0.86912(11)
C7 C 0.7333(2) 0.36872(13) 0.78042(11)
C8 C 0.8541(2) 0.41925(13) 0.73144(11)
H5 H 0.9370 0.4962 0.7633
C9 C 0.8841(2) 0.38072(13) 0.64006(11)
H6 H 0.9978 0.4253 0.6301
C10 C 0.7721(2) 0.29004(13) 0.56746(11)
C11 C 0.5945(2) 0.21123(12) 0.56897(10)
C12 C 0.50453(19) 0.19766(12) 0.64559(10)
C13 C 0.59257(19) 0.24246(12) 0.75621(10)
H7 H 0.4903 0.2456 0.7834
C14 C 0.6725(2) 0.15060(13) 0.80833(10)
C15 C 0.8357(2) 0.13824(14) 0.79921(12)
H8 H 0.9021 0.1895 0.7621
C16 C 0.9021(2) 0.05162(15) 0.84399(14)
H9 H 1.0139 0.0439 0.8373
C17 C 0.8077(3) -0.02364(15) 0.89820(14)
H10 H 0.8542 -0.0829 0.9288
C18 C 0.6454(3) -0.01216(16) 0.90765(13)
H11 H 0.5795 -0.0637 0.9448
C19 C 0.5784(2) 0.07455(15) 0.86301(12)
H12 H 0.4667 0.0820 0.8699
C20 C 0.4666(2) 0.14461(13) 0.48405(11)
C21 C 0.3284(2) 0.12565(13) 0.60121(11)
C22 C 0.1639(2) 0.08011(15) 0.63629(12)
H13 H 0.1970 0.1095 0.7075
H14 H 0.1212 -0.0077 0.6265
H15 H 0.0649 0.1085 0.5980
C23 C 0.4862(2) 0.13623(14) 0.38190(11)
H16 H 0.3683 0.1301 0.3308
H17 H 0.5209 0.0648 0.3684
C24 C 0.6406(2) 0.25230(13) 0.37943(11)
C25 C 0.8141(2) 0.27145(14) 0.47090(11)
H18 H 0.8560 0.2007 0.4702
H19 H 0.9155 0.3423 0.4664
C26 C 0.5647(2) 0.35742(13) 0.38074(10)
C27 C 0.6467(3) 0.56852(15) 0.40495(14)
H20 H 0.7575 0.6397 0.4227
H21 H 0.5807 0.5676 0.4545
H22 H 0.5655 0.5705 0.3387
C28 C 0.6881(2) 0.24784(13) 0.28168(12)
C29 C 0.8771(3) 0.19124(19) 0.19936(15)
H23 H 0.9683 0.1490 0.2106
H24 H 0.9345 0.2735 0.1882
H25 H 0.7719 0.1496 0.1405
O1 O 0.6203(2) 0.28775(13) 0.20961(9)
O2 O 0.81341(19) 0.19373(12) 0.28591(9)
O3 O 0.40361(16) 0.34637(11) 0.36296(9)
O4 O 0.70035(15) 0.46171(9) 0.40342(9)
O5 O 0.73736(19) 0.62371(13) 1.19275(9)
O6 O 0.70456(17) 0.75910(11) 1.09682(10)
O7 O 0.30201(14) 0.09125(9) 0.50089(7)
loop_
_geom_bond_atom_site_label_1
_geom_bond_atom_site_label_2
_geom_bond_site_symmetry_1
_geom_bond_site_symmetry_2
N1 C3 1_555 1_555
C1 H1 1_555 1_555
C2 C1 1_555 1_555
H2 C2 1_555 1_555
C3 C2 1_555 1_555
C4 C3 1_555 1_555
H3 C4 1_555 1_555
C5 C4 1_555 1_555
H4 C5 1_555 1_555
C6 C1 1_555 1_555
C7 C6 1_555 1_555
C8 C7 1_555 1_555
H5 C8 1_555 1_555
C9 C8 1_555 1_555
H6 C9 1_555 1_555
C10 C9 1_555 1_555
C11 C10 1_555 1_555
C12 C11 1_555 1_555
C13 C7 1_555 1_555
H7 C13 1_555 1_555
C14 C13 1_555 1_555
C15 C14 1_555 1_555
H8 C15 1_555 1_555
C16 C15 1_555 1_555
H9 C16 1_555 1_555
C17 C16 1_555 1_555
H10 C17 1_555 1_555
C18 C17 1_555 1_555
H11 C18 1_555 1_555
C19 C14 1_555 1_555
H12 C19 1_555 1_555
C20 C11 1_555 1_555
C21 C12 1_555 1_555
C22 C21 1_555 1_555
H13 C22 1_555 1_555
H14 C22 1_555 1_555
H15 C22 1_555 1_555
C23 C20 1_555 1_555
H16 C23 1_555 1_555
H17 C23 1_555 1_555
C24 C23 1_555 1_555
C25 C10 1_555 1_555
H18 C25 1_555 1_555
H19 C25 1_555 1_555
C26 C24 1_555 1_555
C27 H20 1_555 1_555
H21 C27 1_555 1_555
H22 C27 1_555 1_555
C28 C24 1_555 1_555
C29 H23 1_555 1_555
H24 C29 1_555 1_555
H25 C29 1_555 1_555
O1 C28 1_555 1_555
O2 C28 1_555 1_555
O3 C26 1_555 1_555
O4 C26 1_555 1_555
O5 N1 1_555 1_555
O6 N1 1_555 1_555
O7 C20 1_555 1_555
C5 C6 1_555 1_555
C12 C13 1_555 1_555
C18 C19 1_555 1_555
C21 O7 1_555 1_555
C24 C25 1_555 1_555
C27 O4 1_555 1_555
C29 O2 1_555 1_555

#END
