
#######################################################################
#
#                 Cambridge Crystallographic Data Centre
#                                CCDC 
#
#######################################################################
#
# If this CIF has been generated from an entry in the Cambridge 
# Structural Database, then it will include bibliographic, chemical, 
# crystal, experimental, refinement or atomic coordinate data resulting 
# from the CCDC's data processing and validation procedures.
#
#######################################################################

data_VAHCUC01
_chemical_formula_moiety         'C3 H9 Te1 1+,I1 1-'
_chemical_name_systematic        'Trimethyl-telluronium iodide'
_symmetry_cell_setting           monoclinic
_symmetry_space_group_name_H-M   'P 21/n'
_symmetry_Int_Tables_number      14
_space_group_name_Hall           '-P 2yn'
loop_
_symmetry_equiv_pos_site_id
_symmetry_equiv_pos_as_xyz
1 x,y,z
2 1/2-x,1/2+y,1/2-z
3 -x,-y,-z
4 1/2+x,1/2-y,1/2+z
_cell_length_a                   7.123(2)
_cell_length_b                   9.675(3)
_cell_length_c                   11.334(3)
_cell_angle_alpha                90
_cell_angle_beta                 107.71(3)
_cell_angle_gamma                90
_cell_volume                     744.066
_exptl_crystal_colour            white
_chemical_melting_point          '239-240 deg.C'
_cell_formula_units_Z            4
loop_
_atom_site_label
_atom_site_type_symbol
_atom_site_fract_x
_atom_site_fract_y
_atom_site_fract_z
Te1 Te 0.4688(1) 0.1153(1) 0.8208(1)
C1 C 0.4730(15) 0.0404(11) 0.6464(8)
C2 C 0.7756(14) 0.0849(10) 0.9106(8)
C3 C 0.5127(17) 0.3268(10) 0.7815(9)
H1 H 0.3741 0.0464 0.5672
H3 H 0.5971 0.0163 0.6351
H4 H 0.8589 0.1150 0.9900
H5 H 0.8557 0.0549 0.8609
H7 H 0.5410 0.4070 0.8339
H9 H 0.5378 0.3470 0.7048
I1 I -0.0268(1) 0.2273(1) 0.6194(1)
H2? H 0.4361 -0.0290 0.6957
H6? H 0.6947 0.0096 0.9214
H8? H 0.3768 0.3016 0.7653
loop_
_geom_bond_atom_site_label_1
_geom_bond_atom_site_label_2
_geom_bond_site_symmetry_1
_geom_bond_site_symmetry_2
Te1 C1 1_555 1_555
C1 H1 1_555 1_555
C2 Te1 1_555 1_555
C3 Te1 1_555 1_555
H3 C1 1_555 1_555
H4 C2 1_555 1_555
H5 C2 1_555 1_555
H7 C3 1_555 1_555
H9 C3 1_555 1_555

#END
