
#######################################################################
#
#                 Cambridge Crystallographic Data Centre
#                                CCDC 
#
#######################################################################
#
# If this CIF has been generated from an entry in the Cambridge 
# Structural Database, then it will include bibliographic, chemical, 
# crystal, experimental, refinement or atomic coordinate data resulting 
# from the CCDC's data processing and validation procedures.
#
#######################################################################

data_VAJGEV
_chemical_formula_moiety         
'C26 H23 O1 1+,B1 F4 1-,0.5(H2 O1),0.25(C4 H8 O1)'
_chemical_name_systematic        
'2,4,6-tris(4-methylphenyl)pyrylium tetrafluoroborate tetrahydrofuran solvate hydrate'
_symmetry_cell_setting           monoclinic
_symmetry_space_group_name_H-M   'P 21/c'
_symmetry_Int_Tables_number      14
_space_group_name_Hall           '-P 2ybc'
loop_
_symmetry_equiv_pos_site_id
_symmetry_equiv_pos_as_xyz
1 x,y,z
2 -x,1/2+y,1/2-z
3 -x,-y,-z
4 x,1/2-y,1/2+z
_cell_length_a                   17.3807(11)
_cell_length_b                   19.4893(13)
_cell_length_c                   14.2097(7)
_cell_angle_alpha                90
_cell_angle_beta                 107.734(3)
_cell_angle_gamma                90
_cell_volume                     4584.63
_exptl_crystal_colour            yellow
_exptl_crystal_description       rod
_cell_formula_units_Z            8
_exptl_crystal_recrystallization_method tetrahydrofuran/water
loop_
_atom_site_label
_atom_site_type_symbol
_atom_site_fract_x
_atom_site_fract_y
_atom_site_fract_z
C27 C 0.0922(7) 0.7333(6) 0.3505(7)
C28 C 0.1337(6) 0.7897(5) 0.3636(6)
H24 H 0.1042 0.8311 0.3602
C29 C 0.2153(6) 0.7960(6) 0.3820(6)
C30 C 0.2530(6) 0.7339(5) 0.3881(6)
H25 H 0.3098 0.7342 0.3998
C31 C 0.2163(6) 0.6722(6) 0.3791(6)
C32 C 0.0051(7) 0.7265(5) 0.3262(7)
C33 C -0.0353(9) 0.6668(6) 0.2898(9)
H26 H -0.0048 0.6278 0.2824
C34 C -0.1169(10) 0.6615(7) 0.2639(11)
H27 H -0.1419 0.6183 0.2436
C35 C -0.1645(7) 0.7182(8) 0.2666(8)
C36 C -0.1252(8) 0.7811(6) 0.2980(8)
H28 H -0.1557 0.8216 0.2978
C37 C -0.0426(7) 0.7834(6) 0.3287(7)
H29 H -0.0167 0.8256 0.3528
C38 C -0.2558(9) 0.7157(10) 0.2284(11)
H30 H -0.2782 0.7572 0.2491
H31 H -0.2752 0.6752 0.2554
H32 H -0.2733 0.7130 0.1561
C39 C 0.2563(6) 0.8605(5) 0.3943(6)
C40 C 0.2127(6) 0.9215(6) 0.3578(6)
H33 H 0.1561 0.9203 0.3259
C41 C 0.2557(8) 0.9840(6) 0.3701(7)
H34 H 0.2270 1.0249 0.3454
C42 C 0.3368(7) 0.9879(6) 0.4160(7)
C43 C 0.3793(7) 0.9272(6) 0.4511(8)
H35 H 0.4358 0.9288 0.4834
C44 C 0.3390(5) 0.8650(5) 0.4387(6)
H36 H 0.3689 0.8242 0.4613
C45 C 0.3799(9) 1.0541(7) 0.4285(9)
H37 H 0.4100 1.0575 0.3805
H38 H 0.4175 1.0571 0.4956
H39 H 0.3408 1.0918 0.4178
C46 C 0.2537(6) 0.6064(6) 0.3839(6)
C47 C 0.3375(7) 0.5991(6) 0.4325(7)
H40 H 0.3689 0.6378 0.4619
C48 C 0.3734(8) 0.5354(7) 0.4371(7)
H41 H 0.4287 0.5305 0.4743
C49 C 0.3322(8) 0.4797(6) 0.3902(7)
C50 C 0.2500(7) 0.4874(7) 0.3452(7)
H42 H 0.2199 0.4478 0.3168
C51 C 0.2096(7) 0.5477(6) 0.3391(6)
H43 H 0.1533 0.5504 0.3057
C52 C 0.3739(10) 0.4102(7) 0.3951(9)
H44 H 0.3367 0.3776 0.3518
H45 H 0.3897 0.3931 0.4632
H46 H 0.4221 0.4153 0.3736
O2 O 0.1350(5) 0.6738(4) 0.3586(5)
B1 B 0.5083(7) 0.7667(6) 0.3665(9)
F1 F 0.4332(4) 0.7365(4) 0.3353(6)
F2 F 0.5539(6) 0.7244(4) 0.4420(7)
F3 F 0.5462(5) 0.7623(5) 0.2952(6)
F4 F 0.5089(5) 0.8302(4) 0.3994(7)
O3 O 0.4495(7) 0.7307(7) 0.5869(8)
H47 H 0.470(11) 0.766(6) 0.620(14)
H48 H 0.444(12) 0.716(10) 0.640(8)
C1 C 0.2708(6) 0.4801(5) 0.1097(6)
C2 C 0.2281(5) 0.5408(5) 0.0990(6)
H1 H 0.1722 0.5409 0.0630
C3 C 0.2653(5) 0.6024(5) 0.1401(5)
C4 C 0.3487(5) 0.5995(4) 0.1884(5)
H2 H 0.3767 0.6404 0.2149
C5 C 0.3910(5) 0.5385(5) 0.1982(5)
C6 C 0.2395(6) 0.4135(5) 0.0710(6)
C7 C 0.2900(6) 0.3551(5) 0.0851(7)
H3 H 0.3458 0.3588 0.1205
C8 C 0.2585(7) 0.2949(6) 0.0482(7)
H4 H 0.2934 0.2563 0.0575
C9 C 0.1776(7) 0.2859(7) -0.0030(7)
C10 C 0.1299(8) 0.3426(7) -0.0215(8)
H5 H 0.0752 0.3386 -0.0616
C11 C 0.1592(7) 0.4068(6) 0.0172(7)
H6 H 0.1241 0.4453 0.0066
C12 C 0.1462(9) 0.2147(7) -0.0390(9)
H7 H 0.1090 0.2178 -0.1064
H8 H 0.1178 0.1955 0.0048
H9 H 0.1917 0.1848 -0.0387
C13 C 0.2217(5) 0.6655(5) 0.1298(6)
C14 C 0.1374(5) 0.6675(6) 0.1132(6)
H10 H 0.1081 0.6258 0.1081
C15 C 0.0979(6) 0.7282(7) 0.1044(7)
H11 H 0.0413 0.7274 0.0945
C16 C 0.1354(6) 0.7911(6) 0.1091(7)
C17 C 0.2187(6) 0.7905(5) 0.1249(7)
H12 H 0.2468 0.8327 0.1288
C18 C 0.2607(6) 0.7296(5) 0.1348(7)
H13 H 0.3174 0.7308 0.1454
C19 C 0.0895(9) 0.8581(7) 0.0997(9)
H14 H 0.0483 0.8602 0.0349
H15 H 0.1271 0.8966 0.1064
H16 H 0.0633 0.8608 0.1518
C20 C 0.4755(5) 0.5291(4) 0.2441(6)
C21 C 0.5224(5) 0.5846(5) 0.2953(6)
H17 H 0.4972 0.6270 0.3011
C22 C 0.6048(6) 0.5769(5) 0.3366(7)
H18 H 0.6362 0.6154 0.3670
C23 C 0.6436(6) 0.5140(5) 0.3352(6)
C24 C 0.5952(7) 0.4600(5) 0.2843(7)
H19 H 0.6202 0.4175 0.2789
C25 C 0.5128(6) 0.4659(5) 0.2418(6)
H20 H 0.4817 0.4274 0.2111
C26 C 0.7334(6) 0.5057(6) 0.3802(7)
H21 H 0.7565 0.4869 0.3308
H22 H 0.7444 0.4744 0.4367
H23 H 0.7578 0.5505 0.4025
O1 O 0.3511(4) 0.4802(3) 0.1587(4)
B2? B 0.0034(11) 0.4776(10) 0.1706(14)
F5? F -0.0390(18) 0.4419(18) 0.0888(19)
F6? F -0.0491(10) 0.5007(11) 0.2216(13)
F7? F 0.0350(16) 0.5376(10) 0.1450(17)
F8? F 0.0625(11) 0.4417(8) 0.2350(15)
B3? B 0.0079(11) 0.4761(10) 0.1574(13)
F9? F -0.0480(15) 0.4517(17) 0.0746(16)
F10? F -0.0093(10) 0.4473(9) 0.2385(9)
F11? F 0.0026(16) 0.5468(10) 0.1641(17)
F12? F 0.0845(7) 0.4596(8) 0.1649(11)
O4? O 0.048(2) 0.502(2) 0.453(2)
C53? C -0.049(2) 0.5290(13) 0.414(2)
H49? H -0.0849 0.4940 0.3719
H50? H -0.0548 0.5726 0.3770
C54? C -0.0716(13) 0.5399(18) 0.522(2)
H51? H -0.0474 0.5826 0.5561
H52? H -0.1307 0.5408 0.5109
C55? C -0.029(3) 0.4707(18) 0.586(3)
H53? H -0.0663 0.4308 0.5680
H54? H -0.0166 0.4790 0.6579
C56? C 0.0552(13) 0.4567(17) 0.556(2)
H55? H 0.1031 0.4716 0.6099
H56? H 0.0609 0.4072 0.5432
loop_
_geom_bond_atom_site_label_1
_geom_bond_atom_site_label_2
_geom_bond_site_symmetry_1
_geom_bond_site_symmetry_2
C1 C2 1_555 1_555
C2 H1 1_555 1_555
C3 C2 1_555 1_555
C4 C3 1_555 1_555
H2 C4 1_555 1_555
C5 C4 1_555 1_555
C6 C1 1_555 1_555
C7 C6 1_555 1_555
H3 C7 1_555 1_555
C8 C7 1_555 1_555
H4 C8 1_555 1_555
C9 C8 1_555 1_555
C10 C9 1_555 1_555
H5 C10 1_555 1_555
C11 C6 1_555 1_555
H6 C11 1_555 1_555
C12 C9 1_555 1_555
H7 C12 1_555 1_555
H8 C12 1_555 1_555
H9 C12 1_555 1_555
C13 C3 1_555 1_555
C14 C13 1_555 1_555
H10 C14 1_555 1_555
C15 C14 1_555 1_555
H11 C15 1_555 1_555
C16 C15 1_555 1_555
C17 C16 1_555 1_555
H12 C17 1_555 1_555
C18 C13 1_555 1_555
H13 C18 1_555 1_555
C19 C16 1_555 1_555
H14 C19 1_555 1_555
H15 C19 1_555 1_555
H16 C19 1_555 1_555
C20 C5 1_555 1_555
C21 C20 1_555 1_555
H17 C21 1_555 1_555
C22 C21 1_555 1_555
H18 C22 1_555 1_555
C23 C22 1_555 1_555
C24 C23 1_555 1_555
H19 C24 1_555 1_555
C25 C20 1_555 1_555
H20 C25 1_555 1_555
C26 C23 1_555 1_555
H21 C26 1_555 1_555
H22 C26 1_555 1_555
H23 C26 1_555 1_555
O1 C1 1_555 1_555
C27 C28 1_555 1_555
C28 H24 1_555 1_555
C29 C28 1_555 1_555
C30 C29 1_555 1_555
H25 C30 1_555 1_555
C31 C30 1_555 1_555
C32 C27 1_555 1_555
C33 C32 1_555 1_555
H26 C33 1_555 1_555
C34 C33 1_555 1_555
H27 C34 1_555 1_555
C35 C34 1_555 1_555
C36 C35 1_555 1_555
H28 C36 1_555 1_555
C37 C32 1_555 1_555
H29 C37 1_555 1_555
C38 C35 1_555 1_555
H30 C38 1_555 1_555
H31 C38 1_555 1_555
H32 C38 1_555 1_555
C39 C29 1_555 1_555
C40 C39 1_555 1_555
H33 C40 1_555 1_555
C41 C40 1_555 1_555
H34 C41 1_555 1_555
C42 C41 1_555 1_555
C43 C42 1_555 1_555
H35 C43 1_555 1_555
C44 C39 1_555 1_555
H36 C44 1_555 1_555
C45 C42 1_555 1_555
H37 C45 1_555 1_555
H38 C45 1_555 1_555
H39 C45 1_555 1_555
C46 C31 1_555 1_555
C47 C46 1_555 1_555
H40 C47 1_555 1_555
C48 C47 1_555 1_555
H41 C48 1_555 1_555
C49 C48 1_555 1_555
C50 C49 1_555 1_555
H42 C50 1_555 1_555
C51 C46 1_555 1_555
H43 C51 1_555 1_555
C52 C49 1_555 1_555
H44 C52 1_555 1_555
H45 C52 1_555 1_555
H46 C52 1_555 1_555
O2 C27 1_555 1_555
B1 F1 1_555 1_555
F2 B1 1_555 1_555
F3 B1 1_555 1_555
F4 B1 1_555 1_555
O3 H47 1_555 1_555
H48 O3 1_555 1_555
C5 O1 1_555 1_555
C10 C11 1_555 1_555
C17 C18 1_555 1_555
C24 C25 1_555 1_555
C31 O2 1_555 1_555
C36 C37 1_555 1_555
C43 C44 1_555 1_555
C50 C51 1_555 1_555

#END
