
#######################################################################
#
#                 Cambridge Crystallographic Data Centre
#                                CCDC 
#
#######################################################################
#
# If this CIF has been generated from an entry in the Cambridge 
# Structural Database, then it will include bibliographic, chemical, 
# crystal, experimental, refinement or atomic coordinate data resulting 
# from the CCDC's data processing and validation procedures.
#
#######################################################################

data_VAKKEA
_chemical_formula_moiety         'C14 H16 N3 O1 1+,C7 H4 Br1 O2 1-'
_chemical_name_systematic        
'(S)-2-Ammonio-3-phenyl-N-(pyridine-3-yl)propanamide 4-bromobenzoate'
_symmetry_cell_setting           orthorhombic
_symmetry_space_group_name_H-M   'P 21 21 21'
_symmetry_Int_Tables_number      19
_space_group_name_Hall           'P 2ac 2ab'
loop_
_symmetry_equiv_pos_site_id
_symmetry_equiv_pos_as_xyz
1 x,y,z
2 1/2-x,-y,1/2+z
3 -x,1/2+y,1/2-z
4 1/2+x,1/2-y,-z
_cell_length_a                   6.1488(10)
_cell_length_b                   14.139(2)
_cell_length_c                   22.992(4)
_cell_angle_alpha                90
_cell_angle_beta                 90
_cell_angle_gamma                90
_cell_volume                     1998.88
_exptl_crystal_colour            colorless
_exptl_crystal_description       needle
_cell_formula_units_Z            4
loop_
_atom_site_label
_atom_site_type_symbol
_atom_site_fract_x
_atom_site_fract_y
_atom_site_fract_z
Br1 Br -0.09296(12) 0.14860(3) 0.09071(3)
O1 O -0.0063(5) 0.61471(19) 0.01355(12)
O2 O 0.3354(5) 0.5850(2) 0.03599(13)
C1 C 0.1463(8) 0.5609(3) 0.03050(16)
C2 C 0.0814(7) 0.4607(3) 0.04590(16)
C3 C 0.2337(7) 0.4031(3) 0.07340(19)
H1 H 0.3698 0.4275 0.0827
C4 C 0.1859(8) 0.3103(3) 0.0870(2)
H2 H 0.2876 0.2717 0.1052
C5 C -0.0184(9) 0.2768(3) 0.07261(19)
C6 C -0.1778(8) 0.3311(3) 0.04505(19)
H3 H -0.3129 0.3060 0.0354
C7 C -0.1240(8) 0.4247(3) 0.03270(18)
H4 H -0.2268 0.4639 0.0154
N1 N 0.3791(6) 0.6278(2) 0.19863(15)
C8 C 0.5571(6) 0.6477(3) 0.16687(17)
H5 H 0.5445 0.6466 0.1266
C9 C 0.7578(6) 0.6697(3) 0.19060(16)
C10 C 0.7787(6) 0.6652(3) 0.25002(17)
H6 H 0.9113 0.6793 0.2674
C11 C 0.6064(8) 0.6402(3) 0.28319(17)
H7 H 0.6203 0.6338 0.3233
C12 C 0.4082(8) 0.6242(3) 0.25595(19)
H8 H 0.2886 0.6101 0.2792
N2 N 0.9378(5) 0.6969(2) 0.15567(13)
H9 H 1.0636 0.6730 0.1629
C13 C 0.9170(7) 0.7599(3) 0.11090(15)
O3 O 0.7461(5) 0.78835(19) 0.09198(13)
C14 C 1.1352(6) 0.7983(3) 0.08783(17)
H10 H 1.2546 0.7566 0.0997
N3 N 1.1202(5) 0.80160(17) 0.02357(10)
H11 H 1.0004 0.8327 0.0133
H12 H 1.1148 0.7430 0.0096
H13 H 1.2363 0.8311 0.0093
C15 C 1.1744(8) 0.89873(18) 0.11041(10)
H14 H 1.3090 0.9226 0.0940
H15 H 1.0573 0.9393 0.0971
C16 C 1.1873(7) 0.9040(3) 0.17564(18)
C17 C 1.3690(9) 0.8810(3) 0.2048(2)
H16 H 1.4917 0.8623 0.1841
C18 C 1.3775(11) 0.8845(3) 0.2647(2)
H17 H 1.5056 0.8671 0.2833
C19 C 1.2102(10) 0.9116(4) 0.2964(2)
H18 H 1.2221 0.9161 0.3366
C20 C 1.0143(9) 0.9337(4) 0.2685(2)
H19 H 0.8928 0.9508 0.2901
C21 C 1.0029(8) 0.9298(3) 0.20838(19)
H20 H 0.8731 0.9442 0.1896
loop_
_geom_bond_atom_site_label_1
_geom_bond_atom_site_label_2
_geom_bond_site_symmetry_1
_geom_bond_site_symmetry_2
Br1 C5 1_555 1_555
O1 C1 1_555 1_555
O2 C1 1_555 1_555
C1 C2 1_555 1_555
C2 C3 1_555 1_555
C3 H1 1_555 1_555
C4 C3 1_555 1_555
H2 C4 1_555 1_555
C5 C4 1_555 1_555
C6 C5 1_555 1_555
H3 C6 1_555 1_555
C7 C2 1_555 1_555
H4 C7 1_555 1_555
N1 C8 1_555 1_555
C8 H5 1_555 1_555
C9 C8 1_555 1_555
C10 C9 1_555 1_555
H6 C10 1_555 1_555
C11 C10 1_555 1_555
H7 C11 1_555 1_555
C12 N1 1_555 1_555
H8 C12 1_555 1_555
N2 C9 1_555 1_555
H9 N2 1_555 1_555
C13 N2 1_555 1_555
O3 C13 1_555 1_555
C14 C13 1_555 1_555
H10 C14 1_555 1_555
N3 C14 1_555 1_555
H11 N3 1_555 1_555
H12 N3 1_555 1_555
H13 N3 1_555 1_555
C15 C14 1_555 1_555
H14 C15 1_555 1_555
H15 C15 1_555 1_555
C16 C15 1_555 1_555
C17 C16 1_555 1_555
H16 C17 1_555 1_555
C18 C17 1_555 1_555
H17 C18 1_555 1_555
C19 C18 1_555 1_555
H18 C19 1_555 1_555
C20 C19 1_555 1_555
H19 C20 1_555 1_555
C21 C16 1_555 1_555
H20 C21 1_555 1_555
C6 C7 1_555 1_555
C11 C12 1_555 1_555
C20 C21 1_555 1_555

#END
