
#######################################################################
#
#                 Cambridge Crystallographic Data Centre
#                                CCDC 
#
#######################################################################
#
# If this CIF has been generated from an entry in the Cambridge 
# Structural Database, then it will include bibliographic, chemical, 
# crystal, experimental, refinement or atomic coordinate data resulting 
# from the CCDC's data processing and validation procedures.
#
#######################################################################

data_VAKMUP
_chemical_formula_moiety         'C40 H36 N4 O4'
_chemical_name_systematic        
1,2,3,4-tetrakis(6',7'-Dimethylbenzoxazolyl)cyclobutane
_symmetry_cell_setting           triclinic
_symmetry_space_group_name_H-M   'P -1'
_symmetry_Int_Tables_number      2
_space_group_name_Hall           '-P 1'
loop_
_symmetry_equiv_pos_site_id
_symmetry_equiv_pos_as_xyz
1 x,y,z
2 -x,-y,-z
_cell_length_a                   7.008(2)
_cell_length_b                   9.586(1)
_cell_length_c                   13.174(2)
_cell_angle_alpha                104.08(1)
_cell_angle_beta                 98.56(2)
_cell_angle_gamma                99.97(2)
_cell_volume                     828.396
_exptl_crystal_colour            colorless
_chemical_melting_point          229.5-230deg.C
_cell_formula_units_Z            1
loop_
_atom_site_label
_atom_site_type_symbol
_atom_site_fract_x
_atom_site_fract_y
_atom_site_fract_z
C1 C 0.6955(3) 0.0468(2) 0.9202(1)
C2 C 0.5338(3) 0.0966(2) 0.8821(1)
C3 C 0.3531(3) 0.0088(2) 0.8247(2)
C4 C 0.3420(3) -0.1422(2) 0.8077(2)
C5 C 0.5051(3) -0.1948(2) 0.8458(2)
C6 C 0.6839(3) -0.1031(2) 0.9018(2)
C7 C 0.1859(3) 0.0754(2) 0.7880(2)
C8 C 0.1503(3) -0.2504(2) 0.7494(2)
O1 O 0.5822(2) 0.2496(1) 0.9149(1)
C9 C 0.7739(3) 0.2806(2) 0.9713(1)
N1 N 0.8489(2) 0.1694(2) 0.9768(1)
C10 C 1.1987(3) 0.7024(2) 1.3330(2)
C11 C 1.3578(3) 0.6350(2) 1.3310(2)
C12 C 1.5172(3) 0.6621(2) 1.4142(2)
C13 C 1.5103(3) 0.7693(3) 1.5058(2)
C14 C 1.3508(4) 0.8391(3) 1.5092(2)
C15 C 1.1923(3) 0.8078(3) 1.4250(2)
C16 C 1.6791(3) 0.5785(3) 1.4034(2)
C17 C 1.6770(4) 0.8123(3) 1.6023(2)
O2 O 1.3289(2) 0.5365(1) 1.2307(1)
C18 C 1.1524(3) 0.5532(2) 1.1789(2)
N2 N 1.0689(2) 0.6462(2) 1.2330(1)
C19 C 0.8668(3) 0.4392(2) 1.0173(1)
C20 C 1.0906(3) 0.4700(2) 1.0644(2)
C20A C 0.9094(3) 0.5300(2) 0.9356(2)
C19A C 1.1332(3) 0.5608(2) 0.9827(1)
C18A C 0.8476(3) 0.4468(2) 0.8211(2)
C9A C 1.2261(3) 0.7194(2) 1.0287(1)
O2A O 0.6711(2) 0.4635(1) 0.7693(1)
N2A N 0.9311(2) 0.3538(2) 0.7670(1)
O1A O 1.4178(2) 0.7504(1) 1.0851(1)
N1A N 1.1511(2) 0.8306(2) 1.0232(1)
C11A C 0.6422(3) 0.3650(2) 0.6690(2)
C10A C 0.8013(3) 0.2976(2) 0.6670(2)
C2A C 1.4662(3) 0.9034(2) 1.1179(1)
C1A C 1.3045(3) 0.9532(2) 1.0798(1)
C12A C 0.4828(3) 0.3379(2) 0.5858(2)
C15A C 0.8077(3) 0.1922(3) 0.5750(2)
C3A C 1.6469(3) 0.9912(2) 1.1753(2)
C6A C 1.3161(3) 1.1031(2) 1.0982(2)
C13A C 0.4897(3) 0.2307(3) 0.4942(2)
C16A C 0.3209(3) 0.4215(3) 0.5966(2)
C14A C 0.6492(4) 0.1609(3) 0.4908(2)
C4A C 1.6580(3) 1.1422(2) 1.1923(2)
C7A C 1.8141(3) 0.9246(2) 1.2120(2)
C5A C 1.4949(3) 1.1948(2) 1.1542(2)
C17A C 0.3230(4) 0.1877(3) 0.3977(2)
C8A C 1.8497(3) 1.2504(2) 1.2506(2)
loop_
_geom_bond_atom_site_label_1
_geom_bond_atom_site_label_2
_geom_bond_site_symmetry_1
_geom_bond_site_symmetry_2
C1 C2 1_555 1_555
C2 C3 1_555 1_555
C3 C4 1_555 1_555
C4 C5 1_555 1_555
C5 C6 1_555 1_555
C6 C1 1_555 1_555
C7 C3 1_555 1_555
C8 C4 1_555 1_555
O1 C2 1_555 1_555
C9 O1 1_555 1_555
N1 C1 1_555 1_555
C10 C11 1_555 1_555
C11 C12 1_555 1_555
C12 C13 1_555 1_555
C13 C14 1_555 1_555
C14 C15 1_555 1_555
C15 C10 1_555 1_555
C16 C12 1_555 1_555
C17 C13 1_555 1_555
O2 C11 1_555 1_555
C18 O2 1_555 1_555
N2 C10 1_555 1_555
C19 C9 1_555 1_555
C20 C18 1_555 1_555
C20A C19 1_555 1_555
C19A C20 1_555 1_555
C18A C20A 1_555 1_555
C9A C19A 1_555 1_555
O2A C18A 1_555 1_555
N2A C18A 1_555 1_555
O1A C9A 1_555 1_555
N1A C9A 1_555 1_555
C11A O2A 1_555 1_555
C10A N2A 1_555 1_555
C2A O1A 1_555 1_555
C1A N1A 1_555 1_555
C12A C11A 1_555 1_555
C15A C10A 1_555 1_555
C3A C2A 1_555 1_555
C6A C1A 1_555 1_555
C13A C12A 1_555 1_555
C16A C12A 1_555 1_555
C14A C15A 1_555 1_555
C4A C3A 1_555 1_555
C7A C3A 1_555 1_555
C5A C6A 1_555 1_555
C17A C13A 1_555 1_555
C8A C4A 1_555 1_555
C9 N1 1_555 1_555
C18 N2 1_555 1_555
C19 C20 1_555 1_555
C20A C19A 1_555 1_555
C11A C10A 1_555 1_555
C2A C1A 1_555 1_555
C13A C14A 1_555 1_555
C4A C5A 1_555 1_555

#END
