
#######################################################################
#
#                 Cambridge Crystallographic Data Centre
#                                CCDC 
#
#######################################################################
#
# If this CIF has been generated from an entry in the Cambridge 
# Structural Database, then it will include bibliographic, chemical, 
# crystal, experimental, refinement or atomic coordinate data resulting 
# from the CCDC's data processing and validation procedures.
#
#######################################################################

data_VAKXEK
_chemical_formula_moiety         'C16 H16 Se2'
_chemical_name_systematic        2,11-Diselena(3.3)orthocyclophane
_symmetry_cell_setting           monoclinic
_symmetry_space_group_name_H-M   'P 21/a'
_symmetry_Int_Tables_number      14
_space_group_name_Hall           '-P 2yab'
loop_
_symmetry_equiv_pos_site_id
_symmetry_equiv_pos_as_xyz
1 x,y,z
2 1/2-x,1/2+y,-z
3 -x,-y,-z
4 1/2+x,1/2-y,z
_cell_length_a                   17.038(5)
_cell_length_b                   4.899(1)
_cell_length_c                   8.256(2)
_cell_angle_alpha                90
_cell_angle_beta                 98.60(2)
_cell_angle_gamma                90
_cell_volume                     681.373
_cell_formula_units_Z            2
loop_
_atom_site_label
_atom_site_type_symbol
_atom_site_fract_x
_atom_site_fract_y
_atom_site_fract_z
Se1 Se 0.8758 0.0626(2) 0.6732(1)
C1 C 0.9763(5) -0.1422(21) 0.6841(11)
C2 C 0.8745(5) 0.2379(21) 0.4580(11)
C3 C 0.8781(5) 0.0407(18) 0.3239(10)
C4 C 0.8084(5) -0.0940(21) 0.2565(11)
C5 C 0.8063(5) -0.2836(22) 0.1327(11)
C6 C 0.8758(6) -0.3424(20) 0.0690(10)
C7 C 0.9462(5) -0.2058(20) 0.1314(10)
C8 C 1.0516(4) 0.0169(17) 0.7427(9)
H1 H 0.970(4) -0.204(18) 0.543(9)
H2 H 0.971(6) -0.341(25) 0.780(13)
H3 H 0.912(7) 0.426(29) 0.493(15)
H4 H 0.835(8) 0.298(32) 0.459(17)
H5 H 0.763(6) -0.035(22) 0.300(11)
H6 H 0.743(7) -0.340(28) 0.069(13)
H7 H 0.879(7) -0.486(30) -0.031(15)
H8 H 1.002(5) -0.240(18) 0.079(9)
C8B C 0.9484(4) -0.0169(17) 0.2573(9)
C3B C 1.1219(5) -0.0407(18) 0.6761(10)
C7B C 1.0538(5) 0.2058(20) 0.8686(10)
C1B C 1.0237(5) 0.1422(21) 0.3159(11)
C2B C 1.1255(5) -0.2379(21) 0.5420(11)
C4B C 1.1916(5) 0.0940(21) 0.7435(11)
C6B C 1.1242(6) 0.3424(20) 0.9310(10)
H8B H 0.998(5) 0.240(18) 0.921(9)
Se1B Se 1.1242 -0.0626(2) 0.3268(1)
H1B H 1.030(4) 0.204(18) 0.457(9)
H2B H 1.029(6) 0.341(25) 0.220(13)
H3B H 1.088(7) -0.426(29) 0.507(15)
H4B H 1.165(8) -0.298(32) 0.541(17)
C5B C 1.1937(5) 0.2836(22) 0.8673(11)
H5B H 1.237(6) 0.035(22) 0.700(11)
H7B H 1.121(7) 0.486(30) 1.031(15)
H6B H 1.257(7) 0.340(28) 0.931(13)
loop_
_geom_bond_atom_site_label_1
_geom_bond_atom_site_label_2
_geom_bond_site_symmetry_1
_geom_bond_site_symmetry_2
Se1 C1 1_555 1_555
C1 C8 1_555 1_555
C2 Se1 1_555 1_555
C3 C2 1_555 1_555
C4 C3 1_555 1_555
C5 C4 1_555 1_555
C6 C5 1_555 1_555
C7 C6 1_555 1_555
C8 C3B 1_555 1_555
H1 C1 1_555 1_555
H2 C1 1_555 1_555
H3 C2 1_555 1_555
H4 C2 1_555 1_555
H5 C4 1_555 1_555
H6 C5 1_555 1_555
H7 C6 1_555 1_555
H8 C7 1_555 1_555
C8B C3 1_555 1_555
C3B C2B 1_555 1_555
C7B C8 1_555 1_555
C1B C8B 1_555 1_555
C2B Se1B 1_555 1_555
C4B C3B 1_555 1_555
C6B C7B 1_555 1_555
H8B C7B 1_555 1_555
Se1B C1B 1_555 1_555
H1B C1B 1_555 1_555
H2B C1B 1_555 1_555
H3B C2B 1_555 1_555
H4B C2B 1_555 1_555
C5B C4B 1_555 1_555
H5B C4B 1_555 1_555
H7B C6B 1_555 1_555
H6B C5B 1_555 1_555
C7 C8B 1_555 1_555
C6B C5B 1_555 1_555

#END
