
#######################################################################
#
#                 Cambridge Crystallographic Data Centre
#                                CCDC 
#
#######################################################################
#
# If this CIF has been generated from an entry in the Cambridge 
# Structural Database, then it will include bibliographic, chemical, 
# crystal, experimental, refinement or atomic coordinate data resulting 
# from the CCDC's data processing and validation procedures.
#
#######################################################################

data_VALSUZ
_chemical_formula_moiety         'C16 H15 Cl4 N1 O4'
_chemical_name_systematic        
4,5,6,7-tetrachloro-2-((2-ethylhexanoyl)oxy)-1H-isoindole-1,3(2H)-dione
_symmetry_cell_setting           triclinic
_symmetry_space_group_name_H-M   'P -1'
_symmetry_Int_Tables_number      2
_space_group_name_Hall           '-P 1'
loop_
_symmetry_equiv_pos_site_id
_symmetry_equiv_pos_as_xyz
1 x,y,z
2 -x,-y,-z
_cell_length_a                   8.8700(7)
_cell_length_b                   9.1094(8)
_cell_length_c                   12.6095(10)
_cell_angle_alpha                104.489(3)
_cell_angle_beta                 90.358(3)
_cell_angle_gamma                111.767(3)
_cell_volume                     910.541
_exptl_crystal_colour            colorless
_exptl_crystal_description       plate
_cell_formula_units_Z            2
loop_
_atom_site_label
_atom_site_type_symbol
_atom_site_fract_x
_atom_site_fract_y
_atom_site_fract_z
Cl1 Cl 0.90864(13) 0.02223(12) -0.14663(9)
Cl2 Cl 0.54029(12) -0.08933(11) -0.21792(8)
Cl3 Cl 1.08367(10) 0.32578(11) 0.05376(8)
Cl4 Cl 0.34344(10) 0.11662(11) -0.09944(7)
O1 O 0.6968(3) 0.6648(3) 0.2571(2)
O2 O 0.4321(3) 0.4334(3) 0.1022(2)
O3 O 0.9720(3) 0.5834(3) 0.2153(2)
N1 N 0.7043(3) 0.5419(4) 0.1697(2)
C1 C 0.8021(4) 0.1334(4) -0.0794(3)
C2 C 0.8810(4) 0.2697(4) 0.0104(3)
C3 C 0.7922(4) 0.3566(4) 0.0623(3)
C4 C 0.8446(4) 0.5060(4) 0.1585(3)
C5 C 0.6345(5) 0.6042(5) 0.3462(3)
C6 C 0.6322(7) 0.7428(7) 0.4402(3)
H1 H 0.6879 0.8299 0.4050
C7 C 0.7670(7) 0.7904(7) 0.5249(5)
H2 H 0.8112 0.9094 0.5441
H3 H 0.7129 0.7618 0.5877
C8 C 0.8981(11) 0.7544(9) 0.5301(6)
H4 H 0.9428 0.7667 0.4614
H5 H 0.8530 0.6371 0.5220
C9 C 1.0384(8) 0.8132(8) 0.6066(5)
H6 H 1.1294 0.8717 0.5711
H7 H 1.0249 0.8951 0.6674
C10 C 1.0864(15) 0.7225(8) 0.6502(8)
H8 H 1.1149 0.6478 0.5937
H9 H 1.0001 0.6614 0.6865
H10 H 1.1801 0.7906 0.7029
C11 C 0.6361(4) 0.0846(4) -0.1126(3)
C12 C 0.6275(4) 0.3113(4) 0.0277(3)
C13 C 0.5657(4) 0.4287(4) 0.1001(3)
C14 C 0.4911(8) 0.7661(10) 0.4430(6)
H11 H 0.5233 0.8826 0.4778
H12 H 0.4347 0.7111 0.4964
C15 C 0.3642(6) 0.7289(6) 0.3570(4)
H13 H 0.3575 0.6332 0.3005
H14 H 0.3890 0.8203 0.3260
H15 H 0.2616 0.7086 0.3871
O4 O 0.5931(4) 0.4635(4) 0.3423(2)
C16 C 0.5473(4) 0.1756(4) -0.0592(3)
loop_
_geom_bond_atom_site_label_1
_geom_bond_atom_site_label_2
_geom_bond_site_symmetry_1
_geom_bond_site_symmetry_2
Cl1 C1 1_555 1_555
Cl2 C11 1_555 1_555
Cl3 C2 1_555 1_555
Cl4 C16 1_555 1_555
O1 N1 1_555 1_555
O2 C13 1_555 1_555
O3 C4 1_555 1_555
N1 C4 1_555 1_555
C1 C2 1_555 1_555
C2 C3 1_555 1_555
C3 C4 1_555 1_555
C5 O1 1_555 1_555
C6 C5 1_555 1_555
H1 C6 1_555 1_555
C7 C6 1_555 1_555
H2 C7 1_555 1_555
H3 C7 1_555 1_555
C8 C7 1_555 1_555
H4 C8 1_555 1_555
H5 C8 1_555 1_555
C9 C8 1_555 1_555
H6 C9 1_555 1_555
H7 C9 1_555 1_555
C10 C9 1_555 1_555
H8 C10 1_555 1_555
H9 C10 1_555 1_555
H10 C10 1_555 1_555
C11 C1 1_555 1_555
C12 C3 1_555 1_555
C13 N1 1_555 1_555
C14 C6 1_555 1_555
H11 C14 1_555 1_555
H12 C14 1_555 1_555
C15 C14 1_555 1_555
H13 C15 1_555 1_555
H14 C15 1_555 1_555
H15 C15 1_555 1_555
O4 C5 1_555 1_555
C16 C11 1_555 1_555
C12 C13 1_555 1_555
C12 C16 1_555 1_555

#END
