
#######################################################################
#
#                 Cambridge Crystallographic Data Centre
#                                CCDC 
#
#######################################################################
#
# If this CIF has been generated from an entry in the Cambridge 
# Structural Database, then it will include bibliographic, chemical, 
# crystal, experimental, refinement or atomic coordinate data resulting 
# from the CCDC's data processing and validation procedures.
#
#######################################################################

data_VAMROS
_chemical_formula_moiety         'C24 H21 F2 N1 O3 S1'
_chemical_name_systematic        
3-(bis(4-fluorophenyl)methylene)-1-(phenylsulfonyl)piperidin-2-ol
_symmetry_cell_setting           monoclinic
_symmetry_space_group_name_H-M   'P 21'
_symmetry_Int_Tables_number      4
_space_group_name_Hall           'P 2yb'
loop_
_symmetry_equiv_pos_site_id
_symmetry_equiv_pos_as_xyz
1 x,y,z
2 -x,1/2+y,-z
_cell_length_a                   6.1017(3)
_cell_length_b                   8.0077(4)
_cell_length_c                   21.3371(11)
_cell_angle_alpha                90
_cell_angle_beta                 93.4040(10)
_cell_angle_gamma                90
_cell_volume                     1040.7
_exptl_crystal_colour            colorless
_exptl_crystal_description       tabular
_cell_formula_units_Z            2
loop_
_atom_site_label
_atom_site_type_symbol
_atom_site_fract_x
_atom_site_fract_y
_atom_site_fract_z
C1 C 0.5175(3) 0.5867(2) 0.34434(8)
H1 H 0.3772 0.5968 0.3651
H2 H 0.6279 0.5364 0.3745
C2 C 0.4865(3) 0.4775(2) 0.28648(8)
H3 H 0.3635 0.5213 0.2589
H4 H 0.4484 0.3627 0.2992
C3 C 0.6964(3) 0.4728(2) 0.24992(8)
H5 H 0.8122 0.4105 0.2746
H6 H 0.6659 0.4132 0.2097
C4 C 0.7767(3) 0.6460(2) 0.23699(8)
C5 C 0.8073(3) 0.7520(2) 0.29569(8)
H7 H 0.8505 0.8682 0.2845
C6 C 0.8224(3) 0.7103(2) 0.18090(8)
C7 C 0.7732(3) 0.6237(2) 0.11971(8)
C8 C 0.5676(3) 0.5520(2) 0.10477(8)
H8 H 0.4573 0.5578 0.1343
C9 C 0.5214(3) 0.4727(3) 0.04779(9)
H9 H 0.3826 0.4220 0.0384
C10 C 0.6831(3) 0.4694(3) 0.00500(8)
C11 C 0.8862(3) 0.5411(3) 0.01704(8)
H10 H 0.9939 0.5373 -0.0133
C12 C 0.9303(3) 0.6194(2) 0.07462(8)
H11 H 1.0691 0.6706 0.0834
C13 C 0.9283(3) 0.8777(2) 0.17545(7)
C14 C 0.8213(3) 1.0051(2) 0.14094(8)
H12 H 0.6816 0.9842 0.1204
C15 C 0.9164(3) 1.1618(3) 0.13629(8)
H13 H 0.8429 1.2489 0.1133
C16 C 1.1205(3) 1.1873(3) 0.16598(8)
C17 C 1.2334(3) 1.0654(3) 0.19931(8)
H14 H 1.3744 1.0871 0.2189
C18 C 1.1369(3) 0.9100(3) 0.20375(7)
H15 H 1.2134 0.8236 0.2264
C19 C 0.6613(3) 0.9010(3) 0.44188(7)
C20 C 0.8632(3) 0.9786(3) 0.45343(8)
H16 H 0.9305 1.0368 0.4209
C21 C 0.9655(3) 0.9698(3) 0.51326(9)
H17 H 1.1031 1.0231 0.5220
C22 C 0.8664(3) 0.8830(3) 0.56027(8)
H18 H 0.9367 0.8771 0.6011
C23 C 0.6655(4) 0.8049(3) 0.54805(8)
H19 H 0.5998 0.7450 0.5805
C24 C 0.5601(3) 0.8136(3) 0.48878(8)
H20 H 0.4219 0.7611 0.4803
F1 F 0.64082(19) 0.39289(17) -0.05130(5)
F2 F 1.2124(2) 1.34160(17) 0.16157(6)
N1 N 0.5921(2) 0.7531(2) 0.32476(7)
O1 O 0.29674(19) 0.9060(2) 0.37452(6)
O2 O 0.6140(2) 1.06013(18) 0.33559(6)
O3 O 0.9709(2) 0.67883(18) 0.33717(6)
H21 H 1.0531 0.7540 0.3529
S1 S 0.52917(6) 0.91586(6) 0.365979(18)
loop_
_geom_bond_atom_site_label_1
_geom_bond_atom_site_label_2
_geom_bond_site_symmetry_1
_geom_bond_site_symmetry_2
C1 H1 1_555 1_555
H2 C1 1_555 1_555
C2 C1 1_555 1_555
H3 C2 1_555 1_555
H4 C2 1_555 1_555
C3 C2 1_555 1_555
H5 C3 1_555 1_555
H6 C3 1_555 1_555
C4 C3 1_555 1_555
C5 C4 1_555 1_555
H7 C5 1_555 1_555
C6 C4 1_555 1_555
C7 C6 1_555 1_555
C8 C7 1_555 1_555
H8 C8 1_555 1_555
C9 C8 1_555 1_555
H9 C9 1_555 1_555
C10 C9 1_555 1_555
C11 C10 1_555 1_555
H10 C11 1_555 1_555
C12 C7 1_555 1_555
H11 C12 1_555 1_555
C13 C6 1_555 1_555
C14 C13 1_555 1_555
H12 C14 1_555 1_555
C15 C14 1_555 1_555
H13 C15 1_555 1_555
C16 C15 1_555 1_555
C17 C16 1_555 1_555
H14 C17 1_555 1_555
C18 C13 1_555 1_555
H15 C18 1_555 1_555
C19 C20 1_555 1_555
C20 H16 1_555 1_555
C21 C20 1_555 1_555
H17 C21 1_555 1_555
C22 C21 1_555 1_555
H18 C22 1_555 1_555
C23 C22 1_555 1_555
H19 C23 1_555 1_555
C24 C19 1_555 1_555
H20 C24 1_555 1_555
F1 C10 1_555 1_555
F2 C16 1_555 1_555
N1 C1 1_555 1_555
O1 S1 1_555 1_555
O2 S1 1_555 1_555
O3 C5 1_555 1_555
H21 O3 1_555 1_555
S1 C19 1_555 1_555
C5 N1 1_555 1_555
C11 C12 1_555 1_555
C17 C18 1_555 1_555
C23 C24 1_555 1_555
N1 S1 1_555 1_555

#END
