
#######################################################################
#
#                 Cambridge Crystallographic Data Centre
#                                CCDC 
#
#######################################################################
#
# If this CIF has been generated from an entry in the Cambridge 
# Structural Database, then it will include bibliographic, chemical, 
# crystal, experimental, refinement or atomic coordinate data resulting 
# from the CCDC's data processing and validation procedures.
#
#######################################################################

data_VAMRUY
_chemical_formula_moiety         'C25 H22 N2 O2 S1'
_chemical_name_systematic        
3-(Diphenylmethylene)-1-(phenylsulfonyl)piperidine-2-carbonitrile
_symmetry_cell_setting           triclinic
_symmetry_space_group_name_H-M   'P -1'
_symmetry_Int_Tables_number      2
_space_group_name_Hall           '-P 1'
loop_
_symmetry_equiv_pos_site_id
_symmetry_equiv_pos_as_xyz
1 x,y,z
2 -x,-y,-z
_cell_length_a                   8.0292(3)
_cell_length_b                   11.2051(4)
_cell_length_c                   11.9519(4)
_cell_angle_alpha                83.7440(10)
_cell_angle_beta                 77.9520(10)
_cell_angle_gamma                82.0760(10)
_cell_volume                     1037.99
_exptl_crystal_colour            colorless
_cell_formula_units_Z            2
loop_
_atom_site_label
_atom_site_type_symbol
_atom_site_fract_x
_atom_site_fract_y
_atom_site_fract_z
S1 S 0.75879(4) 0.66224(3) 0.69001(3)
O1 O 0.61341(13) 0.61087(9) 0.67213(9)
O2 O 0.84913(14) 0.73970(9) 0.60186(8)
N1 N 0.90015(14) 0.54691(10) 0.71674(10)
N2 N 0.76821(16) 0.46178(12) 1.00735(11)
C1 C 0.48941(17) 0.23365(13) 0.56783(12)
H1 H 0.3911 0.2343 0.5351
C2 C 0.59494(17) 0.32474(12) 0.53435(11)
H2 H 0.5695 0.3874 0.4780
C3 C 0.73823(17) 0.32442(12) 0.58334(11)
H3 H 0.8105 0.3866 0.5596
C4 C 0.77641(16) 0.23351(12) 0.66709(11)
C5 C 0.93129(17) 0.23213(12) 0.71830(11)
C6 C 0.96663(17) 0.32916(12) 0.76264(11)
C7 C 0.83434(17) 0.43939(11) 0.78385(11)
H4 H 0.7270 0.4253 0.7599
C8 C 0.69454(17) 0.74052(12) 0.81534(11)
C9 C 0.79151(18) 0.82853(12) 0.83234(12)
H5 H 0.8877 0.8490 0.7758
C10 C 0.74477(19) 0.88557(13) 0.93340(12)
H6 H 0.8091 0.9461 0.9462
C11 C 0.60500(19) 0.85504(13) 1.01599(12)
H7 H 0.5751 0.8939 1.0854
C12 C 0.55237(18) 0.70999(12) 0.89668(12)
H8 H 0.4864 0.6506 0.8835
C13 C 0.50868(18) 0.76806(13) 0.99768(12)
H9 H 0.4124 0.7480 1.0543
C14 C 1.06554(17) 0.57271(12) 0.73971(12)
H10 H 1.0500 0.5932 0.8200
H11 H 1.1060 0.6426 0.6882
C15 C 1.19760(18) 0.46185(12) 0.71955(13)
H12 H 1.3055 0.4773 0.7401
H13 H 1.2225 0.4480 0.6370
C16 C 1.13582(17) 0.34735(12) 0.79039(12)
H14 H 1.2212 0.2763 0.7711
H15 H 1.1217 0.3567 0.8734
C17 C 1.04493(16) 0.11484(11) 0.71743(11)
C18 C 1.09226(17) 0.05211(12) 0.61844(12)
H16 H 1.0563 0.0863 0.5498
C19 C 1.19126(17) -0.05959(12) 0.61973(12)
H17 H 1.2232 -0.1010 0.5518
C20 C 1.24404(18) -0.11144(12) 0.71943(13)
H18 H 1.3121 -0.1879 0.7198
C21 C 1.19652(18) -0.05060(12) 0.81885(12)
H19 H 1.2316 -0.0855 0.8875
C22 C 1.09749(17) 0.06152(12) 0.81742(12)
H20 H 1.0651 0.1025 0.8856
C23 C 0.52816(17) 0.14146(13) 0.64951(12)
H21 H 0.4568 0.0786 0.6721
C24 C 0.67088(17) 0.14121(12) 0.69805(11)
H22 H 0.6972 0.0774 0.7531
C25 C 0.79647(17) 0.45354(12) 0.91042(12)
loop_
_geom_bond_atom_site_label_1
_geom_bond_atom_site_label_2
_geom_bond_site_symmetry_1
_geom_bond_site_symmetry_2
S1 O1 1_555 1_555
O2 S1 1_555 1_555
N1 S1 1_555 1_555
N2 C25 1_555 1_555
C1 H1 1_555 1_555
C2 C1 1_555 1_555
H2 C2 1_555 1_555
C3 C2 1_555 1_555
H3 C3 1_555 1_555
C4 C3 1_555 1_555
C5 C4 1_555 1_555
C6 C5 1_555 1_555
C7 N1 1_555 1_555
H4 C7 1_555 1_555
C8 S1 1_555 1_555
C9 C8 1_555 1_555
H5 C9 1_555 1_555
C10 C9 1_555 1_555
H6 C10 1_555 1_555
C11 C10 1_555 1_555
H7 C11 1_555 1_555
C12 C8 1_555 1_555
H8 C12 1_555 1_555
C13 C11 1_555 1_555
H9 C13 1_555 1_555
C14 N1 1_555 1_555
H10 C14 1_555 1_555
H11 C14 1_555 1_555
C15 C14 1_555 1_555
H12 C15 1_555 1_555
H13 C15 1_555 1_555
C16 C6 1_555 1_555
H14 C16 1_555 1_555
H15 C16 1_555 1_555
C17 C5 1_555 1_555
C18 C17 1_555 1_555
H16 C18 1_555 1_555
C19 C18 1_555 1_555
H17 C19 1_555 1_555
C20 C19 1_555 1_555
H18 C20 1_555 1_555
C21 C20 1_555 1_555
H19 C21 1_555 1_555
C22 C17 1_555 1_555
H20 C22 1_555 1_555
C23 C1 1_555 1_555
H21 C23 1_555 1_555
C24 C4 1_555 1_555
H22 C24 1_555 1_555
C25 C7 1_555 1_555
C6 C7 1_555 1_555
C12 C13 1_555 1_555
C15 C16 1_555 1_555
C21 C22 1_555 1_555
C23 C24 1_555 1_555

#END
