
#######################################################################
#
#                 Cambridge Crystallographic Data Centre
#                                CCDC 
#
#######################################################################
#
# If this CIF has been generated from an entry in the Cambridge 
# Structural Database, then it will include bibliographic, chemical, 
# crystal, experimental, refinement or atomic coordinate data resulting 
# from the CCDC's data processing and validation procedures.
#
#######################################################################

data_VANGAV
_chemical_formula_moiety         'C25 H15 F6 N1'
_chemical_name_systematic        
2-(2,2''-bis(trifluoromethyl)-1,1':3',1''-terphenyl-2'-yl)pyridine
_symmetry_cell_setting           monoclinic
_symmetry_space_group_name_H-M   'P 21/n'
_symmetry_Int_Tables_number      14
_space_group_name_Hall           '-P 2yn'
loop_
_symmetry_equiv_pos_site_id
_symmetry_equiv_pos_as_xyz
1 x,y,z
2 1/2-x,1/2+y,1/2-z
3 -x,-y,-z
4 1/2+x,1/2-y,1/2+z
_cell_length_a                   8.6865(3)
_cell_length_b                   11.0532(4)
_cell_length_c                   22.5491(8)
_cell_angle_alpha                90
_cell_angle_beta                 95.493(3)
_cell_angle_gamma                90
_cell_volume                     2155.08
_exptl_crystal_colour            colorless
_exptl_crystal_description       block
_cell_formula_units_Z            4
loop_
_atom_site_label
_atom_site_type_symbol
_atom_site_fract_x
_atom_site_fract_y
_atom_site_fract_z
C1 C 0.5459(4) 0.7112(3) 0.48160(13)
C2 C 0.3872(3) 0.7620(2) 0.47305(10)
C3 C 0.3032(4) 0.7486(2) 0.41724(11)
H1 H 0.3487 0.7097 0.3868
C4 C 0.1575(4) 0.7912(3) 0.40690(12)
H2 H 0.1031 0.7813 0.3696
C5 C 0.0898(4) 0.8492(3) 0.45157(13)
H3 H -0.0106 0.8787 0.4446
C6 C 0.1705(3) 0.8636(2) 0.50668(11)
H4 H 0.1237 0.9033 0.5366
C7 C 0.3202(3) 0.82019(18) 0.51862(9)
C8 C 0.4005(2) 0.83600(18) 0.58009(9)
C9 C 0.5259(3) 0.9134(2) 0.58970(10)
H5 H 0.5599 0.9561 0.5579
C10 C 0.6006(3) 0.9276(2) 0.64586(11)
H6 H 0.6831 0.9812 0.6520
C11 C 0.5535(3) 0.8625(2) 0.69283(10)
H7 H 0.6063 0.8708 0.7305
C12 C 0.4286(2) 0.78498(19) 0.68465(9)
C13 C 0.3474(2) 0.77407(17) 0.62807(8)
C14 C 0.2056(2) 0.69663(18) 0.61937(8)
C15 C 0.2064(3) 0.5851(2) 0.59355(12)
H8 H 0.2973 0.5538 0.5811
C16 C 0.0714(4) 0.5192(3) 0.58610(16)
H9 H 0.0701 0.4427 0.5690
C17 C -0.0592(3) 0.5675(3) 0.60407(17)
H10 H -0.1522 0.5252 0.5996
C18 C -0.0511(3) 0.6795(3) 0.62887(18)
H11 H -0.1415 0.7127 0.6409
C19 C 0.3802(3) 0.7146(2) 0.73650(9)
C20 C 0.2693(4) 0.7611(3) 0.76949(13)
H12 H 0.2268 0.8363 0.7592
C21 C 0.2189(4) 0.7004(4) 0.81707(13)
H13 H 0.1439 0.7350 0.8385
C22 C 0.2780(4) 0.5903(3) 0.83293(12)
H14 H 0.2421 0.5484 0.8646
C23 C 0.3904(3) 0.5414(2) 0.80206(11)
H15 H 0.4329 0.4667 0.8134
C24 C 0.4421(3) 0.6022(2) 0.75374(9)
C25 C 0.5686(3) 0.5462(3) 0.72285(13)
N1 N 0.0773(3) 0.7447(2) 0.63704(12)
F1 F 0.5760(3) 0.6380(2) 0.43748(9)
F2 F 0.6554(2) 0.7963(2) 0.48301(12)
F3 F 0.5734(2) 0.6491(2) 0.53174(9)
F4 F 0.5510(3) 0.5521(2) 0.66442(8)
F5 F 0.7050(2) 0.6008(2) 0.73764(11)
F6 F 0.5953(2) 0.43203(18) 0.73809(11)
loop_
_geom_bond_atom_site_label_1
_geom_bond_atom_site_label_2
_geom_bond_site_symmetry_1
_geom_bond_site_symmetry_2
C1 C2 1_555 1_555
C2 C3 1_555 1_555
C3 H1 1_555 1_555
C4 C3 1_555 1_555
H2 C4 1_555 1_555
C5 C4 1_555 1_555
H3 C5 1_555 1_555
C6 C5 1_555 1_555
H4 C6 1_555 1_555
C7 C2 1_555 1_555
C8 C7 1_555 1_555
C9 C8 1_555 1_555
H5 C9 1_555 1_555
C10 C9 1_555 1_555
H6 C10 1_555 1_555
C11 C10 1_555 1_555
H7 C11 1_555 1_555
C12 C11 1_555 1_555
C13 C8 1_555 1_555
C14 C13 1_555 1_555
C15 C14 1_555 1_555
H8 C15 1_555 1_555
C16 C15 1_555 1_555
H9 C16 1_555 1_555
C17 C16 1_555 1_555
H10 C17 1_555 1_555
C18 C17 1_555 1_555
H11 C18 1_555 1_555
C19 C12 1_555 1_555
C20 C19 1_555 1_555
H12 C20 1_555 1_555
C21 C20 1_555 1_555
H13 C21 1_555 1_555
C22 C21 1_555 1_555
H14 C22 1_555 1_555
C23 C22 1_555 1_555
H15 C23 1_555 1_555
C24 C19 1_555 1_555
C25 C24 1_555 1_555
N1 C14 1_555 1_555
F1 C1 1_555 1_555
F2 C1 1_555 1_555
F3 C1 1_555 1_555
F4 C25 1_555 1_555
F5 C25 1_555 1_555
F6 C25 1_555 1_555
C6 C7 1_555 1_555
C12 C13 1_555 1_555
C18 N1 1_555 1_555
C23 C24 1_555 1_555

#END
