
#######################################################################
#
#                 Cambridge Crystallographic Data Centre
#                                CCDC 
#
#######################################################################
#
# If this CIF has been generated from an entry in the Cambridge 
# Structural Database, then it will include bibliographic, chemical, 
# crystal, experimental, refinement or atomic coordinate data resulting 
# from the CCDC's data processing and validation procedures.
#
#######################################################################

data_VANROU
_chemical_formula_moiety         'C26 H28 N4'
_chemical_name_systematic        
N,N'-diisopropyl-N,N'-diphenylquinazoline-2,4-diamine
_symmetry_cell_setting           monoclinic
_symmetry_space_group_name_H-M   'P 21'
_symmetry_Int_Tables_number      4
_space_group_name_Hall           'P 2yb'
loop_
_symmetry_equiv_pos_site_id
_symmetry_equiv_pos_as_xyz
1 x,y,z
2 -x,1/2+y,-z
_cell_length_a                   11.1732(13)
_cell_length_b                   7.8572(9)
_cell_length_c                   13.0703(19)
_cell_angle_alpha                90
_cell_angle_beta                 111.746(15)
_cell_angle_gamma                90
_cell_volume                     1065.79
_exptl_crystal_colour            'light red'
_exptl_crystal_description       block
_cell_formula_units_Z            2
loop_
_atom_site_label
_atom_site_type_symbol
_atom_site_fract_x
_atom_site_fract_y
_atom_site_fract_z
N1 N 0.5567(3) 0.2836(5) 0.1848(3)
N2 N 0.7087(3) 0.2851(5) 0.1033(3)
N3 N 0.7316(3) 0.4599(5) 0.2594(3)
N4 N 0.9002(3) 0.6395(5) 0.3444(3)
C1 C 0.4998(3) 0.3663(6) 0.2528(3)
C2 C 0.4468(4) 0.5282(6) 0.2272(4)
H1 H 0.4504 0.5865 0.1647
C3 C 0.3889(4) 0.6047(7) 0.2926(4)
H2 H 0.3529 0.7154 0.2752
C4 C 0.3837(4) 0.5194(7) 0.3832(4)
H3 H 0.3430 0.5712 0.4275
C5 C 0.4372(4) 0.3600(7) 0.4099(4)
H4 H 0.4340 0.3021 0.4727
C6 C 0.4955(4) 0.2846(7) 0.3447(3)
H5 H 0.5332 0.1750 0.3636
C7 C 0.4768(4) 0.1643(6) 0.0983(3)
H6 H 0.5362 0.0986 0.0715
C8 C 0.4059(4) 0.0381(7) 0.1421(4)
H7 H 0.3412 0.0980 0.1627
H8 H 0.4672 -0.0192 0.2069
H9 H 0.3632 -0.0464 0.0851
C9 C 0.3826(5) 0.2587(8) 0.0008(4)
H10 H 0.4295 0.3400 -0.0274
H11 H 0.3204 0.3201 0.0238
H12 H 0.3367 0.1773 -0.0573
C10 C 0.6707(4) 0.3431(6) 0.1809(3)
C11 C 0.8299(4) 0.3343(6) 0.1128(3)
C12 C 0.8780(4) 0.2705(6) 0.0353(3)
H13 H 0.8235 0.2041 -0.0246
C13 C 1.0012(4) 0.3020(7) 0.0442(3)
H14 H 1.0315 0.2589 -0.0098
C14 C 1.0828(4) 0.3971(6) 0.1318(3)
H15 H 1.1701 0.4133 0.1401
C15 C 1.0373(4) 0.4677(6) 0.2065(3)
H16 H 1.0935 0.5343 0.2654
C16 C 0.8461(3) 0.5151(6) 0.2664(3)
C17 C 0.9083(3) 0.4431(6) 0.1973(3)
C18 C 0.9963(3) 0.7535(6) 0.3358(3)
C19 C 1.1145(4) 0.7662(6) 0.4216(3)
H17 H 1.1327 0.6985 0.4858
C20 C 1.2068(4) 0.8792(7) 0.4131(4)
H18 H 1.2875 0.8900 0.4723
C21 C 1.1815(5) 0.9739(7) 0.3201(4)
H19 H 1.2455 1.0484 0.3140
C22 C 1.0642(5) 0.9623(7) 0.2353(4)
H20 H 1.0471 1.0292 0.1709
C23 C 0.9707(4) 0.8541(6) 0.2431(3)
H21 H 0.8888 0.8486 0.1849
C24 C 0.8218(4) 0.7077(6) 0.4069(3)
H22 H 0.7678 0.6120 0.4164
C25 C 0.9048(4) 0.7693(7) 0.5205(3)
H23 H 0.9517 0.8717 0.5142
H24 H 0.9665 0.6801 0.5588
H25 H 0.8502 0.7960 0.5622
C26 C 0.7314(4) 0.8454(8) 0.3425(4)
H26 H 0.6797 0.8029 0.2688
H27 H 0.7814 0.9445 0.3360
H28 H 0.6743 0.8785 0.3807
loop_
_geom_bond_atom_site_label_1
_geom_bond_atom_site_label_2
_geom_bond_site_symmetry_1
_geom_bond_site_symmetry_2
N1 C1 1_555 1_555
N2 C10 1_555 1_555
N3 C10 1_555 1_555
N4 C16 1_555 1_555
C1 C2 1_555 1_555
C2 H1 1_555 1_555
C3 C2 1_555 1_555
H2 C3 1_555 1_555
C4 C3 1_555 1_555
H3 C4 1_555 1_555
C5 C4 1_555 1_555
H4 C5 1_555 1_555
C6 C1 1_555 1_555
H5 C6 1_555 1_555
C7 N1 1_555 1_555
H6 C7 1_555 1_555
C8 C7 1_555 1_555
H7 C8 1_555 1_555
H8 C8 1_555 1_555
H9 C8 1_555 1_555
C9 C7 1_555 1_555
H10 C9 1_555 1_555
H11 C9 1_555 1_555
H12 C9 1_555 1_555
C10 N1 1_555 1_555
C11 N2 1_555 1_555
C12 C11 1_555 1_555
H13 C12 1_555 1_555
C13 C12 1_555 1_555
H14 C13 1_555 1_555
C14 C13 1_555 1_555
H15 C14 1_555 1_555
C15 C14 1_555 1_555
H16 C15 1_555 1_555
C16 N3 1_555 1_555
C17 C11 1_555 1_555
C18 N4 1_555 1_555
C19 C18 1_555 1_555
H17 C19 1_555 1_555
C20 C19 1_555 1_555
H18 C20 1_555 1_555
C21 C20 1_555 1_555
H19 C21 1_555 1_555
C22 C21 1_555 1_555
H20 C22 1_555 1_555
C23 C18 1_555 1_555
H21 C23 1_555 1_555
C24 N4 1_555 1_555
H22 C24 1_555 1_555
C25 C24 1_555 1_555
H23 C25 1_555 1_555
H24 C25 1_555 1_555
H25 C25 1_555 1_555
C26 C24 1_555 1_555
H26 C26 1_555 1_555
H27 C26 1_555 1_555
H28 C26 1_555 1_555
C5 C6 1_555 1_555
C15 C17 1_555 1_555
C16 C17 1_555 1_555
C22 C23 1_555 1_555

#END
