
#######################################################################
#
#                 Cambridge Crystallographic Data Centre
#                                CCDC 
#
#######################################################################
#
# If this CIF has been generated from an entry in the Cambridge 
# Structural Database, then it will include bibliographic, chemical, 
# crystal, experimental, refinement or atomic coordinate data resulting 
# from the CCDC's data processing and validation procedures.
#
#######################################################################

data_VANRIO
_chemical_formula_moiety         'C20 H24 Br1 N3'
_chemical_name_systematic        
N-(4-bromophenyl)-N-cyclohexyl-5,6,7,8-tetrahydroquinazolin-2-amine
_symmetry_cell_setting           orthorhombic
_symmetry_space_group_name_H-M   'P 21 21 21'
_symmetry_Int_Tables_number      19
_space_group_name_Hall           'P 2ac 2ab'
loop_
_symmetry_equiv_pos_site_id
_symmetry_equiv_pos_as_xyz
1 x,y,z
2 1/2-x,-y,1/2+z
3 1/2+x,1/2-y,-z
4 -x,1/2+y,1/2-z
_cell_length_a                   5.5354(3)
_cell_length_b                   15.1768(9)
_cell_length_c                   21.5660(10)
_cell_angle_alpha                90
_cell_angle_beta                 90
_cell_angle_gamma                90
_cell_volume                     1811.75
_exptl_crystal_colour            'light yellow'
_exptl_crystal_description       block
_cell_formula_units_Z            4
loop_
_atom_site_label
_atom_site_type_symbol
_atom_site_fract_x
_atom_site_fract_y
_atom_site_fract_z
Br1 Br 0.48769(8) 0.49635(3) -0.20335(2)
N1 N -0.0623(6) 0.5087(2) 0.04148(14)
N2 N -0.2565(7) 0.4369(2) 0.12267(16)
N3 N -0.1779(7) 0.3636(2) 0.02630(15)
C1 C 0.3157(7) 0.4977(3) -0.12650(18)
C2 C 0.4106(8) 0.4552(3) -0.0757(2)
H1 H 0.5559 0.4247 -0.0786
C3 C 0.2855(8) 0.4588(3) -0.0203(2)
H2 H 0.3477 0.4308 0.0146
C4 C 0.0671(7) 0.5039(3) -0.01623(17)
C5 C -0.0254(8) 0.5450(3) -0.06877(18)
H3 H -0.1727 0.5743 -0.0667
C6 C 0.0995(8) 0.5424(3) -0.12374(19)
H4 H 0.0387 0.5705 -0.1587
C7 C -0.0241(9) 0.5858(3) 0.08226(19)
H5 H -0.1453 0.5828 0.1153
C8 C 0.2228(10) 0.5825(3) 0.1129(2)
H6 H 0.3475 0.5851 0.0813
H7 H 0.2404 0.5272 0.1351
C9 C 0.2543(13) 0.6597(3) 0.1582(3)
H8 H 0.1385 0.6542 0.1918
H9 H 0.4152 0.6578 0.1760
C10 C 0.2177(11) 0.7466(3) 0.1257(2)
H10 H 0.3441 0.7548 0.0951
H11 H 0.2294 0.7942 0.1556
C11 C -0.0279(11) 0.7503(3) 0.0938(2)
H12 H -0.0429 0.8054 0.0714
H13 H -0.1545 0.7483 0.1249
C12 C -0.0594(10) 0.6731(3) 0.0487(2)
H14 H -0.2198 0.6751 0.0306
H15 H 0.0575 0.6781 0.0153
C13 C -0.1681(8) 0.4336(3) 0.06467(19)
C14 C -0.3069(8) 0.2956(3) 0.0476(2)
H16 H -0.3203 0.2462 0.0223
C15 C -0.4219(8) 0.2934(3) 0.10449(19)
C16 C -0.3841(8) 0.3668(3) 0.14176(19)
C17 C -0.4792(10) 0.3712(3) 0.20669(19)
H17 H -0.5497 0.4289 0.2135
H18 H -0.3453 0.3646 0.2353
C18 C -0.6664(12) 0.3018(4) 0.2209(2)
H19 H -0.6802 0.2954 0.2655
H20 H -0.8218 0.3213 0.2053
C19 C -0.6092(17) 0.2157(4) 0.1938(3)
H21 H -0.7381 0.1748 0.2038
H22 H -0.4620 0.1937 0.2126
C20 C -0.5767(10) 0.2178(3) 0.1247(2)
H23 H -0.5032 0.1630 0.1113
H24 H -0.7337 0.2225 0.1050
loop_
_geom_bond_atom_site_label_1
_geom_bond_atom_site_label_2
_geom_bond_site_symmetry_1
_geom_bond_site_symmetry_2
Br1 C1 1_555 1_555
N1 C4 1_555 1_555
N2 C13 1_555 1_555
N3 C13 1_555 1_555
C1 C2 1_555 1_555
C2 H1 1_555 1_555
C3 C2 1_555 1_555
H2 C3 1_555 1_555
C4 C3 1_555 1_555
C5 C4 1_555 1_555
H3 C5 1_555 1_555
C6 C1 1_555 1_555
H4 C6 1_555 1_555
C7 N1 1_555 1_555
H5 C7 1_555 1_555
C8 C7 1_555 1_555
H6 C8 1_555 1_555
H7 C8 1_555 1_555
C9 C8 1_555 1_555
H8 C9 1_555 1_555
H9 C9 1_555 1_555
C10 C9 1_555 1_555
H10 C10 1_555 1_555
H11 C10 1_555 1_555
C11 C10 1_555 1_555
H12 C11 1_555 1_555
H13 C11 1_555 1_555
C12 C7 1_555 1_555
H14 C12 1_555 1_555
H15 C12 1_555 1_555
C13 N1 1_555 1_555
C14 N3 1_555 1_555
H16 C14 1_555 1_555
C15 C14 1_555 1_555
C16 N2 1_555 1_555
C17 C16 1_555 1_555
H17 C17 1_555 1_555
H18 C17 1_555 1_555
C18 C17 1_555 1_555
H19 C18 1_555 1_555
H20 C18 1_555 1_555
C19 C18 1_555 1_555
H21 C19 1_555 1_555
H22 C19 1_555 1_555
C20 C15 1_555 1_555
H23 C20 1_555 1_555
H24 C20 1_555 1_555
C5 C6 1_555 1_555
C11 C12 1_555 1_555
C15 C16 1_555 1_555
C19 C20 1_555 1_555

#END
