
#######################################################################
#
#                 Cambridge Crystallographic Data Centre
#                                CCDC 
#
#######################################################################
#
# If this CIF has been generated from an entry in the Cambridge 
# Structural Database, then it will include bibliographic, chemical, 
# crystal, experimental, refinement or atomic coordinate data resulting 
# from the CCDC's data processing and validation procedures.
#
#######################################################################

data_VAPSAJ
_chemical_formula_moiety         'C46 H34 N2 O4,C1 H2 Cl2'
_chemical_name_systematic        
'6,13,19,26-tetraoxa-40,43-diazanonacyclo[29.8.4.2^2,5^.2^8,11^.2^21,24^.2^27,30^.1^14,18^.0^34,42^.0^37,41^]dopentaconta-1(40),2,4,8,10,14(48),15,17,21,23,27,29,31(43),32,34,36,38,41,44,46,49,51-docosaene dichloromethane solvate'
_symmetry_cell_setting           orthorhombic
_symmetry_space_group_name_H-M   'P n m a'
_symmetry_Int_Tables_number      62
_space_group_name_Hall           '-P 2ac 2n'
loop_
_symmetry_equiv_pos_site_id
_symmetry_equiv_pos_as_xyz
1 x,y,z
2 1/2-x,-y,1/2+z
3 -x,1/2+y,-z
4 1/2+x,1/2-y,1/2-z
5 -x,-y,-z
6 1/2+x,y,1/2-z
7 x,1/2-y,z
8 1/2-x,1/2+y,1/2+z
_cell_length_a                   11.058(4)
_cell_length_b                   23.613(8)
_cell_length_c                   14.049(5)
_cell_angle_alpha                90
_cell_angle_beta                 90
_cell_angle_gamma                90
_cell_volume                     3668.37
_exptl_crystal_colour            colorless
_exptl_crystal_description       block
_cell_formula_units_Z            4
loop_
_atom_site_label
_atom_site_type_symbol
_atom_site_fract_x
_atom_site_fract_y
_atom_site_fract_z
C1 C 0.74505(13) 0.72148(7) -0.29752(10)
H1 H 0.7948 0.7017 -0.3416
C2 C 0.67125(12) 0.68989(7) -0.23217(10)
C3 C 0.59651(12) 0.71929(6) -0.16647(9)
C4 C 0.52050(12) 0.63582(6) -0.10472(10)
C5 C 0.59422(14) 0.60314(7) -0.16657(10)
H2 H 0.5919 0.5629 -0.1646
C6 C 0.66876(13) 0.63074(7) -0.22921(10)
H3 H 0.7190 0.6095 -0.2709
C7 C 0.43789(13) 0.60853(6) -0.03435(10)
C8 C 0.39884(13) 0.63933(6) 0.04492(10)
H4 H 0.4230 0.6777 0.0517
C9 C 0.32540(13) 0.61492(6) 0.11409(10)
H5 H 0.3011 0.6362 0.1682
C10 C 0.28804(13) 0.55919(6) 0.10322(10)
C11 C 0.32350(14) 0.52817(6) 0.02388(11)
H6 H 0.2966 0.4903 0.0158
C12 C 0.39817(14) 0.55281(6) -0.04318(10)
H7 H 0.4231 0.5312 -0.0967
C13 C 0.16354(14) 0.56181(8) 0.24374(11)
H8 H 0.0919 0.5411 0.2676
H9 H 0.1353 0.5988 0.2192
C14 C 0.24840(13) 0.57224(7) 0.32587(10)
C15 C 0.21731(14) 0.61236(7) 0.39398(11)
H10 H 0.1453 0.6338 0.3862
C16 C 0.28967(14) 0.62158(6) 0.47307(11)
H11 H 0.2664 0.6488 0.5194
C17 C 0.39616(13) 0.59107(6) 0.48483(10)
C18 C 0.42855(13) 0.55165(6) 0.41601(10)
H12 H 0.5019 0.5311 0.4226
C19 C 0.35445(14) 0.54203(6) 0.33745(10)
H13 H 0.3770 0.5145 0.2915
C20 C 0.47182(14) 0.59829(6) 0.57373(11)
H14 H 0.4510 0.5680 0.6195
H15 H 0.5583 0.5940 0.5569
C21 C 0.49813(13) 0.69925(6) 0.57278(10)
C22 C 0.58103(14) 0.69862(7) 0.49792(11)
H16 H 0.6095 0.6639 0.4720
C23 C 0.6205(2) 0.7500 0.46264(17)
H17 H 0.6773 0.7500 0.4119
C24 C 0.45609(18) 0.7500 0.60896(13)
H18 H 0.3981 0.7500 0.6589
N1 N 0.52301(10) 0.69177(5) -0.10437(8)
O1 O 0.21506(10) 0.53038(5) 0.16657(7)
O2 O 0.45432(9) 0.65187(4) 0.61820(7)
C1F C 0.74505(13) 0.77852(7) -0.29752(10)
H1F H 0.7948 0.7983 -0.3416
C2F C 0.67125(12) 0.81011(7) -0.23217(10)
C3F C 0.59651(12) 0.78071(6) -0.16647(9)
C4F C 0.52050(12) 0.86418(6) -0.10472(10)
C5F C 0.59422(14) 0.89686(7) -0.16657(10)
H2F H 0.5919 0.9371 -0.1646
C6F C 0.66876(13) 0.86926(7) -0.22921(10)
H3F H 0.7190 0.8905 -0.2709
C7F C 0.43789(13) 0.89147(6) -0.03435(10)
C8F C 0.39884(13) 0.86067(6) 0.04492(10)
H4F H 0.4230 0.8223 0.0517
C9F C 0.32540(13) 0.88508(6) 0.11409(10)
H5F H 0.3011 0.8638 0.1682
C10F C 0.28804(13) 0.94081(6) 0.10322(10)
C11F C 0.32350(14) 0.97183(6) 0.02388(11)
H6F H 0.2966 1.0097 0.0158
C12F C 0.39817(14) 0.94719(6) -0.04318(10)
H7F H 0.4231 0.9688 -0.0967
C13F C 0.16354(14) 0.93819(8) 0.24374(11)
H8F H 0.0919 0.9589 0.2676
H9F H 0.1353 0.9012 0.2192
C14F C 0.24840(13) 0.92776(7) 0.32587(10)
C15F C 0.21731(14) 0.88764(7) 0.39398(11)
H10F H 0.1453 0.8662 0.3862
C16F C 0.28967(14) 0.87842(6) 0.47307(11)
H11F H 0.2664 0.8512 0.5194
C17F C 0.39616(13) 0.90893(6) 0.48483(10)
C18F C 0.42855(13) 0.94835(6) 0.41601(10)
H12F H 0.5019 0.9689 0.4226
C19F C 0.35445(14) 0.95797(6) 0.33745(10)
H13F H 0.3770 0.9855 0.2915
C20F C 0.47182(14) 0.90171(6) 0.57373(11)
H14F H 0.4510 0.9320 0.6195
H15F H 0.5583 0.9060 0.5569
C21F C 0.49813(13) 0.80075(6) 0.57278(10)
C22F C 0.58103(14) 0.80138(7) 0.49792(11)
H16F H 0.6095 0.8361 0.4720
N1F N 0.52301(10) 0.80823(5) -0.10437(8)
O1F O 0.21506(10) 0.96962(5) 0.16657(7)
O2F O 0.45432(9) 0.84813(4) 0.61820(7)
loop_
_geom_bond_atom_site_label_1
_geom_bond_atom_site_label_2
_geom_bond_site_symmetry_1
_geom_bond_site_symmetry_2
C1 H1 1_555 1_555
C2 C1 1_555 1_555
C3 C2 1_555 1_555
C4 C5 1_555 1_555
C5 H2 1_555 1_555
C6 C2 1_555 1_555
H3 C6 1_555 1_555
C7 C4 1_555 1_555
C8 C7 1_555 1_555
H4 C8 1_555 1_555
C9 C8 1_555 1_555
H5 C9 1_555 1_555
C10 C9 1_555 1_555
C11 C10 1_555 1_555
H6 C11 1_555 1_555
C12 C7 1_555 1_555
H7 C12 1_555 1_555
C13 H8 1_555 1_555
H9 C13 1_555 1_555
C14 C13 1_555 1_555
C15 C14 1_555 1_555
H10 C15 1_555 1_555
C16 C15 1_555 1_555
H11 C16 1_555 1_555
C17 C16 1_555 1_555
C18 C17 1_555 1_555
H12 C18 1_555 1_555
C19 C14 1_555 1_555
H13 C19 1_555 1_555
C20 C17 1_555 1_555
H14 C20 1_555 1_555
H15 C20 1_555 1_555
C21 C22 1_555 1_555
C22 H16 1_555 1_555
C23 C22 1_555 1_555
H17 C23 1_555 1_555
C24 C21 1_555 1_555
H18 C24 1_555 1_555
N1 C3 1_555 1_555
O1 C10 1_555 1_555
O2 C20 1_555 1_555
C1F C1 1_555 1_555
H1F C1F 1_555 1_555
C2F C1F 1_555 1_555
C3F C3 1_555 1_555
C4F C5F 1_555 1_555
C5F H2F 1_555 1_555
C6F C2F 1_555 1_555
H3F C6F 1_555 1_555
C7F C4F 1_555 1_555
C8F C7F 1_555 1_555
H4F C8F 1_555 1_555
C9F C8F 1_555 1_555
H5F C9F 1_555 1_555
C10F C9F 1_555 1_555
C11F C10F 1_555 1_555
H6F C11F 1_555 1_555
C12F C7F 1_555 1_555
H7F C12F 1_555 1_555
C13F H8F 1_555 1_555
H9F C13F 1_555 1_555
C14F C13F 1_555 1_555
C15F C14F 1_555 1_555
H10F C15F 1_555 1_555
C16F C15F 1_555 1_555
H11F C16F 1_555 1_555
C17F C16F 1_555 1_555
C18F C17F 1_555 1_555
H12F C18F 1_555 1_555
C19F C14F 1_555 1_555
H13F C19F 1_555 1_555
C20F C17F 1_555 1_555
H14F C20F 1_555 1_555
H15F C20F 1_555 1_555
C21F C24 1_555 1_555
C22F C23 1_555 1_555
H16F C22F 1_555 1_555
N1F C3F 1_555 1_555
O1F C10F 1_555 1_555
O2F C20F 1_555 1_555
C4 N1 1_555 1_555
C5 C6 1_555 1_555
C11 C12 1_555 1_555
C13 O1 1_555 1_555
C18 C19 1_555 1_555
C21 O2 1_555 1_555
C2F C3F 1_555 1_555
C4F N1F 1_555 1_555
C5F C6F 1_555 1_555
C11F C12F 1_555 1_555
C13F O1F 1_555 1_555
C18F C19F 1_555 1_555
C21F C22F 1_555 1_555
C21F O2F 1_555 1_555

#END
