
#######################################################################
#
#                 Cambridge Crystallographic Data Centre
#                                CCDC 
#
#######################################################################
#
# If this CIF has been generated from an entry in the Cambridge 
# Structural Database, then it will include bibliographic, chemical, 
# crystal, experimental, refinement or atomic coordinate data resulting 
# from the CCDC's data processing and validation procedures.
#
#######################################################################

data_VAQWOB
_chemical_formula_moiety         'C11 H11 F3 N4 S1'
_chemical_name_systematic        
3-(Ethylsulfanyl)-5-(4-(trifluoromethyl)phenyl)-4H-1,2,4-triazol-4-amine
_symmetry_cell_setting           monoclinic
_symmetry_space_group_name_H-M   'P 21/c'
_symmetry_Int_Tables_number      14
_space_group_name_Hall           '-P 2ybc'
loop_
_symmetry_equiv_pos_site_id
_symmetry_equiv_pos_as_xyz
1 x,y,z
2 -x,1/2+y,1/2-z
3 -x,-y,-z
4 x,1/2-y,1/2+z
_cell_length_a                   14.1323(16)
_cell_length_b                   10.7066(12)
_cell_length_c                   8.3446(10)
_cell_angle_alpha                90
_cell_angle_beta                 94.8630(10)
_cell_angle_gamma                90
_cell_volume                     1258.07
_exptl_crystal_colour            colorless
_exptl_crystal_description       block
_cell_formula_units_Z            4
loop_
_atom_site_label
_atom_site_type_symbol
_atom_site_fract_x
_atom_site_fract_y
_atom_site_fract_z
C1 C -0.02686(11) 0.08258(15) 0.29012(18)
C2 C 0.11788(11) 0.07612(14) 0.40588(18)
C3 C 0.20779(11) 0.10452(15) 0.50072(18)
C4 C 0.28112(12) 0.01623(16) 0.4987(2)
H1 H 0.2711 -0.0570 0.4398
C5 C 0.36798(12) 0.03702(17) 0.5834(2)
H2 H 0.4160 -0.0222 0.5815
C6 C 0.31198(12) 0.23468(17) 0.6739(2)
H3 H 0.3226 0.3080 0.7323
C7 C 0.22444(12) 0.21404(16) 0.5896(2)
H4 H 0.1766 0.2735 0.5923
C8 C -0.18412(12) 0.02907(17) 0.0894(2)
H5 H -0.1381 0.0155 0.0112
H6 H -0.1954 -0.0499 0.1415
C9 C -0.27633(14) 0.0792(2) 0.0065(3)
H7 H -0.3195 0.0988 0.0858
H8 H -0.3043 0.0173 -0.0660
H9 H -0.2635 0.1534 -0.0527
N1 N 0.01752(10) 0.25499(13) 0.48013(18)
N2 N 0.03552(9) 0.14552(11) 0.39495(15)
N3 N 0.01276(10) -0.02019(13) 0.23987(17)
N4 N 0.10527(10) -0.02364(13) 0.31355(17)
S1 S -0.13932(3) 0.14365(4) 0.23749(5)
C10 C 0.38366(12) 0.14629(16) 0.6712(2)
C11 C 0.47689(13) 0.1674(2) 0.7661(2)
F1 F 0.5497(7) 0.1484(14) 0.6825(14)
F2 F 0.4893(5) 0.2813(7) 0.8205(13)
F3 F 0.4895(8) 0.0940(12) 0.8913(14)
H10 H 0.0069(14) 0.320(2) 0.409(2)
H11 H -0.0323(17) 0.239(2) 0.534(3)
F4? F 0.5012(6) 0.2857(6) 0.7742(12)
F5? F 0.4751(5) 0.1365(9) 0.9157(6)
F6? F 0.5463(8) 0.1059(15) 0.7141(17)
loop_
_geom_bond_atom_site_label_1
_geom_bond_atom_site_label_2
_geom_bond_site_symmetry_1
_geom_bond_site_symmetry_2
C1 N2 1_555 1_555
C2 C3 1_555 1_555
C3 C4 1_555 1_555
C4 H1 1_555 1_555
C5 C4 1_555 1_555
H2 C5 1_555 1_555
C6 H3 1_555 1_555
C7 C3 1_555 1_555
H4 C7 1_555 1_555
C8 H5 1_555 1_555
H6 C8 1_555 1_555
C9 C8 1_555 1_555
H7 C9 1_555 1_555
H8 C9 1_555 1_555
H9 C9 1_555 1_555
N1 N2 1_555 1_555
N2 C2 1_555 1_555
N3 C1 1_555 1_555
N4 C2 1_555 1_555
S1 C1 1_555 1_555
C10 C5 1_555 1_555
C11 C10 1_555 1_555
F1 C11 1_555 1_555
F2 C11 1_555 1_555
F3 C11 1_555 1_555
H10 N1 1_555 1_555
H11 N1 1_555 1_555
C6 C7 1_555 1_555
C6 C10 1_555 1_555
C8 S1 1_555 1_555
N3 N4 1_555 1_555

#END
