
#######################################################################
#
#                 Cambridge Crystallographic Data Centre
#                                CCDC 
#
#######################################################################
#
# If this CIF has been generated from an entry in the Cambridge 
# Structural Database, then it will include bibliographic, chemical, 
# crystal, experimental, refinement or atomic coordinate data resulting 
# from the CCDC's data processing and validation procedures.
#
#######################################################################

data_VARGOM
_chemical_formula_moiety         'C20 H32 O4'
_chemical_name_systematic        '9,12-Dihydroxybeyeran-18-oic acid'
_chemical_properties_biological  Anti-inflammatory
_symmetry_cell_setting           orthorhombic
_symmetry_space_group_name_H-M   'P 21 21 21'
_symmetry_Int_Tables_number      19
_space_group_name_Hall           'P 2ac 2ab'
loop_
_symmetry_equiv_pos_site_id
_symmetry_equiv_pos_as_xyz
1 x,y,z
2 1/2-x,-y,1/2+z
3 -x,1/2+y,1/2-z
4 1/2+x,1/2-y,-z
_cell_length_a                   11.1723(4)
_cell_length_b                   11.2743(4)
_cell_length_c                   14.5630(5)
_cell_angle_alpha                90
_cell_angle_beta                 90
_cell_angle_gamma                90
_cell_volume                     1834.35
_cell_formula_units_Z            4
loop_
_atom_site_label
_atom_site_type_symbol
_atom_site_fract_x
_atom_site_fract_y
_atom_site_fract_z
O1 O 0.29384(15) 0.59864(19) -0.08959(10)
O2 O 0.45211(12) 0.54556(15) -0.00990(10)
H1 H 0.4835 0.5466 -0.0608
O3 O 0.11760(9) 0.31518(11) 0.24577(7)
H2 H 0.1627 0.3346 0.2876
O4 O 0.06053(11) -0.04656(12) 0.17264(9)
H3 H 0.0315 -0.0277 0.1230
C1 C 0.06798(15) 0.40909(17) 0.07381(12)
H4 H 0.0222 0.3476 0.0431
H5 H 0.0291 0.4255 0.1320
C2 C 0.06461(16) 0.52083(18) 0.01533(14)
H6 H 0.0936 0.5029 -0.0459
H7 H -0.0173 0.5485 0.0101
C3 C 0.14132(17) 0.61758(17) 0.05741(14)
H8 H 0.1064 0.6410 0.1156
H9 H 0.1399 0.6862 0.0173
C4 C 0.27202(15) 0.58115(15) 0.07364(12)
C5 C 0.27372(13) 0.46424(14) 0.13138(10)
H10 H 0.2355 0.4859 0.1896
C6 C 0.39797(14) 0.41945(16) 0.15893(12)
H11 H 0.4367 0.3837 0.1061
H12 H 0.4467 0.4857 0.1792
C7 C 0.38847(13) 0.32891(16) 0.23543(12)
H13 H 0.3555 0.3670 0.2895
H14 H 0.4681 0.3009 0.2508
C8 C 0.31033(13) 0.22274(15) 0.21028(11)
C9 C 0.18667(13) 0.26393(15) 0.17145(10)
C10 C 0.19520(14) 0.36154(15) 0.09297(10)
C11 C 0.11414(14) 0.15433(15) 0.14249(11)
H15 H 0.0322 0.1782 0.1305
H16 H 0.1471 0.1233 0.0857
C12 C 0.11387(14) 0.05554(16) 0.21475(11)
H17 H 0.0638 0.0804 0.2665
C13 C 0.24033(14) 0.02731(15) 0.25077(11)
C14 C 0.28837(14) 0.14133(16) 0.29360(11)
H18 H 0.3622 0.1267 0.3268
H19 H 0.2303 0.1759 0.3352
C15 C 0.37473(16) 0.13344(16) 0.14599(12)
H20 H 0.3580 0.1520 0.0822
H21 H 0.4606 0.1367 0.1555
C16 C 0.32642(16) 0.00893(16) 0.17029(13)
H22 H 0.2848 -0.0255 0.1182
H23 H 0.3914 -0.0434 0.1878
C17 C 0.23816(17) -0.07611(18) 0.31830(13)
H24 H 0.1827 -0.0591 0.3669
H25 H 0.3167 -0.0873 0.3436
H26 H 0.2137 -0.1469 0.2869
C18 C 0.33366(19) 0.68138(18) 0.12827(16)
H27 H 0.3329 0.7530 0.0926
H28 H 0.4149 0.6593 0.1413
H29 H 0.2915 0.6941 0.1849
C19 C 0.33864(16) 0.57480(16) -0.01745(12)
C20 C 0.24452(18) 0.31441(16) 0.00101(11)
H30 H 0.2471 0.3778 -0.0429
H31 H 0.1934 0.2524 -0.0214
H32 H 0.3238 0.2837 0.0102
loop_
_geom_bond_atom_site_label_1
_geom_bond_atom_site_label_2
_geom_bond_site_symmetry_1
_geom_bond_site_symmetry_2
O1 C19 1_555 1_555
O2 H1 1_555 1_555
O3 H2 1_555 1_555
O4 H3 1_555 1_555
C1 H4 1_555 1_555
H5 C1 1_555 1_555
C2 C1 1_555 1_555
H6 C2 1_555 1_555
H7 C2 1_555 1_555
C3 C2 1_555 1_555
H8 C3 1_555 1_555
H9 C3 1_555 1_555
C4 C3 1_555 1_555
C5 C4 1_555 1_555
H10 C5 1_555 1_555
C6 C5 1_555 1_555
H11 C6 1_555 1_555
H12 C6 1_555 1_555
C7 C6 1_555 1_555
H13 C7 1_555 1_555
H14 C7 1_555 1_555
C8 C7 1_555 1_555
C9 O3 1_555 1_555
C10 C1 1_555 1_555
C11 C9 1_555 1_555
H15 C11 1_555 1_555
H16 C11 1_555 1_555
C12 O4 1_555 1_555
H17 C12 1_555 1_555
C13 C12 1_555 1_555
C14 C8 1_555 1_555
H18 C14 1_555 1_555
H19 C14 1_555 1_555
C15 C8 1_555 1_555
H20 C15 1_555 1_555
H21 C15 1_555 1_555
C16 C13 1_555 1_555
H22 C16 1_555 1_555
H23 C16 1_555 1_555
C17 C13 1_555 1_555
H24 C17 1_555 1_555
H25 C17 1_555 1_555
H26 C17 1_555 1_555
C18 C4 1_555 1_555
H27 C18 1_555 1_555
H28 C18 1_555 1_555
H29 C18 1_555 1_555
C19 O2 1_555 1_555
C20 C10 1_555 1_555
H30 C20 1_555 1_555
H31 C20 1_555 1_555
H32 C20 1_555 1_555
C4 C19 1_555 1_555
C5 C10 1_555 1_555
C8 C9 1_555 1_555
C9 C10 1_555 1_555
C11 C12 1_555 1_555
C13 C14 1_555 1_555
C15 C16 1_555 1_555

#END
