
#######################################################################
#
#                 Cambridge Crystallographic Data Centre
#                                CCDC 
#
#######################################################################
#
# If this CIF has been generated from an entry in the Cambridge 
# Structural Database, then it will include bibliographic, chemical, 
# crystal, experimental, refinement or atomic coordinate data resulting 
# from the CCDC's data processing and validation procedures.
#
#######################################################################

data_VARMAD
_chemical_name_common            
'25,27-bis(3-Pyridylcarboxylate)-26,28-dihydroxycalix(4)arene dichloromethane solvate'
_chemical_formula_moiety         'C40 H30 N2 O6,1.25(C1 H2 Cl2)'
_chemical_name_systematic        
'26,28-Dihydroxy-25,27-bis(3-pyridylcarbonyloxy)calix(4)arene dichloromethane solvate'
_symmetry_cell_setting           triclinic
_symmetry_space_group_name_H-M   'P -1'
_symmetry_Int_Tables_number      2
_space_group_name_Hall           '-P 1'
loop_
_symmetry_equiv_pos_site_id
_symmetry_equiv_pos_as_xyz
1 x,y,z
2 -x,-y,-z
_cell_length_a                   10.470(3)
_cell_length_b                   11.944(3)
_cell_length_c                   15.007(4)
_cell_angle_alpha                107.516(5)
_cell_angle_beta                 99.866(5)
_cell_angle_gamma                98.523(5)
_cell_volume                     1722.88
_exptl_crystal_colour            'light yellow'
_cell_formula_units_Z            2
_exptl_crystal_recrystallization_method dichloromethane/methanol
loop_
_atom_site_label
_atom_site_type_symbol
_atom_site_fract_x
_atom_site_fract_y
_atom_site_fract_z
N1 N 0.6758(7) -0.2368(5) 0.1086(5)
N2 N 1.1639(4) -0.0885(4) 0.0242(3)
O1 O 1.0200(2) 0.2024(2) 0.25609(16)
O2 O 0.7407(3) 0.2208(2) 0.2489(2)
H1 H 0.6881 0.1794 0.2669
O3 O 0.5909(2) 0.0383(2) 0.31003(17)
O4 O 0.8787(2) 0.1033(2) 0.37806(16)
H2 H 0.7976 0.0868 0.3691
O5 O 1.1694(3) 0.2655(2) 0.1809(2)
O6 O 0.3771(3) -0.0534(3) 0.2788(2)
C1 C 1.0703(3) 0.1837(3) 0.5076(2)
C2 C 1.1536(4) 0.2148(3) 0.4416(3)
H3 H 1.2468 0.2294 0.4723
H4 H 1.1357 0.1467 0.3828
C3 C 1.1265(3) 0.3239(3) 0.4170(2)
C4 C 1.1707(3) 0.4396(3) 0.4859(3)
H5 H 1.2222 0.4489 0.5457
C5 C 1.1398(4) 0.5380(3) 0.4672(3)
H6 H 1.1739 0.6139 0.5129
C6 C 1.0575(4) 0.5261(3) 0.3801(3)
H7 H 1.0334 0.5935 0.3692
C7 C 1.0112(3) 0.4138(3) 0.3091(3)
C8 C 0.9164(4) 0.3996(4) 0.2153(3)
H8 H 0.9514 0.4603 0.1898
H9 H 0.9125 0.3215 0.1691
C9 C 0.7773(4) 0.4106(3) 0.2261(2)
C10 C 0.7265(4) 0.5099(3) 0.2183(3)
H10 H 0.7796 0.5713 0.2069
C11 C 0.5984(5) 0.5187(4) 0.2273(3)
H11 H 0.5665 0.5857 0.2222
C12 C 0.5189(4) 0.4289(4) 0.2438(3)
H12 H 0.4332 0.4355 0.2501
C13 C 0.5650(4) 0.3270(3) 0.2513(3)
C14 C 0.4753(4) 0.2279(4) 0.2695(3)
H13 H 0.3852 0.2403 0.2599
H14 H 0.4757 0.1511 0.2233
C15 C 0.5182(3) 0.2238(3) 0.3698(3)
C16 C 0.5040(4) 0.3142(4) 0.4486(3)
H15 H 0.4643 0.3757 0.4393
C17 C 0.5480(4) 0.3139(4) 0.5403(4)
H16 H 0.5338 0.3729 0.5920
C18 C 0.6132(4) 0.2269(4) 0.5563(3)
H17 H 0.6463 0.2306 0.6189
C19 C 0.6302(3) 0.1339(3) 0.4800(3)
C20 C 0.7112(4) 0.0459(3) 0.4977(3)
H18 H 0.6981 -0.0206 0.4384
H19 H 0.6805 0.0139 0.5444
C21 C 0.8576(3) 0.1027(3) 0.5342(2)
C22 C 0.9187(4) 0.1304(3) 0.6307(2)
H20 H 0.8687 0.1130 0.6723
C23 C 1.0507(4) 0.1827(3) 0.6654(3)
H21 H 1.0896 0.2008 0.7300
C24 C 1.1264(4) 0.2085(3) 0.6039(3)
H22 H 1.2163 0.2430 0.6277
C25 C 1.0535(3) 0.3179(3) 0.3291(2)
C26 C 0.9350(3) 0.1312(3) 0.4746(2)
C27 C 0.5762(3) 0.1334(3) 0.3888(3)
C28 C 0.6932(4) 0.3203(3) 0.2424(3)
C29 C 1.0971(3) 0.1846(3) 0.1911(2)
C30 C 1.0862(4) 0.0564(3) 0.1391(2)
C31 C 1.1649(4) 0.0261(4) 0.0735(3)
H23 H 1.2201 0.0873 0.0633
C32 C 1.0833(6) -0.1741(4) 0.0399(3)
H24 H 1.0821 -0.2538 0.0064
C33 C 1.0017(5) -0.1511(4) 0.1029(3)
H25 H 0.9460 -0.2136 0.1111
C34 C 1.0046(5) -0.0355(4) 0.1526(3)
H26 H 0.9510 -0.0179 0.1962
C35 C 0.4843(4) -0.0523(3) 0.2616(3)
C36 C 0.5176(4) -0.1440(3) 0.1846(3)
C37 C 0.6443(5) -0.1499(4) 0.1774(4)
H27 H 0.7130 -0.0909 0.2223
C38 C 0.5705(13) -0.3140(7) 0.0418(5)
H28 H 0.5881 -0.3705 -0.0101
C39 C 0.4457(10) -0.3154(6) 0.0443(5)
H29 H 0.3781 -0.3725 -0.0032
C40 C 0.4176(6) -0.2326(4) 0.1170(4)
H30 H 0.3299 -0.2348 0.1218
C41 C 0.1977(10) 0.4977(8) 0.1117(6)
H31 H 0.2880 0.4870 0.1263
H32 H 0.1399 0.4301 0.1175
Cl1 Cl 0.1843(8) 0.6250(6) 0.1950(4)
Cl2 Cl 0.1610(6) 0.4943(4) 0.0001(4)
C42 C 0.5000 0.0000 0.0000
Cl3 Cl 0.6406(11) 0.0598(7) 0.0824(5)
Cl3A Cl 0.3594(11) -0.0598(7) -0.0824(5)
loop_
_geom_bond_atom_site_label_1
_geom_bond_atom_site_label_2
_geom_bond_site_symmetry_1
_geom_bond_site_symmetry_2
N1 C37 1_555 1_555
N2 C31 1_555 1_555
O1 C25 1_555 1_555
O2 H1 1_555 1_555
O3 C27 1_555 1_555
O4 H2 1_555 1_555
O5 C29 1_555 1_555
O6 C35 1_555 1_555
C1 C2 1_555 1_555
C2 H3 1_555 1_555
H4 C2 1_555 1_555
C3 C2 1_555 1_555
C4 C3 1_555 1_555
H5 C4 1_555 1_555
C5 C4 1_555 1_555
H6 C5 1_555 1_555
C6 C5 1_555 1_555
H7 C6 1_555 1_555
C7 C6 1_555 1_555
C8 C7 1_555 1_555
H8 C8 1_555 1_555
H9 C8 1_555 1_555
C9 C8 1_555 1_555
C10 C9 1_555 1_555
H10 C10 1_555 1_555
C11 C10 1_555 1_555
H11 C11 1_555 1_555
C12 C11 1_555 1_555
H12 C12 1_555 1_555
C13 C12 1_555 1_555
C14 C13 1_555 1_555
H13 C14 1_555 1_555
H14 C14 1_555 1_555
C15 C14 1_555 1_555
C16 C15 1_555 1_555
H15 C16 1_555 1_555
C17 C16 1_555 1_555
H16 C17 1_555 1_555
C18 C17 1_555 1_555
H17 C18 1_555 1_555
C19 C18 1_555 1_555
C20 C19 1_555 1_555
H18 C20 1_555 1_555
H19 C20 1_555 1_555
C21 C20 1_555 1_555
C22 C21 1_555 1_555
H20 C22 1_555 1_555
C23 C22 1_555 1_555
H21 C23 1_555 1_555
C24 C1 1_555 1_555
H22 C24 1_555 1_555
C25 C3 1_555 1_555
C26 O4 1_555 1_555
C27 C15 1_555 1_555
C28 O2 1_555 1_555
C29 O1 1_555 1_555
C30 C29 1_555 1_555
C31 C30 1_555 1_555
H23 C31 1_555 1_555
C32 N2 1_555 1_555
H24 C32 1_555 1_555
C33 C32 1_555 1_555
H25 C33 1_555 1_555
C34 C30 1_555 1_555
H26 C34 1_555 1_555
C35 O3 1_555 1_555
C36 C35 1_555 1_555
C37 C36 1_555 1_555
H27 C37 1_555 1_555
C38 N1 1_555 1_555
H28 C38 1_555 1_555
C39 C38 1_555 1_555
H29 C39 1_555 1_555
C40 C36 1_555 1_555
H30 C40 1_555 1_555
C41 H31 1_555 1_555
H32 C41 1_555 1_555
Cl1 C41 1_555 1_555
Cl2 C41 1_555 1_555
C42 Cl3 1_555 1_555
Cl3A C42 1_555 1_555
C1 C26 1_555 1_555
C7 C25 1_555 1_555
C9 C28 1_555 1_555
C13 C28 1_555 1_555
C19 C27 1_555 1_555
C21 C26 1_555 1_555
C23 C24 1_555 1_555
C33 C34 1_555 1_555
C39 C40 1_555 1_555

#END
