
#######################################################################
#
#                 Cambridge Crystallographic Data Centre
#                                CCDC 
#
#######################################################################
#
# If this CIF has been generated from an entry in the Cambridge 
# Structural Database, then it will include bibliographic, chemical, 
# crystal, experimental, refinement or atomic coordinate data resulting 
# from the CCDC's data processing and validation procedures.
#
#######################################################################

data_VARMIN
_chemical_formula_moiety         'C22 H17 F1 N2 O2'
_chemical_name_systematic        
3-ethoxy-4-fluoro-1-(4-((4-methoxyphenyl)ethynyl)phenyl)-1H-pyrrole-2-carbonitrile
_symmetry_cell_setting           monoclinic
_symmetry_space_group_name_H-M   'P 21/c'
_symmetry_Int_Tables_number      14
_space_group_name_Hall           '-P 2ybc'
loop_
_symmetry_equiv_pos_site_id
_symmetry_equiv_pos_as_xyz
1 x,y,z
2 -x,1/2+y,1/2-z
3 -x,-y,-z
4 x,1/2-y,1/2+z
_cell_length_a                   6.362(3)
_cell_length_b                   7.651(4)
_cell_length_c                   37.63(2)
_cell_angle_alpha                90
_cell_angle_beta                 92.371(10)
_cell_angle_gamma                90
_cell_volume                     1830.1
_exptl_crystal_colour            colorless
_exptl_crystal_description       block
_cell_formula_units_Z            4
_exptl_crystal_recrystallization_method 'Vapour deposition'
loop_
_atom_site_label
_atom_site_type_symbol
_atom_site_fract_x
_atom_site_fract_y
_atom_site_fract_z
C1 C 0.1166(4) 0.0553(3) 0.26939(7)
C2 C 0.7197(4) 0.0888(3) 0.12446(6)
C3 C 0.5250(4) 0.0101(3) 0.12023(7)
H1 H 0.4793 -0.0316 0.0980
C4 C 0.7844(4) 0.1526(3) 0.15747(7)
H2 H 0.9158 0.2051 0.1605
C5 C 0.3329(5) 0.0440(3) 0.21202(7)
C6 C -0.0955(4) 0.0795(3) 0.33220(7)
C7 C 0.2311(5) 0.0428(3) 0.23781(7)
C8 C 0.4622(4) 0.0573(3) 0.18199(7)
C9 C 0.9261(4) -0.0287(3) 0.07430(6)
C10 C 0.0984(4) 0.1580(3) 0.32904(7)
H3 H 0.1582 0.2199 0.3482
C11 C 0.6577(5) 0.1393(3) 0.18558(7)
H4 H 0.7020 0.1854 0.2075
C12 C 0.2023(4) 0.1459(4) 0.29852(7)
H5 H 0.3331 0.1990 0.2970
C13 C -0.0788(5) -0.0193(3) 0.27270(7)
H6 H -0.1401 -0.0789 0.2534
C14 C -0.1859(4) -0.0087(3) 0.30354(7)
H7 H -0.3176 -0.0602 0.3051
C15 C 0.3989(4) -0.0067(3) 0.14869(7)
H8 H 0.2691 -0.0617 0.1457
C16 C 1.1033(4) 0.2137(4) 0.06387(8)
C17 C 1.0837(4) 0.0385(4) 0.05435(7)
C18 C 0.9664(4) 0.2530(3) 0.08880(7)
H9 H 0.9512 0.3614 0.0996
C19 C -0.3775(5) 0.0106(4) 0.36988(7)
H10 H -0.4828 0.0547 0.3532
H11 H -0.4199 0.0325 0.3937
H12 H -0.3614 -0.1129 0.3664
O1 O -0.1830(3) 0.0957(2) 0.36447(4)
N1 N 0.8539(3) 0.1066(3) 0.09550(5)
C20 C 0.8341(4) -0.1968(4) 0.07499(7)
O2 O 1.2042(3) -0.0336(3) 0.02973(5)
C21 C 1.1913(5) -0.2172(4) 0.02421(8)
H13 H 1.0517 -0.2487 0.0150
H14 H 1.2187 -0.2785 0.0465
C22 C 1.3523(5) -0.2663(5) -0.00201(9)
H15 H 1.3347 -0.1944 -0.0228
H16 H 1.3347 -0.3869 -0.0085
H17 H 1.4907 -0.2491 0.0085
N2 N 0.7582(4) -0.3317(3) 0.07554(7)
F1 F 1.2370(3) 0.3260(2) 0.04905(5)
loop_
_geom_bond_atom_site_label_1
_geom_bond_atom_site_label_2
_geom_bond_site_symmetry_1
_geom_bond_site_symmetry_2
C1 C7 1_555 1_555
C2 C3 1_555 1_555
C3 H1 1_555 1_555
C4 C2 1_555 1_555
H2 C4 1_555 1_555
C5 C7 1_555 1_555
C6 C10 1_555 1_555
C8 C5 1_555 1_555
C9 C17 1_555 1_555
C10 H3 1_555 1_555
C11 C4 1_555 1_555
H4 C11 1_555 1_555
C12 C1 1_555 1_555
H5 C12 1_555 1_555
C13 C1 1_555 1_555
H6 C13 1_555 1_555
C14 C6 1_555 1_555
H7 C14 1_555 1_555
C15 C3 1_555 1_555
H8 C15 1_555 1_555
C16 C17 1_555 1_555
C17 O2 1_555 1_555
C18 C16 1_555 1_555
H9 C18 1_555 1_555
C19 H10 1_555 1_555
H11 C19 1_555 1_555
H12 C19 1_555 1_555
O1 C6 1_555 1_555
N1 C2 1_555 1_555
C20 C9 1_555 1_555
O2 C21 1_555 1_555
C21 H13 1_555 1_555
H14 C21 1_555 1_555
C22 C21 1_555 1_555
H15 C22 1_555 1_555
H16 C22 1_555 1_555
H17 C22 1_555 1_555
N2 C20 1_555 1_555
F1 C16 1_555 1_555
C8 C11 1_555 1_555
C8 C15 1_555 1_555
C9 N1 1_555 1_555
C10 C12 1_555 1_555
C13 C14 1_555 1_555
C18 N1 1_555 1_555
C19 O1 1_555 1_555

#END
