
#######################################################################
#
#                 Cambridge Crystallographic Data Centre
#                                CCDC 
#
#######################################################################
#
# If this CIF has been generated from an entry in the Cambridge 
# Structural Database, then it will include bibliographic, chemical, 
# crystal, experimental, refinement or atomic coordinate data resulting 
# from the CCDC's data processing and validation procedures.
#
#######################################################################

data_VARMIM
_chemical_formula_moiety         'C44 H48 N4 O1 S1'
_chemical_name_systematic        
2-(5-(2-(4-(bis(4-butylphenyl)amino)-2-methoxyphenyl)vinyl)-3-hexyl-2-thienyl)ethene-1,1,2-tricarbonitrile
_symmetry_cell_setting           monoclinic
_symmetry_space_group_name_H-M   'C 2/c'
_symmetry_Int_Tables_number      15
_space_group_name_Hall           '-C 2yn'
loop_
_symmetry_equiv_pos_site_id
_symmetry_equiv_pos_as_xyz
1 x,y,z
2 -x,y,1/2-z
3 1/2+x,1/2+y,z
4 1/2-x,1/2+y,1/2-z
5 -x,-y,-z
6 x,-y,1/2+z
7 1/2-x,1/2-y,-z
8 1/2+x,1/2-y,1/2+z
_cell_length_a                   10.9857(8)
_cell_length_b                   15.0354(8)
_cell_length_c                   46.669(3)
_cell_angle_alpha                90
_cell_angle_beta                 90.149(2)
_cell_angle_gamma                90
_cell_volume                     7708.5
_exptl_crystal_colour            yellow
_exptl_crystal_description       irregular
_cell_formula_units_Z            8
loop_
_atom_site_label
_atom_site_type_symbol
_atom_site_fract_x
_atom_site_fract_y
_atom_site_fract_z
S1 S 0.19023(4) 0.40110(3) 0.232985(9)
O1 O 0.10468(13) 0.28604(8) 0.34456(3)
N1 N 0.31286(16) 0.49379(12) 0.11650(4)
N2 N 0.27899(18) 0.58665(11) 0.20192(4)
N3 N 0.22520(16) 0.26179(11) 0.13133(4)
N4 N -0.01636(15) 0.52106(10) 0.40916(3)
C1 C 0.28605(17) 0.47440(12) 0.13940(4)
C2 C 0.25558(16) 0.45204(12) 0.16824(4)
C3 C 0.26597(17) 0.52478(13) 0.18774(4)
C4 C 0.22354(15) 0.36565(12) 0.17567(4)
C5 C 0.22331(16) 0.30562(12) 0.15143(4)
C6 C 0.19408(15) 0.33120(12) 0.20317(4)
C7 C 0.16905(15) 0.24235(12) 0.21113(4)
C8 C 0.15626(18) 0.16363(12) 0.19111(4)
H1 H 0.2356 0.1528 0.1817
H2 H 0.0966 0.1788 0.1759
C9 C 0.11554(18) 0.07848(12) 0.20580(4)
H3 H 0.0377 0.0896 0.2158
H4 H 0.1769 0.0616 0.2204
C10 C 0.09864(18) 0.00166(12) 0.18498(4)
H5 H 0.1759 -0.0086 0.1746
H6 H 0.0358 0.0179 0.1707
C11 C 0.06084(18) -0.08397(12) 0.19990(5)
H7 H 0.1171 -0.0950 0.2161
H8 H -0.0218 -0.0759 0.2079
C12 C 0.0603(2) -0.16517(13) 0.18057(5)
H9 H 0.0003 -0.1561 0.1650
H10 H 0.1416 -0.1719 0.1717
C13 C 0.0288(3) -0.24961(15) 0.19666(7)
H11 H 0.0885 -0.2593 0.2120
H12 H 0.0303 -0.3002 0.1834
H13 H -0.0526 -0.2440 0.2050
C14 C 0.15223(16) 0.23494(12) 0.24046(4)
H14 H 0.1389 0.1793 0.2496
C15 C 0.15618(15) 0.31411(12) 0.25557(4)
C16 C 0.13107(16) 0.32551(12) 0.28539(4)
H15 H 0.1319 0.2745 0.2974
C17 C 0.10607(16) 0.40568(12) 0.29731(4)
H16 H 0.1097 0.4544 0.2844
C18 C 0.07496(16) 0.42958(12) 0.32627(4)
C19 C 0.04074(16) 0.51811(12) 0.33163(4)
H17 H 0.0398 0.5587 0.3160
C20 C 0.00861(17) 0.54894(12) 0.35823(4)
H18 H -0.0159 0.6091 0.3606
C21 C 0.01202(16) 0.49145(12) 0.38188(4)
C22 C 0.04521(17) 0.40222(12) 0.37726(4)
H19 H 0.0474 0.3621 0.3930
C23 C 0.07451(16) 0.37237(12) 0.35026(4)
C24 C 0.1127(3) 0.22492(14) 0.36791(5)
H20 H 0.1761 0.2446 0.3813
H21 H 0.1331 0.1657 0.3606
H22 H 0.0343 0.2225 0.3779
C25 C -0.03846(17) 0.61383(12) 0.41482(4)
C26 C -0.15068(18) 0.64000(14) 0.42533(4)
H23 H -0.2117 0.5969 0.4292
C27 C -0.17329(18) 0.72951(14) 0.43016(4)
H24 H -0.2501 0.7470 0.4376
C28 C -0.08679(18) 0.79411(13) 0.42443(4)
C29 C 0.02628(18) 0.76596(13) 0.41442(4)
H25 H 0.0879 0.8088 0.4108
C30 C 0.05046(17) 0.67677(12) 0.40967(4)
H26 H 0.1281 0.6589 0.4029
C31 C -0.1149(2) 0.89178(14) 0.42751(4)
H27 H -0.0497 0.9204 0.4389
H28 H -0.1923 0.8987 0.4381
C32 C -0.12564(19) 0.93867(14) 0.39876(4)
H29 H -0.0450 0.9382 0.3894
H30 H -0.1825 0.9047 0.3864
C33 C -0.1700(2) 1.03409(14) 0.40071(5)
H31 H -0.1716 1.0597 0.3812
H32 H -0.2546 1.0337 0.4079
C34 C -0.0952(3) 1.09353(15) 0.41955(6)
H33 H -0.1031 1.0744 0.4395
H34 H -0.1239 1.1550 0.4176
H35 H -0.0096 1.0901 0.4138
C35 C -0.02937(18) 0.46078(12) 0.43296(4)
C36 C 0.0488(2) 0.46766(14) 0.45597(4)
H36 H 0.1120 0.5108 0.4558
C37 C 0.0353(2) 0.41171(15) 0.47942(4)
H37 H 0.0895 0.4174 0.4952
C38 C -0.0554(2) 0.34774(14) 0.48029(4)
C39 C -0.1332(2) 0.34155(14) 0.45682(4)
H38 H -0.1963 0.2983 0.4569
C40 C -0.12085(19) 0.39687(14) 0.43337(4)
H39 H -0.1748 0.3913 0.4175
C41 C -0.0708(2) 0.28803(15) 0.50614(5)
H40 H -0.1564 0.2913 0.5126
H41 H -0.0187 0.3106 0.5219
C42 C -0.0383(2) 0.19065(15) 0.50041(5)
H42 H -0.0555 0.1554 0.5179
H43 H -0.0912 0.1678 0.4849
C43 C 0.0934(2) 0.17653(18) 0.49203(5)
H44 H 0.1463 0.2018 0.5072
H45 H 0.1096 0.2097 0.4741
C44 C 0.1278(2) 0.07940(19) 0.48752(6)
H46 H 0.1158 0.0464 0.5054
H47 H 0.2134 0.0755 0.4818
H48 H 0.0764 0.0538 0.4724
loop_
_geom_bond_atom_site_label_1
_geom_bond_atom_site_label_2
_geom_bond_site_symmetry_1
_geom_bond_site_symmetry_2
S1 C6 1_555 1_555
O1 C23 1_555 1_555
N1 C1 1_555 1_555
N2 C3 1_555 1_555
N3 C5 1_555 1_555
N4 C21 1_555 1_555
C1 C2 1_555 1_555
C2 C3 1_555 1_555
C4 C2 1_555 1_555
C5 C4 1_555 1_555
C6 C4 1_555 1_555
C7 C6 1_555 1_555
C8 C7 1_555 1_555
H1 C8 1_555 1_555
H2 C8 1_555 1_555
C9 C8 1_555 1_555
H3 C9 1_555 1_555
H4 C9 1_555 1_555
C10 C9 1_555 1_555
H5 C10 1_555 1_555
H6 C10 1_555 1_555
C11 C10 1_555 1_555
H7 C11 1_555 1_555
H8 C11 1_555 1_555
C12 C11 1_555 1_555
H9 C12 1_555 1_555
H10 C12 1_555 1_555
C13 C12 1_555 1_555
H11 C13 1_555 1_555
H12 C13 1_555 1_555
H13 C13 1_555 1_555
C14 C7 1_555 1_555
H14 C14 1_555 1_555
C15 S1 1_555 1_555
C16 C15 1_555 1_555
H15 C16 1_555 1_555
C17 C16 1_555 1_555
H16 C17 1_555 1_555
C18 C17 1_555 1_555
C19 C18 1_555 1_555
H17 C19 1_555 1_555
C20 C19 1_555 1_555
H18 C20 1_555 1_555
C21 C20 1_555 1_555
C22 C21 1_555 1_555
H19 C22 1_555 1_555
C23 C18 1_555 1_555
C24 O1 1_555 1_555
H20 C24 1_555 1_555
H21 C24 1_555 1_555
H22 C24 1_555 1_555
C25 N4 1_555 1_555
C26 C25 1_555 1_555
H23 C26 1_555 1_555
C27 C26 1_555 1_555
H24 C27 1_555 1_555
C28 C27 1_555 1_555
C29 C28 1_555 1_555
H25 C29 1_555 1_555
C30 C25 1_555 1_555
H26 C30 1_555 1_555
C31 C28 1_555 1_555
H27 C31 1_555 1_555
H28 C31 1_555 1_555
C32 C31 1_555 1_555
H29 C32 1_555 1_555
H30 C32 1_555 1_555
C33 C32 1_555 1_555
H31 C33 1_555 1_555
H32 C33 1_555 1_555
C34 C33 1_555 1_555
H33 C34 1_555 1_555
H34 C34 1_555 1_555
H35 C34 1_555 1_555
C35 N4 1_555 1_555
C36 C35 1_555 1_555
H36 C36 1_555 1_555
C37 C36 1_555 1_555
H37 C37 1_555 1_555
C38 C37 1_555 1_555
C39 C38 1_555 1_555
H38 C39 1_555 1_555
C40 C35 1_555 1_555
H39 C40 1_555 1_555
C41 C38 1_555 1_555
H40 C41 1_555 1_555
H41 C41 1_555 1_555
C42 C41 1_555 1_555
H42 C42 1_555 1_555
H43 C42 1_555 1_555
C43 C42 1_555 1_555
H44 C43 1_555 1_555
H45 C43 1_555 1_555
C44 C43 1_555 1_555
H46 C44 1_555 1_555
H47 C44 1_555 1_555
H48 C44 1_555 1_555
C14 C15 1_555 1_555
C22 C23 1_555 1_555
C29 C30 1_555 1_555
C39 C40 1_555 1_555

#END
