
#######################################################################
#
#                 Cambridge Crystallographic Data Centre
#                                CCDC 
#
#######################################################################
#
# If this CIF has been generated from an entry in the Cambridge 
# Structural Database, then it will include bibliographic, chemical, 
# crystal, experimental, refinement or atomic coordinate data resulting 
# from the CCDC's data processing and validation procedures.
#
#######################################################################

data_VARNUY
_chemical_formula_moiety         'C27 H32 O4 Si1'
_chemical_name_systematic        
rac-6-(t-Butyl(dimethyl)siloxy)-4-(2-(ethoxycarbonyl)ethenyl)-5a,6-dihydrobenz(b)naphtho(2,3-d)furan
_symmetry_cell_setting           triclinic
_symmetry_space_group_name_H-M   'P -1'
_symmetry_Int_Tables_number      2
_space_group_name_Hall           '-P 1'
loop_
_symmetry_equiv_pos_site_id
_symmetry_equiv_pos_as_xyz
1 x,y,z
2 -x,-y,-z
_cell_length_a                   7.6820(5)
_cell_length_b                   12.9900(10)
_cell_length_c                   13.6960(9)
_cell_angle_alpha                64.279(4)
_cell_angle_beta                 81.104(4)
_cell_angle_gamma                89.857(5)
_cell_volume                     1213.27
_exptl_crystal_colour            colorless
_exptl_crystal_description       'irregular block'
_cell_formula_units_Z            2
loop_
_atom_site_label
_atom_site_type_symbol
_atom_site_fract_x
_atom_site_fract_y
_atom_site_fract_z
Si1 Si 0.39016(7) 0.21077(5) 0.62576(5)
O1 O -0.37466(19) -0.06736(14) 0.90213(13)
O2 O -0.13025(18) -0.04430(13) 0.78000(12)
C1 C 0.0342(3) 0.23858(18) 0.93669(17)
C2 C -0.1384(3) 0.18720(17) 0.97572(16)
C3 C -0.2414(3) 0.22005(17) 1.04980(16)
H1 H -0.3592 0.1873 1.0790
C4 C -0.1790(3) 0.29826(18) 1.08240(16)
H2 H -0.2540 0.3179 1.1328
C5 C -0.0073(3) 0.34807(18) 1.04174(16)
H3 H 0.0363 0.4016 1.0639
C6 C 0.0989(3) 0.31786(18) 0.96814(16)
C7 C 0.3998(3) 0.43363(17) 0.89595(17)
H4 H 0.3748 0.4815 0.9320
C8 C 0.5702(3) 0.44884(17) 0.82492(16)
C9 C 0.7093(3) 0.52042(18) 0.82009(18)
H5 H 0.6927 0.5632 0.8617
C10 C 0.8713(3) 0.52993(19) 0.75544(19)
H6 H 0.9653 0.5787 0.7533
C11 C 0.8966(3) 0.46889(19) 0.69422(19)
H7 H 1.0086 0.4745 0.6509
C12 C 0.7582(3) 0.39887(18) 0.69573(18)
H8 H 0.7760 0.3574 0.6528
C13 C 0.5945(3) 0.38921(17) 0.75948(17)
O3 O 0.1601(3) 0.2111(3) 0.8691(2)
O4 O 0.4895(8) 0.2500(5) 0.7036(5)
C14 C 0.2806(3) 0.3530(2) 0.90983(17)
C15 C 0.4336(4) 0.3255(3) 0.7495(3)
H9 H 0.3592 0.3826 0.7015
C16 C 0.3306(3) 0.2645(2) 0.8647(2)
H10 H 0.4026 0.2059 0.9133
C20 C 0.1909(3) 0.2883(2) 0.58431(19)
H13 H 0.1031 0.2727 0.6500
H14 H 0.1410 0.2624 0.5364
H15 H 0.2235 0.3708 0.5446
C21 C 0.3306(3) 0.05497(19) 0.7065(2)
H16 H 0.2412 0.0417 0.7709
H17 H 0.4360 0.0156 0.7307
H18 H 0.2831 0.0252 0.6606
C22 C 0.5623(3) 0.23843(18) 0.50183(17)
C23 C 0.4917(4) 0.1975(3) 0.4246(2)
H19 H 0.5834 0.2132 0.3606
H20 H 0.3875 0.2383 0.4000
H21 H 0.4592 0.1150 0.4638
C24 C 0.7275(3) 0.1765(2) 0.5387(2)
H22 H 0.8169 0.1912 0.4740
H23 H 0.6963 0.0940 0.5800
H24 H 0.7748 0.2049 0.5857
C25 C 0.6146(3) 0.3676(2) 0.43713(19)
H25 H 0.7040 0.3815 0.3726
H26 H 0.6631 0.3952 0.4843
H27 H 0.5102 0.4085 0.4133
C26 C -0.2125(3) 0.10321(17) 0.94670(17)
H28 H -0.3291 0.0719 0.9827
C27 C -0.1364(3) 0.06528(19) 0.87597(18)
H29 H -0.0201 0.0944 0.8373
C28 C -0.2288(3) -0.02077(18) 0.85669(17)
C29 C -0.2055(3) -0.13053(19) 0.75546(19)
H30 H -0.3165 -0.1061 0.7264
H31 H -0.2317 -0.2041 0.8226
C30 C -0.0699(3) -0.1433(2) 0.6708(2)
H32 H -0.1148 -0.2012 0.6513
H33 H 0.0391 -0.1673 0.7008
H34 H -0.0454 -0.0698 0.6051
O5? O 0.1345(10) 0.2465(8) 0.8399(6)
O6? O 0.476(3) 0.2813(16) 0.6837(13)
C17? C 0.2806(3) 0.3530(2) 0.90983(17)
C18? C 0.4539(8) 0.2931(6) 0.7825(1)
H11? H 0.4733 0.2201 0.8458
C19? C 0.2770(10) 0.3360(7) 0.8056(7)
H12? H 0.2550 0.4082 0.7423
loop_
_geom_bond_atom_site_label_1
_geom_bond_atom_site_label_2
_geom_bond_site_symmetry_1
_geom_bond_site_symmetry_2
Si1 O4 1_555 1_555
O1 C28 1_555 1_555
O2 C28 1_555 1_555
C1 C2 1_555 1_555
C2 C3 1_555 1_555
C3 H1 1_555 1_555
C4 C3 1_555 1_555
H2 C4 1_555 1_555
C5 C4 1_555 1_555
H3 C5 1_555 1_555
C6 C1 1_555 1_555
C7 H4 1_555 1_555
C8 C7 1_555 1_555
C9 C8 1_555 1_555
H5 C9 1_555 1_555
C10 C9 1_555 1_555
H6 C10 1_555 1_555
C11 C10 1_555 1_555
H7 C11 1_555 1_555
C12 C11 1_555 1_555
H8 C12 1_555 1_555
C13 C8 1_555 1_555
O3 C1 1_555 1_555
O4 C15 1_555 1_555
C14 C6 1_555 1_555
C15 C13 1_555 1_555
H9 C15 1_555 1_555
C16 O3 1_555 1_555
H10 C16 1_555 1_555
C20 Si1 1_555 1_555
H13 C20 1_555 1_555
H14 C20 1_555 1_555
H15 C20 1_555 1_555
C21 Si1 1_555 1_555
H16 C21 1_555 1_555
H17 C21 1_555 1_555
H18 C21 1_555 1_555
C22 Si1 1_555 1_555
C23 C22 1_555 1_555
H19 C23 1_555 1_555
H20 C23 1_555 1_555
H21 C23 1_555 1_555
C24 C22 1_555 1_555
H22 C24 1_555 1_555
H23 C24 1_555 1_555
H24 C24 1_555 1_555
C25 C22 1_555 1_555
H25 C25 1_555 1_555
H26 C25 1_555 1_555
H27 C25 1_555 1_555
C26 C2 1_555 1_555
H28 C26 1_555 1_555
C27 C26 1_555 1_555
H29 C27 1_555 1_555
C28 C27 1_555 1_555
C29 O2 1_555 1_555
H30 C29 1_555 1_555
H31 C29 1_555 1_555
C30 C29 1_555 1_555
H32 C30 1_555 1_555
H33 C30 1_555 1_555
H34 C30 1_555 1_555
C5 C6 1_555 1_555
C7 C14 1_555 1_555
C12 C13 1_555 1_555
C14 C16 1_555 1_555
C15 C16 1_555 1_555

#END
