
#######################################################################
#
#                 Cambridge Crystallographic Data Centre
#                                CCDC 
#
#######################################################################
#
# If this CIF has been generated from an entry in the Cambridge 
# Structural Database, then it will include bibliographic, chemical, 
# crystal, experimental, refinement or atomic coordinate data resulting 
# from the CCDC's data processing and validation procedures.
#
#######################################################################

data_VARSOZ
_chemical_formula_moiety         'C21 H15 N5 O3 S1'
_chemical_name_systematic        
6'-(3-nitrophenyl)-2-oxo-1,1',2,7a'-tetrahydrospiro[indole-3,5'-pyrrolo[1,2-c][1,3]thiazole]-7',7'(6'H)-dicarbonitrile
_chemical_properties_biological  'antimicrobial activity'
_symmetry_cell_setting           orthorhombic
_symmetry_space_group_name_H-M   'P 21 21 21'
_symmetry_Int_Tables_number      19
_space_group_name_Hall           'P 2ac 2ab'
loop_
_symmetry_equiv_pos_site_id
_symmetry_equiv_pos_as_xyz
1 x,y,z
2 1/2+x,1/2-y,-z
3 -x,1/2+y,1/2-z
4 1/2-x,-y,1/2+z
_cell_length_a                   9.7095(4)
_cell_length_b                   13.7501(6)
_cell_length_c                   14.3037(5)
_cell_angle_alpha                90
_cell_angle_beta                 90
_cell_angle_gamma                90
_cell_volume                     1909.64
_exptl_crystal_colour            gold
_exptl_crystal_description       block
_cell_formula_units_Z            4
loop_
_atom_site_label
_atom_site_type_symbol
_atom_site_fract_x
_atom_site_fract_y
_atom_site_fract_z
S1 S 0.49595(9) 0.43723(4) 1.09180(5)
O1 O 0.2970(2) 0.89238(13) 0.66483(14)
O2 O 0.2414(2) 0.82688(16) 0.53342(15)
O3 O 0.20221(15) 0.72800(10) 0.91141(12)
C1 C 0.44659(17) 0.62856(12) 0.75625(12)
C2 C 0.26642(18) 0.47510(12) 0.87887(12)
C3 C 0.5063(2) 0.61914(12) 1.02154(12)
H1 H 0.5079 0.6697 1.0698
N1 N 0.36634(17) 0.58339(12) 1.00956(10)
N2 N 0.09614(16) 0.58875(12) 0.86075(12)
N3 N 0.29692(19) 0.82432(14) 0.60937(14)
C4 C 0.37096(19) 0.73503(13) 0.63546(14)
C5 C 0.37930(18) 0.71370(13) 0.72950(12)
H2 H 0.3410 0.7550 0.7739
C6 C 0.45934(16) 0.59706(11) 0.85666(12)
H3 H 0.5123 0.5364 0.8545
C7 C 0.32674(16) 0.57137(11) 0.91129(12)
C8 C 0.13135(19) 0.49024(12) 0.85033(12)
C9 C 0.0511(2) 0.41635(16) 0.81392(15)
H4 H -0.0394 0.4274 0.7955
C10 C 0.1108(3) 0.32498(16) 0.80592(15)
H5 H 0.0593 0.2738 0.7818
C11 C 0.4293(2) 0.67886(15) 0.56640(13)
H6 H 0.4223 0.6963 0.5038
C12 C 0.4981(2) 0.59604(14) 0.59312(13)
H7 H 0.5396 0.5570 0.5482
C13 C 0.5060(2) 0.57040(12) 0.68691(13)
H8 H 0.5516 0.5136 0.7039
C14 C 0.54158(16) 0.66483(12) 0.92470(12)
C15 C 0.3386(3) 0.50998(17) 1.07733(15)
H9 H 0.2633 0.4690 1.0564
H10 H 0.3128 0.5395 1.1364
C16 C 0.6024(2) 0.53442(17) 1.05026(18)
H11 H 0.6651 0.5554 1.0991
H12 H 0.6563 0.5130 0.9970
C17 C 0.3243(2) 0.38407(13) 0.87032(15)
H13 H 0.4146 0.3729 0.8890
C18 C 0.2448(3) 0.30889(15) 0.83308(16)
H14 H 0.2829 0.2472 0.8266
C19 C 0.20282(18) 0.64128(13) 0.89432(13)
C20 C 0.50311(19) 0.76908(12) 0.92136(13)
N4 N 0.4805(2) 0.84928(12) 0.91820(15)
C21 C 0.68924(18) 0.65913(13) 0.89968(14)
N5 N 0.79939(18) 0.65302(16) 0.87435(15)
loop_
_geom_bond_atom_site_label_1
_geom_bond_atom_site_label_2
_geom_bond_site_symmetry_1
_geom_bond_site_symmetry_2
S1 C15 1_555 1_555
O1 N3 1_555 1_555
O2 N3 1_555 1_555
O3 C19 1_555 1_555
C1 C5 1_555 1_555
C2 C7 1_555 1_555
C3 H1 1_555 1_555
N1 C3 1_555 1_555
N2 C8 1_555 1_555
N3 C4 1_555 1_555
C4 C5 1_555 1_555
C5 H2 1_555 1_555
C6 C1 1_555 1_555
H3 C6 1_555 1_555
C7 N1 1_555 1_555
C8 C2 1_555 1_555
C9 C8 1_555 1_555
H4 C9 1_555 1_555
C10 C9 1_555 1_555
H5 C10 1_555 1_555
C11 C4 1_555 1_555
H6 C11 1_555 1_555
C12 C11 1_555 1_555
H7 C12 1_555 1_555
C13 C1 1_555 1_555
H8 C13 1_555 1_555
C14 C3 1_555 1_555
C15 N1 1_555 1_555
H9 C15 1_555 1_555
H10 C15 1_555 1_555
C16 S1 1_555 1_555
H11 C16 1_555 1_555
H12 C16 1_555 1_555
C17 C2 1_555 1_555
H13 C17 1_555 1_555
C18 C10 1_555 1_555
H14 C18 1_555 1_555
C19 N2 1_555 1_555
C20 C14 1_555 1_555
N4 C20 1_555 1_555
C21 C14 1_555 1_555
N5 C21 1_555 1_555
C3 C16 1_555 1_555
C6 C7 1_555 1_555
C6 C14 1_555 1_555
C7 C19 1_555 1_555
C12 C13 1_555 1_555
C17 C18 1_555 1_555

#END
