
#######################################################################
#
#                 Cambridge Crystallographic Data Centre
#                                CCDC 
#
#######################################################################
#
# If this CIF has been generated from an entry in the Cambridge 
# Structural Database, then it will include bibliographic, chemical, 
# crystal, experimental, refinement or atomic coordinate data resulting 
# from the CCDC's data processing and validation procedures.
#
#######################################################################

data_VATHUU
_chemical_formula_moiety         'C11 H14 O3 S1'
_chemical_name_systematic        
'(2S,4R)-2-benzyl-3-methanesulfinylpropanoic acid'
_chemical_properties_biological  'carboxypeptidase A inhibitor'
_symmetry_cell_setting           orthorhombic
_symmetry_space_group_name_H-M   'P 21 21 21'
_symmetry_Int_Tables_number      19
_space_group_name_Hall           'P 2ac 2ab'
loop_
_symmetry_equiv_pos_site_id
_symmetry_equiv_pos_as_xyz
1 x,y,z
2 1/2-x,-y,1/2+z
3 -x,1/2+y,1/2-z
4 1/2+x,1/2-y,-z
_cell_length_a                   6.0201(8)
_cell_length_b                   8.8128(12)
_cell_length_c                   22.277(3)
_cell_angle_alpha                90
_cell_angle_beta                 90
_cell_angle_gamma                90
_cell_volume                     1181.88
_chemical_melting_point          '122-124 deg.C'
_cell_formula_units_Z            4
loop_
_atom_site_label
_atom_site_type_symbol
_atom_site_fract_x
_atom_site_fract_y
_atom_site_fract_z
S1 S 0.2808(2) 0.69648(16) 0.74686(9)
O1 O 0.1300(6) 0.7905(4) 0.7855(2)
O2 O 0.8274(8) 0.4931(5) 0.8391(3)
O3 O 0.7279(8) 0.7282(5) 0.8214(3)
H1 H 0.847(8) 0.773(8) 0.811(4)
C1 C 0.1158(13) 0.6169(7) 0.6894(4)
H2 H 0.0734 0.6948 0.6616
H3 H -0.0150 0.5724 0.7067
H4 H 0.1992 0.5401 0.6687
C2 C 0.3288(10) 0.5235(6) 0.7890(4)
H5 H 0.1881 0.4734 0.7965
H6 H 0.4207 0.4553 0.7655
C3 C 0.4445(11) 0.5577(7) 0.8491(4)
H7 H 0.3778 0.6491 0.8666
C4 C 0.6881(12) 0.5881(7) 0.8371(4)
C5 C 0.4137(13) 0.4264(8) 0.8928(4)
H8 H 0.2568 0.4030 0.8963
H9 H 0.4886 0.3371 0.8772
C6 C 0.5050(13) 0.4644(7) 0.9531(5)
C7 C 0.7020(15) 0.4070(8) 0.9758(5)
H10 H 0.7825 0.3385 0.9526
C8 C 0.781(2) 0.4463(11) 1.0298(6)
H11 H 0.9153 0.4054 1.0426
C9 C 0.671(3) 0.5446(13) 1.0669(6)
H12 H 0.7270 0.5706 1.1044
C10 C 0.475(3) 0.6028(13) 1.0462(7)
H13 H 0.3965 0.6703 1.0703
C11 C 0.3902(18) 0.5645(10) 0.9907(6)
H14 H 0.2555 0.6055 0.9782
loop_
_geom_bond_atom_site_label_1
_geom_bond_atom_site_label_2
_geom_bond_site_symmetry_1
_geom_bond_site_symmetry_2
S1 O1 1_555 1_555
O2 C4 1_555 1_555
O3 H1 1_555 1_555
C1 S1 1_555 1_555
H2 C1 1_555 1_555
H3 C1 1_555 1_555
H4 C1 1_555 1_555
C2 S1 1_555 1_555
H5 C2 1_555 1_555
H6 C2 1_555 1_555
C3 C2 1_555 1_555
H7 C3 1_555 1_555
C4 O3 1_555 1_555
C5 C3 1_555 1_555
H8 C5 1_555 1_555
H9 C5 1_555 1_555
C6 C5 1_555 1_555
C7 C6 1_555 1_555
H10 C7 1_555 1_555
C8 C7 1_555 1_555
H11 C8 1_555 1_555
C9 C8 1_555 1_555
H12 C9 1_555 1_555
C10 C9 1_555 1_555
H13 C10 1_555 1_555
C11 C6 1_555 1_555
H14 C11 1_555 1_555
C3 C4 1_555 1_555
C10 C11 1_555 1_555

#END
