
#######################################################################
#
#                 Cambridge Crystallographic Data Centre
#                                CCDC 
#
#######################################################################
#
# If this CIF has been generated from an entry in the Cambridge 
# Structural Database, then it will include bibliographic, chemical, 
# crystal, experimental, refinement or atomic coordinate data resulting 
# from the CCDC's data processing and validation procedures.
#
#######################################################################

data_VATHAC
_chemical_formula_moiety         'C16 H15 F1 N2 O3,H2 O1'
_chemical_name_systematic        
"N'-(3-ethoxy-2-hydroxybenzylidene)-4-fluorobenzohydrazide monohydrate"
_symmetry_cell_setting           monoclinic
_symmetry_space_group_name_H-M   'P 21/c'
_symmetry_Int_Tables_number      14
_space_group_name_Hall           '-P 2ybc'
loop_
_symmetry_equiv_pos_site_id
_symmetry_equiv_pos_as_xyz
1 x,y,z
2 -x,1/2+y,1/2-z
3 -x,-y,-z
4 x,1/2-y,1/2+z
_cell_length_a                   9.3700(9)
_cell_length_b                   13.0848(11)
_cell_length_c                   12.4038(11)
_cell_angle_alpha                90
_cell_angle_beta                 96.367(2)
_cell_angle_gamma                90
_cell_volume                     1511.38
_exptl_crystal_colour            colorless
_exptl_crystal_description       block
_cell_formula_units_Z            4
loop_
_atom_site_label
_atom_site_type_symbol
_atom_site_fract_x
_atom_site_fract_y
_atom_site_fract_z
F1 F -0.32713(13) 0.24726(9) 1.21631(9)
H1 H 0.021(2) 0.2912(8) 0.8243(17)
N1 N 0.09085(16) 0.20310(12) 0.71706(11)
N2 N 0.01735(17) 0.22548(12) 0.80485(12)
O1 O 0.20167(14) 0.09037(10) 0.56078(10)
H2 H 0.1520 0.0992 0.6104
O2 O 0.36796(14) 0.08502(9) 0.40676(10)
O3 O -0.05292(17) 0.06215(10) 0.82335(11)
C1 C 0.23840(19) 0.27202(14) 0.58815(14)
C2 C 0.26143(19) 0.18064(14) 0.53559(14)
C3 C 0.35138(19) 0.17888(14) 0.45245(14)
C4 C 0.4146(2) 0.26758(14) 0.42238(15)
H3 H 0.4747 0.2662 0.3675
C5 C 0.3897(2) 0.35866(16) 0.47304(16)
H4 H 0.4316 0.4186 0.4515
C6 C 0.3034(2) 0.36073(15) 0.55502(15)
H5 H 0.2879 0.4223 0.5892
C7 C 0.1514(2) 0.27933(15) 0.67798(15)
H6 H 0.1396 0.3433 0.7084
C8 C -0.0504(2) 0.15118(15) 0.85366(14)
C9 C -0.12300(19) 0.18213(13) 0.94956(13)
C10 C -0.1475(2) 0.10666(14) 1.02330(15)
H7 H -0.1175 0.0402 1.0118
C11 C -0.2158(2) 0.12843(15) 1.11377(16)
H8 H -0.2316 0.0777 1.1636
C12 C -0.2593(2) 0.22596(15) 1.12782(14)
C13 C -0.2360(2) 0.30318(14) 1.05792(15)
H9 H -0.2661 0.3694 1.0706
C14 C -0.16723(19) 0.28106(14) 0.96830(14)
H10 H -0.1503 0.3328 0.9200
C15 C 0.4745(2) 0.07684(15) 0.33291(16)
H11 H 0.5685 0.0931 0.3697
H12 H 0.4534 0.1243 0.2731
C16 C 0.4724(2) -0.02973(16) 0.29175(18)
H13 H 0.4904 -0.0761 0.3517
H14 H 0.5453 -0.0378 0.2438
H15 H 0.3800 -0.0442 0.2532
H16 H 0.922(2) 0.9600(16) 0.5900(12)
H17 H 0.963(2) 0.9891(14) 0.6953(12)
O4 O 0.98063(16) 0.94757(10) 0.64490(12)
loop_
_geom_bond_atom_site_label_1
_geom_bond_atom_site_label_2
_geom_bond_site_symmetry_1
_geom_bond_site_symmetry_2
F1 C12 1_555 1_555
H1 N2 1_555 1_555
N1 N2 1_555 1_555
N2 C8 1_555 1_555
O1 H2 1_555 1_555
O2 C3 1_555 1_555
O3 C8 1_555 1_555
C1 C2 1_555 1_555
C2 O1 1_555 1_555
C3 C2 1_555 1_555
C4 C3 1_555 1_555
H3 C4 1_555 1_555
C5 C4 1_555 1_555
H4 C5 1_555 1_555
C6 C1 1_555 1_555
H5 C6 1_555 1_555
C7 N1 1_555 1_555
H6 C7 1_555 1_555
C8 C9 1_555 1_555
C9 C10 1_555 1_555
C10 H7 1_555 1_555
C11 C10 1_555 1_555
H8 C11 1_555 1_555
C12 C11 1_555 1_555
C13 C12 1_555 1_555
H9 C13 1_555 1_555
C14 C9 1_555 1_555
H10 C14 1_555 1_555
C15 O2 1_555 1_555
H11 C15 1_555 1_555
H12 C15 1_555 1_555
C16 C15 1_555 1_555
H13 C16 1_555 1_555
H14 C16 1_555 1_555
H15 C16 1_555 1_555
H16 O4 1_555 1_555
H17 O4 1_555 1_555
C1 C7 1_555 1_555
C5 C6 1_555 1_555
C13 C14 1_555 1_555

#END
