
#######################################################################
#
#                 Cambridge Crystallographic Data Centre
#                                CCDC 
#
#######################################################################
#
# If this CIF has been generated from an entry in the Cambridge 
# Structural Database, then it will include bibliographic, chemical, 
# crystal, experimental, refinement or atomic coordinate data resulting 
# from the CCDC's data processing and validation procedures.
#
#######################################################################

data_VATLAE
_chemical_formula_moiety         'C9 H12 O4'
_chemical_name_systematic        
'Methyl exo-bicyclo(3.1.0)hexane-6,6-dicarboxylate'
_symmetry_cell_setting           monoclinic
_symmetry_space_group_name_H-M   'P 21/n'
_symmetry_Int_Tables_number      14
_space_group_name_Hall           '-P 2yn'
loop_
_symmetry_equiv_pos_site_id
_symmetry_equiv_pos_as_xyz
1 x,y,z
2 1/2+x,1/2-y,1/2+z
3 -x,-y,-z
4 1/2-x,1/2+y,1/2-z
_cell_length_a                   9.1290(2)
_cell_length_b                   8.7002(2)
_cell_length_c                   11.6958(3)
_cell_angle_alpha                90
_cell_angle_beta                 109.280(10)
_cell_angle_gamma                90
_cell_volume                     876.831
_exptl_crystal_colour            colorless
_exptl_crystal_description       spheroid
_chemical_melting_point          '410-410.5 K'
_cell_formula_units_Z            4
_exptl_crystal_recrystallization_method 'hexane/diethyl ether'
loop_
_atom_site_label
_atom_site_type_symbol
_atom_site_fract_x
_atom_site_fract_y
_atom_site_fract_z
O1 O 0.56934(8) 0.81807(8) 0.06779(7)
O2 O 0.43344(8) 1.00819(8) 0.11562(7)
O3 O 0.48494(8) 0.53779(8) 0.21678(7)
O4 O 0.73269(8) 0.61765(8) 0.29348(7)
C1 C 0.41044(11) 0.84333(11) 0.31905(9)
C2 C 0.39190(12) 0.73181(12) 0.41298(10)
C3 C 0.55839(12) 0.69629(12) 0.49713(11)
C4 C 0.65681(12) 0.83671(12) 0.48726(10)
C5 C 0.57194(11) 0.90835(11) 0.36532(9)
C6 C 0.52596(10) 0.80223(11) 0.25450(9)
C7 C 0.50433(11) 0.88582(10) 0.13938(9)
C8 C 0.59577(11) 0.64477(11) 0.25921(9)
C9 C 0.54336(14) 0.38410(12) 0.20918(12)
H1 H 0.5571(19) 0.8779(19) 0.0041(18)
H2 H 0.3215(15) 0.9056(15) 0.2706(12)
H3 H 0.3315(15) 0.7849(14) 0.4607(12)
H4 H 0.3327(15) 0.6383(15) 0.3752(12)
H5 H 0.5621(16) 0.6776(17) 0.5811(14)
H6 H 0.5989(14) 0.6017(15) 0.4717(12)
H7 H 0.6611(15) 0.9116(16) 0.5507(14)
H8 H 0.7641(16) 0.8085(14) 0.4976(12)
H9 H 0.5925(13) 1.0142(14) 0.3498(12)
H10 H 0.6165(16) 0.3547(17) 0.2865(14)
H11 H 0.4548(16) 0.3188(17) 0.1882(13)
H12 H 0.5964(15) 0.3841(15) 0.1523(13)
loop_
_geom_bond_atom_site_label_1
_geom_bond_atom_site_label_2
_geom_bond_site_symmetry_1
_geom_bond_site_symmetry_2
O1 C7 1_555 1_555
O2 C7 1_555 1_555
O3 C8 1_555 1_555
O4 C8 1_555 1_555
C1 C2 1_555 1_555
C2 C3 1_555 1_555
C3 C4 1_555 1_555
C4 C5 1_555 1_555
C5 C1 1_555 1_555
C6 C1 1_555 1_555
C7 C6 1_555 1_555
C8 C6 1_555 1_555
C9 O3 1_555 1_555
H1 O1 1_555 1_555
H2 C1 1_555 1_555
H3 C2 1_555 1_555
H4 C2 1_555 1_555
H5 C3 1_555 1_555
H6 C3 1_555 1_555
H7 C4 1_555 1_555
H8 C4 1_555 1_555
H9 C5 1_555 1_555
H10 C9 1_555 1_555
H11 C9 1_555 1_555
H12 C9 1_555 1_555
C5 C6 1_555 1_555

#END
