
#######################################################################
#
#                 Cambridge Crystallographic Data Centre
#                                CCDC 
#
#######################################################################
#
# If this CIF has been generated from an entry in the Cambridge 
# Structural Database, then it will include bibliographic, chemical, 
# crystal, experimental, refinement or atomic coordinate data resulting 
# from the CCDC's data processing and validation procedures.
#
#######################################################################

data_VAVDIH
_chemical_formula_moiety         'C13 H11 N1 S1'
_chemical_name_systematic        2-Phenyl-2,3-dihydro-1,3-benzothiazole
_symmetry_cell_setting           triclinic
_symmetry_space_group_name_H-M   'P -1'
_symmetry_Int_Tables_number      2
_space_group_name_Hall           '-P 1'
loop_
_symmetry_equiv_pos_site_id
_symmetry_equiv_pos_as_xyz
1 x,y,z
2 -x,-y,-z
_cell_length_a                   8.4439(12)
_cell_length_b                   11.1521(15)
_cell_length_c                   11.3664(16)
_cell_angle_alpha                89.661(2)
_cell_angle_beta                 88.568(2)
_cell_angle_gamma                87.174(2)
_cell_volume                     1068.69
_exptl_crystal_colour            yellow
_exptl_crystal_description       plate
_cell_formula_units_Z            4
loop_
_atom_site_label
_atom_site_type_symbol
_atom_site_fract_x
_atom_site_fract_y
_atom_site_fract_z
S1 S 0.29247(10) 0.54458(6) 0.18003(6)
N1 N 0.4332(3) 0.6389(2) 0.3557(2)
H1 H 0.486(4) 0.646(3) 0.421(2)
C1 C 0.4150(3) 0.5187(2) 0.3115(2)
H3 H 0.5216 0.4838 0.2858
C2 C 0.3394(3) 0.4322(2) 0.3965(2)
C3 C 0.3694(3) 0.3092(2) 0.3813(2)
H4 H 0.4374 0.2814 0.3183
C4 C 0.3015(3) 0.2269(2) 0.4567(2)
H5 H 0.3237 0.1433 0.4455
C5 C 0.2006(3) 0.2671(2) 0.5490(2)
H6 H 0.1536 0.2111 0.6008
C6 C 0.1696(3) 0.3890(2) 0.5643(2)
H7 H 0.1003 0.4166 0.6266
C7 C 0.2388(3) 0.4719(2) 0.4893(2)
H8 H 0.2176 0.5555 0.5013
C8 C 0.2236(3) 0.6866(2) 0.2319(2)
C9 C 0.1048(3) 0.7622(3) 0.1867(3)
H9 H 0.0449 0.7377 0.1222
C19 C 0.0744(3) 0.8745(3) 0.2373(3)
H17 H -0.0065 0.9273 0.2069
C20 C 0.1611(4) 0.9096(3) 0.3313(3)
H18 H 0.1387 0.9864 0.3653
C21 C 0.2815(3) 0.8339(2) 0.3772(2)
H19 H 0.3413 0.8588 0.4416
C22 C 0.3122(3) 0.7217(2) 0.3269(2)
S2 S 0.67545(8) 0.03317(6) 0.32711(5)
N2 N 0.5656(3) 0.1436(2) 0.1414(2)
H2 H 0.526(4) 0.162(3) 0.0729(19)
C10 C 0.5694(3) 0.0215(2) 0.1878(2)
H10 H 0.4582 -0.0010 0.2062
C11 C 0.6492(3) -0.0739(2) 0.1078(2)
C12 C 0.6189(3) -0.1937(2) 0.1295(2)
H11 H 0.5501 -0.2136 0.1933
C13 C 0.6877(3) -0.2846(3) 0.0591(3)
H12 H 0.6660 -0.3660 0.0749
C14 C 0.7883(3) -0.2557(3) -0.0344(2)
H13 H 0.8344 -0.3172 -0.0837
C15 C 0.8208(3) -0.1374(3) -0.0551(2)
H14 H 0.8913 -0.1179 -0.1180
C16 C 0.7517(3) -0.0458(2) 0.0150(2)
H15 H 0.7745 0.0354 -0.0005
C17 C 0.7651(3) 0.1644(2) 0.2768(2)
C18 C 0.8869(3) 0.2230(3) 0.3271(2)
H16 H 0.9381 0.1903 0.3944
C23 C 0.9330(3) 0.3300(3) 0.2780(3)
H20 H 1.0168 0.3710 0.3115
C24 C 0.8573(3) 0.3780(3) 0.1795(3)
H21 H 0.8893 0.4520 0.1472
C25 C 0.7348(3) 0.3189(2) 0.1274(2)
H22 H 0.6837 0.3519 0.0602
C26 C 0.6895(3) 0.2108(2) 0.1763(2)
loop_
_geom_bond_atom_site_label_1
_geom_bond_atom_site_label_2
_geom_bond_site_symmetry_1
_geom_bond_site_symmetry_2
S1 C1 1_555 1_555
S2 C10 1_555 1_555
N1 H1 1_555 1_555
N2 H2 1_555 1_555
C1 N1 1_555 1_555
H3 C1 1_555 1_555
C2 C1 1_555 1_555
C3 C2 1_555 1_555
H4 C3 1_555 1_555
C4 C3 1_555 1_555
H5 C4 1_555 1_555
C5 C4 1_555 1_555
H6 C5 1_555 1_555
C6 C5 1_555 1_555
H7 C6 1_555 1_555
C7 C2 1_555 1_555
H8 C7 1_555 1_555
C8 S1 1_555 1_555
C9 C8 1_555 1_555
H9 C9 1_555 1_555
C10 N2 1_555 1_555
H10 C10 1_555 1_555
C11 C10 1_555 1_555
C12 C11 1_555 1_555
H11 C12 1_555 1_555
C13 C12 1_555 1_555
H12 C13 1_555 1_555
C14 C13 1_555 1_555
H13 C14 1_555 1_555
C15 C14 1_555 1_555
H14 C15 1_555 1_555
C16 C11 1_555 1_555
H15 C16 1_555 1_555
C17 S2 1_555 1_555
C18 C17 1_555 1_555
H16 C18 1_555 1_555
C19 C9 1_555 1_555
H17 C19 1_555 1_555
C20 C19 1_555 1_555
H18 C20 1_555 1_555
C21 C20 1_555 1_555
H19 C21 1_555 1_555
C22 N1 1_555 1_555
C23 C18 1_555 1_555
H20 C23 1_555 1_555
C24 C23 1_555 1_555
H21 C24 1_555 1_555
C25 C24 1_555 1_555
H22 C25 1_555 1_555
C26 N2 1_555 1_555
C6 C7 1_555 1_555
C8 C22 1_555 1_555
C15 C16 1_555 1_555
C17 C26 1_555 1_555
C21 C22 1_555 1_555
C25 C26 1_555 1_555

#END
