
#######################################################################
#
#                 Cambridge Crystallographic Data Centre
#                                CCDC 
#
#######################################################################
#
# If this CIF has been generated from an entry in the Cambridge 
# Structural Database, then it will include bibliographic, chemical, 
# crystal, experimental, refinement or atomic coordinate data resulting 
# from the CCDC's data processing and validation procedures.
#
#######################################################################

data_VAVHIM
_chemical_formula_moiety         'C11 H18 N1 O1 1+,C7 H6 N1 O2 1-'
_chemical_name_systematic        '(-)-methylephedrinium 2-aminobenzoate'
_symmetry_cell_setting           monoclinic
_symmetry_space_group_name_H-M   'P 21'
_symmetry_Int_Tables_number      4
_space_group_name_Hall           'P 2yb'
loop_
_symmetry_equiv_pos_site_id
_symmetry_equiv_pos_as_xyz
1 x,y,z
2 -x,1/2+y,-z
_cell_length_a                   6.9241(2)
_cell_length_b                   13.8555(4)
_cell_length_c                   8.7686(3)
_cell_angle_alpha                90
_cell_angle_beta                 97.216(3)
_cell_angle_gamma                90
_cell_volume                     834.569
_exptl_crystal_colour            colorless
_exptl_crystal_description       block
_cell_formula_units_Z            2
loop_
_atom_site_label
_atom_site_type_symbol
_atom_site_fract_x
_atom_site_fract_y
_atom_site_fract_z
O1 O 0.55955(13) 0.14315(7) 0.47051(11)
N1 N 0.17655(15) 0.02524(8) 0.54581(12)
C1 C 0.43838(18) 0.25821(8) 0.64989(14)
C2 C 0.6132(2) 0.26743(9) 0.74586(14)
H1 H 0.7166 0.2235 0.7368
C3 C 0.6373(2) 0.34083(10) 0.85521(14)
H2 H 0.7565 0.3466 0.9212
C4 C 0.4881(2) 0.40505(10) 0.86762(15)
H3 H 0.5042 0.4545 0.9432
C5 C 0.3155(2) 0.39786(11) 0.77090(17)
H4 H 0.2137 0.4429 0.7786
C6 C 0.2910(2) 0.32466(10) 0.66255(16)
H5 H 0.1720 0.3198 0.5961
C7 C 0.39623(17) 0.17313(9) 0.54118(14)
H6 H 0.2884 0.1911 0.4594
C8 C 0.32814(17) 0.08846(9) 0.63595(14)
H7 H 0.2651 0.1177 0.7215
C9 C 0.49440(19) 0.02613(10) 0.71032(16)
H8 H 0.4418 -0.0272 0.7660
H9 H 0.5815 0.0653 0.7823
H10 H 0.5671 0.0000 0.6307
C10 C 0.2359(2) -0.01339(11) 0.40105(15)
H11 H 0.1379 -0.0594 0.3552
H12 H 0.3618 -0.0461 0.4231
H13 H 0.2474 0.0398 0.3291
C11 C -0.01743(19) 0.07304(11) 0.51960(17)
H14 H -0.0107 0.1288 0.4518
H15 H -0.0550 0.0946 0.6182
H16 H -0.1143 0.0272 0.4716
H17 H 0.595(2) 0.1922(12) 0.4072(18)
H18 H 0.156(2) -0.0296(14) 0.6093(19)
O2 O -0.06278(13) 0.38357(7) 0.28915(12)
O3 O -0.31707(13) 0.28564(6) 0.29013(11)
N2 N 0.25910(17) 0.31768(9) 0.18816(15)
C12 C -0.05041(18) 0.23090(9) 0.16631(14)
C13 C 0.14630(18) 0.24054(9) 0.13796(13)
C14 C 0.22571(18) 0.16747(10) 0.05371(15)
H19 H 0.3569 0.1728 0.0334
C15 C 0.1177(2) 0.08822(10) -0.00015(15)
H20 H 0.1756 0.0396 -0.0560
C16 C -0.07563(18) 0.07866(10) 0.02657(14)
H21 H -0.1507 0.0245 -0.0116
C17 C -0.15554(18) 0.14937(9) 0.10944(14)
H22 H -0.2868 0.1426 0.1288
C18 C -0.15127(17) 0.30453(9) 0.25478(14)
H23 H 0.386(2) 0.3127(12) 0.1918(18)
H24 H 0.207(2) 0.3593(13) 0.2513(19)
loop_
_geom_bond_atom_site_label_1
_geom_bond_atom_site_label_2
_geom_bond_site_symmetry_1
_geom_bond_site_symmetry_2
O1 C7 1_555 1_555
N1 C8 1_555 1_555
C1 C2 1_555 1_555
C2 H1 1_555 1_555
C3 C2 1_555 1_555
H2 C3 1_555 1_555
C4 C3 1_555 1_555
H3 C4 1_555 1_555
C5 C4 1_555 1_555
H4 C5 1_555 1_555
C6 C1 1_555 1_555
H5 C6 1_555 1_555
C7 C1 1_555 1_555
H6 C7 1_555 1_555
C8 C7 1_555 1_555
H7 C8 1_555 1_555
C9 C8 1_555 1_555
H8 C9 1_555 1_555
H9 C9 1_555 1_555
H10 C9 1_555 1_555
C10 N1 1_555 1_555
H11 C10 1_555 1_555
H12 C10 1_555 1_555
H13 C10 1_555 1_555
C11 N1 1_555 1_555
H14 C11 1_555 1_555
H15 C11 1_555 1_555
H16 C11 1_555 1_555
H17 O1 1_555 1_555
H18 N1 1_555 1_555
O2 C18 1_555 1_555
O3 C18 1_555 1_555
N2 C13 1_555 1_555
C12 C13 1_555 1_555
C13 C14 1_555 1_555
C14 H19 1_555 1_555
C15 C14 1_555 1_555
H20 C15 1_555 1_555
C16 C15 1_555 1_555
H21 C16 1_555 1_555
C17 C12 1_555 1_555
H22 C17 1_555 1_555
C18 C12 1_555 1_555
H23 N2 1_555 1_555
H24 N2 1_555 1_555
C5 C6 1_555 1_555
C16 C17 1_555 1_555

#END
