
#######################################################################
#
#                 Cambridge Crystallographic Data Centre
#                                CCDC 
#
#######################################################################
#
# If this CIF has been generated from an entry in the Cambridge 
# Structural Database, then it will include bibliographic, chemical, 
# crystal, experimental, refinement or atomic coordinate data resulting 
# from the CCDC's data processing and validation procedures.
#
#######################################################################

data_VAVLEM
_chemical_formula_moiety         'C11 H18 N1 O1 1+,C6 H9 O4 1-'
_chemical_name_systematic        '(+-)-methylephedrinium hydrogen adipate'
_symmetry_cell_setting           monoclinic
_symmetry_space_group_name_H-M   'P 21/c'
_symmetry_Int_Tables_number      14
_space_group_name_Hall           '-P 2ybc'
loop_
_symmetry_equiv_pos_site_id
_symmetry_equiv_pos_as_xyz
1 x,y,z
2 -x,1/2+y,1/2-z
3 -x,-y,-z
4 x,1/2-y,1/2+z
_cell_length_a                   5.8543(3)
_cell_length_b                   23.7826(10)
_cell_length_c                   12.6197(6)
_cell_angle_alpha                90
_cell_angle_beta                 103.349(5)
_cell_angle_gamma                90
_cell_volume                     1709.57
_exptl_crystal_colour            colorless
_exptl_crystal_description       block
_cell_formula_units_Z            4
loop_
_atom_site_label
_atom_site_type_symbol
_atom_site_fract_x
_atom_site_fract_y
_atom_site_fract_z
O1 O 0.44937(18) 0.02980(4) 0.27155(9)
N1 N 0.8763(2) -0.02300(5) 0.19404(10)
C1 C 0.7399(2) 0.09527(6) 0.37195(11)
C2 C 0.9299(3) 0.13110(6) 0.37793(12)
H1 H 1.0240 0.1277 0.3262
C3 C 0.9833(3) 0.17161(6) 0.45851(13)
H2 H 1.1130 0.1960 0.4615
C4 C 0.8482(3) 0.17668(6) 0.53495(13)
H3 H 0.8851 0.2045 0.5903
C5 C 0.6606(3) 0.14122(6) 0.53010(12)
H4 H 0.5677 0.1445 0.5824
C6 C 0.6063(3) 0.10063(6) 0.44906(12)
H5 H 0.4764 0.0763 0.4464
C7 C 0.6786(2) 0.05178(6) 0.28104(12)
H6 H 0.6854 0.0703 0.2107
C8 C 0.8545(3) 0.00296(6) 0.30120(11)
H7 H 1.0113 0.0193 0.3360
C9 C 0.7984(3) -0.04042(6) 0.37993(12)
H8 H 0.7741 -0.0214 0.4454
H9 H 0.9294 -0.0669 0.4002
H10 H 0.6556 -0.0609 0.3450
C10 C 1.0572(3) -0.06848(6) 0.21040(13)
H11 H 0.9933 -0.1027 0.2360
H12 H 1.1966 -0.0564 0.2647
H13 H 1.1003 -0.0762 0.1413
C11 C 0.6533(3) -0.04332(6) 0.12189(12)
H14 H 0.6847 -0.0576 0.0538
H15 H 0.5410 -0.0122 0.1058
H16 H 0.5875 -0.0735 0.1586
H17 H 0.935(3) 0.0080(6) 0.1581(12)
H18 H 0.342(3) 0.0483(7) 0.2192(15)
O2 O 1.08449(17) 0.06625(4) 0.12014(8)
O3 O 0.75785(17) 0.10501(4) 0.02486(8)
C12 C 0.9664(3) 0.10864(6) 0.07846(11)
C13 C 1.0814(3) 0.16629(6) 0.09646(12)
H19 H 1.0689 0.1843 0.0247
H20 H 0.9924 0.1897 0.1378
C14 C 1.3368(3) 0.16600(6) 0.15668(12)
H21 H 1.4286 0.1464 0.1110
H22 H 1.3517 0.1439 0.2244
C15 C 1.4464(3) 0.22391(6) 0.18684(12)
H23 H 1.6194 0.2207 0.2006
H24 H 1.3936 0.2498 0.1246
C16 C 1.3814(3) 0.24845(6) 0.28672(12)
H25 H 1.2098 0.2551 0.2693
H26 H 1.4165 0.2201 0.3456
O4 O 1.5706(5) 0.33661(11) 0.2737(2)
O5 O 1.4982(4) 0.31306(11) 0.4292(2)
H27 H 1.608(3) 0.3411(6) 0.4560(12)
C17 C 1.502(3) 0.3020(7) 0.3291(10)
O6? O 1.6850(9) 0.31773(19) 0.2923(4)
O7? O 1.5469(7) 0.30461(16) 0.4376(3)
C18? C 1.541(4) 0.2965(11) 0.3351(15)
loop_
_geom_bond_atom_site_label_1
_geom_bond_atom_site_label_2
_geom_bond_site_symmetry_1
_geom_bond_site_symmetry_2
O1 C7 1_555 1_555
N1 C8 1_555 1_555
C1 C2 1_555 1_555
C2 H1 1_555 1_555
C3 C2 1_555 1_555
H2 C3 1_555 1_555
C4 C3 1_555 1_555
H3 C4 1_555 1_555
C5 C4 1_555 1_555
H4 C5 1_555 1_555
C6 C1 1_555 1_555
H5 C6 1_555 1_555
C7 C1 1_555 1_555
H6 C7 1_555 1_555
C8 C7 1_555 1_555
H7 C8 1_555 1_555
C9 C8 1_555 1_555
H8 C9 1_555 1_555
H9 C9 1_555 1_555
H10 C9 1_555 1_555
C10 N1 1_555 1_555
H11 C10 1_555 1_555
H12 C10 1_555 1_555
H13 C10 1_555 1_555
C11 N1 1_555 1_555
H14 C11 1_555 1_555
H15 C11 1_555 1_555
H16 C11 1_555 1_555
H17 N1 1_555 1_555
H18 O1 1_555 1_555
O2 C12 1_555 1_555
O3 C12 1_555 1_555
C12 C13 1_555 1_555
C13 H19 1_555 1_555
H20 C13 1_555 1_555
C14 C13 1_555 1_555
H21 C14 1_555 1_555
H22 C14 1_555 1_555
C15 C14 1_555 1_555
H23 C15 1_555 1_555
H24 C15 1_555 1_555
C16 C15 1_555 1_555
H25 C16 1_555 1_555
H26 C16 1_555 1_555
O4 C17 1_555 1_555
O5 H27 1_555 1_555
C17 C16 1_555 1_555
C5 C6 1_555 1_555
O5 C17 1_555 1_555

#END
