
#######################################################################
#
#                 Cambridge Crystallographic Data Centre
#                                CCDC 
#
#######################################################################
#
# If this CIF has been generated from an entry in the Cambridge 
# Structural Database, then it will include bibliographic, chemical, 
# crystal, experimental, refinement or atomic coordinate data resulting 
# from the CCDC's data processing and validation procedures.
#
#######################################################################

data_VAVZEA
_chemical_formula_moiety         'C25 H34 K1 N1 O7'
_chemical_name_systematic        
(18-crown-6)-(2-[(phenylimino)methyl]phenolato)-potassium
_symmetry_cell_setting           monoclinic
_symmetry_space_group_name_H-M   'C 2/c'
_symmetry_Int_Tables_number      15
_space_group_name_Hall           '-C 2yn'
loop_
_symmetry_equiv_pos_site_id
_symmetry_equiv_pos_as_xyz
1 x,y,z
2 -x,y,1/2-z
3 1/2+x,1/2+y,z
4 1/2-x,1/2+y,1/2-z
5 -x,-y,-z
6 x,-y,1/2+z
7 1/2-x,1/2-y,-z
8 1/2+x,1/2-y,1/2+z
_cell_length_a                   24.817(2)
_cell_length_b                   17.2980(15)
_cell_length_c                   17.5045(16)
_cell_angle_alpha                90
_cell_angle_beta                 133.796(3)
_cell_angle_gamma                90
_cell_volume                     5423.97
_exptl_crystal_colour            yellow
_exptl_crystal_description       tabular
_cell_formula_units_Z            8
loop_
_atom_site_label
_atom_site_type_symbol
_atom_site_fract_x
_atom_site_fract_y
_atom_site_fract_z
K1 K 0.17136(5) 0.52285(5) 0.42552(6)
N1 N 0.26537(18) 0.32203(18) 0.7505(2)
O1 O 0.30804(16) 0.49028(17) 0.6372(2)
O2 O 0.26769(16) 0.39623(14) 0.4767(2)
O3 O 0.13873(16) 0.43557(17) 0.2659(2)
O4 O 0.10210(15) 0.59058(17) 0.22272(19)
O5 O 0.12007(17) 0.67775(16) 0.3744(2)
O6 O 0.24551(18) 0.63930(17) 0.5869(2)
O7 O 0.10937(16) 0.44747(19) 0.4781(2)
C1 C 0.3562(3) 0.4317(3) 0.6572(4)
H1 H 0.3872 0.4126 0.7290
H2 H 0.3886 0.4523 0.6495
C2 C 0.3106(3) 0.3684(3) 0.5814(4)
H3 H 0.3427 0.3266 0.5960
H4 H 0.2777 0.3485 0.5885
C3 C 0.2166(3) 0.3400(2) 0.3995(4)
H5 H 0.1781 0.3310 0.3998
H6 H 0.2424 0.2916 0.4156
C4 C 0.1822(3) 0.3684(3) 0.2935(4)
H7 H 0.2210 0.3805 0.2949
H8 H 0.1507 0.3284 0.2410
C5 C 0.1081(3) 0.4665(3) 0.1690(4)
H9 H 0.0790 0.4273 0.1144
H10 H 0.1478 0.4831 0.1741
C6 C 0.0592(3) 0.5340(3) 0.1403(3)
H11 H 0.0391 0.5564 0.0741
H12 H 0.0177 0.5169 0.1311
C7 C 0.0602(3) 0.6581(3) 0.1962(4)
H13 H 0.0141 0.6444 0.1767
H14 H 0.0475 0.6829 0.1358
C8 C 0.1033(3) 0.7124(3) 0.2866(4)
H15 H 0.1493 0.7263 0.3059
H16 H 0.0745 0.7591 0.2665
C9 C 0.1528(3) 0.7303(3) 0.4601(4)
H17 H 0.1151 0.7652 0.4429
H18 H 0.1914 0.7607 0.4734
C10 C 0.1856(3) 0.6835(3) 0.5562(4)
H19 H 0.2031 0.7176 0.6136
H20 H 0.1478 0.6496 0.5405
C11 C 0.2862(3) 0.6015(3) 0.6871(4)
H21 H 0.2524 0.5708 0.6847
H22 H 0.3094 0.6399 0.7425
C12 C 0.3444(3) 0.5509(3) 0.7103(3)
H23 H 0.3746 0.5800 0.7040
H24 H 0.3768 0.5308 0.7818
C13 C 0.2120(2) 0.3599(2) 0.6661(3)
H25 H 0.2153 0.4136 0.6692
C14 C 0.1478(2) 0.3257(2) 0.5678(3)
C15 C 0.0975(2) 0.3746(3) 0.4760(3)
C16 C 0.0342(3) 0.3373(3) 0.3822(3)
H26 H 0.0000 0.3667 0.3213
C17 C 0.0214(3) 0.2603(4) 0.3777(4)
H27 H -0.0214 0.2388 0.3144
C18 C 0.0710(3) 0.2126(3) 0.4661(4)
H28 H 0.0628 0.1596 0.4616
C19 C 0.1316(3) 0.2459(3) 0.5588(3)
H29 H 0.1637 0.2150 0.6187
C20 C 0.3223(3) 0.3661(3) 0.8426(3)
C21 C 0.3967(3) 0.3445(2) 0.9069(3)
H30 H 0.4087 0.3019 0.8887
C22 C 0.4531(3) 0.3860(3) 0.9980(4)
H31 H 0.5027 0.3714 1.0400
C23 C 0.4364(4) 0.4481(3) 1.0261(4)
H32 H 0.4745 0.4749 1.0879
C24 C 0.3636(3) 0.4714(3) 0.9640(4)
H33 H 0.3526 0.5148 0.9824
C25 C 0.3067(3) 0.4297(3) 0.8734(4)
H34 H 0.2574 0.4446 0.8325
loop_
_geom_bond_atom_site_label_1
_geom_bond_atom_site_label_2
_geom_bond_site_symmetry_1
_geom_bond_site_symmetry_2
K1 O1 1_555 1_555
N1 C13 1_555 1_555
O1 C1 1_555 1_555
O2 K1 1_555 1_555
O3 K1 1_555 1_555
O4 K1 1_555 1_555
O5 K1 1_555 1_555
O6 K1 1_555 1_555
O7 K1 1_555 1_555
C1 H1 1_555 1_555
H2 C1 1_555 1_555
C2 O2 1_555 1_555
H3 C2 1_555 1_555
H4 C2 1_555 1_555
C3 O2 1_555 1_555
H5 C3 1_555 1_555
H6 C3 1_555 1_555
C4 O3 1_555 1_555
H7 C4 1_555 1_555
H8 C4 1_555 1_555
C5 O3 1_555 1_555
H9 C5 1_555 1_555
H10 C5 1_555 1_555
C6 O4 1_555 1_555
H11 C6 1_555 1_555
H12 C6 1_555 1_555
C7 O4 1_555 1_555
H13 C7 1_555 1_555
H14 C7 1_555 1_555
C8 O5 1_555 1_555
H15 C8 1_555 1_555
H16 C8 1_555 1_555
C9 O5 1_555 1_555
H17 C9 1_555 1_555
H18 C9 1_555 1_555
C10 O6 1_555 1_555
H19 C10 1_555 1_555
H20 C10 1_555 1_555
C11 O6 1_555 1_555
H21 C11 1_555 1_555
H22 C11 1_555 1_555
C12 O1 1_555 1_555
H23 C12 1_555 1_555
H24 C12 1_555 1_555
C13 H25 1_555 1_555
C14 C13 1_555 1_555
C15 O7 1_555 1_555
C16 C15 1_555 1_555
H26 C16 1_555 1_555
C17 C16 1_555 1_555
H27 C17 1_555 1_555
C18 C17 1_555 1_555
H28 C18 1_555 1_555
C19 C14 1_555 1_555
H29 C19 1_555 1_555
C20 N1 1_555 1_555
C21 C20 1_555 1_555
H30 C21 1_555 1_555
C22 C21 1_555 1_555
H31 C22 1_555 1_555
C23 C22 1_555 1_555
H32 C23 1_555 1_555
C24 C23 1_555 1_555
H33 C24 1_555 1_555
C25 C20 1_555 1_555
H34 C25 1_555 1_555
C1 C2 1_555 1_555
C3 C4 1_555 1_555
C5 C6 1_555 1_555
C7 C8 1_555 1_555
C9 C10 1_555 1_555
C11 C12 1_555 1_555
C14 C15 1_555 1_555
C18 C19 1_555 1_555
C24 C25 1_555 1_555

#END
