
#######################################################################
#
#                 Cambridge Crystallographic Data Centre
#                                CCDC 
#
#######################################################################
#
# If this CIF has been generated from an entry in the Cambridge 
# Structural Database, then it will include bibliographic, chemical, 
# crystal, experimental, refinement or atomic coordinate data resulting 
# from the CCDC's data processing and validation procedures.
#
#######################################################################

data_VAWCEC
_chemical_formula_moiety         'C29 H21 B1 N2'
_chemical_name_systematic        Diphenyl-(2-(8'-quinolyl)indole-N,N')-boron
_symmetry_cell_setting           monoclinic
_symmetry_space_group_name_H-M   'C 2/c'
_symmetry_Int_Tables_number      15
_space_group_name_Hall           '-C 2yn'
loop_
_symmetry_equiv_pos_site_id
_symmetry_equiv_pos_as_xyz
1 x,y,z
2 1/2+x,1/2+y,z
3 -x,y,1/2-z
4 1/2-x,1/2+y,1/2-z
5 -x,-y,-z
6 1/2-x,1/2-y,-z
7 x,-y,1/2+z
8 1/2+x,1/2-y,1/2+z
_cell_length_a                   20.290(12)
_cell_length_b                   11.619(6)
_cell_length_c                   17.856(11)
_cell_angle_alpha                90
_cell_angle_beta                 90.570(10)
_cell_angle_gamma                90
_cell_volume                     4209.33
_exptl_crystal_colour            orange-red
_exptl_crystal_description       plate
_chemical_melting_point          210-212deg.C.(dec.)
_cell_formula_units_Z            8
_exptl_crystal_preparation       luminescent
loop_
_atom_site_label
_atom_site_type_symbol
_atom_site_fract_x
_atom_site_fract_y
_atom_site_fract_z
B1 B -0.2071(3) -0.1016(4) -0.1784(3)
N1 N -0.20539(19) 0.0135(3) -0.13597(18)
N2 N -0.28579(18) -0.1350(3) -0.18348(18)
C1 C -0.1733(2) -0.2022(4) -0.1292(2)
C2 C -0.1726(2) -0.1966(3) -0.0527(2)
H1 H -0.1905 -0.1320 -0.0298
C3 C -0.1463(2) -0.2829(4) -0.0076(2)
H2 H -0.1465 -0.2754 0.0442
C4 C -0.1199(2) -0.3796(4) -0.0404(3)
H3 H -0.1015 -0.4376 -0.0110
C5 C -0.1210(2) -0.3890(4) -0.1153(3)
H4 H -0.1051 -0.4554 -0.1379
C6 C -0.14553(19) -0.3007(3) -0.1593(2)
H5 H -0.1433 -0.3077 -0.2111
C7 C -0.1816(2) -0.0863(3) -0.2621(2)
C8 C -0.1169(2) -0.1045(3) -0.2822(3)
H6 H -0.0874 -0.1331 -0.2467
C9 C -0.0950(2) -0.0814(3) -0.3535(3)
H7 H -0.0512 -0.0952 -0.3654
C10 C -0.1370(3) -0.0386(4) -0.4064(3)
H8 H -0.1220 -0.0239 -0.4545
C11 C -0.2015(3) -0.0173(4) -0.3889(3)
H9 H -0.2303 0.0131 -0.4245
C12 C -0.2230(2) -0.0416(3) -0.3176(3)
H10 H -0.2669 -0.0277 -0.3061
C13 C -0.1500(3) 0.0724(4) -0.1137(2)
C14 C -0.0847(3) 0.0404(3) -0.1129(2)
H11 H -0.0722 -0.0320 -0.1300
C15 C -0.0380(2) 0.1166(4) -0.0867(2)
H12 H 0.0060 0.0946 -0.0845
C16 C -0.0561(3) 0.2271(4) -0.0634(3)
H13 H -0.0236 0.2786 -0.0479
C17 C -0.1200(3) 0.2604(4) -0.0629(3)
H14 H -0.1317 0.3330 -0.0456
C18 C -0.1676(3) 0.1839(4) -0.0888(3)
C19 C -0.2363(3) 0.1894(3) -0.0951(2)
H15 H -0.2626 0.2516 -0.0819
C20 C -0.2575(2) 0.0881(4) -0.1239(2)
C21 C -0.3233(3) 0.0489(4) -0.1385(2)
C22 C -0.3763(3) 0.1186(4) -0.1254(3)
H16 H -0.3688 0.1935 -0.1089
C23 C -0.4407(3) 0.0824(4) -0.1356(3)
H17 H -0.4750 0.1331 -0.1258
C24 C -0.4547(2) -0.0257(4) -0.1596(2)
H18 H -0.4982 -0.0499 -0.1651
C25 C -0.4018(3) -0.1015(4) -0.1763(3)
C26 C -0.4142(2) -0.2124(4) -0.2016(2)
H19 H -0.4572 -0.2391 -0.2068
C27 C -0.3628(2) -0.2804(3) -0.2185(2)
H20 H -0.3703 -0.3546 -0.2362
C28 C -0.2986(2) -0.2404(3) -0.2097(2)
H21 H -0.2637 -0.2882 -0.2223
C29 C -0.3372(3) -0.0623(4) -0.1663(2)
loop_
_geom_bond_atom_site_label_1
_geom_bond_atom_site_label_2
_geom_bond_site_symmetry_1
_geom_bond_site_symmetry_2
B1 N1 1_555 1_555
N1 C13 1_555 1_555
N2 B1 1_555 1_555
C1 B1 1_555 1_555
C2 C1 1_555 1_555
H1 C2 1_555 1_555
C3 C2 1_555 1_555
H2 C3 1_555 1_555
C4 C3 1_555 1_555
H3 C4 1_555 1_555
C5 C4 1_555 1_555
H4 C5 1_555 1_555
C6 C1 1_555 1_555
H5 C6 1_555 1_555
C7 B1 1_555 1_555
C8 C7 1_555 1_555
H6 C8 1_555 1_555
C9 C8 1_555 1_555
H7 C9 1_555 1_555
C10 C9 1_555 1_555
H8 C10 1_555 1_555
C11 C10 1_555 1_555
H9 C11 1_555 1_555
C12 C7 1_555 1_555
H10 C12 1_555 1_555
C13 C14 1_555 1_555
C14 H11 1_555 1_555
C15 C14 1_555 1_555
H12 C15 1_555 1_555
C16 C15 1_555 1_555
H13 C16 1_555 1_555
C17 C16 1_555 1_555
H14 C17 1_555 1_555
C18 C13 1_555 1_555
C19 C18 1_555 1_555
H15 C19 1_555 1_555
C20 N1 1_555 1_555
C21 C20 1_555 1_555
C22 C21 1_555 1_555
H16 C22 1_555 1_555
C23 C22 1_555 1_555
H17 C23 1_555 1_555
C24 C23 1_555 1_555
H18 C24 1_555 1_555
C25 C24 1_555 1_555
C26 C25 1_555 1_555
H19 C26 1_555 1_555
C27 C26 1_555 1_555
H20 C27 1_555 1_555
C28 N2 1_555 1_555
H21 C28 1_555 1_555
C29 N2 1_555 1_555
C5 C6 1_555 1_555
C11 C12 1_555 1_555
C17 C18 1_555 1_555
C19 C20 1_555 1_555
C21 C29 1_555 1_555
C25 C29 1_555 1_555
C27 C28 1_555 1_555

#END
