
#######################################################################
#
#                 Cambridge Crystallographic Data Centre
#                                CCDC 
#
#######################################################################
#
# If this CIF has been generated from an entry in the Cambridge 
# Structural Database, then it will include bibliographic, chemical, 
# crystal, experimental, refinement or atomic coordinate data resulting 
# from the CCDC's data processing and validation procedures.
#
#######################################################################

data_VAWCOO
_chemical_formula_moiety         'C40 H35 N3 O1,C4 H8 O2'
_chemical_name_systematic        
"1-benzyl-4'-(3,3-dimethyl-3H-indol-2-yl)-3',5'-diphenylspiro[indole-3,2'-pyrrolidin]-2(1H)-one ethyl acetate solvate"
_symmetry_cell_setting           triclinic
_symmetry_space_group_name_H-M   'P -1'
_symmetry_Int_Tables_number      2
_space_group_name_Hall           '-P 1'
loop_
_symmetry_equiv_pos_site_id
_symmetry_equiv_pos_as_xyz
1 x,y,z
2 -x,-y,-z
_cell_length_a                   9.9514(2)
_cell_length_b                   12.1514(3)
_cell_length_c                   16.6468(3)
_cell_angle_alpha                109.6120(10)
_cell_angle_beta                 93.8450(10)
_cell_angle_gamma                106.0740(10)
_cell_volume                     1793.39
_exptl_crystal_description       block
_cell_formula_units_Z            2
loop_
_atom_site_label
_atom_site_type_symbol
_atom_site_fract_x
_atom_site_fract_y
_atom_site_fract_z
O1 O 0.40005(14) 0.98526(12) 0.39310(8)
N1 N 0.38665(16) 1.42129(13) 0.66780(9)
N2 N 0.20082(15) 1.13059(14) 0.47522(9)
H1 H 0.1125 1.1183 0.4584
N3 N 0.35860(16) 1.06644(13) 0.29060(9)
C1 C 0.27268(18) 1.21988(16) 0.36559(11)
C2 C 0.58290(18) 1.29204(16) 0.48749(10)
C3 C 0.40917(18) 1.21974(15) 0.58447(11)
H2 H 0.4808 1.1809 0.5920
C4 C 0.43322(18) 1.26348(15) 0.50737(10)
H3 H 0.4109 1.3409 0.5229
C5 C 0.62872(19) 1.38263(16) 0.45237(11)
H4 H 0.5669 1.4231 0.4415
C6 C 0.30150(18) 1.15836(16) 0.28522(11)
C7 C 0.36385(18) 1.06134(16) 0.37203(11)
C8 C 0.25838(18) 1.11739(16) 0.55378(11)
H5 H 0.2720 1.0364 0.5374
C9 C 0.52707(19) 1.02151(16) 0.18908(11)
C10 C 0.50401(19) 1.34348(16) 0.75486(11)
C11 C 0.42791(17) 1.32920(15) 0.66688(11)
C12 C 0.31488(18) 1.16751(16) 0.43003(11)
C13 C 0.67691(19) 1.23133(17) 0.50195(11)
H6 H 0.6481 1.1694 0.5241
C14 C 0.42399(19) 1.50772(16) 0.75515(11)
C15 C 0.15460(19) 1.12474(17) 0.61627(11)
C16 C 0.21307(19) 1.31237(17) 0.37631(12)
H7 H 0.1935 1.3537 0.4300
C17 C 0.4280(2) 1.24241(17) 0.78710(12)
H8 H 0.3316 1.2414 0.7896
H9 H 0.4761 1.2587 0.8438
H10 H 0.4287 1.1639 0.7480
C18 C 0.2713(2) 1.18658(18) 0.21350(12)
H11 H 0.2901 1.1445 0.1598
C19 C 0.49397(19) 1.46742(16) 0.80954(11)
C20 C 0.6596(2) 1.34734(18) 0.75025(12)
H12 H 0.7055 1.4111 0.7300
H13 H 0.6614 1.2693 0.7110
H14 H 0.7086 1.3640 0.8068
C21 C 0.3869(2) 0.97635(17) 0.21651(11)
H15 H 0.3110 0.9506 0.1679
H16 H 0.3850 0.9044 0.2302
C22 C 0.7648(2) 1.41339(17) 0.43343(12)
H17 H 0.7932 1.4737 0.4099
C23 C 0.6452(2) 1.10919(17) 0.24848(12)
H18 H 0.6374 1.1447 0.3062
C24 C 0.5408(2) 0.97024(18) 0.10286(12)
H19 H 0.4624 0.9121 0.0625
C25 C 0.8577(2) 1.35441(19) 0.44959(12)
H20 H 0.9494 1.3758 0.4379
C26 C 0.3988(2) 1.61968(18) 0.78621(13)
H21 H 0.3533 1.6466 0.7495
C27 C 0.5380(2) 1.53769(18) 0.89676(12)
H22 H 0.5840 1.5108 0.9333
C28 C 0.0832(2) 1.21148(19) 0.63067(13)
H23 H 0.0987 1.2656 0.6013
C29 C 0.2115(2) 1.28094(19) 0.22527(13)
H24 H 0.1905 1.3026 0.1785
C30 C 0.8135(2) 1.26294(19) 0.48348(12)
H25 H 0.8757 1.2225 0.4939
C31 C 0.4435(2) 1.69052(18) 0.87387(13)
H26 H 0.4277 1.7661 0.8962
C32 C 0.1827(2) 1.34289(19) 0.30521(13)
H27 H 0.1428 1.4054 0.3114
C33 C 0.0347(2) 1.0511(2) 0.71906(13)
H28 H 0.0187 0.9974 0.7487
C34 C 0.7746(2) 1.14388(19) 0.22202(14)
H29 H 0.8531 1.2025 0.2621
C35 C 0.1277(2) 1.04330(18) 0.66014(12)
H30 H 0.1723 0.9833 0.6499
C36 C 0.6701(2) 1.0050(2) 0.07667(13)
H31 H 0.6782 0.9700 0.0190
C37 C 0.5115(2) 1.65057(19) 0.92876(13)
H32 H 0.5398 1.6992 0.9874
C38 C 0.7872(2) 1.0917(2) 0.13635(14)
H33 H 0.8741 1.1147 0.1189
C39 C -0.0108(2) 1.2175(2) 0.68850(14)
H34 H -0.0589 1.2751 0.6972
C40 C -0.0338(2) 1.1385(2) 0.73345(13)
H35 H -0.0953 1.1443 0.7732
O2 O 0.0175(2) 1.3500(2) 0.0573(2)
C41 C -0.0184(3) 1.2438(4) -0.0094(2)
O3 O -0.1368(3) 1.1860(4) -0.04253(19)
C42 C 0.1063(4) 1.2095(5) -0.0339(2)
H36 H 0.0771 1.1320 -0.0819
H37 H 0.1565 1.2021 0.0144
H38 H 0.1675 1.2717 -0.0502
C43 C -0.0896(6) 1.5040(4) 0.1114(5)
H39 H -0.1804 1.5134 0.1214
H40 H -0.0585 1.5361 0.0681
H41 H -0.0218 1.5482 0.1644
C44 C -0.1004(6) 1.3890(5) 0.0854(6)
H42 H -0.1803 1.3452 0.0378
H43 H -0.1254 1.3610 0.1322
loop_
_geom_bond_atom_site_label_1
_geom_bond_atom_site_label_2
_geom_bond_site_symmetry_1
_geom_bond_site_symmetry_2
O1 C7 1_555 1_555
N1 C11 1_555 1_555
N2 H1 1_555 1_555
N3 C6 1_555 1_555
C1 C6 1_555 1_555
C2 C4 1_555 1_555
C3 H2 1_555 1_555
C4 C3 1_555 1_555
H3 C4 1_555 1_555
C5 C2 1_555 1_555
H4 C5 1_555 1_555
C6 C18 1_555 1_555
C7 N3 1_555 1_555
C8 N2 1_555 1_555
H5 C8 1_555 1_555
C9 C21 1_555 1_555
C10 C11 1_555 1_555
C11 C3 1_555 1_555
C12 N2 1_555 1_555
C13 C2 1_555 1_555
H6 C13 1_555 1_555
C14 N1 1_555 1_555
C15 C8 1_555 1_555
C16 C1 1_555 1_555
H7 C16 1_555 1_555
C17 C10 1_555 1_555
H8 C17 1_555 1_555
H9 C17 1_555 1_555
H10 C17 1_555 1_555
C18 H11 1_555 1_555
C19 C10 1_555 1_555
C20 C10 1_555 1_555
H12 C20 1_555 1_555
H13 C20 1_555 1_555
H14 C20 1_555 1_555
C21 N3 1_555 1_555
H15 C21 1_555 1_555
H16 C21 1_555 1_555
C22 C5 1_555 1_555
H17 C22 1_555 1_555
C23 C9 1_555 1_555
H18 C23 1_555 1_555
C24 C9 1_555 1_555
H19 C24 1_555 1_555
C25 C22 1_555 1_555
H20 C25 1_555 1_555
C26 C14 1_555 1_555
H21 C26 1_555 1_555
C27 C19 1_555 1_555
H22 C27 1_555 1_555
C28 C15 1_555 1_555
H23 C28 1_555 1_555
C29 C18 1_555 1_555
H24 C29 1_555 1_555
C30 C13 1_555 1_555
H25 C30 1_555 1_555
C31 C26 1_555 1_555
H26 C31 1_555 1_555
C32 C16 1_555 1_555
H27 C32 1_555 1_555
C33 H28 1_555 1_555
C34 C23 1_555 1_555
H29 C34 1_555 1_555
C35 C15 1_555 1_555
H30 C35 1_555 1_555
C36 C24 1_555 1_555
H31 C36 1_555 1_555
C37 C27 1_555 1_555
H32 C37 1_555 1_555
C38 C34 1_555 1_555
H33 C38 1_555 1_555
C39 C28 1_555 1_555
H34 C39 1_555 1_555
C40 C33 1_555 1_555
H35 C40 1_555 1_555
O2 C41 1_555 1_555
C41 O3 1_555 1_555
C42 C41 1_555 1_555
H36 C42 1_555 1_555
H37 C42 1_555 1_555
H38 C42 1_555 1_555
C43 H39 1_555 1_555
H40 C43 1_555 1_555
H41 C43 1_555 1_555
C44 O2 1_555 1_555
H42 C44 1_555 1_555
H43 C44 1_555 1_555
C1 C12 1_555 1_555
C3 C8 1_555 1_555
C4 C12 1_555 1_555
C7 C12 1_555 1_555
C14 C19 1_555 1_555
C25 C30 1_555 1_555
C29 C32 1_555 1_555
C31 C37 1_555 1_555
C33 C35 1_555 1_555
C36 C38 1_555 1_555
C39 C40 1_555 1_555
C43 C44 1_555 1_555

#END
