
#######################################################################
#
#                 Cambridge Crystallographic Data Centre
#                                CCDC 
#
#######################################################################
#
# If this CIF has been generated from an entry in the Cambridge 
# Structural Database, then it will include bibliographic, chemical, 
# crystal, experimental, refinement or atomic coordinate data resulting 
# from the CCDC's data processing and validation procedures.
#
#######################################################################

data_VAWDAB
_chemical_formula_moiety         'C18 H20 F4 N2 O3'
_chemical_name_systematic        
't-butyl 3a-fluoro-8a-methyl-8-(trifluoroacetyl)-3,3a,8,8a-tetrahydropyrrolo[2,3-b]indole-1(2H)-carboxylate'
_symmetry_cell_setting           monoclinic
_symmetry_space_group_name_H-M   'P 21'
_symmetry_Int_Tables_number      4
_space_group_name_Hall           'P 2yb'
loop_
_symmetry_equiv_pos_site_id
_symmetry_equiv_pos_as_xyz
1 x,y,z
2 -x,1/2+y,-z
_cell_length_a                   10.606(4)
_cell_length_b                   6.390(3)
_cell_length_c                   13.828(6)
_cell_angle_alpha                90
_cell_angle_beta                 95.946(8)
_cell_angle_gamma                90
_cell_volume                     932.114
_exptl_crystal_colour            colorless
_exptl_crystal_description       prismatic
_cell_formula_units_Z            2
loop_
_atom_site_label
_atom_site_type_symbol
_atom_site_fract_x
_atom_site_fract_y
_atom_site_fract_z
F1 F 0.0836(4) 0.3351(8) 0.9080(3)
F2 F 0.0391(4) 0.4313(10) 0.5726(3)
F3 F 0.2018(6) 0.5586(12) 0.5115(4)
F4 F 0.1661(6) 0.2300(12) 0.5073(4)
N1 N 0.2291(5) 0.4868(10) 0.7365(4)
N2 N 0.3749(5) 0.5858(12) 0.8779(5)
O1 O 0.3228(5) 0.2255(12) 0.6588(4)
O2 O 0.5644(5) 0.7420(12) 0.8870(4)
O3 O 0.4939(4) 0.5464(12) 0.7559(4)
C1 C 0.1405(6) 0.6604(12) 0.7434(5)
C2 C 0.1017(7) 0.8121(14) 0.6749(5)
H1 H 0.1339 0.8162 0.6149
C3 C 0.0120(8) 0.9593(14) 0.6994(7)
H2 H -0.0203 1.0569 0.6535
C4 C -0.0282(7) 0.9606(15) 0.7900(6)
H3 H -0.0869 1.0606 0.8051
C5 C 0.0157(6) 0.8184(16) 0.8588(6)
H4 H -0.0110 0.8227 0.9208
C6 C 0.1017(6) 0.6659(12) 0.8347(5)
C7 C 0.1677(7) 0.5044(12) 0.8986(5)
C8 C 0.2767(6) 0.4346(12) 0.8387(5)
C9 C 0.2279(7) 0.5685(15) 0.9961(5)
H5 H 0.2436 0.4484 1.0385
H6 H 0.1752 0.6680 1.0265
C10 C 0.3527(7) 0.6699(14) 0.9730(5)
H7 H 0.3449 0.8211 0.9705
H8 H 0.4215 0.6328 1.0218
C11 C 0.3173(8) 0.2112(15) 0.8559(6)
H9 H 0.3967 0.1884 0.8299
H10 H 0.2543 0.1194 0.8244
H11 H 0.3270 0.1832 0.9245
C12 C 0.4871(6) 0.6287(15) 0.8420(6)
C13 C 0.6044(8) 0.593(2) 0.7011(8)
C14 C 0.6157(11) 0.829(2) 0.6876(10)
H12 H 0.6420 0.8928 0.7491
H13 H 0.5350 0.8844 0.6621
H14 H 0.6772 0.8571 0.6430
C15 C 0.7243(9) 0.497(3) 0.7563(12)
H15 H 0.7451 0.5717 0.8161
H16 H 0.7935 0.5071 0.7170
H17 H 0.7088 0.3528 0.7702
C16 C 0.5706(12) 0.480(3) 0.6061(10)
H18 H 0.6405 0.4869 0.5674
H19 H 0.4974 0.5440 0.5715
H20 H 0.5522 0.3358 0.6189
C17 C 0.2455(6) 0.3664(13) 0.6599(6)
C18 C 0.1628(7) 0.3970(16) 0.5628(6)
loop_
_geom_bond_atom_site_label_1
_geom_bond_atom_site_label_2
_geom_bond_site_symmetry_1
_geom_bond_site_symmetry_2
F1 C7 1_555 1_555
F2 C18 1_555 1_555
F3 C18 1_555 1_555
F4 C18 1_555 1_555
N1 C1 1_555 1_555
N2 C8 1_555 1_555
O1 C17 1_555 1_555
O2 C12 1_555 1_555
O3 C12 1_555 1_555
C1 C2 1_555 1_555
C2 H1 1_555 1_555
C3 C2 1_555 1_555
H2 C3 1_555 1_555
C4 C3 1_555 1_555
H3 C4 1_555 1_555
C5 C4 1_555 1_555
H4 C5 1_555 1_555
C6 C1 1_555 1_555
C7 C6 1_555 1_555
C8 N1 1_555 1_555
C9 C7 1_555 1_555
H5 C9 1_555 1_555
H6 C9 1_555 1_555
C10 N2 1_555 1_555
H7 C10 1_555 1_555
H8 C10 1_555 1_555
C11 C8 1_555 1_555
H9 C11 1_555 1_555
H10 C11 1_555 1_555
H11 C11 1_555 1_555
C12 N2 1_555 1_555
C13 O3 1_555 1_555
C14 C13 1_555 1_555
H12 C14 1_555 1_555
H13 C14 1_555 1_555
H14 C14 1_555 1_555
C15 C13 1_555 1_555
H15 C15 1_555 1_555
H16 C15 1_555 1_555
H17 C15 1_555 1_555
C16 C13 1_555 1_555
H18 C16 1_555 1_555
H19 C16 1_555 1_555
H20 C16 1_555 1_555
C17 N1 1_555 1_555
C18 C17 1_555 1_555
C5 C6 1_555 1_555
C7 C8 1_555 1_555
C9 C10 1_555 1_555

#END
