
#######################################################################
#
#                 Cambridge Crystallographic Data Centre
#                                CCDC 
#
#######################################################################
#
# If this CIF has been generated from an entry in the Cambridge 
# Structural Database, then it will include bibliographic, chemical, 
# crystal, experimental, refinement or atomic coordinate data resulting 
# from the CCDC's data processing and validation procedures.
#
#######################################################################

data_VAWLAI
_chemical_formula_moiety         'C31 H38 O7'
_chemical_name_systematic        
"9-(3-Furyl)-1,6,8-trihydroxy-3a,6a,10,11b-tetramethyl-1,2,3,3a,4,5a,6,6a,11,11a,11b,11c-dodecahydroindeno[1',2':3,4]naphtho[1,8-bc]furan-3-yl 2-methylbut-2-enoate"
_symmetry_cell_setting           orthorhombic
_symmetry_space_group_name_H-M   'P 21 21 21'
_symmetry_Int_Tables_number      19
_space_group_name_Hall           'P 2ac 2ab'
loop_
_symmetry_equiv_pos_site_id
_symmetry_equiv_pos_as_xyz
1 x,y,z
2 1/2+x,1/2-y,-z
3 -x,1/2+y,1/2-z
4 1/2-x,-y,1/2+z
_cell_length_a                   7.4859(2)
_cell_length_b                   14.1623(3)
_cell_length_c                   29.1738(6)
_cell_angle_alpha                90
_cell_angle_beta                 90
_cell_angle_gamma                90
_cell_volume                     3092.94
_exptl_crystal_colour            colorless
_exptl_crystal_description       block
_cell_formula_units_Z            4
loop_
_atom_site_label
_atom_site_type_symbol
_atom_site_fract_x
_atom_site_fract_y
_atom_site_fract_z
O1 O 1.04289(17) 0.77967(10) 0.83200(4)
H1 H 1.1419 0.7537 0.8271
O2 O 0.87310(18) 0.61191(9) 0.79444(4)
O3 O 0.7237(2) 0.48777(10) 0.76493(5)
O4 O 0.38634(18) 0.72753(11) 0.82062(5)
O5 O 0.5539(2) 0.79400(10) 0.90346(5)
H2 H 0.4695 0.7709 0.9188
O6 O 0.5639(3) 1.05079(15) 1.03133(6)
H3 H 0.6131 1.0920 1.0477
O7 O 0.9804(3) 1.18488(18) 1.09663(6)
C1 C 0.9800(2) 0.82210(13) 0.79078(6)
H4 H 1.0687 0.8707 0.7807
C2 C 0.9604(3) 0.74788(13) 0.75225(7)
H5 H 0.9390 0.7820 0.7231
H6 H 1.0762 0.7146 0.7491
C3 C 0.8134(3) 0.67288(14) 0.75757(6)
H7 H 0.8034 0.6355 0.7286
C4 C 0.6321(3) 0.71959(14) 0.76840(7)
C5 C 0.6647(2) 0.79120(14) 0.80681(6)
H8 H 0.7153 0.7527 0.8324
C6 C 0.4800(3) 0.81684(14) 0.82294(7)
H9 H 0.4247 0.8629 0.8012
C7 C 0.4853(3) 0.85941(15) 0.87146(7)
H10 H 0.3626 0.8795 0.8808
C8 C 0.6093(3) 0.94659(14) 0.86829(7)
C9 C 0.7963(2) 0.91842(13) 0.84910(6)
H11 H 0.8351 0.8660 0.8698
C10 C 0.7986(3) 0.87251(13) 0.80089(6)
C11 C 0.9195(3) 1.00111(13) 0.86276(6)
H12 H 1.0458 0.9811 0.8651
H13 H 0.9096 1.0546 0.8410
C12 C 0.8411(3) 1.02547(13) 0.90956(7)
C13 C 0.9211(3) 1.07422(14) 0.94579(7)
C14 C 0.6702(3) 0.98844(14) 0.91360(7)
C15 C 0.5751(3) 0.99632(15) 0.95388(8)
H14 H 0.4584 0.9705 0.9565
C16 C 0.6539(3) 1.04294(17) 0.99074(7)
C17 C 0.8237(3) 1.08420(15) 0.98711(7)
C18 C 1.1085(3) 1.11081(15) 0.94159(7)
H15 H 1.1725 1.0746 0.9182
H16 H 1.1698 1.1042 0.9711
H17 H 1.1055 1.1776 0.9328
C19 C 0.7618(3) 0.94295(14) 0.76226(7)
H18 H 0.7996 0.9157 0.7330
H19 H 0.8285 1.0013 0.7680
H20 H 0.6337 0.9570 0.7611
C20 C 0.8982(3) 1.13886(18) 1.02625(8)
C21 C 0.9717(3) 1.23350(17) 1.02417(8)
H21 H 0.9844 1.2718 0.9976
C22 C 1.0181(3) 1.25628(19) 1.06710(9)
H22 H 1.0704 1.3147 1.0758
C23 C 0.9071(5) 1.1151(3) 1.07038(9)
H23 H 0.8670 1.0563 1.0822
C24 C 0.5129(3) 1.02723(14) 0.84249(7)
H24 H 0.4035 1.0443 0.8590
H25 H 0.4823 1.0061 0.8115
H26 H 0.5917 1.0823 0.8407
C25 C 0.4907(3) 0.66113(15) 0.79346(8)
H27 H 0.4131 0.6279 0.7712
H28 H 0.5481 0.6137 0.8135
C26 C 0.5530(3) 0.76014(15) 0.72415(7)
H29 H 0.4508 0.8005 0.7316
H30 H 0.5136 0.7083 0.7043
H31 H 0.6440 0.7975 0.7082
C27 C 0.8245(3) 0.52037(13) 0.79333(6)
C28 C 0.9138(3) 0.46752(14) 0.83103(7)
C29 C 0.8542(3) 0.38049(15) 0.83986(7)
H32 H 0.7568 0.3586 0.8219
C30 C 0.9263(4) 0.31386(16) 0.87548(8)
H33 H 1.0550 0.3242 0.8791
H34 H 0.9049 0.2486 0.8658
H35 H 0.8660 0.3253 0.9048
C31 C 1.0647(3) 0.51529(17) 0.85611(8)
H36 H 1.1106 0.4730 0.8800
H37 H 1.0211 0.5737 0.8703
H38 H 1.1607 0.5303 0.8344
loop_
_geom_bond_atom_site_label_1
_geom_bond_atom_site_label_2
_geom_bond_site_symmetry_1
_geom_bond_site_symmetry_2
O1 H1 1_555 1_555
O2 C3 1_555 1_555
O3 C27 1_555 1_555
O4 C6 1_555 1_555
O5 H2 1_555 1_555
O6 H3 1_555 1_555
O7 C22 1_555 1_555
C1 O1 1_555 1_555
H4 C1 1_555 1_555
C2 C1 1_555 1_555
H5 C2 1_555 1_555
H6 C2 1_555 1_555
C3 C2 1_555 1_555
H7 C3 1_555 1_555
C4 C3 1_555 1_555
C5 C4 1_555 1_555
H8 C5 1_555 1_555
C6 C5 1_555 1_555
H9 C6 1_555 1_555
C7 O5 1_555 1_555
H10 C7 1_555 1_555
C8 C7 1_555 1_555
C9 C8 1_555 1_555
H11 C9 1_555 1_555
C10 C1 1_555 1_555
C11 C9 1_555 1_555
H12 C11 1_555 1_555
H13 C11 1_555 1_555
C12 C11 1_555 1_555
C13 C12 1_555 1_555
C14 C8 1_555 1_555
C15 C14 1_555 1_555
H14 C15 1_555 1_555
C16 O6 1_555 1_555
C17 C13 1_555 1_555
C18 C13 1_555 1_555
H15 C18 1_555 1_555
H16 C18 1_555 1_555
H17 C18 1_555 1_555
C19 C10 1_555 1_555
H18 C19 1_555 1_555
H19 C19 1_555 1_555
H20 C19 1_555 1_555
C20 C17 1_555 1_555
C21 C20 1_555 1_555
H21 C21 1_555 1_555
C22 C21 1_555 1_555
H22 C22 1_555 1_555
C23 O7 1_555 1_555
H23 C23 1_555 1_555
C24 C8 1_555 1_555
H24 C24 1_555 1_555
H25 C24 1_555 1_555
H26 C24 1_555 1_555
C25 O4 1_555 1_555
H27 C25 1_555 1_555
H28 C25 1_555 1_555
C26 C4 1_555 1_555
H29 C26 1_555 1_555
H30 C26 1_555 1_555
H31 C26 1_555 1_555
C27 O2 1_555 1_555
C28 C27 1_555 1_555
C29 C28 1_555 1_555
H32 C29 1_555 1_555
C30 C29 1_555 1_555
H33 C30 1_555 1_555
H34 C30 1_555 1_555
H35 C30 1_555 1_555
C31 C28 1_555 1_555
H36 C31 1_555 1_555
H37 C31 1_555 1_555
H38 C31 1_555 1_555
C4 C25 1_555 1_555
C5 C10 1_555 1_555
C6 C7 1_555 1_555
C9 C10 1_555 1_555
C12 C14 1_555 1_555
C15 C16 1_555 1_555
C16 C17 1_555 1_555
C20 C23 1_555 1_555

#END
