
#######################################################################
#
#                 Cambridge Crystallographic Data Centre
#                                CCDC 
#
#######################################################################
#
# If this CIF has been generated from an entry in the Cambridge 
# Structural Database, then it will include bibliographic, chemical, 
# crystal, experimental, refinement or atomic coordinate data resulting 
# from the CCDC's data processing and validation procedures.
#
#######################################################################

data_VAWQOC
_chemical_formula_moiety         'C36 H28 Br2 O2'
_chemical_name_systematic        
4,4'-(5,8-dimethoxy-1,4-dihydronaphthalene-1,4-diyl)bis(4'-bromo-1,1'-biphenyl)
_symmetry_cell_setting           orthorhombic
_symmetry_space_group_name_H-M   'P b c a'
_symmetry_Int_Tables_number      61
_space_group_name_Hall           '-P 2ac 2ab'
loop_
_symmetry_equiv_pos_site_id
_symmetry_equiv_pos_as_xyz
1 x,y,z
2 1/2-x,-y,1/2+z
3 -x,1/2+y,1/2-z
4 1/2+x,1/2-y,-z
5 -x,-y,-z
6 1/2+x,y,1/2-z
7 x,1/2-y,1/2+z
8 1/2-x,1/2+y,z
_cell_length_a                   10.6995(4)
_cell_length_b                   15.0959(6)
_cell_length_c                   34.2987(13)
_cell_angle_alpha                90
_cell_angle_beta                 90
_cell_angle_gamma                90
_cell_volume                     5539.88
_exptl_crystal_colour            colorless
_exptl_crystal_description       irregular
_cell_formula_units_Z            8
loop_
_atom_site_label
_atom_site_type_symbol
_atom_site_fract_x
_atom_site_fract_y
_atom_site_fract_z
Br1 Br -0.37672(2) 0.03660(2) 0.19541(2)
Br2 Br 0.42232(3) -0.01549(2) -0.08831(2)
O1 O 0.21117(16) 0.63375(10) 0.17700(5)
O2 O 0.57739(17) 0.56480(12) 0.06801(5)
C1 C 0.2988(2) 0.62161(14) 0.14848(7)
C2 C 0.3815(2) 0.54962(14) 0.15445(6)
C3 C 0.3681(2) 0.49498(15) 0.19116(6)
H1 H 0.3607 0.537 0.2136
C4 C 0.4818(2) 0.43794(15) 0.19826(7)
H2 H 0.4918 0.4127 0.2234
C5 C 0.5682(2) 0.42074(15) 0.17188(7)
H3 H 0.6348 0.3824 0.179
C6 C 0.5675(2) 0.45824(14) 0.13131(7)
H4 H 0.6526 0.4831 0.1262
C7 C 0.4744(2) 0.53333(14) 0.12689(7)
C8 C 0.4835(2) 0.58715(15) 0.09366(7)
C9 C 0.4022(2) 0.65696(15) 0.08820(7)
H5 H 0.4092 0.6933 0.0657
C10 C 0.3096(2) 0.67416(15) 0.11578(7)
H6 H 0.2537 0.7223 0.112
C11 C 0.2529(2) 0.43452(14) 0.19193(6)
C12 C 0.1720(2) 0.42397(14) 0.16070(6)
H7 H 0.1833 0.4591 0.138
C13 C 0.0750(2) 0.36323(15) 0.16197(6)
H8 H 0.0216 0.3575 0.14
C14 C 0.0536(2) 0.31035(14) 0.19454(6)
C15 C 0.1338(2) 0.32200(15) 0.22636(6)
H9 H 0.1213 0.2877 0.2493
C16 C 0.2309(2) 0.38248(15) 0.22514(6)
H10 H 0.2837 0.3889 0.2472
C17 C -0.0505(2) 0.24526(14) 0.19549(6)
C18 C -0.1498(2) 0.25056(18) 0.16962(8)
H11 H -0.1517 0.2979 0.1514
C19 C -0.2467(3) 0.18913(18) 0.16939(8)
H12 H -0.3123 0.1934 0.1509
C20 C -0.2455(2) 0.12197(15) 0.19657(6)
C21 C -0.1512(2) 0.11526(16) 0.22364(7)
H13 H -0.1525 0.0696 0.2427
C22 C -0.0537(2) 0.17632(16) 0.22269(7)
H14 H 0.0125 0.171 0.241
C23 C 0.5451(2) 0.38445(14) 0.10166(6)
C24 C 0.6435(2) 0.33151(16) 0.08916(7)
H15 H 0.7251 0.3422 0.099
C25 C 0.6250(2) 0.26351(16) 0.06271(7)
H16 H 0.6937 0.2276 0.0552
C26 C 0.5072(2) 0.24682(15) 0.04689(6)
C27 C 0.4083(2) 0.29975(15) 0.05971(7)
H17 H 0.3268 0.2897 0.0497
C28 C 0.4266(2) 0.36662(15) 0.08674(7)
H18 H 0.3573 0.4009 0.0953
C29 C 0.4874(2) 0.17949(15) 0.01601(7)
C30 C 0.5829(2) 0.15983(16) -0.01036(7)
H19 H 0.6621 0.1873 -0.0072
C31 C 0.5654(2) 0.10127(16) -0.04110(7)
H20 H 0.6316 0.0888 -0.0587
C32 C 0.4495(2) 0.06130(15) -0.04552(7)
C33 C 0.3525(2) 0.07923(16) -0.01966(7)
H21 H 0.2732 0.0519 -0.0231
C34 C 0.3722(2) 0.13699(16) 0.01098(7)
H22 H 0.3065 0.148 0.029
C35 C 0.1231(2) 0.70329(16) 0.17058(8)
H23 H 0.1675 0.7597 0.168
H24 H 0.0653 0.7065 0.1927
H25 H 0.0759 0.6913 0.1467
C36 C 0.5769(3) 0.60848(18) 0.03136(8)
H26 H 0.4967 0.5982 0.0183
H27 H 0.6448 0.5852 0.0151
H28 H 0.5888 0.6722 0.0353
loop_
_geom_bond_atom_site_label_1
_geom_bond_atom_site_label_2
_geom_bond_site_symmetry_1
_geom_bond_site_symmetry_2
Br1 C20 1_555 1_555
Br2 C32 1_555 1_555
O1 C1 1_555 1_555
O2 C8 1_555 1_555
C1 C2 1_555 1_555
C2 C3 1_555 1_555
C3 H1 1_555 1_555
C4 C3 1_555 1_555
H2 C4 1_555 1_555
C5 C4 1_555 1_555
H3 C5 1_555 1_555
C6 C5 1_555 1_555
H4 C6 1_555 1_555
C7 C2 1_555 1_555
C8 C7 1_555 1_555
C9 C8 1_555 1_555
H5 C9 1_555 1_555
C10 C1 1_555 1_555
H6 C10 1_555 1_555
C11 C3 1_555 1_555
C12 C11 1_555 1_555
H7 C12 1_555 1_555
C13 C12 1_555 1_555
H8 C13 1_555 1_555
C14 C13 1_555 1_555
C15 C14 1_555 1_555
H9 C15 1_555 1_555
C16 C11 1_555 1_555
H10 C16 1_555 1_555
C17 C14 1_555 1_555
C18 C17 1_555 1_555
H11 C18 1_555 1_555
C19 C18 1_555 1_555
H12 C19 1_555 1_555
C20 C19 1_555 1_555
C21 C20 1_555 1_555
H13 C21 1_555 1_555
C22 C17 1_555 1_555
H14 C22 1_555 1_555
C23 C6 1_555 1_555
C24 C23 1_555 1_555
H15 C24 1_555 1_555
C25 C24 1_555 1_555
H16 C25 1_555 1_555
C26 C25 1_555 1_555
C27 C26 1_555 1_555
H17 C27 1_555 1_555
C28 C23 1_555 1_555
H18 C28 1_555 1_555
C29 C26 1_555 1_555
C30 C29 1_555 1_555
H19 C30 1_555 1_555
C31 C30 1_555 1_555
H20 C31 1_555 1_555
C32 C31 1_555 1_555
C33 C32 1_555 1_555
H21 C33 1_555 1_555
C34 C29 1_555 1_555
H22 C34 1_555 1_555
C35 O1 1_555 1_555
H23 C35 1_555 1_555
H24 C35 1_555 1_555
H25 C35 1_555 1_555
C36 O2 1_555 1_555
H26 C36 1_555 1_555
H27 C36 1_555 1_555
H28 C36 1_555 1_555
C6 C7 1_555 1_555
C9 C10 1_555 1_555
C15 C16 1_555 1_555
C21 C22 1_555 1_555
C27 C28 1_555 1_555
C33 C34 1_555 1_555

#END
