
#######################################################################
#
#                 Cambridge Crystallographic Data Centre
#                                CCDC 
#
#######################################################################
#
# If this CIF has been generated from an entry in the Cambridge 
# Structural Database, then it will include bibliographic, chemical, 
# crystal, experimental, refinement or atomic coordinate data resulting 
# from the CCDC's data processing and validation procedures.
#
#######################################################################

data_VAXJEL
_chemical_formula_moiety         'C31 H33 N3 O2 S1'
_chemical_name_systematic        
N-((1-((t-Butylimino)methyl)-2,3-dihydro-1H-indol-2-yl)(2-naphthyl)methyl)-4-methylbenzenesulfonamide
_symmetry_cell_setting           monoclinic
_symmetry_space_group_name_H-M   'P 21/c'
_symmetry_Int_Tables_number      14
_space_group_name_Hall           '-P 2ybc'
loop_
_symmetry_equiv_pos_site_id
_symmetry_equiv_pos_as_xyz
1 x,y,z
2 -x,1/2+y,1/2-z
3 -x,-y,-z
4 x,1/2-y,1/2+z
_cell_length_a                   11.542(2)
_cell_length_b                   18.184(4)
_cell_length_c                   13.865(3)
_cell_angle_alpha                90
_cell_angle_beta                 107.80(3)
_cell_angle_gamma                90
_cell_volume                     2770.68
_exptl_crystal_colour            colorless
_exptl_crystal_description       block
_cell_formula_units_Z            4
loop_
_atom_site_label
_atom_site_type_symbol
_atom_site_fract_x
_atom_site_fract_y
_atom_site_fract_z
S1 S 0.91344(8) 0.10244(5) 0.77136(6)
O1 O 0.8941(2) 0.12713(14) 0.86327(18)
O2 O 0.9699(2) 0.14948(14) 0.7176(2)
N1 N 0.7399(2) -0.07083(15) 0.6329(2)
N2 N 0.6562(3) -0.03875(17) 0.7583(2)
N3 N 0.7802(2) 0.08085(16) 0.6968(2)
H1 H 0.7175 0.0819 0.7180
C1 C 0.6875(3) -0.03878(19) 0.4595(3)
H2 H 0.6057 -0.0528 0.4200
H3 H 0.7176 -0.0023 0.4222
C2 C 0.7698(3) -0.10453(18) 0.4833(3)
C3 C 0.8158(3) -0.1471(2) 0.4215(3)
H4 H 0.7990 -0.1358 0.3532
C4 C 0.8876(4) -0.2072(2) 0.4628(4)
H5 H 0.9194 -0.2364 0.4219
C5 C 0.9120(4) -0.2240(2) 0.5632(4)
H6 H 0.9589 -0.2652 0.5891
C6 C 0.8687(3) -0.18128(19) 0.6270(3)
H7 H 0.8874 -0.1922 0.6956
C7 C 0.7961(3) -0.12142(18) 0.5848(3)
C8 C 0.6894(3) -0.00896(17) 0.5638(2)
H8 H 0.6065 0.0021 0.5642
C9 C 0.7064(3) -0.0859(2) 0.7167(3)
H9 H 0.7209 -0.1327 0.7446
C10 C 0.6139(4) -0.0598(2) 0.8448(3)
C11 C 0.4768(5) -0.0564(4) 0.8077(4)
H10 H 0.4463 -0.0933 0.7566
H11 H 0.4513 -0.0087 0.7795
H12 H 0.4454 -0.0652 0.8633
C12 C 0.6567(7) -0.1338(3) 0.8899(4)
H13 H 0.6287 -0.1711 0.8391
H14 H 0.6248 -0.1432 0.9451
H15 H 0.7440 -0.1344 0.9144
C13 C 0.6590(5) 0.0005(3) 0.9249(4)
H16 H 0.7462 -0.0005 0.9499
H17 H 0.6264 -0.0079 0.9799
H18 H 0.6325 0.0476 0.8951
C14 C 0.7689(3) 0.05935(18) 0.5920(2)
H19 H 0.8503 0.0465 0.5893
C15 C 0.9987(3) 0.02087(19) 0.7981(2)
C16 C 1.0791(3) 0.0019(2) 0.7454(3)
H20 H 1.0890 0.0325 0.6947
C17 C 1.1437(3) -0.0623(2) 0.7686(3)
H21 H 1.1970 -0.0747 0.7326
C18 C 1.1326(3) -0.1090(2) 0.8433(3)
C19 C 1.0511(3) -0.0900(2) 0.8942(3)
H22 H 1.0409 -0.1212 0.9442
C20 C 0.9846(3) -0.0257(2) 0.8724(3)
H23 H 0.9303 -0.0138 0.9076
C21 C 1.2067(5) -0.1789(3) 0.8697(4)
H24 H 1.1864 -0.2041 0.9233
H25 H 1.2918 -0.1669 0.8914
H26 H 1.1890 -0.2102 0.8112
C22 C 0.7934(3) 0.1497(2) 0.4603(3)
H27 H 0.8700 0.1298 0.4684
C23 C 0.7512(3) 0.2047(2) 0.3922(3)
H28 H 0.8001 0.2226 0.3552
C24 C 0.6357(3) 0.2347(2) 0.3768(3)
C25 C 0.5882(4) 0.2913(2) 0.3040(3)
H29 H 0.6345 0.3093 0.2648
C26 C 0.4761(4) 0.3188(2) 0.2921(4)
H30 H 0.4454 0.3549 0.2434
C27 C 0.4056(4) 0.2944(2) 0.3508(4)
H31 H 0.3290 0.3146 0.3417
C28 C 0.4485(3) 0.2406(2) 0.4222(3)
H32 H 0.4012 0.2247 0.4618
C29 C 0.5631(3) 0.20983(18) 0.4354(3)
C30 C 0.6107(3) 0.15297(19) 0.5073(3)
H33 H 0.5647 0.1362 0.5475
C31 C 0.7221(3) 0.12251(18) 0.5188(2)
loop_
_geom_bond_atom_site_label_1
_geom_bond_atom_site_label_2
_geom_bond_site_symmetry_1
_geom_bond_site_symmetry_2
S1 O1 1_555 1_555
O2 S1 1_555 1_555
N1 C7 1_555 1_555
N2 C9 1_555 1_555
N3 S1 1_555 1_555
H1 N3 1_555 1_555
C1 H2 1_555 1_555
H3 C1 1_555 1_555
C2 C1 1_555 1_555
C3 C2 1_555 1_555
H4 C3 1_555 1_555
C4 C3 1_555 1_555
H5 C4 1_555 1_555
C5 C4 1_555 1_555
H6 C5 1_555 1_555
C6 C5 1_555 1_555
H7 C6 1_555 1_555
C7 C2 1_555 1_555
C8 N1 1_555 1_555
H8 C8 1_555 1_555
C9 N1 1_555 1_555
H9 C9 1_555 1_555
C10 N2 1_555 1_555
C11 C10 1_555 1_555
H10 C11 1_555 1_555
H11 C11 1_555 1_555
H12 C11 1_555 1_555
C12 C10 1_555 1_555
H13 C12 1_555 1_555
H14 C12 1_555 1_555
H15 C12 1_555 1_555
C13 C10 1_555 1_555
H16 C13 1_555 1_555
H17 C13 1_555 1_555
H18 C13 1_555 1_555
C14 N3 1_555 1_555
H19 C14 1_555 1_555
C15 S1 1_555 1_555
C16 C15 1_555 1_555
H20 C16 1_555 1_555
C17 C16 1_555 1_555
H21 C17 1_555 1_555
C18 C17 1_555 1_555
C19 C18 1_555 1_555
H22 C19 1_555 1_555
C20 C15 1_555 1_555
H23 C20 1_555 1_555
C21 C18 1_555 1_555
H24 C21 1_555 1_555
H25 C21 1_555 1_555
H26 C21 1_555 1_555
C22 H27 1_555 1_555
C23 C22 1_555 1_555
H28 C23 1_555 1_555
C24 C23 1_555 1_555
C25 C24 1_555 1_555
H29 C25 1_555 1_555
C26 C25 1_555 1_555
H30 C26 1_555 1_555
C27 C26 1_555 1_555
H31 C27 1_555 1_555
C28 C27 1_555 1_555
H32 C28 1_555 1_555
C29 C24 1_555 1_555
C30 C29 1_555 1_555
H33 C30 1_555 1_555
C31 C14 1_555 1_555
C1 C8 1_555 1_555
C6 C7 1_555 1_555
C8 C14 1_555 1_555
C19 C20 1_555 1_555
C22 C31 1_555 1_555
C28 C29 1_555 1_555
C30 C31 1_555 1_555

#END
