
#######################################################################
#
#                 Cambridge Crystallographic Data Centre
#                                CCDC 
#
#######################################################################
#
# If this CIF has been generated from an entry in the Cambridge 
# Structural Database, then it will include bibliographic, chemical, 
# crystal, experimental, refinement or atomic coordinate data resulting 
# from the CCDC's data processing and validation procedures.
#
#######################################################################

data_VAXLUD
_chemical_formula_moiety         'C19 H20 N2 O2'
_chemical_name_systematic        
3-Methoxy-6,9,10-trimethyl-5,6-dihydrobenzimidazo[2,1-a]isoquinolin-4-ol
_symmetry_cell_setting           orthorhombic
_symmetry_space_group_name_H-M   'P 21 21 21'
_symmetry_Int_Tables_number      19
_space_group_name_Hall           'P 2ac 2ab'
loop_
_symmetry_equiv_pos_site_id
_symmetry_equiv_pos_as_xyz
1 x,y,z
2 1/2-x,-y,1/2+z
3 1/2+x,1/2-y,-z
4 -x,1/2+y,1/2-z
_cell_length_a                   14.536(5)
_cell_length_b                   12.816(4)
_cell_length_c                   8.453(3)
_cell_angle_alpha                90
_cell_angle_beta                 90
_cell_angle_gamma                90
_cell_volume                     1574.74
_exptl_crystal_colour            colorless
_exptl_crystal_description       tabular
_cell_formula_units_Z            4
loop_
_atom_site_label
_atom_site_type_symbol
_atom_site_fract_x
_atom_site_fract_y
_atom_site_fract_z
O1 O 0.29417(19) 1.03735(18) 0.2782(3)
O2 O 0.41488(18) 1.13304(17) 0.0869(3)
N1 N 0.6829(2) 0.78775(19) 0.2622(4)
N2 N 0.7115(2) 0.9372(2) 0.1338(4)
C1 C 0.2334(3) 0.9916(3) 0.3906(5)
H1 H 0.2640 0.9877 0.4938
H2 H 0.2167 0.9212 0.3558
H3 H 0.1778 1.0343 0.3996
C2 C 0.3775(3) 0.9905(2) 0.2612(5)
C3 C 0.4022(3) 0.8977(3) 0.3338(5)
H4 H 0.3591 0.8608 0.3970
C4 C 0.4898(3) 0.8596(2) 0.3136(5)
H5 H 0.5071 0.7964 0.3643
C5 C 0.5534(3) 0.9117(2) 0.2205(5)
C6 C 0.6467(3) 0.8757(2) 0.2066(5)
C7 C 0.7755(3) 0.7927(3) 0.2270(5)
C8 C 0.8467(3) 0.7237(2) 0.2577(5)
H6 H 0.8345 0.6597 0.3104
C9 C 0.9341(3) 0.7474(2) 0.2123(5)
C10 C 1.0126(3) 0.6735(3) 0.2464(5)
H7 H 0.9888 0.6104 0.2974
H8 H 1.0570 0.7075 0.3168
H9 H 1.0431 0.6546 0.1470
C11 C 0.4404(3) 1.0437(2) 0.1648(5)
C12 C 0.5274(3) 1.0045(2) 0.1429(4)
C13 C 0.5952(3) 1.0554(3) 0.0307(5)
H10 H 0.5799 1.1305 0.0217
H11 H 0.5878 1.0239 -0.0755
C14 C 0.6954(3) 1.0450(3) 0.0808(5)
H12 H 0.7347 1.0579 -0.0142
C15 C 0.9540(3) 0.8424(3) 0.1321(5)
C16 C 1.0502(3) 0.8669(3) 0.0852(5)
H13 H 1.0528 0.9376 0.0411
H14 H 1.0709 0.8167 0.0053
H15 H 1.0903 0.8627 0.1782
C17 C 0.8834(3) 0.9125(3) 0.1001(5)
H16 H 0.8955 0.9763 0.0470
C18 C 0.7951(3) 0.8872(3) 0.1472(4)
C19 C 0.7232(3) 1.1222(3) 0.2077(5)
H17 H 0.7840 1.1036 0.2489
H18 H 0.6781 1.1204 0.2940
H19 H 0.7253 1.1926 0.1625
H20 H 0.3658 1.1762 0.1270
loop_
_geom_bond_atom_site_label_1
_geom_bond_atom_site_label_2
_geom_bond_site_symmetry_1
_geom_bond_site_symmetry_2
O1 C1 1_555 1_555
O2 C11 1_555 1_555
N1 C6 1_555 1_555
N2 C6 1_555 1_555
C1 H1 1_555 1_555
H2 C1 1_555 1_555
H3 C1 1_555 1_555
C2 O1 1_555 1_555
C3 C2 1_555 1_555
H4 C3 1_555 1_555
C4 C3 1_555 1_555
H5 C4 1_555 1_555
C5 C4 1_555 1_555
C6 C5 1_555 1_555
C7 N1 1_555 1_555
C8 C7 1_555 1_555
H6 C8 1_555 1_555
C9 C8 1_555 1_555
C10 C9 1_555 1_555
H7 C10 1_555 1_555
H8 C10 1_555 1_555
H9 C10 1_555 1_555
C11 C2 1_555 1_555
C12 C5 1_555 1_555
C13 C12 1_555 1_555
H10 C13 1_555 1_555
H11 C13 1_555 1_555
C14 N2 1_555 1_555
H12 C14 1_555 1_555
C15 C9 1_555 1_555
C16 C15 1_555 1_555
H13 C16 1_555 1_555
H14 C16 1_555 1_555
H15 C16 1_555 1_555
C17 C15 1_555 1_555
H16 C17 1_555 1_555
C18 N2 1_555 1_555
C19 C14 1_555 1_555
H17 C19 1_555 1_555
H18 C19 1_555 1_555
H19 C19 1_555 1_555
H20 O2 1_555 1_555
C7 C18 1_555 1_555
C11 C12 1_555 1_555
C13 C14 1_555 1_555
C17 C18 1_555 1_555

#END
