
#######################################################################
#
#                 Cambridge Crystallographic Data Centre
#                                CCDC 
#
#######################################################################
#
# If this CIF has been generated from an entry in the Cambridge 
# Structural Database, then it will include bibliographic, chemical, 
# crystal, experimental, refinement or atomic coordinate data resulting 
# from the CCDC's data processing and validation procedures.
#
#######################################################################

data_VAXPOB
_chemical_formula_moiety         'C11 H11 F1 N2 O1 S1'
_chemical_name_systematic        4-Fluoro-2-(morpholin-4-yl)-1,3-benzothiazole
_symmetry_cell_setting           monoclinic
_symmetry_space_group_name_H-M   'P 21/c'
_symmetry_Int_Tables_number      14
_space_group_name_Hall           '-P 2ybc'
loop_
_symmetry_equiv_pos_site_id
_symmetry_equiv_pos_as_xyz
1 x,y,z
2 -x,1/2+y,1/2-z
3 -x,-y,-z
4 x,1/2-y,1/2+z
_cell_length_a                   10.0399(3)
_cell_length_b                   7.8357(2)
_cell_length_c                   13.7823(3)
_cell_angle_alpha                90
_cell_angle_beta                 91.5910(10)
_cell_angle_gamma                90
_cell_volume                     1083.83
_exptl_crystal_colour            colorless
_exptl_crystal_description       cubic
_cell_formula_units_Z            4
loop_
_atom_site_label
_atom_site_type_symbol
_atom_site_fract_x
_atom_site_fract_y
_atom_site_fract_z
S1 S 1.00972(6) 0.90226(9) 0.24208(4)
F1 F 1.38137(18) 0.6166(3) 0.08471(14)
O1 O 0.6553(2) 0.8245(4) -0.04238(19)
N1 N 1.11336(19) 0.7371(2) 0.09730(13)
N2 N 0.8906(2) 0.8201(3) 0.07006(13)
C1 C 1.3414(3) 0.6937(4) 0.1669(2)
C2 C 1.4292(3) 0.7135(4) 0.2439(2)
H1 H 1.5158 0.6722 0.2403
C3 C 1.3890(3) 0.7950(4) 0.3270(2)
H2 H 1.4492 0.8080 0.3790
C4 C 1.2623(3) 0.8570(4) 0.3345(2)
H3 H 1.2356 0.9115 0.3907
C5 C 1.1740(2) 0.8357(3) 0.25494(17)
C6 C 1.2108(2) 0.7521(3) 0.17002(16)
C7 C 1.0041(2) 0.8096(3) 0.12517(15)
C8 C 0.8848(3) 0.7321(4) -0.02191(19)
H4 H 0.8841 0.6101 -0.0100
H5 H 0.9647 0.7584 -0.0570
C9 C 0.7694(3) 0.7760(6) -0.0823(2)
H6 H 0.7961 0.8673 -0.1252
H7 H 0.7492 0.6779 -0.1230
C10 C 0.6645(3) 0.9210(5) 0.0400(2)
H8 H 0.5802 0.9129 0.0724
H9 H 0.6755 1.0391 0.0208
C11 C 0.7697(3) 0.8802(6) 0.1103(3)
H10 H 0.7894 0.9815 0.1485
H11 H 0.7370 0.7939 0.1541
loop_
_geom_bond_atom_site_label_1
_geom_bond_atom_site_label_2
_geom_bond_site_symmetry_1
_geom_bond_site_symmetry_2
S1 C5 1_555 1_555
F1 C1 1_555 1_555
O1 C9 1_555 1_555
N1 C6 1_555 1_555
N2 C7 1_555 1_555
C1 C2 1_555 1_555
C2 H1 1_555 1_555
C3 C2 1_555 1_555
H2 C3 1_555 1_555
C4 C3 1_555 1_555
H3 C4 1_555 1_555
C5 C4 1_555 1_555
C6 C1 1_555 1_555
C7 S1 1_555 1_555
C8 N2 1_555 1_555
H4 C8 1_555 1_555
H5 C8 1_555 1_555
C9 C8 1_555 1_555
H6 C9 1_555 1_555
H7 C9 1_555 1_555
C10 O1 1_555 1_555
H8 C10 1_555 1_555
H9 C10 1_555 1_555
C11 N2 1_555 1_555
H10 C11 1_555 1_555
H11 C11 1_555 1_555
N1 C7 1_555 1_555
C5 C6 1_555 1_555
C10 C11 1_555 1_555

#END
