
#######################################################################
#
#                 Cambridge Crystallographic Data Centre
#                                CCDC 
#
#######################################################################
#
# If this CIF has been generated from an entry in the Cambridge 
# Structural Database, then it will include bibliographic, chemical, 
# crystal, experimental, refinement or atomic coordinate data resulting 
# from the CCDC's data processing and validation procedures.
#
#######################################################################

data_VAYLOZ
_chemical_formula_moiety         'C64 H48 N8'
_chemical_name_systematic        
2^6^,2^7^,4^6^,4^7^,6^6^,6^7^,8^6^,8^7^-Octamethyl-2,4,6,8(2,3)-tetraquinoxalina-1,3,5,7(1,4)-tetrabenzaenacyclooctaphane
_symmetry_cell_setting           tetragonal
_symmetry_space_group_name_H-M   'I 41/a'
_symmetry_Int_Tables_number      88
_space_group_name_Hall           '-I 4ad'
loop_
_symmetry_equiv_pos_site_id
_symmetry_equiv_pos_as_xyz
1 x,y,z
2 1/2-x,-y,1/2+z
3 3/4-y,1/4+x,1/4+z
4 3/4+y,3/4-x,3/4+z
5 1/2+x,1/2+y,1/2+z
6 -x,1/2-y,z
7 1/4-y,3/4+x,3/4+z
8 1/4+y,1/4-x,1/4+z
9 -x,-y,-z
10 1/2+x,y,1/2-z
11 1/4+y,3/4-x,3/4-z
12 1/4-y,1/4+x,1/4-z
13 1/2-x,1/2-y,1/2-z
14 x,1/2+y,-z
15 3/4+y,1/4-x,1/4-z
16 3/4-y,3/4+x,3/4-z
_cell_length_a                   31.0988(16)
_cell_length_b                   31.0988(16)
_cell_length_c                   4.9366(4)
_cell_angle_alpha                90
_cell_angle_beta                 90
_cell_angle_gamma                90
_cell_volume                     4774.36
_exptl_crystal_colour            yellow
_exptl_crystal_description       NEEDLE
_cell_formula_units_Z            4
loop_
_atom_site_label
_atom_site_type_symbol
_atom_site_fract_x
_atom_site_fract_y
_atom_site_fract_z
N1 N 0.38924(5) 0.39915(5) 0.5992(4)
N2 N 0.47283(5) 0.42395(6) 0.4654(4)
C1 C 0.54549(6) 0.38201(6) 0.6219(4)
H1 H 0.5459 0.4006 0.4695
C2 C 0.58370(6) 0.36713(6) 0.7257(5)
H2 H 0.6100 0.3762 0.6465
C3 C 0.58450(6) 0.33906(6) 0.9440(4)
C4 C 0.54535(6) 0.32682(6) 1.0592(5)
H3 H 0.5451 0.3075 1.2081
C5 C 0.50689(6) 0.34254(6) 0.9592(5)
H4 H 0.4807 0.3343 1.0433
C6 C 0.50592(6) 0.37029(6) 0.7361(4)
C7 C 0.46628(6) 0.39001(6) 0.6215(4)
C8 C 0.42288(6) 0.37618(6) 0.6775(4)
C9 C 0.39638(6) 0.43449(6) 0.4417(5)
C10 C 0.36171(7) 0.45875(6) 0.3393(5)
H5 H 0.3333 0.4520 0.3961
C11 C 0.36795(7) 0.49171(6) 0.1604(5)
C12 C 0.41065(7) 0.50174(7) 0.0737(5)
C13 C 0.44431(7) 0.47943(7) 0.1770(5)
H6 H 0.4727 0.4868 0.1225
C14 C 0.43831(7) 0.44547(7) 0.3639(5)
C15 C 0.41797(8) 0.53621(7) -0.1377(5)
H7 H 0.4066 0.5265 -0.3124
H8 H 0.4489 0.5418 -0.1548
H9 H 0.4032 0.5627 -0.0829
C16 C 0.33072(7) 0.51665(7) 0.0492(6)
H10 H 0.3288 0.5120 -0.1469
H11 H 0.3349 0.5473 0.0859
H12 H 0.3041 0.5069 0.1356
N1J N 0.64915(5) 0.36076(5) 1.1508(4)
N2J N 0.67395(6) 0.27717(5) 1.2846(4)
C1J C 0.63201(6) 0.20451(6) 1.1281(4)
H1J H 0.6506 0.2041 1.2805
C2J C 0.61713(6) 0.16630(6) 1.0243(5)
H2J H 0.6262 0.1400 1.1035
C3J C 0.58906(6) 0.16550(6) 0.8060(4)
C4J C 0.57682(6) 0.20465(6) 0.6908(5)
H3J H 0.5575 0.2049 0.5419
C5J C 0.59254(6) 0.24311(6) 0.7908(5)
H4J H 0.5843 0.2693 0.7067
C6J C 0.62029(6) 0.24408(6) 1.0139(4)
C7J C 0.64001(6) 0.28372(6) 1.1285(4)
C8J C 0.62618(6) 0.32712(6) 1.0725(4)
C9J C 0.68449(6) 0.35362(6) 1.3083(5)
C10J C 0.70875(6) 0.38829(7) 1.4107(5)
H5J H 0.7020 0.4167 1.3539
C11J C 0.74171(6) 0.38205(7) 1.5896(5)
C12J C 0.75174(7) 0.33935(7) 1.6763(5)
C13J C 0.72943(7) 0.30569(7) 1.5730(5)
H6J H 0.7368 0.2773 1.6275
C14J C 0.69547(7) 0.31169(7) 1.3861(5)
C15J C 0.78621(7) 0.33203(8) 1.8877(5)
H7J H 0.7765 0.3434 2.0624
H8J H 0.7918 0.3011 1.9048
H9J H 0.8127 0.3468 1.8329
C16J C 0.76665(7) 0.41928(7) 1.7008(6)
H10J H 0.7620 0.4212 1.8969
H11J H 0.7973 0.4151 1.6641
H12J H 0.7569 0.4459 1.6144
N1O N 0.35085(5) 0.13924(5) 1.1508(4)
N2O N 0.32605(6) 0.22283(5) 1.2846(4)
C1O C 0.36799(6) 0.29549(6) 1.1281(4)
H1O H 0.3494 0.2959 1.2805
C2O C 0.38287(6) 0.33370(6) 1.0243(5)
H2O H 0.3738 0.3600 1.1035
C3O C 0.41094(6) 0.33450(6) 0.8060(4)
C4O C 0.42318(6) 0.29535(6) 0.6908(5)
H3O H 0.4425 0.2951 0.5419
C5O C 0.40746(6) 0.25689(6) 0.7908(5)
H4O H 0.4157 0.2307 0.7067
C6O C 0.37971(6) 0.25592(6) 1.0139(4)
C7O C 0.35999(6) 0.21628(6) 1.1285(4)
C8O C 0.37382(6) 0.17288(6) 1.0725(4)
C9O C 0.31551(6) 0.14638(6) 1.3083(5)
C10O C 0.29125(6) 0.11171(7) 1.4107(5)
H5O H 0.2980 0.0833 1.3539
C11O C 0.25829(6) 0.11795(7) 1.5896(5)
C12O C 0.24826(7) 0.16065(7) 1.6763(5)
C13O C 0.27057(7) 0.19431(7) 1.5730(5)
H6O H 0.2632 0.2227 1.6275
C14O C 0.30453(7) 0.18831(7) 1.3861(5)
C15O C 0.21379(7) 0.16797(8) 1.8877(5)
H7O H 0.2235 0.1566 2.0624
H8O H 0.2082 0.1989 1.9048
H9O H 0.1873 0.1532 1.8329
C16O C 0.23335(7) 0.08072(7) 1.7008(6)
H10O H 0.2380 0.0788 1.8969
H11O H 0.2027 0.0849 1.6641
H12O H 0.2431 0.0541 1.6144
N1E N 0.61076(5) 0.10085(5) 0.5992(4)
N2E N 0.52717(5) 0.07605(6) 0.4654(4)
C1E C 0.45451(6) 0.11799(6) 0.6219(4)
H1E H 0.4541 0.0994 0.4695
C2E C 0.41630(6) 0.13287(6) 0.7257(5)
H2E H 0.3900 0.1238 0.6465
C3E C 0.41550(6) 0.16094(6) 0.9440(4)
C4E C 0.45465(6) 0.17318(6) 1.0592(5)
H3E H 0.4549 0.1925 1.2081
C5E C 0.49311(6) 0.15746(6) 0.9592(5)
H4E H 0.5193 0.1657 1.0433
C6E C 0.49408(6) 0.12971(6) 0.7361(4)
C7E C 0.53372(6) 0.10999(6) 0.6215(4)
C8E C 0.57712(6) 0.12382(6) 0.6775(4)
C9E C 0.60362(6) 0.06551(6) 0.4417(5)
C10E C 0.63829(7) 0.04125(6) 0.3393(5)
H5E H 0.6667 0.0480 0.3961
C11E C 0.63205(7) 0.00829(6) 0.1604(5)
C12E C 0.58935(7) -0.00174(7) 0.0737(5)
C13E C 0.55569(7) 0.02057(7) 0.1770(5)
H6E H 0.5273 0.0132 0.1225
C14E C 0.56169(7) 0.05453(7) 0.3639(5)
C15E C 0.58203(8) -0.03621(7) -0.1377(5)
H7E H 0.5934 -0.0265 -0.3124
H8E H 0.5511 -0.0418 -0.1548
H9E H 0.5968 -0.0627 -0.0829
C16E C 0.66928(7) -0.01665(7) 0.0492(6)
H10E H 0.6712 -0.0120 -0.1469
H11E H 0.6651 -0.0473 0.0859
H12E H 0.6959 -0.0069 0.1356
loop_
_geom_bond_atom_site_label_1
_geom_bond_atom_site_label_2
_geom_bond_site_symmetry_1
_geom_bond_site_symmetry_2
N1 C8 1_555 1_555
N2 C7 1_555 1_555
C1 H1 1_555 1_555
C2 C1 1_555 1_555
H2 C2 1_555 1_555
C3 C2 1_555 1_555
C4 C3 1_555 1_555
H3 C4 1_555 1_555
C5 C4 1_555 1_555
H4 C5 1_555 1_555
C6 C1 1_555 1_555
C7 C6 1_555 1_555
C8 C7 1_555 1_555
C9 N1 1_555 1_555
C10 C9 1_555 1_555
H5 C10 1_555 1_555
C11 C10 1_555 1_555
C12 C11 1_555 1_555
C13 C12 1_555 1_555
H6 C13 1_555 1_555
C14 N2 1_555 1_555
C15 C12 1_555 1_555
H7 C15 1_555 1_555
H8 C15 1_555 1_555
H9 C15 1_555 1_555
C16 C11 1_555 1_555
H10 C16 1_555 1_555
H11 C16 1_555 1_555
H12 C16 1_555 1_555
N1J C8J 1_555 1_555
N2J C7J 1_555 1_555
C1J H1J 1_555 1_555
C2J C1J 1_555 1_555
H2J C2J 1_555 1_555
C3J C2J 1_555 1_555
C4J C3J 1_555 1_555
H3J C4J 1_555 1_555
C5J C4J 1_555 1_555
H4J C5J 1_555 1_555
C6J C1J 1_555 1_555
C7J C6J 1_555 1_555
C8J C3 1_555 1_555
C9J N1J 1_555 1_555
C10J C9J 1_555 1_555
H5J C10J 1_555 1_555
C11J C10J 1_555 1_555
C12J C11J 1_555 1_555
C13J C12J 1_555 1_555
H6J C13J 1_555 1_555
C14J N2J 1_555 1_555
C15J C12J 1_555 1_555
H7J C15J 1_555 1_555
H8J C15J 1_555 1_555
H9J C15J 1_555 1_555
C16J C11J 1_555 1_555
H10J C16J 1_555 1_555
H11J C16J 1_555 1_555
H12J C16J 1_555 1_555
N1O C8O 1_555 1_555
N2O C7O 1_555 1_555
C1O H1O 1_555 1_555
C2O C1O 1_555 1_555
H2O C2O 1_555 1_555
C3O C8 1_555 1_555
C4O C3O 1_555 1_555
H3O C4O 1_555 1_555
C5O C4O 1_555 1_555
H4O C5O 1_555 1_555
C6O C1O 1_555 1_555
C7O C6O 1_555 1_555
C8O C7O 1_555 1_555
C9O N1O 1_555 1_555
C10O C9O 1_555 1_555
H5O C10O 1_555 1_555
C11O C10O 1_555 1_555
C12O C11O 1_555 1_555
C13O C12O 1_555 1_555
H6O C13O 1_555 1_555
C14O N2O 1_555 1_555
C15O C12O 1_555 1_555
H7O C15O 1_555 1_555
H8O C15O 1_555 1_555
H9O C15O 1_555 1_555
C16O C11O 1_555 1_555
H10O C16O 1_555 1_555
H11O C16O 1_555 1_555
H12O C16O 1_555 1_555
N1E C8E 1_555 1_555
N2E C7E 1_555 1_555
C1E H1E 1_555 1_555
C2E C1E 1_555 1_555
H2E C2E 1_555 1_555
C3E C8O 1_555 1_555
C4E C3E 1_555 1_555
H3E C4E 1_555 1_555
C5E C4E 1_555 1_555
H4E C5E 1_555 1_555
C6E C1E 1_555 1_555
C7E C6E 1_555 1_555
C8E C3J 1_555 1_555
C9E N1E 1_555 1_555
C10E C9E 1_555 1_555
H5E C10E 1_555 1_555
C11E C10E 1_555 1_555
C12E C11E 1_555 1_555
C13E C12E 1_555 1_555
H6E C13E 1_555 1_555
C14E N2E 1_555 1_555
C15E C12E 1_555 1_555
H7E C15E 1_555 1_555
H8E C15E 1_555 1_555
H9E C15E 1_555 1_555
C16E C11E 1_555 1_555
H10E C16E 1_555 1_555
H11E C16E 1_555 1_555
H12E C16E 1_555 1_555
C5 C6 1_555 1_555
C9 C14 1_555 1_555
C13 C14 1_555 1_555
C5J C6J 1_555 1_555
C7J C8J 1_555 1_555
C9J C14J 1_555 1_555
C13J C14J 1_555 1_555
C2O C3O 1_555 1_555
C5O C6O 1_555 1_555
C9O C14O 1_555 1_555
C13O C14O 1_555 1_555
C2E C3E 1_555 1_555
C5E C6E 1_555 1_555
C7E C8E 1_555 1_555
C9E C14E 1_555 1_555
C13E C14E 1_555 1_555

#END
