
#######################################################################
#
#                 Cambridge Crystallographic Data Centre
#                                CCDC 
#
#######################################################################
#
# If this CIF has been generated from an entry in the Cambridge 
# Structural Database, then it will include bibliographic, chemical, 
# crystal, experimental, refinement or atomic coordinate data resulting 
# from the CCDC's data processing and validation procedures.
#
#######################################################################

data_VAYLIT
_chemical_formula_moiety         'C56 H32 N8'
_chemical_name_systematic        
'2,4,6,8(2,3)-Tetraquinoxalina-1,3,5,7(1,4)-tetrabenzaenacyclooctaphane unknown solvate'
_symmetry_cell_setting           rhombohedral
_symmetry_space_group_name_H-M   'R -3'
_symmetry_Int_Tables_number      148
_space_group_name_Hall           '-R 3'
loop_
_symmetry_equiv_pos_site_id
_symmetry_equiv_pos_as_xyz
1 x,y,z
2 -y,x-y,z
3 -x+y,-x,z
4 2/3+x,1/3+y,1/3+z
5 2/3-y,1/3+x-y,1/3+z
6 2/3-x+y,1/3-x,1/3+z
7 1/3+x,2/3+y,2/3+z
8 1/3-y,2/3+x-y,2/3+z
9 1/3-x+y,2/3-x,2/3+z
10 -x,-y,-z
11 y,-x+y,-z
12 x-y,x,-z
13 1/3-x,2/3-y,2/3-z
14 1/3+y,2/3-x+y,2/3-z
15 1/3+x-y,2/3+x,2/3-z
16 2/3-x,1/3-y,1/3-z
17 2/3+y,1/3-x+y,1/3-z
18 2/3+x-y,1/3+x,1/3-z
_cell_length_a                   35.3660(4)
_cell_length_b                   35.3660(4)
_cell_length_c                   36.9318(4)
_cell_angle_alpha                90
_cell_angle_beta                 90
_cell_angle_gamma                120
_cell_volume                     40004
_exptl_crystal_colour            yellow
_exptl_crystal_description       POLYHEDRA
_cell_formula_units_Z            36
loop_
_atom_site_label
_atom_site_type_symbol
_atom_site_fract_x
_atom_site_fract_y
_atom_site_fract_z
N1 N 0.69455(5) 0.47305(5) 0.47353(4)
N2 N 0.72312(4) 0.55496(5) 0.50594(3)
N3 N 0.74576(4) 0.71551(4) 0.37358(3)
N4 N 0.66451(4) 0.70322(4) 0.35082(3)
N5 N 0.47106(4) 0.51855(5) 0.40770(3)
N6 N 0.44784(4) 0.44201(4) 0.36817(3)
N7 N 0.61935(4) 0.46866(4) 0.24679(3)
N8 N 0.68972(4) 0.47204(5) 0.28516(4)
C1 C 0.70548(5) 0.47978(7) 0.50945(5)
C2 C 0.70168(7) 0.44466(8) 0.53046(6)
H1 H 0.6919 0.4169 0.5197
C3 C 0.71213(7) 0.45090(10) 0.56642(6)
H2 H 0.7095 0.4273 0.5806
C4 C 0.72668(7) 0.49179(10) 0.58255(5)
H3 H 0.7343 0.4957 0.6075
C5 C 0.73008(6) 0.52598(9) 0.56292(5)
H4 H 0.7395 0.5534 0.5742
C6 C 0.71955(5) 0.52047(7) 0.52558(4)
C7 C 0.71680(4) 0.58635(5) 0.45071(4)
C8 C 0.69194(5) 0.60505(5) 0.46143(4)
H5 H 0.6764 0.5964 0.4837
C9 C 0.68951(4) 0.63582(5) 0.44026(4)
H6 H 0.6717 0.6476 0.4476
C10 C 0.71316(4) 0.64981(5) 0.40796(4)
C11 C 0.74094(4) 0.63393(5) 0.39869(4)
H7 H 0.7590 0.6451 0.3779
C12 C 0.74237(4) 0.60216(5) 0.41946(4)
H8 H 0.7608 0.5910 0.4125
C13 C 0.70902(4) 0.68069(5) 0.38335(4)
C14 C 0.74313(5) 0.74582(5) 0.35254(4)
C15 C 0.78172(6) 0.78438(6) 0.34262(4)
H9 H 0.8094 0.7885 0.3497
C16 C 0.77923(6) 0.81567(6) 0.32291(4)
H10 H 0.8053 0.8415 0.3162
C17 C 0.73864(6) 0.81025(6) 0.31233(4)
H11 H 0.7375 0.8325 0.2987
C18 C 0.70061(6) 0.77317(5) 0.32151(4)
H12 H 0.6733 0.7696 0.3142
C19 C 0.70234(5) 0.74028(5) 0.34193(4)
C20 C 0.66719(5) 0.67357(5) 0.37053(4)
C21 C 0.62504(4) 0.63272(5) 0.37697(4)
C22 C 0.58679(5) 0.63495(5) 0.38083(4)
H13 H 0.5885 0.6626 0.3815
C23 C 0.54658(5) 0.59740(5) 0.38366(4)
H14 H 0.5211 0.5996 0.3864
C24 C 0.54286(5) 0.55633(5) 0.38255(4)
C25 C 0.58107(5) 0.55417(5) 0.37980(4)
H15 H 0.5794 0.5265 0.3801
C26 C 0.62143(5) 0.59176(5) 0.37672(4)
H16 H 0.6470 0.5895 0.3744
C27 C 0.49875(5) 0.51648(5) 0.38510(4)
C28 C 0.43040(5) 0.48205(6) 0.41106(4)
C29 C 0.39979(6) 0.48277(7) 0.43525(5)
H17 H 0.4071 0.5082 0.4490
C30 C 0.35914(6) 0.44612(7) 0.43860(5)
H18 H 0.3385 0.4465 0.4549
C31 C 0.34767(6) 0.40849(7) 0.41864(5)
H19 H 0.3194 0.3836 0.4213
C32 C 0.37680(5) 0.40711(6) 0.39526(5)
H20 H 0.3689 0.3814 0.3816
C33 C 0.41887(5) 0.44412(5) 0.39136(4)
C34 C 0.48660(4) 0.47730(5) 0.36455(4)
C35 C 0.51774(4) 0.47338(4) 0.34007(4)
C36 C 0.52973(4) 0.44242(4) 0.34838(4)
H21 H 0.5149 0.4218 0.3671
C37 C 0.56293(4) 0.44146(4) 0.32977(4)
H22 H 0.5717 0.4210 0.3364
C38 C 0.58390(4) 0.47046(4) 0.30121(3)
C39 C 0.56973(4) 0.49938(4) 0.29113(4)
H23 H 0.5824 0.5178 0.2707
C40 C 0.53743(4) 0.50145(4) 0.31068(4)
H24 H 0.5286 0.5219 0.3041
C41 C 0.62112(4) 0.47090(4) 0.28238(4)
C42 C 0.65280(5) 0.46786(5) 0.22912(4)
C43 C 0.65196(6) 0.46438(6) 0.19112(4)
H25 H 0.6278 0.4621 0.1779
C44 C 0.68556(7) 0.46431(8) 0.17316(5)
H26 H 0.6848 0.4622 0.1475
C45 C 0.72130(8) 0.46733(10) 0.19214(6)
H27 H 0.7447 0.4677 0.1792
C46 C 0.72261(7) 0.46971(9) 0.22902(5)
H28 H 0.7467 0.4714 0.2417
C47 C 0.68824(5) 0.46970(6) 0.24824(4)
C48 C 0.65752(5) 0.47296(5) 0.30213(4)
C49 C 0.66291(4) 0.47840(5) 0.34214(4)
C50 C 0.68136(5) 0.45747(5) 0.36114(4)
H29 H 0.6866 0.4368 0.3491
C51 C 0.69217(5) 0.46653(5) 0.39739(4)
H30 H 0.7048 0.4521 0.4099
C52 C 0.68472(5) 0.49659(5) 0.41584(4)
C53 C 0.66403(5) 0.51556(5) 0.39732(4)
H31 H 0.6568 0.5345 0.4098
C54 C 0.65388(4) 0.50711(5) 0.36086(4)
H32 H 0.6406 0.5211 0.3485
C55 C 0.69806(5) 0.50629(5) 0.45461(4)
C56 C 0.71331(4) 0.54861(5) 0.47118(4)
N9 N 0.39811(4) 0.32442(4) 0.44286(3)
N10 N 0.37705(4) 0.33043(5) 0.51517(3)
N11 N 0.11280(4) 0.16276(4) 0.58331(3)
N12 N 0.18362(4) 0.14726(4) 0.58482(3)
N13 N 0.16035(4) 0.35461(4) 0.48394(3)
N14 N 0.16199(4) 0.34373(4) 0.40857(3)
N15 N 0.15570(4) 0.15918(4) 0.33473(3)
N16 N 0.22333(4) 0.14153(4) 0.34954(4)
C57 C 0.42701(5) 0.35737(6) 0.46447(4)
C58 C 0.46791(6) 0.38881(7) 0.45057(5)
H33 H 0.4758 0.3862 0.4265
C59 C 0.49621(7) 0.42310(9) 0.47165(6)
H34 H 0.5238 0.4442 0.4621
C60 C 0.48492(7) 0.42746(9) 0.50737(6)
H35 H 0.5047 0.4517 0.5216
C61 C 0.44563(7) 0.39698(8) 0.52164(5)
H36 H 0.4383 0.4001 0.5458
C62 C 0.41594(5) 0.36094(6) 0.50063(4)
C63 C 0.34951(5) 0.29818(5) 0.49436(4)
C64 C 0.36026(5) 0.29542(5) 0.45692(4)
C65 C 0.32840(4) 0.26248(5) 0.43154(3)
C66 C 0.30846(5) 0.21768(5) 0.43743(4)
H37 H 0.3176 0.2068 0.4570
C67 C 0.27527(5) 0.18898(5) 0.41481(4)
H38 H 0.2623 0.1584 0.4185
C68 C 0.26085(5) 0.20481(5) 0.38655(4)
C69 C 0.28266(5) 0.24950(5) 0.37938(4)
H39 H 0.2742 0.2604 0.3593
C70 C 0.31637(5) 0.27786(5) 0.40132(4)
H40 H 0.3316 0.3082 0.3959
C71 C 0.22236(5) 0.17484(5) 0.36459(4)
C72 C 0.19071(5) 0.11628(5) 0.32570(4)
C73 C 0.19128(6) 0.08122(5) 0.30790(5)
H41 H 0.2130 0.0739 0.3137
C74 C 0.16039(7) 0.05787(6) 0.28232(6)
H42 H 0.1606 0.0340 0.2706
C75 C 0.12846(7) 0.06854(6) 0.27307(5)
H43 H 0.1075 0.0522 0.2549
C76 C 0.12729(6) 0.10224(6) 0.28994(5)
H44 H 0.1057 0.1095 0.2834
C77 C 0.15823(5) 0.12641(5) 0.31714(4)
C78 C 0.18634(5) 0.18255(5) 0.35877(4)
C79 C 0.18079(5) 0.21631(5) 0.37858(4)
C80 C 0.15802(5) 0.23454(5) 0.36228(4)
H45 H 0.1463 0.2251 0.3387
C81 C 0.15204(5) 0.26579(5) 0.37940(4)
H46 H 0.1366 0.2777 0.3674
C82 C 0.16843(5) 0.28024(5) 0.41431(4)
C83 C 0.19063(5) 0.26161(5) 0.43092(4)
H47 H 0.2022 0.2708 0.4546
C84 C 0.19617(5) 0.23002(5) 0.41371(4)
H48 H 0.2107 0.2174 0.4260
C85 C 0.16303(4) 0.31550(5) 0.43119(4)
C86 C 0.15575(5) 0.40745(5) 0.39947(5)
H49 H 0.1543 0.4030 0.3740
C87 C 0.15440(6) 0.44265(6) 0.41349(5)
H50 H 0.1526 0.4628 0.3976
C88 C 0.15571(6) 0.44913(6) 0.45096(5)
H51 H 0.1544 0.4735 0.4603
C89 C 0.15882(6) 0.42082(5) 0.47433(5)
H52 H 0.1599 0.4256 0.4997
C90 C 0.16047(5) 0.38448(5) 0.46070(4)
C91 C 0.15998(4) 0.32022(5) 0.46997(4)
C92 C 0.15532(4) 0.28664(5) 0.49629(4)
C93 C 0.18367(4) 0.29837(5) 0.52575(4)
H53 H 0.2045 0.3282 0.5298
C94 C 0.18161(4) 0.26695(4) 0.54904(4)
H54 H 0.2015 0.2750 0.5687
C95 C 0.15027(4) 0.22331(4) 0.54369(4)
C96 C 0.11969(4) 0.21201(5) 0.51594(4)
H55 H 0.0968 0.1826 0.5135
C97 C 0.12250(4) 0.24316(5) 0.49204(4)
H56 H 0.1022 0.2351 0.4727
C98 C 0.14935(4) 0.18798(4) 0.56572(4)
C99 C 0.11046(5) 0.12895(5) 0.60278(4)
C100 C 0.07203(6) 0.10154(6) 0.62246(5)
H57 H 0.0483 0.1069 0.6222
C101 C 0.06919(6) 0.06743(6) 0.64176(5)
H58 H 0.0434 0.0492 0.6551
C102 C 0.10390(6) 0.05904(6) 0.64212(5)
H59 H 0.1013 0.0349 0.6555
C103 C 0.14143(6) 0.08512(5) 0.62340(5)
H60 H 0.1647 0.0791 0.6239
C104 C 0.14565(5) 0.12095(5) 0.60342(4)
C105 C 0.18581(4) 0.18003(4) 0.56640(4)
C106 C 0.22745(4) 0.20900(5) 0.54667(4)
C107 C 0.26749(5) 0.22315(5) 0.56387(4)
H61 H 0.2681 0.2129 0.5875
C108 C 0.30635(5) 0.25195(5) 0.54696(4)
H62 H 0.3331 0.2622 0.5597
C109 C 0.30701(5) 0.26625(5) 0.51153(4)
C110 C 0.26705(5) 0.25104(5) 0.49405(4)
H63 H 0.2665 0.2600 0.4699
C111 C 0.22815(5) 0.22308(5) 0.51123(4)
H64 H 0.2014 0.2133 0.4987
C112 C 0.15936(5) 0.37798(5) 0.42281(4)
loop_
_geom_bond_atom_site_label_1
_geom_bond_atom_site_label_2
_geom_bond_site_symmetry_1
_geom_bond_site_symmetry_2
N1 C1 1_555 1_555
N2 C6 1_555 1_555
N3 C13 1_555 1_555
N4 C19 1_555 1_555
N5 C27 1_555 1_555
N6 C33 1_555 1_555
N7 C41 1_555 1_555
N8 C47 1_555 1_555
C1 C2 1_555 1_555
C2 H1 1_555 1_555
C3 C2 1_555 1_555
H2 C3 1_555 1_555
C4 C3 1_555 1_555
H3 C4 1_555 1_555
C5 C4 1_555 1_555
H4 C5 1_555 1_555
C6 C1 1_555 1_555
C7 C8 1_555 1_555
C8 H5 1_555 1_555
C9 C8 1_555 1_555
H6 C9 1_555 1_555
C10 C9 1_555 1_555
C11 C10 1_555 1_555
H7 C11 1_555 1_555
C12 C7 1_555 1_555
H8 C12 1_555 1_555
C13 C10 1_555 1_555
C14 N3 1_555 1_555
C15 C14 1_555 1_555
H9 C15 1_555 1_555
C16 C15 1_555 1_555
H10 C16 1_555 1_555
C17 C16 1_555 1_555
H11 C17 1_555 1_555
C18 C17 1_555 1_555
H12 C18 1_555 1_555
C19 C14 1_555 1_555
C20 N4 1_555 1_555
C21 C20 1_555 1_555
C22 C21 1_555 1_555
H13 C22 1_555 1_555
C23 C22 1_555 1_555
H14 C23 1_555 1_555
C24 C23 1_555 1_555
C25 C24 1_555 1_555
H15 C25 1_555 1_555
C26 C21 1_555 1_555
H16 C26 1_555 1_555
C27 C24 1_555 1_555
C28 N5 1_555 1_555
C29 C28 1_555 1_555
H17 C29 1_555 1_555
C30 C29 1_555 1_555
H18 C30 1_555 1_555
C31 C30 1_555 1_555
H19 C31 1_555 1_555
C32 C31 1_555 1_555
H20 C32 1_555 1_555
C33 C28 1_555 1_555
C34 N6 1_555 1_555
C35 C34 1_555 1_555
C36 C35 1_555 1_555
H21 C36 1_555 1_555
C37 C36 1_555 1_555
H22 C37 1_555 1_555
C38 C37 1_555 1_555
C39 C38 1_555 1_555
H23 C39 1_555 1_555
C40 C35 1_555 1_555
H24 C40 1_555 1_555
C41 C38 1_555 1_555
C42 N7 1_555 1_555
C43 C42 1_555 1_555
H25 C43 1_555 1_555
C44 C43 1_555 1_555
H26 C44 1_555 1_555
C45 C44 1_555 1_555
H27 C45 1_555 1_555
C46 C45 1_555 1_555
H28 C46 1_555 1_555
C47 C42 1_555 1_555
C48 N8 1_555 1_555
C49 C48 1_555 1_555
C50 C49 1_555 1_555
H29 C50 1_555 1_555
C51 C50 1_555 1_555
H30 C51 1_555 1_555
C52 C51 1_555 1_555
C53 C52 1_555 1_555
H31 C53 1_555 1_555
C54 C49 1_555 1_555
H32 C54 1_555 1_555
C55 N1 1_555 1_555
C56 N2 1_555 1_555
N9 C57 1_555 1_555
N10 C62 1_555 1_555
N11 C98 1_555 1_555
N12 C104 1_555 1_555
N13 C90 1_555 1_555
N14 C85 1_555 1_555
N15 C77 1_555 1_555
N16 C71 1_555 1_555
C57 C58 1_555 1_555
C58 H33 1_555 1_555
C59 C58 1_555 1_555
H34 C59 1_555 1_555
C60 C59 1_555 1_555
H35 C60 1_555 1_555
C61 C60 1_555 1_555
H36 C61 1_555 1_555
C62 C57 1_555 1_555
C63 N10 1_555 1_555
C64 N9 1_555 1_555
C65 C64 1_555 1_555
C66 C65 1_555 1_555
H37 C66 1_555 1_555
C67 C66 1_555 1_555
H38 C67 1_555 1_555
C68 C67 1_555 1_555
C69 C68 1_555 1_555
H39 C69 1_555 1_555
C70 C65 1_555 1_555
H40 C70 1_555 1_555
C71 C68 1_555 1_555
C72 N16 1_555 1_555
C73 C72 1_555 1_555
H41 C73 1_555 1_555
C74 C73 1_555 1_555
H42 C74 1_555 1_555
C75 C74 1_555 1_555
H43 C75 1_555 1_555
C76 C75 1_555 1_555
H44 C76 1_555 1_555
C77 C72 1_555 1_555
C78 N15 1_555 1_555
C79 C78 1_555 1_555
C80 C79 1_555 1_555
H45 C80 1_555 1_555
C81 C80 1_555 1_555
H46 C81 1_555 1_555
C82 C81 1_555 1_555
C83 C82 1_555 1_555
H47 C83 1_555 1_555
C84 C79 1_555 1_555
H48 C84 1_555 1_555
C85 C82 1_555 1_555
C86 H49 1_555 1_555
C87 C86 1_555 1_555
H50 C87 1_555 1_555
C88 C87 1_555 1_555
H51 C88 1_555 1_555
C89 C88 1_555 1_555
H52 C89 1_555 1_555
C90 C89 1_555 1_555
C91 N13 1_555 1_555
C92 C91 1_555 1_555
C93 C92 1_555 1_555
H53 C93 1_555 1_555
C94 C93 1_555 1_555
H54 C94 1_555 1_555
C95 C94 1_555 1_555
C96 C95 1_555 1_555
H55 C96 1_555 1_555
C97 C92 1_555 1_555
H56 C97 1_555 1_555
C98 C95 1_555 1_555
C99 N11 1_555 1_555
C100 C99 1_555 1_555
H57 C100 1_555 1_555
C101 C100 1_555 1_555
H58 C101 1_555 1_555
C102 C101 1_555 1_555
H59 C102 1_555 1_555
C103 C102 1_555 1_555
H60 C103 1_555 1_555
C104 C99 1_555 1_555
C105 N12 1_555 1_555
C106 C105 1_555 1_555
C107 C106 1_555 1_555
H61 C107 1_555 1_555
C108 C107 1_555 1_555
H62 C108 1_555 1_555
C109 C63 1_555 1_555
C110 C109 1_555 1_555
H63 C110 1_555 1_555
C111 C106 1_555 1_555
H64 C111 1_555 1_555
C112 N14 1_555 1_555
C5 C6 1_555 1_555
C7 C56 1_555 1_555
C11 C12 1_555 1_555
C13 C20 1_555 1_555
C18 C19 1_555 1_555
C25 C26 1_555 1_555
C27 C34 1_555 1_555
C32 C33 1_555 1_555
C39 C40 1_555 1_555
C41 C48 1_555 1_555
C46 C47 1_555 1_555
C52 C55 1_555 1_555
C53 C54 1_555 1_555
C55 C56 1_555 1_555
C61 C62 1_555 1_555
C63 C64 1_555 1_555
C69 C70 1_555 1_555
C71 C78 1_555 1_555
C76 C77 1_555 1_555
C83 C84 1_555 1_555
C85 C91 1_555 1_555
C86 C112 1_555 1_555
C90 C112 1_555 1_555
C96 C97 1_555 1_555
C98 C105 1_555 1_555
C103 C104 1_555 1_555
C108 C109 1_555 1_555
C110 C111 1_555 1_555

#END
