
#######################################################################
#
#                 Cambridge Crystallographic Data Centre
#                                CCDC 
#
#######################################################################
#
# If this CIF has been generated from an entry in the Cambridge 
# Structural Database, then it will include bibliographic, chemical, 
# crystal, experimental, refinement or atomic coordinate data resulting 
# from the CCDC's data processing and validation procedures.
#
#######################################################################

data_VAYMAM
_chemical_formula_moiety         'C56 H28 F4 N8,2(C2 H4 Cl2)'
_chemical_name_systematic        
'2^7^,4^7^,6^7^,8^6^-Tetrafluoro-2,4,6,8(2,3)-tetraquinoxalina-1,3,5,7(1,4)-tetrabenzaenacyclooctaphane 1,2-dichloroethane solvate'
_symmetry_cell_setting           orthorhombic
_symmetry_space_group_name_H-M   'P n a 21'
_symmetry_Int_Tables_number      33
_space_group_name_Hall           'P 2c -2n'
loop_
_symmetry_equiv_pos_site_id
_symmetry_equiv_pos_as_xyz
1 x,y,z
2 -x,-y,1/2+z
3 1/2+x,1/2-y,z
4 1/2-x,1/2+y,1/2+z
_cell_length_a                   20.0524(4)
_cell_length_b                   9.2012(2)
_cell_length_c                   26.6247(5)
_cell_angle_alpha                90
_cell_angle_beta                 90
_cell_angle_gamma                90
_cell_volume                     4912.42
_exptl_crystal_colour            yellow
_exptl_crystal_description       PLATE
_cell_formula_units_Z            4
loop_
_atom_site_label
_atom_site_type_symbol
_atom_site_fract_x
_atom_site_fract_y
_atom_site_fract_z
Cl1 Cl 0.03347(12) 0.7514(2) 0.71514(8)
Cl2 Cl -0.14711(10) 0.52856(18) 0.66955(6)
C1 C -0.0198(3) 0.6311(5) 0.68268(18)
H1 H -0.0138 0.6442 0.6460
H2 H -0.0078 0.5296 0.6911
C2 C -0.0936(3) 0.6592(6) 0.6968(3)
H3 H -0.1067 0.7573 0.6852
H4 H -0.0984 0.6564 0.7338
Cl3 Cl -0.07289(8) 0.62219(19) 0.52685(6)
Cl4 Cl 0.04321(6) 0.68780(17) 0.43579(6)
C3 C -0.0175(3) 0.8103(5) 0.4584(2)
H5 H 0.0005 0.8621 0.4881
H6 H -0.0271 0.8836 0.4321
C4 C -0.0831(3) 0.7329(6) 0.47324(17)
H7 H -0.0985 0.6722 0.4448
H8 H -0.1179 0.8067 0.4801
F1 F 0.7476(3) -0.1032(5) 0.78595(18)
F2 F 0.7681(3) 1.1063(5) 0.2610(2)
F3 F 0.3931(3) -0.4711(6) 0.2424(2)
F4 F 0.1356(4) 0.7892(9) 0.6348(3)
N1 N 0.62340(17) 0.1589(4) 0.66724(12)
N2 N 0.74221(17) 0.2667(4) 0.62564(12)
N3 N 0.33484(17) 0.5492(4) 0.59491(13)
N4 N 0.26916(17) 0.4320(4) 0.51101(14)
N5 N 0.41661(16) -0.0660(4) 0.35007(13)
N6 N 0.54088(15) -0.0088(4) 0.30597(12)
N7 N 0.67205(16) 0.6871(3) 0.33500(12)
N8 N 0.73835(16) 0.7563(4) 0.42465(12)
C5 C 0.7463(3) -0.0157(5) 0.74593(17)
C6 C 0.8055(2) 0.0410(5) 0.72725(16)
C7 C 0.8050(2) 0.1371(5) 0.68842(15)
H9 H 0.8456 0.1763 0.6760
C8 C 0.7432(2) 0.1783(4) 0.66662(14)
C9 C 0.6833(2) 0.1191(4) 0.68603(15)
C10 C 0.6857(2) 0.0195(5) 0.72667(16)
H10 H 0.6460 -0.0214 0.7400
C11 C 0.62291(19) 0.2520(4) 0.62938(14)
C12 C 0.55520(19) 0.3038(4) 0.61389(14)
C13 C 0.5416(2) 0.4509(4) 0.61012(15)
H11 H 0.5756 0.5198 0.6171
C14 C 0.4785(2) 0.4985(4) 0.59618(15)
H12 H 0.4690 0.5995 0.5949
C15 C 0.42965(18) 0.3984(4) 0.58422(14)
C16 C 0.4420(2) 0.2500(4) 0.58985(15)
H13 H 0.4076 0.1813 0.5834
C17 C 0.5047(2) 0.2033(4) 0.60493(15)
H14 H 0.5132 0.1025 0.6091
C18 C 0.36321(19) 0.4507(4) 0.56624(15)
C19 C 0.2706(2) 0.5868(5) 0.58432(17)
C20 C 0.2376(3) 0.6842(5) 0.6173(2)
H15 H 0.2609 0.7291 0.6443
C21 C 0.1717(3) 0.7116(6) 0.6093(2)
C22 C 0.1385(3) 0.6501(6) 0.5694(3)
C23 C 0.1696(2) 0.5582(6) 0.5345(2)
H16 H 0.1462 0.5200 0.5064
C24 C 0.2374(2) 0.5251(5) 0.54323(19)
C25 C 0.33137(18) 0.3951(4) 0.52165(15)
C26 C 0.36525(19) 0.3023(4) 0.48356(15)
C27 C 0.32632(19) 0.2132(5) 0.45261(16)
H17 H 0.2795 0.2081 0.4580
C28 C 0.35484(19) 0.1323(4) 0.41427(16)
H18 H 0.3272 0.0726 0.3939
C29 C 0.42382(19) 0.1371(4) 0.40498(15)
C30 C 0.46267(19) 0.2219(4) 0.43750(15)
H19 H 0.5097 0.2229 0.4335
C31 C 0.43404(18) 0.3040(4) 0.47530(15)
H20 H 0.4617 0.3627 0.4960
C32 C 0.45213(18) 0.0494(4) 0.36330(15)
C33 C 0.4420(2) -0.1549(4) 0.31379(16)
C34 C 0.4043(2) -0.2755(5) 0.29751(19)
H21 H 0.3612 -0.2934 0.3109
C35 C 0.4308(2) -0.3658(5) 0.26225(19)
C36 C 0.4947(2) -0.3429(4) 0.24212(17)
C37 C 0.5318(2) -0.2265(4) 0.25701(16)
H22 H 0.5749 -0.2108 0.2433
C38 C 0.5055(2) -0.1296(4) 0.29308(15)
C39 C 0.51454(18) 0.0822(4) 0.33845(14)
C40 C 0.55413(18) 0.2167(4) 0.34726(14)
C41 C 0.62076(19) 0.2049(4) 0.36125(14)
H23 H 0.6408 0.1118 0.3643
C42 C 0.65764(18) 0.3284(4) 0.37068(15)
H24 H 0.7029 0.3198 0.3809
C43 C 0.62920(18) 0.4658(4) 0.36540(13)
C44 C 0.56385(19) 0.4778(4) 0.34887(14)
H25 H 0.5452 0.5711 0.3431
C45 C 0.52560(19) 0.3543(4) 0.34075(14)
H26 H 0.4803 0.3631 0.3308
C46 C 0.66856(17) 0.6014(4) 0.37436(14)
C47 C 0.71080(18) 0.8084(4) 0.33840(15)
C48 C 0.7179(2) 0.8987(4) 0.29615(16)
H27 H 0.6944 0.8777 0.2660
C49 C 0.7589(2) 1.0170(4) 0.29885(17)
C50 C 0.7930(2) 1.0498(5) 0.34287(18)
C51 C 0.7867(2) 0.9658(5) 0.38482(17)
H28 H 0.8101 0.9903 0.4147
C52 C 0.74497(18) 0.8413(4) 0.38340(15)
C53 C 0.70017(17) 0.6383(4) 0.42149(13)
C54 C 0.69326(18) 0.5525(4) 0.46869(14)
C55 C 0.74180(18) 0.5644(4) 0.50598(15)
H29 H 0.7783 0.6286 0.5010
C56 C 0.73826(18) 0.4849(4) 0.55021(14)
H30 H 0.7723 0.4956 0.5748
C57 C 0.68544(18) 0.3898(4) 0.55905(13)
C58 C 0.63671(19) 0.3778(4) 0.52187(15)
H31 H 0.6005 0.3127 0.5268
C59 C 0.63970(19) 0.4588(4) 0.47784(14)
H32 H 0.6050 0.4505 0.4537
C60 C 0.68374(19) 0.3009(4) 0.60647(14)
F5? F 0.8642(4) -0.0132(9) 0.7430(3)
F6? F 0.8386(3) 1.1511(6) 0.3381(2)
F7? F 0.5202(4) -0.4388(7) 0.2130(3)
F8? F 0.0747(3) 0.6859(7) 0.5668(2)
loop_
_geom_bond_atom_site_label_1
_geom_bond_atom_site_label_2
_geom_bond_site_symmetry_1
_geom_bond_site_symmetry_2
Cl1 C1 1_555 1_555
Cl2 C2 1_555 1_555
C1 H1 1_555 1_555
H2 C1 1_555 1_555
C2 C1 1_555 1_555
H3 C2 1_555 1_555
H4 C2 1_555 1_555
Cl3 C4 1_555 1_555
Cl4 C3 1_555 1_555
C3 H5 1_555 1_555
H6 C3 1_555 1_555
C4 C3 1_555 1_555
H7 C4 1_555 1_555
H8 C4 1_555 1_555
F1 C5 1_555 1_555
F2 C49 1_555 1_555
F3 C35 1_555 1_555
F4 C21 1_555 1_555
N1 C9 1_555 1_555
N2 C8 1_555 1_555
N3 C18 1_555 1_555
N4 C24 1_555 1_555
N5 C32 1_555 1_555
N6 C38 1_555 1_555
N7 C46 1_555 1_555
N8 C52 1_555 1_555
C5 C6 1_555 1_555
C6 C7 1_555 1_555
C7 H9 1_555 1_555
C8 C7 1_555 1_555
C9 C8 1_555 1_555
C10 C5 1_555 1_555
H10 C10 1_555 1_555
C11 N1 1_555 1_555
C12 C11 1_555 1_555
C13 C12 1_555 1_555
H11 C13 1_555 1_555
C14 C13 1_555 1_555
H12 C14 1_555 1_555
C15 C14 1_555 1_555
C16 C15 1_555 1_555
H13 C16 1_555 1_555
C17 C12 1_555 1_555
H14 C17 1_555 1_555
C18 C15 1_555 1_555
C19 N3 1_555 1_555
C20 C19 1_555 1_555
H15 C20 1_555 1_555
C21 C20 1_555 1_555
C22 C21 1_555 1_555
C23 C22 1_555 1_555
H16 C23 1_555 1_555
C24 C19 1_555 1_555
C25 N4 1_555 1_555
C26 C25 1_555 1_555
C27 C26 1_555 1_555
H17 C27 1_555 1_555
C28 C27 1_555 1_555
H18 C28 1_555 1_555
C29 C28 1_555 1_555
C30 C29 1_555 1_555
H19 C30 1_555 1_555
C31 C26 1_555 1_555
H20 C31 1_555 1_555
C32 C29 1_555 1_555
C33 N5 1_555 1_555
C34 C33 1_555 1_555
H21 C34 1_555 1_555
C35 C34 1_555 1_555
C36 C35 1_555 1_555
C37 C36 1_555 1_555
H22 C37 1_555 1_555
C38 C33 1_555 1_555
C39 N6 1_555 1_555
C40 C39 1_555 1_555
C41 C40 1_555 1_555
H23 C41 1_555 1_555
C42 C41 1_555 1_555
H24 C42 1_555 1_555
C43 C42 1_555 1_555
C44 C43 1_555 1_555
H25 C44 1_555 1_555
C45 C40 1_555 1_555
H26 C45 1_555 1_555
C46 C43 1_555 1_555
C47 N7 1_555 1_555
C48 C47 1_555 1_555
H27 C48 1_555 1_555
C49 C48 1_555 1_555
C50 C49 1_555 1_555
C51 C50 1_555 1_555
H28 C51 1_555 1_555
C52 C47 1_555 1_555
C53 N8 1_555 1_555
C54 C53 1_555 1_555
C55 C54 1_555 1_555
H29 C55 1_555 1_555
C56 C55 1_555 1_555
H30 C56 1_555 1_555
C57 C56 1_555 1_555
C58 C57 1_555 1_555
H31 C58 1_555 1_555
C59 C54 1_555 1_555
H32 C59 1_555 1_555
C60 N2 1_555 1_555
C9 C10 1_555 1_555
C11 C60 1_555 1_555
C16 C17 1_555 1_555
C18 C25 1_555 1_555
C23 C24 1_555 1_555
C30 C31 1_555 1_555
C32 C39 1_555 1_555
C37 C38 1_555 1_555
C44 C45 1_555 1_555
C46 C53 1_555 1_555
C51 C52 1_555 1_555
C57 C60 1_555 1_555
C58 C59 1_555 1_555

#END
