
#######################################################################
#
#                 Cambridge Crystallographic Data Centre
#                                CCDC 
#
#######################################################################
#
# If this CIF has been generated from an entry in the Cambridge 
# Structural Database, then it will include bibliographic, chemical, 
# crystal, experimental, refinement or atomic coordinate data resulting 
# from the CCDC's data processing and validation procedures.
#
#######################################################################

data_VAYQAQ
_chemical_formula_moiety         'C18 H19 N1 O1'
_chemical_name_systematic        
2-((4-ethylphenyl)amino)-2-phenylbut-3-yn-1-ol
_symmetry_cell_setting           tetragonal
_symmetry_space_group_name_H-M   'I 4'
_symmetry_Int_Tables_number      79
_space_group_name_Hall           'I 4'
loop_
_symmetry_equiv_pos_site_id
_symmetry_equiv_pos_as_xyz
1 x,y,z
2 -x,-y,z
3 -y,x,z
4 y,-x,z
5 1/2+x,1/2+y,1/2+z
6 1/2-x,1/2-y,1/2+z
7 1/2-y,1/2+x,1/2+z
8 1/2+y,1/2-x,1/2+z
_cell_length_a                   22.607(2)
_cell_length_b                   22.607(2)
_cell_length_c                   6.0161(11)
_cell_angle_alpha                90
_cell_angle_beta                 90
_cell_angle_gamma                90
_cell_volume                     3074.69
_exptl_crystal_colour            white
_exptl_crystal_description       Block
_cell_formula_units_Z            8
_exptl_crystal_recrystallization_method Hexane/dichloromethane
loop_
_atom_site_label
_atom_site_type_symbol
_atom_site_fract_x
_atom_site_fract_y
_atom_site_fract_z
N1 N 0.34384(11) 0.60613(11) 0.6008(5)
H1 H 0.3564 0.6077 0.7356
C1 C 0.3802(2) 0.70922(16) 0.1331(8)
H2 H 0.4044 0.6860 0.0439
C2 C 0.3626(3) 0.7666(2) 0.0638(10)
H3 H 0.3756 0.7812 -0.0722
C3 C 0.3273(3) 0.8003(2) 0.1921(13)
H4 H 0.3164 0.8379 0.1449
C4 C 0.3079(2) 0.7797(2) 0.3872(13)
H5 H 0.2831 0.8031 0.4736
C5 C 0.32405(15) 0.72459(16) 0.4623(8)
H6 H 0.3103 0.7114 0.5993
C6 C 0.36029(13) 0.68871(13) 0.3372(6)
C7 C 0.38157(12) 0.62960(12) 0.4272(5)
C8 C 0.44287(12) 0.64146(14) 0.5360(6)
H7 H 0.4698 0.6571 0.4251
H8 H 0.4386 0.6708 0.6524
C9 C 0.39058(12) 0.58510(13) 0.2474(5)
C10 C 0.40052(14) 0.54902(13) 0.1099(6)
H9 H 0.4079 0.5178 -0.0028
C11 C 0.28813(12) 0.58108(13) 0.5626(6)
C12 C 0.26149(15) 0.54940(14) 0.7336(7)
H10 H 0.2806 0.5456 0.8697
C13 C 0.20660(19) 0.52356(19) 0.7019(9)
H11 H 0.1894 0.5027 0.8185
C14 C 0.17653(19) 0.5278(2) 0.5020(10)
C15 C 0.20341(16) 0.56077(19) 0.3354(9)
H12 H 0.1836 0.5656 0.2011
C16 C 0.25809(14) 0.58655(15) 0.3610(7)
H13 H 0.2750 0.6076 0.2443
C17 C 0.1154(3) 0.5022(3) 0.4669(18)
H14 H 0.0903 0.5132 0.5910
H15 H 0.0983 0.5190 0.3329
C18 C 0.1169(5) 0.4360(5) 0.447(3)
H16 H 0.0774 0.4214 0.4254
H17 H 0.1333 0.4193 0.5797
H18 H 0.1409 0.4251 0.3216
O1 O 0.46700(9) 0.58859(12) 0.6277(5)
H19 H 0.5023 0.5865 0.5973
loop_
_geom_bond_atom_site_label_1
_geom_bond_atom_site_label_2
_geom_bond_site_symmetry_1
_geom_bond_site_symmetry_2
N1 H1 1_555 1_555
C1 H2 1_555 1_555
C2 C1 1_555 1_555
H3 C2 1_555 1_555
C3 C2 1_555 1_555
H4 C3 1_555 1_555
C4 C3 1_555 1_555
H5 C4 1_555 1_555
C5 C4 1_555 1_555
H6 C5 1_555 1_555
C6 C1 1_555 1_555
C7 N1 1_555 1_555
C8 C7 1_555 1_555
H7 C8 1_555 1_555
H8 C8 1_555 1_555
C9 C7 1_555 1_555
C10 C9 1_555 1_555
H9 C10 1_555 1_555
C11 N1 1_555 1_555
C12 C11 1_555 1_555
H10 C12 1_555 1_555
C13 C12 1_555 1_555
H11 C13 1_555 1_555
C14 C13 1_555 1_555
C15 C14 1_555 1_555
H12 C15 1_555 1_555
C16 C11 1_555 1_555
H13 C16 1_555 1_555
C17 C14 1_555 1_555
H14 C17 1_555 1_555
H15 C17 1_555 1_555
C18 C17 1_555 1_555
H16 C18 1_555 1_555
H17 C18 1_555 1_555
H18 C18 1_555 1_555
O1 C8 1_555 1_555
H19 O1 1_555 1_555
C5 C6 1_555 1_555
C6 C7 1_555 1_555
C15 C16 1_555 1_555

#END
