
#######################################################################
#
#                 Cambridge Crystallographic Data Centre
#                                CCDC 
#
#######################################################################
#
# If this CIF has been generated from an entry in the Cambridge 
# Structural Database, then it will include bibliographic, chemical, 
# crystal, experimental, refinement or atomic coordinate data resulting 
# from the CCDC's data processing and validation procedures.
#
#######################################################################

data_VAYXEZ
_chemical_formula_moiety         'C19 H19 Cl2 N3 O2'
_chemical_name_systematic        
'r-2,c-6-bis(4-chlorophenyl)-t-3,t-5-dimethyl-N-nitroso-piperidin-4-one oxime'
_symmetry_cell_setting           monoclinic
_symmetry_space_group_name_H-M   'P 21/n'
_symmetry_Int_Tables_number      14
_space_group_name_Hall           '-P 2yn'
loop_
_symmetry_equiv_pos_site_id
_symmetry_equiv_pos_as_xyz
1 x,y,z
2 1/2-x,1/2+y,1/2-z
3 -x,-y,-z
4 1/2+x,1/2-y,1/2+z
_cell_length_a                   12.3909(9)
_cell_length_b                   11.1670(8)
_cell_length_c                   14.1980(10)
_cell_angle_alpha                90
_cell_angle_beta                 100.9910(10)
_cell_angle_gamma                90
_cell_volume                     1928.53
_exptl_crystal_colour            colorless
_exptl_crystal_description       Needle
_chemical_melting_point          '459-461 K'
_cell_formula_units_Z            4
_exptl_crystal_recrystallization_method ethanol
loop_
_atom_site_label
_atom_site_type_symbol
_atom_site_fract_x
_atom_site_fract_y
_atom_site_fract_z
Cl1 Cl 0.75874(7) -0.30724(6) 0.30517(5)
Cl2 Cl 1.04886(5) 0.35945(7) 0.19318(4)
N1 N 0.86006(12) 0.18894(13) 0.58023(10)
N2 N 0.92112(15) 0.13152(17) 0.65397(13)
N3 N 0.60631(14) 0.42494(14) 0.50834(14)
O1 O 0.88367(15) 0.03513(16) 0.67278(12)
O2 O 0.62320(13) 0.53605(13) 0.55611(15)
H1 H 0.5642 0.5708 0.5520
C1 C 0.89272(15) 0.31386(16) 0.56788(13)
H2 H 0.9563 0.3300 0.6189
C2 C 0.79911(15) 0.39422(17) 0.58746(14)
H3 H 0.8165 0.4775 0.5745
C3 C 0.69252(15) 0.36040(16) 0.52208(14)
C4 C 0.68698(14) 0.24125(16) 0.47021(13)
H4 H 0.7243 0.2519 0.4159
C5 C 0.75057(14) 0.14355(16) 0.53500(13)
H5 H 0.7099 0.1264 0.5863
C6 C 0.57001(16) 0.20108(19) 0.42901(17)
H6 H 0.5295 0.1933 0.4800
H7 H 0.5718 0.1252 0.3975
H8 H 0.5350 0.2594 0.3836
C7 C 0.7874(2) 0.3838(2) 0.69269(16)
H9 H 0.7318 0.4383 0.7050
H10 H 0.8562 0.4030 0.7335
H11 H 0.7667 0.3034 0.7054
C8 C 0.75793(14) 0.02809(16) 0.48013(13)
C9 C 0.70925(17) -0.07551(18) 0.50524(16)
H12 H 0.6757 -0.0755 0.5585
C10 C 0.70990(19) -0.17940(18) 0.45203(18)
H13 H 0.6770 -0.2489 0.4691
C11 C 0.75969(18) -0.17804(18) 0.37402(16)
C12 C 0.81062(17) -0.07755(19) 0.34785(14)
H14 H 0.8450 -0.0786 0.2950
C13 C 0.80954(16) 0.02530(17) 0.40210(13)
H15 H 0.8443 0.0939 0.3857
C14 C 0.93121(13) 0.33025(16) 0.47385(13)
C15 C 0.89679(15) 0.42333(16) 0.41039(14)
H16 H 0.8478 0.4799 0.4256
C16 C 0.93410(15) 0.43330(17) 0.32523(15)
H17 H 0.9104 0.4960 0.2833
C17 C 1.00638(15) 0.35009(18) 0.30288(14)
C18 C 1.04423(16) 0.25818(19) 0.36485(16)
H18 H 1.0944 0.2029 0.3496
C19 C 1.00686(15) 0.24930(18) 0.44946(15)
H19 H 1.0327 0.1875 0.4917
loop_
_geom_bond_atom_site_label_1
_geom_bond_atom_site_label_2
_geom_bond_site_symmetry_1
_geom_bond_site_symmetry_2
Cl1 C11 1_555 1_555
Cl2 C17 1_555 1_555
N1 N2 1_555 1_555
N2 O1 1_555 1_555
N3 O2 1_555 1_555
O2 H1 1_555 1_555
C1 N1 1_555 1_555
H2 C1 1_555 1_555
C2 C1 1_555 1_555
H3 C2 1_555 1_555
C3 N3 1_555 1_555
C4 C3 1_555 1_555
H4 C4 1_555 1_555
C5 N1 1_555 1_555
H5 C5 1_555 1_555
C6 C4 1_555 1_555
H6 C6 1_555 1_555
H7 C6 1_555 1_555
H8 C6 1_555 1_555
C7 C2 1_555 1_555
H9 C7 1_555 1_555
H10 C7 1_555 1_555
H11 C7 1_555 1_555
C8 C5 1_555 1_555
C9 C8 1_555 1_555
H12 C9 1_555 1_555
C10 C9 1_555 1_555
H13 C10 1_555 1_555
C11 C10 1_555 1_555
C12 C11 1_555 1_555
H14 C12 1_555 1_555
C13 C8 1_555 1_555
H15 C13 1_555 1_555
C14 C1 1_555 1_555
C15 C14 1_555 1_555
H16 C15 1_555 1_555
C16 C15 1_555 1_555
H17 C16 1_555 1_555
C17 C16 1_555 1_555
C18 C17 1_555 1_555
H18 C18 1_555 1_555
C19 C14 1_555 1_555
H19 C19 1_555 1_555
C2 C3 1_555 1_555
C4 C5 1_555 1_555
C12 C13 1_555 1_555
C18 C19 1_555 1_555

#END
