
#######################################################################
#
#                 Cambridge Crystallographic Data Centre
#                                CCDC 
#
#######################################################################
#
# If this CIF has been generated from an entry in the Cambridge 
# Structural Database, then it will include bibliographic, chemical, 
# crystal, experimental, refinement or atomic coordinate data resulting 
# from the CCDC's data processing and validation procedures.
#
#######################################################################

data_VAZCAC01
_chemical_formula_moiety         'C2 H2 N6 O4'
_chemical_name_systematic        3,5-Dinitro-1H-1,2,4-triazol-1-amine
_symmetry_cell_setting           triclinic
_symmetry_space_group_name_H-M   'P 1'
_symmetry_Int_Tables_number      1
_space_group_name_Hall           'P 1'
loop_
_symmetry_equiv_pos_site_id
_symmetry_equiv_pos_as_xyz
1 x,y,z
_cell_length_a                   8.3290(10)
_cell_length_b                   11.4808(15)
_cell_length_c                   13.6457(17)
_cell_angle_alpha                78.002(4)
_cell_angle_beta                 77.916(4)
_cell_angle_gamma                89.974(4)
_cell_volume                     1246.8
_exptl_crystal_colour            colorless
_exptl_crystal_description       irregular
_cell_formula_units_Z            8
loop_
_atom_site_label
_atom_site_type_symbol
_atom_site_fract_x
_atom_site_fract_y
_atom_site_fract_z
N1 N -0.0770(3) 0.15156(19) 0.65247(15)
N2 N 0.0383(3) 0.2139(2) 0.67820(16)
C1 C 0.1728(3) 0.1640(2) 0.6391(2)
N3 N 0.1574(3) 0.0768(2) 0.58972(16)
C2 C -0.0030(3) 0.0719(2) 0.60022(18)
N4 N -0.2417(3) 0.1768(2) 0.6827(2)
H1 H -0.281(4) 0.206(3) 0.6271(16)
H2 H -0.293(4) 0.1043(16) 0.693(2)
N5 N 0.3326(3) 0.2004(3) 0.6518(2)
O1 O 0.3369(3) 0.2771(3) 0.7011(2)
O2 O 0.4521(3) 0.1521(3) 0.6109(2)
N6 N -0.0885(3) -0.0144(2) 0.56396(16)
O3 O -0.0050(3) -0.0683(2) 0.50535(17)
O4 O -0.2372(3) -0.0280(2) 0.59445(17)
N7 N 0.1360(3) -0.00323(19) 0.09462(15)
N8 N 0.2466(3) -0.08317(19) 0.06856(15)
C3 C 0.3453(3) -0.0784(2) 0.13097(18)
N9 N 0.3102(2) -0.0043(2) 0.19585(16)
C4 C 0.1779(3) 0.0416(2) 0.16907(19)
N10 N -0.0014(3) 0.0109(3) 0.0493(2)
H3 H 0.012(4) 0.0873(13) 0.015(2)
H4 H -0.089(3) 0.004(3) 0.1025(18)
N11 N 0.4872(3) -0.15159(19) 0.13012(16)
O5 O 0.5161(2) -0.21332(18) 0.06638(15)
O6 O 0.5679(3) -0.1468(2) 0.19358(16)
N12 N 0.0830(3) 0.1291(2) 0.2173(2)
O7 O 0.0951(3) 0.1282(2) 0.30464(18)
O8 O 0.0017(3) 0.1936(2) 0.1671(2)
N13 N 0.1754(3) 0.41464(19) 0.41203(15)
N14 N 0.0636(3) 0.32215(18) 0.43806(15)
C5 C -0.0344(3) 0.3584(2) 0.37541(18)
N15 N 0.0013(3) 0.46426(19) 0.31078(16)
C6 C 0.1342(3) 0.4963(2) 0.33736(19)
N16 N 0.3102(3) 0.4047(3) 0.4592(2)
H5 H 0.311(5) 0.4699(19) 0.485(2)
H6 H 0.399(3) 0.422(3) 0.4068(18)
N17 N -0.1774(3) 0.28637(19) 0.37661(16)
O9 O -0.2082(2) 0.19301(17) 0.44038(14)
O10 O -0.2592(3) 0.32433(19) 0.31350(16)
N18 N 0.2270(3) 0.6081(2) 0.2903(2)
O11 O 0.2157(3) 0.6514(2) 0.20286(19)
O12 O 0.3084(3) 0.6470(2) 0.3408(2)
N19 N 0.7832(3) 0.49504(19) 0.09579(16)
N20 N 0.6913(3) 0.41591(18) 0.06750(15)
C7 C 0.5494(3) 0.4206(2) 0.12993(17)
N21 N 0.5386(3) 0.49345(19) 0.19613(16)
C8 C 0.6896(3) 0.5383(2) 0.17098(19)
N22 N 0.9516(3) 0.5087(2) 0.0496(2)
H7 H 0.968(4) 0.5866(11) 0.023(2)
H8 H 0.991(4) 0.496(3) 0.1074(16)
N23 N 0.4080(3) 0.34902(19) 0.12737(16)
O13 O 0.4231(2) 0.28757(17) 0.06306(14)
O14 O 0.2826(2) 0.3535(2) 0.19077(16)
N24 N 0.7490(3) 0.6242(2) 0.2205(2)
O15 O 0.6777(3) 0.6224(2) 0.3079(2)
O16 O 0.8653(3) 0.6898(2) 0.1709(2)
N25 N 0.6086(2) 0.64856(18) 0.65285(14)
N26 N 0.4725(2) 0.70885(18) 0.67473(15)
C9 C 0.3718(3) 0.6599(2) 0.63096(18)
N27 N 0.4283(2) 0.57342(19) 0.58293(15)
C10 C 0.5784(3) 0.5691(2) 0.59814(18)
N28 N 0.7489(3) 0.6784(2) 0.68590(18)
H9 H 0.771(3) 0.6168(18) 0.7306(17)
H10 H 0.839(2) 0.679(3) 0.6379(17)
N29 N 0.2038(3) 0.6973(2) 0.63608(16)
O17 O 0.1568(3) 0.7704(2) 0.68677(16)
O18 O 0.1217(3) 0.6507(2) 0.58971(17)
N30 N 0.6941(3) 0.48363(19) 0.56447(16)
O19 O 0.6473(3) 0.4199(2) 0.51465(19)
O20 O 0.8252(3) 0.47946(19) 0.58913(16)
N31 N 0.3740(2) 0.85080(18) 0.85199(14)
N32 N 0.2511(3) 0.92115(19) 0.83333(15)
C11 C 0.1226(3) 0.8487(2) 0.87889(18)
N33 N 0.1490(2) 0.73881(18) 0.92674(15)
C12 C 0.3092(3) 0.7435(2) 0.90773(18)
N34 N 0.5369(3) 0.8951(2) 0.81495(19)
H11 H 0.596(3) 0.872(3) 0.8627(18)
H12 H 0.576(4) 0.874(3) 0.7556(14)
N35 N -0.0431(3) 0.8834(2) 0.87386(17)
O21 O -0.0611(3) 0.9817(2) 0.82464(18)
O22 O -0.1537(3) 0.8110(2) 0.9185(2)
N36 N 0.4040(3) 0.64175(19) 0.93962(17)
O23 O 0.3258(3) 0.55552(19) 0.99560(18)
O24 O 0.5516(3) 0.64874(19) 0.90829(17)
N37 N 0.5266(3) 0.91723(19) 0.41271(16)
N38 N 0.6198(3) 0.82461(19) 0.43802(16)
C13 C 0.7617(3) 0.8613(2) 0.37448(17)
N39 N 0.7696(3) 0.96738(19) 0.31039(16)
C14 C 0.6185(3) 0.9989(2) 0.33777(19)
N40 N 0.3592(3) 0.9075(3) 0.4592(2)
H13 H 0.292(4) 0.923(3) 0.415(2)
H14 H 0.327(5) 0.962(2) 0.498(2)
N41 N 0.9038(3) 0.78907(19) 0.37559(16)
O25 O 0.8906(2) 0.69519(17) 0.43849(14)
O26 O 1.0275(2) 0.8264(2) 0.31171(16)
N42 N 0.5557(3) 1.1108(2) 0.2911(2)
O27 O 0.6258(3) 1.1547(2) 0.20386(19)
O28 O 0.4403(3) 1.1497(2) 0.3428(2)
N43 N 0.7061(2) 0.34860(19) 0.85044(15)
N44 N 0.8392(3) 0.42299(19) 0.82761(16)
C15 C 0.9429(3) 0.3550(2) 0.87180(18)
N45 N 0.8906(3) 0.24346(18) 0.91994(15)
C16 C 0.7409(3) 0.2437(2) 0.90461(18)
N46 N 0.5652(3) 0.3907(2) 0.8158(2)
H15 H 0.491(3) 0.396(3) 0.8733(16)
H16 H 0.502(4) 0.3270(19) 0.821(2)
N47 N 1.1094(3) 0.3987(2) 0.86532(18)
O29 O 1.1514(3) 0.4977(2) 0.81444(18)
O30 O 1.1947(3) 0.3322(2) 0.91186(18)
N48 N 0.6281(3) 0.1405(2) 0.94055(17)
O31 O 0.6673(3) 0.05829(19) 0.99974(18)
O32 O 0.5016(3) 0.14393(19) 0.90787(17)
loop_
_geom_bond_atom_site_label_1
_geom_bond_atom_site_label_2
_geom_bond_site_symmetry_1
_geom_bond_site_symmetry_2
N1 N2 1_555 1_555
N2 C1 1_555 1_555
C1 N3 1_555 1_555
N3 C2 1_555 1_555
C2 N1 1_555 1_555
N4 N1 1_555 1_555
H1 N4 1_555 1_555
H2 N4 1_555 1_555
N5 C1 1_555 1_555
O1 N5 1_555 1_555
O2 N5 1_555 1_555
N6 C2 1_555 1_555
O3 N6 1_555 1_555
O4 N6 1_555 1_555
N7 N8 1_555 1_555
N8 C3 1_555 1_555
C3 N9 1_555 1_555
N9 C4 1_555 1_555
C4 N7 1_555 1_555
N10 N7 1_555 1_555
H3 N10 1_555 1_555
H4 N10 1_555 1_555
N11 C3 1_555 1_555
O5 N11 1_555 1_555
O6 N11 1_555 1_555
N12 C4 1_555 1_555
O7 N12 1_555 1_555
O8 N12 1_555 1_555
N13 N14 1_555 1_555
N14 C5 1_555 1_555
C5 N15 1_555 1_555
N15 C6 1_555 1_555
C6 N13 1_555 1_555
N16 N13 1_555 1_555
H5 N16 1_555 1_555
H6 N16 1_555 1_555
N17 C5 1_555 1_555
O9 N17 1_555 1_555
O10 N17 1_555 1_555
N18 C6 1_555 1_555
O11 N18 1_555 1_555
O12 N18 1_555 1_555
N19 N20 1_555 1_555
N20 C7 1_555 1_555
C7 N21 1_555 1_555
N21 C8 1_555 1_555
C8 N19 1_555 1_555
N22 N19 1_555 1_555
H7 N22 1_555 1_555
H8 N22 1_555 1_555
N23 C7 1_555 1_555
O13 N23 1_555 1_555
O14 N23 1_555 1_555
N24 C8 1_555 1_555
O15 N24 1_555 1_555
O16 N24 1_555 1_555
N25 N26 1_555 1_555
N26 C9 1_555 1_555
C9 N27 1_555 1_555
N27 C10 1_555 1_555
C10 N25 1_555 1_555
N28 N25 1_555 1_555
H9 N28 1_555 1_555
H10 N28 1_555 1_555
N29 C9 1_555 1_555
O17 N29 1_555 1_555
O18 N29 1_555 1_555
N30 C10 1_555 1_555
O19 N30 1_555 1_555
O20 N30 1_555 1_555
N31 N32 1_555 1_555
N32 C11 1_555 1_555
C11 N33 1_555 1_555
N33 C12 1_555 1_555
C12 N31 1_555 1_555
N34 N31 1_555 1_555
H11 N34 1_555 1_555
H12 N34 1_555 1_555
N35 C11 1_555 1_555
O21 N35 1_555 1_555
O22 N35 1_555 1_555
N36 C12 1_555 1_555
O23 N36 1_555 1_555
O24 N36 1_555 1_555
N37 N38 1_555 1_555
N38 C13 1_555 1_555
C13 N39 1_555 1_555
N39 C14 1_555 1_555
C14 N37 1_555 1_555
N40 N37 1_555 1_555
H13 N40 1_555 1_555
H14 N40 1_555 1_555
N41 C13 1_555 1_555
O25 N41 1_555 1_555
O26 N41 1_555 1_555
N42 C14 1_555 1_555
O27 N42 1_555 1_555
O28 N42 1_555 1_555
N43 N44 1_555 1_555
N44 C15 1_555 1_555
C15 N45 1_555 1_555
N45 C16 1_555 1_555
C16 N43 1_555 1_555
N46 N43 1_555 1_555
H15 N46 1_555 1_555
H16 N46 1_555 1_555
N47 C15 1_555 1_555
O29 N47 1_555 1_555
O30 N47 1_555 1_555
N48 C16 1_555 1_555
O31 N48 1_555 1_555
O32 N48 1_555 1_555

#END
