
#######################################################################
#
#                 Cambridge Crystallographic Data Centre
#                                CCDC 
#
#######################################################################
#
# If this CIF has been generated from an entry in the Cambridge 
# Structural Database, then it will include bibliographic, chemical, 
# crystal, experimental, refinement or atomic coordinate data resulting 
# from the CCDC's data processing and validation procedures.
#
#######################################################################

data_VAZHEK01
_chemical_formula_moiety         'C20 H26 N4'
_chemical_name_systematic        
N,N'-bis(4-Dimethylaminobenzylidene)ethane-1,2-diamine
_symmetry_cell_setting           monoclinic
_symmetry_space_group_name_H-M   'C 2/c'
_symmetry_Int_Tables_number      15
_space_group_name_Hall           '-C 2yn'
loop_
_symmetry_equiv_pos_site_id
_symmetry_equiv_pos_as_xyz
1 x,y,z
2 1/2+x,1/2+y,z
3 -x,y,1/2-z
4 1/2-x,1/2+y,1/2-z
5 -x,-y,-z
6 1/2-x,1/2-y,-z
7 x,-y,1/2+z
8 1/2+x,1/2-y,1/2+z
_cell_length_a                   24.218(16)
_cell_length_b                   6.534(4)
_cell_length_c                   12.433(8)
_cell_angle_alpha                90
_cell_angle_beta                 114.872(10)
_cell_angle_gamma                90
_cell_volume                     1784.93
_exptl_crystal_colour            yellow
_exptl_crystal_description       block
_cell_formula_units_Z            4
loop_
_atom_site_label
_atom_site_type_symbol
_atom_site_fract_x
_atom_site_fract_y
_atom_site_fract_z
N1 N 0.05758(7) 0.8538(2) -0.14309(14)
N2 N 0.18555(8) 0.0346(3) 0.15211(14)
C1 C 0.01776(10) 1.0309(3) -0.18347(18)
C2 C 0.05488(9) 0.7530(3) -0.05926(18)
C3 C 0.08989(8) 0.5700(3) -0.00622(15)
C4 C 0.12933(9) 0.4780(3) -0.04573(17)
C5 C 0.16079(9) 0.3035(3) 0.00564(16)
C6 C 0.15395(8) 0.2095(3) 0.10061(15)
C7 C 0.11448(9) 0.3015(3) 0.14076(17)
C8 C 0.08364(10) 0.4766(3) 0.08861(17)
C9 C 0.17686(16) -0.0637(5) 0.2473(2)
C10 C 0.22099(14) -0.0705(4) 0.1026(3)
H1 H -0.0111(9) 1.036(3) -0.1457(17)
H2 H 0.0454(9) 1.160(3) -0.1604(16)
H3 H 0.0284(9) 0.795(3) -0.0251(16)
H4 H 0.1341(8) 0.539(3) -0.1110(16)
H5 H 0.1877(9) 0.248(3) -0.0255(16)
H6 H 0.1056(8) 0.246(3) 0.2029(17)
H7 H 0.0564(10) 0.543(3) 0.1181(17)
H8 H 0.1808(13) 0.028(4) 0.308(3)
H9 H 0.1380(16) -0.117(5) 0.223(3)
H10 H 0.2003(15) -0.181(5) 0.270(3)
H11 H 0.2536(15) 0.011(5) 0.099(3)
H12 H 0.1973(13) -0.118(4) 0.017(3)
H13 H 0.2361(13) -0.194(5) 0.142(3)
N1B N -0.05758(7) 0.8538(2) -0.35691(14)
N2B N -0.18555(8) 0.0346(3) -0.65211(14)
C1B C -0.01776(10) 1.0309(3) -0.31653(18)
C2B C -0.05488(9) 0.7530(3) -0.44074(18)
C3B C -0.08989(8) 0.5700(3) -0.49378(15)
C4B C -0.12933(9) 0.4780(3) -0.45427(17)
C5B C -0.16079(9) 0.3035(3) -0.50564(16)
C6B C -0.15395(8) 0.2095(3) -0.60061(15)
C7B C -0.11448(9) 0.3015(3) -0.64076(17)
C8B C -0.08364(10) 0.4766(3) -0.58861(17)
C9B C -0.17686(16) -0.0637(5) -0.7473(2)
C10B C -0.22099(14) -0.0705(4) -0.6026(3)
H1B H 0.0111(9) 1.036(3) -0.3543(17)
H2B H -0.0454(9) 1.160(3) -0.3396(16)
H3B H -0.0284(9) 0.795(3) -0.4749(16)
H4B H -0.1341(8) 0.539(3) -0.3890(16)
H5B H -0.1877(9) 0.248(3) -0.4745(16)
H6B H -0.1056(8) 0.246(3) -0.7029(17)
H7B H -0.0564(10) 0.543(3) -0.6181(17)
H8B H -0.1808(13) 0.028(4) -0.808(3)
H9B H -0.1380(16) -0.117(5) -0.723(3)
H10B H -0.2003(15) -0.181(5) -0.770(3)
H11B H -0.2536(15) 0.011(5) -0.599(3)
H12B H -0.1973(13) -0.118(4) -0.517(3)
H13B H -0.2361(13) -0.194(5) -0.642(3)
loop_
_geom_bond_atom_site_label_1
_geom_bond_atom_site_label_2
_geom_bond_site_symmetry_1
_geom_bond_site_symmetry_2
N1 C1 1_555 1_555
N2 C6 1_555 1_555
C1 H1 1_555 1_555
C2 N1 1_555 1_555
C3 C2 1_555 1_555
C4 C3 1_555 1_555
C5 C4 1_555 1_555
C6 C5 1_555 1_555
C7 C6 1_555 1_555
C8 C3 1_555 1_555
C9 N2 1_555 1_555
C10 N2 1_555 1_555
H2 C1 1_555 1_555
H3 C2 1_555 1_555
H4 C4 1_555 1_555
H5 C5 1_555 1_555
H6 C7 1_555 1_555
H7 C8 1_555 1_555
H8 C9 1_555 1_555
H9 C9 1_555 1_555
H10 C9 1_555 1_555
H11 C10 1_555 1_555
H12 C10 1_555 1_555
H13 C10 1_555 1_555
N1B C1B 1_555 1_555
N2B C6B 1_555 1_555
C1B C1 1_555 1_555
C2B N1B 1_555 1_555
C3B C2B 1_555 1_555
C4B C3B 1_555 1_555
C5B C4B 1_555 1_555
C6B C5B 1_555 1_555
C7B C6B 1_555 1_555
C8B C3B 1_555 1_555
C9B N2B 1_555 1_555
C10B N2B 1_555 1_555
H1B C1B 1_555 1_555
H2B C1B 1_555 1_555
H3B C2B 1_555 1_555
H4B C4B 1_555 1_555
H5B C5B 1_555 1_555
H6B C7B 1_555 1_555
H7B C8B 1_555 1_555
H8B C9B 1_555 1_555
H9B C9B 1_555 1_555
H10B C9B 1_555 1_555
H11B C10B 1_555 1_555
H12B C10B 1_555 1_555
H13B C10B 1_555 1_555
C7 C8 1_555 1_555
C7B C8B 1_555 1_555

#END
