
#######################################################################
#
#                 Cambridge Crystallographic Data Centre
#                                CCDC 
#
#######################################################################
#
# If this CIF has been generated from an entry in the Cambridge 
# Structural Database, then it will include bibliographic, chemical, 
# crystal, experimental, refinement or atomic coordinate data resulting 
# from the CCDC's data processing and validation procedures.
#
#######################################################################

data_VAZJUC
_chemical_formula_moiety         'C24 H21 N3 O3'
_chemical_name_systematic        
'2-(1H-1,2,3-Benzotriazol-1-yl)-1-benzoylethyl 4-ethylbenzoate'
_symmetry_cell_setting           monoclinic
_symmetry_space_group_name_H-M   'P 21/c'
_symmetry_Int_Tables_number      14
_space_group_name_Hall           '-P 2ybc'
loop_
_symmetry_equiv_pos_site_id
_symmetry_equiv_pos_as_xyz
1 x,y,z
2 -x,1/2+y,1/2-z
3 -x,-y,-z
4 x,1/2-y,1/2+z
_cell_length_a                   13.9064(9)
_cell_length_b                   8.7793(6)
_cell_length_c                   17.4342(12)
_cell_angle_alpha                90
_cell_angle_beta                 101.1430(10)
_cell_angle_gamma                90
_cell_volume                     2088.39
_exptl_crystal_colour            colorless
_exptl_crystal_description       Block
_cell_formula_units_Z            4
_exptl_crystal_recrystallization_method 'ethyl acetate/petroleum ether'
loop_
_atom_site_label
_atom_site_type_symbol
_atom_site_fract_x
_atom_site_fract_y
_atom_site_fract_z
O1 O 0.12041(10) 0.59538(16) 0.30980(8)
O2 O 0.15537(8) 0.37797(15) 0.21049(6)
O3 O 0.02651(9) 0.49696(17) 0.13877(8)
N1 N 0.24514(10) 0.28138(18) 0.36138(8)
N2 N 0.25251(13) 0.3599(2) 0.42888(9)
N3 N 0.34231(14) 0.4064(3) 0.45094(10)
C1 C -0.09701(14) 0.3827(2) 0.31995(13)
H1 H -0.0942 0.3106 0.2814
C2 C -0.17864(16) 0.3909(3) 0.35412(16)
H2 H -0.2307 0.3244 0.3381
C3 C -0.18380(19) 0.4960(3) 0.41118(14)
H3 H -0.2391 0.5005 0.4338
C4 C -0.10766(18) 0.5940(3) 0.43481(12)
H4 H -0.1111 0.6651 0.4737
C5 C -0.02570(16) 0.5881(2) 0.40128(11)
H5 H 0.0257 0.6556 0.4176
C6 C -0.01937(13) 0.4817(2) 0.34317(10)
C7 C 0.06859(12) 0.4843(2) 0.30647(9)
C8 C 0.09397(12) 0.3410(2) 0.26472(10)
H6 H 0.0334 0.2939 0.2366
C9 C 0.15055(13) 0.2256(2) 0.32165(11)
H7 H 0.1117 0.1991 0.3603
H8 H 0.1601 0.1336 0.2932
C10 C 0.33308(13) 0.2762(2) 0.33908(10)
C11 C 0.36594(15) 0.2080(3) 0.27664(12)
H9 H 0.3244 0.1531 0.2383
C12 C 0.46315(18) 0.2271(3) 0.27542(16)
H10 H 0.4886 0.1826 0.2352
C13 C 0.52547(18) 0.3105(4) 0.33219(19)
H11 H 0.5908 0.3213 0.3282
C14 C 0.49422(17) 0.3761(4) 0.39276(17)
H12 H 0.5366 0.4315 0.4304
C15 C 0.39505(14) 0.3574(3) 0.39666(12)
C16 C 0.11111(12) 0.4607(2) 0.14763(10)
C17 C 0.17823(13) 0.4967(2) 0.09414(10)
C18 C 0.27681(15) 0.4617(3) 0.11064(14)
H13 H 0.3033 0.4121 0.1571
C19 C 0.33586(17) 0.4994(3) 0.05936(16)
H14 H 0.4022 0.4754 0.0721
C20 C 0.30091(16) 0.5711(3) -0.01009(13)
C21 C 0.20252(17) 0.6057(3) -0.02655(13)
H15 H 0.1765 0.6552 -0.0731
C22 C 0.14131(15) 0.5683(3) 0.02458(12)
H16 H 0.0749 0.5919 0.0118
C23 C 0.3713(2) 0.6109(4) -0.06420(16)
H17 H 0.4233 0.6732 -0.0349
H18 H 0.4011 0.5170 -0.0773
C24 C 0.3331(3) 0.6881(5) -0.1352(2)
H19 H 0.3848 0.7056 -0.1635
H20 H 0.3057 0.7839 -0.1237
H21 H 0.2830 0.6269 -0.1663
loop_
_geom_bond_atom_site_label_1
_geom_bond_atom_site_label_2
_geom_bond_site_symmetry_1
_geom_bond_site_symmetry_2
O1 C7 1_555 1_555
O2 C8 1_555 1_555
O3 C16 1_555 1_555
N1 N2 1_555 1_555
N2 N3 1_555 1_555
N3 C15 1_555 1_555
C1 H1 1_555 1_555
C2 C1 1_555 1_555
H2 C2 1_555 1_555
C3 C2 1_555 1_555
H3 C3 1_555 1_555
C4 C3 1_555 1_555
H4 C4 1_555 1_555
C5 C4 1_555 1_555
H5 C5 1_555 1_555
C6 C1 1_555 1_555
C7 C6 1_555 1_555
C8 C7 1_555 1_555
H6 C8 1_555 1_555
C9 N1 1_555 1_555
H7 C9 1_555 1_555
H8 C9 1_555 1_555
C10 N1 1_555 1_555
C11 C10 1_555 1_555
H9 C11 1_555 1_555
C12 C11 1_555 1_555
H10 C12 1_555 1_555
C13 C12 1_555 1_555
H11 C13 1_555 1_555
C14 C13 1_555 1_555
H12 C14 1_555 1_555
C15 C10 1_555 1_555
C16 O2 1_555 1_555
C17 C16 1_555 1_555
C18 C17 1_555 1_555
H13 C18 1_555 1_555
C19 C18 1_555 1_555
H14 C19 1_555 1_555
C20 C19 1_555 1_555
C21 C20 1_555 1_555
H15 C21 1_555 1_555
C22 C17 1_555 1_555
H16 C22 1_555 1_555
C23 C20 1_555 1_555
H17 C23 1_555 1_555
H18 C23 1_555 1_555
C24 C23 1_555 1_555
H19 C24 1_555 1_555
H20 C24 1_555 1_555
H21 C24 1_555 1_555
C5 C6 1_555 1_555
C8 C9 1_555 1_555
C14 C15 1_555 1_555
C21 C22 1_555 1_555

#END
