
#######################################################################
#
#                 Cambridge Crystallographic Data Centre
#                                CCDC 
#
#######################################################################
#
# If this CIF has been generated from an entry in the Cambridge 
# Structural Database, then it will include bibliographic, chemical, 
# crystal, experimental, refinement or atomic coordinate data resulting 
# from the CCDC's data processing and validation procedures.
#
#######################################################################

data_VAZKOZ
_chemical_formula_moiety         'C128 H150 N6 O8,4(C1 H1 Cl3)'
_chemical_name_systematic        
"N,N'-(5,5',6,6'-tetrakis(2,6-diisopropylphenoxy)-[1,1'-biisoindolylidene]-3,3'-diyl)bis(5,6-bis(2,6-diisopropylphenoxy)isoindolin-1-imine) chloroform solvate"
_symmetry_cell_setting           monoclinic
_symmetry_space_group_name_H-M   'P 21/c'
_symmetry_Int_Tables_number      14
_space_group_name_Hall           '-P 2ybc'
loop_
_symmetry_equiv_pos_site_id
_symmetry_equiv_pos_as_xyz
1 x,y,z
2 -x,1/2+y,1/2-z
3 -x,-y,-z
4 x,1/2-y,1/2+z
_cell_length_a                   9.9153(2)
_cell_length_b                   27.3670(5)
_cell_length_c                   23.7531(4)
_cell_angle_alpha                90
_cell_angle_beta                 93.290(2)
_cell_angle_gamma                90
_cell_volume                     6434.83
_exptl_crystal_colour            red
_exptl_crystal_description       block
_cell_formula_units_Z            2
_exptl_crystal_recrystallization_method chloroform/methanol
loop_
_atom_site_label
_atom_site_type_symbol
_atom_site_fract_x
_atom_site_fract_y
_atom_site_fract_z
C1 C -0.3146(6) 0.7629(2) 0.8866(2)
H1 H -0.2605 0.7907 0.8781
H2 H -0.3482 0.7667 0.9234
H3 H -0.3891 0.7603 0.8591
C2 C -0.2289(4) 0.71695(15) 0.88525(16)
H4 H -0.1496 0.7217 0.9112
C3 C -0.3098(5) 0.6742(2) 0.9069(2)
H5 H -0.3963 0.6728 0.8867
H6 H -0.3221 0.6785 0.9464
H7 H -0.2618 0.6442 0.9013
C4 C -0.1795(3) 0.70920(13) 0.82637(15)
C5 C -0.2443(4) 0.67762(15) 0.78791(19)
H8 H -0.3161 0.6587 0.7989
C6 C -0.2028(5) 0.67407(17) 0.73338(19)
H9 H -0.2470 0.6528 0.7080
C7 C -0.0962(4) 0.70188(16) 0.71624(16)
H10 H -0.0705 0.6994 0.6793
C8 C -0.0270(4) 0.73342(13) 0.75352(14)
C9 C -0.0717(3) 0.73593(11) 0.80782(13)
C10 C 0.0891(4) 0.76494(15) 0.73608(16)
H11 H 0.1605 0.7632 0.7663
C11 C 0.0466(5) 0.81839(17) 0.7297(2)
H12 H -0.0237 0.8212 0.7004
H13 H 0.1229 0.8377 0.7202
H14 H 0.0139 0.8299 0.7646
C12 C 0.1494(6) 0.7469(2) 0.6816(2)
H15 H 0.1682 0.7126 0.6846
H16 H 0.2317 0.7643 0.6759
H17 H 0.0861 0.7526 0.6502
C13 C 0.1524(4) 0.87847(11) 0.93422(14)
C14 C 0.0973(4) 0.89675(12) 0.98217(16)
C15 C 0.1505(6) 0.94043(15) 1.0034(2)
H18 H 0.1150 0.9541 1.0352
C16 C 0.2542(7) 0.96389(15) 0.9785(2)
H19 H 0.2899 0.9926 0.9942
C17 C 0.3051(5) 0.94498(15) 0.9306(2)
H20 H 0.3736 0.9616 0.9134
C18 C 0.2558(4) 0.90111(13) 0.90703(17)
C19 C -0.0190(6) 0.8711(2) 1.0087(2)
C20 C 0.3129(5) 0.88079(17) 0.85444(19)
H21 H 0.2600 0.8517 0.8434
C21 C 0.3008(7) 0.9163(2) 0.8056(2)
H22 H 0.2078 0.9252 0.7984
H23 H 0.3339 0.9013 0.7726
H24 H 0.3530 0.9451 0.8148
C22 C 0.4576(8) 0.8647(3) 0.8656(3)
H25 H 0.4895 0.8499 0.8323
H26 H 0.4626 0.8415 0.8960
H27 H 0.5126 0.8926 0.8758
C23 C 0.1466(3) 0.79209(10) 0.91813(12)
C24 C 0.0903(3) 0.75481(11) 0.88281(12)
C25 C 0.1364(3) 0.70766(10) 0.88811(12)
H28 H 0.1001 0.6829 0.8651
C26 C 0.2476(3) 0.78197(11) 0.95892(13)
H29 H 0.2837 0.8064 0.9824
C27 C 0.2391(3) 0.69815(10) 0.92896(12)
C28 C 0.2936(3) 0.73421(10) 0.96376(12)
C29 C 0.3045(3) 0.65159(10) 0.94483(11)
C30 C 0.3997(3) 0.71209(11) 1.00412(13)
H30 H 0.4881 0.7261 0.9991
H31 H 0.3770 0.7163 1.0430
C31 C 0.3321(3) 0.56728(10) 0.93821(11)
C32 C 0.2891(3) 0.52153(10) 0.91114(12)
C33 C 0.3644(3) 0.48458(10) 0.93871(11)
C34 C 0.4525(3) 0.50987(9) 0.98142(11)
C35 C 0.3448(3) 0.43626(10) 0.92197(12)
H32 H 0.3940 0.4111 0.9396
C36 C 0.2499(3) 0.42672(10) 0.87834(12)
C37 C 0.1733(3) 0.46431(11) 0.85152(12)
C38 C 0.1925(3) 0.51230(10) 0.86763(13)
H33 H 0.1428 0.5375 0.8502
C39 C 0.3627(6) 0.3041(3) 0.7757(2)
H34 H 0.3184 0.3342 0.7648
H35 H 0.2981 0.2780 0.7741
H36 H 0.4324 0.2973 0.7503
C40 C 0.5249(4) 0.34728(17) 0.84326(19)
H37 H 0.5950 0.3439 0.8173
H38 H 0.5631 0.3440 0.8811
H39 H 0.4835 0.3788 0.8386
C41 C 0.4214(4) 0.30853(17) 0.8320(2)
H40 H 0.4743 0.2784 0.8366
C42 C 0.3206(3) 0.30365(11) 0.87700(14)
C43 C 0.3129(4) 0.25965(13) 0.90685(18)
H41 H 0.3724 0.2345 0.8994
C44 C 0.2214(5) 0.25276(15) 0.94632(18)
H42 H 0.2200 0.2235 0.9662
C45 C 0.1300(5) 0.28927(16) 0.95708(16)
H43 H 0.0671 0.2841 0.9840
C46 C 0.1300(3) 0.33385(13) 0.92836(13)
C47 C 0.2284(3) 0.33974(10) 0.88958(12)
C48 C 0.0240(4) 0.37217(15) 0.93761(16)
H44 H 0.0332 0.3977 0.9091
C49 C -0.1180(4) 0.3523(2) 0.9303(2)
H45 H -0.1339 0.3403 0.8925
H46 H -0.1814 0.3778 0.9372
H47 H -0.1288 0.3260 0.9565
C50 C 0.0451(6) 0.3964(2) 0.9958(2)
H48 H 0.0274 0.3730 1.0246
H49 H -0.0155 0.4235 0.9981
H50 H 0.1366 0.4077 1.0009
C51 C 0.0101(4) 0.48218(12) 0.77631(14)
C52 C 0.0575(4) 0.48841(16) 0.72258(16)
C53 C -0.0144(6) 0.5189(2) 0.6855(2)
H51 H 0.0143 0.5234 0.6493
C54 C -0.1250(6) 0.54218(19) 0.7013(2)
H52 H -0.1711 0.5629 0.6758
C55 C -0.1721(5) 0.53611(17) 0.7539(2)
H53 H -0.2490 0.5528 0.7636
C56 C -0.1049(4) 0.50466(14) 0.79370(17)
C57 C -0.1580(5) 0.49508(19) 0.8505(2)
H54 H -0.0871 0.4781 0.8733
C58 C -0.1903(10) 0.5425(3) 0.8809(3)
H55 H -0.1207 0.5661 0.8753
H56 H -0.1949 0.5362 0.9205
H57 H -0.2755 0.5550 0.8661
C59 C -0.2811(7) 0.4624(3) 0.8469(3)
H58 H -0.3516 0.4776 0.8237
H59 H -0.3118 0.4572 0.8841
H60 H -0.2582 0.4316 0.8307
C60 C 0.1820(6) 0.4628(2) 0.7043(2)
H61 H 0.2460 0.4613 0.7373
C61 C 0.1531(8) 0.4132(3) 0.6872(5)
H62 H 0.1182 0.3955 0.7180
H63 H 0.2345 0.3979 0.6761
H64 H 0.0873 0.4133 0.6559
C62 C 0.2536(12) 0.4898(3) 0.6571(4)
H65 H 0.3151 0.4679 0.6402
H66 H 0.3028 0.5173 0.6729
H67 H 0.1875 0.5011 0.6290
C63 C -0.0449(14) 0.8797(5) 1.0667(4)
H68 H -0.0878 0.9109 1.0702
H69 H 0.0388 0.8795 1.0891
H70 H -0.1031 0.8546 1.0797
C64 C -0.1596(10) 0.8805(5) 0.9714(5)
H71 H -0.2320 0.8637 0.9884
H72 H -0.1512 0.8683 0.9338
H73 H -0.1785 0.9149 0.9700
H74 H -0.035(6) 0.845(2) 0.999(3)
N1 N 0.3946(2) 0.66070(8) 0.98755(10)
H75 H 0.4446 0.6385 1.0037
N2 N 0.2724(2) 0.61009(8) 0.92008(10)
N3 N 0.4266(2) 0.56054(8) 0.97893(10)
O1 O 0.0913(3) 0.83730(8) 0.90855(10)
O2 O -0.0096(2) 0.77035(8) 0.84480(9)
O3 O 0.2267(2) 0.38101(7) 0.85526(8)
O4 O 0.0778(2) 0.44837(8) 0.81132(9)
C1B C 1.3146(6) 0.2371(2) 1.1134(2)
H1B H 1.2605 0.2093 1.1219
H2B H 1.3482 0.2333 1.0766
H3B H 1.3891 0.2397 1.1409
C2B C 1.2289(4) 0.28305(15) 1.11475(16)
H4B H 1.1496 0.2783 1.0888
C3B C 1.3098(5) 0.3258(2) 1.0931(2)
H5B H 1.3963 0.3272 1.1133
H6B H 1.3221 0.3215 1.0536
H7B H 1.2618 0.3558 1.0987
C4B C 1.1795(3) 0.29080(13) 1.17363(15)
C5B C 1.2443(4) 0.32238(15) 1.21209(19)
H8B H 1.3161 0.3413 1.2011
C6B C 1.2028(5) 0.32593(17) 1.26662(19)
H9B H 1.2470 0.3472 1.2920
C7B C 1.0962(4) 0.29812(16) 1.28376(16)
H10B H 1.0705 0.3006 1.3207
C8B C 1.0270(4) 0.26658(13) 1.24648(14)
C9B C 1.0717(3) 0.26407(11) 1.19218(13)
C10B C 0.9109(4) 0.23506(15) 1.26392(16)
H11B H 0.8395 0.2368 1.2337
C11B C 0.9534(5) 0.18161(17) 1.2703(2)
H12B H 1.0237 0.1788 1.2996
H13B H 0.8771 0.1623 1.2798
H14B H 0.9861 0.1701 1.2354
C12B C 0.8506(6) 0.2531(2) 1.3184(2)
H15B H 0.8318 0.2874 1.3154
H16B H 0.7683 0.2357 1.3241
H17B H 0.9139 0.2474 1.3498
C13B C 0.8476(4) 0.12153(11) 1.06578(14)
C14B C 0.9027(4) 0.10325(12) 1.01783(16)
C15B C 0.8495(6) 0.05957(15) 0.9966(2)
H18B H 0.8850 0.0459 0.9648
C16B C 0.7458(7) 0.03611(15) 1.0215(2)
H19B H 0.7101 0.0074 1.0058
C17B C 0.6949(5) 0.05502(15) 1.0694(2)
H20B H 0.6264 0.0384 1.0866
C18B C 0.7442(4) 0.09889(13) 1.09297(17)
C19B C 1.0190(6) 0.1289(2) 0.9913(2)
C20B C 0.6871(5) 0.11921(17) 1.14556(19)
H21B H 0.7400 0.1483 1.1566
C21B C 0.6992(7) 0.0837(2) 1.1944(2)
H22B H 0.7922 0.0748 1.2016
H23B H 0.6661 0.0987 1.2274
H24B H 0.6470 0.0549 1.1852
C22B C 0.5424(8) 0.1353(3) 1.1344(3)
H25B H 0.5105 0.1501 1.1677
H26B H 0.5374 0.1585 1.1040
H27B H 0.4874 0.1074 1.1242
C23B C 0.8534(3) 0.20791(10) 1.08187(12)
C24B C 0.9097(3) 0.24519(11) 1.11719(12)
C25B C 0.8636(3) 0.29234(10) 1.11189(12)
H28B H 0.8999 0.3171 1.1349
C26B C 0.7524(3) 0.21803(11) 1.04108(13)
H29B H 0.7163 0.1936 1.0176
C27B C 0.7609(3) 0.30185(10) 1.07104(12)
C28B C 0.7064(3) 0.26579(10) 1.03624(12)
C29B C 0.6955(3) 0.34841(10) 1.05517(11)
C30B C 0.6003(3) 0.28791(11) 0.99588(13)
H30B H 0.5119 0.2739 1.0009
H31B H 0.6230 0.2837 0.9570
C31B C 0.6679(3) 0.43272(10) 1.06179(11)
C32B C 0.7109(3) 0.47847(10) 1.08886(12)
C33B C 0.6356(3) 0.51542(10) 1.06129(11)
C34B C 0.5475(3) 0.49013(9) 1.01858(11)
C35B C 0.6552(3) 0.56374(10) 1.07803(12)
H32B H 0.6060 0.5889 1.0604
C36B C 0.7501(3) 0.57328(10) 1.12166(12)
C37B C 0.8267(3) 0.53569(11) 1.14848(12)
C38B C 0.8075(3) 0.48770(10) 1.13237(13)
H33B H 0.8572 0.4625 1.1498
C39B C 0.6373(6) 0.6959(3) 1.2243(2)
H34B H 0.6816 0.6658 1.2352
H35B H 0.7019 0.7220 1.2259
H36B H 0.5676 0.7027 1.2497
C40B C 0.4751(4) 0.65272(17) 1.15674(19)
H37B H 0.4050 0.6561 1.1827
H38B H 0.4369 0.6560 1.1189
H39B H 0.5165 0.6212 1.1614
C41B C 0.5786(4) 0.69147(17) 1.1680(2)
H40B H 0.5257 0.7216 1.1634
C42B C 0.6794(3) 0.69635(11) 1.12300(14)
C43B C 0.6871(4) 0.74035(13) 1.09315(18)
H41B H 0.6276 0.7655 1.1006
C44B C 0.7786(5) 0.74724(15) 1.05368(18)
H42B H 0.7800 0.7765 1.0338
C45B C 0.8700(5) 0.71073(16) 1.04292(16)
H43B H 0.9329 0.7159 1.0160
C46B C 0.8700(3) 0.66615(13) 1.07164(13)
C47B C 0.7716(3) 0.66026(10) 1.11042(12)
C48B C 0.9760(4) 0.62783(15) 1.06239(16)
H44B H 0.9668 0.6023 1.0909
C49B C 1.1180(4) 0.6477(2) 1.0697(2)
H45B H 1.1339 0.6597 1.1075
H46B H 1.1814 0.6222 1.0628
H47B H 1.1288 0.6740 1.0435
C50B C 0.9549(6) 0.6036(2) 1.0042(2)
H48B H 0.9726 0.6270 0.9754
H49B H 1.0155 0.5765 1.0019
H50B H 0.8634 0.5923 0.9991
C51B C 0.9899(4) 0.51782(12) 1.22369(14)
C52B C 0.9425(4) 0.51159(16) 1.27742(16)
C53B C 1.0144(6) 0.4811(2) 1.3145(2)
H51B H 0.9857 0.4766 1.3507
C54B C 1.1250(6) 0.45782(19) 1.2987(2)
H52B H 1.1711 0.4371 1.3242
C55B C 1.1721(5) 0.46389(17) 1.2461(2)
H53B H 1.2490 0.4472 1.2364
C56B C 1.1049(4) 0.49534(14) 1.20630(17)
C57B C 1.1580(5) 0.50492(19) 1.1495(2)
H54B H 1.0871 0.5219 1.1267
C58B C 1.1903(10) 0.4575(3) 1.1191(3)
H55B H 1.1207 0.4339 1.1247
H56B H 1.1949 0.4638 1.0795
H57B H 1.2755 0.4450 1.1339
C59B C 1.2811(7) 0.5376(3) 1.1531(3)
H58B H 1.3516 0.5224 1.1763
H59B H 1.3118 0.5428 1.1159
H60B H 1.2582 0.5684 1.1693
C60B C 0.8180(6) 0.5372(2) 1.2957(2)
H61B H 0.7540 0.5387 1.2627
C61B C 0.8469(8) 0.5868(3) 1.3128(5)
H62B H 0.8818 0.6045 1.2820
H63B H 0.7655 0.6021 1.3239
H64B H 0.9127 0.5867 1.3441
C62B C 0.7464(12) 0.5102(3) 1.3429(4)
H65B H 0.6849 0.5321 1.3598
H66B H 0.6972 0.4827 1.3271
H67B H 0.8125 0.4989 1.3710
C63B C 1.0449(14) 0.1203(5) 0.9333(4)
H68B H 1.0878 0.0891 0.9298
H69B H 0.9612 0.1205 0.9109
H70B H 1.1031 0.1454 0.9203
C64B C 1.1596(10) 0.1195(5) 1.0286(5)
H71B H 1.2320 0.1363 1.0116
H72B H 1.1512 0.1317 1.0662
H73B H 1.1785 0.0851 1.0300
H74B H 1.035(6) 0.155(2) 1.001(3)
N1B N 0.6054(2) 0.33930(8) 1.01245(10)
H75B H 0.5554 0.3615 0.9963
N2B N 0.7276(2) 0.38991(8) 1.07992(10)
N3B N 0.5734(2) 0.43946(8) 1.02107(10)
O1B O 0.9087(3) 0.16270(8) 1.09145(10)
O2B O 1.0096(2) 0.22965(8) 1.15520(9)
O3B O 0.7733(2) 0.61899(7) 1.14474(8)
O4B O 0.9222(2) 0.55163(8) 1.18868(9)
C67 C 0.3228(4) 0.62288(17) 0.79087(18)
H82 H 0.3046 0.6202 0.8309
Cl1 Cl 0.38512(13) 0.68205(5) 0.77921(6)
Cl2 Cl 0.17216(12) 0.61333(5) 0.75171(6)
Cl3 Cl 0.44450(16) 0.57970(6) 0.77643(10)
C68 C 0.4452(7) 0.6122(2) 0.5796(3)
H83 H 0.3658 0.5951 0.5628
Cl4 Cl 0.3923(4) 0.65494(12) 0.62455(17)
Cl5 Cl 0.5241(2) 0.64358(10) 0.52583(9)
Cl6 Cl 0.5548(3) 0.56946(11) 0.60946(18)
C65? C 0.041(2) 0.8573(7) 1.0720(7)
H76? H 0.0907 0.8846 1.0879
H77? H 0.0997 0.8296 1.0703
H78? H -0.0323 0.8497 1.0953
C66? C -0.1274(15) 0.9076(7) 1.0153(8)
H79? H -0.2025 0.8923 1.0320
H80? H -0.1564 0.9204 0.9790
H81? H -0.0937 0.9337 1.0391
loop_
_geom_bond_atom_site_label_1
_geom_bond_atom_site_label_2
_geom_bond_site_symmetry_1
_geom_bond_site_symmetry_2
C1 H1 1_555 1_555
H2 C1 1_555 1_555
H3 C1 1_555 1_555
C2 C1 1_555 1_555
H4 C2 1_555 1_555
C3 C2 1_555 1_555
H5 C3 1_555 1_555
H6 C3 1_555 1_555
H7 C3 1_555 1_555
C4 C2 1_555 1_555
C5 C4 1_555 1_555
H8 C5 1_555 1_555
C6 C5 1_555 1_555
H9 C6 1_555 1_555
C7 C6 1_555 1_555
H10 C7 1_555 1_555
C8 C7 1_555 1_555
C9 C4 1_555 1_555
C10 C8 1_555 1_555
H11 C10 1_555 1_555
C11 C10 1_555 1_555
H12 C11 1_555 1_555
H13 C11 1_555 1_555
H14 C11 1_555 1_555
C12 C10 1_555 1_555
H15 C12 1_555 1_555
H16 C12 1_555 1_555
H17 C12 1_555 1_555
C13 C14 1_555 1_555
C14 C15 1_555 1_555
C15 H18 1_555 1_555
C16 C15 1_555 1_555
H19 C16 1_555 1_555
C17 C16 1_555 1_555
H20 C17 1_555 1_555
C18 C13 1_555 1_555
C19 C14 1_555 1_555
C20 C18 1_555 1_555
H21 C20 1_555 1_555
C21 C20 1_555 1_555
H22 C21 1_555 1_555
H23 C21 1_555 1_555
H24 C21 1_555 1_555
C22 C20 1_555 1_555
H25 C22 1_555 1_555
H26 C22 1_555 1_555
H27 C22 1_555 1_555
C23 C24 1_555 1_555
C24 C25 1_555 1_555
C25 H28 1_555 1_555
C26 C23 1_555 1_555
H29 C26 1_555 1_555
C27 C25 1_555 1_555
C28 C26 1_555 1_555
C29 C27 1_555 1_555
C30 C28 1_555 1_555
H30 C30 1_555 1_555
H31 C30 1_555 1_555
C31 C32 1_555 1_555
C32 C33 1_555 1_555
C33 C34 1_555 1_555
C34 N3 1_555 1_555
C35 C33 1_555 1_555
H32 C35 1_555 1_555
C36 C35 1_555 1_555
C37 C36 1_555 1_555
C38 C32 1_555 1_555
H33 C38 1_555 1_555
C39 H34 1_555 1_555
H35 C39 1_555 1_555
H36 C39 1_555 1_555
C40 H37 1_555 1_555
H38 C40 1_555 1_555
H39 C40 1_555 1_555
C41 C39 1_555 1_555
H40 C41 1_555 1_555
C42 C41 1_555 1_555
C43 C42 1_555 1_555
H41 C43 1_555 1_555
C44 C43 1_555 1_555
H42 C44 1_555 1_555
C45 C44 1_555 1_555
H43 C45 1_555 1_555
C46 C45 1_555 1_555
C47 C42 1_555 1_555
C48 C46 1_555 1_555
H44 C48 1_555 1_555
C49 C48 1_555 1_555
H45 C49 1_555 1_555
H46 C49 1_555 1_555
H47 C49 1_555 1_555
C50 C48 1_555 1_555
H48 C50 1_555 1_555
H49 C50 1_555 1_555
H50 C50 1_555 1_555
C51 C52 1_555 1_555
C52 C53 1_555 1_555
C53 H51 1_555 1_555
C54 C53 1_555 1_555
H52 C54 1_555 1_555
C55 C54 1_555 1_555
H53 C55 1_555 1_555
C56 C51 1_555 1_555
C57 C56 1_555 1_555
H54 C57 1_555 1_555
C58 C57 1_555 1_555
H55 C58 1_555 1_555
H56 C58 1_555 1_555
H57 C58 1_555 1_555
C59 C57 1_555 1_555
H58 C59 1_555 1_555
H59 C59 1_555 1_555
H60 C59 1_555 1_555
C60 C52 1_555 1_555
H61 C60 1_555 1_555
C61 C60 1_555 1_555
H62 C61 1_555 1_555
H63 C61 1_555 1_555
H64 C61 1_555 1_555
C62 C60 1_555 1_555
H65 C62 1_555 1_555
H66 C62 1_555 1_555
H67 C62 1_555 1_555
C63 C19 1_555 1_555
H68 C63 1_555 1_555
H69 C63 1_555 1_555
H70 C63 1_555 1_555
C64 C19 1_555 1_555
H71 C64 1_555 1_555
H72 C64 1_555 1_555
H73 C64 1_555 1_555
H74 C19 1_555 1_555
N1 C29 1_555 1_555
H75 N1 1_555 1_555
N2 C29 1_555 1_555
N3 C31 1_555 1_555
O1 C13 1_555 1_555
O2 C9 1_555 1_555
O3 C36 1_555 1_555
O4 C37 1_555 1_555
C67 H82 1_555 1_555
Cl1 C67 1_555 1_555
Cl2 C67 1_555 1_555
Cl3 C67 1_555 1_555
C68 H83 1_555 1_555
Cl4 C68 1_555 1_555
Cl5 C68 1_555 1_555
Cl6 C68 1_555 1_555
C1B H1B 1_555 1_555
H2B C1B 1_555 1_555
H3B C1B 1_555 1_555
C2B C1B 1_555 1_555
H4B C2B 1_555 1_555
C3B C2B 1_555 1_555
H5B C3B 1_555 1_555
H6B C3B 1_555 1_555
H7B C3B 1_555 1_555
C4B C2B 1_555 1_555
C5B C4B 1_555 1_555
H8B C5B 1_555 1_555
C6B C5B 1_555 1_555
H9B C6B 1_555 1_555
C7B C6B 1_555 1_555
H10B C7B 1_555 1_555
C8B C7B 1_555 1_555
C9B C4B 1_555 1_555
C10B C8B 1_555 1_555
H11B C10B 1_555 1_555
C11B C10B 1_555 1_555
H12B C11B 1_555 1_555
H13B C11B 1_555 1_555
H14B C11B 1_555 1_555
C12B C10B 1_555 1_555
H15B C12B 1_555 1_555
H16B C12B 1_555 1_555
H17B C12B 1_555 1_555
C13B C14B 1_555 1_555
C14B C15B 1_555 1_555
C15B H18B 1_555 1_555
C16B C15B 1_555 1_555
H19B C16B 1_555 1_555
C17B C16B 1_555 1_555
H20B C17B 1_555 1_555
C18B C13B 1_555 1_555
C19B C14B 1_555 1_555
C20B C18B 1_555 1_555
H21B C20B 1_555 1_555
C21B C20B 1_555 1_555
H22B C21B 1_555 1_555
H23B C21B 1_555 1_555
H24B C21B 1_555 1_555
C22B C20B 1_555 1_555
H25B C22B 1_555 1_555
H26B C22B 1_555 1_555
H27B C22B 1_555 1_555
C23B C24B 1_555 1_555
C24B C25B 1_555 1_555
C25B H28B 1_555 1_555
C26B C23B 1_555 1_555
H29B C26B 1_555 1_555
C27B C25B 1_555 1_555
C28B C26B 1_555 1_555
C29B C27B 1_555 1_555
C30B C28B 1_555 1_555
H30B C30B 1_555 1_555
H31B C30B 1_555 1_555
C31B C32B 1_555 1_555
C32B C33B 1_555 1_555
C33B C34B 1_555 1_555
C34B C34 1_555 1_555
C35B C33B 1_555 1_555
H32B C35B 1_555 1_555
C36B C35B 1_555 1_555
C37B C36B 1_555 1_555
C38B C32B 1_555 1_555
H33B C38B 1_555 1_555
C39B H34B 1_555 1_555
H35B C39B 1_555 1_555
H36B C39B 1_555 1_555
C40B H37B 1_555 1_555
H38B C40B 1_555 1_555
H39B C40B 1_555 1_555
C41B C39B 1_555 1_555
H40B C41B 1_555 1_555
C42B C41B 1_555 1_555
C43B C42B 1_555 1_555
H41B C43B 1_555 1_555
C44B C43B 1_555 1_555
H42B C44B 1_555 1_555
C45B C44B 1_555 1_555
H43B C45B 1_555 1_555
C46B C45B 1_555 1_555
C47B C42B 1_555 1_555
C48B C46B 1_555 1_555
H44B C48B 1_555 1_555
C49B C48B 1_555 1_555
H45B C49B 1_555 1_555
H46B C49B 1_555 1_555
H47B C49B 1_555 1_555
C50B C48B 1_555 1_555
H48B C50B 1_555 1_555
H49B C50B 1_555 1_555
H50B C50B 1_555 1_555
C51B C52B 1_555 1_555
C52B C53B 1_555 1_555
C53B H51B 1_555 1_555
C54B C53B 1_555 1_555
H52B C54B 1_555 1_555
C55B C54B 1_555 1_555
H53B C55B 1_555 1_555
C56B C51B 1_555 1_555
C57B C56B 1_555 1_555
H54B C57B 1_555 1_555
C58B C57B 1_555 1_555
H55B C58B 1_555 1_555
H56B C58B 1_555 1_555
H57B C58B 1_555 1_555
C59B C57B 1_555 1_555
H58B C59B 1_555 1_555
H59B C59B 1_555 1_555
H60B C59B 1_555 1_555
C60B C52B 1_555 1_555
H61B C60B 1_555 1_555
C61B C60B 1_555 1_555
H62B C61B 1_555 1_555
H63B C61B 1_555 1_555
H64B C61B 1_555 1_555
C62B C60B 1_555 1_555
H65B C62B 1_555 1_555
H66B C62B 1_555 1_555
H67B C62B 1_555 1_555
C63B C19B 1_555 1_555
H68B C63B 1_555 1_555
H69B C63B 1_555 1_555
H70B C63B 1_555 1_555
C64B C19B 1_555 1_555
H71B C64B 1_555 1_555
H72B C64B 1_555 1_555
H73B C64B 1_555 1_555
H74B C19B 1_555 1_555
N1B C29B 1_555 1_555
H75B N1B 1_555 1_555
N2B C29B 1_555 1_555
N3B C31B 1_555 1_555
O1B C13B 1_555 1_555
O2B C9B 1_555 1_555
O3B C36B 1_555 1_555
O4B C37B 1_555 1_555
C8 C9 1_555 1_555
C17 C18 1_555 1_555
C23 O1 1_555 1_555
C24 O2 1_555 1_555
C27 C28 1_555 1_555
C30 N1 1_555 1_555
C31 N2 1_555 1_555
C37 C38 1_555 1_555
C40 C41 1_555 1_555
C46 C47 1_555 1_555
C47 O3 1_555 1_555
C51 O4 1_555 1_555
C55 C56 1_555 1_555
C8B C9B 1_555 1_555
C17B C18B 1_555 1_555
C23B O1B 1_555 1_555
C24B O2B 1_555 1_555
C27B C28B 1_555 1_555
C30B N1B 1_555 1_555
C31B N2B 1_555 1_555
C34B N3B 1_555 1_555
C37B C38B 1_555 1_555
C40B C41B 1_555 1_555
C46B C47B 1_555 1_555
C47B O3B 1_555 1_555
C51B O4B 1_555 1_555
C55B C56B 1_555 1_555

#END
