
#######################################################################
#
#                 Cambridge Crystallographic Data Centre
#                                CCDC 
#
#######################################################################
#
# If this CIF has been generated from an entry in the Cambridge 
# Structural Database, then it will include bibliographic, chemical, 
# crystal, experimental, refinement or atomic coordinate data resulting 
# from the CCDC's data processing and validation procedures.
#
#######################################################################

data_VAZKOY
_chemical_compound_source        'aerial parts of Ajuga decumbens Thunb'
_chemical_name_common            'Ajudecumin A'
_chemical_formula_moiety         'C20 H20 O5'
_chemical_name_systematic        
7,11-Dihydroxy-3,4,8,11b-tetramethyl-1,8,9,11b-tetrahydrophenanthro[3,2-b]furan-2,6-dione
_symmetry_cell_setting           orthorhombic
_symmetry_space_group_name_H-M   'P 21 21 21'
_symmetry_Int_Tables_number      19
_space_group_name_Hall           'P 2ac 2ab'
loop_
_symmetry_equiv_pos_site_id
_symmetry_equiv_pos_as_xyz
1 x,y,z
2 1/2-x,-y,1/2+z
3 1/2+x,1/2-y,-z
4 -x,1/2+y,1/2-z
_cell_length_a                   8.3030(2)
_cell_length_b                   13.9564(4)
_cell_length_c                   14.5121(4)
_cell_angle_alpha                90
_cell_angle_beta                 90
_cell_angle_gamma                90
_cell_volume                     1681.66
_exptl_crystal_colour            red
_exptl_crystal_description       block
_chemical_melting_point          '274-276 deg.C'
_cell_formula_units_Z            4
_exptl_crystal_recrystallization_method dichloromethane
loop_
_atom_site_label
_atom_site_type_symbol
_atom_site_fract_x
_atom_site_fract_y
_atom_site_fract_z
C1 C 0.6611(2) 0.28841(12) 0.75710(11)
H1 H 0.6592 0.2397 0.7095
H2 H 0.5595 0.2856 0.7901
C2 C 0.6788(3) 0.38543(12) 0.71319(12)
C3 C 0.7324(3) 0.46563(12) 0.77173(13)
C4 C 0.7941(2) 0.44820(11) 0.85560(12)
C5 C 0.8034(2) 0.34963(11) 0.89258(11)
C6 C 0.8162(3) 0.33483(12) 0.98336(11)
H3 H 0.8264 0.3878 1.0219
C7 C 0.8148(2) 0.24051(12) 1.02447(10)
C8 C 0.7949(2) 0.15742(11) 0.96619(10)
C9 C 0.7830(2) 0.16863(10) 0.86927(10)
C10 C 0.8001(2) 0.26738(10) 0.82443(10)
C11 C 0.7671(2) 0.08702(11) 0.81464(10)
C12 C 0.7590(2) -0.00161(11) 0.85905(11)
C13 C 0.7711(2) -0.01390(11) 0.95242(11)
C14 C 0.7894(2) 0.06540(11) 1.00778(10)
C15 C 0.7715(3) -0.12019(11) 0.97396(12)
H4 H 0.6885 -0.1349 1.0199
C16 C 0.7230(3) -0.16083(12) 0.87984(12)
H5 H 0.7909 -0.2150 0.8643
H6 H 0.6119 -0.1824 0.8814
C17 C 0.9349(3) -0.15580(17) 1.00706(17)
H7 H 0.9615 -0.1253 1.0644
H8 H 1.0155 -0.1406 0.9619
H9 H 0.9309 -0.2239 1.0157
C18 C 0.7167(4) 0.56387(15) 0.72946(18)
H10 H 0.8078 0.5760 0.6904
H11 H 0.7128 0.6112 0.7774
H12 H 0.6197 0.5670 0.6936
C19 C 0.8568(3) 0.52792(13) 0.91604(15)
H13 H 0.8856 0.5818 0.8784
H14 H 0.9500 0.5060 0.9491
H15 H 0.7748 0.5466 0.9590
C20 C 0.9619(2) 0.26904(13) 0.77164(13)
H16 H 1.0483 0.2549 0.8134
H17 H 0.9782 0.3314 0.7452
H18 H 0.9597 0.2219 0.7235
O1 O 0.6491(2) 0.39737(11) 0.63209(9)
O2 O 0.8286(2) 0.23321(9) 1.11030(8)
O3 O 0.7622(2) 0.09327(8) 0.72077(8)
H19 H 0.7536 0.0394 0.6987
O4 O 0.8017(2) 0.05483(9) 1.10030(8)
H20 H 0.8062 0.1078 1.1247
O5 O 0.74205(18) -0.08490(8) 0.81125(8)
loop_
_geom_bond_atom_site_label_1
_geom_bond_atom_site_label_2
_geom_bond_site_symmetry_1
_geom_bond_site_symmetry_2
C1 H1 1_555 1_555
H2 C1 1_555 1_555
C2 C1 1_555 1_555
C3 C2 1_555 1_555
C4 C3 1_555 1_555
C5 C4 1_555 1_555
C6 C5 1_555 1_555
H3 C6 1_555 1_555
C7 C6 1_555 1_555
C8 C7 1_555 1_555
C9 C8 1_555 1_555
C10 C1 1_555 1_555
C11 C9 1_555 1_555
C12 C11 1_555 1_555
C13 C12 1_555 1_555
C14 C8 1_555 1_555
C15 C13 1_555 1_555
H4 C15 1_555 1_555
C16 C15 1_555 1_555
H5 C16 1_555 1_555
H6 C16 1_555 1_555
C17 C15 1_555 1_555
H7 C17 1_555 1_555
H8 C17 1_555 1_555
H9 C17 1_555 1_555
C18 C3 1_555 1_555
H10 C18 1_555 1_555
H11 C18 1_555 1_555
H12 C18 1_555 1_555
C19 C4 1_555 1_555
H13 C19 1_555 1_555
H14 C19 1_555 1_555
H15 C19 1_555 1_555
C20 C10 1_555 1_555
H16 C20 1_555 1_555
H17 C20 1_555 1_555
H18 C20 1_555 1_555
O1 C2 1_555 1_555
O2 C7 1_555 1_555
O3 C11 1_555 1_555
H19 O3 1_555 1_555
O4 C14 1_555 1_555
H20 O4 1_555 1_555
O5 C12 1_555 1_555
C5 C10 1_555 1_555
C9 C10 1_555 1_555
C13 C14 1_555 1_555
C16 O5 1_555 1_555

#END
