
#######################################################################
#
#                 Cambridge Crystallographic Data Centre
#                                CCDC 
#
#######################################################################
#
# If this CIF has been generated from an entry in the Cambridge 
# Structural Database, then it will include bibliographic, chemical, 
# crystal, experimental, refinement or atomic coordinate data resulting 
# from the CCDC's data processing and validation procedures.
#
#######################################################################

data_VAZLOY
_chemical_formula_moiety         'C23 H26 Br1 N1 O2'
_chemical_name_systematic        
9-(4-Bromophenyl)-3,3,6,6-tetramethyl-3,4,5,6,9,10-hexahydroacridine-1,8(2H,7H)-dione
_symmetry_cell_setting           orthorhombic
_symmetry_space_group_name_H-M   'P n a 21'
_symmetry_Int_Tables_number      33
_space_group_name_Hall           'P 2c -2n'
loop_
_symmetry_equiv_pos_site_id
_symmetry_equiv_pos_as_xyz
1 x,y,z
2 -x,-y,1/2+z
3 1/2+x,1/2-y,z
4 1/2-x,1/2+y,1/2+z
_cell_length_a                   14.1598(16)
_cell_length_b                   14.0629(16)
_cell_length_c                   10.8624(12)
_cell_angle_alpha                90
_cell_angle_beta                 90
_cell_angle_gamma                90
_cell_volume                     2163.01
_exptl_crystal_colour            yellow
_exptl_crystal_description       block
_chemical_melting_point          'above 574 K'
_cell_formula_units_Z            4
_exptl_crystal_recrystallization_method ethanol
loop_
_atom_site_label
_atom_site_type_symbol
_atom_site_fract_x
_atom_site_fract_y
_atom_site_fract_z
Br1 Br 0.80581(4) 0.86019(5) 0.05271(7)
O1 O 0.6134(2) 0.4835(2) 0.3398(3)
O2 O 0.76103(19) 0.7332(2) 0.6366(3)
N1 N 0.4359(2) 0.7000(3) 0.5773(4)
H1 H 0.3813(16) 0.715(3) 0.608(4)
C1 C 0.5363(3) 0.5144(3) 0.3745(4)
C2 C 0.4449(4) 0.4714(3) 0.3287(5)
H2 H 0.4565 0.4061 0.3041
H3 H 0.4241 0.5062 0.2565
C3 C 0.3663(3) 0.4728(3) 0.4247(5)
C4 C 0.3925(4) 0.4083(4) 0.5322(6)
H4 H 0.4518 0.4284 0.5663
H5 H 0.3979 0.3439 0.5037
H6 H 0.3444 0.4119 0.5943
C5 C 0.2726(4) 0.4385(4) 0.3676(6)
H7 H 0.2776 0.3723 0.3471
H8 H 0.2595 0.4745 0.2945
H9 H 0.2223 0.4474 0.4258
C6 C 0.3546(3) 0.5742(3) 0.4692(5)
H10 H 0.3221 0.6104 0.4060
H11 H 0.3148 0.5740 0.5419
C7 C 0.4451(3) 0.6238(3) 0.4997(4)
C8 C 0.5304(3) 0.5958(3) 0.4564(4)
C9 C 0.6203(3) 0.6481(3) 0.4908(4)
H12 H 0.6655 0.6011 0.5217
C10 C 0.6010(3) 0.7182(3) 0.5932(4)
C11 C 0.5125(3) 0.7435(3) 0.6280(4)
C12 C 0.4902(3) 0.8153(3) 0.7259(5)
H13 H 0.4788 0.7823 0.8029
H14 H 0.4326 0.8485 0.7037
C13 C 0.5690(3) 0.8880(3) 0.7447(5)
C14 C 0.5759(4) 0.9559(4) 0.6370(6)
H15 H 0.5922 0.9212 0.5639
H16 H 0.6237 1.0026 0.6534
H17 H 0.5162 0.9871 0.6252
C15 C 0.5499(4) 0.9446(4) 0.8623(5)
H18 H 0.4948 0.9833 0.8511
H19 H 0.6032 0.9844 0.8802
H20 H 0.5398 0.9014 0.9295
C16 C 0.6613(3) 0.8308(4) 0.7572(5)
H21 H 0.7138 0.8751 0.7585
H22 H 0.6605 0.7981 0.8358
C17 C 0.6787(3) 0.7601(3) 0.6597(4)
C18 C 0.6649(3) 0.6979(3) 0.3818(4)
C19 C 0.7558(3) 0.6763(4) 0.3432(5)
H23 H 0.7896 0.6290 0.3839
C20 C 0.7974(3) 0.7235(4) 0.2452(5)
H24 H 0.8584 0.7079 0.2209
C21 C 0.7489(4) 0.7927(4) 0.1847(5)
C22 C 0.6584(4) 0.8155(4) 0.2208(5)
H25 H 0.6253 0.8632 0.1802
C23 C 0.6172(3) 0.7673(3) 0.3177(5)
H26 H 0.5556 0.7822 0.3402
loop_
_geom_bond_atom_site_label_1
_geom_bond_atom_site_label_2
_geom_bond_site_symmetry_1
_geom_bond_site_symmetry_2
Br1 C21 1_555 1_555
O1 C1 1_555 1_555
O2 C17 1_555 1_555
N1 H1 1_555 1_555
C1 C2 1_555 1_555
C2 H2 1_555 1_555
H3 C2 1_555 1_555
C3 C2 1_555 1_555
C4 C3 1_555 1_555
H4 C4 1_555 1_555
H5 C4 1_555 1_555
H6 C4 1_555 1_555
C5 C3 1_555 1_555
H7 C5 1_555 1_555
H8 C5 1_555 1_555
H9 C5 1_555 1_555
C6 C3 1_555 1_555
H10 C6 1_555 1_555
H11 C6 1_555 1_555
C7 N1 1_555 1_555
C8 C1 1_555 1_555
C9 C8 1_555 1_555
H12 C9 1_555 1_555
C10 C9 1_555 1_555
C11 N1 1_555 1_555
C12 C11 1_555 1_555
H13 C12 1_555 1_555
H14 C12 1_555 1_555
C13 C12 1_555 1_555
C14 C13 1_555 1_555
H15 C14 1_555 1_555
H16 C14 1_555 1_555
H17 C14 1_555 1_555
C15 C13 1_555 1_555
H18 C15 1_555 1_555
H19 C15 1_555 1_555
H20 C15 1_555 1_555
C16 C13 1_555 1_555
H21 C16 1_555 1_555
H22 C16 1_555 1_555
C17 C10 1_555 1_555
C18 C9 1_555 1_555
C19 C18 1_555 1_555
H23 C19 1_555 1_555
C20 C19 1_555 1_555
H24 C20 1_555 1_555
C21 C20 1_555 1_555
C22 C21 1_555 1_555
H25 C22 1_555 1_555
C23 C18 1_555 1_555
H26 C23 1_555 1_555
C6 C7 1_555 1_555
C7 C8 1_555 1_555
C10 C11 1_555 1_555
C16 C17 1_555 1_555
C22 C23 1_555 1_555

#END
