
#######################################################################
#
#                 Cambridge Crystallographic Data Centre
#                                CCDC 
#
#######################################################################
#
# If this CIF has been generated from an entry in the Cambridge 
# Structural Database, then it will include bibliographic, chemical, 
# crystal, experimental, refinement or atomic coordinate data resulting 
# from the CCDC's data processing and validation procedures.
#
#######################################################################

data_VAZPUK
_chemical_formula_moiety         'C27 H22 F6 O4 S2,0.5(C2 H3 N1)'
_chemical_name_systematic        
'((3,3,4,4,5,5-hexafluorocyclopent-1-ene-1,2-diyl)bis(2-methyl-1-benzothiene-3,5,6-triyl))tetramethanol acetonitrile solvate'
_symmetry_cell_setting           triclinic
_symmetry_space_group_name_H-M   'P -1'
_symmetry_Int_Tables_number      2
_space_group_name_Hall           '-P 1'
loop_
_symmetry_equiv_pos_site_id
_symmetry_equiv_pos_as_xyz
1 x,y,z
2 -x,-y,-z
_cell_length_a                   9.2831(18)
_cell_length_b                   13.835(3)
_cell_length_c                   21.727(4)
_cell_angle_alpha                101.007(5)
_cell_angle_beta                 98.537(5)
_cell_angle_gamma                98.122(5)
_cell_volume                     2667.08
_exptl_crystal_colour            colorless
_exptl_crystal_description       prism
_cell_formula_units_Z            4
loop_
_atom_site_label
_atom_site_type_symbol
_atom_site_fract_x
_atom_site_fract_y
_atom_site_fract_z
C29 C 0.4266(4) 0.6736(3) 0.40313(17)
C30 C 0.5693(4) 0.7032(3) 0.45097(19)
C31 C 0.5938(4) 0.8169(3) 0.46902(19)
C32 C 0.4365(4) 0.8410(3) 0.45345(18)
C33 C 0.3520(4) 0.7497(3) 0.40580(16)
C34 C 0.3881(4) 0.5704(3) 0.36434(18)
C35 C 0.3086(4) 0.4926(3) 0.3822(2)
C36 C 0.4120(4) 0.4344(3) 0.28425(19)
C37 C 0.4608(5) 0.3869(3) 0.2316(2)
H32 H 0.4376 0.3161 0.2182
C38 C 0.5430(5) 0.4418(3) 0.19837(19)
C39 C 0.5768(4) 0.5481(3) 0.21869(18)
C40 C 0.5312(4) 0.5942(3) 0.27329(17)
H33 H 0.5563 0.6647 0.2877
C41 C 0.4492(4) 0.5383(3) 0.30721(18)
C42 C 0.2307(5) 0.4950(4) 0.4371(2)
H34 H 0.2513 0.4403 0.4580
H35 H 0.1239 0.4871 0.4221
H36 H 0.2653 0.5591 0.4676
C43 C 0.5957(7) 0.3885(4) 0.1412(2)
H37 H 0.6983 0.4202 0.1413
H38 H 0.5966 0.3180 0.1441
C44 C 0.6619(5) 0.6110(3) 0.1828(2)
H39 H 0.6801 0.6818 0.2060
H40 H 0.7591 0.5900 0.1810
C45 C 0.2100(4) 0.7546(2) 0.36747(17)
C46 C 0.0760(4) 0.7431(3) 0.38736(17)
C47 C 0.0537(4) 0.7775(3) 0.27725(17)
C48 C 0.0192(4) 0.7964(3) 0.21569(18)
H41 H -0.0799 0.7982 0.1978
C49 C 0.1317(4) 0.8122(3) 0.18186(18)
C50 C 0.2777(4) 0.8111(3) 0.20826(18)
C51 C 0.3111(4) 0.7939(3) 0.26925(17)
H42 H 0.4110 0.7948 0.2874
C52 C 0.1990(4) 0.7754(2) 0.30439(16)
C53 C 0.0430(4) 0.7260(3) 0.44967(18)
H43 H 0.1347 0.7221 0.4772
H44 H -0.0269 0.6632 0.4429
H45 H -0.0007 0.7815 0.4701
C54 C 0.0930(5) 0.8281(4) 0.1149(2)
H46 H 0.1525 0.8921 0.1124
H47 H 0.1237 0.7741 0.0854
C55 C 0.4010(5) 0.8264(3) 0.1712(2)
H48 H 0.3906 0.8833 0.1503
H49 H 0.4975 0.8425 0.2007
O8 O 0.5033(6) 0.3913(3) 0.08274(17)
O9 O 0.5840(5) 0.6027(3) 0.11845(18)
O10 O -0.0558(7) 0.8302(5) 0.0928(2)
O11 O 0.3965(4) 0.7372(3) 0.12368(14)
F7 F 0.5567(3) 0.6664(2) 0.50486(13)
F8 F 0.6829(3) 0.6672(2) 0.42972(14)
F9 F 0.6640(3) 0.8569(2) 0.52785(13)
F10 F 0.6768(3) 0.8526(2) 0.42933(15)
F11 F 0.3797(3) 0.8566(2) 0.50783(11)
F12 F 0.4393(3) 0.92467(18) 0.43129(13)
S3 S 0.30355(12) 0.37877(8) 0.33121(6)
S4 S -0.06709(10) 0.75484(7) 0.32848(4)
H50 H 0.5243 0.4522 0.0757
H51 H 0.5297 0.6485 0.1192
H52 H -0.0819 0.7992 0.0540
H53 H 0.3437 0.7430 0.0887
C1 C 0.1728(4) 0.8162(3) 0.69686(17)
C2 C 0.0373(4) 0.8453(3) 0.66092(19)
C3 C 0.0946(5) 0.9482(3) 0.6497(3)
C4 C 0.2332(5) 0.9872(3) 0.7005(3)
C5 C 0.2806(4) 0.8936(3) 0.7173(2)
C6 C 0.1649(4) 0.7102(3) 0.70022(17)
C7 C 0.2183(4) 0.6444(3) 0.65822(17)
C8 C 0.0776(4) 0.5576(3) 0.72747(18)
C9 C 0.0052(5) 0.4962(3) 0.7615(2)
H1 H 0.0006 0.4258 0.7508
C10 C -0.0597(5) 0.5383(3) 0.8109(2)
C11 C -0.0546(4) 0.6425(3) 0.82612(19)
C12 C 0.0159(4) 0.7035(3) 0.79191(17)
H2 H 0.0181 0.7737 0.8023
C13 C 0.0845(4) 0.6622(2) 0.74181(16)
C14 C 0.3048(6) 0.6645(3) 0.6080(2)
H3 H 0.3737 0.7281 0.6238
H4 H 0.2370 0.6683 0.5698
H5 H 0.3606 0.6104 0.5975
C15 C -0.1288(6) 0.4702(4) 0.8488(3)
H6 H -0.2287 0.4845 0.8533
H7 H -0.1398 0.3998 0.8256
C16 C -0.1247(5) 0.6904(4) 0.8801(2)
H8 H -0.1239 0.7618 0.8793
H9 H -0.2291 0.6572 0.8740
C17 C 0.4268(4) 0.8958(3) 0.7560(2)
C18 C 0.5584(4) 0.9036(3) 0.7341(2)
C19 C 0.5920(4) 0.8917(3) 0.84880(19)
C20 C 0.6333(5) 0.8844(3) 0.9127(2)
H10 H 0.7339 0.8862 0.9301
C21 C 0.5251(5) 0.8746(3) 0.9493(2)
C22 C 0.3772(5) 0.8769(3) 0.9241(2)
C23 C 0.3384(5) 0.8851(3) 0.8616(2)
H11 H 0.2384 0.8867 0.8450
C24 C 0.4448(4) 0.8909(3) 0.8226(2)
C25 C 0.5878(5) 0.9110(4) 0.6697(2)
H12 H 0.4940 0.9062 0.6409
H13 H 0.6380 0.8563 0.6534
H14 H 0.6509 0.9752 0.6723
C26 C 0.5723(5) 0.8599(3) 1.0183(2)
H15 H 0.5317 0.9089 1.0474
H16 H 0.5230 0.7925 1.0203
C27 C 0.2805(12) 0.8586(9) 0.9747(5)
H17 H 0.2864 0.7927 0.9854
H18 H 0.3124 0.9114 1.0141
O1 O -0.0388(11) 0.4833(5) 0.9121(3)
O2 O -0.0495(4) 0.6832(3) 0.93971(16)
O3 O 0.7311(6) 0.8693(5) 1.0443(3)
H19 H 0.7457 0.8887 1.0841
O4 O 0.1377(7) 0.8617(5) 0.9454(3)
F1 F -0.0696(3) 0.8526(2) 0.69630(15)
F2 F -0.0234(3) 0.7801(2) 0.60662(13)
F3 F 0.1351(4) 0.9343(3) 0.59097(18)
F4 F -0.0055(4) 1.0074(2) 0.6494(2)
F5 F 0.3378(3) 1.0446(2) 0.68030(19)
F6 F 0.2041(3) 1.0462(2) 0.75241(17)
S1 S 0.17056(11) 0.52158(7) 0.66552(5)
S2 S 0.70645(11) 0.90267(8) 0.79370(5)
H20 H -0.0320 0.5438 0.9352
H21 H -0.0113 0.7421 0.9626
H22 H 0.0847 0.8765 0.9742
H23? H -0.1962 0.5055 0.8724
H24? H -0.1899 0.4108 0.8186
H25? H 0.6767 0.8506 1.0267
H26? H 0.5564 0.9161 1.0509
C28? C 0.2398(11) 0.8804(8) 0.9558(5)
H27? H 0.1916 0.8105 0.9522
H28? H 0.2748 0.9098 1.0018
O5? O -0.032(3) 0.4378(13) 0.8916(8)
O6? O 0.4672(7) 0.7661(4) 1.0148(3)
H29? H 0.4136 0.7440 0.9781
O7? O 0.1294(6) 0.9328(5) 0.9335(3)
H30? H 0.0100 0.4008 0.8734
H31? H 0.1669 0.9788 0.9169
H54? H 0.7627 0.5946 0.1855
H55? H 0.6139 0.5923 0.1374
H56? H -0.0127 0.8339 0.1057
H57? H 0.1529 0.8910 0.1109
O12? O 0.6734(19) 0.7062(13) 0.2020(7)
O13? O 0.1194(8) 0.7510(6) 0.0729(3)
H58? H 0.6329 0.7319 0.1694
H59? H 0.0362 0.7126 0.0543
loop_
_geom_bond_atom_site_label_1
_geom_bond_atom_site_label_2
_geom_bond_site_symmetry_1
_geom_bond_site_symmetry_2
C1 C2 1_555 1_555
C2 C3 1_555 1_555
C3 C4 1_555 1_555
C4 C5 1_555 1_555
C5 C1 1_555 1_555
C6 C1 1_555 1_555
C7 C6 1_555 1_555
C8 C9 1_555 1_555
C9 H1 1_555 1_555
C10 C9 1_555 1_555
C11 C10 1_555 1_555
C12 C11 1_555 1_555
H2 C12 1_555 1_555
C13 C6 1_555 1_555
C14 C7 1_555 1_555
H3 C14 1_555 1_555
H4 C14 1_555 1_555
H5 C14 1_555 1_555
C15 C10 1_555 1_555
H6 C15 1_555 1_555
H7 C15 1_555 1_555
C16 C11 1_555 1_555
H8 C16 1_555 1_555
H9 C16 1_555 1_555
C17 C5 1_555 1_555
C18 C17 1_555 1_555
C19 C20 1_555 1_555
C20 H10 1_555 1_555
C21 C20 1_555 1_555
C22 C21 1_555 1_555
C23 C22 1_555 1_555
H11 C23 1_555 1_555
C24 C17 1_555 1_555
C25 C18 1_555 1_555
H12 C25 1_555 1_555
H13 C25 1_555 1_555
H14 C25 1_555 1_555
C26 C21 1_555 1_555
H15 C26 1_555 1_555
H16 C26 1_555 1_555
C27 C22 1_555 1_555
H17 C27 1_555 1_555
H18 C27 1_555 1_555
O1 C15 1_555 1_555
O2 C16 1_555 1_555
O3 C26 1_555 1_555
H19 O3 1_555 1_555
O4 C27 1_555 1_555
F1 C2 1_555 1_555
F2 C2 1_555 1_555
F3 C3 1_555 1_555
F4 C3 1_555 1_555
F5 C4 1_555 1_555
F6 C4 1_555 1_555
S1 C7 1_555 1_555
S2 C18 1_555 1_555
H20 O1 1_555 1_555
H21 O2 1_555 1_555
H22 O4 1_555 1_555
C29 C30 1_555 1_555
C30 C31 1_555 1_555
C31 C32 1_555 1_555
C32 C33 1_555 1_555
C33 C29 1_555 1_555
C34 C29 1_555 1_555
C35 C34 1_555 1_555
C36 C37 1_555 1_555
C37 H32 1_555 1_555
C38 C37 1_555 1_555
C39 C38 1_555 1_555
C40 C39 1_555 1_555
H33 C40 1_555 1_555
C41 C34 1_555 1_555
C42 C35 1_555 1_555
H34 C42 1_555 1_555
H35 C42 1_555 1_555
H36 C42 1_555 1_555
C43 C38 1_555 1_555
H37 C43 1_555 1_555
H38 C43 1_555 1_555
C44 C39 1_555 1_555
H39 C44 1_555 1_555
H40 C44 1_555 1_555
C45 C33 1_555 1_555
C46 C45 1_555 1_555
C47 C48 1_555 1_555
C48 H41 1_555 1_555
C49 C48 1_555 1_555
C50 C49 1_555 1_555
C51 C50 1_555 1_555
H42 C51 1_555 1_555
C52 C45 1_555 1_555
C53 C46 1_555 1_555
H43 C53 1_555 1_555
H44 C53 1_555 1_555
H45 C53 1_555 1_555
C54 C49 1_555 1_555
H46 C54 1_555 1_555
H47 C54 1_555 1_555
C55 C50 1_555 1_555
H48 C55 1_555 1_555
H49 C55 1_555 1_555
O8 C43 1_555 1_555
O9 C44 1_555 1_555
O10 C54 1_555 1_555
O11 C55 1_555 1_555
F7 C30 1_555 1_555
F8 C30 1_555 1_555
F9 C31 1_555 1_555
F10 C31 1_555 1_555
F11 C32 1_555 1_555
F12 C32 1_555 1_555
S3 C35 1_555 1_555
S4 C46 1_555 1_555
H50 O8 1_555 1_555
H51 O9 1_555 1_555
H52 O10 1_555 1_555
H53 O11 1_555 1_555
C8 C13 1_555 1_555
C8 S1 1_555 1_555
C12 C13 1_555 1_555
C19 C24 1_555 1_555
C19 S2 1_555 1_555
C23 C24 1_555 1_555
C36 C41 1_555 1_555
C36 S3 1_555 1_555
C40 C41 1_555 1_555
C47 C52 1_555 1_555
C47 S4 1_555 1_555
C51 C52 1_555 1_555

#END
