
#######################################################################
#
#                 Cambridge Crystallographic Data Centre
#                                CCDC 
#
#######################################################################
#
# If this CIF has been generated from an entry in the Cambridge 
# Structural Database, then it will include bibliographic, chemical, 
# crystal, experimental, refinement or atomic coordinate data resulting 
# from the CCDC's data processing and validation procedures.
#
#######################################################################

data_VAZYON
_chemical_compound_source        'isolated from the twigs of Croton laevigatus'
_chemical_name_common            'crolaevinoid C'
_chemical_formula_moiety         'C27 H28 O6'
_chemical_name_systematic        
'6-(furan-3-yl)-1a,1b,7a-trimethyl-4-oxo-1a,2,4,6,7,7a,7b,8,9,9a-decahydro-1bH-oxireno[5,6]naphtho[2,1-c]pyran-7-yl benzoate'
_symmetry_cell_setting           orthorhombic
_symmetry_space_group_name_H-M   'P 21 21 21'
_symmetry_Int_Tables_number      19
_space_group_name_Hall           'P 2ac 2ab'
loop_
_symmetry_equiv_pos_site_id
_symmetry_equiv_pos_as_xyz
1 x,y,z
2 1/2+x,1/2-y,-z
3 -x,1/2+y,1/2-z
4 1/2-x,-y,1/2+z
_cell_length_a                   6.36400(5)
_cell_length_b                   16.12776(11)
_cell_length_c                   21.57880(15)
_cell_angle_alpha                90
_cell_angle_beta                 90
_cell_angle_gamma                90
_cell_volume                     2214.78
_exptl_crystal_colour            colorless
_exptl_crystal_description       plate
_cell_formula_units_Z            4
loop_
_atom_site_label
_atom_site_type_symbol
_atom_site_fract_x
_atom_site_fract_y
_atom_site_fract_z
O1 O -0.42509(14) -0.81972(5) -0.12330(4)
O2 O -0.69593(13) -1.02669(5) 0.08884(3)
O3 O -0.90898(15) -0.91803(5) 0.10989(4)
O4 O -0.99207(14) -1.18544(5) 0.00408(3)
O5 O -1.11404(14) -1.19124(5) -0.09074(4)
O6 O -1.27356(15) -1.18274(6) 0.17631(4)
C1 C -1.02049(19) -1.01994(7) -0.10525(5)
C2 C -0.75272(19) -0.95736(7) 0.12094(5)
C3 C -0.73818(18) -1.04222(6) -0.02525(5)
C4 C -0.54798(18) -1.10011(7) -0.03436(5)
C5 C -0.95097(19) -0.93380(7) -0.12090(5)
C6 C -1.0063(2) -1.15736(7) 0.11173(5)
C7 C -0.6544(2) -0.87580(8) 0.21337(6)
C8 C -0.92217(18) -1.06891(7) -0.06501(5)
C9 C -0.87896(19) -1.14497(7) 0.05413(5)
C10 C -0.68472(18) -0.94924(7) -0.03742(5)
C11 C -0.46690(19) -0.92389(7) -0.01348(5)
C12 C -0.5985(2) -0.93670(7) 0.17021(5)
C13 C -0.71680(19) -0.92197(7) -0.10623(5)
C14 C -0.9307(2) -1.15472(8) 0.17446(6)
C15 C -1.2135(2) -1.17490(7) 0.11561(5)
C16 C -0.65096(19) -0.82988(7) -0.11405(5)
C17 C -0.3165(2) -0.88955(8) 0.26181(6)
C18 C -1.01555(18) -1.15196(7) -0.05316(5)
C19 C -0.5141(2) -0.85346(8) 0.25933(6)
C20 C -0.7786(2) -0.77661(8) -0.15720(6)
C21 C -0.83500(18) -1.05326(7) 0.04013(5)
C22 C -0.5919(2) -0.97191(7) -0.15464(5)
C23 C -0.2603(2) -0.94997(8) 0.21911(5)
C24 C -0.4017(2) -0.97397(7) 0.17345(5)
C25 C -1.0972(3) -1.17031(8) 0.21098(6)
C26 C -0.5204(2) -0.78777(7) -0.06738(6)
C27 C -0.4540(2) -0.82952(7) -0.00835(6)
H1 H -0.3649(2) -1.01488(7) 0.14510(5)
H2 H -0.1281(2) -0.97439(8) 0.22107(5)
H3 H -0.2214(2) -0.87323(8) 0.29217(6)
H4 H -0.5523(2) -0.81406(8) 0.28870(6)
H5 H -0.7854(2) -0.85046(8) 0.21114(6)
H6 H -1.13974(19) -1.04049(7) -0.12486(5)
H7 H -0.5945(3) -1.15673(7) -0.0341(4)
H8 H -0.4818(9) -1.0880(4) -0.0733(2)
H9 H -0.4492(7) -1.0916(4) -0.0013(2)
H10 H -0.97524(19) -0.92336(7) -0.16459(5)
H11 H -1.03318(19) -0.89419(7) -0.09731(5)
H12 H -0.74400(19) -1.17332(7) 0.05954(5)
H13 H -0.78617(18) -0.91713(7) -0.01310(5)
H14 H -0.44233(19) -0.94871(7) 0.02681(5)
H15 H -0.35947(19) -0.94380(7) -0.04169(5)
H16 H -0.7937(2) -1.14428(8) 0.18726(6)
H17 H -1.3028(2) -1.18082(7) 0.08180(5)
H18 H -0.7142(10) -0.7230(2) -0.1608(4)
H19 H -0.7848(14) -0.8023(3) -0.19730(15)
H20 H -0.9183(5) -0.7706(6) -0.1410(3)
H21 H -0.96658(18) -1.02187(7) 0.04266(5)
H22 H -0.6409(10) -1.02821(16) -0.1550(3)
H23 H -0.6118(12) -0.9477(4) -0.19487(8)
H24 H -0.4453(3) -0.9709(5) -0.1442(2)
H25 H -1.0928(3) -1.17234(8) 0.25403(6)
H26 H -0.5357(2) -0.72737(7) -0.06529(6)
H27 H -0.5436(2) -0.81094(7) 0.02525(6)
H28 H -0.3108(2) -0.81358(7) 0.00142(6)
loop_
_geom_bond_atom_site_label_1
_geom_bond_atom_site_label_2
_geom_bond_site_symmetry_1
_geom_bond_site_symmetry_2
O1 C16 1_555 1_555
O2 C2 1_555 1_555
O3 C2 1_555 1_555
O4 C9 1_555 1_555
O5 C18 1_555 1_555
O6 C15 1_555 1_555
C1 C5 1_555 1_555
C2 C12 1_555 1_555
C3 C4 1_555 1_555
C4 H7 1_555 1_555
C5 C13 1_555 1_555
C6 C9 1_555 1_555
C7 C12 1_555 1_555
C8 C1 1_555 1_555
C9 C21 1_555 1_555
C10 C3 1_555 1_555
C11 C10 1_555 1_555
C12 C24 1_555 1_555
C13 C10 1_555 1_555
C14 C6 1_555 1_555
C15 C6 1_555 1_555
C16 C13 1_555 1_555
C17 C19 1_555 1_555
C18 O4 1_555 1_555
C19 C7 1_555 1_555
C20 C16 1_555 1_555
C21 O2 1_555 1_555
C22 C13 1_555 1_555
C23 C17 1_555 1_555
C24 C23 1_555 1_555
C25 O6 1_555 1_555
C26 O1 1_555 1_555
C27 C11 1_555 1_555
H1 C24 1_555 1_555
H2 C23 1_555 1_555
H3 C17 1_555 1_555
H4 C19 1_555 1_555
H5 C7 1_555 1_555
H6 C1 1_555 1_555
H8 C4 1_555 1_555
H9 C4 1_555 1_555
H10 C5 1_555 1_555
H11 C5 1_555 1_555
H12 C9 1_555 1_555
H13 C10 1_555 1_555
H14 C11 1_555 1_555
H15 C11 1_555 1_555
H16 C14 1_555 1_555
H17 C15 1_555 1_555
H18 C20 1_555 1_555
H19 C20 1_555 1_555
H20 C20 1_555 1_555
H21 C21 1_555 1_555
H22 C22 1_555 1_555
H23 C22 1_555 1_555
H24 C22 1_555 1_555
H25 C25 1_555 1_555
H26 C26 1_555 1_555
H27 C27 1_555 1_555
H28 C27 1_555 1_555
C3 C8 1_555 1_555
C3 C21 1_555 1_555
C8 C18 1_555 1_555
C14 C25 1_555 1_555
C16 C26 1_555 1_555
C26 C27 1_555 1_555

#END
