
#######################################################################
#
#                 Cambridge Crystallographic Data Centre
#                                CCDC 
#
#######################################################################
#
# If this CIF has been generated from an entry in the Cambridge 
# Structural Database, then it will include bibliographic, chemical, 
# crystal, experimental, refinement or atomic coordinate data resulting 
# from the CCDC's data processing and validation procedures.
#
#######################################################################

data_VEBBEM
_chemical_formula_moiety         'C22 H38 N6 4+,4(Cl1 O4 1-),0.67(H2 O1)'
_chemical_name_systematic        
'3,9-dimethyl-6-{2-[methyl(pyridinium-3-ylmethyl)ammonio]ethyl}-6,15-diaza-3,9-diazoniabicyclo[9.3.1]pentadeca-1(15),11,13-triene tetrakis(perchlorate) hydrate'
_symmetry_cell_setting           monoclinic
_symmetry_space_group_name_H-M   'P 21/c'
_symmetry_Int_Tables_number      14
_space_group_name_Hall           '-P 2ybc'
loop_
_symmetry_equiv_pos_site_id
_symmetry_equiv_pos_as_xyz
1 x,y,z
2 -x,1/2+y,1/2-z
3 -x,-y,-z
4 x,1/2-y,1/2+z
_cell_length_a                   22.8054(6)
_cell_length_b                   13.2947(3)
_cell_length_c                   11.2280(3)
_cell_angle_alpha                90
_cell_angle_beta                 101.572(3)
_cell_angle_gamma                90
_cell_volume                     3335.03
_exptl_crystal_colour            colorless
_exptl_crystal_description       block
_cell_formula_units_Z            4
_exptl_crystal_recrystallization_method water
loop_
_atom_site_label
_atom_site_type_symbol
_atom_site_fract_x
_atom_site_fract_y
_atom_site_fract_z
Cl1 Cl 0.58939(4) 0.65507(7) 0.65590(8)
O1 O 0.57361(13) 0.6971(2) 0.7632(3)
O2 O 0.59478(13) 0.7331(2) 0.5708(3)
O3 O 0.64502(15) 0.6027(3) 0.6878(3)
O4 O 0.54387(16) 0.5858(3) 0.5995(3)
Cl2 Cl 0.85222(5) 0.83219(10) 0.33215(11)
O5 O 0.8052(3) 0.8248(5) 0.3963(7)
O6 O 0.8865(4) 0.9157(7) 0.3560(12)
O7 O 0.8319(4) 0.8040(6) 0.2090(6)
O8 O 0.8920(3) 0.7434(5) 0.3787(7)
O9 O 0.7582(3) 1.0023(5) 0.1981(6)
H1 H 0.7489 1.0598 0.2220
H2 H 0.7722 0.9659 0.2594
Cl3 Cl 0.72315(7) 0.24352(9) 0.24150(13)
O14 O 0.71931(15) 0.3499(2) 0.2570(3)
O15 O 0.7312(2) 0.2265(4) 0.1198(5)
O16 O 0.6695(3) 0.1999(4) 0.2601(6)
O17 O 0.7736(3) 0.2101(5) 0.3293(6)
Cl4 Cl 0.92251(5) 0.41225(9) 0.24232(13)
O18 O 0.89250(15) 0.5052(2) 0.2530(4)
O19 O 0.88872(19) 0.3515(3) 0.1443(5)
O20 O 0.9332(4) 0.3591(5) 0.3506(6)
O21 O 0.97924(18) 0.4323(3) 0.2071(5)
N1 N 0.71977(14) 0.5244(3) 0.0755(3)
H3 H 0.7042 0.4841 0.1354
N2 N 0.71737(14) 0.5766(3) 0.3354(3)
N3 N 0.84857(15) 0.4806(3) 0.5703(3)
H4 H 0.8332 0.5072 0.6394
N4 N 0.61169(14) 0.4615(3) 0.1000(3)
N5 N 0.61531(15) 0.4338(3) 0.3383(3)
H5 H 0.6518 0.4187 0.3083
C1 C 0.66698(18) 0.5493(3) -0.0238(4)
H6 H 0.6546 0.6183 -0.0155
H7 H 0.6779 0.5421 -0.1026
C2 C 0.77652(18) 0.5833(3) 0.4182(4)
H8 H 0.7737 0.6255 0.4874
H9 H 0.8053 0.6133 0.3760
C3 C 0.74842(19) 0.6163(3) 0.1419(4)
H10 H 0.7497 0.6702 0.0842
H11 H 0.7892 0.6008 0.1817
C4 C 0.61641(17) 0.4789(3) -0.0148(4)
C5 C 0.8682(2) 0.3734(3) 0.6001(4)
H12 H 0.8345 0.3350 0.6163
H13 H 0.8805 0.3436 0.5301
C6 C 0.57734(19) 0.4381(3) -0.1136(4)
H14 H 0.5822 0.4497 -0.1928
C7 C 0.53030(18) 0.3789(3) -0.0895(4)
H15 H 0.5028 0.3511 -0.1534
C8 C 0.89903(19) 0.5468(3) 0.5526(4)
H16 H 0.9288 0.5489 0.6264
H17 H 0.8843 0.6134 0.5320
H18 H 0.9165 0.5205 0.4881
C9 C 0.56660(17) 0.4045(3) 0.1209(4)
C10 C 0.7970(2) 0.4783(3) 0.4617(4)
H19 H 0.7637 0.4422 0.4835
H20 H 0.8092 0.4420 0.3958
C11 C 0.56394(19) 0.3870(4) 0.2523(4)
H21 H 0.5268 0.4145 0.2679
H22 H 0.5638 0.3151 0.2675
C12 C 1.0097(4) 0.3478(6) 0.8972(9)
H23 H 1.0417 0.3457 0.9630
C13 C 0.71315(19) 0.6500(3) 0.2355(4)
H24 H 0.7282 0.7145 0.2685
H25 H 0.6715 0.6586 0.1965
C14 C 0.7640(2) 0.4599(3) 0.0300(4)
H26 H 0.7440 0.4024 -0.0112
H27 H 0.7942 0.4379 0.0973
H28 H 0.7824 0.4978 -0.0254
C15 C 0.52463(18) 0.3617(3) 0.0286(4)
H29 H 0.4936 0.3226 0.0457
C16 C 0.61044(19) 0.5467(4) 0.3465(4)
H30 H 0.5972 0.5742 0.2656
H31 H 0.5807 0.5635 0.3941
C17 C 0.9192(2) 0.3661(3) 0.7085(4)
C18 C 0.66958(19) 0.5938(4) 0.4043(4)
H32 H 0.6639 0.6657 0.4118
H33 H 0.6823 0.5667 0.4856
C19 C 0.9759(2) 0.3422(4) 0.6905(6)
H34 H 0.9820 0.3343 0.6116
C20 C 0.6209(2) 0.3848(4) 0.4605(4)
H35 H 0.5841 0.3928 0.4887
H36 H 0.6529 0.4159 0.5172
H37 H 0.6293 0.3145 0.4539
C21 C 0.9560(4) 0.3679(4) 0.9213(6)
H38 H 0.9503 0.3754 1.0006
C22 C 0.9100(3) 0.3768(4) 0.8242(5)
H39 H 0.8717 0.3905 0.8367
N6 N 1.0223(3) 0.3300(4) 0.7842(7)
H40 H 1.0573 0.3124 0.7742
O10? O 0.8077(5) 0.9144(11) 0.2660(10)
O11? O 0.8561(7) 0.7531(10) 0.2619(13)
O12? O 0.8391(6) 0.8142(11) 0.4411(11)
O13? O 0.9092(9) 0.8873(18) 0.3452(19)
O22? O 0.8736(10) 0.3446(15) 0.268(3)
O23? O 0.9377(18) 0.394(3) 0.149(3)
O24? O 0.9600(14) 0.396(3) 0.378(3)
loop_
_geom_bond_atom_site_label_1
_geom_bond_atom_site_label_2
_geom_bond_site_symmetry_1
_geom_bond_site_symmetry_2
Cl1 O1 1_555 1_555
O2 Cl1 1_555 1_555
O3 Cl1 1_555 1_555
O4 Cl1 1_555 1_555
Cl2 O5 1_555 1_555
O6 Cl2 1_555 1_555
O7 Cl2 1_555 1_555
O8 Cl2 1_555 1_555
O9 H1 1_555 1_555
H2 O9 1_555 1_555
Cl3 O14 1_555 1_555
O15 Cl3 1_555 1_555
O16 Cl3 1_555 1_555
O17 Cl3 1_555 1_555
Cl4 O18 1_555 1_555
O19 Cl4 1_555 1_555
O20 Cl4 1_555 1_555
O21 Cl4 1_555 1_555
N1 H3 1_555 1_555
N2 C2 1_555 1_555
N3 H4 1_555 1_555
N4 C4 1_555 1_555
N5 H5 1_555 1_555
C1 N1 1_555 1_555
H6 C1 1_555 1_555
H7 C1 1_555 1_555
C2 H8 1_555 1_555
H9 C2 1_555 1_555
C3 N1 1_555 1_555
H10 C3 1_555 1_555
H11 C3 1_555 1_555
C4 C1 1_555 1_555
C5 N3 1_555 1_555
H12 C5 1_555 1_555
H13 C5 1_555 1_555
C6 C4 1_555 1_555
H14 C6 1_555 1_555
C7 C6 1_555 1_555
H15 C7 1_555 1_555
C8 N3 1_555 1_555
H16 C8 1_555 1_555
H17 C8 1_555 1_555
H18 C8 1_555 1_555
C9 N4 1_555 1_555
C10 N3 1_555 1_555
H19 C10 1_555 1_555
H20 C10 1_555 1_555
C11 N5 1_555 1_555
H21 C11 1_555 1_555
H22 C11 1_555 1_555
C12 H23 1_555 1_555
C13 N2 1_555 1_555
H24 C13 1_555 1_555
H25 C13 1_555 1_555
C14 N1 1_555 1_555
H26 C14 1_555 1_555
H27 C14 1_555 1_555
H28 C14 1_555 1_555
C15 C7 1_555 1_555
H29 C15 1_555 1_555
C16 N5 1_555 1_555
H30 C16 1_555 1_555
H31 C16 1_555 1_555
C17 C5 1_555 1_555
C18 N2 1_555 1_555
H32 C18 1_555 1_555
H33 C18 1_555 1_555
C19 C17 1_555 1_555
H34 C19 1_555 1_555
C20 N5 1_555 1_555
H35 C20 1_555 1_555
H36 C20 1_555 1_555
H37 C20 1_555 1_555
C21 C12 1_555 1_555
H38 C21 1_555 1_555
C22 C17 1_555 1_555
H39 C22 1_555 1_555
N6 C12 1_555 1_555
H40 N6 1_555 1_555
C2 C10 1_555 1_555
C3 C13 1_555 1_555
C9 C11 1_555 1_555
C9 C15 1_555 1_555
C16 C18 1_555 1_555
C19 N6 1_555 1_555
C21 C22 1_555 1_555

#END
