
#######################################################################
#
#                 Cambridge Crystallographic Data Centre
#                                CCDC 
#
#######################################################################
#
# If this CIF has been generated from an entry in the Cambridge 
# Structural Database, then it will include bibliographic, chemical, 
# crystal, experimental, refinement or atomic coordinate data resulting 
# from the CCDC's data processing and validation procedures.
#
#######################################################################

data_VEBQEZ
_chemical_formula_moiety         'C24 H14 I2 N2'
_chemical_name_systematic        
2,7-Diiodo-9-(bis(4-pyridyl)methylene)fluorene
_symmetry_cell_setting           monoclinic
_symmetry_space_group_name_H-M   'P 21/n'
_symmetry_Int_Tables_number      14
_space_group_name_Hall           '-P 2yn'
loop_
_symmetry_equiv_pos_site_id
_symmetry_equiv_pos_as_xyz
1 x,y,z
2 1/2-x,1/2+y,1/2-z
3 -x,-y,-z
4 1/2+x,1/2-y,1/2+z
_cell_length_a                   12.903(1)
_cell_length_b                   8.684(1)
_cell_length_c                   19.495(2)
_cell_angle_alpha                90
_cell_angle_beta                 107.40(1)
_cell_angle_gamma                90
_cell_volume                     2084.45
_exptl_crystal_colour            yellow
_exptl_crystal_description       'irregular plate'
_cell_formula_units_Z            4
loop_
_atom_site_label
_atom_site_type_symbol
_atom_site_fract_x
_atom_site_fract_y
_atom_site_fract_z
I1 I 1.031127(11) 0.327467(18) 0.386371(8)
I2 I 0.332494(11) 0.173972(16) 0.593201(7)
N1 N 0.65547(16) 0.3291(2) 0.16712(10)
N2 N 0.20336(15) 0.3891(2) 0.31112(10)
C1 C 0.80763(17) 0.2952(3) 0.40606(12)
H1 H 0.793(2) 0.341(3) 0.3646(16)
C2 C 0.91786(17) 0.2707(3) 0.44076(12)
C3 C 0.95423(18) 0.2083(3) 0.50947(13)
H2 H 1.024(3) 0.196(4) 0.5277(19)
C4 C 0.87941(18) 0.1712(3) 0.54569(12)
H3 H 0.902(2) 0.130(4) 0.5895(17)
C5 C 0.67062(18) 0.1156(3) 0.60355(11)
H4 H 0.736(2) 0.078(3) 0.6373(15)
C6 C 0.57177(19) 0.1140(3) 0.61806(11)
H5 H 0.567(2) 0.080(4) 0.6646(17)
C7 C 0.47830(17) 0.1658(2) 0.56628(11)
C8 C 0.48116(17) 0.2179(2) 0.49903(11)
H6 H 0.418(2) 0.252(3) 0.4650(15)
C9 C 0.61273(16) 0.2709(2) 0.42066(10)
C10 C 0.73271(16) 0.2553(2) 0.44154(11)
C11 C 0.76945(17) 0.1954(3) 0.51174(11)
C12 C 0.67557(17) 0.1732(2) 0.53832(11)
C13 C 0.58135(16) 0.2242(2) 0.48548(10)
C14 C 0.54621(16) 0.3093(2) 0.35466(11)
C15 C 0.58387(16) 0.3178(2) 0.28964(10)
C16 C 0.59062(19) 0.4570(3) 0.25598(12)
H7 H 0.570(3) 0.548(4) 0.2729(18)
C17 C 0.6280(2) 0.4566(3) 0.19604(12)
H8 H 0.634(2) 0.548(3) 0.1730(16)
C18 C 0.6454(2) 0.1954(3) 0.19854(13)
H9 H 0.664(3) 0.108(4) 0.1756(17)
C19 C 0.6108(2) 0.1838(3) 0.25961(12)
H10 H 0.608(3) 0.088(4) 0.2812(17)
C20 C 0.42759(16) 0.3375(2) 0.33961(10)
C21 C 0.38867(18) 0.4605(2) 0.37097(11)
H11 H 0.437(2) 0.526(3) 0.4038(14)
C22 C 0.27701(18) 0.4807(3) 0.35518(12)
H12 H 0.250(2) 0.560(3) 0.3764(15)
C23 C 0.24187(18) 0.2726(3) 0.28053(12)
H13 H 0.187(3) 0.211(4) 0.2495(17)
C24 C 0.35134(17) 0.2440(3) 0.29171(11)
H14 H 0.375(2) 0.159(3) 0.2680(15)
loop_
_geom_bond_atom_site_label_1
_geom_bond_atom_site_label_2
_geom_bond_site_symmetry_1
_geom_bond_site_symmetry_2
I1 C2 1_555 1_555
I2 C7 1_555 1_555
N1 C17 1_555 1_555
N2 C22 1_555 1_555
C1 H1 1_555 1_555
C2 C1 1_555 1_555
C3 C2 1_555 1_555
H2 C3 1_555 1_555
C4 C3 1_555 1_555
H3 C4 1_555 1_555
C5 H4 1_555 1_555
C6 C5 1_555 1_555
H5 C6 1_555 1_555
C7 C6 1_555 1_555
C8 C7 1_555 1_555
H6 C8 1_555 1_555
C9 C10 1_555 1_555
C10 C1 1_555 1_555
C11 C4 1_555 1_555
C12 C5 1_555 1_555
C13 C8 1_555 1_555
C14 C9 1_555 1_555
C15 C14 1_555 1_555
C16 C15 1_555 1_555
H7 C16 1_555 1_555
C17 C16 1_555 1_555
H8 C17 1_555 1_555
C18 N1 1_555 1_555
H9 C18 1_555 1_555
C19 C15 1_555 1_555
H10 C19 1_555 1_555
C20 C14 1_555 1_555
C21 C20 1_555 1_555
H11 C21 1_555 1_555
C22 C21 1_555 1_555
H12 C22 1_555 1_555
C23 N2 1_555 1_555
H13 C23 1_555 1_555
C24 C20 1_555 1_555
H14 C24 1_555 1_555
C9 C13 1_555 1_555
C10 C11 1_555 1_555
C11 C12 1_555 1_555
C12 C13 1_555 1_555
C18 C19 1_555 1_555
C23 C24 1_555 1_555

#END
