
#######################################################################
#
#                 Cambridge Crystallographic Data Centre
#                                CCDC 
#
#######################################################################
#
# If this CIF has been generated from an entry in the Cambridge 
# Structural Database, then it will include bibliographic, chemical, 
# crystal, experimental, refinement or atomic coordinate data resulting 
# from the CCDC's data processing and validation procedures.
#
#######################################################################

data_VEBXUY
_chemical_formula_moiety         'C12 H14 Cl1 N1 O2'
_chemical_name_systematic        
(S,S)-2-amino-2-(2-chlorophenyl)-5-hydroxycyclohexan-1-one
_symmetry_cell_setting           orthorhombic
_symmetry_space_group_name_H-M   'P 21 21 21'
_symmetry_Int_Tables_number      19
_space_group_name_Hall           'P 2ac 2ab'
loop_
_symmetry_equiv_pos_site_id
_symmetry_equiv_pos_as_xyz
1 x,y,z
2 1/2-x,-y,1/2+z
3 -x,1/2+y,1/2-z
4 1/2+x,1/2-y,-z
_cell_length_a                   7.3777(5)
_cell_length_b                   7.4315(5)
_cell_length_c                   20.1273(14)
_cell_angle_alpha                90
_cell_angle_beta                 90
_cell_angle_gamma                90
_cell_volume                     1103.53
_exptl_crystal_colour            colorless
_exptl_crystal_description       Block
_cell_formula_units_Z            4
loop_
_atom_site_label
_atom_site_type_symbol
_atom_site_fract_x
_atom_site_fract_y
_atom_site_fract_z
Cl1 Cl 0.49629(12) 0.70762(10) 0.54547(3)
O1 O 0.4679(2) 0.6601(2) 0.70498(9)
O2 O 0.9947(3) 1.0103(2) 0.68066(9)
H1 H 1.064(4) 0.971(5) 0.7159(14)
N1 N 0.7887(3) 0.3891(3) 0.71084(11)
H2 H 0.859(4) 0.293(4) 0.6955(15)
H3 H 0.699(4) 0.347(4) 0.7366(14)
C1 C 0.4593(4) 0.4826(4) 0.56783(14)
C2 C 0.3169(4) 0.3965(5) 0.53523(15)
H4 H 0.248243 0.457909 0.502366
C3 C 0.2779(4) 0.2218(5) 0.55141(17)
H5 H 0.180959 0.161407 0.529764
C4 C 0.3782(4) 0.1332(5) 0.59884(17)
H6 H 0.349057 0.012784 0.610544
C5 C 0.5213(4) 0.2197(4) 0.62938(13)
H7 H 0.592531 0.155036 0.660636
C6 C 0.5651(3) 0.3987(4) 0.61596(13)
C7 C 0.7140(4) 0.4961(4) 0.65543(13)
C8 C 0.6279(4) 0.6592(4) 0.69174(13)
C9 C 0.7525(4) 0.8070(4) 0.71355(14)
H8 H 0.819604 0.767319 0.753547
H9 H 0.679486 0.913627 0.725905
C10 C 0.8887(4) 0.8606(4) 0.65947(14)
H10 H 0.817922 0.899154 0.619558
C11 C 0.9989(4) 0.6960(4) 0.64000(12)
H11 H 1.061882 0.647719 0.679600
H12 H 1.091822 0.730603 0.606894
C12 C 0.8747(4) 0.5499(4) 0.61041(14)
H13 H 0.948299 0.441326 0.601217
H14 H 0.826281 0.593664 0.567480
loop_
_geom_bond_atom_site_label_1
_geom_bond_atom_site_label_2
_geom_bond_site_symmetry_1
_geom_bond_site_symmetry_2
Cl1 C1 1_555 1_555
O1 C8 1_555 1_555
O2 H1 1_555 1_555
N1 H2 1_555 1_555
H3 N1 1_555 1_555
C1 C2 1_555 1_555
C2 H4 1_555 1_555
C3 C2 1_555 1_555
H5 C3 1_555 1_555
C4 C3 1_555 1_555
H6 C4 1_555 1_555
C5 C4 1_555 1_555
H7 C5 1_555 1_555
C6 C1 1_555 1_555
C7 N1 1_555 1_555
C8 C7 1_555 1_555
C9 C8 1_555 1_555
H8 C9 1_555 1_555
H9 C9 1_555 1_555
C10 O2 1_555 1_555
H10 C10 1_555 1_555
C11 C10 1_555 1_555
H11 C11 1_555 1_555
H12 C11 1_555 1_555
C12 C7 1_555 1_555
H13 C12 1_555 1_555
H14 C12 1_555 1_555
C5 C6 1_555 1_555
C6 C7 1_555 1_555
C9 C10 1_555 1_555
C11 C12 1_555 1_555

#END
