
#######################################################################
#
#                 Cambridge Crystallographic Data Centre
#                                CCDC 
#
#######################################################################
#
# If this CIF has been generated from an entry in the Cambridge 
# Structural Database, then it will include bibliographic, chemical, 
# crystal, experimental, refinement or atomic coordinate data resulting 
# from the CCDC's data processing and validation procedures.
#
#######################################################################

data_VECVAC
_chemical_name_common            'GSK1360707 L-tartrate'
_chemical_formula_moiety         'C14 H18 Cl2 N1 O1 1+,C4 H5 O6 1-'
_chemical_name_systematic        
'(1S,6R)-6-(3,4-Dichlorophenyl)-1-(methoxymethyl)-3-azoniabicyclo[4.1.0]heptane L-tartrate'
_chemical_properties_biological  
'serotonin, noradrenaline, dopamine uptake inhibitor'
_symmetry_cell_setting           orthorhombic
_symmetry_space_group_name_H-M   'P 21 21 21'
_symmetry_Int_Tables_number      19
_space_group_name_Hall           'P 2ac 2ab'
loop_
_symmetry_equiv_pos_site_id
_symmetry_equiv_pos_as_xyz
1 x,y,z
2 1/2-x,-y,1/2+z
3 -x,1/2+y,1/2-z
4 1/2+x,1/2-y,-z
_cell_length_a                   7.154(4)
_cell_length_b                   7.629(5)
_cell_length_c                   37.31(3)
_cell_angle_alpha                90
_cell_angle_beta                 90
_cell_angle_gamma                90
_cell_volume                     2036.3
_exptl_crystal_colour            colorless
_exptl_crystal_description       plate
_cell_formula_units_Z            4
_exptl_crystal_recrystallization_method ethanol/water
loop_
_atom_site_label
_atom_site_type_symbol
_atom_site_fract_x
_atom_site_fract_y
_atom_site_fract_z
C1 C 0.5842(6) 0.6364(6) 0.12639(10)
C2 C 0.5645(6) 0.5736(5) 0.08801(10)
N1 N 0.6151(5) 0.7115(4) 0.06204(9)
C3 C 0.5037(6) 0.8731(6) 0.06771(10)
C4 C 0.5671(6) 0.9594(5) 0.10237(10)
C5 C 0.5853(6) 0.8334(6) 0.13385(10)
C6 C 0.4217(7) 0.7236(6) 0.14420(12)
C7 C 0.7050(7) 0.5177(6) 0.14875(11)
O1 O 0.8833(5) 0.5111(4) 0.13252(8)
C8 C 1.0105(9) 0.4021(7) 0.15127(16)
C9 C 0.7139(6) 0.9010(5) 0.16267(10)
C10 C 0.6455(7) 0.9698(6) 0.19443(11)
C11 C 0.7653(8) 1.0366(7) 0.22028(11)
C12 C 0.9550(7) 1.0333(6) 0.21473(12)
C13 C 1.0237(7) 0.9667(6) 0.18310(12)
C14 C 0.9051(7) 0.9028(5) 0.15729(11)
Cl1 Cl 0.6728(3) 1.1202(3) 0.25928(4)
Cl2 Cl 1.1089(2) 1.1154(2) 0.24617(4)
H1 H 0.6460 0.4704 0.0843
H2 H 0.4337 0.5367 0.0838
H3 H 0.600(5) 0.681(5) 0.0393(4)
H4 H 0.732(2) 0.749(5) 0.0638(11)
H5 H 0.3691 0.8436 0.0692
H6 H 0.5220 0.9546 0.0474
H7 H 0.4766 1.0524 0.1088
H8 H 0.6896 1.0163 0.0982
H9 H 0.3054 0.7371 0.1301
H10 H 0.4021 0.7004 0.1700
H11 H 0.7152 0.5639 0.1735
H12 H 0.6497 0.3988 0.1498
H13 H 1.0262 0.4461 0.1758
H14 H 1.1316 0.4028 0.1390
H15 H 0.9617 0.2822 0.1520
H16 H 0.5145 0.9713 0.1986
H17 H 1.1548 0.9650 0.1791
H18 H 0.9551 0.8592 0.1354
O2 O 0.3814(4) 0.0205(3) -0.03505(7)
O3 O 0.6861(4) -0.0322(3) -0.03502(7)
C15 C 0.5415(6) 0.0682(5) -0.03975(10)
C16 C 0.5844(5) 0.2531(5) -0.05192(10)
O4 O 0.7758(4) 0.2888(3) -0.05699(7)
C17 C 0.4973(5) 0.3785(5) -0.02464(9)
O5 O 0.5570(3) 0.3407(3) 0.01054(6)
C18 C 0.5247(5) 0.5702(5) -0.03576(10)
O6 O 0.4707(4) 0.6134(3) -0.06597(7)
O7 O 0.6047(4) 0.6700(3) -0.01318(6)
H19 H 0.653(5) -0.132(2) -0.0280(9)
H20 H 0.5198 0.2720 -0.0754
H21 H 0.845(5) 0.230(5) -0.0434(8)
H22 H 0.3596 0.3563 -0.0252
H23 H 0.659(3) 0.391(5) 0.0150(10)
loop_
_geom_bond_atom_site_label_1
_geom_bond_atom_site_label_2
_geom_bond_site_symmetry_1
_geom_bond_site_symmetry_2
C1 C2 1_555 1_555
C2 N1 1_555 1_555
N1 C3 1_555 1_555
C3 C4 1_555 1_555
C4 C5 1_555 1_555
C5 C1 1_555 1_555
C6 C1 1_555 1_555
C7 C1 1_555 1_555
O1 C7 1_555 1_555
C8 O1 1_555 1_555
C9 C5 1_555 1_555
C10 C9 1_555 1_555
C11 C10 1_555 1_555
C12 C11 1_555 1_555
C13 C12 1_555 1_555
C14 C9 1_555 1_555
Cl1 C11 1_555 1_555
Cl2 C12 1_555 1_555
O2 C15 1_555 1_555
O3 C15 1_555 1_555
C15 C16 1_555 1_555
C16 O4 1_555 1_555
O4 H21 1_555 1_555
C17 C16 1_555 1_555
O5 C17 1_555 1_555
C18 C17 1_555 1_555
O6 C18 1_555 1_555
O7 C18 1_555 1_555
H1 C2 1_555 1_555
H2 C2 1_555 1_555
H3 N1 1_555 1_555
H4 N1 1_555 1_555
H5 C3 1_555 1_555
H6 C3 1_555 1_555
H7 C4 1_555 1_555
H8 C4 1_555 1_555
H9 C6 1_555 1_555
H10 C6 1_555 1_555
H11 C7 1_555 1_555
H12 C7 1_555 1_555
H13 C8 1_555 1_555
H14 C8 1_555 1_555
H15 C8 1_555 1_555
H16 C10 1_555 1_555
H17 C13 1_555 1_555
H18 C14 1_555 1_555
H19 O3 1_555 1_555
H20 C16 1_555 1_555
H22 C17 1_555 1_555
H23 O5 1_555 1_555
C5 C6 1_555 1_555
C13 C14 1_555 1_555

#END
