
#######################################################################
#
#                 Cambridge Crystallographic Data Centre
#                                CCDC 
#
#######################################################################
#
# If this CIF has been generated from an entry in the Cambridge 
# Structural Database, then it will include bibliographic, chemical, 
# crystal, experimental, refinement or atomic coordinate data resulting 
# from the CCDC's data processing and validation procedures.
#
#######################################################################

data_VEDFIW
_chemical_formula_moiety         'C28 H40 N2 O7 S1'
_chemical_name_systematic        
't-butyl 3-{1-[(t-butylsulfinyl)amino]-2-(2,2-dimethyl-4-oxo-2H,4H-1,3-dioxin-6-yl)butyl}-6-methoxy-1H-indole-1-carboxylate'
_symmetry_cell_setting           orthorhombic
_symmetry_space_group_name_H-M   'P 21 21 21'
_symmetry_Int_Tables_number      19
_space_group_name_Hall           'P 2ac 2ab'
loop_
_symmetry_equiv_pos_site_id
_symmetry_equiv_pos_as_xyz
1 x,y,z
2 1/2+x,1/2-y,-z
3 -x,1/2+y,1/2-z
4 1/2-x,-y,1/2+z
_cell_length_a                   9.6910(9)
_cell_length_b                   12.0451(10)
_cell_length_c                   25.525(2)
_cell_angle_alpha                90
_cell_angle_beta                 90
_cell_angle_gamma                90
_cell_volume                     2979.51
_exptl_crystal_colour            colorless
_exptl_crystal_description       block
_cell_formula_units_Z            4
loop_
_atom_site_label
_atom_site_type_symbol
_atom_site_fract_x
_atom_site_fract_y
_atom_site_fract_z
S1 S 0.51607(8) 0.54287(6) 0.21130(3)
O1 O 0.2318(2) 0.55101(18) 0.28628(9)
O2 O 0.9375(3) 0.1783(2) 0.45987(11)
O3 O 0.8119(2) 0.72978(18) 0.44728(9)
O4 O 0.9629(3) 0.5945(2) 0.47226(11)
O5 O 0.5731(3) 0.6564(2) 0.20825(11)
O6 O 0.1032(2) 0.5046(2) 0.21074(9)
O7 O 0.1244(3) 0.3390(3) 0.17387(10)
N1 N 0.7819(2) 0.5583(2) 0.41711(9)
N2 N 0.5772(2) 0.47483(19) 0.26353(9)
H1 H 0.6407 0.4229 0.2608
C1 C 0.0936(4) 0.6866(4) 0.24548(16)
H2 H 0.1744 0.7074 0.2246
H3 H 0.0914 0.7310 0.2776
H4 H 0.0095 0.7003 0.2252
C2 C 0.1019(3) 0.5651(3) 0.25942(13)
C3 C 0.2812(3) 0.4457(2) 0.28798(11)
C4 C 0.3927(3) 0.4310(2) 0.32834(11)
H5 H 0.4247 0.3521 0.3273
C5 C 0.5172(3) 0.5077(2) 0.31502(10)
H6 H 0.4836 0.5860 0.3125
C6 C 0.6285(3) 0.5021(2) 0.35605(11)
C7 C 0.6985(3) 0.4047(2) 0.37673(11)
C8 C 0.6898(3) 0.2898(3) 0.36685(12)
H7 H 0.6280 0.2617 0.3412
C9 C 0.7734(3) 0.2188(3) 0.39547(14)
H8 H 0.7697 0.1412 0.3888
C10 C 0.8629(3) 0.2587(3) 0.43399(13)
C11 C 1.0190(4) 0.2123(3) 0.50319(16)
H9 H 1.0926 0.2618 0.4910
H10 H 1.0599 0.1469 0.5199
H11 H 0.9609 0.2516 0.5285
C12 C 0.9068(5) 0.8013(3) 0.53042(14)
H12 H 0.8171 0.7858 0.5465
H13 H 0.9481 0.8667 0.5471
H14 H 0.9678 0.7372 0.5352
C13 C 0.8875(4) 0.8234(3) 0.47250(13)
C14 C 0.8630(3) 0.6281(3) 0.44849(12)
C15 C 0.7929(3) 0.4421(2) 0.41480(11)
C16 C 0.8750(3) 0.3707(3) 0.44454(12)
H15 H 0.9361 0.3979 0.4707
C17 C 0.6817(3) 0.5921(2) 0.38089(11)
H16 H 0.6549 0.6669 0.3747
C18 C 0.6045(3) 0.4603(3) 0.16061(11)
C19 C 0.5674(5) 0.5170(4) 0.10906(13)
H17 H 0.6060 0.5922 0.1086
H18 H 0.4668 0.5209 0.1056
H19 H 0.6057 0.4742 0.0798
C20 C 0.5469(6) 0.3427(3) 0.16329(17)
H20 H 0.5910 0.2968 0.1363
H21 H 0.4471 0.3446 0.1573
H22 H 0.5657 0.3111 0.1979
C21 C 0.7597(4) 0.4635(6) 0.16903(16)
H23 H 0.7833 0.4209 0.2005
H24 H 0.7897 0.5407 0.1734
H25 H 0.8063 0.4310 0.1386
C22 C 0.1502(3) 0.3972(3) 0.21126(14)
C23 C 0.2369(3) 0.3662(3) 0.25496(12)
H26 H 0.2623 0.2909 0.2603
C24 C -0.0154(3) 0.5262(4) 0.29416(15)
H27 H -0.1037 0.5416 0.2769
H28 H -0.0116 0.5656 0.3277
H29 H -0.0067 0.4462 0.3003
C25 C 0.3368(3) 0.4559(3) 0.38353(12)
H30 H 0.4137 0.4515 0.4090
H31 H 0.3003 0.5326 0.3843
C26 C 0.2238(4) 0.3764(5) 0.40025(17)
H32 H 0.1452 0.3832 0.3763
H33 H 0.1942 0.3945 0.4360
H34 H 0.2590 0.3002 0.3993
C27 C 0.7909(5) 0.9198(3) 0.46207(16)
H35 H 0.7794 0.9294 0.4242
H36 H 0.8298 0.9878 0.4772
H37 H 0.7009 0.9047 0.4781
C28 C 1.0249(4) 0.8392(3) 0.44488(15)
H38 H 1.0853 0.7759 0.4525
H39 H 1.0685 0.9077 0.4573
H40 H 1.0097 0.8442 0.4070
loop_
_geom_bond_atom_site_label_1
_geom_bond_atom_site_label_2
_geom_bond_site_symmetry_1
_geom_bond_site_symmetry_2
S1 O5 1_555 1_555
O1 C2 1_555 1_555
O2 C10 1_555 1_555
O3 C13 1_555 1_555
O4 C14 1_555 1_555
O6 C2 1_555 1_555
O7 C22 1_555 1_555
N1 C14 1_555 1_555
N2 S1 1_555 1_555
H1 N2 1_555 1_555
C1 H2 1_555 1_555
H3 C1 1_555 1_555
H4 C1 1_555 1_555
C2 C1 1_555 1_555
C3 O1 1_555 1_555
C4 C3 1_555 1_555
H5 C4 1_555 1_555
C5 N2 1_555 1_555
H6 C5 1_555 1_555
C6 C5 1_555 1_555
C7 C6 1_555 1_555
C8 C7 1_555 1_555
H7 C8 1_555 1_555
C9 C8 1_555 1_555
H8 C9 1_555 1_555
C10 C9 1_555 1_555
C11 O2 1_555 1_555
H9 C11 1_555 1_555
H10 C11 1_555 1_555
H11 C11 1_555 1_555
C12 H12 1_555 1_555
H13 C12 1_555 1_555
H14 C12 1_555 1_555
C13 C12 1_555 1_555
C14 O3 1_555 1_555
C15 N1 1_555 1_555
C16 C10 1_555 1_555
H15 C16 1_555 1_555
C17 N1 1_555 1_555
H16 C17 1_555 1_555
C18 S1 1_555 1_555
C19 C18 1_555 1_555
H17 C19 1_555 1_555
H18 C19 1_555 1_555
H19 C19 1_555 1_555
C20 C18 1_555 1_555
H20 C20 1_555 1_555
H21 C20 1_555 1_555
H22 C20 1_555 1_555
C21 C18 1_555 1_555
H23 C21 1_555 1_555
H24 C21 1_555 1_555
H25 C21 1_555 1_555
C22 O6 1_555 1_555
C23 C3 1_555 1_555
H26 C23 1_555 1_555
C24 C2 1_555 1_555
H27 C24 1_555 1_555
H28 C24 1_555 1_555
H29 C24 1_555 1_555
C25 C4 1_555 1_555
H30 C25 1_555 1_555
H31 C25 1_555 1_555
C26 C25 1_555 1_555
H32 C26 1_555 1_555
H33 C26 1_555 1_555
H34 C26 1_555 1_555
C27 C13 1_555 1_555
H35 C27 1_555 1_555
H36 C27 1_555 1_555
H37 C27 1_555 1_555
C28 C13 1_555 1_555
H38 C28 1_555 1_555
H39 C28 1_555 1_555
H40 C28 1_555 1_555
C4 C5 1_555 1_555
C6 C17 1_555 1_555
C7 C15 1_555 1_555
C15 C16 1_555 1_555
C22 C23 1_555 1_555

#END
