
#######################################################################
#
#                 Cambridge Crystallographic Data Centre
#                                CCDC 
#
#######################################################################
#
# If this CIF has been generated from an entry in the Cambridge 
# Structural Database, then it will include bibliographic, chemical, 
# crystal, experimental, refinement or atomic coordinate data resulting 
# from the CCDC's data processing and validation procedures.
#
#######################################################################

data_VEDTIH
_chemical_compound_source        'Guam sponge Axinyssa'
_chemical_formula_moiety         'C16 H25 N1 S1'
_chemical_name_systematic        5-Isothiocyanotopupukeanane
_symmetry_cell_setting           orthorhombic
_symmetry_space_group_name_H-M   'P 21 21 21'
_symmetry_Int_Tables_number      19
_space_group_name_Hall           'P 2ac 2ab'
loop_
_symmetry_equiv_pos_site_id
_symmetry_equiv_pos_as_xyz
1 x,y,z
2 1/2+x,1/2-y,-z
3 -x,1/2+y,1/2-z
4 1/2-x,-y,1/2+z
_cell_length_a                   9.543(2)
_cell_length_b                   10.371(2)
_cell_length_c                   15.373(3)
_cell_angle_alpha                90
_cell_angle_beta                 90
_cell_angle_gamma                90
_cell_volume                     1521.47
_exptl_crystal_colour            colorless
_chemical_melting_point          87-88deg.C
_cell_formula_units_Z            4
loop_
_atom_site_label
_atom_site_type_symbol
_atom_site_fract_x
_atom_site_fract_y
_atom_site_fract_z
C1 C 0.5995(5) -0.0364(5) 0.5319(3)
C2 C 0.6515(5) 0.0971(5) 0.5030(3)
C3 C 0.6730(5) 0.1021(4) 0.4033(3)
C4 C 0.5427(6) 0.1610(5) 0.3569(3)
C5 C 0.4488(5) 0.0458(5) 0.3301(3)
C6 C 0.5160(6) -0.0682(4) 0.3786(3)
C7 C 0.6719(5) -0.0394(4) 0.3702(3)
C8 C 0.7645(5) -0.1279(5) 0.4232(4)
C9 C 0.7179(6) -0.1325(5) 0.5183(3)
C10 C 0.4769(5) -0.0772(5) 0.4751(3)
C11 C 0.5560(7) -0.0319(6) 0.6276(4)
C12 C 0.8069(6) 0.1747(6) 0.3819(4)
C13 C 0.2901(6) 0.0710(5) 0.3451(3)
C14 C 0.2025(6) -0.0497(6) 0.3251(4)
C15 C 0.2360(6) 0.1871(6) 0.2947(4)
C16 C 0.4405(5) 0.0186(4) 0.1622(3)
N1 N 0.4660(5) 0.0219(4) 0.2370(3)
S1 S 0.4112(2) 0.0100(1) 0.0631(1)
H1 H 0.74(5) 0.11(7) 0.53(5)
H2 H 0.575 0.15(6) 0.51(4)
H3 H 0.48(5) -0.15(6) 0.35(4)
H4 H 0.57(5) 0.21(7) 0.30(5)
H5 H 0.49(6) 0.21(6) 0.39(4)
H6 H 0.86(5) -0.09(6) 0.41(5)
H7 H 0.76(5) -0.21(6) 0.39(4)
H8 H 0.68(5) -0.22(7) 0.53(4)
H9 H 0.80(5) -0.10(7) 0.56(5)
H10 H 0.39(4) -0.01(5) 0.48(6)
H11 H 0.45(5) -0.17(6) 0.49(5)
H12 H 0.71(5) -0.04(6) 0.30(5)
H13 H 0.27(5) 0.09(6) 0.40(5)
H14 H 0.48(7) 0.03(7) 0.63(5)
H15 H 0.52(6) -0.11(9) 0.64(4)
H16 H 0.64(5) 0.00(7) 0.66(6)
H17 H 0.79(6) 0.26(7) 0.40(5)
H18 H 0.89(5) 0.13(8) 0.41(5)
H19 H 0.82(5) 0.17(8) 0.31(5)
H20 H 0.23(5) -0.12(8) 0.36(5)
H21 H 0.09(5) -0.02(6) 0.33(5)
H22 H 0.21(6) -0.07(7) 0.26(5)
H23 H 0.13(5) 0.20(7) 0.31(5)
H24 H 0.29(5) 0.26(7) 0.30(5)
H25 H 0.24(6) 0.17(7) 0.22(5)
loop_
_geom_bond_atom_site_label_1
_geom_bond_atom_site_label_2
_geom_bond_site_symmetry_1
_geom_bond_site_symmetry_2
C1 C2 1_555 1_555
C2 C3 1_555 1_555
C3 C4 1_555 1_555
C4 C5 1_555 1_555
C5 C6 1_555 1_555
C6 C7 1_555 1_555
C7 C3 1_555 1_555
C8 C7 1_555 1_555
C9 C1 1_555 1_555
C10 C1 1_555 1_555
C11 C1 1_555 1_555
C12 C3 1_555 1_555
C13 C5 1_555 1_555
C14 C13 1_555 1_555
C15 C13 1_555 1_555
C16 N1 1_555 1_555
N1 C5 1_555 1_555
S1 C16 1_555 1_555
H1 C2 1_555 1_555
H2 C2 1_555 1_555
H3 C6 1_555 1_555
H4 C4 1_555 1_555
H5 C4 1_555 1_555
H6 C8 1_555 1_555
H7 C8 1_555 1_555
H8 C9 1_555 1_555
H9 C9 1_555 1_555
H10 C10 1_555 1_555
H11 C10 1_555 1_555
H12 C7 1_555 1_555
H13 C13 1_555 1_555
H14 C11 1_555 1_555
H15 C11 1_555 1_555
H16 C11 1_555 1_555
H17 C12 1_555 1_555
H18 C12 1_555 1_555
H19 C12 1_555 1_555
H20 C14 1_555 1_555
H21 C14 1_555 1_555
H22 C14 1_555 1_555
H23 C15 1_555 1_555
H24 C15 1_555 1_555
H25 C15 1_555 1_555
C6 C10 1_555 1_555
C8 C9 1_555 1_555

#END
