
#######################################################################
#
#                 Cambridge Crystallographic Data Centre
#                                CCDC 
#
#######################################################################
#
# If this CIF has been generated from an entry in the Cambridge 
# Structural Database, then it will include bibliographic, chemical, 
# crystal, experimental, refinement or atomic coordinate data resulting 
# from the CCDC's data processing and validation procedures.
#
#######################################################################

data_VEDXIO
_chemical_formula_moiety         'C20 H16 Br1 N1 O3 S1'
_chemical_name_systematic        
'ethyl 2-amino-4-benzoyl-5-(2-bromophenyl)thiophene-3-carboxylate'
_symmetry_cell_setting           monoclinic
_symmetry_space_group_name_H-M   'C 2/c'
_symmetry_Int_Tables_number      15
_space_group_name_Hall           '-C 2yn'
loop_
_symmetry_equiv_pos_site_id
_symmetry_equiv_pos_as_xyz
1 x,y,z
2 -x,y,1/2-z
3 1/2+x,1/2+y,z
4 1/2-x,1/2+y,1/2-z
5 -x,-y,-z
6 x,-y,1/2+z
7 1/2-x,1/2-y,-z
8 1/2+x,1/2-y,1/2+z
_cell_length_a                   31.62(6)
_cell_length_b                   8.854(17)
_cell_length_c                   13.34(3)
_cell_angle_alpha                90
_cell_angle_beta                 99.52(4)
_cell_angle_gamma                90
_cell_volume                     3683.28
_exptl_crystal_colour            yellow
_exptl_crystal_description       block
_chemical_melting_point          '184.0-184.1 deg.C'
_cell_formula_units_Z            8
loop_
_atom_site_label
_atom_site_type_symbol
_atom_site_fract_x
_atom_site_fract_y
_atom_site_fract_z
Br1 Br 0.728618(19) 0.30100(6) 0.74895(4)
C1 C 0.59544(12) 0.0555(4) 0.7247(3)
N1 N 0.57008(12) 0.0164(4) 0.7906(3)
H1 H 0.5434 0.0408 0.7794
H2 H 0.5804 -0.0334 0.8445
S1 S 0.64832(3) 0.00840(11) 0.74383(7)
C2 C 0.58424(11) 0.1334(4) 0.6369(3)
O1 O 0.51105(10) 0.1484(5) 0.6427(3)
C3 C 0.61975(10) 0.1545(4) 0.5859(3)
O2 O 0.53522(9) 0.2229(4) 0.5078(3)
C4 C 0.65595(11) 0.0940(4) 0.6331(2)
O3 O 0.62193(11) 0.1912(4) 0.4159(2)
C5 C 0.54055(14) 0.1686(5) 0.5984(4)
C6 C 0.49210(16) 0.2550(9) 0.4612(6)
H3 H 0.4762 0.1616 0.4474
H4 H 0.4781 0.3158 0.5065
C7 C 0.4930(3) 0.3304(14) 0.3735(7)
H5 H 0.5081 0.4240 0.3880
H6 H 0.4641 0.3507 0.3407
H7 H 0.5073 0.2701 0.3295
C8 C 0.61862(10) 0.2476(5) 0.4947(3)
C9 C 0.61570(11) 0.4090(5) 0.5030(3)
C10 C 0.60672(15) 0.4966(6) 0.4196(5)
H8 H 0.6011 0.4528 0.3554
C11 C 0.6059(2) 0.6508(9) 0.4299(8)
H9 H 0.5991 0.7110 0.3723
C12 C 0.6146(2) 0.7149(8) 0.5207(12)
H10 H 0.6142 0.8196 0.5264
C13 C 0.62374(18) 0.6316(7) 0.6026(7)
H11 H 0.6300 0.6790 0.6655
C14 C 0.62443(14) 0.4802(5) 0.5987(4)
H12 H 0.6305 0.4233 0.6580
C15 C 0.69804(10) 0.0855(4) 0.6019(3)
C16 C 0.73291(12) 0.1643(4) 0.6465(3)
C17 C 0.77219(13) 0.1478(6) 0.6158(4)
H13 H 0.7959 0.2019 0.6477
C18 C 0.77582(14) 0.0530(6) 0.5397(4)
H14 H 0.8023 0.0408 0.5189
C19 C 0.74186(15) -0.0247(5) 0.4930(4)
H15 H 0.7449 -0.0890 0.4395
C20 C 0.70333(12) -0.0105(5) 0.5229(3)
H16 H 0.6801 -0.0657 0.4900
loop_
_geom_bond_atom_site_label_1
_geom_bond_atom_site_label_2
_geom_bond_site_symmetry_1
_geom_bond_site_symmetry_2
Br1 C16 1_555 1_555
C1 N1 1_555 1_555
N1 H1 1_555 1_555
H2 N1 1_555 1_555
S1 C1 1_555 1_555
C2 C1 1_555 1_555
O1 C5 1_555 1_555
C3 C2 1_555 1_555
O2 C5 1_555 1_555
C4 S1 1_555 1_555
O3 C8 1_555 1_555
C5 C2 1_555 1_555
C6 O2 1_555 1_555
H3 C6 1_555 1_555
H4 C6 1_555 1_555
C7 C6 1_555 1_555
H5 C7 1_555 1_555
H6 C7 1_555 1_555
H7 C7 1_555 1_555
C8 C3 1_555 1_555
C9 C8 1_555 1_555
C10 C9 1_555 1_555
H8 C10 1_555 1_555
C11 C10 1_555 1_555
H9 C11 1_555 1_555
C12 C11 1_555 1_555
H10 C12 1_555 1_555
C13 C12 1_555 1_555
H11 C13 1_555 1_555
C14 C9 1_555 1_555
H12 C14 1_555 1_555
C15 C4 1_555 1_555
C16 C15 1_555 1_555
C17 C16 1_555 1_555
H13 C17 1_555 1_555
C18 C17 1_555 1_555
H14 C18 1_555 1_555
C19 C18 1_555 1_555
H15 C19 1_555 1_555
C20 C15 1_555 1_555
H16 C20 1_555 1_555
C3 C4 1_555 1_555
C13 C14 1_555 1_555
C19 C20 1_555 1_555

#END
