
#######################################################################
#
#                 Cambridge Crystallographic Data Centre
#                                CCDC 
#
#######################################################################
#
# If this CIF has been generated from an entry in the Cambridge 
# Structural Database, then it will include bibliographic, chemical, 
# crystal, experimental, refinement or atomic coordinate data resulting 
# from the CCDC's data processing and validation procedures.
#
#######################################################################

data_VEFKEX
_chemical_formula_moiety         
'C24 H30 N1 O3 1+,Br1 1-,0.5(C6 H14 O1),0.5(H2 O1)'
_chemical_name_systematic        
'8-Benzyl-3-(3-hydroxy-2-phenylpropionyloxy)-8-methyl-azoniabicyclo(3.2.1)octane bromide di-isopropyl ether hemihydrate'
_symmetry_cell_setting           monoclinic
_symmetry_space_group_name_H-M   'C 2/c'
_symmetry_Int_Tables_number      15
_space_group_name_Hall           '-C 2yn'
loop_
_symmetry_equiv_pos_site_id
_symmetry_equiv_pos_as_xyz
1 x,y,z
2 -x,y,1/2-z
3 1/2+x,1/2+y,z
4 1/2-x,1/2+y,1/2-z
5 -x,-y,-z
6 x,-y,1/2+z
7 1/2-x,1/2-y,-z
8 1/2+x,1/2-y,1/2+z
_cell_length_a                   13.8422(3)
_cell_length_b                   26.3511(7)
_cell_length_c                   13.6295(4)
_cell_angle_alpha                90.00
_cell_angle_beta                 96.485(1)
_cell_angle_gamma                90.00
_cell_volume                     4939.65
_exptl_crystal_colour            colorless
_exptl_crystal_description       prisms
_chemical_melting_point          203deg.C
_cell_formula_units_Z            8
loop_
_atom_site_label
_atom_site_type_symbol
_atom_site_fract_x
_atom_site_fract_y
_atom_site_fract_z
C1 C 0.5061(2) 0.30207(10) 0.5738(2)
H1 H 0.4612 0.3115 0.6215
H2 H 0.5151 0.3310 0.5307
H3 H 0.5689 0.2923 0.6093
N1 N 0.46480(15) 0.25826(8) 0.51285(17)
C2 C 0.52791(19) 0.23911(11) 0.4353(2)
H4 H 0.5276 0.2641 0.3800
C3 C 0.6317(2) 0.23046(11) 0.4842(2)
H5 H 0.6716 0.2169 0.4343
H6 H 0.6598 0.2635 0.5073
C4 C 0.6374(2) 0.19395(10) 0.5714(2)
H7 H 0.6989 0.2008 0.6153
C5 C 0.5524(2) 0.19791(11) 0.6326(2)
H8 H 0.5662 0.2252 0.6822
H9 H 0.5468 0.1656 0.6686
C6 C 0.4556(2) 0.20907(11) 0.5716(2)
H10 H 0.4021 0.2119 0.6149
C7 C 0.4297(2) 0.17004(11) 0.4887(2)
H11 H 0.3583 0.1674 0.4726
H12 H 0.4558 0.1361 0.5088
C8 C 0.4774(2) 0.19023(11) 0.3990(2)
H13 H 0.5250 0.1655 0.3783
H14 H 0.4277 0.1970 0.3424
O1 O 0.63895(14) 0.14121(7) 0.53765(16)
C9 C 0.7230(2) 0.12403(12) 0.5088(2)
O2 O 0.79635(15) 0.14945(7) 0.51276(16)
C10 C 0.7128(2) 0.07099(11) 0.4693(2)
H15 H 0.6433 0.0605 0.4686
C11 C 0.7374(2) 0.07179(13) 0.3632(2)
H16 H 0.8044 0.0846 0.3614
H17 H 0.7339 0.0370 0.3358
O3 O 0.66974(16) 0.10399(9) 0.30529(18)
H18 H 0.702(2) 0.1287(11) 0.289(3)
C12 C 0.7752(2) 0.03353(11) 0.5320(2)
C13 C 0.8756(2) 0.03835(11) 0.5500(2)
H19 H 0.9072 0.0664 0.5237
C14 C 0.9300(3) 0.00220(13) 0.6063(3)
H20 H 0.9986 0.0057 0.6187
C15 C 0.8843(3) -0.03874(13) 0.6443(3)
H21 H 0.9214 -0.0633 0.6832
C16 C 0.7860(4) -0.04396(14) 0.6260(3)
H22 H 0.7549 -0.0725 0.6512
C17 C 0.7317(3) -0.00825(13) 0.5714(3)
H23 H 0.6631 -0.0121 0.5603
C18 C 0.36243(19) 0.27396(11) 0.4662(2)
H24 H 0.3343 0.2458 0.4242
H25 H 0.3205 0.2790 0.5196
C19 C 0.3600(2) 0.32141(12) 0.4048(2)
C20 C 0.3406(2) 0.36774(11) 0.4468(2)
H26 H 0.3295 0.3693 0.5143
C21 C 0.3374(3) 0.41149(13) 0.3909(3)
H27 H 0.3256 0.4432 0.4206
C22 C 0.3512(3) 0.40949(13) 0.2922(3)
H28 H 0.3482 0.4396 0.2538
C23 C 0.3691(2) 0.36382(13) 0.2500(2)
H29 H 0.3795 0.3624 0.1823
C24 C 0.3722(2) 0.31970(13) 0.3051(2)
H30 H 0.3827 0.2881 0.2746
O4 O 0.4842(7) -0.0295(3) 0.0817(7)
C26 C 0.4230(10) -0.1052(5) 0.2042(10)
C27 C 0.4873(3) -0.06296(17) 0.1718(3)
C28 C 0.4258(3) -0.04990(14) 0.2376(3)
O4A O 0.5158(7) -0.0295(3) 0.4183(7)
C26A C 0.5770(10) -0.1052(5) 0.2958(10)
C27A C 0.5127(3) -0.06296(17) 0.3282(3)
C28A C 0.5742(3) -0.04990(14) 0.2624(3)
O5 O 0.5220(5) 0.0682(2) 0.1639(5)
Br1 Br 0.71242(2) 0.302746(12) 0.77333(2)
C25? C 0.5057(9) -0.0233(5) 0.1683(10)
loop_
_geom_bond_atom_site_label_1
_geom_bond_atom_site_label_2
_geom_bond_site_symmetry_1
_geom_bond_site_symmetry_2
C1 H1 1_555 1_555
H2 C1 1_555 1_555
H3 C1 1_555 1_555
N1 C1 1_555 1_555
C2 N1 1_555 1_555
H4 C2 1_555 1_555
C3 C2 1_555 1_555
H5 C3 1_555 1_555
H6 C3 1_555 1_555
C4 C3 1_555 1_555
H7 C4 1_555 1_555
C5 C4 1_555 1_555
H8 C5 1_555 1_555
H9 C5 1_555 1_555
C6 N1 1_555 1_555
H10 C6 1_555 1_555
C7 C6 1_555 1_555
H11 C7 1_555 1_555
H12 C7 1_555 1_555
C8 C2 1_555 1_555
H13 C8 1_555 1_555
H14 C8 1_555 1_555
O1 C4 1_555 1_555
C9 O1 1_555 1_555
O2 C9 1_555 1_555
C10 C9 1_555 1_555
H15 C10 1_555 1_555
C11 C10 1_555 1_555
H16 C11 1_555 1_555
H17 C11 1_555 1_555
O3 C11 1_555 1_555
H18 O3 1_555 1_555
C12 C10 1_555 1_555
C13 C12 1_555 1_555
H19 C13 1_555 1_555
C14 C13 1_555 1_555
H20 C14 1_555 1_555
C15 C14 1_555 1_555
H21 C15 1_555 1_555
C16 C15 1_555 1_555
H22 C16 1_555 1_555
C17 C12 1_555 1_555
H23 C17 1_555 1_555
C18 N1 1_555 1_555
H24 C18 1_555 1_555
H25 C18 1_555 1_555
C19 C18 1_555 1_555
C20 C19 1_555 1_555
H26 C20 1_555 1_555
C21 C20 1_555 1_555
H27 C21 1_555 1_555
C22 C21 1_555 1_555
H28 C22 1_555 1_555
C23 C22 1_555 1_555
H29 C23 1_555 1_555
C24 C19 1_555 1_555
H30 C24 1_555 1_555
O4 C27 1_555 1_555
C26 C27 1_555 1_555
C27 C28 1_555 1_555
C28 C26 1_555 1_555
O4A C27A 1_555 1_555
C26A C27A 1_555 1_555
C27A C28 1_555 1_555
C28A C27 1_555 1_555
C5 C6 1_555 1_555
C7 C8 1_555 1_555
C16 C17 1_555 1_555
C23 C24 1_555 1_555
C26A C28A 1_555 1_555
C27A C28A 1_555 1_555

#END
