
#######################################################################
#
#                 Cambridge Crystallographic Data Centre
#                                CCDC 
#
#######################################################################
#
# If this CIF has been generated from an entry in the Cambridge 
# Structural Database, then it will include bibliographic, chemical, 
# crystal, experimental, refinement or atomic coordinate data resulting 
# from the CCDC's data processing and validation procedures.
#
#######################################################################

data_VEFKIB
_chemical_name_common            
"N-(3',5'-bis(Benzyloxy)benzyl)atropinium bromide"
_chemical_formula_moiety         'C38 H42 N1 O5 1+,Br1 1-'
_chemical_name_systematic        
"8-(3',5'-bis(Benzyloxy)benzyl)-3-(3-hydroxy-2-phenylpropionyloxy)-8-methyl-azoniabicyclo(3.2.1)ocane bromide"
_symmetry_cell_setting           monoclinic
_symmetry_space_group_name_H-M   'P 21/n'
_symmetry_Int_Tables_number      14
_space_group_name_Hall           '-P 2yn'
loop_
_symmetry_equiv_pos_site_id
_symmetry_equiv_pos_as_xyz
1 x,y,z
2 1/2-x,1/2+y,1/2-z
3 -x,-y,-z
4 1/2+x,1/2-y,1/2+z
_cell_length_a                   20.2413(3)
_cell_length_b                   9.9433(2)
_cell_length_c                   33.0027(6)
_cell_angle_alpha                90.00
_cell_angle_beta                 100.979(1)
_cell_angle_gamma                90.00
_cell_volume                     6520.73
_exptl_crystal_colour            colorless
_exptl_crystal_description       blocks
_chemical_melting_point          193deg.C
_cell_formula_units_Z            8
loop_
_atom_site_label
_atom_site_type_symbol
_atom_site_fract_x
_atom_site_fract_y
_atom_site_fract_z
Br1 Br 0.090099(9) 0.609742(19) 0.208014(6)
N1 N 0.12792(7) 0.07081(14) 0.24705(4)
C1 C 0.12149(9) 0.22306(16) 0.23909(5)
H1 H 0.1094 0.2423 0.2088
C2 C 0.06899(9) 0.27908(17) 0.26146(5)
H2 H 0.0249 0.2391 0.2492
H3 H 0.0656 0.3773 0.2565
C3 C 0.08211(9) 0.25459(17) 0.30778(5)
H4 H 0.0383 0.2589 0.3175
C4 C 0.11472(9) 0.11806(17) 0.31986(6)
H5 H 0.0788 0.0496 0.3185
H6 H 0.1392 0.1227 0.3488
C5 C 0.16362(9) 0.07254(19) 0.29245(5)
H7 H 0.1829 -0.0179 0.3012
C6 C 0.21997(9) 0.17665(19) 0.29239(6)
H8 H 0.2300 0.2253 0.3190
H9 H 0.2616 0.1324 0.2876
C7 C 0.19214(9) 0.27348(18) 0.25685(5)
H10 H 0.1906 0.3666 0.2672
H11 H 0.2206 0.2719 0.2356
C8 C 0.06216(9) -0.00284(18) 0.23875(6)
H12 H 0.0427 0.0017 0.2092
H13 H 0.0312 0.0387 0.2546
H14 H 0.0696 -0.0971 0.2471
O1 O 0.12713(6) 0.35881(11) 0.32941(4)
C9 C 0.09940(10) 0.48021(18) 0.33272(5)
O2 O 0.04066(7) 0.50578(12) 0.31988(4)
C10 C 0.15051(10) 0.57995(18) 0.35491(6)
H15 H 0.1966 0.5420 0.3562
C11 C 0.14567(10) 0.71472(19) 0.33145(6)
H16 H 0.0978 0.7413 0.3239
H17 H 0.1694 0.7848 0.3500
O3 O 0.17336(7) 0.71014(16) 0.29512(4)
H18 H 0.1504(11) 0.675(2) 0.2756(6)
C12 C 0.13996(9) 0.60384(17) 0.39887(6)
C13 C 0.08060(10) 0.65903(18) 0.40674(6)
H19 H 0.0446 0.6778 0.3845
C14 C 0.07359(10) 0.68685(19) 0.44694(6)
H20 H 0.0330 0.7256 0.4520
C15 C 0.12525(12) 0.6585(2) 0.47956(6)
H21 H 0.1203 0.6776 0.5070
C16 C 0.18398(11) 0.60225(19) 0.47209(6)
H22 H 0.2195 0.5816 0.4945
C17 C 0.19136(10) 0.57572(19) 0.43190(6)
H23 H 0.2322 0.5378 0.4270
C18 C 0.17369(9) 0.00323(18) 0.22084(5)
H24 H 0.2199 0.0392 0.2293
H25 H 0.1754 -0.0945 0.2267
C19 C 0.15130(9) 0.02366(18) 0.17493(5)
C20 C 0.17356(9) 0.13603(18) 0.15652(6)
H26 H 0.2029 0.1986 0.1727
C21 C 0.15286(9) 0.15654(18) 0.11452(6)
C22 C 0.11262(9) 0.06454(18) 0.09027(6)
H27 H 0.0992 0.0791 0.0614
C23 C 0.09180(9) -0.05048(18) 0.10859(6)
C24 C 0.11020(9) -0.07120(18) 0.15102(6)
H28 H 0.0951 -0.1485 0.1635
O4 O 0.17486(7) 0.26648(12) 0.09495(4)
C25 C 0.16866(12) 0.39502(19) 0.11327(7)
H29 H 0.1827 0.3885 0.1436
H30 H 0.1211 0.4247 0.1070
C26 C 0.21191(10) 0.49536(19) 0.09671(5)
C27 C 0.26202(10) 0.4576(2) 0.07549(6)
H31 H 0.2685 0.3653 0.0699
C28 C 0.30244(11) 0.5545(2) 0.06245(6)
H32 H 0.3364 0.5284 0.0478
C29 C 0.29370(12) 0.6888(2) 0.07062(7)
H33 H 0.3224 0.7546 0.0622
C30 C 0.24328(11) 0.7271(2) 0.09097(6)
H34 H 0.2364 0.8196 0.0961
C31 C 0.20247(11) 0.63036(19) 0.10401(6)
H35 H 0.1678 0.6571 0.1181
O5 O 0.05352(6) -0.13789(12) 0.08215(4)
C32 C 0.01971(10) -0.24289(18) 0.10002(6)
H36 H -0.0124 -0.2031 0.1158
H37 H 0.0529 -0.2968 0.1192
C33 C -0.01734(9) -0.33159(18) 0.06643(6)
C34 C -0.03773(10) -0.2891(2) 0.02608(6)
H38 H -0.0274 -0.2005 0.0185
C35 C -0.07318(10) -0.3748(2) -0.00351(6)
H39 H -0.0863 -0.3450 -0.0312
C36 C -0.08942(10) -0.5028(2) 0.00719(6)
H40 H -0.1142 -0.5610 -0.0130
C37 C -0.06961(10) -0.5460(2) 0.04728(6)
H41 H -0.0809 -0.6341 0.0548
C38 C -0.03335(10) -0.46200(18) 0.07674(6)
H42 H -0.0192 -0.4933 0.1042
Br2 Br 0.599421(10) 0.628748(19) 0.220204(6)
N2 N 0.63116(7) 1.15513(14) 0.25752(4)
C39 C 0.62407(8) 1.00440(16) 0.24851(5)
H43 H 0.6125 0.9873 0.2181
C40 C 0.57041(9) 0.94810(17) 0.27010(5)
H44 H 0.5665 0.8502 0.2647
H45 H 0.5267 0.9896 0.2578
C41 C 0.58310(9) 0.97042(17) 0.31678(5)
H46 H 0.5390 0.9670 0.3262
C42 C 0.61713(9) 1.10476(17) 0.33004(6)
H47 H 0.6417 1.0968 0.3589
H48 H 0.5820 1.1744 0.3294
C43 C 0.66635(9) 1.15120(18) 0.30297(5)
H49 H 0.6858 1.2411 0.3121
C44 C 0.72248(9) 1.04686(18) 0.30279(6)
H50 H 0.7320 0.9968 0.3292
H51 H 0.7644 1.0910 0.2984
C45 C 0.69470(9) 0.95211(18) 0.26660(6)
H52 H 0.7236 0.9544 0.2456
H53 H 0.6926 0.8585 0.2765
C46 C 0.56507(8) 1.22950(17) 0.24906(6)
H54 H 0.5729 1.3250 0.2557
H55 H 0.5350 1.1919 0.2662
H56 H 0.5443 1.2200 0.2198
O6 O 0.62665(6) 0.86298(11) 0.33762(4)
C47 C 0.59633(10) 0.74365(17) 0.33980(5)
O7 O 0.53717(7) 0.72339(12) 0.32727(4)
C48 C 0.64557(10) 0.63786(17) 0.36089(6)
H57 H 0.6922 0.6658 0.3586
C49 C 0.63103(10) 0.50061(19) 0.34009(6)
H58 H 0.6477 0.4291 0.3604
H59 H 0.5817 0.4893 0.3316
O8 O 0.66132(7) 0.48460(14) 0.30511(4)
H60 H 0.6430(11) 0.532(2) 0.2854(6)
C50 C 0.64116(10) 0.63317(17) 0.40650(6)
C51 C 0.58314(11) 0.58979(19) 0.41936(6)
H61 H 0.5449 0.5634 0.3995
C52 C 0.58094(13) 0.5851(2) 0.46082(7)
H62 H 0.5412 0.5545 0.4693
C53 C 0.63533(14) 0.6239(2) 0.49004(7)
H63 H 0.6331 0.6216 0.5185
C54 C 0.69301(12) 0.6660(2) 0.47760(6)
H64 H 0.7310 0.6921 0.4977
C55 C 0.69628(10) 0.67082(19) 0.43604(6)
H65 H 0.7364 0.7000 0.4278
C56 C 0.67720(9) 1.22384(17) 0.23172(5)
H66 H 0.6800 1.3208 0.2386
H67 H 0.7230 1.1857 0.2396
C57 C 0.65441(9) 1.20905(17) 0.18562(5)
C58 C 0.61505(9) 1.30899(18) 0.16312(6)
H68 H 0.6015 1.3856 0.1767
C59 C 0.59592(9) 1.29460(17) 0.12043(6)
C60 C 0.61469(9) 1.18160(18) 0.10074(6)
H69 H 0.6010 1.1720 0.0717
C61 C 0.65357(9) 1.08248(18) 0.12351(6)
C62 C 0.67433(9) 1.09675(17) 0.16576(6)
H70 H 0.7021 1.0302 0.1811
O9 O 0.55978(6) 1.38917(12) 0.09518(4)
C63 C 0.52272(10) 1.48773(18) 0.11392(6)
H71 H 0.5516 1.5246 0.1391
H72 H 0.4830 1.4450 0.1220
C64 C 0.50047(9) 1.59926(18) 0.08354(6)
C65 C 0.50863(10) 1.7315(2) 0.09698(7)
H73 H 0.5287 1.7502 0.1248
C66 C 0.48750(12) 1.8367(2) 0.06988(8)
H74 H 0.4934 1.9272 0.0791
C67 C 0.45795(12) 1.8095(2) 0.02943(7)
H75 H 0.4431 1.8813 0.0109
C68 C 0.45000(11) 1.6790(2) 0.01594(7)
H76 H 0.4302 1.6608 -0.0120
C69 C 0.47090(10) 1.5732(2) 0.04299(6)
H77 H 0.4648 1.4830 0.0336
O10 O 0.66990(7) 0.97427(12) 0.10143(4)
C70 C 0.69614(10) 0.85867(18) 0.12516(6)
H78 H 0.6619 0.8228 0.1401
H79 H 0.7363 0.8844 0.1458
C71 C 0.71477(9) 0.75249(18) 0.09677(6)
C72 C 0.68673(10) 0.62616(19) 0.09566(7)
H80 H 0.6535 0.6075 0.1117
C73 C 0.70657(11) 0.5258(2) 0.07133(7)
H81 H 0.6869 0.4389 0.0708
C74 C 0.75485(10) 0.5520(2) 0.04788(6)
H82 H 0.7687 0.4831 0.0314
C75 C 0.78274(10) 0.6787(2) 0.04856(6)
H83 H 0.8158 0.6972 0.0324
C76 C 0.76283(10) 0.77883(19) 0.07269(6)
H84 H 0.7820 0.8661 0.0729
loop_
_geom_bond_atom_site_label_1
_geom_bond_atom_site_label_2
_geom_bond_site_symmetry_1
_geom_bond_site_symmetry_2
N1 C1 1_555 1_555
C1 H1 1_555 1_555
C2 C1 1_555 1_555
H2 C2 1_555 1_555
H3 C2 1_555 1_555
C3 C2 1_555 1_555
H4 C3 1_555 1_555
C4 C3 1_555 1_555
H5 C4 1_555 1_555
H6 C4 1_555 1_555
C5 N1 1_555 1_555
H7 C5 1_555 1_555
C6 C5 1_555 1_555
H8 C6 1_555 1_555
H9 C6 1_555 1_555
C7 C1 1_555 1_555
H10 C7 1_555 1_555
H11 C7 1_555 1_555
C8 N1 1_555 1_555
H12 C8 1_555 1_555
H13 C8 1_555 1_555
H14 C8 1_555 1_555
O1 C3 1_555 1_555
C9 O1 1_555 1_555
O2 C9 1_555 1_555
C10 C9 1_555 1_555
H15 C10 1_555 1_555
C11 C10 1_555 1_555
H16 C11 1_555 1_555
H17 C11 1_555 1_555
O3 C11 1_555 1_555
H18 O3 1_555 1_555
C12 C10 1_555 1_555
C13 C12 1_555 1_555
H19 C13 1_555 1_555
C14 C13 1_555 1_555
H20 C14 1_555 1_555
C15 C14 1_555 1_555
H21 C15 1_555 1_555
C16 C15 1_555 1_555
H22 C16 1_555 1_555
C17 C12 1_555 1_555
H23 C17 1_555 1_555
C18 N1 1_555 1_555
H24 C18 1_555 1_555
H25 C18 1_555 1_555
C19 C18 1_555 1_555
C20 C19 1_555 1_555
H26 C20 1_555 1_555
C21 C20 1_555 1_555
C22 C21 1_555 1_555
H27 C22 1_555 1_555
C23 C22 1_555 1_555
C24 C19 1_555 1_555
H28 C24 1_555 1_555
O4 C21 1_555 1_555
C25 O4 1_555 1_555
H29 C25 1_555 1_555
H30 C25 1_555 1_555
C26 C25 1_555 1_555
C27 C26 1_555 1_555
H31 C27 1_555 1_555
C28 C27 1_555 1_555
H32 C28 1_555 1_555
C29 C28 1_555 1_555
H33 C29 1_555 1_555
C30 C29 1_555 1_555
H34 C30 1_555 1_555
C31 C26 1_555 1_555
H35 C31 1_555 1_555
O5 C23 1_555 1_555
C32 O5 1_555 1_555
H36 C32 1_555 1_555
H37 C32 1_555 1_555
C33 C32 1_555 1_555
C34 C33 1_555 1_555
H38 C34 1_555 1_555
C35 C34 1_555 1_555
H39 C35 1_555 1_555
C36 C35 1_555 1_555
H40 C36 1_555 1_555
C37 C36 1_555 1_555
H41 C37 1_555 1_555
C38 C33 1_555 1_555
H42 C38 1_555 1_555
N2 C39 1_555 1_555
C39 H43 1_555 1_555
C40 C39 1_555 1_555
H44 C40 1_555 1_555
H45 C40 1_555 1_555
C41 C40 1_555 1_555
H46 C41 1_555 1_555
C42 C41 1_555 1_555
H47 C42 1_555 1_555
H48 C42 1_555 1_555
C43 N2 1_555 1_555
H49 C43 1_555 1_555
C44 C43 1_555 1_555
H50 C44 1_555 1_555
H51 C44 1_555 1_555
C45 C39 1_555 1_555
H52 C45 1_555 1_555
H53 C45 1_555 1_555
C46 N2 1_555 1_555
H54 C46 1_555 1_555
H55 C46 1_555 1_555
H56 C46 1_555 1_555
O6 C41 1_555 1_555
C47 O6 1_555 1_555
O7 C47 1_555 1_555
C48 C47 1_555 1_555
H57 C48 1_555 1_555
C49 C48 1_555 1_555
H58 C49 1_555 1_555
H59 C49 1_555 1_555
O8 C49 1_555 1_555
H60 O8 1_555 1_555
C50 C48 1_555 1_555
C51 C50 1_555 1_555
H61 C51 1_555 1_555
C52 C51 1_555 1_555
H62 C52 1_555 1_555
C53 C52 1_555 1_555
H63 C53 1_555 1_555
C54 C53 1_555 1_555
H64 C54 1_555 1_555
C55 C50 1_555 1_555
H65 C55 1_555 1_555
C56 N2 1_555 1_555
H66 C56 1_555 1_555
H67 C56 1_555 1_555
C57 C56 1_555 1_555
C58 C57 1_555 1_555
H68 C58 1_555 1_555
C59 C58 1_555 1_555
C60 C59 1_555 1_555
H69 C60 1_555 1_555
C61 C60 1_555 1_555
C62 C57 1_555 1_555
H70 C62 1_555 1_555
O9 C59 1_555 1_555
C63 O9 1_555 1_555
H71 C63 1_555 1_555
H72 C63 1_555 1_555
C64 C63 1_555 1_555
C65 C64 1_555 1_555
H73 C65 1_555 1_555
C66 C65 1_555 1_555
H74 C66 1_555 1_555
C67 C66 1_555 1_555
H75 C67 1_555 1_555
C68 C67 1_555 1_555
H76 C68 1_555 1_555
C69 C64 1_555 1_555
H77 C69 1_555 1_555
O10 C61 1_555 1_555
C70 O10 1_555 1_555
H78 C70 1_555 1_555
H79 C70 1_555 1_555
C71 C70 1_555 1_555
C72 C71 1_555 1_555
H80 C72 1_555 1_555
C73 C72 1_555 1_555
H81 C73 1_555 1_555
C74 C73 1_555 1_555
H82 C74 1_555 1_555
C75 C74 1_555 1_555
H83 C75 1_555 1_555
C76 C71 1_555 1_555
H84 C76 1_555 1_555
C4 C5 1_555 1_555
C6 C7 1_555 1_555
C16 C17 1_555 1_555
C23 C24 1_555 1_555
C30 C31 1_555 1_555
C37 C38 1_555 1_555
C42 C43 1_555 1_555
C44 C45 1_555 1_555
C54 C55 1_555 1_555
C61 C62 1_555 1_555
C68 C69 1_555 1_555
C75 C76 1_555 1_555

#END
