
#######################################################################
#
#                 Cambridge Crystallographic Data Centre
#                                CCDC 
#
#######################################################################
#
# If this CIF has been generated from an entry in the Cambridge 
# Structural Database, then it will include bibliographic, chemical, 
# crystal, experimental, refinement or atomic coordinate data resulting 
# from the CCDC's data processing and validation procedures.
#
#######################################################################

data_VEFNIG
_chemical_formula_moiety         'C20 H22 N2 O1'
_chemical_name_systematic        
11-(2,2-dimethylpropyl)-10,11-dihydrobenzo[h]pyrrolo[2,1-b]quinazolin-7(9H)-one
_symmetry_cell_setting           monoclinic
_symmetry_space_group_name_H-M   'C 2/c'
_symmetry_Int_Tables_number      15
_space_group_name_Hall           '-C 2yn'
loop_
_symmetry_equiv_pos_site_id
_symmetry_equiv_pos_as_xyz
1 x,y,z
2 -x,y,1/2-z
3 1/2+x,1/2+y,z
4 1/2-x,1/2+y,1/2-z
5 -x,-y,-z
6 x,-y,1/2+z
7 1/2-x,1/2-y,-z
8 1/2+x,1/2-y,1/2+z
_cell_length_a                   21.107(3)
_cell_length_b                   7.3437(11)
_cell_length_c                   21.914(3)
_cell_angle_alpha                90
_cell_angle_beta                 101.993(5)
_cell_angle_gamma                90
_cell_volume                     3322.61
_cell_formula_units_Z            8
loop_
_atom_site_label
_atom_site_type_symbol
_atom_site_fract_x
_atom_site_fract_y
_atom_site_fract_z
C1 C 0.43012(13) 0.1454(4) 0.43246(13)
C2 C 0.36548(14) 0.0819(4) 0.41908(14)
H1 H 0.3479 0.0373 0.3795
C3 C 0.32823(14) 0.0846(4) 0.46338(15)
H2 H 0.2860 0.0411 0.4539
C4 C 0.35413(14) 0.1535(4) 0.52304(14)
H3 H 0.3286 0.1570 0.5528
C5 C 0.41666(13) 0.2157(4) 0.53792(14)
H4 H 0.4332 0.2606 0.5777
C6 C 0.45598(13) 0.2118(4) 0.49321(13)
C7 C 0.52220(12) 0.2737(4) 0.50807(12)
C8 C 0.55882(13) 0.2719(4) 0.46168(13)
C9 C 0.53166(14) 0.2049(4) 0.40101(13)
H5 H 0.5565 0.2043 0.3705
C10 C 0.46996(14) 0.1419(4) 0.38716(13)
H6 H 0.4533 0.0956 0.3476
C11 C 0.62608(13) 0.3324(4) 0.47647(13)
C12 C 0.71354(13) 0.4309(4) 0.56662(13)
H7 H 0.7228 0.5534 0.5544
H8 H 0.7445 0.3473 0.5549
C13 C 0.71450(14) 0.4202(5) 0.63584(14)
H9 H 0.7321 0.3042 0.6525
H10 H 0.7411 0.5169 0.6579
C14 C 0.64529(14) 0.4402(5) 0.64356(14)
H11 H 0.6374 0.5715 0.6451
C15 C 0.60719(13) 0.3764(4) 0.58089(13)
C16 C 0.62131(16) 0.3602(6) 0.69707(15)
H12 H 0.6333 0.2326 0.6991
H13 H 0.5744 0.3645 0.6861
C17 C 0.64104(15) 0.4348(5) 0.76254(14)
C18 C 0.6222(2) 0.6408(6) 0.76295(19)
H14 H 0.5766 0.6542 0.7468
H15 H 0.6458 0.7083 0.7374
H16 H 0.6328 0.6863 0.8049
C19 C 0.71372(16) 0.4251(5) 0.78804(15)
H17 H 0.7231 0.4621 0.8310
H18 H 0.7355 0.5046 0.7644
H19 H 0.7284 0.3024 0.7849
C20 C 0.6083(2) 0.3367(9) 0.8066(2)
H20 H 0.6108 0.2079 0.8000
H21 H 0.5637 0.3731 0.7995
H22 H 0.6292 0.3657 0.8486
N1 N 0.64667(10) 0.3774(3) 0.53871(11)
N2 N 0.54686(11) 0.3302(3) 0.56862(10)
O1 O 0.66313(9) 0.3423(3) 0.43994(9)
loop_
_geom_bond_atom_site_label_1
_geom_bond_atom_site_label_2
_geom_bond_site_symmetry_1
_geom_bond_site_symmetry_2
C1 C2 1_555 1_555
C2 H1 1_555 1_555
C3 C2 1_555 1_555
H2 C3 1_555 1_555
C4 C3 1_555 1_555
H3 C4 1_555 1_555
C5 C4 1_555 1_555
H4 C5 1_555 1_555
C6 C1 1_555 1_555
C7 C6 1_555 1_555
C8 C7 1_555 1_555
C9 C8 1_555 1_555
H5 C9 1_555 1_555
C10 C1 1_555 1_555
H6 C10 1_555 1_555
C11 C8 1_555 1_555
C12 H7 1_555 1_555
H8 C12 1_555 1_555
C13 C12 1_555 1_555
H9 C13 1_555 1_555
H10 C13 1_555 1_555
C14 C13 1_555 1_555
H11 C14 1_555 1_555
C15 C14 1_555 1_555
C16 C14 1_555 1_555
H12 C16 1_555 1_555
H13 C16 1_555 1_555
C17 C16 1_555 1_555
C18 C17 1_555 1_555
H14 C18 1_555 1_555
H15 C18 1_555 1_555
H16 C18 1_555 1_555
C19 C17 1_555 1_555
H17 C19 1_555 1_555
H18 C19 1_555 1_555
H19 C19 1_555 1_555
C20 C17 1_555 1_555
H20 C20 1_555 1_555
H21 C20 1_555 1_555
H22 C20 1_555 1_555
N1 C11 1_555 1_555
N2 C7 1_555 1_555
O1 C11 1_555 1_555
C5 C6 1_555 1_555
C9 C10 1_555 1_555
C12 N1 1_555 1_555
C15 N1 1_555 1_555
C15 N2 1_555 1_555

#END
