
#######################################################################
#
#                 Cambridge Crystallographic Data Centre
#                                CCDC 
#
#######################################################################
#
# If this CIF has been generated from an entry in the Cambridge 
# Structural Database, then it will include bibliographic, chemical, 
# crystal, experimental, refinement or atomic coordinate data resulting 
# from the CCDC's data processing and validation procedures.
#
#######################################################################

data_VEFQAA
_chemical_formula_moiety         'C24 H24 N2'
_chemical_name_systematic        
5-(3,4-Dimethylphenyl)-3-(4-methylphenyl)-1-phenyl-4,5-dihydro-1H-pyrazole
_symmetry_cell_setting           monoclinic
_symmetry_space_group_name_H-M   'C 2/c'
_symmetry_Int_Tables_number      15
_space_group_name_Hall           '-C 2yn'
loop_
_symmetry_equiv_pos_site_id
_symmetry_equiv_pos_as_xyz
1 x,y,z
2 -x,y,1/2-z
3 1/2+x,1/2+y,z
4 1/2-x,1/2+y,1/2-z
5 -x,-y,-z
6 x,-y,1/2+z
7 1/2-x,1/2-y,-z
8 1/2+x,1/2-y,1/2+z
_cell_length_a                   28.789(14)
_cell_length_b                   11.701(6)
_cell_length_c                   11.460(6)
_cell_angle_alpha                90
_cell_angle_beta                 93.054(9)
_cell_angle_gamma                90
_cell_volume                     3854.93
_exptl_crystal_colour            colorless
_cell_formula_units_Z            8
loop_
_atom_site_label
_atom_site_type_symbol
_atom_site_fract_x
_atom_site_fract_y
_atom_site_fract_z
C1 C 0.02753(14) 0.5731(4) 0.3726(4)
H1 H 0.0299 0.6373 0.3212
H2 H -0.0034 0.5647 0.3987
H3 H 0.0390 0.5396 0.3034
N1 N 0.17787(6) 0.26696(14) 0.43557(16)
N2 N 0.15291(6) 0.29164(16) 0.53058(18)
C2 C 0.01589(10) 0.7367(2) 0.5497(4)
H4 H 0.0186 0.7866 0.6162
H5 H -0.0131 0.6962 0.5497
H6 H 0.0169 0.7810 0.4793
C3 C 0.09528(8) 0.4905(2) 0.4815(2)
H7 H 0.0973 0.4355 0.4234
C4 C 0.06001(8) 0.5704(2) 0.4705(2)
C5 C 0.05586(9) 0.6519(2) 0.5556(3)
C6 C 0.08843(10) 0.6546(2) 0.6474(3)
C7 C 0.12394(8) 0.5731(2) 0.6579(2)
H8 H 0.1453 0.5758 0.7216
C8 C 0.12760(7) 0.48860(18) 0.57454(19)
C9 C 0.09677(8) 0.2383(2) 0.6690(2)
H9 H 0.1033 0.3042 0.7122
C10 C 0.06438(9) 0.1601(3) 0.7061(3)
H10 H 0.0496 0.1739 0.7750
C11 C 0.05383(11) 0.0640(3) 0.6441(4)
H11 H 0.0322 0.0122 0.6700
C12 C 0.07556(11) 0.0447(2) 0.5428(4)
H12 H 0.0683 -0.0207 0.4995
C13 C 0.10779(9) 0.1197(2) 0.5037(3)
H13 H 0.1220 0.1050 0.4343
C14 C 0.11928(7) 0.2173(2) 0.5671(2)
C15 C 0.16617(7) 0.4012(2) 0.5851(2)
H14 H 0.1755 0.3892 0.6677
C16 C 0.20892(8) 0.4332(2) 0.5173(2)
H15 H 0.2058 0.5093 0.4843
H16 H 0.2372 0.4295 0.5671
C17 C 0.20885(7) 0.34435(17) 0.42354(19)
C18 C 0.24047(6) 0.34038(17) 0.32845(19)
C19 C 0.27485(7) 0.42183(19) 0.3182(2)
H17 H 0.2776 0.4810 0.3722
C20 C 0.30517(8) 0.4165(2) 0.2287(2)
H18 H 0.3279 0.4724 0.2239
C21 C 0.30254(7) 0.3313(2) 0.1470(2)
C22 C 0.26794(8) 0.2513(2) 0.1569(2)
H19 H 0.2651 0.1927 0.1022
C23 C 0.23755(8) 0.2552(2) 0.2451(2)
H20 H 0.2146 0.1996 0.2488
C24 C 0.33633(9) 0.3237(2) 0.0511(2)
H21 H 0.3579 0.3862 0.0583
H22 H 0.3196 0.3275 -0.0235
H23 H 0.3530 0.2527 0.0576
C25? C 0.0877(2) 0.7477(5) 0.7207(6)
H24? H 0.0949 0.8200 0.6863
H25? H 0.0556 0.7400 0.7381
H26? H 0.1151 0.7423 0.7782
loop_
_geom_bond_atom_site_label_1
_geom_bond_atom_site_label_2
_geom_bond_site_symmetry_1
_geom_bond_site_symmetry_2
C1 H1 1_555 1_555
H2 C1 1_555 1_555
H3 C1 1_555 1_555
N1 N2 1_555 1_555
N2 C14 1_555 1_555
C2 H4 1_555 1_555
H5 C2 1_555 1_555
H6 C2 1_555 1_555
C3 H7 1_555 1_555
C4 C1 1_555 1_555
C5 C2 1_555 1_555
C6 C5 1_555 1_555
C7 C6 1_555 1_555
H8 C7 1_555 1_555
C8 C3 1_555 1_555
C9 H9 1_555 1_555
C10 C9 1_555 1_555
H10 C10 1_555 1_555
C11 C10 1_555 1_555
H11 C11 1_555 1_555
C12 C11 1_555 1_555
H12 C12 1_555 1_555
C13 C12 1_555 1_555
H13 C13 1_555 1_555
C14 C9 1_555 1_555
C15 N2 1_555 1_555
H14 C15 1_555 1_555
C16 C15 1_555 1_555
H15 C16 1_555 1_555
H16 C16 1_555 1_555
C17 N1 1_555 1_555
C18 C17 1_555 1_555
C19 C18 1_555 1_555
H17 C19 1_555 1_555
C20 C19 1_555 1_555
H18 C20 1_555 1_555
C21 C20 1_555 1_555
C22 C21 1_555 1_555
H19 C22 1_555 1_555
C23 C18 1_555 1_555
H20 C23 1_555 1_555
C24 C21 1_555 1_555
H21 C24 1_555 1_555
H22 C24 1_555 1_555
H23 C24 1_555 1_555
C3 C4 1_555 1_555
C4 C5 1_555 1_555
C7 C8 1_555 1_555
C8 C15 1_555 1_555
C13 C14 1_555 1_555
C16 C17 1_555 1_555
C22 C23 1_555 1_555

#END
