
#######################################################################
#
#                 Cambridge Crystallographic Data Centre
#                                CCDC 
#
#######################################################################
#
# If this CIF has been generated from an entry in the Cambridge 
# Structural Database, then it will include bibliographic, chemical, 
# crystal, experimental, refinement or atomic coordinate data resulting 
# from the CCDC's data processing and validation procedures.
#
#######################################################################

data_VEFSIJ
_chemical_formula_moiety         'C24 H20 N6'
_chemical_name_systematic        
2-(2-(Dimethylamino)phenyl)-3-(3-(dimethylamino)phenyl)buta-1,3-diene-1,1,4,4-tetracarbonitrile
_symmetry_cell_setting           triclinic
_symmetry_space_group_name_H-M   'P -1'
_symmetry_Int_Tables_number      2
_space_group_name_Hall           '-P 1'
loop_
_symmetry_equiv_pos_site_id
_symmetry_equiv_pos_as_xyz
1 x,y,z
2 -x,-y,-z
_cell_length_a                   8.8810(5)
_cell_length_b                   9.8950(7)
_cell_length_c                   13.6052(12)
_cell_angle_alpha                82.105(4)
_cell_angle_beta                 86.857(3)
_cell_angle_gamma                65.047(3)
_cell_volume                     1073.71
_exptl_crystal_colour            black
_cell_formula_units_Z            2
_exptl_crystal_recrystallization_method hexane/dichloromethane
loop_
_atom_site_label
_atom_site_type_symbol
_atom_site_fract_x
_atom_site_fract_y
_atom_site_fract_z
C1 C 0.44570(17) 0.25901(16) 0.65763(10)
C2 C 0.32966(17) 0.24336(17) 0.59109(10)
C3 C 0.26781(19) 0.34795(19) 0.50630(12)
H1 H 0.3086 0.4216 0.4891
C4 C 0.1481(2) 0.3442(2) 0.44795(13)
H2 H 0.1090 0.4134 0.3904
C5 C 0.0863(2) 0.2383(3) 0.47466(14)
H3 H 0.0031 0.2368 0.4356
C6 C 0.1443(2) 0.1340(2) 0.55793(13)
H4 H 0.0997 0.0630 0.5751
C7 C 0.26924(18) 0.13305(18) 0.61705(11)
N1 N 0.33575(16) 0.02835(15) 0.70193(9)
C8 C 0.5042(2) -0.0862(2) 0.69043(14)
H5 H 0.5002 -0.1626 0.6543
H6 H 0.5532 -0.1320 0.7554
H7 H 0.5710 -0.0400 0.6540
C9 C 0.2287(3) -0.0383(3) 0.75146(14)
H8 H 0.1178 0.0397 0.7578
H9 H 0.2731 -0.0873 0.8169
H10 H 0.2241 -0.1118 0.7127
C10 C 0.56954(19) 0.29814(18) 0.62256(11)
C11 C 0.6622(2) 0.3459(2) 0.68250(13)
N2 N 0.7372(3) 0.3873(3) 0.72564(14)
C12 C 0.6183(2) 0.3009(2) 0.51969(12)
N3 N 0.6648(2) 0.3041(2) 0.43972(11)
C13 C 0.41243(17) 0.24878(16) 0.76663(10)
C14 C 0.24464(17) 0.35154(16) 0.79678(10)
C15 C 0.1869(2) 0.50305(18) 0.75938(11)
H11 H 0.2492 0.5375 0.7130
C16 C 0.0346(2) 0.60173(18) 0.79263(12)
H12 H -0.0039 0.7051 0.7708
C17 C -0.0609(2) 0.55141(18) 0.85686(12)
H13 H -0.1639 0.6209 0.8776
C18 C -0.00777(19) 0.39816(17) 0.89226(11)
C19 C 0.15003(18) 0.29929(17) 0.86235(10)
H14 H 0.1919 0.1967 0.8870
C20 C 0.53394(19) 0.16282(17) 0.83359(11)
C21 C 0.6980(2) 0.06386(19) 0.80517(13)
N4 N 0.8300(2) -0.01256(19) 0.78354(14)
C22 C 0.5106(2) 0.16532(18) 0.93907(12)
N5 N 0.5016(2) 0.16400(19) 1.02315(11)
N6 N -0.10541(17) 0.34659(16) 0.95332(11)
C23 C -0.2720(2) 0.4476(2) 0.97858(15)
H15 H -0.2669 0.5230 1.0153
H16 H -0.3245 0.3911 1.0191
H17 H -0.3362 0.4964 0.9183
C24 C -0.0511(3) 0.1891(2) 0.98559(16)
H18 H -0.0377 0.1363 0.9284
H19 H -0.1331 0.1734 1.0300
H20 H 0.0542 0.1512 1.0202
loop_
_geom_bond_atom_site_label_1
_geom_bond_atom_site_label_2
_geom_bond_site_symmetry_1
_geom_bond_site_symmetry_2
C1 C2 1_555 1_555
C2 C3 1_555 1_555
C3 H1 1_555 1_555
C4 C3 1_555 1_555
H2 C4 1_555 1_555
C5 C4 1_555 1_555
H3 C5 1_555 1_555
C6 C5 1_555 1_555
H4 C6 1_555 1_555
C7 C2 1_555 1_555
N1 C7 1_555 1_555
C8 N1 1_555 1_555
H5 C8 1_555 1_555
H6 C8 1_555 1_555
H7 C8 1_555 1_555
C9 N1 1_555 1_555
H8 C9 1_555 1_555
H9 C9 1_555 1_555
H10 C9 1_555 1_555
C10 C1 1_555 1_555
C11 C10 1_555 1_555
N2 C11 1_555 1_555
C12 C10 1_555 1_555
N3 C12 1_555 1_555
C13 C1 1_555 1_555
C14 C13 1_555 1_555
C15 C14 1_555 1_555
H11 C15 1_555 1_555
C16 C15 1_555 1_555
H12 C16 1_555 1_555
C17 C16 1_555 1_555
H13 C17 1_555 1_555
C18 C17 1_555 1_555
C19 C14 1_555 1_555
H14 C19 1_555 1_555
C20 C13 1_555 1_555
C21 C20 1_555 1_555
N4 C21 1_555 1_555
C22 C20 1_555 1_555
N5 C22 1_555 1_555
N6 C18 1_555 1_555
C23 N6 1_555 1_555
H15 C23 1_555 1_555
H16 C23 1_555 1_555
H17 C23 1_555 1_555
C24 N6 1_555 1_555
H18 C24 1_555 1_555
H19 C24 1_555 1_555
H20 C24 1_555 1_555
C6 C7 1_555 1_555
C18 C19 1_555 1_555

#END
