
#######################################################################
#
#                 Cambridge Crystallographic Data Centre
#                                CCDC 
#
#######################################################################
#
# If this CIF has been generated from an entry in the Cambridge 
# Structural Database, then it will include bibliographic, chemical, 
# crystal, experimental, refinement or atomic coordinate data resulting 
# from the CCDC's data processing and validation procedures.
#
#######################################################################

data_VEFYUB
_chemical_name_common            
"ent-tris(N,N'-(p-phenylene)cyclohexane-1,2-diamine) hemikis(ethyl acetate) clathrate"
_chemical_formula_moiety         'C42 H60 N6,0.5(C4 H8 O2)'
_chemical_name_systematic        
'3,10,17,24,31,28-hexaazaheptacyclo[38.2.2.2^12,15^.2^26,29^.0^4,9^.0^18,23^.0^32,37^] octatetraconta-1(42),12,14,26,28,40,43,45,47-nonaene hemikis(ethyl acetate) clathrate'
_symmetry_cell_setting           orthorhombic
_symmetry_space_group_name_H-M   'P 21 21 21'
_symmetry_Int_Tables_number      19
_space_group_name_Hall           'P 2ac 2ab'
loop_
_symmetry_equiv_pos_site_id
_symmetry_equiv_pos_as_xyz
1 x,y,z
2 1/2-x,-y,1/2+z
3 -x,1/2+y,1/2-z
4 1/2+x,1/2-y,-z
_cell_length_a                   5.1890(10)
_cell_length_b                   23.926(5)
_cell_length_c                   31.607(6)
_cell_angle_alpha                90
_cell_angle_beta                 90
_cell_angle_gamma                90
_cell_volume                     3924.07
_exptl_crystal_colour            colorless
_exptl_crystal_description       plate
_cell_formula_units_Z            4
loop_
_atom_site_label
_atom_site_type_symbol
_atom_site_fract_x
_atom_site_fract_y
_atom_site_fract_z
O1 O 0.086(2) -0.6947(4) -0.2942(3)
O2 O 0.1089(19) -0.7092(5) -0.2232(3)
C47 C -0.2891(18) -0.6862(5) -0.2517(3)
C48 C -0.002(2) -0.6914(9) -0.2588(4)
C50 C -0.474(2) -0.6708(6) -0.2221(5)
N1 N -0.5213(6) -0.83658(12) -0.10559(9)
H1 H -0.5664 -0.8243 -0.1334
N2 N -0.2709(6) -0.89404(13) -0.17033(9)
H2 H -0.3267 -0.9170 -0.1869
C1 C -0.2715(8) -0.86287(15) -0.09633(11)
H3 H -0.1342 -0.8367 -0.1012
C2 C -0.2414(8) -0.91272(15) -0.12641(11)
H4 H -0.3820 -0.9377 -0.1207
C3 C 0.0011(8) -0.94509(16) -0.11633(12)
H5 H 0.1472 -0.9214 -0.1215
H6 H 0.0144 -0.9771 -0.1345
C4 C 0.0098(9) -0.96467(17) -0.07073(12)
H7 H 0.1659 -0.9848 -0.0650
H8 H -0.1330 -0.9893 -0.0657
C5 C -0.0153(8) -0.91485(17) -0.04179(12)
H9 H 0.1286 -0.8904 -0.0464
H10 H -0.0112 -0.9270 -0.0128
C6 C -0.2608(8) -0.88197(16) -0.05059(11)
H11 H -0.4042 -0.9063 -0.0452
H12 H -0.2746 -0.8504 -0.0320
C7 C -0.0512(8) -0.86361(18) -0.18849(12)
H13 H 0.0983 -0.8872 -0.1880
H14 H -0.0165 -0.8313 -0.1714
C8 C -0.1049(9) -0.84434(19) -0.23341(12)
C13 C -0.1909(10) -0.8070(2) -0.31587(13)
C14 C -0.043(2) -0.7857(3) -0.2428(2)
C15 C -0.095(2) -0.7671(3) -0.2838(2)
C16 C -0.206(2) -0.8597(3) -0.3062(2)
C17 C -0.1663(19) -0.8782(3) -0.2643(2)
C18 C -0.2381(10) -0.7846(2) -0.36025(13)
H15 H -0.2970 -0.8147 -0.3778
H16 H -0.0812 -0.7702 -0.3721
N3 N -0.4402(9) -0.74288(19) -0.35999(11)
H17 H -0.4822 -0.7243 -0.3406
N4 N -0.5637(8) -0.62945(18) -0.35343(11)
H18 H -0.5531(10) -0.6518(13) -0.3345(11)
C19 C -0.4589(9) -0.70860(19) -0.39858(12)
H19 H -0.2937 -0.6917 -0.4034
C20 C -0.6498(9) -0.66162(19) -0.39043(12)
H20 H -0.8131 -0.6788 -0.3845
C21 C -0.6770(9) -0.62464(18) -0.42896(12)
H21 H -0.5187 -0.6048 -0.4336
H22 H -0.8097 -0.5974 -0.4239
C22 C -0.7444(9) -0.6578(2) -0.46852(12)
H23 H -0.7483 -0.6328 -0.4923
H24 H -0.9129 -0.6739 -0.4655
C23 C -0.5517(9) -0.7040(2) -0.47592(12)
H25 H -0.3871 -0.6877 -0.4822
H26 H -0.6055 -0.7252 -0.5001
C24 C -0.5348(10) -0.74123(18) -0.43740(12)
H27 H -0.6944 -0.7604 -0.4324
H28 H -0.4033 -0.7686 -0.4427
C25 C -0.7682(11) -0.5925(3) -0.33591(15)
H29 H -0.9061 -0.6156 -0.3256
H30 H -0.8357 -0.5682 -0.3574
C26 C -0.6621(13) -0.5620(3) -0.29796(17)
C27 C -0.7616(12) -0.5673(3) -0.25863(18)
H31 H -0.9079 -0.5911 -0.2541
C28 C -0.6518(14) -0.5379(3) -0.22411(17)
H32 H -0.7275 -0.5409 -0.1965
C29 C -0.4447(14) -0.5044(2) -0.22862(16)
C30 C -0.3453(13) -0.49938(19) -0.26863(15)
H33 H -0.2024 -0.4744 -0.2726
C31 C -0.4538(16) -0.5283(2) -0.30248(15)
H34 H -0.3739 -0.5240 -0.3297
C32 C -0.3290(13) -0.47296(19) -0.19196(13)
H35 H -0.4405 -0.4421 -0.1855
H36 H -0.1645 -0.4580 -0.2000
N5 N -0.3089(7) -0.50603(13) -0.15401(9)
H37 H -0.2012 -0.5331 -0.1573
N6 N 0.1057(6) -0.55818(12) -0.11045(9)
H38 H 0.2613 -0.5422 -0.1144
C33 C -0.1696(8) -0.47798(15) -0.12003(11)
H39 H -0.0184 -0.4606 -0.1316
C34 C -0.0793(8) -0.52267(15) -0.08801(11)
H40 H -0.2271 -0.5454 -0.0819
C35 C 0.0115(8) -0.49790(17) -0.04671(12)
H41 H 0.1740 -0.4796 -0.0511
H42 H 0.0372 -0.5274 -0.0266
C36 C -0.1784(9) -0.45470(18) -0.02843(12)
H43 H -0.1156 -0.4401 -0.0021
H44 H -0.3398 -0.4730 -0.0231
C37 C -0.2246(9) -0.40863(17) -0.06014(12)
H45 H -0.0629 -0.3912 -0.0667
H46 H -0.3375 -0.3810 -0.0483
C38 C -0.3334(9) -0.43253(16) -0.10031(12)
H47 H -0.4978 -0.4484 -0.0933
H48 H -0.3621 -0.4033 -0.1206
C39 C 0.1922(8) -0.60838(15) -0.08697(13)
H49 H 0.3490 -0.6201 -0.1003
H50 H 0.2749 -0.6004 -0.0605
C40 C -0.0133(8) -0.65236(15) -0.08572(12)
C41 C -0.0904(9) -0.67893(16) -0.12283(12)
H51 H -0.0162 -0.6679 -0.1494
C42 C -0.2722(9) -0.72133(16) -0.12193(12)
H52 H -0.3251 -0.7391 -0.1477
C43 C -0.3830(8) -0.73906(15) -0.08383(12)
C44 C -0.3030(9) -0.71231(17) -0.04796(12)
H53 H -0.3759 -0.7237 -0.0214
C45 C -0.1245(8) -0.67009(17) -0.04900(12)
H54 H -0.0766 -0.6526 -0.0228
C46 C -0.5791(8) -0.78460(15) -0.08294(13)
H55 H -0.7562 -0.7776 -0.0924
H56 H -0.6289 -0.7971 -0.0546
C9? C -0.3635(13) -0.8454(3) -0.2500(2)
C10? C -0.4059(14) -0.8288(3) -0.2921(2)
C11? C 0.0901(13) -0.8432(4) -0.2621(2)
C12? C 0.0458(15) -0.8265(4) -0.3041(2)
C49? C 0.382(2) -0.7213(6) -0.2285(5)
loop_
_geom_bond_atom_site_label_1
_geom_bond_atom_site_label_2
_geom_bond_site_symmetry_1
_geom_bond_site_symmetry_2
N1 H1 1_555 1_555
N2 H2 1_555 1_555
C1 N1 1_555 1_555
H3 C1 1_555 1_555
C2 N2 1_555 1_555
H4 C2 1_555 1_555
C3 C2 1_555 1_555
H5 C3 1_555 1_555
H6 C3 1_555 1_555
C4 C3 1_555 1_555
H7 C4 1_555 1_555
H8 C4 1_555 1_555
C5 C4 1_555 1_555
H9 C5 1_555 1_555
H10 C5 1_555 1_555
C6 C1 1_555 1_555
H11 C6 1_555 1_555
H12 C6 1_555 1_555
C7 N2 1_555 1_555
H13 C7 1_555 1_555
H14 C7 1_555 1_555
C8 C7 1_555 1_555
C13 C15 1_555 1_555
C14 C8 1_555 1_555
C15 C14 1_555 1_555
C16 C13 1_555 1_555
C17 C8 1_555 1_555
C18 C13 1_555 1_555
H15 C18 1_555 1_555
H16 C18 1_555 1_555
N3 C18 1_555 1_555
H17 N3 1_555 1_555
N4 H18 1_555 1_555
C19 N3 1_555 1_555
H19 C19 1_555 1_555
C20 N4 1_555 1_555
H20 C20 1_555 1_555
C21 C20 1_555 1_555
H21 C21 1_555 1_555
H22 C21 1_555 1_555
C22 C21 1_555 1_555
H23 C22 1_555 1_555
H24 C22 1_555 1_555
C23 C22 1_555 1_555
H25 C23 1_555 1_555
H26 C23 1_555 1_555
C24 C19 1_555 1_555
H27 C24 1_555 1_555
H28 C24 1_555 1_555
C25 N4 1_555 1_555
H29 C25 1_555 1_555
H30 C25 1_555 1_555
C26 C25 1_555 1_555
C27 C26 1_555 1_555
H31 C27 1_555 1_555
C28 C27 1_555 1_555
H32 C28 1_555 1_555
C29 C28 1_555 1_555
C30 C29 1_555 1_555
H33 C30 1_555 1_555
C31 C26 1_555 1_555
H34 C31 1_555 1_555
C32 C29 1_555 1_555
H35 C32 1_555 1_555
H36 C32 1_555 1_555
N5 C32 1_555 1_555
H37 N5 1_555 1_555
N6 H38 1_555 1_555
C33 N5 1_555 1_555
H39 C33 1_555 1_555
C34 N6 1_555 1_555
H40 C34 1_555 1_555
C35 C34 1_555 1_555
H41 C35 1_555 1_555
H42 C35 1_555 1_555
C36 C35 1_555 1_555
H43 C36 1_555 1_555
H44 C36 1_555 1_555
C37 C36 1_555 1_555
H45 C37 1_555 1_555
H46 C37 1_555 1_555
C38 C33 1_555 1_555
H47 C38 1_555 1_555
H48 C38 1_555 1_555
C39 N6 1_555 1_555
H49 C39 1_555 1_555
H50 C39 1_555 1_555
C40 C39 1_555 1_555
C41 C40 1_555 1_555
H51 C41 1_555 1_555
C42 C41 1_555 1_555
H52 C42 1_555 1_555
C43 C42 1_555 1_555
C44 C43 1_555 1_555
H53 C44 1_555 1_555
C45 C40 1_555 1_555
H54 C45 1_555 1_555
C46 N1 1_555 1_555
H55 C46 1_555 1_555
H56 C46 1_555 1_555
O1 C48 1_555 1_555
O2 C48 1_555 1_555
C47 C48 1_555 1_555
C50 C47 1_555 1_555
C1 C2 1_555 1_555
C5 C6 1_555 1_555
C16 C17 1_555 1_555
C19 C20 1_555 1_555
C23 C24 1_555 1_555
C30 C31 1_555 1_555
C33 C34 1_555 1_555
C37 C38 1_555 1_555
C43 C46 1_555 1_555
C44 C45 1_555 1_555

#END
