
#######################################################################
#
#                 Cambridge Crystallographic Data Centre
#                                CCDC 
#
#######################################################################
#
# If this CIF has been generated from an entry in the Cambridge 
# Structural Database, then it will include bibliographic, chemical, 
# crystal, experimental, refinement or atomic coordinate data resulting 
# from the CCDC's data processing and validation procedures.
#
#######################################################################

data_VEFZIQ
_chemical_name_common            
"tris(N,N'-(p-phenylene)cyclohexane-1,2-diamine) bis(fluorobenzene) clathrate"
_chemical_formula_moiety         'C42 H60 N6,2(C6 H5 F1)'
_chemical_name_systematic        
'3,10,17,24,31,38-hexaazaheptacyclo[38.2.2.2^12,15^.2^26,29^.0^4,9^.0^18,23^.0^32,37^] octatetraconta-1(42),12,14,26,28,40,43,45,47-nonaene bis(fluorobenzene) clathrate'
_symmetry_cell_setting           monoclinic
_symmetry_space_group_name_H-M   'P 21'
_symmetry_Int_Tables_number      4
_space_group_name_Hall           'P 2yb'
loop_
_symmetry_equiv_pos_site_id
_symmetry_equiv_pos_as_xyz
1 x,y,z
2 -x,1/2+y,-z
_cell_length_a                   15.420(3)
_cell_length_b                   8.592(2)
_cell_length_c                   18.804(4)
_cell_angle_alpha                90
_cell_angle_beta                 90.20(3)
_cell_angle_gamma                90
_cell_volume                     2491.3
_exptl_crystal_colour            colorless
_exptl_crystal_description       plate
_chemical_melting_point          115-125deg.C
_cell_formula_units_Z            2
loop_
_atom_site_label
_atom_site_type_symbol
_atom_site_fract_x
_atom_site_fract_y
_atom_site_fract_z
N1 N -0.42282(17) 1.4405(4) -0.06715(17)
H1 H -0.4429 1.5462 -0.0696
N2 N -0.52844(18) 1.3032(4) 0.03596(17)
H2 H -0.4729 1.3407 0.0320
C1 C -0.4991(2) 1.3524(5) -0.0898(2)
H3 H -0.4823 1.2453 -0.0946
C2 C -0.5664(2) 1.3604(4) -0.0304(2)
H4 H -0.5803 1.4682 -0.0233
C3 C -0.6484(2) 1.2753(5) -0.0496(2)
H5 H -0.6903 1.2911 -0.0127
H6 H -0.6369 1.1657 -0.0527
C4 C -0.6881(2) 1.3341(6) -0.1188(2)
H7 H -0.7059 1.4406 -0.1143
H8 H -0.7384 1.2731 -0.1302
C5 C -0.6235(3) 1.3193(6) -0.1793(2)
H9 H -0.6484 1.3611 -0.2221
H10 H -0.6108 1.2114 -0.1875
C6 C -0.5390(2) 1.4060(6) -0.1607(2)
H11 H -0.4981 1.3883 -0.1981
H12 H -0.5507 1.5157 -0.1588
C7 C -0.5672(2) 1.3689(5) 0.0998(2)
H13 H -0.6231 1.3222 0.1065
H14 H -0.5757 1.4787 0.0933
C8 C -0.5144(3) 1.3432(5) 0.1652(2)
C9 C -0.4267(3) 1.3615(6) 0.1679(3)
H15 H -0.3969 1.3920 0.1254
C10 C -0.3786(3) 1.3359(7) 0.2285(3)
H16 H -0.3169 1.3502 0.2274
C11 C -0.4176(3) 1.2912(7) 0.2892(2)
C12 C -0.5049(3) 1.2625(9) 0.2880(3)
H17 H -0.5330 1.2140 0.3277
C13 C -0.5525(3) 1.2912(8) 0.2262(3)
H18 H -0.6145 1.2807 0.2271
C14 C -0.3663(3) 1.2710(10) 0.3583(3)
H19 H -0.3953 1.1981 0.3888
H20 H -0.3640 1.3697 0.3822
N3 N -0.2786(2) 1.2203(6) 0.34543(19)
H21 H -0.2720 1.1302 0.3216
N4 N -0.2025(2) 0.9349(6) 0.3732(2)
H22 H -0.2371 0.9027 0.4088
C15 C -0.2268(3) 1.1996(7) 0.4090(2)
H23 H -0.2643 1.1644 0.4464
C16 C -0.1592(3) 1.0750(7) 0.3969(3)
H24 H -0.1234 1.1103 0.3585
C17 C -0.1025(4) 1.0509(9) 0.4622(3)
H25 H -0.0579 0.9777 0.4500
H26 H -0.1365 1.0064 0.4997
C18 C -0.0616(4) 1.2023(13) 0.4872(4)
H27 H -0.0211 1.2387 0.4523
H28 H -0.0300 1.1813 0.5302
C19 C -0.1290(5) 1.3245(10) 0.5011(4)
H29 H -0.1002 1.4203 0.5125
H30 H -0.1646 1.2957 0.5408
C20 C -0.1855(4) 1.3475(8) 0.4331(4)
H31 H -0.2299 1.4228 0.4426
H32 H -0.1506 1.3859 0.3947
C21 C -0.1454(3) 0.8035(7) 0.3532(3)
H33 H -0.1798 0.7128 0.3435
H34 H -0.1071 0.7797 0.3921
C22 C -0.0906(3) 0.8398(6) 0.2887(2)
C23 C -0.0057(3) 0.7904(7) 0.2866(3)
H35 H 0.0205 0.7459 0.3283
C24 C 0.0452(3) 0.8171(6) 0.2254(3)
H36 H 0.1032 0.7767 0.2238
C25 C 0.0123(2) 0.8905(5) 0.1682(2)
C26 C -0.0730(2) 0.9388(5) 0.1698(2)
H37 H -0.0970 0.9895 0.1287
C27 C -0.1231(3) 0.9164(6) 0.2296(2)
H38 H -0.1815 0.9547 0.2305
C28 C 0.0699(2) 0.9146(6) 0.1034(2)
H39 H 0.1309 0.8922 0.1034
N5 N 0.02565(18) 0.9719(4) 0.04141(17)
H40 H 0.0153 1.0737 0.0385
N6 N -0.07990(17) 0.8346(4) -0.06209(19)
H41 H -0.0961 0.8398 -0.0157
C29 C 0.06222(19) 0.9230(4) -0.0271(2)
H42 H 0.0771 0.8151 -0.0218
C30 C -0.0066(2) 0.9329(5) -0.0845(2)
H43 H -0.0258 1.0388 -0.0890
C31 C 0.0272(3) 0.8806(6) -0.1559(2)
H44 H -0.0165 0.8976 -0.1915
H45 H 0.0390 0.7710 -0.1536
C32 C 0.1123(3) 0.9607(6) -0.1775(2)
H46 H 0.0998 1.0693 -0.1836
H47 H 0.1345 0.9209 -0.2216
C33 C 0.1797(2) 0.9465(6) -0.1185(2)
H48 H 0.2322 1.0003 -0.1306
H49 H 0.1930 0.8379 -0.1133
C34 C 0.1438(2) 1.0084(5) -0.0501(2)
H50 H 0.1869 0.9970 -0.0135
H51 H 0.1318 1.1174 -0.0554
C35 C -0.1598(2) 0.8428(5) -0.1050(3)
H52 H -0.1997 0.7656 -0.0880
H53 H -0.1452 0.8161 -0.1530
C36 C -0.2065(2) 0.9992(5) -0.1067(2)
C37 C -0.2273(2) 1.0782(5) -0.0455(2)
H54 H -0.2082 1.0377 -0.0005
C38 C -0.2754(2) 1.2147(5) -0.0474(2)
H55 H -0.2905 1.2663 -0.0039
C39 C -0.3019(2) 1.2773(5) -0.1109(3)
C40 C -0.2811(2) 1.1988(6) -0.1719(2)
H56 H -0.3000 1.2406 -0.2167
C41 C -0.2342(2) 1.0605(6) -0.1702(3)
H57 H -0.2206 1.0072 -0.2137
C42 C -0.3471(2) 1.4339(6) -0.1144(3)
H58 H -0.3072 1.5160 -0.1030
H59 H -0.3675 1.4498 -0.1621
F1 F 0.2044(5) 0.5616(8) 0.3643(3)
C49 C 0.2492(4) 0.1872(9) 0.3515(2)
C50 C 0.2430(4) 0.3456(8) 0.3654(2)
C51 C 0.1649(4) 0.4229(8) 0.3541(2)
C52 C 0.0931(3) 0.3417(8) 0.3290(2)
C53 C 0.0994(4) 0.1832(7) 0.3151(3)
C54 C 0.1775(5) 0.1059(8) 0.3263(3)
C61 C -0.4275(5) 1.2264(8) -0.3782(2)
C62 C -0.4353(5) 1.3224(9) -0.4379(2)
C63 C -0.5226(5) 1.3364(9) -0.4694(2)
C64 C -0.5917(5) 1.2669(10) -0.4345(3)
C65 C -0.5815(4) 1.1816(10) -0.3724(3)
C66 C -0.5033(4) 1.1756(9) -0.3470(2)
F3 F -0.3242(4) 1.2319(9) -0.3731(2)
C43? C 0.2758(4) 0.1665(9) 0.3865(2)
C44? C 0.2683(4) 0.3260(9) 0.3971(2)
C45? C 0.1956(4) 0.4050(8) 0.3723(2)
C46? C 0.1303(3) 0.3244(7) 0.3369(2)
C47? C 0.1378(4) 0.1649(7) 0.3262(3)
C48? C 0.2105(5) 0.0859(8) 0.3510(3)
F2? F 0.1873(6) -0.0461(8) 0.3166(3)
C55? C -0.4002(5) 1.2936(8) -0.3817(2)
C56? C -0.4053(5) 1.3842(9) -0.4417(3)
C57? C -0.4872(5) 1.4098(9) -0.4677(3)
C58? C -0.5606(5) 1.3423(9) -0.4325(2)
C59? C -0.5539(5) 1.2508(9) -0.3745(3)
C60? C -0.4682(4) 1.2282(8) -0.3461(2)
F4? F -0.6652(5) 1.2324(11) -0.4682(3)
F5? F -0.6309(5) 1.3780(10) -0.4727(3)
loop_
_geom_bond_atom_site_label_1
_geom_bond_atom_site_label_2
_geom_bond_site_symmetry_1
_geom_bond_site_symmetry_2
N1 H1 1_555 1_555
N2 H2 1_555 1_555
C1 N1 1_555 1_555
H3 C1 1_555 1_555
C2 N2 1_555 1_555
H4 C2 1_555 1_555
C3 C2 1_555 1_555
H5 C3 1_555 1_555
H6 C3 1_555 1_555
C4 C3 1_555 1_555
H7 C4 1_555 1_555
H8 C4 1_555 1_555
C5 C4 1_555 1_555
H9 C5 1_555 1_555
H10 C5 1_555 1_555
C6 C1 1_555 1_555
H11 C6 1_555 1_555
H12 C6 1_555 1_555
C7 N2 1_555 1_555
H13 C7 1_555 1_555
H14 C7 1_555 1_555
C8 C7 1_555 1_555
C9 C8 1_555 1_555
H15 C9 1_555 1_555
C10 C9 1_555 1_555
H16 C10 1_555 1_555
C11 C10 1_555 1_555
C12 C11 1_555 1_555
H17 C12 1_555 1_555
C13 C8 1_555 1_555
H18 C13 1_555 1_555
C14 C11 1_555 1_555
H19 C14 1_555 1_555
H20 C14 1_555 1_555
N3 C14 1_555 1_555
H21 N3 1_555 1_555
N4 H22 1_555 1_555
C15 N3 1_555 1_555
H23 C15 1_555 1_555
C16 N4 1_555 1_555
H24 C16 1_555 1_555
C17 C16 1_555 1_555
H25 C17 1_555 1_555
H26 C17 1_555 1_555
C18 C17 1_555 1_555
H27 C18 1_555 1_555
H28 C18 1_555 1_555
C19 C18 1_555 1_555
H29 C19 1_555 1_555
H30 C19 1_555 1_555
C20 C15 1_555 1_555
H31 C20 1_555 1_555
H32 C20 1_555 1_555
C21 N4 1_555 1_555
H33 C21 1_555 1_555
H34 C21 1_555 1_555
C22 C21 1_555 1_555
C23 C22 1_555 1_555
H35 C23 1_555 1_555
C24 C23 1_555 1_555
H36 C24 1_555 1_555
C25 C24 1_555 1_555
C26 C25 1_555 1_555
H37 C26 1_555 1_555
C27 C22 1_555 1_555
H38 C27 1_555 1_555
C28 C25 1_555 1_555
H39 C28 1_555 1_555
N5 C28 1_555 1_555
H40 N5 1_555 1_555
N6 H41 1_555 1_555
C29 N5 1_555 1_555
H42 C29 1_555 1_555
C30 N6 1_555 1_555
H43 C30 1_555 1_555
C31 C30 1_555 1_555
H44 C31 1_555 1_555
H45 C31 1_555 1_555
C32 C31 1_555 1_555
H46 C32 1_555 1_555
H47 C32 1_555 1_555
C33 C32 1_555 1_555
H48 C33 1_555 1_555
H49 C33 1_555 1_555
C34 C29 1_555 1_555
H50 C34 1_555 1_555
H51 C34 1_555 1_555
C35 N6 1_555 1_555
H52 C35 1_555 1_555
H53 C35 1_555 1_555
C36 C35 1_555 1_555
C37 C36 1_555 1_555
H54 C37 1_555 1_555
C38 C37 1_555 1_555
H55 C38 1_555 1_555
C39 C38 1_555 1_555
C40 C39 1_555 1_555
H56 C40 1_555 1_555
C41 C36 1_555 1_555
H57 C41 1_555 1_555
C42 N1 1_555 1_555
H58 C42 1_555 1_555
H59 C42 1_555 1_555
F1 C51 1_555 1_555
C49 C50 1_555 1_555
C50 C51 1_555 1_555
C51 C52 1_555 1_555
C52 C53 1_555 1_555
C53 C54 1_555 1_555
C54 C49 1_555 1_555
C61 C62 1_555 1_555
C62 C63 1_555 1_555
C63 C64 1_555 1_555
C64 C65 1_555 1_555
C65 C66 1_555 1_555
C66 C61 1_555 1_555
F3 C61 1_555 1_555
C1 C2 1_555 1_555
C5 C6 1_555 1_555
C12 C13 1_555 1_555
C15 C16 1_555 1_555
C19 C20 1_555 1_555
C26 C27 1_555 1_555
C29 C30 1_555 1_555
C33 C34 1_555 1_555
C39 C42 1_555 1_555
C40 C41 1_555 1_555

#END
