
#######################################################################
#
#                 Cambridge Crystallographic Data Centre
#                                CCDC 
#
#######################################################################
#
# If this CIF has been generated from an entry in the Cambridge 
# Structural Database, then it will include bibliographic, chemical, 
# crystal, experimental, refinement or atomic coordinate data resulting 
# from the CCDC's data processing and validation procedures.
#
#######################################################################

data_VEGDIW
_chemical_formula_moiety         'C14 H24 O4'
_chemical_name_systematic        
'4,7-Dihydroxy-4a,8-dimethyldecahydronaphthalen-1-yl acetate'
_symmetry_cell_setting           trigonal
_symmetry_space_group_name_H-M   'P 32'
_symmetry_Int_Tables_number      145
_space_group_name_Hall           'P 32'
loop_
_symmetry_equiv_pos_site_id
_symmetry_equiv_pos_as_xyz
1 x,y,z
2 -y,x-y,2/3+z
3 -x+y,-x,1/3+z
_cell_length_a                   14.4194(18)
_cell_length_b                   14.4194(18)
_cell_length_c                   6.0541(7)
_cell_angle_alpha                90
_cell_angle_beta                 90
_cell_angle_gamma                120
_cell_volume                     1090.12
_exptl_crystal_colour            colorless
_exptl_crystal_description       plate
_cell_formula_units_Z            3
loop_
_atom_site_label
_atom_site_type_symbol
_atom_site_fract_x
_atom_site_fract_y
_atom_site_fract_z
C1 C 0.5921(3) 0.1488(3) 0.0641(6)
H1 H 0.5701 0.1319 -0.0906
C2 C 0.6821(3) 0.1244(3) 0.1045(5)
H2 H 0.7350 0.1622 -0.0120
C3 C 0.6392(2) 0.0055(2) 0.0627(5)
H3 H 0.6150 -0.0060 -0.0913
C4 C 0.7233(3) -0.0291(3) 0.0730(5)
H4 H 0.7517 -0.0205 0.2233
C5 C 0.6796(3) -0.1427(3) -0.0043(6)
H5 H 0.7325 -0.1642 0.0223
H6 H 0.6668 -0.1462 -0.1622
C6 C 0.5758(3) -0.2207(3) 0.1121(6)
H7 H 0.5462 -0.2908 0.0445
H8 H 0.5906 -0.2270 0.2660
C7 C 0.4959(3) -0.1834(3) 0.0981(5)
H9 H 0.4812 -0.1792 -0.0585
C8 C 0.5380(2) -0.0719(2) 0.1993(5)
C9 C 0.4539(3) -0.0376(3) 0.1644(6)
H10 H 0.4277 -0.0544 0.0138
H11 H 0.3938 -0.0793 0.2621
C10 C 0.4955(3) 0.0811(3) 0.2062(7)
H12 H 0.4396 0.0978 0.1731
H13 H 0.5146 0.0973 0.3607
C11 C 0.7415(3) 0.1704(3) 0.3244(7)
H14 H 0.7975 0.1532 0.3404
H15 H 0.6920 0.1398 0.4450
H16 H 0.7720 0.2467 0.3249
C12 C 0.9099(3) 0.0843(3) -0.0122(8)
C13 C 0.9858(4) 0.1456(4) -0.1933(9)
H17 H 1.0580 0.1765 -0.1402
H18 H 0.9729 0.2015 -0.2423
H19 H 0.9754 0.0983 -0.3144
C14 C 0.5576(3) -0.0740(3) 0.4462(5)
H20 H 0.4916 -0.1229 0.5181
H21 H 0.5848 -0.0036 0.5066
H22 H 0.6089 -0.0970 0.4694
O1 O 0.6235(2) 0.2576(2) 0.0994(5)
H23 H 0.6609 0.2937 -0.0038
O2 O 0.80811(18) 0.0389(2) -0.0796(4)
O3 O 0.9356(2) 0.0736(3) 0.1694(6)
O4 O 0.39635(19) -0.25916(19) 0.2025(4)
H24 H 0.4084 -0.2900 0.3025
loop_
_geom_bond_atom_site_label_1
_geom_bond_atom_site_label_2
_geom_bond_site_symmetry_1
_geom_bond_site_symmetry_2
C1 H1 1_555 1_555
C2 C1 1_555 1_555
H2 C2 1_555 1_555
C3 C2 1_555 1_555
H3 C3 1_555 1_555
C4 C3 1_555 1_555
H4 C4 1_555 1_555
C5 C4 1_555 1_555
H5 C5 1_555 1_555
H6 C5 1_555 1_555
C6 C5 1_555 1_555
H7 C6 1_555 1_555
H8 C6 1_555 1_555
C7 C6 1_555 1_555
H9 C7 1_555 1_555
C8 C3 1_555 1_555
C9 C8 1_555 1_555
H10 C9 1_555 1_555
H11 C9 1_555 1_555
C10 C1 1_555 1_555
H12 C10 1_555 1_555
H13 C10 1_555 1_555
C11 C2 1_555 1_555
H14 C11 1_555 1_555
H15 C11 1_555 1_555
H16 C11 1_555 1_555
C12 C13 1_555 1_555
C13 H17 1_555 1_555
H18 C13 1_555 1_555
H19 C13 1_555 1_555
C14 C8 1_555 1_555
H20 C14 1_555 1_555
H21 C14 1_555 1_555
H22 C14 1_555 1_555
O1 C1 1_555 1_555
H23 O1 1_555 1_555
O2 C4 1_555 1_555
O3 C12 1_555 1_555
O4 C7 1_555 1_555
H24 O4 1_555 1_555
C7 C8 1_555 1_555
C9 C10 1_555 1_555
C12 O2 1_555 1_555

#END
