
#######################################################################
#
#                 Cambridge Crystallographic Data Centre
#                                CCDC 
#
#######################################################################
#
# If this CIF has been generated from an entry in the Cambridge 
# Structural Database, then it will include bibliographic, chemical, 
# crystal, experimental, refinement or atomic coordinate data resulting 
# from the CCDC's data processing and validation procedures.
#
#######################################################################

data_VEGKUP
_chemical_formula_moiety         'C19 H17 B1 F2 O4'
_chemical_name_systematic        
(1-(4-(Allyloxy)phenyl)-3-(4-methoxyphenyl)-prop-2-en-1,3-diolato)-(difluoro)boron
_symmetry_cell_setting           monoclinic
_symmetry_space_group_name_H-M   'P c'
_symmetry_Int_Tables_number      7
_space_group_name_Hall           'P -2yc'
loop_
_symmetry_equiv_pos_site_id
_symmetry_equiv_pos_as_xyz
1 x,y,z
2 x,-y,1/2+z
_cell_length_a                   10.6842(7)
_cell_length_b                   7.2837(4)
_cell_length_c                   12.8423(7)
_cell_angle_alpha                90
_cell_angle_beta                 120.355(7)
_cell_angle_gamma                90
_cell_volume                     862.388
_cell_formula_units_Z            2
loop_
_atom_site_label
_atom_site_type_symbol
_atom_site_fract_x
_atom_site_fract_y
_atom_site_fract_z
F1 F 0.5710(7) 1.0544(8) 0.1680(5)
F2 F 0.3678(6) 1.0907(6) 0.1767(4)
O1 O 0.5243(6) 0.8563(6) 0.2846(4)
O2 O 0.3815(6) 0.8530(5) 0.0650(4)
O3 O 0.0776(7) 0.3343(7) -0.3845(5)
O4 O 0.8245(6) 0.3502(7) 0.7405(4)
C1 C 0.5991(7) 0.5908(9) 0.4037(5)
C2 C 0.6724(8) 0.7002(9) 0.5067(7)
H1 H 0.6710 0.8270 0.4980
C3 C 0.7465(9) 0.6255(9) 0.6207(6)
H2 H 0.7915 0.7014 0.6880
C4 C 0.7537(7) 0.4386(8) 0.6342(6)
C5 C 0.6809(8) 0.3289(10) 0.5312(7)
H3 H 0.6846 0.2019 0.5399
C6 C 0.6053(8) 0.4018(10) 0.4193(6)
H4 H 0.5573 0.3251 0.3526
C7 C 0.5252(7) 0.6784(9) 0.2854(6)
C8 C 0.4523(9) 0.5822(7) 0.1775(7)
H5 H 0.4504 0.4546 0.1791
C9 C 0.3829(7) 0.6718(8) 0.0681(6)
C10 C 0.3035(7) 0.5818(10) -0.0477(6)
C11 C 0.2430(8) 0.6807(10) -0.1560(6)
H6 H 0.2529 0.8077 -0.1536
C12 C 0.1687(10) 0.5929(11) -0.2667(7)
H7 H 0.1305 0.6612 -0.3375
C13 C 0.1508(8) 0.4036(11) -0.2726(6)
C14 C 0.2129(8) 0.3025(9) -0.1668(6)
H8 H 0.2040 0.1754 -0.1693
C15 C 0.2878(8) 0.3920(10) -0.0581(6)
H9 H 0.3303 0.3221 0.0121
C16 C 0.8972(9) 0.4580(12) 0.8490(6)
H10 H 0.9706 0.5319 0.8475
H11 H 0.9413 0.3780 0.9178
H12 H 0.8282 0.5362 0.8542
C17 C 0.0529(10) 0.1372(11) -0.3948(9)
H13 H 0.1430 0.0713 -0.3677
H14 H 0.0106 0.0980 -0.3471
C18 C -0.0466(15) 0.1055(15) -0.5220(10)
H15 H -0.1359 0.1647 -0.5576
B1 B 0.4635(13) 0.9642(9) 0.1738(9)
C19 C -0.0187(17) -0.0027(18) -0.5914(12)
H16 H 0.0697 -0.0639 -0.5587
H17 H -0.0875 -0.0171 -0.6727
loop_
_geom_bond_atom_site_label_1
_geom_bond_atom_site_label_2
_geom_bond_site_symmetry_1
_geom_bond_site_symmetry_2
F1 B1 1_555 1_555
F2 B1 1_555 1_555
O1 C7 1_555 1_555
O2 C9 1_555 1_555
O3 C13 1_555 1_555
O4 C4 1_555 1_555
C1 C2 1_555 1_555
C2 H1 1_555 1_555
C3 C2 1_555 1_555
H2 C3 1_555 1_555
C4 C3 1_555 1_555
C5 C4 1_555 1_555
H3 C5 1_555 1_555
C6 C1 1_555 1_555
H4 C6 1_555 1_555
C7 C1 1_555 1_555
C8 C7 1_555 1_555
H5 C8 1_555 1_555
C9 C8 1_555 1_555
C10 C9 1_555 1_555
C11 C10 1_555 1_555
H6 C11 1_555 1_555
C12 C11 1_555 1_555
H7 C12 1_555 1_555
C13 C12 1_555 1_555
C14 C13 1_555 1_555
H8 C14 1_555 1_555
C15 C10 1_555 1_555
H9 C15 1_555 1_555
C16 O4 1_555 1_555
H10 C16 1_555 1_555
H11 C16 1_555 1_555
H12 C16 1_555 1_555
C17 O3 1_555 1_555
H13 C17 1_555 1_555
H14 C17 1_555 1_555
C18 C17 1_555 1_555
H15 C18 1_555 1_555
B1 O1 1_555 1_555
C19 C18 1_555 1_555
H16 C19 1_555 1_555
H17 C19 1_555 1_555
O2 B1 1_555 1_555
C5 C6 1_555 1_555
C14 C15 1_555 1_555

#END
