
#######################################################################
#
#                 Cambridge Crystallographic Data Centre
#                                CCDC 
#
#######################################################################
#
# If this CIF has been generated from an entry in the Cambridge 
# Structural Database, then it will include bibliographic, chemical, 
# crystal, experimental, refinement or atomic coordinate data resulting 
# from the CCDC's data processing and validation procedures.
#
#######################################################################

data_VEGKUO
_chemical_formula_moiety         'C12 H12 N6 O4'
_chemical_name_systematic        'bis(2-Azidoethyl) isophthalate'
_symmetry_cell_setting           monoclinic
_symmetry_space_group_name_H-M   'P 21/c'
_symmetry_Int_Tables_number      14
_space_group_name_Hall           '-P 2ybc'
loop_
_symmetry_equiv_pos_site_id
_symmetry_equiv_pos_as_xyz
1 x,y,z
2 -x,1/2+y,1/2-z
3 -x,-y,-z
4 x,1/2-y,1/2+z
_cell_length_a                   10.616(3)
_cell_length_b                   7.2262(19)
_cell_length_c                   21.640(5)
_cell_angle_alpha                90
_cell_angle_beta                 119.164(10)
_cell_angle_gamma                90
_cell_volume                     1449.63
_exptl_crystal_colour            colorless
_exptl_crystal_description       needle
_cell_formula_units_Z            4
_exptl_crystal_recrystallization_method 'ethyl acetate'
loop_
_atom_site_label
_atom_site_type_symbol
_atom_site_fract_x
_atom_site_fract_y
_atom_site_fract_z
O1 O 0.47069(16) -0.3537(2) -0.12170(7)
O2 O 0.23135(18) -0.3548(3) -0.16842(9)
O3 O 0.70533(19) -0.0966(3) 0.19206(8)
O4 O 0.78910(16) -0.2251(2) 0.12540(7)
N1 N 0.8921(3) -0.1779(4) -0.14579(19)
N2 N 0.7776(3) -0.2100(3) -0.15997(11)
N3 N 0.6510(2) -0.2255(3) -0.17660(11)
N4 N 1.0498(3) -0.2841(4) 0.11207(14)
N5 N 0.9523(3) -0.3200(4) 0.05241(16)
N6 N 0.8699(4) -0.3471(6) -0.00540(16)
C1 C 0.5993(3) -0.4182(4) -0.18273(13)
H1 H 0.5948 -0.4766 -0.2241
H2 H 0.6648 -0.4888 -0.1413
C2 C 0.4539(3) -0.4135(4) -0.18909(12)
H3 H 0.4104 -0.5355 -0.2009
H4 H 0.3921 -0.3282 -0.2262
C3 C 0.3497(2) -0.3285(3) -0.11872(12)
C4 C 0.3784(2) -0.2632(3) -0.04763(11)
C5 C 0.2617(3) -0.2129(4) -0.03903(14)
H5 H 0.1686 -0.2238 -0.0769
C6 C 0.2824(3) -0.1472(4) 0.02484(15)
H6 H 0.2036 -0.1134 0.0301
C7 C 0.4191(3) -0.1316(3) 0.08072(14)
H7 H 0.4326 -0.0860 0.1237
C8 C 0.5382(2) -0.1829(3) 0.07405(11)
C9 C 0.5170(2) -0.2492(3) 0.00925(10)
H8 H 0.5956 -0.2843 0.0041
C10 C 0.6838(3) -0.1622(3) 0.13653(11)
C11 C 0.9336(3) -0.2180(4) 0.18482(11)
H9 H 0.9713 -0.0930 0.1911
H10 H 0.9332 -0.2549 0.2278
C12 C 1.0251(3) -0.3468(4) 0.16984(13)
H11 H 0.9792 -0.4674 0.1578
H12 H 1.1175 -0.3607 0.2124
loop_
_geom_bond_atom_site_label_1
_geom_bond_atom_site_label_2
_geom_bond_site_symmetry_1
_geom_bond_site_symmetry_2
O1 C2 1_555 1_555
O2 C3 1_555 1_555
O3 C10 1_555 1_555
O4 C10 1_555 1_555
N1 N2 1_555 1_555
N2 N3 1_555 1_555
N3 C1 1_555 1_555
N4 N5 1_555 1_555
N5 N6 1_555 1_555
C1 H1 1_555 1_555
H2 C1 1_555 1_555
C2 C1 1_555 1_555
H3 C2 1_555 1_555
H4 C2 1_555 1_555
C3 O1 1_555 1_555
C4 C3 1_555 1_555
C5 C4 1_555 1_555
H5 C5 1_555 1_555
C6 C5 1_555 1_555
H6 C6 1_555 1_555
C7 C6 1_555 1_555
H7 C7 1_555 1_555
C8 C7 1_555 1_555
C9 C4 1_555 1_555
H8 C9 1_555 1_555
C10 C8 1_555 1_555
C11 O4 1_555 1_555
H9 C11 1_555 1_555
H10 C11 1_555 1_555
C12 N4 1_555 1_555
H11 C12 1_555 1_555
H12 C12 1_555 1_555
C8 C9 1_555 1_555
C11 C12 1_555 1_555

#END
