
#######################################################################
#
#                 Cambridge Crystallographic Data Centre
#                                CCDC 
#
#######################################################################
#
# If this CIF has been generated from an entry in the Cambridge 
# Structural Database, then it will include bibliographic, chemical, 
# crystal, experimental, refinement or atomic coordinate data resulting 
# from the CCDC's data processing and validation procedures.
#
#######################################################################

data_VEHFUM
_chemical_name_common            
'5-(but-2-en-1-yl)-23-hydroxy-14-[(4-hydroxy-3-nitrophenyl)methyl]-10,17,19,22-tetramethyl-2,11-bis(2-methylpropyl)-8-({1-[2-(oxiran-2-yl)propan-2-yl]-1H-indol-3-yl}methyl)-1,4,7,10,13,16,19-hepta-azabicyclo[18.3.1]tetracosane-3,6,9,12,15,18,24-heptone chloroform methanol solvate'
_chemical_formula_moiety         'C54 H75 N9 O12,2(C1 H4 O1),2(C1 H1 Cl3)'
_chemical_name_systematic        'ilamycin C~2~ chloroform methanol solvate'
_chemical_properties_biological  'anti-mycobacterial activity'
_symmetry_cell_setting           orthorhombic
_symmetry_space_group_name_H-M   'P 21 21 21'
_symmetry_Int_Tables_number      19
_space_group_name_Hall           'P 2ac 2ab'
loop_
_symmetry_equiv_pos_site_id
_symmetry_equiv_pos_as_xyz
1 x,y,z
2 1/2-x,-y,1/2+z
3 1/2+x,1/2-y,-z
4 -x,1/2+y,1/2-z
_cell_length_a                   17.30911(13)
_cell_length_b                   17.89029(14)
_cell_length_c                   21.67363(19)
_cell_angle_alpha                90
_cell_angle_beta                 90
_cell_angle_gamma                90
_cell_volume                     6711.56
_exptl_crystal_colour            yellow
_exptl_crystal_description       block
_cell_formula_units_Z            4
loop_
_atom_site_label
_atom_site_type_symbol
_atom_site_fract_x
_atom_site_fract_y
_atom_site_fract_z
N1 N 0.63584(17) -0.83804(15) 0.66866(15)
H1 H 0.6005 -0.8668 0.6541
N2 N 0.73097(16) -0.98972(15) 0.70167(13)
H2 H 0.7781 -0.9839 0.7134
N3 N 0.84758(15) -1.08922(14) 0.67631(12)
N4 N 0.99884(16) -0.96917(15) 0.73075(14)
N5 N 0.90997(16) -0.80799(15) 0.80329(13)
H3 H 0.8654 -0.8290 0.8013
N6 N 0.79953(15) -0.68968(15) 0.77082(12)
H4 H 0.7828 -0.7296 0.7532
N7 N 0.66212(19) -0.64102(16) 0.69939(14)
N8 N 0.58050(17) -0.55635(17) 0.53194(13)
N9 N 0.4996(2) -0.73514(19) 0.84616(16)
O1 O 0.55802(16) -0.71319(16) 0.71848(13)
O2 O 0.73299(14) -0.82575(13) 0.73761(12)
O3 O 0.65075(14) -1.04693(14) 0.63460(12)
O4 O 0.91693(15) -1.00201(14) 0.62525(11)
O5 O 0.88030(13) -0.94333(13) 0.76837(12)
O6 O 0.97629(13) -0.70359(13) 0.82877(12)
O7 O 0.43856(16) -0.6993(2) 0.84129(18)
O8 O 0.50422(19) -0.80173(17) 0.83420(18)
O9 O 0.49741(16) -0.58285(18) 0.89720(15)
H5 H 0.4609 -0.6068 0.8834
O10 O 0.8131(4) -0.5654(2) 0.7620(2)
O11 O 0.6052(2) -0.3951(2) 0.45278(18)
O12 O 0.86943(14) -1.21378(12) 0.71078(12)
H6 H 0.9146 -1.2092 0.7002
C1 C 0.6194(2) -0.7045(2) 0.69179(16)
C2 C 0.6437(2) -0.76245(18) 0.64353(16)
H7 H 0.6972 -0.7536 0.6307
C3 C 0.5888(2) -0.7531(2) 0.58806(18)
H8 H 0.5992 -0.7923 0.5583
H9 H 0.5359 -0.7590 0.6021
C4 C 0.5584(2) -0.6148(2) 0.57077(16)
H10 H 0.5219 -0.6105 0.6020
C5 C 0.5970(2) -0.6785(2) 0.55704(16)
C6 C 0.6484(2) -0.6607(2) 0.50735(17)
C7 C 0.7004(2) -0.7035(2) 0.4725(2)
H11 H 0.7078 -0.7538 0.4813
C8 C 0.7402(3) -0.6700(3) 0.4256(2)
H12 H 0.7750 -0.6979 0.4024
C9 C 0.7294(3) -0.5949(3) 0.4118(2)
H13 H 0.7572 -0.5737 0.3796
C10 C 0.6784(2) -0.5505(2) 0.44478(17)
H14 H 0.6716 -0.5003 0.4352
C11 C 0.6374(2) -0.5843(2) 0.49300(16)
C12 C 0.5576(2) -0.4770(2) 0.54088(16)
C13 C 0.5446(2) -0.4411(3) 0.47826(18)
H15 H 0.5158 -0.4714 0.4484
C14 C 0.5346(3) -0.3598(3) 0.4725(3)
H16 H 0.4997 -0.3416 0.4409
H17 H 0.5360 -0.3302 0.5099
C15 C 0.6201(3) -0.4363(3) 0.5780(2)
H18 H 0.6255 -0.4595 0.6177
H19 H 0.6057 -0.3849 0.5833
H20 H 0.6684 -0.4390 0.5563
C16 C 0.4807(3) -0.4737(3) 0.5750(2)
H21 H 0.4418 -0.4985 0.5511
H22 H 0.4662 -0.4224 0.5812
H23 H 0.4858 -0.4980 0.6143
C17 C 0.68156(19) -0.86367(18) 0.71326(16)
C18 C 0.67055(18) -0.94547(18) 0.73189(16)
H24 H 0.6198 -0.9627 0.7177
C19 C 0.6755(2) -0.9545(2) 0.80218(18)
H25 H 0.7253 -0.9358 0.8158
H26 H 0.6361 -0.9233 0.8209
C20 C 0.6659(2) -1.0333(2) 0.82603(19)
H27 H 0.6837 -1.0425 0.8658
C21 C 0.6351(2) -1.0902(2) 0.7968(2)
H28 H 0.6172 -1.0824 0.7568
C22 C 0.6267(3) -1.1679(2) 0.8238(2)
H29 H 0.6610 -1.2016 0.8028
H30 H 0.5744 -1.1847 0.8187
H31 H 0.6394 -1.1667 0.8669
C23 C 0.71597(18) -1.03877(17) 0.65653(15)
C24 C 0.78461(19) -1.08314(18) 0.63086(15)
H32 H 0.8050 -1.0544 0.5960
C25 C 0.7590(2) -1.15875(19) 0.60511(17)
H33 H 0.7453 -1.1912 0.6392
H34 H 0.7130 -1.1515 0.5802
C26 C 0.8204(2) -1.1976(2) 0.56587(18)
H35 H 0.8687 -1.1987 0.5894
C27 C 0.8351(3) -1.1560(2) 0.50556(19)
H36 H 0.7899 -1.1589 0.4800
H37 H 0.8780 -1.1785 0.4845
H38 H 0.8466 -1.1046 0.5142
C28 C 0.7960(4) -1.2780(3) 0.5529(2)
H39 H 0.7864 -1.3033 0.5913
H40 H 0.8364 -1.3033 0.5309
H41 H 0.7497 -1.2781 0.5285
C29 C 0.90977(18) -1.04436(17) 0.66976(15)
C30 C 0.97430(19) -1.04625(18) 0.71816(16)
H42 H 1.0184 -1.0707 0.6983
C31 C 0.9576(2) -1.09167(19) 0.77739(17)
H43 H 0.9875 -1.1375 0.7761
H44 H 0.9750 -1.0630 0.8127
C32 C 0.8723(2) -1.11182(19) 0.78670(16)
H45 H 0.8441 -1.0660 0.7971
C33 C 0.83919(19) -1.14296(17) 0.72720(15)
H46 H 0.7836 -1.1497 0.7339
C34 C 0.8615(3) -1.1675(2) 0.83940(18)
H47 H 0.8870 -1.2136 0.8293
H48 H 0.8074 -1.1766 0.8455
H49 H 0.8834 -1.1473 0.8765
C35 C 0.94817(19) -0.92467(18) 0.75923(16)
C36 C 0.97797(18) -0.85142(18) 0.78666(16)
H50 H 1.0089 -0.8243 0.7561
C37 C 1.0273(2) -0.8704(2) 0.84321(18)
H51 H 1.0426 -0.8251 0.8635
H52 H 1.0725 -0.8974 0.8304
H53 H 0.9978 -0.9007 0.8712
C38 C 0.91410(18) -0.73671(17) 0.82149(14)
C39 C 0.83702(18) -0.69664(17) 0.83069(14)
H54 H 0.8475 -0.6463 0.8465
C40 C 0.7834(2) -0.73712(19) 0.87690(15)
H55 H 0.7753 -0.7881 0.8632
H56 H 0.8083 -0.7389 0.9170
C41 C 0.7064(2) -0.69842(19) 0.88290(15)
C42 C 0.6396(2) -0.73196(19) 0.86232(16)
H57 H 0.6419 -0.7793 0.8448
C43 C 0.5681(2) -0.6957(2) 0.86747(16)
C44 C 0.5628(2) -0.6237(2) 0.89222(17)
C45 C 0.6308(2) -0.5906(2) 0.91374(17)
H58 H 0.6290 -0.5432 0.9314
C46 C 0.7002(2) -0.6273(2) 0.90902(16)
H59 H 0.7446 -0.6040 0.9237
C47 C 0.7900(3) -0.6251(2) 0.74225(19)
C48 C 0.7438(2) -0.6315(2) 0.68196(16)
H60 H 0.7607 -0.6769 0.6606
C49 C 0.7564(2) -0.5652(2) 0.63857(17)
H61 H 0.7218 -0.5703 0.6036
H62 H 0.7425 -0.5197 0.6602
C50 C 0.8386(2) -0.5572(2) 0.6144(2)
H63 H 0.8726 -0.5461 0.6494
C51 C 0.8425(3) -0.4919(2) 0.5692(2)
H64 H 0.8117 -0.5031 0.5336
H65 H 0.8951 -0.4840 0.5569
H66 H 0.8231 -0.4476 0.5888
C52 C 0.8674(4) -0.6275(3) 0.5834(4)
H67 H 0.8700 -0.6673 0.6130
H68 H 0.9179 -0.6188 0.5665
H69 H 0.8326 -0.6412 0.5508
C53 C 0.6275(3) -0.5821(2) 0.73736(19)
H70 H 0.5722 -0.5855 0.7352
H71 H 0.6438 -0.5341 0.7224
H72 H 0.6439 -0.5880 0.7794
C54 C 1.0717(2) -0.9433(2) 0.70419(19)
H73 H 1.1129 -0.9756 0.7173
H74 H 1.0820 -0.8932 0.7179
H75 H 1.0682 -0.9441 0.6600
Cl1 Cl 0.84969(6) -0.83126(6) 0.63577(5)
Cl2 Cl 0.88077(7) -0.81857(8) 0.50481(6)
Cl3 Cl 1.00199(6) -0.79071(8) 0.59271(6)
C55 C 0.9191(2) -0.8434(2) 0.5774(2)
H76 H 0.9337 -0.8963 0.5761
Cl4 Cl 0.72008(8) -0.93796(8) 0.50724(7)
Cl5 Cl 0.55537(8) -0.94156(9) 0.48845(8)
Cl6 Cl 0.65303(12) -1.04785(14) 0.42848(10)
C56 C 0.6388(3) -0.9953(3) 0.4960(2)
H77 H 0.6332 -1.0291 0.5312
O13 O 0.5055(2) -0.9264(2) 0.6437(2)
H78 H 0.5017 -0.9699 0.6319
C57 C 0.4311(5) -0.8925(8) 0.6438(6)
H79 H 0.4106 -0.8924 0.6027
H80 H 0.4354 -0.8420 0.6585
H81 H 0.3972 -0.9201 0.6704
O14 O 0.7903(4) -0.3522(4) 0.7010(4)
H86 H 0.8205 -0.3841 0.7135
C59 C 0.7283(6) -0.3530(4) 0.7347(4)
H87 H 0.6942 -0.3137 0.7217
H88 H 0.7420 -0.3455 0.7772
H89 H 0.7027 -0.4003 0.7303
H82? H 0.5022 -0.9705 0.6336
C58? C 0.4478(8) -0.9097(13) 0.6856(9)
H83? H 0.4002 -0.9321 0.6724
H84? H 0.4416 -0.8564 0.6881
H85? H 0.4617 -0.9289 0.7255
H90? H 0.7747 -0.3506 0.7106
H91? H 0.7340 -0.3225 0.7709
H92? H 0.6856 -0.3351 0.7107
O15? O 0.7151(7) -0.4241(6) 0.7517(7)
H93? H 0.7564 -0.4452 0.7581
loop_
_geom_bond_atom_site_label_1
_geom_bond_atom_site_label_2
_geom_bond_site_symmetry_1
_geom_bond_site_symmetry_2
N1 H1 1_555 1_555
N2 H2 1_555 1_555
N3 C24 1_555 1_555
N4 C30 1_555 1_555
N5 H3 1_555 1_555
N6 H4 1_555 1_555
N7 C1 1_555 1_555
N8 C4 1_555 1_555
N9 O7 1_555 1_555
O1 C1 1_555 1_555
O2 C17 1_555 1_555
O3 C23 1_555 1_555
O4 C29 1_555 1_555
O5 C35 1_555 1_555
O6 C38 1_555 1_555
O8 N9 1_555 1_555
O9 H5 1_555 1_555
O10 C47 1_555 1_555
O11 C13 1_555 1_555
O12 H6 1_555 1_555
C1 C2 1_555 1_555
C2 N1 1_555 1_555
H7 C2 1_555 1_555
C3 C2 1_555 1_555
H8 C3 1_555 1_555
H9 C3 1_555 1_555
C4 H10 1_555 1_555
C5 C3 1_555 1_555
C6 C5 1_555 1_555
C7 C6 1_555 1_555
H11 C7 1_555 1_555
C8 C7 1_555 1_555
H12 C8 1_555 1_555
C9 C8 1_555 1_555
H13 C9 1_555 1_555
C10 C9 1_555 1_555
H14 C10 1_555 1_555
C11 N8 1_555 1_555
C12 N8 1_555 1_555
C13 C12 1_555 1_555
H15 C13 1_555 1_555
C14 O11 1_555 1_555
H16 C14 1_555 1_555
H17 C14 1_555 1_555
C15 C12 1_555 1_555
H18 C15 1_555 1_555
H19 C15 1_555 1_555
H20 C15 1_555 1_555
C16 C12 1_555 1_555
H21 C16 1_555 1_555
H22 C16 1_555 1_555
H23 C16 1_555 1_555
C17 N1 1_555 1_555
C18 N2 1_555 1_555
H24 C18 1_555 1_555
C19 C18 1_555 1_555
H25 C19 1_555 1_555
H26 C19 1_555 1_555
C20 C19 1_555 1_555
H27 C20 1_555 1_555
C21 C20 1_555 1_555
H28 C21 1_555 1_555
C22 C21 1_555 1_555
H29 C22 1_555 1_555
H30 C22 1_555 1_555
H31 C22 1_555 1_555
C23 N2 1_555 1_555
C24 C23 1_555 1_555
H32 C24 1_555 1_555
C25 C24 1_555 1_555
H33 C25 1_555 1_555
H34 C25 1_555 1_555
C26 C25 1_555 1_555
H35 C26 1_555 1_555
C27 C26 1_555 1_555
H36 C27 1_555 1_555
H37 C27 1_555 1_555
H38 C27 1_555 1_555
C28 C26 1_555 1_555
H39 C28 1_555 1_555
H40 C28 1_555 1_555
H41 C28 1_555 1_555
C29 N3 1_555 1_555
C30 C29 1_555 1_555
H42 C30 1_555 1_555
C31 C30 1_555 1_555
H43 C31 1_555 1_555
H44 C31 1_555 1_555
C32 C31 1_555 1_555
H45 C32 1_555 1_555
C33 N3 1_555 1_555
H46 C33 1_555 1_555
C34 C32 1_555 1_555
H47 C34 1_555 1_555
H48 C34 1_555 1_555
H49 C34 1_555 1_555
C35 N4 1_555 1_555
C36 N5 1_555 1_555
H50 C36 1_555 1_555
C37 C36 1_555 1_555
H51 C37 1_555 1_555
H52 C37 1_555 1_555
H53 C37 1_555 1_555
C38 N5 1_555 1_555
C39 N6 1_555 1_555
H54 C39 1_555 1_555
C40 C39 1_555 1_555
H55 C40 1_555 1_555
H56 C40 1_555 1_555
C41 C40 1_555 1_555
C42 C41 1_555 1_555
H57 C42 1_555 1_555
C43 N9 1_555 1_555
C44 O9 1_555 1_555
C45 C44 1_555 1_555
H58 C45 1_555 1_555
C46 C41 1_555 1_555
H59 C46 1_555 1_555
C47 N6 1_555 1_555
C48 N7 1_555 1_555
H60 C48 1_555 1_555
C49 C48 1_555 1_555
H61 C49 1_555 1_555
H62 C49 1_555 1_555
C50 C49 1_555 1_555
H63 C50 1_555 1_555
C51 C50 1_555 1_555
H64 C51 1_555 1_555
H65 C51 1_555 1_555
H66 C51 1_555 1_555
C52 C50 1_555 1_555
H67 C52 1_555 1_555
H68 C52 1_555 1_555
H69 C52 1_555 1_555
C53 N7 1_555 1_555
H70 C53 1_555 1_555
H71 C53 1_555 1_555
H72 C53 1_555 1_555
C54 N4 1_555 1_555
H73 C54 1_555 1_555
H74 C54 1_555 1_555
H75 C54 1_555 1_555
Cl1 C55 1_555 1_555
Cl2 C55 1_555 1_555
Cl3 C55 1_555 1_555
C55 H76 1_555 1_555
Cl4 C56 1_555 1_555
Cl5 C56 1_555 1_555
Cl6 C56 1_555 1_555
C56 H77 1_555 1_555
O13 H78 1_555 1_555
C57 O13 1_555 1_555
H79 C57 1_555 1_555
H80 C57 1_555 1_555
H81 C57 1_555 1_555
O14 H86 1_555 1_555
C59 O14 1_555 1_555
H87 C59 1_555 1_555
H88 C59 1_555 1_555
H89 C59 1_555 1_555
O12 C33 1_555 1_555
C4 C5 1_555 1_555
C6 C11 1_555 1_555
C10 C11 1_555 1_555
C13 C14 1_555 1_555
C17 C18 1_555 1_555
C32 C33 1_555 1_555
C35 C36 1_555 1_555
C38 C39 1_555 1_555
C42 C43 1_555 1_555
C43 C44 1_555 1_555
C45 C46 1_555 1_555
C47 C48 1_555 1_555

#END
