
#######################################################################
#
#                 Cambridge Crystallographic Data Centre
#                                CCDC 
#
#######################################################################
#
# If this CIF has been generated from an entry in the Cambridge 
# Structural Database, then it will include bibliographic, chemical, 
# crystal, experimental, refinement or atomic coordinate data resulting 
# from the CCDC's data processing and validation procedures.
#
#######################################################################

data_VEHGIB
_chemical_formula_moiety         'C31 H52 O5 Si1'
_chemical_name_systematic        
'(1S,3R,8S,10R,13S,14S,17S)-17-((R)-1-((t-butyl(dimethyl)silyl)oxy)ethyl)-10,13-dimethyl-2,3,4,7,8,9,10,11,12,13,14,15,16,17-tetradecahydro-1H-cyclopenta[a]phenanthrene-1,3-diyl diacetate'
_symmetry_cell_setting           monoclinic
_symmetry_space_group_name_H-M   'P 21'
_symmetry_Int_Tables_number      4
_space_group_name_Hall           'P 2yb'
loop_
_symmetry_equiv_pos_site_id
_symmetry_equiv_pos_as_xyz
1 x,y,z
2 -x,1/2+y,-z
_cell_length_a                   12.3062(5)
_cell_length_b                   6.4738(3)
_cell_length_c                   19.5638(8)
_cell_angle_alpha                90
_cell_angle_beta                 95.760(3)
_cell_angle_gamma                90
_cell_volume                     1550.74
_exptl_crystal_colour            colorless
_exptl_crystal_description       needle
_cell_formula_units_Z            2
_exptl_crystal_recrystallization_method n-hexane
loop_
_atom_site_label
_atom_site_type_symbol
_atom_site_fract_x
_atom_site_fract_y
_atom_site_fract_z
Si1 Si -0.33836(10) 1.1674(2) 0.91146(6)
C1 C -0.1989(4) 1.2300(9) 0.9551(3)
C2 C -0.2085(5) 1.3670(10) 1.0188(3)
H1 H -0.2470 1.4949 1.0048
H2 H -0.2492 1.2927 1.0516
H3 H -0.1353 1.4002 1.0404
C3 C -0.1336(5) 1.3470(11) 0.9047(3)
H4 H -0.1723 1.4742 0.8900
H5 H -0.0613 1.3817 0.9273
H6 H -0.1255 1.2599 0.8645
C4 C -0.1386(5) 1.0314(11) 0.9781(3)
H7 H -0.1804 0.9568 1.0103
H8 H -0.1305 0.9442 0.9380
H9 H -0.0662 1.0660 1.0008
C5 C -0.4096(5) 1.4101(9) 0.8805(3)
H10 H -0.4226 1.4966 0.9199
H11 H -0.3639 1.4854 0.8506
H12 H -0.4795 1.3753 0.8546
C6 C -0.4202(4) 1.0258(9) 0.9715(3)
H13 H -0.4330 1.1157 1.0102
H14 H -0.4905 0.9849 0.9472
H15 H -0.3803 0.9023 0.9887
O1 O -0.3156(2) 1.0190(5) 0.84557(16)
C7 C -0.3811(3) 0.9993(7) 0.7817(2)
H16 H -0.3815 1.1349 0.7572
C8 C -0.4993(3) 0.9419(8) 0.7923(3)
H17 H -0.5423 0.9294 0.7476
H18 H -0.5001 0.8098 0.8168
H19 H -0.5309 1.0497 0.8194
C9 C -0.3291(3) 0.8377(7) 0.7386(2)
H20 H -0.3292 0.7036 0.7639
C10 C -0.3944(3) 0.8047(8) 0.6671(2)
H21 H -0.4465 0.6887 0.6690
H22 H -0.4361 0.9309 0.6527
C11 C -0.3100(3) 0.7556(7) 0.6160(2)
H23 H -0.3314 0.6310 0.5885
H24 H -0.3020 0.8732 0.5845
C12 C -0.2044(3) 0.7187(7) 0.6626(2)
H25 H -0.2117 0.5793 0.6837
C13 C -0.0980(3) 0.7152(6) 0.6294(2)
H26 H -0.0895 0.8499 0.6055
C14 C -0.0973(3) 0.5406(7) 0.5768(2)
H27 H -0.1293 0.4152 0.5957
H28 H -0.1440 0.5804 0.5347
C15 C 0.0148(3) 0.4907(7) 0.5581(2)
H29 H 0.0203 0.3999 0.5205
C16 C 0.1072(3) 0.5636(7) 0.5901(2)
C17 C 0.2154(3) 0.5154(7) 0.5630(2)
H30 H 0.2424 0.6401 0.5408
H31 H 0.2047 0.4054 0.5278
C18 C 0.2996(3) 0.4454(7) 0.6201(2)
H32 H 0.2768 0.3112 0.6396
O2 O 0.4063(2) 0.4235(5) 0.59453(16)
C19 C 0.4299(4) 0.2381(7) 0.5688(2)
O3 O 0.3697(3) 0.0923(5) 0.56697(18)
C20 C 0.5408(4) 0.2399(7) 0.5433(3)
H33 H 0.5735 0.3772 0.5506
H34 H 0.5873 0.1369 0.5686
H35 H 0.5340 0.2067 0.4942
C21 C 0.3133(3) 0.6082(7) 0.6762(2)
H36 H 0.3383 0.7392 0.6569
H37 H 0.3695 0.5625 0.7129
C22 C 0.2059(3) 0.6442(7) 0.7066(2)
H38 H 0.2168 0.7570 0.7415
O4 O 0.1781(2) 0.4538(5) 0.74147(14)
C23 C 0.2238(4) 0.4286(8) 0.8060(2)
O5 O 0.2837(3) 0.5550(6) 0.83612(17)
C24 C 0.1912(4) 0.2281(8) 0.8356(3)
H39 H 0.1426 0.1532 0.8014
H40 H 0.2565 0.1448 0.8486
H41 H 0.1531 0.2546 0.8764
C25 C 0.1094(3) 0.7044(6) 0.6532(2)
C26 C 0.1317(3) 0.9284(7) 0.6309(2)
H42 H 0.1333 1.0202 0.6708
H43 H 0.2021 0.9343 0.6117
H44 H 0.0736 0.9726 0.5960
C27 C -0.0009(3) 0.6866(7) 0.6850(2)
H45 H -0.0053 0.5415 0.7020
C28 C -0.0068(3) 0.8277(7) 0.7481(2)
H46 H 0.0499 0.7842 0.7848
H47 H 0.0096 0.9714 0.7352
C29 C -0.1190(3) 0.8230(7) 0.7766(2)
H48 H -0.1320 0.6836 0.7949
H49 H -0.1193 0.9230 0.8148
C30 C -0.2105(3) 0.8767(7) 0.7209(2)
C31 C -0.1979(4) 1.1005(7) 0.6964(2)
H50 H -0.2571 1.1330 0.6607
H51 H -0.2011 1.1951 0.7353
H52 H -0.1274 1.1159 0.6776
H53? H 0.5564 0.1034 0.5250
H54? H 0.5425 0.3436 0.5070
H55? H 0.5959 0.2738 0.5814
H56? H 0.2255 0.2152 0.8829
H57? H 0.1116 0.2236 0.8357
H58? H 0.2151 0.1138 0.8079
loop_
_geom_bond_atom_site_label_1
_geom_bond_atom_site_label_2
_geom_bond_site_symmetry_1
_geom_bond_site_symmetry_2
Si1 C1 1_555 1_555
C1 C2 1_555 1_555
C2 H1 1_555 1_555
H2 C2 1_555 1_555
H3 C2 1_555 1_555
C3 C1 1_555 1_555
H4 C3 1_555 1_555
H5 C3 1_555 1_555
H6 C3 1_555 1_555
C4 C1 1_555 1_555
H7 C4 1_555 1_555
H8 C4 1_555 1_555
H9 C4 1_555 1_555
C5 Si1 1_555 1_555
H10 C5 1_555 1_555
H11 C5 1_555 1_555
H12 C5 1_555 1_555
C6 Si1 1_555 1_555
H13 C6 1_555 1_555
H14 C6 1_555 1_555
H15 C6 1_555 1_555
O1 Si1 1_555 1_555
C7 O1 1_555 1_555
H16 C7 1_555 1_555
C8 C7 1_555 1_555
H17 C8 1_555 1_555
H18 C8 1_555 1_555
H19 C8 1_555 1_555
C9 C7 1_555 1_555
H20 C9 1_555 1_555
C10 C9 1_555 1_555
H21 C10 1_555 1_555
H22 C10 1_555 1_555
C11 C10 1_555 1_555
H23 C11 1_555 1_555
H24 C11 1_555 1_555
C12 C11 1_555 1_555
H25 C12 1_555 1_555
C13 C12 1_555 1_555
H26 C13 1_555 1_555
C14 C13 1_555 1_555
H27 C14 1_555 1_555
H28 C14 1_555 1_555
C15 C14 1_555 1_555
H29 C15 1_555 1_555
C16 C15 1_555 1_555
C17 C16 1_555 1_555
H30 C17 1_555 1_555
H31 C17 1_555 1_555
C18 C17 1_555 1_555
H32 C18 1_555 1_555
O2 C18 1_555 1_555
C19 O2 1_555 1_555
O3 C19 1_555 1_555
C20 C19 1_555 1_555
H33 C20 1_555 1_555
H34 C20 1_555 1_555
H35 C20 1_555 1_555
C21 C18 1_555 1_555
H36 C21 1_555 1_555
H37 C21 1_555 1_555
C22 C21 1_555 1_555
H38 C22 1_555 1_555
O4 C22 1_555 1_555
C23 O4 1_555 1_555
O5 C23 1_555 1_555
C24 C23 1_555 1_555
H39 C24 1_555 1_555
H40 C24 1_555 1_555
H41 C24 1_555 1_555
C25 C16 1_555 1_555
C26 C25 1_555 1_555
H42 C26 1_555 1_555
H43 C26 1_555 1_555
H44 C26 1_555 1_555
C27 C13 1_555 1_555
H45 C27 1_555 1_555
C28 C27 1_555 1_555
H46 C28 1_555 1_555
H47 C28 1_555 1_555
C29 C28 1_555 1_555
H48 C29 1_555 1_555
H49 C29 1_555 1_555
C30 C9 1_555 1_555
C31 C30 1_555 1_555
H50 C31 1_555 1_555
H51 C31 1_555 1_555
H52 C31 1_555 1_555
C12 C30 1_555 1_555
C22 C25 1_555 1_555
C25 C27 1_555 1_555
C29 C30 1_555 1_555

#END
