
#######################################################################
#
#                 Cambridge Crystallographic Data Centre
#                                CCDC 
#
#######################################################################
#
# If this CIF has been generated from an entry in the Cambridge 
# Structural Database, then it will include bibliographic, chemical, 
# crystal, experimental, refinement or atomic coordinate data resulting 
# from the CCDC's data processing and validation procedures.
#
#######################################################################

data_VEHMUQ
_chemical_formula_moiety         'C25 H28 O6'
_chemical_name_systematic        
1-(Diphenyl(hydroxy)methyl)-5,5,11,11-tetramethyl-4,6,10,12-tetraoxatricyclo(7.3.0.0^3,7^)dodecan-8-one
_symmetry_cell_setting           orthorhombic
_symmetry_space_group_name_H-M   'P 21 21 21'
_symmetry_Int_Tables_number      19
_space_group_name_Hall           'P 2ac 2ab'
loop_
_symmetry_equiv_pos_site_id
_symmetry_equiv_pos_as_xyz
1 x,y,z
2 1/2-x,-y,1/2+z
3 1/2+x,1/2-y,-z
4 -x,1/2+y,1/2-z
_cell_length_a                   10.2457(2)
_cell_length_b                   18.918
_cell_length_c                   23.1566(6)
_cell_angle_alpha                90
_cell_angle_beta                 90
_cell_angle_gamma                90
_cell_volume                     4488.4
_exptl_crystal_colour            white
_cell_formula_units_Z            8
loop_
_atom_site_label
_atom_site_type_symbol
_atom_site_fract_x
_atom_site_fract_y
_atom_site_fract_z
O1 O 0.9662(3) 0.6553(2) 0.3473(1)
O2 O 0.9088(4) 0.5678(2) 0.4094(1)
O3 O 1.0120(4) 0.4137(2) 0.3495(2)
O4 O 0.7640(4) 0.4085(2) 0.3077(2)
O5 O 0.7200(4) 0.4967(2) 0.2460(1)
O6 O 1.1792(3) 0.5241(2) 0.2782(1)
C1 C 1.0042(5) 0.5899(2) 0.3198(2)
C2 C 1.0015(5) 0.5369(2) 0.3707(2)
C3 C 0.9470(6) 0.4667(3) 0.3523(2)
C4 C 0.8053(6) 0.4701(2) 0.3370(2)
C5 C 0.7802(5) 0.5319(2) 0.2949(2)
C6 C 0.9030(5) 0.5687(2) 0.2737(2)
C7 C 0.6795(6) 0.3772(3) 0.2163(2)
C8 C 0.6712(6) 0.4288(3) 0.2649(2)
C9 C 0.5387(7) 0.4374(3) 0.2904(3)
C10 C 0.7895(6) 0.6759(3) 0.4132(3)
C11 C 0.9217(6) 0.6433(2) 0.4055(2)
C12 C 1.0198(7) 0.6695(3) 0.4486(2)
C13 C 1.1434(5) 0.5958(2) 0.2920(2)
C14 C 1.2444(5) 0.6222(2) 0.3358(2)
C15 C 1.2551(6) 0.6936(3) 0.3489(2)
C16 C 1.3435(6) 0.7173(3) 0.3895(3)
C17 C 1.4255(7) 0.6700(4) 0.4171(3)
C18 C 1.4182(6) 0.5992(3) 0.4040(3)
C19 C 1.3280(6) 0.5763(3) 0.3634(2)
C20 C 1.1472(5) 0.6410(2) 0.2369(2)
C21 C 1.2305(5) 0.6218(3) 0.1930(2)
C22 C 1.2387(6) 0.6623(3) 0.1428(3)
C23 C 1.1633(7) 0.7220(4) 0.1370(3)
C24 C 1.0838(6) 0.7425(3) 0.1810(3)
C25 C 1.0740(5) 0.7025(2) 0.2309(2)
H1 H 1.1271(3) 0.5079(2) 0.2548(1)
H2 H 1.0876(5) 0.5319(2) 0.3887(2)
H3 H 0.7531(6) 0.4766(2) 0.3720(2)
H4 H 0.7198(5) 0.5662(2) 0.3120(2)
H5 H 0.8770(5) 0.6111(2) 0.2531(2)
H6 H 0.9456(5) 0.5379(2) 0.2461(2)
H7 H 0.6176(6) 0.3899(3) 0.1870(2)
H8 H 0.6603(6) 0.3306(3) 0.2304(2)
H9 H 0.7659(6) 0.3780(3) 0.2003(2)
H10 H 0.4782(7) 0.4510(3) 0.2608(3)
H11 H 0.5412(7) 0.4732(3) 0.3198(3)
H12 H 0.5114(7) 0.3934(3) 0.3073(3)
H13 H 0.7968(6) 0.7264(3) 0.4107(3)
H14 H 0.7551(6) 0.6630(3) 0.4503(3)
H15 H 0.7321(6) 0.6592(3) 0.3834(3)
H16 H 1.0275(7) 0.7200(3) 0.4454(2)
H17 H 1.1030(7) 0.6481(3) 0.4410(2)
H18 H 0.9917(7) 0.6574(3) 0.4869(2)
H19 H 1.2018(6) 0.7260(3) 0.3301(2)
H20 H 1.3480(6) 0.7652(3) 0.3982(3)
H21 H 1.4852(7) 0.6860(4) 0.4444(3)
H22 H 1.4733(6) 0.5670(3) 0.4221(3)
H23 H 1.3238(6) 0.5284(3) 0.3546(2)
H24 H 1.2817(5) 0.5815(3) 0.1968(2)
H25 H 1.2951(6) 0.6489(3) 0.1133(3)
H26 H 1.1667(7) 0.7483(4) 0.1031(3)
H27 H 1.0355(6) 0.7839(3) 0.1775(3)
H28 H 1.0185(5) 0.7167(2) 0.2604(2)
O7 O 0.6414(3) 0.3746(2) 0.5438(1)
O8 O 0.6078(4) 0.4713(2) 0.4875(1)
O9 O 0.7164(4) 0.6142(2) 0.5592(2)
O10 O 0.4727(4) 0.6191(2) 0.6068(2)
O11 O 0.4179(4) 0.5239(2) 0.6592(2)
O12 O 0.8687(3) 0.4824(2) 0.6283(1)
C26 C 0.6894(5) 0.4329(2) 0.5766(2)
C27 C 0.6974(5) 0.4935(2) 0.5311(2)
C28 C 0.6479(6) 0.5630(3) 0.5545(2)
C29 C 0.5056(6) 0.5607(2) 0.5710(2)
C30 C 0.4728(5) 0.4946(2) 0.6073(2)
C31 C 0.5922(5) 0.4515(2) 0.6245(2)
C32 C 0.3948(7) 0.6377(3) 0.7014(2)
C33 C 0.3787(6) 0.5952(2) 0.6475(2)
C34 C 0.2429(7) 0.5966(3) 0.6228(3)
C35 C 0.4552(5) 0.3773(3) 0.4802(2)
C36 C 0.5960(5) 0.3958(2) 0.4883(2)
C37 C 0.6816(6) 0.3619(3) 0.4431(2)
C38 C 0.8281(5) 0.4170(2) 0.6032(2)
C39 C 0.9298(5) 0.3997(2) 0.5565(2)
C40 C 1.0171(5) 0.4514(3) 0.5382(2)
C41 C 1.1108(6) 0.4353(3) 0.4961(2)
C42 C 1.1165(6) 0.3690(4) 0.4722(2)
C43 C 1.0324(6) 0.3182(3) 0.4904(2)
C44 C 0.9409(5) 0.3327(3) 0.5327(2)
C45 C 0.8300(5) 0.3576(2) 0.6490(2)
C46 C 0.7517(6) 0.2983(2) 0.6466(2)
C47 C 0.7674(7) 0.2450(3) 0.6871(3)
C48 C 0.8561(6) 0.2505(3) 0.7299(3)
C49 C 0.9335(6) 0.3098(3) 0.7335(3)
C50 C 0.9208(6) 0.3627(3) 0.6927(2)
H29 H 0.8194(3) 0.4928(2) 0.6548(1)
H30 H 0.7860(5) 0.4982(2) 0.5156(2)
H31 H 0.4516(6) 0.5614(2) 0.5361(2)
H32 H 0.4088(5) 0.4649(2) 0.5873(2)
H33 H 0.5621(5) 0.4077(2) 0.6417(2)
H34 H 0.6387(5) 0.4774(2) 0.6542(2)
H35 H 0.3319(7) 0.6226(3) 0.7296(2)
H36 H 0.3816(7) 0.6868(3) 0.6929(2)
H37 H 0.4812(7) 0.6309(3) 0.7164(2)
H38 H 0.1820(7) 0.5802(3) 0.6513(3)
H39 H 0.2390(7) 0.5665(3) 0.5895(3)
H40 H 0.2211(7) 0.6441(3) 0.6118(3)
H41 H 0.4272(5) 0.3920(3) 0.4425(2)
H42 H 0.4038(5) 0.4010(5) 0.5090(2)
H43 H 0.4442(5) 0.3271(3) 0.4840(2)
H44 H 0.6522(6) 0.3756(3) 0.4054(2)
H45 H 0.6769(6) 0.3114(3) 0.4468(2)
H46 H 0.7702(6) 0.3771(3) 0.4484(2)
H47 H 1.0133(5) 0.4966(3) 0.5539(2)
H48 H 1.1697(6) 0.4698(3) 0.4843(2)
H49 H 1.1776(6) 0.3590(4) 0.4437(2)
H50 H 1.0364(6) 0.2732(3) 0.4744(2)
H51 H 0.8858(5) 0.2969(3) 0.5455(2)
H52 H 0.6887(6) 0.2940(2) 0.6179(2)
H53 H 0.7158(7) 0.2046(3) 0.6847(3)
H54 H 0.8649(6) 0.2144(3) 0.7569(3)
H55 H 0.9941(6) 0.3142(3) 0.7631(3)
H56 H 0.9743(6) 0.4023(3) 0.6948(2)
loop_
_geom_bond_atom_site_label_1
_geom_bond_atom_site_label_2
_geom_bond_site_symmetry_1
_geom_bond_site_symmetry_2
O1 C1 1_555 1_555
O2 C2 1_555 1_555
O3 C3 1_555 1_555
O4 C4 1_555 1_555
O5 C5 1_555 1_555
O6 C13 1_555 1_555
C1 C2 1_555 1_555
C2 C3 1_555 1_555
C3 C4 1_555 1_555
C4 C5 1_555 1_555
C5 C6 1_555 1_555
C6 C1 1_555 1_555
C7 C8 1_555 1_555
C8 O4 1_555 1_555
C9 C8 1_555 1_555
C10 C11 1_555 1_555
C11 O1 1_555 1_555
C12 C11 1_555 1_555
C13 C1 1_555 1_555
C14 C13 1_555 1_555
C15 C14 1_555 1_555
C16 C15 1_555 1_555
C17 C16 1_555 1_555
C18 C17 1_555 1_555
C19 C14 1_555 1_555
C20 C13 1_555 1_555
C21 C20 1_555 1_555
C22 C21 1_555 1_555
C23 C22 1_555 1_555
C24 C23 1_555 1_555
C25 C20 1_555 1_555
O7 C26 1_555 1_555
O8 C27 1_555 1_555
O9 C28 1_555 1_555
O10 C29 1_555 1_555
O11 C30 1_555 1_555
O12 C38 1_555 1_555
C26 C27 1_555 1_555
C27 C28 1_555 1_555
C28 C29 1_555 1_555
C29 C30 1_555 1_555
C30 C31 1_555 1_555
C31 C26 1_555 1_555
C32 C33 1_555 1_555
C33 O10 1_555 1_555
C34 C33 1_555 1_555
C35 C36 1_555 1_555
C36 O7 1_555 1_555
C37 C36 1_555 1_555
C38 C26 1_555 1_555
C39 C38 1_555 1_555
C40 C39 1_555 1_555
C41 C40 1_555 1_555
C42 C41 1_555 1_555
C43 C42 1_555 1_555
C44 C39 1_555 1_555
C45 C38 1_555 1_555
C46 C45 1_555 1_555
C47 C46 1_555 1_555
C48 C47 1_555 1_555
C49 C48 1_555 1_555
C50 C45 1_555 1_555
H1 O6 1_555 1_555
H2 C2 1_555 1_555
H3 C4 1_555 1_555
H4 C5 1_555 1_555
H5 C6 1_555 1_555
H6 C6 1_555 1_555
H7 C7 1_555 1_555
H8 C7 1_555 1_555
H9 C7 1_555 1_555
H10 C9 1_555 1_555
H11 C9 1_555 1_555
H12 C9 1_555 1_555
H13 C10 1_555 1_555
H14 C10 1_555 1_555
H15 C10 1_555 1_555
H16 C12 1_555 1_555
H17 C12 1_555 1_555
H18 C12 1_555 1_555
H19 C15 1_555 1_555
H20 C16 1_555 1_555
H21 C17 1_555 1_555
H22 C18 1_555 1_555
H23 C19 1_555 1_555
H24 C21 1_555 1_555
H25 C22 1_555 1_555
H26 C23 1_555 1_555
H27 C24 1_555 1_555
H28 C25 1_555 1_555
H29 O12 1_555 1_555
H30 C27 1_555 1_555
H31 C29 1_555 1_555
H32 C30 1_555 1_555
H33 C31 1_555 1_555
H34 C31 1_555 1_555
H35 C32 1_555 1_555
H36 C32 1_555 1_555
H37 C32 1_555 1_555
H38 C34 1_555 1_555
H39 C34 1_555 1_555
H40 C34 1_555 1_555
H41 C35 1_555 1_555
H42 C35 1_555 1_555
H43 C35 1_555 1_555
H44 C37 1_555 1_555
H45 C37 1_555 1_555
H46 C37 1_555 1_555
H47 C40 1_555 1_555
H48 C41 1_555 1_555
H49 C42 1_555 1_555
H50 C43 1_555 1_555
H51 C44 1_555 1_555
H52 C46 1_555 1_555
H53 C47 1_555 1_555
H54 C48 1_555 1_555
H55 C49 1_555 1_555
H56 C50 1_555 1_555
O2 C11 1_555 1_555
O5 C8 1_555 1_555
C18 C19 1_555 1_555
C24 C25 1_555 1_555
O8 C36 1_555 1_555
O11 C33 1_555 1_555
C43 C44 1_555 1_555
C49 C50 1_555 1_555

#END
