
#######################################################################
#
#                 Cambridge Crystallographic Data Centre
#                                CCDC 
#
#######################################################################
#
# If this CIF has been generated from an entry in the Cambridge 
# Structural Database, then it will include bibliographic, chemical, 
# crystal, experimental, refinement or atomic coordinate data resulting 
# from the CCDC's data processing and validation procedures.
#
#######################################################################

data_VEJNOP
_chemical_formula_moiety         'C26 H22 N2 O2'
_chemical_name_systematic        
4-Methyl-4-((2-methyl-1H-indol-3-yl)(phenyl)methyl)-2-phenyl-1,3-oxazol-5(4H)-one
_symmetry_cell_setting           orthorhombic
_symmetry_space_group_name_H-M   'P 21 21 21'
_symmetry_Int_Tables_number      19
_space_group_name_Hall           'P 2ac 2ab'
loop_
_symmetry_equiv_pos_site_id
_symmetry_equiv_pos_as_xyz
1 x,y,z
2 1/2-x,-y,1/2+z
3 -x,1/2+y,1/2-z
4 1/2+x,1/2-y,-z
_cell_length_a                   7.2255(19)
_cell_length_b                   15.759(4)
_cell_length_c                   17.923(5)
_cell_angle_alpha                90
_cell_angle_beta                 90
_cell_angle_gamma                90
_cell_volume                     2040.83
_exptl_crystal_colour            colorless
_exptl_crystal_description       prism
_cell_formula_units_Z            4
loop_
_atom_site_label
_atom_site_type_symbol
_atom_site_fract_x
_atom_site_fract_y
_atom_site_fract_z
O1 O 0.44656(18) 0.42195(8) 0.33622(7)
O2 O 0.19002(19) 0.48369(9) 0.38182(7)
N1 N 0.4767(2) 0.48372(11) 0.72402(9)
N2 N 0.5982(2) 0.38142(10) 0.44163(8)
C1 C 0.6389(3) 0.44129(12) 0.70931(10)
C2 C 0.7710(3) 0.41024(13) 0.75853(10)
H1 H 0.7588 0.4185 0.8108
C3 C 0.9201(3) 0.36719(13) 0.72954(11)
H2 H 1.0124 0.3454 0.7620
C4 C 0.9368(3) 0.35522(13) 0.65205(11)
H3 H 1.0391 0.3241 0.6330
C5 C 0.8072(2) 0.38779(12) 0.60294(10)
H4 H 0.8213 0.3793 0.5508
C6 C 0.6550(3) 0.43342(11) 0.63038(9)
C7 C 0.4952(2) 0.47587(11) 0.59909(10)
C8 C 0.3910(3) 0.50472(12) 0.65767(10)
C9 C 0.2122(3) 0.55219(13) 0.65925(11)
H5 H 0.1761 0.5628 0.7111
H6 H 0.1161 0.5185 0.6345
H7 H 0.2270 0.6064 0.6332
C10 C 0.4449(2) 0.49634(11) 0.51882(9)
H8 H 0.3183 0.5217 0.5219
C11 C 0.4224(2) 0.41865(11) 0.46625(9)
C12 C 0.3325(3) 0.44765(11) 0.39334(10)
C13 C 0.5998(2) 0.38428(11) 0.37100(10)
C14 C 0.3002(3) 0.35050(13) 0.50186(11)
H9 H 0.3575 0.3308 0.5483
H10 H 0.2869 0.3027 0.4673
H11 H 0.1780 0.3744 0.5128
C15 C 0.7406(3) 0.34978(12) 0.32085(10)
C16 C 0.9004(3) 0.31615(12) 0.35188(11)
H12 H 0.9193 0.3192 0.4043
C17 C 1.0321(3) 0.27826(14) 0.30721(12)
H13 H 1.1414 0.2553 0.3286
C18 C 1.0034(3) 0.27397(14) 0.23053(12)
H14 H 1.0918 0.2464 0.1997
C19 C 0.8474(3) 0.30947(15) 0.19896(12)
H15 H 0.8308 0.3079 0.1464
C20 C 0.7150(3) 0.34732(14) 0.24381(11)
H16 H 0.6072 0.3715 0.2222
C21 C 0.5654(3) 0.56657(11) 0.48585(9)
C22 C 0.7580(3) 0.56537(14) 0.49046(12)
H17 H 0.8186 0.5169 0.5103
C23 C 0.8619(3) 0.63380(15) 0.46657(12)
H18 H 0.9930 0.6321 0.4705
C24 C 0.7763(4) 0.70469(14) 0.43703(11)
H19 H 0.8478 0.7525 0.4225
C25 C 0.5872(4) 0.70561(13) 0.42880(12)
H20 H 0.5280 0.7531 0.4065
C26 C 0.4830(3) 0.63688(12) 0.45322(11)
H21 H 0.3523 0.6381 0.4474
H22 H 0.435(3) 0.4928(14) 0.7690(14)
H23? H 0.1700 0.5624 0.6081
H24? H 0.2300 0.6066 0.6847
H25? H 0.1191 0.5187 0.6860
loop_
_geom_bond_atom_site_label_1
_geom_bond_atom_site_label_2
_geom_bond_site_symmetry_1
_geom_bond_site_symmetry_2
O1 C12 1_555 1_555
O2 C12 1_555 1_555
N1 C1 1_555 1_555
N2 C11 1_555 1_555
C1 C2 1_555 1_555
C2 H1 1_555 1_555
C3 C2 1_555 1_555
H2 C3 1_555 1_555
C4 C3 1_555 1_555
H3 C4 1_555 1_555
C5 C4 1_555 1_555
H4 C5 1_555 1_555
C6 C1 1_555 1_555
C7 C6 1_555 1_555
C8 N1 1_555 1_555
C9 C8 1_555 1_555
H5 C9 1_555 1_555
H6 C9 1_555 1_555
H7 C9 1_555 1_555
C10 C7 1_555 1_555
H8 C10 1_555 1_555
C11 C10 1_555 1_555
C12 C11 1_555 1_555
C13 O1 1_555 1_555
C14 C11 1_555 1_555
H9 C14 1_555 1_555
H10 C14 1_555 1_555
H11 C14 1_555 1_555
C15 C13 1_555 1_555
C16 C15 1_555 1_555
H12 C16 1_555 1_555
C17 C16 1_555 1_555
H13 C17 1_555 1_555
C18 C17 1_555 1_555
H14 C18 1_555 1_555
C19 C18 1_555 1_555
H15 C19 1_555 1_555
C20 C15 1_555 1_555
H16 C20 1_555 1_555
C21 C10 1_555 1_555
C22 C21 1_555 1_555
H17 C22 1_555 1_555
C23 C22 1_555 1_555
H18 C23 1_555 1_555
C24 C23 1_555 1_555
H19 C24 1_555 1_555
C25 C24 1_555 1_555
H20 C25 1_555 1_555
C26 C21 1_555 1_555
H21 C26 1_555 1_555
H22 N1 1_555 1_555
N2 C13 1_555 1_555
C5 C6 1_555 1_555
C7 C8 1_555 1_555
C19 C20 1_555 1_555
C25 C26 1_555 1_555

#END
