
#######################################################################
#
#                 Cambridge Crystallographic Data Centre
#                                CCDC 
#
#######################################################################
#
# If this CIF has been generated from an entry in the Cambridge 
# Structural Database, then it will include bibliographic, chemical, 
# crystal, experimental, refinement or atomic coordinate data resulting 
# from the CCDC's data processing and validation procedures.
#
#######################################################################

data_VEJTEJ
_chemical_formula_moiety         'C24 H25 N1 O1'
_chemical_name_systematic        
(1S*,4R*,8S*,11R*)-3-Diphenylmethyl-11-methyl-3-azatricyclo(6.2.1.0^4,11^)undec-5-en-2-one
_symmetry_cell_setting           monoclinic
_symmetry_space_group_name_H-M   'P 21'
_symmetry_Int_Tables_number      4
_space_group_name_Hall           'P 2yb'
loop_
_symmetry_equiv_pos_site_id
_symmetry_equiv_pos_as_xyz
1 x,y,z
2 -x,1/2+y,-z
_cell_length_a                   10.248(3)
_cell_length_b                   8.859(2)
_cell_length_c                   10.344(2)
_cell_angle_alpha                90
_cell_angle_beta                 99.816(14)
_cell_angle_gamma                90
_cell_volume                     925.353
_exptl_crystal_colour            colorless
_chemical_melting_point          423-424K
_cell_formula_units_Z            2
loop_
_atom_site_label
_atom_site_type_symbol
_atom_site_fract_x
_atom_site_fract_y
_atom_site_fract_z
C1 C 0.0582(2) 0.6110(3) 0.7866(2)
C2 C 0.1699(2) 0.6701(3) 0.7220(2)
N1 N 0.2598(1) 0.5586 0.7192(1)
C3 C 0.2304(2) 0.4173(3) 0.7830(2)
C4 C 0.2336(2) 0.2805(3) 0.6980(2)
C5 C 0.1417(2) 0.1746(3) 0.6822(2)
C6 C 0.0187(2) 0.1873(4) 0.7402(3)
C7 C -0.0183(2) 0.3500(3) 0.7623(7)
C8 C -0.0750(2) 0.4395(4) 0.6394(2)
C9 C -0.0736(2) 0.6007(4) 0.6896(3)
C10 C 0.0969(2) 0.4480(3) 0.8320(2)
C11 C 0.1175(3) 0.4280(4) 0.9810(2)
O1 O 0.1786(1) 0.7973(2) 0.6797(2)
C12 C 0.3892(2) 0.5890(3) 0.6802(2)
C13 C 0.3969(2) 0.5377(3) 0.5411(2)
C14 C 0.2857(2) 0.4910(3) 0.4548(2)
C15 C 0.2940(2) 0.4502(3) 0.3265(2)
C16 C 0.4149(2) 0.4560(3) 0.2838(2)
C17 C 0.5260(2) 0.5028(3) 0.3684(2)
C18 C 0.5178(2) 0.5455(3) 0.4956(2)
C19 C 0.4995(2) 0.5318(3) 0.7872(2)
C20 C 0.5665(2) 0.3972(3) 0.7773(2)
C21 C 0.6603(2) 0.3463(3) 0.8826(2)
C22 C 0.6868(2) 0.4300(3) 0.9968(2)
C23 C 0.6198(2) 0.5634(3) 1.0071(2)
C24 C 0.5266(2) 0.6140(3) 0.9035(2)
H1 H 0.056(2) 0.677(2) 0.858(2)
H2 H 0.301(2) 0.406(2) 0.858(2)
H3 H 0.310(2) 0.266(3) 0.661(2)
H4 H 0.153(2) 0.084(3) 0.634(2)
H5 H -0.054(3) 0.140(4) 0.686(3)
H6 H 0.029(3) 0.130(3) 0.825(3)
H7 H -0.090(2) 0.352(3) 0.817(2)
H8 H -0.015(2) 0.430(3) 0.573(2)
H9 H -0.163(2) 0.406(3) 0.599(2)
H10 H -0.147(2) 0.612(3) 0.734(2)
H11 H -0.074(2) 0.676(3) 0.622(2)
H12 H 0.192(2) 0.496(3) 1.021(2)
H13 H 0.142(2) 0.324(3) 1.005(2)
H14 H 0.032(3) 0.451(3) 1.013(3)
H15 H 0.394(2) 0.695(2) 0.680(2)
H16 H 0.200(2) 0.489(2) 0.484(2)
H17 H 0.215(2) 0.418(3) 0.268(2)
H18 H 0.419(2) 0.423(3) 0.197(2)
H19 H 0.611(2) 0.505(3) 0.341(2)
H20 H 0.597(2) 0.581(3) 0.552(2)
H21 H 0.550(2) 0.335(3) 0.698(2)
H22 H 0.705(2) 0.248(3) 0.875(2)
H23 H 0.753(2) 0.395(3) 1.071(2)
H24 H 0.634(2) 0.621(3) 1.085(2)
H25 H 0.477(2) 0.704(3) 0.906(2)
loop_
_geom_bond_atom_site_label_1
_geom_bond_atom_site_label_2
_geom_bond_site_symmetry_1
_geom_bond_site_symmetry_2
C1 C2 1_555 1_555
C2 N1 1_555 1_555
N1 C3 1_555 1_555
C3 C4 1_555 1_555
C4 C5 1_555 1_555
C5 C6 1_555 1_555
C6 C7 1_555 1_555
C7 C8 1_555 1_555
C8 C9 1_555 1_555
C9 C1 1_555 1_555
C10 C1 1_555 1_555
C11 C10 1_555 1_555
O1 C2 1_555 1_555
C12 N1 1_555 1_555
C13 C12 1_555 1_555
C14 C13 1_555 1_555
C15 C14 1_555 1_555
C16 C15 1_555 1_555
C17 C16 1_555 1_555
C18 C13 1_555 1_555
C19 C12 1_555 1_555
C20 C19 1_555 1_555
C21 C20 1_555 1_555
C22 C21 1_555 1_555
C23 C22 1_555 1_555
C24 C19 1_555 1_555
H1 C1 1_555 1_555
H2 C3 1_555 1_555
H3 C4 1_555 1_555
H4 C5 1_555 1_555
H5 C6 1_555 1_555
H6 C6 1_555 1_555
H7 C7 1_555 1_555
H8 C8 1_555 1_555
H9 C8 1_555 1_555
H10 C9 1_555 1_555
H11 C9 1_555 1_555
H12 C11 1_555 1_555
H13 C11 1_555 1_555
H14 C11 1_555 1_555
H15 C12 1_555 1_555
H16 C14 1_555 1_555
H17 C15 1_555 1_555
H18 C16 1_555 1_555
H19 C17 1_555 1_555
H20 C18 1_555 1_555
H21 C20 1_555 1_555
H22 C21 1_555 1_555
H23 C22 1_555 1_555
H24 C23 1_555 1_555
H25 C24 1_555 1_555
C3 C10 1_555 1_555
C7 C10 1_555 1_555
C17 C18 1_555 1_555
C23 C24 1_555 1_555

#END
