
#######################################################################
#
#                 Cambridge Crystallographic Data Centre
#                                CCDC 
#
#######################################################################
#
# If this CIF has been generated from an entry in the Cambridge 
# Structural Database, then it will include bibliographic, chemical, 
# crystal, experimental, refinement or atomic coordinate data resulting 
# from the CCDC's data processing and validation procedures.
#
#######################################################################

data_VEJVUE01
_chemical_formula_moiety         'C24 H27 B1 O4'
_chemical_name_systematic        
(R)-2-(1-benzofuran-2-yl)-2-methyl-1-phenyl-3-(4,4,5,5-tetramethyl-1,3,2-dioxaborolan-2-yl)propan-1-one
_symmetry_cell_setting           monoclinic
_symmetry_space_group_name_H-M   'P 21'
_symmetry_Int_Tables_number      4
_space_group_name_Hall           'P 2yb'
loop_
_symmetry_equiv_pos_site_id
_symmetry_equiv_pos_as_xyz
1 x,y,z
2 -x,1/2+y,-z
_cell_length_a                   12.5495(6)
_cell_length_b                   6.3424(3)
_cell_length_c                   13.2506(6)
_cell_angle_alpha                90
_cell_angle_beta                 92.671(2)
_cell_angle_gamma                90
_cell_volume                     1053.52
_exptl_crystal_colour            colorless
_exptl_crystal_description       block
_cell_formula_units_Z            2
loop_
_atom_site_label
_atom_site_type_symbol
_atom_site_fract_x
_atom_site_fract_y
_atom_site_fract_z
B1 B 0.21932(15) 0.3931(3) 0.91323(14)
C1 C 0.27045(13) 0.6288(3) 0.75500(12)
C2 C 0.18592(13) 0.4981(3) 0.80899(12)
H1 H 0.1609 0.3847 0.7623
H2 H 0.1241 0.5912 0.8197
C3 C 0.22079(12) 0.7140(3) 0.65829(12)
C4 C 0.30525(18) 0.3158(3) 1.06361(14)
C5 C 0.19478(18) 0.2056(3) 1.05616(14)
C6 C 0.1089(2) 0.3247(5) 1.11062(18)
H3 H 0.1110 0.4742 1.0921
H4 H 0.1219 0.3102 1.1838
H5 H 0.0387 0.2663 1.0909
C7 C 0.1951(2) -0.0257(4) 1.08613(16)
H6 H 0.1224 -0.0818 1.0788
H7 H 0.2215 -0.0398 1.1566
H8 H 0.2416 -0.1047 1.0423
C8 C 0.39747(18) 0.1710(4) 1.03920(17)
H9 H 0.3798 0.0949 0.9763
H10 H 0.4100 0.0698 1.0943
H11 H 0.4620 0.2554 1.0313
C9 C 0.3315(2) 0.4351(4) 1.16141(16)
H12 H 0.3996 0.5089 1.1563
H13 H 0.3367 0.3354 1.2179
H14 H 0.2749 0.5378 1.1729
C10 C 0.30917(15) 0.8131(3) 0.82261(13)
H15 H 0.3557 0.9050 0.7847
H16 H 0.3489 0.7578 0.8823
H17 H 0.2476 0.8939 0.8439
C11 C 0.36607(13) 0.4848(3) 0.73487(12)
C12 C 0.45941(12) 0.5630(3) 0.67855(12)
C13 C 0.46174(14) 0.7561(3) 0.62779(13)
H18 H 0.4025 0.8490 0.6296
C14 C 0.55019(14) 0.8127(3) 0.57470(13)
H19 H 0.5511 0.9440 0.5402
C15 C 0.63666(14) 0.6792(3) 0.57185(14)
H20 H 0.6966 0.7178 0.5346
C16 C 0.63632(14) 0.4892(3) 0.62312(14)
H21 H 0.6965 0.3986 0.6220
C17 C 0.54851(14) 0.4308(3) 0.67598(13)
H22 H 0.5487 0.2999 0.7108
C18 C 0.17832(12) 0.9022(3) 0.63337(13)
H23 H 0.1751 1.0224 0.6759
C19 C 0.13855(12) 0.8874(3) 0.52986(12)
C20 C 0.08689(13) 1.0250(3) 0.46120(14)
H24 H 0.0705 1.1655 0.4799
C21 C 0.06052(13) 0.9507(3) 0.36540(14)
H25 H 0.0254 1.0419 0.3177
C22 C 0.08437(15) 0.7433(3) 0.33667(14)
H26 H 0.0647 0.6971 0.2702
C23 C 0.13615(13) 0.6047(3) 0.40375(13)
H27 H 0.1534 0.4647 0.3849
C24 C 0.16114(12) 0.6821(3) 0.49935(12)
O1 O 0.29476(11) 0.4691(2) 0.98135(9)
O2 O 0.16551(10) 0.2224(2) 0.94809(9)
O3 O 0.21128(8) 0.57253(18) 0.57813(8)
O4 O 0.36714(11) 0.3064(2) 0.76832(12)
loop_
_geom_bond_atom_site_label_1
_geom_bond_atom_site_label_2
_geom_bond_site_symmetry_1
_geom_bond_site_symmetry_2
B1 C2 1_555 1_555
C1 C2 1_555 1_555
C2 H1 1_555 1_555
H2 C2 1_555 1_555
C3 C1 1_555 1_555
C4 C5 1_555 1_555
C5 C6 1_555 1_555
C6 H3 1_555 1_555
H4 C6 1_555 1_555
H5 C6 1_555 1_555
C7 C5 1_555 1_555
H6 C7 1_555 1_555
H7 C7 1_555 1_555
H8 C7 1_555 1_555
C8 C4 1_555 1_555
H9 C8 1_555 1_555
H10 C8 1_555 1_555
H11 C8 1_555 1_555
C9 C4 1_555 1_555
H12 C9 1_555 1_555
H13 C9 1_555 1_555
H14 C9 1_555 1_555
C10 C1 1_555 1_555
H15 C10 1_555 1_555
H16 C10 1_555 1_555
H17 C10 1_555 1_555
C11 C1 1_555 1_555
C12 C11 1_555 1_555
C13 C12 1_555 1_555
H18 C13 1_555 1_555
C14 C13 1_555 1_555
H19 C14 1_555 1_555
C15 C14 1_555 1_555
H20 C15 1_555 1_555
C16 C15 1_555 1_555
H21 C16 1_555 1_555
C17 C12 1_555 1_555
H22 C17 1_555 1_555
C18 C3 1_555 1_555
H23 C18 1_555 1_555
C19 C18 1_555 1_555
C20 C19 1_555 1_555
H24 C20 1_555 1_555
C21 C20 1_555 1_555
H25 C21 1_555 1_555
C22 C21 1_555 1_555
H26 C22 1_555 1_555
C23 C22 1_555 1_555
H27 C23 1_555 1_555
C24 C19 1_555 1_555
O1 B1 1_555 1_555
O2 B1 1_555 1_555
O3 C3 1_555 1_555
O4 C11 1_555 1_555
C4 O1 1_555 1_555
C5 O2 1_555 1_555
C16 C17 1_555 1_555
C23 C24 1_555 1_555
C24 O3 1_555 1_555

#END
