
#######################################################################
#
#                 Cambridge Crystallographic Data Centre
#                                CCDC 
#
#######################################################################
#
# If this CIF has been generated from an entry in the Cambridge 
# Structural Database, then it will include bibliographic, chemical, 
# crystal, experimental, refinement or atomic coordinate data resulting 
# from the CCDC's data processing and validation procedures.
#
#######################################################################

data_VEKGUQ
_chemical_formula_moiety         'C11 H16 Cl1 N3 O2 S1'
_chemical_name_systematic        
(E)-5-chloro-3-(2-(diethylamino)vinylsulfonyl)pyridin-2-amine
_symmetry_cell_setting           monoclinic
_symmetry_space_group_name_H-M   'P 21/n'
_symmetry_Int_Tables_number      14
_space_group_name_Hall           '-P 2yn'
loop_
_symmetry_equiv_pos_site_id
_symmetry_equiv_pos_as_xyz
1 x,y,z
2 1/2-x,1/2+y,1/2-z
3 -x,-y,-z
4 1/2+x,1/2-y,1/2+z
_cell_length_a                   10.2582(4)
_cell_length_b                   9.6381(3)
_cell_length_c                   14.4139(5)
_cell_angle_alpha                90
_cell_angle_beta                 94.985(4)
_cell_angle_gamma                90
_cell_volume                     1419.71
_exptl_crystal_colour            colorless
_exptl_crystal_description       block
_cell_formula_units_Z            4
loop_
_atom_site_label
_atom_site_type_symbol
_atom_site_fract_x
_atom_site_fract_y
_atom_site_fract_z
Cl1 Cl 0.85069(10) -0.06517(9) 0.59509(6)
S1 S 0.66950(6) 0.25163(6) 0.30136(4)
O1 O 0.6160(2) 0.1166(2) 0.27747(13)
O2 O 0.73481(18) 0.3268(2) 0.23262(11)
N1 N 0.9410(2) 0.3151(2) 0.51774(14)
N2 N 0.8765(2) 0.4568(2) 0.39446(17)
N3 N 0.4536(2) 0.5773(2) 0.35192(15)
C1 C 0.9330(3) 0.1966(3) 0.56351(19)
H1 H 0.9826 0.1865 0.6211
C2 C 0.8556(3) 0.0875(3) 0.53080(19)
C3 C 0.7798(3) 0.1013(3) 0.44713(17)
H2 H 0.7269 0.0277 0.4231
C4 C 0.7835(2) 0.2256(2) 0.39965(16)
C5 C 0.8678(2) 0.3325(3) 0.43564(16)
C6 C 0.5482(2) 0.3506(3) 0.33980(17)
H3 H 0.4847 0.3087 0.3737
C7 C 0.5412(2) 0.4884(3) 0.32262(16)
H4 H 0.6045 0.5255 0.2863
C8 C 0.3500(3) 0.5293(3) 0.4066(2)
H5 H 0.3174 0.6081 0.4408
H6 H 0.3863 0.4614 0.4523
C9 C 0.2366(3) 0.4637(5) 0.3480(3)
H7 H 0.1992 0.5308 0.3031
H8 H 0.1704 0.4346 0.3880
H9 H 0.2676 0.3838 0.3154
C10 C 0.4527(3) 0.7224(3) 0.3236(2)
H10 H 0.3629 0.7495 0.3025
H11 H 0.5061 0.7328 0.2708
C11 C 0.5040(4) 0.8177(4) 0.4005(3)
H12 H 0.4503 0.8094 0.4524
H13 H 0.5015 0.9126 0.3781
H14 H 0.5936 0.7926 0.4208
H15 H 0.839(4) 0.471(4) 0.336(3)
H16 H 0.922(4) 0.517(4) 0.417(3)
loop_
_geom_bond_atom_site_label_1
_geom_bond_atom_site_label_2
_geom_bond_site_symmetry_1
_geom_bond_site_symmetry_2
Cl1 C2 1_555 1_555
S1 O1 1_555 1_555
O2 S1 1_555 1_555
N1 C1 1_555 1_555
N2 C5 1_555 1_555
N3 C7 1_555 1_555
C1 H1 1_555 1_555
C2 C1 1_555 1_555
C3 C2 1_555 1_555
H2 C3 1_555 1_555
C4 S1 1_555 1_555
C5 N1 1_555 1_555
C6 S1 1_555 1_555
H3 C6 1_555 1_555
C7 C6 1_555 1_555
H4 C7 1_555 1_555
C8 N3 1_555 1_555
H5 C8 1_555 1_555
H6 C8 1_555 1_555
C9 C8 1_555 1_555
H7 C9 1_555 1_555
H8 C9 1_555 1_555
H9 C9 1_555 1_555
C10 N3 1_555 1_555
H10 C10 1_555 1_555
H11 C10 1_555 1_555
C11 C10 1_555 1_555
H12 C11 1_555 1_555
H13 C11 1_555 1_555
H14 C11 1_555 1_555
H15 N2 1_555 1_555
H16 N2 1_555 1_555
C3 C4 1_555 1_555
C4 C5 1_555 1_555

#END
