
#######################################################################
#
#                 Cambridge Crystallographic Data Centre
#                                CCDC 
#
#######################################################################
#
# If this CIF has been generated from an entry in the Cambridge 
# Structural Database, then it will include bibliographic, chemical, 
# crystal, experimental, refinement or atomic coordinate data resulting 
# from the CCDC's data processing and validation procedures.
#
#######################################################################

data_VELQOV
_chemical_formula_moiety         'C22 H19 F2 N3 O1'
_chemical_name_systematic        
1'-cyclopropyl-4',4'-difluoro-1-methyl-5'-oxo-2-phenyl-1,2-dihydrospiro[indole-3,3'-pyrrolidine]-2-carbonitrile
_symmetry_cell_setting           orthorhombic
_symmetry_space_group_name_H-M   'P b c a'
_symmetry_Int_Tables_number      61
_space_group_name_Hall           '-P 2ac 2ab'
loop_
_symmetry_equiv_pos_site_id
_symmetry_equiv_pos_as_xyz
1 x,y,z
2 1/2-x,-y,1/2+z
3 -x,1/2+y,1/2-z
4 1/2+x,1/2-y,-z
5 -x,-y,-z
6 1/2+x,y,1/2-z
7 x,1/2-y,1/2+z
8 1/2-x,1/2+y,z
_cell_length_a                   10.6392(12)
_cell_length_b                   15.2488(17)
_cell_length_c                   22.136(2)
_cell_angle_alpha                90
_cell_angle_beta                 90
_cell_angle_gamma                90
_cell_volume                     3591.23
_exptl_crystal_colour            colorless
_exptl_crystal_description       Prism
_chemical_melting_point          '168-169 deg.C'
_cell_formula_units_Z            8
loop_
_atom_site_label
_atom_site_type_symbol
_atom_site_fract_x
_atom_site_fract_y
_atom_site_fract_z
F1 F 0.35381(6) 0.21932(4) 0.30652(3)
F2 F 0.53496(6) 0.25031(4) 0.26703(3)
O1 O 0.32240(8) 0.37207(5) 0.23313(4)
N1 N 0.40599(8) 0.21984(5) 0.43908(4)
N2 N 0.52775(9) 0.39491(6) 0.50829(4)
N3 N 0.46724(8) 0.43148(6) 0.29991(4)
C1 C 0.59170(9) 0.23746(6) 0.38597(4)
C2 C 0.71058(10) 0.21419(7) 0.36643(5)
H1 H 0.7532 0.2478 0.3367
C3 C 0.76626(10) 0.13976(7) 0.39171(5)
H2 H 0.8476 0.1222 0.3788
C4 C 0.70412(10) 0.09119(7) 0.43539(5)
H3 H 0.7440 0.0411 0.4522
C5 C 0.58426(10) 0.11432(7) 0.45525(5)
H4 H 0.5424 0.0814 0.4856
C6 C 0.52821(9) 0.18717(6) 0.42898(4)
C7 C 0.34525(10) 0.20053(7) 0.49679(5)
H5 H 0.3315 0.1372 0.5003
H6 H 0.2643 0.2311 0.4988
H7 H 0.3992 0.2204 0.5300
C8 C 0.47546(9) 0.36297(6) 0.46880(5)
C9 C 0.40928(9) 0.31208(6) 0.41966(4)
C10 C 0.50378(9) 0.30893(6) 0.36442(4)
C11 C 0.44218(10) 0.28251(7) 0.30418(4)
C12 C 0.39835(10) 0.36756(7) 0.27408(5)
C13 C 0.55607(9) 0.39978(6) 0.34615(4)
H8 H 0.5582 0.4399 0.3813
H9 H 0.6420 0.3945 0.3293
C14 C 0.46954(10) 0.52040(7) 0.27789(5)
H10 H 0.5351 0.5344 0.2470
C15 C 0.34594(12) 0.56629(8) 0.27113(6)
H11 H 0.3355 0.6065 0.2364
H12 H 0.2691 0.5338 0.2828
C16 C 0.43407(11) 0.59332(7) 0.32038(5)
H13 H 0.4117 0.5774 0.3624
H14 H 0.4782 0.6501 0.3160
C17 C 0.28106(9) 0.35270(7) 0.40714(4)
C18 C 0.18046(10) 0.30134(7) 0.38790(5)
H15 H 0.1889 0.2394 0.3857
C19 C 0.06756(10) 0.34111(8) 0.37190(5)
H16 H -0.0010 0.3060 0.3588
C20 C 0.05406(10) 0.43163(8) 0.37497(5)
H17 H -0.0226 0.4584 0.3631
C21 C 0.15320(11) 0.48267(7) 0.39550(5)
H18 H 0.1441 0.5445 0.3981
C22 C 0.26580(10) 0.44336(7) 0.41226(4)
H19 H 0.3327 0.4783 0.4273
loop_
_geom_bond_atom_site_label_1
_geom_bond_atom_site_label_2
_geom_bond_site_symmetry_1
_geom_bond_site_symmetry_2
F1 C11 1_555 1_555
F2 C11 1_555 1_555
O1 C12 1_555 1_555
N1 C6 1_555 1_555
N2 C8 1_555 1_555
N3 C12 1_555 1_555
C1 C2 1_555 1_555
C2 H1 1_555 1_555
C3 C2 1_555 1_555
H2 C3 1_555 1_555
C4 C3 1_555 1_555
H3 C4 1_555 1_555
C5 C4 1_555 1_555
H4 C5 1_555 1_555
C6 C1 1_555 1_555
C7 N1 1_555 1_555
H5 C7 1_555 1_555
H6 C7 1_555 1_555
H7 C7 1_555 1_555
C8 C9 1_555 1_555
C9 N1 1_555 1_555
C10 C1 1_555 1_555
C11 C10 1_555 1_555
C12 C11 1_555 1_555
C13 N3 1_555 1_555
H8 C13 1_555 1_555
H9 C13 1_555 1_555
C14 N3 1_555 1_555
H10 C14 1_555 1_555
C15 C14 1_555 1_555
H11 C15 1_555 1_555
H12 C15 1_555 1_555
C16 C14 1_555 1_555
H13 C16 1_555 1_555
H14 C16 1_555 1_555
C17 C9 1_555 1_555
C18 C17 1_555 1_555
H15 C18 1_555 1_555
C19 C18 1_555 1_555
H16 C19 1_555 1_555
C20 C19 1_555 1_555
H17 C20 1_555 1_555
C21 C20 1_555 1_555
H18 C21 1_555 1_555
C22 C17 1_555 1_555
H19 C22 1_555 1_555
C5 C6 1_555 1_555
C9 C10 1_555 1_555
C10 C13 1_555 1_555
C15 C16 1_555 1_555
C21 C22 1_555 1_555

#END
