
#######################################################################
#
#                 Cambridge Crystallographic Data Centre
#                                CCDC 
#
#######################################################################
#
# If this CIF has been generated from an entry in the Cambridge 
# Structural Database, then it will include bibliographic, chemical, 
# crystal, experimental, refinement or atomic coordinate data resulting 
# from the CCDC's data processing and validation procedures.
#
#######################################################################

data_VELQAF
_chemical_formula_moiety         'C13 H30 N3 1+,Cl1 1-'
_chemical_name_systematic        'Hexaethylguanidinium chloride'
_symmetry_cell_setting           monoclinic
_symmetry_space_group_name_H-M   'C 2/c'
_symmetry_Int_Tables_number      15
_space_group_name_Hall           '-C 2yn'
loop_
_symmetry_equiv_pos_site_id
_symmetry_equiv_pos_as_xyz
1 x,y,z
2 1/2+x,1/2+y,z
3 -x,y,1/2-z
4 1/2-x,1/2+y,1/2-z
5 -x,-y,-z
6 1/2-x,1/2-y,-z
7 x,-y,1/2+z
8 1/2+x,1/2-y,1/2+z
_cell_length_a                   7.3110(15)
_cell_length_b                   16.274(3)
_cell_length_c                   13.802(3)
_cell_angle_alpha                90
_cell_angle_beta                 97.77(3)
_cell_angle_gamma                90
_cell_volume                     1627.07
_exptl_crystal_colour            white
_exptl_crystal_description       block
_cell_formula_units_Z            4
_exptl_crystal_recrystallization_method 'heptane/ethyl acetate'
loop_
_atom_site_label
_atom_site_type_symbol
_atom_site_fract_x
_atom_site_fract_y
_atom_site_fract_z
Cl1 Cl 0.0000 0.29804(7) 0.7500
N1 N 0.5000 0.21906(13) 0.7500
N2 N 0.4707(2) 0.34241(9) 0.66536(11)
C1 C 0.5000 0.30115(15) 0.7500
C2 C 0.6623(4) 0.37726(17) 0.5362(2)
H1 H 0.7090 0.3552 0.4799
H2 H 0.7637 0.3928 0.5844
H3 H 0.5875 0.4246 0.5175
C3 C 0.2620(3) 0.11004(15) 0.7258(2)
H4 H 0.1818 0.0813 0.6763
H5 H 0.1895 0.1372 0.7692
H6 H 0.3442 0.0716 0.7621
C4 C 0.2071(3) 0.41784(16) 0.57329(17)
H7 H 0.1411 0.4689 0.5715
H8 H 0.1243 0.3734 0.5816
H9 H 0.2574 0.4107 0.5131
C5 C 0.5470(3) 0.31281(13) 0.57880(15)
H10 H 0.4464 0.2964 0.5294
H11 H 0.6226 0.2647 0.5964
C6 C 0.3727(3) 0.17285(13) 0.67829(16)
H12 H 0.4430 0.1452 0.6332
H13 H 0.2889 0.2110 0.6409
C7 C 0.3624(3) 0.41870(12) 0.65798(14)
H14 H 0.4437 0.4646 0.6500
H15 H 0.3108 0.4270 0.7184
N2B N 0.5293(2) 0.34241(9) 0.83464(11)
C2B C 0.3377(4) 0.37726(17) 0.9638(2)
H1B H 0.2910 0.3552 1.0201
H2B H 0.2363 0.3928 0.9156
H3B H 0.4125 0.4246 0.9825
C3B C 0.7380(3) 0.11004(15) 0.7742(2)
H4B H 0.8182 0.0813 0.8237
H5B H 0.8105 0.1372 0.7308
H6B H 0.6558 0.0716 0.7379
C4B C 0.7929(3) 0.41784(16) 0.92671(17)
H7B H 0.8589 0.4689 0.9285
H8B H 0.8757 0.3734 0.9184
H9B H 0.7426 0.4107 0.9869
C5B C 0.4530(3) 0.31281(13) 0.92120(15)
H10B H 0.5536 0.2964 0.9706
H11B H 0.3774 0.2647 0.9036
C6B C 0.6273(3) 0.17285(13) 0.82171(16)
H12B H 0.5570 0.1452 0.8668
H13B H 0.7111 0.2110 0.8591
C7B C 0.6376(3) 0.41870(12) 0.84202(14)
H14B H 0.5563 0.4646 0.8500
H15B H 0.6892 0.4270 0.7816
loop_
_geom_bond_atom_site_label_1
_geom_bond_atom_site_label_2
_geom_bond_site_symmetry_1
_geom_bond_site_symmetry_2
N1 C1 1_555 1_555
N2 C1 1_555 1_555
C1 N2B 1_555 1_555
C2 H1 1_555 1_555
H2 C2 1_555 1_555
H3 C2 1_555 1_555
C3 H4 1_555 1_555
H5 C3 1_555 1_555
H6 C3 1_555 1_555
C4 H7 1_555 1_555
H8 C4 1_555 1_555
H9 C4 1_555 1_555
C5 N2 1_555 1_555
H10 C5 1_555 1_555
H11 C5 1_555 1_555
C6 N1 1_555 1_555
H12 C6 1_555 1_555
H13 C6 1_555 1_555
C7 N2 1_555 1_555
H14 C7 1_555 1_555
H15 C7 1_555 1_555
N2B C5B 1_555 1_555
C2B H1B 1_555 1_555
H2B C2B 1_555 1_555
H3B C2B 1_555 1_555
C3B H4B 1_555 1_555
H5B C3B 1_555 1_555
H6B C3B 1_555 1_555
C4B H7B 1_555 1_555
H8B C4B 1_555 1_555
H9B C4B 1_555 1_555
C5B C2B 1_555 1_555
H10B C5B 1_555 1_555
H11B C5B 1_555 1_555
C6B N1 1_555 1_555
H12B C6B 1_555 1_555
H13B C6B 1_555 1_555
C7B N2B 1_555 1_555
H14B C7B 1_555 1_555
H15B C7B 1_555 1_555
C2 C5 1_555 1_555
C3 C6 1_555 1_555
C4 C7 1_555 1_555
C3B C6B 1_555 1_555
C4B C7B 1_555 1_555

#END
