
#######################################################################
#
#                 Cambridge Crystallographic Data Centre
#                                CCDC 
#
#######################################################################
#
# If this CIF has been generated from an entry in the Cambridge 
# Structural Database, then it will include bibliographic, chemical, 
# crystal, experimental, refinement or atomic coordinate data resulting 
# from the CCDC's data processing and validation procedures.
#
#######################################################################

data_VELSIQ
_chemical_formula_moiety         'C22 H27 N2 O5 P1'
_chemical_name_systematic        
5-(Biphenyl-2-yloxy)-3,8-diisopropyl-1,6-dioxa-4,9-diaza-5-phosphaspiro[4.4]nonane-2,7-dione
_symmetry_cell_setting           monoclinic
_symmetry_space_group_name_H-M   'P 21'
_symmetry_Int_Tables_number      4
_space_group_name_Hall           'P 2yb'
loop_
_symmetry_equiv_pos_site_id
_symmetry_equiv_pos_as_xyz
1 x,y,z
2 -x,1/2+y,-z
_cell_length_a                   10.4430(7)
_cell_length_b                   6.1655(3)
_cell_length_c                   17.5341(11)
_cell_angle_alpha                90
_cell_angle_beta                 98.511(6)
_cell_angle_gamma                90
_cell_volume                     1116.52
_cell_formula_units_Z            2
_exptl_crystal_recrystallization_method hexane/acetonitrile
loop_
_atom_site_label
_atom_site_type_symbol
_atom_site_fract_x
_atom_site_fract_y
_atom_site_fract_z
P1 P 0.74068(4) 0.65594(7) 0.19661(3)
O1 O 0.77856(13) 0.9179(2) 0.22743(8)
O2 O 0.93168(17) 1.1154(2) 0.29591(10)
O3 O 0.70810(14) 0.3940(2) 0.16385(8)
O4 O 0.63586(18) 0.2025(2) 0.05945(10)
O5 O 0.61777(13) 0.6363(3) 0.24137(8)
N1 N 0.87979(17) 0.5736(3) 0.24229(10)
N2 N 0.71141(18) 0.7433(3) 0.10768(10)
C1 C 0.6979(3) 0.4380(5) 0.38922(16)
H1 H 0.6508 0.3755 0.3456
C2 C 0.7923(4) 0.3192(6) 0.43402(19)
H2 H 0.8094 0.1781 0.4197
C3 C 0.8610(4) 0.4050(7) 0.49892(18)
H3 H 0.9239 0.3223 0.5289
C4 C 0.8376(3) 0.6136(6) 0.52021(16)
H4 H 0.8846 0.6734 0.5644
C5 C 0.7437(3) 0.7335(5) 0.47536(14)
H5 H 0.7277 0.8745 0.4902
C6 C 0.6723(2) 0.6503(5) 0.40867(12)
C7 C 0.5753(2) 0.7911(5) 0.36134(14)
C8 C 0.5005(3) 0.9372(6) 0.39636(16)
H6 H 0.5061 0.9361 0.4498
C9 C 0.4191(3) 1.0820(6) 0.35479(19)
H7 H 0.3698 1.1765 0.3799
C10 C 0.4103(3) 1.0876(6) 0.27563(18)
H8 H 0.3578 1.1901 0.2473
C11 C 0.4789(2) 0.9419(6) 0.23865(16)
H9 H 0.4713 0.9427 0.1851
C12 C 0.5596(2) 0.7936(4) 0.28127(14)
C13 C 0.8903(2) 0.9416(3) 0.27300(11)
C14 C 0.95786(19) 0.7264(3) 0.29172(11)
H10 H 0.9544 0.6895 0.3457
C15 C 1.1001(2) 0.7391(4) 0.27878(14)
H11 H 1.1396 0.8618 0.3091
C16 C 1.1114(3) 0.7839(7) 0.19498(18)
H12 H 1.0794 0.6615 0.1641
H13 H 1.2006 0.8084 0.1900
H14 H 1.0615 0.9102 0.1779
C17 C 1.1738(3) 0.5368(6) 0.3084(2)
H15 H 1.1632 0.5124 0.3611
H16 H 1.2641 0.5555 0.3049
H17 H 1.1409 0.4144 0.2777
C18 C 0.6654(2) 0.3739(3) 0.08936(13)
C19 C 0.6610(2) 0.5900(3) 0.04779(12)
H18 H 0.5709 0.6267 0.0280
C20 C 0.7399(3) 0.5808(4) -0.01972(13)
H19 H 0.7011 0.4685 -0.0554
C21 C 0.7295(4) 0.7938(6) -0.06311(17)
H20 H 0.6399 0.8278 -0.0794
H21 H 0.7730 0.7819 -0.1075
H22 H 0.7689 0.9068 -0.0300
C22 C 0.8796(3) 0.5151(7) 0.00747(19)
H23 H 0.9192 0.6180 0.0448
H24 H 0.9263 0.5121 -0.0357
H25 H 0.8816 0.3736 0.0305
H26 H 0.697(2) 0.870(3) 0.0999(13)
H27 H 0.893(2) 0.444(5) 0.2495(14)
loop_
_geom_bond_atom_site_label_1
_geom_bond_atom_site_label_2
_geom_bond_site_symmetry_1
_geom_bond_site_symmetry_2
P1 O1 1_555 1_555
O1 C13 1_555 1_555
O2 C13 1_555 1_555
O3 P1 1_555 1_555
O4 C18 1_555 1_555
O5 P1 1_555 1_555
N1 P1 1_555 1_555
N2 P1 1_555 1_555
C1 H1 1_555 1_555
C2 C1 1_555 1_555
H2 C2 1_555 1_555
C3 C2 1_555 1_555
H3 C3 1_555 1_555
C4 C3 1_555 1_555
H4 C4 1_555 1_555
C5 C4 1_555 1_555
H5 C5 1_555 1_555
C6 C1 1_555 1_555
C7 C6 1_555 1_555
C8 C7 1_555 1_555
H6 C8 1_555 1_555
C9 C8 1_555 1_555
H7 C9 1_555 1_555
C10 C9 1_555 1_555
H8 C10 1_555 1_555
C11 C10 1_555 1_555
H9 C11 1_555 1_555
C12 O5 1_555 1_555
C13 C14 1_555 1_555
C14 N1 1_555 1_555
H10 C14 1_555 1_555
C15 C14 1_555 1_555
H11 C15 1_555 1_555
C16 C15 1_555 1_555
H12 C16 1_555 1_555
H13 C16 1_555 1_555
H14 C16 1_555 1_555
C17 C15 1_555 1_555
H15 C17 1_555 1_555
H16 C17 1_555 1_555
H17 C17 1_555 1_555
C18 O3 1_555 1_555
C19 N2 1_555 1_555
H18 C19 1_555 1_555
C20 C19 1_555 1_555
H19 C20 1_555 1_555
C21 C20 1_555 1_555
H20 C21 1_555 1_555
H21 C21 1_555 1_555
H22 C21 1_555 1_555
C22 C20 1_555 1_555
H23 C22 1_555 1_555
H24 C22 1_555 1_555
H25 C22 1_555 1_555
H26 N2 1_555 1_555
H27 N1 1_555 1_555
C5 C6 1_555 1_555
C7 C12 1_555 1_555
C11 C12 1_555 1_555
C18 C19 1_555 1_555

#END
