
#######################################################################
#
#                 Cambridge Crystallographic Data Centre
#                                CCDC 
#
#######################################################################
#
# If this CIF has been generated from an entry in the Cambridge 
# Structural Database, then it will include bibliographic, chemical, 
# crystal, experimental, refinement or atomic coordinate data resulting 
# from the CCDC's data processing and validation procedures.
#
#######################################################################

data_VELTOY
_chemical_formula_moiety         'C33 H38 B1 I2 N1 O1'
_chemical_name_systematic        
(5,7-diiodoquinolin-8-olato)bis(4-hexylphenyl)boron
_symmetry_cell_setting           monoclinic
_symmetry_space_group_name_H-M   'P 21/n'
_symmetry_Int_Tables_number      14
_space_group_name_Hall           '-P 2yn'
loop_
_symmetry_equiv_pos_site_id
_symmetry_equiv_pos_as_xyz
1 x,y,z
2 1/2-x,1/2+y,1/2-z
3 -x,-y,-z
4 1/2+x,1/2-y,1/2+z
_cell_length_a                   13.751(5)
_cell_length_b                   16.557(6)
_cell_length_c                   28.155(10)
_cell_angle_alpha                90
_cell_angle_beta                 93.121(4)
_cell_angle_gamma                90
_cell_volume                     6400.69
_exptl_crystal_colour            yellow
_exptl_crystal_description       Plate
_cell_formula_units_Z            8
loop_
_atom_site_label
_atom_site_type_symbol
_atom_site_fract_x
_atom_site_fract_y
_atom_site_fract_z
I1 I 0.41878(5) 0.47977(4) 0.31034(3)
I2 I 0.04021(6) 0.29139(4) 0.32537(3)
N1 N 0.0706(6) 0.6197(5) 0.2944(3)
O1 O 0.2468(5) 0.6242(4) 0.2922(3)
B1 B 0.1596(9) 0.6811(7) 0.2796(5)
C1 C -0.0251(8) 0.6298(7) 0.2968(4)
H1 H -0.0537 0.6815 0.2920
C2 C -0.0826(8) 0.5631(6) 0.3066(3)
H2 H -0.1502 0.5708 0.3103
C3 C -0.0444(8) 0.4862(7) 0.3110(4)
H3 H -0.0862 0.4416 0.3157
C4 C 0.0565(8) 0.4738(6) 0.3087(4)
C5 C 0.1128(8) 0.4020(6) 0.3152(4)
C6 C 0.2134(8) 0.4044(6) 0.3145(4)
H4 H 0.2493 0.3557 0.3187
C7 C 0.2648(7) 0.4784(6) 0.3075(4)
C8 C 0.2135(8) 0.5487(6) 0.2996(4)
C9 C 0.1113(8) 0.5446(6) 0.3003(4)
C10 C 0.1769(9) 0.8171(7) 0.3949(5)
H5 H 0.1799 0.8087 0.4283
C11 C 0.1653(8) 0.7516(7) 0.3645(4)
H6 H 0.1588 0.6993 0.3779
C12 C 0.1628(8) 0.7589(7) 0.3143(4)
C13 C 0.1681(7) 0.8389(6) 0.2970(4)
H7 H 0.1631 0.8475 0.2636
C14 C 0.1805(9) 0.9055(6) 0.3270(4)
H8 H 0.1864 0.9579 0.3136
C15 C 0.1843(10) 0.8963(7) 0.3768(5)
C16 C 0.1994(14) 0.9681(8) 0.4103(5)
H9 H 0.2170 1.0154 0.3910
H10 H 0.1362 0.9804 0.4240
C17 C 0.2750(14) 0.9596(10) 0.4507(7)
H11 H 0.3349 0.9382 0.4373
H12 H 0.2516 0.9178 0.4725
C18 C 0.3043(15) 1.0339(10) 0.4811(6)
H13 H 0.3333 1.0735 0.4596
H14 H 0.2434 1.0584 0.4917
C19 C 0.3728(15) 1.0261(12) 0.5242(7)
H15 H 0.4205 0.9842 0.5162
H16 H 0.3337 1.0024 0.5493
C20 C 0.4328(14) 1.0939(10) 0.5488(8)
H17 H 0.4678 1.0731 0.5779
H18 H 0.4814 1.1149 0.5272
C21 C 0.3632(17) 1.1604(12) 0.5614(8)
H19 H 0.3276 1.1795 0.5324
H20 H 0.3999 1.2053 0.5762
H21 H 0.3169 1.1395 0.5836
C22 C 0.0562(9) 0.7539(7) 0.1547(5)
H22 H 0.0003 0.7824 0.1426
C23 C 0.0672(8) 0.7411(7) 0.2032(4)
H23 H 0.0198 0.7617 0.2233
C24 C 0.1490(8) 0.6972(6) 0.2236(4)
C25 C 0.2173(9) 0.6701(6) 0.1917(4)
H24 H 0.2734 0.6418 0.2038
C26 C 0.2045(9) 0.6839(7) 0.1420(5)
H25 H 0.2514 0.6638 0.1215
C27 C 0.1236(10) 0.7269(7) 0.1227(4)
C28 C 0.1104(12) 0.7452(8) 0.0699(5)
H26 H 0.0409 0.7385 0.0596
H27 H 0.1483 0.7056 0.0521
C29 C 0.1435(12) 0.8321(9) 0.0569(5)
H28 H 0.1186 0.8448 0.0241
H29 H 0.1140 0.8711 0.0786
C30 C 0.2538(12) 0.8429(8) 0.0603(5)
H30 H 0.2821 0.8098 0.0352
H31 H 0.2795 0.8220 0.0914
C31 C 0.2887(12) 0.9310(8) 0.0550(5)
H32 H 0.2595 0.9533 0.0248
H33 H 0.2644 0.9635 0.0814
C32 C 0.3997(13) 0.9404(9) 0.0550(5)
H34 H 0.4295 0.9112 0.0829
H35 H 0.4229 0.9144 0.0260
C33 C 0.4350(13) 1.0275(9) 0.0566(6)
H36 H 0.4118 1.0555 0.0275
H37 H 0.5064 1.0284 0.0592
H38 H 0.4097 1.0547 0.0843
I3 I 0.57900(5) 0.36656(4) 0.18885(3)
I4 I 0.95444(6) 0.55666(4) 0.16655(3)
N2 N 0.9287(6) 0.2283(5) 0.2027(3)
O2 O 0.7544(5) 0.2232(4) 0.2060(3)
B2 B 0.8420(9) 0.1669(7) 0.2172(5)
C34 C 1.0255(8) 0.2200(7) 0.1988(4)
H39 H 1.0523 0.1674 0.2030
C35 C 1.0950(10) 0.2881(9) 0.1884(5)
H40 H 1.1630 0.2817 0.1854
C36 C 1.0437(8) 0.3637(7) 0.1835(4)
H41 H 1.0814 0.4105 0.1781
C37 C 0.9408(8) 0.3745(6) 0.1861(4)
C38 C 0.8840(8) 0.4461(6) 0.1791(4)
C39 C 0.7834(8) 0.4430(6) 0.1808(4)
H42 H 0.7471 0.4914 0.1758
C40 C 0.7317(8) 0.3692(6) 0.1898(4)
C41 C 0.7858(7) 0.2989(6) 0.1976(4)
C42 C 0.8878(8) 0.3034(6) 0.1955(4)
C43 C 0.9548(9) 0.0910(6) 0.3414(4)
H43 H 1.0112 0.0621 0.3525
C44 C 0.9383(9) 0.1076(7) 0.2927(4)
H44 H 0.9848 0.0891 0.2715
C45 C 0.8570(8) 0.1500(6) 0.2736(4)
C46 C 0.7915(8) 0.1756(7) 0.3069(4)
H45 H 0.7355 0.2051 0.2958
C47 C 0.8046(9) 0.1597(7) 0.3557(5)
H46 H 0.7573 0.1779 0.3766
C48 C 0.8862(9) 0.1177(7) 0.3740(4)
C49 C 0.9044(9) 0.0993(8) 0.4269(4)
H47 H 0.9244 0.0421 0.4306
H48 H 0.8429 0.1065 0.4431
C50 C 0.9838(10) 0.1538(8) 0.4511(5)
H49 H 0.9606 0.2104 0.4506
H50 H 1.0431 0.1514 0.4328
C51 C 1.0100(12) 0.1284(10) 0.5033(5)
H51 H 0.9500 0.1310 0.5211
H52 H 1.0314 0.0713 0.5033
C52 C 1.0896(13) 0.1787(11) 0.5304(6)
H53 H 1.1151 0.1470 0.5582
H54 H 1.1441 0.1870 0.5094
C53 C 1.0577(12) 0.2582(10) 0.5473(7)
H55 H 1.0024 0.2507 0.5680
H56 H 1.0345 0.2912 0.5196
C54 C 1.1407(12) 0.3042(10) 0.5755(6)
H57 H 1.1664 0.2706 0.6019
H58 H 1.1150 0.3547 0.5880
H59 H 1.1929 0.3165 0.5543
C55 C 0.8392(9) 0.0259(7) 0.1042(4)
H60 H 0.8439 0.0326 0.0708
C56 C 0.8430(9) 0.0941(7) 0.1336(4)
H61 H 0.8484 0.1461 0.1197
C57 C 0.8390(7) 0.0874(6) 0.1834(4)
C58 C 0.8287(8) 0.0086(6) 0.2019(4)
H62 H 0.8249 0.0014 0.2352
C59 C 0.8239(8) -0.0594(7) 0.1717(4)
H63 H 0.8173 -0.1115 0.1852
C60 C 0.8286(9) -0.0526(7) 0.1228(4)
C61 C 0.8264(10) -0.1265(7) 0.0899(5)
H64 H 0.8858 -0.1263 0.0716
H65 H 0.8279 -0.1760 0.1097
C62 C 0.7377(10) -0.1299(8) 0.0553(5)
H66 H 0.7346 -0.0797 0.0362
H67 H 0.6782 -0.1325 0.0735
C63 C 0.7396(10) -0.2032(8) 0.0214(5)
H68 H 0.7347 -0.2531 0.0405
H69 H 0.6811 -0.2008 -0.0007
C64 C 0.8301(11) -0.2099(8) -0.0082(5)
H70 H 0.8236 -0.2588 -0.0284
H71 H 0.8882 -0.2173 0.0138
C65 C 0.8474(13) -0.1362(9) -0.0405(5)
H72 H 0.7872 -0.1255 -0.0604
H73 H 0.8607 -0.0882 -0.0203
C66 C 0.9311(15) -0.1477(12) -0.0726(6)
H74 H 0.9905 -0.1606 -0.0533
H75 H 0.9411 -0.0980 -0.0906
H76 H 0.9160 -0.1922 -0.0948
loop_
_geom_bond_atom_site_label_1
_geom_bond_atom_site_label_2
_geom_bond_site_symmetry_1
_geom_bond_site_symmetry_2
I1 C7 1_555 1_555
I2 C5 1_555 1_555
N1 B1 1_555 1_555
O1 B1 1_555 1_555
B1 C12 1_555 1_555
C1 N1 1_555 1_555
H1 C1 1_555 1_555
C2 C1 1_555 1_555
H2 C2 1_555 1_555
C3 C2 1_555 1_555
H3 C3 1_555 1_555
C4 C3 1_555 1_555
C5 C4 1_555 1_555
C6 C5 1_555 1_555
H4 C6 1_555 1_555
C7 C6 1_555 1_555
C8 O1 1_555 1_555
C9 N1 1_555 1_555
C10 H5 1_555 1_555
C11 C10 1_555 1_555
H6 C11 1_555 1_555
C12 C11 1_555 1_555
C13 C12 1_555 1_555
H7 C13 1_555 1_555
C14 C13 1_555 1_555
H8 C14 1_555 1_555
C15 C10 1_555 1_555
C16 C15 1_555 1_555
H9 C16 1_555 1_555
H10 C16 1_555 1_555
C17 C16 1_555 1_555
H11 C17 1_555 1_555
H12 C17 1_555 1_555
C18 C17 1_555 1_555
H13 C18 1_555 1_555
H14 C18 1_555 1_555
C19 C18 1_555 1_555
H15 C19 1_555 1_555
H16 C19 1_555 1_555
C20 C19 1_555 1_555
H17 C20 1_555 1_555
H18 C20 1_555 1_555
C21 C20 1_555 1_555
H19 C21 1_555 1_555
H20 C21 1_555 1_555
H21 C21 1_555 1_555
C22 H22 1_555 1_555
C23 C22 1_555 1_555
H23 C23 1_555 1_555
C24 B1 1_555 1_555
C25 C24 1_555 1_555
H24 C25 1_555 1_555
C26 C25 1_555 1_555
H25 C26 1_555 1_555
C27 C22 1_555 1_555
C28 C27 1_555 1_555
H26 C28 1_555 1_555
H27 C28 1_555 1_555
C29 C28 1_555 1_555
H28 C29 1_555 1_555
H29 C29 1_555 1_555
C30 C29 1_555 1_555
H30 C30 1_555 1_555
H31 C30 1_555 1_555
C31 C30 1_555 1_555
H32 C31 1_555 1_555
H33 C31 1_555 1_555
C32 C31 1_555 1_555
H34 C32 1_555 1_555
H35 C32 1_555 1_555
C33 C32 1_555 1_555
H36 C33 1_555 1_555
H37 C33 1_555 1_555
H38 C33 1_555 1_555
I3 C40 1_555 1_555
I4 C38 1_555 1_555
N2 B2 1_555 1_555
O2 B2 1_555 1_555
B2 C45 1_555 1_555
C34 N2 1_555 1_555
H39 C34 1_555 1_555
C35 C34 1_555 1_555
H40 C35 1_555 1_555
C36 C35 1_555 1_555
H41 C36 1_555 1_555
C37 C36 1_555 1_555
C38 C37 1_555 1_555
C39 C38 1_555 1_555
H42 C39 1_555 1_555
C40 C39 1_555 1_555
C41 O2 1_555 1_555
C42 N2 1_555 1_555
C43 H43 1_555 1_555
C44 C43 1_555 1_555
H44 C44 1_555 1_555
C45 C44 1_555 1_555
C46 C45 1_555 1_555
H45 C46 1_555 1_555
C47 C46 1_555 1_555
H46 C47 1_555 1_555
C48 C43 1_555 1_555
C49 C48 1_555 1_555
H47 C49 1_555 1_555
H48 C49 1_555 1_555
C50 C49 1_555 1_555
H49 C50 1_555 1_555
H50 C50 1_555 1_555
C51 C50 1_555 1_555
H51 C51 1_555 1_555
H52 C51 1_555 1_555
C52 C51 1_555 1_555
H53 C52 1_555 1_555
H54 C52 1_555 1_555
C53 C52 1_555 1_555
H55 C53 1_555 1_555
H56 C53 1_555 1_555
C54 C53 1_555 1_555
H57 C54 1_555 1_555
H58 C54 1_555 1_555
H59 C54 1_555 1_555
C55 H60 1_555 1_555
C56 C55 1_555 1_555
H61 C56 1_555 1_555
C57 B2 1_555 1_555
C58 C57 1_555 1_555
H62 C58 1_555 1_555
C59 C58 1_555 1_555
H63 C59 1_555 1_555
C60 C55 1_555 1_555
C61 C60 1_555 1_555
H64 C61 1_555 1_555
H65 C61 1_555 1_555
C62 C61 1_555 1_555
H66 C62 1_555 1_555
H67 C62 1_555 1_555
C63 C62 1_555 1_555
H68 C63 1_555 1_555
H69 C63 1_555 1_555
C64 C63 1_555 1_555
H70 C64 1_555 1_555
H71 C64 1_555 1_555
C65 C64 1_555 1_555
H72 C65 1_555 1_555
H73 C65 1_555 1_555
C66 C65 1_555 1_555
H74 C66 1_555 1_555
H75 C66 1_555 1_555
H76 C66 1_555 1_555
C4 C9 1_555 1_555
C7 C8 1_555 1_555
C8 C9 1_555 1_555
C14 C15 1_555 1_555
C23 C24 1_555 1_555
C26 C27 1_555 1_555
C37 C42 1_555 1_555
C40 C41 1_555 1_555
C41 C42 1_555 1_555
C47 C48 1_555 1_555
C56 C57 1_555 1_555
C59 C60 1_555 1_555

#END
