
#######################################################################
#
#                 Cambridge Crystallographic Data Centre
#                                CCDC 
#
#######################################################################
#
# If this CIF has been generated from an entry in the Cambridge 
# Structural Database, then it will include bibliographic, chemical, 
# crystal, experimental, refinement or atomic coordinate data resulting 
# from the CCDC's data processing and validation procedures.
#
#######################################################################

data_VELVAM
_chemical_formula_moiety         'C28 H34 B1 N1 O1'
_chemical_name_systematic        
N,N,3-trimethyl-1,1-bis(2,4,6-trimethylphenyl)-1,6-dihydro-2,1\l^5^-benzoxaborol-5-amine
_symmetry_cell_setting           monoclinic
_symmetry_space_group_name_H-M   'P 21/c'
_symmetry_Int_Tables_number      14
_space_group_name_Hall           '-P 2ybc'
loop_
_symmetry_equiv_pos_site_id
_symmetry_equiv_pos_as_xyz
1 x,y,z
2 -x,1/2+y,1/2-z
3 -x,-y,-z
4 x,1/2-y,1/2+z
_cell_length_a                   10.146(3)
_cell_length_b                   16.684(5)
_cell_length_c                   16.550(5)
_cell_angle_alpha                90
_cell_angle_beta                 103.602(8)
_cell_angle_gamma                90
_cell_volume                     2722.94
_exptl_crystal_colour            red
_exptl_crystal_description       Block
_cell_formula_units_Z            4
loop_
_atom_site_label
_atom_site_type_symbol
_atom_site_fract_x
_atom_site_fract_y
_atom_site_fract_z
B1 B 0.5868(2) 0.65221(17) 0.33336(16)
O1 O 0.52647(14) 0.68054(9) 0.41152(9)
N1 N 0.8771(2) 0.40298(15) 0.55238(14)
C1 C 0.6755(2) 0.57853(14) 0.38042(14)
C2 C 0.7705(2) 0.52561(16) 0.36165(15)
H1 H 0.7912 0.5283 0.3086
C3 C 0.8350(2) 0.46946(16) 0.41851(16)
H2 H 0.8982 0.4342 0.4028
C4 C 0.8116(2) 0.46210(15) 0.49855(15)
C5 C 0.7225(2) 0.51586(15) 0.52118(15)
H3 H 0.7053 0.5145 0.5752
C6 C 0.6578(2) 0.57269(14) 0.46175(14)
C7 C 0.5651(2) 0.63461(14) 0.47410(14)
C8 C 0.5168(2) 0.64994(17) 0.54987(15)
H4 H 0.4475 0.6920 0.5388
H5 H 0.5930 0.6673 0.5946
H6 H 0.4779 0.6007 0.5667
C9 C 0.8556(3) 0.39574(19) 0.63491(18)
H7 H 0.7601 0.3833 0.6316
H8 H 0.8793 0.4464 0.6648
H9 H 0.9127 0.3526 0.6646
C10 C 0.9660(3) 0.34610(19) 0.5259(2)
H10 H 0.9150 0.3163 0.4775
H11 H 1.0022 0.3087 0.5713
H12 H 1.0410 0.3748 0.5108
C11 C 0.6922(2) 0.71930(14) 0.31241(14)
C12 C 0.7316(2) 0.71209(16) 0.23600(15)
C13 C 0.6720(3) 0.64876(19) 0.17240(16)
H13 H 0.5803 0.6647 0.1430
H14 H 0.6682 0.5974 0.2006
H15 H 0.7290 0.6432 0.1324
C14 C 0.8258(3) 0.76492(18) 0.21573(17)
H16 H 0.8489 0.7589 0.1636
C15 C 0.8865(2) 0.82523(17) 0.26812(18)
C16 C 0.9871(3) 0.8817(2) 0.2447(2)
H17 H 0.9650 0.8890 0.1843
H18 H 1.0786 0.8593 0.2629
H19 H 0.9834 0.9336 0.2719
C17 C 0.8511(2) 0.83183(15) 0.34328(16)
H20 H 0.8924 0.8727 0.3808
C18 C 0.7573(2) 0.78105(15) 0.36665(15)
C19 C 0.7313(3) 0.79613(18) 0.45070(17)
H21 H 0.7807 0.8441 0.4750
H22 H 0.7621 0.7499 0.4868
H23 H 0.6339 0.8042 0.4453
C20 C 0.3901(2) 0.56296(15) 0.23460(15)
C21 C 0.4635(3) 0.48493(17) 0.25618(19)
H24 H 0.4032 0.4405 0.2329
H25 H 0.4913 0.4794 0.3168
H26 H 0.5439 0.4840 0.2330
C22 C 0.2605(2) 0.55728(17) 0.18157(17)
H27 H 0.2262 0.5057 0.1633
C23 C 0.1807(2) 0.62346(18) 0.15484(17)
C24 C 0.0399(3) 0.6150(2) 0.0987(2)
H28 H 0.0286 0.6536 0.0530
H29 H -0.0281 0.6253 0.1308
H30 H 0.0282 0.5605 0.0760
C25 C 0.2337(2) 0.69752(17) 0.18202(17)
H31 H 0.1813 0.7441 0.1638
C26 C 0.3612(2) 0.70633(15) 0.23510(15)
C27 C 0.4052(2) 0.79093(16) 0.25923(18)
H32 H 0.4804 0.8056 0.2343
H33 H 0.4347 0.7948 0.3199
H34 H 0.3289 0.8275 0.2392
C28 C 0.4438(2) 0.63876(14) 0.26375(13)
loop_
_geom_bond_atom_site_label_1
_geom_bond_atom_site_label_2
_geom_bond_site_symmetry_1
_geom_bond_site_symmetry_2
B1 O1 1_555 1_555
O1 C7 1_555 1_555
N1 C4 1_555 1_555
C1 B1 1_555 1_555
C2 C1 1_555 1_555
H1 C2 1_555 1_555
C3 C2 1_555 1_555
H2 C3 1_555 1_555
C4 C3 1_555 1_555
C5 C4 1_555 1_555
H3 C5 1_555 1_555
C6 C1 1_555 1_555
C7 C6 1_555 1_555
C8 C7 1_555 1_555
H4 C8 1_555 1_555
H5 C8 1_555 1_555
H6 C8 1_555 1_555
C9 N1 1_555 1_555
H7 C9 1_555 1_555
H8 C9 1_555 1_555
H9 C9 1_555 1_555
C10 N1 1_555 1_555
H10 C10 1_555 1_555
H11 C10 1_555 1_555
H12 C10 1_555 1_555
C11 B1 1_555 1_555
C12 C11 1_555 1_555
C13 C12 1_555 1_555
H13 C13 1_555 1_555
H14 C13 1_555 1_555
H15 C13 1_555 1_555
C14 C12 1_555 1_555
H16 C14 1_555 1_555
C15 C14 1_555 1_555
C16 C15 1_555 1_555
H17 C16 1_555 1_555
H18 C16 1_555 1_555
H19 C16 1_555 1_555
C17 C15 1_555 1_555
H20 C17 1_555 1_555
C18 C11 1_555 1_555
C19 C18 1_555 1_555
H21 C19 1_555 1_555
H22 C19 1_555 1_555
H23 C19 1_555 1_555
C20 C21 1_555 1_555
C21 H24 1_555 1_555
H25 C21 1_555 1_555
H26 C21 1_555 1_555
C22 C20 1_555 1_555
H27 C22 1_555 1_555
C23 C22 1_555 1_555
C24 C23 1_555 1_555
H28 C24 1_555 1_555
H29 C24 1_555 1_555
H30 C24 1_555 1_555
C25 C23 1_555 1_555
H31 C25 1_555 1_555
C26 C25 1_555 1_555
C27 C26 1_555 1_555
H32 C27 1_555 1_555
H33 C27 1_555 1_555
H34 C27 1_555 1_555
C28 B1 1_555 1_555
C5 C6 1_555 1_555
C17 C18 1_555 1_555
C20 C28 1_555 1_555
C26 C28 1_555 1_555

#END
