
#######################################################################
#
#                 Cambridge Crystallographic Data Centre
#                                CCDC 
#
#######################################################################
#
# If this CIF has been generated from an entry in the Cambridge 
# Structural Database, then it will include bibliographic, chemical, 
# crystal, experimental, refinement or atomic coordinate data resulting 
# from the CCDC's data processing and validation procedures.
#
#######################################################################

data_VELXIV
_chemical_formula_moiety         'C18 H17 Cl2 N3 O5'
_chemical_name_systematic        
N-Carbamoyl-1-(3,5-dichlorophenyl)-3-hydroxy-6,6-dimethyl-2,4-dioxo-2,3,4,5,6,7-hexahydro-1H-indole-3-carboxamide
_symmetry_cell_setting           monoclinic
_symmetry_space_group_name_H-M   'P 21/n'
_symmetry_Int_Tables_number      14
_space_group_name_Hall           '-P 2yn'
loop_
_symmetry_equiv_pos_site_id
_symmetry_equiv_pos_as_xyz
1 x,y,z
2 1/2-x,1/2+y,1/2-z
3 -x,-y,-z
4 1/2+x,1/2-y,1/2+z
_cell_length_a                   10.1811(12)
_cell_length_b                   6.7301(7)
_cell_length_c                   29.352(2)
_cell_angle_alpha                90
_cell_angle_beta                 93.4730(10)
_cell_angle_gamma                90
_cell_volume                     2007.5
_exptl_crystal_colour            white
_exptl_crystal_description       block
_cell_formula_units_Z            4
loop_
_atom_site_label
_atom_site_type_symbol
_atom_site_fract_x
_atom_site_fract_y
_atom_site_fract_z
Cl1 Cl 0.56968(14) 1.2636(2) 1.56300(4)
Cl2 Cl 0.86501(17) 0.6774(2) 1.49769(5)
N1 N 0.6859(3) 1.2475(5) 1.39508(9)
N2 N 0.4164(3) 1.5720(4) 1.29055(9)
H1 H 0.3961 1.4639 1.2762
N3 N 0.3517(3) 1.8960(5) 1.30671(11)
H2 H 0.3026 1.9988 1.3020
H3 H 0.4132 1.8972 1.3281
O1 O 0.4582(2) 1.2292(4) 1.38437(9)
O2 O 0.7822(2) 1.5293(4) 1.25766(8)
O3 O 0.5406(2) 1.2290(3) 1.28902(8)
H4 H 0.4601 1.2287 1.2891
O4 O 0.5687(2) 1.7021(4) 1.34347(9)
O5 O 0.2467(3) 1.7231(4) 1.24968(10)
C1 C 0.5641(4) 1.2725(5) 1.37110(12)
C2 C 0.5928(3) 1.3592(5) 1.32310(11)
C3 C 0.7406(3) 1.3731(5) 1.32691(11)
C4 C 0.8258(3) 1.4495(5) 1.29302(12)
C5 C 0.9724(3) 1.4180(7) 1.30466(12)
H5 H 0.9964 1.2864 1.2946
H6 H 1.0214 1.5137 1.2877
C6 C 1.0136(3) 1.4382(7) 1.35500(13)
C7 C 0.9294(3) 1.3043(7) 1.38378(13)
H7 H 0.9618 1.1690 1.3825
H8 H 0.9382 1.3475 1.4153
C8 C 0.7880(3) 1.3079(5) 1.36778(11)
C9 C 0.6987(3) 1.1587(6) 1.43961(12)
C10 C 0.6374(4) 1.2479(6) 1.47531(12)
H9 H 0.5906 1.3657 1.4710
C11 C 0.6483(4) 1.1553(7) 1.51792(13)
C12 C 0.7168(4) 0.9831(6) 1.52571(13)
H10 H 0.7222 0.9243 1.5544
C13 C 0.7777(4) 0.8988(6) 1.48980(14)
C14 C 0.7682(4) 0.9841(6) 1.44636(13)
H11 H 0.8081 0.9238 1.4223
C15 C 0.5258(3) 1.5640(6) 1.31988(11)
C16 C 0.3327(3) 1.7356(5) 1.28095(12)
C17 C 0.9923(5) 1.6571(9) 1.36899(18)
H12 H 1.0134 1.6720 1.4011
H13 H 0.9020 1.6932 1.3621
H14 H 1.0482 1.7418 1.3524
C18 C 1.1593(4) 1.3904(9) 1.36419(15)
H15 H 1.1764 1.2581 1.3539
H16 H 1.1820 1.3999 1.3963
H17 H 1.2111 1.4833 1.3481
loop_
_geom_bond_atom_site_label_1
_geom_bond_atom_site_label_2
_geom_bond_site_symmetry_1
_geom_bond_site_symmetry_2
Cl1 C11 1_555 1_555
Cl2 C13 1_555 1_555
N1 C1 1_555 1_555
N2 H1 1_555 1_555
N3 H2 1_555 1_555
H3 N3 1_555 1_555
O1 C1 1_555 1_555
O2 C4 1_555 1_555
O3 H4 1_555 1_555
O4 C15 1_555 1_555
O5 C16 1_555 1_555
C1 C2 1_555 1_555
C2 O3 1_555 1_555
C3 C2 1_555 1_555
C4 C3 1_555 1_555
C5 C4 1_555 1_555
H5 C5 1_555 1_555
H6 C5 1_555 1_555
C6 C5 1_555 1_555
C7 C6 1_555 1_555
H7 C7 1_555 1_555
H8 C7 1_555 1_555
C8 N1 1_555 1_555
C9 N1 1_555 1_555
C10 C9 1_555 1_555
H9 C10 1_555 1_555
C11 C10 1_555 1_555
C12 C11 1_555 1_555
H10 C12 1_555 1_555
C13 C12 1_555 1_555
C14 C9 1_555 1_555
H11 C14 1_555 1_555
C15 N2 1_555 1_555
C16 N2 1_555 1_555
C17 C6 1_555 1_555
H12 C17 1_555 1_555
H13 C17 1_555 1_555
H14 C17 1_555 1_555
C18 C6 1_555 1_555
H15 C18 1_555 1_555
H16 C18 1_555 1_555
H17 C18 1_555 1_555
N3 C16 1_555 1_555
C2 C15 1_555 1_555
C3 C8 1_555 1_555
C7 C8 1_555 1_555
C13 C14 1_555 1_555

#END
