
#######################################################################
#
#                 Cambridge Crystallographic Data Centre
#                                CCDC 
#
#######################################################################
#
# If this CIF has been generated from an entry in the Cambridge 
# Structural Database, then it will include bibliographic, chemical, 
# crystal, experimental, refinement or atomic coordinate data resulting 
# from the CCDC's data processing and validation procedures.
#
#######################################################################

data_VELYES
_chemical_formula_moiety         'C16 H18 N2 O3'
_chemical_name_systematic        
'3-Methyl-4-(3-oxobutyl)-1-phenyl-1H-pyrazol-5-yl acetate'
_symmetry_cell_setting           monoclinic
_symmetry_space_group_name_H-M   'P 21/c'
_symmetry_Int_Tables_number      14
_space_group_name_Hall           '-P 2ybc'
loop_
_symmetry_equiv_pos_site_id
_symmetry_equiv_pos_as_xyz
1 x,y,z
2 -x,1/2+y,1/2-z
3 -x,-y,-z
4 x,1/2-y,1/2+z
_cell_length_a                   9.915(3)
_cell_length_b                   16.452(4)
_cell_length_c                   10.553(3)
_cell_angle_alpha                90
_cell_angle_beta                 112.911(4)
_cell_angle_gamma                90
_cell_volume                     1585.62
_exptl_crystal_colour            colorless
_exptl_crystal_description       block
_cell_formula_units_Z            4
loop_
_atom_site_label
_atom_site_type_symbol
_atom_site_fract_x
_atom_site_fract_y
_atom_site_fract_z
C1 C -0.32190(16) 0.16401(10) 0.00544(16)
H1 H -0.3291 0.1204 -0.0530
C2 C -0.44634(17) 0.20383(11) 0.00079(19)
H2 H -0.5378 0.1872 -0.0616
C3 C -0.43588(19) 0.26824(12) 0.0882(2)
H3 H -0.5200 0.2947 0.0851
C4 C -0.30062(19) 0.29296(11) 0.17979(18)
H4 H -0.2938 0.3362 0.2388
C5 C -0.17470(17) 0.25450(9) 0.18528(16)
H5 H -0.0834 0.2719 0.2467
C6 C -0.18641(14) 0.18956(8) 0.09788(14)
C7 C 0.08538(15) 0.09382(8) 0.01891(15)
C8 C 0.14101(18) 0.06685(10) -0.08705(17)
H6 H 0.0616 0.0658 -0.1757
H7 H 0.1824 0.0134 -0.0645
H8 H 0.2148 0.1040 -0.0890
C9 C 0.15225(15) 0.08283(8) 0.16273(14)
C10 C 0.05695(14) 0.11916(8) 0.20939(13)
C11 C 0.14329(15) 0.17949(9) 0.42824(15)
C12 C 0.1382(2) 0.17123(13) 0.56613(18)
H9 H 0.1974 0.1259 0.6134
H10 H 0.0389 0.1624 0.5563
H11 H 0.1750 0.2200 0.6181
C13 C 0.28991(15) 0.03826(9) 0.24513(17)
H12 H 0.2914 -0.0124 0.1987
H13 H 0.2881 0.0248 0.3340
C14 C 0.42847(17) 0.08390(10) 0.2681(2)
H14 H 0.4237 0.1043 0.1802
H15 H 0.4339 0.1304 0.3263
C15 C 0.56578(18) 0.03501(12) 0.3327(2)
C16 C 0.7074(2) 0.07945(16) 0.3747(3)
H16 H 0.7168 0.1163 0.4482
H17 H 0.7100 0.1095 0.2977
H18 H 0.7868 0.0412 0.4053
N1 N -0.05805(12) 0.14932(7) 0.10077(12)
N2 N -0.04140(13) 0.13264(7) -0.01936(12)
O1 O 0.20972(13) 0.22782(8) 0.39172(13)
O2 O 0.56274(17) -0.03641(11) 0.3506(3)
O3 O 0.05585(11) 0.12119(6) 0.33949(10)
loop_
_geom_bond_atom_site_label_1
_geom_bond_atom_site_label_2
_geom_bond_site_symmetry_1
_geom_bond_site_symmetry_2
C1 H1 1_555 1_555
C2 C1 1_555 1_555
H2 C2 1_555 1_555
C3 C2 1_555 1_555
H3 C3 1_555 1_555
C4 C3 1_555 1_555
H4 C4 1_555 1_555
C5 C4 1_555 1_555
H5 C5 1_555 1_555
C6 C1 1_555 1_555
C7 C8 1_555 1_555
C8 H6 1_555 1_555
H7 C8 1_555 1_555
H8 C8 1_555 1_555
C9 C7 1_555 1_555
C10 C9 1_555 1_555
C11 C12 1_555 1_555
C12 H9 1_555 1_555
H10 C12 1_555 1_555
H11 C12 1_555 1_555
C13 C9 1_555 1_555
H12 C13 1_555 1_555
H13 C13 1_555 1_555
C14 C13 1_555 1_555
H14 C14 1_555 1_555
H15 C14 1_555 1_555
C15 C14 1_555 1_555
C16 C15 1_555 1_555
H16 C16 1_555 1_555
H17 C16 1_555 1_555
H18 C16 1_555 1_555
N1 C6 1_555 1_555
N2 C7 1_555 1_555
O1 C11 1_555 1_555
O2 C15 1_555 1_555
O3 C10 1_555 1_555
C5 C6 1_555 1_555
C10 N1 1_555 1_555
C11 O3 1_555 1_555
N1 N2 1_555 1_555

#END
