
#######################################################################
#
#                 Cambridge Crystallographic Data Centre
#                                CCDC 
#
#######################################################################
#
# If this CIF has been generated from an entry in the Cambridge 
# Structural Database, then it will include bibliographic, chemical, 
# crystal, experimental, refinement or atomic coordinate data resulting 
# from the CCDC's data processing and validation procedures.
#
#######################################################################

data_VEMDAV
_chemical_formula_moiety         'C28 H25 N1 O3'
_chemical_name_systematic        
'methyl (2E, 4Z)-5-(1-methyl-3-(4-methylphenyl)-2-oxo-2,3-dihydro-1H-indol-3-yl)-4-phenylpenta-2,4-dienoate'
_symmetry_cell_setting           monoclinic
_symmetry_space_group_name_H-M   'P 21/c'
_symmetry_Int_Tables_number      14
_space_group_name_Hall           '-P 2ybc'
loop_
_symmetry_equiv_pos_site_id
_symmetry_equiv_pos_as_xyz
1 x,y,z
2 -x,1/2+y,1/2-z
3 -x,-y,-z
4 x,1/2-y,1/2+z
_cell_length_a                   12.790(4)
_cell_length_b                   14.850(5)
_cell_length_c                   12.068(4)
_cell_angle_alpha                90
_cell_angle_beta                 97.127(6)
_cell_angle_gamma                90
_cell_volume                     2274.38
_exptl_crystal_colour            colorless
_exptl_crystal_description       block
_chemical_melting_point          '161-164 deg.C'
_cell_formula_units_Z            4
loop_
_atom_site_label
_atom_site_type_symbol
_atom_site_fract_x
_atom_site_fract_y
_atom_site_fract_z
O1 O 0.55216(18) 0.44593(17) 0.7008(2)
O2 O 0.99571(19) 0.61815(17) 0.3991(2)
O3 O 0.90510(18) 0.74373(17) 0.3482(2)
N1 N 0.5892(2) 0.5276(2) 0.8634(2)
C1 C 0.7363(2) 0.4605(2) 0.7946(3)
C2 C 0.6145(3) 0.4767(2) 0.7762(3)
C3 C 0.6789(3) 0.5536(2) 0.9345(3)
C4 C 0.6847(3) 0.6087(3) 1.0269(3)
H1 H 0.623289 0.634893 1.050180
C5 C 0.7836(3) 0.6245(3) 1.0846(3)
H2 H 0.789880 0.661092 1.149650
C6 C 0.8726(3) 0.5882(3) 1.0493(4)
H3 H 0.939588 0.600682 1.089813
C7 C 0.8660(3) 0.5331(3) 0.9545(3)
H4 H 0.927759 0.509164 0.929253
C8 C 0.7683(3) 0.5145(2) 0.8989(3)
C9 C 0.4834(3) 0.5651(3) 0.8660(3)
H5 H 0.484507 0.629885 0.850992
H6 H 0.461111 0.554779 0.939776
H7 H 0.433797 0.535504 0.808919
C10 C 0.7537(2) 0.3584(2) 0.8068(3)
C11 C 0.7293(3) 0.3041(2) 0.7135(3)
H8 H 0.703683 0.330952 0.643923
C12 C 0.7416(3) 0.2121(2) 0.7199(3)
H9 H 0.723959 0.176508 0.654805
C13 C 0.7792(3) 0.1705(2) 0.8193(3)
C14 C 0.8049(3) 0.2249(3) 0.9124(3)
H10 H 0.832248 0.198081 0.981463
C15 C 0.7916(3) 0.3175(2) 0.9067(3)
H11 H 0.808558 0.353034 0.971888
C16 C 0.7943(4) 0.0690(3) 0.8271(4)
H12 H 0.738400 0.042525 0.865309
H13 H 0.863000 0.055545 0.869143
H14 H 0.791068 0.043663 0.751759
C17 C 0.7930(2) 0.4950(2) 0.6991(3)
H15 H 0.854806 0.462578 0.687571
C18 C 0.7691(2) 0.5640(2) 0.6288(3)
C19 C 0.6746(2) 0.6231(2) 0.6290(3)
C20 C 0.5911(3) 0.6174(2) 0.5437(3)
H16 H 0.594338 0.575955 0.484165
C21 C 0.5038(3) 0.6715(3) 0.5451(3)
H17 H 0.446906 0.666495 0.486830
C22 C 0.4976(3) 0.7329(3) 0.6300(3)
H18 H 0.436941 0.769743 0.630400
C23 C 0.5807(3) 0.7401(2) 0.7143(3)
H19 H 0.577634 0.782531 0.772680
C24 C 0.6689(3) 0.6852(2) 0.7140(3)
H20 H 0.725581 0.690345 0.772414
C25 C 0.8437(2) 0.5838(2) 0.5488(3)
H21 H 0.901658 0.543838 0.548142
C26 C 0.8380(3) 0.6523(2) 0.4771(3)
H22 H 0.779416 0.692083 0.472085
C27 C 0.9215(3) 0.6667(2) 0.4058(3)
C28 C 0.9864(3) 0.7710(3) 0.2815(4)
H23 H 0.997254 0.723222 0.228090
H24 H 1.052251 0.781760 0.330457
H25 H 0.964658 0.826391 0.240946
loop_
_geom_bond_atom_site_label_1
_geom_bond_atom_site_label_2
_geom_bond_site_symmetry_1
_geom_bond_site_symmetry_2
O1 C2 1_555 1_555
O2 C27 1_555 1_555
O3 C27 1_555 1_555
N1 C2 1_555 1_555
C1 C2 1_555 1_555
C3 N1 1_555 1_555
C4 C3 1_555 1_555
H1 C4 1_555 1_555
C5 C4 1_555 1_555
H2 C5 1_555 1_555
C6 C5 1_555 1_555
H3 C6 1_555 1_555
C7 C6 1_555 1_555
H4 C7 1_555 1_555
C8 C1 1_555 1_555
C9 N1 1_555 1_555
H5 C9 1_555 1_555
H6 C9 1_555 1_555
H7 C9 1_555 1_555
C10 C1 1_555 1_555
C11 C10 1_555 1_555
H8 C11 1_555 1_555
C12 C11 1_555 1_555
H9 C12 1_555 1_555
C13 C12 1_555 1_555
C14 C13 1_555 1_555
H10 C14 1_555 1_555
C15 C10 1_555 1_555
H11 C15 1_555 1_555
C16 C13 1_555 1_555
H12 C16 1_555 1_555
H13 C16 1_555 1_555
H14 C16 1_555 1_555
C17 C1 1_555 1_555
H15 C17 1_555 1_555
C18 C17 1_555 1_555
C19 C18 1_555 1_555
C20 C19 1_555 1_555
H16 C20 1_555 1_555
C21 C20 1_555 1_555
H17 C21 1_555 1_555
C22 C21 1_555 1_555
H18 C22 1_555 1_555
C23 C22 1_555 1_555
H19 C23 1_555 1_555
C24 C19 1_555 1_555
H20 C24 1_555 1_555
C25 C18 1_555 1_555
H21 C25 1_555 1_555
C26 C25 1_555 1_555
H22 C26 1_555 1_555
C27 C26 1_555 1_555
C28 O3 1_555 1_555
H23 C28 1_555 1_555
H24 C28 1_555 1_555
H25 C28 1_555 1_555
C3 C8 1_555 1_555
C7 C8 1_555 1_555
C14 C15 1_555 1_555
C23 C24 1_555 1_555

#END
