
#######################################################################
#
#                 Cambridge Crystallographic Data Centre
#                                CCDC 
#
#######################################################################
#
# If this CIF has been generated from an entry in the Cambridge 
# Structural Database, then it will include bibliographic, chemical, 
# crystal, experimental, refinement or atomic coordinate data resulting 
# from the CCDC's data processing and validation procedures.
#
#######################################################################

data_VEMKEG
_chemical_formula_moiety         'C49 H40 B1 N1 O1'
_chemical_name_systematic        
2-[bis(2,4,6-trimethylphenyl)boranyl]spiro[fluorene-9,9'-quinolino[3,2,1-kl]phenoxazine]
_symmetry_cell_setting           monoclinic
_symmetry_space_group_name_H-M   'P 21/c'
_symmetry_Int_Tables_number      14
_space_group_name_Hall           '-P 2ybc'
loop_
_symmetry_equiv_pos_site_id
_symmetry_equiv_pos_as_xyz
1 x,y,z
2 -x,1/2+y,1/2-z
3 -x,-y,-z
4 x,1/2-y,1/2+z
_cell_length_a                   13.274(5)
_cell_length_b                   8.023(5)
_cell_length_c                   34.840(5)
_cell_angle_alpha                90
_cell_angle_beta                 93.989(5)
_cell_angle_gamma                90
_cell_volume                     3701.38
_exptl_crystal_colour            yellow
_exptl_crystal_description       needle
_cell_formula_units_Z            4
loop_
_atom_site_label
_atom_site_type_symbol
_atom_site_fract_x
_atom_site_fract_y
_atom_site_fract_z
C1 C 0.7364(2) -0.1401(4) 0.52509(7)
C2 C 0.6353(2) -0.1322(4) 0.53420(9)
H1 H 0.6170 -0.0666 0.5546
C3 C 0.5627(2) -0.2228(5) 0.51259(10)
H2 H 0.4955 -0.2163 0.5184
C4 C 0.5887(3) -0.3219(5) 0.48276(10)
H3 H 0.5391 -0.3766 0.4674
C5 C 0.6883(2) -0.3395(4) 0.47587(8)
H4 H 0.7072 -0.4122 0.4568
C6 C 0.7607(2) -0.2493(4) 0.49715(8)
C7 C 0.9351(2) -0.2241(4) 0.51639(7)
C8 C 1.0307(2) -0.2837(4) 0.51365(8)
H5 H 1.0446 -0.3581 0.4943
C9 C 1.1064(2) -0.2315(4) 0.54013(9)
H6 H 1.1718 -0.2711 0.5386
C10 C 1.0855(2) -0.1212(4) 0.56882(8)
H7 H 1.1370 -0.0874 0.5866
C11 C 0.98897(18) -0.0602(3) 0.57156(7)
C12 C 0.91277(19) -0.1124(3) 0.54460(7)
C13 C 0.8049(2) 0.1179(3) 0.55762(7)
C14 C 0.87956(19) 0.1820(3) 0.58380(7)
C15 C 0.8769(2) 0.3507(4) 0.59278(8)
H8 H 0.9280 0.3960 0.6092
C16 C 0.8002(3) 0.4519(4) 0.57787(9)
H9 H 0.7990 0.5642 0.5845
C17 C 0.7251(3) 0.3861(4) 0.55315(9)
H10 H 0.6722 0.4537 0.5436
C18 C 0.7273(2) 0.2212(4) 0.54241(8)
H11 H 0.6774 0.1786 0.5251
C19 C 0.96074(18) 0.0652(3) 0.60200(6)
C20 C 1.05355(19) 0.1560(3) 0.62000(7)
C21 C 1.1170(2) 0.2655(4) 0.60297(8)
H12 H 1.1051 0.2954 0.5773
C22 C 1.1991(2) 0.3301(4) 0.62500(9)
H13 H 1.2425 0.4040 0.6139
C23 C 1.2171(2) 0.2862(4) 0.66319(8)
H14 H 1.2728 0.3301 0.6774
C24 C 1.15398(19) 0.1788(3) 0.68038(8)
H15 H 1.1662 0.1495 0.7061
C25 C 1.07144(18) 0.1145(3) 0.65868(7)
C26 C 0.99126(17) 0.0031(3) 0.66976(7)
C27 C 0.97380(19) -0.0657(3) 0.70507(7)
H16 H 1.0189 -0.0479 0.7263
C28 C 0.88842(19) -0.1612(3) 0.70822(7)
H17 H 0.8774 -0.2097 0.7318
C29 C 0.81747(18) -0.1878(3) 0.67701(7)
C30 C 0.83745(18) -0.1174(3) 0.64144(7)
H18 H 0.7920 -0.1335 0.6202
C31 C 0.92385(17) -0.0247(3) 0.63758(6)
C32 C 0.71244(17) -0.4124(3) 0.71672(7)
C33 C 0.77980(18) -0.5485(3) 0.71892(7)
C34 C 0.7760(2) -0.6637(3) 0.74856(8)
H19 H 0.8197 -0.7545 0.7492
C35 C 0.7093(2) -0.6473(4) 0.77721(8)
C36 C 0.6439(2) -0.5143(4) 0.77508(8)
H20 H 0.5986 -0.5016 0.7941
C37 C 0.64349(18) -0.3988(3) 0.74563(7)
C38 C 0.5690(2) -0.2567(4) 0.74623(9)
H21 H 0.5761 -0.1861 0.7243
H22 H 0.5820 -0.1931 0.7694
H23 H 0.5016 -0.3004 0.7454
C39 C 0.7103(3) -0.7714(5) 0.81016(11)
H24 H 0.7609 -0.8547 0.8068
H25 H 0.6453 -0.8237 0.8104
H26 H 0.7254 -0.7143 0.8341
C40 C 0.8549(2) -0.5792(4) 0.68926(8)
H27 H 0.8503 -0.4915 0.6705
H28 H 0.8405 -0.6841 0.6768
H29 H 0.9219 -0.5817 0.7016
C41 C 0.61962(18) -0.2248(3) 0.65712(7)
C42 C 0.55885(19) -0.3412(3) 0.63586(7)
C43 C 0.4784(2) -0.2865(4) 0.61158(8)
H30 H 0.4405 -0.3650 0.5972
C44 C 0.4520(2) -0.1205(4) 0.60784(9)
C45 C 0.5093(2) -0.0078(4) 0.62975(9)
H31 H 0.4920 0.1044 0.6283
C46 C 0.59215(19) -0.0553(3) 0.65391(8)
C47 C 0.6469(2) 0.0786(3) 0.67732(9)
H32 H 0.7021 0.0299 0.6927
H33 H 0.6012 0.1306 0.6938
H34 H 0.6723 0.1606 0.6604
C48 C 0.3627(3) -0.0644(5) 0.58175(12)
H35 H 0.3320 -0.1594 0.5689
H36 H 0.3851 0.0123 0.5630
H37 H 0.3143 -0.0105 0.5968
C49 C 0.5779(2) -0.5255(4) 0.63950(9)
H38 H 0.6356 -0.5447 0.6571
H39 H 0.5903 -0.5706 0.6148
H40 H 0.5198 -0.5789 0.6490
B1 B 0.7158(2) -0.2788(4) 0.68354(8)
N1 N 0.81422(15) -0.0491(3) 0.54544(6)
O1 O 0.86042(15) -0.2743(3) 0.48868(5)
loop_
_geom_bond_atom_site_label_1
_geom_bond_atom_site_label_2
_geom_bond_site_symmetry_1
_geom_bond_site_symmetry_2
C1 C2 1_555 1_555
C2 H1 1_555 1_555
C3 C2 1_555 1_555
H2 C3 1_555 1_555
C4 C3 1_555 1_555
H3 C4 1_555 1_555
C5 C4 1_555 1_555
H4 C5 1_555 1_555
C6 C1 1_555 1_555
C7 C8 1_555 1_555
C8 H5 1_555 1_555
C9 C8 1_555 1_555
H6 C9 1_555 1_555
C10 C9 1_555 1_555
H7 C10 1_555 1_555
C11 C10 1_555 1_555
C12 C7 1_555 1_555
C13 C14 1_555 1_555
C14 C15 1_555 1_555
C15 H8 1_555 1_555
C16 C15 1_555 1_555
H9 C16 1_555 1_555
C17 C16 1_555 1_555
H10 C17 1_555 1_555
C18 C13 1_555 1_555
H11 C18 1_555 1_555
C19 C11 1_555 1_555
C20 C19 1_555 1_555
C21 C20 1_555 1_555
H12 C21 1_555 1_555
C22 C21 1_555 1_555
H13 C22 1_555 1_555
C23 C22 1_555 1_555
H14 C23 1_555 1_555
C24 C23 1_555 1_555
H15 C24 1_555 1_555
C25 C20 1_555 1_555
C26 C25 1_555 1_555
C27 C26 1_555 1_555
H16 C27 1_555 1_555
C28 C27 1_555 1_555
H17 C28 1_555 1_555
C29 C28 1_555 1_555
C30 C29 1_555 1_555
H18 C30 1_555 1_555
C31 C19 1_555 1_555
C32 C33 1_555 1_555
C33 C34 1_555 1_555
C34 H19 1_555 1_555
C35 C34 1_555 1_555
C36 C35 1_555 1_555
H20 C36 1_555 1_555
C37 C32 1_555 1_555
C38 C37 1_555 1_555
H21 C38 1_555 1_555
H22 C38 1_555 1_555
H23 C38 1_555 1_555
C39 C35 1_555 1_555
H24 C39 1_555 1_555
H25 C39 1_555 1_555
H26 C39 1_555 1_555
C40 C33 1_555 1_555
H27 C40 1_555 1_555
H28 C40 1_555 1_555
H29 C40 1_555 1_555
C41 C42 1_555 1_555
C42 C43 1_555 1_555
C43 H30 1_555 1_555
C44 C43 1_555 1_555
C45 C44 1_555 1_555
H31 C45 1_555 1_555
C46 C41 1_555 1_555
C47 C46 1_555 1_555
H32 C47 1_555 1_555
H33 C47 1_555 1_555
H34 C47 1_555 1_555
C48 C44 1_555 1_555
H35 C48 1_555 1_555
H36 C48 1_555 1_555
H37 C48 1_555 1_555
C49 C42 1_555 1_555
H38 C49 1_555 1_555
H39 C49 1_555 1_555
H40 C49 1_555 1_555
B1 C29 1_555 1_555
N1 C1 1_555 1_555
O1 C6 1_555 1_555
C5 C6 1_555 1_555
C7 O1 1_555 1_555
C11 C12 1_555 1_555
C12 N1 1_555 1_555
C13 N1 1_555 1_555
C14 C19 1_555 1_555
C17 C18 1_555 1_555
C24 C25 1_555 1_555
C26 C31 1_555 1_555
C30 C31 1_555 1_555
C32 B1 1_555 1_555
C36 C37 1_555 1_555
C41 B1 1_555 1_555
C45 C46 1_555 1_555

#END
