
#######################################################################
#
#                 Cambridge Crystallographic Data Centre
#                                CCDC 
#
#######################################################################
#
# If this CIF has been generated from an entry in the Cambridge 
# Structural Database, then it will include bibliographic, chemical, 
# crystal, experimental, refinement or atomic coordinate data resulting 
# from the CCDC's data processing and validation procedures.
#
#######################################################################

data_VEMMIJ
_chemical_formula_moiety         'C27 H44 O3'
_chemical_name_systematic        
(25R)-3\b,26-Dihydroxy-5\a-cholest-8(14)-en-15-one
_chemical_properties_biological  
'inhibitory activity against sterol synthesis and high antiHMG- CoA reductase activity'
_symmetry_cell_setting           orthorhombic
_symmetry_space_group_name_H-M   'P 21 21 21'
_symmetry_Int_Tables_number      19
_space_group_name_Hall           'P 2ac 2ab'
loop_
_symmetry_equiv_pos_site_id
_symmetry_equiv_pos_as_xyz
1 x,y,z
2 1/2+x,1/2-y,-z
3 -x,1/2+y,1/2-z
4 1/2-x,-y,1/2+z
_cell_length_a                   11.428(2)
_cell_length_b                   20.209(2)
_cell_length_c                   10.458(2)
_cell_angle_alpha                90
_cell_angle_beta                 90
_cell_angle_gamma                90
_cell_volume                     2415.26
_chemical_melting_point          197-198deg.C
_cell_formula_units_Z            4
loop_
_atom_site_label
_atom_site_type_symbol
_atom_site_fract_x
_atom_site_fract_y
_atom_site_fract_z
C1 C 0.6690(6) 0.3227(2) 0.1163(7)
C2 C 0.6358(6) 0.3968(2) 0.1164(6)
C3 C 0.6354(5) 0.4246(2) -0.0153(8)
C4 C 0.5600(6) 0.3854(2) -0.1047(7)
C5 C 0.5935(5) 0.3118(2) -0.1055(6)
C6 C 0.5218(7) 0.2720(2) -0.1989(6)
C7 C 0.5640(7) 0.2001(3) -0.2073(7)
C8 C 0.5797(4) 0.1672(2) -0.0816(6)
C9 C 0.6417(4) 0.2081(2) 0.0200(6)
C10 C 0.5911(4) 0.2802(2) 0.0286(6)
C11 C 0.6516(5) 0.1725(2) 0.1456(6)
C12 C 0.6799(5) 0.0985(2) 0.1309(7)
C13 C 0.5835(4) 0.0629(2) 0.0562(6)
C14 C 0.5534(4) 0.1023(2) -0.0650(6)
C15 C 0.5102(5) 0.0554(2) -0.1625(7)
C16 C 0.5461(5) -0.0128(2) -0.1222(6)
C17 C 0.6249(4) -0.0045(2) -0.0055(6)
C18 C 0.4727(6) 0.0523(3) 0.1340(6)
C19 C 0.4678(5) 0.2766(3) 0.0849(7)
C20 C 0.6273(5) -0.0668(2) 0.0787(6)
C21 C 0.6971(7) -0.0576(3) 0.1983(8)
C22 C 0.6750(5) -0.1257(2) 0.0033(7)
C23 C 0.6471(5) -0.1928(2) 0.0617(7)
C24 C 0.7106(5) -0.2510(3) -0.0008(8)
C25 C 0.6898(3) -0.3181(2) 0.0649(6)
C26 C 0.7730(5) -0.3697(3) 0.0140(10)
C27 C 0.5652(5) -0.3407(2) 0.0554(7)
O1 O 0.5956(4) 0.4926(2) -0.0098(5)
O2 O 0.4540(4) 0.0674(2) -0.2595(5)
O3 O 0.7719(4) -0.4289(2) 0.0882(6)
loop_
_geom_bond_atom_site_label_1
_geom_bond_atom_site_label_2
_geom_bond_site_symmetry_1
_geom_bond_site_symmetry_2
C1 C2 1_555 1_555
C2 C3 1_555 1_555
C3 C4 1_555 1_555
C4 C5 1_555 1_555
C5 C6 1_555 1_555
C6 C7 1_555 1_555
C7 C8 1_555 1_555
C8 C9 1_555 1_555
C9 C10 1_555 1_555
C10 C1 1_555 1_555
C11 C9 1_555 1_555
C12 C11 1_555 1_555
C13 C12 1_555 1_555
C14 C8 1_555 1_555
C15 C14 1_555 1_555
C16 C15 1_555 1_555
C17 C13 1_555 1_555
C18 C13 1_555 1_555
C19 C10 1_555 1_555
C20 C17 1_555 1_555
C21 C20 1_555 1_555
C22 C20 1_555 1_555
C23 C22 1_555 1_555
C24 C23 1_555 1_555
C25 C24 1_555 1_555
C26 C25 1_555 1_555
C27 C25 1_555 1_555
O1 C3 1_555 1_555
O2 C15 1_555 1_555
O3 C26 1_555 1_555
C5 C10 1_555 1_555
C13 C14 1_555 1_555
C16 C17 1_555 1_555

#END
