
#######################################################################
#
#                 Cambridge Crystallographic Data Centre
#                                CCDC 
#
#######################################################################
#
# If this CIF has been generated from an entry in the Cambridge 
# Structural Database, then it will include bibliographic, chemical, 
# crystal, experimental, refinement or atomic coordinate data resulting 
# from the CCDC's data processing and validation procedures.
#
#######################################################################

data_VEMNEH
_chemical_formula_moiety         'C36 H36 N2 O10 S4'
_chemical_name_systematic        
N,N'-bis((4-Methoxybenzyl)methyl)-N,N'-bis(p-tolylsulfonyl)benzene-1,3-disulfonamide
_symmetry_cell_setting           orthorhombic
_symmetry_space_group_name_H-M   'P b c a'
_symmetry_Int_Tables_number      61
_space_group_name_Hall           '-P 2ac 2ab'
loop_
_symmetry_equiv_pos_site_id
_symmetry_equiv_pos_as_xyz
1 x,y,z
2 1/2-x,-y,1/2+z
3 -x,1/2+y,1/2-z
4 1/2+x,1/2-y,-z
5 -x,-y,-z
6 1/2+x,y,1/2-z
7 x,1/2-y,1/2+z
8 1/2-x,1/2+y,z
_cell_length_a                   19.8805(10)
_cell_length_b                   11.7498(6)
_cell_length_c                   31.4557(15)
_cell_angle_alpha                90
_cell_angle_beta                 90
_cell_angle_gamma                90
_cell_volume                     7347.8
_chemical_melting_point          172-173deg.C
_cell_formula_units_Z            8
_exptl_crystal_recrystallization_method methanol/dichloromethane
loop_
_atom_site_label
_atom_site_type_symbol
_atom_site_fract_x
_atom_site_fract_y
_atom_site_fract_z
C1 C 0.61648(14) 0.4006(2) 0.04660(9)
C2 C 0.62678(13) 0.3663(2) 0.08829(9)
H1 H 0.6465 0.2964 0.0944
C3 C 0.60706(14) 0.4388(2) 0.12050(9)
C4 C 0.57685(15) 0.5422(2) 0.11188(9)
H2 H 0.5639 0.5903 0.1339
C5 C 0.56633(17) 0.5727(3) 0.07007(10)
H3 H 0.5458 0.6419 0.0639
C6 C 0.58574(15) 0.5024(3) 0.03746(9)
H4 H 0.5781 0.5236 0.0094
S1 S 0.63933(4) 0.30725(7) 0.00498(3)
O1 O 0.63806(11) 0.19432(18) 0.02137(7)
O2 O 0.60147(10) 0.33802(19) -0.03154(7)
N1 N 0.71994(11) 0.33318(19) -0.00613(7)
C7 C 0.77352(15) 0.2659(2) 0.01622(9)
H5 H 0.7605 0.1863 0.0164
H6 H 0.8150 0.2720 0.0002
C8 C 0.78650(13) 0.3031(2) 0.06098(10)
C9 C 0.78806(15) 0.2245(3) 0.09332(10)
H7 H 0.7801 0.1482 0.0873
C10 C 0.80129(16) 0.2569(3) 0.13451(10)
H8 H 0.8026 0.2018 0.1557
C11 C 0.81260(15) 0.3681(3) 0.14499(11)
C12 C 0.81197(16) 0.4491(3) 0.11300(10)
H9 H 0.8197 0.5253 0.1193
C13 C 0.79973(15) 0.4156(3) 0.07140(10)
H10 H 0.8004 0.4700 0.0499
O3 O 0.82387(12) 0.3910(2) 0.18730(7)
C14 C 0.82511(19) 0.5050(3) 0.20016(12)
H11 H 0.8624 0.5430 0.1869
H12 H 0.8299 0.5088 0.2305
H13 H 0.7839 0.5415 0.1919
S2 S 0.74253(4) 0.43256(7) -0.04160(3)
O4 O 0.69712(12) 0.52533(16) -0.03710(7)
O5 O 0.81223(11) 0.44933(18) -0.03455(6)
C15 C 0.73322(16) 0.3736(3) -0.09276(10)
C16 C 0.77702(17) 0.2923(3) -0.10652(10)
H14 H 0.8103 0.2652 -0.0884
C17 C 0.7722(2) 0.2504(3) -0.14714(11)
H15 H 0.8023 0.1947 -0.1561
C18 C 0.7243(2) 0.2885(3) -0.17453(11)
C19 C 0.6801(2) 0.3696(3) -0.16052(11)
H16 H 0.6472 0.3973 -0.1788
C20 C 0.68386(17) 0.4105(3) -0.11951(10)
H17 H 0.6526 0.4636 -0.1100
C21 C 0.7206(2) 0.2439(3) -0.21983(11)
H18 H 0.7547 0.2798 -0.2367
H19 H 0.6771 0.2607 -0.2316
H20 H 0.7275 0.1631 -0.2198
S3 S 0.61933(4) 0.39632(7) 0.17390(2)
O6 O 0.65233(11) 0.48562(19) 0.19618(7)
O7 O 0.64580(10) 0.28369(18) 0.17354(7)
N2 N 0.54185(11) 0.3846(2) 0.19334(7)
C22 C 0.50719(17) 0.2740(3) 0.18636(10)
H21 H 0.4671 0.2708 0.2039
H22 H 0.5367 0.2124 0.1950
C23 C 0.48784(15) 0.2580(3) 0.14038(10)
C24 C 0.50796(16) 0.1641(3) 0.11776(11)
H23 H 0.5320 0.1072 0.1316
C25 C 0.49359(16) 0.1514(3) 0.07519(11)
H24 H 0.5077 0.0867 0.0607
C26 C 0.45835(15) 0.2348(3) 0.05429(11)
C27 C 0.43680(15) 0.3297(3) 0.07678(11)
H25 H 0.4126 0.3866 0.0630
C28 C 0.45099(15) 0.3393(3) 0.11880(10)
H26 H 0.4354 0.4027 0.1336
O8 O 0.44179(10) 0.23335(18) 0.01199(7)
C29 C 0.45861(17) 0.1350(3) -0.01179(11)
H27 H 0.5064 0.1239 -0.0111
H28 H 0.4442 0.1446 -0.0407
H29 H 0.4366 0.0699 0.0003
S4 S 0.50462(5) 0.48517(8) 0.22331(3)
O9 O 0.43449(12) 0.4591(2) 0.22069(7)
O10 O 0.52881(14) 0.59317(19) 0.20976(7)
C30 C 0.53232(16) 0.4580(3) 0.27530(9)
C31 C 0.49842(17) 0.3799(3) 0.29964(10)
H30 H 0.4601 0.3440 0.2892
C32 C 0.5221(2) 0.3556(3) 0.33960(10)
H31 H 0.4992 0.3028 0.3563
C33 C 0.5783(2) 0.4069(3) 0.35556(10)
C34 C 0.6114(2) 0.4846(3) 0.33087(11)
H32 H 0.6495 0.5206 0.3415
C35 C 0.58930(18) 0.5106(3) 0.29040(10)
H33 H 0.6125 0.5627 0.2737
C36 C 0.6041(2) 0.3791(3) 0.39976(10)
H34 H 0.6521 0.3884 0.4005
H35 H 0.5929 0.3019 0.4067
H36 H 0.5838 0.4295 0.4200
loop_
_geom_bond_atom_site_label_1
_geom_bond_atom_site_label_2
_geom_bond_site_symmetry_1
_geom_bond_site_symmetry_2
C1 C2 1_555 1_555
C2 H1 1_555 1_555
C3 C2 1_555 1_555
C4 C3 1_555 1_555
H2 C4 1_555 1_555
C5 C4 1_555 1_555
H3 C5 1_555 1_555
C6 C1 1_555 1_555
H4 C6 1_555 1_555
S1 C1 1_555 1_555
O1 S1 1_555 1_555
O2 S1 1_555 1_555
N1 S1 1_555 1_555
C7 N1 1_555 1_555
H5 C7 1_555 1_555
H6 C7 1_555 1_555
C8 C7 1_555 1_555
C9 C8 1_555 1_555
H7 C9 1_555 1_555
C10 C9 1_555 1_555
H8 C10 1_555 1_555
C11 C10 1_555 1_555
C12 C11 1_555 1_555
H9 C12 1_555 1_555
C13 C8 1_555 1_555
H10 C13 1_555 1_555
O3 C11 1_555 1_555
C14 O3 1_555 1_555
H11 C14 1_555 1_555
H12 C14 1_555 1_555
H13 C14 1_555 1_555
S2 N1 1_555 1_555
O4 S2 1_555 1_555
O5 S2 1_555 1_555
C15 S2 1_555 1_555
C16 C15 1_555 1_555
H14 C16 1_555 1_555
C17 C16 1_555 1_555
H15 C17 1_555 1_555
C18 C17 1_555 1_555
C19 C18 1_555 1_555
H16 C19 1_555 1_555
C20 C15 1_555 1_555
H17 C20 1_555 1_555
C21 C18 1_555 1_555
H18 C21 1_555 1_555
H19 C21 1_555 1_555
H20 C21 1_555 1_555
S3 C3 1_555 1_555
O6 S3 1_555 1_555
O7 S3 1_555 1_555
N2 S3 1_555 1_555
C22 N2 1_555 1_555
H21 C22 1_555 1_555
H22 C22 1_555 1_555
C23 C22 1_555 1_555
C24 C23 1_555 1_555
H23 C24 1_555 1_555
C25 C24 1_555 1_555
H24 C25 1_555 1_555
C26 C25 1_555 1_555
C27 C26 1_555 1_555
H25 C27 1_555 1_555
C28 C23 1_555 1_555
H26 C28 1_555 1_555
O8 C26 1_555 1_555
C29 O8 1_555 1_555
H27 C29 1_555 1_555
H28 C29 1_555 1_555
H29 C29 1_555 1_555
S4 N2 1_555 1_555
O9 S4 1_555 1_555
O10 S4 1_555 1_555
C30 S4 1_555 1_555
C31 C30 1_555 1_555
H30 C31 1_555 1_555
C32 C31 1_555 1_555
H31 C32 1_555 1_555
C33 C32 1_555 1_555
C34 C33 1_555 1_555
H32 C34 1_555 1_555
C35 C30 1_555 1_555
H33 C35 1_555 1_555
C36 C33 1_555 1_555
H34 C36 1_555 1_555
H35 C36 1_555 1_555
H36 C36 1_555 1_555
C5 C6 1_555 1_555
C12 C13 1_555 1_555
C19 C20 1_555 1_555
C27 C28 1_555 1_555
C34 C35 1_555 1_555

#END
