
#######################################################################
#
#                 Cambridge Crystallographic Data Centre
#                                CCDC 
#
#######################################################################
#
# If this CIF has been generated from an entry in the Cambridge 
# Structural Database, then it will include bibliographic, chemical, 
# crystal, experimental, refinement or atomic coordinate data resulting 
# from the CCDC's data processing and validation procedures.
#
#######################################################################

data_VEMYUI
_chemical_formula_moiety         'C36 H52 N6 Se2 6+,6(C2 F3 O2 1-),4(H2 O1)'
_chemical_name_systematic        
'11,12,13,14,15,16,17,18,29,30,31,32,33,34,35,36-hexadecahydrotetrabenzo(b,m,p,a)-1,15-diselena-5,8,11,19,22,25-hexaazoniacyclooctacosine hexakis(trifluoroacetate) tetrahydrate'
_symmetry_cell_setting           triclinic
_symmetry_space_group_name_H-M   'P -1'
_symmetry_Int_Tables_number      2
_space_group_name_Hall           '-P 1'
loop_
_symmetry_equiv_pos_site_id
_symmetry_equiv_pos_as_xyz
1 x,y,z
2 -x,-y,-z
_cell_length_a                   9.389(2)
_cell_length_b                   10.636(2)
_cell_length_c                   16.500(4)
_cell_angle_alpha                104.059(4)
_cell_angle_beta                 101.745(4)
_cell_angle_gamma                101.100(5)
_cell_volume                     1513.25
_exptl_crystal_colour            colorless
_exptl_crystal_description       rectangular
_chemical_melting_point          'decomposes above 278 deg.C'
_cell_formula_units_Z            1
loop_
_atom_site_label
_atom_site_type_symbol
_atom_site_fract_x
_atom_site_fract_y
_atom_site_fract_z
Se1 Se 0.97456(11) 0.78204(9) 0.64145(6)
N1 N 0.8270(7) 0.6261(6) 0.7965(4)
H5 H 0.7906 0.5431 0.7995
H6 H 0.9176 0.6303 0.7855
N2 N 1.0319(7) 1.1574(6) 0.7621(4)
H7 H 0.9497 1.1039 0.7674
H8 H 1.0100 1.2346 0.7577
N3 N 0.9666(8) 0.7940(7) 1.0368(4)
H9 H 1.0601 0.8165 1.0721
H10 H 0.9426 0.8702 1.0316
C1 C 0.8248(9) 0.6070(7) 0.5927(5)
C2 C 0.8271(10) 0.5314(9) 0.5135(7)
H11 H 0.8926 0.5632 0.4834
C3 C 0.7291(11) 0.4065(9) 0.4800(6)
H12 H 0.7302 0.3525 0.4267
C4 C 0.6319(11) 0.3598(9) 0.5215(6)
H13 H 0.5635 0.2764 0.4963
C5 C 0.6353(10) 0.4389(9) 0.6037(6)
H14 H 0.5706 0.4075 0.6343
C6 C 0.7350(10) 0.5632(9) 0.6387(7)
C7 C 0.7194(8) 0.6540(8) 0.7229(4)
H15 H 0.6166 0.6321 0.7274
H16 H 0.7478 0.7476 0.7249
C8 C 0.8433(10) 0.7255(7) 0.8797(5)
H17 H 0.7489 0.7126 0.8958
H18 H 0.8693 0.8153 0.8743
C9 C 0.9654(10) 0.7086(9) 0.9486(5)
H19 H 1.0624 0.7352 0.9371
H20 H 0.9476 0.6152 0.9474
C10 C 0.8794(9) 0.8904(7) 0.5789(4)
C11 C 0.7572(9) 0.8318(8) 0.5093(5)
H21 H 0.7172 0.7395 0.4928
C12 C 0.6914(10) 0.9085(9) 0.4625(6)
H22 H 0.6073 0.8691 0.4155
C13 C 0.7532(12) 1.0404(10) 0.4875(6)
H23 H 0.7130 1.0922 0.4555
C14 C 0.8760(11) 1.1040(9) 0.5598(6)
H24 H 0.9140 1.1965 0.5767
C15 C 0.9417(9) 1.0246(7) 0.6072(5)
C16 C 1.0714(10) 1.0919(8) 0.6833(5)
H25 H 1.1245 1.0262 0.6956
H26 H 1.1397 1.1588 0.6691
C17 C 1.1592(10) 1.1860(8) 0.8411(5)
H27 H 1.2517 1.2260 0.8293
H28 H 1.1685 1.1017 0.8515
C18 C 0.8568(10) 0.7222(9) 1.0774(6)
H29 H 0.8914 0.6477 1.0909
H30 H 0.7591 0.6862 1.0357
Se1A Se 1.02544(11) 1.21796(9) 1.35855(6)
N1A N 1.1730(7) 1.3739(6) 1.2035(4)
H5A H 1.2094 1.4569 1.2005
H6A H 1.0824 1.3697 1.2145
N2A N 0.9681(7) 0.8426(6) 1.2379(4)
H7A H 1.0503 0.8961 1.2326
H8A H 0.9900 0.7654 1.2423
N3A N 1.0334(8) 1.2060(7) 0.9632(4)
H9A H 0.9399 1.1835 0.9279
H10A H 1.0574 1.1298 0.9684
C1A C 1.1752(9) 1.3930(7) 1.4073(5)
C2A C 1.1729(10) 1.4686(9) 1.4865(7)
H11A H 1.1074 1.4368 1.5166
C3A C 1.2709(11) 1.5935(9) 1.5200(6)
H12A H 1.2698 1.6475 1.5733
C4A C 1.3681(11) 1.6402(9) 1.4785(6)
H13A H 1.4365 1.7236 1.5037
C5A C 1.3647(10) 1.5611(9) 1.3963(6)
H14A H 1.4294 1.5925 1.3657
C6A C 1.2650(10) 1.4368(9) 1.3613(7)
C7A C 1.2806(8) 1.3460(8) 1.2771(4)
H15A H 1.3834 1.3679 1.2726
H16A H 1.2522 1.2524 1.2751
C8A C 1.1567(10) 1.2745(7) 1.1203(5)
H17A H 1.2511 1.2874 1.1042
H18A H 1.1307 1.1847 1.1257
C9A C 1.0346(10) 1.2914(9) 1.0514(5)
H19A H 0.9376 1.2648 1.0629
H20A H 1.0524 1.3848 1.0526
C10A C 1.1206(9) 1.1096(7) 1.4211(4)
C11A C 1.2428(9) 1.1682(8) 1.4907(5)
H21A H 1.2828 1.2605 1.5072
C12A C 1.3086(10) 1.0915(9) 1.5375(6)
H22A H 1.3927 1.1309 1.5845
C13A C 1.2468(12) 0.9596(10) 1.5125(6)
H23A H 1.2870 0.9078 1.5445
C14A C 1.1240(11) 0.8960(9) 1.4402(6)
H24A H 1.0860 0.8035 1.4233
C15A C 1.0583(9) 0.9754(7) 1.3928(5)
C16A C 0.9286(10) 0.9081(8) 1.3167(5)
H25A H 0.8755 0.9738 1.3044
H26A H 0.8603 0.8412 1.3309
C17A C 0.8408(10) 0.8140(8) 1.1589(5)
H27A H 0.7483 0.7740 1.1707
H28A H 0.8315 0.8983 1.1485
C18A C 1.1432(10) 1.2778(9) 0.9226(6)
H29A H 1.1086 1.3523 0.9091
H30A H 1.2409 1.3138 0.9643
F1 F 0.5136(14) 0.8804(9) 0.6643(7)
F2 F 0.6591(11) 1.0750(11) 0.6866(7)
F3 F 0.4703(10) 1.0530(10) 0.7383(6)
O1 O 0.6060(7) 0.9379(6) 0.8519(4)
O2 O 0.8129(7) 1.0072(6) 0.8110(4)
C19 C 0.6758(11) 0.9825(8) 0.8057(6)
C20 C 0.5784(11) 0.9969(10) 0.7213(6)
F10 F 0.4902(13) 0.3284(19) 0.9291(10)
F11 F 0.6969(16) 0.4119(13) 1.0248(8)
F12 F 0.6459(17) 0.2097(11) 0.9579(10)
O3 O 0.8274(9) 0.3127(10) 0.8816(5)
O4 O 0.6710(8) 0.4263(8) 0.8373(6)
C21 C 0.7204(11) 0.3549(10) 0.8795(7)
C22 C 0.6219(13) 0.3212(10) 0.9443(8)
F13 F 0.7177(17) 0.5633(16) 1.3221(7)
F14 F 0.6518(15) 0.5464(16) 1.1898(10)
F15 F 0.6168(17) 0.3724(11) 1.2281(14)
O5 O 0.9529(8) 0.5861(6) 1.2511(5)
O6 O 0.8843(7) 0.3638(5) 1.2238(4)
C23 C 0.8644(10) 0.4763(9) 1.2388(6)
C24 C 0.7037(12) 0.4818(8) 1.2425(7)
O7 O 1.2876(7) 0.9037(7) 0.8477(4)
H1 H 1.399(6) 0.916(7) 0.839(5)
H2 H 1.243(7) 0.807(6) 0.802(5)
O8 O 1.1880(7) 1.0071(6) 0.9879(4)
H3 H 1.268(8) 1.071(6) 0.970(5)
H4 H 1.183(8) 0.916(5) 0.944(4)
F4? F 0.599(2) 0.905(2) 0.6558(13)
F5? F 0.4309(16) 0.963(2) 0.7142(13)
F6? F 0.618(3) 1.1123(17) 0.709(2)
F7? F 0.690(2) 0.283(2) 1.0036(14)
F8? F 0.5036(16) 0.2190(14) 0.8898(9)
F9? F 0.557(2) 0.4158(14) 0.9717(12)
F16? F 0.681(2) 0.5930(15) 1.2809(16)
F17? F 0.6079(19) 0.429(3) 1.1682(8)
F18? F 0.668(2) 0.398(3) 1.2913(17)
loop_
_geom_bond_atom_site_label_1
_geom_bond_atom_site_label_2
_geom_bond_site_symmetry_1
_geom_bond_site_symmetry_2
Se1 C1 1_555 1_555
F1 C20 1_555 1_555
F2 C20 1_555 1_555
F3 C20 1_555 1_555
F10 C22 1_555 1_555
F11 C22 1_555 1_555
F12 C22 1_555 1_555
F13 C24 1_555 1_555
F14 C24 1_555 1_555
F15 C24 1_555 1_555
O1 C19 1_555 1_555
O2 C19 1_555 1_555
O3 C21 1_555 1_555
O4 C21 1_555 1_555
O5 C23 1_555 1_555
O6 C23 1_555 1_555
O7 H1 1_555 1_555
H2 O7 1_555 1_555
O8 H3 1_555 1_555
H4 O8 1_555 1_555
N1 H5 1_555 1_555
H6 N1 1_555 1_555
N2 H7 1_555 1_555
H8 N2 1_555 1_555
N3 H9 1_555 1_555
H10 N3 1_555 1_555
C1 C2 1_555 1_555
C2 H11 1_555 1_555
C3 C2 1_555 1_555
H12 C3 1_555 1_555
C4 C3 1_555 1_555
H13 C4 1_555 1_555
C5 C4 1_555 1_555
H14 C5 1_555 1_555
C6 C1 1_555 1_555
C7 N1 1_555 1_555
H15 C7 1_555 1_555
H16 C7 1_555 1_555
C8 N1 1_555 1_555
H17 C8 1_555 1_555
H18 C8 1_555 1_555
C9 N3 1_555 1_555
H19 C9 1_555 1_555
H20 C9 1_555 1_555
C10 Se1 1_555 1_555
C11 C10 1_555 1_555
H21 C11 1_555 1_555
C12 C11 1_555 1_555
H22 C12 1_555 1_555
C13 C12 1_555 1_555
H23 C13 1_555 1_555
C14 C13 1_555 1_555
H24 C14 1_555 1_555
C15 C10 1_555 1_555
C16 N2 1_555 1_555
H25 C16 1_555 1_555
H26 C16 1_555 1_555
C17 N2 1_555 1_555
H27 C17 1_555 1_555
H28 C17 1_555 1_555
C18 N3 1_555 1_555
H29 C18 1_555 1_555
H30 C18 1_555 1_555
C19 C20 1_555 1_555
C21 C22 1_555 1_555
C23 C24 1_555 1_555
Se1A C1A 1_555 1_555
N1A H5A 1_555 1_555
H6A N1A 1_555 1_555
N2A H7A 1_555 1_555
H8A N2A 1_555 1_555
N3A H9A 1_555 1_555
H10A N3A 1_555 1_555
C1A C2A 1_555 1_555
C2A H11A 1_555 1_555
C3A C2A 1_555 1_555
H12A C3A 1_555 1_555
C4A C3A 1_555 1_555
H13A C4A 1_555 1_555
C5A C4A 1_555 1_555
H14A C5A 1_555 1_555
C6A C1A 1_555 1_555
C7A N1A 1_555 1_555
H15A C7A 1_555 1_555
H16A C7A 1_555 1_555
C8A N1A 1_555 1_555
H17A C8A 1_555 1_555
H18A C8A 1_555 1_555
C9A N3A 1_555 1_555
H19A C9A 1_555 1_555
H20A C9A 1_555 1_555
C10A Se1A 1_555 1_555
C11A C10A 1_555 1_555
H21A C11A 1_555 1_555
C12A C11A 1_555 1_555
H22A C12A 1_555 1_555
C13A C12A 1_555 1_555
H23A C13A 1_555 1_555
C14A C13A 1_555 1_555
H24A C14A 1_555 1_555
C15A C10A 1_555 1_555
C16A N2A 1_555 1_555
H25A C16A 1_555 1_555
H26A C16A 1_555 1_555
C17A C18 1_555 1_555
H27A C17A 1_555 1_555
H28A C17A 1_555 1_555
C18A C17 1_555 1_555
H29A C18A 1_555 1_555
H30A C18A 1_555 1_555
C5 C6 1_555 1_555
C6 C7 1_555 1_555
C8 C9 1_555 1_555
C14 C15 1_555 1_555
C15 C16 1_555 1_555
N2A C17A 1_555 1_555
N3A C18A 1_555 1_555
C5A C6A 1_555 1_555
C6A C7A 1_555 1_555
C8A C9A 1_555 1_555
C14A C15A 1_555 1_555
C15A C16A 1_555 1_555

#END
