
#######################################################################
#
#                 Cambridge Crystallographic Data Centre
#                                CCDC 
#
#######################################################################
#
# If this CIF has been generated from an entry in the Cambridge 
# Structural Database, then it will include bibliographic, chemical, 
# crystal, experimental, refinement or atomic coordinate data resulting 
# from the CCDC's data processing and validation procedures.
#
#######################################################################

data_VEMZUJ
_chemical_formula_moiety         'C20 H23 N5 O4,C1 H4 O1'
_chemical_name_systematic        
'1-(3-(4-Nitrobenzylideneamino)propyl)-2-(4-nitrophenyl)hexahydropyrimidine methanol solvate'
_symmetry_cell_setting           monoclinic
_symmetry_space_group_name_H-M   'P 21/c'
_symmetry_Int_Tables_number      14
_space_group_name_Hall           '-P 2ybc'
loop_
_symmetry_equiv_pos_site_id
_symmetry_equiv_pos_as_xyz
1 x,y,z
2 -x,1/2+y,1/2-z
3 -x,-y,-z
4 x,1/2-y,1/2+z
_cell_length_a                   16.9257(16)
_cell_length_b                   7.5144(8)
_cell_length_c                   16.8911(15)
_cell_angle_alpha                90
_cell_angle_beta                 93.562(5)
_cell_angle_gamma                90
_cell_volume                     2144.17
_exptl_crystal_colour            colorless
_exptl_crystal_description       plate
_cell_formula_units_Z            4
loop_
_atom_site_label
_atom_site_type_symbol
_atom_site_fract_x
_atom_site_fract_y
_atom_site_fract_z
N1 N 0.69996(16) 0.7976(3) 0.78891(14)
C1 C 0.6536(2) 0.6328(4) 0.79664(18)
N2 N 0.56828(16) 0.6657(4) 0.80368(14)
C2 C 0.5462(2) 0.7841(5) 0.8710(2)
C3 C 0.5936(2) 0.9548(4) 0.8681(2)
C4 C 0.6811(2) 0.9101(5) 0.85906(19)
C5 C 0.66947(18) 0.5087(4) 0.72645(18)
C6 C 0.6821(2) 0.5720(4) 0.64863(19)
C7 C 0.6931(2) 0.4561(4) 0.58592(19)
C8 C 0.69164(18) 0.2744(4) 0.60064(18)
N3 N 0.70510(17) 0.1503(4) 0.53407(16)
O1 O 0.70457(17) 0.2086(3) 0.46651(14)
O2 O 0.71752(17) -0.0070(3) 0.54932(15)
C9 C 0.67844(19) 0.2069(4) 0.67673(18)
C10 C 0.66765(19) 0.3263(4) 0.73860(19)
C11 C 0.78529(19) 0.7628(4) 0.78205(18)
C12 C 0.8327(2) 0.9140(4) 0.74341(18)
C13 C 0.91819(19) 0.8602(4) 0.72293(18)
N4 N 0.92010(16) 0.7556(4) 0.64971(14)
C14 C 0.91861(18) 0.5874(4) 0.65696(17)
C15 C 0.91118(18) 0.4678(4) 0.58863(18)
C16 C 0.89958(19) 0.5339(4) 0.51321(18)
C17 C 0.89443(19) 0.4196(4) 0.45034(18)
C18 C 0.90149(19) 0.2380(4) 0.46366(18)
N5 N 0.89963(17) 0.1166(4) 0.39599(16)
O3 O 0.88460(16) 0.1784(3) 0.33098(14)
O4 O 0.91459(16) -0.0409(3) 0.40567(14)
C19 C 0.91109(19) 0.1676(4) 0.53764(18)
C20 C 0.9155(2) 0.2852(4) 0.60029(18)
H1 H 0.6741 0.5718 0.8464
H2 H 0.5565 0.7186 0.7580
H3 H 0.5579 0.7232 0.9224
H4 H 0.4889 0.8112 0.8658
H5 H 0.5882 1.0236 0.9175
H6 H 0.5732 1.0285 0.8228
H7 H 0.7106 1.0234 0.8560
H8 H 0.7016 0.8480 0.9078
H9 H 0.6830 0.6966 0.6393
H10 H 0.7014 0.5003 0.5344
H11 H 0.6769 0.0822 0.6857
H12 H 0.6589 0.2816 0.7899
H13 H 0.7908 0.6529 0.7505
H14 H 0.8098 0.7398 0.8358
H15 H 0.8362 1.0169 0.7801
H16 H 0.8029 0.9529 0.6941
H17 H 0.9501 0.9695 0.7174
H18 H 0.9430 0.7901 0.7675
H19 H 0.9225 0.5374 0.7087
H20 H 0.8951 0.6586 0.5047
H21 H 0.8861 0.4641 0.3978
H22 H 0.9146 0.0427 0.5458
H23 H 0.9217 0.2401 0.6529
O5 O 0.48091(17) 0.3626(4) 0.83431(13)
C21 C 0.4785(2) 0.3418(5) 0.91697(19)
H24 H 0.5084 0.4521 0.8246
H25 H 0.5324 0.3468 0.9416
H26 H 0.4546 0.2267 0.9285
H27 H 0.4467 0.4376 0.9383
loop_
_geom_bond_atom_site_label_1
_geom_bond_atom_site_label_2
_geom_bond_site_symmetry_1
_geom_bond_site_symmetry_2
N1 C1 1_555 1_555
C1 N2 1_555 1_555
N2 C2 1_555 1_555
C2 C3 1_555 1_555
C3 C4 1_555 1_555
C4 N1 1_555 1_555
C5 C1 1_555 1_555
C6 C5 1_555 1_555
C7 C6 1_555 1_555
C8 C7 1_555 1_555
N3 C8 1_555 1_555
O1 N3 1_555 1_555
O2 N3 1_555 1_555
C9 C8 1_555 1_555
C10 C5 1_555 1_555
C11 N1 1_555 1_555
C12 C11 1_555 1_555
C13 C12 1_555 1_555
N4 C13 1_555 1_555
C14 N4 1_555 1_555
C15 C14 1_555 1_555
C16 C15 1_555 1_555
C17 C16 1_555 1_555
C18 C17 1_555 1_555
N5 C18 1_555 1_555
O3 N5 1_555 1_555
O4 N5 1_555 1_555
C19 C18 1_555 1_555
C20 C15 1_555 1_555
O5 C21 1_555 1_555
C21 H25 1_555 1_555
H1 C1 1_555 1_555
H2 N2 1_555 1_555
H3 C2 1_555 1_555
H4 C2 1_555 1_555
H5 C3 1_555 1_555
H6 C3 1_555 1_555
H7 C4 1_555 1_555
H8 C4 1_555 1_555
H9 C6 1_555 1_555
H10 C7 1_555 1_555
H11 C9 1_555 1_555
H12 C10 1_555 1_555
H13 C11 1_555 1_555
H14 C11 1_555 1_555
H15 C12 1_555 1_555
H16 C12 1_555 1_555
H17 C13 1_555 1_555
H18 C13 1_555 1_555
H19 C14 1_555 1_555
H20 C16 1_555 1_555
H21 C17 1_555 1_555
H22 C19 1_555 1_555
H23 C20 1_555 1_555
H24 O5 1_555 1_555
H26 C21 1_555 1_555
H27 C21 1_555 1_555
C9 C10 1_555 1_555
C19 C20 1_555 1_555

#END
