
#######################################################################
#
#                 Cambridge Crystallographic Data Centre
#                                CCDC 
#
#######################################################################
#
# If this CIF has been generated from an entry in the Cambridge 
# Structural Database, then it will include bibliographic, chemical, 
# crystal, experimental, refinement or atomic coordinate data resulting 
# from the CCDC's data processing and validation procedures.
#
#######################################################################

data_VENGUT
_chemical_formula_moiety         'C10 H7 N5 O4'
_chemical_name_systematic        
9'-nitro-5'H-spiro[oxirane-2,4'-tetrazolo[5,1-d][1,5]benzoxazepine]
_symmetry_cell_setting           monoclinic
_symmetry_space_group_name_H-M   'C 2/c'
_symmetry_Int_Tables_number      15
_space_group_name_Hall           '-C 2yn'
loop_
_symmetry_equiv_pos_site_id
_symmetry_equiv_pos_as_xyz
1 x,y,z
2 -x,y,1/2-z
3 1/2+x,1/2+y,z
4 1/2-x,1/2+y,1/2-z
5 -x,-y,-z
6 x,-y,1/2+z
7 1/2-x,1/2-y,-z
8 1/2+x,1/2-y,1/2+z
_cell_length_a                   21.3599(4)
_cell_length_b                   5.67930(10)
_cell_length_c                   18.7387(3)
_cell_angle_alpha                90
_cell_angle_beta                 109.5830(10)
_cell_angle_gamma                90
_cell_volume                     2141.69
_exptl_crystal_colour            colorless
_exptl_crystal_description       block
_cell_formula_units_Z            8
loop_
_atom_site_label
_atom_site_type_symbol
_atom_site_fract_x
_atom_site_fract_y
_atom_site_fract_z
O1 O 0.64856(5) 0.3584(2) 0.46472(6)
O2 O 0.57652(5) 0.09515(18) 0.46842(6)
O3 O 0.54836(4) 0.78864(17) 0.71374(5)
O4 O 0.60264(5) 1.25573(17) 0.80082(5)
N1 N 0.60714(6) 0.2795(2) 0.49038(6)
N2 N 0.65763(5) 0.93716(18) 0.66661(6)
N3 N 0.69780(5) 1.02237(19) 0.62914(6)
N4 N 0.72846(5) 1.20133(19) 0.66729(6)
N5 N 0.71039(5) 1.23930(19) 0.72939(6)
C1 C 0.59282(6) 0.4114(2) 0.55052(7)
C2 C 0.63148(6) 0.6064(2) 0.58004(7)
H1 H 0.6662 0.6527 0.5619
C3 C 0.61832(6) 0.7332(2) 0.63686(7)
C4 C 0.66703(6) 1.0742(2) 0.72862(7)
C5 C 0.63545(6) 1.0461(2) 0.78776(7)
C6 C 0.59954(6) 0.8207(2) 0.78665(7)
H2 H 0.6313 0.6877 0.7967
H3 H 0.5792 0.8226 0.8270
C7 C 0.56637(6) 0.6636(2) 0.66199(7)
C8 C 0.52910(6) 0.4636(2) 0.63147(7)
H4 H 0.4945 0.4152 0.6495
C9 C 0.54197(6) 0.3349(2) 0.57527(7)
H5 H 0.5168 0.1986 0.5543
C10 C 0.66257(7) 1.1770(2) 0.85886(8)
H6 H 0.6582 1.1061 0.9052
H7 H 0.7037 1.2694 0.8668
loop_
_geom_bond_atom_site_label_1
_geom_bond_atom_site_label_2
_geom_bond_site_symmetry_1
_geom_bond_site_symmetry_2
O1 N1 1_555 1_555
O2 N1 1_555 1_555
O3 C6 1_555 1_555
O4 C5 1_555 1_555
N1 C1 1_555 1_555
N2 N3 1_555 1_555
N3 N4 1_555 1_555
N4 N5 1_555 1_555
N5 C4 1_555 1_555
C1 C2 1_555 1_555
C2 H1 1_555 1_555
C3 N2 1_555 1_555
C4 N2 1_555 1_555
C5 C4 1_555 1_555
C6 C5 1_555 1_555
H2 C6 1_555 1_555
H3 C6 1_555 1_555
C7 O3 1_555 1_555
C8 C7 1_555 1_555
H4 C8 1_555 1_555
C9 C1 1_555 1_555
H5 C9 1_555 1_555
C10 O4 1_555 1_555
H6 C10 1_555 1_555
H7 C10 1_555 1_555
C2 C3 1_555 1_555
C3 C7 1_555 1_555
C5 C10 1_555 1_555
C8 C9 1_555 1_555

#END
