
#######################################################################
#
#                 Cambridge Crystallographic Data Centre
#                                CCDC 
#
#######################################################################
#
# If this CIF has been generated from an entry in the Cambridge 
# Structural Database, then it will include bibliographic, chemical, 
# crystal, experimental, refinement or atomic coordinate data resulting 
# from the CCDC's data processing and validation procedures.
#
#######################################################################

data_VENSUC
_chemical_formula_moiety         'C13 H8 N4'
_chemical_name_systematic        
4,4,5,5-Tetracyano-tricyclo(4.3.0.0^3,7^)non-8-ene
_symmetry_cell_setting           monoclinic
_symmetry_space_group_name_H-M   'P 21/c'
_symmetry_Int_Tables_number      14
_space_group_name_Hall           '-P 2ybc'
loop_
_symmetry_equiv_pos_site_id
_symmetry_equiv_pos_as_xyz
1 x,y,z
2 -x,1/2+y,1/2-z
3 -x,-y,-z
4 x,1/2-y,1/2+z
_cell_length_a                   8.353(3)
_cell_length_b                   9.382(2)
_cell_length_c                   13.836(5)
_cell_angle_alpha                90
_cell_angle_beta                 91.61(3)
_cell_angle_gamma                90
_cell_volume                     1083.87
_exptl_crystal_colour            yellow
_chemical_melting_point          166.5-167.0deg.C
_cell_formula_units_Z            4
loop_
_atom_site_label
_atom_site_type_symbol
_atom_site_fract_x
_atom_site_fract_y
_atom_site_fract_z
N1 N 1.3966(3) -0.0625(3) 0.0928(2)
N2 N 1.0359(3) 0.1293(3) -0.0911(2)
N3 N 0.8157(3) 0.1859(3) 0.1293(2)
N4 N 1.2195(3) 0.0762(3) 0.3086(2)
C1 C 1.1616(4) 0.3776(3) 0.1591(2)
C2 C 1.1980(3) 0.4210(3) 0.0527(2)
C3 C 1.2726(4) 0.5653(3) 0.0723(3)
C4 C 1.3437(4) 0.5651(3) 0.1567(2)
C5 C 1.3271(4) 0.4154(3) 0.2002(2)
C6 C 1.4340(4) 0.3232(3) 0.1358(2)
C7 C 1.3274(3) 0.3021(3) 0.0440(2)
C8 C 1.2242(3) 0.1664(3) 0.0596(2)
C9 C 1.1254(3) 0.2136(3) 0.1546(2)
C10 C 1.3203(3) 0.0351(3) 0.0778(2)
C11 C 1.1150(3) 0.1429(3) -0.0246(2)
C12 C 0.9504(4) 0.1947(3) 0.1403(2)
C13 C 1.1777(3) 0.1344(3) 0.2413(2)
loop_
_geom_bond_atom_site_label_1
_geom_bond_atom_site_label_2
_geom_bond_site_symmetry_1
_geom_bond_site_symmetry_2
N1 C10 1_555 1_555
N2 C11 1_555 1_555
N3 C12 1_555 1_555
N4 C13 1_555 1_555
C1 C2 1_555 1_555
C2 C3 1_555 1_555
C3 C4 1_555 1_555
C4 C5 1_555 1_555
C5 C1 1_555 1_555
C6 C5 1_555 1_555
C7 C2 1_555 1_555
C8 C7 1_555 1_555
C9 C1 1_555 1_555
C10 C8 1_555 1_555
C11 C8 1_555 1_555
C12 C9 1_555 1_555
C13 C9 1_555 1_555
C6 C7 1_555 1_555
C8 C9 1_555 1_555

#END
