
#######################################################################
#
#                 Cambridge Crystallographic Data Centre
#                                CCDC 
#
#######################################################################
#
# If this CIF has been generated from an entry in the Cambridge 
# Structural Database, then it will include bibliographic, chemical, 
# crystal, experimental, refinement or atomic coordinate data resulting 
# from the CCDC's data processing and validation procedures.
#
#######################################################################

data_VENWUI
_chemical_formula_moiety         'C23 H43 B11 N2'
_chemical_name_systematic        
2,4-(4-(bis(4-t-Butylpyridinio)hydroborato)butane-1,4-diyl)-2-carba-closo-undecaborate
_symmetry_cell_setting           triclinic
_symmetry_space_group_name_H-M   'P -1'
_symmetry_Int_Tables_number      2
_space_group_name_Hall           '-P 1'
loop_
_symmetry_equiv_pos_site_id
_symmetry_equiv_pos_as_xyz
1 x,y,z
2 -x,-y,-z
_cell_length_a                   12.5579(11)
_cell_length_b                   15.0847(10)
_cell_length_c                   16.2226(10)
_cell_angle_alpha                93.524(7)
_cell_angle_beta                 108.248(2)
_cell_angle_gamma                91.081(2)
_cell_volume                     2910.66
_exptl_crystal_colour            colorless
_exptl_crystal_description       block
_cell_formula_units_Z            4
loop_
_atom_site_label
_atom_site_type_symbol
_atom_site_fract_x
_atom_site_fract_y
_atom_site_fract_z
N1 N 0.20133(19) 0.63906(16) 0.45431(15)
N2 N 0.0686(2) 0.56454(16) 0.31293(16)
C1 C 0.2341(3) 0.2948(2) 0.4313(2)
C2 C 0.3252(3) 0.3108(2) 0.5187(2)
H1 H 0.3732 0.2603 0.5289
H2 H 0.2909 0.3163 0.5646
C3 C 0.3968(3) 0.3960(2) 0.5219(2)
H3 H 0.4520 0.4062 0.5791
H4 H 0.4365 0.3888 0.4794
C4 C 0.3227(3) 0.4747(2) 0.5026(2)
H5 H 0.3704 0.5284 0.5140
H6 H 0.2794 0.4779 0.5427
C5 C 0.2410(2) 0.4741(2) 0.40942(19)
H7 H 0.2830 0.4933 0.3715
C6 C 0.2828(2) 0.6821(2) 0.4327(2)
H8 H 0.3078 0.6561 0.3891
C7 C 0.3299(3) 0.7622(2) 0.47218(19)
H9 H 0.3860 0.7894 0.4551
C8 C 0.2951(2) 0.8039(2) 0.5379(2)
C9 C 0.2122(2) 0.7578(2) 0.5604(2)
H10 H 0.1867 0.7816 0.6047
C10 C 0.1682(2) 0.6781(2) 0.5178(2)
H11 H 0.1123 0.6494 0.5339
C11 C 0.3464(3) 0.8939(2) 0.5822(2)
C12 C 0.4739(3) 0.8879(3) 0.6196(3)
H12 H 0.4913 0.8448 0.6625
H13 H 0.5064 0.9449 0.6461
H14 H 0.5038 0.8704 0.5737
C13 C 0.3007(3) 0.9246(3) 0.6551(2)
H15 H 0.3170 0.8820 0.6985
H16 H 0.2210 0.9300 0.6319
H17 H 0.3353 0.9812 0.6808
C14 C 0.3193(3) 0.9636(2) 0.5131(3)
H18 H 0.2394 0.9676 0.4893
H19 H 0.3496 0.9460 0.4675
H20 H 0.3520 1.0205 0.5398
C15 C 0.1101(3) 0.5753(2) 0.2474(2)
H21 H 0.1865 0.5693 0.2572
C16 C 0.0442(3) 0.5947(2) 0.1666(2)
H22 H 0.0762 0.6014 0.1227
C17 C -0.0701(3) 0.6044(2) 0.1497(2)
C18 C -0.1119(3) 0.5911(2) 0.2177(2)
H23 H -0.1884 0.5950 0.2092
C19 C -0.0418(2) 0.5723(2) 0.2970(2)
H24 H -0.0718 0.5646 0.3418
C20 C -0.1466(4) 0.6261(4) 0.0616(3)
C21 C -0.0857(7) 0.6915(13) 0.0273(7)
H25 H -0.0614 0.7419 0.0687
H26 H -0.1345 0.7104 -0.0265
H27 H -0.0216 0.6647 0.0175
C22 C -0.2494(4) 0.6705(4) 0.0632(3)
H28 H -0.3011 0.6279 0.0730
H29 H -0.2831 0.6954 0.0084
H30 H -0.2310 0.7169 0.1091
C23 C -0.1693(8) 0.5513(7) 0.0014(5)
H31 H -0.1958 0.5022 0.0256
H32 H -0.1020 0.5358 -0.0112
H33 H -0.2256 0.5649 -0.0513
B1 B 0.2628(3) 0.2632(3) 0.3427(3)
B2 B 0.1977(3) 0.2396(3) 0.2335(3)
H34 H 0.2417 0.2203 0.1866
B3 B 0.1885(3) 0.3759(2) 0.3746(2)
B4 B 0.1644(3) 0.2056(3) 0.4018(3)
H35 H 0.1763 0.1522 0.4467
B5 B 0.1403(3) 0.1721(3) 0.2864(3)
H36 H 0.1386 0.1004 0.2689
B6 B 0.1646(3) 0.3415(3) 0.2564(2)
H37 H 0.1807 0.3937 0.2169
B7 B 0.0969(3) 0.3056(3) 0.4095(3)
H38 H 0.0529 0.3248 0.4564
B8 B 0.0581(3) 0.2537(3) 0.2236(3)
H39 H -0.0094 0.2429 0.1611
B9 B 0.0529(3) 0.3414(2) 0.3025(2)
H40 H -0.0139 0.3895 0.2847
B10 B 0.0362(3) 0.2251(3) 0.3220(3)
H41 H -0.0426 0.1896 0.3185
B11 B 0.1470(3) 0.5437(2) 0.4077(2)
H42 H 0.0991 0.5207 0.4396
H85 H 0.350(3) 0.255(2) 0.353(2)
N3 N 0.7555(2) 0.01839(17) 0.12417(15)
N4 N 0.6535(2) 0.16293(16) 0.10081(15)
C24 C 0.6882(3) 0.1208(2) -0.1909(2)
C25 C 0.7638(3) 0.0470(2) -0.2010(2)
H43 H 0.7984 0.0613 -0.2445
H44 H 0.7188 -0.0077 -0.2217
C26 C 0.8558(3) 0.0322(3) -0.1157(2)
H45 H 0.8970 -0.0195 -0.1239
H46 H 0.9079 0.0833 -0.0994
C27 C 0.8053(3) 0.0186(2) -0.0434(2)
H47 H 0.8634 -0.0003 0.0068
H48 H 0.7479 -0.0288 -0.0627
C28 C 0.7531(3) 0.1026(2) -0.0158(2)
H49 H 0.8149 0.1444 0.0164
C29 C 0.8632(3) 0.0387(2) 0.1715(2)
H50 H 0.8991 0.0882 0.1590
C30 C 0.9216(3) -0.0115(2) 0.2378(2)
H51 H 0.9957 0.0046 0.2693
C31 C 0.8710(2) -0.0858(2) 0.25789(18)
C32 C 0.7623(2) -0.1064(2) 0.20635(19)
H52 H 0.7253 -0.1569 0.2157
C33 C 0.7077(3) -0.0537(2) 0.1416(2)
H53 H 0.6340 -0.0694 0.1086
C34 C 0.9346(2) -0.1396(2) 0.3325(2)
C35 C 1.0339(3) -0.1816(2) 0.3114(2)
H54 H 1.0066 -0.2204 0.2594
H55 H 1.0748 -0.2150 0.3589
H56 H 1.0824 -0.1356 0.3027
C36 C 0.8602(3) -0.2120(2) 0.3499(2)
H57 H 0.8313 -0.2518 0.2988
H58 H 0.7990 -0.1855 0.3646
H59 H 0.9034 -0.2445 0.3974
C37 C 0.9790(3) -0.0780(3) 0.4158(2)
H60 H 0.9171 -0.0514 0.4293
H61 H 1.0278 -0.0323 0.4071
H62 H 1.0198 -0.1118 0.4630
C38 C 0.5508(2) 0.1673(2) 0.10941(19)
H63 H 0.4995 0.1197 0.0873
C39 C 0.5199(2) 0.2393(2) 0.1495(2)
H64 H 0.4477 0.2399 0.1538
C40 C 0.5928(2) 0.3122(2) 0.1845(2)
C41 C 0.6993(3) 0.3051(2) 0.1783(2)
H65 H 0.7529 0.3507 0.2025
C42 C 0.7267(3) 0.2309(2) 0.1366(2)
H66 H 0.7991 0.2279 0.1331
C43 C 0.5544(3) 0.3949(2) 0.2249(2)
C44 C 0.5198(4) 0.3694(3) 0.3042(3)
H67 H 0.4956 0.4212 0.3297
H68 H 0.5828 0.3460 0.3464
H69 H 0.4595 0.3252 0.2855
C45 C 0.6461(3) 0.4674(2) 0.2567(3)
H70 H 0.6692 0.4848 0.2088
H71 H 0.7090 0.4455 0.3002
H72 H 0.6181 0.5178 0.2813
C46 C 0.4535(4) 0.4287(3) 0.1595(3)
H73 H 0.4730 0.4449 0.1095
H74 H 0.4279 0.4798 0.1848
H75 H 0.3950 0.3830 0.1420
B12 B 0.7234(3) 0.2267(3) -0.1843(3)
B13 B 0.6690(4) 0.3287(3) -0.1713(3)
H76 H 0.7145 0.3927 -0.1670
B14 B 0.6778(3) 0.1502(2) -0.0980(2)
B15 B 0.5967(3) 0.1556(3) -0.2708(3)
H77 H 0.5842 0.1252 -0.3367
B16 B 0.5833(3) 0.2759(4) -0.2601(3)
H78 H 0.5631 0.3109 -0.3203
B17 B 0.6635(3) 0.2738(3) -0.0872(3)
H79 H 0.7020 0.3067 -0.0218
B18 B 0.5584(3) 0.1075(3) -0.1867(3)
H80 H 0.5118 0.0440 -0.1910
B19 B 0.5361(4) 0.2993(3) -0.1690(3)
H81 H 0.4750 0.3486 -0.1631
B20 B 0.5447(3) 0.1995(3) -0.1170(3)
H82 H 0.4961 0.1911 -0.0720
B21 B 0.4907(3) 0.2000(4) -0.2349(3)
H83 H 0.4023 0.1912 -0.2755
B22 B 0.6858(3) 0.0789(2) 0.0488(2)
H84 H 0.6163 0.0459 0.0150
H86 H 0.809(3) 0.237(2) -0.189(2)
loop_
_geom_bond_atom_site_label_1
_geom_bond_atom_site_label_2
_geom_bond_site_symmetry_1
_geom_bond_site_symmetry_2
N1 C6 1_555 1_555
N2 C15 1_555 1_555
C1 C2 1_555 1_555
C2 H1 1_555 1_555
H2 C2 1_555 1_555
C3 C2 1_555 1_555
H3 C3 1_555 1_555
H4 C3 1_555 1_555
C4 C3 1_555 1_555
H5 C4 1_555 1_555
H6 C4 1_555 1_555
C5 C4 1_555 1_555
H7 C5 1_555 1_555
C6 H8 1_555 1_555
C7 C6 1_555 1_555
H9 C7 1_555 1_555
C8 C7 1_555 1_555
C9 C8 1_555 1_555
H10 C9 1_555 1_555
C10 N1 1_555 1_555
H11 C10 1_555 1_555
C11 C8 1_555 1_555
C12 C11 1_555 1_555
H12 C12 1_555 1_555
H13 C12 1_555 1_555
H14 C12 1_555 1_555
C13 C11 1_555 1_555
H15 C13 1_555 1_555
H16 C13 1_555 1_555
H17 C13 1_555 1_555
C14 C11 1_555 1_555
H18 C14 1_555 1_555
H19 C14 1_555 1_555
H20 C14 1_555 1_555
C15 H21 1_555 1_555
C16 C15 1_555 1_555
H22 C16 1_555 1_555
C17 C16 1_555 1_555
C18 C17 1_555 1_555
H23 C18 1_555 1_555
C19 N2 1_555 1_555
H24 C19 1_555 1_555
C20 C17 1_555 1_555
C21 C20 1_555 1_555
H25 C21 1_555 1_555
H26 C21 1_555 1_555
H27 C21 1_555 1_555
C22 C20 1_555 1_555
H28 C22 1_555 1_555
H29 C22 1_555 1_555
H30 C22 1_555 1_555
C23 C20 1_555 1_555
H31 C23 1_555 1_555
H32 C23 1_555 1_555
H33 C23 1_555 1_555
B1 C1 1_555 1_555
B2 B1 1_555 1_555
H34 B2 1_555 1_555
B3 C1 1_555 1_555
B4 C1 1_555 1_555
H35 B4 1_555 1_555
B5 B1 1_555 1_555
H36 B5 1_555 1_555
B6 B1 1_555 1_555
H37 B6 1_555 1_555
B7 C1 1_555 1_555
H38 B7 1_555 1_555
B8 B2 1_555 1_555
H39 B8 1_555 1_555
B9 B3 1_555 1_555
H40 B9 1_555 1_555
B10 B4 1_555 1_555
H41 B10 1_555 1_555
B11 N1 1_555 1_555
H42 B11 1_555 1_555
N3 C29 1_555 1_555
N4 C38 1_555 1_555
C24 C25 1_555 1_555
C25 H43 1_555 1_555
H44 C25 1_555 1_555
C26 C25 1_555 1_555
H45 C26 1_555 1_555
H46 C26 1_555 1_555
C27 C26 1_555 1_555
H47 C27 1_555 1_555
H48 C27 1_555 1_555
C28 C27 1_555 1_555
H49 C28 1_555 1_555
C29 H50 1_555 1_555
C30 C29 1_555 1_555
H51 C30 1_555 1_555
C31 C30 1_555 1_555
C32 C31 1_555 1_555
H52 C32 1_555 1_555
C33 N3 1_555 1_555
H53 C33 1_555 1_555
C34 C31 1_555 1_555
C35 C34 1_555 1_555
H54 C35 1_555 1_555
H55 C35 1_555 1_555
H56 C35 1_555 1_555
C36 C34 1_555 1_555
H57 C36 1_555 1_555
H58 C36 1_555 1_555
H59 C36 1_555 1_555
C37 C34 1_555 1_555
H60 C37 1_555 1_555
H61 C37 1_555 1_555
H62 C37 1_555 1_555
C38 H63 1_555 1_555
C39 C38 1_555 1_555
H64 C39 1_555 1_555
C40 C39 1_555 1_555
C41 C40 1_555 1_555
H65 C41 1_555 1_555
C42 N4 1_555 1_555
H66 C42 1_555 1_555
C43 C40 1_555 1_555
C44 C43 1_555 1_555
H67 C44 1_555 1_555
H68 C44 1_555 1_555
H69 C44 1_555 1_555
C45 C43 1_555 1_555
H70 C45 1_555 1_555
H71 C45 1_555 1_555
H72 C45 1_555 1_555
C46 C43 1_555 1_555
H73 C46 1_555 1_555
H74 C46 1_555 1_555
H75 C46 1_555 1_555
B12 C24 1_555 1_555
B13 B12 1_555 1_555
H76 B13 1_555 1_555
B14 C24 1_555 1_555
B15 C24 1_555 1_555
H77 B15 1_555 1_555
B16 B12 1_555 1_555
H78 B16 1_555 1_555
B17 B12 1_555 1_555
H79 B17 1_555 1_555
B18 C24 1_555 1_555
H80 B18 1_555 1_555
B19 B13 1_555 1_555
H81 B19 1_555 1_555
B20 B14 1_555 1_555
H82 B20 1_555 1_555
B21 B15 1_555 1_555
H83 B21 1_555 1_555
B22 N3 1_555 1_555
H84 B22 1_555 1_555
H85 B1 1_555 1_555
H86 B12 1_555 1_555
N2 B11 1_555 1_555
C5 B3 1_555 1_555
C5 B11 1_555 1_555
C9 C10 1_555 1_555
C18 C19 1_555 1_555
B1 B3 1_555 1_555
B1 B4 1_555 1_555
B2 B5 1_555 1_555
B2 B6 1_555 1_555
B3 B6 1_555 1_555
B3 B7 1_555 1_555
B4 B5 1_555 1_555
B4 B7 1_555 1_555
B5 B8 1_555 1_555
B5 B10 1_555 1_555
B6 B8 1_555 1_555
B6 B9 1_555 1_555
B7 B9 1_555 1_555
B7 B10 1_555 1_555
B8 B9 1_555 1_555
B8 B10 1_555 1_555
B9 B10 1_555 1_555
N4 B22 1_555 1_555
C28 B14 1_555 1_555
C28 B22 1_555 1_555
C32 C33 1_555 1_555
C41 C42 1_555 1_555
B12 B14 1_555 1_555
B12 B15 1_555 1_555
B13 B16 1_555 1_555
B13 B17 1_555 1_555
B14 B17 1_555 1_555
B14 B18 1_555 1_555
B15 B16 1_555 1_555
B15 B18 1_555 1_555
B16 B19 1_555 1_555
B16 B21 1_555 1_555
B17 B19 1_555 1_555
B17 B20 1_555 1_555
B18 B20 1_555 1_555
B18 B21 1_555 1_555
B19 B20 1_555 1_555
B19 B21 1_555 1_555
B20 B21 1_555 1_555

#END
