
#######################################################################
#
#                 Cambridge Crystallographic Data Centre
#                                CCDC 
#
#######################################################################
#
# If this CIF has been generated from an entry in the Cambridge 
# Structural Database, then it will include bibliographic, chemical, 
# crystal, experimental, refinement or atomic coordinate data resulting 
# from the CCDC's data processing and validation procedures.
#
#######################################################################

data_VENYEV
_chemical_formula_moiety         'C28 H20 N4'
_chemical_name_systematic        
2,2'-(ethene-1,2-diyl)bis[1-(pyridin-2-yl)-1H-indole]
_symmetry_cell_setting           monoclinic
_symmetry_space_group_name_H-M   'P 21/c'
_symmetry_Int_Tables_number      14
_space_group_name_Hall           '-P 2ybc'
loop_
_symmetry_equiv_pos_site_id
_symmetry_equiv_pos_as_xyz
1 x,y,z
2 -x,1/2+y,1/2-z
3 -x,-y,-z
4 x,1/2-y,1/2+z
_cell_length_a                   10.4482(2)
_cell_length_b                   7.41078(18)
_cell_length_c                   13.6312(4)
_cell_angle_alpha                90
_cell_angle_beta                 105.538(3)
_cell_angle_gamma                90
_cell_volume                     1016.88
_exptl_crystal_colour            'light yellow'
_exptl_crystal_description       block
_cell_formula_units_Z            2
loop_
_atom_site_label
_atom_site_type_symbol
_atom_site_fract_x
_atom_site_fract_y
_atom_site_fract_z
N1 N 0.60102(9) 0.40314(12) 0.31258(7)
N2 N 0.49037(9) 0.46579(13) 0.14363(7)
C1 C 0.81606(11) 0.36483(15) 0.40098(8)
C2 C 0.48155(11) 0.40067(15) 0.23253(8)
C3 C 0.72724(10) 0.35905(15) 0.30295(8)
C4 C 0.61234(11) 0.43941(15) 0.41566(8)
C5 C 0.36489(11) 0.33203(16) 0.24840(9)
C6 C 0.50150(11) 0.50334(16) 0.45141(9)
C7 C 0.74160(11) 0.41780(15) 0.46957(9)
C8 C 0.94983(11) 0.31979(17) 0.41362(9)
C9 C 0.76925(11) 0.31162(16) 0.21762(9)
C10 C 0.25682(12) 0.41357(17) 0.07726(9)
C11 C 0.37859(12) 0.46870(17) 0.06739(9)
C12 C 0.25072(12) 0.34204(17) 0.16942(10)
C13 C 0.99097(12) 0.26977(19) 0.32968(10)
C14 C 0.90138(12) 0.26653(19) 0.23283(10)
H1 H 0.4256(12) 0.5529(18) 0.4001(10)
H2 H 0.7068(12) 0.3106(16) 0.1497(10)
H3 H 0.3672(12) 0.2772(18) 0.3139(10)
H4 H 0.1674(14) 0.2981(19) 0.1783(10)
H5 H 0.1765(14) 0.4236(19) 0.0188(11)
H6 H 1.0115(13) 0.3235(17) 0.4829(11)
H7 H 0.3869(12) 0.5130(19) 0.0002(11)
H8 H 0.7776(11) 0.4422(16) 0.5422(10)
H9 H 0.9330(13) 0.2317(19) 0.1723(11)
H10 H 1.0858(14) 0.2372(19) 0.3375(10)
N1B N 0.39898(9) 0.59686(12) 0.68742(7)
N2B N 0.50963(9) 0.53421(13) 0.85637(7)
C1B C 0.18394(11) 0.63517(15) 0.59902(8)
C2B C 0.51845(11) 0.59933(15) 0.76747(8)
C3B C 0.27276(10) 0.64095(15) 0.69705(8)
C4B C 0.38766(11) 0.56059(15) 0.58434(8)
C5B C 0.63511(11) 0.66797(16) 0.75160(9)
C6B C 0.49850(11) 0.49666(16) 0.54859(9)
C7B C 0.25840(11) 0.58220(15) 0.53043(9)
C8B C 0.05017(11) 0.68021(17) 0.58638(9)
C9B C 0.23075(11) 0.68838(16) 0.78238(9)
C10B C 0.74318(12) 0.58643(17) 0.92274(9)
C11B C 0.62141(12) 0.53130(17) 0.93261(9)
C12B C 0.74928(12) 0.65796(17) 0.83058(10)
C13B C 0.00903(12) 0.73023(19) 0.67032(10)
C14B C 0.09862(12) 0.73347(19) 0.76717(10)
H1B H 0.5744(12) 0.4471(18) 0.5999(10)
H2B H 0.2932(12) 0.6894(16) 0.8503(10)
H3B H 0.6328(12) 0.7228(18) 0.6861(10)
H4B H 0.8326(14) 0.7019(19) 0.8217(10)
H5B H 0.8235(14) 0.5764(19) 0.9812(11)
H6B H -0.0115(13) 0.6765(17) 0.5171(11)
H7B H 0.6131(12) 0.4870(19) 0.9998(11)
H8B H 0.2224(11) 0.5578(16) 0.4578(10)
H9B H 0.0670(13) 0.7683(19) 0.8277(11)
H10B H -0.0858(14) 0.7628(19) 0.6625(10)
loop_
_geom_bond_atom_site_label_1
_geom_bond_atom_site_label_2
_geom_bond_site_symmetry_1
_geom_bond_site_symmetry_2
N1 C2 1_555 1_555
N2 C2 1_555 1_555
C1 C3 1_555 1_555
C2 C5 1_555 1_555
C3 N1 1_555 1_555
C4 N1 1_555 1_555
C5 C12 1_555 1_555
C6 C4 1_555 1_555
C7 C1 1_555 1_555
C8 C1 1_555 1_555
C9 C3 1_555 1_555
C10 C11 1_555 1_555
C11 N2 1_555 1_555
C12 C10 1_555 1_555
C13 C8 1_555 1_555
C14 C9 1_555 1_555
H1 C6 1_555 1_555
H2 C9 1_555 1_555
H3 C5 1_555 1_555
H4 C12 1_555 1_555
H5 C10 1_555 1_555
H6 C8 1_555 1_555
H7 C11 1_555 1_555
H8 C7 1_555 1_555
H9 C14 1_555 1_555
H10 C13 1_555 1_555
N1B C2B 1_555 1_555
N2B C2B 1_555 1_555
C1B C3B 1_555 1_555
C2B C5B 1_555 1_555
C3B N1B 1_555 1_555
C4B N1B 1_555 1_555
C5B C12B 1_555 1_555
C6B C6 1_555 1_555
C7B C1B 1_555 1_555
C8B C1B 1_555 1_555
C9B C3B 1_555 1_555
C10B C11B 1_555 1_555
C11B N2B 1_555 1_555
C12B C10B 1_555 1_555
C13B C8B 1_555 1_555
C14B C9B 1_555 1_555
H1B C6B 1_555 1_555
H2B C9B 1_555 1_555
H3B C5B 1_555 1_555
H4B C12B 1_555 1_555
H5B C10B 1_555 1_555
H6B C8B 1_555 1_555
H7B C11B 1_555 1_555
H8B C7B 1_555 1_555
H9B C14B 1_555 1_555
H10B C13B 1_555 1_555
C4 C7 1_555 1_555
C13 C14 1_555 1_555
C4B C6B 1_555 1_555
C4B C7B 1_555 1_555
C13B C14B 1_555 1_555

#END
