
#######################################################################
#
#                 Cambridge Crystallographic Data Centre
#                                CCDC 
#
#######################################################################
#
# If this CIF has been generated from an entry in the Cambridge 
# Structural Database, then it will include bibliographic, chemical, 
# crystal, experimental, refinement or atomic coordinate data resulting 
# from the CCDC's data processing and validation procedures.
#
#######################################################################

data_VEPKUZ
_chemical_formula_moiety         'C23 H25 N1 O5'
_chemical_name_systematic        
8-methoxy-6-(6-methoxy-2,2-dimethyltetrahydrofuro[2,3-d][1,3]dioxol-5-yl)-2-methylphenanthridine
_symmetry_cell_setting           monoclinic
_symmetry_space_group_name_H-M   'P 21'
_symmetry_Int_Tables_number      4
_space_group_name_Hall           'P 2yb'
loop_
_symmetry_equiv_pos_site_id
_symmetry_equiv_pos_as_xyz
1 x,y,z
2 -x,1/2+y,-z
_cell_length_a                   7.2135(3)
_cell_length_b                   18.9163(8)
_cell_length_c                   7.7262(3)
_cell_angle_alpha                90
_cell_angle_beta                 109.3310(10)
_cell_angle_gamma                90
_cell_volume                     994.824
_cell_formula_units_Z            2
loop_
_atom_site_label
_atom_site_type_symbol
_atom_site_fract_x
_atom_site_fract_y
_atom_site_fract_z
O1 O 0.56784(18) 0.25770(6) 0.38822(19)
O2 O 0.37429(16) 0.50687(6) 0.32381(15)
O3 O 0.18940(18) 0.54514(8) 0.50323(19)
O4 O -0.01980(17) 0.58160(7) 0.22715(17)
O5 O 0.3856(2) 0.62716(6) 0.08150(18)
N1 N -0.0323(2) 0.47115(7) -0.05884(18)
C1 C -0.3455(2) 0.31194(8) -0.1018(2)
H1 H -0.3381 0.2656 -0.0597
C2 C -0.5227(2) 0.33750(9) -0.2145(2)
C3 C -0.5318(3) 0.40692(10) -0.2805(3)
H2 H -0.6504 0.4245 -0.3587
C4 C -0.3695(3) 0.44900(9) -0.2318(2)
H3 H -0.3786 0.4948 -0.2779
C5 C -0.1887(2) 0.42429(8) -0.1130(2)
C6 C 0.1335(2) 0.45089(7) 0.0575(2)
C7 C 0.1730(2) 0.37836(7) 0.1231(2)
C8 C 0.3620(2) 0.35553(8) 0.2322(2)
H4 H 0.4656 0.3875 0.2684
C9 C 0.3924(2) 0.28611(8) 0.2848(2)
C10 C 0.2369(2) 0.23814(8) 0.2327(2)
H5 H 0.2585 0.1912 0.2701
C11 C 0.0534(2) 0.25930(8) 0.1276(2)
H6 H -0.0484 0.2265 0.0943
C12 C 0.0154(2) 0.32990(7) 0.0685(2)
C13 C -0.1745(2) 0.35410(8) -0.0482(2)
C14 C -0.7035(3) 0.29177(13) -0.2682(3)
H7 H -0.6680 0.2444 -0.2253
H8 H -0.7621 0.2915 -0.3993
H9 H -0.7957 0.3102 -0.2143
C15 C 0.7336(3) 0.30288(11) 0.4430(3)
H10 H 0.7531 0.3231 0.3363
H11 H 0.8479 0.2762 0.5105
H12 H 0.7123 0.3400 0.5192
C16 C 0.3047(2) 0.56505(8) 0.3986(2)
H13 H 0.4144 0.5947 0.4709
C17 C 0.1686(2) 0.60657(8) 0.2386(2)
H14 H 0.1817 0.6578 0.2583
C18 C 0.2259(2) 0.58297(8) 0.0764(2)
H15 H 0.1171 0.5864 -0.0399
C19 C 0.2935(2) 0.50649(8) 0.1261(2)
H16 H 0.3991 0.4958 0.0766
C20 C -0.0146(2) 0.55500(10) 0.4002(2)
C21 C -0.0987(4) 0.60739(13) 0.5003(3)
H17 H -0.0250 0.6506 0.5174
H18 H -0.0913 0.5884 0.6176
H19 H -0.2334 0.6166 0.4298
C22 C -0.1189(4) 0.48447(13) 0.3762(4)
H20 H -0.2530 0.4903 0.2990
H21 H -0.1154 0.4669 0.4938
H22 H -0.0545 0.4515 0.3207
C23 C 0.4561(4) 0.61880(13) -0.0675(3)
H23 H 0.4989 0.5709 -0.0709
H24 H 0.5644 0.6504 -0.0529
H25 H 0.3528 0.6294 -0.1799
loop_
_geom_bond_atom_site_label_1
_geom_bond_atom_site_label_2
_geom_bond_site_symmetry_1
_geom_bond_site_symmetry_2
O1 C9 1_555 1_555
O2 C16 1_555 1_555
O3 C16 1_555 1_555
O4 C17 1_555 1_555
O5 C18 1_555 1_555
N1 C5 1_555 1_555
C1 H1 1_555 1_555
C2 C1 1_555 1_555
C3 C2 1_555 1_555
H2 C3 1_555 1_555
C4 C3 1_555 1_555
H3 C4 1_555 1_555
C5 C4 1_555 1_555
C6 N1 1_555 1_555
C7 C6 1_555 1_555
C8 C7 1_555 1_555
H4 C8 1_555 1_555
C9 C8 1_555 1_555
C10 C9 1_555 1_555
H5 C10 1_555 1_555
C11 C10 1_555 1_555
H6 C11 1_555 1_555
C12 C7 1_555 1_555
C13 C1 1_555 1_555
C14 C2 1_555 1_555
H7 C14 1_555 1_555
H8 C14 1_555 1_555
H9 C14 1_555 1_555
C15 O1 1_555 1_555
H10 C15 1_555 1_555
H11 C15 1_555 1_555
H12 C15 1_555 1_555
C16 H13 1_555 1_555
C17 C16 1_555 1_555
H14 C17 1_555 1_555
C18 C17 1_555 1_555
H15 C18 1_555 1_555
C19 O2 1_555 1_555
H16 C19 1_555 1_555
C20 O3 1_555 1_555
C21 C20 1_555 1_555
H17 C21 1_555 1_555
H18 C21 1_555 1_555
H19 C21 1_555 1_555
C22 C20 1_555 1_555
H20 C22 1_555 1_555
H21 C22 1_555 1_555
H22 C22 1_555 1_555
C23 O5 1_555 1_555
H23 C23 1_555 1_555
H24 C23 1_555 1_555
H25 C23 1_555 1_555
O4 C20 1_555 1_555
C5 C13 1_555 1_555
C6 C19 1_555 1_555
C11 C12 1_555 1_555
C12 C13 1_555 1_555
C18 C19 1_555 1_555

#END
