
#######################################################################
#
#                 Cambridge Crystallographic Data Centre
#                                CCDC 
#
#######################################################################
#
# If this CIF has been generated from an entry in the Cambridge 
# Structural Database, then it will include bibliographic, chemical, 
# crystal, experimental, refinement or atomic coordinate data resulting 
# from the CCDC's data processing and validation procedures.
#
#######################################################################

data_VEPMEL
_chemical_name_common            
'1-benzhydryl 3-(t-butyl) (R)-2-(acetylthio)-2-(4-(trifluoromethoxy)benzyl)malonate'
_chemical_formula_moiety         'C30 H29 F3 O6 S1'
_chemical_name_systematic        
't-butyl diphenylmethyl (acetylsulfanyl){[4-(trifluoromethoxy)phenyl]methyl}propanedioate'
_symmetry_cell_setting           orthorhombic
_symmetry_space_group_name_H-M   'P 21 21 21'
_symmetry_Int_Tables_number      19
_space_group_name_Hall           'P 2ac 2ab'
loop_
_symmetry_equiv_pos_site_id
_symmetry_equiv_pos_as_xyz
1 x,y,z
2 1/2+x,1/2-y,-z
3 -x,1/2+y,1/2-z
4 1/2-x,-y,1/2+z
_cell_length_a                   9.3211(14)
_cell_length_b                   10.6406(14)
_cell_length_c                   29.994(4)
_cell_angle_alpha                90
_cell_angle_beta                 90
_cell_angle_gamma                90
_cell_volume                     2974.87
_exptl_crystal_colour            colorless
_exptl_crystal_description       chunk
_chemical_melting_point          '341 K'
_cell_formula_units_Z            4
_exptl_crystal_recrystallization_method 'Ethyl acetate-hexane'
loop_
_atom_site_label
_atom_site_type_symbol
_atom_site_fract_x
_atom_site_fract_y
_atom_site_fract_z
S1 S 0.09940(9) 0.38147(8) 0.10740(3)
F1 F 0.6406(6) 0.4505(4) 0.28818(15)
F2 F 0.7510(4) 0.6178(4) 0.30169(15)
F3 F 0.5597(6) 0.5809(7) 0.32794(13)
O1 O 0.0849(3) 0.6455(3) 0.11323(9)
O2 O -0.1085(3) 0.66079(18) 0.15758(7)
O3 O -0.2484(3) 0.3909(3) 0.17329(7)
O4 O -0.2105(3) 0.4318(2) 0.10075(6)
O5 O -0.0441(4) 0.1903(3) 0.14092(9)
O6 O 0.5647(4) 0.6283(3) 0.26054(11)
C1 C -0.0142(4) 0.4596(3) 0.14865(9)
C2 C 0.0440(5) 0.2236(3) 0.11388(12)
C3 C -0.0042(4) 0.6009(4) 0.13673(10)
C4 C -0.1712(4) 0.4208(3) 0.14343(10)
C5 C 0.0317(4) 0.4373(4) 0.19739(10)
C6 C 0.1177(5) 0.1363(4) 0.08234(13)
C7 C -0.1339(5) 0.7993(4) 0.15198(12)
C8 C -0.1616(6) 0.8285(4) 0.10401(13)
C9 C -0.2656(6) 0.8184(5) 0.18053(19)
C10 C -0.0075(6) 0.8686(4) 0.17102(15)
C11 C 0.1750(4) 0.4918(3) 0.21159(9)
C12 C 0.3033(4) 0.4355(4) 0.20023(11)
C13 C 0.4326(5) 0.4800(4) 0.21625(11)
C14 C 0.4316(5) 0.5807(4) 0.24456(12)
C15 C 0.3076(5) 0.6402(4) 0.25596(13)
C16 C 0.1793(5) 0.5947(4) 0.23957(11)
C17 C 0.6324(7) 0.5679(6) 0.2910(2)
C18 C -0.3589(4) 0.3979(4) 0.08933(10)
C19 C -0.4212(4) 0.5075(3) 0.06463(10)
C20 C -0.3632(5) 0.5508(4) 0.02490(11)
C21 C -0.4215(5) 0.6511(4) 0.00263(13)
C22 C -0.5412(6) 0.7100(4) 0.01926(16)
C23 C -0.6001(6) 0.6675(5) 0.05810(16)
C24 C -0.5417(5) 0.5667(5) 0.08074(13)
C25 C -0.3547(4) 0.2749(4) 0.06383(11)
C26 C -0.2428(5) 0.2430(4) 0.03577(12)
C27 C -0.2472(6) 0.1294(5) 0.01252(13)
C28 C -0.3591(7) 0.0482(5) 0.01765(16)
C29 C -0.4709(7) 0.0791(5) 0.04542(18)
C30 C -0.4671(5) 0.1922(4) 0.06875(15)
H1 H -0.0420 0.4719 0.2167
H2 H 0.0343 0.3473 0.2026
H3 H 0.0479 0.0833 0.0682
H4 H 0.1850 0.0853 0.0984
H5 H 0.1677 0.1842 0.0601
H6 H -0.1783 0.9170 0.1006
H7 H -0.2444 0.7828 0.0940
H8 H -0.0798 0.8044 0.0865
H9 H -0.2453 0.7927 0.2105
H10 H -0.3433 0.7691 0.1689
H11 H -0.2919 0.9057 0.1803
H12 H 0.0758 0.8524 0.1531
H13 H 0.0097 0.8404 0.2009
H14 H -0.0272 0.9571 0.1712
H15 H 0.3027 0.3661 0.1814
H16 H 0.5185 0.4423 0.2080
H17 H 0.3092 0.7104 0.2745
H18 H 0.0941 0.6341 0.2475
H19 H -0.4133 0.3854 0.1169
H20 H -0.2829 0.5109 0.0131
H21 H -0.3800 0.6793 -0.0237
H22 H -0.5816 0.7778 0.0043
H23 H -0.6810 0.7073 0.0695
H24 H -0.5841 0.5387 0.1070
H25 H -0.1651 0.2970 0.0324
H26 H -0.1727 0.1087 -0.0067
H27 H -0.3598 -0.0279 0.0024
H28 H -0.5485 0.0249 0.0486
H29 H -0.5418 0.2122 0.0880
loop_
_geom_bond_atom_site_label_1
_geom_bond_atom_site_label_2
_geom_bond_site_symmetry_1
_geom_bond_site_symmetry_2
S1 C1 1_555 1_555
F1 C17 1_555 1_555
F2 C17 1_555 1_555
F3 C17 1_555 1_555
O1 C3 1_555 1_555
O2 C3 1_555 1_555
O3 C4 1_555 1_555
O4 C4 1_555 1_555
O5 C2 1_555 1_555
O6 C14 1_555 1_555
C1 C3 1_555 1_555
C2 S1 1_555 1_555
C4 C1 1_555 1_555
C5 C1 1_555 1_555
C6 C2 1_555 1_555
C7 O2 1_555 1_555
C8 C7 1_555 1_555
C9 C7 1_555 1_555
C10 C7 1_555 1_555
C11 C5 1_555 1_555
C12 C11 1_555 1_555
C13 C12 1_555 1_555
C14 C13 1_555 1_555
C15 C14 1_555 1_555
C16 C11 1_555 1_555
C17 O6 1_555 1_555
C18 O4 1_555 1_555
C19 C18 1_555 1_555
C20 C19 1_555 1_555
C21 C20 1_555 1_555
C22 C21 1_555 1_555
C23 C22 1_555 1_555
C24 C19 1_555 1_555
C25 C18 1_555 1_555
C26 C25 1_555 1_555
C27 C26 1_555 1_555
C28 C27 1_555 1_555
C29 C28 1_555 1_555
C30 C25 1_555 1_555
H1 C5 1_555 1_555
H2 C5 1_555 1_555
H3 C6 1_555 1_555
H4 C6 1_555 1_555
H5 C6 1_555 1_555
H6 C8 1_555 1_555
H7 C8 1_555 1_555
H8 C8 1_555 1_555
H9 C9 1_555 1_555
H10 C9 1_555 1_555
H11 C9 1_555 1_555
H12 C10 1_555 1_555
H13 C10 1_555 1_555
H14 C10 1_555 1_555
H15 C12 1_555 1_555
H16 C13 1_555 1_555
H17 C15 1_555 1_555
H18 C16 1_555 1_555
H19 C18 1_555 1_555
H20 C20 1_555 1_555
H21 C21 1_555 1_555
H22 C22 1_555 1_555
H23 C23 1_555 1_555
H24 C24 1_555 1_555
H25 C26 1_555 1_555
H26 C27 1_555 1_555
H27 C28 1_555 1_555
H28 C29 1_555 1_555
H29 C30 1_555 1_555
C15 C16 1_555 1_555
C23 C24 1_555 1_555
C29 C30 1_555 1_555

#END
