
#######################################################################
#
#                 Cambridge Crystallographic Data Centre
#                                CCDC 
#
#######################################################################
#
# If this CIF has been generated from an entry in the Cambridge 
# Structural Database, then it will include bibliographic, chemical, 
# crystal, experimental, refinement or atomic coordinate data resulting 
# from the CCDC's data processing and validation procedures.
#
#######################################################################

data_VEQWEU
_chemical_formula_moiety         'C18 H13 Cl2 N1 O2'
_chemical_name_systematic        
'Ethyl 5-chloro-4-(4-chlorophenyl)quinoline-2-carboxylate'
_symmetry_cell_setting           monoclinic
_symmetry_space_group_name_H-M   'P 21/c'
_symmetry_Int_Tables_number      14
_space_group_name_Hall           '-P 2ybc'
loop_
_symmetry_equiv_pos_site_id
_symmetry_equiv_pos_as_xyz
1 x,y,z
2 -x,1/2+y,1/2-z
3 -x,-y,-z
4 x,1/2-y,1/2+z
_cell_length_a                   10.3615(4)
_cell_length_b                   8.4311(4)
_cell_length_c                   18.5887(6)
_cell_angle_alpha                90
_cell_angle_beta                 98.8060(7)
_cell_angle_gamma                90
_cell_volume                     1604.75
_exptl_crystal_colour            colorless
_exptl_crystal_description       block
_chemical_melting_point          220-221deg.C
_cell_formula_units_Z            4
loop_
_atom_site_label
_atom_site_type_symbol
_atom_site_fract_x
_atom_site_fract_y
_atom_site_fract_z
Cl1 Cl 0.31233(6) 0.17771(9) -0.24068(3)
Cl2 Cl -0.09081(5) 0.05067(7) 0.11336(3)
O1 O 0.84477(12) 0.45944(17) 0.13315(7)
O2 O 0.72801(13) 0.3445(2) 0.21034(7)
N1 N 0.67642(13) 0.36597(18) 0.01915(7)
C1 C 1.0424(2) 0.5990(3) 0.16572(13)
H1 H 1.1097 0.6280 0.2049
H2 H 1.0010 0.6930 0.1441
H3 H 1.0802 0.5408 0.1297
C2 C 0.9448(2) 0.4995(3) 0.19398(12)
H4 H 0.9854 0.4038 0.2158
H5 H 0.9065 0.5567 0.2308
C3 C 0.74227(16) 0.3814(2) 0.14964(9)
C4 C 0.64410(15) 0.3413(2) 0.08393(9)
C5 C 0.58564(15) 0.3260(2) -0.03919(9)
C6 C 0.61952(17) 0.3472(2) -0.10962(10)
H6 H 0.7001 0.3910 -0.1144
C7 C 0.53671(18) 0.3049(3) -0.17004(9)
H7 H 0.5599 0.3196 -0.2160
C8 C 0.41515(18) 0.2383(2) -0.16249(10)
C9 C 0.37608(17) 0.2198(2) -0.09650(9)
H8 H 0.2941 0.1779 -0.0934
C10 C 0.46018(15) 0.2644(2) -0.03270(9)
C11 C 0.42791(15) 0.2468(2) 0.03865(9)
C12 C 0.52261(15) 0.2828(2) 0.09625(9)
H9 H 0.5063 0.2684 0.1436
C13 C 0.29708(15) 0.1937(2) 0.05236(9)
C14 C 0.28774(17) 0.0659(2) 0.09813(10)
H10 H 0.3629 0.0106 0.1172
C15 C 0.16851(18) 0.0191(2) 0.11595(10)
H11 H 0.1627 -0.0678 0.1461
C16 C 0.05884(16) 0.1039(2) 0.08807(9)
C17 C 0.06395(17) 0.2309(2) 0.04226(10)
H12 H -0.0116 0.2860 0.0237
C18 C 0.18391(16) 0.2756(2) 0.02411(9)
H13 H 0.1887 0.3608 -0.0071
loop_
_geom_bond_atom_site_label_1
_geom_bond_atom_site_label_2
_geom_bond_site_symmetry_1
_geom_bond_site_symmetry_2
Cl1 C8 1_555 1_555
Cl2 C16 1_555 1_555
O1 C2 1_555 1_555
O2 C3 1_555 1_555
N1 C4 1_555 1_555
C1 H1 1_555 1_555
H2 C1 1_555 1_555
H3 C1 1_555 1_555
C2 C1 1_555 1_555
H4 C2 1_555 1_555
H5 C2 1_555 1_555
C3 O1 1_555 1_555
C4 C3 1_555 1_555
C5 N1 1_555 1_555
C6 C5 1_555 1_555
H6 C6 1_555 1_555
C7 C6 1_555 1_555
H7 C7 1_555 1_555
C8 C7 1_555 1_555
C9 C8 1_555 1_555
H8 C9 1_555 1_555
C10 C5 1_555 1_555
C11 C10 1_555 1_555
C12 C4 1_555 1_555
H9 C12 1_555 1_555
C13 C11 1_555 1_555
C14 C13 1_555 1_555
H10 C14 1_555 1_555
C15 C14 1_555 1_555
H11 C15 1_555 1_555
C16 C15 1_555 1_555
C17 C16 1_555 1_555
H12 C17 1_555 1_555
C18 C13 1_555 1_555
H13 C18 1_555 1_555
C9 C10 1_555 1_555
C11 C12 1_555 1_555
C17 C18 1_555 1_555

#END
