
#######################################################################
#
#                 Cambridge Crystallographic Data Centre
#                                CCDC 
#
#######################################################################
#
# If this CIF has been generated from an entry in the Cambridge 
# Structural Database, then it will include bibliographic, chemical, 
# crystal, experimental, refinement or atomic coordinate data resulting 
# from the CCDC's data processing and validation procedures.
#
#######################################################################

data_VERCAZ
_chemical_formula_moiety         'C17 H19 Cl1 O5'
_chemical_name_systematic        
'methyl 4-butyl-5-(5-chloro-2-hydroxyphenyl)-2-methoxyfuran-3-carboxylate'
_symmetry_cell_setting           monoclinic
_symmetry_space_group_name_H-M   'P 21/c'
_symmetry_Int_Tables_number      14
_space_group_name_Hall           '-P 2ybc'
loop_
_symmetry_equiv_pos_site_id
_symmetry_equiv_pos_as_xyz
1 x,y,z
2 -x,1/2+y,1/2-z
3 -x,-y,-z
4 x,1/2-y,1/2+z
_cell_length_a                   10.0170(3)
_cell_length_b                   14.0492(4)
_cell_length_c                   12.3323(4)
_cell_angle_alpha                90
_cell_angle_beta                 105.2160(10)
_cell_angle_gamma                90
_cell_volume                     1674.69
_exptl_crystal_colour            colorless
_exptl_crystal_description       needle
_cell_formula_units_Z            4
loop_
_atom_site_label
_atom_site_type_symbol
_atom_site_fract_x
_atom_site_fract_y
_atom_site_fract_z
Cl1 Cl 0.04183(6) 0.17051(4) 0.59575(5)
O1 O 0.39163(15) 0.35852(10) 0.30573(11)
O2 O 0.5090(2) 0.47627(13) 0.24058(13)
O3 O 0.74725(14) 0.53024(9) 0.41403(11)
O4 O 0.75836(14) 0.46397(10) 0.58177(11)
O5 O 0.35905(15) 0.15924(10) 0.25841(12)
H1 H 0.342(3) 0.1112(18) 0.219(2)
C1 C 0.4053(2) 0.31060(13) 0.40851(15)
C2 C 0.5784(2) 0.41648(13) 0.43096(15)
C3 C 0.4968(2) 0.42030(14) 0.32369(17)
C4 C 0.3981(3) 0.47674(19) 0.13843(19)
H2 H 0.3958 0.4155 0.0999
H3 H 0.4135 0.5281 0.0892
H4 H 0.3098 0.487 0.1568
C5 C 0.70021(19) 0.47556(13) 0.47168(16)
C6 C 0.8853(2) 0.51583(17) 0.62792(18)
H5 H 0.9571 0.4928 0.5937
H6 H 0.9153 0.506 0.7094
H7 H 0.8695 0.5838 0.612
C7 C 0.30205(19) 0.23665(13) 0.40947(16)
C8 C 0.28225(19) 0.16020(13) 0.33367(16)
C9 C 0.1895(2) 0.08797(14) 0.33923(18)
H8 H 0.1772 0.0362 0.288
C10 C 0.1148(2) 0.09117(15) 0.41944(19)
H9 H 0.051 0.0421 0.4231
C11 C 0.1344(2) 0.16634(15) 0.49356(17)
C12 C 0.2262(2) 0.23880(14) 0.48994(17)
H10 H 0.2378 0.29 0.5419
C13 C 0.51636(19) 0.34367(13) 0.48622(16)
C14 C 0.5650(9) 0.3222(6) 0.6096(6)
H11 H 0.4896 0.2889 0.6324
H12 H 0.5812 0.3833 0.651
C15 C 0.6966(4) 0.2618(3) 0.6468(4)
H13 H 0.769 0.2885 0.6143
H14 H 0.6768 0.196 0.6184
C16 C 0.7493(5) 0.2601(4) 0.7754(4)
H15 H 0.7815 0.3247 0.8023
H16 H 0.6718 0.2433 0.8077
C17 C 0.8670(4) 0.1898(3) 0.8179(3)
H17 H 0.836 0.1257 0.7916
H18 H 0.8949 0.1906 0.9003
H19 H 0.946 0.2078 0.7893
C18? C 0.5706(11) 0.2941(6) 0.5972(7)
H20? H 0.4962 0.2543 0.6127
H21? H 0.5967 0.3424 0.6575
C19? C 0.6961(5) 0.2314(4) 0.5996(5)
H22? H 0.6689 0.1818 0.5408
H23? H 0.7689 0.2709 0.5811
C20? C 0.7559(4) 0.1832(3) 0.7125(3)
H24? H 0.6824 0.1445 0.7314
H25? H 0.8304 0.1393 0.7055
C21? C 0.8135(9) 0.2513(5) 0.8079(5)
H26? H 0.878 0.2953 0.7864
H27? H 0.8624 0.2154 0.8747
H28? H 0.7376 0.2874 0.8246
loop_
_geom_bond_atom_site_label_1
_geom_bond_atom_site_label_2
_geom_bond_site_symmetry_1
_geom_bond_site_symmetry_2
Cl1 C11 1_555 1_555
O1 C1 1_555 1_555
O2 C3 1_555 1_555
O3 C5 1_555 1_555
O4 C5 1_555 1_555
O5 H1 1_555 1_555
C1 C7 1_555 1_555
C2 C3 1_555 1_555
C3 O1 1_555 1_555
C4 O2 1_555 1_555
H2 C4 1_555 1_555
H3 C4 1_555 1_555
H4 C4 1_555 1_555
C5 C2 1_555 1_555
C6 O4 1_555 1_555
H5 C6 1_555 1_555
H6 C6 1_555 1_555
H7 C6 1_555 1_555
C7 C8 1_555 1_555
C8 O5 1_555 1_555
C9 C8 1_555 1_555
H8 C9 1_555 1_555
C10 C9 1_555 1_555
H9 C10 1_555 1_555
C11 C10 1_555 1_555
C12 C7 1_555 1_555
H10 C12 1_555 1_555
C13 C1 1_555 1_555
C14 C13 1_555 1_555
H11 C14 1_555 1_555
H12 C14 1_555 1_555
C15 C14 1_555 1_555
H13 C15 1_555 1_555
H14 C15 1_555 1_555
C16 C15 1_555 1_555
H15 C16 1_555 1_555
H16 C16 1_555 1_555
C17 C16 1_555 1_555
H17 C17 1_555 1_555
H18 C17 1_555 1_555
H19 C17 1_555 1_555
C2 C13 1_555 1_555
C11 C12 1_555 1_555

#END
