
#######################################################################
#
#                 Cambridge Crystallographic Data Centre
#                                CCDC 
#
#######################################################################
#
# If this CIF has been generated from an entry in the Cambridge 
# Structural Database, then it will include bibliographic, chemical, 
# crystal, experimental, refinement or atomic coordinate data resulting 
# from the CCDC's data processing and validation procedures.
#
#######################################################################

data_VERXIZ
_chemical_formula_moiety         'C22 H28 N4'
_chemical_name_systematic        
7,7-bis(4-Methyl)piperidinyl-8,8-dicyanoquinone
_symmetry_cell_setting           monoclinic
_symmetry_space_group_name_H-M   'C 2/c'
_symmetry_Int_Tables_number      15
_space_group_name_Hall           '-C 2yn'
loop_
_symmetry_equiv_pos_site_id
_symmetry_equiv_pos_as_xyz
1 x,y,z
2 1/2+x,1/2+y,z
3 x,-y,1/2+z
4 1/2+x,1/2-y,1/2+z
5 -x,-y,-z
6 1/2-x,1/2-y,-z
7 -x,y,1/2-z
8 1/2-x,1/2+y,1/2-z
_cell_length_a                   16.768(1)
_cell_length_b                   12.281(1)
_cell_length_c                   10.010(1)
_cell_angle_alpha                90
_cell_angle_beta                 107.26(1)
_cell_angle_gamma                90
_cell_volume                     1968.51
_exptl_crystal_colour            yellow
_exptl_crystal_description       plate
_cell_formula_units_Z            4
loop_
_atom_site_label
_atom_site_type_symbol
_atom_site_fract_x
_atom_site_fract_y
_atom_site_fract_z
N1 N 0.42942(7) 0.83493(10) 0.24468(13)
N2 N 0.43237(10) 0.20607(12) 0.4105(2)
C1 C 0.5000 0.7806(2) 0.2500
C2 C 0.5000 0.6613(2) 0.2500
C3 C 0.45830(10) 0.60207(13) 0.3295(2)
H1 H 0.4306(10) 0.6419(14) 0.3897(17)
C4 C 0.45763(10) 0.48987(13) 0.3287(2)
H2 H 0.4279(10) 0.4503(15) 0.3876(18)
C5 C 0.5000 0.4299(2) 0.2500
C6 C 0.5000 0.3121(2) 0.2500
C7 C 0.46284(10) 0.25260(13) 0.3371(2)
C8 C 0.34518(10) 0.79344(14) 0.1690(2)
H3 H 0.3223(11) 0.8435(15) 0.0888(19)
H4 H 0.3511(10) 0.7198(15) 0.1326(18)
C9 C 0.28713(10) 0.79327(15) 0.2612(2)
H5 H 0.3073(11) 0.7380(15) 0.3373(19)
H6 H 0.2301(12) 0.7689(15) 0.2036(20)
C10 C 0.28342(10) 0.90491(14) 0.3271(2)
H7 H 0.2574(11) 0.9591(15) 0.2482(20)
C11 C 0.37258(10) 0.94182(14) 0.4025(2)
H8 H 0.3971(10) 0.8915(14) 0.4828(17)
H9 H 0.3720(11) 1.0169(16) 0.4406(19)
C12 C 0.42904(10) 0.94378(13) 0.3076(2)
H10 H 0.4076(10) 0.9993(15) 0.2297(19)
H11 H 0.4859(11) 0.9613(14) 0.3628(18)
C13 C 0.23053(12) 0.9031(2) 0.4280(2)
H12 H 0.1760(13) 0.8697(16) 0.3875(21)
H13 H 0.2605(12) 0.8586(17) 0.5141(23)
H14 H 0.2227(13) 0.9800(19) 0.4600(23)
N1F N 0.57058(7) 0.83493(10) 0.25532(13)
C8F C 0.65482(10) 0.79344(14) 0.3310(2)
H3F H 0.6777(11) 0.8435(15) 0.4112(19)
H4F H 0.6489(10) 0.7198(15) 0.3674(18)
C9F C 0.71287(10) 0.79327(15) 0.2388(2)
H5F H 0.6927(11) 0.7380(15) 0.1627(19)
H6F H 0.7699(12) 0.7689(15) 0.2964(20)
C10F C 0.71658(10) 0.90491(14) 0.1729(2)
H7F H 0.7426(11) 0.9591(15) 0.2518(20)
C11F C 0.62742(10) 0.94182(14) 0.0975(2)
H8F H 0.6029(10) 0.8915(14) 0.0172(17)
H9F H 0.6280(11) 1.0169(16) 0.0594(19)
C12F C 0.57096(10) 0.94378(13) 0.1924(2)
H10F H 0.5924(10) 0.9993(15) 0.2703(19)
H11F H 0.5141(11) 0.9613(14) 0.1372(18)
C13F C 0.76947(12) 0.9031(2) 0.0720(2)
H12F H 0.8240(13) 0.8697(16) 0.1125(21)
H13F H 0.7395(12) 0.8586(17) -0.0141(23)
H14F H 0.7773(13) 0.9800(19) 0.0400(23)
C4F C 0.54237(10) 0.48987(13) 0.1713(2)
C3F C 0.54170(10) 0.60207(13) 0.1705(2)
H1F H 0.5694(10) 0.6419(14) 0.1103(17)
H2F H 0.5721(10) 0.4503(15) 0.1124(18)
C7F C 0.53716(10) 0.25260(13) 0.1629(2)
N2F N 0.56763(10) 0.20607(12) 0.0895(2)
loop_
_geom_bond_atom_site_label_1
_geom_bond_atom_site_label_2
_geom_bond_site_symmetry_1
_geom_bond_site_symmetry_2
N1 C1 1_555 1_555
N2 C7 1_555 1_555
C1 C2 1_555 1_555
C2 C3 1_555 1_555
C3 H1 1_555 1_555
C4 C3 1_555 1_555
H2 C4 1_555 1_555
C5 C4 1_555 1_555
C6 C5 1_555 1_555
C7 C6 1_555 1_555
C8 N1 1_555 1_555
H3 C8 1_555 1_555
H4 C8 1_555 1_555
C9 C8 1_555 1_555
H5 C9 1_555 1_555
H6 C9 1_555 1_555
C10 C9 1_555 1_555
H7 C10 1_555 1_555
C11 C10 1_555 1_555
H8 C11 1_555 1_555
H9 C11 1_555 1_555
C12 N1 1_555 1_555
H10 C12 1_555 1_555
H11 C12 1_555 1_555
C13 C10 1_555 1_555
H12 C13 1_555 1_555
H13 C13 1_555 1_555
H14 C13 1_555 1_555
N1F C1 1_555 1_555
C8F N1F 1_555 1_555
H3F C8F 1_555 1_555
H4F C8F 1_555 1_555
C9F C8F 1_555 1_555
H5F C9F 1_555 1_555
H6F C9F 1_555 1_555
C10F C9F 1_555 1_555
H7F C10F 1_555 1_555
C11F C10F 1_555 1_555
H8F C11F 1_555 1_555
H9F C11F 1_555 1_555
C12F N1F 1_555 1_555
H10F C12F 1_555 1_555
H11F C12F 1_555 1_555
C13F C10F 1_555 1_555
H12F C13F 1_555 1_555
H13F C13F 1_555 1_555
H14F C13F 1_555 1_555
C4F C5 1_555 1_555
C3F C2 1_555 1_555
H1F C3F 1_555 1_555
H2F C4F 1_555 1_555
C7F C6 1_555 1_555
N2F C7F 1_555 1_555
C11 C12 1_555 1_555
C11F C12F 1_555 1_555
C4F C3F 1_555 1_555

#END
