
#######################################################################
#
#                 Cambridge Crystallographic Data Centre
#                                CCDC 
#
#######################################################################
#
# If this CIF has been generated from an entry in the Cambridge 
# Structural Database, then it will include bibliographic, chemical, 
# crystal, experimental, refinement or atomic coordinate data resulting 
# from the CCDC's data processing and validation procedures.
#
#######################################################################

data_VESDEF
_chemical_formula_moiety         'C6 H7 N1 O1,I2'
_chemical_name_systematic        '4-methylpyridine-N-oxide di-iodine'
_symmetry_cell_setting           triclinic
_symmetry_space_group_name_H-M   'P -1'
_symmetry_Int_Tables_number      2
_space_group_name_Hall           '-P 1'
loop_
_symmetry_equiv_pos_site_id
_symmetry_equiv_pos_as_xyz
1 x,y,z
2 -x,-y,-z
_cell_length_a                   9.6417(14)
_cell_length_b                   10.9728(17)
_cell_length_c                   14.931(3)
_cell_angle_alpha                68.470(3)
_cell_angle_beta                 88.067(5)
_cell_angle_gamma                86.905(3)
_cell_volume                     1467.12
_exptl_crystal_colour            red
_exptl_crystal_description       block
_cell_formula_units_Z            6
loop_
_atom_site_label
_atom_site_type_symbol
_atom_site_fract_x
_atom_site_fract_y
_atom_site_fract_z
O1 O -0.4241(3) -1.0862(3) 0.4064(2)
N1 N -0.3095(4) -1.1099(3) 0.4608(2)
C1 C -0.1953(5) -1.1705(5) 0.4395(3)
H1 H -0.195198 -1.196790 0.385511
C2 C -0.0775(5) -1.1951(5) 0.4955(3)
H2 H 0.002027 -1.237290 0.478502
C3 C -0.0722(5) -1.1602(4) 0.5753(3)
C4 C -0.1924(5) -1.1004(5) 0.5971(3)
H3 H -0.195493 -1.075931 0.651942
C5 C -0.3097(5) -1.0757(4) 0.5384(3)
H4 H -0.390742 -1.034001 0.554054
C6 C 0.0558(5) -1.1857(5) 0.6374(4)
H5 H 0.138621 -1.192438 0.599278
H6 H 0.047060 -1.267898 0.692772
H7 H 0.064274 -1.113293 0.660116
O2 O -0.2067(3) -0.2667(3) 0.2429(2)
N2 N -0.3245(4) -0.2306(3) 0.1892(3)
C7 C -0.4309(5) -0.1687(5) 0.2159(3)
H8 H -0.424897 -0.148221 0.272164
C8 C -0.5512(5) -0.1339(5) 0.1613(3)
H9 H -0.625157 -0.088652 0.181507
C9 C -0.5689(5) -0.1620(5) 0.0784(3)
C10 C -0.4544(5) -0.2264(5) 0.0546(3)
H10 H -0.457703 -0.248112 -0.001294
C11 C -0.3343(5) -0.2605(4) 0.1097(3)
H11 H -0.258486 -0.305321 0.090997
C12 C -0.6995(5) -0.1243(5) 0.0204(4)
H12 H -0.675333 -0.081391 -0.047991
H13 H -0.757856 -0.063799 0.041605
H14 H -0.750300 -0.203099 0.029641
O3 O -0.7973(4) -0.5853(3) 0.0319(2)
N3 N -0.8065(4) -0.5458(4) 0.1065(3)
C13 C -0.6990(6) -0.5711(6) 0.1683(4)
H15 H -0.615821 -0.613566 0.156347
C14 C -0.7089(6) -0.5366(7) 0.2468(4)
H16 H -0.634229 -0.558700 0.290689
C15 C -0.8256(6) -0.4701(5) 0.2636(4)
C16 C -0.9329(5) -0.4437(5) 0.1972(4)
H17 H -1.014999 -0.397135 0.205831
C17 C -0.9225(5) -0.4830(4) 0.1208(3)
H18 H -0.997677 -0.465738 0.077659
C18 C -0.8377(8) -0.4300(7) 0.3493(4)
H19 H -0.809158 -0.504320 0.407049
H20 H -0.934239 -0.402506 0.357217
H21 H -0.777528 -0.356877 0.339625
I1 I -0.30390(3) -0.61732(3) 0.11153(2)
I2 I -0.39070(3) -0.83946(3) 0.25081(2)
I3 I -0.09866(3) -1.16257(3) 0.89222(2)
I4 I 0.03704(3) -0.93638(3) 0.81984(2)
I5 I -0.41686(3) -0.71152(3) 0.49787(2)
I6 I -0.28731(3) -0.49953(3) 0.37856(2)
loop_
_geom_bond_atom_site_label_1
_geom_bond_atom_site_label_2
_geom_bond_site_symmetry_1
_geom_bond_site_symmetry_2
O1 N1 1_555 1_555
N1 C1 1_555 1_555
C1 H1 1_555 1_555
C2 C1 1_555 1_555
H2 C2 1_555 1_555
C3 C2 1_555 1_555
C4 C3 1_555 1_555
H3 C4 1_555 1_555
C5 N1 1_555 1_555
H4 C5 1_555 1_555
C6 C3 1_555 1_555
H5 C6 1_555 1_555
H6 C6 1_555 1_555
H7 C6 1_555 1_555
O2 N2 1_555 1_555
N2 C7 1_555 1_555
C7 H8 1_555 1_555
C8 C7 1_555 1_555
H9 C8 1_555 1_555
C9 C8 1_555 1_555
C10 C9 1_555 1_555
H10 C10 1_555 1_555
C11 N2 1_555 1_555
H11 C11 1_555 1_555
C12 C9 1_555 1_555
H12 C12 1_555 1_555
H13 C12 1_555 1_555
H14 C12 1_555 1_555
O3 N3 1_555 1_555
N3 C13 1_555 1_555
C13 H15 1_555 1_555
C14 C13 1_555 1_555
H16 C14 1_555 1_555
C15 C14 1_555 1_555
C16 C15 1_555 1_555
H17 C16 1_555 1_555
C17 N3 1_555 1_555
H18 C17 1_555 1_555
C18 C15 1_555 1_555
H19 C18 1_555 1_555
H20 C18 1_555 1_555
H21 C18 1_555 1_555
I1 I2 1_555 1_555
I3 I4 1_555 1_555
I5 I6 1_555 1_555
C4 C5 1_555 1_555
C10 C11 1_555 1_555
C16 C17 1_555 1_555

#END
