
#######################################################################
#
#                 Cambridge Crystallographic Data Centre
#                                CCDC 
#
#######################################################################
#
# If this CIF has been generated from an entry in the Cambridge 
# Structural Database, then it will include bibliographic, chemical, 
# crystal, experimental, refinement or atomic coordinate data resulting 
# from the CCDC's data processing and validation procedures.
#
#######################################################################

data_VESTUK
_chemical_formula_moiety         'C22 H15 O1 P1 S1'
_chemical_name_systematic        
2-(1-Oxido-1-phenyl-1H-phosphindol-2-yl)-1-benzothiophene
_symmetry_cell_setting           monoclinic
_symmetry_space_group_name_H-M   'P 21/n'
_symmetry_Int_Tables_number      14
_space_group_name_Hall           '-P 2yn'
loop_
_symmetry_equiv_pos_site_id
_symmetry_equiv_pos_as_xyz
1 x,y,z
2 1/2-x,1/2+y,1/2-z
3 -x,-y,-z
4 1/2+x,1/2-y,1/2+z
_cell_length_a                   11.0892(19)
_cell_length_b                   8.4923(14)
_cell_length_c                   18.655(3)
_cell_angle_alpha                90
_cell_angle_beta                 100.518(2)
_cell_angle_gamma                90
_cell_volume                     1727.28
_exptl_crystal_colour            yellow
_exptl_crystal_description       prism
_cell_formula_units_Z            4
loop_
_atom_site_label
_atom_site_type_symbol
_atom_site_fract_x
_atom_site_fract_y
_atom_site_fract_z
S1 S 0.68698(4) 0.06664(5) 0.59220(2)
P1 P 0.95027(3) 0.16468(4) 0.800427(18)
O1 O 1.00976(9) 0.31910(11) 0.79247(5)
C1 C 0.81554(12) 0.11151(15) 0.73385(7)
C2 C 0.72450(12) 0.06586(16) 0.76898(8)
H1 H 0.6477 0.0284 0.7437
C3 C 0.75303(13) 0.07830(16) 0.84876(8)
C4 C 0.87191(13) 0.13520(16) 0.87564(8)
C5 C 0.91405(15) 0.15386(17) 0.94975(8)
H2 H 0.9943 0.1928 0.9674
C6 C 0.83633(17) 0.1144(2) 0.99804(9)
H3 H 0.8636 0.1273 1.0490
C7 C 0.72003(18) 0.0567(2) 0.97213(10)
H4 H 0.6687 0.0286 1.0057
C8 C 0.67690(15) 0.0389(2) 0.89765(10)
H5 H 0.5964 0.0004 0.8804
C9 C 0.81680(12) 0.11558(16) 0.65670(8)
C10 C 0.91370(14) 0.15734(17) 0.62486(8)
H6 H 0.9915 0.1869 0.6518
C11 C 0.88634(15) 0.15214(17) 0.54694(8)
C12 C 0.76505(16) 0.10286(18) 0.52113(8)
C13 C 0.7187(2) 0.0860(2) 0.44660(9)
H7 H 0.6369 0.0519 0.4297
C14 C 0.7957(2) 0.1204(2) 0.39869(9)
H8 H 0.7662 0.1094 0.3478
C15 C 0.9160(2) 0.1710(2) 0.42285(10)
H9 H 0.9665 0.1949 0.3883
C16 C 0.96257(19) 0.1868(2) 0.49668(10)
H10 H 1.0447 0.2205 0.5130
C17 C 1.05463(11) 0.00083(15) 0.80295(7)
C18 C 1.18002(12) 0.03200(17) 0.81430(7)
H11 H 1.2085 0.1377 0.8180
C19 C 1.26336(13) -0.09138(18) 0.82018(8)
H12 H 1.3488 -0.0700 0.8275
C20 C 1.22218(13) -0.24508(17) 0.81545(8)
H13 H 1.2796 -0.3292 0.8202
C21 C 1.09763(14) -0.27759(17) 0.80381(9)
H14 H 1.0698 -0.3836 0.8002
C22 C 1.01376(13) -0.15495(16) 0.79738(8)
H15 H 0.9284 -0.1770 0.7892
loop_
_geom_bond_atom_site_label_1
_geom_bond_atom_site_label_2
_geom_bond_site_symmetry_1
_geom_bond_site_symmetry_2
S1 C9 1_555 1_555
P1 O1 1_555 1_555
C1 P1 1_555 1_555
C2 C1 1_555 1_555
H1 C2 1_555 1_555
C3 C2 1_555 1_555
C4 P1 1_555 1_555
C5 C4 1_555 1_555
H2 C5 1_555 1_555
C6 C5 1_555 1_555
H3 C6 1_555 1_555
C7 C6 1_555 1_555
H4 C7 1_555 1_555
C8 C3 1_555 1_555
H5 C8 1_555 1_555
C9 C1 1_555 1_555
C10 C9 1_555 1_555
H6 C10 1_555 1_555
C11 C10 1_555 1_555
C12 S1 1_555 1_555
C13 C12 1_555 1_555
H7 C13 1_555 1_555
C14 C13 1_555 1_555
H8 C14 1_555 1_555
C15 C14 1_555 1_555
H9 C15 1_555 1_555
C16 C11 1_555 1_555
H10 C16 1_555 1_555
C17 P1 1_555 1_555
C18 C17 1_555 1_555
H11 C18 1_555 1_555
C19 C18 1_555 1_555
H12 C19 1_555 1_555
C20 C19 1_555 1_555
H13 C20 1_555 1_555
C21 C20 1_555 1_555
H14 C21 1_555 1_555
C22 C17 1_555 1_555
H15 C22 1_555 1_555
C3 C4 1_555 1_555
C7 C8 1_555 1_555
C11 C12 1_555 1_555
C15 C16 1_555 1_555
C21 C22 1_555 1_555

#END
