
#######################################################################
#
#                 Cambridge Crystallographic Data Centre
#                                CCDC 
#
#######################################################################
#
# If this CIF has been generated from an entry in the Cambridge 
# Structural Database, then it will include bibliographic, chemical, 
# crystal, experimental, refinement or atomic coordinate data resulting 
# from the CCDC's data processing and validation procedures.
#
#######################################################################

data_VETGUY01
_chemical_formula_moiety         'C22 H20 N2 P1 1+,C1 F3 O3 S1 1-'
_chemical_name_systematic        
'2-(Diphenylphosphino)-3-methyl-1-phenyl-1H-imidazol-3-ium trifluoromethanesulfonate'
_symmetry_cell_setting           monoclinic
_symmetry_space_group_name_H-M   'P 21/c'
_symmetry_Int_Tables_number      14
_space_group_name_Hall           '-P 2ybc'
loop_
_symmetry_equiv_pos_site_id
_symmetry_equiv_pos_as_xyz
1 x,y,z
2 -x,1/2+y,1/2-z
3 -x,-y,-z
4 x,1/2-y,1/2+z
_cell_length_a                   6.8940(5)
_cell_length_b                   14.3547(12)
_cell_length_c                   23.9280(19)
_cell_angle_alpha                90
_cell_angle_beta                 90.888(2)
_cell_angle_gamma                90
_cell_volume                     2367.66
_exptl_crystal_colour            colorless
_exptl_crystal_description       block
_cell_formula_units_Z            4
loop_
_atom_site_label
_atom_site_type_symbol
_atom_site_fract_x
_atom_site_fract_y
_atom_site_fract_z
P1 P 0.18377(7) 0.76083(3) 0.17812(2)
C1 C 0.0059(3) 0.76409(13) 0.23355(8)
C2 C -0.1894(3) 0.74253(18) 0.22842(11)
H1 H -0.2395 0.7219 0.1943
C3 C -0.3104(4) 0.7515(2) 0.27353(13)
H2 H -0.4411 0.7363 0.2697
C4 C -0.2388(5) 0.78272(19) 0.32389(11)
H3 H -0.3215 0.7905 0.3539
C5 C -0.0456(4) 0.80250(18) 0.33008(10)
H4 H 0.0035 0.8226 0.3644
C6 C 0.0762(3) 0.79268(15) 0.28538(9)
H5 H 0.2077 0.8054 0.2900
C7 C 0.1493(3) 0.87195(14) 0.14181(8)
C8 C 0.0204(4) 0.93968(16) 0.15834(10)
H6 H -0.0668 0.9271 0.1866
C9 C 0.0205(5) 1.02639(19) 0.13293(13)
H7 H -0.0661 1.0719 0.1445
C10 C 0.1454(5) 1.0454(2) 0.09141(14)
H8 H 0.1447 1.1038 0.0745
C11 C 0.2728(5) 0.9786(2) 0.07435(15)
H9 H 0.3572 0.9913 0.0454
C12 C 0.2766(4) 0.89243(17) 0.09994(11)
H10 H 0.3660 0.8479 0.0888
C13 C 0.0577(3) 0.53803(15) 0.08693(9)
H11 H 0.0804 0.4761 0.0776
C14 C -0.0677(3) 0.59545(16) 0.06179(9)
H12 H -0.1493 0.5809 0.0317
C15 C 0.0781(3) 0.67521(13) 0.12959(7)
C16 C 0.2987(3) 0.55266(13) 0.16581(8)
C17 C 0.4698(3) 0.52447(15) 0.14286(10)
H13 H 0.4867 0.5255 0.1044
C18 C -0.1695(4) 0.76123(18) 0.07101(12)
H14 H -0.1379 0.8130 0.0949
H15 H -0.3051 0.7471 0.0739
H16 H -0.1407 0.7769 0.0330
C19 C 0.6163(4) 0.49451(19) 0.17842(12)
H17 H 0.7336 0.4749 0.1638
C20 C 0.5909(4) 0.4934(2) 0.23490(12)
H18 H 0.6918 0.4742 0.2584
C21 C 0.4170(4) 0.52033(18) 0.25724(11)
H19 H 0.4000 0.5187 0.2957
C22 C 0.2683(3) 0.54965(15) 0.22246(9)
H20 H 0.1493 0.5671 0.2370
N1 N 0.1473(2) 0.58730(11) 0.12922(6)
N2 N -0.0547(2) 0.67979(12) 0.08819(7)
S1 S 0.40744(8) 0.66173(4) -0.02323(2)
O1 O 0.3912(2) 0.67491(12) 0.03585(6)
O2 O 0.6014(2) 0.64625(13) -0.04211(7)
F1 F 0.3617(3) 0.78232(15) -0.10474(7)
C23 C 0.3543(4) 0.7775(2) -0.04938(11)
O3 O 0.2616(3) 0.60547(15) -0.04913(9)
F2 F 0.4768(3) 0.83956(12) -0.02832(9)
F3 F 0.1786(3) 0.80380(17) -0.03574(9)
loop_
_geom_bond_atom_site_label_1
_geom_bond_atom_site_label_2
_geom_bond_site_symmetry_1
_geom_bond_site_symmetry_2
P1 C1 1_555 1_555
C1 C2 1_555 1_555
C2 H1 1_555 1_555
C3 C2 1_555 1_555
H2 C3 1_555 1_555
C4 C3 1_555 1_555
H3 C4 1_555 1_555
C5 C4 1_555 1_555
H4 C5 1_555 1_555
C6 C1 1_555 1_555
H5 C6 1_555 1_555
C7 P1 1_555 1_555
C8 C7 1_555 1_555
H6 C8 1_555 1_555
C9 C8 1_555 1_555
H7 C9 1_555 1_555
C10 C9 1_555 1_555
H8 C10 1_555 1_555
C11 C10 1_555 1_555
H9 C11 1_555 1_555
C12 C7 1_555 1_555
H10 C12 1_555 1_555
C13 H11 1_555 1_555
C14 C13 1_555 1_555
H12 C14 1_555 1_555
C15 P1 1_555 1_555
C16 C17 1_555 1_555
C17 H13 1_555 1_555
C18 H14 1_555 1_555
H15 C18 1_555 1_555
H16 C18 1_555 1_555
C19 C17 1_555 1_555
H17 C19 1_555 1_555
C20 C19 1_555 1_555
H18 C20 1_555 1_555
C21 C20 1_555 1_555
H19 C21 1_555 1_555
C22 C16 1_555 1_555
H20 C22 1_555 1_555
N1 C13 1_555 1_555
N2 C14 1_555 1_555
S1 O1 1_555 1_555
O2 S1 1_555 1_555
F1 C23 1_555 1_555
C23 S1 1_555 1_555
O3 S1 1_555 1_555
F2 C23 1_555 1_555
F3 C23 1_555 1_555
C5 C6 1_555 1_555
C11 C12 1_555 1_555
C15 N1 1_555 1_555
C15 N2 1_555 1_555
C16 N1 1_555 1_555
C18 N2 1_555 1_555
C21 C22 1_555 1_555

#END
