
#######################################################################
#
#                 Cambridge Crystallographic Data Centre
#                                CCDC 
#
#######################################################################
#
# If this CIF has been generated from an entry in the Cambridge 
# Structural Database, then it will include bibliographic, chemical, 
# crystal, experimental, refinement or atomic coordinate data resulting 
# from the CCDC's data processing and validation procedures.
#
#######################################################################

data_VETKIP
_chemical_formula_moiety         'C20 H20 O6'
_chemical_name_systematic        
3-acetyl-3-benzyl-5-hydroxy-6,7-dimethoxy-4-methylbenzofuran-2(3H)-one
_symmetry_cell_setting           monoclinic
_symmetry_space_group_name_H-M   'P 21/n'
_symmetry_Int_Tables_number      14
_space_group_name_Hall           '-P 2yn'
loop_
_symmetry_equiv_pos_site_id
_symmetry_equiv_pos_as_xyz
1 x,y,z
2 1/2-x,1/2+y,1/2-z
3 -x,-y,-z
4 1/2+x,1/2-y,1/2+z
_cell_length_a                   9.586(6)
_cell_length_b                   17.189(11)
_cell_length_c                   10.948(7)
_cell_angle_alpha                90
_cell_angle_beta                 95.133(13)
_cell_angle_gamma                90
_cell_volume                     1796.71
_exptl_crystal_colour            colorless
_exptl_crystal_description       platelet
_chemical_melting_point          412K
_cell_formula_units_Z            4
_exptl_crystal_recrystallization_method 'ethyl acetate/petroleum ether'
loop_
_atom_site_label
_atom_site_type_symbol
_atom_site_fract_x
_atom_site_fract_y
_atom_site_fract_z
O1 O 0.68792(17) 0.23518(11) 1.00900(18)
H1 H 0.7443 0.2122 0.9700
O2 O 0.65785(17) 0.10585(10) 0.86968(17)
O3 O 0.38615(19) 0.04552(9) 0.79860(17)
O4 O 0.15472(17) 0.13178(9) 0.87790(16)
O5 O -0.0503(2) 0.18599(11) 0.90643(19)
O6 O 0.1089(3) 0.38319(12) 0.9888(2)
C1 C 0.5556(3) 0.20748(15) 0.9761(2)
C2 C 0.5382(3) 0.14024(14) 0.9056(2)
C3 C 0.4061(3) 0.11134(13) 0.8689(2)
C4 C 0.2957(2) 0.15171(14) 0.9097(2)
C5 C 0.3109(2) 0.21810(14) 0.9798(2)
C6 C 0.4427(3) 0.24956(14) 1.0129(2)
C7 C 0.4647(3) 0.32549(15) 1.0798(3)
H2 H 0.4819 0.3658 1.0223
H3 H 0.5437 0.3211 1.1398
H4 H 0.3825 0.3381 1.1199
C8 C 0.6995(3) 0.03749(17) 0.9385(3)
H5 H 0.7033 0.0489 1.0245
H6 H 0.7903 0.0211 0.9180
H7 H 0.6328 -0.0033 0.9189
C9 C 0.3717(4) 0.05867(18) 0.6716(3)
H8 H 0.3023 0.0981 0.6526
H9 H 0.3433 0.0114 0.6299
H10 H 0.4597 0.0755 0.6454
C10 C 0.0745(3) 0.18778(16) 0.9241(3)
C11 C 0.1651(2) 0.24818(14) 0.9972(2)
C12 C 0.1429(3) 0.32788(17) 0.9324(3)
C13 C 0.1656(3) 0.33305(17) 0.7994(3)
H11 H 0.1108 0.3750 0.7625
H12 H 0.1377 0.2851 0.7595
H13 H 0.2630 0.3424 0.7908
C14 C 0.1218(3) 0.25089(15) 1.1297(3)
H14 H 0.1802 0.2887 1.1757
H15 H 0.0258 0.2691 1.1271
C15 C 0.1324(3) 0.17496(15) 1.1970(3)
C16 C 0.0217(3) 0.12382(19) 1.1933(3)
H16 H -0.0612 0.1363 1.1469
C17 C 0.0308(4) 0.0547(2) 1.2566(3)
H17 H -0.0450 0.0207 1.2518
C18 C 0.1506(5) 0.0360(2) 1.3261(3)
H18 H 0.1559 -0.0102 1.3704
C19 C 0.2638(4) 0.0850(2) 1.3312(3)
H19 H 0.3466 0.0720 1.3775
C20 C 0.2531(3) 0.15398(16) 1.2666(3)
H20 H 0.3299 0.1873 1.2702
loop_
_geom_bond_atom_site_label_1
_geom_bond_atom_site_label_2
_geom_bond_site_symmetry_1
_geom_bond_site_symmetry_2
O1 H1 1_555 1_555
O2 C2 1_555 1_555
O3 C3 1_555 1_555
O4 C4 1_555 1_555
O5 C10 1_555 1_555
O6 C12 1_555 1_555
C1 O1 1_555 1_555
C2 C1 1_555 1_555
C3 C2 1_555 1_555
C4 C3 1_555 1_555
C5 C4 1_555 1_555
C6 C1 1_555 1_555
C7 C6 1_555 1_555
H2 C7 1_555 1_555
H3 C7 1_555 1_555
H4 C7 1_555 1_555
C8 O2 1_555 1_555
H5 C8 1_555 1_555
H6 C8 1_555 1_555
H7 C8 1_555 1_555
C9 O3 1_555 1_555
H8 C9 1_555 1_555
H9 C9 1_555 1_555
H10 C9 1_555 1_555
C10 O4 1_555 1_555
C11 C5 1_555 1_555
C12 C11 1_555 1_555
C13 C12 1_555 1_555
H11 C13 1_555 1_555
H12 C13 1_555 1_555
H13 C13 1_555 1_555
C14 C11 1_555 1_555
H14 C14 1_555 1_555
H15 C14 1_555 1_555
C15 C14 1_555 1_555
C16 C15 1_555 1_555
H16 C16 1_555 1_555
C17 C16 1_555 1_555
H17 C17 1_555 1_555
C18 C17 1_555 1_555
H18 C18 1_555 1_555
C19 C18 1_555 1_555
H19 C19 1_555 1_555
C20 C15 1_555 1_555
H20 C20 1_555 1_555
C5 C6 1_555 1_555
C10 C11 1_555 1_555
C19 C20 1_555 1_555

#END
