
#######################################################################
#
#                 Cambridge Crystallographic Data Centre
#                                CCDC 
#
#######################################################################
#
# If this CIF has been generated from an entry in the Cambridge 
# Structural Database, then it will include bibliographic, chemical, 
# crystal, experimental, refinement or atomic coordinate data resulting 
# from the CCDC's data processing and validation procedures.
#
#######################################################################

data_VETPOZ
_chemical_formula_moiety         'C22 H26 Ba1 Cl2 N6 O8'
_chemical_name_systematic        
(8,12;21,25-Dinitrilo-1,6,14,19-tetra-azacyclohexacosa-1(26),6,8,10,13,19,22,24-octaene)-(perchlorato-O,O')-(perchlorato-O)-barium
_symmetry_cell_setting           orthorhombic
_symmetry_space_group_name_H-M   'P 21 c n'
_symmetry_Int_Tables_number      33
_space_group_name_Hall           'P -2n 2a'
loop_
_symmetry_equiv_pos_site_id
_symmetry_equiv_pos_as_xyz
1 x,y,z
2 x,1/2-y,1/2+z
3 1/2+x,1/2+y,1/2-z
4 1/2+x,-y,-z
_cell_length_a                   11.80(1)
_cell_length_b                   13.22(1)
_cell_length_c                   17.57(2)
_cell_angle_alpha                90
_cell_angle_beta                 90
_cell_angle_gamma                90
_cell_volume                     2740.85
_exptl_crystal_colour            white
_cell_formula_units_Z            4
loop_
_atom_site_label
_atom_site_type_symbol
_atom_site_fract_x
_atom_site_fract_y
_atom_site_fract_z
Ba1 Ba 0.5000 -0.2722(1) 0.3763(1)
N1 N 0.5462(14) -0.3260(14) 0.5292(9)
C1 C 0.6517(18) -0.3214(18) 0.5600(12)
C2 C 0.6869(25) -0.3725(19) 0.6203(13)
C3 C 0.6022(28) -0.4226(21) 0.6674(16)
C4 C 0.4943(35) -0.4319(19) 0.6403(9)
C5 C 0.4725(19) -0.3828(18) 0.5738(13)
C6 C 0.3544(18) -0.3888(20) 0.5354(18)
N2 N 0.3312(17) -0.3493(12) 0.4782(12)
C7 C 0.2135(16) -0.3556(27) 0.4489(17)
C8 C 0.1404(15) -0.2649(17) 0.4611(18)
C9 C 0.1829(17) -0.1804(20) 0.4179(18)
C10 C 0.1883(27) -0.1631(25) 0.3391(17)
N3 N 0.2872(29) -0.2170(21) 0.3035(17)
C11 C 0.2717(34) -0.2672(27) 0.2399(27)
C12 C 0.3525(23) -0.3201(20) 0.1886(18)
C13 C 0.3255(33) -0.3628(25) 0.1179(16)
C14 C 0.4047(39) -0.4040(22) 0.0823(21)
C15 C 0.5151(47) -0.4090(18) 0.1065(14)
N4 N 0.4564(17) -0.3233(12) 0.2169(13)
C16 C 0.5425(27) -0.3679(16) 0.1773(15)
C17 C 0.6491(27) -0.3674(24) 0.2109(13)
N5 N 0.6762(15) -0.3312(17) 0.2789(12)
C18 C 0.7911(26) -0.3621(22) 0.3043(20)
C19 C 0.8612(42) -0.2483(56) 0.3064(24)
C20 C 0.8050(24) -0.1551(39) 0.3303(24)
C21 C 0.7975(28) -0.1598(24) 0.4220(22)
N6 N 0.7185(13) -0.2339(13) 0.4509(11)
C22 C 0.7407(20) -0.2589(16) 0.5183(17)
Cl1 Cl 0.5152(10) -0.5418(3) 0.3698(4)
O1 O 0.4226(18) -0.4806(13) 0.3390(13)
O2 O 0.5867(18) -0.4732(13) 0.4084(12)
O3 O 0.4616(21) -0.6099(20) 0.4233(17)
O4 O 0.5693(33) -0.5909(27) 0.3121(17)
Cl2 Cl 0.4889(10) 0.0207(3) 0.3767(3)
O5 O 0.3787(18) 0.0578(19) 0.3980(14)
O6 O 0.5443(29) 0.0839(26) 0.3242(19)
O7 O 0.4603(26) -0.0649(23) 0.3287(18)
O8 O 0.5508(38) -0.0179(39) 0.4359(21)
H1 H 0.7649(25) -0.3769(19) 0.6330(13)
H2 H 0.6218(28) -0.4472(21) 0.7165(16)
H3 H 0.4381(35) -0.4708(19) 0.6656(9)
H4 H 0.2972(18) -0.4289(20) 0.5586(18)
H5 H 0.2178(16) -0.3703(27) 0.3960(17)
H6 H 0.1776(16) -0.4100(27) 0.4746(17)
H7 H 0.1379(15) -0.2484(17) 0.5137(18)
H8 H 0.0660(15) -0.2796(17) 0.4436(18)
H9 H 0.1382(17) -0.1257(20) 0.4361(18)
H10 H 0.2585(17) -0.1731(20) 0.4356(18)
H11 H 0.1196(27) -0.1836(25) 0.3156(17)
H12 H 0.1997(27) -0.0928(25) 0.3309(17)
H13 H 0.1963(24) -0.2653(27) 0.2210(27)
H14 H 0.2516(33) -0.3579(25) 0.0967(16)
H15 H 0.3885(39) -0.4387(22) 0.0363(21)
H16 H 0.5731(47) -0.4385(18) 0.0763(14)
H17 H 0.7088(27) -0.3978(24) 0.1828(13)
H18 H 0.7902(26) -0.3899(22) 0.3541(20)
H19 H 0.8239(26) -0.4093(22) 0.2700(20)
H20 H 0.8822(42) -0.2360(56) 0.2550(24)
H21 H 0.9275(42) -0.2584(56) 0.3362(24)
H22 H 0.8484(24) -0.0978(39) 0.3156(24)
H23 H 0.7308(24) -0.1497(39) 0.3096(24)
H24 H 0.7795(28) -0.0943(24) 0.4407(22)
H25 H 0.8699(28) -0.1795(24) 0.4404(22)
H26 H 0.8109(20) -0.2420(16) 0.5415(17)
O9? O 0.5139(39) 0.0717(31) 0.3072(19)
O10? O 0.4820(37) -0.0782(20) 0.3810(22)
O11? O 0.5673(29) 0.0584(33) 0.4335(20)
loop_
_geom_bond_atom_site_label_1
_geom_bond_atom_site_label_2
_geom_bond_site_symmetry_1
_geom_bond_site_symmetry_2
Ba1 N1 1_555 1_555
N1 C1 1_555 1_555
C1 C2 1_555 1_555
C2 C3 1_555 1_555
C3 C4 1_555 1_555
C4 C5 1_555 1_555
C5 N1 1_555 1_555
C6 C5 1_555 1_555
N2 Ba1 1_555 1_555
C7 N2 1_555 1_555
C8 C7 1_555 1_555
C9 C8 1_555 1_555
C10 C9 1_555 1_555
N3 Ba1 1_555 1_555
C11 N3 1_555 1_555
C12 C11 1_555 1_555
C13 C12 1_555 1_555
C14 C13 1_555 1_555
C15 C14 1_555 1_555
N4 Ba1 1_555 1_555
C16 C15 1_555 1_555
C17 C16 1_555 1_555
N5 Ba1 1_555 1_555
C18 N5 1_555 1_555
C19 C18 1_555 1_555
C20 C19 1_555 1_555
C21 C20 1_555 1_555
N6 Ba1 1_555 1_555
C22 C1 1_555 1_555
Cl1 O1 1_555 1_555
O1 Ba1 1_555 1_555
O2 Ba1 1_555 1_555
O3 Cl1 1_555 1_555
O4 Cl1 1_555 1_555
Cl2 O5 1_555 1_555
O6 Cl2 1_555 1_555
O7 Ba1 1_555 1_555
O8 Cl2 1_555 1_555
H1 C2 1_555 1_555
H2 C3 1_555 1_555
H3 C4 1_555 1_555
H4 C6 1_555 1_555
H5 C7 1_555 1_555
H6 C7 1_555 1_555
H7 C8 1_555 1_555
H8 C8 1_555 1_555
H9 C9 1_555 1_555
H10 C9 1_555 1_555
H11 C10 1_555 1_555
H12 C10 1_555 1_555
H13 C11 1_555 1_555
H14 C13 1_555 1_555
H15 C14 1_555 1_555
H16 C15 1_555 1_555
H17 C17 1_555 1_555
H18 C18 1_555 1_555
H19 C18 1_555 1_555
H20 C19 1_555 1_555
H21 C19 1_555 1_555
H22 C20 1_555 1_555
H23 C20 1_555 1_555
H24 C21 1_555 1_555
H25 C21 1_555 1_555
H26 C22 1_555 1_555
C6 N2 1_555 1_555
C10 N3 1_555 1_555
C12 N4 1_555 1_555
N4 C16 1_555 1_555
C17 N5 1_555 1_555
C21 N6 1_555 1_555
N6 C22 1_555 1_555
Cl1 O2 1_555 1_555
Cl2 O7 1_555 1_555

#END
