
#######################################################################
#
#                 Cambridge Crystallographic Data Centre
#                                CCDC 
#
#######################################################################
#
# If this CIF has been generated from an entry in the Cambridge 
# Structural Database, then it will include bibliographic, chemical, 
# crystal, experimental, refinement or atomic coordinate data resulting 
# from the CCDC's data processing and validation procedures.
#
#######################################################################

data_VETQET
_chemical_formula_moiety         'C19 H13 N1 O3'
_chemical_name_systematic        2-(naphthalen-2-yl)-3-nitro-2H-1-benzopyran
_symmetry_cell_setting           triclinic
_symmetry_space_group_name_H-M   'P -1'
_symmetry_Int_Tables_number      2
_space_group_name_Hall           '-P 1'
loop_
_symmetry_equiv_pos_site_id
_symmetry_equiv_pos_as_xyz
1 x,y,z
2 -x,-y,-z
_cell_length_a                   9.4457(6)
_cell_length_b                   11.0520(7)
_cell_length_c                   14.6746(9)
_cell_angle_alpha                100.7790(10)
_cell_angle_beta                 102.7380(10)
_cell_angle_gamma                93.0650(10)
_cell_volume                     1460.68
_exptl_crystal_colour            colorless
_exptl_crystal_description       block
_cell_formula_units_Z            4
loop_
_atom_site_label
_atom_site_type_symbol
_atom_site_fract_x
_atom_site_fract_y
_atom_site_fract_z
N1 N 0.24900(15) 0.32046(12) 0.38101(10)
O1 O 0.28085(14) 0.25661(11) 0.44079(9)
O2 O 0.12406(14) 0.32387(14) 0.33560(11)
O3 O 0.42326(11) 0.57580(9) 0.29709(8)
C1 C 0.26524(15) 0.40583(13) 0.18647(10)
C2 C 0.13272(17) 0.42842(16) 0.12885(13)
H1 H 0.0742 0.4835 0.1549
C3 C 0.08978(19) 0.37035(17) 0.03552(14)
H2 H 0.0014 0.3856 -0.0010
C4 C 0.17596(19) 0.28805(16) -0.00671(11)
C5 C 0.1348(3) 0.2270(2) -0.10422(14)
H3 H 0.0470 0.2410 -0.1422
C6 C 0.2215(3) 0.1489(2) -0.14254(14)
H4 H 0.1933 0.1105 -0.2067
C7 C 0.3527(3) 0.1257(2) -0.08672(15)
H5 H 0.4115 0.0719 -0.1139
C8 C 0.3958(2) 0.18126(18) 0.00761(13)
H6 H 0.4833 0.1643 0.0443
C9 C 0.30899(17) 0.26403(15) 0.04991(11)
C10 C 0.34958(16) 0.32444(14) 0.14722(10)
H7 H 0.4361 0.3082 0.1854
C11 C 0.31119(15) 0.47606(13) 0.28858(10)
H8 H 0.2260 0.5141 0.3045
C12 C 0.36282(16) 0.39791(13) 0.36058(10)
C13 C 0.50148(16) 0.39386(13) 0.40246(10)
H9 H 0.5269 0.3425 0.4457
C14 C 0.61299(16) 0.47066(13) 0.37989(10)
C15 C 0.76196(17) 0.46305(15) 0.41221(11)
H10 H 0.7937 0.4059 0.4495
C16 C 0.86248(18) 0.54007(16) 0.38910(12)
H11 H 0.9618 0.5351 0.4109
C17 C 0.81502(19) 0.62473(16) 0.33333(13)
H12 H 0.8831 0.6764 0.3179
C18 C 0.66815(18) 0.63365(14) 0.30024(11)
H13 H 0.6373 0.6902 0.2622
C19 C 0.56747(16) 0.55759(12) 0.32433(10)
N2 N 0.24749(15) 0.81438(12) 0.38340(9)
O4 O 0.12219(14) 0.82197(14) 0.34006(10)
O5 O 0.27881(14) 0.74394(11) 0.43849(9)
O6 O 0.42530(11) 1.08039(9) 0.31461(8)
C20 C 0.27822(15) 0.91593(13) 0.19336(10)
C21 C 0.20709(17) 0.98466(15) 0.12736(12)
H14 H 0.1788 1.0619 0.1495
C22 C 0.17998(18) 0.93853(17) 0.03189(12)
H15 H 0.1339 0.9851 -0.0104
C23 C 0.22040(17) 0.82141(16) -0.00415(11)
C24 C 0.1960(2) 0.7712(2) -0.10332(12)
H16 H 0.1519 0.8167 -0.1471
C25 C 0.2360(2) 0.6580(2) -0.13518(13)
H17 H 0.2196 0.6270 -0.2005
C26 C 0.3019(2) 0.58723(19) -0.07083(14)
H18 H 0.3281 0.5094 -0.0935
C27 C 0.32780(19) 0.63241(16) 0.02557(12)
H19 H 0.3716 0.5849 0.0679
C28 C 0.28855(16) 0.75060(14) 0.06116(10)
C29 C 0.31635(15) 0.80138(13) 0.16038(10)
H20 H 0.3614 0.7557 0.2038
C30 C 0.31370(15) 0.97723(13) 0.29786(10)
H21 H 0.2254 1.0113 0.3120
C31 C 0.36229(16) 0.89311(13) 0.36583(10)
C32 C 0.50095(16) 0.88535(13) 0.40550(9)
H22 H 0.5260 0.8301 0.4456
C33 C 0.61304(15) 0.96414(13) 0.38553(9)
C34 C 0.76176(16) 0.95318(15) 0.41492(10)
H23 H 0.7928 0.8912 0.4475
C35 C 0.86328(17) 1.03392(16) 0.39596(11)
H24 H 0.9624 1.0265 0.4158
C36 C 0.81691(18) 1.12585(15) 0.34729(11)
H25 H 0.8855 1.1802 0.3349
C37 C 0.67039(17) 1.13794(14) 0.31694(11)
H26 H 0.6402 1.1991 0.2834
C38 C 0.56868(15) 1.05810(12) 0.33689(10)
loop_
_geom_bond_atom_site_label_1
_geom_bond_atom_site_label_2
_geom_bond_site_symmetry_1
_geom_bond_site_symmetry_2
N1 O1 1_555 1_555
O2 N1 1_555 1_555
O3 C11 1_555 1_555
C1 C2 1_555 1_555
C2 H1 1_555 1_555
C3 C2 1_555 1_555
H2 C3 1_555 1_555
C4 C3 1_555 1_555
C5 C4 1_555 1_555
H3 C5 1_555 1_555
C6 C5 1_555 1_555
H4 C6 1_555 1_555
C7 C6 1_555 1_555
H5 C7 1_555 1_555
C8 C7 1_555 1_555
H6 C8 1_555 1_555
C9 C4 1_555 1_555
C10 C1 1_555 1_555
H7 C10 1_555 1_555
C11 C1 1_555 1_555
H8 C11 1_555 1_555
C12 N1 1_555 1_555
C13 C12 1_555 1_555
H9 C13 1_555 1_555
C14 C13 1_555 1_555
C15 C14 1_555 1_555
H10 C15 1_555 1_555
C16 C15 1_555 1_555
H11 C16 1_555 1_555
C17 C16 1_555 1_555
H12 C17 1_555 1_555
C18 C17 1_555 1_555
H13 C18 1_555 1_555
C19 O3 1_555 1_555
N2 O4 1_555 1_555
O5 N2 1_555 1_555
O6 C30 1_555 1_555
C20 C21 1_555 1_555
C21 H14 1_555 1_555
C22 C21 1_555 1_555
H15 C22 1_555 1_555
C23 C22 1_555 1_555
C24 C23 1_555 1_555
H16 C24 1_555 1_555
C25 C24 1_555 1_555
H17 C25 1_555 1_555
C26 C25 1_555 1_555
H18 C26 1_555 1_555
C27 C26 1_555 1_555
H19 C27 1_555 1_555
C28 C23 1_555 1_555
C29 C20 1_555 1_555
H20 C29 1_555 1_555
C30 C20 1_555 1_555
H21 C30 1_555 1_555
C31 N2 1_555 1_555
C32 C31 1_555 1_555
H22 C32 1_555 1_555
C33 C32 1_555 1_555
C34 C33 1_555 1_555
H23 C34 1_555 1_555
C35 C34 1_555 1_555
H24 C35 1_555 1_555
C36 C35 1_555 1_555
H25 C36 1_555 1_555
C37 C36 1_555 1_555
H26 C37 1_555 1_555
C38 O6 1_555 1_555
C8 C9 1_555 1_555
C9 C10 1_555 1_555
C11 C12 1_555 1_555
C14 C19 1_555 1_555
C18 C19 1_555 1_555
C27 C28 1_555 1_555
C28 C29 1_555 1_555
C30 C31 1_555 1_555
C33 C38 1_555 1_555
C37 C38 1_555 1_555

#END
