
#######################################################################
#
#                 Cambridge Crystallographic Data Centre
#                                CCDC 
#
#######################################################################
#
# If this CIF has been generated from an entry in the Cambridge 
# Structural Database, then it will include bibliographic, chemical, 
# crystal, experimental, refinement or atomic coordinate data resulting 
# from the CCDC's data processing and validation procedures.
#
#######################################################################

data_VEVJOV
_chemical_formula_moiety         'C7 H10 O2,0.167(C6 H6)'
_chemical_name_systematic        
'hexakis(5-Methyl-1,3-cyclohexanedione) benzene clathrate'
_symmetry_cell_setting           rhombohedral
_symmetry_space_group_name_H-M   'R -3'
_symmetry_Int_Tables_number      148
_space_group_name_Hall           '-R 3'
loop_
_symmetry_equiv_pos_site_id
_symmetry_equiv_pos_as_xyz
1 x,y,z
2 1/3+x,2/3+y,2/3+z
3 2/3+x,1/3+y,1/3+z
4 -y,x-y,z
5 -x+y,-x,z
6 1/3-y,2/3+x-y,2/3+z
7 1/3-x+y,2/3-x,2/3+z
8 2/3-y,1/3+x-y,1/3+z
9 2/3-x+y,1/3-x,1/3+z
10 -x,-y,-z
11 2/3-x,1/3-y,1/3-z
12 1/3-x,2/3-y,2/3-z
13 y,-x+y,-z
14 x-y,x,-z
15 2/3+y,1/3-x+y,1/3-z
16 2/3+x-y,1/3+x,1/3-z
17 1/3+y,2/3-x+y,2/3-z
18 1/3+x-y,2/3+x,2/3-z
_cell_length_a                   19.19(2)
_cell_length_b                   19.19(2)
_cell_length_c                   10.545(9)
_cell_angle_alpha                90
_cell_angle_beta                 90
_cell_angle_gamma                120
_cell_volume                     3363
_cell_formula_units_Z            18
loop_
_atom_site_label
_atom_site_type_symbol
_atom_site_fract_x
_atom_site_fract_y
_atom_site_fract_z
C1 C -0.0208(2) 0.3394(2) 0.0195(3)
C2 C -0.0571(2) 0.2587(2) 0.0202(4)
C3 C -0.1415(2) 0.2104(2) 0.0099(3)
C4 C -0.1901(2) 0.2513(2) 0.0046(4)
C5 C -0.1498(3) 0.3345(3) 0.0555(5)
C7 C -0.0664(2) 0.3839(2) 0.0144(3)
O1 O 0.0588(1) 0.3879(1) 0.0209(3)
O2 O -0.1746(1) 0.1357(1) 0.0028(3)
C8 C -0.1948(4) 0.3770(4) 0.0235(7)
H1 H 0.092(2) 0.350(2) 0.010(4)
H2 H -0.0254 0.2336 0.0278
H3 H -0.2378 0.2200 0.0523
H4 H -0.2036 0.2531 -0.0813
H7 H -0.1499 0.3270 0.1443
H9 H -0.0657 0.4010 -0.0701
H10 H -0.0405 0.4295 0.0684
H13 H -0.1657 0.4298 0.0603
H14 H -0.1983 0.3801 -0.0633
H15 H -0.2463 0.3486 0.0621
C10 C 0.0447(2) -0.0382(2) -0.0001(4)
H19 H 0.0756 -0.0644 -0.0002
C10L C -0.0382(2) -0.0829(3) 0.0001(4)
C10M C 0.0829(3) 0.0447(2) 0.0001(4)
C10D C -0.0829(3) -0.0447(2) -0.0001(4)
H19L H -0.0644 -0.1400 0.0002
C10C C 0.0382(2) 0.0829(3) -0.0001(4)
H19M H 0.1400 0.0756 0.0002
C10I C -0.0447(2) 0.0382(2) 0.0001(4)
H19D H -0.1400 -0.0756 -0.0002
H19C H 0.0644 0.1400 -0.0002
H19I H -0.0756 0.0644 0.0002
C6? C -0.1552(5) 0.3314(5) -0.0302(8)
C9? C -0.2065(8) 0.3702(8) -0.018(1)
H5? H -0.2114 0.2474 0.0873
H6? H -0.2327 0.2215 -0.0532
H8? H -0.1532 0.3284 -0.1206
H11? H -0.0393 0.4279 -0.0421
H12? H -0.0666 0.4035 0.0971
H16? H -0.1753 0.4258 -0.0416
H17? H -0.2530 0.3437 -0.0633
H18? H -0.2190 0.3698 0.0726
loop_
_geom_bond_atom_site_label_1
_geom_bond_atom_site_label_2
_geom_bond_site_symmetry_1
_geom_bond_site_symmetry_2
C1 C2 1_555 1_555
C2 C3 1_555 1_555
C3 C4 1_555 1_555
C4 C5 1_555 1_555
C5 C7 1_555 1_555
C7 C1 1_555 1_555
O1 C1 1_555 1_555
O2 C3 1_555 1_555
C8 C5 1_555 1_555
C10 H19 1_555 1_555
H1 O1 1_555 1_555
H2 C2 1_555 1_555
H3 C4 1_555 1_555
H4 C4 1_555 1_555
H7 C5 1_555 1_555
H9 C7 1_555 1_555
H10 C7 1_555 1_555
H13 C8 1_555 1_555
H14 C8 1_555 1_555
H15 C8 1_555 1_555
C10L C10 1_555 1_555
C10M C10 1_555 1_555
C10D C10L 1_555 1_555
H19L C10L 1_555 1_555
C10C C10M 1_555 1_555
H19M C10M 1_555 1_555
C10I C10D 1_555 1_555
H19D C10D 1_555 1_555
H19C C10C 1_555 1_555
H19I C10I 1_555 1_555
C10C C10I 1_555 1_555

#END
