
#######################################################################
#
#                 Cambridge Crystallographic Data Centre
#                                CCDC 
#
#######################################################################
#
# If this CIF has been generated from an entry in the Cambridge 
# Structural Database, then it will include bibliographic, chemical, 
# crystal, experimental, refinement or atomic coordinate data resulting 
# from the CCDC's data processing and validation procedures.
#
#######################################################################

data_VEVWIF
_chemical_formula_moiety         'C27 H29 N3 O3 S1'
_chemical_name_systematic        
4-methyl-N-[1,4',5'-trimethyl-3'-(4-methylphenyl)spiro[indole-3,2'-[1,3]oxazolidin]-2(1H)-ylidene]benzene-1-sulfonamide
_symmetry_cell_setting           triclinic
_symmetry_space_group_name_H-M   'P -1'
_symmetry_Int_Tables_number      2
_space_group_name_Hall           '-P 1'
loop_
_symmetry_equiv_pos_site_id
_symmetry_equiv_pos_as_xyz
1 x,y,z
2 -x,-y,-z
_cell_length_a                   11.0863(10)
_cell_length_b                   11.6603(10)
_cell_length_c                   11.8746(10)
_cell_angle_alpha                109.645(8)
_cell_angle_beta                 100.679(7)
_cell_angle_gamma                113.710(8)
_cell_volume                     1228.83
_exptl_crystal_colour            yellow
_exptl_crystal_description       block
_cell_formula_units_Z            2
loop_
_atom_site_label
_atom_site_type_symbol
_atom_site_fract_x
_atom_site_fract_y
_atom_site_fract_z
S1 S 0.38094(6) 0.36017(6) 0.15521(5)
O1 O 0.62545(15) 0.24951(15) 0.27245(14)
O2 O 0.51009(16) 0.45394(17) 0.15018(16)
O3 O 0.36794(16) 0.39419(16) 0.27868(14)
N1 N 0.34204(19) -0.00633(19) 0.03434(17)
N2 N 0.46338(18) 0.22586(19) 0.36739(17)
N3 N 0.34644(19) 0.20056(19) 0.07842(17)
C1 C 0.5294(2) -0.0280(2) 0.3001(2)
H1 H 0.579567 0.032075 0.389930
C2 C 0.5157(2) -0.1610(2) 0.2444(2)
H2 H 0.556832 -0.192402 0.296285
C3 C 0.4422(2) -0.2468(2) 0.1135(2)
H3 H 0.435118 -0.336335 0.076598
C4 C 0.3785(2) -0.2064(2) 0.0343(2)
H4 H 0.327416 -0.266481 -0.055490
C5 C 0.3926(2) -0.0750(2) 0.0918(2)
C6 C 0.4690(2) 0.0139(2) 0.2227(2)
C7 C 0.4839(2) 0.1574(2) 0.2531(2)
C8 C 0.3840(2) 0.1265(2) 0.1204(2)
C9 C 0.6724(2) 0.3886(2) 0.3720(2)
H5 H 0.641176 0.440313 0.332539
C10 C 0.5931(2) 0.3586(2) 0.4594(2)
H6 H 0.568751 0.433541 0.495012
C11 C 0.8322(2) 0.4646(3) 0.4284(2)
H7 H 0.867709 0.555780 0.501988
H8 H 0.869596 0.479406 0.362871
H9 H 0.863097 0.407898 0.457093
C12 C 0.6711(3) 0.3446(3) 0.5692(2)
H10 H 0.606015 0.306848 0.609608
H11 H 0.751194 0.437346 0.633200
H12 H 0.706370 0.280695 0.535475
C13 C 0.3324(2) 0.1843(2) 0.3807(2)
C14 C 0.2071(2) 0.0668(2) 0.2826(2)
H13 H 0.211210 0.008466 0.206874
C15 C 0.0773(2) 0.0347(3) 0.2951(2)
H14 H -0.006209 -0.044528 0.226238
C16 C 0.0647(2) 0.1140(3) 0.4042(2)
C17 C 0.1914(3) 0.2255(3) 0.5042(2)
H15 H 0.187565 0.278674 0.582668
C18 C 0.3219(2) 0.2614(2) 0.4935(2)
H16 H 0.405274 0.339217 0.563515
C19 C -0.0770(3) 0.0813(3) 0.4160(3)
H17 H -0.070366 0.091327 0.502596
H18 H -0.148662 -0.015481 0.351970
H19 H -0.104303 0.146662 0.401082
C20 C 0.2382(2) 0.3507(2) 0.0498(2)
C21 C 0.2517(2) 0.3729(2) -0.0549(2)
H20 H 0.337359 0.394102 -0.070346
C22 C 0.1384(3) 0.3638(2) -0.1377(2)
H21 H 0.147437 0.379919 -0.209735
C23 C 0.0122(3) 0.3319(2) -0.1175(2)
C24 C 0.0020(2) 0.3102(3) -0.0111(2)
H22 H -0.083891 0.288337 0.004028
C25 C 0.1136(2) 0.3195(2) 0.0738(2)
H23 H 0.105242 0.304907 0.146724
C26 C -0.1126(3) 0.3164(3) -0.2113(3)
H24 H -0.079239 0.364074 -0.262453
H25 H -0.159441 0.358664 -0.163689
H26 H -0.180040 0.216238 -0.268633
C27 C 0.2512(2) -0.0693(2) -0.0999(2)
H27 H 0.154422 -0.091343 -0.105828
H28 H 0.250659 -0.155907 -0.149368
H29 H 0.287403 -0.002924 -0.134895
loop_
_geom_bond_atom_site_label_1
_geom_bond_atom_site_label_2
_geom_bond_site_symmetry_1
_geom_bond_site_symmetry_2
S1 O2 1_555 1_555
O1 C7 1_555 1_555
O3 S1 1_555 1_555
N1 C5 1_555 1_555
N2 C7 1_555 1_555
N3 S1 1_555 1_555
C1 H1 1_555 1_555
C2 C1 1_555 1_555
H2 C2 1_555 1_555
C3 C2 1_555 1_555
H3 C3 1_555 1_555
C4 C3 1_555 1_555
H4 C4 1_555 1_555
C5 C4 1_555 1_555
C6 C1 1_555 1_555
C7 C6 1_555 1_555
C8 N1 1_555 1_555
C9 O1 1_555 1_555
H5 C9 1_555 1_555
C10 N2 1_555 1_555
H6 C10 1_555 1_555
C11 C9 1_555 1_555
H7 C11 1_555 1_555
H8 C11 1_555 1_555
H9 C11 1_555 1_555
C12 C10 1_555 1_555
H10 C12 1_555 1_555
H11 C12 1_555 1_555
H12 C12 1_555 1_555
C13 N2 1_555 1_555
C14 C13 1_555 1_555
H13 C14 1_555 1_555
C15 C14 1_555 1_555
H14 C15 1_555 1_555
C16 C15 1_555 1_555
C17 C16 1_555 1_555
H15 C17 1_555 1_555
C18 C13 1_555 1_555
H16 C18 1_555 1_555
C19 C16 1_555 1_555
H17 C19 1_555 1_555
H18 C19 1_555 1_555
H19 C19 1_555 1_555
C20 S1 1_555 1_555
C21 C20 1_555 1_555
H20 C21 1_555 1_555
C22 C21 1_555 1_555
H21 C22 1_555 1_555
C23 C22 1_555 1_555
C24 C23 1_555 1_555
H22 C24 1_555 1_555
C25 C20 1_555 1_555
H23 C25 1_555 1_555
C26 C23 1_555 1_555
H24 C26 1_555 1_555
H25 C26 1_555 1_555
H26 C26 1_555 1_555
C27 N1 1_555 1_555
H27 C27 1_555 1_555
H28 C27 1_555 1_555
H29 C27 1_555 1_555
N3 C8 1_555 1_555
C5 C6 1_555 1_555
C7 C8 1_555 1_555
C9 C10 1_555 1_555
C17 C18 1_555 1_555
C24 C25 1_555 1_555

#END
