
#######################################################################
#
#                 Cambridge Crystallographic Data Centre
#                                CCDC 
#
#######################################################################
#
# If this CIF has been generated from an entry in the Cambridge 
# Structural Database, then it will include bibliographic, chemical, 
# crystal, experimental, refinement or atomic coordinate data resulting 
# from the CCDC's data processing and validation procedures.
#
#######################################################################

data_VEWBIL
_chemical_formula_moiety         'C27 H19 N1 O1,C1 H4 O1'
_chemical_name_systematic        
"2'-(quinolin-2-yl)-1,1':3',1''-terphenyl-5'-ol methanol solvate"
_symmetry_cell_setting           monoclinic
_symmetry_space_group_name_H-M   'P 21/c'
_symmetry_Int_Tables_number      14
_space_group_name_Hall           '-P 2ybc'
loop_
_symmetry_equiv_pos_site_id
_symmetry_equiv_pos_as_xyz
1 x,y,z
2 -x,1/2+y,1/2-z
3 -x,-y,-z
4 x,1/2-y,1/2+z
_cell_length_a                   10.426(2)
_cell_length_b                   12.933(3)
_cell_length_c                   16.851(4)
_cell_angle_alpha                90
_cell_angle_beta                 100.581(3)
_cell_angle_gamma                90
_cell_volume                     2233.54
_exptl_crystal_colour            'light yellow'
_exptl_crystal_description       block
_cell_formula_units_Z            4
loop_
_atom_site_label
_atom_site_type_symbol
_atom_site_fract_x
_atom_site_fract_y
_atom_site_fract_z
O1 O 0.26014(9) 0.53997(8) 0.23191(7)
H1 H 0.2714 0.4828 0.2531
N1 N 0.74016(10) 0.72417(8) 0.08350(6)
C1 C 0.84204(12) 0.74027(10) 0.04334(8)
C2 C 0.90963(14) 0.83515(12) 0.05389(10)
H2 H 0.8827 0.8866 0.0857
C3 C 1.01440(17) 0.85159(14) 0.01752(12)
H3 H 1.0589 0.9142 0.0253
C4 C 1.05606(17) 0.77574(15) -0.03139(11)
H4 H 1.1281 0.7880 -0.0554
C5 C 0.99157(16) 0.68438(14) -0.04390(10)
H5 H 1.0191 0.6347 -0.0770
C6 C 0.88275(13) 0.66396(11) -0.00698(8)
C7 C 0.81091(15) 0.57128(12) -0.01773(9)
H6 H 0.8332 0.5199 -0.0513
C8 C 0.70918(14) 0.55708(11) 0.02100(8)
H7 H 0.6607 0.4963 0.0136
C9 C 0.67729(12) 0.63534(10) 0.07272(7)
C10 C 0.56971(12) 0.61623(10) 0.11870(7)
C11 C 0.45348(12) 0.67465(10) 0.10512(7)
C12 C 0.43009(12) 0.76559(10) 0.04962(8)
C13 C 0.45424(15) 0.76370(12) -0.02881(9)
H8 H 0.4915 0.7054 -0.0475
C14 C 0.42316(17) 0.84813(14) -0.07927(10)
H9 H 0.4391 0.8457 -0.1318
C15 C 0.36923(16) 0.93519(13) -0.05265(11)
H10 H 0.3488 0.9916 -0.0869
C16 C 0.34558(15) 0.93884(12) 0.02463(11)
H11 H 0.3096 0.9980 0.0430
C17 C 0.37515(14) 0.85476(11) 0.07543(9)
H12 H 0.3581 0.8578 0.1276
C18 C 0.35225(12) 0.64701(10) 0.14470(8)
H13 H 0.2749 0.6846 0.1352
C19 C 0.36496(12) 0.56470(10) 0.19783(8)
C20 C 0.48176(12) 0.51130(11) 0.21497(8)
H14 H 0.4919 0.4586 0.2532
C21 C 0.58438(12) 0.53538(10) 0.17572(8)
C22 C 0.70842(12) 0.47560(11) 0.19862(8)
C23 C 0.82951(14) 0.52374(13) 0.21756(9)
H15 H 0.8349 0.5954 0.2151
C24 C 0.94230(15) 0.46583(16) 0.24004(11)
H16 H 1.0226 0.4990 0.2528
C25 C 0.93618(16) 0.35972(16) 0.24361(10)
H17 H 1.0122 0.3212 0.2583
C26 C 0.81785(16) 0.31106(14) 0.22553(10)
H18 H 0.8133 0.2393 0.2279
C27 C 0.70506(14) 0.36863(12) 0.20378(9)
H19 H 0.6251 0.3348 0.1923
O2 O 0.29374(13) 0.34464(9) 0.28261(8)
H20 H 0.2852 0.3095 0.3218
C28 C 0.3081(2) 0.27951(15) 0.21817(11)
H21 H 0.3231 0.3206 0.1733
H22 H 0.2302 0.2393 0.2024
H23 H 0.3809 0.2341 0.2347
loop_
_geom_bond_atom_site_label_1
_geom_bond_atom_site_label_2
_geom_bond_site_symmetry_1
_geom_bond_site_symmetry_2
O1 H1 1_555 1_555
N1 C1 1_555 1_555
C1 C2 1_555 1_555
C2 H2 1_555 1_555
C3 C2 1_555 1_555
H3 C3 1_555 1_555
C4 C3 1_555 1_555
H4 C4 1_555 1_555
C5 C4 1_555 1_555
H5 C5 1_555 1_555
C6 C1 1_555 1_555
C7 C6 1_555 1_555
H6 C7 1_555 1_555
C8 C7 1_555 1_555
H7 C8 1_555 1_555
C9 N1 1_555 1_555
C10 C9 1_555 1_555
C11 C10 1_555 1_555
C12 C11 1_555 1_555
C13 C12 1_555 1_555
H8 C13 1_555 1_555
C14 C13 1_555 1_555
H9 C14 1_555 1_555
C15 C14 1_555 1_555
H10 C15 1_555 1_555
C16 C15 1_555 1_555
H11 C16 1_555 1_555
C17 C12 1_555 1_555
H12 C17 1_555 1_555
C18 C11 1_555 1_555
H13 C18 1_555 1_555
C19 O1 1_555 1_555
C20 C19 1_555 1_555
H14 C20 1_555 1_555
C21 C10 1_555 1_555
C22 C21 1_555 1_555
C23 C22 1_555 1_555
H15 C23 1_555 1_555
C24 C23 1_555 1_555
H16 C24 1_555 1_555
C25 C24 1_555 1_555
H17 C25 1_555 1_555
C26 C25 1_555 1_555
H18 C26 1_555 1_555
C27 C22 1_555 1_555
H19 C27 1_555 1_555
O2 H20 1_555 1_555
C28 O2 1_555 1_555
H21 C28 1_555 1_555
H22 C28 1_555 1_555
H23 C28 1_555 1_555
C5 C6 1_555 1_555
C8 C9 1_555 1_555
C16 C17 1_555 1_555
C18 C19 1_555 1_555
C20 C21 1_555 1_555
C26 C27 1_555 1_555

#END
