
#######################################################################
#
#                 Cambridge Crystallographic Data Centre
#                                CCDC 
#
#######################################################################
#
# If this CIF has been generated from an entry in the Cambridge 
# Structural Database, then it will include bibliographic, chemical, 
# crystal, experimental, refinement or atomic coordinate data resulting 
# from the CCDC's data processing and validation procedures.
#
#######################################################################

data_VEWLIT
_chemical_formula_moiety         'C3 H9 Cl6 N3 P3 Si1 1+,C1 H6 B11 Cl6 1-'
_chemical_name_systematic        
'2,2,4,4,6,6-Hexachloro-1-(trimethylsilyl)cyclotriphosphazen-1-ium 7,8,9,10,11,12-hexachloro-1-carbadodecaborane'
_symmetry_cell_setting           triclinic
_symmetry_space_group_name_H-M   'P -1'
_symmetry_Int_Tables_number      2
_space_group_name_Hall           '-P 1'
loop_
_symmetry_equiv_pos_site_id
_symmetry_equiv_pos_as_xyz
1 x,y,z
2 -x,-y,-z
_cell_length_a                   15.6353(5)
_cell_length_b                   16.2998(5)
_cell_length_c                   24.4070(8)
_cell_angle_alpha                102.4850(10)
_cell_angle_beta                 102.7810(10)
_cell_angle_gamma                92.3030(10)
_cell_volume                     5897.26
_exptl_crystal_colour            colorless
_exptl_crystal_description       prism
_cell_formula_units_Z            8
_exptl_crystal_recrystallization_method o-dichlorobenzene/n-hexane
loop_
_atom_site_label
_atom_site_type_symbol
_atom_site_fract_x
_atom_site_fract_y
_atom_site_fract_z
C1 C 0.61781(14) 0.91022(15) 0.80415(12)
H1 H 0.6638(6) 0.8786(5) 0.8200(3)
B1 B 0.57735(16) 0.98168(17) 0.85063(12)
H2 H 0.6001 0.9957 0.8988
B2 B 0.51518(16) 0.88538(17) 0.81139(13)
H3 H 0.4970 0.8360 0.8334
B3 B 0.54290(17) 0.85770(16) 0.74304(14)
H4 H 0.5427 0.7902 0.7202
B4 B 0.62356(17) 0.93652(16) 0.74120(13)
H5 H 0.6765 0.9206 0.7174
B5 B 0.64460(15) 1.01330(16) 0.80753(11)
H6 H 0.7114 1.0480 0.8270
B6 B 0.54626(15) 1.06132(14) 0.81358(10)
B7 B 0.46586(15) 0.98227(15) 0.81607(10)
B8 B 0.44491(15) 0.90481(15) 0.74884(11)
B9 B 0.51170(16) 0.93728(15) 0.70487(11)
B10 B 0.57454(14) 1.03344(14) 0.74546(10)
B11 B 0.46301(14) 1.01403(14) 0.75007(9)
Cl1 Cl 0.54657(4) 1.16900(3) 0.85121(3)
Cl2 Cl 0.38300(4) 1.00856(4) 0.85520(3)
Cl3 Cl 0.33872(4) 0.84716(4) 0.71910(3)
Cl4 Cl 0.47903(4) 0.91984(5) 0.62789(3)
Cl5 Cl 0.60457(3) 1.11072(3) 0.70923(2)
Cl6 Cl 0.37707(3) 1.07116(4) 0.71972(3)
C2 C 0.37651(13) 0.17802(14) 0.56581(9)
H7 H 0.4287(6) 0.1651(5) 0.5899(3)
B12 B 0.32689(15) 0.26271(15) 0.59369(10)
H8 H 0.3506 0.3047 0.6379
B13 B 0.27939(15) 0.15768(15) 0.58310(10)
H9 H 0.2718 0.1306 0.6204
B14 B 0.30780(15) 0.09544(15) 0.52134(10)
H10 H 0.3190 0.0273 0.5182
B15 B 0.37229(15) 0.16135(16) 0.49381(10)
H11 H 0.4256 0.1367 0.4726
B16 B 0.38413(16) 0.26470(16) 0.53852(11)
H12 H 0.4454 0.3079 0.5466
B17 B 0.27778(15) 0.30232(14) 0.53290(10)
B18 B 0.21297(14) 0.23545(14) 0.56072(9)
B19 B 0.20149(14) 0.13134(14) 0.51546(9)
B20 B 0.25914(15) 0.13382(15) 0.46015(9)
B21 B 0.30645(15) 0.23942(16) 0.47096(10)
B22 B 0.20024(14) 0.22118(14) 0.48427(9)
Cl7 Cl 0.25941(4) 0.41086(3) 0.53729(3)
Cl8 Cl 0.12882(3) 0.27467(3) 0.59589(2)
Cl9 Cl 0.10453(3) 0.06072(3) 0.50259(2)
Cl10 Cl 0.22242(4) 0.06474(4) 0.38997(2)
Cl11 Cl 0.32050(4) 0.28357(4) 0.41191(3)
Cl12 Cl 0.10235(3) 0.24617(3) 0.43962(2)
C3 C 0.85411(14) 0.68181(16) 0.95701(10)
H13 H 0.8999(6) 0.6684(5) 0.9373(3)
B23 B 0.75806(16) 0.61981(17) 0.93231(11)
H14 H 0.7442 0.5639 0.8947
B24 B 0.76633(17) 0.72394(18) 0.92257(10)
H15 H 0.7575 0.7366 0.8785
B25 B 0.84525(16) 0.78601(16) 0.98310(10)
H16 H 0.8883 0.8397 0.9788
B26 B 0.88534(15) 0.71934(16) 1.02966(10)
H17 H 0.9549 0.7292 1.0559
B27 B 0.83063(17) 0.61626(16) 0.99828(11)
H18 H 0.8641 0.5582 1.0041
B28 B 0.71604(16) 0.62208(15) 0.99442(10)
B29 B 0.67695(15) 0.68890(15) 0.94748(10)
B30 B 0.73149(15) 0.79225(15) 0.97931(10)
B31 B 0.80530(14) 0.78848(13) 1.04602(9)
B32 B 0.79616(15) 0.68316(14) 1.05502(9)
B33 B 0.70003(14) 0.72880(14) 1.02407(9)
Cl13 Cl 0.64267(4) 0.53881(3) 1.00048(3)
Cl14 Cl 0.56657(4) 0.67202(4) 0.90339(2)
Cl15 Cl 0.67940(4) 0.88492(4) 0.96902(3)
Cl16 Cl 0.82726(3) 0.87664(3) 1.10728(2)
Cl17 Cl 0.81248(4) 0.65959(4) 1.12477(2)
Cl18 Cl 0.61634(3) 0.75604(4) 1.06208(2)
C4 C 0.14873(14) 0.38893(13) 0.30644(10)
H19 H 0.1895(5) 0.3505(5) 0.3172(3)
B34 B 0.15655(16) 0.42718(15) 0.24809(11)
H20 H 0.2062 0.4109 0.2216
B35 B 0.18741(15) 0.49194(14) 0.31930(10)
H21 H 0.2573 0.5184 0.3395
B36 B 0.11814(14) 0.45681(14) 0.36037(10)
H22 H 0.1425 0.4600 0.4076
B37 B 0.04468(15) 0.37128(15) 0.31435(11)
H23 H 0.0208 0.3183 0.3314
B38 B 0.06815(17) 0.35303(16) 0.24510(11)
H24 H 0.0597 0.2880 0.2166
B39 B 0.04651(16) 0.44323(16) 0.21655(10)
B40 B 0.12042(15) 0.52988(15) 0.26333(10)
B41 B 0.09678(14) 0.54789(14) 0.33283(9)
B42 B 0.00843(14) 0.47354(14) 0.32969(10)
B43 B -0.02294(15) 0.40857(16) 0.25816(10)
B44 B 0.00882(15) 0.51877(15) 0.26920(10)
Cl19 Cl 0.00962(4) 0.43683(4) 0.14074(2)
Cl20 Cl 0.15928(4) 0.61467(4) 0.23627(2)
Cl21 Cl 0.10911(3) 0.65165(3) 0.37886(2)
Cl22 Cl -0.06782(3) 0.50158(4) 0.37366(2)
Cl23 Cl -0.13475(4) 0.36457(4) 0.22662(3)
Cl24 Cl -0.06870(4) 0.59094(4) 0.24900(2)
Si1 Si 0.95525(3) 0.90271(3) 0.30526(2)
C5 C 0.85209(14) 0.83724(15) 0.26636(10)
H25 H 0.8295 0.8098 0.2930
H26 H 0.8633 0.7941 0.2346
H27 H 0.8085 0.8729 0.2508
C6 C 1.04175(14) 0.84148(14) 0.33695(9)
H28 H 1.0204 0.8133 0.3637
H29 H 1.0944 0.8795 0.3579
H30 H 1.0563 0.7991 0.3061
C7 C 0.94154(15) 0.99124(15) 0.36295(9)
H31 H 0.9232 0.9692 0.3933
H32 H 0.8966 1.0254 0.3469
H33 H 0.9976 1.0263 0.3794
N1 N 0.99456(10) 0.94973(10) 0.24873(6)
P1 P 0.96283(3) 1.04127(3) 0.23622(2)
N2 N 0.97581(11) 1.06138(10) 0.17880(7)
P2 P 1.04001(3) 1.01689(3) 0.14294(2)
N3 N 1.07824(11) 0.93624(11) 0.16039(7)
P3 P 1.06366(3) 0.90119(3) 0.21256(2)
Cl25 Cl 0.83755(3) 1.04286(3) 0.23679(2)
Cl26 Cl 1.02542(3) 1.13073(3) 0.30254(2)
Cl27 Cl 0.98078(3) 0.98888(3) 0.06027(2)
Cl28 Cl 1.13821(3) 1.10065(4) 0.14613(3)
Cl29 Cl 1.02109(3) 0.78112(3) 0.18770(2)
Cl30 Cl 1.17848(3) 0.90633(3) 0.26676(2)
Si2 Si 0.17295(3) 0.68684(3) 0.57214(2)
C8 C 0.08564(14) 0.61484(14) 0.51768(9)
H34 H 0.0453 0.5911 0.5370
H35 H 0.1123 0.5691 0.4960
H36 H 0.0530 0.6461 0.4910
C9 C 0.25142(14) 0.63381(13) 0.61772(9)
H37 H 0.2206 0.6070 0.6411
H38 H 0.2983 0.6754 0.6432
H39 H 0.2771 0.5908 0.5932
C10 C 0.13031(13) 0.76867(13) 0.62173(8)
H40 H 0.1054 0.7426 0.6480
H41 H 0.0845 0.7955 0.5993
H42 H 0.1785 0.8113 0.6441
N4 N 0.23785(10) 0.74184(10) 0.53071(7)
P4 P 0.20689(3) 0.83097(3) 0.51251(2)
N5 N 0.23980(11) 0.85249(11) 0.46108(7)
P5 P 0.31947(3) 0.81411(3) 0.43802(2)
N6 N 0.36277(12) 0.74502(13) 0.46863(9)
P6 P 0.32548(3) 0.70239(3) 0.51058(2)
Cl31 Cl 0.07794(3) 0.82309(3) 0.49400(2)
Cl32 Cl 0.24495(3) 0.92197(3) 0.58296(2)
Cl33 Cl 0.28223(4) 0.76725(4) 0.35400(2)
Cl34 Cl 0.41038(3) 0.90586(3) 0.44500(2)
Cl35 Cl 0.29271(3) 0.58066(3) 0.47830(2)
Cl36 Cl 0.42156(3) 0.70639(4) 0.57884(3)
Si3 Si 0.59002(4) 0.59428(3) 0.19148(2)
C11 C 0.65144(15) 0.51197(14) 0.15667(9)
H43 H 0.6718 0.5305 0.1257
H44 H 0.6128 0.4595 0.1404
H45 H 0.7023 0.5023 0.1854
C12 C 0.49373(16) 0.60767(15) 0.13607(9)
H46 H 0.5137 0.6301 0.1064
H47 H 0.4567 0.6471 0.1540
H48 H 0.4596 0.5530 0.1183
C13 C 0.65825(15) 0.69363(13) 0.22876(10)
H49 H 0.6788 0.7188 0.2004
H50 H 0.7091 0.6822 0.2568
H51 H 0.6232 0.7328 0.2489
N7 N 0.54924(10) 0.55328(10) 0.24987(7)
P7 P 0.60715(3) 0.48970(3) 0.28549(2)
N8 N 0.57857(11) 0.47667(11) 0.34041(7)
P8 P 0.48441(3) 0.49164(3) 0.35106(2)
N9 N 0.43918(12) 0.56273(11) 0.32365(8)
P9 P 0.45554(3) 0.58136(3) 0.26663(2)
Cl37 Cl 0.60044(4) 0.37873(3) 0.23159(2)
Cl38 Cl 0.73066(3) 0.53400(3) 0.30506(2)
Cl39 Cl 0.40737(4) 0.38369(4) 0.32266(3)
Cl40 Cl 0.49231(5) 0.51889(4) 0.43426(3)
Cl41 Cl 0.35878(3) 0.52655(4) 0.20058(3)
Cl42 Cl 0.45293(3) 0.70278(3) 0.27076(2)
Si4 Si 0.30816(3) 0.82619(4) 0.93556(2)
C14 C 0.33341(14) 0.74437(14) 0.87778(9)
H52 H 0.3431 0.7699 0.8466
H53 H 0.2839 0.7006 0.8627
H54 H 0.3866 0.7192 0.8934
C15 C 0.22384(15) 0.88613(17) 0.90007(11)
H55 H 0.2478 0.9132 0.8738
H56 H 0.2070 0.9294 0.9294
H57 H 0.1719 0.8476 0.8781
C16 C 0.40672(14) 0.89097(14) 0.98298(10)
H58 H 0.4391 0.9162 0.9597
H59 H 0.4446 0.8554 1.0036
H60 H 0.3890 0.9357 1.0110
N10 N 0.25697(10) 0.77153(10) 0.98397(7)
P10 P 0.28475(3) 0.67761(3) 0.99569(2)
N11 N 0.27048(11) 0.65898(11) 1.05333(7)
P11 P 0.19887(3) 0.69846(3) 1.08465(2)
N12 N 0.15193(12) 0.77113(12) 1.05967(9)
P12 P 0.17490(3) 0.80968(3) 1.01132(2)
Cl43 Cl 0.21736(3) 0.59261(3) 0.92797(2)
Cl44 Cl 0.40916(3) 0.67301(3) 0.99510(2)
Cl45 Cl 0.10830(3) 0.61005(3) 1.08347(2)
Cl46 Cl 0.25366(3) 0.74162(3) 1.16736(2)
Cl47 Cl 0.06847(3) 0.79547(3) 0.94753(2)
Cl48 Cl 0.20413(3) 0.93231(3) 1.03852(2)
Cl49? Cl 0.7399(6) 0.7347(6) 0.8512(3)
Cl50? Cl 0.0512(6) 0.2616(4) 0.1950(3)
loop_
_geom_bond_atom_site_label_1
_geom_bond_atom_site_label_2
_geom_bond_site_symmetry_1
_geom_bond_site_symmetry_2
C1 H1 1_555 1_555
B1 C1 1_555 1_555
H2 B1 1_555 1_555
B2 C1 1_555 1_555
H3 B2 1_555 1_555
B3 C1 1_555 1_555
H4 B3 1_555 1_555
B4 C1 1_555 1_555
H5 B4 1_555 1_555
B5 C1 1_555 1_555
H6 B5 1_555 1_555
B6 B1 1_555 1_555
B7 B1 1_555 1_555
B8 B2 1_555 1_555
B9 B3 1_555 1_555
B10 B4 1_555 1_555
B11 B6 1_555 1_555
Cl1 B6 1_555 1_555
Cl2 B7 1_555 1_555
Cl3 B8 1_555 1_555
Cl4 B9 1_555 1_555
Cl5 B10 1_555 1_555
Cl6 B11 1_555 1_555
C2 H7 1_555 1_555
B12 C2 1_555 1_555
H8 B12 1_555 1_555
B13 C2 1_555 1_555
H9 B13 1_555 1_555
B14 C2 1_555 1_555
H10 B14 1_555 1_555
B15 C2 1_555 1_555
H11 B15 1_555 1_555
B16 C2 1_555 1_555
H12 B16 1_555 1_555
B17 B12 1_555 1_555
B18 B12 1_555 1_555
B19 B13 1_555 1_555
B20 B14 1_555 1_555
B21 B15 1_555 1_555
B22 B17 1_555 1_555
Cl7 B17 1_555 1_555
Cl8 B18 1_555 1_555
Cl9 B19 1_555 1_555
Cl10 B20 1_555 1_555
Cl11 B21 1_555 1_555
Cl12 B22 1_555 1_555
C3 H13 1_555 1_555
B23 C3 1_555 1_555
H14 B23 1_555 1_555
B24 C3 1_555 1_555
H15 B24 1_555 1_555
B25 C3 1_555 1_555
H16 B25 1_555 1_555
B26 C3 1_555 1_555
H17 B26 1_555 1_555
B27 C3 1_555 1_555
H18 B27 1_555 1_555
B28 B23 1_555 1_555
B29 B23 1_555 1_555
B30 B24 1_555 1_555
B31 B25 1_555 1_555
B32 B26 1_555 1_555
B33 B28 1_555 1_555
Cl13 B28 1_555 1_555
Cl14 B29 1_555 1_555
Cl15 B30 1_555 1_555
Cl16 B31 1_555 1_555
Cl17 B32 1_555 1_555
Cl18 B33 1_555 1_555
C4 H19 1_555 1_555
B34 C4 1_555 1_555
H20 B34 1_555 1_555
B35 C4 1_555 1_555
H21 B35 1_555 1_555
B36 C4 1_555 1_555
H22 B36 1_555 1_555
B37 C4 1_555 1_555
H23 B37 1_555 1_555
B38 C4 1_555 1_555
H24 B38 1_555 1_555
B39 B34 1_555 1_555
B40 B34 1_555 1_555
B41 B35 1_555 1_555
B42 B36 1_555 1_555
B43 B37 1_555 1_555
B44 B39 1_555 1_555
Cl19 B39 1_555 1_555
Cl20 B40 1_555 1_555
Cl21 B41 1_555 1_555
Cl22 B42 1_555 1_555
Cl23 B43 1_555 1_555
Cl24 B44 1_555 1_555
Si1 C5 1_555 1_555
C5 H25 1_555 1_555
H26 C5 1_555 1_555
H27 C5 1_555 1_555
C6 Si1 1_555 1_555
H28 C6 1_555 1_555
H29 C6 1_555 1_555
H30 C6 1_555 1_555
C7 Si1 1_555 1_555
H31 C7 1_555 1_555
H32 C7 1_555 1_555
H33 C7 1_555 1_555
N1 Si1 1_555 1_555
P1 N1 1_555 1_555
N2 P1 1_555 1_555
P2 N2 1_555 1_555
N3 P2 1_555 1_555
P3 N1 1_555 1_555
Cl25 P1 1_555 1_555
Cl26 P1 1_555 1_555
Cl27 P2 1_555 1_555
Cl28 P2 1_555 1_555
Cl29 P3 1_555 1_555
Cl30 P3 1_555 1_555
Si2 C8 1_555 1_555
C8 H34 1_555 1_555
H35 C8 1_555 1_555
H36 C8 1_555 1_555
C9 Si2 1_555 1_555
H37 C9 1_555 1_555
H38 C9 1_555 1_555
H39 C9 1_555 1_555
C10 Si2 1_555 1_555
H40 C10 1_555 1_555
H41 C10 1_555 1_555
H42 C10 1_555 1_555
N4 Si2 1_555 1_555
P4 N4 1_555 1_555
N5 P4 1_555 1_555
P5 N5 1_555 1_555
N6 P5 1_555 1_555
P6 N4 1_555 1_555
Cl31 P4 1_555 1_555
Cl32 P4 1_555 1_555
Cl33 P5 1_555 1_555
Cl34 P5 1_555 1_555
Cl35 P6 1_555 1_555
Cl36 P6 1_555 1_555
Si3 C11 1_555 1_555
C11 H43 1_555 1_555
H44 C11 1_555 1_555
H45 C11 1_555 1_555
C12 Si3 1_555 1_555
H46 C12 1_555 1_555
H47 C12 1_555 1_555
H48 C12 1_555 1_555
C13 Si3 1_555 1_555
H49 C13 1_555 1_555
H50 C13 1_555 1_555
H51 C13 1_555 1_555
N7 Si3 1_555 1_555
P7 N7 1_555 1_555
N8 P7 1_555 1_555
P8 N8 1_555 1_555
N9 P8 1_555 1_555
P9 N7 1_555 1_555
Cl37 P7 1_555 1_555
Cl38 P7 1_555 1_555
Cl39 P8 1_555 1_555
Cl40 P8 1_555 1_555
Cl41 P9 1_555 1_555
Cl42 P9 1_555 1_555
Si4 C14 1_555 1_555
C14 H52 1_555 1_555
H53 C14 1_555 1_555
H54 C14 1_555 1_555
C15 Si4 1_555 1_555
H55 C15 1_555 1_555
H56 C15 1_555 1_555
H57 C15 1_555 1_555
C16 Si4 1_555 1_555
H58 C16 1_555 1_555
H59 C16 1_555 1_555
H60 C16 1_555 1_555
N10 Si4 1_555 1_555
P10 N10 1_555 1_555
N11 P10 1_555 1_555
P11 N11 1_555 1_555
N12 P11 1_555 1_555
P12 N10 1_555 1_555
Cl43 P10 1_555 1_555
Cl44 P10 1_555 1_555
Cl45 P11 1_555 1_555
Cl46 P11 1_555 1_555
Cl47 P12 1_555 1_555
Cl48 P12 1_555 1_555
B1 B2 1_555 1_555
B1 B5 1_555 1_555
B2 B3 1_555 1_555
B2 B7 1_555 1_555
B3 B4 1_555 1_555
B3 B8 1_555 1_555
B4 B5 1_555 1_555
B4 B9 1_555 1_555
B5 B6 1_555 1_555
B5 B10 1_555 1_555
B6 B7 1_555 1_555
B6 B10 1_555 1_555
B7 B8 1_555 1_555
B7 B11 1_555 1_555
B8 B9 1_555 1_555
B8 B11 1_555 1_555
B9 B10 1_555 1_555
B9 B11 1_555 1_555
B10 B11 1_555 1_555
B12 B13 1_555 1_555
B12 B16 1_555 1_555
B13 B14 1_555 1_555
B13 B18 1_555 1_555
B14 B15 1_555 1_555
B14 B19 1_555 1_555
B15 B16 1_555 1_555
B15 B20 1_555 1_555
B16 B17 1_555 1_555
B16 B21 1_555 1_555
B17 B18 1_555 1_555
B17 B21 1_555 1_555
B18 B19 1_555 1_555
B18 B22 1_555 1_555
B19 B20 1_555 1_555
B19 B22 1_555 1_555
B20 B21 1_555 1_555
B20 B22 1_555 1_555
B21 B22 1_555 1_555
B23 B24 1_555 1_555
B23 B27 1_555 1_555
B24 B25 1_555 1_555
B24 B29 1_555 1_555
B25 B26 1_555 1_555
B25 B30 1_555 1_555
B26 B27 1_555 1_555
B26 B31 1_555 1_555
B27 B28 1_555 1_555
B27 B32 1_555 1_555
B28 B29 1_555 1_555
B28 B32 1_555 1_555
B29 B30 1_555 1_555
B29 B33 1_555 1_555
B30 B31 1_555 1_555
B30 B33 1_555 1_555
B31 B32 1_555 1_555
B31 B33 1_555 1_555
B32 B33 1_555 1_555
B34 B35 1_555 1_555
B34 B38 1_555 1_555
B35 B36 1_555 1_555
B35 B40 1_555 1_555
B36 B37 1_555 1_555
B36 B41 1_555 1_555
B37 B38 1_555 1_555
B37 B42 1_555 1_555
B38 B39 1_555 1_555
B38 B43 1_555 1_555
B39 B40 1_555 1_555
B39 B43 1_555 1_555
B40 B41 1_555 1_555
B40 B44 1_555 1_555
B41 B42 1_555 1_555
B41 B44 1_555 1_555
B42 B43 1_555 1_555
B42 B44 1_555 1_555
B43 B44 1_555 1_555
N3 P3 1_555 1_555
N6 P6 1_555 1_555
N9 P9 1_555 1_555
N12 P12 1_555 1_555

#END
