
#######################################################################
#
#                 Cambridge Crystallographic Data Centre
#                                CCDC 
#
#######################################################################
#
# If this CIF has been generated from an entry in the Cambridge 
# Structural Database, then it will include bibliographic, chemical, 
# crystal, experimental, refinement or atomic coordinate data resulting 
# from the CCDC's data processing and validation procedures.
#
#######################################################################

data_VEWLAL
_chemical_formula_moiety         'H1 Cl6 N3 P3 1+,C1 H5 B11 Br6 1-'
_chemical_name_systematic        
'2,2,4,4,6,6-Hexachlorocyclotriphosphazen-1-ium 7,8,9,10,11,12-hexabromo-1-carbadodecaborane'
_symmetry_cell_setting           monoclinic
_symmetry_space_group_name_H-M   'P 21/c'
_symmetry_Int_Tables_number      14
_space_group_name_Hall           '-P 2ybc'
loop_
_symmetry_equiv_pos_site_id
_symmetry_equiv_pos_as_xyz
1 x,y,z
2 -x,1/2+y,1/2-z
3 -x,-y,-z
4 x,1/2-y,1/2+z
_cell_length_a                   9.0820(3)
_cell_length_b                   23.2731(7)
_cell_length_c                   12.6536(4)
_cell_angle_alpha                90
_cell_angle_beta                 96.1680(10)
_cell_angle_gamma                90
_cell_volume                     2659.06
_exptl_crystal_colour            colorless
_exptl_crystal_description       prism
_cell_formula_units_Z            4
_exptl_crystal_recrystallization_method dichloromethane/n-hexane
loop_
_atom_site_label
_atom_site_type_symbol
_atom_site_fract_x
_atom_site_fract_y
_atom_site_fract_z
N1 N 1.0058(2) 0.38764(9) 0.27603(17)
H7 H 1.0506 0.3810 0.3400
P1 P 0.84092(7) 0.35798(3) 0.24455(5)
N2 N 0.7593(2) 0.38518(10) 0.14242(18)
P2 P 0.83045(7) 0.42377(3) 0.05926(5)
N3 N 0.9866(2) 0.45047(10) 0.09812(18)
P3 P 1.09205(7) 0.42897(3) 0.19510(5)
Cl1 Cl 0.73158(7) 0.36546(3) 0.36767(6)
Cl2 Cl 0.86865(7) 0.27507(3) 0.22984(5)
Cl3 Cl 0.69120(7) 0.48660(3) 0.01572(6)
Cl4 Cl 0.84255(9) 0.38093(3) -0.07413(6)
Cl5 Cl 1.18306(7) 0.49219(3) 0.27883(5)
Cl6 Cl 1.25933(7) 0.38423(3) 0.15000(5)
C1 C 0.2877(3) 0.33181(10) 0.82194(19)
H1 H 0.2731(14) 0.3246(5) 0.8943(8)
B1 B 0.1369(3) 0.33291(11) 0.7307(2)
H2 H 0.0200 0.3263 0.7487
B2 B 0.2660(3) 0.27508(12) 0.7370(2)
H3 H 0.2344 0.2305 0.7590
B3 B 0.4447(3) 0.30398(12) 0.7790(2)
H4 H 0.5306 0.2783 0.8286
B4 B 0.4241(3) 0.37906(12) 0.7992(2)
H5 H 0.4963 0.4026 0.8622
B5 B 0.2338(3) 0.39674(11) 0.7690(2)
H6 H 0.1810 0.4320 0.8122
B6 B 0.1824(3) 0.38183(11) 0.6324(2)
B7 B 0.2018(3) 0.30660(11) 0.6125(2)
B8 B 0.3933(3) 0.28881(11) 0.6432(2)
B9 B 0.4914(3) 0.35337(11) 0.6812(2)
B10 B 0.3610(3) 0.41093(11) 0.6752(2)
B11 B 0.3416(3) 0.35483(11) 0.5778(2)
Br1 Br 0.03424(3) 0.427217(11) 0.54630(2)
Br2 Br 0.07378(3) 0.265695(10) 0.502967(19)
Br3 Br 0.48772(3) 0.226070(10) 0.573098(19)
Br4 Br 0.69515(2) 0.365198(10) 0.649935(19)
Br5 Br 0.41365(3) 0.489255(11) 0.64000(2)
Br6 Br 0.36954(3) 0.368182(11) 0.429404(19)
loop_
_geom_bond_atom_site_label_1
_geom_bond_atom_site_label_2
_geom_bond_site_symmetry_1
_geom_bond_site_symmetry_2
C1 H1 1_555 1_555
B1 C1 1_555 1_555
H2 B1 1_555 1_555
B2 C1 1_555 1_555
H3 B2 1_555 1_555
B3 C1 1_555 1_555
H4 B3 1_555 1_555
B4 C1 1_555 1_555
H5 B4 1_555 1_555
B5 C1 1_555 1_555
H6 B5 1_555 1_555
B6 B1 1_555 1_555
B7 B1 1_555 1_555
B8 B2 1_555 1_555
B9 B3 1_555 1_555
B10 B4 1_555 1_555
B11 B6 1_555 1_555
Br1 B6 1_555 1_555
Br2 B7 1_555 1_555
Br3 B8 1_555 1_555
Br4 B9 1_555 1_555
Br5 B10 1_555 1_555
Br6 B11 1_555 1_555
N1 H7 1_555 1_555
P1 N1 1_555 1_555
N2 P1 1_555 1_555
P2 N2 1_555 1_555
N3 P2 1_555 1_555
P3 N1 1_555 1_555
Cl1 P1 1_555 1_555
Cl2 P1 1_555 1_555
Cl3 P2 1_555 1_555
Cl4 P2 1_555 1_555
Cl5 P3 1_555 1_555
Cl6 P3 1_555 1_555
B1 B2 1_555 1_555
B1 B5 1_555 1_555
B2 B3 1_555 1_555
B2 B7 1_555 1_555
B3 B4 1_555 1_555
B3 B8 1_555 1_555
B4 B5 1_555 1_555
B4 B9 1_555 1_555
B5 B6 1_555 1_555
B5 B10 1_555 1_555
B6 B7 1_555 1_555
B6 B10 1_555 1_555
B7 B8 1_555 1_555
B7 B11 1_555 1_555
B8 B9 1_555 1_555
B8 B11 1_555 1_555
B9 B10 1_555 1_555
B9 B11 1_555 1_555
B10 B11 1_555 1_555
N3 P3 1_555 1_555

#END
