
#######################################################################
#
#                 Cambridge Crystallographic Data Centre
#                                CCDC 
#
#######################################################################
#
# If this CIF has been generated from an entry in the Cambridge 
# Structural Database, then it will include bibliographic, chemical, 
# crystal, experimental, refinement or atomic coordinate data resulting 
# from the CCDC's data processing and validation procedures.
#
#######################################################################

data_VEXBIM
_chemical_formula_moiety         'C26 H29 N1 O4 S1'
_chemical_name_systematic        
3-[(4-methoxyphenoxy)methyl]-1-[(4-methylphenyl)sulfonyl]-4-phenylpiperidine
_symmetry_cell_setting           orthorhombic
_symmetry_space_group_name_H-M   'P 21 21 21'
_symmetry_Int_Tables_number      19
_space_group_name_Hall           'P 2ac 2ab'
loop_
_symmetry_equiv_pos_site_id
_symmetry_equiv_pos_as_xyz
1 x,y,z
2 1/2-x,-y,1/2+z
3 -x,1/2+y,1/2-z
4 1/2+x,1/2-y,-z
_cell_length_a                   8.3584(4)
_cell_length_b                   14.8160(5)
_cell_length_c                   18.9753(6)
_cell_angle_alpha                90
_cell_angle_beta                 90
_cell_angle_gamma                90
_cell_volume                     2349.86
_exptl_crystal_colour            colorless
_exptl_crystal_description       prism
_cell_formula_units_Z            4
loop_
_atom_site_label
_atom_site_type_symbol
_atom_site_fract_x
_atom_site_fract_y
_atom_site_fract_z
S1 S 0.52365(10) -0.03255(5) 0.45723(4)
O1 O 0.5180(3) 0.31310(12) 0.44538(9)
O2 O 0.5851(3) 0.63694(13) 0.30376(10)
O3 O 0.4536(3) 0.00662(14) 0.39570(11)
O4 O 0.4472(3) -0.10630(14) 0.49236(12)
N1 N 0.5387(3) 0.04841(15) 0.51482(11)
C1 C 0.5905(4) 0.13799(18) 0.49165(14)
H1 H 0.555169 0.148842 0.442576
H2 H 0.708689 0.142051 0.493143
C2 C 0.5172(3) 0.20845(16) 0.54059(12)
H3 H 0.398231 0.202278 0.537987
C3 C 0.5684(3) 0.19110(18) 0.61760(13)
H4 H 0.686951 0.199117 0.620590
C4 C 0.5294(4) 0.09325(18) 0.63795(14)
H5 H 0.573839 0.080627 0.685293
H6 H 0.411793 0.085920 0.640582
C5 C 0.5965(4) 0.0253(2) 0.58586(14)
H7 H 0.714863 0.026817 0.586918
H8 H 0.561068 -0.036306 0.598666
C6 C 0.5601(3) 0.30337(17) 0.51824(13)
H9 H 0.500708 0.347791 0.547149
H10 H 0.676071 0.313951 0.524734
C7 C 0.5427(3) 0.39646(18) 0.41478(14)
C8 C 0.5076(3) 0.40192(18) 0.34308(14)
H11 H 0.471657 0.349708 0.318706
C9 C 0.5244(4) 0.48215(18) 0.30721(14)
H12 H 0.501213 0.485072 0.258250
C10 C 0.5757(3) 0.55920(18) 0.34308(14)
C11 C 0.6150(4) 0.55326(19) 0.41361(14)
H13 H 0.653783 0.605038 0.437680
C12 C 0.5981(3) 0.47188(18) 0.44981(13)
H14 H 0.624707 0.468369 0.498410
C13 C 0.6132(5) 0.7185(2) 0.34144(18)
H15 H 0.603961 0.769954 0.309200
H16 H 0.720997 0.717279 0.361770
H17 H 0.534147 0.724551 0.379275
C14 C 0.4917(3) 0.25647(17) 0.66843(12)
C15 C 0.3255(4) 0.26382(19) 0.67226(14)
H18 H 0.260588 0.228172 0.642038
C16 C 0.2541(4) 0.32250(19) 0.71962(15)
H19 H 0.140752 0.326665 0.721774
C17 C 0.3470(4) 0.3749(2) 0.76370(15)
H20 H 0.297827 0.414775 0.796386
C18 C 0.5110(4) 0.3692(2) 0.76012(15)
H21 H 0.575059 0.405400 0.790329
C19 C 0.5834(4) 0.3108(2) 0.71247(15)
H22 H 0.696797 0.308002 0.709966
C20 C 0.7169(4) -0.06943(18) 0.43458(14)
C21 C 0.8009(4) -0.0257(2) 0.38187(17)
H23 H 0.756510 0.025795 0.359390
C22 C 0.9498(5) -0.0575(2) 0.36210(17)
H24 H 1.007202 -0.027160 0.326000
C23 C 1.0172(4) -0.1330(2) 0.39386(15)
C24 C 0.9320(4) -0.1741(2) 0.44783(17)
H25 H 0.977340 -0.224736 0.471180
C25 C 0.7842(4) -0.14357(19) 0.46838(15)
H26 H 0.728139 -0.172886 0.505445
C26 C 1.1754(5) -0.1687(3) 0.3693(2)
H27 H 1.234110 -0.193756 0.409481
H28 H 1.237687 -0.119545 0.348222
H29 H 1.157951 -0.216063 0.334089
loop_
_geom_bond_atom_site_label_1
_geom_bond_atom_site_label_2
_geom_bond_site_symmetry_1
_geom_bond_site_symmetry_2
S1 O3 1_555 1_555
O1 C6 1_555 1_555
O2 C10 1_555 1_555
O4 S1 1_555 1_555
N1 S1 1_555 1_555
C1 N1 1_555 1_555
H1 C1 1_555 1_555
H2 C1 1_555 1_555
C2 C1 1_555 1_555
H3 C2 1_555 1_555
C3 C2 1_555 1_555
H4 C3 1_555 1_555
C4 C3 1_555 1_555
H5 C4 1_555 1_555
H6 C4 1_555 1_555
C5 N1 1_555 1_555
H7 C5 1_555 1_555
H8 C5 1_555 1_555
C6 C2 1_555 1_555
H9 C6 1_555 1_555
H10 C6 1_555 1_555
C7 O1 1_555 1_555
C8 C7 1_555 1_555
H11 C8 1_555 1_555
C9 C8 1_555 1_555
H12 C9 1_555 1_555
C10 C9 1_555 1_555
C11 C10 1_555 1_555
H13 C11 1_555 1_555
C12 C7 1_555 1_555
H14 C12 1_555 1_555
C13 O2 1_555 1_555
H15 C13 1_555 1_555
H16 C13 1_555 1_555
H17 C13 1_555 1_555
C14 C3 1_555 1_555
C15 C14 1_555 1_555
H18 C15 1_555 1_555
C16 C15 1_555 1_555
H19 C16 1_555 1_555
C17 C16 1_555 1_555
H20 C17 1_555 1_555
C18 C17 1_555 1_555
H21 C18 1_555 1_555
C19 C14 1_555 1_555
H22 C19 1_555 1_555
C20 S1 1_555 1_555
C21 C20 1_555 1_555
H23 C21 1_555 1_555
C22 C21 1_555 1_555
H24 C22 1_555 1_555
C23 C22 1_555 1_555
C24 C23 1_555 1_555
H25 C24 1_555 1_555
C25 C20 1_555 1_555
H26 C25 1_555 1_555
C26 C23 1_555 1_555
H27 C26 1_555 1_555
H28 C26 1_555 1_555
H29 C26 1_555 1_555
C4 C5 1_555 1_555
C11 C12 1_555 1_555
C18 C19 1_555 1_555
C24 C25 1_555 1_555

#END
