
#######################################################################
#
#                 Cambridge Crystallographic Data Centre
#                                CCDC 
#
#######################################################################
#
# If this CIF has been generated from an entry in the Cambridge 
# Structural Database, then it will include bibliographic, chemical, 
# crystal, experimental, refinement or atomic coordinate data resulting 
# from the CCDC's data processing and validation procedures.
#
#######################################################################

data_VEXVUS
_chemical_compound_source        'Streptomyces albus'
_chemical_name_common            'difluostatin B'
_chemical_formula_moiety         'C38 H26 N2 O11'
_chemical_name_systematic        
N-(4,6,9,10,17-pentahydroxy-6,17-dimethyl-7,14,16,20-tetraoxo-6,7,14,14c,17,20-hexahydro-5aH-benzo[a]fluoreno[2,1-j]indeno[2,1-c]phenoxazin-15(16H)-yl)acetamide
_symmetry_cell_setting           trigonal
_symmetry_space_group_name_H-M   'P 31 2 1'
_symmetry_Int_Tables_number      152
_space_group_name_Hall           'P 31 2"'
loop_
_symmetry_equiv_pos_site_id
_symmetry_equiv_pos_as_xyz
1 x,y,z
2 -y,x-y,1/3+z
3 -x+y,-x,2/3+z
4 y,x,-z
5 x-y,-y,2/3-z
6 -x,-x+y,1/3-z
_cell_length_a                   23.9445(6)
_cell_length_b                   23.9445(6)
_cell_length_c                   14.8499(3)
_cell_angle_alpha                90
_cell_angle_beta                 90
_cell_angle_gamma                120
_cell_volume                     7373.36
_exptl_crystal_colour            red
_exptl_crystal_description       needle
_cell_formula_units_Z            6
_exptl_crystal_recrystallization_method methanol/water
_exptl_crystal_preparation       'Magnetic properties'
loop_
_atom_site_label
_atom_site_type_symbol
_atom_site_fract_x
_atom_site_fract_y
_atom_site_fract_z
O1 O 0.37899(19) 0.72172(18) 0.8159(2)
O2 O 0.5579(2) 0.7079(2) 0.6142(2)
O3 O 0.3170(2) 0.5889(2) 0.7195(3)
O4 O 0.4174(2) 0.4644(2) 0.4086(3)
O5 O 0.4556(3) 0.8943(2) 0.4993(3)
H1 H 0.4796 0.9328 0.5090
O6 O 0.6345(2) 0.7295(3) 0.4725(3)
H2 H 0.6268 0.7251 0.5267
N1 N 0.4290(3) 0.6427(2) 0.8149(3)
H3 H 0.3970 0.6456 0.8356
O7 O 0.6467(3) 0.8644(3) 0.5545(4)
O8 O 0.3367(3) 0.8578(2) 0.5140(3)
H4 H 0.3711 0.8905 0.5249
N2 N 0.4557(2) 0.6696(2) 0.7300(3)
O9 O 0.6308(2) 0.8400(2) 0.7688(3)
H5 H 0.6503 0.8788 0.7581
C1 C 0.5016(3) 0.6503(3) 0.6005(4)
C2 C 0.4494(3) 0.6300(3) 0.6595(3)
O10 O 0.4984(3) 0.6061(3) 0.8383(3)
C3 C 0.3319(3) 0.7617(3) 0.7111(3)
C4 C 0.4221(3) 0.8150(3) 0.6186(3)
C5 C 0.3818(3) 0.7485(2) 0.7432(3)
C6 C 0.4546(4) 0.6116(4) 0.8647(4)
C7 C 0.3930(3) 0.5689(3) 0.6464(3)
C8 C 0.3302(3) 0.5505(3) 0.6905(4)
C9 C 0.4370(3) 0.7798(3) 0.6764(3)
C10 C 0.5097(3) 0.7378(3) 0.7351(4)
H6 H 0.5156 0.7528 0.7976
C11 C 0.3903(3) 0.5280(3) 0.5770(4)
C12 C 0.6101(4) 0.8364(4) 0.6140(5)
C13 C 0.4530(4) 0.5190(4) 0.4398(4)
C14 C 0.6025(4) 0.6715(4) 0.4317(4)
C15 C 0.4963(3) 0.7814(3) 0.6760(3)
C16 C 0.5430(3) 0.8252(3) 0.6161(4)
C17 C 0.4714(4) 0.8583(3) 0.5572(4)
C18 C 0.4972(3) 0.6119(3) 0.5279(3)
C19 C 0.3541(3) 0.8005(3) 0.6354(4)
C20 C 0.4441(3) 0.5521(3) 0.5181(3)
C21 C 0.2717(3) 0.7435(3) 0.7466(4)
H7 H 0.2576 0.7195 0.7994
C22 C 0.5690(3) 0.7363(3) 0.7036(4)
H8 H 0.5801 0.7121 0.7461
C23 C 0.5161(4) 0.5658(3) 0.4033(4)
C24 C 0.5427(3) 0.6209(3) 0.4567(4)
O11 O 0.2191(3) 0.4688(4) 0.7084(4)
H9 H 0.2132 0.4768 0.7601
C25 C 0.3341(4) 0.4640(3) 0.5650(4)
H10 H 0.3334 0.4389 0.5167
C26 C 0.2338(4) 0.7619(4) 0.7019(5)
H11 H 0.1924 0.7482 0.7235
C27 C 0.4217(4) 0.5879(4) 0.9523(4)
H12 H 0.3907 0.6016 0.9604
H13 H 0.4529 0.6049 1.0000
H14 H 0.4002 0.5416 0.9534
C28 C 0.5293(4) 0.8630(3) 0.5590(4)
H15 H 0.5615 0.8923 0.5209
C29 C 0.6057(5) 0.6090(4) 0.3019(5)
H16 H 0.6260 0.6064 0.2500
C30 C 0.2535(4) 0.7981(4) 0.6297(5)
H17 H 0.2264 0.8105 0.6025
C31 C 0.5448(4) 0.5562(4) 0.3257(4)
H18 H 0.5251 0.5180 0.2928
C32 C 0.2850(5) 0.4408(4) 0.6191(5)
H19 H 0.2497 0.4002 0.6078
C33 C 0.3144(4) 0.8186(4) 0.5924(4)
C34 C 0.6360(4) 0.6650(5) 0.3543(4)
H20 H 0.6773 0.6977 0.3398
C35 C 0.6275(3) 0.8054(4) 0.6891(4)
C36 C 0.2838(4) 0.4786(4) 0.7003(4)
C37 C 0.6931(4) 0.8067(4) 0.6729(6)
H21 H 0.7281 0.8503 0.6772
H22 H 0.6928 0.7900 0.6140
H23 H 0.6983 0.7807 0.7175
C38 C 0.3134(8) 0.4600(4) 0.7865(6)
H24 H 0.3544 0.4647 0.7706
H25 H 0.2844 0.4161 0.8038
H26 H 0.3188 0.4881 0.8360
loop_
_geom_bond_atom_site_label_1
_geom_bond_atom_site_label_2
_geom_bond_site_symmetry_1
_geom_bond_site_symmetry_2
O1 C5 1_555 1_555
O2 C1 1_555 1_555
O3 C8 1_555 1_555
O4 C13 1_555 1_555
O5 H1 1_555 1_555
O6 H2 1_555 1_555
N1 H3 1_555 1_555
O7 C12 1_555 1_555
O8 H4 1_555 1_555
N2 N1 1_555 1_555
O9 H5 1_555 1_555
C1 C2 1_555 1_555
C2 N2 1_555 1_555
O10 C6 1_555 1_555
C3 C5 1_555 1_555
C4 C9 1_555 1_555
C5 C9 1_555 1_555
C6 N1 1_555 1_555
C7 C2 1_555 1_555
C8 C7 1_555 1_555
C9 C15 1_555 1_555
C10 N2 1_555 1_555
H6 C10 1_555 1_555
C11 C7 1_555 1_555
C12 C16 1_555 1_555
C13 C20 1_555 1_555
C14 O6 1_555 1_555
C15 C10 1_555 1_555
C16 C15 1_555 1_555
C17 O5 1_555 1_555
C18 C1 1_555 1_555
C19 C3 1_555 1_555
C20 C11 1_555 1_555
C21 C3 1_555 1_555
H7 C21 1_555 1_555
C22 O2 1_555 1_555
H8 C22 1_555 1_555
C23 C13 1_555 1_555
C24 C14 1_555 1_555
O11 H9 1_555 1_555
C25 C11 1_555 1_555
H10 C25 1_555 1_555
C26 C21 1_555 1_555
H11 C26 1_555 1_555
C27 C6 1_555 1_555
H12 C27 1_555 1_555
H13 C27 1_555 1_555
H14 C27 1_555 1_555
C28 C16 1_555 1_555
H15 C28 1_555 1_555
C29 H16 1_555 1_555
C30 C26 1_555 1_555
H17 C30 1_555 1_555
C31 C23 1_555 1_555
H18 C31 1_555 1_555
C32 C25 1_555 1_555
H19 C32 1_555 1_555
C33 O8 1_555 1_555
C34 C14 1_555 1_555
H20 C34 1_555 1_555
C35 O9 1_555 1_555
C36 C8 1_555 1_555
C37 C35 1_555 1_555
H21 C37 1_555 1_555
H22 C37 1_555 1_555
H23 C37 1_555 1_555
C38 C36 1_555 1_555
H24 C38 1_555 1_555
H25 C38 1_555 1_555
H26 C38 1_555 1_555
C4 C17 1_555 1_555
C4 C19 1_555 1_555
C10 C22 1_555 1_555
C12 C35 1_555 1_555
C17 C28 1_555 1_555
C18 C20 1_555 1_555
C18 C24 1_555 1_555
C19 C33 1_555 1_555
C22 C35 1_555 1_555
C23 C24 1_555 1_555
O11 C36 1_555 1_555
C29 C31 1_555 1_555
C29 C34 1_555 1_555
C30 C33 1_555 1_555
C32 C36 1_555 1_555

#END
