
#######################################################################
#
#                 Cambridge Crystallographic Data Centre
#                                CCDC 
#
#######################################################################
#
# If this CIF has been generated from an entry in the Cambridge 
# Structural Database, then it will include bibliographic, chemical, 
# crystal, experimental, refinement or atomic coordinate data resulting 
# from the CCDC's data processing and validation procedures.
#
#######################################################################

data_VEYRID
_chemical_name_common            
1',2'-dibenzoyl-1-benzyl-1',2'-dihydrospiro[indole-3,3'-pyrrolo[2,1-b][1,3]benzothiazol]-2(1H)-one
_chemical_formula_moiety         'C38 H28 N2 O3 S1'
_chemical_name_systematic        
((1R,2R,3R,3aS)-1'-benzyl-2'-oxo-1,2-dihydro-3aH-spiro[benzo[d]pyrrolo[2,1-b]thiazole-3,3'-indoline]-1,2-diyl)bis(phenylmethanone)
_symmetry_cell_setting           orthorhombic
_symmetry_space_group_name_H-M   'P 21 21 21'
_symmetry_Int_Tables_number      19
_space_group_name_Hall           'P 2ac 2ab'
loop_
_symmetry_equiv_pos_site_id
_symmetry_equiv_pos_as_xyz
1 x,y,z
2 1/2-x,-y,1/2+z
3 -x,1/2+y,1/2-z
4 1/2+x,1/2-y,-z
_cell_length_a                   9.00774(12)
_cell_length_b                   11.44511(14)
_cell_length_c                   29.0288(3)
_cell_angle_alpha                90
_cell_angle_beta                 90
_cell_angle_gamma                90
_cell_volume                     2992.71
_exptl_crystal_colour            colorless
_exptl_crystal_description       plate
_cell_formula_units_Z            4
loop_
_atom_site_label
_atom_site_type_symbol
_atom_site_fract_x
_atom_site_fract_y
_atom_site_fract_z
S1 S 1.09706(10) 0.37119(10) 0.40481(3)
O1 O 0.9340(3) 0.5202(2) 0.27865(8)
O2 O 0.5038(3) 0.4411(2) 0.40020(8)
N1 N 0.8933(3) 0.3231(2) 0.28032(8)
N2 N 0.8920(3) 0.5300(2) 0.41952(8)
O3 O 0.8145(4) 0.7467(2) 0.35620(8)
C1 C 0.8048(3) 0.2982(2) 0.35366(9)
C2 C 0.8388(4) 0.2412(3) 0.31257(10)
C3 C 0.5627(3) 0.4515(3) 0.36280(10)
C4 C 0.8945(4) 0.4322(3) 0.29807(10)
C5 C 0.8950(4) 0.4589(2) 0.45879(9)
C6 C 0.7111(3) 0.5142(2) 0.35821(9)
H1 H 0.7050 0.5700 0.3327
C7 C 0.7486(4) 0.2340(3) 0.39004(10)
H2 H 0.7249 0.2705 0.4177
C8 C 0.8395(3) 0.4260(2) 0.34839(9)
C9 C 0.7531(3) 0.5809(2) 0.40266(9)
H3 H 0.6746 0.5725 0.4258
C10 C 0.4946(3) 0.3988(3) 0.32099(10)
C11 C 0.7975(4) 0.7880(3) 0.43550(11)
C12 C 0.8371(4) 0.3098(3) 0.19607(10)
C13 C 0.8108(4) 0.4731(3) 0.49812(10)
H4 H 0.7432 0.5342 0.5004
C14 C 0.7869(4) 0.7103(3) 0.39419(10)
C15 C 0.9981(4) 0.3691(3) 0.45695(11)
C16 C 0.9507(4) 0.2974(3) 0.23402(10)
H5 H 0.9888 0.2181 0.2337
H6 H 1.0331 0.3495 0.2276
C17 C 0.8208(5) 0.1233(3) 0.30700(12)
H7 H 0.8449 0.0865 0.2794
C18 C 0.8286(5) 0.3944(4) 0.53446(11)
H8 H 0.7713 0.4033 0.5609
C19 C 0.3955(5) 0.3073(4) 0.32682(14)
H9 H 0.3745 0.2798 0.3563
C20 C 0.9659(4) 0.4753(3) 0.38033(10)
H10 H 1.0213 0.5352 0.3634
C21 C 0.7278(4) 0.1151(3) 0.38483(12)
H11 H 0.6884 0.0716 0.4090
C22 C 0.7650(6) 0.0605(3) 0.34420(14)
H12 H 0.7527 -0.0199 0.3416
C23 C 1.0148(5) 0.2917(4) 0.49333(15)
H13 H 1.0837 0.2314 0.4917
C24 C 0.5246(5) 0.4379(4) 0.27672(12)
H14 H 0.5908 0.4991 0.2721
C25 C 0.9033(5) 0.8746(3) 0.43574(15)
H15 H 0.9681 0.8826 0.4110
C26 C 0.6992(5) 0.7790(3) 0.47206(13)
H16 H 0.6273 0.7207 0.4721
C27 C 0.3573(5) 0.2948(5) 0.24619(17)
H17 H 0.3112 0.2596 0.2211
C28 C 0.7696(6) 0.2139(4) 0.17685(15)
H18 H 0.7893 0.1395 0.1882
C29 C 0.9269(5) 0.3057(4) 0.53207(13)
H19 H 0.9358 0.2538 0.5566
C30 C 0.8062(6) 0.4193(4) 0.17856(13)
H20 H 0.8530 0.4847 0.1908
C31 C 0.3284(6) 0.2572(5) 0.28929(19)
H21 H 0.2616 0.1962 0.2936
C32 C 0.7078(7) 0.8565(4) 0.50860(16)
H22 H 0.6410 0.8509 0.5329
C33 C 0.9130(6) 0.9500(4) 0.47300(19)
H23 H 0.9867 1.0069 0.4737
C34 C 0.8144(7) 0.9410(4) 0.50880(17)
H24 H 0.8203 0.9929 0.5334
C35 C 0.4553(5) 0.3854(6) 0.23950(13)
H25 H 0.4752 0.4116 0.2098
C36 C 0.6712(8) 0.2290(6) 0.1402(2)
H26 H 0.6255 0.1643 0.1270
C37 C 0.6414(8) 0.3383(8) 0.12347(17)
H27 H 0.5768 0.3476 0.0988
C38 C 0.7055(8) 0.4318(6) 0.14276(17)
H28 H 0.6822 0.5061 0.1320
loop_
_geom_bond_atom_site_label_1
_geom_bond_atom_site_label_2
_geom_bond_site_symmetry_1
_geom_bond_site_symmetry_2
S1 C15 1_555 1_555
O1 C4 1_555 1_555
O2 C3 1_555 1_555
N1 C2 1_555 1_555
N2 C5 1_555 1_555
O3 C14 1_555 1_555
C1 C2 1_555 1_555
C2 C17 1_555 1_555
C3 C6 1_555 1_555
C4 N1 1_555 1_555
C5 C13 1_555 1_555
C6 H1 1_555 1_555
C7 C1 1_555 1_555
H2 C7 1_555 1_555
C8 C1 1_555 1_555
C9 N2 1_555 1_555
H3 C9 1_555 1_555
C10 C3 1_555 1_555
C11 C14 1_555 1_555
C12 C16 1_555 1_555
C13 H4 1_555 1_555
C14 C9 1_555 1_555
C15 C5 1_555 1_555
C16 N1 1_555 1_555
H5 C16 1_555 1_555
H6 C16 1_555 1_555
C17 H7 1_555 1_555
C18 C13 1_555 1_555
H8 C18 1_555 1_555
C19 C10 1_555 1_555
H9 C19 1_555 1_555
C20 S1 1_555 1_555
H10 C20 1_555 1_555
C21 C7 1_555 1_555
H11 C21 1_555 1_555
C22 C17 1_555 1_555
H12 C22 1_555 1_555
C23 C15 1_555 1_555
H13 C23 1_555 1_555
C24 C10 1_555 1_555
H14 C24 1_555 1_555
C25 C11 1_555 1_555
H15 C25 1_555 1_555
C26 C11 1_555 1_555
H16 C26 1_555 1_555
C27 H17 1_555 1_555
C28 C12 1_555 1_555
H18 C28 1_555 1_555
C29 C18 1_555 1_555
H19 C29 1_555 1_555
C30 C12 1_555 1_555
H20 C30 1_555 1_555
C31 C19 1_555 1_555
H21 C31 1_555 1_555
C32 C26 1_555 1_555
H22 C32 1_555 1_555
C33 C25 1_555 1_555
H23 C33 1_555 1_555
C34 C32 1_555 1_555
H24 C34 1_555 1_555
C35 C24 1_555 1_555
H25 C35 1_555 1_555
C36 C28 1_555 1_555
H26 C36 1_555 1_555
C37 C36 1_555 1_555
H27 C37 1_555 1_555
C38 C30 1_555 1_555
H28 C38 1_555 1_555
N2 C20 1_555 1_555
C4 C8 1_555 1_555
C6 C8 1_555 1_555
C6 C9 1_555 1_555
C8 C20 1_555 1_555
C21 C22 1_555 1_555
C23 C29 1_555 1_555
C27 C31 1_555 1_555
C27 C35 1_555 1_555
C33 C34 1_555 1_555
C37 C38 1_555 1_555

#END
