
#######################################################################
#
#                 Cambridge Crystallographic Data Centre
#                                CCDC 
#
#######################################################################
#
# If this CIF has been generated from an entry in the Cambridge 
# Structural Database, then it will include bibliographic, chemical, 
# crystal, experimental, refinement or atomic coordinate data resulting 
# from the CCDC's data processing and validation procedures.
#
#######################################################################

data_VEZJAO
_chemical_formula_moiety         'C21 H19 N5 O3'
_chemical_name_systematic        
1-(2-(morpholin-4-yl)ethyl)-2-(pyrazin-2-yl)-1H-naphtho[2,3-d]imidazole-4,9-dione
_symmetry_cell_setting           monoclinic
_symmetry_space_group_name_H-M   'P 21/c'
_symmetry_Int_Tables_number      14
_space_group_name_Hall           '-P 2ybc'
loop_
_symmetry_equiv_pos_site_id
_symmetry_equiv_pos_as_xyz
1 x,y,z
2 -x,1/2+y,1/2-z
3 -x,-y,-z
4 x,1/2-y,1/2+z
_cell_length_a                   16.039(3)
_cell_length_b                   12.3381(18)
_cell_length_c                   9.3183(14)
_cell_angle_alpha                90
_cell_angle_beta                 96.320(4)
_cell_angle_gamma                90
_cell_volume                     1832.8
_exptl_crystal_colour            colorless
_exptl_crystal_description       block
_cell_formula_units_Z            4
loop_
_atom_site_label
_atom_site_type_symbol
_atom_site_fract_x
_atom_site_fract_y
_atom_site_fract_z
C1 C 0.14805(19) 0.4179(3) 0.0937(3)
H1 H 0.1321 0.4901 0.0820
C2 C 0.1075(2) 0.3381(3) 0.0057(3)
H2 H 0.0642 0.3573 -0.0642
C3 C 0.13121(19) 0.2317(3) 0.0215(3)
H3 H 0.1041 0.1792 -0.0383
C4 C 0.19553(18) 0.2017(3) 0.1265(3)
H4 H 0.2115 0.1294 0.1366
C5 C 0.23588(17) 0.2800(2) 0.2163(3)
C6 C 0.21241(18) 0.3889(2) 0.1990(3)
C7 C 0.25400(18) 0.4779(2) 0.2907(3)
C8 C 0.31819(18) 0.4386(2) 0.4033(3)
C9 C 0.34251(17) 0.3327(2) 0.4190(3)
C10 C 0.30343(18) 0.2446(2) 0.3298(3)
C11 C 0.41833(17) 0.4199(2) 0.5819(3)
C12 C 0.48148(17) 0.4405(2) 0.7053(3)
C13 C 0.5253(2) 0.3529(3) 0.7721(3)
H5 H 0.5125 0.2834 0.7380
C14 C 0.59986(19) 0.4674(3) 0.9259(3)
H6 H 0.6415 0.4802 1.0016
C15 C 0.55663(18) 0.5538(2) 0.8630(3)
H7 H 0.5689 0.6230 0.8987
C16 C 0.35713(19) 0.6119(2) 0.5428(4)
C17 C 0.30510(19) 0.6256(2) 0.6679(3)
H8 H 0.3285 0.5804 0.7476
H9 H 0.3087 0.7004 0.7002
C18 C 0.1745(2) 0.5809(3) 0.7610(4)
H10 H 0.1785 0.6466 0.8186
H11 H 0.2020 0.5230 0.8187
C19 C 0.0837(2) 0.5524(3) 0.7211(5)
H12 H 0.0801 0.4836 0.6705
H13 H 0.0565 0.5442 0.8085
C20 C 0.0821(2) 0.6478(4) 0.5055(4)
H14 H 0.0528 0.7029 0.4450
H15 H 0.0802 0.5807 0.4512
C21 C 0.1717(2) 0.6816(3) 0.5437(4)
H16 H 0.1981 0.6932 0.4562
H17 H 0.1738 0.7490 0.5973
H18 H 0.415(2) 0.643(3) 0.568(4)
H19 H 0.331(2) 0.648(3) 0.455(4)
N1 N 0.36653(14) 0.49586(19) 0.5087(2)
N2 N 0.40546(14) 0.32102(19) 0.5285(2)
N3 N 0.49722(15) 0.5417(2) 0.7518(3)
N4 N 0.58454(17) 0.3650(2) 0.8824(3)
N5 N 0.21700(15) 0.5972(2) 0.6310(3)
O1 O 0.04096(15) 0.6331(2) 0.6322(3)
O2 O 0.23651(15) 0.57257(18) 0.2685(2)
O3 O 0.32237(14) 0.14992(17) 0.3489(2)
loop_
_geom_bond_atom_site_label_1
_geom_bond_atom_site_label_2
_geom_bond_site_symmetry_1
_geom_bond_site_symmetry_2
C1 H1 1_555 1_555
C2 C1 1_555 1_555
H2 C2 1_555 1_555
C3 C2 1_555 1_555
H3 C3 1_555 1_555
C4 C3 1_555 1_555
H4 C4 1_555 1_555
C5 C4 1_555 1_555
C6 C1 1_555 1_555
C7 C6 1_555 1_555
C8 C7 1_555 1_555
C9 C8 1_555 1_555
C10 C5 1_555 1_555
C11 C12 1_555 1_555
C12 C13 1_555 1_555
C13 H5 1_555 1_555
C14 H6 1_555 1_555
C15 C14 1_555 1_555
H7 C15 1_555 1_555
C16 C17 1_555 1_555
C17 H8 1_555 1_555
H9 C17 1_555 1_555
C18 H10 1_555 1_555
H11 C18 1_555 1_555
C19 C18 1_555 1_555
H12 C19 1_555 1_555
H13 C19 1_555 1_555
C20 H14 1_555 1_555
H15 C20 1_555 1_555
C21 C20 1_555 1_555
H16 C21 1_555 1_555
H17 C21 1_555 1_555
H18 C16 1_555 1_555
H19 C16 1_555 1_555
N1 C8 1_555 1_555
N2 C9 1_555 1_555
N3 C12 1_555 1_555
N4 C13 1_555 1_555
N5 C17 1_555 1_555
O1 C19 1_555 1_555
O2 C7 1_555 1_555
O3 C10 1_555 1_555
C5 C6 1_555 1_555
C9 C10 1_555 1_555
C11 N1 1_555 1_555
C11 N2 1_555 1_555
C14 N4 1_555 1_555
C15 N3 1_555 1_555
C16 N1 1_555 1_555
C18 N5 1_555 1_555
C20 O1 1_555 1_555
C21 N5 1_555 1_555

#END
