
#######################################################################
#
#                 Cambridge Crystallographic Data Centre
#                                CCDC 
#
#######################################################################
#
# If this CIF has been generated from an entry in the Cambridge 
# Structural Database, then it will include bibliographic, chemical, 
# crystal, experimental, refinement or atomic coordinate data resulting 
# from the CCDC's data processing and validation procedures.
#
#######################################################################

data_VEZWOO
_chemical_formula_moiety         'C24 H14 Br2 Cl2 N6 O2'
_chemical_name_systematic        
3-Bromo-N-(2-(3-(4-bromophenyl)-1,2,4-oxadiazol-5-yl)-4-chloro-6-methylphenyl)-1-(3-chloropyridin-2-yl)-1H-pyrazole-5-carboxamide
_symmetry_cell_setting           triclinic
_symmetry_space_group_name_H-M   'P -1'
_symmetry_Int_Tables_number      2
_space_group_name_Hall           '-P 1'
loop_
_symmetry_equiv_pos_site_id
_symmetry_equiv_pos_as_xyz
1 x,y,z
2 -x,-y,-z
_cell_length_a                   9.2290(18)
_cell_length_b                   11.142(2)
_cell_length_c                   12.526(3)
_cell_angle_alpha                76.53(3)
_cell_angle_beta                 80.97(3)
_cell_angle_gamma                86.17(3)
_cell_volume                     1236.47
_exptl_crystal_colour            colorless
_exptl_crystal_description       block
_cell_formula_units_Z            2
loop_
_atom_site_label
_atom_site_type_symbol
_atom_site_fract_x
_atom_site_fract_y
_atom_site_fract_z
Br1 Br 0.49119(9) 0.51860(10) 0.82413(9)
Cl1 Cl 0.9543(2) 0.7139(2) 0.5333(2)
N1 N 0.9153(6) 0.5486(5) 0.7540(5)
O1 O 1.1470(5) 0.6663(5) 0.8131(4)
C1 C 1.0704(8) 0.5945(7) 0.5774(6)
N2 N 1.1297(7) 0.4277(6) 0.7244(5)
Br2 Br 0.15787(8) 0.94492(9) 0.57412(7)
Cl2 Cl 1.36854(19) 1.1760(2) 0.91422(17)
O2 O 0.8951(5) 1.1617(5) 0.7487(4)
C2 C 1.1964(9) 0.5672(8) 0.5086(6)
H1 H 1.2194 0.6131 0.4363
N3 N 0.7848(6) 0.5040(6) 0.7441(5)
C3 C 1.2831(9) 0.4724(9) 0.5508(8)
H2 H 1.3684 0.4525 0.5072
N4 N 0.9764(5) 0.7909(5) 0.8885(4)
H3 H 0.8849 0.7975 0.9145
C4 C 1.2486(9) 0.4049(8) 0.6561(7)
H4 H 1.3114 0.3394 0.6818
N5 N 0.8031(5) 0.9788(5) 0.7842(4)
C5 C 1.0442(7) 0.5224(7) 0.6821(6)
C6 C 0.6877(8) 0.5540(7) 0.8115(6)
N6 N 0.7621(6) 1.1755(6) 0.7023(5)
C7 C 0.7479(7) 0.6296(7) 0.8670(6)
H5 H 0.7004 0.6722 0.9188
C8 C 0.8976(7) 0.6251(6) 0.8252(6)
C9 C 1.0205(7) 0.6947(7) 0.8420(5)
C10 C 1.0706(6) 0.8816(7) 0.8972(5)
C11 C 1.0381(6) 1.0049(7) 0.8506(5)
C12 C 1.1307(7) 1.0972(7) 0.8566(5)
H6 H 1.1116 1.1799 0.8254
C13 C 1.2503(7) 1.0610(7) 0.9103(5)
C14 C 1.2784(7) 0.9423(7) 0.9577(6)
H7 H 1.3612 0.9225 0.9928
C15 C 1.1890(7) 0.8493(7) 0.9560(5)
C16 C 1.2182(8) 0.7216(8) 1.0184(6)
H8 H 1.1467 0.6679 1.0085
H9 H 1.2119 0.7206 1.0959
H10 H 1.3146 0.6938 0.9913
C17 C 0.9106(6) 1.0422(7) 0.7954(5)
C18 C 0.7165(7) 1.0647(7) 0.7254(5)
C19 C 0.5806(7) 1.0350(7) 0.6902(5)
C20 C 0.5283(7) 0.9172(7) 0.7228(6)
H11 H 0.5783 0.8559 0.7684
C21 C 0.4025(7) 0.8893(7) 0.6884(6)
H12 H 0.3671 0.8097 0.7101
C22 C 0.3305(7) 0.9817(8) 0.6213(5)
C23 C 0.3787(7) 1.0977(8) 0.5884(6)
H13 H 0.3279 1.1584 0.5428
C24 C 0.5080(8) 1.1262(7) 0.6241(6)
H14 H 0.5427 1.2060 0.6027
loop_
_geom_bond_atom_site_label_1
_geom_bond_atom_site_label_2
_geom_bond_site_symmetry_1
_geom_bond_site_symmetry_2
Br1 C6 1_555 1_555
Cl1 C1 1_555 1_555
N1 N3 1_555 1_555
O1 C9 1_555 1_555
C1 C2 1_555 1_555
N2 C4 1_555 1_555
Br2 C22 1_555 1_555
Cl2 C13 1_555 1_555
O2 N6 1_555 1_555
C2 H1 1_555 1_555
N3 C6 1_555 1_555
C3 C2 1_555 1_555
H2 C3 1_555 1_555
N4 H3 1_555 1_555
C4 C3 1_555 1_555
H4 C4 1_555 1_555
N5 C17 1_555 1_555
C5 N1 1_555 1_555
C6 C7 1_555 1_555
N6 C18 1_555 1_555
C7 H5 1_555 1_555
C8 N1 1_555 1_555
C9 N4 1_555 1_555
C10 N4 1_555 1_555
C11 C10 1_555 1_555
C12 C11 1_555 1_555
H6 C12 1_555 1_555
C13 C12 1_555 1_555
C14 C13 1_555 1_555
H7 C14 1_555 1_555
C15 C10 1_555 1_555
C16 C15 1_555 1_555
H8 C16 1_555 1_555
H9 C16 1_555 1_555
H10 C16 1_555 1_555
C17 O2 1_555 1_555
C18 N5 1_555 1_555
C19 C18 1_555 1_555
C20 C19 1_555 1_555
H11 C20 1_555 1_555
C21 C20 1_555 1_555
H12 C21 1_555 1_555
C22 C21 1_555 1_555
C23 C22 1_555 1_555
H13 C23 1_555 1_555
C24 C19 1_555 1_555
H14 C24 1_555 1_555
C1 C5 1_555 1_555
N2 C5 1_555 1_555
C7 C8 1_555 1_555
C8 C9 1_555 1_555
C11 C17 1_555 1_555
C14 C15 1_555 1_555
C23 C24 1_555 1_555

#END
