
#######################################################################
#
#                 Cambridge Crystallographic Data Centre
#                                CCDC 
#
#######################################################################
#
# If this CIF has been generated from an entry in the Cambridge 
# Structural Database, then it will include bibliographic, chemical, 
# crystal, experimental, refinement or atomic coordinate data resulting 
# from the CCDC's data processing and validation procedures.
#
#######################################################################

data_VIBJEX
_chemical_formula_moiety         'C23 H24 O2'
_chemical_name_systematic        
9-Phenyl-10,19-dioxapentacyclo[11.5.1.0^1,15^.0^2,7^.0^8,13^]nonadeca-2,4,6-triene
_symmetry_cell_setting           orthorhombic
_symmetry_space_group_name_H-M   'P c a 21'
_symmetry_Int_Tables_number      29
_space_group_name_Hall           'P 2c -2ac'
loop_
_symmetry_equiv_pos_site_id
_symmetry_equiv_pos_as_xyz
1 x,y,z
2 -x,-y,1/2+z
3 1/2-x,y,1/2+z
4 1/2+x,-y,z
_cell_length_a                   23.5957(18)
_cell_length_b                   9.4893(6)
_cell_length_c                   7.7521(5)
_cell_angle_alpha                90
_cell_angle_beta                 90
_cell_angle_gamma                90
_cell_volume                     1735.75
_exptl_crystal_colour            colorless
_exptl_crystal_description       plate
_cell_formula_units_Z            4
loop_
_atom_site_label
_atom_site_type_symbol
_atom_site_fract_x
_atom_site_fract_y
_atom_site_fract_z
C1 C 0.48544(17) 0.4425(4) 0.1918(5)
H1 H 0.4821 0.5189 0.2743
H2 H 0.5155 0.4653 0.1113
C2 C 0.43020(18) 0.4223(4) 0.0969(5)
H3 H 0.4365 0.4270 -0.0266
H4 H 0.4036 0.4958 0.1286
C3 C 0.40610(15) 0.2762(3) 0.1465(4)
H5 H 0.4112 0.2082 0.0526
C4 C 0.44112(14) 0.2348(3) 0.3048(4)
C5 C 0.49848(15) 0.3049(3) 0.2844(5)
H6 H 0.5157 0.3226 0.3960
H7 H 0.5238 0.2467 0.2164
C6 C 0.43737(14) 0.0789(3) 0.3379(4)
C7 C 0.47750(14) -0.0144(4) 0.2704(4)
H8 H 0.5085 0.0210 0.2105
C8 C 0.47177(16) -0.1580(4) 0.2912(5)
H9 H 0.4991 -0.2186 0.2468
C9 C 0.42591(17) -0.2117(4) 0.3770(4)
H10 H 0.4221 -0.3085 0.3917
C10 C 0.38512(15) -0.1209(3) 0.4420(4)
H11 H 0.3538 -0.1579 0.4988
C11 C 0.39013(14) 0.0245(3) 0.4242(4)
C12 C 0.34470(14) 0.1240(3) 0.4935(4)
H12 H 0.3076 0.0881 0.4576
C13 C 0.35240(15) 0.2718(3) 0.4161(4)
C14 C 0.34581(16) 0.2719(4) 0.2162(5)
H13 H 0.3264 0.1875 0.1776
H14 H 0.3246 0.3537 0.1783
C15 C 0.31554(16) 0.3804(4) 0.5044(5)
H15 H 0.3264 0.4738 0.4659
H16 H 0.2763 0.3652 0.4724
C16 C 0.32128(18) 0.3717(4) 0.6977(5)
H17 H 0.3600 0.3932 0.7308
H18 H 0.2966 0.4406 0.7514
C17 C 0.34583(15) 0.1304(3) 0.6934(4)
H19 H 0.3841 0.1565 0.7305
C18 C 0.32990(14) -0.0050(4) 0.7791(4)
C19 C 0.27728(17) -0.0675(4) 0.7480(4)
H20 H 0.2509 -0.0217 0.6789
C20 C 0.26413(17) -0.1978(4) 0.8195(5)
H21 H 0.2291 -0.2387 0.7972
C21 C 0.3025(2) -0.2663(4) 0.9227(5)
H22 H 0.2937 -0.3540 0.9692
C22 C 0.35389(19) -0.2049(4) 0.9570(5)
H23 H 0.3797 -0.2503 1.0285
C23 C 0.36737(16) -0.0757(4) 0.8854(5)
H24 H 0.4024 -0.0354 0.9094
O1 O 0.41137(9) 0.3088(2) 0.4420(3)
O2 O 0.30676(11) 0.2345(3) 0.7564(3)
loop_
_geom_bond_atom_site_label_1
_geom_bond_atom_site_label_2
_geom_bond_site_symmetry_1
_geom_bond_site_symmetry_2
C1 H1 1_555 1_555
H2 C1 1_555 1_555
C2 C1 1_555 1_555
H3 C2 1_555 1_555
H4 C2 1_555 1_555
C3 C2 1_555 1_555
H5 C3 1_555 1_555
C4 C3 1_555 1_555
C5 C1 1_555 1_555
H6 C5 1_555 1_555
H7 C5 1_555 1_555
C6 C4 1_555 1_555
C7 C6 1_555 1_555
H8 C7 1_555 1_555
C8 C7 1_555 1_555
H9 C8 1_555 1_555
C9 C8 1_555 1_555
H10 C9 1_555 1_555
C10 C9 1_555 1_555
H11 C10 1_555 1_555
C11 C6 1_555 1_555
C12 C11 1_555 1_555
H12 C12 1_555 1_555
C13 C12 1_555 1_555
C14 C3 1_555 1_555
H13 C14 1_555 1_555
H14 C14 1_555 1_555
C15 C13 1_555 1_555
H15 C15 1_555 1_555
H16 C15 1_555 1_555
C16 C15 1_555 1_555
H17 C16 1_555 1_555
H18 C16 1_555 1_555
C17 C12 1_555 1_555
H19 C17 1_555 1_555
C18 C17 1_555 1_555
C19 C18 1_555 1_555
H20 C19 1_555 1_555
C20 C19 1_555 1_555
H21 C20 1_555 1_555
C21 C20 1_555 1_555
H22 C21 1_555 1_555
C22 C21 1_555 1_555
H23 C22 1_555 1_555
C23 C18 1_555 1_555
H24 C23 1_555 1_555
O1 C4 1_555 1_555
O2 C16 1_555 1_555
C4 C5 1_555 1_555
C10 C11 1_555 1_555
C13 C14 1_555 1_555
C13 O1 1_555 1_555
C17 O2 1_555 1_555
C22 C23 1_555 1_555

#END
