
#######################################################################
#
#                 Cambridge Crystallographic Data Centre
#                                CCDC 
#
#######################################################################
#
# If this CIF has been generated from an entry in the Cambridge 
# Structural Database, then it will include bibliographic, chemical, 
# crystal, experimental, refinement or atomic coordinate data resulting 
# from the CCDC's data processing and validation procedures.
#
#######################################################################

data_VICLAV
_chemical_formula_moiety         'C19 H13 N1 O2'
_chemical_name_systematic        '4-(Carbazol-9-yl)benzoic acid'
_symmetry_cell_setting           monoclinic
_symmetry_space_group_name_H-M   'P 21/c'
_symmetry_Int_Tables_number      14
_space_group_name_Hall           '-P 2ybc'
loop_
_symmetry_equiv_pos_site_id
_symmetry_equiv_pos_as_xyz
1 x,y,z
2 -x,1/2+y,1/2-z
3 -x,-y,-z
4 x,1/2-y,1/2+z
_cell_length_a                   5.0955(5)
_cell_length_b                   24.613(2)
_cell_length_c                   11.5320(11)
_cell_angle_alpha                90
_cell_angle_beta                 90.818(2)
_cell_angle_gamma                90
_cell_volume                     1446.14
_exptl_crystal_colour            colorless
_exptl_crystal_description       prism
_cell_formula_units_Z            4
_exptl_crystal_preparation       luminescent
loop_
_atom_site_label
_atom_site_type_symbol
_atom_site_fract_x
_atom_site_fract_y
_atom_site_fract_z
O1 O 0.2412(5) 0.45199(10) 0.50816(19)
H1 H 0.3579 0.4682 0.5436
O2 O 0.4010(5) 0.50019(11) 0.3618(2)
N1 N -0.3838(5) 0.34797(10) 0.0775(2)
C1 C 0.0796(6) 0.43366(12) 0.3196(3)
C2 C -0.1047(6) 0.39597(13) 0.3573(3)
H2 H -0.1238 0.3896 0.4363
C3 C -0.2592(7) 0.36798(13) 0.2782(3)
H3 H -0.3852 0.3436 0.3039
C4 C -0.2266(6) 0.37612(12) 0.1601(3)
C5 C -0.0426(6) 0.41312(13) 0.1216(3)
H4 H -0.0201 0.4186 0.0426
C6 C 0.1075(6) 0.44182(13) 0.2016(3)
H5 H 0.2293 0.4670 0.1757
C7 C 0.2509(7) 0.46402(13) 0.4008(3)
C8 C -0.6850(7) 0.33169(14) -0.0665(3)
C9 C -0.5231(6) 0.37154(13) -0.0155(3)
C10 C -0.5241(7) 0.42495(14) -0.0554(3)
H6 H -0.4151 0.4511 -0.0220
C11 C -0.6918(7) 0.43767(16) -0.1458(3)
H7 H -0.6947 0.4730 -0.1742
C12 C -0.8565(8) 0.39927(17) -0.1958(3)
H8 H -0.9697 0.4093 -0.2560
C13 C -0.8540(8) 0.34648(16) -0.1569(3)
H9 H -0.9647 0.3208 -0.1909
C14 C -0.6345(7) 0.28165(13) -0.0062(3)
C15 C -0.4509(6) 0.29258(13) 0.0819(3)
C16 C -0.3491(7) 0.25166(15) 0.1527(3)
H10 H -0.2235 0.2591 0.2098
C17 C -0.4415(8) 0.19989(15) 0.1348(4)
H11 H -0.3783 0.1719 0.1815
C18 C -0.6262(9) 0.18824(15) 0.0491(4)
H12 H -0.6851 0.1527 0.0394
C19 C -0.7230(8) 0.22852(15) -0.0214(3)
H13 H -0.8468 0.2205 -0.0789
loop_
_geom_bond_atom_site_label_1
_geom_bond_atom_site_label_2
_geom_bond_site_symmetry_1
_geom_bond_site_symmetry_2
O1 H1 1_555 1_555
O2 C7 1_555 1_555
N1 C4 1_555 1_555
C1 C2 1_555 1_555
C2 H2 1_555 1_555
C3 C2 1_555 1_555
H3 C3 1_555 1_555
C4 C3 1_555 1_555
C5 C4 1_555 1_555
H4 C5 1_555 1_555
C6 C1 1_555 1_555
H5 C6 1_555 1_555
C7 O1 1_555 1_555
C8 C9 1_555 1_555
C9 N1 1_555 1_555
C10 C9 1_555 1_555
H6 C10 1_555 1_555
C11 C10 1_555 1_555
H7 C11 1_555 1_555
C12 C11 1_555 1_555
H8 C12 1_555 1_555
C13 C8 1_555 1_555
H9 C13 1_555 1_555
C14 C8 1_555 1_555
C15 N1 1_555 1_555
C16 C15 1_555 1_555
H10 C16 1_555 1_555
C17 C16 1_555 1_555
H11 C17 1_555 1_555
C18 C17 1_555 1_555
H12 C18 1_555 1_555
C19 C14 1_555 1_555
H13 C19 1_555 1_555
C1 C7 1_555 1_555
C5 C6 1_555 1_555
C12 C13 1_555 1_555
C14 C15 1_555 1_555
C18 C19 1_555 1_555

#END
