
#######################################################################
#
#                 Cambridge Crystallographic Data Centre
#                                CCDC 
#
#######################################################################
#
# If this CIF has been generated from an entry in the Cambridge 
# Structural Database, then it will include bibliographic, chemical, 
# crystal, experimental, refinement or atomic coordinate data resulting 
# from the CCDC's data processing and validation procedures.
#
#######################################################################

data_VICLUR
_chemical_formula_moiety         'C30 H27 N1 O4'
_chemical_name_systematic        
't-butyl 2-benzyl-2-(naphthalen-2-yl)-3-oxo-2,3-dihydro-4H-1,4-benzoxazine-4-carboxylate'
_symmetry_cell_setting           orthorhombic
_symmetry_space_group_name_H-M   'P 21 21 21'
_symmetry_Int_Tables_number      19
_space_group_name_Hall           'P 2ac 2ab'
loop_
_symmetry_equiv_pos_site_id
_symmetry_equiv_pos_as_xyz
1 x,y,z
2 1/2-x,-y,1/2+z
3 1/2+x,1/2-y,-z
4 -x,1/2+y,1/2-z
_cell_length_a                   9.49079(17)
_cell_length_b                   9.73586(18)
_cell_length_c                   26.0784(5)
_cell_angle_alpha                90
_cell_angle_beta                 90
_cell_angle_gamma                90
_cell_volume                     2409.67
_exptl_crystal_colour            colorless
_cell_formula_units_Z            4
loop_
_atom_site_label
_atom_site_type_symbol
_atom_site_fract_x
_atom_site_fract_y
_atom_site_fract_z
O1 O 0.20089(16) -0.01603(16) 0.56078(5)
O2 O -0.02292(16) 0.03386(17) 0.72971(6)
O3 O 0.2082(2) 0.1650(2) 0.67853(7)
O4 O -0.1664(2) 0.1333(2) 0.67094(7)
N1 N 0.0402(2) 0.0242(2) 0.64664(7)
C1 C -0.0012(2) -0.0777(2) 0.61089(8)
C2 C -0.0685(2) -0.2782(2) 0.53953(9)
H1 H -0.0917 -0.3472 0.5152
C3 C -0.0628(3) 0.0722(2) 0.68374(9)
C4 C -0.1084(2) 0.0705(3) 0.77604(9)
C5 C 0.3601(2) -0.0974(2) 0.62787(8)
C6 C 0.4651(2) -0.3252(2) 0.62008(9)
C7 C 0.0509(2) -0.1983(2) 0.53257(8)
H2 H 0.1098 -0.2122 0.5036
C8 C 0.3797(2) -0.2165(2) 0.60092(8)
H3 H 0.3351 -0.2269 0.5685
C9 C 0.5964(2) 0.0546(2) 0.55109(9)
H4 H 0.6277 0.0284 0.5843
C10 C 0.1735(2) 0.0776(3) 0.64739(9)
C11 C 0.6374(3) 0.0709(3) 0.46031(10)
H5 H 0.6959 0.0549 0.4314
C12 C 0.0837(2) -0.0979(2) 0.56831(8)
C13 C 0.4219(3) 0.1552(3) 0.49643(10)
H6 H 0.3326 0.1977 0.4919
C14 C 0.3717(3) 0.1437(2) 0.59087(10)
H7 H 0.3118 0.2243 0.5831
H8 H 0.4320 0.1682 0.6205
C15 C 0.4649(2) 0.1157(2) 0.54528(9)
C16 C -0.1217(2) -0.1580(2) 0.61754(9)
H9 H -0.1811 -0.1442 0.6464
C17 C -0.1538(3) -0.2578(2) 0.58169(9)
H10 H -0.2354 -0.3130 0.5861
C18 C 0.6822(2) 0.0317(3) 0.50886(10)
H11 H 0.7716 -0.0107 0.5132
C19 C 0.5728(3) -0.5504(3) 0.61111(11)
H12 H 0.5883 -0.6314 0.5916
C20 C 0.6356(3) -0.5358(3) 0.65952(12)
H13 H 0.6925 -0.6077 0.6729
C21 C 0.5084(3) 0.1329(3) 0.45416(10)
H14 H 0.4782 0.1605 0.4210
C22 C 0.5302(3) -0.3104(3) 0.66873(9)
C23 C 0.2752(2) 0.0227(2) 0.60662(8)
C24 C 0.4265(3) -0.0839(3) 0.67671(9)
H15 H 0.4146 -0.0017 0.6959
C25 C -0.2482(3) -0.0023(3) 0.77277(10)
H16 H -0.3053 0.0207 0.8029
H17 H -0.2977 0.0267 0.7416
H18 H -0.2326 -0.1018 0.7717
C26 C 0.5073(3) -0.1880(3) 0.69631(9)
H19 H 0.5487 -0.1775 0.7292
C27 C 0.4886(2) -0.4473(3) 0.59187(10)
H20 H 0.4458 -0.4583 0.5592
C28 C -0.1208(3) 0.2256(3) 0.77922(10)
H21 H -0.1766 0.2506 0.8094
H22 H -0.0265 0.2660 0.7820
H23 H -0.1672 0.2603 0.7483
C29 C 0.6158(3) -0.4200(3) 0.68739(11)
H24 H 0.6597 -0.4117 0.7200
C30 C -0.0206(3) 0.0136(3) 0.81946(9)
H25 H -0.0676 0.0323 0.8522
H26 H -0.0095 -0.0857 0.8151
H27 H 0.0723 0.0576 0.8193
loop_
_geom_bond_atom_site_label_1
_geom_bond_atom_site_label_2
_geom_bond_site_symmetry_1
_geom_bond_site_symmetry_2
O1 C12 1_555 1_555
O2 C3 1_555 1_555
O3 C10 1_555 1_555
O4 C3 1_555 1_555
N1 C1 1_555 1_555
C1 C12 1_555 1_555
C2 H1 1_555 1_555
C3 N1 1_555 1_555
C4 O2 1_555 1_555
C5 C8 1_555 1_555
C6 C8 1_555 1_555
C7 C2 1_555 1_555
H2 C7 1_555 1_555
C8 H3 1_555 1_555
C9 H4 1_555 1_555
C10 N1 1_555 1_555
C11 H5 1_555 1_555
C12 C7 1_555 1_555
C13 H6 1_555 1_555
C14 H7 1_555 1_555
H8 C14 1_555 1_555
C15 C9 1_555 1_555
C16 C1 1_555 1_555
H9 C16 1_555 1_555
C17 C2 1_555 1_555
H10 C17 1_555 1_555
C18 C9 1_555 1_555
H11 C18 1_555 1_555
C19 H12 1_555 1_555
C20 C19 1_555 1_555
H13 C20 1_555 1_555
C21 C11 1_555 1_555
H14 C21 1_555 1_555
C22 C6 1_555 1_555
C23 O1 1_555 1_555
C24 C5 1_555 1_555
H15 C24 1_555 1_555
C25 C4 1_555 1_555
H16 C25 1_555 1_555
H17 C25 1_555 1_555
H18 C25 1_555 1_555
C26 C22 1_555 1_555
H19 C26 1_555 1_555
C27 C6 1_555 1_555
H20 C27 1_555 1_555
C28 C4 1_555 1_555
H21 C28 1_555 1_555
H22 C28 1_555 1_555
H23 C28 1_555 1_555
C29 C20 1_555 1_555
H24 C29 1_555 1_555
C30 C4 1_555 1_555
H25 C30 1_555 1_555
H26 C30 1_555 1_555
H27 C30 1_555 1_555
C5 C23 1_555 1_555
C10 C23 1_555 1_555
C11 C18 1_555 1_555
C13 C15 1_555 1_555
C13 C21 1_555 1_555
C14 C15 1_555 1_555
C14 C23 1_555 1_555
C16 C17 1_555 1_555
C19 C27 1_555 1_555
C22 C29 1_555 1_555
C24 C26 1_555 1_555

#END
