
#######################################################################
#
#                 Cambridge Crystallographic Data Centre
#                                CCDC 
#
#######################################################################
#
# If this CIF has been generated from an entry in the Cambridge 
# Structural Database, then it will include bibliographic, chemical, 
# crystal, experimental, refinement or atomic coordinate data resulting 
# from the CCDC's data processing and validation procedures.
#
#######################################################################

data_VICVAH
_chemical_formula_moiety         'C10 H14 N1 O2 1+,F6 P1 1-'
_chemical_name_systematic        
'1-(2-ethoxy-2-oxoethyl)-3-methylpyridinium hexafluorophosphate'
_symmetry_cell_setting           orthorhombic
_symmetry_space_group_name_H-M   'P 21 21 21'
_symmetry_Int_Tables_number      19
_space_group_name_Hall           'P 2ac 2ab'
loop_
_symmetry_equiv_pos_site_id
_symmetry_equiv_pos_as_xyz
1 x,y,z
2 1/2-x,-y,1/2+z
3 -x,1/2+y,1/2-z
4 1/2+x,1/2-y,-z
_cell_length_a                   7.1265(17)
_cell_length_b                   12.792(3)
_cell_length_c                   15.327(3)
_cell_angle_alpha                90
_cell_angle_beta                 90
_cell_angle_gamma                90
_cell_volume                     1397.24
_exptl_crystal_colour            colorless
_exptl_crystal_description       block
_cell_formula_units_Z            4
loop_
_atom_site_label
_atom_site_type_symbol
_atom_site_fract_x
_atom_site_fract_y
_atom_site_fract_z
P1 P 0.1422(2) 0.85599(13) 0.28501(11)
F1 F 0.2636(10) 0.8866(9) 0.3585(3)
F2 F -0.0339(6) 0.8606(3) 0.3455(4)
F3 F 0.1136(9) 0.9702(4) 0.2573(5)
F4 F 0.0113(13) 0.8229(7) 0.2107(4)
F5 F 0.3211(7) 0.8561(5) 0.2270(4)
F6 F 0.1567(8) 0.7393(4) 0.3030(6)
N1 N 0.7767(7) 0.9582(4) 0.8920(3)
O1 O 1.0704(6) 0.8388(3) 0.8345(3)
O2 O 1.0290(5) 0.8945(3) 0.6971(2)
C1 C 0.3810(10) 0.8251(7) 1.0057(4)
H1 H 0.2737 0.8650 0.9876
H2 H 0.3701 0.8085 1.0666
H3 H 0.3872 0.7616 0.9724
C2 C 0.5568(8) 0.8882(4) 0.9907(4)
C3 C 0.6585(10) 0.9295(6) 1.0584(4)
H4 H 0.6206 0.9191 1.1159
C4 C 0.8158(12) 0.9858(8) 1.0404(4)
H5 H 0.8837 1.0160 1.0856
C5 C 0.8737(11) 0.9981(6) 0.9573(4)
H6 H 0.9832 1.0352 0.9458
C6 C 0.6192(8) 0.9028(4) 0.9069(3)
H7 H 0.5527 0.8745 0.8603
C7 C 0.8420(9) 0.9699(5) 0.8013(3)
H8 H 0.8887 1.0403 0.7925
H9 H 0.7378 0.9588 0.7617
C8 C 0.9944(8) 0.8929(4) 0.7818(3)
C9 C 1.1766(10) 0.8248(5) 0.6671(4)
H10 H 1.1476 0.7531 0.6827
H11 H 1.2957 0.8437 0.6934
C10 C 1.1857(15) 0.8364(9) 0.5712(5)
H12 H 1.0661 0.8190 0.5462
H13 H 1.2800 0.7905 0.5482
H14 H 1.2168 0.9074 0.5568
loop_
_geom_bond_atom_site_label_1
_geom_bond_atom_site_label_2
_geom_bond_site_symmetry_1
_geom_bond_site_symmetry_2
P1 F1 1_555 1_555
F2 P1 1_555 1_555
F3 P1 1_555 1_555
F4 P1 1_555 1_555
F5 P1 1_555 1_555
F6 P1 1_555 1_555
N1 C5 1_555 1_555
O1 C8 1_555 1_555
O2 C8 1_555 1_555
C1 H1 1_555 1_555
H2 C1 1_555 1_555
H3 C1 1_555 1_555
C2 C1 1_555 1_555
C3 C2 1_555 1_555
H4 C3 1_555 1_555
C4 C3 1_555 1_555
H5 C4 1_555 1_555
C5 C4 1_555 1_555
H6 C5 1_555 1_555
C6 N1 1_555 1_555
H7 C6 1_555 1_555
C7 N1 1_555 1_555
H8 C7 1_555 1_555
H9 C7 1_555 1_555
C8 C7 1_555 1_555
C9 O2 1_555 1_555
H10 C9 1_555 1_555
H11 C9 1_555 1_555
C10 C9 1_555 1_555
H12 C10 1_555 1_555
H13 C10 1_555 1_555
H14 C10 1_555 1_555
C2 C6 1_555 1_555

#END
