
#######################################################################
#
#                 Cambridge Crystallographic Data Centre
#                                CCDC 
#
#######################################################################
#
# If this CIF has been generated from an entry in the Cambridge 
# Structural Database, then it will include bibliographic, chemical, 
# crystal, experimental, refinement or atomic coordinate data resulting 
# from the CCDC's data processing and validation procedures.
#
#######################################################################

data_VIDBOB
_chemical_formula_moiety         'C17 H24 O5'
_chemical_name_systematic        
6,12-Dihydroxy-14-methoxy-3-methyl-3,4,5,6,7,8,9,10-octahydro-1H-2-benzoxacyclododecin-1-one
_symmetry_cell_setting           orthorhombic
_symmetry_space_group_name_H-M   'P 21 21 21'
_symmetry_Int_Tables_number      19
_space_group_name_Hall           'P 2ac 2ab'
loop_
_symmetry_equiv_pos_site_id
_symmetry_equiv_pos_as_xyz
1 x,y,z
2 1/2-x,-y,1/2+z
3 -x,1/2+y,1/2-z
4 1/2+x,1/2-y,-z
_cell_length_a                   7.999(2)
_cell_length_b                   12.201(3)
_cell_length_c                   17.057(5)
_cell_angle_alpha                90
_cell_angle_beta                 90
_cell_angle_gamma                90
_cell_volume                     1664.69
_exptl_crystal_colour            colorless
_exptl_crystal_description       rectangular
_cell_formula_units_Z            4
loop_
_atom_site_label
_atom_site_type_symbol
_atom_site_fract_x
_atom_site_fract_y
_atom_site_fract_z
O1 O -0.03821(17) 0.17920(10) 0.30555(8)
H1 H -0.010(3) 0.1678(19) 0.2575(7)
O2 O 0.15374(17) 0.38135(10) 0.52735(7)
O3 O 0.26565(16) 0.62308(9) 0.42732(8)
O4 O 0.44658(13) 0.50697(9) 0.48289(7)
O5 O 0.95576(14) 0.64880(11) 0.34718(8)
H2 H 1.0401(19) 0.6462(18) 0.3769(10)
C1 C 0.31622(18) 0.53091(12) 0.43808(9)
C2 C 0.23834(17) 0.43202(12) 0.40100(9)
C3 C 0.14931(19) 0.35903(12) 0.44870(9)
C4 C 0.0582(2) 0.27346(12) 0.41646(10)
H3 H -0.0020 0.2258 0.4483
C5 C 0.05887(19) 0.26063(12) 0.33546(9)
C6 C 0.15100(19) 0.33013(13) 0.28783(9)
H4 H 0.1536 0.3183 0.2340
C7 C 0.23950(18) 0.41737(12) 0.32000(9)
C8 C 0.3320(2) 0.49219(14) 0.26362(10)
H5 H 0.3619 0.5594 0.2906
H6 H 0.2584 0.5112 0.2205
C9 C 0.4910(2) 0.43863(16) 0.23084(10)
H7 H 0.4660 0.3637 0.2160
H8 H 0.5253 0.4776 0.1840
C10 C 0.6348(2) 0.43853(15) 0.28931(11)
H9 H 0.5921 0.4181 0.3405
H10 H 0.7157 0.3835 0.2736
C11 C 0.7217(2) 0.54787(15) 0.29573(10)
H11 H 0.6392 0.6037 0.3076
H12 H 0.7712 0.5658 0.2454
C12 C 0.85759(19) 0.55066(14) 0.35830(10)
H13 H 0.9311 0.4876 0.3497
C13 C 0.7953(2) 0.54538(15) 0.44240(10)
H14 H 0.8910 0.5486 0.4772
H15 H 0.7412 0.4751 0.4505
C14 C 0.6722(2) 0.63662(14) 0.46573(11)
H16 H 0.7339 0.6956 0.4906
H17 H 0.6207 0.6659 0.4187
C15 C 0.5359(2) 0.59790(13) 0.52112(9)
H18 H 0.4578 0.6582 0.5312
C16 C 0.5989(3) 0.5529(2) 0.59788(11)
H19 H 0.5064 0.5256 0.6280
H20 H 0.6540 0.6101 0.6266
H21 H 0.6763 0.4944 0.5880
C17 C 0.0732(3) 0.30771(18) 0.57898(12)
H22 H 0.0950 0.3291 0.6322
H23 H 0.1150 0.2350 0.5703
H24 H -0.0451 0.3091 0.5695
loop_
_geom_bond_atom_site_label_1
_geom_bond_atom_site_label_2
_geom_bond_site_symmetry_1
_geom_bond_site_symmetry_2
O1 H1 1_555 1_555
O2 C3 1_555 1_555
O3 C1 1_555 1_555
O4 C1 1_555 1_555
O5 H2 1_555 1_555
C1 C2 1_555 1_555
C2 C3 1_555 1_555
C3 C4 1_555 1_555
C4 H3 1_555 1_555
C5 O1 1_555 1_555
C6 C5 1_555 1_555
H4 C6 1_555 1_555
C7 C2 1_555 1_555
C8 C7 1_555 1_555
H5 C8 1_555 1_555
H6 C8 1_555 1_555
C9 C8 1_555 1_555
H7 C9 1_555 1_555
H8 C9 1_555 1_555
C10 C9 1_555 1_555
H9 C10 1_555 1_555
H10 C10 1_555 1_555
C11 C10 1_555 1_555
H11 C11 1_555 1_555
H12 C11 1_555 1_555
C12 O5 1_555 1_555
H13 C12 1_555 1_555
C13 C12 1_555 1_555
H14 C13 1_555 1_555
H15 C13 1_555 1_555
C14 C13 1_555 1_555
H16 C14 1_555 1_555
H17 C14 1_555 1_555
C15 O4 1_555 1_555
H18 C15 1_555 1_555
C16 C15 1_555 1_555
H19 C16 1_555 1_555
H20 C16 1_555 1_555
H21 C16 1_555 1_555
C17 O2 1_555 1_555
H22 C17 1_555 1_555
H23 C17 1_555 1_555
H24 C17 1_555 1_555
C4 C5 1_555 1_555
C6 C7 1_555 1_555
C11 C12 1_555 1_555
C14 C15 1_555 1_555

#END
