
#######################################################################
#
#                 Cambridge Crystallographic Data Centre
#                                CCDC 
#
#######################################################################
#
# If this CIF has been generated from an entry in the Cambridge 
# Structural Database, then it will include bibliographic, chemical, 
# crystal, experimental, refinement or atomic coordinate data resulting 
# from the CCDC's data processing and validation procedures.
#
#######################################################################

data_VIDQOR
_chemical_formula_moiety         'C26 H18 N4'
_chemical_name_systematic        
6-methyl-2,5,7-triphenyl[1,2,4]triazolo[1,5-a]pyridine-8-carbonitrile
_symmetry_cell_setting           monoclinic
_symmetry_space_group_name_H-M   'C 2/c'
_symmetry_Int_Tables_number      15
_space_group_name_Hall           '-C 2yn'
loop_
_symmetry_equiv_pos_site_id
_symmetry_equiv_pos_as_xyz
1 x,y,z
2 -x,y,1/2-z
3 1/2+x,1/2+y,z
4 1/2-x,1/2+y,1/2-z
5 -x,-y,-z
6 x,-y,1/2+z
7 1/2-x,1/2-y,-z
8 1/2+x,1/2-y,1/2+z
_cell_length_a                   28.17(4)
_cell_length_b                   8.537(12)
_cell_length_c                   20.66(3)
_cell_angle_alpha                90
_cell_angle_beta                 124.444(14)
_cell_angle_gamma                90
_cell_volume                     4097.39
_exptl_crystal_colour            white
_exptl_crystal_description       block
_chemical_melting_point          '563.65-563.75 K'
_cell_formula_units_Z            8
_exptl_crystal_recrystallization_method o-dichlorobenzene/toluene
loop_
_atom_site_label
_atom_site_type_symbol
_atom_site_fract_x
_atom_site_fract_y
_atom_site_fract_z
C1 C 1.04696(7) 0.7932(2) 1.11460(10)
C2 C 0.97014(7) 0.7866(2) 1.00210(10)
C3 C 0.91449(7) 0.7781(2) 0.93319(10)
C4 C 0.90664(7) 0.7375(2) 0.86307(10)
C5 C 0.95561(7) 0.7093(2) 0.86118(10)
C6 C 1.00996(7) 0.7208(2) 0.92825(10)
C7 C 1.08650(7) 0.8000(2) 1.20017(10)
C8 C 1.06643(9) 0.8352(3) 1.24569(12)
H1 H 1.0277 0.8588 1.2218
C9 C 1.10303(10) 0.8358(3) 1.32568(12)
H2 H 1.0888 0.8582 1.3558
C10 C 1.16007(10) 0.8040(3) 1.36178(12)
H3 H 1.1848 0.8064 1.4162
C11 C 1.18054(9) 0.7690(3) 1.31841(12)
H4 H 1.2194 0.7466 1.3430
C12 C 1.14402(8) 0.7662(3) 1.23760(12)
H5 H 1.1585 0.7411 1.2081
C13 C 0.86777(7) 0.8080(2) 0.94016(10)
C14 C 0.84741(7) 0.7208(2) 0.79167(10)
C15 C 0.81155(8) 0.6054(3) 0.78769(11)
H6 H 0.8245 0.5383 0.8300
C16 C 0.75666(9) 0.5894(3) 0.72123(13)
H7 H 0.7329 0.5104 0.7186
C17 C 0.73676(9) 0.6885(3) 0.65907(13)
H8 H 0.6996 0.6768 0.6143
C18 C 0.77141(9) 0.8041(3) 0.66285(12)
H9 H 0.7577 0.8730 0.6210
C19 C 0.82689(8) 0.8197(2) 0.72852(11)
H10 H 0.8506 0.8976 0.7302
C20 C 0.94763(9) 0.6620(3) 0.78526(11)
H11 H 0.9399 0.7533 0.7536
H12 H 0.9159 0.5904 0.7575
H13 H 0.9821 0.6121 0.7964
C21 C 1.06439(7) 0.6976(2) 0.93414(10)
C22 C 1.09388(9) 0.8226(3) 0.93387(14)
H14 H 1.0800 0.9232 0.9304
C23 C 1.14391(9) 0.8022(3) 0.93870(16)
H15 H 1.1636 0.8891 0.9382
C24 C 1.16503(9) 0.6578(3) 0.94411(12)
H16 H 1.1989 0.6444 0.9469
C25 C 1.13659(11) 0.5341(3) 0.94539(18)
H17 H 1.1513 0.4340 0.9502
C26 C 1.08604(10) 0.5525(3) 0.93974(17)
H18 H 1.0664 0.4649 0.9397
N1 N 1.06564(6) 0.76146(18) 1.06984(8)
N2 N 1.01543(6) 0.75715(17) 0.99680(8)
N3 N 0.98898(6) 0.81206(18) 1.07616(8)
N4 N 0.83220(7) 0.8326(2) 0.94911(10)
loop_
_geom_bond_atom_site_label_1
_geom_bond_atom_site_label_2
_geom_bond_site_symmetry_1
_geom_bond_site_symmetry_2
C1 C7 1_555 1_555
C2 C3 1_555 1_555
C3 C4 1_555 1_555
C4 C5 1_555 1_555
C5 C6 1_555 1_555
C6 C21 1_555 1_555
C7 C8 1_555 1_555
C8 H1 1_555 1_555
C9 C8 1_555 1_555
H2 C9 1_555 1_555
C10 C9 1_555 1_555
H3 C10 1_555 1_555
C11 C10 1_555 1_555
H4 C11 1_555 1_555
C12 C7 1_555 1_555
H5 C12 1_555 1_555
C13 C3 1_555 1_555
C14 C4 1_555 1_555
C15 C14 1_555 1_555
H6 C15 1_555 1_555
C16 C15 1_555 1_555
H7 C16 1_555 1_555
C17 C16 1_555 1_555
H8 C17 1_555 1_555
C18 C17 1_555 1_555
H9 C18 1_555 1_555
C19 C14 1_555 1_555
H10 C19 1_555 1_555
C20 C5 1_555 1_555
H11 C20 1_555 1_555
H12 C20 1_555 1_555
H13 C20 1_555 1_555
C21 C22 1_555 1_555
C22 H14 1_555 1_555
C23 C22 1_555 1_555
H15 C23 1_555 1_555
C24 C23 1_555 1_555
H16 C24 1_555 1_555
C25 C24 1_555 1_555
H17 C25 1_555 1_555
C26 C21 1_555 1_555
H18 C26 1_555 1_555
N1 C1 1_555 1_555
N2 C2 1_555 1_555
N3 C1 1_555 1_555
N4 C13 1_555 1_555
C2 N3 1_555 1_555
C6 N2 1_555 1_555
C11 C12 1_555 1_555
C18 C19 1_555 1_555
C25 C26 1_555 1_555
N1 N2 1_555 1_555

#END
