
#######################################################################
#
#                 Cambridge Crystallographic Data Centre
#                                CCDC 
#
#######################################################################
#
# If this CIF has been generated from an entry in the Cambridge 
# Structural Database, then it will include bibliographic, chemical, 
# crystal, experimental, refinement or atomic coordinate data resulting 
# from the CCDC's data processing and validation procedures.
#
#######################################################################

data_VIDVIP
_chemical_name_common            'Diaporol B'
_chemical_formula_moiety         'C15 H26 O4'
_chemical_name_systematic        
6,8a-Dihydroxy-5-(hydroxymethyl)-1,1,4a,6-tetramethyloctahydronaphthalen-2(1H)-one
_symmetry_cell_setting           orthorhombic
_symmetry_space_group_name_H-M   'P 21 21 21'
_symmetry_Int_Tables_number      19
_space_group_name_Hall           'P 2ac 2ab'
loop_
_symmetry_equiv_pos_site_id
_symmetry_equiv_pos_as_xyz
1 x,y,z
2 1/2-x,-y,1/2+z
3 -x,1/2+y,1/2-z
4 1/2+x,1/2-y,-z
_cell_length_a                   6.1878(1)
_cell_length_b                   12.2291(2)
_cell_length_c                   18.9781(2)
_cell_angle_alpha                90
_cell_angle_beta                 90
_cell_angle_gamma                90
_cell_volume                     1436.1
_exptl_crystal_colour            colorless
_exptl_crystal_description       Block
_cell_formula_units_Z            4
loop_
_atom_site_label
_atom_site_type_symbol
_atom_site_fract_x
_atom_site_fract_y
_atom_site_fract_z
O1 O 0.76982(16) 0.58291(7) 0.44975(4)
O2 O 1.06293(14) 0.49717(7) 0.64831(4)
O3 O 0.82250(16) 0.57801(7) 0.85144(4)
O4 O 0.79979(17) 0.78831(7) 0.82411(5)
C1 C 0.7897(2) 0.47266(10) 0.55521(6)
C2 C 0.5615(2) 0.42847(10) 0.53997(6)
H1 H 0.5454 0.4158 0.4893
H2 H 0.4537 0.4819 0.5556
H3 H 0.5401 0.3596 0.5654
C3 C 0.9495(2) 0.38370(10) 0.52873(6)
H4 H 0.9186 0.3668 0.4793
H5 H 0.9327 0.3174 0.5572
H6 H 1.0980 0.4108 0.5330
C4 C 0.8392(2) 0.57319(10) 0.50985(6)
C5 C 0.9915(2) 0.65641(10) 0.54004(6)
H7 H 1.0010 0.7191 0.5071
H8 H 1.1372 0.6235 0.5435
C6 C 0.9249(2) 0.69930(9) 0.61334(6)
H9 H 0.8536 0.7712 0.6077
H10 H 1.0567 0.7105 0.6420
C7 C 0.76969(19) 0.62127(9) 0.65364(6)
C8 C 0.53748(19) 0.64890(9) 0.62995(6)
H11 H 0.5218 0.6332 0.5796
H12 H 0.5087 0.7266 0.6385
H13 H 0.4344 0.6045 0.6567
C9 C 0.83414(19) 0.50100(9) 0.63541(6)
C10 C 0.72028(19) 0.41925(9) 0.68423(6)
H14 H 0.5618 0.4259 0.6784
H15 H 0.7625 0.3439 0.6711
C11 C 0.7802(2) 0.44034(9) 0.76114(6)
H16 H 0.7098 0.3847 0.7913
H17 H 0.9386 0.4327 0.7668
C12 C 0.7117(2) 0.55390(10) 0.78555(6)
C13 C 0.4681(2) 0.55853(11) 0.79975(7)
H18 H 0.4270 0.4980 0.8308
H19 H 0.3895 0.5523 0.7551
H20 H 0.4320 0.6282 0.8224
C14 C 0.80218(19) 0.64170(9) 0.73451(6)
H21 H 0.9621 0.6416 0.7421
C15 C 0.7263(2) 0.75687(9) 0.75532(6)
H22 H 0.7807 0.8102 0.7203
H23 H 0.5664 0.7593 0.7543
H24 H 1.107(3) 0.4304(18) 0.6536(10)
H25 H 0.791(4) 0.5288(19) 0.8815(11)
H26 H 0.803(3) 0.7275(18) 0.8491(10)
loop_
_geom_bond_atom_site_label_1
_geom_bond_atom_site_label_2
_geom_bond_site_symmetry_1
_geom_bond_site_symmetry_2
O1 C4 1_555 1_555
O2 C9 1_555 1_555
O3 C12 1_555 1_555
O4 C15 1_555 1_555
C1 C2 1_555 1_555
C2 H1 1_555 1_555
H2 C2 1_555 1_555
H3 C2 1_555 1_555
C3 C1 1_555 1_555
H4 C3 1_555 1_555
H5 C3 1_555 1_555
H6 C3 1_555 1_555
C4 C1 1_555 1_555
C5 C4 1_555 1_555
H7 C5 1_555 1_555
H8 C5 1_555 1_555
C6 C5 1_555 1_555
H9 C6 1_555 1_555
H10 C6 1_555 1_555
C7 C6 1_555 1_555
C8 C7 1_555 1_555
H11 C8 1_555 1_555
H12 C8 1_555 1_555
H13 C8 1_555 1_555
C9 C1 1_555 1_555
C10 C9 1_555 1_555
H14 C10 1_555 1_555
H15 C10 1_555 1_555
C11 C10 1_555 1_555
H16 C11 1_555 1_555
H17 C11 1_555 1_555
C12 C11 1_555 1_555
C13 C12 1_555 1_555
H18 C13 1_555 1_555
H19 C13 1_555 1_555
H20 C13 1_555 1_555
C14 C7 1_555 1_555
H21 C14 1_555 1_555
C15 C14 1_555 1_555
H22 C15 1_555 1_555
H23 C15 1_555 1_555
H24 O2 1_555 1_555
H25 O3 1_555 1_555
H26 O4 1_555 1_555
C7 C9 1_555 1_555
C12 C14 1_555 1_555

#END
