
#######################################################################
#
#                 Cambridge Crystallographic Data Centre
#                                CCDC 
#
#######################################################################
#
# If this CIF has been generated from an entry in the Cambridge 
# Structural Database, then it will include bibliographic, chemical, 
# crystal, experimental, refinement or atomic coordinate data resulting 
# from the CCDC's data processing and validation procedures.
#
#######################################################################

data_VIFLOO
_chemical_formula_moiety         'C25 H15 F3 N4 O3'
_chemical_name_systematic        
4-(4-nitrophenyl)-1-phenyl-3-(trifluoromethyl)-4,9-dihydro-1H-pyrazolo[4',3':5,6]pyrano[2,3-b]indole
_symmetry_cell_setting           monoclinic
_symmetry_space_group_name_H-M   'P 21/c'
_symmetry_Int_Tables_number      14
_space_group_name_Hall           '-P 2ybc'
loop_
_symmetry_equiv_pos_site_id
_symmetry_equiv_pos_as_xyz
1 x,y,z
2 -x,1/2+y,1/2-z
3 -x,-y,-z
4 x,1/2-y,1/2+z
_cell_length_a                   23.01(6)
_cell_length_b                   8.74(2)
_cell_length_c                   21.97(6)
_cell_angle_alpha                90
_cell_angle_beta                 96.07(4)
_cell_angle_gamma                90
_cell_volume                     4393.56
_chemical_melting_point          '269-271  deg.C'
_cell_formula_units_Z            8
loop_
_atom_site_label
_atom_site_type_symbol
_atom_site_fract_x
_atom_site_fract_y
_atom_site_fract_z
C1 C 0.2404(4) 1.1458(7) 0.1378(3)
H1 H 0.2230 1.1934 0.1691
C2 C 0.2986(4) 1.1747(8) 0.1289(3)
H2 H 0.3200 1.2436 0.1545
C3 C 0.3257(3) 1.1021(9) 0.0820(3)
H3 H 0.3645 1.1231 0.0773
C4 C 0.2945(4) 0.9990(8) 0.0429(3)
H4 H 0.3122 0.9497 0.0122
C5 C 0.2362(3) 0.9711(7) 0.0506(2)
C6 C 0.2092(3) 1.0430(6) 0.0980(2)
C7 C 0.1489(3) 0.9919(6) 0.0918(2)
C8 C 0.1444(3) 0.8965(7) 0.0421(2)
C9 C 0.0494(3) 0.8464(7) 0.0482(3)
C10 C 0.0485(3) 0.9325(6) 0.1011(2)
C11 C 0.1000(3) 1.0200(7) 0.1312(2)
H5 H 0.0907 1.1294 0.1310
C12 C -0.0102(4) 0.9157(7) 0.1127(3)
C13 C -0.0267(3) 0.6937(7) -0.0217(3)
C14 C 0.0084(3) 0.6599(7) -0.0669(3)
H6 H 0.0470 0.6928 -0.0637
C15 C -0.0152(4) 0.5747(8) -0.1177(3)
H7 H 0.0077 0.5527 -0.1490
C16 C -0.0715(4) 0.5241(8) -0.1216(3)
H8 H -0.0868 0.4679 -0.1556
C17 C -0.1056(4) 0.5558(8) -0.0759(3)
H9 H -0.1438 0.5197 -0.0785
C18 C -0.0833(3) 0.6418(8) -0.0253(3)
H10 H -0.1066 0.6638 0.0057
C19 C -0.0402(4) 0.9791(10) 0.1644(4)
C20 C 0.1189(2) 0.9679(6) 0.1978(2)
C21 C 0.1114(3) 1.0641(7) 0.2466(2)
H11 H 0.0940 1.1592 0.2394
C22 C 0.1296(3) 1.0193(8) 0.3061(2)
H12 H 0.1250 1.0835 0.3390
C23 C 0.1550(3) 0.8763(8) 0.3154(2)
C24 C 0.1630(3) 0.7795(8) 0.2678(2)
H13 H 0.1806 0.6845 0.2752
C25 C 0.1444(3) 0.8256(7) 0.2088(2)
H14 H 0.1490 0.7606 0.1762
F1 F -0.01747(19) 1.1052(5) 0.18743(18)
F2 F -0.0343(4) 0.8855(7) 0.2122(3)
F3 F -0.0952(3) 1.0014(10) 0.1520(3)
N1 N 0.1960(3) 0.8772(6) 0.0172(2)
H15 H 0.1915 0.9063 -0.0219
N2 N -0.0051(3) 0.7870(5) 0.0313(2)
N3 N -0.0434(3) 0.8300(6) 0.0716(2)
N4 N 0.1747(3) 0.8279(8) 0.3786(2)
O1 O 0.0953(2) 0.8199(5) 0.01555(17)
O2 O 0.2102(3) 0.7201(8) 0.3861(2)
O3 O 0.1563(2) 0.8947(7) 0.4214(2)
C26 C 0.2747(3) 1.2124(8) 0.3494(3)
H16 H 0.2888 1.2155 0.3112
C27 C 0.2260(3) 1.2971(8) 0.3611(3)
H17 H 0.2079 1.3591 0.3303
C28 C 0.2035(3) 1.2922(8) 0.4177(4)
H18 H 0.1705 1.3494 0.4237
C29 C 0.2299(3) 1.2022(8) 0.4652(3)
H19 H 0.2154 1.1991 0.5031
C30 C 0.2784(3) 1.1178(8) 0.4541(3)
C31 C 0.3019(3) 1.1221(7) 0.3967(3)
C32 C 0.3526(3) 1.0238(7) 0.4029(2)
C33 C 0.3568(3) 0.9694(7) 0.4615(3)
C34 C 0.4430(3) 0.8554(7) 0.4552(3)
C35 C 0.4458(3) 0.9066(7) 0.3960(2)
C36 C 0.3952(3) 0.9837(7) 0.3581(2)
H20 H 0.4092 1.0780 0.3404
C37 C 0.5018(3) 0.8643(7) 0.3850(3)
C38 C 0.5123(3) 0.7055(7) 0.5329(2)
C39 C 0.4719(4) 0.6706(9) 0.5732(3)
H21 H 0.4329 0.6983 0.5641
C40 C 0.4901(4) 0.5935(10) 0.6277(3)
H22 H 0.4633 0.5714 0.6553
C41 C 0.5479(4) 0.5501(9) 0.6406(3)
H23 H 0.5602 0.4981 0.6766
C42 C 0.5868(3) 0.5846(8) 0.5997(3)
H24 H 0.6257 0.5549 0.6081
C43 C 0.5694(3) 0.6635(8) 0.5457(3)
H25 H 0.5965 0.6873 0.5186
C44 C 0.5320(4) 0.8873(12) 0.3288(4)
C45 C 0.3670(3) 0.8826(7) 0.3069(2)
C46 C 0.3666(3) 0.9192(8) 0.2460(2)
H26 H 0.3850 1.0080 0.2348
C47 C 0.3387(3) 0.8235(10) 0.2008(3)
H27 H 0.3393 0.8482 0.1597
C48 C 0.3108(3) 0.6951(9) 0.2166(3)
C49 C 0.3100(3) 0.6530(8) 0.2778(3)
H28 H 0.2911 0.5644 0.2885
C50 C 0.3383(3) 0.7481(7) 0.3220(3)
H29 H 0.3383 0.7219 0.3630
F4 F 0.5076(2) 0.9926(7) 0.2933(2)
F5 F 0.5387(4) 0.7679(7) 0.2974(3)
F6 F 0.5857(3) 0.9403(9) 0.3416(3)
N5 N 0.3122(2) 1.0186(6) 0.4945(2)
N6 N 0.4945(2) 0.7856(6) 0.4765(2)
N7 N 0.5316(2) 0.7883(6) 0.4318(2)
N8 N 0.2783(4) 0.6014(9) 0.1683(4)
O4 O 0.3985(2) 0.8726(5) 0.49083(17)
O5 O 0.2423(4) 0.5087(9) 0.1845(3)
O6 O 0.2880(3) 0.6184(8) 0.1157(3)
H30? H 0.5640 0.8391 0.4450
loop_
_geom_bond_atom_site_label_1
_geom_bond_atom_site_label_2
_geom_bond_site_symmetry_1
_geom_bond_site_symmetry_2
C1 H1 1_555 1_555
C2 C1 1_555 1_555
H2 C2 1_555 1_555
C3 C2 1_555 1_555
H3 C3 1_555 1_555
C4 C3 1_555 1_555
H4 C4 1_555 1_555
C5 C4 1_555 1_555
C6 C1 1_555 1_555
C7 C6 1_555 1_555
C8 C7 1_555 1_555
C9 C10 1_555 1_555
C10 C11 1_555 1_555
C11 C7 1_555 1_555
H5 C11 1_555 1_555
C12 C10 1_555 1_555
C13 C14 1_555 1_555
C14 H6 1_555 1_555
C15 C14 1_555 1_555
H7 C15 1_555 1_555
C16 C15 1_555 1_555
H8 C16 1_555 1_555
C17 C16 1_555 1_555
H9 C17 1_555 1_555
C18 C13 1_555 1_555
H10 C18 1_555 1_555
C19 C12 1_555 1_555
C20 C11 1_555 1_555
C21 C20 1_555 1_555
H11 C21 1_555 1_555
C22 C21 1_555 1_555
H12 C22 1_555 1_555
C23 C22 1_555 1_555
C24 C23 1_555 1_555
H13 C24 1_555 1_555
C25 C20 1_555 1_555
H14 C25 1_555 1_555
F1 C19 1_555 1_555
F2 C19 1_555 1_555
F3 C19 1_555 1_555
N1 C5 1_555 1_555
H15 N1 1_555 1_555
N2 C9 1_555 1_555
N3 C12 1_555 1_555
N4 C23 1_555 1_555
O1 C8 1_555 1_555
O2 N4 1_555 1_555
O3 N4 1_555 1_555
C26 H16 1_555 1_555
C27 C26 1_555 1_555
H17 C27 1_555 1_555
C28 C27 1_555 1_555
H18 C28 1_555 1_555
C29 C28 1_555 1_555
H19 C29 1_555 1_555
C30 C29 1_555 1_555
C31 C26 1_555 1_555
C32 C31 1_555 1_555
C33 C32 1_555 1_555
C34 C35 1_555 1_555
C35 C36 1_555 1_555
C36 C32 1_555 1_555
H20 C36 1_555 1_555
C37 C35 1_555 1_555
C38 C39 1_555 1_555
C39 H21 1_555 1_555
C40 C39 1_555 1_555
H22 C40 1_555 1_555
C41 C40 1_555 1_555
H23 C41 1_555 1_555
C42 C41 1_555 1_555
H24 C42 1_555 1_555
C43 C38 1_555 1_555
H25 C43 1_555 1_555
C44 C37 1_555 1_555
C45 C36 1_555 1_555
C46 C45 1_555 1_555
H26 C46 1_555 1_555
C47 C46 1_555 1_555
H27 C47 1_555 1_555
C48 C47 1_555 1_555
C49 C48 1_555 1_555
H28 C49 1_555 1_555
C50 C45 1_555 1_555
H29 C50 1_555 1_555
F4 C44 1_555 1_555
F5 C44 1_555 1_555
F6 C44 1_555 1_555
N5 C30 1_555 1_555
N6 C34 1_555 1_555
N7 C37 1_555 1_555
N8 C48 1_555 1_555
O4 C33 1_555 1_555
O5 N8 1_555 1_555
O6 N8 1_555 1_555
C5 C6 1_555 1_555
C8 N1 1_555 1_555
C9 O1 1_555 1_555
C13 N2 1_555 1_555
C17 C18 1_555 1_555
C24 C25 1_555 1_555
N2 N3 1_555 1_555
C30 C31 1_555 1_555
C33 N5 1_555 1_555
C34 O4 1_555 1_555
C38 N6 1_555 1_555
C42 C43 1_555 1_555
C49 C50 1_555 1_555
N6 N7 1_555 1_555

#END
