
#######################################################################
#
#                 Cambridge Crystallographic Data Centre
#                                CCDC 
#
#######################################################################
#
# If this CIF has been generated from an entry in the Cambridge 
# Structural Database, then it will include bibliographic, chemical, 
# crystal, experimental, refinement or atomic coordinate data resulting 
# from the CCDC's data processing and validation procedures.
#
#######################################################################

data_VIFNON
_chemical_formula_moiety         
'C24 H32 O8,C30 H30 N2 2+,C24 H32 O8,2(F6 P1 1-),2(C1 H3 N1 O2)'
_chemical_name_systematic        
'(3)-(9,10-bis(Benzylammoniomethyl)anthracene)-bis(1,12-di(1,2)-benzena-2,5,8,11,13,16,19,22-octaoxacyclodocosaphane)-pseudorotaxane bis(hexafluorophosphate) nitromethane solvate'
_symmetry_cell_setting           monoclinic
_symmetry_space_group_name_H-M   'P 21'
_symmetry_Int_Tables_number      4
_space_group_name_Hall           'P 2yb'
loop_
_symmetry_equiv_pos_site_id
_symmetry_equiv_pos_as_xyz
1 x,y,z
2 -x,1/2+y,-z
_cell_length_a                   12.044(2)
_cell_length_b                   25.471(2)
_cell_length_c                   14.6318(15)
_cell_angle_alpha                90
_cell_angle_beta                 113.524(9)
_cell_angle_gamma                90
_cell_volume                     4115.6
_exptl_crystal_colour            colorless
_exptl_crystal_description       needles
_cell_formula_units_Z            2
loop_
_atom_site_label
_atom_site_type_symbol
_atom_site_fract_x
_atom_site_fract_y
_atom_site_fract_z
P1 P 0.5335(2) 0.21426(8) 0.39492(14)
F1 F 0.4460(5) 0.2083(2) 0.2800(4)
F2 F 0.6460(5) 0.2097(3) 0.3666(5)
F3 F 0.4224(5) 0.2199(3) 0.4240(4)
F4 F 0.5343(6) 0.2762(2) 0.3809(5)
F5 F 0.6202(6) 0.2214(3) 0.5084(4)
F6 F 0.5316(6) 0.1528(2) 0.4093(4)
P2 P 0.9314(2) 0.10089(8) 0.12654(13)
F7 F 0.8672(8) 0.0726(3) 0.0255(5)
F8 F 1.0060(10) 0.1265(3) 0.2305(5)
F9 F 1.0474(10) 0.0910(7) 0.1084(12)
F10 F 0.8137(11) 0.1070(6) 0.1455(15)
F11 F 0.9366(15) 0.0456(4) 0.1772(8)
F12 F 0.9164(15) 0.1553(4) 0.0753(9)
O1 O 1.1102(4) 0.4862(2) 0.2155(3)
C1 C 1.0713(6) 0.4662(3) 0.1165(4)
H1 H 1.0554(6) 0.4280(3) 0.1156(4)
H2 H 1.1343(6) 0.4721(3) 0.0902(4)
C2 C 0.9567(6) 0.4951(3) 0.0540(4)
H3 H 0.9738(6) 0.5333(3) 0.0588(4)
H4 H 0.9319(6) 0.4847(3) -0.0166(4)
O2 O 0.8598(4) 0.4855(2) 0.0826(3)
C3 C 0.8032(6) 0.4366(3) 0.0515(5)
H5 H 0.8539(6) 0.4086(3) 0.0952(5)
H6 H 0.7946(6) 0.4294(3) -0.0175(5)
C4 C 0.6816(6) 0.4362(3) 0.0554(4)
H7 H 0.6324(6) 0.4655(3) 0.0146(4)
H8 H 0.6398(6) 0.4029(3) 0.0270(4)
O3 O 0.6916(3) 0.4414(2) 0.1538(3)
C5 C 0.5801(5) 0.4331(2) 0.1637(4)
H9 H 0.5973(5) 0.4184(2) 0.2306(4)
H10 H 0.5321(5) 0.4068(2) 0.1137(4)
C6 C 0.5056(5) 0.4822(2) 0.1501(4)
H11 H 0.4973(5) 0.5005(2) 0.0880(4)
H12 H 0.4238(5) 0.4735(2) 0.1462(4)
O4 O 0.5689(3) 0.51472(14) 0.2353(3)
C7 C 0.5075(4) 0.5583(2) 0.2463(4)
C8 C 0.3992(5) 0.5760(2) 0.1749(4)
H13 H 0.3624(5) 0.5579(2) 0.1133(4)
C9 C 0.3441(5) 0.6203(2) 0.1935(5)
H14 H 0.2701(5) 0.6326(2) 0.1439(5)
C10 C 0.3957(5) 0.6465(2) 0.2830(5)
H15 H 0.3575(5) 0.6767(2) 0.2951(5)
C11 C 0.5042(5) 0.6284(2) 0.3558(4)
H16 H 0.5406(5) 0.6467(2) 0.4173(4)
C12 C 0.5587(4) 0.5839(2) 0.3383(4)
O5 O 0.6635(3) 0.56170(14) 0.4061(3)
C13 C 0.7105(5) 0.5835(3) 0.5038(4)
H17 H 0.6454(5) 0.5870(3) 0.5285(4)
H18 H 0.7451(5) 0.6187(3) 0.5034(4)
C14 C 0.8063(5) 0.5473(3) 0.5691(4)
H19 H 0.8398(5) 0.5608(3) 0.6383(4)
H20 H 0.7710(5) 0.5122(3) 0.5692(4)
O6 O 0.9002(3) 0.5431(2) 0.5340(3)
C15 C 1.0021(5) 0.5137(3) 0.5971(4)
H21 H 1.0030(5) 0.4793(3) 0.5658(4)
H22 H 0.9957(5) 0.5071(3) 0.6614(4)
C16 C 1.1168(5) 0.5421(3) 0.6153(4)
H23 H 1.1155(5) 0.5770(3) 0.6447(4)
H24 H 1.1864(5) 0.5220(3) 0.6627(4)
O7 O 1.1293(3) 0.5481(2) 0.5232(3)
C17 C 1.2483(5) 0.5669(3) 0.5391(5)
H25 H 1.3081(5) 0.5382(3) 0.5651(5)
H26 H 1.2718(5) 0.5957(3) 0.5887(5)
C18 C 1.2474(5) 0.5865(3) 0.4419(5)
H27 H 1.1974(5) 0.6187(3) 0.4223(5)
H28 H 1.3310(5) 0.5961(3) 0.4516(5)
O8 O 1.2015(3) 0.5492(2) 0.3629(3)
C19 C 1.2769(5) 0.5100(3) 0.3594(4)
C20 C 1.3973(5) 0.5035(3) 0.4263(5)
H29 H 1.4331(5) 0.5270(3) 0.4805(5)
C21 C 1.4633(5) 0.4622(3) 0.4124(6)
H30 H 1.5457(5) 0.4584(3) 0.4568(6)
C22 C 1.4140(6) 0.4269(3) 0.3371(6)
H31 H 1.4612(6) 0.3983(3) 0.3309(6)
C23 C 1.2934(6) 0.4328(3) 0.2685(5)
H32 H 1.2580(6) 0.4082(3) 0.2160(5)
C24 C 1.2267(5) 0.4754(3) 0.2792(4)
O9 O 0.7443(3) 0.76418(15) 0.0547(3)
C25 C 0.6856(5) 0.7573(3) -0.0519(4)
H33 H 0.6352(5) 0.7252(3) -0.0674(4)
H34 H 0.7472(5) 0.7534(3) -0.0803(4)
C26 C 0.6081(6) 0.8041(2) -0.0966(4)
H35 H 0.6565(6) 0.8362(2) -0.0705(4)
H36 H 0.5840(6) 0.8034(2) -0.1697(4)
O10 O 0.5026(4) 0.8067(2) -0.0768(3)
C27 C 0.4066(6) 0.7756(3) -0.1452(4)
H37 H 0.4264(6) 0.7379(3) -0.1326(4)
H38 H 0.3960(6) 0.7836(3) -0.2144(4)
C28 C 0.2913(5) 0.7877(3) -0.1319(4)
H39 H 0.2756(5) 0.8259(3) -0.1393(4)
H40 H 0.2227(5) 0.7695(3) -0.1844(4)
O11 O 0.2993(3) 0.7715(2) -0.0379(3)
C29 C 0.1834(5) 0.7708(3) -0.0336(5)
H41 H 0.1286(5) 0.7471(3) -0.0857(5)
H42 H 0.1480(5) 0.8065(3) -0.0462(5)
C30 C 0.1954(6) 0.7524(3) 0.0665(5)
H43 H 0.1141(6) 0.7429(3) 0.0632(5)
H44 H 0.2456(6) 0.7202(3) 0.0838(5)
O12 O 0.2479(3) 0.7899(2) 0.1436(3)
C31 C 0.1767(5) 0.8303(3) 0.1519(4)
C32 C 0.0529(5) 0.8364(3) 0.0897(5)
H45 H 0.0127(5) 0.8114(3) 0.0391(5)
C33 C -0.0089(6) 0.8791(3) 0.1037(5)
H46 H -0.0924(6) 0.8831(3) 0.0623(5)
C34 C 0.0468(7) 0.9159(3) 0.1757(6)
H47 H 0.0025(7) 0.9453(3) 0.1830(6)
C35 C 0.1676(7) 0.9100(3) 0.2377(6)
H48 H 0.2069(7) 0.9353(3) 0.2881(6)
C36 C 0.2310(5) 0.8670(3) 0.2257(5)
O13 O 0.3528(4) 0.8628(3) 0.2854(4)
C37 C 0.3901(8) 0.8247(4) 0.3536(8)
H49 H 0.3955(8) 0.7912(4) 0.3212(8)
H50 H 0.3305(8) 0.8200(4) 0.3839(8)
C39 C 0.5137(6) 0.8379(3) 0.4348(5)
H53 H 0.5419(6) 0.8087(3) 0.4797(5)
H54 H 0.5056(6) 0.8676(3) 0.4722(5)
O14 O 0.6011(4) 0.8495(2) 0.3939(3)
C40 C 0.7056(5) 0.8735(3) 0.4654(4)
H57 H 0.7516(5) 0.8475(3) 0.5169(4)
H58 H 0.6816(5) 0.9026(3) 0.4985(4)
C41 C 0.7833(5) 0.8941(2) 0.4159(4)
H59 H 0.7371(5) 0.9196(2) 0.3634(4)
H60 H 0.8548(5) 0.9122(2) 0.4652(4)
O15 O 0.8212(3) 0.85088(14) 0.3727(3)
C42 C 0.9181(5) 0.8637(2) 0.3463(4)
H61 H 0.9811(5) 0.8829(2) 0.4017(4)
H62 H 0.8892(5) 0.8867(2) 0.2869(4)
C43 C 0.9705(5) 0.8147(2) 0.3243(4)
H63 H 1.0466(5) 0.8228(2) 0.3165(4)
H64 H 0.9889(5) 0.7895(2) 0.3799(4)
O16 O 0.8839(3) 0.7925(2) 0.2341(3)
C44 C 0.9191(5) 0.7478(2) 0.1989(4)
C45 C 1.0224(5) 0.7198(2) 0.2534(5)
H65 H 1.0744(5) 0.7303(2) 0.3188(5)
C46 C 1.0486(6) 0.6746(3) 0.2086(6)
H66 H 1.1195(6) 0.6548(3) 0.2448(6)
C47 C 0.9756(6) 0.6591(2) 0.1163(6)
H67 H 0.9945(6) 0.6285(2) 0.0882(6)
C48 C 0.8703(6) 0.6885(2) 0.0608(5)
H68 H 0.8187(6) 0.6780(2) -0.0048(5)
C49 C 0.8433(5) 0.7327(2) 0.1035(4)
C50 C 0.7922(5) 0.4294(2) 0.4095(5)
H69 H 0.7577(5) 0.4618(2) 0.4172(5)
C51 C 0.7542(6) 0.3823(3) 0.4384(6)
H70 H 0.6950(6) 0.3830(3) 0.4660(6)
C52 C 0.8028(6) 0.3350(3) 0.4268(6)
H71 H 0.7769(6) 0.3031(3) 0.4457(6)
C53 C 0.8882(7) 0.3345(2) 0.3880(5)
H72 H 0.9217(7) 0.3019(2) 0.3805(5)
C54 C 0.9282(6) 0.3806(2) 0.3589(4)
H73 H 0.9879(6) 0.3794(2) 0.3318(4)
C55 C 0.8780(4) 0.4290(2) 0.3705(4)
C56 C 0.9248(4) 0.4772(2) 0.3372(4)
H74 H 1.0062(4) 0.4859(2) 0.3879(4)
H75 H 0.9333(4) 0.4692(2) 0.2741(4)
N1 N 0.8442(4) 0.5239(2) 0.3218(3)
H76 H 0.8417(4) 0.5334(2) 0.3816(3)
H77 H 0.7669(4) 0.5153(2) 0.2785(3)
C57 C 0.8888(4) 0.5696(2) 0.2802(4)
H78 H 0.8918(4) 0.5594(2) 0.2159(4)
H79 H 0.9719(4) 0.5791(2) 0.3269(4)
C58 C 0.8066(4) 0.6165(2) 0.2645(4)
C59 C 0.7062(5) 0.6224(2) 0.1746(4)
C60 C 0.6793(5) 0.5852(2) 0.0939(4)
H80 H 0.7308(5) 0.5557(2) 0.1026(4)
C61 C 0.5835(6) 0.5913(2) 0.0073(4)
H81 H 0.5676(6) 0.5659(2) -0.0439(4)
C62 C 0.5057(6) 0.6351(3) -0.0089(4)
H82 H 0.4382(6) 0.6390(3) -0.0708(4)
C63 C 0.5280(5) 0.6722(2) 0.0652(4)
H83 H 0.4760(5) 0.7017(2) 0.0535(4)
C64 C 0.6268(5) 0.6668(2) 0.1581(4)
C65 C 0.6491(4) 0.7027(2) 0.2369(4)
C66 C 0.7478(5) 0.6963(2) 0.3278(4)
C67 C 0.7691(6) 0.7318(2) 0.4104(4)
H84 H 0.7134(6) 0.7595(2) 0.4038(4)
C68 C 0.8670(7) 0.7261(2) 0.4962(4)
H85 H 0.8802(7) 0.7502(2) 0.5490(4)
C69 C 0.9506(6) 0.6849(3) 0.5096(5)
H86 H 1.0195(6) 0.6817(3) 0.5707(5)
C70 C 0.9321(5) 0.6497(2) 0.4342(4)
H87 H 0.9890(5) 0.6223(2) 0.4433(4)
C71 C 0.8297(4) 0.6534(2) 0.3434(4)
C72 C 0.5671(5) 0.7496(2) 0.2213(4)
H88 H 0.4893(5) 0.7426(2) 0.1644(4)
H89 H 0.5499(5) 0.7548(2) 0.2814(4)
N2 N 0.6219(4) 0.7991(2) 0.2010(3)
H90 H 0.6795(4) 0.8116(2) 0.2598(3)
H91 H 0.6596(4) 0.7917(2) 0.1588(3)
C73 C 0.5277(5) 0.8402(2) 0.1552(4)
H92 H 0.4766(5) 0.8428(2) 0.1938(4)
H93 H 0.4750(5) 0.8293(2) 0.0865(4)
C74 C 0.5801(4) 0.8931(2) 0.1517(4)
C75 C 0.5402(5) 0.9360(2) 0.1893(4)
H94 H 0.4847(5) 0.9311(2) 0.2199(4)
C76 C 0.5821(6) 0.9861(2) 0.1820(5)
H95 H 0.5533(6) 1.0154(2) 0.2063(5)
C77 C 0.6641(6) 0.9936(2) 0.1404(5)
H96 H 0.6925(6) 1.0279(2) 0.1362(5)
C78 C 0.7060(6) 0.9509(3) 0.1043(5)
H97 H 0.7629(6) 0.9559(3) 0.0751(5)
C79 C 0.6639(5) 0.9005(2) 0.1112(4)
H98 H 0.6936(5) 0.8712(2) 0.0877(4)
N3 N 0.6665(7) 0.5390(4) 0.7660(7)
O17 O 0.6156(6) 0.5224(3) 0.6811(4)
O18 O 0.7011(7) 0.5131(4) 0.8450(7)
C80 C 0.6756(12) 0.5957(5) 0.7799(10)
H99 H 0.7403(52) 0.6092(6) 0.7619(60)
H100 H 0.6939(75) 0.6040(5) 0.8498(17)
H101 H 0.5986(27) 0.6120(5) 0.7373(48)
N4 N 1.1254(5) 0.2881(3) 0.2275(4)
O19 O 1.1303(7) 0.3106(3) 0.1552(5)
O20 O 1.0927(13) 0.3087(4) 0.2845(8)
C81 C 1.1534(10) 0.2319(4) 0.2423(8)
H102 H 1.1296(57) 0.2185(7) 0.2946(36)
H103 H 1.2406(13) 0.2266(5) 0.2622(49)
H104 H 1.1088(48) 0.2130(5) 0.1799(16)
F13? F 1.0070(24) 0.1385(11) 0.0891(18)
F14? F 0.8675(25) 0.0730(13) 0.1724(19)
F15? F 1.0264(23) 0.0560(10) 0.1609(18)
F16? F 0.8280(31) 0.1427(15) 0.0801(25)
C38? C 0.4098(16) 0.8646(9) 0.3808(15)
H51? H 0.3503(16) 0.8543(9) 0.4086(15)
H52? H 0.4281(16) 0.9022(9) 0.3977(15)
H55? H 0.4979(6) 0.8009(3) 0.4313(5)
H56? H 0.5441(6) 0.8485(3) 0.5035(5)
loop_
_geom_bond_atom_site_label_1
_geom_bond_atom_site_label_2
_geom_bond_site_symmetry_1
_geom_bond_site_symmetry_2
P1 F1 1_555 1_555
F2 P1 1_555 1_555
F3 P1 1_555 1_555
F4 P1 1_555 1_555
F5 P1 1_555 1_555
F6 P1 1_555 1_555
P2 F7 1_555 1_555
F8 P2 1_555 1_555
F9 P2 1_555 1_555
F10 P2 1_555 1_555
F11 P2 1_555 1_555
F12 P2 1_555 1_555
O1 C1 1_555 1_555
C1 H1 1_555 1_555
H2 C1 1_555 1_555
C2 C1 1_555 1_555
H3 C2 1_555 1_555
H4 C2 1_555 1_555
O2 C2 1_555 1_555
C3 O2 1_555 1_555
H5 C3 1_555 1_555
H6 C3 1_555 1_555
C4 C3 1_555 1_555
H7 C4 1_555 1_555
H8 C4 1_555 1_555
O3 C4 1_555 1_555
C5 O3 1_555 1_555
H9 C5 1_555 1_555
H10 C5 1_555 1_555
C6 C5 1_555 1_555
H11 C6 1_555 1_555
H12 C6 1_555 1_555
O4 C6 1_555 1_555
C7 O4 1_555 1_555
C8 C7 1_555 1_555
H13 C8 1_555 1_555
C9 C8 1_555 1_555
H14 C9 1_555 1_555
C10 C9 1_555 1_555
H15 C10 1_555 1_555
C11 C10 1_555 1_555
H16 C11 1_555 1_555
C12 C7 1_555 1_555
O5 C12 1_555 1_555
C13 O5 1_555 1_555
H17 C13 1_555 1_555
H18 C13 1_555 1_555
C14 C13 1_555 1_555
H19 C14 1_555 1_555
H20 C14 1_555 1_555
O6 C14 1_555 1_555
C15 O6 1_555 1_555
H21 C15 1_555 1_555
H22 C15 1_555 1_555
C16 C15 1_555 1_555
H23 C16 1_555 1_555
H24 C16 1_555 1_555
O7 C16 1_555 1_555
C17 O7 1_555 1_555
H25 C17 1_555 1_555
H26 C17 1_555 1_555
C18 C17 1_555 1_555
H27 C18 1_555 1_555
H28 C18 1_555 1_555
O8 C18 1_555 1_555
C19 O8 1_555 1_555
C20 C19 1_555 1_555
H29 C20 1_555 1_555
C21 C20 1_555 1_555
H30 C21 1_555 1_555
C22 C21 1_555 1_555
H31 C22 1_555 1_555
C23 C22 1_555 1_555
H32 C23 1_555 1_555
C24 O1 1_555 1_555
O9 C25 1_555 1_555
C25 H33 1_555 1_555
H34 C25 1_555 1_555
C26 C25 1_555 1_555
H35 C26 1_555 1_555
H36 C26 1_555 1_555
O10 C26 1_555 1_555
C27 O10 1_555 1_555
H37 C27 1_555 1_555
H38 C27 1_555 1_555
C28 C27 1_555 1_555
H39 C28 1_555 1_555
H40 C28 1_555 1_555
O11 C28 1_555 1_555
C29 O11 1_555 1_555
H41 C29 1_555 1_555
H42 C29 1_555 1_555
C30 C29 1_555 1_555
H43 C30 1_555 1_555
H44 C30 1_555 1_555
O12 C30 1_555 1_555
C31 O12 1_555 1_555
C32 C31 1_555 1_555
H45 C32 1_555 1_555
C33 C32 1_555 1_555
H46 C33 1_555 1_555
C34 C33 1_555 1_555
H47 C34 1_555 1_555
C35 C34 1_555 1_555
H48 C35 1_555 1_555
C36 C31 1_555 1_555
O13 C36 1_555 1_555
C37 O13 1_555 1_555
H49 C37 1_555 1_555
H50 C37 1_555 1_555
C39 C37 1_555 1_555
H53 C39 1_555 1_555
H54 C39 1_555 1_555
O14 C39 1_555 1_555
C40 O14 1_555 1_555
H57 C40 1_555 1_555
H58 C40 1_555 1_555
C41 C40 1_555 1_555
H59 C41 1_555 1_555
H60 C41 1_555 1_555
O15 C41 1_555 1_555
C42 O15 1_555 1_555
H61 C42 1_555 1_555
H62 C42 1_555 1_555
C43 C42 1_555 1_555
H63 C43 1_555 1_555
H64 C43 1_555 1_555
O16 C43 1_555 1_555
C44 O16 1_555 1_555
C45 C44 1_555 1_555
H65 C45 1_555 1_555
C46 C45 1_555 1_555
H66 C46 1_555 1_555
C47 C46 1_555 1_555
H67 C47 1_555 1_555
C48 C47 1_555 1_555
H68 C48 1_555 1_555
C49 O9 1_555 1_555
C50 H69 1_555 1_555
C51 C50 1_555 1_555
H70 C51 1_555 1_555
C52 C51 1_555 1_555
H71 C52 1_555 1_555
C53 C52 1_555 1_555
H72 C53 1_555 1_555
C54 C53 1_555 1_555
H73 C54 1_555 1_555
C55 C50 1_555 1_555
C56 C55 1_555 1_555
H74 C56 1_555 1_555
H75 C56 1_555 1_555
N1 C56 1_555 1_555
H76 N1 1_555 1_555
H77 N1 1_555 1_555
C57 N1 1_555 1_555
H78 C57 1_555 1_555
H79 C57 1_555 1_555
C58 C57 1_555 1_555
C59 C58 1_555 1_555
C60 C59 1_555 1_555
H80 C60 1_555 1_555
C61 C60 1_555 1_555
H81 C61 1_555 1_555
C62 C61 1_555 1_555
H82 C62 1_555 1_555
C63 C62 1_555 1_555
H83 C63 1_555 1_555
C64 C59 1_555 1_555
C65 C64 1_555 1_555
C66 C65 1_555 1_555
C67 C66 1_555 1_555
H84 C67 1_555 1_555
C68 C67 1_555 1_555
H85 C68 1_555 1_555
C69 C68 1_555 1_555
H86 C69 1_555 1_555
C70 C69 1_555 1_555
H87 C70 1_555 1_555
C71 C58 1_555 1_555
C72 C65 1_555 1_555
H88 C72 1_555 1_555
H89 C72 1_555 1_555
N2 C72 1_555 1_555
H90 N2 1_555 1_555
H91 N2 1_555 1_555
C73 N2 1_555 1_555
H92 C73 1_555 1_555
H93 C73 1_555 1_555
C74 C73 1_555 1_555
C75 C74 1_555 1_555
H94 C75 1_555 1_555
C76 C75 1_555 1_555
H95 C76 1_555 1_555
C77 C76 1_555 1_555
H96 C77 1_555 1_555
C78 C77 1_555 1_555
H97 C78 1_555 1_555
C79 C74 1_555 1_555
H98 C79 1_555 1_555
N3 O17 1_555 1_555
O18 N3 1_555 1_555
C80 N3 1_555 1_555
H99 C80 1_555 1_555
H100 C80 1_555 1_555
H101 C80 1_555 1_555
N4 O19 1_555 1_555
O20 N4 1_555 1_555
C81 N4 1_555 1_555
H102 C81 1_555 1_555
H103 C81 1_555 1_555
H104 C81 1_555 1_555
C11 C12 1_555 1_555
C19 C24 1_555 1_555
C23 C24 1_555 1_555
C35 C36 1_555 1_555
C44 C49 1_555 1_555
C48 C49 1_555 1_555
C54 C55 1_555 1_555
C63 C64 1_555 1_555
C66 C71 1_555 1_555
C70 C71 1_555 1_555
C78 C79 1_555 1_555

#END
