
#######################################################################
#
#                 Cambridge Crystallographic Data Centre
#                                CCDC 
#
#######################################################################
#
# If this CIF has been generated from an entry in the Cambridge 
# Structural Database, then it will include bibliographic, chemical, 
# crystal, experimental, refinement or atomic coordinate data resulting 
# from the CCDC's data processing and validation procedures.
#
#######################################################################

data_VIFZOA
_chemical_formula_moiety         'C21 H20 N2 O1'
_chemical_name_systematic        
1,5-bis(4-(Dimethylamino)phenyl)penta-1,4-diyn-3-one
_symmetry_cell_setting           monoclinic
_symmetry_space_group_name_H-M   'P 21/c'
_symmetry_Int_Tables_number      14
_space_group_name_Hall           '-P 2ybc'
loop_
_symmetry_equiv_pos_site_id
_symmetry_equiv_pos_as_xyz
1 x,y,z
2 -x,1/2+y,1/2-z
3 -x,-y,-z
4 x,1/2-y,1/2+z
_cell_length_a                   7.6559(2)
_cell_length_b                   18.0757(5)
_cell_length_c                   12.8204(3)
_cell_angle_alpha                90
_cell_angle_beta                 95.710(2)
_cell_angle_gamma                90
_cell_volume                     1765.36
_exptl_crystal_colour            brown
_exptl_crystal_description       Cube
_cell_formula_units_Z            4
loop_
_atom_site_label
_atom_site_type_symbol
_atom_site_fract_x
_atom_site_fract_y
_atom_site_fract_z
O1 O 0.44852(19) -0.14826(8) 0.16138(10)
N1 N 0.9323(2) 0.31147(9) 0.17194(12)
N2 N 0.74979(18) -0.11312(7) 0.86475(10)
C1 C 0.6632(2) 0.02331(9) 0.18411(11)
C2 C 0.5524(2) -0.11948(8) 0.33498(12)
C3 C 0.5274(2) -0.10600(9) 0.22442(12)
C4 C 0.6024(2) -0.03722(9) 0.19562(11)
C5 C 0.5822(2) -0.12269(8) 0.42824(12)
C6 C 0.62274(18) -0.12183(7) 0.53942(11)
C7 C 0.6997(2) -0.05924(8) 0.58778(12)
C8 C 0.7412(2) -0.05608(9) 0.69395(12)
C9 C 0.70958(17) -0.11640(7) 0.75890(11)
C10 C 0.63102(19) -0.17952(8) 0.70988(11)
C11 C 0.58859(19) -0.18169(8) 0.60328(11)
C12 C 0.7252(2) -0.17686(10) 0.93051(13)
C13 C 0.8244(3) -0.04741(11) 0.91503(14)
C14 C 0.73400(18) 0.09551(9) 0.17766(11)
C15 C 0.7276(2) 0.13512(9) 0.08378(12)
C16 C 0.79243(19) 0.20589(10) 0.08129(12)
C17 C 0.86656(18) 0.24107(10) 0.17319(12)
C18 C 0.8731(2) 0.20066(10) 0.26728(13)
C19 C 0.8085(2) 0.13014(10) 0.26890(13)
C20 C 0.9992(3) 0.34813(14) 0.2677(2)
C21 C 0.9224(3) 0.35411(12) 0.0759(2)
H1 H 0.7222 -0.0171 0.5412
H2 H 0.7872 -0.0092 0.7229
H3 H 0.5982 -0.2229 0.7534
H4 H 0.5379 -0.2285 0.5714
H5 H 0.7965 -0.2233 0.9059
H6 H 0.7106 -0.1588 1.0020
H7 H 0.5956 -0.1956 0.9142
H8 H 0.7587 -0.0031 0.8907
H9 H 0.8221 -0.0493 0.9908
H10 H 0.9447 -0.0338 0.8819
H11 H 0.6737 0.1124 0.0147
H12 H 0.7860 0.2358 0.0138
H13 H 0.9330 0.2219 0.3325
H14 H 0.8076 0.1016 0.3369
H15 H 0.9084 0.3511 0.3171
H16 H 1.0883 0.3204 0.3115
H17 H 1.0533 0.3983 0.2558
H18 H 0.9990 0.4041 0.0942
H19 H 0.7949 0.3579 0.0479
H20 H 0.9989 0.3292 0.0222
loop_
_geom_bond_atom_site_label_1
_geom_bond_atom_site_label_2
_geom_bond_site_symmetry_1
_geom_bond_site_symmetry_2
O1 C3 1_555 1_555
N1 C17 1_555 1_555
N2 C9 1_555 1_555
C1 C4 1_555 1_555
C2 C3 1_555 1_555
C3 C4 1_555 1_555
C5 C2 1_555 1_555
C6 C5 1_555 1_555
C7 C6 1_555 1_555
C8 C7 1_555 1_555
C9 C8 1_555 1_555
C10 C9 1_555 1_555
C11 C6 1_555 1_555
C12 N2 1_555 1_555
C13 N2 1_555 1_555
C14 C1 1_555 1_555
C15 C14 1_555 1_555
C16 C15 1_555 1_555
C17 C16 1_555 1_555
C18 C17 1_555 1_555
C19 C14 1_555 1_555
C20 N1 1_555 1_555
C21 N1 1_555 1_555
H1 C7 1_555 1_555
H2 C8 1_555 1_555
H3 C10 1_555 1_555
H4 C11 1_555 1_555
H5 C12 1_555 1_555
H6 C12 1_555 1_555
H7 C12 1_555 1_555
H8 C13 1_555 1_555
H9 C13 1_555 1_555
H10 C13 1_555 1_555
H11 C15 1_555 1_555
H12 C16 1_555 1_555
H13 C18 1_555 1_555
H14 C19 1_555 1_555
H15 C20 1_555 1_555
H16 C20 1_555 1_555
H17 C20 1_555 1_555
H18 C21 1_555 1_555
H19 C21 1_555 1_555
H20 C21 1_555 1_555
C10 C11 1_555 1_555
C18 C19 1_555 1_555

#END
