
#######################################################################
#
#                 Cambridge Crystallographic Data Centre
#                                CCDC 
#
#######################################################################
#
# If this CIF has been generated from an entry in the Cambridge 
# Structural Database, then it will include bibliographic, chemical, 
# crystal, experimental, refinement or atomic coordinate data resulting 
# from the CCDC's data processing and validation procedures.
#
#######################################################################

data_VIGDOH
_chemical_formula_moiety         'C20 H23 Br1 O5'
_chemical_name_systematic        
5a-(2-bromoprop-2-en-1-yl)-1,1-dimethyl-1,2,3,3a,9,9a,12,12a-octahydro-5H,10H-2,12-epoxy-4,11-dioxacyclopenta[d]phenanthrene-5,6(5aH)-dione
_symmetry_cell_setting           monoclinic
_symmetry_space_group_name_H-M   'P 21/c'
_symmetry_Int_Tables_number      14
_space_group_name_Hall           '-P 2ybc'
loop_
_symmetry_equiv_pos_site_id
_symmetry_equiv_pos_as_xyz
1 x,y,z
2 -x,1/2+y,1/2-z
3 -x,-y,-z
4 x,1/2-y,1/2+z
_cell_length_a                   7.9618(8)
_cell_length_b                   22.346(2)
_cell_length_c                   10.2864(11)
_cell_angle_alpha                90
_cell_angle_beta                 105.245(2)
_cell_angle_gamma                90
_cell_volume                     1765.7
_exptl_crystal_colour            colorless
_exptl_crystal_description       prism
_cell_formula_units_Z            4
_exptl_crystal_recrystallization_method 'Solvent evaporation'
loop_
_atom_site_label
_atom_site_type_symbol
_atom_site_fract_x
_atom_site_fract_y
_atom_site_fract_z
Br1 Br 0.68657(5) 0.47044(2) 0.98755(4)
O1 O 0.6516(3) 0.47901(9) 0.6351(2)
O2 O 0.5893(3) 0.36987(9) 0.4445(2)
O3 O 0.3086(3) 0.21890(9) 0.4318(2)
O4 O 0.1891(3) 0.26662(9) 0.2270(2)
O5 O 0.8148(3) 0.34763(11) 0.6134(2)
C1 C 0.5543(3) 0.38115(12) 0.6714(3)
C2 C 0.5304(4) 0.44972(12) 0.6532(3)
C3 C 0.3798(3) 0.34465(12) 0.6366(3)
H1 H 0.404576 0.307326 0.691970
C4 C 0.1620(4) 0.24816(13) 0.3531(3)
H2 H 0.055886 0.222464 0.339213
C5 C 0.3665(4) 0.47718(13) 0.6587(3)
H3 H 0.355166 0.519495 0.653835
C6 C 0.1398(3) 0.30629(12) 0.4233(3)
H4 H 0.072849 0.300970 0.492242
C7 C 0.4351(4) 0.26454(13) 0.4770(3)
H5 H 0.506911 0.269489 0.412404
H6 H 0.512694 0.253885 0.566016
C8 C 0.3349(3) 0.32390(12) 0.4874(3)
C9 C 0.3986(3) 0.37216(12) 0.4052(3)
H7 H 0.360026 0.412303 0.429227
C10 C 0.6665(4) 0.36436(13) 0.5775(3)
C11 C 0.2318(4) 0.44392(13) 0.6706(3)
H8 H 0.126050 0.463729 0.670138
C12 C 0.2380(4) 0.37801(12) 0.6843(3)
H9 H 0.123591 0.361944 0.633689
H10 H 0.252707 0.368210 0.780488
C13 C 0.0413(3) 0.34453(13) 0.3021(3)
C14 C 0.6522(4) 0.36606(13) 0.8202(3)
H11 H 0.564122 0.360387 0.871454
H12 H 0.712394 0.327265 0.820547
C15 C 0.3363(4) 0.36369(13) 0.2527(3)
H13 H 0.424624 0.340609 0.221654
H14 H 0.324339 0.403331 0.208229
C16 C 0.0145(4) 0.41080(13) 0.3294(3)
H15 H -0.060950 0.414313 0.390466
H16 H -0.040088 0.431058 0.244251
H17 H 0.127346 0.429393 0.370835
C17 C 0.1614(4) 0.33078(13) 0.2108(3)
H18 H 0.100694 0.340328 0.114981
C18 C 0.9529(4) 0.41509(19) 0.9048(3)
H19 H 1.008297 0.387123 0.860202
H20 H 1.018633 0.446409 0.956863
C19 C -0.1408(4) 0.31782(15) 0.2407(3)
H21 H -0.128936 0.276638 0.211585
H22 H -0.201850 0.341901 0.163004
H23 H -0.207262 0.317950 0.308466
C20 C 0.7828(4) 0.41040(15) 0.8945(3)
loop_
_geom_bond_atom_site_label_1
_geom_bond_atom_site_label_2
_geom_bond_site_symmetry_1
_geom_bond_site_symmetry_2
Br1 C20 1_555 1_555
O1 C2 1_555 1_555
O2 C9 1_555 1_555
O3 C4 1_555 1_555
O4 C4 1_555 1_555
O5 C10 1_555 1_555
C1 C2 1_555 1_555
C2 C5 1_555 1_555
C3 C1 1_555 1_555
H1 C3 1_555 1_555
C4 H2 1_555 1_555
C5 H3 1_555 1_555
C6 C4 1_555 1_555
H4 C6 1_555 1_555
C7 O3 1_555 1_555
H5 C7 1_555 1_555
H6 C7 1_555 1_555
C8 C3 1_555 1_555
C9 C8 1_555 1_555
H7 C9 1_555 1_555
C10 O2 1_555 1_555
C11 C5 1_555 1_555
H8 C11 1_555 1_555
C12 C3 1_555 1_555
H9 C12 1_555 1_555
H10 C12 1_555 1_555
C13 C6 1_555 1_555
C14 C1 1_555 1_555
H11 C14 1_555 1_555
H12 C14 1_555 1_555
C15 C9 1_555 1_555
H13 C15 1_555 1_555
H14 C15 1_555 1_555
C16 C13 1_555 1_555
H15 C16 1_555 1_555
H16 C16 1_555 1_555
H17 C16 1_555 1_555
C17 O4 1_555 1_555
H18 C17 1_555 1_555
C18 H19 1_555 1_555
H20 C18 1_555 1_555
C19 C13 1_555 1_555
H21 C19 1_555 1_555
H22 C19 1_555 1_555
H23 C19 1_555 1_555
C20 C14 1_555 1_555
C1 C10 1_555 1_555
C6 C8 1_555 1_555
C7 C8 1_555 1_555
C11 C12 1_555 1_555
C13 C17 1_555 1_555
C15 C17 1_555 1_555
C18 C20 1_555 1_555

#END
