
#######################################################################
#
#                 Cambridge Crystallographic Data Centre
#                                CCDC 
#
#######################################################################
#
# If this CIF has been generated from an entry in the Cambridge 
# Structural Database, then it will include bibliographic, chemical, 
# crystal, experimental, refinement or atomic coordinate data resulting 
# from the CCDC's data processing and validation procedures.
#
#######################################################################

data_VIGDAR02
_chemical_name_common            'Celecoxib Nicotinamide'
_chemical_formula_moiety         'C17 H14 F3 N3 O2 S1,C6 H6 N2 O1'
_chemical_name_systematic        
'4-[5-(4-methylphenyl)-3-(trifluoromethyl)-1H-pyrazol-1-yl]benzene-1-sulfonamide pyridine-3-carboxamide'
_symmetry_cell_setting           monoclinic
_symmetry_space_group_name_H-M   'P 21/n'
_symmetry_Int_Tables_number      14
_space_group_name_Hall           '-P 2yn'
loop_
_symmetry_equiv_pos_site_id
_symmetry_equiv_pos_as_xyz
1 x,y,z
2 1/2-x,1/2+y,1/2-z
3 -x,-y,-z
4 1/2+x,1/2-y,1/2+z
_cell_length_a                   5.1908(2)
_cell_length_b                   9.9244(4)
_cell_length_c                   46.3893(16)
_cell_angle_alpha                90
_cell_angle_beta                 92.2545(15)
_cell_angle_gamma                90
_cell_volume                     2387.92
_exptl_crystal_colour            colorless
_exptl_crystal_description       needle
_cell_formula_units_Z            4
_exptl_crystal_recrystallization_method chloroform
loop_
_atom_site_label
_atom_site_type_symbol
_atom_site_fract_x
_atom_site_fract_y
_atom_site_fract_z
S1 S 0.80526(17) 0.43749(9) 0.95811(2)
O1 O 1.0612(5) 0.3870(3) 0.96276(6)
N1 N 0.4869(7) 0.3403(3) 0.83506(6)
C1 C 0.3552(11) 0.4098(5) 0.79414(9)
N2 N 0.3813(8) 0.4494(4) 0.82145(7)
C2 C 0.4410(11) 0.2803(5) 0.78998(9)
H1 H 0.4415 0.2334 0.7726
N3 N 0.6225(6) 0.3535(3) 0.97843(6)
H2 H 0.457(3) 0.380(4) 0.9764(9)
H3 H 0.649(8) 0.2647(13) 0.9765(9)
C3 C 0.5253(9) 0.2346(4) 0.81651(8)
O2 O 0.7525(6) 0.5770(3) 0.96302(6)
C4 C 0.2462(16) 0.5057(7) 0.77254(12)
C5 C 0.6167(8) 0.0993(4) 0.82464(8)
C6 C 0.5036(9) 0.0250(5) 0.84597(9)
H4 H 0.3728 0.0628 0.8565
C7 C 0.5841(9) -0.1050(5) 0.85173(10)
H5 H 0.5042 -0.1543 0.8659
C8 C 0.7800(10) -0.1632(5) 0.83701(10)
C9 C 0.8934(11) -0.0897(5) 0.81590(11)
H6 H 1.0266 -0.1273 0.8057
C10 C 0.8113(11) 0.0395(5) 0.80963(10)
H7 H 0.8883 0.0873 0.7950
C11 C 0.8710(13) -0.3045(5) 0.84416(13)
H8 H 0.8679 -0.3184 0.8646
H9 H 1.0437 -0.3162 0.8379
H10 H 0.7592 -0.3685 0.8345
C12 C 0.5631(7) 0.3565(4) 0.86479(8)
C13 C 0.7760(8) 0.2924(4) 0.87689(8)
H11 H 0.8712 0.2337 0.8659
C14 C 0.8483(7) 0.3155(4) 0.90547(8)
H12 H 0.9893 0.2703 0.9138
C15 C 0.7121(7) 0.4051(3) 0.92158(7)
C16 C 0.4974(8) 0.4697(4) 0.90947(8)
H13 H 0.4041 0.5294 0.9205
C17 C 0.4225(8) 0.4456(4) 0.88117(8)
H14 H 0.2782 0.4887 0.8730
F1 F 0.326(5) 0.6309(10) 0.7763(4)
F2 F 0.285(4) 0.4676(15) 0.74624(15)
F3 F -0.0061(19) 0.514(2) 0.7745(3)
O3 O 0.7656(5) 0.0772(3) 0.97704(6)
N4 N 0.2191(8) 0.0379(4) 0.91121(8)
N5 N 0.7812(6) -0.1435(3) 0.98645(7)
H15 H 0.751(9) -0.227(2) 0.9797(9)
H16 H 0.918(6) -0.130(5) 0.9987(8)
C18 C 0.4083(9) 0.0421(4) 0.93137(9)
H17 H 0.5057 0.1206 0.9328
C19 C 0.4717(7) -0.0609(4) 0.95037(7)
C20 C 0.3280(8) -0.1770(4) 0.94784(8)
H18 H 0.3624 -0.2491 0.9602
C21 C 0.1333(8) -0.1862(5) 0.92699(9)
H19 H 0.0363 -0.2646 0.9248
C22 C 0.0860(8) -0.0762(5) 0.90953(9)
H20 H -0.0479 -0.0821 0.8957
C23 C 0.6856(7) -0.0383(4) 0.97213(7)
F4? F 0.090(7) 0.600(3) 0.7803(3)
F5? F 0.434(3) 0.566(4) 0.7586(7)
F6? F 0.099(9) 0.440(2) 0.7530(8)
loop_
_geom_bond_atom_site_label_1
_geom_bond_atom_site_label_2
_geom_bond_site_symmetry_1
_geom_bond_site_symmetry_2
S1 O1 1_555 1_555
N1 N2 1_555 1_555
C1 N2 1_555 1_555
C2 C1 1_555 1_555
H1 C2 1_555 1_555
N3 S1 1_555 1_555
H2 N3 1_555 1_555
H3 N3 1_555 1_555
C3 N1 1_555 1_555
O2 S1 1_555 1_555
C4 C1 1_555 1_555
C5 C3 1_555 1_555
C6 C5 1_555 1_555
H4 C6 1_555 1_555
C7 C6 1_555 1_555
H5 C7 1_555 1_555
C8 C7 1_555 1_555
C9 C8 1_555 1_555
H6 C9 1_555 1_555
C10 C5 1_555 1_555
H7 C10 1_555 1_555
C11 C8 1_555 1_555
H8 C11 1_555 1_555
H9 C11 1_555 1_555
H10 C11 1_555 1_555
C12 N1 1_555 1_555
C13 C12 1_555 1_555
H11 C13 1_555 1_555
C14 C13 1_555 1_555
H12 C14 1_555 1_555
C15 S1 1_555 1_555
C16 C15 1_555 1_555
H13 C16 1_555 1_555
C17 C12 1_555 1_555
H14 C17 1_555 1_555
F1 C4 1_555 1_555
F2 C4 1_555 1_555
F3 C4 1_555 1_555
O3 C23 1_555 1_555
N4 C18 1_555 1_555
N5 H15 1_555 1_555
H16 N5 1_555 1_555
C18 H17 1_555 1_555
C19 C18 1_555 1_555
C20 C19 1_555 1_555
H18 C20 1_555 1_555
C21 C20 1_555 1_555
H19 C21 1_555 1_555
C22 N4 1_555 1_555
H20 C22 1_555 1_555
C23 N5 1_555 1_555
C2 C3 1_555 1_555
C9 C10 1_555 1_555
C14 C15 1_555 1_555
C16 C17 1_555 1_555
C19 C23 1_555 1_555
C21 C22 1_555 1_555

#END
