
#######################################################################
#
#                 Cambridge Crystallographic Data Centre
#                                CCDC 
#
#######################################################################
#
# If this CIF has been generated from an entry in the Cambridge 
# Structural Database, then it will include bibliographic, chemical, 
# crystal, experimental, refinement or atomic coordinate data resulting 
# from the CCDC's data processing and validation procedures.
#
#######################################################################

data_VIGDEX
_chemical_name_common            enmein
_chemical_formula_moiety         'C20 H26 O6'
_chemical_name_systematic        
2,13-dihydroxy-1,1-dimethyl-7-methylidenedecahydro-5H,11H-5a,8-methanocyclohepta[c]furo[3,4-e][1]benzopyran-5,6(7H)-dione
_symmetry_cell_setting           monoclinic
_symmetry_space_group_name_H-M   'P 21/n'
_symmetry_Int_Tables_number      14
_space_group_name_Hall           '-P 2yn'
loop_
_symmetry_equiv_pos_site_id
_symmetry_equiv_pos_as_xyz
1 x,y,z
2 1/2-x,1/2+y,1/2-z
3 -x,-y,-z
4 1/2+x,1/2-y,1/2+z
_cell_length_a                   9.0133(6)
_cell_length_b                   10.9259(7)
_cell_length_c                   17.7900(12)
_cell_angle_alpha                90
_cell_angle_beta                 100.455(2)
_cell_angle_gamma                90
_cell_volume                     1722.84
_exptl_crystal_colour            colorless
_exptl_crystal_description       prism
_cell_formula_units_Z            4
_exptl_crystal_recrystallization_method 'obtained by'
loop_
_atom_site_label
_atom_site_type_symbol
_atom_site_fract_x
_atom_site_fract_y
_atom_site_fract_z
O1 O 0.71101(12) 0.44962(10) 0.18684(6)
O2 O 0.40203(12) 0.73942(10) 0.11930(6)
H1 H 0.495279 0.752340 0.130668
O3 O 0.29067(12) 0.30865(10) 0.21310(7)
O4 O 0.21357(13) 0.43131(10) 0.30627(6)
H2 H 0.178525 0.367656 0.322963
O5 O 0.87734(12) 0.34286(11) 0.26529(6)
O6 O 0.74316(14) 0.27185(11) 0.39406(7)
C1 C 0.46767(16) 0.47352(13) 0.22507(8)
C2 C 0.30390(16) 0.52296(13) 0.20181(8)
H3 H 0.292118 0.597133 0.233133
C3 C 0.53591(16) 0.49255(13) 0.31117(8)
H4 H 0.489722 0.430032 0.340925
C4 C 0.57910(16) 0.53014(13) 0.18026(8)
H5 H 0.612253 0.611316 0.203336
C5 C 0.77179(16) 0.41291(14) 0.25748(9)
C6 C 0.37601(17) 0.62131(13) 0.08414(8)
H6 H 0.341531 0.633547 0.027974
C7 C 0.25028(16) 0.55423(13) 0.11567(8)
C8 C 0.52178(17) 0.54722(14) 0.09591(8)
H7 H 0.502926 0.466422 0.070807
H8 H 0.598494 0.590577 0.072514
C9 C 0.71187(16) 0.46623(13) 0.32398(8)
C10 C 0.21430(17) 0.41773(14) 0.22802(9)
H9 H 0.108727 0.417582 0.198489
C11 C 0.50550(17) 0.61894(13) 0.34281(8)
H10 H 0.396956 0.624993 0.345428
H11 H 0.527865 0.682372 0.306726
C12 C 0.11171(17) 0.63831(14) 0.10969(9)
H12 H 0.031358 0.595444 0.129479
H13 H 0.075963 0.660348 0.056060
H14 H 0.139536 0.712712 0.139717
C13 C 0.44458(17) 0.33471(13) 0.20949(9)
H15 H 0.466043 0.313764 0.158384
H16 H 0.512892 0.286599 0.248403
C14 C 0.80448(17) 0.58136(14) 0.35432(9)
H17 H 0.914168 0.567544 0.358241
H18 H 0.773807 0.653724 0.321694
C15 C 0.20247(19) 0.44350(15) 0.06338(9)
H19 H 0.286614 0.385610 0.067580
H20 H 0.174547 0.471299 0.010319
H21 H 0.115793 0.403104 0.078952
C16 C 0.76091(18) 0.59518(15) 0.43352(9)
H22 H 0.833692 0.648889 0.467722
C17 C 0.74395(17) 0.38291(14) 0.39423(9)
C18 C 0.59851(18) 0.64619(15) 0.42256(9)
H23 H 0.546649 0.610125 0.461824
H24 H 0.603068 0.735882 0.430559
C19 C 0.76776(18) 0.46453(16) 0.46210(9)
C20 C 0.7896(2) 0.4218(2) 0.53304(11)
H25 H 0.808(2) 0.330(2) 0.5441(12)
H26 H 0.803(3) 0.475(2) 0.5771(14)
loop_
_geom_bond_atom_site_label_1
_geom_bond_atom_site_label_2
_geom_bond_site_symmetry_1
_geom_bond_site_symmetry_2
O1 C4 1_555 1_555
O2 H1 1_555 1_555
O3 C10 1_555 1_555
O4 H2 1_555 1_555
O5 C5 1_555 1_555
O6 C17 1_555 1_555
C1 C2 1_555 1_555
C2 H3 1_555 1_555
C3 C1 1_555 1_555
H4 C3 1_555 1_555
C4 C1 1_555 1_555
H5 C4 1_555 1_555
C5 O1 1_555 1_555
C6 O2 1_555 1_555
H6 C6 1_555 1_555
C7 C2 1_555 1_555
C8 C4 1_555 1_555
H7 C8 1_555 1_555
H8 C8 1_555 1_555
C9 C3 1_555 1_555
C10 O4 1_555 1_555
H9 C10 1_555 1_555
C11 C3 1_555 1_555
H10 C11 1_555 1_555
H11 C11 1_555 1_555
C12 C7 1_555 1_555
H12 C12 1_555 1_555
H13 C12 1_555 1_555
H14 C12 1_555 1_555
C13 O3 1_555 1_555
H15 C13 1_555 1_555
H16 C13 1_555 1_555
C14 C9 1_555 1_555
H17 C14 1_555 1_555
H18 C14 1_555 1_555
C15 C7 1_555 1_555
H19 C15 1_555 1_555
H20 C15 1_555 1_555
H21 C15 1_555 1_555
C16 C14 1_555 1_555
H22 C16 1_555 1_555
C17 C9 1_555 1_555
C18 C11 1_555 1_555
H23 C18 1_555 1_555
H24 C18 1_555 1_555
C19 C16 1_555 1_555
C20 C19 1_555 1_555
H25 C20 1_555 1_555
H26 C20 1_555 1_555
C1 C13 1_555 1_555
C2 C10 1_555 1_555
C5 C9 1_555 1_555
C6 C7 1_555 1_555
C6 C8 1_555 1_555
C16 C18 1_555 1_555
C17 C19 1_555 1_555

#END
