
#######################################################################
#
#                 Cambridge Crystallographic Data Centre
#                                CCDC 
#
#######################################################################
#
# If this CIF has been generated from an entry in the Cambridge 
# Structural Database, then it will include bibliographic, chemical, 
# crystal, experimental, refinement or atomic coordinate data resulting 
# from the CCDC's data processing and validation procedures.
#
#######################################################################

data_VIGLEF
_chemical_formula_moiety         'C10 H8 Br1 I1 O2'
_chemical_name_systematic        
1-(5-bromo-7-iodo-2,3-dihydro-1-benzofuran-2-yl)ethan-1-one
_symmetry_cell_setting           monoclinic
_symmetry_space_group_name_H-M   'I 2'
_symmetry_Int_Tables_number      5
_space_group_name_Hall           'I 2y'
loop_
_symmetry_equiv_pos_site_id
_symmetry_equiv_pos_as_xyz
1 x,y,z
2 -x,y,-z
3 1/2+x,1/2+y,1/2+z
4 1/2-x,1/2+y,1/2-z
_cell_length_a                   16.7992(10)
_cell_length_b                   4.3948(2)
_cell_length_c                   29.6807(15)
_cell_angle_alpha                90
_cell_angle_beta                 99.337(5)
_cell_angle_gamma                90
_cell_volume                     2162.27
_exptl_crystal_colour            colorless
_exptl_crystal_description       needle
_cell_formula_units_Z            8
loop_
_atom_site_label
_atom_site_type_symbol
_atom_site_fract_x
_atom_site_fract_y
_atom_site_fract_z
O1 O 0.8377(8) 0.231(3) 0.4144(4)
C1 C 0.7652(11) 0.398(4) 0.4195(6)
H1 H 0.7247 0.2516 0.4261
C2 C 0.7329(11) 0.553(4) 0.3737(5)
H2 H 0.6819 0.4658 0.3595
H3 H 0.7263 0.7707 0.3774
C3 C 0.8000(10) 0.484(4) 0.3462(5)
C4 C 0.8087(11) 0.564(5) 0.3024(6)
H4 H 0.7708 0.6841 0.2842
C5 C 0.8782(10) 0.454(5) 0.2868(6)
C6 C 0.9355(11) 0.285(5) 0.3131(7)
H5 H 0.9817 0.2241 0.3019
C7 C 0.9241(9) 0.203(4) 0.3569(5)
C8 C 0.8557(9) 0.304(4) 0.3729(5)
C9 C 0.7817(12) 0.616(5) 0.4589(7)
C10 C 0.8620(12) 0.612(5) 0.4892(6)
H6 H 0.9023 0.6907 0.4728
H7 H 0.8755 0.4073 0.4987
H8 H 0.8598 0.7366 0.5156
Br1 Br 0.89197(11) 0.5581(6) 0.22565(6)
I1 I 1.01489(7) -0.0297(3) 0.40007(4)
O2 O 0.7267(9) 0.785(3) 0.4665(4)
O3 O 0.4307(7) 0.465(3) 0.3905(4)
C11 C 0.4845(11) 0.632(5) 0.3667(6)
H9 H 0.5213 0.4878 0.3556
C12 C 0.4355(11) 0.790(5) 0.3255(6)
H10 H 0.4425 1.0088 0.3272
H11 H 0.4504 0.7165 0.2972
C13 C 0.3509(11) 0.702(4) 0.3294(6)
C14 C 0.2778(11) 0.770(4) 0.3037(5)
H12 H 0.2748 0.8944 0.2782
C15 C 0.2089(10) 0.652(5) 0.3165(6)
C16 C 0.2097(10) 0.474(5) 0.3555(5)
H13 H 0.1617 0.4027 0.3635
C17 C 0.2836(11) 0.405(4) 0.3825(5)
C18 C 0.3539(10) 0.517(4) 0.3690(5)
C19 C 0.5352(10) 0.860(4) 0.3985(6)
C20 C 0.5313(13) 0.845(6) 0.4479(7)
H14 H 0.5735 0.9681 0.4645
H15 H 0.5379 0.6383 0.4582
H16 H 0.4799 0.9200 0.4532
Br2 Br 0.10601(11) 0.7441(5) 0.28113(6)
I2 I 0.28855(7) 0.1545(2) 0.44234(3)
O4 O 0.5802(7) 1.030(3) 0.3812(4)
loop_
_geom_bond_atom_site_label_1
_geom_bond_atom_site_label_2
_geom_bond_site_symmetry_1
_geom_bond_site_symmetry_2
O1 C1 1_555 1_555
C1 H1 1_555 1_555
C2 C1 1_555 1_555
H2 C2 1_555 1_555
H3 C2 1_555 1_555
C3 C2 1_555 1_555
C4 C3 1_555 1_555
H4 C4 1_555 1_555
C5 C4 1_555 1_555
C6 C5 1_555 1_555
H5 C6 1_555 1_555
C7 C6 1_555 1_555
C8 O1 1_555 1_555
C9 C1 1_555 1_555
C10 C9 1_555 1_555
H6 C10 1_555 1_555
H7 C10 1_555 1_555
H8 C10 1_555 1_555
Br1 C5 1_555 1_555
I1 C7 1_555 1_555
O2 C9 1_555 1_555
O3 C11 1_555 1_555
C11 H9 1_555 1_555
C12 C11 1_555 1_555
H10 C12 1_555 1_555
H11 C12 1_555 1_555
C13 C12 1_555 1_555
C14 C13 1_555 1_555
H12 C14 1_555 1_555
C15 C14 1_555 1_555
C16 C15 1_555 1_555
H13 C16 1_555 1_555
C17 C16 1_555 1_555
C18 O3 1_555 1_555
C19 C11 1_555 1_555
C20 C19 1_555 1_555
H14 C20 1_555 1_555
H15 C20 1_555 1_555
H16 C20 1_555 1_555
Br2 C15 1_555 1_555
I2 C17 1_555 1_555
O4 C19 1_555 1_555
C3 C8 1_555 1_555
C7 C8 1_555 1_555
C13 C18 1_555 1_555
C17 C18 1_555 1_555

#END
