
#######################################################################
#
#                 Cambridge Crystallographic Data Centre
#                                CCDC 
#
#######################################################################
#
# If this CIF has been generated from an entry in the Cambridge 
# Structural Database, then it will include bibliographic, chemical, 
# crystal, experimental, refinement or atomic coordinate data resulting 
# from the CCDC's data processing and validation procedures.
#
#######################################################################

data_VIGLED
_chemical_formula_moiety         'C36 H44 N2 O2'
_chemical_name_systematic        
N,N'-bis(n-Hexyl)-1,3,8,10-tetramethylquinacridone
_symmetry_cell_setting           monoclinic
_symmetry_space_group_name_H-M   'P 21/n'
_symmetry_Int_Tables_number      14
_space_group_name_Hall           '-P 2yn'
loop_
_symmetry_equiv_pos_site_id
_symmetry_equiv_pos_as_xyz
1 x,y,z
2 1/2-x,1/2+y,1/2-z
3 -x,-y,-z
4 1/2+x,1/2-y,1/2+z
_cell_length_a                   9.94390(10)
_cell_length_b                   11.00470(10)
_cell_length_c                   13.9991(4)
_cell_angle_alpha                90
_cell_angle_beta                 97.9080(19)
_cell_angle_gamma                90
_cell_volume                     1517.35
_exptl_crystal_colour            red
_exptl_crystal_description       block
_cell_formula_units_Z            2
_exptl_crystal_preparation       luminescent
loop_
_atom_site_label
_atom_site_type_symbol
_atom_site_fract_x
_atom_site_fract_y
_atom_site_fract_z
O1 O 1.29360(13) 0.30097(13) 1.03227(8)
N1 N 0.96844(14) 0.37171(13) 0.82467(9)
C1 C 1.19742(16) 0.31964(15) 0.96798(11)
C2 C 1.17493(16) 0.25297(16) 0.87688(11)
C3 C 1.26633(19) 0.16127(18) 0.85444(13)
C4 C 1.2354(2) 0.0960(2) 0.77069(14)
H1 H 1.2964 0.0372 0.7557
C5 C 1.1162(2) 0.11444(18) 0.70718(13)
C6 C 1.02901(19) 0.20545(18) 0.72615(12)
H2 H 0.9505 0.2197 0.6833
C7 C 1.05720(17) 0.27759(15) 0.80990(11)
C8 C 0.98296(16) 0.43567(15) 0.91115(11)
C9 C 0.88875(17) 0.52324(15) 0.93117(11)
H3 H 0.8134 0.5387 0.8857
C10 C 1.09502(15) 0.41226(15) 0.98251(11)
C11 C 1.3975(2) 0.1323(2) 0.91919(18)
H4 H 1.4439 0.0678 0.8911
H5 H 1.3774 0.1075 0.9814
H6 H 1.4542 0.2032 0.9260
C12 C 1.0827(3) 0.0366(2) 0.61813(16)
H7 H 0.9974 0.0620 0.5833
H8 H 1.0767 -0.0470 0.6368
H9 H 1.1527 0.0453 0.5778
C13 C 0.86132(18) 0.40981(18) 0.74607(11)
H10 H 0.8931 0.3936 0.6848
H11 H 0.8488 0.4969 0.7507
C14 C 0.72626(19) 0.34925(19) 0.74576(13)
H12 H 0.6938 0.3633 0.8071
H13 H 0.7362 0.2623 0.7378
C15 C 0.6232(2) 0.3985(2) 0.66428(15)
H14 H 0.6068 0.4833 0.6775
H15 H 0.6635 0.3953 0.6050
C16 C 0.4886(2) 0.3344(2) 0.64742(17)
H16 H 0.4402 0.3496 0.7018
H17 H 0.5043 0.2476 0.6444
C17 C 0.3996(2) 0.3744(3) 0.5548(2)
H18 H 0.3797 0.4603 0.5601
H19 H 0.4514 0.3649 0.5014
C18 C 0.2708(3) 0.3089(4) 0.5314(3)
H20 H 0.2226 0.3400 0.4724
H21 H 0.2167 0.3198 0.5826
H22 H 0.2887 0.2239 0.5241
O1B O 0.70640(13) 0.69903(13) 0.96773(8)
N1B N 1.03156(14) 0.62829(13) 1.17533(9)
C1B C 0.80258(16) 0.68036(15) 1.03202(11)
C2B C 0.82507(16) 0.74703(16) 1.12312(11)
C3B C 0.73367(19) 0.83873(18) 1.14556(13)
C4B C 0.7646(2) 0.9040(2) 1.22931(14)
H1B H 0.7036 0.9628 1.2443
C5B C 0.8838(2) 0.88556(18) 1.29282(13)
C6B C 0.97099(19) 0.79455(18) 1.27385(12)
H2B H 1.0495 0.7803 1.3167
C7B C 0.94280(17) 0.72241(15) 1.19010(11)
C8B C 1.01704(16) 0.56433(15) 1.08885(11)
C9B C 1.11125(17) 0.47676(15) 1.06883(11)
H3B H 1.1866 0.4613 1.1143
C10B C 0.90498(15) 0.58774(15) 1.01749(11)
C11B C 0.6025(2) 0.8677(2) 1.08081(18)
H4B H 0.5561 0.9322 1.1089
H5B H 0.6226 0.8925 1.0186
H6B H 0.5458 0.7968 1.0740
C12B C 0.9173(3) 0.9634(2) 1.38187(16)
H7B H 1.0026 0.9380 1.4167
H8B H 0.9233 1.0470 1.3632
H9B H 0.8473 0.9547 1.4222
C13B C 1.13868(18) 0.59019(18) 1.25393(11)
H10B H 1.1069 0.6064 1.3152
H11B H 1.1512 0.5031 1.2493
C14B C 1.27374(19) 0.65075(19) 1.25424(13)
H12B H 1.3062 0.6367 1.1929
H13B H 1.2638 0.7377 1.2622
C15B C 1.3768(2) 0.6015(2) 1.33572(15)
H14B H 1.3932 0.5167 1.3225
H15B H 1.3365 0.6047 1.3950
C16B C 1.5114(2) 0.6656(2) 1.35258(17)
H16B H 1.5598 0.6504 1.2982
H17B H 1.4957 0.7524 1.3556
C17B C 1.6004(2) 0.6256(3) 1.4452(2)
H18B H 1.6203 0.5397 1.4399
H19B H 1.5486 0.6351 1.4986
C18B C 1.7292(3) 0.6911(4) 1.4686(3)
H20B H 1.7774 0.6600 1.5276
H21B H 1.7833 0.6802 1.4174
H22B H 1.7113 0.7761 1.4759
loop_
_geom_bond_atom_site_label_1
_geom_bond_atom_site_label_2
_geom_bond_site_symmetry_1
_geom_bond_site_symmetry_2
O1 C1 1_555 1_555
N1 C7 1_555 1_555
C1 C2 1_555 1_555
C2 C3 1_555 1_555
C3 C4 1_555 1_555
C4 H1 1_555 1_555
C5 C4 1_555 1_555
C6 C5 1_555 1_555
H2 C6 1_555 1_555
C7 C2 1_555 1_555
C8 N1 1_555 1_555
C9 C8 1_555 1_555
H3 C9 1_555 1_555
C10 C1 1_555 1_555
C11 C3 1_555 1_555
H4 C11 1_555 1_555
H5 C11 1_555 1_555
H6 C11 1_555 1_555
C12 C5 1_555 1_555
H7 C12 1_555 1_555
H8 C12 1_555 1_555
H9 C12 1_555 1_555
C13 N1 1_555 1_555
H10 C13 1_555 1_555
H11 C13 1_555 1_555
C14 C13 1_555 1_555
H12 C14 1_555 1_555
H13 C14 1_555 1_555
C15 C14 1_555 1_555
H14 C15 1_555 1_555
H15 C15 1_555 1_555
C16 C15 1_555 1_555
H16 C16 1_555 1_555
H17 C16 1_555 1_555
C17 C16 1_555 1_555
H18 C17 1_555 1_555
H19 C17 1_555 1_555
C18 C17 1_555 1_555
H20 C18 1_555 1_555
H21 C18 1_555 1_555
H22 C18 1_555 1_555
O1B C1B 1_555 1_555
N1B C7B 1_555 1_555
C1B C2B 1_555 1_555
C2B C3B 1_555 1_555
C3B C4B 1_555 1_555
C4B H1B 1_555 1_555
C5B C4B 1_555 1_555
C6B C5B 1_555 1_555
H2B C6B 1_555 1_555
C7B C2B 1_555 1_555
C8B N1B 1_555 1_555
C9B C10 1_555 1_555
H3B C9B 1_555 1_555
C10B C9 1_555 1_555
C11B C3B 1_555 1_555
H4B C11B 1_555 1_555
H5B C11B 1_555 1_555
H6B C11B 1_555 1_555
C12B C5B 1_555 1_555
H7B C12B 1_555 1_555
H8B C12B 1_555 1_555
H9B C12B 1_555 1_555
C13B N1B 1_555 1_555
H10B C13B 1_555 1_555
H11B C13B 1_555 1_555
C14B C13B 1_555 1_555
H12B C14B 1_555 1_555
H13B C14B 1_555 1_555
C15B C14B 1_555 1_555
H14B C15B 1_555 1_555
H15B C15B 1_555 1_555
C16B C15B 1_555 1_555
H16B C16B 1_555 1_555
H17B C16B 1_555 1_555
C17B C16B 1_555 1_555
H18B C17B 1_555 1_555
H19B C17B 1_555 1_555
C18B C17B 1_555 1_555
H20B C18B 1_555 1_555
H21B C18B 1_555 1_555
H22B C18B 1_555 1_555
C6 C7 1_555 1_555
C8 C10 1_555 1_555
C1B C10B 1_555 1_555
C6B C7B 1_555 1_555
C8B C9B 1_555 1_555
C8B C10B 1_555 1_555

#END
