
#######################################################################
#
#                 Cambridge Crystallographic Data Centre
#                                CCDC 
#
#######################################################################
#
# If this CIF has been generated from an entry in the Cambridge 
# Structural Database, then it will include bibliographic, chemical, 
# crystal, experimental, refinement or atomic coordinate data resulting 
# from the CCDC's data processing and validation procedures.
#
#######################################################################

data_VIGNIK
_chemical_formula_moiety         'C24 H16 N2,C24 H16 N2'
_chemical_name_systematic        
"cis-3,3'-(1,4-Phenylene)bis(2-phenylacrylonitrile) trans-3,3'-(1,4-phenylene)bis(2-phenylacrylonitrile)"
_symmetry_cell_setting           orthorhombic
_symmetry_space_group_name_H-M   'P n a 21'
_symmetry_Int_Tables_number      33
_space_group_name_Hall           'P 2c -2n'
loop_
_symmetry_equiv_pos_site_id
_symmetry_equiv_pos_as_xyz
1 x,y,z
2 -x,-y,1/2+z
3 1/2+x,1/2-y,z
4 1/2-x,1/2+y,1/2+z
_cell_length_a                   19.500(12)
_cell_length_b                   6.929(4)
_cell_length_c                   26.031(16)
_cell_angle_alpha                90
_cell_angle_beta                 90
_cell_angle_gamma                90
_cell_volume                     3517.19
_cell_formula_units_Z            4
loop_
_atom_site_label
_atom_site_type_symbol
_atom_site_fract_x
_atom_site_fract_y
_atom_site_fract_z
C25 C -0.2380(2) 0.2862(7) 0.65259(18)
H17 H -0.2706 0.2622 0.6779
C26 C -0.2271(3) 0.4708(7) 0.6353(2)
H18 H -0.2537 0.5717 0.6479
C27 C -0.1763(3) 0.5078(8) 0.5988(2)
H19 H -0.1697 0.6343 0.5879
C28 C -0.1350(2) 0.3636(7) 0.57783(18)
C29 C -0.1479(3) 0.1737(8) 0.5960(2)
H20 H -0.1212 0.0728 0.5836
C30 C -0.1993(3) 0.1333(7) 0.6317(2)
H21 H -0.2079 0.0067 0.6417
C31 C -0.0814(3) 0.4066(7) 0.5398(2)
C32 C -0.0716(3) 0.6129(8) 0.5307(2)
C33 C -0.0438(2) 0.2722(7) 0.51396(18)
H22 H -0.0545 0.1451 0.5222
C34 C 0.0104(2) 0.2929(7) 0.47575(18)
C35 C 0.0422(3) 0.4643(8) 0.4600(2)
H23 H 0.0290 0.5808 0.4748
C36 C 0.0934(3) 0.4627(8) 0.4227(2)
H24 H 0.1126 0.5790 0.4121
C37 C 0.1167(2) 0.2899(7) 0.4005(2)
C38 C 0.0860(3) 0.1167(8) 0.4157(2)
H25 H 0.1003 0.0004 0.4014
C39 C 0.0340(3) 0.1191(7) 0.45219(19)
H26 H 0.0137 0.0029 0.4616
C40 C 0.1719(2) 0.2726(7) 0.36040(17)
H27 H 0.1840 0.1463 0.3524
C41 C 0.20666(19) 0.4069(6) 0.33422(15)
C42 C 0.1930(2) 0.6110(7) 0.34158(18)
C43 C 0.26236(9) 0.3647(3) 0.29499(7)
C44 C 0.30577(12) 0.5114(3) 0.27862(8)
H28 H 0.3004 0.6358 0.2914
C45 C 0.35714(11) 0.4723(3) 0.24310(8)
H29 H 0.3862 0.5705 0.2322
C46 C 0.36510(10) 0.2864(4) 0.22394(8)
H30 H 0.3995 0.2602 0.2002
C47 C 0.32169(13) 0.1396(3) 0.24030(8)
H31 H 0.3270 0.0153 0.2275
C48 C 0.27032(11) 0.1788(3) 0.27582(7)
H32 H 0.2413 0.0806 0.2868
N3 N -0.0655(3) 0.7755(7) 0.5244(3)
N4 N 0.1857(3) 0.7814(7) 0.3447(2)
C1 C 0.01514(13) 0.2065(5) 0.65127(7)
H1 H -0.0191 0.1825 0.6753
C2 C 0.03996(15) 0.0571(5) 0.62087(8)
H2 H 0.0223 -0.0669 0.6246
C3 C 0.09116(13) 0.0928(4) 0.58496(8)
H3 H 0.1078 -0.0071 0.5646
C4 C 0.11755(11) 0.2780(4) 0.57945(6)
C5 C 0.09274(14) 0.4274(5) 0.60985(7)
H4 H 0.1104 0.5513 0.6062
C6 C 0.04154(14) 0.3917(5) 0.64575(7)
H5 H 0.0249 0.4916 0.6661
C7 C 0.1729(3) 0.3374(9) 0.5403(3)
C8 C 0.1827(4) 0.5512(16) 0.5329(3)
C9 C 0.2079(3) 0.2106(9) 0.51272(18)
H6 H 0.1946 0.0841 0.5193
C10 C 0.2617(2) 0.2225(8) 0.47494(19)
C11 C 0.2790(3) 0.0535(8) 0.44637(19)
H7 H 0.2553 -0.0605 0.4527
C12 C 0.3299(3) 0.0553(8) 0.4097(2)
H8 H 0.3409 -0.0584 0.3925
C13 C 0.3659(3) 0.2280(8) 0.3975(2)
C14 C 0.3479(3) 0.3954(8) 0.4237(2)
H9 H 0.3700 0.5107 0.4159
C15 C 0.2968(3) 0.3932(8) 0.46183(19)
H10 H 0.2859 0.5073 0.4788
C16 C 0.4207(2) 0.2506(8) 0.35827(18)
H11 H 0.4311 0.3767 0.3488
C17 C 0.4582(2) 0.1085(8) 0.33425(19)
C18 C 0.4487(3) -0.0881(10) 0.3449(2)
C19 C 0.5118(2) 0.1623(8) 0.29398(18)
C20 C 0.5437(3) 0.0072(10) 0.2668(2)
H12 H 0.5315 -0.1202 0.2734
C21 C 0.5935(3) 0.0508(12) 0.2304(2)
H13 H 0.6144 -0.0488 0.2123
C22 C 0.6127(3) 0.2413(11) 0.2205(2)
H14 H 0.6453 0.2679 0.1954
C23 C 0.5833(3) 0.3893(11) 0.2478(2)
H15 H 0.5968 0.5158 0.2414
C24 C 0.5325(2) 0.3519(8) 0.2856(2)
H16 H 0.5134 0.4524 0.3045
N1 N 0.1931(3) 0.7211(9) 0.5290(2)
N2 N 0.4459(3) -0.2538(9) 0.3523(2)
loop_
_geom_bond_atom_site_label_1
_geom_bond_atom_site_label_2
_geom_bond_site_symmetry_1
_geom_bond_site_symmetry_2
C1 H1 1_555 1_555
C2 C1 1_555 1_555
H2 C2 1_555 1_555
C3 C2 1_555 1_555
H3 C3 1_555 1_555
C4 C3 1_555 1_555
C5 C4 1_555 1_555
H4 C5 1_555 1_555
C6 C1 1_555 1_555
H5 C6 1_555 1_555
C7 C4 1_555 1_555
C8 C7 1_555 1_555
C9 C7 1_555 1_555
H6 C9 1_555 1_555
C10 C9 1_555 1_555
C11 C10 1_555 1_555
H7 C11 1_555 1_555
C12 C11 1_555 1_555
H8 C12 1_555 1_555
C13 C12 1_555 1_555
C14 C13 1_555 1_555
H9 C14 1_555 1_555
C15 C10 1_555 1_555
H10 C15 1_555 1_555
C16 C13 1_555 1_555
H11 C16 1_555 1_555
C17 C16 1_555 1_555
C18 C17 1_555 1_555
C19 C17 1_555 1_555
C20 C19 1_555 1_555
H12 C20 1_555 1_555
C21 C20 1_555 1_555
H13 C21 1_555 1_555
C22 C21 1_555 1_555
H14 C22 1_555 1_555
C23 C22 1_555 1_555
H15 C23 1_555 1_555
C24 C19 1_555 1_555
H16 C24 1_555 1_555
N1 C8 1_555 1_555
N2 C18 1_555 1_555
C25 H17 1_555 1_555
C26 C25 1_555 1_555
H18 C26 1_555 1_555
C27 C26 1_555 1_555
H19 C27 1_555 1_555
C28 C27 1_555 1_555
C29 C28 1_555 1_555
H20 C29 1_555 1_555
C30 C25 1_555 1_555
H21 C30 1_555 1_555
C31 C28 1_555 1_555
C32 C31 1_555 1_555
C33 C31 1_555 1_555
H22 C33 1_555 1_555
C34 C33 1_555 1_555
C35 C34 1_555 1_555
H23 C35 1_555 1_555
C36 C35 1_555 1_555
H24 C36 1_555 1_555
C37 C36 1_555 1_555
C38 C37 1_555 1_555
H25 C38 1_555 1_555
C39 C34 1_555 1_555
H26 C39 1_555 1_555
C40 C37 1_555 1_555
H27 C40 1_555 1_555
C41 C40 1_555 1_555
C42 C41 1_555 1_555
C43 C41 1_555 1_555
C44 C43 1_555 1_555
H28 C44 1_555 1_555
C45 C44 1_555 1_555
H29 C45 1_555 1_555
C46 C45 1_555 1_555
H30 C46 1_555 1_555
C47 C46 1_555 1_555
H31 C47 1_555 1_555
C48 C43 1_555 1_555
H32 C48 1_555 1_555
N3 C32 1_555 1_555
N4 C42 1_555 1_555
C5 C6 1_555 1_555
C14 C15 1_555 1_555
C23 C24 1_555 1_555
C29 C30 1_555 1_555
C38 C39 1_555 1_555
C47 C48 1_555 1_555

#END
