
#######################################################################
#
#                 Cambridge Crystallographic Data Centre
#                                CCDC 
#
#######################################################################
#
# If this CIF has been generated from an entry in the Cambridge 
# Structural Database, then it will include bibliographic, chemical, 
# crystal, experimental, refinement or atomic coordinate data resulting 
# from the CCDC's data processing and validation procedures.
#
#######################################################################

data_VIHWAN
_chemical_formula_moiety         'C22 H18 Br1 N3 O7'
_chemical_name_systematic        
'methyl 4-[2-(4-bromophenyl)-5,7-dimethyl-4,6,8-trioxo-5,7-diazaspiro[2.5]octan-1-yl]-3-nitrobenzoate'
_symmetry_cell_setting           triclinic
_symmetry_space_group_name_H-M   'P -1'
_symmetry_Int_Tables_number      2
_space_group_name_Hall           '-P 1'
loop_
_symmetry_equiv_pos_site_id
_symmetry_equiv_pos_as_xyz
1 x,y,z
2 -x,-y,-z
_cell_length_a                   8.0365(6)
_cell_length_b                   9.1057(7)
_cell_length_c                   15.9820(8)
_cell_angle_alpha                95.600(5)
_cell_angle_beta                 98.784(5)
_cell_angle_gamma                110.694(7)
_cell_volume                     1066.62
_exptl_crystal_colour            colorless
_exptl_crystal_description       prism
_cell_formula_units_Z            2
loop_
_atom_site_label
_atom_site_type_symbol
_atom_site_fract_x
_atom_site_fract_y
_atom_site_fract_z
Br1 Br -0.53633(7) 0.31220(7) 0.36495(3)
C1 C -0.0014(5) -0.0811(4) 0.7423(2)
C2 C -0.0211(4) 0.1585(4) 0.81654(19)
C3 C 0.0375(5) 0.1442(4) 0.66411(19)
C4 C 0.0032(4) 0.2307(4) 0.73852(19)
C5 C -0.1031(4) 0.3430(4) 0.72383(19)
H1 H -0.1640 0.3590 0.7706
C6 C 0.0975(4) 0.4128(4) 0.74789(19)
H2 H 0.1552 0.4465 0.6996
C7 C -0.0819(6) -0.0811(5) 0.8826(2)
H3 H 0.0303 -0.0620 0.9212
H4 H -0.1442 -0.1934 0.8633
H5 H -0.1565 -0.0406 0.9119
C8 C 0.0878(7) -0.0911(5) 0.6034(3)
H6 H -0.0210 -0.1683 0.5675
H7 H 0.1631 -0.1440 0.6278
H8 H 0.1525 -0.0172 0.5697
C9 C -0.2058(5) 0.3383(4) 0.6365(2)
C10 C -0.3788(19) 0.2450(14) 0.6100(9)
H9 H -0.4362 0.1812 0.6472
C11 C -0.4795(19) 0.2371(14) 0.5300(9)
H10 H -0.6010 0.1696 0.5144
C12 C -0.4016(5) 0.3258(5) 0.4766(2)
C13 C -0.225(4) 0.448(5) 0.503(3)
H11 H -0.1791 0.5192 0.4665
C14 C -0.124(2) 0.457(3) 0.5821(14)
H12 H -0.0092 0.5357 0.6012
C15 C 0.2039(4) 0.5128(3) 0.83205(19)
C16 C 0.3867(4) 0.5411(4) 0.8631(2)
C17 C 0.4847(4) 0.6426(4) 0.9385(2)
H13 H 0.6059 0.6580 0.9574
C18 C 0.4018(4) 0.7214(4) 0.98570(19)
C19 C 0.2203(4) 0.6942(4) 0.9580(2)
H14 H 0.1626 0.7441 0.9903
C20 C 0.1245(4) 0.5925(4) 0.8818(2)
H15 H 0.0031 0.5769 0.8634
C21 C 0.5143(5) 0.8320(4) 1.0663(2)
C22 C 0.5220(6) 1.0142(5) 1.1828(3)
H16 H 0.6358 1.0905 1.1766
H17 H 0.5437 0.9498 1.2241
H18 H 0.4487 1.0688 1.2021
N1 N -0.0439(4) -0.0002(3) 0.80850(16)
N2 N 0.0400(4) -0.0046(3) 0.67284(16)
N3 N 0.4855(4) 0.4597(4) 0.81809(19)
O1 O 0.0000(4) -0.2129(3) 0.74477(16)
O2 O -0.0316(4) 0.2285(3) 0.88282(14)
O3 O 0.0671(4) 0.1997(3) 0.59950(15)
O4 O 0.4038(4) 0.3534(4) 0.75850(19)
O5 O 0.6459(4) 0.4995(4) 0.8445(3)
O6 O 0.6641(4) 0.8436(4) 1.0957(2)
O7 O 0.4282(3) 0.9136(3) 1.10088(16)
C23? C -0.356(2) 0.1883(17) 0.5962(10)
H19? H -0.3843 0.1005 0.6242
C24? C -0.454(2) 0.1805(17) 0.5151(10)
H20? H -0.5484 0.0875 0.4867
C25? C -0.270(5) 0.449(5) 0.514(3)
H21? H -0.2353 0.5391 0.4877
C26? C -0.175(2) 0.452(3) 0.5956(16)
H22? H -0.0810 0.5465 0.6217
loop_
_geom_bond_atom_site_label_1
_geom_bond_atom_site_label_2
_geom_bond_site_symmetry_1
_geom_bond_site_symmetry_2
Br1 C12 1_555 1_555
C1 N1 1_555 1_555
C2 C4 1_555 1_555
C3 C4 1_555 1_555
C4 C5 1_555 1_555
C5 H1 1_555 1_555
C6 C4 1_555 1_555
H2 C6 1_555 1_555
C7 H3 1_555 1_555
H4 C7 1_555 1_555
H5 C7 1_555 1_555
C8 H6 1_555 1_555
H7 C8 1_555 1_555
H8 C8 1_555 1_555
C9 C5 1_555 1_555
C10 C9 1_555 1_555
H9 C10 1_555 1_555
C11 C10 1_555 1_555
H10 C11 1_555 1_555
C12 C11 1_555 1_555
C13 C12 1_555 1_555
H11 C13 1_555 1_555
C14 C9 1_555 1_555
H12 C14 1_555 1_555
C15 C6 1_555 1_555
C16 C15 1_555 1_555
C17 C16 1_555 1_555
H13 C17 1_555 1_555
C18 C17 1_555 1_555
C19 C18 1_555 1_555
H14 C19 1_555 1_555
C20 C15 1_555 1_555
H15 C20 1_555 1_555
C21 C18 1_555 1_555
C22 H16 1_555 1_555
H17 C22 1_555 1_555
H18 C22 1_555 1_555
N1 C2 1_555 1_555
N2 C1 1_555 1_555
N3 C16 1_555 1_555
O1 C1 1_555 1_555
O2 C2 1_555 1_555
O3 C3 1_555 1_555
O4 N3 1_555 1_555
O5 N3 1_555 1_555
O6 C21 1_555 1_555
O7 C21 1_555 1_555
C3 N2 1_555 1_555
C5 C6 1_555 1_555
C7 N1 1_555 1_555
C8 N2 1_555 1_555
C13 C14 1_555 1_555
C19 C20 1_555 1_555
C22 O7 1_555 1_555

#END
