
#######################################################################
#
#                 Cambridge Crystallographic Data Centre
#                                CCDC 
#
#######################################################################
#
# If this CIF has been generated from an entry in the Cambridge 
# Structural Database, then it will include bibliographic, chemical, 
# crystal, experimental, refinement or atomic coordinate data resulting 
# from the CCDC's data processing and validation procedures.
#
#######################################################################

data_VIKDAX
_chemical_formula_moiety         'C6 H16 N1 1+,C16 H26 B12 N1 O2 1-,C1 H2 Cl2'
_chemical_name_systematic        
'triethylammonium 1,2-benzamido-3-(2-(4-methoxyphenyl)ethyl)-closo-dodecaborate(9) dichloromethane solvate'
_symmetry_cell_setting           triclinic
_symmetry_space_group_name_H-M   'P -1'
_symmetry_Int_Tables_number      2
_space_group_name_Hall           '-P 1'
loop_
_symmetry_equiv_pos_site_id
_symmetry_equiv_pos_as_xyz
1 x,y,z
2 -x,-y,-z
_cell_length_a                   10.6470(8)
_cell_length_b                   11.7535(12)
_cell_length_c                   13.4857(9)
_cell_angle_alpha                81.194(7)
_cell_angle_beta                 83.406(6)
_cell_angle_gamma                78.407(8)
_cell_volume                     1627.51
_exptl_crystal_colour            yellow
_exptl_crystal_description       block
_cell_formula_units_Z            2
loop_
_atom_site_label
_atom_site_type_symbol
_atom_site_fract_x
_atom_site_fract_y
_atom_site_fract_z
O1 O 0.3195(2) 0.80792(17) 0.12210(15)
O2 O -0.1759(3) 0.9399(2) -0.32433(19)
N1 N 0.4328(2) 0.6786(2) 0.02489(18)
H1 H 0.480835 0.657061 -0.029088
C1 C 0.3865(3) 0.7882(3) 0.0367(2)
C2 C 0.4034(3) 0.8876(3) -0.0396(2)
C3 C 0.4896(4) 0.8727(3) -0.1244(3)
H2 H 0.539193 0.797478 -0.132659
C4 C 0.5030(4) 0.9676(3) -0.1968(3)
H3 H 0.562435 0.957390 -0.254331
C5 C 0.4306(4) 1.0765(3) -0.1857(3)
H4 H 0.439365 1.141265 -0.235889
C6 C 0.3456(4) 1.0917(3) -0.1018(3)
H5 H 0.296178 1.167224 -0.094386
C7 C 0.3313(3) 0.9985(3) -0.0283(3)
H6 H 0.272746 1.009789 0.029598
C8 C 0.1394(3) 0.6564(3) 0.0409(2)
H7 H 0.199246 0.669049 -0.019810
H8 H 0.092628 0.595125 0.030089
C9 C 0.0413(3) 0.7698(3) 0.0477(3)
H9 H -0.027887 0.754875 0.100958
H10 H 0.084078 0.829095 0.067762
C10 C -0.0179(3) 0.8184(3) -0.0497(2)
C11 C 0.0109(3) 0.9199(3) -0.1070(3)
H11 H 0.067911 0.960060 -0.082976
C12 C -0.0403(3) 0.9650(3) -0.1981(3)
H12 H -0.019819 1.035406 -0.235142
C13 C -0.1219(3) 0.9057(3) -0.2342(2)
C14 C -0.1515(3) 0.8041(3) -0.1794(3)
H13 H -0.207372 0.763568 -0.204425
C15 C -0.1007(3) 0.7606(3) -0.0884(3)
H14 H -0.122222 0.690507 -0.051490
C16 C -0.1513(6) 1.0465(4) -0.3808(4)
H15 H -0.201292 1.065113 -0.439812
H16 H -0.059384 1.038259 -0.403025
H17 H -0.176300 1.109714 -0.338753
B1 B 0.3090(3) 0.6945(3) 0.1877(3)
B2 B 0.3951(3) 0.5929(3) 0.1140(3)
B3 B 0.2236(3) 0.6057(3) 0.1340(3)
B4 B 0.1815(3) 0.6372(3) 0.2613(3)
H18 H 0.087031 0.692373 0.284135
B5 B 0.3277(4) 0.6420(3) 0.3160(3)
H19 H 0.327824 0.700805 0.373972
B6 B 0.4594(3) 0.6124(3) 0.2247(3)
H20 H 0.546962 0.652022 0.223546
B7 B 0.4720(3) 0.4705(3) 0.1906(3)
H21 H 0.566839 0.416860 0.166519
B8 B 0.3270(3) 0.4655(3) 0.1355(3)
H22 H 0.327213 0.408590 0.075970
B9 B 0.1958(3) 0.4922(3) 0.2298(3)
H23 H 0.109024 0.450939 0.233278
B10 B 0.2577(4) 0.5136(3) 0.3413(3)
H24 H 0.211580 0.486662 0.417953
B11 B 0.4283(4) 0.4993(3) 0.3180(3)
H25 H 0.494157 0.463038 0.378928
B12 B 0.3475(3) 0.4079(3) 0.2638(3)
H26 H 0.360793 0.311259 0.289195
N2 N 0.2428(3) 0.6184(3) -0.3082(2)
H27 H 0.336890 0.585894 -0.305874
C17 C 0.1745(5) 0.5337(5) -0.2378(5)
H28 H 0.082811 0.570092 -0.225398
H29 H 0.212969 0.516713 -0.172465
C18 C 0.1834(7) 0.4201(6) -0.2805(8)
H30 H 0.157528 0.360587 -0.227100
H31 H 0.272180 0.393159 -0.307165
H32 H 0.126160 0.433038 -0.334704
C19 C 0.2165(4) 0.6303(5) -0.4150(3)
H33 H 0.239891 0.552028 -0.437933
H34 H 0.272523 0.680910 -0.455915
C20 C 0.0776(5) 0.6814(5) -0.4347(4)
H35 H 0.022290 0.627035 -0.401349
H36 H 0.069390 0.693838 -0.507341
H37 H 0.051489 0.756468 -0.407969
C21 C 0.2188(5) 0.7322(4) -0.2639(4)
H38 H 0.126617 0.768400 -0.266281
H39 H 0.236893 0.714775 -0.192176
C22 C 0.2971(6) 0.8180(5) -0.3158(5)
H40 H 0.278918 0.887918 -0.281329
H41 H 0.275730 0.840075 -0.385740
H42 H 0.388674 0.782854 -0.314601
C23 C -0.2960(7) 0.8032(6) 0.5035(4)
H43 H -0.323064 0.860375 0.552183
H44 H -0.248657 0.730176 0.539383
Cl1 Cl -0.1917(6) 0.8602(3) 0.4048(4)
Cl2 Cl -0.4348(3) 0.7730(4) 0.4588(2)
H45? H -0.255208 0.810767 0.563935
H46? H -0.318068 0.724162 0.512530
Cl3? Cl -0.1927(13) 0.8162(8) 0.4042(10)
Cl4? Cl -0.4354(6) 0.9073(7) 0.4934(4)
loop_
_geom_bond_atom_site_label_1
_geom_bond_atom_site_label_2
_geom_bond_site_symmetry_1
_geom_bond_site_symmetry_2
O1 C1 1_555 1_555
O2 C13 1_555 1_555
N1 H1 1_555 1_555
C1 N1 1_555 1_555
C2 C1 1_555 1_555
C3 C2 1_555 1_555
H2 C3 1_555 1_555
C4 C3 1_555 1_555
H3 C4 1_555 1_555
C5 C4 1_555 1_555
H4 C5 1_555 1_555
C6 C5 1_555 1_555
H5 C6 1_555 1_555
C7 C2 1_555 1_555
H6 C7 1_555 1_555
C8 H7 1_555 1_555
H8 C8 1_555 1_555
C9 C8 1_555 1_555
H9 C9 1_555 1_555
H10 C9 1_555 1_555
C10 C9 1_555 1_555
C11 C10 1_555 1_555
H11 C11 1_555 1_555
C12 C11 1_555 1_555
H12 C12 1_555 1_555
C13 C12 1_555 1_555
C14 C13 1_555 1_555
H13 C14 1_555 1_555
C15 C10 1_555 1_555
H14 C15 1_555 1_555
C16 O2 1_555 1_555
H15 C16 1_555 1_555
H16 C16 1_555 1_555
H17 C16 1_555 1_555
B1 O1 1_555 1_555
B2 N1 1_555 1_555
B3 C8 1_555 1_555
B4 B1 1_555 1_555
H18 B4 1_555 1_555
B5 B1 1_555 1_555
H19 B5 1_555 1_555
B6 B1 1_555 1_555
H20 B6 1_555 1_555
B7 B2 1_555 1_555
H21 B7 1_555 1_555
B8 B2 1_555 1_555
H22 B8 1_555 1_555
B9 B3 1_555 1_555
H23 B9 1_555 1_555
B10 B4 1_555 1_555
H24 B10 1_555 1_555
B11 B5 1_555 1_555
H25 B11 1_555 1_555
B12 B7 1_555 1_555
H26 B12 1_555 1_555
N2 H27 1_555 1_555
C17 N2 1_555 1_555
H28 C17 1_555 1_555
H29 C17 1_555 1_555
C18 C17 1_555 1_555
H30 C18 1_555 1_555
H31 C18 1_555 1_555
H32 C18 1_555 1_555
C19 N2 1_555 1_555
H33 C19 1_555 1_555
H34 C19 1_555 1_555
C20 C19 1_555 1_555
H35 C20 1_555 1_555
H36 C20 1_555 1_555
H37 C20 1_555 1_555
C21 N2 1_555 1_555
H38 C21 1_555 1_555
H39 C21 1_555 1_555
C22 C21 1_555 1_555
H40 C22 1_555 1_555
H41 C22 1_555 1_555
H42 C22 1_555 1_555
C23 H43 1_555 1_555
H44 C23 1_555 1_555
Cl1 C23 1_555 1_555
Cl2 C23 1_555 1_555
C6 C7 1_555 1_555
C14 C15 1_555 1_555
B1 B2 1_555 1_555
B1 B3 1_555 1_555
B2 B3 1_555 1_555
B2 B6 1_555 1_555
B3 B4 1_555 1_555
B3 B8 1_555 1_555
B4 B5 1_555 1_555
B4 B9 1_555 1_555
B5 B6 1_555 1_555
B5 B10 1_555 1_555
B6 B7 1_555 1_555
B6 B11 1_555 1_555
B7 B8 1_555 1_555
B7 B11 1_555 1_555
B8 B9 1_555 1_555
B8 B12 1_555 1_555
B9 B10 1_555 1_555
B9 B12 1_555 1_555
B10 B11 1_555 1_555
B10 B12 1_555 1_555
B11 B12 1_555 1_555

#END
