
#######################################################################
#
#                 Cambridge Crystallographic Data Centre
#                                CCDC 
#
#######################################################################
#
# If this CIF has been generated from an entry in the Cambridge 
# Structural Database, then it will include bibliographic, chemical, 
# crystal, experimental, refinement or atomic coordinate data resulting 
# from the CCDC's data processing and validation procedures.
#
#######################################################################

data_VIKJIL
_chemical_formula_moiety         'C48 H40 N2 O4 S2'
_chemical_name_systematic        
"N,N'-[[2,2'-bithiophene-5,5'-diyl]bis(4,1-phenylene)]bis[4-methoxy-N-(4-methoxyphenyl)aniline] unknown solvate"
_symmetry_cell_setting           orthorhombic
_symmetry_space_group_name_H-M   'P b c a'
_symmetry_Int_Tables_number      61
_space_group_name_Hall           '-P 2ac 2ab'
loop_
_symmetry_equiv_pos_site_id
_symmetry_equiv_pos_as_xyz
1 x,y,z
2 1/2-x,-y,1/2+z
3 -x,1/2+y,1/2-z
4 1/2+x,1/2-y,-z
5 -x,-y,-z
6 1/2+x,y,1/2-z
7 x,1/2-y,1/2+z
8 1/2-x,1/2+y,z
_cell_length_a                   20.367(6)
_cell_length_b                   9.024(3)
_cell_length_c                   23.936(6)
_cell_angle_alpha                90
_cell_angle_beta                 90
_cell_angle_gamma                90
_cell_volume                     4399.24
_cell_formula_units_Z            4
loop_
_atom_site_label
_atom_site_type_symbol
_atom_site_fract_x
_atom_site_fract_y
_atom_site_fract_z
S1 S 0.09833(9) 0.9960(3) 0.46150(10)
N1 N 0.3217(3) 0.8687(9) 0.2553(3)
O1 O 0.5799(3) 0.8432(10) 0.3366(3)
O2 O 0.3060(5) 0.7220(16) 0.0317(6)
C1 C 0.3166(4) 0.8344(12) 0.1982(4)
C2 C 0.1532(3) 0.8913(10) 0.3615(4)
C3 C 0.5154(4) 0.8487(13) 0.3194(4)
C4 C 0.3869(4) 0.8630(12) 0.2795(4)
C5 C 0.0948(3) 0.9050(10) 0.3993(3)
C6 C 0.2650(4) 0.8764(11) 0.2900(4)
C7 C 0.2055(4) 0.8130(11) 0.2751(4)
H1 H 0.201771 0.764573 0.240944
C8 C 0.1517(4) 0.8205(11) 0.3100(4)
H2 H 0.112752 0.776181 0.298521
C9 C 0.2124(4) 0.9562(11) 0.3760(4)
H3 H 0.215496 1.006000 0.409865
C10 C 0.3511(4) 0.7191(12) 0.1755(5)
H4 H 0.377964 0.662793 0.198682
C11 C 0.4027(4) 0.7698(11) 0.3217(4)
H5 H 0.370201 0.709981 0.337010
C12 C 0.4355(4) 0.9510(12) 0.2580(4)
H6 H 0.425182 1.016903 0.229484
C13 C 0.4995(4) 0.9451(13) 0.2774(4)
H7 H 0.531464 1.006276 0.261963
C14 C 0.2683(4) 0.9495(11) 0.3410(4)
H8 H 0.307321 0.994185 0.352092
C15 C 0.0314(4) 0.8621(12) 0.3875(4)
H9 H 0.018899 0.814828 0.354688
C16 C 0.3085(6) 0.7633(18) 0.0883(5)
C17 C 0.3478(5) 0.6841(13) 0.1209(6)
H10 H 0.372363 0.606277 0.106323
C18 C 0.2792(4) 0.9184(13) 0.1633(5)
H11 H 0.257575 1.000693 0.177767
C19 C 0.4671(4) 0.7610(12) 0.3429(4)
H12 H 0.476943 0.697232 0.372257
C20 C 0.0145(4) 0.9724(11) 0.4753(3)
C21 C 0.2720(5) 0.8859(15) 0.1070(5)
H13 H 0.245109 0.940933 0.083425
C22 C -0.0119(4) 0.8981(12) 0.4308(4)
H14 H -0.056194 0.873039 0.429382
C23 C 0.5985(4) 0.7421(15) 0.3781(5)
H15 H 0.644691 0.751955 0.385407
H16 H 0.574351 0.762018 0.411732
H17 H 0.589338 0.643131 0.365712
C24 C 0.2610(10) 0.773(2) 0.0063(7)
H18 H 0.262902 0.739223 -0.031774
H19 H 0.220527 0.740629 0.022901
H20 H 0.263350 0.878839 0.007195
S1D S -0.09833(9) 1.0040(3) 0.53850(10)
N1D N -0.3217(3) 1.1313(9) 0.7447(3)
O1D O -0.5799(3) 1.1568(10) 0.6634(3)
O2D O -0.3060(5) 1.2780(16) 0.9683(6)
C1D C -0.3166(4) 1.1656(12) 0.8018(4)
C2D C -0.1532(3) 1.1087(10) 0.6385(4)
C3D C -0.5154(4) 1.1513(13) 0.6806(4)
C4D C -0.3869(4) 1.1370(12) 0.7205(4)
C5D C -0.0948(3) 1.0950(10) 0.6007(3)
C6D C -0.2650(4) 1.1236(11) 0.7100(4)
C7D C -0.2055(4) 1.1870(11) 0.7249(4)
H1D H -0.201771 1.235427 0.759056
C8D C -0.1517(4) 1.1795(11) 0.6900(4)
H2D H -0.112752 1.223819 0.701479
C9D C -0.2124(4) 1.0438(11) 0.6240(4)
H3D H -0.215496 0.994000 0.590135
C10D C -0.3511(4) 1.2809(12) 0.8245(5)
H4D H -0.377964 1.337207 0.801318
C11D C -0.4027(4) 1.2302(11) 0.6783(4)
H5D H -0.370201 1.290019 0.662990
C12D C -0.4355(4) 1.0490(12) 0.7420(4)
H6D H -0.425182 0.983097 0.770516
C13D C -0.4995(4) 1.0549(13) 0.7226(4)
H7D H -0.531464 0.993724 0.738037
C14D C -0.2683(4) 1.0505(11) 0.6590(4)
H8D H -0.307321 1.005815 0.647908
C15D C -0.0314(4) 1.1379(12) 0.6125(4)
H9D H -0.018899 1.185172 0.645312
C16D C -0.3085(6) 1.2367(18) 0.9117(5)
C17D C -0.3478(5) 1.3159(13) 0.8791(6)
H10D H -0.372363 1.393723 0.893677
C18D C -0.2792(4) 1.0816(13) 0.8367(5)
H11D H -0.257575 0.999307 0.822233
C19D C -0.4671(4) 1.2390(12) 0.6571(4)
H12D H -0.476943 1.302768 0.627743
C20D C -0.0145(4) 1.0276(11) 0.5247(3)
C21D C -0.2720(5) 1.1141(15) 0.8930(5)
H13D H -0.245109 1.059067 0.916575
C22D C 0.0119(4) 1.1019(12) 0.5692(4)
H14D H 0.056194 1.126961 0.570618
C23D C -0.5985(4) 1.2579(15) 0.6219(5)
H15D H -0.644691 1.248045 0.614593
H16D H -0.574351 1.237982 0.588268
H17D H -0.589338 1.356869 0.634288
C24D C -0.2610(10) 1.227(2) 0.9937(7)
H18D H -0.262902 1.260777 1.031774
H19D H -0.220527 1.259371 0.977099
H20D H -0.263350 1.121161 0.992805
loop_
_geom_bond_atom_site_label_1
_geom_bond_atom_site_label_2
_geom_bond_site_symmetry_1
_geom_bond_site_symmetry_2
S1 C5 1_555 1_555
N1 C1 1_555 1_555
O1 C3 1_555 1_555
O2 C16 1_555 1_555
C1 C10 1_555 1_555
C2 C5 1_555 1_555
C3 C13 1_555 1_555
C4 N1 1_555 1_555
C5 C15 1_555 1_555
C6 N1 1_555 1_555
C7 C6 1_555 1_555
H1 C7 1_555 1_555
C8 C2 1_555 1_555
H2 C8 1_555 1_555
C9 C2 1_555 1_555
H3 C9 1_555 1_555
C10 H4 1_555 1_555
C11 C4 1_555 1_555
H5 C11 1_555 1_555
C12 C4 1_555 1_555
H6 C12 1_555 1_555
C13 C12 1_555 1_555
H7 C13 1_555 1_555
C14 C6 1_555 1_555
H8 C14 1_555 1_555
C15 H9 1_555 1_555
C16 C17 1_555 1_555
C17 C10 1_555 1_555
H10 C17 1_555 1_555
C18 C1 1_555 1_555
H11 C18 1_555 1_555
C19 C3 1_555 1_555
H12 C19 1_555 1_555
C20 S1 1_555 1_555
C21 C16 1_555 1_555
H13 C21 1_555 1_555
C22 C15 1_555 1_555
H14 C22 1_555 1_555
C23 O1 1_555 1_555
H15 C23 1_555 1_555
H16 C23 1_555 1_555
H17 C23 1_555 1_555
C24 O2 1_555 1_555
H18 C24 1_555 1_555
H19 C24 1_555 1_555
H20 C24 1_555 1_555
S1D C5D 1_555 1_555
N1D C1D 1_555 1_555
O1D C3D 1_555 1_555
O2D C16D 1_555 1_555
C1D C10D 1_555 1_555
C2D C5D 1_555 1_555
C3D C13D 1_555 1_555
C4D N1D 1_555 1_555
C5D C15D 1_555 1_555
C6D N1D 1_555 1_555
C7D C6D 1_555 1_555
H1D C7D 1_555 1_555
C8D C2D 1_555 1_555
H2D C8D 1_555 1_555
C9D C2D 1_555 1_555
H3D C9D 1_555 1_555
C10D H4D 1_555 1_555
C11D C4D 1_555 1_555
H5D C11D 1_555 1_555
C12D C4D 1_555 1_555
H6D C12D 1_555 1_555
C13D C12D 1_555 1_555
H7D C13D 1_555 1_555
C14D C6D 1_555 1_555
H8D C14D 1_555 1_555
C15D H9D 1_555 1_555
C16D C17D 1_555 1_555
C17D C10D 1_555 1_555
H10D C17D 1_555 1_555
C18D C1D 1_555 1_555
H11D C18D 1_555 1_555
C19D C3D 1_555 1_555
H12D C19D 1_555 1_555
C20D C20 1_555 1_555
C21D C16D 1_555 1_555
H13D C21D 1_555 1_555
C22D C15D 1_555 1_555
H14D C22D 1_555 1_555
C23D O1D 1_555 1_555
H15D C23D 1_555 1_555
H16D C23D 1_555 1_555
H17D C23D 1_555 1_555
C24D O2D 1_555 1_555
H18D C24D 1_555 1_555
H19D C24D 1_555 1_555
H20D C24D 1_555 1_555
C7 C8 1_555 1_555
C9 C14 1_555 1_555
C11 C19 1_555 1_555
C18 C21 1_555 1_555
C20 C22 1_555 1_555
S1D C20D 1_555 1_555
C7D C8D 1_555 1_555
C9D C14D 1_555 1_555
C11D C19D 1_555 1_555
C18D C21D 1_555 1_555
C20D C22D 1_555 1_555

#END
