
#######################################################################
#
#                 Cambridge Crystallographic Data Centre
#                                CCDC 
#
#######################################################################
#
# If this CIF has been generated from an entry in the Cambridge 
# Structural Database, then it will include bibliographic, chemical, 
# crystal, experimental, refinement or atomic coordinate data resulting 
# from the CCDC's data processing and validation procedures.
#
#######################################################################

data_VIKKUW
_chemical_formula_moiety         'C15 H14 O2'
_chemical_name_systematic        1-(2-Hydroxy-5-methylphenyl)-2-phenylethanone
_symmetry_cell_setting           monoclinic
_symmetry_space_group_name_H-M   'P 21/c'
_symmetry_Int_Tables_number      14
_space_group_name_Hall           '-P 2ybc'
loop_
_symmetry_equiv_pos_site_id
_symmetry_equiv_pos_as_xyz
1 x,y,z
2 -x,1/2+y,1/2-z
3 -x,-y,-z
4 x,1/2-y,1/2+z
_cell_length_a                   8.2951(10)
_cell_length_b                   18.010(2)
_cell_length_c                   8.9186(10)
_cell_angle_alpha                90
_cell_angle_beta                 114.103(4)
_cell_angle_gamma                90
_cell_volume                     1216.22
_exptl_crystal_colour            colorless
_exptl_crystal_description       plate
_cell_formula_units_Z            4
_exptl_crystal_recrystallization_method 'ethyl acetate'
loop_
_atom_site_label
_atom_site_type_symbol
_atom_site_fract_x
_atom_site_fract_y
_atom_site_fract_z
O1 O 0.7193(3) 0.17283(14) 1.0078(4)
H1 H 0.6678 0.2127 0.9949
O2 O 0.6970(3) 0.31456(13) 0.9929(4)
C1 C 0.8678(4) 0.18261(17) 1.0027(5)
C2 C 0.9580(5) 0.12019(19) 1.0045(5)
H2 H 0.9105 0.0737 1.0069
C3 C 1.1103(5) 0.1267(2) 1.0029(5)
H3 H 1.1754 0.0844 1.0044
C4 C 1.1785(4) 0.1956(2) 0.9990(5)
C5 C 1.0873(4) 0.25743(18) 0.9949(5)
H4 H 1.1355 0.3036 0.9909
C6 C 0.9320(4) 0.25309(16) 0.9965(4)
C7 C 1.3490(5) 0.2031(3) 1.0001(7)
H5 H 1.4366 0.1904 1.1068
H6 H 1.3663 0.2535 0.9749
H7 H 1.3596 0.1706 0.9194
C8 C 0.8332(4) 0.31987(17) 0.9903(5)
C9 C 0.9037(4) 0.39513(18) 0.9815(5)
H8 H 1.0025 0.4045 1.0857
H9 H 0.9504 0.3937 0.8980
C10 C 0.7835(4) 0.45875(17) 0.9461(5)
C11 C 0.6748(5) 0.4736(2) 0.7773(6)
H10 H 0.6796 0.4434 0.6947
C12 C 0.5657(6) 0.5323(2) 0.7409(6)
H11 H 0.4928 0.5438 0.6326
C13 C 0.5649(5) 0.5762(2) 0.8734(6)
H12 H 0.4887 0.6167 0.8477
C14 C 0.6721(5) 0.5627(2) 1.0419(6)
H13 H 0.6672 0.5932 1.1241
C15 C 0.7813(4) 0.50376(19) 1.0775(5)
H14 H 0.8542 0.4924 1.1859
loop_
_geom_bond_atom_site_label_1
_geom_bond_atom_site_label_2
_geom_bond_site_symmetry_1
_geom_bond_site_symmetry_2
O1 H1 1_555 1_555
O2 C8 1_555 1_555
C1 O1 1_555 1_555
C2 C1 1_555 1_555
H2 C2 1_555 1_555
C3 C2 1_555 1_555
H3 C3 1_555 1_555
C4 C3 1_555 1_555
C5 C4 1_555 1_555
H4 C5 1_555 1_555
C6 C1 1_555 1_555
C7 C4 1_555 1_555
H5 C7 1_555 1_555
H6 C7 1_555 1_555
H7 C7 1_555 1_555
C8 C6 1_555 1_555
C9 C8 1_555 1_555
H8 C9 1_555 1_555
H9 C9 1_555 1_555
C10 C9 1_555 1_555
C11 C10 1_555 1_555
H10 C11 1_555 1_555
C12 C11 1_555 1_555
H11 C12 1_555 1_555
C13 C12 1_555 1_555
H12 C13 1_555 1_555
C14 C13 1_555 1_555
H13 C14 1_555 1_555
C15 C10 1_555 1_555
H14 C15 1_555 1_555
C5 C6 1_555 1_555
C14 C15 1_555 1_555

#END
