
#######################################################################
#
#                 Cambridge Crystallographic Data Centre
#                                CCDC 
#
#######################################################################
#
# If this CIF has been generated from an entry in the Cambridge 
# Structural Database, then it will include bibliographic, chemical, 
# crystal, experimental, refinement or atomic coordinate data resulting 
# from the CCDC's data processing and validation procedures.
#
#######################################################################

data_VIKWOD
_chemical_formula_moiety         'C20 H41 N1 O6 Si2'
_chemical_name_systematic        
(3S,3aS,5R,6R,6aS)-5-(Methoxy(methyl)amino)-3,6-bis((triethylsilyl)oxy)-hexahydrofuro[3,2-b]furan-2-one
_symmetry_cell_setting           monoclinic
_symmetry_space_group_name_H-M   'P 21'
_symmetry_Int_Tables_number      4
_space_group_name_Hall           'P 2yb'
loop_
_symmetry_equiv_pos_site_id
_symmetry_equiv_pos_as_xyz
1 x,y,z
2 -x,1/2+y,-z
_cell_length_a                   12.0523(8)
_cell_length_b                   28.1562(19)
_cell_length_c                   14.5558(10)
_cell_angle_alpha                90
_cell_angle_beta                 90.022(3)
_cell_angle_gamma                90
_cell_volume                     4939.47
_exptl_crystal_colour            colorless
_exptl_crystal_description       plate
_cell_formula_units_Z            8
loop_
_atom_site_label
_atom_site_type_symbol
_atom_site_fract_x
_atom_site_fract_y
_atom_site_fract_z
Si1 Si 0.97726(10) 0.18133(4) 0.17333(6)
Si2 Si 0.97092(8) 0.47909(3) 0.16411(8)
C1 C 1.0827(3) 0.30742(12) 0.2229(3)
H1 H 1.1520 0.2905 0.2039
C2 C 0.9360(3) 0.34772(13) 0.1543(3)
H2 H 0.9090 0.3480 0.0893
N1 N 1.0973(2) 0.33021(11) 0.3133(2)
O1 O 1.05354(18) 0.34238(9) 0.1579(2)
C3 C 0.9850(3) 0.27301(13) 0.2273(3)
H3 H 0.9793 0.2575 0.2889
C4 C 0.8861(3) 0.30540(13) 0.2084(3)
H4 H 0.8278 0.2887 0.1717
O2 O 0.84155(19) 0.32387(9) 0.2924(2)
C5 C 0.8537(3) 0.37098(14) 0.2993(3)
O3 O 1.1386(2) 0.29142(11) 0.37008(19)
C6 C 0.8935(3) 0.39050(14) 0.2067(3)
H5 H 0.8280 0.4038 0.1731
O4 O 0.9962(2) 0.23933(9) 0.1564(2)
C7 C 1.1865(3) 0.36541(15) 0.3124(3)
H6 H 1.1865 0.3830 0.3705
H7 H 1.1750 0.3876 0.2614
H8 H 1.2580 0.3493 0.3047
O5 O 0.8285(2) 0.39208(11) 0.3672(2)
C8 C 1.0823(4) 0.29260(17) 0.4575(3)
H9 H 1.0946 0.3235 0.4868
H10 H 1.1113 0.2673 0.4970
H11 H 1.0026 0.2878 0.4479
O6 O 0.9713(2) 0.42700(9) 0.2193(2)
C9 C 1.0688(3) 0.15987(13) 0.2676(2)
H12 H 1.0436 0.1741 0.3261
H13 H 1.0605 0.1250 0.2730
C10 C 1.1910(3) 0.17141(16) 0.2543(3)
H14 H 1.2175 0.1567 0.1973
H15 H 1.2336 0.1590 0.3064
H16 H 1.2006 0.2059 0.2506
C11 C 1.0139(3) 0.15578(14) 0.0591(3)
H17 H 0.9769 0.1747 0.0107
H18 H 1.0950 0.1588 0.0500
C12 C 0.9806(4) 0.10252(15) 0.0470(4)
H19 H 1.0250 0.0828 0.0886
H20 H 0.9942 0.0927 -0.0166
H21 H 0.9017 0.0986 0.0614
C13 C 0.8265(3) 0.17233(16) 0.2078(3)
H22 H 0.7986 0.2026 0.2337
H23 H 0.7831 0.1657 0.1515
C14 C 0.8039(4) 0.1341(2) 0.2749(4)
H24 H 0.8317 0.1038 0.2508
H25 H 0.7238 0.1317 0.2853
H26 H 0.8413 0.1414 0.3330
C15 C 0.8682(3) 0.51938(15) 0.2186(3)
H27 H 0.8884 0.5234 0.2841
H28 H 0.8737 0.5509 0.1889
C16 C 0.7467(3) 0.5027(2) 0.2133(4)
H29 H 0.7246 0.4995 0.1488
H30 H 0.6987 0.5260 0.2437
H31 H 0.7393 0.4719 0.2442
C17 C 1.1143(3) 0.50289(18) 0.1809(3)
H32 H 1.1665 0.4816 0.1483
H33 H 1.1184 0.5343 0.1504
C18 C 1.1543(3) 0.50857(15) 0.2763(3)
H34 H 1.1004 0.5272 0.3115
H35 H 1.2260 0.5250 0.2759
H36 H 1.1631 0.4772 0.3046
C19 C 0.9413(3) 0.46913(14) 0.0397(3)
H37 H 0.8716 0.4508 0.0340
H38 H 0.9294 0.5003 0.0097
C20 C 1.0319(3) 0.44316(16) -0.0106(3)
H39 H 1.0975 0.4636 -0.0153
H40 H 1.0061 0.4348 -0.0724
H41 H 1.0511 0.4142 0.0230
Si3 Si 0.51986(9) 0.55631(4) 0.41834(7)
Si4 Si 0.53713(9) 0.25822(4) 0.41894(8)
C21 C 0.4199(3) 0.43104(16) 0.4760(3)
H42 H 0.3499 0.4479 0.4588
C22 C 0.5664(3) 0.39129(14) 0.4049(3)
H43 H 0.5929 0.3910 0.3398
N2 N 0.4077(3) 0.40656(15) 0.5636(3)
O7 O 0.4492(2) 0.39646(11) 0.4081(2)
C23 C 0.5175(3) 0.46517(14) 0.4785(3)
H44 H 0.5249 0.4812 0.5395
C24 C 0.6168(3) 0.43340(15) 0.4571(3)
H45 H 0.6744 0.4503 0.4200
O8 O 0.6619(2) 0.41455(10) 0.5432(2)
C25 C 0.6505(3) 0.36635(16) 0.5485(3)
O9 O 0.3697(2) 0.44416(12) 0.6241(2)
C26 C 0.6094(3) 0.34659(14) 0.4573(3)
H46 H 0.6741 0.3332 0.4230
O10 O 0.5060(2) 0.49852(10) 0.4053(2)
C27 C 0.3173(3) 0.37146(18) 0.5598(3)
H47 H 0.2514 0.3861 0.5322
H48 H 0.2997 0.3607 0.6221
H49 H 0.3406 0.3443 0.5225
O11 O 0.6752(2) 0.34488(11) 0.6161(2)
C28 C 0.4300(4) 0.44054(17) 0.7064(3)
H50 H 0.4088 0.4113 0.7386
H51 H 0.4138 0.4680 0.7455
H52 H 0.5096 0.4397 0.6926
O12 O 0.5319(2) 0.31071(10) 0.4702(2)
C29 C 0.4242(3) 0.57774(14) 0.5113(3)
H53 H 0.4503 0.5648 0.5708
H54 H 0.4295 0.6128 0.5147
C30 C 0.3050(3) 0.56437(16) 0.4988(3)
H55 H 0.2786 0.5762 0.4394
H56 H 0.2607 0.5784 0.5482
H57 H 0.2978 0.5297 0.5006
C31 C 0.4835(3) 0.58091(16) 0.3025(3)
H58 H 0.5230 0.5621 0.2553
H59 H 0.4030 0.5763 0.2924
C32 C 0.5101(4) 0.63245(17) 0.2874(4)
H60 H 0.5904 0.6372 0.2919
H61 H 0.4726 0.6517 0.3342
H62 H 0.4845 0.6421 0.2262
C33 C 0.6679(3) 0.5726(2) 0.4501(3)
H63 H 0.7183 0.5517 0.4146
H64 H 0.6815 0.6055 0.4292
C34 C 0.6995(5) 0.5696(2) 0.5456(4)
H65 H 0.6490 0.5890 0.5826
H66 H 0.7755 0.5812 0.5531
H67 H 0.6953 0.5365 0.5660
C35 C 0.6464(4) 0.22155(19) 0.4778(5)
H68 H 0.6239 0.2169 0.5426
H69 H 0.6484 0.1899 0.4483
C36 C 0.7625(3) 0.24199(19) 0.4766(5)
H70 H 0.7884 0.2445 0.4129
H71 H 0.8124 0.2211 0.5112
H72 H 0.7618 0.2736 0.5048
C37 C 0.3955(3) 0.23170(16) 0.4324(4)
H73 H 0.3412 0.2521 0.4001
H74 H 0.3946 0.2002 0.4022
C38 C 0.3574(4) 0.2256(2) 0.5340(4)
H75 H 0.4067 0.2031 0.5653
H76 H 0.2812 0.2135 0.5353
H77 H 0.3603 0.2564 0.5653
C39 C 0.5699(3) 0.26545(15) 0.2938(3)
H78 H 0.6385 0.2845 0.2876
H79 H 0.5845 0.2338 0.2669
C40 C 0.4754(4) 0.2899(2) 0.2385(3)
H80 H 0.4074 0.2710 0.2437
H81 H 0.4970 0.2923 0.1738
H82 H 0.4623 0.3218 0.2632
Si5 Si 0.02114(10) 0.17460(3) 0.66874(6)
Si6 Si -0.02791(9) 0.47383(3) 0.67269(7)
C42 C 0.0909(3) 0.30075(13) 0.7260(3)
H88 H 0.1615 0.2842 0.7093
C43 C -0.0544(3) 0.34022(13) 0.6556(3)
H89 H -0.0814 0.3406 0.5907
N3 N 0.1010(2) 0.32475(10) 0.8160(2)
O13 O 0.06231(19) 0.33446(9) 0.6594(2)
C44 C -0.0068(3) 0.26565(12) 0.7291(3)
H90 H -0.0130 0.2494 0.7900
C45 C -0.1058(3) 0.29824(13) 0.7099(3)
H91 H -0.1641 0.2816 0.6730
O14 O -0.15062(19) 0.31694(9) 0.7937(2)
C46 C -0.1365(3) 0.36420(14) 0.8013(3)
O15 O 0.1381(2) 0.28680(11) 0.87659(18)
C47 C -0.0967(3) 0.38341(13) 0.7086(3)
H92 H -0.1623 0.3966 0.6752
O16 O 0.0044(2) 0.23309(9) 0.6562(2)
C48 C 0.1911(3) 0.35979(14) 0.8148(3)
H93 H 0.1895 0.3783 0.8717
H94 H 0.1815 0.3811 0.7621
H95 H 0.2625 0.3433 0.8097
O17 O -0.1617(2) 0.38519(10) 0.8692(2)
C49 C 0.0791(4) 0.29041(15) 0.9618(3)
H96 H 0.0926 0.3217 0.9892
H97 H 0.1049 0.2656 1.0039
H98 H -0.0005 0.2864 0.9506
O18 O -0.0190(2) 0.42026(9) 0.7205(2)
C50 C 0.1577(3) 0.15947(14) 0.7225(3)
H99 H 0.1780 0.1269 0.7033
H100 H 0.2144 0.1812 0.6971
C51 C 0.1647(3) 0.16180(12) 0.8268(2)
H101 H 0.1486 0.1942 0.8473
H102 H 0.2395 0.1528 0.8466
H103 H 0.1105 0.1399 0.8536
C52 C 0.0188(3) 0.15374(15) 0.5476(3)
H104 H -0.0440 0.1691 0.5155
H105 H 0.0880 0.1641 0.5170
C53 C 0.0076(3) 0.09882(15) 0.5368(3)
H106 H 0.0702 0.0832 0.5674
H107 H 0.0078 0.0906 0.4714
H108 H -0.0620 0.0882 0.5648
C54 C -0.0930(3) 0.14985(12) 0.7423(3)
H109 H -0.0842 0.1149 0.7462
H110 H -0.0853 0.1628 0.8052
C55 C -0.2091(3) 0.16097(17) 0.7070(4)
H111 H -0.2238 0.1950 0.7137
H112 H -0.2638 0.1429 0.7426
H113 H -0.2145 0.1521 0.6421
C56 C -0.1323(3) 0.50961(14) 0.7362(3)
H114 H -0.1067 0.5136 0.8004
H115 H -0.1364 0.5416 0.7080
C57 C -0.2494(3) 0.48785(14) 0.7374(3)
H116 H -0.2759 0.4838 0.6742
H117 H -0.2999 0.5090 0.7708
H118 H -0.2471 0.4569 0.7680
C58 C 0.1143(3) 0.49937(17) 0.6860(3)
H119 H 0.1661 0.4799 0.6491
H120 H 0.1140 0.5317 0.6590
C59 C 0.1598(4) 0.50284(15) 0.7817(3)
H121 H 0.1084 0.5211 0.8202
H122 H 0.2320 0.5188 0.7802
H123 H 0.1688 0.4709 0.8073
C60 C -0.0644(3) 0.46786(15) 0.5483(3)
H124 H -0.1328 0.4486 0.5428
H125 H -0.0805 0.4998 0.5231
C61 C 0.0260(4) 0.44506(19) 0.4909(3)
H126 H 0.0912 0.4658 0.4898
H127 H -0.0011 0.4402 0.4281
H128 H 0.0463 0.4143 0.5178
Si7 Si 0.48921(9) 0.55758(4) 0.91578(7)
Si8 Si 0.53586(8) 0.25881(3) 0.92032(8)
C62 C 0.4211(3) 0.43303(16) 0.9769(3)
H129 H 0.3512 0.4501 0.9600
C63 C 0.5664(3) 0.39218(14) 0.9057(3)
H130 H 0.5931 0.3916 0.8407
N4 N 0.4086(3) 0.40830(13) 1.0648(3)
O19 O 0.4491(2) 0.39810(10) 0.9089(2)
C64 C 0.5185(3) 0.46671(13) 0.9786(2)
H131 H 0.5262 0.4830 1.0393
C65 C 0.6180(3) 0.43418(14) 0.9580(3)
H132 H 0.6765 0.4507 0.9212
O20 O 0.6614(2) 0.41511(10) 1.0443(2)
C66 C 0.6473(3) 0.36728(16) 1.0500(4)
O21 O 0.3700(2) 0.44583(11) 1.1252(2)
C67 C 0.6074(3) 0.34761(14) 0.9583(3)
H133 H 0.6727 0.3342 0.9248
O22 O 0.5095(2) 0.49961(9) 0.90513(19)
C68 C 0.3187(3) 0.37311(16) 1.0609(3)
H134 H 0.3008 0.3625 1.1233
H135 H 0.3424 0.3459 1.0240
H136 H 0.2528 0.3875 1.0329
O23 O 0.6699(2) 0.34548(11) 1.1179(2)
C69 C 0.4304(4) 0.44263(17) 1.2069(3)
H137 H 0.4154 0.4120 1.2364
H138 H 0.4084 0.4684 1.2482
H139 H 0.5098 0.4452 1.1934
O24 O 0.5294(2) 0.31180(10) 0.9697(2)
C70 C 0.3514(3) 0.57240(15) 0.9667(3)
H140 H 0.3297 0.6043 0.9444
H141 H 0.2965 0.5495 0.9424
C71 C 0.3424(3) 0.57237(15) 1.0694(3)
H142 H 0.3468 0.5397 1.0921
H143 H 0.2712 0.5864 1.0876
H144 H 0.4032 0.5911 1.0956
C72 C 0.4964(3) 0.58018(16) 0.7945(3)
H145 H 0.5636 0.5669 0.7650
H146 H 0.4313 0.5680 0.7604
C73 C 0.4994(3) 0.63377(16) 0.7850(4)
H147 H 0.4388 0.6477 0.8209
H148 H 0.4908 0.6424 0.7202
H149 H 0.5706 0.6458 0.8079
C74 C 0.6017(3) 0.58286(12) 0.9905(3)
H150 H 0.5908 0.6176 0.9948
H151 H 0.5932 0.5696 1.0531
C75 C 0.7184(3) 0.57353(15) 0.9585(3)
H152 H 0.7709 0.5851 1.0047
H153 H 0.7313 0.5901 0.9003
H154 H 0.7289 0.5393 0.9495
C76 C 0.6414(4) 0.2215(2) 0.9820(5)
H155 H 0.6235 0.2217 1.0483
H156 H 0.6343 0.1884 0.9601
C77 C 0.7610(3) 0.2368(2) 0.9704(4)
H157 H 0.7794 0.2380 0.9049
H158 H 0.8098 0.2139 1.0013
H159 H 0.7714 0.2683 0.9976
C78 C 0.3950(3) 0.23227(15) 0.9314(3)
H160 H 0.3415 0.2527 0.8982
H161 H 0.3951 0.2009 0.9008
C79 C 0.3528(3) 0.22566(18) 1.0332(4)
H162 H 0.4013 0.2033 1.0655
H163 H 0.2768 0.2132 1.0324
H164 H 0.3539 0.2564 1.0649
C80 C 0.5727(3) 0.26512(15) 0.7963(3)
H165 H 0.6417 0.2841 0.7912
H166 H 0.5879 0.2332 0.7706
C81 C 0.4804(4) 0.2893(2) 0.7382(3)
H167 H 0.4102 0.2724 0.7470
H168 H 0.5010 0.2884 0.6731
H169 H 0.4718 0.3224 0.7578
H83? H 0.7085 0.5424 0.4595
H84? H 0.7012 0.5880 0.3955
C41? C 0.6909(10) 0.6009(5) 0.5239(8)
H85? H 0.6565 0.6321 0.5149
H86? H 0.7714 0.6046 0.5298
H87? H 0.6612 0.5862 0.5798
loop_
_geom_bond_atom_site_label_1
_geom_bond_atom_site_label_2
_geom_bond_site_symmetry_1
_geom_bond_site_symmetry_2
Si1 O4 1_555 1_555
Si2 O6 1_555 1_555
C1 H1 1_555 1_555
C2 H2 1_555 1_555
N1 C1 1_555 1_555
O1 C1 1_555 1_555
C3 C1 1_555 1_555
H3 C3 1_555 1_555
C4 C2 1_555 1_555
H4 C4 1_555 1_555
O2 C4 1_555 1_555
C5 O2 1_555 1_555
O3 N1 1_555 1_555
C6 C2 1_555 1_555
H5 C6 1_555 1_555
O4 C3 1_555 1_555
C7 N1 1_555 1_555
H6 C7 1_555 1_555
H7 C7 1_555 1_555
H8 C7 1_555 1_555
O5 C5 1_555 1_555
C8 O3 1_555 1_555
H9 C8 1_555 1_555
H10 C8 1_555 1_555
H11 C8 1_555 1_555
O6 C6 1_555 1_555
C9 Si1 1_555 1_555
H12 C9 1_555 1_555
H13 C9 1_555 1_555
C10 C9 1_555 1_555
H14 C10 1_555 1_555
H15 C10 1_555 1_555
H16 C10 1_555 1_555
C11 Si1 1_555 1_555
H17 C11 1_555 1_555
H18 C11 1_555 1_555
C12 C11 1_555 1_555
H19 C12 1_555 1_555
H20 C12 1_555 1_555
H21 C12 1_555 1_555
C13 Si1 1_555 1_555
H22 C13 1_555 1_555
H23 C13 1_555 1_555
C14 C13 1_555 1_555
H24 C14 1_555 1_555
H25 C14 1_555 1_555
H26 C14 1_555 1_555
C15 Si2 1_555 1_555
H27 C15 1_555 1_555
H28 C15 1_555 1_555
C16 C15 1_555 1_555
H29 C16 1_555 1_555
H30 C16 1_555 1_555
H31 C16 1_555 1_555
C17 Si2 1_555 1_555
H32 C17 1_555 1_555
H33 C17 1_555 1_555
C18 C17 1_555 1_555
H34 C18 1_555 1_555
H35 C18 1_555 1_555
H36 C18 1_555 1_555
C19 Si2 1_555 1_555
H37 C19 1_555 1_555
H38 C19 1_555 1_555
C20 C19 1_555 1_555
H39 C20 1_555 1_555
H40 C20 1_555 1_555
H41 C20 1_555 1_555
Si3 O10 1_555 1_555
Si4 O12 1_555 1_555
C21 H42 1_555 1_555
C22 H43 1_555 1_555
N2 C21 1_555 1_555
O7 C21 1_555 1_555
C23 C21 1_555 1_555
H44 C23 1_555 1_555
C24 C22 1_555 1_555
H45 C24 1_555 1_555
O8 C24 1_555 1_555
C25 O8 1_555 1_555
O9 N2 1_555 1_555
C26 C22 1_555 1_555
H46 C26 1_555 1_555
O10 C23 1_555 1_555
C27 N2 1_555 1_555
H47 C27 1_555 1_555
H48 C27 1_555 1_555
H49 C27 1_555 1_555
O11 C25 1_555 1_555
C28 O9 1_555 1_555
H50 C28 1_555 1_555
H51 C28 1_555 1_555
H52 C28 1_555 1_555
O12 C26 1_555 1_555
C29 Si3 1_555 1_555
H53 C29 1_555 1_555
H54 C29 1_555 1_555
C30 C29 1_555 1_555
H55 C30 1_555 1_555
H56 C30 1_555 1_555
H57 C30 1_555 1_555
C31 Si3 1_555 1_555
H58 C31 1_555 1_555
H59 C31 1_555 1_555
C32 C31 1_555 1_555
H60 C32 1_555 1_555
H61 C32 1_555 1_555
H62 C32 1_555 1_555
C33 Si3 1_555 1_555
H63 C33 1_555 1_555
H64 C33 1_555 1_555
C34 C33 1_555 1_555
H65 C34 1_555 1_555
H66 C34 1_555 1_555
H67 C34 1_555 1_555
C35 Si4 1_555 1_555
H68 C35 1_555 1_555
H69 C35 1_555 1_555
C36 C35 1_555 1_555
H70 C36 1_555 1_555
H71 C36 1_555 1_555
H72 C36 1_555 1_555
C37 Si4 1_555 1_555
H73 C37 1_555 1_555
H74 C37 1_555 1_555
C38 C37 1_555 1_555
H75 C38 1_555 1_555
H76 C38 1_555 1_555
H77 C38 1_555 1_555
C39 Si4 1_555 1_555
H78 C39 1_555 1_555
H79 C39 1_555 1_555
C40 C39 1_555 1_555
H80 C40 1_555 1_555
H81 C40 1_555 1_555
H82 C40 1_555 1_555
Si5 O16 1_555 1_555
Si6 O18 1_555 1_555
C42 H88 1_555 1_555
C43 H89 1_555 1_555
N3 C42 1_555 1_555
O13 C42 1_555 1_555
C44 C42 1_555 1_555
H90 C44 1_555 1_555
C45 C43 1_555 1_555
H91 C45 1_555 1_555
O14 C45 1_555 1_555
C46 O14 1_555 1_555
O15 N3 1_555 1_555
C47 C43 1_555 1_555
H92 C47 1_555 1_555
O16 C44 1_555 1_555
C48 N3 1_555 1_555
H93 C48 1_555 1_555
H94 C48 1_555 1_555
H95 C48 1_555 1_555
O17 C46 1_555 1_555
C49 O15 1_555 1_555
H96 C49 1_555 1_555
H97 C49 1_555 1_555
H98 C49 1_555 1_555
O18 C47 1_555 1_555
C50 Si5 1_555 1_555
H99 C50 1_555 1_555
H100 C50 1_555 1_555
C51 C50 1_555 1_555
H101 C51 1_555 1_555
H102 C51 1_555 1_555
H103 C51 1_555 1_555
C52 Si5 1_555 1_555
H104 C52 1_555 1_555
H105 C52 1_555 1_555
C53 C52 1_555 1_555
H106 C53 1_555 1_555
H107 C53 1_555 1_555
H108 C53 1_555 1_555
C54 Si5 1_555 1_555
H109 C54 1_555 1_555
H110 C54 1_555 1_555
C55 C54 1_555 1_555
H111 C55 1_555 1_555
H112 C55 1_555 1_555
H113 C55 1_555 1_555
C56 Si6 1_555 1_555
H114 C56 1_555 1_555
H115 C56 1_555 1_555
C57 C56 1_555 1_555
H116 C57 1_555 1_555
H117 C57 1_555 1_555
H118 C57 1_555 1_555
C58 Si6 1_555 1_555
H119 C58 1_555 1_555
H120 C58 1_555 1_555
C59 C58 1_555 1_555
H121 C59 1_555 1_555
H122 C59 1_555 1_555
H123 C59 1_555 1_555
C60 Si6 1_555 1_555
H124 C60 1_555 1_555
H125 C60 1_555 1_555
C61 C60 1_555 1_555
H126 C61 1_555 1_555
H127 C61 1_555 1_555
H128 C61 1_555 1_555
Si7 O22 1_555 1_555
Si8 O24 1_555 1_555
C62 H129 1_555 1_555
C63 H130 1_555 1_555
N4 C62 1_555 1_555
O19 C62 1_555 1_555
C64 C62 1_555 1_555
H131 C64 1_555 1_555
C65 C63 1_555 1_555
H132 C65 1_555 1_555
O20 C65 1_555 1_555
C66 O20 1_555 1_555
O21 N4 1_555 1_555
C67 C63 1_555 1_555
H133 C67 1_555 1_555
O22 C64 1_555 1_555
C68 N4 1_555 1_555
H134 C68 1_555 1_555
H135 C68 1_555 1_555
H136 C68 1_555 1_555
O23 C66 1_555 1_555
C69 O21 1_555 1_555
H137 C69 1_555 1_555
H138 C69 1_555 1_555
H139 C69 1_555 1_555
O24 C67 1_555 1_555
C70 Si7 1_555 1_555
H140 C70 1_555 1_555
H141 C70 1_555 1_555
C71 C70 1_555 1_555
H142 C71 1_555 1_555
H143 C71 1_555 1_555
H144 C71 1_555 1_555
C72 Si7 1_555 1_555
H145 C72 1_555 1_555
H146 C72 1_555 1_555
C73 C72 1_555 1_555
H147 C73 1_555 1_555
H148 C73 1_555 1_555
H149 C73 1_555 1_555
C74 Si7 1_555 1_555
H150 C74 1_555 1_555
H151 C74 1_555 1_555
C75 C74 1_555 1_555
H152 C75 1_555 1_555
H153 C75 1_555 1_555
H154 C75 1_555 1_555
C76 Si8 1_555 1_555
H155 C76 1_555 1_555
H156 C76 1_555 1_555
C77 C76 1_555 1_555
H157 C77 1_555 1_555
H158 C77 1_555 1_555
H159 C77 1_555 1_555
C78 Si8 1_555 1_555
H160 C78 1_555 1_555
H161 C78 1_555 1_555
C79 C78 1_555 1_555
H162 C79 1_555 1_555
H163 C79 1_555 1_555
H164 C79 1_555 1_555
C80 Si8 1_555 1_555
H165 C80 1_555 1_555
H166 C80 1_555 1_555
C81 C80 1_555 1_555
H167 C81 1_555 1_555
H168 C81 1_555 1_555
H169 C81 1_555 1_555
C2 O1 1_555 1_555
C3 C4 1_555 1_555
C5 C6 1_555 1_555
C22 O7 1_555 1_555
C23 C24 1_555 1_555
C25 C26 1_555 1_555
C43 O13 1_555 1_555
C44 C45 1_555 1_555
C46 C47 1_555 1_555
C63 O19 1_555 1_555
C64 C65 1_555 1_555
C66 C67 1_555 1_555

#END
