
#######################################################################
#
#                 Cambridge Crystallographic Data Centre
#                                CCDC 
#
#######################################################################
#
# If this CIF has been generated from an entry in the Cambridge 
# Structural Database, then it will include bibliographic, chemical, 
# crystal, experimental, refinement or atomic coordinate data resulting 
# from the CCDC's data processing and validation procedures.
#
#######################################################################

data_VILJOP
_chemical_formula_moiety         'C14 H14 O5'
_chemical_name_systematic        
'Dimethyl 5-formyltricyclo(5.2.0.0^4,6^)nona-2,8-diene-2,4-dicarboxylate'
_symmetry_cell_setting           monoclinic
_symmetry_space_group_name_H-M   'P 21/n'
_symmetry_Int_Tables_number      14
_space_group_name_Hall           '-P 2yn'
loop_
_symmetry_equiv_pos_site_id
_symmetry_equiv_pos_as_xyz
1 x,y,z
2 1/2-x,1/2+y,1/2-z
3 -x,-y,-z
4 1/2+x,1/2-y,1/2+z
_cell_length_a                   8.3620(4)
_cell_length_b                   9.0989(5)
_cell_length_c                   17.077(1)
_cell_angle_alpha                90
_cell_angle_beta                 101.019(5)
_cell_angle_gamma                90
_cell_volume                     1275.35
_cell_formula_units_Z            4
loop_
_atom_site_label
_atom_site_type_symbol
_atom_site_fract_x
_atom_site_fract_y
_atom_site_fract_z
O1 O -0.1599(3) 0.7829(3) 0.9338(2)
O2 O 0.0354(3) 0.8409(3) 0.8653(2)
O3 O 0.3023(3) 0.6409(3) 0.9523(2)
O4 O 0.3750(4) 0.6465(4) 0.8333(2)
O5 O 0.1201(4) 0.5802(3) 0.6345(2)
C1 C -0.1271(4) 0.3323(4) 0.8890(2)
C2 C -0.1290(4) 0.4952(4) 0.9026(2)
C3 C -0.0217(4) 0.5886(4) 0.8840(2)
C4 C 0.1174(4) 0.5440(4) 0.8461(2)
C5 C 0.0708(4) 0.4978(4) 0.7579(2)
C6 C 0.1229(4) 0.3849(4) 0.8215(2)
C7 C 0.0066(4) 0.2725(4) 0.8442(2)
C8 C -0.1344(5) 0.2237(4) 0.7800(2)
C9 C -0.2471(5) 0.2752(4) 0.8165(3)
C10 C -0.0417(4) 0.7501(4) 0.8927(3)
C11 C -0.2002(6) 0.9378(5) 0.9406(3)
C12 C 0.2772(5) 0.6166(4) 0.8736(2)
C13 C 0.4511(5) 0.7177(5) 0.9866(3)
C14 C 0.1753(5) 0.5253(4) 0.6987(2)
H1 H -0.124(3) 0.276(3) 0.946(2)
H2 H -0.214(4) 0.531(4) 0.928(2)
H3 H -0.043(3) 0.508(3) 0.737(2)
H4 H 0.219(3) 0.350(3) 0.820(2)
H5 H 0.076(3) 0.192(3) 0.877(2)
H6 H -0.131(4) 0.170(3) 0.729(2)
H7 H -0.361(4) 0.285(3) 0.803(2)
H8 H -0.117(7) 0.995(7) 1.008(4)
H9 H -0.295(7) 0.958(7) 0.949(3)
H10 H -0.226(5) 0.973(5) 0.902(3)
H11 H 0.424(5) 0.812(5) 0.982(3)
H12 H 0.456(4) 0.729(4) 1.046(2)
H13 H 0.529(4) 0.675(4) 0.977(2)
H14 H 0.309(4) 0.484(3) 0.717(2)
loop_
_geom_bond_atom_site_label_1
_geom_bond_atom_site_label_2
_geom_bond_site_symmetry_1
_geom_bond_site_symmetry_2
O1 C10 1_555 1_555
O2 C10 1_555 1_555
O3 C12 1_555 1_555
O4 C12 1_555 1_555
O5 C14 1_555 1_555
C1 C2 1_555 1_555
C2 C3 1_555 1_555
C3 C4 1_555 1_555
C4 C5 1_555 1_555
C5 C6 1_555 1_555
C6 C4 1_555 1_555
C7 C1 1_555 1_555
C8 C7 1_555 1_555
C9 C1 1_555 1_555
C10 C3 1_555 1_555
C11 O1 1_555 1_555
C12 C4 1_555 1_555
C13 O3 1_555 1_555
C14 C5 1_555 1_555
H1 C1 1_555 1_555
H2 C2 1_555 1_555
H3 C5 1_555 1_555
H4 C6 1_555 1_555
H5 C7 1_555 1_555
H6 C8 1_555 1_555
H7 C9 1_555 1_555
H8 C11 1_555 1_555
H9 C11 1_555 1_555
H10 C11 1_555 1_555
H11 C13 1_555 1_555
H12 C13 1_555 1_555
H13 C13 1_555 1_555
H14 C14 1_555 1_555
C6 C7 1_555 1_555
C8 C9 1_555 1_555

#END
