
#######################################################################
#
#                 Cambridge Crystallographic Data Centre
#                                CCDC 
#
#######################################################################
#
# If this CIF has been generated from an entry in the Cambridge 
# Structural Database, then it will include bibliographic, chemical, 
# crystal, experimental, refinement or atomic coordinate data resulting 
# from the CCDC's data processing and validation procedures.
#
#######################################################################

data_VILPUE
_chemical_formula_moiety         'C22 H22 N2 S3'
_chemical_name_systematic        
5-(3-hexylthiophen-2-yl)-4,6-bis(thiophen-2-yl)pyrimidine
_symmetry_cell_setting           triclinic
_symmetry_space_group_name_H-M   'P -1'
_symmetry_Int_Tables_number      2
_space_group_name_Hall           '-P 1'
loop_
_symmetry_equiv_pos_site_id
_symmetry_equiv_pos_as_xyz
1 x,y,z
2 -x,-y,-z
_cell_length_a                   9.942(4)
_cell_length_b                   14.914(8)
_cell_length_c                   15.060(13)
_cell_angle_alpha                102.58(6)
_cell_angle_beta                 96.37(5)
_cell_angle_gamma                100.84(4)
_cell_volume                     2113.47
_exptl_crystal_colour            orange
_exptl_crystal_description       prism
_cell_formula_units_Z            4
loop_
_atom_site_label
_atom_site_type_symbol
_atom_site_fract_x
_atom_site_fract_y
_atom_site_fract_z
S1 S 0.34675(10) 0.88372(7) 0.47647(7)
N1 N 0.4441(4) 0.5784(2) 0.4363(2)
C1 C 0.2216(4) 0.6075(3) 0.4008(3)
C2 C 0.5815(5) 0.6034(3) 0.4476(3)
H1 H 0.6298 0.5607 0.4651
S2 S 0.85342(12) 0.83792(10) 0.41965(11)
N2 N 0.6570(3) 0.6812(2) 0.4369(2)
C3 C 0.5873(3) 0.7435(2) 0.4112(2)
C4 C 0.4425(3) 0.7271(2) 0.4009(2)
C5 C 0.3728(4) 0.6408(3) 0.4127(2)
C6 C 0.3665(3) 0.7993(2) 0.3835(2)
C7 C 0.3121(3) 0.8139(3) 0.3015(3)
C8 C 0.2520(4) 0.8947(3) 0.3174(3)
H2 H 0.2087 0.9153 0.2700
C9 C 0.2634(4) 0.9378(3) 0.4059(3)
H3 H 0.2296 0.9914 0.4269
C10 C 0.6776(3) 0.8271(2) 0.3959(2)
C11 C 0.6435(3) 0.9032(2) 0.3585(2)
H4 H 0.5551 0.9115 0.3404
C12 C 0.7758(4) 0.9645(3) 0.3548(3)
H5 H 0.7805 1.0188 0.3334
C13 C 0.8870(4) 0.9370(3) 0.3840(4)
H6 H 0.9766 0.9699 0.3847
C14 C -0.0209(6) 0.5875(4) 0.3734(4)
H7 H -0.1067 0.6018 0.3598
C15 C -0.0024(6) 0.5038(5) 0.3856(5)
H8 H -0.0770 0.4548 0.3834
C16 C 0.3177(5) 0.7552(3) 0.2086(3)
H9 H 0.3567 0.7018 0.2161
H10 H 0.3791 0.7922 0.1778
C17 C 0.1753(5) 0.7189(4) 0.1477(3)
H11 H 0.1160 0.6788 0.1771
H12 H 0.1340 0.7722 0.1439
C18 C 0.1785(6) 0.6640(4) 0.0507(3)
H13 H 0.2052 0.6050 0.0526
H14 H 0.2462 0.7000 0.0229
C19 C 0.0333(7) 0.6441(4) -0.0075(4)
H15 H -0.0324 0.6060 0.0198
H16 H 0.0054 0.7033 -0.0051
C20 C 0.0263(8) 0.5963(5) -0.1028(4)
H17 H 0.0575 0.5379 -0.1067
H18 H 0.0858 0.6356 -0.1328
C21 C -0.1200(8) 0.5764(7) -0.1491(6)
H19 H -0.1268 0.5442 -0.2125
H20 H -0.1496 0.6346 -0.1456
H21 H -0.1781 0.5377 -0.1189
S3 S 0.1629(3) 0.49197(12) 0.40506(18)
C22 C 0.1307(19) 0.6616(18) 0.386(2)
H22 H 0.1486 0.7245 0.3835
S5 S 0.53483(10) 0.91090(8) -0.25544(7)
N3 N 0.4028(3) 0.9015(2) 0.0405(2)
C24 C 0.6161(4) 0.8802(3) -0.0028(3)
C25 C 0.2684(4) 0.8996(3) 0.0198(3)
H24 H 0.2240 0.9197 0.0693
S6 S -0.00418(14) 0.82941(15) -0.22468(11)
N4 N 0.1910(3) 0.8729(2) -0.0617(2)
C26 C 0.2563(4) 0.8468(3) -0.1345(3)
C27 C 0.3984(3) 0.8498(2) -0.1218(2)
C28 C 0.4692(4) 0.8765(2) -0.0304(2)
C29 C 0.4703(3) 0.8250(3) -0.2018(2)
C30 C 0.4916(5) 0.7395(3) -0.2432(3)
C31 C 0.5611(5) 0.7450(4) -0.3201(3)
H25 H 0.5850 0.6934 -0.3566
C32 C 0.5888(5) 0.8308(4) -0.3348(3)
H26 H 0.6325 0.8455 -0.3829
C33 C 0.1640(4) 0.8188(3) -0.2241(3)
C34 C 0.1887(3) 0.7774(2) -0.3174(2)
H27 H 0.2706 0.7626 -0.3341
C35 C 0.0589(5) 0.7646(4) -0.3779(4)
H28 H 0.0497 0.7421 -0.4414
C36 C -0.0443(5) 0.7866(4) -0.3378(4)
H29 H -0.1328 0.7789 -0.3700
C37 C 0.8565(5) 0.8817(3) 0.0095(3)
H30 H 0.9410 0.8774 -0.0101
C38 C 0.8322(5) 0.9042(3) 0.0957(3)
H31 H 0.9041 0.9177 0.1450
S7 S 0.6726(4) 0.9078(3) 0.11405(16)
C39 C 0.7181(18) 0.8650(15) -0.0489(12)
H32 H 0.7050 0.8453 -0.1128
C40 C 0.4154(12) 0.6473(7) -0.2308(9)
H33 H 0.3588 0.6588 -0.1828
H34 H 0.3545 0.6126 -0.2876
C41 C 0.5147(13) 0.5907(7) -0.2055(10)
H35 H 0.5732 0.5871 -0.2530
H36 H 0.5735 0.6300 -0.1496
C42 C 0.485(2) 0.4967(12) -0.1897(16)
H37 H 0.4615 0.4506 -0.2485
H38 H 0.5676 0.4860 -0.1565
C43 C 0.374(2) 0.4839(17) -0.1383(17)
H39 H 0.3060 0.5199 -0.1528
H40 H 0.4077 0.5036 -0.0726
C44 C 0.307(4) 0.374(2) -0.1687(19)
H41 H 0.2118 0.3601 -0.1999
H42 H 0.3620 0.3385 -0.2053
C45 C 0.317(3) 0.3644(16) -0.0754(16)
H43 H 0.2837 0.2997 -0.0757
H44 H 0.2628 0.4025 -0.0420
H45 H 0.4125 0.3845 -0.0464
C23? C 0.166(3) 0.5236(14) 0.431(2)
H23? H 0.2110 0.4904 0.4660
S4? S 0.0961(9) 0.6549(10) 0.3769(12)
S8? S 0.7371(4) 0.8613(3) -0.0740(2)
C46? C 0.680(2) 0.9068(14) 0.0886(9)
H46? H 0.6351 0.9240 0.1387
C47? C 0.4793(14) 0.6594(8) -0.1899(9)
H47? H 0.5688 0.6433 -0.1796
H48? H 0.4533 0.6823 -0.1303
C48? C 0.377(3) 0.5756(19) -0.241(2)
H49? H 0.4082 0.5523 -0.2985
H50? H 0.2913 0.5951 -0.2561
C49? C 0.341(2) 0.4913(16) -0.1962(18)
H51? H 0.3088 0.5158 -0.1393
H52? H 0.2618 0.4480 -0.2365
C50? C 0.435(2) 0.4352(16) -0.1740(18)
H53? H 0.5135 0.4747 -0.1298
H54? H 0.4696 0.4081 -0.2292
C51? C 0.3666(17) 0.3578(12) -0.1345(14)
H55? H 0.4194 0.3089 -0.1431
H56? H 0.3738 0.3828 -0.0687
C52? C 0.2303(18) 0.3164(14) -0.1688(14)
H57? H 0.2005 0.2661 -0.1402
H58? H 0.2203 0.2916 -0.2342
H59? H 0.1746 0.3623 -0.1562
loop_
_geom_bond_atom_site_label_1
_geom_bond_atom_site_label_2
_geom_bond_site_symmetry_1
_geom_bond_site_symmetry_2
S1 C6 1_555 1_555
N1 C2 1_555 1_555
C1 C5 1_555 1_555
C2 H1 1_555 1_555
S2 C10 1_555 1_555
N2 C2 1_555 1_555
C3 N2 1_555 1_555
C4 C3 1_555 1_555
C5 N1 1_555 1_555
C6 C4 1_555 1_555
C7 C6 1_555 1_555
C8 C7 1_555 1_555
H2 C8 1_555 1_555
C9 S1 1_555 1_555
H3 C9 1_555 1_555
C10 C3 1_555 1_555
C11 C10 1_555 1_555
H4 C11 1_555 1_555
C12 C11 1_555 1_555
H5 C12 1_555 1_555
C13 S2 1_555 1_555
H6 C13 1_555 1_555
C14 H7 1_555 1_555
C15 C14 1_555 1_555
H8 C15 1_555 1_555
C16 C7 1_555 1_555
H9 C16 1_555 1_555
H10 C16 1_555 1_555
C17 C16 1_555 1_555
H11 C17 1_555 1_555
H12 C17 1_555 1_555
C18 C17 1_555 1_555
H13 C18 1_555 1_555
H14 C18 1_555 1_555
C19 C18 1_555 1_555
H15 C19 1_555 1_555
H16 C19 1_555 1_555
C20 C19 1_555 1_555
H17 C20 1_555 1_555
H18 C20 1_555 1_555
C21 C20 1_555 1_555
H19 C21 1_555 1_555
H20 C21 1_555 1_555
H21 C21 1_555 1_555
S3 C1 1_555 1_555
C22 C1 1_555 1_555
H22 C22 1_555 1_555
S5 C29 1_555 1_555
N3 C25 1_555 1_555
C24 C28 1_555 1_555
C25 H24 1_555 1_555
S6 C33 1_555 1_555
N4 C25 1_555 1_555
C26 N4 1_555 1_555
C27 C26 1_555 1_555
C28 N3 1_555 1_555
C29 C27 1_555 1_555
C30 C29 1_555 1_555
C31 C30 1_555 1_555
H25 C31 1_555 1_555
C32 S5 1_555 1_555
H26 C32 1_555 1_555
C33 C26 1_555 1_555
C34 C33 1_555 1_555
H27 C34 1_555 1_555
C35 C34 1_555 1_555
H28 C35 1_555 1_555
C36 S6 1_555 1_555
H29 C36 1_555 1_555
C37 H30 1_555 1_555
C38 C37 1_555 1_555
H31 C38 1_555 1_555
S7 C24 1_555 1_555
C39 C24 1_555 1_555
H32 C39 1_555 1_555
C40 C30 1_555 1_555
H33 C40 1_555 1_555
H34 C40 1_555 1_555
C41 C40 1_555 1_555
H35 C41 1_555 1_555
H36 C41 1_555 1_555
C42 C41 1_555 1_555
H37 C42 1_555 1_555
H38 C42 1_555 1_555
C43 C42 1_555 1_555
H39 C43 1_555 1_555
H40 C43 1_555 1_555
C44 C43 1_555 1_555
H41 C44 1_555 1_555
H42 C44 1_555 1_555
C45 C44 1_555 1_555
H43 C45 1_555 1_555
H44 C45 1_555 1_555
H45 C45 1_555 1_555
C4 C5 1_555 1_555
C8 C9 1_555 1_555
C12 C13 1_555 1_555
C14 C22 1_555 1_555
C15 S3 1_555 1_555
C27 C28 1_555 1_555
C31 C32 1_555 1_555
C35 C36 1_555 1_555
C37 C39 1_555 1_555
C38 S7 1_555 1_555

#END
