
#######################################################################
#
#                 Cambridge Crystallographic Data Centre
#                                CCDC 
#
#######################################################################
#
# If this CIF has been generated from an entry in the Cambridge 
# Structural Database, then it will include bibliographic, chemical, 
# crystal, experimental, refinement or atomic coordinate data resulting 
# from the CCDC's data processing and validation procedures.
#
#######################################################################

data_VILROA
_chemical_formula_moiety         'C18 H21 N3 O3'
_chemical_name_systematic        
2-t-butyl-6-(methylamino)-4-(3-methylphenyl)-5-nitro-4H-pyran-3-carbonitrile
_symmetry_cell_setting           monoclinic
_symmetry_space_group_name_H-M   'P 21/c'
_symmetry_Int_Tables_number      14
_space_group_name_Hall           '-P 2ybc'
loop_
_symmetry_equiv_pos_site_id
_symmetry_equiv_pos_as_xyz
1 x,y,z
2 -x,1/2+y,1/2-z
3 -x,-y,-z
4 x,1/2-y,1/2+z
_cell_length_a                   8.4930(17)
_cell_length_b                   9.4130(19)
_cell_length_c                   22.663(5)
_cell_angle_alpha                90
_cell_angle_beta                 99.29(3)
_cell_angle_gamma                90
_cell_volume                     1788.02
_cell_formula_units_Z            4
loop_
_atom_site_label
_atom_site_type_symbol
_atom_site_fract_x
_atom_site_fract_y
_atom_site_fract_z
O1 O 0.1776(2) 0.7704(2) 0.15668(9)
C1 C 0.1154(4) 0.8354(3) 0.20246(13)
N1 N -0.1858(4) 0.9735(4) 0.27610(13)
O2 O -0.1230(3) 0.5414(3) 0.03287(10)
N2 N -0.1789(3) 0.6264(3) 0.06558(11)
C2 C -0.0418(4) 0.8551(3) 0.19712(13)
N3 N 0.1678(3) 0.6116(3) 0.08365(10)
H1 H 0.1171 0.5660 0.0536
O3 O -0.3261(3) 0.6368(3) 0.06235(10)
C3 C -0.1590(4) 0.8131(3) 0.14150(12)
H2 H -0.2503 0.7662 0.1546
C4 C -0.0800(4) 0.7082(3) 0.10672(13)
C5 C 0.0830(4) 0.6923(3) 0.11430(13)
C6 C 0.2473(4) 0.8873(4) 0.25138(15)
C7 C 0.2649(5) 1.0423(4) 0.24540(19)
H3 H 0.2913 1.0637 0.2068
H4 H 0.3483 1.0759 0.2759
H5 H 0.1664 1.0882 0.2497
C8 C 0.4008(4) 0.8112(5) 0.24885(18)
H6 H 0.4321 0.8264 0.2105
H7 H 0.3867 0.7114 0.2549
H8 H 0.4822 0.8471 0.2796
C9 C 0.2073(5) 0.8584(5) 0.31272(15)
H9 H 0.1090 0.9050 0.3167
H10 H 0.2913 0.8939 0.3425
H11 H 0.1961 0.7579 0.3180
C10 C -0.1169(4) 0.9214(4) 0.24233(15)
C11 C 0.3395(3) 0.5935(4) 0.09650(14)
H12 H 0.3726 0.5293 0.0680
H13 H 0.3689 0.5554 0.1360
H14 H 0.3906 0.6837 0.0940
C12 C -0.2202(4) 0.9470(4) 0.10646(13)
C13 C -0.1166(5) 1.0330(4) 0.08147(16)
H15 H -0.0095 1.0088 0.0844
C14 C -0.1751(6) 1.1563(5) 0.05196(19)
H16 H -0.1057 1.2174 0.0366
C15 C -0.3334(7) 1.1882(5) 0.04544(19)
H17 H -0.3712 1.2681 0.0235
C16 C -0.4371(6) 1.1070(5) 0.06987(16)
C17 C -0.3793(4) 0.9839(4) 0.10052(13)
H18 H -0.4492 0.9260 0.1172
C18 C -0.6141(5) 1.1422(5) 0.06455(16)
H19 H -0.6361 1.2291 0.0426
H20 H -0.6416 1.1529 0.1038
H21 H -0.6761 1.0666 0.0439
loop_
_geom_bond_atom_site_label_1
_geom_bond_atom_site_label_2
_geom_bond_site_symmetry_1
_geom_bond_site_symmetry_2
O1 C1 1_555 1_555
C1 C2 1_555 1_555
N1 C10 1_555 1_555
O2 N2 1_555 1_555
N2 O3 1_555 1_555
C2 C3 1_555 1_555
N3 H1 1_555 1_555
C3 H2 1_555 1_555
C4 N2 1_555 1_555
C5 O1 1_555 1_555
C6 C1 1_555 1_555
C7 C6 1_555 1_555
H3 C7 1_555 1_555
H4 C7 1_555 1_555
H5 C7 1_555 1_555
C8 C6 1_555 1_555
H6 C8 1_555 1_555
H7 C8 1_555 1_555
H8 C8 1_555 1_555
C9 C6 1_555 1_555
H9 C9 1_555 1_555
H10 C9 1_555 1_555
H11 C9 1_555 1_555
C10 C2 1_555 1_555
C11 N3 1_555 1_555
H12 C11 1_555 1_555
H13 C11 1_555 1_555
H14 C11 1_555 1_555
C12 C3 1_555 1_555
C13 C12 1_555 1_555
H15 C13 1_555 1_555
C14 C13 1_555 1_555
H16 C14 1_555 1_555
C15 C14 1_555 1_555
H17 C15 1_555 1_555
C16 C15 1_555 1_555
C17 C12 1_555 1_555
H18 C17 1_555 1_555
C18 C16 1_555 1_555
H19 C18 1_555 1_555
H20 C18 1_555 1_555
H21 C18 1_555 1_555
N3 C5 1_555 1_555
C3 C4 1_555 1_555
C4 C5 1_555 1_555
C16 C17 1_555 1_555

#END
