
#######################################################################
#
#                 Cambridge Crystallographic Data Centre
#                                CCDC 
#
#######################################################################
#
# If this CIF has been generated from an entry in the Cambridge 
# Structural Database, then it will include bibliographic, chemical, 
# crystal, experimental, refinement or atomic coordinate data resulting 
# from the CCDC's data processing and validation procedures.
#
#######################################################################

data_VIMHII03
_chemical_formula_moiety         'C3 H12 N2 2+,2(Cl1 O4 1-)'
_chemical_name_systematic        'Propane-1,3-diammonium diperchlorate'
_symmetry_cell_setting           monoclinic
_symmetry_space_group_name_H-M   'P 21/c'
_symmetry_Int_Tables_number      14
_space_group_name_Hall           '-P 2ybc'
loop_
_symmetry_equiv_pos_site_id
_symmetry_equiv_pos_as_xyz
1 x,y,z
2 -x,1/2+y,1/2-z
3 -x,-y,-z
4 x,1/2-y,1/2+z
_cell_length_a                   7.2512(2)
_cell_length_b                   14.3920(3)
_cell_length_c                   9.6503(2)
_cell_angle_alpha                90
_cell_angle_beta                 96.6320(10)
_cell_angle_gamma                90
_cell_volume                     1000.36
_exptl_crystal_colour            colorless
_exptl_crystal_description       needle
_cell_formula_units_Z            4
_exptl_crystal_recrystallization_method acetonitrile/benzene
loop_
_atom_site_label
_atom_site_type_symbol
_atom_site_fract_x
_atom_site_fract_y
_atom_site_fract_z
Cl1 Cl 0.20032(4) 0.07071(2) 0.26248(3)
O1 O 0.08366(16) 0.12552(8) 0.34323(12)
O2 O 0.33804(16) 0.12945(8) 0.20990(12)
O3 O 0.29364(17) -0.00054(8) 0.34975(12)
O4 O 0.08656(17) 0.02805(8) 0.14634(12)
Cl2 Cl -0.27520(5) 0.24043(2) 0.61721(3)
O5 O -0.10288(15) 0.19496(8) 0.58730(11)
O6 O -0.43122(15) 0.19252(7) 0.54320(11)
O7 O -0.27167(16) 0.33630(7) 0.57282(12)
O8 O -0.28595(16) 0.23663(9) 0.76574(11)
N1 N 0.29441(19) -0.05654(9) 0.65043(15)
N2 N 0.07201(19) 0.16567(9) 0.90026(15)
C1 C 0.2617(2) 0.04375(10) 0.68106(15)
C2 C 0.3305(2) 0.06647(10) 0.83236(15)
C3 C 0.2722(2) 0.16326(10) 0.87357(16)
H1 H 0.264(3) -0.0709(15) 0.568(3)
H2 H 0.230(4) -0.0924(17) 0.690(3)
H3 H 0.400(4) -0.0745(16) 0.677(2)
H4 H 0.047(3) 0.2175(15) 0.935(2)
H5 H 0.046(3) 0.1259(17) 0.959(3)
H6 H 0.002(4) 0.1565(16) 0.825(3)
H7 H 0.130(3) 0.0542(13) 0.659(2)
H8 H 0.323(3) 0.0785(13) 0.618(2)
H9 H 0.466(3) 0.0649(14) 0.846(2)
H10 H 0.286(3) 0.0185(13) 0.896(2)
H11 H 0.348(3) 0.1831(15) 0.958(2)
H12 H 0.288(3) 0.2072(14) 0.798(2)
loop_
_geom_bond_atom_site_label_1
_geom_bond_atom_site_label_2
_geom_bond_site_symmetry_1
_geom_bond_site_symmetry_2
Cl1 O1 1_555 1_555
O2 Cl1 1_555 1_555
O3 Cl1 1_555 1_555
O4 Cl1 1_555 1_555
Cl2 O5 1_555 1_555
O6 Cl2 1_555 1_555
O7 Cl2 1_555 1_555
O8 Cl2 1_555 1_555
N1 C1 1_555 1_555
N2 C3 1_555 1_555
C1 C2 1_555 1_555
C2 C3 1_555 1_555
C3 H11 1_555 1_555
H1 N1 1_555 1_555
H2 N1 1_555 1_555
H3 N1 1_555 1_555
H4 N2 1_555 1_555
H5 N2 1_555 1_555
H6 N2 1_555 1_555
H7 C1 1_555 1_555
H8 C1 1_555 1_555
H9 C2 1_555 1_555
H10 C2 1_555 1_555
H12 C3 1_555 1_555

#END
