
#######################################################################
#
#                 Cambridge Crystallographic Data Centre
#                                CCDC 
#
#######################################################################
#
# If this CIF has been generated from an entry in the Cambridge 
# Structural Database, then it will include bibliographic, chemical, 
# crystal, experimental, refinement or atomic coordinate data resulting 
# from the CCDC's data processing and validation procedures.
#
#######################################################################

data_VIMKEJ
_chemical_formula_moiety         'C15 H11 Cl1 N4'
_chemical_name_systematic        
(E)-2-(2-(4-chlorobenzylidene)hydrazinyl)quinoxaline
_symmetry_cell_setting           monoclinic
_symmetry_space_group_name_H-M   'P 21/c'
_symmetry_Int_Tables_number      14
_space_group_name_Hall           '-P 2ybc'
loop_
_symmetry_equiv_pos_site_id
_symmetry_equiv_pos_as_xyz
1 x,y,z
2 -x,1/2+y,1/2-z
3 -x,-y,-z
4 x,1/2-y,1/2+z
_cell_length_a                   11.6658(6)
_cell_length_b                   10.0515(5)
_cell_length_c                   11.7575(8)
_cell_angle_alpha                90
_cell_angle_beta                 104.818(7)
_cell_angle_gamma                90
_cell_volume                     1332.82
_exptl_crystal_colour            yellow
_exptl_crystal_description       prism
_cell_formula_units_Z            4
loop_
_atom_site_label
_atom_site_type_symbol
_atom_site_fract_x
_atom_site_fract_y
_atom_site_fract_z
Cl1 Cl 1.04280(3) 0.12798(3) 0.62474(3)
N1 N 0.52829(8) 0.66802(10) 0.60545(9)
H1 H 0.5015 0.6589 0.6685
N2 N 0.61932(8) 0.59043(10) 0.59043(9)
C1 C 0.66234(10) 0.50625(12) 0.67225(10)
H2 H 0.6306 0.5003 0.7388
N3 N 0.47011(8) 0.84947(10) 0.33081(9)
C2 C 0.51663(10) 0.76576(11) 0.41418(10)
H3 H 0.5769 0.7069 0.4038
C3 C 0.47938(10) 0.75975(11) 0.52172(10)
N4 N 0.39740(8) 0.83969(10) 0.54260(8)
C4 C 0.33043(11) 1.02480(13) 0.26018(11)
H4 H 0.3540 1.0271 0.1886
C5 C 0.76041(10) 0.41929(12) 0.66313(10)
C6 C 0.25982(10) 1.01790(12) 0.47019(11)
H5 H 0.2349 1.0166 0.5410
C7 C 0.20931(11) 1.10625(13) 0.38278(13)
H6 H 0.1498 1.1658 0.3938
C8 C 0.24459(12) 1.10983(13) 0.27679(13)
H7 H 0.2087 1.1713 0.2169
C9 C 0.79524(10) 0.31593(12) 0.74354(10)
H8 H 0.7580 0.3057 0.8060
C10 C 0.88381(10) 0.22753(12) 0.73351(11)
H9 H 0.9069 0.1569 0.7883
C11 C 0.93776(10) 0.24397(12) 0.64266(11)
C12 C 0.90808(11) 0.34895(14) 0.56408(12)
H10 H 0.9482 0.3609 0.5039
C13 C 0.81962(11) 0.43581(13) 0.57427(11)
H11 H 0.7986 0.5076 0.5204
C14 C 0.34862(10) 0.92891(11) 0.45550(10)
C15 C 0.38393(10) 0.93395(12) 0.34907(10)
loop_
_geom_bond_atom_site_label_1
_geom_bond_atom_site_label_2
_geom_bond_site_symmetry_1
_geom_bond_site_symmetry_2
Cl1 C11 1_555 1_555
N1 H1 1_555 1_555
N2 N1 1_555 1_555
C1 N2 1_555 1_555
H2 C1 1_555 1_555
N3 C2 1_555 1_555
C2 H3 1_555 1_555
C3 N1 1_555 1_555
N4 C3 1_555 1_555
C4 H4 1_555 1_555
C5 C1 1_555 1_555
C6 H5 1_555 1_555
C7 C6 1_555 1_555
H6 C7 1_555 1_555
C8 C4 1_555 1_555
H7 C8 1_555 1_555
C9 C5 1_555 1_555
H8 C9 1_555 1_555
C10 C9 1_555 1_555
H9 C10 1_555 1_555
C11 C10 1_555 1_555
C12 C11 1_555 1_555
H10 C12 1_555 1_555
C13 C5 1_555 1_555
H11 C13 1_555 1_555
C14 N4 1_555 1_555
C15 N3 1_555 1_555
C2 C3 1_555 1_555
C4 C15 1_555 1_555
C6 C14 1_555 1_555
C7 C8 1_555 1_555
C12 C13 1_555 1_555
C14 C15 1_555 1_555

#END
