
#######################################################################
#
#                 Cambridge Crystallographic Data Centre
#                                CCDC 
#
#######################################################################
#
# If this CIF has been generated from an entry in the Cambridge 
# Structural Database, then it will include bibliographic, chemical, 
# crystal, experimental, refinement or atomic coordinate data resulting 
# from the CCDC's data processing and validation procedures.
#
#######################################################################

data_VIMLAG
_chemical_formula_moiety         'C15 H11 Br1 N4'
_chemical_name_systematic        
(E)-2-(2-(4-bromobenzylidene)hydrazinyl)quinoxaline
_symmetry_cell_setting           monoclinic
_symmetry_space_group_name_H-M   'P 21/c'
_symmetry_Int_Tables_number      14
_space_group_name_Hall           '-P 2ybc'
loop_
_symmetry_equiv_pos_site_id
_symmetry_equiv_pos_as_xyz
1 x,y,z
2 -x,1/2+y,1/2-z
3 -x,-y,-z
4 x,1/2-y,1/2+z
_cell_length_a                   12.002(5)
_cell_length_b                   9.170(3)
_cell_length_c                   12.617(5)
_cell_angle_alpha                90
_cell_angle_beta                 100.004(6)
_cell_angle_gamma                90
_cell_volume                     1367.49
_exptl_crystal_colour            orange
_exptl_crystal_description       plate
_cell_formula_units_Z            4
loop_
_atom_site_label
_atom_site_type_symbol
_atom_site_fract_x
_atom_site_fract_y
_atom_site_fract_z
Br1 Br 1.03383(4) 0.11361(6) 0.64450(5)
N1 N 0.5232(3) 0.6821(4) 0.6006(3)
H1 H 0.4992 0.6824 0.6625
N2 N 0.6097(3) 0.5981(4) 0.5850(3)
N3 N 0.3967(3) 0.8554(4) 0.5376(3)
N4 N 0.4617(3) 0.8458(4) 0.3233(3)
C1 C 0.6528(4) 0.5203(5) 0.6693(4)
H2 H 0.6215 0.5250 0.7335
C2 C 0.3788(4) 0.9367(5) 0.3421(4)
C3 C 0.3481(4) 0.9408(5) 0.4495(4)
C4 C 0.4748(4) 0.7701(5) 0.5163(4)
C5 C 0.5067(4) 0.7664(5) 0.4074(4)
H3 H 0.5651 0.7006 0.3974
C6 C 0.3266(4) 1.0239(5) 0.2532(4)
H4 H 0.3486 1.0171 0.1846
C7 C 0.2455(4) 1.1154(6) 0.2713(5)
H5 H 0.2082 1.1758 0.2149
C8 C 0.2142(4) 1.1223(6) 0.3777(5)
H6 H 0.1564 1.1888 0.3881
C9 C 0.2638(4) 1.0372(6) 0.4661(4)
H7 H 0.2407 1.0454 0.5341
C10 C 0.7468(4) 0.4290(5) 0.6633(4)
C11 C 0.7809(4) 0.3297(5) 0.7496(4)
H8 H 0.7430 0.3283 0.8098
C12 C 0.8677(4) 0.2376(5) 0.7449(4)
H9 H 0.8924 0.1694 0.8007
C13 C 0.9198(4) 0.2469(6) 0.6539(4)
C14 C 0.8898(4) 0.3465(6) 0.5683(4)
H10 H 0.9293 0.3485 0.5093
C15 C 0.8030(4) 0.4386(6) 0.5729(4)
H11 H 0.7801 0.5080 0.5174
loop_
_geom_bond_atom_site_label_1
_geom_bond_atom_site_label_2
_geom_bond_site_symmetry_1
_geom_bond_site_symmetry_2
Br1 C13 1_555 1_555
N1 H1 1_555 1_555
N2 N1 1_555 1_555
N3 C3 1_555 1_555
N4 C2 1_555 1_555
C1 N2 1_555 1_555
H2 C1 1_555 1_555
C2 C3 1_555 1_555
C3 C9 1_555 1_555
C4 N1 1_555 1_555
C5 N4 1_555 1_555
H3 C5 1_555 1_555
C6 C2 1_555 1_555
H4 C6 1_555 1_555
C7 C6 1_555 1_555
H5 C7 1_555 1_555
C8 C7 1_555 1_555
H6 C8 1_555 1_555
C9 C8 1_555 1_555
H7 C9 1_555 1_555
C10 C1 1_555 1_555
C11 C10 1_555 1_555
H8 C11 1_555 1_555
C12 C11 1_555 1_555
H9 C12 1_555 1_555
C13 C12 1_555 1_555
C14 C13 1_555 1_555
H10 C14 1_555 1_555
C15 C10 1_555 1_555
H11 C15 1_555 1_555
N3 C4 1_555 1_555
C4 C5 1_555 1_555
C14 C15 1_555 1_555

#END
