
#######################################################################
#
#                 Cambridge Crystallographic Data Centre
#                                CCDC 
#
#######################################################################
#
# If this CIF has been generated from an entry in the Cambridge 
# Structural Database, then it will include bibliographic, chemical, 
# crystal, experimental, refinement or atomic coordinate data resulting 
# from the CCDC's data processing and validation procedures.
#
#######################################################################

data_VIMNUD
_chemical_formula_moiety         'C26 H20 N2 O2 S1'
_chemical_name_systematic        
8-[(4-methylphenyl)sulfonyl]-6,8-dihydro-5H-benzo[f]indolo[2,3-b]quinoline
_symmetry_cell_setting           orthorhombic
_symmetry_space_group_name_H-M   'P n a 21'
_symmetry_Int_Tables_number      33
_space_group_name_Hall           'P 2c -2n'
loop_
_symmetry_equiv_pos_site_id
_symmetry_equiv_pos_as_xyz
1 x,y,z
2 -x,-y,1/2+z
3 1/2+x,1/2-y,z
4 1/2-x,1/2+y,1/2+z
_cell_length_a                   7.979(3)
_cell_length_b                   19.9763(13)
_cell_length_c                   13.149(4)
_cell_angle_alpha                90
_cell_angle_beta                 90
_cell_angle_gamma                90
_cell_volume                     2095.83
_exptl_crystal_colour            yellow
_exptl_crystal_description       block
_cell_formula_units_Z            4
loop_
_atom_site_label
_atom_site_type_symbol
_atom_site_fract_x
_atom_site_fract_y
_atom_site_fract_z
S1 S 0.50251(16) 0.94969(6) 0.96298(11)
C1 C 0.6143(5) 0.8249(2) 0.6967(3)
C2 C 0.5506(5) 0.8344(2) 0.8619(4)
C3 C 0.6126(5) 0.7172(2) 0.6051(4)
C4 C 0.5895(5) 0.7562(2) 0.6996(3)
C5 C 0.5164(5) 0.7668(2) 0.8731(3)
C6 C 0.6013(6) 0.7503(3) 0.5129(4)
C7 C 0.4597(5) 0.7565(2) 0.9760(4)
C8 C 0.0441(6) 0.9697(2) 0.8515(4)
H1 H -0.0639 0.9586 0.8721
C9 C 0.5383(6) 0.7270(2) 0.7884(3)
H2 H 0.5187 0.6811 0.7915
C10 C 0.5804(7) 0.8236(3) 0.5102(4)
H3 H 0.4618 0.8343 0.5108
H4 H 0.6275 0.8409 0.4475
C11 C 0.4611(6) 0.8187(3) 1.0237(4)
C12 C 0.3368(6) 0.9698(2) 0.8826(3)
C13 C 0.6639(6) 0.8574(2) 0.5988(4)
H5 H 0.7846 0.8548 0.5909
H6 H 0.6324 0.9043 0.6003
C14 C 0.3636(7) 1.0000(2) 0.7918(4)
H7 H 0.4718 1.0101 0.7703
C15 C 0.6373(6) 0.6489(3) 0.6064(4)
H8 H 0.6499 0.6271 0.6683
C16 C 0.1761(6) 0.9537(2) 0.9132(3)
H9 H 0.1579 0.9323 0.9750
C17 C 0.6436(7) 0.6131(3) 0.5190(6)
H10 H 0.6591 0.5670 0.5215
C18 C 0.0660(7) 1.0014(3) 0.7607(4)
C19 C 0.6065(7) 0.7115(4) 0.4238(4)
H11 H 0.5954 0.7325 0.3610
C20 C 0.4121(7) 0.8253(3) 1.1250(4)
H12 H 0.4100 0.8668 1.1570
C21 C 0.4116(6) 0.6994(3) 1.0292(4)
H13 H 0.4119 0.6576 0.9981
C22 C 0.6273(8) 0.6446(4) 0.4275(6)
H14 H 0.6305 0.6198 0.3676
C23 C 0.3670(7) 0.7679(4) 1.1750(5)
H15 H 0.3376 0.7708 1.2433
C24 C -0.0804(7) 1.0177(3) 0.6945(4)
H16 H -0.1820 1.0043 0.7280
H17 H -0.0702 0.9942 0.6311
H18 H -0.0833 1.0650 0.6820
C25 C 0.2278(8) 1.0156(2) 0.7322(4)
H19 H 0.2461 1.0366 0.6700
C26 C 0.3633(7) 0.7066(4) 1.1295(4)
H20 H 0.3281 0.6694 1.1661
N1 N 0.5973(5) 0.86509(18) 0.7786(3)
N2 N 0.5206(5) 0.86736(17) 0.9552(3)
O1 O 0.6514(4) 0.97821(16) 0.9243(3)
O2 O 0.4546(4) 0.96284(17) 1.0657(2)
loop_
_geom_bond_atom_site_label_1
_geom_bond_atom_site_label_2
_geom_bond_site_symmetry_1
_geom_bond_site_symmetry_2
S1 C12 1_555 1_555
C1 C4 1_555 1_555
C2 C5 1_555 1_555
C3 C4 1_555 1_555
C4 C9 1_555 1_555
C5 C7 1_555 1_555
C6 C3 1_555 1_555
C7 C11 1_555 1_555
C8 H1 1_555 1_555
C9 C5 1_555 1_555
H2 C9 1_555 1_555
C10 C6 1_555 1_555
H3 C10 1_555 1_555
H4 C10 1_555 1_555
C11 C20 1_555 1_555
C12 C14 1_555 1_555
C13 C1 1_555 1_555
H5 C13 1_555 1_555
H6 C13 1_555 1_555
C14 H7 1_555 1_555
C15 C3 1_555 1_555
H8 C15 1_555 1_555
C16 C8 1_555 1_555
H9 C16 1_555 1_555
C17 C15 1_555 1_555
H10 C17 1_555 1_555
C18 C8 1_555 1_555
C19 C6 1_555 1_555
H11 C19 1_555 1_555
C20 H12 1_555 1_555
C21 C7 1_555 1_555
H13 C21 1_555 1_555
C22 C17 1_555 1_555
H14 C22 1_555 1_555
C23 C20 1_555 1_555
H15 C23 1_555 1_555
C24 C18 1_555 1_555
H16 C24 1_555 1_555
H17 C24 1_555 1_555
H18 C24 1_555 1_555
C25 C14 1_555 1_555
H19 C25 1_555 1_555
C26 C21 1_555 1_555
H20 C26 1_555 1_555
N1 C1 1_555 1_555
N2 S1 1_555 1_555
O1 S1 1_555 1_555
O2 S1 1_555 1_555
C2 N1 1_555 1_555
C2 N2 1_555 1_555
C10 C13 1_555 1_555
C11 N2 1_555 1_555
C12 C16 1_555 1_555
C18 C25 1_555 1_555
C19 C22 1_555 1_555
C23 C26 1_555 1_555

#END
