
#######################################################################
#
#                 Cambridge Crystallographic Data Centre
#                                CCDC 
#
#######################################################################
#
# If this CIF has been generated from an entry in the Cambridge 
# Structural Database, then it will include bibliographic, chemical, 
# crystal, experimental, refinement or atomic coordinate data resulting 
# from the CCDC's data processing and validation procedures.
#
#######################################################################

data_VIMZOJ
_chemical_formula_moiety         'C17 H17 N1 O1'
_chemical_name_systematic        N-[2-(1-phenylethenyl)phenyl]propanamide
_symmetry_cell_setting           monoclinic
_symmetry_space_group_name_H-M   'P n'
_symmetry_Int_Tables_number      7
_space_group_name_Hall           'P -2yac'
loop_
_symmetry_equiv_pos_site_id
_symmetry_equiv_pos_as_xyz
1 x,y,z
2 1/2+x,-y,1/2+z
_cell_length_a                   8.0616(5)
_cell_length_b                   9.6953(7)
_cell_length_c                   9.3502(6)
_cell_angle_alpha                90
_cell_angle_beta                 112.922(4)
_cell_angle_gamma                90
_cell_volume                     673.101
_exptl_crystal_colour            colorless
_exptl_crystal_description       plate
_cell_formula_units_Z            2
loop_
_atom_site_label
_atom_site_type_symbol
_atom_site_fract_x
_atom_site_fract_y
_atom_site_fract_z
C1 C 0.7027(3) 0.5112(3) 0.5134(3)
C2 C 0.8162(3) 0.3882(3) 0.5126(3)
H1 H 0.9033 0.4155 0.4669
H2 H 0.8859 0.3590 0.6211
C3 C 0.7081(4) 0.2682(3) 0.4234(4)
H3 H 0.6418 0.2953 0.3150
H4 H 0.6228 0.2395 0.4690
H5 H 0.7890 0.1914 0.4279
C4 C 0.7048(3) 0.7210(3) 0.6638(3)
C5 C 0.6967(3) 0.7380(3) 0.8094(3)
H6 H 0.7370 0.6660 0.8840
C6 C 0.6305(3) 0.8584(3) 0.8459(3)
H7 H 0.6285 0.8701 0.9461
C7 C 0.5670(4) 0.9622(3) 0.7363(3)
H8 H 0.5166 1.0436 0.7591
C8 C 0.5777(3) 0.9462(3) 0.5934(3)
H9 H 0.5351 1.0184 0.5193
C9 C 0.6490(3) 0.8274(2) 0.5538(3)
C10 C 0.6670(3) 0.8234(2) 0.4013(3)
C11 C 0.5386(3) 0.8759(3) 0.2751(3)
H10 H 0.4346 0.9163 0.2820
H11 H 0.5509 0.8729 0.1782
C12 C 0.8366(3) 0.7686(2) 0.3941(3)
C13 C 0.8322(4) 0.6883(3) 0.2689(3)
H12 H 0.7198 0.6670 0.1878
C14 C 0.9908(3) 0.6389(3) 0.2614(3)
H13 H 0.9859 0.5844 0.1754
C15 C 1.1556(4) 0.6689(3) 0.3787(3)
H14 H 1.2638 0.6357 0.3733
C16 C 1.1613(3) 0.7479(3) 0.5044(3)
H15 H 1.2737 0.7678 0.5861
C17 C 1.0031(3) 0.7978(3) 0.5110(3)
H16 H 1.0086 0.8529 0.5968
N1 N 0.7787(3) 0.5950(2) 0.6380(2)
H17 H 0.874(4) 0.563(3) 0.716(4)
O1 O 0.5548(2) 0.53413(17) 0.4090(2)
loop_
_geom_bond_atom_site_label_1
_geom_bond_atom_site_label_2
_geom_bond_site_symmetry_1
_geom_bond_site_symmetry_2
C1 C2 1_555 1_555
C2 H1 1_555 1_555
H2 C2 1_555 1_555
C3 C2 1_555 1_555
H3 C3 1_555 1_555
H4 C3 1_555 1_555
H5 C3 1_555 1_555
C4 C5 1_555 1_555
C5 H6 1_555 1_555
C6 C5 1_555 1_555
H7 C6 1_555 1_555
C7 C6 1_555 1_555
H8 C7 1_555 1_555
C8 C7 1_555 1_555
H9 C8 1_555 1_555
C9 C4 1_555 1_555
C10 C9 1_555 1_555
C11 C10 1_555 1_555
H10 C11 1_555 1_555
H11 C11 1_555 1_555
C12 C10 1_555 1_555
C13 C12 1_555 1_555
H12 C13 1_555 1_555
C14 C13 1_555 1_555
H13 C14 1_555 1_555
C15 C14 1_555 1_555
H14 C15 1_555 1_555
C16 C15 1_555 1_555
H15 C16 1_555 1_555
C17 C12 1_555 1_555
H16 C17 1_555 1_555
N1 C1 1_555 1_555
H17 N1 1_555 1_555
O1 C1 1_555 1_555
C4 N1 1_555 1_555
C8 C9 1_555 1_555
C16 C17 1_555 1_555

#END
