
#######################################################################
#
#                 Cambridge Crystallographic Data Centre
#                                CCDC 
#
#######################################################################
#
# If this CIF has been generated from an entry in the Cambridge 
# Structural Database, then it will include bibliographic, chemical, 
# crystal, experimental, refinement or atomic coordinate data resulting 
# from the CCDC's data processing and validation procedures.
#
#######################################################################

data_VINCEC
_chemical_formula_moiety         '2(C8 H20 N1 1+),C8 H4 S4 2-'
_chemical_name_systematic        
'bis(Tetraethylammonium) benzene-1,4-dicarbodithioate'
_symmetry_cell_setting           monoclinic
_symmetry_space_group_name_H-M   'P 21/n'
_symmetry_Int_Tables_number      14
_space_group_name_Hall           '-P 2yn'
loop_
_symmetry_equiv_pos_site_id
_symmetry_equiv_pos_as_xyz
1 x,y,z
2 1/2-x,1/2+y,1/2-z
3 -x,-y,-z
4 1/2+x,1/2-y,1/2+z
_cell_length_a                   7.0882(4)
_cell_length_b                   16.6033(10)
_cell_length_c                   11.3347(7)
_cell_angle_alpha                90
_cell_angle_beta                 92.6350(10)
_cell_angle_gamma                90
_cell_volume                     1332.54
_exptl_crystal_colour            red
_exptl_crystal_description       Needle
_cell_formula_units_Z            2
loop_
_atom_site_label
_atom_site_type_symbol
_atom_site_fract_x
_atom_site_fract_y
_atom_site_fract_z
C1 C 0.63540(16) 0.96077(7) 0.43678(10)
C2 C 0.31034(16) 0.99261(7) 0.46572(10)
H1 H 0.729(2) 0.9349(9) 0.3937(13)
H2 H 0.181(2) 0.9875(9) 0.4422(13)
S1 S 0.21954(4) 0.935222(18) 0.20063(3)
S2 S 0.49366(4) 0.810060(16) 0.28982(2)
C3 C 0.38721(15) 0.90070(7) 0.29774(10)
C4 C 0.44516(16) 0.95253(6) 0.40107(9)
C1B C 0.36460(16) 1.03923(7) 0.56322(10)
C2B C 0.68966(16) 1.00739(7) 0.53428(10)
H1B H 0.271(2) 1.0651(9) 0.6063(13)
H2B H 0.819(2) 1.0125(9) 0.5578(13)
S1B S 0.78046(4) 1.064778(18) 0.79937(3)
S2B S 0.50634(4) 1.189940(16) 0.71018(2)
C3B C 0.61279(15) 1.09930(7) 0.70226(10)
C4B C 0.55484(16) 1.04747(6) 0.59893(9)
C5 C 0.04137(17) 0.80538(7) 0.49775(11)
H3 H -0.0176 0.8367 0.5570
H4 H 0.0502 0.8370 0.4273
H5 H 0.1657 0.7898 0.5262
C6 C 0.24098(17) 0.61414(8) 0.52818(11)
H6 H 0.3726 0.6016 0.5403
H7 H 0.1680 0.5656 0.5318
H8 H 0.2037 0.6507 0.5885
C7 C -0.31450(17) 0.60907(8) 0.32347(12)
H9 H -0.3766 0.5577 0.3225
H10 H -0.3153 0.6304 0.2447
H11 H -0.3797 0.6454 0.3733
C8 C 0.05203(17) 0.67256(8) 0.15511(10)
H12 H 0.0429 0.7055 0.0855
H13 H -0.0311 0.6272 0.1452
H14 H 0.1796 0.6539 0.1677
N1 N 0.00365(13) 0.67602(6) 0.37727(8)
C9 C -0.11263(16) 0.59920(7) 0.37061(10)
H15 H -0.0500 0.5610 0.3208
H16 H -0.1142 0.5761 0.4491
C10 C -0.00369(16) 0.72156(7) 0.26068(10)
H17 H -0.1311 0.7415 0.2455
H18 H 0.0794 0.7679 0.2685
C11 C -0.07569(16) 0.73073(7) 0.47047(10)
H19 H -0.2019 0.7473 0.4440
H20 H -0.0865 0.7001 0.5427
C12 C 0.20732(15) 0.65296(7) 0.40818(10)
H21 H 0.2494 0.6161 0.3484
H22 H 0.2847 0.7010 0.4050
loop_
_geom_bond_atom_site_label_1
_geom_bond_atom_site_label_2
_geom_bond_site_symmetry_1
_geom_bond_site_symmetry_2
C1 H1 1_555 1_555
C2 H2 1_555 1_555
S1 C3 1_555 1_555
S2 C3 1_555 1_555
C3 C4 1_555 1_555
C4 C1 1_555 1_555
C5 H3 1_555 1_555
H4 C5 1_555 1_555
H5 C5 1_555 1_555
C6 H6 1_555 1_555
H7 C6 1_555 1_555
H8 C6 1_555 1_555
C7 H9 1_555 1_555
H10 C7 1_555 1_555
H11 C7 1_555 1_555
C8 H12 1_555 1_555
H13 C8 1_555 1_555
H14 C8 1_555 1_555
N1 C9 1_555 1_555
C9 C7 1_555 1_555
H15 C9 1_555 1_555
H16 C9 1_555 1_555
C10 C8 1_555 1_555
H17 C10 1_555 1_555
H18 C10 1_555 1_555
C11 C5 1_555 1_555
H19 C11 1_555 1_555
H20 C11 1_555 1_555
C12 C6 1_555 1_555
H21 C12 1_555 1_555
H22 C12 1_555 1_555
C1B C2 1_555 1_555
C2B C1 1_555 1_555
H1B C1B 1_555 1_555
H2B C2B 1_555 1_555
S1B C3B 1_555 1_555
S2B C3B 1_555 1_555
C3B C4B 1_555 1_555
C4B C1B 1_555 1_555
C2 C4 1_555 1_555
N1 C10 1_555 1_555
N1 C11 1_555 1_555
N1 C12 1_555 1_555
C2B C4B 1_555 1_555

#END
