
#######################################################################
#
#                 Cambridge Crystallographic Data Centre
#                                CCDC 
#
#######################################################################
#
# If this CIF has been generated from an entry in the Cambridge 
# Structural Database, then it will include bibliographic, chemical, 
# crystal, experimental, refinement or atomic coordinate data resulting 
# from the CCDC's data processing and validation procedures.
#
#######################################################################

data_VINCIG
_chemical_formula_moiety         '2(C24 H20 P1 1+),C8 H4 S4 2-,2(C2 H6 O1)'
_chemical_name_systematic        
'bis(Tetraphenylphosphonium) benzene-1,4-dicarbodithioate ethanol solvate'
_symmetry_cell_setting           monoclinic
_symmetry_space_group_name_H-M   'P 21/n'
_symmetry_Int_Tables_number      14
_space_group_name_Hall           '-P 2yn'
loop_
_symmetry_equiv_pos_site_id
_symmetry_equiv_pos_as_xyz
1 x,y,z
2 1/2-x,1/2+y,1/2-z
3 -x,-y,-z
4 1/2+x,1/2-y,1/2+z
_cell_length_a                   12.6773(9)
_cell_length_b                   15.9314(11)
_cell_length_c                   14.2253(10)
_cell_angle_alpha                90
_cell_angle_beta                 112.8920(10)
_cell_angle_gamma                90
_cell_volume                     2646.76
_exptl_crystal_colour            brown
_exptl_crystal_description       Blade
_cell_formula_units_Z            2
loop_
_atom_site_label
_atom_site_type_symbol
_atom_site_fract_x
_atom_site_fract_y
_atom_site_fract_z
C1 C 0.4500(4) 0.0007(5) 0.3923(5)
C2 C 0.3998(5) 0.0014(4) 0.2781(5)
C3 C 0.4665(6) 0.0741(4) 0.4493(7)
H1 H 0.4438 0.1252 0.4157
C4 C 0.4848(6) -0.0728(4) 0.4469(7)
H2 H 0.4746 -0.1232 0.4115
S1 S 0.32951(18) 0.08356(13) 0.22020(16)
S2 S 0.4130(2) -0.08362(14) 0.21630(16)
C1B C 0.5500(4) -0.0007(5) 0.6077(5)
C2B C 0.6002(5) -0.0014(4) 0.7219(5)
C3B C 0.5335(6) -0.0741(4) 0.5507(7)
H1B H 0.5562 -0.1252 0.5843
C4B C 0.5152(6) 0.0728(4) 0.5531(7)
H2B H 0.5254 0.1232 0.5885
S1B S 0.67049(18) -0.08356(13) 0.77980(16)
S2B S 0.5870(2) 0.08362(14) 0.78370(16)
O1 O 0.3087(9) 0.0302(7) 0.9839(6)
C5 C 0.3448(18) 0.1033(10) 0.9693(9)
H3 H 0.3012 0.1434 0.9911
H4 H 0.4229 0.1069 1.0192
C6 C 0.3478(12) 0.1343(8) 0.8874(12)
H5 H 0.3775 0.1905 0.9004
H6 H 0.2719 0.1353 0.8353
H7 H 0.3964 0.1005 0.8652
H8 H 0.325(11) 0.007(7) 1.053(4)
P1 P 0.00455(11) 0.07939(8) 0.29559(10)
C7 C -0.0406(5) -0.0869(4) 0.3255(4)
H9 H -0.1028 -0.0673 0.3383
C8 C -0.1315(4) 0.0992(3) 0.3033(4)
C9 C 0.1106(4) 0.1303(3) 0.4014(4)
C10 C 0.0063(4) 0.1154(3) 0.1768(4)
C11 C -0.2323(6) 0.0853(4) 0.2221(5)
H10 H -0.2315 0.0678 0.1600
C12 C 0.1909(5) 0.0844(4) 0.4797(5)
H11 H 0.1929 0.0263 0.4749
C13 C 0.1215(5) -0.0614(4) 0.2833(4)
H12 H 0.1687 -0.0244 0.2671
C14 C -0.0639(5) 0.0761(4) 0.0886(5)
H13 H -0.1103 0.0320 0.0918
C15 C 0.1091(5) 0.2168(4) 0.4103(5)
H14 H 0.0548 0.2482 0.3590
C16 C -0.3385(6) 0.1226(4) 0.3213(7)
H15 H -0.4085 0.1309 0.3269
C17 C 0.1430(5) -0.1458(5) 0.2879(4)
H16 H 0.2056 -0.1659 0.2760
C18 C 0.2680(5) 0.1249(5) 0.5647(5)
H17 H 0.3209 0.0941 0.6176
C19 C 0.0297(4) -0.0309(3) 0.3026(3)
C20 C -0.0659(6) 0.1017(5) -0.0044(5)
H18 H -0.1162 0.0766 -0.0639
C21 C 0.1875(6) 0.2570(4) 0.4946(6)
H19 H 0.1870 0.3152 0.4998
C22 C 0.2659(5) 0.2101(6) 0.5706(5)
H20 H 0.3188 0.2371 0.6273
C23 C -0.2396(7) 0.1359(4) 0.4028(6)
H21 H -0.2415 0.1531 0.4646
C24 C -0.1360(5) 0.1240(4) 0.3944(5)
H22 H -0.0684 0.1327 0.4509
C25 C 0.0765(5) 0.1793(4) 0.1713(5)
H23 H 0.1246 0.2064 0.2303
C26 C -0.3353(5) 0.0971(4) 0.2319(6)
H24 H -0.4034 0.0875 0.1762
C27 C 0.0746(6) 0.2027(4) 0.0766(6)
H25 H 0.1219 0.2460 0.0727
C28 C 0.0058(7) 0.1640(5) -0.0094(6)
H26 H 0.0070 0.1796 -0.0720
C29 C -0.0181(6) -0.1714(4) 0.3291(4)
H27 H -0.0653 -0.2088 0.3448
C30 C 0.0724(7) -0.2012(4) 0.3102(4)
H28 H 0.0865 -0.2586 0.3123
loop_
_geom_bond_atom_site_label_1
_geom_bond_atom_site_label_2
_geom_bond_site_symmetry_1
_geom_bond_site_symmetry_2
C1 C2 1_555 1_555
C2 S1 1_555 1_555
C3 C1 1_555 1_555
H1 C3 1_555 1_555
C4 C1 1_555 1_555
H2 C4 1_555 1_555
S2 C2 1_555 1_555
O1 C5 1_555 1_555
C5 H3 1_555 1_555
H4 C5 1_555 1_555
C6 C5 1_555 1_555
H5 C6 1_555 1_555
H6 C6 1_555 1_555
H7 C6 1_555 1_555
H8 O1 1_555 1_555
P1 C8 1_555 1_555
C7 H9 1_555 1_555
C8 C11 1_555 1_555
C9 P1 1_555 1_555
C10 P1 1_555 1_555
C11 H10 1_555 1_555
C12 C9 1_555 1_555
H11 C12 1_555 1_555
C13 H12 1_555 1_555
C14 C10 1_555 1_555
H13 C14 1_555 1_555
C15 C9 1_555 1_555
H14 C15 1_555 1_555
C16 H15 1_555 1_555
C17 C13 1_555 1_555
H16 C17 1_555 1_555
C18 C12 1_555 1_555
H17 C18 1_555 1_555
C19 P1 1_555 1_555
C20 C14 1_555 1_555
H18 C20 1_555 1_555
C21 C15 1_555 1_555
H19 C21 1_555 1_555
C22 C18 1_555 1_555
H20 C22 1_555 1_555
C23 C16 1_555 1_555
H21 C23 1_555 1_555
C24 C8 1_555 1_555
H22 C24 1_555 1_555
C25 C10 1_555 1_555
H23 C25 1_555 1_555
C26 C11 1_555 1_555
H24 C26 1_555 1_555
C27 C25 1_555 1_555
H25 C27 1_555 1_555
C28 C20 1_555 1_555
H26 C28 1_555 1_555
C29 C7 1_555 1_555
H27 C29 1_555 1_555
C30 C17 1_555 1_555
H28 C30 1_555 1_555
C1B C2B 1_555 1_555
C2B S1B 1_555 1_555
C3B C4 1_555 1_555
H1B C3B 1_555 1_555
C4B C3 1_555 1_555
H2B C4B 1_555 1_555
S2B C2B 1_555 1_555
C7 C19 1_555 1_555
C13 C19 1_555 1_555
C16 C26 1_555 1_555
C21 C22 1_555 1_555
C23 C24 1_555 1_555
C27 C28 1_555 1_555
C29 C30 1_555 1_555
C1B C3B 1_555 1_555
C1B C4B 1_555 1_555

#END
