
#######################################################################
#
#                 Cambridge Crystallographic Data Centre
#                                CCDC 
#
#######################################################################
#
# If this CIF has been generated from an entry in the Cambridge 
# Structural Database, then it will include bibliographic, chemical, 
# crystal, experimental, refinement or atomic coordinate data resulting 
# from the CCDC's data processing and validation procedures.
#
#######################################################################

data_VINFEF
_chemical_formula_moiety         'H12 Mg1 O6 2+,2(C6 H2 N3 O7 1-),2(C2 H4 N4)'
_chemical_name_systematic        
'hexa-aqua-magnesium bis(2,4,6-trinitrophenolate) 4H-1,2,4-triazol-4-amine solvate'
_symmetry_cell_setting           triclinic
_symmetry_space_group_name_H-M   'P -1'
_symmetry_Int_Tables_number      2
_space_group_name_Hall           '-P 1'
loop_
_symmetry_equiv_pos_site_id
_symmetry_equiv_pos_as_xyz
1 x,y,z
2 -x,-y,-z
_cell_length_a                   6.980(4)
_cell_length_b                   7.047(4)
_cell_length_c                   15.603(10)
_cell_angle_alpha                83.84(2)
_cell_angle_beta                 81.993(13)
_cell_angle_gamma                82.659(17)
_cell_volume                     750.633
_exptl_crystal_colour            yellow
_exptl_crystal_description       Platelet
_cell_formula_units_Z            1
loop_
_atom_site_label
_atom_site_type_symbol
_atom_site_fract_x
_atom_site_fract_y
_atom_site_fract_z
Mg1 Mg 0.5000 0.5000 1.0000
O1 O 0.29461(16) 0.41397(15) 0.92742(6)
O2 O 0.42237(15) 0.78576(13) 0.95678(6)
O3 O 0.71226(16) 0.48343(15) 0.89521(6)
H1 H 0.353(2) 0.8744(19) 0.9847(9)
H2 H 0.330(3) 0.3136(16) 0.9008(11)
H3 H 0.709(3) 0.5621(19) 0.8507(9)
H4 H 0.488(2) 0.840(2) 0.9136(8)
H5 H 0.767(3) 0.3745(15) 0.8805(11)
H6 H 0.258(3) 0.5027(18) 0.8895(10)
O1A O 0.70539(16) 0.58603(15) 1.07258(6)
O2A O 0.57763(15) 0.21424(13) 1.04322(6)
O3A O 0.28774(16) 0.51657(15) 1.10479(6)
H1A H 0.647(2) 0.1256(19) 1.0153(9)
H2A H 0.670(3) 0.6864(16) 1.0992(11)
H3A H 0.291(3) 0.4379(19) 1.1493(9)
H4A H 0.512(2) 0.160(2) 1.0864(8)
H5A H 0.233(3) 0.6255(15) 1.1195(11)
H6A H 0.742(3) 0.4973(18) 1.1105(10)
O4 O 0.63243(15) -0.21715(14) 0.77717(6)
O5 O 0.41385(16) 0.11086(14) 0.80939(6)
O6 O 0.49221(19) 0.35949(15) 0.72488(7)
O7 O 0.6839(2) 0.2905(2) 0.42291(7)
O8 O 0.82250(19) 0.0166(2) 0.38148(7)
O9 O 0.87247(18) -0.53988(16) 0.58590(7)
O10 O 0.92958(17) -0.48225(15) 0.71319(7)
N1 N 0.49540(18) 0.18487(17) 0.74070(7)
N2 N 0.7430(2) 0.1206(2) 0.43828(8)
N3 N 0.86281(19) -0.43335(17) 0.64440(8)
C1 C 0.6654(2) -0.13796(19) 0.70200(8)
C2 C 0.5984(2) 0.0609(2) 0.67601(8)
C3 C 0.6250(2) 0.1446(2) 0.59200(9)
H7 H 0.5794 0.2760 0.5788
C4 C 0.7193(2) 0.0346(2) 0.52714(9)
C5 C 0.7932(2) -0.1554(2) 0.54491(9)
H8 H 0.8575 -0.2287 0.4994
C6 C 0.7721(2) -0.2358(2) 0.62906(9)
N4 N -0.13985(18) 1.12181(16) 0.86009(8)
N5 N -0.17627(18) 0.98922(16) 0.93147(7)
N6 N 0.05213(16) 0.85774(15) 0.83900(7)
N7 N 0.19656(19) 0.71689(18) 0.80441(8)
C7 C -0.0032(2) 1.03904(19) 0.80630(9)
H9 H 0.0500 1.0975 0.7520
C8 C -0.0590(2) 0.83300(19) 0.91662(8)
H10 H -0.0527 0.7186 0.9548
H11 H 0.310(3) 0.768(3) 0.7946(11)
H12 H 0.158(3) 0.687(3) 0.7553(12)
loop_
_geom_bond_atom_site_label_1
_geom_bond_atom_site_label_2
_geom_bond_site_symmetry_1
_geom_bond_site_symmetry_2
Mg1 O1 1_555 1_555
O1 H2 1_555 1_555
O2 Mg1 1_555 1_555
O3 Mg1 1_555 1_555
H1 O2 1_555 1_555
H3 O3 1_555 1_555
H4 O2 1_555 1_555
H5 O3 1_555 1_555
H6 O1 1_555 1_555
O4 C1 1_555 1_555
O5 N1 1_555 1_555
O6 N1 1_555 1_555
O7 N2 1_555 1_555
O8 N2 1_555 1_555
O9 N3 1_555 1_555
O10 N3 1_555 1_555
N1 C2 1_555 1_555
N2 C4 1_555 1_555
N3 C6 1_555 1_555
C1 C2 1_555 1_555
C2 C3 1_555 1_555
C3 H7 1_555 1_555
C4 C3 1_555 1_555
C5 C4 1_555 1_555
H8 C5 1_555 1_555
C6 C1 1_555 1_555
N4 N5 1_555 1_555
N5 C8 1_555 1_555
N6 N7 1_555 1_555
N7 H11 1_555 1_555
C7 N4 1_555 1_555
H9 C7 1_555 1_555
C8 N6 1_555 1_555
H10 C8 1_555 1_555
H12 N7 1_555 1_555
O1A Mg1 1_555 1_555
O2A Mg1 1_555 1_555
O3A Mg1 1_555 1_555
H1A O2A 1_555 1_555
H2A O1A 1_555 1_555
H3A O3A 1_555 1_555
H4A O2A 1_555 1_555
H5A O3A 1_555 1_555
H6A O1A 1_555 1_555
C5 C6 1_555 1_555
N6 C7 1_555 1_555

#END
