
#######################################################################
#
#                 Cambridge Crystallographic Data Centre
#                                CCDC 
#
#######################################################################
#
# If this CIF has been generated from an entry in the Cambridge 
# Structural Database, then it will include bibliographic, chemical, 
# crystal, experimental, refinement or atomic coordinate data resulting 
# from the CCDC's data processing and validation procedures.
#
#######################################################################

data_VINTOB
_chemical_formula_moiety         'C20 H26 S2'
_chemical_name_systematic        2,15-Dithia(3.3)(1,3)adamantanoparacyclophane
_symmetry_cell_setting           monoclinic
_symmetry_space_group_name_H-M   'P 21'
_symmetry_Int_Tables_number      4
_space_group_name_Hall           'P 2yb'
loop_
_symmetry_equiv_pos_site_id
_symmetry_equiv_pos_as_xyz
1 x,y,z
2 -x,1/2+y,-z
_cell_length_a                   9.376(1)
_cell_length_b                   16.871(1)
_cell_length_c                   10.883(1)
_cell_angle_alpha                90
_cell_angle_beta                 91.26(1)
_cell_angle_gamma                90
_cell_volume                     1721.08
_chemical_melting_point          176-177.5deg.C
_cell_formula_units_Z            4
loop_
_atom_site_label
_atom_site_type_symbol
_atom_site_fract_x
_atom_site_fract_y
_atom_site_fract_z
S1 S 1.4310(1) 0.733 0.5181(1)
S2 S 0.83525(8) 0.54056(7) 0.46497(8)
C1 C 1.2967(4) 0.8119(2) 0.5235(4)
C2 C 1.3707(4) 0.6635(2) 0.6347(3)
C3 C 1.3215(3) 0.5811(2) 0.5917(3)
C4 C 1.2917(3) 0.5331(2) 0.7082(3)
C5 C 1.2428(4) 0.4500(2) 0.6735(3)
C6 C 1.1062(3) 0.4543(2) 0.5956(3)
C7 C 1.1334(3) 0.5015(2) 0.4778(3)
C8 C 1.2500(3) 0.4590(2) 0.4062(3)
C9 C 1.3871(3) 0.4545(2) 0.4848(3)
C10 C 1.4371(3) 0.5383(3) 0.5192(3)
C11 C 1.1854(3) 0.5842(2) 0.5125(3)
C12 C 1.3584(4) 0.4077(2) 0.6018(3)
C13 C 0.9988(3) 0.5065(2) 0.3940(3)
C14 C 0.7948(3) 0.6354(2) 0.3897(3)
C15 C 0.9067(3) 0.6974(2) 0.4176(3)
C16 C 0.9249(3) 0.7279(2) 0.5366(3)
C17 C 1.0462(4) 0.7695(2) 0.5684(3)
C18 C 1.1526(4) 0.7831(2) 0.4835(3)
C19 C 1.1231(4) 0.7615(2) 0.3628(3)
C20 C 1.0033(3) 0.7190(2) 0.3292(3)
H1 H 1.213(4) 0.423(3) 0.753(3)
H2 H 1.462(4) 0.431(3) 0.434(3)
H3 H 1.299(4) 0.831(3) 0.614(4)
H4 H 1.325(4) 0.855(3) 0.458(4)
H5 H 0.852(4) 0.709(3) 0.604(3)
H6 H 1.053(4) 0.793(3) 0.651(4)
H7 H 1.197(4) 0.772(2) 0.313(4)
H8 H 0.988(4) 0.699(3) 0.234(3)
H9 H 1.449(4) 0.661(3) 0.684(4)
H10 H 1.293(4) 0.699(3) 0.672(3)
H11 H 1.379(4) 0.533(3) 0.765(3)
H12 H 1.219(4) 0.562(3) 0.754(3)
H13 H 1.070(4) 0.399(3) 0.577(3)
H14 H 1.037(4) 0.483(3) 0.644(4)
H15 H 1.258(4) 0.495(2) 0.321(4)
H16 H 1.210(4) 0.402(3) 0.381(3)
H17 H 1.456(4) 0.571(2) 0.435(3)
H18 H 1.540(4) 0.532(3) 0.570(3)
H19 H 1.097(4) 0.617(3) 0.563(3)
H20 H 1.199(4) 0.622(3) 0.431(3)
H21 H 1.320(4) 0.344(3) 0.578(3)
H22 H 1.450(4) 0.407(3) 0.646(3)
H23 H 0.977(4) 0.456(3) 0.359(4)
H24 H 1.014(4) 0.543(3) 0.324(4)
H25 H 0.789(4) 0.623(3) 0.284(4)
H26 H 0.703(4) 0.649(3) 0.430(3)
S3 S 0.66176(9) 0.03654(7) 0.92994(8)
S4 S 0.0662(1) 0.20950(8) 1.0576(1)
C21 C 0.6882(4) 0.1378(3) 0.8723(3)
C22 C 0.4928(3) 0.0061(2) 0.8586(3)
C23 C 0.3681(3) -0.0085(2) 0.9468(3)
C24 C 0.2438(4) -0.0444(2) 0.8728(3)
C25 C 0.1168(4) -0.0593(2) 0.9558(3)
C26 C 0.0685(3) 0.0192(2) 1.0131(3)
C27 C 0.1917(3) 0.0553(2) 1.0886(3)
C28 C 0.2392(4) -0.0038(2) 1.1882(3)
C29 C 0.2856(4) -0.0819(2) 1.1319(3)
C30 C 0.4117(3) -0.0671(2) 1.0483(3)
C31 C 0.3182(3) 0.0686(2) 1.0037(3)
C32 C 0.1622(4) -0.1170(2) 1.0578(4)
C33 C 0.1475(4) 0.1319(3) 1.1541(4)
C34 C 0.1966(5) 0.2911(3) 1.0674(5)
C35 C 0.3380(4) 0.2690(2) 1.0131(4)
C36 C 0.4546(4) 0.2491(2) 1.0886(3)
C37 C 0.5728(4) 0.2133(2) 1.0420(3)
C38 C 0.5787(4) 0.1933(2) 0.9170(3)
C39 C 0.4698(4) 0.2220(2) 0.8395(3)
C40 C 0.3520(4) 0.2577(2) 0.8859(4)
H27 H 0.028(4) -0.087(3) 0.898(3)
H28 H 0.321(4) -0.119(2) 1.204(4)
H29 H 0.789(4) 0.150(3) 0.903(3)
H30 H 0.693(4) 0.128(3) 0.775(4)
H31 H 0.452(4) 0.270(2) 1.168(4)
H32 H 0.657(4) 0.194(3) 1.099(4)
H33 H 0.471(4) 0.214(3) 0.744(3)
H34 H 0.260(4) 0.270(2) 0.838(4)
H35 H 0.456(4) 0.050(3) 0.806(4)
H36 H 0.513(4) -0.042(3) 0.817(4)
H37 H 0.222(4) -0.004(2) 0.806(4)
H38 H 0.282(4) -0.096(3) 0.841(4)
H39 H 0.043(4) 0.057(3) 0.949(3)
H40 H -0.016(4) 0.010(2) 1.062(3)
H41 H 0.147(4) -0.003(2) 1.246(4)
H42 H 0.328(4) 0.018(3) 1.234(4)
H43 H 0.441(4) -0.118(3) 1.010(4)
H44 H 0.500(4) -0.045(3) 1.097(4)
H45 H 0.406(4) 0.094(3) 1.053(4)
H46 H 0.293(4) 0.108(3) 0.938(3)
H47 H 0.192(4) -0.173(3) 1.029(4)
H48 H 0.080(4) -0.117(2) 1.120(3)
H49 H 0.241(4) 0.161(3) 1.197(4)
H50 H 0.083(4) 0.121(3) 1.212(3)
H51 H 0.164(4) 0.334(3) 1.034(4)
H52 H 0.210(4) 0.306(3) 1.166(4)
loop_
_geom_bond_atom_site_label_1
_geom_bond_atom_site_label_2
_geom_bond_site_symmetry_1
_geom_bond_site_symmetry_2
S1 C1 1_555 1_555
S2 C13 1_555 1_555
C1 C18 1_555 1_555
C2 S1 1_555 1_555
C3 C2 1_555 1_555
C4 C3 1_555 1_555
C5 C4 1_555 1_555
C6 C5 1_555 1_555
C7 C6 1_555 1_555
C8 C7 1_555 1_555
C9 C8 1_555 1_555
C10 C3 1_555 1_555
C11 C3 1_555 1_555
C12 C5 1_555 1_555
C13 C7 1_555 1_555
C14 S2 1_555 1_555
C15 C14 1_555 1_555
C16 C15 1_555 1_555
C17 C16 1_555 1_555
C18 C17 1_555 1_555
C19 C18 1_555 1_555
C20 C15 1_555 1_555
H1 C5 1_555 1_555
H2 C9 1_555 1_555
H3 C1 1_555 1_555
H4 C1 1_555 1_555
H5 C16 1_555 1_555
H6 C17 1_555 1_555
H7 C19 1_555 1_555
H8 C20 1_555 1_555
H9 C2 1_555 1_555
H10 C2 1_555 1_555
H11 C4 1_555 1_555
H12 C4 1_555 1_555
H13 C6 1_555 1_555
H14 C6 1_555 1_555
H15 C8 1_555 1_555
H16 C8 1_555 1_555
H17 C10 1_555 1_555
H18 C10 1_555 1_555
H19 C11 1_555 1_555
H20 C11 1_555 1_555
H21 C12 1_555 1_555
H22 C12 1_555 1_555
H23 C13 1_555 1_555
H24 C13 1_555 1_555
H25 C14 1_555 1_555
H26 C14 1_555 1_555
S3 C21 1_555 1_555
S4 C33 1_555 1_555
C21 C38 1_555 1_555
C22 S3 1_555 1_555
C23 C22 1_555 1_555
C24 C23 1_555 1_555
C25 C24 1_555 1_555
C26 C25 1_555 1_555
C27 C26 1_555 1_555
C28 C27 1_555 1_555
C29 C28 1_555 1_555
C30 C23 1_555 1_555
C31 C23 1_555 1_555
C32 C25 1_555 1_555
C33 C27 1_555 1_555
C34 S4 1_555 1_555
C35 C34 1_555 1_555
C36 C35 1_555 1_555
C37 C36 1_555 1_555
C38 C37 1_555 1_555
C39 C38 1_555 1_555
C40 C35 1_555 1_555
H27 C25 1_555 1_555
H28 C29 1_555 1_555
H29 C21 1_555 1_555
H30 C21 1_555 1_555
H31 C36 1_555 1_555
H32 C37 1_555 1_555
H33 C39 1_555 1_555
H34 C40 1_555 1_555
H35 C22 1_555 1_555
H36 C22 1_555 1_555
H37 C24 1_555 1_555
H38 C24 1_555 1_555
H39 C26 1_555 1_555
H40 C26 1_555 1_555
H41 C28 1_555 1_555
H42 C28 1_555 1_555
H43 C30 1_555 1_555
H44 C30 1_555 1_555
H45 C31 1_555 1_555
H46 C31 1_555 1_555
H47 C32 1_555 1_555
H48 C32 1_555 1_555
H49 C33 1_555 1_555
H50 C33 1_555 1_555
H51 C34 1_555 1_555
H52 C34 1_555 1_555
C7 C11 1_555 1_555
C9 C10 1_555 1_555
C9 C12 1_555 1_555
C19 C20 1_555 1_555
C27 C31 1_555 1_555
C29 C30 1_555 1_555
C29 C32 1_555 1_555
C39 C40 1_555 1_555

#END
