
#######################################################################
#
#                 Cambridge Crystallographic Data Centre
#                                CCDC 
#
#######################################################################
#
# If this CIF has been generated from an entry in the Cambridge 
# Structural Database, then it will include bibliographic, chemical, 
# crystal, experimental, refinement or atomic coordinate data resulting 
# from the CCDC's data processing and validation procedures.
#
#######################################################################

data_VIPDIJ
_chemical_formula_moiety         'C21 H22 Br1 N3 O3'
_chemical_name_systematic        
'Ethyl 4-(4-bromophenyl)-8-oxo-1-phenylhexahydro-6H-pyrazolo[1,2-a][1,2,4]triazine-3-carboxylate'
_symmetry_cell_setting           monoclinic
_symmetry_space_group_name_H-M   'C 2'
_symmetry_Int_Tables_number      5
_space_group_name_Hall           'C 2y'
loop_
_symmetry_equiv_pos_site_id
_symmetry_equiv_pos_as_xyz
1 x,y,z
2 -x,y,-z
3 1/2+x,1/2+y,z
4 1/2-x,1/2+y,-z
_cell_length_a                   39.744(8)
_cell_length_b                   5.5407(11)
_cell_length_c                   19.585(4)
_cell_angle_alpha                90
_cell_angle_beta                 112.15(3)
_cell_angle_gamma                90
_cell_volume                     3994.52
_exptl_crystal_colour            colorless
_exptl_crystal_description       needle
_cell_formula_units_Z            8
loop_
_atom_site_label
_atom_site_type_symbol
_atom_site_fract_x
_atom_site_fract_y
_atom_site_fract_z
Br1 Br 0.569649(19) 0.66529(14) 0.93886(4)
O1 O 0.73726(12) 0.6123(8) 0.6602(2)
O2 O 0.57562(14) 0.0593(9) 0.6113(3)
O3 O 0.54414(12) 0.4062(9) 0.5948(3)
N1 N 0.68115(12) 0.5118(10) 0.6638(3)
N2 N 0.66161(14) 0.5965(9) 0.7092(3)
N3 N 0.62556(13) 0.3535(11) 0.5736(3)
H1 H 0.6176 0.2338 0.5420
C1 C 0.71567(17) 0.6106(11) 0.6914(3)
C2 C 0.72240(17) 0.7119(13) 0.7673(3)
H2 H 0.7215 0.8905 0.7667
H3 H 0.7460 0.6575 0.8039
C3 C 0.69073(17) 0.6041(12) 0.7825(3)
H4 H 0.6966 0.4402 0.8038
H5 H 0.6839 0.7073 0.8165
C4 C 0.63241(16) 0.4244(12) 0.7025(3)
H6 H 0.6431 0.2586 0.7126
C5 C 0.60715(17) 0.4384(12) 0.6215(3)
H7 H 0.5988 0.6086 0.6085
C6 C 0.65857(16) 0.4899(12) 0.5841(3)
H8 H 0.6520 0.6544 0.5622
C7 C 0.67907(16) 0.3540(13) 0.5442(3)
C8 C 0.69664(17) 0.1395(13) 0.5721(3)
H9 H 0.6968 0.0802 0.6177
C9 C 0.71388(17) 0.0105(12) 0.5346(3)
H10 H 0.7257 -0.1373 0.5542
C10 C 0.71391(17) 0.0985(12) 0.4673(3)
H11 H 0.7260 0.0116 0.4414
C11 C 0.69659(16) 0.3086(14) 0.4396(3)
H12 H 0.6966 0.3671 0.3940
C12 C 0.67879(17) 0.4405(13) 0.4766(3)
H13 H 0.6667 0.5868 0.4563
C13 C 0.57445(18) 0.2742(12) 0.6076(3)
C14 C 0.51200(19) 0.2745(17) 0.5930(4)
H14 H 0.5121 0.1101 0.5733
H15 H 0.4898 0.3586 0.5602
C15 C 0.5119(2) 0.2588(18) 0.6691(5)
H16 H 0.4882 0.2000 0.6666
H17 H 0.5165 0.4191 0.6920
H18 H 0.5309 0.1472 0.6987
C16 C 0.61536(17) 0.4792(12) 0.7574(3)
C17 C 0.59593(18) 0.6896(13) 0.7533(3)
H19 H 0.5924 0.8000 0.7141
C18 C 0.5814(2) 0.7405(12) 0.8069(4)
H20 H 0.5673 0.8822 0.8031
C19 C 0.58764(18) 0.5837(12) 0.8650(4)
C20 C 0.60753(18) 0.3731(12) 0.8706(3)
H21 H 0.6117 0.2656 0.9107
C21 C 0.62109(17) 0.3228(14) 0.8169(3)
H22 H 0.6346 0.1788 0.8203
Br2 Br 0.56460(2) 0.83062(15) 1.45181(4)
O4 O 0.72940(12) 0.7398(8) 1.1712(2)
O5 O 0.55256(15) 0.9566(13) 1.0532(3)
O6 O 0.55011(15) 1.2434(11) 1.1308(3)
N4 N 0.67420(13) 0.8655(10) 1.1726(3)
N5 N 0.65994(14) 0.8917(10) 1.2306(3)
N6 N 0.62489(15) 1.1034(10) 1.0892(3)
H23 H 0.6126 1.1174 1.0414
C22 C 0.70748(18) 0.7521(11) 1.2008(4)
C23 C 0.71170(16) 0.6460(13) 1.2754(3)
H24 H 0.7183 0.4728 1.2783
H25 H 0.7305 0.7336 1.3161
C24 C 0.67465(17) 0.6804(13) 1.2779(3)
H26 H 0.6592 0.5366 1.2585
H27 H 0.6764 0.7114 1.3289
C25 C 0.62019(18) 0.8882(13) 1.1965(3)
H28 H 0.6126 0.7369 1.1668
C26 C 0.60785(17) 1.1046(12) 1.1437(3)
H29 H 0.6145 1.2574 1.1729
C27 C 0.66410(17) 1.0768(12) 1.1217(3)
H30 H 0.6747 1.2256 1.1508
C28 C 0.67817(16) 1.0546(11) 1.0604(3)
C29 C 0.69941(18) 1.2399(12) 1.0488(4)
H31 H 0.7060 1.3757 1.0808
C30 C 0.71083(18) 1.2214(12) 0.9887(4)
H32 H 0.7251 1.3463 0.9800
C31 C 0.70155(17) 1.0272(12) 0.9436(3)
H33 H 0.7096 1.0159 0.9038
C32 C 0.68052(17) 0.8453(13) 0.9548(3)
H34 H 0.6738 0.7113 0.9221
C33 C 0.66928(17) 0.8575(12) 1.0132(3)
H35 H 0.6553 0.7295 1.0212
C34 C 0.56725(19) 1.0953(14) 1.1039(4)
C35 C 0.5097(2) 1.2263(19) 1.1023(5)
H36 H 0.4987 1.3728 1.0737
H37 H 0.5013 1.0841 1.0697
C36 C 0.4994(2) 1.203(2) 1.1656(5)
H38 H 0.4730 1.1835 1.1487
H39 H 0.5067 1.3490 1.1960
H40 H 0.5115 1.0624 1.1947
C37 C 0.60458(18) 0.8826(12) 1.2566(3)
C38 C 0.58150(18) 0.6981(13) 1.2585(4)
H41 H 0.5739 0.5817 1.2200
C39 C 0.56935(19) 0.6820(14) 1.3168(4)
H42 H 0.5542 0.5523 1.3191
C40 C 0.57973(18) 0.8578(14) 1.3709(3)
C41 C 0.60251(19) 1.0439(14) 1.3696(4)
H43 H 0.6097 1.1610 1.4079
C42 C 0.61487(19) 1.0596(13) 1.3124(4)
H44 H 0.6302 1.1892 1.3108
loop_
_geom_bond_atom_site_label_1
_geom_bond_atom_site_label_2
_geom_bond_site_symmetry_1
_geom_bond_site_symmetry_2
Br1 C19 1_555 1_555
O1 C1 1_555 1_555
O2 C13 1_555 1_555
O3 C13 1_555 1_555
N1 N2 1_555 1_555
N2 C3 1_555 1_555
N3 H1 1_555 1_555
C1 N1 1_555 1_555
C2 C1 1_555 1_555
H2 C2 1_555 1_555
H3 C2 1_555 1_555
C3 C2 1_555 1_555
H4 C3 1_555 1_555
H5 C3 1_555 1_555
C4 N2 1_555 1_555
H6 C4 1_555 1_555
C5 N3 1_555 1_555
H7 C5 1_555 1_555
C6 N1 1_555 1_555
H8 C6 1_555 1_555
C7 C6 1_555 1_555
C8 C7 1_555 1_555
H9 C8 1_555 1_555
C9 C8 1_555 1_555
H10 C9 1_555 1_555
C10 C9 1_555 1_555
H11 C10 1_555 1_555
C11 C10 1_555 1_555
H12 C11 1_555 1_555
C12 C7 1_555 1_555
H13 C12 1_555 1_555
C13 C5 1_555 1_555
C14 O3 1_555 1_555
H14 C14 1_555 1_555
H15 C14 1_555 1_555
C15 C14 1_555 1_555
H16 C15 1_555 1_555
H17 C15 1_555 1_555
H18 C15 1_555 1_555
C16 C4 1_555 1_555
C17 C16 1_555 1_555
H19 C17 1_555 1_555
C18 C17 1_555 1_555
H20 C18 1_555 1_555
C19 C18 1_555 1_555
C20 C19 1_555 1_555
H21 C20 1_555 1_555
C21 C16 1_555 1_555
H22 C21 1_555 1_555
Br2 C40 1_555 1_555
O4 C22 1_555 1_555
O5 C34 1_555 1_555
O6 C34 1_555 1_555
N4 N5 1_555 1_555
N5 C24 1_555 1_555
N6 H23 1_555 1_555
C22 N4 1_555 1_555
C23 C22 1_555 1_555
H24 C23 1_555 1_555
H25 C23 1_555 1_555
C24 C23 1_555 1_555
H26 C24 1_555 1_555
H27 C24 1_555 1_555
C25 N5 1_555 1_555
H28 C25 1_555 1_555
C26 N6 1_555 1_555
H29 C26 1_555 1_555
C27 N4 1_555 1_555
H30 C27 1_555 1_555
C28 C27 1_555 1_555
C29 C28 1_555 1_555
H31 C29 1_555 1_555
C30 C29 1_555 1_555
H32 C30 1_555 1_555
C31 C30 1_555 1_555
H33 C31 1_555 1_555
C32 C31 1_555 1_555
H34 C32 1_555 1_555
C33 C28 1_555 1_555
H35 C33 1_555 1_555
C34 C26 1_555 1_555
C35 O6 1_555 1_555
H36 C35 1_555 1_555
H37 C35 1_555 1_555
C36 C35 1_555 1_555
H38 C36 1_555 1_555
H39 C36 1_555 1_555
H40 C36 1_555 1_555
C37 C25 1_555 1_555
C38 C37 1_555 1_555
H41 C38 1_555 1_555
C39 C38 1_555 1_555
H42 C39 1_555 1_555
C40 C39 1_555 1_555
C41 C40 1_555 1_555
H43 C41 1_555 1_555
C42 C37 1_555 1_555
H44 C42 1_555 1_555
N3 C6 1_555 1_555
C4 C5 1_555 1_555
C11 C12 1_555 1_555
C20 C21 1_555 1_555
N6 C27 1_555 1_555
C25 C26 1_555 1_555
C32 C33 1_555 1_555
C41 C42 1_555 1_555

#END
