
#######################################################################
#
#                 Cambridge Crystallographic Data Centre
#                                CCDC 
#
#######################################################################
#
# If this CIF has been generated from an entry in the Cambridge 
# Structural Database, then it will include bibliographic, chemical, 
# crystal, experimental, refinement or atomic coordinate data resulting 
# from the CCDC's data processing and validation procedures.
#
#######################################################################

data_VIPJAG
_chemical_formula_moiety         'C23 H20 Br2 O6'
_chemical_name_systematic        
1,1'-(2,2-Dimethyl-1,3-dioxolane-4,5-diyl)-bis(3-(4-bromophenyl)-3-hydroxyprop-2-en-1-one)
_symmetry_cell_setting           orthorhombic
_symmetry_space_group_name_H-M   'P 21 21 21'
_symmetry_Int_Tables_number      19
_space_group_name_Hall           'P 2ac 2ab'
loop_
_symmetry_equiv_pos_site_id
_symmetry_equiv_pos_as_xyz
1 x,y,z
2 1/2-x,-y,1/2+z
3 -x,1/2+y,1/2-z
4 1/2+x,1/2-y,-z
_cell_length_a                   5.691(1)
_cell_length_b                   9.359(1)
_cell_length_c                   41.058(1)
_cell_angle_alpha                90
_cell_angle_beta                 90
_cell_angle_gamma                90
_cell_volume                     2186.83
_exptl_crystal_colour            colorless
_exptl_crystal_description       plate
_cell_formula_units_Z            4
_exptl_crystal_preparation       luminescent
loop_
_atom_site_label
_atom_site_type_symbol
_atom_site_fract_x
_atom_site_fract_y
_atom_site_fract_z
C1 C 0.6888(6) 0.5255(4) -0.16939(9)
O1 O 0.6573(6) 0.4037(3) -0.15479(8)
H1 H 0.5480 0.4111 -0.1415
C2 C 0.8852(7) 0.5272(4) -0.19294(9)
C3 C 0.9522(7) 0.6485(4) -0.20957(10)
H2 H 0.8744 0.7352 -0.2055
C4 C 1.1315(7) 0.6446(5) -0.23214(11)
H3 H 1.1766 0.7281 -0.2432
C5 C 1.2439(7) 0.5171(5) -0.23833(9)
C6 C 1.1858(8) 0.3960(5) -0.22166(12)
H4 H 1.2667 0.3100 -0.2255
C7 C 1.0049(8) 0.4017(4) -0.19890(11)
H5 H 0.9635 0.3186 -0.1874
Br1 Br 1.48061(8) 0.50647(6) -0.270731(12)
C8 C 0.5478(7) 0.6417(4) -0.16240(9)
H6 H 0.5755 0.7299 -0.1726
C9 C 0.3632(7) 0.6276(4) -0.13997(9)
O2 O 0.3218(5) 0.5132(3) -0.12458(8)
C10 C 0.2023(7) 0.7493(4) -0.13158(9)
H7 H 0.0371 0.7163 -0.1317
O3 O 0.2292(5) 0.8663(3) -0.15315(7)
C11 C 0.2615(6) 0.8174(4) -0.09823(9)
H8 H 0.4306 0.8038 -0.0935
O4 O 0.2153(5) 0.9649(3) -0.10291(6)
C12 C 0.1176(6) 0.7568(4) -0.07067(9)
O5 O -0.1099(5) 0.7864(3) -0.07215(7)
C13 C 0.2102(6) 0.6745(4) -0.04693(9)
H9 H 0.3727 0.6563 -0.0468
C14 C 0.0645(6) 0.6145(4) -0.02200(9)
O6 O -0.1517(4) 0.6458(3) -0.02094(7)
H10 H -0.1869 0.6940 -0.0372
C15 C 0.1561(6) 0.5137(4) 0.00228(9)
C16 C 0.3727(6) 0.4470(4) -0.00101(10)
H11 H 0.4699 0.4710 -0.0187
C17 C 0.4481(6) 0.3457(4) 0.02123(9)
H12 H 0.5946 0.3006 0.0187
C18 C 0.3046(7) 0.3122(4) 0.04721(9)
C19 C 0.0897(7) 0.3776(4) 0.05152(9)
H13 H -0.0052 0.3546 0.0695
C20 C 0.0168(6) 0.4772(4) 0.02900(9)
H14 H -0.1301 0.5216 0.0317
Br2 Br 0.40733(9) 0.17058(5) 0.077002(10)
C21 C 0.1465(6) 0.9892(5) -0.13597(9)
C22 C -0.1189(7) 1.0021(6) -0.13809(11)
H15 H -0.1909 0.9166 -0.1292
H16 H -0.1651 1.0131 -0.1607
H17 H -0.1702 1.0847 -0.1257
C23 C 0.2716(8) 1.1197(5) -0.14828(12)
H18 H 0.2184 1.2029 -0.1362
H19 H 0.2376 1.1326 -0.1712
H20 H 0.4396 1.1081 -0.1453
loop_
_geom_bond_atom_site_label_1
_geom_bond_atom_site_label_2
_geom_bond_site_symmetry_1
_geom_bond_site_symmetry_2
C1 O1 1_555 1_555
O1 H1 1_555 1_555
C2 C1 1_555 1_555
C3 C2 1_555 1_555
H2 C3 1_555 1_555
C4 C3 1_555 1_555
H3 C4 1_555 1_555
C5 C4 1_555 1_555
C6 C5 1_555 1_555
H4 C6 1_555 1_555
C7 C2 1_555 1_555
H5 C7 1_555 1_555
Br1 C5 1_555 1_555
C8 C1 1_555 1_555
H6 C8 1_555 1_555
C9 C8 1_555 1_555
O2 C9 1_555 1_555
C10 C9 1_555 1_555
H7 C10 1_555 1_555
O3 C10 1_555 1_555
C11 C10 1_555 1_555
H8 C11 1_555 1_555
O4 C11 1_555 1_555
C12 C11 1_555 1_555
O5 C12 1_555 1_555
C13 C12 1_555 1_555
H9 C13 1_555 1_555
C14 C13 1_555 1_555
O6 C14 1_555 1_555
H10 O6 1_555 1_555
C15 C14 1_555 1_555
C16 C15 1_555 1_555
H11 C16 1_555 1_555
C17 C16 1_555 1_555
H12 C17 1_555 1_555
C18 C17 1_555 1_555
C19 C18 1_555 1_555
H13 C19 1_555 1_555
C20 C15 1_555 1_555
H14 C20 1_555 1_555
Br2 C18 1_555 1_555
C21 O3 1_555 1_555
C22 C21 1_555 1_555
H15 C22 1_555 1_555
H16 C22 1_555 1_555
H17 C22 1_555 1_555
C23 C21 1_555 1_555
H18 C23 1_555 1_555
H19 C23 1_555 1_555
H20 C23 1_555 1_555
C6 C7 1_555 1_555
O4 C21 1_555 1_555
C19 C20 1_555 1_555

#END
