
#######################################################################
#
#                 Cambridge Crystallographic Data Centre
#                                CCDC 
#
#######################################################################
#
# If this CIF has been generated from an entry in the Cambridge 
# Structural Database, then it will include bibliographic, chemical, 
# crystal, experimental, refinement or atomic coordinate data resulting 
# from the CCDC's data processing and validation procedures.
#
#######################################################################

data_VIPMEP
_chemical_name_common            
2,4-diacetyl-3,5-dihydroxy-6-(1-(methyliminio)ethyl)phenolate
_chemical_formula_moiety         'C13 H15 N1 O5'
_chemical_name_systematic        
'(1E)-1-(3,5-diacetyl-2,4-dihydroxy-6-oxocyclohexa-2,4-dien-1-yl) -N-methylethaniminium'
_symmetry_cell_setting           orthorhombic
_symmetry_space_group_name_H-M   'P b c a'
_symmetry_Int_Tables_number      61
_space_group_name_Hall           '-P 2ac 2ab'
loop_
_symmetry_equiv_pos_site_id
_symmetry_equiv_pos_as_xyz
1 x,y,z
2 1/2-x,-y,1/2+z
3 1/2+x,1/2-y,-z
4 -x,1/2+y,1/2-z
5 -x,-y,-z
6 1/2+x,y,1/2-z
7 1/2-x,1/2+y,z
8 x,1/2-y,1/2+z
_cell_length_a                   17.6428(7)
_cell_length_b                   7.0164(3)
_cell_length_c                   19.1027(9)
_cell_angle_alpha                90
_cell_angle_beta                 90
_cell_angle_gamma                90
_cell_volume                     2364.7
_exptl_crystal_colour            colorless
_exptl_crystal_description       needle
_cell_formula_units_Z            8
loop_
_atom_site_label
_atom_site_type_symbol
_atom_site_fract_x
_atom_site_fract_y
_atom_site_fract_z
O1 O -0.36581(7) 0.09179(19) -0.25888(7)
O2 O -0.21386(7) 0.2348(2) -0.45630(7)
H1 H -0.1575 0.2427 -0.4642
O3 O -0.09950(7) 0.05192(19) -0.24320(7)
H2 H -0.1218 0.0043 -0.1950
O4 O -0.07661(8) 0.2467(2) -0.44482(8)
O5 O -0.17512(7) -0.04668(19) -0.14464(7)
N1 N -0.42780(9) 0.1851(2) -0.37131(9)
H3 H -0.4209 0.1560 -0.3224
C1 C -0.30159(10) 0.1037(3) -0.28816(11)
C2 C -0.23345(10) 0.0610(3) -0.24800(11)
C3 C -0.16127(11) 0.0898(3) -0.27950(11)
C4 C -0.15342(11) 0.1563(3) -0.34940(11)
C5 C -0.22094(10) 0.1820(3) -0.39012(11)
C6 C -0.29455(11) 0.1576(3) -0.36144(11)
C7 C -0.36214(11) 0.1895(3) -0.40315(11)
C8 C -0.36157(11) 0.2244(3) -0.48067(11)
H4 H -0.4136 0.2210 -0.4985
H5 H -0.3314 0.1255 -0.5038
H6 H -0.3393 0.3497 -0.4902
C9 C -0.50204(11) 0.2106(3) -0.40428(12)
H7 H -0.5023 0.3296 -0.4311
H8 H -0.5413 0.2161 -0.3680
H9 H -0.5122 0.1032 -0.4357
C10 C -0.23634(11) -0.0101(3) -0.17701(11)
C11 C -0.30785(11) -0.0419(3) -0.13704(11)
H10 H -0.3321 0.0809 -0.1275
H11 H -0.2962 -0.1058 -0.0927
H12 H -0.3422 -0.1219 -0.1646
C12 C -0.08059(11) 0.2024(3) -0.38055(12)
C13 C -0.00803(11) 0.2084(3) -0.34008(12)
H13 H 0.0052 0.0794 -0.3246
H14 H -0.0142 0.2911 -0.2992
H15 H 0.0325 0.2585 -0.3700
loop_
_geom_bond_atom_site_label_1
_geom_bond_atom_site_label_2
_geom_bond_site_symmetry_1
_geom_bond_site_symmetry_2
O1 C1 1_555 1_555
O2 H1 1_555 1_555
O3 H2 1_555 1_555
O4 C12 1_555 1_555
O5 C10 1_555 1_555
N1 H3 1_555 1_555
C1 C2 1_555 1_555
C2 C3 1_555 1_555
C3 O3 1_555 1_555
C4 C3 1_555 1_555
C5 O2 1_555 1_555
C6 C1 1_555 1_555
C7 N1 1_555 1_555
C8 C7 1_555 1_555
H4 C8 1_555 1_555
H5 C8 1_555 1_555
H6 C8 1_555 1_555
C9 N1 1_555 1_555
H7 C9 1_555 1_555
H8 C9 1_555 1_555
H9 C9 1_555 1_555
C10 C2 1_555 1_555
C11 C10 1_555 1_555
H10 C11 1_555 1_555
H11 C11 1_555 1_555
H12 C11 1_555 1_555
C12 C4 1_555 1_555
C13 C12 1_555 1_555
H13 C13 1_555 1_555
H14 C13 1_555 1_555
H15 C13 1_555 1_555
C4 C5 1_555 1_555
C5 C6 1_555 1_555
C6 C7 1_555 1_555

#END
