
#######################################################################
#
#                 Cambridge Crystallographic Data Centre
#                                CCDC 
#
#######################################################################
#
# If this CIF has been generated from an entry in the Cambridge 
# Structural Database, then it will include bibliographic, chemical, 
# crystal, experimental, refinement or atomic coordinate data resulting 
# from the CCDC's data processing and validation procedures.
#
#######################################################################

data_VIPQET
_chemical_formula_moiety         'C32 H34 N2 O8'
_chemical_name_systematic        
"diethyl 18-hydroxy-7,9-dimethyl-16,19-dioxo-7,7a,9,10,18,19-hexahydro-6H,8H-benzo[5',6']indolizino[1',8a':4,5]furo[3,2-b]pyrrolo[1,2-a]quinoline-16a,18(16H)-dicarboxylate"
_symmetry_cell_setting           orthorhombic
_symmetry_space_group_name_H-M   'P 21 21 21'
_symmetry_Int_Tables_number      19
_space_group_name_Hall           'P 2ac 2ab'
loop_
_symmetry_equiv_pos_site_id
_symmetry_equiv_pos_as_xyz
1 x,y,z
2 1/2-x,-y,1/2+z
3 -x,1/2+y,1/2-z
4 1/2+x,1/2-y,-z
_cell_length_a                   9.6053(2)
_cell_length_b                   13.1552(2)
_cell_length_c                   22.2617(4)
_cell_angle_alpha                90
_cell_angle_beta                 90
_cell_angle_gamma                90
_cell_volume                     2812.98
_exptl_crystal_colour            gold
_exptl_crystal_description       BLOCK
_cell_formula_units_Z            4
loop_
_atom_site_label
_atom_site_type_symbol
_atom_site_fract_x
_atom_site_fract_y
_atom_site_fract_z
O1 O 0.1784(3) 0.46617(18) 0.39362(13)
N1 N 0.4233(3) 0.2336(2) 0.20897(14)
C1 C 0.2198(5) 0.1315(2) 0.45656(19)
H1 H 0.136673 0.092685 0.459343
N2 N 0.1384(3) 0.2108(2) 0.36501(14)
O2 O 0.1564(3) 0.52268(18) 0.29889(13)
C2 C 0.3215(5) 0.1211(3) 0.49951(19)
H2 H 0.306563 0.075002 0.531750
O3 O 0.4855(3) 0.3912(2) 0.35959(17)
C3 C 0.4448(5) 0.1753(3) 0.4975(2)
H3 H 0.514270 0.166182 0.527340
O4 O 0.3210(3) 0.37434(16) 0.26017(12)
C4 C 0.4640(5) 0.2430(3) 0.4508(2)
H4 H 0.548176 0.280710 0.448746
C5 C 0.3632(4) 0.2574(2) 0.40658(17)
O5 O 0.1021(4) 0.2298(4) 0.1067(2)
O6 O 0.3256(4) 0.2421(2) 0.08192(15)
C6 C 0.2387(4) 0.2000(2) 0.40808(16)
C7 C 0.3820(4) 0.3379(2) 0.36210(19)
O7 O 0.3402(4) 0.49791(19) 0.12402(15)
C8 C 0.2633(4) 0.3596(2) 0.31780(17)
O8 O 0.1248(3) 0.3979(2) 0.17415(15)
C9 C 0.1517(4) 0.2734(2) 0.31134(16)
C10 C 0.0006(4) 0.3093(2) 0.30371(18)
H5 H -0.020404 0.366490 0.331131
H6 H -0.017446 0.330935 0.261849
C11 C -0.0857(4) 0.2152(2) 0.31988(18)
H7 H -0.092543 0.169865 0.283956
C12 C 0.0019(4) 0.1627(3) 0.36830(19)
H8 H -0.039968 0.172679 0.408508
H9 H 0.009144 0.088909 0.360235
C13 C -0.2316(4) 0.2418(3) 0.3414(2)
H10 H -0.225393 0.285557 0.376980
H11 H -0.281749 0.179335 0.351752
H12 H -0.281668 0.277725 0.309476
C14 C 0.1942(4) 0.4603(2) 0.33437(17)
C15 C 0.1035(6) 0.5558(3) 0.4160(2)
H13 H 0.002382 0.548101 0.408829
H14 H 0.135961 0.617611 0.394830
C16 C 0.1312(8) 0.5650(4) 0.4812(3)
H15 H 0.100003 0.503168 0.501659
H16 H 0.080720 0.623768 0.497235
H17 H 0.231313 0.574256 0.487761
C17 C 0.2022(4) 0.2148(2) 0.25362(16)
H18 H 0.120225 0.198488 0.227648
C18 C 0.2907(4) 0.1172(2) 0.26348(17)
H19 H 0.281448 0.094264 0.306122
C19 C 0.2430(5) 0.0318(3) 0.2212(2)
H20 H 0.143915 0.017989 0.227835
H21 H 0.297054 -0.029855 0.229410
H22 H 0.257568 0.052711 0.179440
C20 C 0.4397(4) 0.1493(2) 0.25156(19)
H23 H 0.486037 0.172146 0.288920
H24 H 0.494233 0.093048 0.233657
C21 C 0.2983(4) 0.2888(2) 0.22062(17)
C22 C 0.2482(4) 0.3426(3) 0.16290(18)
C23 C 0.2138(5) 0.2653(3) 0.11444(19)
C24 C 0.3683(4) 0.4139(2) 0.14321(17)
C25 C 0.3167(7) 0.1612(4) 0.0387(3)
H25 H 0.278443 0.187127 0.000372
H26 H 0.254419 0.106890 0.053749
C26 C 0.4560(8) 0.1210(5) 0.0293(4)
H27 H 0.487368 0.086206 0.065795
H28 H 0.519844 0.176972 0.020029
H29 H 0.454731 0.072809 -0.004254
C27 C 0.5341(4) 0.2839(2) 0.18213(18)
C28 C 0.6712(5) 0.2470(3) 0.18575(19)
H30 H 0.689748 0.185435 0.206583
C29 C 0.7790(5) 0.3000(3) 0.1591(2)
H31 H 0.871261 0.274455 0.161939
C30 C 0.7547(5) 0.3901(3) 0.1281(2)
H32 H 0.829846 0.426127 0.110343
C31 C 0.6203(4) 0.4267(3) 0.12349(19)
H33 H 0.602692 0.487762 0.101990
C32 C 0.5104(4) 0.3743(2) 0.15029(18)
loop_
_geom_bond_atom_site_label_1
_geom_bond_atom_site_label_2
_geom_bond_site_symmetry_1
_geom_bond_site_symmetry_2
O1 C14 1_555 1_555
N1 C20 1_555 1_555
C1 H1 1_555 1_555
N2 C6 1_555 1_555
O2 C14 1_555 1_555
C2 C1 1_555 1_555
H2 C2 1_555 1_555
O3 C7 1_555 1_555
C3 C2 1_555 1_555
H3 C3 1_555 1_555
O4 C8 1_555 1_555
C4 C3 1_555 1_555
H4 C4 1_555 1_555
C5 C4 1_555 1_555
O5 C23 1_555 1_555
O6 C23 1_555 1_555
C6 C1 1_555 1_555
C7 C5 1_555 1_555
O7 C24 1_555 1_555
C8 C7 1_555 1_555
O8 C22 1_555 1_555
C9 N2 1_555 1_555
C10 C9 1_555 1_555
H5 C10 1_555 1_555
H6 C10 1_555 1_555
C11 C10 1_555 1_555
H7 C11 1_555 1_555
C12 N2 1_555 1_555
H8 C12 1_555 1_555
H9 C12 1_555 1_555
C13 C11 1_555 1_555
H10 C13 1_555 1_555
H11 C13 1_555 1_555
H12 C13 1_555 1_555
C14 C8 1_555 1_555
C15 O1 1_555 1_555
H13 C15 1_555 1_555
H14 C15 1_555 1_555
C16 C15 1_555 1_555
H15 C16 1_555 1_555
H16 C16 1_555 1_555
H17 C16 1_555 1_555
C17 C9 1_555 1_555
H18 C17 1_555 1_555
C18 C17 1_555 1_555
H19 C18 1_555 1_555
C19 C18 1_555 1_555
H20 C19 1_555 1_555
H21 C19 1_555 1_555
H22 C19 1_555 1_555
C20 C18 1_555 1_555
H23 C20 1_555 1_555
H24 C20 1_555 1_555
C21 N1 1_555 1_555
C22 C21 1_555 1_555
C23 C22 1_555 1_555
C24 C22 1_555 1_555
C25 O6 1_555 1_555
H25 C25 1_555 1_555
H26 C25 1_555 1_555
C26 C25 1_555 1_555
H27 C26 1_555 1_555
H28 C26 1_555 1_555
H29 C26 1_555 1_555
C27 N1 1_555 1_555
C28 C27 1_555 1_555
H30 C28 1_555 1_555
C29 C28 1_555 1_555
H31 C29 1_555 1_555
C30 C29 1_555 1_555
H32 C30 1_555 1_555
C31 C30 1_555 1_555
H33 C31 1_555 1_555
C32 C24 1_555 1_555
O4 C21 1_555 1_555
C5 C6 1_555 1_555
C8 C9 1_555 1_555
C11 C12 1_555 1_555
C17 C21 1_555 1_555
C27 C32 1_555 1_555
C31 C32 1_555 1_555

#END
