
#######################################################################
#
#                 Cambridge Crystallographic Data Centre
#                                CCDC 
#
#######################################################################
#
# If this CIF has been generated from an entry in the Cambridge 
# Structural Database, then it will include bibliographic, chemical, 
# crystal, experimental, refinement or atomic coordinate data resulting 
# from the CCDC's data processing and validation procedures.
#
#######################################################################

data_VIPRUI
_chemical_name_common            
'(5beta,8alpha,9beta,10alpha,12alpha,15beta)-15-Hydroxy-17-(methylsulfinyl)atisan-19-oic acid'
_chemical_formula_moiety         'C21 H34 O4 S1'
_chemical_name_systematic        'Serofendic acid A'
_chemical_properties_biological  'Neuroprotective activity.'
_symmetry_cell_setting           monoclinic
_symmetry_space_group_name_H-M   'P 21'
_symmetry_Int_Tables_number      4
_space_group_name_Hall           'P 2yb'
loop_
_symmetry_equiv_pos_site_id
_symmetry_equiv_pos_as_xyz
1 x,y,z
2 -x,1/2+y,-z
_cell_length_a                   10.4754(3)
_cell_length_b                   7.6453(2)
_cell_length_c                   12.3642(4)
_cell_angle_alpha                90
_cell_angle_beta                 94.4050(17)
_cell_angle_gamma                90
_cell_volume                     987.294
_exptl_crystal_colour            colorless
_exptl_crystal_description       block
_chemical_melting_point          '214-216 deg.C'
_cell_formula_units_Z            2
_exptl_crystal_recrystallization_method 'hexane/ethyl acetate'
loop_
_atom_site_label
_atom_site_type_symbol
_atom_site_fract_x
_atom_site_fract_y
_atom_site_fract_z
S1 S 0.91684(13) 0.45697(17) 0.32844(11)
O1 O 0.7549(3) 1.0341(4) 0.2422(3)
O2 O -0.0292(3) 1.0139(5) 0.1389(2)
O3 O 0.0755(3) 1.0850(6) 0.2955(3)
O4 O 0.8300(4) 0.3193(6) 0.3671(4)
C1 C 0.3461(4) 0.8790(6) 0.1624(3)
C2 C 0.5472(4) 0.9194(5) 0.3025(3)
C3 C 0.3177(5) 1.0760(6) 0.1775(3)
C4 C 0.6968(5) 0.9123(6) 0.3101(4)
C5 C 0.5352(5) 0.6587(7) 0.1765(4)
C6 C 0.1806(4) 1.1340(6) 0.1306(4)
C7 C 0.1886(5) 0.8845(7) -0.0075(4)
C8 C 0.5044(4) 1.1087(6) 0.3171(4)
C9 C 0.3597(4) 1.1355(6) 0.2925(4)
C10 C 0.5126(5) 0.7998(6) 0.3966(3)
C11 C 0.3189(4) 0.8311(7) 0.0415(3)
C12 C 0.4933(4) 0.8512(6) 0.1909(3)
C13 C 0.7406(4) 0.7251(6) 0.2819(3)
C14 C 0.5544(5) 0.6095(7) 0.3750(4)
C15 C 0.6266(5) 0.6018(7) 0.2721(4)
C16 C 0.1626(5) 1.0763(8) 0.0114(3)
C17 C 0.0735(5) 1.0721(7) 0.1956(4)
C18 C 0.2598(4) 0.7669(6) 0.2293(4)
C19 C 0.1708(5) 1.3362(7) 0.1323(5)
C20 C 0.8498(5) 0.6661(7) 0.3609(4)
C21 C 1.0522(5) 0.4681(8) 0.4236(4)
H1 H 0.3763 1.1360 0.1318
H2 H 0.5365 0.9188 0.1370
H3 H 0.7742 0.7313 0.2102
H4 H 0.6560 0.4820 0.2605
H5 H 0.4604 0.5835 0.1716
H6 H 0.5773 0.6472 0.1096
H7 H 0.1237 0.8148 0.0242
H8 H 0.1831 0.8615 -0.0849
H9 H 0.5499 1.1835 0.2697
H10 H 0.5279 1.1445 0.3913
H11 H 0.3136 1.0694 0.3439
H12 H 0.3390 1.2582 0.3005
H13 H 0.4209 0.8035 0.4032
H14 H 0.5552 0.8411 0.4642
H15 H 0.3833 0.8860 0.0005
H16 H 0.3276 0.7055 0.0337
H17 H 0.6092 0.5673 0.4363
H18 H 0.4796 0.5345 0.3667
H19 H 0.0753 1.1021 -0.0159
H20 H 0.2191 1.1452 -0.0303
H21 H 0.8193 0.6597 0.4329
H22 H 0.9171 0.7535 0.3628
H23 H 0.3016 0.7471 0.3001
H24 H 0.2436 0.6567 0.1936
H25 H 0.1802 0.8266 0.2361
H26 H 0.1407 1.3733 0.2000
H27 H 0.1120 1.3744 0.0737
H28 H 0.2536 1.3860 0.1242
H29 H 1.0366 0.5519 0.4789
H30 H 1.1258 0.5033 0.3873
H31 H 1.0675 0.3553 0.4561
loop_
_geom_bond_atom_site_label_1
_geom_bond_atom_site_label_2
_geom_bond_site_symmetry_1
_geom_bond_site_symmetry_2
S1 O4 1_555 1_555
O1 C4 1_555 1_555
O2 C17 1_555 1_555
O3 C17 1_555 1_555
C1 C3 1_555 1_555
C2 C4 1_555 1_555
C3 C6 1_555 1_555
C4 C13 1_555 1_555
C5 C12 1_555 1_555
C6 C16 1_555 1_555
C7 C11 1_555 1_555
C8 C2 1_555 1_555
C9 C3 1_555 1_555
C10 C2 1_555 1_555
C11 C1 1_555 1_555
C12 C1 1_555 1_555
C13 C15 1_555 1_555
C14 C10 1_555 1_555
C15 C5 1_555 1_555
C16 C7 1_555 1_555
C17 C6 1_555 1_555
C18 C1 1_555 1_555
C19 C6 1_555 1_555
C20 S1 1_555 1_555
C21 S1 1_555 1_555
H1 C3 1_555 1_555
H2 C12 1_555 1_555
H3 C13 1_555 1_555
H4 C15 1_555 1_555
H5 C5 1_555 1_555
H6 C5 1_555 1_555
H7 C7 1_555 1_555
H8 C7 1_555 1_555
H9 C8 1_555 1_555
H10 C8 1_555 1_555
H11 C9 1_555 1_555
H12 C9 1_555 1_555
H13 C10 1_555 1_555
H14 C10 1_555 1_555
H15 C11 1_555 1_555
H16 C11 1_555 1_555
H17 C14 1_555 1_555
H18 C14 1_555 1_555
H19 C16 1_555 1_555
H20 C16 1_555 1_555
H21 C20 1_555 1_555
H22 C20 1_555 1_555
H23 C18 1_555 1_555
H24 C18 1_555 1_555
H25 C18 1_555 1_555
H26 C19 1_555 1_555
H27 C19 1_555 1_555
H28 C19 1_555 1_555
H29 C21 1_555 1_555
H30 C21 1_555 1_555
H31 C21 1_555 1_555
C2 C12 1_555 1_555
C8 C9 1_555 1_555
C13 C20 1_555 1_555
C14 C15 1_555 1_555

#END
