
#######################################################################
#
#                 Cambridge Crystallographic Data Centre
#                                CCDC 
#
#######################################################################
#
# If this CIF has been generated from an entry in the Cambridge 
# Structural Database, then it will include bibliographic, chemical, 
# crystal, experimental, refinement or atomic coordinate data resulting 
# from the CCDC's data processing and validation procedures.
#
#######################################################################

data_VIQCAB
_chemical_formula_moiety         'C24 H20 Cl2 O2'
_chemical_name_systematic        
1,4-bis(2-(4-Chlorophenyl)vinyl)-2,5-dimethoxybenzene
_symmetry_cell_setting           monoclinic
_symmetry_space_group_name_H-M   'P 21/n'
_symmetry_Int_Tables_number      14
_space_group_name_Hall           '-P 2yn'
loop_
_symmetry_equiv_pos_site_id
_symmetry_equiv_pos_as_xyz
1 x,y,z
2 1/2-x,1/2+y,1/2-z
3 -x,-y,-z
4 1/2+x,1/2-y,1/2+z
_cell_length_a                   9.6685(19)
_cell_length_b                   22.865(5)
_cell_length_c                   9.6903(19)
_cell_angle_alpha                90
_cell_angle_beta                 112.41(3)
_cell_angle_gamma                90
_cell_volume                     1980.45
_exptl_crystal_colour            green
_exptl_crystal_description       block
_cell_formula_units_Z            4
loop_
_atom_site_label
_atom_site_type_symbol
_atom_site_fract_x
_atom_site_fract_y
_atom_site_fract_z
Cl1 Cl 0.51889(16) 0.10141(5) 0.61135(15)
Cl2 Cl 0.01261(16) 0.92464(6) 0.41225(16)
O1 O 0.3093(4) 0.58092(14) 0.2951(4)
O2 O 0.1786(4) 0.44305(14) 0.6979(4)
C1 C 0.4774(5) 0.17476(19) 0.5650(5)
C2 C 0.4171(5) 0.1916(2) 0.4159(5)
H1 H 0.3987 0.1634 0.3388
C3 C 0.3844(5) 0.2499(2) 0.3819(5)
H2 H 0.3454 0.2619 0.2804
C4 C 0.4078(5) 0.29168(19) 0.4943(5)
C5 C 0.4724(5) 0.2737(2) 0.6409(5)
H3 H 0.4930 0.3019 0.7183
C6 C 0.5078(5) 0.2158(2) 0.6779(5)
H4 H 0.5524 0.2042 0.7796
C7 C 0.3616(5) 0.35288(19) 0.4531(5)
H5 H 0.3618 0.3674 0.3613
C8 C 0.3197(5) 0.38859(19) 0.5382(5)
H6 H 0.3163 0.3721 0.6268
C9 C 0.2781(5) 0.45054(19) 0.5116(5)
C10 C 0.3116(5) 0.4849(2) 0.4080(5)
H7 H 0.3541 0.4670 0.3449
C11 C 0.2836(5) 0.5447(2) 0.3961(5)
C12 C 0.2219(5) 0.57244(19) 0.4893(5)
C13 C 0.1846(5) 0.53851(19) 0.5890(5)
H8 H 0.1400 0.5564 0.6504
C14 C 0.2116(5) 0.4788(2) 0.5998(5)
C15 C 0.3561(6) 0.5549(2) 0.1869(6)
H9 H 0.3703 0.5854 0.1225
H10 H 0.2797 0.5273 0.1262
H11 H 0.4507 0.5341 0.2374
C16 C 0.1154(6) 0.4705(2) 0.7922(6)
H12 H 0.0959 0.4410 0.8559
H13 H 0.0213 0.4896 0.7308
H14 H 0.1854 0.4997 0.8548
C17 C 0.2012(5) 0.63633(19) 0.4799(5)
H15 H 0.2749 0.6590 0.4617
C18 C 0.0885(6) 0.66468(19) 0.4947(5)
H16 H 0.0143 0.6425 0.5131
C19 C 0.0712(5) 0.72888(19) 0.4841(5)
C20 C 0.1935(5) 0.7664(2) 0.5280(5)
H17 H 0.2914 0.7506 0.5726
C21 C 0.1756(5) 0.8263(2) 0.5081(6)
H18 H 0.2604 0.8513 0.5388
C22 C 0.0341(5) 0.84916(19) 0.4437(5)
C23 C -0.0929(6) 0.8141(2) 0.4027(6)
H19 H -0.1903 0.8305 0.3602
C24 C -0.0724(5) 0.7545(2) 0.4257(5)
H20 H -0.1578 0.7300 0.4015
loop_
_geom_bond_atom_site_label_1
_geom_bond_atom_site_label_2
_geom_bond_site_symmetry_1
_geom_bond_site_symmetry_2
Cl1 C1 1_555 1_555
Cl2 C22 1_555 1_555
O1 C11 1_555 1_555
O2 C14 1_555 1_555
C1 C2 1_555 1_555
C2 H1 1_555 1_555
C3 C2 1_555 1_555
H2 C3 1_555 1_555
C4 C3 1_555 1_555
C5 C4 1_555 1_555
H3 C5 1_555 1_555
C6 C1 1_555 1_555
H4 C6 1_555 1_555
C7 C4 1_555 1_555
H5 C7 1_555 1_555
C8 C7 1_555 1_555
H6 C8 1_555 1_555
C9 C8 1_555 1_555
C10 C9 1_555 1_555
H7 C10 1_555 1_555
C11 C10 1_555 1_555
C12 C11 1_555 1_555
C13 C12 1_555 1_555
H8 C13 1_555 1_555
C14 C9 1_555 1_555
C15 O1 1_555 1_555
H9 C15 1_555 1_555
H10 C15 1_555 1_555
H11 C15 1_555 1_555
C16 O2 1_555 1_555
H12 C16 1_555 1_555
H13 C16 1_555 1_555
H14 C16 1_555 1_555
C17 C12 1_555 1_555
H15 C17 1_555 1_555
C18 C17 1_555 1_555
H16 C18 1_555 1_555
C19 C18 1_555 1_555
C20 C19 1_555 1_555
H17 C20 1_555 1_555
C21 C20 1_555 1_555
H18 C21 1_555 1_555
C22 C21 1_555 1_555
C23 C22 1_555 1_555
H19 C23 1_555 1_555
C24 C19 1_555 1_555
H20 C24 1_555 1_555
C5 C6 1_555 1_555
C13 C14 1_555 1_555
C23 C24 1_555 1_555

#END
