
#######################################################################
#
#                 Cambridge Crystallographic Data Centre
#                                CCDC 
#
#######################################################################
#
# If this CIF has been generated from an entry in the Cambridge 
# Structural Database, then it will include bibliographic, chemical, 
# crystal, experimental, refinement or atomic coordinate data resulting 
# from the CCDC's data processing and validation procedures.
#
#######################################################################

data_VIQHUZ
_chemical_formula_moiety         'C6 H20 Cl3 N3 Si4'
_chemical_name_systematic        
1-Trichlorosilyl-2,2,4,4,6,6-hexamethylcyclotrisilazane
_symmetry_cell_setting           monoclinic
_symmetry_space_group_name_H-M   'P 21/c'
_symmetry_Int_Tables_number      14
_space_group_name_Hall           '-P 2ybc'
loop_
_symmetry_equiv_pos_site_id
_symmetry_equiv_pos_as_xyz
1 x,y,z
2 -x,1/2+y,1/2-z
3 -x,-y,-z
4 x,1/2-y,1/2+z
_cell_length_a                   8.677(1)
_cell_length_b                   11.879(1)
_cell_length_c                   16.736(1)
_cell_angle_alpha                90
_cell_angle_beta                 100.9(1)
_cell_angle_gamma                90
_cell_volume                     1693.93
_exptl_crystal_colour            white
_exptl_crystal_description       needle
_cell_formula_units_Z            4
loop_
_atom_site_label
_atom_site_type_symbol
_atom_site_fract_x
_atom_site_fract_y
_atom_site_fract_z
Cl1 Cl -0.10010(7) 0.21326(6) 0.19278(4)
Cl2 Cl 0.08452(7) 0.37798(5) 0.08861(4)
Cl3 Cl 0.18356(7) 0.11451(5) 0.11386(4)
Si1 Si 0.11741(7) 0.25159(5) 0.17214(4)
Si2 Si 0.42584(7) 0.35081(5) 0.25161(3)
Si3 Si 0.56807(7) 0.27665(5) 0.42420(3)
Si4 Si 0.21068(7) 0.24809(5) 0.35535(4)
N1 N 0.2438(2) 0.28508(14) 0.25713(10)
N2 N 0.5708(2) 0.29140(15) 0.32235(10)
H1 H 0.6541 0.2662 0.3051
N3 N 0.3712(2) 0.29209(15) 0.42434(11)
H2 H 0.3493 0.3284 0.4666
C1 C 0.4016(3) 0.50278(18) 0.26972(14)
H3 H 0.3762 0.5137 0.3238
H4 H 0.3163 0.5328 0.2283
H5 H 0.4994 0.5424 0.2666
C2 C 0.4837(3) 0.32597(19) 0.15176(13)
H6 H 0.5870 0.3596 0.1521
H7 H 0.4061 0.3604 0.1085
H8 H 0.4887 0.2448 0.1420
C3 C 0.6730(3) 0.38867(19) 0.49022(13)
H9 H 0.6308 0.4624 0.4709
H10 H 0.7851 0.3857 0.4884
H11 H 0.6585 0.3772 0.5463
C4 C 0.6532(3) 0.13738(19) 0.45838(14)
H12 H 0.6605 0.1302 0.5173
H13 H 0.7582 0.1309 0.4453
H14 H 0.5858 0.0775 0.4306
C5 C 0.1898(3) 0.0932(2) 0.35791(16)
H15 H 0.2828 0.0577 0.3435
H16 H 0.0962 0.0703 0.3189
H17 H 0.1795 0.0695 0.4127
C6 C 0.0407(3) 0.3235(3) 0.38220(15)
H18 H 0.0319 0.3050 0.4382
H19 H -0.0555 0.3006 0.3451
H20 H 0.0557 0.4048 0.3775
loop_
_geom_bond_atom_site_label_1
_geom_bond_atom_site_label_2
_geom_bond_site_symmetry_1
_geom_bond_site_symmetry_2
Cl1 Si1 1_555 1_555
Cl2 Si1 1_555 1_555
Cl3 Si1 1_555 1_555
Si1 N1 1_555 1_555
Si2 N1 1_555 1_555
Si3 N2 1_555 1_555
Si4 N1 1_555 1_555
N2 Si2 1_555 1_555
H1 N2 1_555 1_555
N3 Si3 1_555 1_555
H2 N3 1_555 1_555
C1 Si2 1_555 1_555
H3 C1 1_555 1_555
H4 C1 1_555 1_555
H5 C1 1_555 1_555
C2 Si2 1_555 1_555
H6 C2 1_555 1_555
H7 C2 1_555 1_555
H8 C2 1_555 1_555
C3 Si3 1_555 1_555
H9 C3 1_555 1_555
H10 C3 1_555 1_555
H11 C3 1_555 1_555
C4 Si3 1_555 1_555
H12 C4 1_555 1_555
H13 C4 1_555 1_555
H14 C4 1_555 1_555
C5 Si4 1_555 1_555
H15 C5 1_555 1_555
H16 C5 1_555 1_555
H17 C5 1_555 1_555
C6 Si4 1_555 1_555
H18 C6 1_555 1_555
H19 C6 1_555 1_555
H20 C6 1_555 1_555
Si4 N3 1_555 1_555

#END
