
#######################################################################
#
#                 Cambridge Crystallographic Data Centre
#                                CCDC 
#
#######################################################################
#
# If this CIF has been generated from an entry in the Cambridge 
# Structural Database, then it will include bibliographic, chemical, 
# crystal, experimental, refinement or atomic coordinate data resulting 
# from the CCDC's data processing and validation procedures.
#
#######################################################################

data_VIQSIA
_chemical_formula_moiety         'C25 H28 O1 Se1'
_chemical_name_systematic        2,6-bis(4-butylphenyl)-4H-selenopyran-4-one
_symmetry_cell_setting           monoclinic
_symmetry_space_group_name_H-M   'P 21/c'
_symmetry_Int_Tables_number      14
_space_group_name_Hall           '-P 2ybc'
loop_
_symmetry_equiv_pos_site_id
_symmetry_equiv_pos_as_xyz
1 x,y,z
2 -x,1/2+y,1/2-z
3 -x,-y,-z
4 x,1/2-y,1/2+z
_cell_length_a                   11.506(5)
_cell_length_b                   14.957(6)
_cell_length_c                   12.202(5)
_cell_angle_alpha                90
_cell_angle_beta                 100.075(7)
_cell_angle_gamma                90
_cell_volume                     2067.52
_exptl_crystal_colour            yellow
_exptl_crystal_description       plate
_cell_formula_units_Z            4
loop_
_atom_site_label
_atom_site_type_symbol
_atom_site_fract_x
_atom_site_fract_y
_atom_site_fract_z
Se1 Se 0.93372(4) 0.18745(3) 0.15996(4)
O1 O 1.1000(3) -0.0356(2) 0.3815(3)
C1 C 0.9117(4) 0.1544(2) 0.3032(4)
C2 C 0.9703(4) 0.0861(2) 0.3610(4)
H1 H 0.9523 0.0742 0.4326
C3 C 1.0590(4) 0.0286(3) 0.3236(4)
C4 C 1.0997(4) 0.0480(3) 0.2200(4)
H2 H 1.1629 0.0122 0.2042
C5 C 1.0585(4) 0.1109(2) 0.1433(4)
C6 C 0.8198(4) 0.2052(2) 0.3476(4)
C7 C 0.7864(4) 0.2921(2) 0.3114(4)
H3 H 0.8245 0.3204 0.2576
C8 C 0.6999(4) 0.3363(3) 0.3529(4)
H4 H 0.6780 0.3944 0.3252
C9 C 0.6420(4) 0.3001(3) 0.4347(4)
C10 C 0.6764(4) 0.2132(3) 0.4674(4)
H5 H 0.6385 0.1844 0.5211
C11 C 0.7621(4) 0.1676(3) 0.4259(4)
H6 H 0.7822 0.1088 0.4517
C12 C 0.5398(4) 0.3461(3) 0.4711(4)
H7 H 0.4658 0.3158 0.4370
H8 H 0.5359 0.4086 0.4440
C13 C 0.5488(4) 0.3462(4) 0.5953(3)
H9 H 0.6145 0.3856 0.6291
H10 H 0.5662 0.2849 0.6243
C14 C 0.4343(5) 0.3788(6) 0.6275(5)
H11 H 0.4150 0.4390 0.5960
H12 H 0.3691 0.3378 0.5968
C15 C 0.4469(7) 0.3822(6) 0.7533(5)
H13 H 0.3740 0.4056 0.7736
H14 H 0.5130 0.4215 0.7837
H15 H 0.4620 0.3219 0.7839
C16 C 1.1013(4) 0.1193(3) 0.0389(4)
C17 C 1.1393(4) 0.0441(3) -0.0131(4)
H16 H 1.1389 -0.0126 0.0217
C18 C 1.1770(4) 0.0506(3) -0.1126(4)
H17 H 1.1989 -0.0024 -0.1468
C19 C 1.1847(4) 0.1323(3) -0.1661(3)
C20 C 1.1472(4) 0.2075(3) -0.1139(4)
H18 H 1.1505 0.2645 -0.1476
C21 C 1.1061(4) 0.2012(2) -0.0158(4)
H19 H 1.0800 0.2538 0.0162
C22 C 1.2126(5) 0.1413(3) -0.2802(4)
H20 H 1.2280 0.2050 -0.2944
H21 H 1.1430 0.1224 -0.3351
C23 C 1.3177(5) 0.0867(4) -0.2975(4)
H22 H 1.3050 0.0231 -0.2802
H23 H 1.3892 0.1080 -0.2472
C24 C 1.3341(8) 0.0959(9) -0.4190(5)
H24 H 1.2694 0.0647 -0.4685
H25 H 1.3322 0.1598 -0.4403
C25 C 1.4519(7) 0.0553(6) -0.4314(7)
H26 H 1.4666 0.0659 -0.5070
H27 H 1.4503 -0.0092 -0.4175
H28 H 1.5149 0.0829 -0.3776
H29? H 0.6257 0.3688 0.6261
H30? H 0.5438 0.2862 0.6220
C26? C 0.4579(10) 0.4018(5) 0.6414(10)
H31? H 0.4969 0.4538 0.6826
H32? H 0.3979 0.4244 0.5795
C27? C 0.3988(9) 0.3449(7) 0.7186(9)
H33? H 0.3431 0.3816 0.7512
H34? H 0.4589 0.3206 0.7781
H35? H 0.3562 0.2956 0.6764
H36? H 1.2941 0.0252 -0.3066
H37? H 1.3719 0.0906 -0.2283
C28? C 1.3915(8) 0.1107(11) -0.3856(6)
H38? H 1.4152 0.1743 -0.3782
H39? H 1.4640 0.0737 -0.3753
C29? C 1.3190(11) 0.0940(9) -0.5000(4)
H40? H 1.3510 0.1295 -0.5554
H41? H 1.2369 0.1114 -0.5002
H42? H 1.3223 0.0304 -0.5184
loop_
_geom_bond_atom_site_label_1
_geom_bond_atom_site_label_2
_geom_bond_site_symmetry_1
_geom_bond_site_symmetry_2
Se1 C1 1_555 1_555
O1 C3 1_555 1_555
C1 C2 1_555 1_555
C2 H1 1_555 1_555
C3 C2 1_555 1_555
C4 C3 1_555 1_555
H2 C4 1_555 1_555
C5 Se1 1_555 1_555
C6 C1 1_555 1_555
C7 C6 1_555 1_555
H3 C7 1_555 1_555
C8 C7 1_555 1_555
H4 C8 1_555 1_555
C9 C8 1_555 1_555
C10 C9 1_555 1_555
H5 C10 1_555 1_555
C11 C6 1_555 1_555
H6 C11 1_555 1_555
C12 C9 1_555 1_555
H7 C12 1_555 1_555
H8 C12 1_555 1_555
C13 C12 1_555 1_555
H9 C13 1_555 1_555
H10 C13 1_555 1_555
C14 C13 1_555 1_555
H11 C14 1_555 1_555
H12 C14 1_555 1_555
C15 C14 1_555 1_555
H13 C15 1_555 1_555
H14 C15 1_555 1_555
H15 C15 1_555 1_555
C16 C5 1_555 1_555
C17 C16 1_555 1_555
H16 C17 1_555 1_555
C18 C17 1_555 1_555
H17 C18 1_555 1_555
C19 C18 1_555 1_555
C20 C19 1_555 1_555
H18 C20 1_555 1_555
C21 C16 1_555 1_555
H19 C21 1_555 1_555
C22 C19 1_555 1_555
H20 C22 1_555 1_555
H21 C22 1_555 1_555
C23 C22 1_555 1_555
H22 C23 1_555 1_555
H23 C23 1_555 1_555
C24 C23 1_555 1_555
H24 C24 1_555 1_555
H25 C24 1_555 1_555
C25 C24 1_555 1_555
H26 C25 1_555 1_555
H27 C25 1_555 1_555
H28 C25 1_555 1_555
C4 C5 1_555 1_555
C10 C11 1_555 1_555
C20 C21 1_555 1_555

#END
