
#######################################################################
#
#                 Cambridge Crystallographic Data Centre
#                                CCDC 
#
#######################################################################
#
# If this CIF has been generated from an entry in the Cambridge 
# Structural Database, then it will include bibliographic, chemical, 
# crystal, experimental, refinement or atomic coordinate data resulting 
# from the CCDC's data processing and validation procedures.
#
#######################################################################

data_VIQSEW
_chemical_formula_moiety         'C30 H41 N1'
_chemical_name_systematic        
3,6-di-t-butyl-9-(4-t-butylcyclohex-1-en-1-yl)-9H-carbazole
_symmetry_cell_setting           monoclinic
_symmetry_space_group_name_H-M   'C c'
_symmetry_Int_Tables_number      9
_space_group_name_Hall           'C -2yc'
loop_
_symmetry_equiv_pos_site_id
_symmetry_equiv_pos_as_xyz
1 x,y,z
2 x,-y,1/2+z
3 1/2+x,1/2+y,z
4 1/2+x,1/2-y,1/2+z
_cell_length_a                   19.114(2)
_cell_length_b                   14.1265(18)
_cell_length_c                   9.2469(12)
_cell_angle_alpha                90
_cell_angle_beta                 95.619(2)
_cell_angle_gamma                90
_cell_volume                     2484.79
_exptl_crystal_colour            yellow
_exptl_crystal_description       prism
_cell_formula_units_Z            4
loop_
_atom_site_label
_atom_site_type_symbol
_atom_site_fract_x
_atom_site_fract_y
_atom_site_fract_z
N1 N 0.3351(3) 0.07542(13) 0.9143(6)
C1 C 0.5518(3) 0.3562(4) 0.9161(5)
C2 C 0.4967(2) 0.2791(4) 0.9148(5)
C3 C 0.5154(2) 0.1836(4) 0.9105(5)
H1 H 0.5625 0.1679 0.9078
C4 C 0.4657(2) 0.1105(3) 0.9101(5)
H2 H 0.4798 0.0476 0.9061
C5 C 0.3965(3) 0.1323(3) 0.9157(4)
C6 C 0.3746(2) 0.2300(3) 0.9173(5)
C7 C 0.4244(2) 0.3012(4) 0.9155(4)
H3 H 0.4102 0.3642 0.9147
C8 C 0.2984(2) 0.2271(4) 0.9139(5)
C9 C 0.2480(2) 0.2997(4) 0.9120(5)
H4 H 0.2620 0.3627 0.9090
C10 C 0.1787(3) 0.2782(4) 0.9147(5)
C11 C 0.1598(3) 0.1812(4) 0.9188(5)
H5 H 0.1127 0.1662 0.9226
C12 C 0.2067(3) 0.1088(4) 0.9173(5)
H6 H 0.1927 0.0459 0.9192
C13 C 0.2783(2) 0.1347(4) 0.9128(4)
C14 C 0.3359(3) -0.02629(16) 0.9146(6)
C15 C 0.3748(3) -0.0755(4) 1.0332(6)
H7 H 0.4237 -0.0575 1.0334
H8 H 0.3588 -0.0517 1.1227
C16 C 0.3722(4) -0.1753(4) 1.0391(8)
H9 H 0.3502 -0.1923 1.1256
H10 H 0.4203 -0.1979 1.0531
C17 C 0.3360(6) -0.22894(19) 0.9158(8)
H11 H 0.3763 -0.2246 0.8582
C18 C 0.2914(4) -0.1801(4) 0.8118(8)
H12 H 0.2434 -0.1935 0.8307
H13 H 0.2979 -0.2068 0.7174
C19 C 0.2990(3) -0.0733(3) 0.8007(5)
H14 H 0.2793 -0.0405 0.7194
C20 C 0.1209(3) 0.3564(4) 0.9121(5)
C21 C 0.3356(4) -0.33710(19) 0.9123(9)
C22 C 0.3280(7) -0.3885(7) 0.7852(12)
H15 H 0.3178 -0.4533 0.8065
H16 H 0.3707 -0.3854 0.7388
H17 H 0.2901 -0.3627 0.7215
C23 C 0.4047(7) -0.3784(8) 1.0249(11)
H18 H 0.4012 -0.4460 1.0332
H19 H 0.4040 -0.3502 1.1192
H20 H 0.4479 -0.3624 0.9859
C24 C 0.2758(7) -0.3569(9) 1.0176(14)
H21 H 0.2332 -0.3258 0.9803
H22 H 0.2906 -0.3331 1.1129
H23 H 0.2676 -0.4238 1.0229
C25 C 0.1528(6) 0.4561(8) 0.9113(12)
H24 H 0.1840 0.4651 0.9980
H25 H 0.1159 0.5023 0.9076
H26 H 0.1785 0.4631 0.8277
C26 C 0.0845(4) 0.3476(6) 1.0531(9)
H27 H 0.0627 0.2865 1.0564
H28 H 0.0494 0.3960 1.0551
H29 H 0.1187 0.3547 1.1355
C27 C 0.0684(5) 0.3445(7) 0.7870(10)
H30 H 0.0907 0.3499 0.6989
H31 H 0.0329 0.3925 0.7890
H32 H 0.0470 0.2832 0.7912
C28 C 0.5441(5) 0.4171(6) 1.0565(9)
H33 H 0.5544 0.3783 1.1412
H34 H 0.4969 0.4406 1.0542
H35 H 0.5764 0.4693 1.0598
C29 C 0.5431(8) 0.4144(10) 0.7900(17)
H36 H 0.5758 0.4660 0.8004
H37 H 0.4960 0.4388 0.7784
H38 H 0.5514 0.3775 0.7062
C30 C 0.6269(6) 0.3185(8) 0.9351(12)
H39 H 0.6593 0.3705 0.9371
H40 H 0.6344 0.2774 0.8555
H41 H 0.6342 0.2840 1.0247
C31? C 0.3455(7) -0.3846(7) 1.0495(12)
H42? H 0.3107 -0.3633 1.1103
H43? H 0.3915 -0.3706 1.0956
H44? H 0.3409 -0.4516 1.0347
C32? C 0.2685(8) -0.3791(8) 0.8275(14)
H45? H 0.2641 -0.3553 0.7297
H46? H 0.2279 -0.3611 0.8745
H47? H 0.2720 -0.4469 0.8257
C33? C 0.3988(9) -0.3580(9) 0.8188(15)
H48? H 0.3952 -0.4217 0.7827
H49? H 0.4424 -0.3503 0.8783
H50? H 0.3970 -0.3147 0.7386
C34? C 0.1355(5) 0.4218(7) 1.0450(11)
H51? H 0.1351 0.3852 1.1324
H52? H 0.0999 0.4698 1.0428
H53? H 0.1807 0.4510 1.0426
C35? C 0.0474(6) 0.3177(9) 0.893(2)
H54? H 0.0437 0.2721 0.8155
H55? H 0.0148 0.3685 0.8691
H56? H 0.0367 0.2880 0.9813
C36? C 0.1300(7) 0.4191(10) 0.7719(19)
H57? H 0.1769 0.4442 0.7780
H58? H 0.0968 0.4702 0.7669
H59? H 0.1218 0.3805 0.6864
C37? C 0.5229(5) 0.4558(7) 0.9088(10)
H60? H 0.5011 0.4693 0.9958
H61? H 0.4886 0.4617 0.8261
H62? H 0.5605 0.4999 0.8999
C38? C 0.5892(6) 0.3432(8) 0.7642(11)
H63? H 0.6236 0.3921 0.7573
H64? H 0.5541 0.3475 0.6828
H65? H 0.6117 0.2825 0.7640
C39? C 0.6082(6) 0.3463(8) 1.0478(13)
H66? H 0.6422 0.3960 1.0450
H67? H 0.6312 0.2861 1.0434
H68? H 0.5861 0.3505 1.1363
loop_
_geom_bond_atom_site_label_1
_geom_bond_atom_site_label_2
_geom_bond_site_symmetry_1
_geom_bond_site_symmetry_2
N1 C5 1_555 1_555
C1 C2 1_555 1_555
C2 C3 1_555 1_555
C3 H1 1_555 1_555
C4 C3 1_555 1_555
H2 C4 1_555 1_555
C5 C4 1_555 1_555
C6 C5 1_555 1_555
C7 C2 1_555 1_555
H3 C7 1_555 1_555
C8 C6 1_555 1_555
C9 C8 1_555 1_555
H4 C9 1_555 1_555
C10 C9 1_555 1_555
C11 C10 1_555 1_555
H5 C11 1_555 1_555
C12 C11 1_555 1_555
H6 C12 1_555 1_555
C13 N1 1_555 1_555
C14 N1 1_555 1_555
C15 C14 1_555 1_555
H7 C15 1_555 1_555
H8 C15 1_555 1_555
C16 C15 1_555 1_555
H9 C16 1_555 1_555
H10 C16 1_555 1_555
C17 C16 1_555 1_555
H11 C17 1_555 1_555
C18 C17 1_555 1_555
H12 C18 1_555 1_555
H13 C18 1_555 1_555
C19 C14 1_555 1_555
H14 C19 1_555 1_555
C20 C10 1_555 1_555
C21 C17 1_555 1_555
C22 C21 1_555 1_555
H15 C22 1_555 1_555
H16 C22 1_555 1_555
H17 C22 1_555 1_555
C23 C21 1_555 1_555
H18 C23 1_555 1_555
H19 C23 1_555 1_555
H20 C23 1_555 1_555
C24 C21 1_555 1_555
H21 C24 1_555 1_555
H22 C24 1_555 1_555
H23 C24 1_555 1_555
C25 C20 1_555 1_555
H24 C25 1_555 1_555
H25 C25 1_555 1_555
H26 C25 1_555 1_555
C26 C20 1_555 1_555
H27 C26 1_555 1_555
H28 C26 1_555 1_555
H29 C26 1_555 1_555
C27 C20 1_555 1_555
H30 C27 1_555 1_555
H31 C27 1_555 1_555
H32 C27 1_555 1_555
C28 C1 1_555 1_555
H33 C28 1_555 1_555
H34 C28 1_555 1_555
H35 C28 1_555 1_555
C29 C1 1_555 1_555
H36 C29 1_555 1_555
H37 C29 1_555 1_555
H38 C29 1_555 1_555
C30 C1 1_555 1_555
H39 C30 1_555 1_555
H40 C30 1_555 1_555
H41 C30 1_555 1_555
C6 C7 1_555 1_555
C8 C13 1_555 1_555
C12 C13 1_555 1_555
C18 C19 1_555 1_555

#END
