
#######################################################################
#
#                 Cambridge Crystallographic Data Centre
#                                CCDC 
#
#######################################################################
#
# If this CIF has been generated from an entry in the Cambridge 
# Structural Database, then it will include bibliographic, chemical, 
# crystal, experimental, refinement or atomic coordinate data resulting 
# from the CCDC's data processing and validation procedures.
#
#######################################################################

data_VIQTAT
_chemical_formula_moiety         'C18 H8 F2 N4'
_chemical_name_systematic        
11,12-difluorodipyrido[3,2-a:2',3'-c]phenazine
_symmetry_cell_setting           orthorhombic
_symmetry_space_group_name_H-M   'P 21 21 21'
_symmetry_Int_Tables_number      19
_space_group_name_Hall           'P 2ac 2ab'
loop_
_symmetry_equiv_pos_site_id
_symmetry_equiv_pos_as_xyz
1 x,y,z
2 1/2+x,1/2-y,-z
3 -x,1/2+y,1/2-z
4 1/2-x,-y,1/2+z
_cell_length_a                   3.7392(4)
_cell_length_b                   17.226(2)
_cell_length_c                   20.124(2)
_cell_angle_alpha                90
_cell_angle_beta                 90
_cell_angle_gamma                90
_cell_volume                     1296.22
_exptl_crystal_colour            colorless
_exptl_crystal_description       needle
_cell_formula_units_Z            4
loop_
_atom_site_label
_atom_site_type_symbol
_atom_site_fract_x
_atom_site_fract_y
_atom_site_fract_z
F1 F 0.5719(4) 0.97533(7) 0.55407(6)
F2 F 0.2523(4) 1.07842(7) 0.47877(6)
N1 N 0.0003(5) 0.69679(10) 0.13664(9)
N2 N 0.4001(5) 0.77867(10) 0.39297(8)
N3 N 0.0817(5) 0.89056(10) 0.30881(9)
N4 N 0.2952(6) 0.58958(10) 0.21823(9)
C1 C -0.1379(7) 0.74976(13) 0.09620(10)
H1 H -0.2063 0.7337 0.0529
C2 C 0.0902(6) 0.72005(12) 0.19845(10)
C3 C 0.0397(6) 0.79654(11) 0.22092(10)
C4 C 0.1394(6) 0.81823(11) 0.28882(10)
C5 C 0.2992(6) 0.76152(12) 0.33150(10)
C6 C 0.3536(6) 0.85308(12) 0.41317(10)
C7 C 0.4783(7) 0.87492(12) 0.47710(10)
H2 H 0.5837 0.8380 0.5062
C8 C 0.4422(7) 0.94995(12) 0.49523(10)
C9 C 0.2779(7) 1.00588(12) 0.45408(10)
C10 C 0.1923(6) 0.90992(12) 0.37092(10)
C11 C 0.1508(6) 0.98760(12) 0.39313(10)
H3 H 0.0374 1.0255 0.3661
C12 C -0.1896(6) 0.82765(13) 0.11315(11)
H4 H -0.2831 0.8635 0.0818
C13 C -0.1013(6) 0.85094(12) 0.17639(10)
H5 H -0.1356 0.9033 0.1897
C14 C 0.2521(6) 0.66188(11) 0.24252(10)
C15 C 0.4458(6) 0.53729(12) 0.25776(11)
H6 H 0.4771 0.4862 0.2409
C16 C 0.5609(7) 0.55232(12) 0.32226(11)
H7 H 0.6681 0.5127 0.3483
C17 C 0.5156(6) 0.62608(12) 0.34736(10)
H8 H 0.5913 0.6383 0.3912
C18 C 0.3567(6) 0.68262(12) 0.30730(11)
loop_
_geom_bond_atom_site_label_1
_geom_bond_atom_site_label_2
_geom_bond_site_symmetry_1
_geom_bond_site_symmetry_2
F1 C8 1_555 1_555
F2 C9 1_555 1_555
N1 C1 1_555 1_555
N2 C5 1_555 1_555
N3 C4 1_555 1_555
N4 C14 1_555 1_555
C1 H1 1_555 1_555
C2 N1 1_555 1_555
C3 C2 1_555 1_555
C4 C3 1_555 1_555
C5 C4 1_555 1_555
C6 N2 1_555 1_555
C7 C6 1_555 1_555
H2 C7 1_555 1_555
C8 C7 1_555 1_555
C9 C8 1_555 1_555
C10 N3 1_555 1_555
C11 C9 1_555 1_555
H3 C11 1_555 1_555
C12 C1 1_555 1_555
H4 C12 1_555 1_555
C13 C3 1_555 1_555
H5 C13 1_555 1_555
C14 C2 1_555 1_555
C15 N4 1_555 1_555
H6 C15 1_555 1_555
C16 C15 1_555 1_555
H7 C16 1_555 1_555
C17 C16 1_555 1_555
H8 C17 1_555 1_555
C18 C5 1_555 1_555
C6 C10 1_555 1_555
C10 C11 1_555 1_555
C12 C13 1_555 1_555
C14 C18 1_555 1_555
C17 C18 1_555 1_555

#END
