
#######################################################################
#
#                 Cambridge Crystallographic Data Centre
#                                CCDC 
#
#######################################################################
#
# If this CIF has been generated from an entry in the Cambridge 
# Structural Database, then it will include bibliographic, chemical, 
# crystal, experimental, refinement or atomic coordinate data resulting 
# from the CCDC's data processing and validation procedures.
#
#######################################################################

data_VISBIJ
_chemical_formula_moiety         'C16 H25 Br1 N2 O2 S1'
_chemical_name_systematic        
'3-(3-bromophenyl)-2,5-di-t-butyl-1,2,5-thiadiazolidine 1,1-dioxide'
_symmetry_cell_setting           orthorhombic
_symmetry_space_group_name_H-M   'P 21 21 21'
_symmetry_Int_Tables_number      19
_space_group_name_Hall           'P 2ac 2ab'
loop_
_symmetry_equiv_pos_site_id
_symmetry_equiv_pos_as_xyz
1 x,y,z
2 1/2-x,-y,1/2+z
3 -x,1/2+y,1/2-z
4 1/2+x,1/2-y,-z
_cell_length_a                   11.1746(3)
_cell_length_b                   11.3015(3)
_cell_length_c                   14.1456(5)
_cell_angle_alpha                90
_cell_angle_beta                 90
_cell_angle_gamma                90
_cell_volume                     1786.44
_exptl_crystal_colour            colorless
_exptl_crystal_description       plate
_chemical_melting_point          '102-103 deg.C'
_cell_formula_units_Z            4
loop_
_atom_site_label
_atom_site_type_symbol
_atom_site_fract_x
_atom_site_fract_y
_atom_site_fract_z
S1 S 1.55750(10) 0.58560(10) 0.03527(12)
O1 O 1.6416(3) 0.6794(3) 0.0161(3)
O2 O 1.6113(3) 0.4735(3) 0.0557(3)
Br1 Br 0.88429(4) 0.47198(5) 0.04045(4)
N1 N 1.4568(4) 0.5721(4) -0.0490(4)
N2 N 1.4604(4) 0.6213(4) 0.1182(4)
C1 C 1.3376(6) 0.6132(7) -0.0117(5)
H1 H 1.2982 0.6654 -0.0596
C2 C 1.3569(6) 0.6787(7) 0.0739(5)
H2 H 1.2859 0.6743 0.1155
H3 H 1.3742 0.7628 0.0599
C3 C 1.5044(6) 0.6771(6) 0.2091(4)
C4 C 1.5300(8) 0.8094(6) 0.1995(5)
H4 H 1.4572 0.8504 0.1791
H5 H 1.5933 0.8217 0.1526
H6 H 1.5559 0.8410 0.2607
C5 C 1.4052(7) 0.6561(8) 0.2832(5)
H7 H 1.3313 0.6948 0.2624
H8 H 1.4302 0.6891 0.3441
H9 H 1.3911 0.5709 0.2900
C6 C 1.6175(7) 0.6149(5) 0.2424(4)
H10 H 1.6018 0.5300 0.2491
H11 H 1.6421 0.6475 0.3036
H12 H 1.6815 0.6272 0.1961
C7 C 1.4909(6) 0.5757(5) -0.1498(4)
C8 C 1.5001(7) 0.7019(6) -0.1857(5)
H13 H 1.5643 0.7431 -0.1519
H14 H 1.4241 0.7429 -0.1749
H15 H 1.5179 0.7011 -0.2536
C9 C 1.6085(6) 0.5083(5) -0.1657(4)
H16 H 1.6735 0.5484 -0.1321
H17 H 1.6267 0.5061 -0.2335
H18 H 1.6004 0.4273 -0.1418
C10 C 1.3914(6) 0.5106(5) -0.2046(4)
H19 H 1.3154 0.5527 -0.1964
H20 H 1.3835 0.4298 -0.1803
H21 H 1.4120 0.5079 -0.2719
C11 C 1.2515(5) 0.5071(5) 0.0138(5)
C12 C 1.1297(4) 0.5323(5) 0.0210(4)
H22 H 1.1013 0.6112 0.0156
C13 C 1.0514(4) 0.4401(4) 0.0361(4)
C14 C 1.0904(4) 0.3248(4) 0.0479(4)
H23 H 1.0347 0.2625 0.0576
C15 C 1.2124(5) 0.3018(5) 0.0453(5)
H24 H 1.2409 0.2234 0.0545
C16 C 1.2928(6) 0.3934(6) 0.0292(5)
H25 H 1.3764 0.3779 0.0289
loop_
_geom_bond_atom_site_label_1
_geom_bond_atom_site_label_2
_geom_bond_site_symmetry_1
_geom_bond_site_symmetry_2
S1 O1 1_555 1_555
O2 S1 1_555 1_555
Br1 C13 1_555 1_555
N1 S1 1_555 1_555
N2 S1 1_555 1_555
C1 N1 1_555 1_555
H1 C1 1_555 1_555
C2 N2 1_555 1_555
H2 C2 1_555 1_555
H3 C2 1_555 1_555
C3 N2 1_555 1_555
C4 C3 1_555 1_555
H4 C4 1_555 1_555
H5 C4 1_555 1_555
H6 C4 1_555 1_555
C5 C3 1_555 1_555
H7 C5 1_555 1_555
H8 C5 1_555 1_555
H9 C5 1_555 1_555
C6 C3 1_555 1_555
H10 C6 1_555 1_555
H11 C6 1_555 1_555
H12 C6 1_555 1_555
C7 N1 1_555 1_555
C8 C7 1_555 1_555
H13 C8 1_555 1_555
H14 C8 1_555 1_555
H15 C8 1_555 1_555
C9 C7 1_555 1_555
H16 C9 1_555 1_555
H17 C9 1_555 1_555
H18 C9 1_555 1_555
C10 C7 1_555 1_555
H19 C10 1_555 1_555
H20 C10 1_555 1_555
H21 C10 1_555 1_555
C11 C1 1_555 1_555
C12 C11 1_555 1_555
H22 C12 1_555 1_555
C13 C12 1_555 1_555
C14 C13 1_555 1_555
H23 C14 1_555 1_555
C15 C14 1_555 1_555
H24 C15 1_555 1_555
C16 C11 1_555 1_555
H25 C16 1_555 1_555
C1 C2 1_555 1_555
C15 C16 1_555 1_555

#END
