
#######################################################################
#
#                 Cambridge Crystallographic Data Centre
#                                CCDC 
#
#######################################################################
#
# If this CIF has been generated from an entry in the Cambridge 
# Structural Database, then it will include bibliographic, chemical, 
# crystal, experimental, refinement or atomic coordinate data resulting 
# from the CCDC's data processing and validation procedures.
#
#######################################################################

data_VISGUA
_chemical_formula_moiety         'C27 H36 B1 Br3 N2'
_chemical_name_systematic        
B-(1,3-bis(2,6-di-isopropylphenyl)imidazol-2-ylidene)-tribromoborane
_symmetry_cell_setting           monoclinic
_symmetry_space_group_name_H-M   'P 21/n'
_symmetry_Int_Tables_number      14
_space_group_name_Hall           '-P 2yn'
loop_
_symmetry_equiv_pos_site_id
_symmetry_equiv_pos_as_xyz
1 x,y,z
2 1/2-x,1/2+y,1/2-z
3 -x,-y,-z
4 1/2+x,1/2-y,1/2+z
_cell_length_a                   10.1936(5)
_cell_length_b                   19.8023(9)
_cell_length_c                   14.7695(7)
_cell_angle_alpha                90
_cell_angle_beta                 100.6100(10)
_cell_angle_gamma                90
_cell_volume                     2930.35
_exptl_crystal_colour            colorless
_exptl_crystal_description       block
_chemical_melting_point          346deg.C(dec.)
_cell_formula_units_Z            4
_exptl_crystal_recrystallization_method toluene
loop_
_atom_site_label
_atom_site_type_symbol
_atom_site_fract_x
_atom_site_fract_y
_atom_site_fract_z
B1 B 0.2145(6) 0.2258(2) 0.2621(4)
Br1 Br 0.28339(6) 0.14151(2) 0.33235(3)
Br2 Br 0.09543(6) 0.27162(3) 0.33796(4)
Br3 Br 0.37502(6) 0.28565(3) 0.25851(4)
N1 N 0.0651(4) 0.25933(17) 0.0999(2)
N2 N 0.1230(4) 0.15482(17) 0.1091(2)
C1 C 0.1349(4) 0.2128(2) 0.1579(3)
C2 C 0.0111(6) 0.2298(2) 0.0178(3)
H1 H -0.0409 0.2512 -0.0325
C3 C 0.0464(6) 0.1650(3) 0.0227(3)
H2 H 0.0238 0.1327 -0.0232
C4 C 0.1748(5) 0.0878(2) 0.1333(3)
C5 C 0.3068(5) 0.0731(2) 0.1233(3)
C6 C 0.3457(6) 0.0064(3) 0.1398(4)
H3 H 0.4312 -0.0062 0.1330
C7 C 0.2632(7) -0.0416(3) 0.1657(4)
H4 H 0.2937 -0.0856 0.1771
C8 C 0.1371(6) -0.0252(3) 0.1748(4)
H5 H 0.0822 -0.0584 0.1920
C9 C 0.0878(5) 0.0400(2) 0.1590(3)
C10 C -0.0536(6) 0.0560(3) 0.1708(4)
H6 H -0.0711 0.1033 0.1536
C11 C -0.0719(8) 0.0480(5) 0.2691(5)
H7 H -0.0095 0.0764 0.3083
H8 H -0.0568 0.0017 0.2876
H9 H -0.1612 0.0607 0.2740
C12 C -0.1540(7) 0.0133(4) 0.1066(6)
H10 H -0.1424 0.0200 0.0442
H11 H -0.2428 0.0263 0.1125
H12 H -0.1404 -0.0335 0.1226
C13 C 0.3996(6) 0.1258(3) 0.0972(4)
H13 H 0.3595 0.1702 0.1035
C14 C 0.5355(7) 0.1243(4) 0.1612(6)
H14 H 0.5240 0.1313 0.2235
H15 H 0.5910 0.1594 0.1438
H16 H 0.5769 0.0812 0.1564
C15 C 0.4147(11) 0.1177(5) -0.0015(5)
H17 H 0.3285 0.1198 -0.0406
H18 H 0.4552 0.0748 -0.0092
H19 H 0.4702 0.1532 -0.0176
C16 C 0.0492(4) 0.3321(2) 0.1122(3)
C17 C 0.1400(5) 0.3754(2) 0.0810(3)
C18 C 0.1190(7) 0.4443(3) 0.0899(4)
H20 H 0.1786 0.4749 0.0721
C19 C 0.0126(7) 0.4676(3) 0.1243(4)
H21 H 0.0016 0.5139 0.1305
C20 C -0.0782(6) 0.4244(3) 0.1499(4)
H22 H -0.1511 0.4419 0.1717
C21 C -0.0645(5) 0.3544(2) 0.1440(3)
C22 C -0.1719(5) 0.3079(3) 0.1635(4)
H23 H -0.1320 0.2632 0.1776
C23 C -0.2360(7) 0.3296(4) 0.2452(5)
H24 H -0.1682 0.3336 0.2994
H25 H -0.3003 0.2964 0.2554
H26 H -0.2797 0.3724 0.2318
C24 C -0.2808(6) 0.3010(4) 0.0779(5)
H27 H -0.2414 0.2872 0.0266
H28 H -0.3248 0.3437 0.0644
H29 H -0.3446 0.2678 0.0889
C25 C 0.2497(5) 0.3505(3) 0.0333(4)
H30 H 0.2709 0.3040 0.0536
C26 C 0.2026(7) 0.3493(4) -0.0723(5)
H31 H 0.1223 0.3231 -0.0872
H32 H 0.2708 0.3294 -0.1008
H33 H 0.1855 0.3946 -0.0946
C27 C 0.3777(7) 0.3913(5) 0.0550(6)
H34 H 0.4084 0.3925 0.1205
H35 H 0.3611 0.4365 0.0323
H36 H 0.4445 0.3708 0.0260
loop_
_geom_bond_atom_site_label_1
_geom_bond_atom_site_label_2
_geom_bond_site_symmetry_1
_geom_bond_site_symmetry_2
B1 Br1 1_555 1_555
Br2 B1 1_555 1_555
Br3 B1 1_555 1_555
N1 C1 1_555 1_555
N2 C1 1_555 1_555
C1 B1 1_555 1_555
C2 N1 1_555 1_555
H1 C2 1_555 1_555
C3 N2 1_555 1_555
H2 C3 1_555 1_555
C4 N2 1_555 1_555
C5 C4 1_555 1_555
C6 C5 1_555 1_555
H3 C6 1_555 1_555
C7 C6 1_555 1_555
H4 C7 1_555 1_555
C8 C7 1_555 1_555
H5 C8 1_555 1_555
C9 C4 1_555 1_555
C10 C9 1_555 1_555
H6 C10 1_555 1_555
C11 C10 1_555 1_555
H7 C11 1_555 1_555
H8 C11 1_555 1_555
H9 C11 1_555 1_555
C12 C10 1_555 1_555
H10 C12 1_555 1_555
H11 C12 1_555 1_555
H12 C12 1_555 1_555
C13 C5 1_555 1_555
H13 C13 1_555 1_555
C14 C13 1_555 1_555
H14 C14 1_555 1_555
H15 C14 1_555 1_555
H16 C14 1_555 1_555
C15 C13 1_555 1_555
H17 C15 1_555 1_555
H18 C15 1_555 1_555
H19 C15 1_555 1_555
C16 N1 1_555 1_555
C17 C16 1_555 1_555
C18 C17 1_555 1_555
H20 C18 1_555 1_555
C19 C18 1_555 1_555
H21 C19 1_555 1_555
C20 C19 1_555 1_555
H22 C20 1_555 1_555
C21 C16 1_555 1_555
C22 C21 1_555 1_555
H23 C22 1_555 1_555
C23 C22 1_555 1_555
H24 C23 1_555 1_555
H25 C23 1_555 1_555
H26 C23 1_555 1_555
C24 C22 1_555 1_555
H27 C24 1_555 1_555
H28 C24 1_555 1_555
H29 C24 1_555 1_555
C25 C17 1_555 1_555
H30 C25 1_555 1_555
C26 C25 1_555 1_555
H31 C26 1_555 1_555
H32 C26 1_555 1_555
H33 C26 1_555 1_555
C27 C25 1_555 1_555
H34 C27 1_555 1_555
H35 C27 1_555 1_555
H36 C27 1_555 1_555
C2 C3 1_555 1_555
C8 C9 1_555 1_555
C20 C21 1_555 1_555

#END
