
#######################################################################
#
#                 Cambridge Crystallographic Data Centre
#                                CCDC 
#
#######################################################################
#
# If this CIF has been generated from an entry in the Cambridge 
# Structural Database, then it will include bibliographic, chemical, 
# crystal, experimental, refinement or atomic coordinate data resulting 
# from the CCDC's data processing and validation procedures.
#
#######################################################################

data_VISLOB
_chemical_compound_source        'twigs and leaves of Baeckea frutescens'
_chemical_name_common            'Baeckfrutone D'
_chemical_formula_moiety         'C24 H36 O3'
_chemical_name_systematic        
7-methoxy-6,8,8-trimethyl-4,5'-bis(propan-2-yl)-4,8-dihydrospiro[1-benzopyran-2,2'-bicyclo[3.1.0]hexan]-5(3H)-one
_symmetry_cell_setting           orthorhombic
_symmetry_space_group_name_H-M   'P 21 21 21'
_symmetry_Int_Tables_number      19
_space_group_name_Hall           'P 2ac 2ab'
loop_
_symmetry_equiv_pos_site_id
_symmetry_equiv_pos_as_xyz
1 x,y,z
2 1/2+x,1/2-y,-z
3 -x,1/2+y,1/2-z
4 1/2-x,-y,1/2+z
_cell_length_a                   6.69630(10)
_cell_length_b                   15.6682(3)
_cell_length_c                   21.0426(4)
_cell_angle_alpha                90
_cell_angle_beta                 90
_cell_angle_gamma                90
_cell_volume                     2207.77
_exptl_crystal_colour            colorless
_exptl_crystal_description       block
_cell_formula_units_Z            4
loop_
_atom_site_label
_atom_site_type_symbol
_atom_site_fract_x
_atom_site_fract_y
_atom_site_fract_z
O1 O 0.89934(16) 0.95215(7) 0.84148(5)
O2 O 1.05231(17) 0.67834(7) 0.92580(5)
O3 O 0.51829(17) 0.71247(7) 0.78146(5)
C1 C 0.3846(3) 1.02751(12) 0.98937(9)
H1 H 0.2622 1.0339 0.9643
H2 H 0.3537 1.0350 1.0346
H3 H 0.4406 0.9705 0.9825
C2 C 0.5362(3) 1.09482(11) 0.96878(8)
H4 H 0.6606 1.0857 0.9942
C3 C 0.5929(2) 1.09070(10) 0.89883(7)
C4 C 0.5738(2) 1.01205(9) 0.85768(7)
H5 H 0.5230 0.9579 0.8770
C5 C 0.7487(2) 1.00826(10) 0.81233(7)
C6 C 0.8561(2) 0.86769(10) 0.83915(7)
C7 C 0.9745(2) 0.81900(10) 0.88807(7)
C8 C 0.9344(2) 0.72463(10) 0.88478(7)
C9 C 1.1870(3) 0.61974(11) 0.89576(9)
H6 H 1.1114 0.5716 0.8783
H7 H 1.2835 0.5987 0.9271
H8 H 1.2581 0.6489 0.8613
C10 C 0.7909(2) 0.68870(10) 0.84953(7)
C11 C 0.7389(3) 0.59533(10) 0.85140(9)
H9 H 0.8045 0.5660 0.8160
H10 H 0.5939 0.5885 0.8478
H11 H 0.7846 0.5707 0.8917
C12 C 0.6671(2) 0.74317(10) 0.80773(7)
C13 C 0.7217(2) 0.83269(10) 0.79893(7)
C14 C 0.6194(2) 0.88389(9) 0.74716(7)
H12 H 0.4744 0.8879 0.7582
C15 C 0.7042(2) 0.97489(10) 0.74616(7)
H13 H 0.8285 0.9755 0.7207
H14 H 0.6070 1.0133 0.7252
C16 C 0.6360(3) 0.84022(11) 0.68111(7)
H15 H 0.5667 0.7839 0.6845
C17 C 0.5270(3) 0.89147(11) 0.63021(8)
H16 H 0.5986 0.9450 0.6225
H17 H 0.3911 0.9041 0.6447
H18 H 0.5213 0.8582 0.5908
C18 C 0.8508(3) 0.82205(14) 0.66146(9)
H19 H 0.8515 0.7887 0.6221
H20 H 0.9180 0.7897 0.6951
H21 H 0.9213 0.8761 0.6545
C19 C 1.1988(2) 0.83595(11) 0.87672(9)
H22 H 1.2773 0.8074 0.9098
H23 H 1.2242 0.8975 0.8782
H24 H 1.2373 0.8136 0.8350
C20 C 0.9154(3) 0.85053(11) 0.95512(8)
H25 H 0.7724 0.8407 0.9619
H26 H 0.9439 0.9117 0.9587
H27 H 0.9922 0.8192 0.9872
C21 C 0.8365(2) 1.09854(10) 0.81308(8)
H28 H 0.7776 1.1335 0.7787
H29 H 0.9831 1.0966 0.8072
C22 C 0.7837(2) 1.13607(10) 0.87841(8)
H30 H 0.8924 1.1254 0.9093
H31 H 0.7614 1.1984 0.8753
C23 C 0.4314(2) 1.08626(10) 0.84872(7)
H32 H 0.4476 1.1219 0.8102
H33 H 0.2918 1.0789 0.8632
C24 C 0.4572(3) 1.18405(12) 0.98448(8)
H34 H 0.5584 1.2267 0.9734
H35 H 0.4275 1.1876 1.0300
H36 H 0.3353 1.1949 0.9600
loop_
_geom_bond_atom_site_label_1
_geom_bond_atom_site_label_2
_geom_bond_site_symmetry_1
_geom_bond_site_symmetry_2
O1 C5 1_555 1_555
O2 C8 1_555 1_555
O3 C12 1_555 1_555
C1 H1 1_555 1_555
H2 C1 1_555 1_555
H3 C1 1_555 1_555
C2 C1 1_555 1_555
H4 C2 1_555 1_555
C3 C2 1_555 1_555
C4 C3 1_555 1_555
H5 C4 1_555 1_555
C5 C4 1_555 1_555
C6 O1 1_555 1_555
C7 C6 1_555 1_555
C8 C7 1_555 1_555
C9 O2 1_555 1_555
H6 C9 1_555 1_555
H7 C9 1_555 1_555
H8 C9 1_555 1_555
C10 C8 1_555 1_555
C11 C10 1_555 1_555
H9 C11 1_555 1_555
H10 C11 1_555 1_555
H11 C11 1_555 1_555
C12 C10 1_555 1_555
C13 C6 1_555 1_555
C14 C13 1_555 1_555
H12 C14 1_555 1_555
C15 C5 1_555 1_555
H13 C15 1_555 1_555
H14 C15 1_555 1_555
C16 C14 1_555 1_555
H15 C16 1_555 1_555
C17 C16 1_555 1_555
H16 C17 1_555 1_555
H17 C17 1_555 1_555
H18 C17 1_555 1_555
C18 C16 1_555 1_555
H19 C18 1_555 1_555
H20 C18 1_555 1_555
H21 C18 1_555 1_555
C19 C7 1_555 1_555
H22 C19 1_555 1_555
H23 C19 1_555 1_555
H24 C19 1_555 1_555
C20 C7 1_555 1_555
H25 C20 1_555 1_555
H26 C20 1_555 1_555
H27 C20 1_555 1_555
C21 C5 1_555 1_555
H28 C21 1_555 1_555
H29 C21 1_555 1_555
C22 C3 1_555 1_555
H30 C22 1_555 1_555
H31 C22 1_555 1_555
C23 C3 1_555 1_555
H32 C23 1_555 1_555
H33 C23 1_555 1_555
C24 C2 1_555 1_555
H34 C24 1_555 1_555
H35 C24 1_555 1_555
H36 C24 1_555 1_555
C4 C23 1_555 1_555
C12 C13 1_555 1_555
C14 C15 1_555 1_555
C21 C22 1_555 1_555

#END
