
#######################################################################
#
#                 Cambridge Crystallographic Data Centre
#                                CCDC 
#
#######################################################################
#
# If this CIF has been generated from an entry in the Cambridge 
# Structural Database, then it will include bibliographic, chemical, 
# crystal, experimental, refinement or atomic coordinate data resulting 
# from the CCDC's data processing and validation procedures.
#
#######################################################################

data_VISSIA
_chemical_formula_moiety         'C28 H32 N4 O7 S1'
_chemical_name_systematic        
"(+-)-Di-t-butyl 1-((5-methyl-2-pyridyl)sulfonyl)-4-oxo-1a,2,4,9c-tetrahydro-1H-azireno(2',3':5,6)azepino(3,4-b)indole-3,5-dicarboxylate"
_symmetry_cell_setting           triclinic
_symmetry_space_group_name_H-M   'P -1'
_symmetry_Int_Tables_number      2
_space_group_name_Hall           '-P 1'
loop_
_symmetry_equiv_pos_site_id
_symmetry_equiv_pos_as_xyz
1 x,y,z
2 -x,-y,-z
_cell_length_a                   8.6278(17)
_cell_length_b                   12.338(3)
_cell_length_c                   13.931(3)
_cell_angle_alpha                81.54(3)
_cell_angle_beta                 80.18(3)
_cell_angle_gamma                76.03(3)
_cell_volume                     1409.27
_exptl_crystal_colour            colorless
_exptl_crystal_description       prism
_cell_formula_units_Z            2
_exptl_crystal_recrystallization_method dichloromethane
loop_
_atom_site_label
_atom_site_type_symbol
_atom_site_fract_x
_atom_site_fract_y
_atom_site_fract_z
C1 C 0.39925(17) 0.84980(12) -0.07043(10)
C2 C 0.53076(17) 0.76949(12) -0.12570(11)
C3 C 0.50788(19) 0.63937(13) 0.02845(11)
H1 H 0.5379 0.5575 0.0483
H2 H 0.3893 0.6614 0.0302
C4 C 0.55834(17) 0.70143(12) 0.09847(10)
H3 H 0.6668 0.6697 0.1198
C5 C 0.49808(17) 0.82406(12) 0.09435(10)
H4 H 0.5690 0.8679 0.1138
C6 C 0.39261(17) 0.88169(12) 0.02050(10)
C7 C 0.27519(16) 0.98545(12) 0.02785(10)
C8 C 0.22479(19) 1.05536(13) 0.10284(11)
H5 H 0.2689 1.0364 0.1627
C9 C 0.1093(2) 1.15251(13) 0.08743(12)
H6 H 0.0741 1.2018 0.1371
C10 C 0.04311(19) 1.17965(13) -0.00018(12)
H7 H -0.0375 1.2467 -0.0082
C11 C 0.09129(18) 1.11191(12) -0.07570(11)
H8 H 0.0453 1.1308 -0.1349
C12 C 0.21065(17) 1.01467(12) -0.06058(10)
C13 C 0.24449(18) 0.91373(13) -0.21083(11)
C14 C 0.1369(2) 1.02563(15) -0.35531(11)
C15 C 0.0584(2) 1.14955(16) -0.36952(14)
H9 H -0.0422 1.1650 -0.3239
H10 H 0.0348 1.1703 -0.4370
H11 H 0.1318 1.1936 -0.3568
C16 C 0.2915(3) 0.9987(2) -0.42510(14)
H12 H 0.3398 0.9182 -0.4150
H13 H 0.3668 1.0416 -0.4130
H14 H 0.2684 1.0190 -0.4927
C17 C 0.0170(3) 0.95492(18) -0.35847(14)
H15 H 0.0699 0.8751 -0.3493
H16 H -0.0227 0.9723 -0.4221
H17 H -0.0739 0.9716 -0.3061
C18 C 0.73079(17) 0.58624(12) -0.10172(11)
C19 C 0.96832(19) 0.54914(14) -0.22405(12)
C20 C 1.0143(2) 0.61885(18) -0.31850(14)
H18 H 1.0250 0.6918 -0.3039
H19 H 0.9304 0.6304 -0.3607
H20 H 1.1172 0.5796 -0.3522
C21 C 0.9507(2) 0.43497(16) -0.24320(15)
H21 H 0.9211 0.3917 -0.1808
H22 H 1.0533 0.3945 -0.2763
H23 H 0.8664 0.4451 -0.2849
C22 C 1.0848(2) 0.54019(17) -0.15246(15)
H24 H 1.0522 0.4947 -0.0920
H25 H 1.0842 0.6155 -0.1376
H26 H 1.1936 0.5045 -0.1813
C23 C 0.43600(18) 0.61115(12) 0.33751(10)
C24 C 0.3290(2) 0.60036(14) 0.42216(11)
H27 H 0.2706 0.6639 0.4541
C25 C 0.3104(2) 0.49290(14) 0.45859(12)
H28 H 0.2389 0.4818 0.5172
C26 C 0.3949(2) 0.40187(14) 0.41027(11)
C27 C 0.4983(2) 0.42379(14) 0.32505(12)
H29 H 0.5565 0.3621 0.2906
C28 C 0.3787(3) 0.28374(16) 0.44658(14)
H30 H 0.3013 0.2840 0.5069
H31 H 0.4839 0.2375 0.4600
H32 H 0.3405 0.2526 0.3965
N1 N 0.28840(14) 0.93036(10) -0.12165(9)
N2 N 0.58766(14) 0.66576(10) -0.07204(9)
N3 N 0.42404(14) 0.74748(10) 0.17452(8)
N4 N 0.52066(17) 0.52570(11) 0.28878(10)
O1 O 0.58343(13) 0.79718(10) -0.20885(8)
O2 O 0.77131(13) 0.50033(9) -0.04969(9)
O3 O 0.80670(12) 0.61802(9) -0.18763(8)
O4 O 0.26459(14) 0.82323(9) -0.23760(8)
O5 O 0.18054(13) 1.01331(9) -0.25506(8)
O6 O 0.64190(13) 0.74046(10) 0.28198(8)
O7 O 0.35827(14) 0.82990(9) 0.33388(8)
S1 S 0.47370(5) 0.74423(3) 0.28538(3)
loop_
_geom_bond_atom_site_label_1
_geom_bond_atom_site_label_2
_geom_bond_site_symmetry_1
_geom_bond_site_symmetry_2
C1 C2 1_555 1_555
C2 N2 1_555 1_555
C3 H1 1_555 1_555
H2 C3 1_555 1_555
C4 C3 1_555 1_555
H3 C4 1_555 1_555
C5 C4 1_555 1_555
H4 C5 1_555 1_555
C6 C1 1_555 1_555
C7 C6 1_555 1_555
C8 C7 1_555 1_555
H5 C8 1_555 1_555
C9 C8 1_555 1_555
H6 C9 1_555 1_555
C10 C9 1_555 1_555
H7 C10 1_555 1_555
C11 C10 1_555 1_555
H8 C11 1_555 1_555
C12 C7 1_555 1_555
C13 N1 1_555 1_555
C14 C15 1_555 1_555
C15 H9 1_555 1_555
H10 C15 1_555 1_555
H11 C15 1_555 1_555
C16 C14 1_555 1_555
H12 C16 1_555 1_555
H13 C16 1_555 1_555
H14 C16 1_555 1_555
C17 C14 1_555 1_555
H15 C17 1_555 1_555
H16 C17 1_555 1_555
H17 C17 1_555 1_555
C18 N2 1_555 1_555
C19 C20 1_555 1_555
C20 H18 1_555 1_555
H19 C20 1_555 1_555
H20 C20 1_555 1_555
C21 C19 1_555 1_555
H21 C21 1_555 1_555
H22 C21 1_555 1_555
H23 C21 1_555 1_555
C22 C19 1_555 1_555
H24 C22 1_555 1_555
H25 C22 1_555 1_555
H26 C22 1_555 1_555
C23 C24 1_555 1_555
C24 H27 1_555 1_555
C25 C24 1_555 1_555
H28 C25 1_555 1_555
C26 C25 1_555 1_555
C27 C26 1_555 1_555
H29 C27 1_555 1_555
C28 C26 1_555 1_555
H30 C28 1_555 1_555
H31 C28 1_555 1_555
H32 C28 1_555 1_555
N1 C1 1_555 1_555
N2 C3 1_555 1_555
N3 C4 1_555 1_555
N4 C23 1_555 1_555
O1 C2 1_555 1_555
O2 C18 1_555 1_555
O3 C18 1_555 1_555
O4 C13 1_555 1_555
O5 C13 1_555 1_555
O6 S1 1_555 1_555
O7 S1 1_555 1_555
S1 C23 1_555 1_555
C5 C6 1_555 1_555
C5 N3 1_555 1_555
C11 C12 1_555 1_555
C12 N1 1_555 1_555
C14 O5 1_555 1_555
C19 O3 1_555 1_555
C27 N4 1_555 1_555
N3 S1 1_555 1_555

#END
