
#######################################################################
#
#                 Cambridge Crystallographic Data Centre
#                                CCDC 
#
#######################################################################
#
# If this CIF has been generated from an entry in the Cambridge 
# Structural Database, then it will include bibliographic, chemical, 
# crystal, experimental, refinement or atomic coordinate data resulting 
# from the CCDC's data processing and validation procedures.
#
#######################################################################

data_VISSAS
_chemical_formula_moiety         'C29 H33 N3 O7 S1'
_chemical_name_systematic        
"(+-)-Di-t-butyl 1-((4-methylphenyl)sulfonyl)-4-oxo-1a,2,4,9c-tetrahydro-1H-azireno(2',3':5,6)azepino(3,4-b)indole-3,5-dicarboxylate"
_symmetry_cell_setting           monoclinic
_symmetry_space_group_name_H-M   'P 21/c'
_symmetry_Int_Tables_number      14
_space_group_name_Hall           '-P 2ybc'
loop_
_symmetry_equiv_pos_site_id
_symmetry_equiv_pos_as_xyz
1 x,y,z
2 -x,1/2+y,1/2-z
3 -x,-y,-z
4 x,1/2-y,1/2+z
_cell_length_a                   9.5642(6)
_cell_length_b                   27.4004(19)
_cell_length_c                   11.5292(6)
_cell_angle_alpha                90
_cell_angle_beta                 99.372(5)
_cell_angle_gamma                90
_cell_volume                     2981.05
_exptl_crystal_colour            colorless
_exptl_crystal_description       needle
_chemical_melting_point          '169-170 deg.C'
_cell_formula_units_Z            4
_exptl_crystal_recrystallization_method 'ethyl acetate'
loop_
_atom_site_label
_atom_site_type_symbol
_atom_site_fract_x
_atom_site_fract_y
_atom_site_fract_z
C1 C 0.3389(5) -0.2464(2) 0.6903(7)
H1 H 0.3242 -0.2465 0.6059
H2 H 0.2586 -0.2319 0.7170
H3 H 0.3503 -0.2794 0.7187
C2 C 0.6027(6) -0.2316(3) 0.6813(6)
H4 H 0.5801 -0.2282 0.5975
H5 H 0.6266 -0.2650 0.7006
H6 H 0.6818 -0.2111 0.7108
C3 C 0.4864(11) -0.2193(3) 0.8716(3)
H7 H 0.3988 -0.2090 0.8943
H8 H 0.5617 -0.1984 0.9073
H9 H 0.5064 -0.2523 0.8971
C10 C 1.0945(11) -0.1452(5) 0.7738(11)
H28 H 1.0369 -0.1731 0.7830
H29 H 1.1926 -0.1544 0.7879
H30 H 1.0702 -0.1327 0.6953
C11 C 1.0961(11) -0.1279(5) 0.9863(6)
H31 H 1.0410 -0.1571 0.9874
H32 H 1.0697 -0.1050 1.0418
H33 H 1.1949 -0.1357 1.0071
C12 C 1.1548(10) -0.0585(2) 0.8566(14)
H34 H 1.1325 -0.0358 0.9143
H35 H 1.1317 -0.0443 0.7798
H36 H 1.2541 -0.0660 0.8723
S1 S 0.49665(9) 0.10507(3) 0.83239(7)
O1 O 0.6971(2) -0.11765(8) 0.6776(2)
O2 O 0.8821(2) -0.05469(10) 0.9856(2)
O3 O 0.9170(2) -0.09461(8) 0.8234(2)
O4 O 0.3632(3) -0.17323(8) 0.5162(2)
O5 O 0.4451(2) -0.16390(6) 0.71001(18)
O6 O 0.6145(2) 0.12207(7) 0.7810(2)
O7 O 0.4962(3) 0.11350(8) 0.95443(19)
N1 N 0.4103(2) -0.09774(7) 0.5964(2)
N2 N 0.6992(2) -0.06514(8) 0.8349(2)
N3 N 0.4754(3) 0.04461(8) 0.8144(2)
C13 C 0.4997(3) -0.06725(9) 0.6729(2)
C14 C 0.6405(3) -0.08629(10) 0.7278(3)
C15 C 0.6141(3) -0.03039(10) 0.8922(3)
H37 H 0.6548 -0.0268 0.9745
H38 H 0.5180 -0.0425 0.8875
C16 C 0.6131(3) 0.01802(10) 0.8309(3)
H39 H 0.6990 0.0379 0.8493
C17 C 0.5318(3) 0.02289(9) 0.7117(3)
H40 H 0.5692 0.0459 0.6594
C18 C 0.4552(3) -0.02012(9) 0.6548(2)
C19 C 0.3342(3) -0.02006(9) 0.5643(3)
C20 C 0.2478(3) 0.01707(11) 0.5071(3)
H41 H 0.2634 0.0495 0.5290
C21 C 0.1408(4) 0.00469(12) 0.4193(3)
H42 H 0.0836 0.0291 0.3807
C22 C 0.1155(4) -0.04372(13) 0.3862(3)
H43 H 0.0409 -0.0509 0.3262
C23 C 0.1975(3) -0.08134(11) 0.4393(3)
H44 H 0.1799 -0.1136 0.4168
C24 C 0.3076(3) -0.06869(10) 0.5282(3)
C25 C 0.4042(3) -0.14908(10) 0.6021(3)
C26 C 0.4739(3) -0.21665(11) 0.7376(3)
C27 C 0.8421(3) -0.07091(10) 0.8899(3)
C28 C 1.0685(3) -0.10550(11) 0.8622(3)
C29 C 0.3413(3) 0.12888(9) 0.7509(3)
C30 C 0.2232(4) 0.13590(13) 0.8019(3)
H45 H 0.2202 0.1245 0.8774
C31 C 0.1082(4) 0.16027(15) 0.7392(4)
H46 H 0.0284 0.1652 0.7744
C32 C 0.1076(4) 0.17720(12) 0.6284(4)
C33 C 0.2251(5) 0.16771(12) 0.5766(3)
H47 H 0.2251 0.1773 0.4992
C34 C 0.3415(4) 0.14453(12) 0.6367(3)
H48 H 0.4206 0.1393 0.6010
C35 C -0.0156(5) 0.20697(17) 0.5646(5)
H49 H 0.0029 0.2156 0.4879
H50 H -0.0265 0.2361 0.6086
H51 H -0.1010 0.1880 0.5572
C4? C 0.3443(10) -0.2440(5) 0.7674(15)
H10? H 0.2993 -0.2246 0.8201
H11? H 0.3739 -0.2745 0.8043
H12? H 0.2785 -0.2499 0.6966
C5? C 0.5655(10) -0.2396(3) 0.6545(7)
H13? H 0.6417 -0.2178 0.6455
H14? H 0.5085 -0.2453 0.5792
H15? H 0.6037 -0.2700 0.6868
C6? C 0.5711(11) -0.2094(4) 0.8574(6)
H16? H 0.5175 -0.1951 0.9123
H17? H 0.6483 -0.1883 0.8476
H18? H 0.6076 -0.2405 0.8868
C7? C 1.1110(10) -0.1259(6) 0.7486(6)
H19? H 1.1034 -0.1006 0.6903
H20? H 1.0492 -0.1524 0.7200
H21? H 1.2070 -0.1374 0.7646
C8? C 1.0770(13) -0.1432(5) 0.9618(11)
H22? H 1.0234 -0.1717 0.9336
H23? H 1.0389 -0.1294 1.0265
H24? H 1.1742 -0.1522 0.9874
C9? C 1.1511(12) -0.0582(3) 0.8980(16)
H25? H 1.1414 -0.0364 0.8321
H26? H 1.2494 -0.0658 0.9228
H27? H 1.1140 -0.0430 0.9616
loop_
_geom_bond_atom_site_label_1
_geom_bond_atom_site_label_2
_geom_bond_site_symmetry_1
_geom_bond_site_symmetry_2
C1 H1 1_555 1_555
H2 C1 1_555 1_555
H3 C1 1_555 1_555
C2 H4 1_555 1_555
H5 C2 1_555 1_555
H6 C2 1_555 1_555
C3 H7 1_555 1_555
H8 C3 1_555 1_555
H9 C3 1_555 1_555
C10 H28 1_555 1_555
H29 C10 1_555 1_555
H30 C10 1_555 1_555
C11 H31 1_555 1_555
H32 C11 1_555 1_555
H33 C11 1_555 1_555
C12 H34 1_555 1_555
H35 C12 1_555 1_555
H36 C12 1_555 1_555
S1 O6 1_555 1_555
O1 C14 1_555 1_555
O2 C27 1_555 1_555
O3 C27 1_555 1_555
O4 C25 1_555 1_555
O5 C25 1_555 1_555
O7 S1 1_555 1_555
N1 C13 1_555 1_555
N2 C14 1_555 1_555
N3 S1 1_555 1_555
C13 C14 1_555 1_555
C15 N2 1_555 1_555
H37 C15 1_555 1_555
H38 C15 1_555 1_555
C16 N3 1_555 1_555
H39 C16 1_555 1_555
C17 N3 1_555 1_555
H40 C17 1_555 1_555
C18 C13 1_555 1_555
C19 C18 1_555 1_555
C20 C19 1_555 1_555
H41 C20 1_555 1_555
C21 C20 1_555 1_555
H42 C21 1_555 1_555
C22 C21 1_555 1_555
H43 C22 1_555 1_555
C23 C22 1_555 1_555
H44 C23 1_555 1_555
C24 N1 1_555 1_555
C25 N1 1_555 1_555
C26 C1 1_555 1_555
C27 N2 1_555 1_555
C28 C10 1_555 1_555
C29 S1 1_555 1_555
C30 C29 1_555 1_555
H45 C30 1_555 1_555
C31 C30 1_555 1_555
H46 C31 1_555 1_555
C32 C31 1_555 1_555
C33 C32 1_555 1_555
H47 C33 1_555 1_555
C34 C29 1_555 1_555
H48 C34 1_555 1_555
C35 C32 1_555 1_555
H49 C35 1_555 1_555
H50 C35 1_555 1_555
H51 C35 1_555 1_555
C2 C26 1_555 1_555
C3 C26 1_555 1_555
C11 C28 1_555 1_555
C12 C28 1_555 1_555
O3 C28 1_555 1_555
O5 C26 1_555 1_555
C15 C16 1_555 1_555
C16 C17 1_555 1_555
C17 C18 1_555 1_555
C19 C24 1_555 1_555
C23 C24 1_555 1_555
C33 C34 1_555 1_555

#END
