
#######################################################################
#
#                 Cambridge Crystallographic Data Centre
#                                CCDC 
#
#######################################################################
#
# If this CIF has been generated from an entry in the Cambridge 
# Structural Database, then it will include bibliographic, chemical, 
# crystal, experimental, refinement or atomic coordinate data resulting 
# from the CCDC's data processing and validation procedures.
#
#######################################################################

data_VIWMUL
_chemical_formula_moiety         'C19 H22 N2 O3 S1'
_chemical_name_systematic        
3-Methoxy-N,N-dimethyl-N'-((4-methylphenyl)sulfonyl)-2-phenylprop-2-enimidamide
_symmetry_cell_setting           monoclinic
_symmetry_space_group_name_H-M   'P 21/c'
_symmetry_Int_Tables_number      14
_space_group_name_Hall           '-P 2ybc'
loop_
_symmetry_equiv_pos_site_id
_symmetry_equiv_pos_as_xyz
1 x,y,z
2 -x,1/2+y,1/2-z
3 -x,-y,-z
4 x,1/2-y,1/2+z
_cell_length_a                   7.9980(4)
_cell_length_b                   19.3464(8)
_cell_length_c                   13.1990(7)
_cell_angle_alpha                90
_cell_angle_beta                 110.0870(10)
_cell_angle_gamma                90
_cell_volume                     1918.08
_exptl_crystal_colour            colorless
_exptl_crystal_description       chunk
_cell_formula_units_Z            4
loop_
_atom_site_label
_atom_site_type_symbol
_atom_site_fract_x
_atom_site_fract_y
_atom_site_fract_z
S1 S 0.73554(9) 0.52061(4) 0.20263(6)
O1 O 0.8965(2) 0.56049(11) 0.24032(16)
N1 N 0.5586(3) 0.56696(12) 0.15603(18)
N2 N 0.3969(3) 0.65703(11) 0.06053(18)
C1 C 0.5433(3) 0.61743(13) 0.0860(2)
O2 O 0.7299(3) 0.46436(10) 0.13000(16)
C2 C 0.7022(3) 0.48436(13) 0.3163(2)
O3 O 0.8214(3) 0.59740(10) -0.08410(17)
C3 C 0.6761(3) 0.63516(13) 0.0337(2)
C4 C 0.7749(5) 0.51466(17) 0.4160(3)
H1 H 0.8391 0.5555 0.4229
C5 C 0.7048(4) 0.58772(15) -0.0323(2)
H2 H 0.6416 0.5464 -0.0428
C6 C 0.7689(4) 0.70252(14) 0.0608(2)
C7 C 0.6579(4) 0.42555(17) 0.4993(2)
C8 C 0.8196(5) 0.74020(16) -0.0132(3)
H3 H 0.7919 0.7238 -0.0833
C9 C 0.8092(5) 0.72991(16) 0.1632(3)
H4 H 0.7760 0.7061 0.2145
C10 C 0.5852(4) 0.39543(16) 0.3998(3)
H5 H 0.5193 0.3550 0.3931
C11 C 0.3407(4) 0.70183(16) -0.0337(3)
H6 H 0.4366 0.7071 -0.0611
H7 H 0.3083 0.7463 -0.0138
H8 H 0.2399 0.6817 -0.0883
C12 C 0.6077(4) 0.42387(15) 0.3089(2)
H9 H 0.5587 0.4020 0.2425
C13 C 0.8471(5) 0.54015(17) -0.1455(3)
H10 H 0.9248 0.5071 -0.0980
H11 H 0.8994 0.5561 -0.1967
H12 H 0.7344 0.5188 -0.1830
C14 C 0.2660(4) 0.64784(19) 0.1133(3)
H13 H 0.1691 0.6202 0.0684
H14 H 0.2219 0.6922 0.1251
H15 H 0.3205 0.6250 0.1813
C15 C 0.9110(6) 0.80192(19) 0.0158(5)
H16 H 0.9465 0.8259 -0.0345
C16 C 0.8980(5) 0.79226(19) 0.1904(4)
H17 H 0.9228 0.8100 0.2596
C17 C 0.7536(5) 0.48521(19) 0.5061(3)
H18 H 0.8054 0.5063 0.5729
C18 C 0.6392(6) 0.3943(2) 0.5995(3)
H19 H 0.5409 0.3626 0.5794
H20 H 0.6182 0.4303 0.6437
H21 H 0.7466 0.3701 0.6390
C19 C 0.9495(5) 0.8281(2) 0.1173(5)
H22 H 1.0102 0.8697 0.1362
loop_
_geom_bond_atom_site_label_1
_geom_bond_atom_site_label_2
_geom_bond_site_symmetry_1
_geom_bond_site_symmetry_2
S1 O1 1_555 1_555
N1 S1 1_555 1_555
N2 C1 1_555 1_555
C1 N1 1_555 1_555
O2 S1 1_555 1_555
C2 S1 1_555 1_555
O3 C5 1_555 1_555
C3 C1 1_555 1_555
C4 C2 1_555 1_555
H1 C4 1_555 1_555
C5 C3 1_555 1_555
H2 C5 1_555 1_555
C6 C3 1_555 1_555
C7 C10 1_555 1_555
C8 C6 1_555 1_555
H3 C8 1_555 1_555
C9 C6 1_555 1_555
H4 C9 1_555 1_555
C10 H5 1_555 1_555
C11 N2 1_555 1_555
H6 C11 1_555 1_555
H7 C11 1_555 1_555
H8 C11 1_555 1_555
C12 C2 1_555 1_555
H9 C12 1_555 1_555
C13 O3 1_555 1_555
H10 C13 1_555 1_555
H11 C13 1_555 1_555
H12 C13 1_555 1_555
C14 N2 1_555 1_555
H13 C14 1_555 1_555
H14 C14 1_555 1_555
H15 C14 1_555 1_555
C15 C8 1_555 1_555
H16 C15 1_555 1_555
C16 C9 1_555 1_555
H17 C16 1_555 1_555
C17 C4 1_555 1_555
H18 C17 1_555 1_555
C18 C7 1_555 1_555
H19 C18 1_555 1_555
H20 C18 1_555 1_555
H21 C18 1_555 1_555
C19 C15 1_555 1_555
H22 C19 1_555 1_555
C7 C17 1_555 1_555
C10 C12 1_555 1_555
C16 C19 1_555 1_555

#END
