
#######################################################################
#
#                 Cambridge Crystallographic Data Centre
#                                CCDC 
#
#######################################################################
#
# If this CIF has been generated from an entry in the Cambridge 
# Structural Database, then it will include bibliographic, chemical, 
# crystal, experimental, refinement or atomic coordinate data resulting 
# from the CCDC's data processing and validation procedures.
#
#######################################################################

data_VIYRUR
_chemical_formula_moiety         'C8 H11 F3 O4 S2'
_chemical_name_systematic        
1-(trifluoromethanesulfonyl)-1-(1-oxo-tetrahydro-1-\l^4^-thiophen-1-ylidene)propan-2-one
_symmetry_cell_setting           monoclinic
_symmetry_space_group_name_H-M   'P 21/c'
_symmetry_Int_Tables_number      14
_space_group_name_Hall           '-P 2ybc'
loop_
_symmetry_equiv_pos_site_id
_symmetry_equiv_pos_as_xyz
1 x,y,z
2 -x,1/2+y,1/2-z
3 -x,-y,-z
4 x,1/2-y,1/2+z
_cell_length_a                   9.3534(14)
_cell_length_b                   12.3263(18)
_cell_length_c                   10.1592(15)
_cell_angle_alpha                90
_cell_angle_beta                 96.144(5)
_cell_angle_gamma                90
_cell_volume                     1164.55
_exptl_crystal_colour            colorless
_exptl_crystal_description       block
_chemical_melting_point          '148-150 deg.C'
_cell_formula_units_Z            4
loop_
_atom_site_label
_atom_site_type_symbol
_atom_site_fract_x
_atom_site_fract_y
_atom_site_fract_z
S1 S 0.00428(7) 0.78696(5) 0.20116(6)
S2 S 0.27486(8) 0.66937(5) 0.23429(6)
F1 F 0.3701(3) 0.6408(2) 0.0038(3)
F2 F 0.3743(3) 0.4999(2) 0.1234(2)
F3 F 0.1771(3) 0.55512(19) 0.0245(2)
O1 O -0.0314(2) 0.8192(2) 0.33029(19)
O2 O 0.1737(2) 0.96866(15) 0.1599(2)
O3 O 0.4190(2) 0.69221(19) 0.2863(2)
O4 O 0.1860(3) 0.60365(18) 0.3080(2)
C1 C -0.0897(3) 0.8673(2) 0.0742(3)
H1 H -0.0982 0.9417 0.1034
H2 H -0.0403 0.8667 -0.0050
C2 C -0.2356(4) 0.8152(3) 0.0482(5)
H3 H -0.3069 0.8619 0.0818
H4 H -0.2602 0.8076 -0.0465
C3 C -0.2399(4) 0.7061(3) 0.1123(4)
H5 H -0.2920 0.6555 0.0517
H6 H -0.2896 0.7112 0.1911
C4 C -0.0881(3) 0.6654(2) 0.1490(3)
H7 H -0.0488 0.6334 0.0734
H8 H -0.0843 0.6126 0.2201
C5 C 0.1837(3) 0.78202(18) 0.1802(2)
C6 C 0.2484(3) 0.8871(2) 0.1580(2)
C7 C 0.4013(3) 0.8958(3) 0.1285(3)
H9 H 0.4253 0.9707 0.1174
H10 H 0.4132 0.8567 0.0487
H11 H 0.4634 0.8655 0.2005
C8 C 0.3002(4) 0.5866(3) 0.0873(3)
loop_
_geom_bond_atom_site_label_1
_geom_bond_atom_site_label_2
_geom_bond_site_symmetry_1
_geom_bond_site_symmetry_2
S1 O1 1_555 1_555
S2 O3 1_555 1_555
F1 C8 1_555 1_555
F2 C8 1_555 1_555
F3 C8 1_555 1_555
O2 C6 1_555 1_555
O4 S2 1_555 1_555
C1 S1 1_555 1_555
H1 C1 1_555 1_555
H2 C1 1_555 1_555
C2 C1 1_555 1_555
H3 C2 1_555 1_555
H4 C2 1_555 1_555
C3 C2 1_555 1_555
H5 C3 1_555 1_555
H6 C3 1_555 1_555
C4 S1 1_555 1_555
H7 C4 1_555 1_555
H8 C4 1_555 1_555
C5 S1 1_555 1_555
C6 C5 1_555 1_555
C7 C6 1_555 1_555
H9 C7 1_555 1_555
H10 C7 1_555 1_555
H11 C7 1_555 1_555
C8 S2 1_555 1_555
S2 C5 1_555 1_555
C3 C4 1_555 1_555

#END
