
#######################################################################
#
#                 Cambridge Crystallographic Data Centre
#                                CCDC 
#
#######################################################################
#
# If this CIF has been generated from an entry in the Cambridge 
# Structural Database, then it will include bibliographic, chemical, 
# crystal, experimental, refinement or atomic coordinate data resulting 
# from the CCDC's data processing and validation procedures.
#
#######################################################################

data_VIYSAY
_chemical_formula_moiety         'C30 H20 As1 Cl1 F8 O3 S1'
_chemical_name_systematic        
2-(4-chloro-1,1,2,2,3,3,4,4-octafluorobutane-1-sulfonyl)-2-(triphenyl-5-arsanylidene)-1-phenylethanone
_symmetry_cell_setting           triclinic
_symmetry_space_group_name_H-M   'P -1'
_symmetry_Int_Tables_number      2
_space_group_name_Hall           '-P 1'
loop_
_symmetry_equiv_pos_site_id
_symmetry_equiv_pos_as_xyz
1 x,y,z
2 -x,-y,-z
_cell_length_a                   10.6294(10)
_cell_length_b                   11.6971(11)
_cell_length_c                   12.4767(12)
_cell_angle_alpha                80.7060(10)
_cell_angle_beta                 85.4170(10)
_cell_angle_gamma                75.1610(10)
_cell_volume                     1478.64
_chemical_melting_point          '196-198 deg.C'
_cell_formula_units_Z            2
loop_
_atom_site_label
_atom_site_type_symbol
_atom_site_fract_x
_atom_site_fract_y
_atom_site_fract_z
As1 As 0.79103(6) 0.78667(6) 0.21795(5)
S1 S 0.49012(16) 0.82647(17) 0.21887(14)
Cl1 Cl 0.1070(7) 0.8405(5) 0.5909(6)
F1 F 0.5675(6) 0.6429(6) 0.3716(7)
F2 F 0.4940(13) 0.5950(8) 0.2472(7)
F3 F 0.3671(7) 0.5615(5) 0.4350(6)
F4 F 0.2549(17) 0.6840(9) 0.3044(14)
F5 F 0.2443(5) 0.8670(5) 0.3772(5)
F6 F 0.3982(8) 0.7732(8) 0.4993(6)
F7 F 0.2316(13) 0.6387(9) 0.6041(7)
F8 F 0.1017(11) 0.7007(13) 0.4737(12)
C1 C 0.6358(6) 0.7888(6) 0.1530(5)
C2 C 0.6604(6) 0.7795(6) 0.0399(5)
C3 C 0.5665(7) 0.7603(6) -0.0348(5)
C4 C 0.4971(9) 0.6736(7) -0.0086(7)
H1 H 0.5006 0.6308 0.0612
C5 C 0.4230(10) 0.6496(9) -0.0838(10)
H2 H 0.3774 0.5907 -0.0657
C6 C 0.4178(10) 0.7161(12) -0.1889(9)
H3 H 0.3690 0.7005 -0.2410
C7 C 0.4828(10) 0.8017(11) -0.2141(7)
H4 H 0.4771 0.8461 -0.2833
C8 C 0.5579(8) 0.8250(8) -0.1391(6)
H5 H 0.6031 0.8842 -0.1583
C9 C 0.8547(6) 0.9262(6) 0.1693(5)
C10 C 0.7963(7) 1.0110(6) 0.0854(6)
H6 H 0.7228 1.0036 0.0541
C11 C 0.8497(8) 1.1071(6) 0.0491(7)
H7 H 0.8112 1.1647 -0.0070
C12 C 0.9572(8) 1.1191(7) 0.0938(7)
H8 H 0.9919 1.1841 0.0676
C13 C 1.0153(9) 1.0352(8) 0.1780(7)
H9 H 1.0892 1.0433 0.2082
C14 C 0.9631(8) 0.9393(7) 0.2171(6)
H10 H 1.0002 0.8837 0.2751
C15 C 0.9158(7) 0.6450(6) 0.1845(5)
C16 C 1.0444(7) 0.6429(7) 0.1651(6)
H11 H 1.0737 0.7109 0.1669
C17 C 1.1327(9) 0.5361(10) 0.1422(8)
H12 H 1.2208 0.5333 0.1295
C18 C 1.0889(11) 0.4382(9) 0.1388(7)
H13 H 1.1471 0.3686 0.1222
C19 C 0.9581(11) 0.4398(8) 0.1598(8)
H14 H 0.9290 0.3715 0.1592
C20 C 0.8730(9) 0.5435(7) 0.1813(7)
H15 H 0.7851 0.5459 0.1939
C21 C 0.7801(6) 0.7708(6) 0.3741(5)
C22 C 0.8249(8) 0.6602(7) 0.4358(6)
H16 H 0.8597 0.5932 0.4018
C23 C 0.8181(9) 0.6494(8) 0.5472(7)
H17 H 0.8483 0.5751 0.5887
C24 C 0.7671(9) 0.7475(10) 0.5969(6)
H18 H 0.7612 0.7393 0.6724
C25 C 0.7240(9) 0.8584(9) 0.5372(7)
H19 H 0.6900 0.9247 0.5723
C26 C 0.7313(8) 0.8714(7) 0.4250(6)
H20 H 0.7039 0.9465 0.3840
C27 C 0.4683(10) 0.6836(9) 0.3061(7)
C28 C 0.3515(14) 0.6720(12) 0.3778(13)
C29 C 0.2910(12) 0.7576(11) 0.4458(10)
C30 C 0.1880(11) 0.7336(16) 0.5349(10)
O1 O 0.7689(5) 0.7872(4) -0.0007(4)
O2 O 0.3858(5) 0.8601(6) 0.1457(5)
O3 O 0.4956(5) 0.8988(5) 0.2996(4)
loop_
_geom_bond_atom_site_label_1
_geom_bond_atom_site_label_2
_geom_bond_site_symmetry_1
_geom_bond_site_symmetry_2
As1 C1 1_555 1_555
S1 C1 1_555 1_555
Cl1 C30 1_555 1_555
F1 C27 1_555 1_555
F2 C27 1_555 1_555
F3 C28 1_555 1_555
F4 C28 1_555 1_555
F5 C29 1_555 1_555
F6 C29 1_555 1_555
F7 C30 1_555 1_555
F8 C30 1_555 1_555
C1 C2 1_555 1_555
C2 C3 1_555 1_555
C3 C4 1_555 1_555
C4 H1 1_555 1_555
C5 C4 1_555 1_555
H2 C5 1_555 1_555
C6 C5 1_555 1_555
H3 C6 1_555 1_555
C7 C6 1_555 1_555
H4 C7 1_555 1_555
C8 C3 1_555 1_555
H5 C8 1_555 1_555
C9 As1 1_555 1_555
C10 C9 1_555 1_555
H6 C10 1_555 1_555
C11 C10 1_555 1_555
H7 C11 1_555 1_555
C12 C11 1_555 1_555
H8 C12 1_555 1_555
C13 C12 1_555 1_555
H9 C13 1_555 1_555
C14 C9 1_555 1_555
H10 C14 1_555 1_555
C15 As1 1_555 1_555
C16 C15 1_555 1_555
H11 C16 1_555 1_555
C17 C16 1_555 1_555
H12 C17 1_555 1_555
C18 C17 1_555 1_555
H13 C18 1_555 1_555
C19 C18 1_555 1_555
H14 C19 1_555 1_555
C20 C15 1_555 1_555
H15 C20 1_555 1_555
C21 As1 1_555 1_555
C22 C21 1_555 1_555
H16 C22 1_555 1_555
C23 C22 1_555 1_555
H17 C23 1_555 1_555
C24 C23 1_555 1_555
H18 C24 1_555 1_555
C25 C24 1_555 1_555
H19 C25 1_555 1_555
C26 C21 1_555 1_555
H20 C26 1_555 1_555
C27 S1 1_555 1_555
C28 C27 1_555 1_555
C29 C28 1_555 1_555
C30 C29 1_555 1_555
O1 C2 1_555 1_555
O2 S1 1_555 1_555
O3 S1 1_555 1_555
C7 C8 1_555 1_555
C13 C14 1_555 1_555
C19 C20 1_555 1_555
C25 C26 1_555 1_555

#END
