
#######################################################################
#
#                 Cambridge Crystallographic Data Centre
#                                CCDC 
#
#######################################################################
#
# If this CIF has been generated from an entry in the Cambridge 
# Structural Database, then it will include bibliographic, chemical, 
# crystal, experimental, refinement or atomic coordinate data resulting 
# from the CCDC's data processing and validation procedures.
#
#######################################################################

data_VIYTOO
_chemical_formula_moiety         'C17 H18 O4 S2'
_chemical_name_systematic        
1,1'-(Prop-1-ene-1,3-diyldisulfonyl)bis(4-methylbenzene)
_symmetry_cell_setting           orthorhombic
_symmetry_space_group_name_H-M   'P b c a'
_symmetry_Int_Tables_number      61
_space_group_name_Hall           '-P 2ac 2ab'
loop_
_symmetry_equiv_pos_site_id
_symmetry_equiv_pos_as_xyz
1 x,y,z
2 1/2+x,1/2-y,-z
3 -x,1/2+y,1/2-z
4 1/2-x,-y,1/2+z
5 -x,-y,-z
6 1/2-x,1/2+y,z
7 x,1/2-y,1/2+z
8 1/2+x,y,1/2-z
_cell_length_a                   17.3091(4)
_cell_length_b                   10.6923(3)
_cell_length_c                   18.0776(5)
_cell_angle_alpha                90
_cell_angle_beta                 90
_cell_angle_gamma                90
_cell_volume                     3345.7
_exptl_crystal_colour            colorless
_cell_formula_units_Z            8
loop_
_atom_site_label
_atom_site_type_symbol
_atom_site_fract_x
_atom_site_fract_y
_atom_site_fract_z
S1 S 0.19760(3) 0.76669(5) 0.43044(3)
S2 S -0.00017(3) 0.42187(5) 0.37118(3)
O1 O 0.27193(9) 0.79306(16) 0.46276(9)
O2 O -0.06120(8) 0.51196(14) 0.37914(8)
O3 O -0.01309(9) 0.29611(14) 0.39750(9)
O4 O 0.14176(9) 0.86558(14) 0.42627(9)
C1 C 0.23996(15) 0.5393(3) 0.12683(13)
H1 H 0.1970 0.5640 0.0946
H2 H 0.2414 0.4480 0.1310
H3 H 0.2887 0.5692 0.1057
C2 C 0.22881(12) 0.5960(2) 0.20247(12)
C3 C 0.17000(12) 0.6806(2) 0.21595(12)
H4 H 0.1358 0.7029 0.1770
C4 C 0.16010(12) 0.73342(19) 0.28519(12)
H5 H 0.1187 0.7899 0.2940
C5 C 0.21100(11) 0.70336(18) 0.34167(11)
C6 C 0.15638(12) 0.6404(2) 0.48173(11)
H6 H 0.1949 0.5724 0.4866
H7 H 0.1428 0.6697 0.5320
C7 C 0.08538(12) 0.59078(19) 0.44426(11)
H8 H 0.0408 0.6423 0.4413
C8 C 0.08329(11) 0.47723(18) 0.41531(11)
H9 H 0.1276 0.4250 0.4185
C9 C 0.02521(11) 0.41310(17) 0.27687(11)
C10 C 0.07341(13) 0.31782(18) 0.25251(12)
H10 H 0.0955 0.2607 0.2868
C11 C 0.08888(14) 0.30711(19) 0.17778(12)
H11 H 0.1220 0.2422 0.1610
C12 C 0.05686(13) 0.3897(2) 0.12660(12)
C13 C 0.07133(15) 0.3738(2) 0.04496(12)
H12 H 0.0230 0.3503 0.0203
H13 H 0.1099 0.3080 0.0373
H14 H 0.0904 0.4527 0.0242
C14 C -0.00473(12) 0.4992(2) 0.22740(12)
H15 H -0.0359 0.5663 0.2446
C15 C 0.01120(12) 0.4868(2) 0.15250(13)
H16 H -0.0095 0.5457 0.1185
C16 C 0.27027(12) 0.6172(2) 0.32985(12)
H17 H 0.3045 0.5952 0.3688
C17 C 0.27836(13) 0.5644(2) 0.26061(13)
H18 H 0.3184 0.5054 0.2523
loop_
_geom_bond_atom_site_label_1
_geom_bond_atom_site_label_2
_geom_bond_site_symmetry_1
_geom_bond_site_symmetry_2
S1 O1 1_555 1_555
S2 O2 1_555 1_555
O3 S2 1_555 1_555
O4 S1 1_555 1_555
C1 H1 1_555 1_555
H2 C1 1_555 1_555
H3 C1 1_555 1_555
C2 C1 1_555 1_555
C3 C2 1_555 1_555
H4 C3 1_555 1_555
C4 C3 1_555 1_555
H5 C4 1_555 1_555
C5 S1 1_555 1_555
C6 S1 1_555 1_555
H6 C6 1_555 1_555
H7 C6 1_555 1_555
C7 C6 1_555 1_555
H8 C7 1_555 1_555
C8 S2 1_555 1_555
H9 C8 1_555 1_555
C9 S2 1_555 1_555
C10 C9 1_555 1_555
H10 C10 1_555 1_555
C11 C10 1_555 1_555
H11 C11 1_555 1_555
C12 C11 1_555 1_555
C13 C12 1_555 1_555
H12 C13 1_555 1_555
H13 C13 1_555 1_555
H14 C13 1_555 1_555
C14 C9 1_555 1_555
H15 C14 1_555 1_555
C15 C12 1_555 1_555
H16 C15 1_555 1_555
C16 C5 1_555 1_555
H17 C16 1_555 1_555
C17 C2 1_555 1_555
H18 C17 1_555 1_555
C4 C5 1_555 1_555
C7 C8 1_555 1_555
C14 C15 1_555 1_555
C16 C17 1_555 1_555

#END
