
#######################################################################
#
#                 Cambridge Crystallographic Data Centre
#                                CCDC 
#
#######################################################################
#
# If this CIF has been generated from an entry in the Cambridge 
# Structural Database, then it will include bibliographic, chemical, 
# crystal, experimental, refinement or atomic coordinate data resulting 
# from the CCDC's data processing and validation procedures.
#
#######################################################################

data_VIZKOG
_chemical_formula_moiety         'C7 H10 N1 1+,C6 H2 N3 O7 1-'
_chemical_name_systematic        'Phenylmethanaminium 2,4,6-trinitrophenolate'
_symmetry_cell_setting           triclinic
_symmetry_space_group_name_H-M   'P -1'
_symmetry_Int_Tables_number      2
_space_group_name_Hall           '-P 1'
loop_
_symmetry_equiv_pos_site_id
_symmetry_equiv_pos_as_xyz
1 x,y,z
2 -x,-y,-z
_cell_length_a                   7.9195(8)
_cell_length_b                   9.7316(9)
_cell_length_c                   10.7905(11)
_cell_angle_alpha                108.300(2)
_cell_angle_beta                 109.386(2)
_cell_angle_gamma                94.3360(10)
_cell_volume                     729.625
_exptl_crystal_colour            colorless
_exptl_crystal_description       block
_cell_formula_units_Z            2
loop_
_atom_site_label
_atom_site_type_symbol
_atom_site_fract_x
_atom_site_fract_y
_atom_site_fract_z
N1 N -0.1995(3) 0.4073(2) 0.0333(2)
H1 H -0.1529 0.5035 0.0650
H2 H -0.3209 0.3926 -0.0017
H3 H -0.1611 0.3593 -0.0339
C1 C -0.1384(4) 0.3512(3) 0.1515(3)
H4 H -0.2166 0.2569 0.1255
H5 H -0.1504 0.4198 0.2340
C2 C 0.0579(3) 0.3324(3) 0.1870(3)
C3 C 0.0986(5) 0.1956(3) 0.1376(3)
H6 H 0.0044 0.1140 0.0805
C4 C 0.2769(6) 0.1783(5) 0.1718(4)
H7 H 0.3027 0.0851 0.1385
C5 C 0.4159(5) 0.2973(6) 0.2545(4)
H8 H 0.5364 0.2851 0.2771
C6 C 0.3790(5) 0.4354(5) 0.3046(4)
H9 H 0.4742 0.5167 0.3597
C7 C 0.1991(4) 0.4526(3) 0.2725(3)
H10 H 0.1735 0.5452 0.3085
N2 N 0.3458(3) 0.1939(2) 0.8853(2)
N3 N -0.0182(3) -0.2666(2) 0.5142(2)
N4 N -0.3199(3) 0.1415(3) 0.6399(3)
O1 O 0.0079(2) 0.30448(18) 0.85744(18)
O2 O 0.3784(2) 0.3288(2) 0.9214(2)
O3 O 0.4621(2) 0.1256(2) 0.9267(2)
O4 O 0.1161(3) -0.3223(2) 0.5454(2)
O5 O -0.1600(3) -0.3310(2) 0.4135(2)
O6 O -0.3985(3) 0.1414(3) 0.5199(2)
O7 O -0.3724(3) 0.1918(3) 0.7335(2)
C8 C 0.0086(3) 0.1782(3) 0.7785(2)
C9 C 0.1656(3) 0.1105(3) 0.7865(2)
C10 C 0.1569(3) -0.0324(3) 0.7037(2)
H11 H 0.2617 -0.0723 0.7167
C11 C -0.0075(3) -0.1156(3) 0.6020(3)
C12 C -0.1649(3) -0.0572(3) 0.5795(3)
H12 H -0.2747 -0.1118 0.5075
C13 C -0.1536(3) 0.0822(3) 0.6662(3)
loop_
_geom_bond_atom_site_label_1
_geom_bond_atom_site_label_2
_geom_bond_site_symmetry_1
_geom_bond_site_symmetry_2
N1 H1 1_555 1_555
H2 N1 1_555 1_555
H3 N1 1_555 1_555
C1 N1 1_555 1_555
H4 C1 1_555 1_555
H5 C1 1_555 1_555
C2 C1 1_555 1_555
C3 C2 1_555 1_555
H6 C3 1_555 1_555
C4 C3 1_555 1_555
H7 C4 1_555 1_555
C5 C4 1_555 1_555
H8 C5 1_555 1_555
C6 C5 1_555 1_555
H9 C6 1_555 1_555
C7 C2 1_555 1_555
H10 C7 1_555 1_555
N2 O2 1_555 1_555
N3 O4 1_555 1_555
N4 O6 1_555 1_555
O1 C8 1_555 1_555
O3 N2 1_555 1_555
O5 N3 1_555 1_555
O7 N4 1_555 1_555
C8 C9 1_555 1_555
C9 N2 1_555 1_555
C10 C9 1_555 1_555
H11 C10 1_555 1_555
C11 N3 1_555 1_555
C12 C11 1_555 1_555
H12 C12 1_555 1_555
C13 N4 1_555 1_555
C6 C7 1_555 1_555
C8 C13 1_555 1_555
C10 C11 1_555 1_555
C12 C13 1_555 1_555

#END
