
#######################################################################
#
#                 Cambridge Crystallographic Data Centre
#                                CCDC 
#
#######################################################################
#
# If this CIF has been generated from an entry in the Cambridge 
# Structural Database, then it will include bibliographic, chemical, 
# crystal, experimental, refinement or atomic coordinate data resulting 
# from the CCDC's data processing and validation procedures.
#
#######################################################################

data_VIZWAE
_chemical_formula_moiety         'C4 H1 N7 O2,C1 H4 O1'
_chemical_name_systematic        
'4H-[1,2,5]oxadiazolo[3,4-b][1,2,3]triazolo[4,5-e]pyrazine 6-oxide methanol solvate'
_symmetry_cell_setting           monoclinic
_symmetry_space_group_name_H-M   'P 21/c'
_symmetry_Int_Tables_number      14
_space_group_name_Hall           '-P 2ybc'
loop_
_symmetry_equiv_pos_site_id
_symmetry_equiv_pos_as_xyz
1 x,y,z
2 -x,1/2+y,1/2-z
3 -x,-y,-z
4 x,1/2-y,1/2+z
_cell_length_a                   11.4905(18)
_cell_length_b                   13.491(2)
_cell_length_c                   5.4699(9)
_cell_angle_alpha                90
_cell_angle_beta                 98.337(5)
_cell_angle_gamma                90
_cell_volume                     838.974
_exptl_crystal_colour            yellow
_exptl_crystal_description       irregular
_cell_formula_units_Z            4
loop_
_atom_site_label
_atom_site_type_symbol
_atom_site_fract_x
_atom_site_fract_y
_atom_site_fract_z
O1 O 0.46988(14) 0.87877(13) 1.0518(3)
N1 N 0.51060(18) 0.83661(15) 0.8523(4)
C1 C 0.6247(2) 0.85061(15) 0.8920(4)
N2 N 0.70300(17) 0.81957(13) 0.7415(3)
C2 C 0.8096(2) 0.84216(14) 0.8377(4)
N3 N 0.90863(17) 0.82221(13) 0.7360(3)
O2 O 1.09810(15) 0.85495(13) 0.8761(3)
N4 N 0.99415(17) 0.85851(13) 0.8993(3)
N5 N 0.96163(16) 0.90452(13) 1.1114(3)
C3 C 0.84694(19) 0.89479(14) 1.0730(4)
N6 N 0.76856(15) 0.92614(12) 1.2117(3)
H1 H 0.7883 0.9594 1.3499
C4 C 0.65376(19) 0.90233(15) 1.1211(4)
N7 N 0.56010(17) 0.92004(14) 1.2216(4)
O3 O 0.81296(13) 1.03951(11) 0.6062(3)
H2 H 0.8811 1.0586 0.6633
C5 C 0.7347(2) 1.12323(19) 0.5786(5)
H3 H 0.7369 1.1567 0.7383
H4 H 0.6544 1.1005 0.5207
H5 H 0.7595 1.1695 0.4581
loop_
_geom_bond_atom_site_label_1
_geom_bond_atom_site_label_2
_geom_bond_site_symmetry_1
_geom_bond_site_symmetry_2
O1 N1 1_555 1_555
N1 C1 1_555 1_555
C1 N2 1_555 1_555
N2 C2 1_555 1_555
C2 N3 1_555 1_555
N3 N4 1_555 1_555
O2 N4 1_555 1_555
N4 N5 1_555 1_555
N5 C3 1_555 1_555
C3 C2 1_555 1_555
N6 C3 1_555 1_555
H1 N6 1_555 1_555
C4 C1 1_555 1_555
N7 O1 1_555 1_555
O3 H2 1_555 1_555
C5 O3 1_555 1_555
H3 C5 1_555 1_555
H4 C5 1_555 1_555
H5 C5 1_555 1_555
N6 C4 1_555 1_555
C4 N7 1_555 1_555

#END
