
#######################################################################
#
#                 Cambridge Crystallographic Data Centre
#                                CCDC 
#
#######################################################################
#
# If this CIF has been generated from an entry in the Cambridge 
# Structural Database, then it will include bibliographic, chemical, 
# crystal, experimental, refinement or atomic coordinate data resulting 
# from the CCDC's data processing and validation procedures.
#
#######################################################################

data_VOBKEE
_chemical_formula_moiety         'C16 H14 N2'
_chemical_name_systematic        
2-Phenyl-1,2,3,4-tetrahydroisoquinoline-1-carbonitrile
_symmetry_cell_setting           monoclinic
_symmetry_space_group_name_H-M   'P 21'
_symmetry_Int_Tables_number      4
_space_group_name_Hall           'P 2yb'
loop_
_symmetry_equiv_pos_site_id
_symmetry_equiv_pos_as_xyz
1 x,y,z
2 -x,1/2+y,-z
_cell_length_a                   9.0174(7)
_cell_length_b                   9.9046(9)
_cell_length_c                   14.5441(12)
_cell_angle_alpha                90
_cell_angle_beta                 97.245(7)
_cell_angle_gamma                90
_cell_volume                     1288.62
_exptl_crystal_colour            'light colorless'
_exptl_crystal_description       block
_cell_formula_units_Z            4
loop_
_atom_site_label
_atom_site_type_symbol
_atom_site_fract_x
_atom_site_fract_y
_atom_site_fract_z
N1 N -0.0568(4) -0.3429(4) -0.1968(2)
N2 N -0.1693(4) -0.4604(5) 0.0038(3)
C1 C -0.2827(5) -0.2014(5) -0.2174(4)
H1 H -0.2324 -0.1326 -0.1828
C2 C -0.4299(6) -0.1833(6) -0.2551(4)
H2 H -0.4775 -0.1021 -0.2455
C3 C -0.5057(6) -0.2811(7) -0.3054(4)
H3 H -0.6038 -0.2665 -0.3318
C4 C -0.4376(5) -0.4016(6) -0.3174(3)
H4 H -0.4904 -0.4701 -0.3509
C5 C -0.2905(5) -0.4228(5) -0.2801(3)
H5 H -0.2453 -0.5056 -0.2881
C6 C -0.2101(5) -0.3212(5) -0.2309(3)
C7 C -0.0270(4) -0.4663(4) -0.1434(3)
H6 H -0.0643 -0.5425 -0.1826
C8 C 0.1383(4) -0.4890(5) -0.1127(3)
C9 C 0.1825(5) -0.6153(5) -0.0771(3)
H7 H 0.1117 -0.6828 -0.0737
C10 C 0.3304(5) -0.6401(7) -0.0471(3)
H8 H 0.3598 -0.7242 -0.0229
C11 C 0.4357(5) -0.5403(7) -0.0530(4)
H9 H 0.5360 -0.5572 -0.0329
C12 C 0.3919(5) -0.4160(6) -0.0885(3)
H10 H 0.4635 -0.3494 -0.0925
C13 C 0.2424(5) -0.3880(5) -0.1187(3)
C14 C 0.1942(5) -0.2528(5) -0.1566(4)
H11 H 0.2169 -0.2461 -0.2199
H12 H 0.2510 -0.1835 -0.1205
C15 C 0.0290(5) -0.2268(5) -0.1553(3)
H13 H 0.0086 -0.2138 -0.0920
H14 H -0.0004 -0.1455 -0.1901
C16 C -0.1086(5) -0.4651(5) -0.0603(3)
N3 N -0.5950(4) -0.7086(5) -0.3925(2)
N4 N -0.7529(5) -0.9560(6) -0.2781(5)
C17 C -0.8107(5) -0.5662(6) -0.3685(3)
H15 H -0.7659 -0.5478 -0.3087
C18 C -0.9442(6) -0.5049(7) -0.4003(4)
H16 H -0.9892 -0.4460 -0.3624
C19 C -1.0101(6) -0.5315(7) -0.4886(5)
H17 H -1.1007 -0.4913 -0.5110
C20 C -0.9419(7) -0.6176(7) -0.5434(4)
H18 H -0.9868 -0.6351 -0.6034
C21 C -0.8088(6) -0.6785(6) -0.5120(3)
H19 H -0.7643 -0.7362 -0.5510
C22 C -0.7403(5) -0.6556(5) -0.4238(3)
C23 C -0.5720(5) -0.7541(5) -0.2975(3)
H20 H -0.5978 -0.6793 -0.2584
C24 C -0.4071(5) -0.7916(5) -0.2668(3)
C25 C -0.3617(5) -0.8107(6) -0.1742(3)
H21 H -0.4312 -0.8056 -0.1322
C26 C -0.2144(6) -0.8375(6) -0.1427(4)
H22 H -0.1841 -0.8486 -0.0797
C27 C -0.1120(5) -0.8480(6) -0.2050(4)
H23 H -0.0124 -0.8664 -0.1838
C28 C -0.1552(5) -0.8315(6) -0.2976(4)
H24 H -0.0858 -0.8396 -0.3395
C29 C -0.3068(5) -0.8021(6) -0.3295(3)
C30 C -0.3547(5) -0.7856(8) -0.4310(3)
H25 H -0.3075 -0.8545 -0.4648
H26 H -0.3224 -0.6981 -0.4509
C31 C -0.5244(5) -0.7969(7) -0.4535(3)
H27 H -0.5547 -0.7715 -0.5175
H28 H -0.5554 -0.8895 -0.4452
C32 C -0.6723(6) -0.8682(7) -0.2834(4)
loop_
_geom_bond_atom_site_label_1
_geom_bond_atom_site_label_2
_geom_bond_site_symmetry_1
_geom_bond_site_symmetry_2
N1 C6 1_555 1_555
N2 C16 1_555 1_555
C1 H1 1_555 1_555
C2 C1 1_555 1_555
H2 C2 1_555 1_555
C3 C2 1_555 1_555
H3 C3 1_555 1_555
C4 C3 1_555 1_555
H4 C4 1_555 1_555
C5 C4 1_555 1_555
H5 C5 1_555 1_555
C6 C1 1_555 1_555
C7 N1 1_555 1_555
H6 C7 1_555 1_555
C8 C7 1_555 1_555
C9 C8 1_555 1_555
H7 C9 1_555 1_555
C10 C9 1_555 1_555
H8 C10 1_555 1_555
C11 C10 1_555 1_555
H9 C11 1_555 1_555
C12 C11 1_555 1_555
H10 C12 1_555 1_555
C13 C8 1_555 1_555
C14 C13 1_555 1_555
H11 C14 1_555 1_555
H12 C14 1_555 1_555
C15 N1 1_555 1_555
H13 C15 1_555 1_555
H14 C15 1_555 1_555
C16 C7 1_555 1_555
N3 C22 1_555 1_555
N4 C32 1_555 1_555
C17 H15 1_555 1_555
C18 C17 1_555 1_555
H16 C18 1_555 1_555
C19 C18 1_555 1_555
H17 C19 1_555 1_555
C20 C19 1_555 1_555
H18 C20 1_555 1_555
C21 C20 1_555 1_555
H19 C21 1_555 1_555
C22 C17 1_555 1_555
C23 N3 1_555 1_555
H20 C23 1_555 1_555
C24 C23 1_555 1_555
C25 C24 1_555 1_555
H21 C25 1_555 1_555
C26 C25 1_555 1_555
H22 C26 1_555 1_555
C27 C26 1_555 1_555
H23 C27 1_555 1_555
C28 C27 1_555 1_555
H24 C28 1_555 1_555
C29 C24 1_555 1_555
C30 C29 1_555 1_555
H25 C30 1_555 1_555
H26 C30 1_555 1_555
C31 N3 1_555 1_555
H27 C31 1_555 1_555
H28 C31 1_555 1_555
C32 C23 1_555 1_555
C5 C6 1_555 1_555
C12 C13 1_555 1_555
C14 C15 1_555 1_555
C21 C22 1_555 1_555
C28 C29 1_555 1_555
C30 C31 1_555 1_555

#END
