
#######################################################################
#
#                 Cambridge Crystallographic Data Centre
#                                CCDC 
#
#######################################################################
#
# If this CIF has been generated from an entry in the Cambridge 
# Structural Database, then it will include bibliographic, chemical, 
# crystal, experimental, refinement or atomic coordinate data resulting 
# from the CCDC's data processing and validation procedures.
#
#######################################################################

data_VOBREJ
_chemical_formula_moiety         'C22 H36 Si4'
_chemical_name_systematic        tetrakis((Trimethylsilyl)ethynyl)ethene
_symmetry_cell_setting           orthorhombic
_symmetry_space_group_name_H-M   'P c a b'
_symmetry_Int_Tables_number      61
_space_group_name_Hall           '-P 2bc 2ac'
loop_
_symmetry_equiv_pos_site_id
_symmetry_equiv_pos_as_xyz
1 x,y,z
2 1/2-x,y,1/2+z
3 1/2+x,1/2-y,z
4 -x,1/2-y,1/2+z
5 -x,-y,-z
6 1/2+x,-y,1/2-z
7 1/2-x,1/2+y,-z
8 x,1/2+y,1/2-z
_cell_length_a                   12.927(2)
_cell_length_b                   13.057(2)
_cell_length_c                   18.004(3)
_cell_angle_alpha                90
_cell_angle_beta                 90
_cell_angle_gamma                90
_cell_volume                     3038.86
_exptl_crystal_colour            'pale brown'
_chemical_melting_point          199-201deg.C
_cell_formula_units_Z            4
loop_
_atom_site_label
_atom_site_type_symbol
_atom_site_fract_x
_atom_site_fract_y
_atom_site_fract_z
Si1 Si 0.0443(3) 0.9088(2) 0.2585(2)
Si2 Si -0.2637(2) 1.2629(2) -0.0042(2)
C1 C -0.0191(10) 0.9929(9) 0.3283(7)
C2 C 0.1877(10) 0.9188(12) 0.2713(7)
C3 C -0.0050(13) 0.7794(9) 0.2675(6)
C4 C -0.3882(9) 1.2077(10) -0.0149(8)
C5 C -0.2324(14) 1.3243(14) -0.0884(10)
C6 C -0.2736(13) 1.3399(10) 0.0782(9)
C7 C 0.0126(6) 0.9571(6) 0.1642(5)
C8 C -0.0049(6) 0.9845(6) 0.1041(5)
C9 C -0.0240(6) 1.0174(6) 0.0299(4)
C10 C -0.1035(6) 1.0978(6) 0.0202(4)
C11 C -0.1693(7) 1.1624(7) 0.0121(5)
H1 H -0.004 0.969 0.382
H2 H -0.098 0.993 0.323
H3 H 0.005 1.066 0.325
H4 H 0.215 0.898 0.319
H5 H 0.212 0.997 0.264
H6 H 0.229 0.882 0.230
H7 H 0.011 0.749 0.318
H8 H 0.028 0.732 0.229
H9 H -0.082 0.776 0.260
H10 H -0.410 1.174 0.033
H11 H -0.386 1.154 -0.055
H12 H -0.440 1.262 -0.029
H13 H -0.275 1.380 -0.105
H14 H -0.225 1.272 -0.133
H15 H -0.154 1.354 -0.087
H16 H -0.195 1.375 0.090
H17 H -0.281 1.299 0.127
H18 H -0.319 1.398 0.079
C9D C 0.0240(6) 0.9826(6) -0.0299(4)
C8D C 0.0049(6) 1.0155(6) -0.1041(5)
C10D C 0.1035(6) 0.9022(6) -0.0202(4)
C7D C -0.0126(6) 1.0429(6) -0.1642(5)
C11D C 0.1693(7) 0.8376(7) -0.0121(5)
Si1D Si -0.0443(3) 1.0912(2) -0.2585(2)
Si2D Si 0.2637(2) 0.7371(2) 0.0042(2)
C1D C 0.0191(10) 1.0071(9) -0.3283(7)
C2D C -0.1877(10) 1.0812(12) -0.2713(7)
C3D C 0.0050(13) 1.2206(9) -0.2675(6)
C4D C 0.3882(9) 0.7923(10) 0.0149(8)
C5D C 0.2324(14) 0.6757(14) 0.0884(10)
C6D C 0.2736(13) 0.6601(10) -0.0782(9)
H1D H 0.004 1.031 -0.382
H2D H 0.098 1.007 -0.323
H3D H -0.005 0.934 -0.325
H4D H -0.215 1.102 -0.319
H5D H -0.212 1.003 -0.264
H6D H -0.229 1.118 -0.230
H7D H -0.011 1.251 -0.318
H8D H -0.028 1.268 -0.229
H9D H 0.082 1.224 -0.260
H10D H 0.410 0.826 -0.033
H11D H 0.386 0.846 0.055
H12D H 0.440 0.738 0.029
H13D H 0.275 0.620 0.105
H14D H 0.225 0.728 0.133
H15D H 0.154 0.646 0.087
H16D H 0.195 0.625 -0.090
H17D H 0.281 0.701 -0.127
H18D H 0.319 0.602 -0.079
C12? C -0.194(5) 1.381(5) -0.012(4)
loop_
_geom_bond_atom_site_label_1
_geom_bond_atom_site_label_2
_geom_bond_site_symmetry_1
_geom_bond_site_symmetry_2
Si1 C1 1_555 1_555
Si2 C4 1_555 1_555
C1 H1 1_555 1_555
C2 Si1 1_555 1_555
C3 Si1 1_555 1_555
C4 H10 1_555 1_555
C5 Si2 1_555 1_555
C6 Si2 1_555 1_555
C7 Si1 1_555 1_555
C8 C7 1_555 1_555
C9 C8 1_555 1_555
C10 C9 1_555 1_555
C11 Si2 1_555 1_555
H2 C1 1_555 1_555
H3 C1 1_555 1_555
H4 C2 1_555 1_555
H5 C2 1_555 1_555
H6 C2 1_555 1_555
H7 C3 1_555 1_555
H8 C3 1_555 1_555
H9 C3 1_555 1_555
H11 C4 1_555 1_555
H12 C4 1_555 1_555
H13 C5 1_555 1_555
H14 C5 1_555 1_555
H15 C5 1_555 1_555
H16 C6 1_555 1_555
H17 C6 1_555 1_555
H18 C6 1_555 1_555
C9D C9 1_555 1_555
C8D C9D 1_555 1_555
C10D C9D 1_555 1_555
C7D C8D 1_555 1_555
C11D C10D 1_555 1_555
Si1D C7D 1_555 1_555
Si2D C11D 1_555 1_555
C1D Si1D 1_555 1_555
C2D Si1D 1_555 1_555
C3D Si1D 1_555 1_555
C4D Si2D 1_555 1_555
C5D Si2D 1_555 1_555
C6D Si2D 1_555 1_555
H1D C1D 1_555 1_555
H2D C1D 1_555 1_555
H3D C1D 1_555 1_555
H4D C2D 1_555 1_555
H5D C2D 1_555 1_555
H6D C2D 1_555 1_555
H7D C3D 1_555 1_555
H8D C3D 1_555 1_555
H9D C3D 1_555 1_555
H10D C4D 1_555 1_555
H11D C4D 1_555 1_555
H12D C4D 1_555 1_555
H13D C5D 1_555 1_555
H14D C5D 1_555 1_555
H15D C5D 1_555 1_555
H16D C6D 1_555 1_555
H17D C6D 1_555 1_555
H18D C6D 1_555 1_555
C10 C11 1_555 1_555

#END
