
#######################################################################
#
#                 Cambridge Crystallographic Data Centre
#                                CCDC 
#
#######################################################################
#
# If this CIF has been generated from an entry in the Cambridge 
# Structural Database, then it will include bibliographic, chemical, 
# crystal, experimental, refinement or atomic coordinate data resulting 
# from the CCDC's data processing and validation procedures.
#
#######################################################################

data_VOBXIV
_chemical_formula_moiety         'C22 H19 Cl2 N3 O2'
_chemical_name_systematic        
3,4-Dichloro-7-(4-(diisopropylamino)phenyl)-2,5-dioxobicyclo[4.2.0]octa-3,7-diene-1,6-dicarbonitrile
_symmetry_cell_setting           monoclinic
_symmetry_space_group_name_H-M   'P 21/c'
_symmetry_Int_Tables_number      14
_space_group_name_Hall           '-P 2ybc'
loop_
_symmetry_equiv_pos_site_id
_symmetry_equiv_pos_as_xyz
1 x,y,z
2 -x,1/2+y,1/2-z
3 -x,-y,-z
4 x,1/2-y,1/2+z
_cell_length_a                   7.0278(3)
_cell_length_b                   17.1585(7)
_cell_length_c                   17.3778(7)
_cell_angle_alpha                90
_cell_angle_beta                 98.230(2)
_cell_angle_gamma                90
_cell_volume                     2073.95
_exptl_crystal_colour            black
_exptl_crystal_description       rod
_cell_formula_units_Z            4
loop_
_atom_site_label
_atom_site_type_symbol
_atom_site_fract_x
_atom_site_fract_y
_atom_site_fract_z
Cl1 Cl 0.16101(5) 0.35897(2) 0.216518(19)
Cl2 Cl 0.47573(5) 0.233822(19) 0.188683(18)
O1 O 0.60762(13) 0.25825(6) 0.03686(5)
O2 O 0.15581(13) 0.48385(5) 0.10226(5)
N1 N 0.54705(15) 0.35435(6) -0.13861(7)
N2 N 0.32600(15) 0.54270(6) -0.06536(6)
N3 N -0.08928(13) 0.00026(6) -0.16426(6)
C1 C 0.34738(16) 0.33611(7) -0.02427(7)
C2 C 0.46756(16) 0.29611(7) 0.04493(7)
C3 C 0.38934(17) 0.30123(7) 0.11996(7)
C4 C 0.26181(17) 0.35564(7) 0.13318(7)
C5 C 0.21475(16) 0.42348(7) 0.07989(7)
C6 C 0.23035(16) 0.41116(7) -0.00591(7)
C7 C 0.05335(16) 0.36657(7) -0.04266(7)
H1 H -0.077(2) 0.3843(9) -0.0526(9)
C8 C 0.14771(15) 0.30022(7) -0.05269(7)
C9 C 0.46232(16) 0.34695(7) -0.08757(7)
C10 C 0.28154(16) 0.48502(7) -0.04061(7)
C11 C 0.09429(16) 0.22299(7) -0.07975(7)
C12 C 0.22390(16) 0.16131(7) -0.07969(7)
H2 H 0.364(2) 0.1698(8) -0.0613(8)
C13 C 0.16408(16) 0.08801(7) -0.10518(7)
H3 H 0.255(2) 0.0482(8) -0.1022(8)
C14 C -0.03009(16) 0.07174(7) -0.13437(6)
C15 C -0.15993(17) 0.13471(7) -0.13333(8)
H4 H -0.288(3) 0.1281(9) -0.1506(10)
C16 C -0.09999(17) 0.20709(7) -0.10696(7)
H5 H -0.191(2) 0.2475(10) -0.1083(10)
C17 C 0.05230(17) -0.06105(7) -0.17479(7)
H6 H 0.174(2) -0.0341(9) -0.1798(8)
C18 C 0.0824(2) -0.11653(9) -0.10621(9)
H7 H -0.031(2) -0.1466(9) -0.1039(9)
H8 H 0.185(3) -0.1551(11) -0.1090(10)
H9 H 0.118(3) -0.0877(11) -0.0571(11)
C19 C 0.00162(19) -0.10324(9) -0.25225(8)
H10 H -0.106(2) -0.1377(9) -0.2497(9)
H11 H 0.111(3) -0.1361(10) -0.2634(10)
H12 H -0.025(2) -0.0668(11) -0.2960(10)
C20 C -0.29082(16) -0.02652(8) -0.16959(7)
H13 H -0.2836(18) -0.0826(8) -0.1813(7)
C21 C -0.36768(19) -0.02194(9) -0.09204(8)
H14 H -0.491(2) -0.0520(9) -0.0986(9)
H15 H -0.279(3) -0.0432(11) -0.0511(10)
H16 H -0.392(2) 0.0313(10) -0.0763(9)
C22 C -0.42710(19) 0.00904(9) -0.23698(8)
H17 H -0.540(2) -0.0270(9) -0.2488(9)
H18 H -0.470(3) 0.0626(11) -0.2246(10)
H19 H -0.364(3) 0.0158(10) -0.2800(11)
loop_
_geom_bond_atom_site_label_1
_geom_bond_atom_site_label_2
_geom_bond_site_symmetry_1
_geom_bond_site_symmetry_2
Cl1 C4 1_555 1_555
Cl2 C3 1_555 1_555
O1 C2 1_555 1_555
O2 C5 1_555 1_555
N1 C9 1_555 1_555
N2 C10 1_555 1_555
N3 C14 1_555 1_555
C1 C2 1_555 1_555
C2 C3 1_555 1_555
C3 C4 1_555 1_555
C4 C5 1_555 1_555
C5 C6 1_555 1_555
C6 C1 1_555 1_555
C7 C6 1_555 1_555
H1 C7 1_555 1_555
C8 C1 1_555 1_555
C9 C1 1_555 1_555
C10 C6 1_555 1_555
C11 C8 1_555 1_555
C12 C11 1_555 1_555
H2 C12 1_555 1_555
C13 C12 1_555 1_555
H3 C13 1_555 1_555
C14 C13 1_555 1_555
C15 C14 1_555 1_555
H4 C15 1_555 1_555
C16 C11 1_555 1_555
H5 C16 1_555 1_555
C17 N3 1_555 1_555
H6 C17 1_555 1_555
C18 C17 1_555 1_555
H7 C18 1_555 1_555
H8 C18 1_555 1_555
H9 C18 1_555 1_555
C19 C17 1_555 1_555
H10 C19 1_555 1_555
H11 C19 1_555 1_555
H12 C19 1_555 1_555
C20 N3 1_555 1_555
H13 C20 1_555 1_555
C21 C20 1_555 1_555
H14 C21 1_555 1_555
H15 C21 1_555 1_555
H16 C21 1_555 1_555
C22 C20 1_555 1_555
H17 C22 1_555 1_555
H18 C22 1_555 1_555
H19 C22 1_555 1_555
C7 C8 1_555 1_555
C15 C16 1_555 1_555

#END
