
#######################################################################
#
#                 Cambridge Crystallographic Data Centre
#                                CCDC 
#
#######################################################################
#
# If this CIF has been generated from an entry in the Cambridge 
# Structural Database, then it will include bibliographic, chemical, 
# crystal, experimental, refinement or atomic coordinate data resulting 
# from the CCDC's data processing and validation procedures.
#
#######################################################################

data_VOCXUI
_chemical_formula_moiety         'C38 H42 N2 2+,0.5(Br6 Te1 2-),Br1 1-'
_chemical_name_systematic        
"N,N'-((4,6-Dimethyl-1,3-phenylene)bis(methylene))bis(N-benzyl(phenyl)methanaminium) hemikis(hexabromo-tellurium) bromide"
_symmetry_cell_setting           triclinic
_symmetry_space_group_name_H-M   'P -1'
_symmetry_Int_Tables_number      2
_space_group_name_Hall           '-P 1'
loop_
_symmetry_equiv_pos_site_id
_symmetry_equiv_pos_as_xyz
1 x,y,z
2 -x,-y,-z
_cell_length_a                   12.135(2)
_cell_length_b                   14.288(3)
_cell_length_c                   22.260(5)
_cell_angle_alpha                96.47(3)
_cell_angle_beta                 99.73(3)
_cell_angle_gamma                98.24(3)
_cell_volume                     3727.49
_cell_formula_units_Z            4
loop_
_atom_site_label
_atom_site_type_symbol
_atom_site_fract_x
_atom_site_fract_y
_atom_site_fract_z
Te1 Te 0.5000 0.5000 0.0000
Br1 Br 0.30152(5) 0.50230(5) 0.03821(3)
Br2 Br 0.55864(5) 0.68759(4) 0.04470(3)
Br3 Br 0.60064(6) 0.45874(5) 0.10930(3)
Br1A Br 0.69848(5) 0.49770(5) -0.03821(3)
Br2A Br 0.44136(5) 0.31241(4) -0.04470(3)
Br3A Br 0.39936(6) 0.54126(5) -0.10930(3)
Te2 Te 0.5000 0.5000 0.5000
Br4 Br 0.41689(5) 0.51373(4) 0.38164(3)
Br5 Br 0.44588(5) 0.30789(4) 0.47453(3)
Br6 Br 0.70721(5) 0.48667(4) 0.47414(3)
Br4A Br 0.58311(5) 0.48627(4) 0.61836(3)
Br5A Br 0.55412(5) 0.69211(4) 0.52547(3)
Br6A Br 0.29279(5) 0.51333(4) 0.52586(3)
N1 N 1.1676(4) 0.1972(3) 0.7951(2)
H1 H 1.0938 0.1884 0.7758
N2 N 0.7956(4) 0.2685(3) 0.65319(19)
H2 H 0.8283 0.2236 0.6724
C1 C 1.2297(5) 0.1349(4) 0.7563(3)
H3 H 1.3058 0.1366 0.7789
H4 H 1.1909 0.0693 0.7503
C2 C 1.2371(5) 0.1653(4) 0.6943(2)
C3 C 1.1417(5) 0.1583(4) 0.6486(3)
H5 H 1.0712 0.1310 0.6552
C4 C 1.1508(5) 0.1914(4) 0.5935(3)
H6 H 1.0864 0.1870 0.5633
C5 C 1.2561(5) 0.2315(4) 0.5829(3)
H7 H 1.2617 0.2565 0.5466
C6 C 1.3519(5) 0.2340(4) 0.6267(3)
H8 H 1.4228 0.2577 0.6190
C7 C 1.3426(5) 0.2011(4) 0.6820(3)
H9 H 1.4075 0.2030 0.7114
C8 C 1.1704(5) 0.1631(4) 0.8581(2)
H10 H 1.1537 0.0939 0.8523
H11 H 1.2463 0.1824 0.8824
C9 C 1.0873(5) 0.2024(4) 0.8930(3)
C10 C 1.1170(5) 0.2862(4) 0.9345(3)
H12 H 1.1911 0.3188 0.9420
C11 C 1.0374(5) 0.3219(5) 0.9649(3)
H13 H 1.0587 0.3778 0.9928
C12 C 0.9278(6) 0.2749(6) 0.9540(3)
H14 H 0.8738 0.3002 0.9729
C13 C 0.8978(6) 0.1895(6) 0.9145(3)
H15 H 0.8242 0.1561 0.9085
C14 C 0.9769(6) 0.1529(5) 0.8836(3)
H16 H 0.9559 0.0957 0.8570
C15 C 1.2150(5) 0.3037(4) 0.8016(2)
H17 H 1.2057 0.3348 0.8411
H18 H 1.2955 0.3116 0.8010
C16 C 1.1571(5) 0.3517(4) 0.7510(2)
C17 C 1.0396(4) 0.3420(4) 0.7409(2)
H19 H 1.0000 0.3067 0.7654
C18 C 0.9795(5) 0.3837(4) 0.6950(2)
C19 C 1.0372(5) 0.4391(4) 0.6593(3)
C20 C 1.1545(5) 0.4512(4) 0.6717(2)
H20 H 1.1938 0.4894 0.6485
C21 C 1.2173(5) 0.4100(4) 0.7166(2)
C22 C 1.3461(5) 0.4312(4) 0.7278(3)
H21 H 1.3703 0.4536 0.6924
H22 H 1.3759 0.3740 0.7353
H23 H 1.3734 0.4793 0.7630
C23 C 0.9807(5) 0.4899(4) 0.6101(3)
H24 H 0.9346 0.4437 0.5776
H25 H 1.0375 0.5280 0.5939
H26 H 0.9339 0.5303 0.6274
C24 C 0.8520(5) 0.3657(4) 0.6886(3)
H27 H 0.8213 0.4150 0.6677
H28 H 0.8332 0.3709 0.7293
C25 C 0.6704(5) 0.2484(4) 0.6540(3)
H29 H 0.6369 0.1903 0.6262
H30 H 0.6354 0.3001 0.6388
C26 C 0.6441(5) 0.2374(4) 0.7174(3)
C27 C 0.6321(5) 0.1491(5) 0.7360(3)
H31 H 0.6432 0.0966 0.7104
C28 C 0.6037(5) 0.1372(5) 0.7927(3)
H32 H 0.5953 0.0768 0.8048
C29 C 0.5878(6) 0.2145(6) 0.8310(3)
H33 H 0.5706 0.2064 0.8695
C30 C 0.5976(5) 0.3052(5) 0.8124(3)
H34 H 0.5857 0.3575 0.8379
C31 C 0.6254(5) 0.3158(4) 0.7551(3)
H35 H 0.6315 0.3756 0.7420
C32 C 0.8175(5) 0.2584(4) 0.5881(2)
H36 H 0.7869 0.3079 0.5674
H37 H 0.8987 0.2688 0.5896
C33 C 0.7673(5) 0.1635(4) 0.5506(2)
C34 C 0.6647(5) 0.1527(4) 0.5095(3)
H38 H 0.6277 0.2050 0.5051
C35 C 0.6173(6) 0.0652(5) 0.4750(3)
H39 H 0.5478 0.0589 0.4485
C36 C 0.6709(6) -0.0124(5) 0.4794(3)
H40 H 0.6389 -0.0709 0.4557
C37 C 0.7732(6) -0.0024(4) 0.5194(3)
H41 H 0.8101 -0.0549 0.5228
C38 C 0.8218(5) 0.0848(4) 0.5547(3)
H42 H 0.8913 0.0904 0.5811
N3 N 0.1920(4) 0.7334(3) 0.83179(19)
H43 H 0.1553 0.7796 0.8169
N4 N -0.1925(4) 0.8111(3) 0.7108(2)
H44 H -0.1182 0.8186 0.7290
C39 C 0.1753(5) 0.7307(4) 0.8975(2)
H45 H 0.0947 0.7213 0.8980
H46 H 0.2050 0.6764 0.9124
C40 C 0.2317(5) 0.8195(4) 0.9405(3)
C41 C 0.1819(5) 0.9015(4) 0.9444(3)
H47 H 0.1117 0.9022 0.9202
C42 C 0.2381(7) 0.9827(5) 0.9848(3)
H48 H 0.2056 1.0378 0.9869
C43 C 0.3407(7) 0.9819(5) 1.0216(3)
H49 H 0.3773 1.0360 1.0487
C44 C 0.3892(6) 0.9007(5) 1.0181(3)
H50 H 0.4589 0.9002 1.0428
C45 C 0.3350(5) 0.8197(5) 0.9780(3)
H51 H 0.3683 0.7650 0.9763
C46 C 0.3149(4) 0.7601(4) 0.8291(3)
H52 H 0.3555 0.7126 0.8462
H53 H 0.3441 0.8207 0.8551
C47 C 0.3403(5) 0.7686(4) 0.7656(3)
C48 C 0.3416(5) 0.8535(4) 0.7427(3)
H54 H 0.3207 0.9050 0.7650
C49 C 0.3741(6) 0.8636(5) 0.6861(3)
H55 H 0.3743 0.9212 0.6703
C50 C 0.4058(6) 0.7870(6) 0.6541(3)
H56 H 0.4272 0.7930 0.6163
C51 C 0.4065(5) 0.7020(5) 0.6769(3)
H57 H 0.4294 0.6511 0.6551
C52 C 0.3727(5) 0.6925(4) 0.7328(3)
H58 H 0.3719 0.6346 0.7482
C53 C 0.1385(5) 0.6398(4) 0.7921(3)
H59 H 0.1745 0.5889 0.8078
H60 H 0.1519 0.6427 0.7505
C54 C 0.0114(5) 0.6166(4) 0.7902(2)
C55 C -0.0582(5) 0.6610(4) 0.7502(2)
H61 H -0.0255 0.6981 0.7240
C56 C -0.1751(5) 0.6521(4) 0.7476(2)
C57 C -0.2249(5) 0.5922(4) 0.7849(2)
C58 C -0.1554(5) 0.5449(4) 0.8226(2)
H62 H -0.1891 0.5034 0.8462
C59 C -0.0383(5) 0.5558(4) 0.8274(2)
C60 C 0.0291(5) 0.5040(4) 0.8724(3)
H63 H 0.0991 0.4958 0.8595
H64 H -0.0139 0.4427 0.8737
H65 H 0.0449 0.5408 0.9127
C61 C -0.3499(5) 0.5778(4) 0.7860(3)
H66 H -0.3644 0.5432 0.8192
H67 H -0.3911 0.5421 0.7477
H68 H -0.3740 0.6388 0.7918
C62 C -0.2424(5) 0.7051(4) 0.7036(3)
H69 H -0.3197 0.6988 0.7106
H70 H -0.2446 0.6763 0.6618
C63 C -0.1986(5) 0.8459(4) 0.6480(2)
H71 H -0.2732 0.8218 0.6231
H72 H -0.1885 0.9151 0.6536
C64 C -0.1093(5) 0.8134(4) 0.6141(2)
C65 C -0.1300(5) 0.7272(4) 0.5752(2)
H73 H -0.2008 0.6889 0.5688
C66 C -0.0455(5) 0.6970(5) 0.5453(3)
H74 H -0.0593 0.6388 0.5198
C67 C 0.0585(6) 0.7556(6) 0.5548(3)
H75 H 0.1161 0.7360 0.5363
C68 C 0.0781(6) 0.8440(6) 0.5919(3)
H76 H 0.1477 0.8838 0.5970
C69 C -0.0057(5) 0.8723(5) 0.6210(3)
H77 H 0.0075 0.9314 0.6455
C70 C -0.2512(5) 0.8745(4) 0.7507(3)
H78 H -0.2103 0.9394 0.7572
H79 H -0.3273 0.8750 0.7288
C71 C -0.2583(5) 0.8423(4) 0.8125(3)
C72 C -0.3647(5) 0.8189(4) 0.8277(3)
H80 H -0.4299 0.8239 0.8004
C73 C -0.3723(6) 0.7877(5) 0.8848(3)
H81 H -0.4432 0.7725 0.8951
C74 C -0.2773(6) 0.7790(4) 0.9255(3)
H82 H -0.2833 0.7560 0.9624
C75 C -0.1726(5) 0.8053(4) 0.9105(3)
H83 H -0.1072 0.8012 0.9380
C76 C -0.1642(5) 0.8378(4) 0.8548(3)
H84 H -0.0928 0.8569 0.8461
Br7 Br 0.90202(5) 0.10392(4) 0.72206(3)
Br8 Br 0.07432(5) 0.90400(4) 0.78076(3)
loop_
_geom_bond_atom_site_label_1
_geom_bond_atom_site_label_2
_geom_bond_site_symmetry_1
_geom_bond_site_symmetry_2
Te1 Br1 1_555 1_555
Br2 Te1 1_555 1_555
Br3 Te1 1_555 1_555
Te2 Br4 1_555 1_555
Br5 Te2 1_555 1_555
Br6 Te2 1_555 1_555
N1 H1 1_555 1_555
N2 H2 1_555 1_555
C1 N1 1_555 1_555
H3 C1 1_555 1_555
H4 C1 1_555 1_555
C2 C1 1_555 1_555
C3 C2 1_555 1_555
H5 C3 1_555 1_555
C4 C3 1_555 1_555
H6 C4 1_555 1_555
C5 C4 1_555 1_555
H7 C5 1_555 1_555
C6 C5 1_555 1_555
H8 C6 1_555 1_555
C7 C2 1_555 1_555
H9 C7 1_555 1_555
C8 N1 1_555 1_555
H10 C8 1_555 1_555
H11 C8 1_555 1_555
C9 C8 1_555 1_555
C10 C9 1_555 1_555
H12 C10 1_555 1_555
C11 C10 1_555 1_555
H13 C11 1_555 1_555
C12 C11 1_555 1_555
H14 C12 1_555 1_555
C13 C12 1_555 1_555
H15 C13 1_555 1_555
C14 C9 1_555 1_555
H16 C14 1_555 1_555
C15 N1 1_555 1_555
H17 C15 1_555 1_555
H18 C15 1_555 1_555
C16 C15 1_555 1_555
C17 C16 1_555 1_555
H19 C17 1_555 1_555
C18 C17 1_555 1_555
C19 C18 1_555 1_555
C20 C19 1_555 1_555
H20 C20 1_555 1_555
C21 C16 1_555 1_555
C22 C21 1_555 1_555
H21 C22 1_555 1_555
H22 C22 1_555 1_555
H23 C22 1_555 1_555
C23 C19 1_555 1_555
H24 C23 1_555 1_555
H25 C23 1_555 1_555
H26 C23 1_555 1_555
C24 N2 1_555 1_555
H27 C24 1_555 1_555
H28 C24 1_555 1_555
C25 N2 1_555 1_555
H29 C25 1_555 1_555
H30 C25 1_555 1_555
C26 C25 1_555 1_555
C27 C26 1_555 1_555
H31 C27 1_555 1_555
C28 C27 1_555 1_555
H32 C28 1_555 1_555
C29 C28 1_555 1_555
H33 C29 1_555 1_555
C30 C29 1_555 1_555
H34 C30 1_555 1_555
C31 C26 1_555 1_555
H35 C31 1_555 1_555
C32 N2 1_555 1_555
H36 C32 1_555 1_555
H37 C32 1_555 1_555
C33 C32 1_555 1_555
C34 C33 1_555 1_555
H38 C34 1_555 1_555
C35 C34 1_555 1_555
H39 C35 1_555 1_555
C36 C35 1_555 1_555
H40 C36 1_555 1_555
C37 C36 1_555 1_555
H41 C37 1_555 1_555
C38 C33 1_555 1_555
H42 C38 1_555 1_555
N3 H43 1_555 1_555
N4 H44 1_555 1_555
C39 N3 1_555 1_555
H45 C39 1_555 1_555
H46 C39 1_555 1_555
C40 C39 1_555 1_555
C41 C40 1_555 1_555
H47 C41 1_555 1_555
C42 C41 1_555 1_555
H48 C42 1_555 1_555
C43 C42 1_555 1_555
H49 C43 1_555 1_555
C44 C43 1_555 1_555
H50 C44 1_555 1_555
C45 C40 1_555 1_555
H51 C45 1_555 1_555
C46 N3 1_555 1_555
H52 C46 1_555 1_555
H53 C46 1_555 1_555
C47 C46 1_555 1_555
C48 C47 1_555 1_555
H54 C48 1_555 1_555
C49 C48 1_555 1_555
H55 C49 1_555 1_555
C50 C49 1_555 1_555
H56 C50 1_555 1_555
C51 C50 1_555 1_555
H57 C51 1_555 1_555
C52 C47 1_555 1_555
H58 C52 1_555 1_555
C53 N3 1_555 1_555
H59 C53 1_555 1_555
H60 C53 1_555 1_555
C54 C53 1_555 1_555
C55 C54 1_555 1_555
H61 C55 1_555 1_555
C56 C55 1_555 1_555
C57 C56 1_555 1_555
C58 C57 1_555 1_555
H62 C58 1_555 1_555
C59 C54 1_555 1_555
C60 C59 1_555 1_555
H63 C60 1_555 1_555
H64 C60 1_555 1_555
H65 C60 1_555 1_555
C61 C57 1_555 1_555
H66 C61 1_555 1_555
H67 C61 1_555 1_555
H68 C61 1_555 1_555
C62 N4 1_555 1_555
H69 C62 1_555 1_555
H70 C62 1_555 1_555
C63 N4 1_555 1_555
H71 C63 1_555 1_555
H72 C63 1_555 1_555
C64 C63 1_555 1_555
C65 C64 1_555 1_555
H73 C65 1_555 1_555
C66 C65 1_555 1_555
H74 C66 1_555 1_555
C67 C66 1_555 1_555
H75 C67 1_555 1_555
C68 C67 1_555 1_555
H76 C68 1_555 1_555
C69 C64 1_555 1_555
H77 C69 1_555 1_555
C70 N4 1_555 1_555
H78 C70 1_555 1_555
H79 C70 1_555 1_555
C71 C70 1_555 1_555
C72 C71 1_555 1_555
H80 C72 1_555 1_555
C73 C72 1_555 1_555
H81 C73 1_555 1_555
C74 C73 1_555 1_555
H82 C74 1_555 1_555
C75 C74 1_555 1_555
H83 C75 1_555 1_555
C76 C71 1_555 1_555
H84 C76 1_555 1_555
Br1A Te1 1_555 1_555
Br2A Te1 1_555 1_555
Br3A Te1 1_555 1_555
Br4A Te2 1_555 1_555
Br5A Te2 1_555 1_555
Br6A Te2 1_555 1_555
C6 C7 1_555 1_555
C13 C14 1_555 1_555
C18 C24 1_555 1_555
C20 C21 1_555 1_555
C30 C31 1_555 1_555
C37 C38 1_555 1_555
C44 C45 1_555 1_555
C51 C52 1_555 1_555
C56 C62 1_555 1_555
C58 C59 1_555 1_555
C68 C69 1_555 1_555
C75 C76 1_555 1_555

#END
