
#######################################################################
#
#                 Cambridge Crystallographic Data Centre
#                                CCDC 
#
#######################################################################
#
# If this CIF has been generated from an entry in the Cambridge 
# Structural Database, then it will include bibliographic, chemical, 
# crystal, experimental, refinement or atomic coordinate data resulting 
# from the CCDC's data processing and validation procedures.
#
#######################################################################

data_VOFDUR
_chemical_formula_moiety         'C13 H12 N2 O1 S1'
_chemical_name_systematic        1-(4-Hydroxyphenyl)-3-phenylthiourea
_symmetry_cell_setting           monoclinic
_symmetry_space_group_name_H-M   'C 2/c'
_symmetry_Int_Tables_number      15
_space_group_name_Hall           '-C 2yn'
loop_
_symmetry_equiv_pos_site_id
_symmetry_equiv_pos_as_xyz
1 x,y,z
2 -x,y,1/2-z
3 1/2+x,1/2+y,z
4 1/2-x,1/2+y,1/2-z
5 -x,-y,-z
6 x,-y,1/2+z
7 1/2-x,1/2-y,-z
8 1/2+x,1/2-y,1/2+z
_cell_length_a                   53.7053(12)
_cell_length_b                   5.66440(10)
_cell_length_c                   7.9125(2)
_cell_angle_alpha                90
_cell_angle_beta                 98.200(2)
_cell_angle_gamma                90
_cell_volume                     2382.44
_exptl_crystal_colour            colorless
_exptl_crystal_description       block
_cell_formula_units_Z            8
loop_
_atom_site_label
_atom_site_type_symbol
_atom_site_fract_x
_atom_site_fract_y
_atom_site_fract_z
C1 C 0.03441(8) 0.2394(10) 0.0918(6)
C2 C 0.04895(8) 0.0832(9) 0.0151(6)
H1 H 0.0422 -0.0596 -0.0278
C3 C 0.07375(8) 0.1411(9) 0.0025(7)
H2 H 0.0838 0.0381 -0.0493
C4 C 0.08323(7) 0.3540(8) 0.0681(6)
C5 C 0.06872(8) 0.5083(9) 0.1437(6)
H3 H 0.0754 0.6513 0.1867
C6 C 0.04373(8) 0.4494(11) 0.1560(7)
H4 H 0.0336 0.5525 0.2074
C7 C 0.12945(7) 0.3334(7) 0.1360(6)
C8 C 0.17582(7) 0.3534(8) 0.1640(6)
C9 C 0.18534(8) 0.1396(8) 0.1209(7)
H5 H 0.1754 0.0350 0.0501
C10 C 0.20995(9) 0.0828(9) 0.1847(7)
H6 H 0.2167 -0.0603 0.1561
C11 C 0.22445(8) 0.2390(11) 0.2910(7)
H7 H 0.2410 0.2001 0.3342
C12 C 0.21476(9) 0.4487(10) 0.3328(6)
H8 H 0.2246 0.5518 0.4053
C13 C 0.19001(8) 0.5110(10) 0.2676(6)
H9 H 0.1834 0.6559 0.2941
N1 N 0.10832(6) 0.4241(7) 0.0468(5)
H10 H 0.1107(9) 0.508(8) -0.038(5)
N2 N 0.15075(6) 0.4218(7) 0.0897(5)
H11 H 0.1492(9) 0.529(7) 0.012(5)
O1 O 0.0085(5) 0.217(3) 0.095(4)
H12 H 0.003(3) 0.21(2) 0.187(9)
S1 S 0.129343(19) 0.1337(2) 0.29366(15)
O2? O 0.0106(6) 0.134(4) 0.111(5)
H13? H 0.002(3) 0.10(3) 0.021(14)
loop_
_geom_bond_atom_site_label_1
_geom_bond_atom_site_label_2
_geom_bond_site_symmetry_1
_geom_bond_site_symmetry_2
C1 C2 1_555 1_555
C2 H1 1_555 1_555
C3 C2 1_555 1_555
H2 C3 1_555 1_555
C4 C3 1_555 1_555
C5 C4 1_555 1_555
H3 C5 1_555 1_555
C6 C1 1_555 1_555
H4 C6 1_555 1_555
C7 N1 1_555 1_555
C8 C9 1_555 1_555
C9 H5 1_555 1_555
C10 C9 1_555 1_555
H6 C10 1_555 1_555
C11 C10 1_555 1_555
H7 C11 1_555 1_555
C12 C11 1_555 1_555
H8 C12 1_555 1_555
C13 C8 1_555 1_555
H9 C13 1_555 1_555
N1 C4 1_555 1_555
H10 N1 1_555 1_555
N2 C7 1_555 1_555
H11 N2 1_555 1_555
O1 C1 1_555 1_555
H12 O1 1_555 1_555
S1 C7 1_555 1_555
C5 C6 1_555 1_555
C8 N2 1_555 1_555
C12 C13 1_555 1_555

#END
