
#######################################################################
#
#                 Cambridge Crystallographic Data Centre
#                                CCDC 
#
#######################################################################
#
# If this CIF has been generated from an entry in the Cambridge 
# Structural Database, then it will include bibliographic, chemical, 
# crystal, experimental, refinement or atomic coordinate data resulting 
# from the CCDC's data processing and validation procedures.
#
#######################################################################

data_VOFTUF
_chemical_formula_moiety         
'C33 H42 K1 N4 O12 1+,C6 H2 N3 O7 1-,C1 H4 O1,H2 O1'
_chemical_name_systematic        
"(3-Nitro-2,6-bis(4'-benzo-15-crown-5-O,O',O'',O''',O'''')aminopyridine)-potassium picrate methanol solvate monohydrate"
_symmetry_cell_setting           triclinic
_symmetry_space_group_name_H-M   'P -1'
_symmetry_Int_Tables_number      2
_space_group_name_Hall           '-P 1'
loop_
_symmetry_equiv_pos_site_id
_symmetry_equiv_pos_as_xyz
1 x,y,z
2 -x,-y,-z
_cell_length_a                   11.458(2)
_cell_length_b                   14.565(6)
_cell_length_c                   15.828(3)
_cell_angle_alpha                63.34(2)
_cell_angle_beta                 74.06(1)
_cell_angle_gamma                81.03(2)
_cell_volume                     2268.23
_exptl_crystal_colour            yellow
_cell_formula_units_Z            2
loop_
_atom_site_label
_atom_site_type_symbol
_atom_site_fract_x
_atom_site_fract_y
_atom_site_fract_z
K1 K 0.5849(2) 0.1498(2) 0.6494(2)
O2 O 0.6881(6) 0.0001(5) 0.8099(5)
O4 O 0.8396(7) 0.1330(5) 0.6494(5)
O6 O 0.6864(7) 0.3052(5) 0.6628(5)
O7 O 0.4317(7) 0.2726(5) 0.7380(5)
O8 O 0.4794(7) 0.0713(5) 0.8601(5)
O9 O 0.7176(6) 0.0642(5) 0.5072(5)
O10 O 0.6936(6) 0.2734(5) 0.4530(5)
O11 O 0.4332(6) 0.2659(5) 0.5223(4)
O12 O 0.3471(6) 0.0801(5) 0.6914(4)
O13 O 0.5401(6) -0.0356(5) 0.6420(5)
O14 O 0.6397(9) -0.6677(7) 1.1574(6)
O15 O 0.5356(8) -0.5318(6) 1.1684(6)
N1 N 0.6745(8) -0.3592(6) 0.8763(5)
N2 N 0.5579(8) -0.3541(7) 1.0141(5)
N3 N 0.7844(8) -0.3572(6) 0.7321(6)
N4 N 0.609(1) -0.5762(7) 1.1196(7)
C2 C 0.809(1) -0.0345(8) 0.7824(7)
C3 C 0.818(1) 0.1286(8) 0.4428(8)
C4 C 0.761(1) 0.2297(8) 0.3876(7)
C5 C 0.882(1) 0.0603(9) 0.7337(8)
C6 C 0.606(1) 0.3531(7) 0.4136(7)
C7 C 0.880(1) 0.2347(9) 0.6148(9)
C8 C 0.491(1) 0.3136(8) 0.4226(7)
C9 C 0.806(1) 0.2913(9) 0.6734(9)
C10 C 0.324(1) 0.2216(8) 0.5371(8)
C11 C 0.615(1) 0.3596(9) 0.7141(9)
C12 C 0.488(1) 0.3685(9) 0.7038(9)
C13 C 0.271(1) 0.1679(8) 0.6455(7)
C14 C 0.380(1) 0.2308(8) 0.8413(7)
C15 C 0.330(1) -0.0076(8) 0.6804(7)
C16 C 0.362(1) 0.1192(9) 0.8785(8)
C17 C 0.433(1) -0.0850(8) 0.7079(7)
C18 C 0.629(1) -0.4110(8) 0.9694(6)
C19 C 0.657(1) -0.5169(8) 1.0164(7)
C20 C 0.731(1) -0.5678(8) 0.9638(8)
C21 C 0.773(1) -0.5170(9) 0.8682(8)
C22 C 0.740(1) -0.4105(8) 0.8294(7)
C23 C 0.538(1) -0.2433(8) 0.9698(7)
C24 C 0.6310(9) -0.1770(8) 0.9070(7)
C25 C 0.605(1) -0.0730(8) 0.8734(7)
C26 C 0.4889(9) -0.0346(8) 0.8993(7)
C27 C 0.397(1) -0.1016(9) 0.9610(7)
C28 C 0.421(1) -0.2058(8) 0.9961(7)
C29 C 0.771(1) -0.2506(8) 0.6747(7)
C30 C 0.866(1) -0.1960(8) 0.6030(8)
C31 C 0.850(1) -0.0891(8) 0.5460(7)
C32 C 0.7398(9) -0.0406(7) 0.5612(7)
C33 C 0.6428(8) -0.0943(7) 0.6345(6)
C34 C 0.660(1) -0.1987(7) 0.6899(7)
O1 O -0.063(1) -0.3147(7) 1.2318(6)
O16 O 0.012(1) -0.3029(7) 0.8257(6)
O17 O 0.0707(8) -0.1608(7) 0.7869(5)
O18 O -0.085(1) -0.5114(8) 1.2574(7)
O19 O -0.192(1) -0.5069(8) 1.1625(8)
O20 O 0.1069(8) -0.0779(7) 1.0541(6)
O21 O -0.0658(9) -0.1025(7) 1.1476(6)
N5 N 0.018(1) -0.2403(8) 0.8467(7)
N6 N -0.126(1) -0.4738(8) 1.1837(7)
N7 N 0.0137(9) -0.1253(8) 1.0913(6)
C35 C 0.024(1) -0.1842(8) 0.9703(7)
C36 C -0.003(1) -0.2605(9) 0.9494(7)
C37 C -0.056(1) -0.3537(9) 1.0165(7)
C38 C -0.071(1) -0.3704(9) 1.1098(8)
C39 C -0.045(1) -0.301(1) 1.1444(8)
C40 C -0.004(1) -0.2055(9) 1.0646(8)
O3 O 0.0723(8) 0.4351(6) 0.4098(5)
O5 O 0.1234(8) 0.4201(6) 0.5821(6)
C1 C 0.233(1) 0.464(1) 0.5587(9)
loop_
_geom_bond_atom_site_label_1
_geom_bond_atom_site_label_2
_geom_bond_site_symmetry_1
_geom_bond_site_symmetry_2
K1 O2 1_555 1_555
O1 C39 1_555 1_555
O2 C2 1_555 1_555
O4 K1 1_555 1_555
O5 C1 1_555 1_555
O6 K1 1_555 1_555
O7 K1 1_555 1_555
O8 K1 1_555 1_555
O9 K1 1_555 1_555
O10 K1 1_555 1_555
O11 K1 1_555 1_555
O12 K1 1_555 1_555
O13 K1 1_555 1_555
O14 N4 1_555 1_555
O15 N4 1_555 1_555
O16 N5 1_555 1_555
O17 N5 1_555 1_555
O18 N6 1_555 1_555
O19 N6 1_555 1_555
O20 N7 1_555 1_555
O21 N7 1_555 1_555
N1 C18 1_555 1_555
N2 C18 1_555 1_555
N3 C22 1_555 1_555
N4 C19 1_555 1_555
N5 C36 1_555 1_555
N6 C38 1_555 1_555
N7 C40 1_555 1_555
C2 C5 1_555 1_555
C3 O9 1_555 1_555
C4 O10 1_555 1_555
C5 O4 1_555 1_555
C6 O10 1_555 1_555
C7 O4 1_555 1_555
C8 O11 1_555 1_555
C9 O6 1_555 1_555
C10 O11 1_555 1_555
C11 O6 1_555 1_555
C12 O7 1_555 1_555
C13 O12 1_555 1_555
C14 O7 1_555 1_555
C15 O12 1_555 1_555
C16 O8 1_555 1_555
C17 O13 1_555 1_555
C18 C19 1_555 1_555
C19 C20 1_555 1_555
C20 C21 1_555 1_555
C21 C22 1_555 1_555
C22 N1 1_555 1_555
C23 N2 1_555 1_555
C24 C23 1_555 1_555
C25 O2 1_555 1_555
C26 O8 1_555 1_555
C27 C26 1_555 1_555
C28 C23 1_555 1_555
C29 N3 1_555 1_555
C30 C29 1_555 1_555
C31 C30 1_555 1_555
C32 O9 1_555 1_555
C33 O13 1_555 1_555
C34 C29 1_555 1_555
C35 C36 1_555 1_555
C36 C37 1_555 1_555
C37 C38 1_555 1_555
C38 C39 1_555 1_555
C39 C40 1_555 1_555
C40 C35 1_555 1_555
C3 C4 1_555 1_555
C6 C8 1_555 1_555
C7 C9 1_555 1_555
C10 C13 1_555 1_555
C11 C12 1_555 1_555
C14 C16 1_555 1_555
C15 C17 1_555 1_555
C24 C25 1_555 1_555
C25 C26 1_555 1_555
C27 C28 1_555 1_555
C31 C32 1_555 1_555
C32 C33 1_555 1_555
C33 C34 1_555 1_555

#END
