
#######################################################################
#
#                 Cambridge Crystallographic Data Centre
#                                CCDC 
#
#######################################################################
#
# If this CIF has been generated from an entry in the Cambridge 
# Structural Database, then it will include bibliographic, chemical, 
# crystal, experimental, refinement or atomic coordinate data resulting 
# from the CCDC's data processing and validation procedures.
#
#######################################################################

data_VOFVER
_chemical_formula_moiety         
'C16 H38 N2 Na2 O13,2(H3 O1 1+),2(Cl1 1-),H2 O1'
_chemical_name_systematic        
"(\m~2~-Diaza-18-crown-6-N,N'-diacetato-O,O',O'',O''',O'''',O''''',N,N')-(penta-aqua-sodium)-sodium dichloride dioxonium monohydrate"
_symmetry_cell_setting           triclinic
_symmetry_space_group_name_H-M   'P -1'
_symmetry_Int_Tables_number      2
_space_group_name_Hall           '-P 1'
loop_
_symmetry_equiv_pos_site_id
_symmetry_equiv_pos_as_xyz
1 x,y,z
2 -x,-y,-z
_cell_length_a                   9.623(2)
_cell_length_b                   10.902(3)
_cell_length_c                   15.867(3)
_cell_angle_alpha                104.63(2)
_cell_angle_beta                 105.42(2)
_cell_angle_gamma                99.88(2)
_cell_volume                     1500.93
_exptl_crystal_colour            'light yellow'
_cell_formula_units_Z            2
loop_
_atom_site_label
_atom_site_type_symbol
_atom_site_fract_x
_atom_site_fract_y
_atom_site_fract_z
C1 C 0.6251(8) 0.3587(7) 0.8377(5)
C2 C 0.6510(10) 0.3360(8) 0.9298(5)
C3 C 0.6817(9) 0.1187(8) 0.8958(6)
C4 C 0.6171(8) -0.0145(8) 0.8976(5)
C5 C 0.3961(9) -0.1848(7) 0.8325(5)
C6 C 0.2481(8) -0.2312(7) 0.7575(5)
C7 C 0.0965(9) -0.1384(7) 0.8427(5)
C8 C 0.0539(9) -0.0137(8) 0.8801(5)
C9 C 0.1689(12) 0.2104(8) 0.9746(6)
C10 C 0.1455(10) 0.2983(9) 0.9188(6)
C11 C 0.2555(9) 0.4011(8) 0.8292(6)
C12 C 0.4064(9) 0.4454(7) 0.8232(5)
C13 C 0.4396(9) 0.3063(7) 0.6883(5)
C14 C 0.4403(7) 0.1637(7) 0.6419(4)
C15 C 0.0332(8) -0.1716(7) 0.6788(5)
C16 C -0.0148(8) -0.0537(7) 0.6558(5)
N1 N 0.4663(7) 0.3351(5) 0.7877(4)
N2 N 0.1562(6) -0.1378(5) 0.7668(4)
O1 O 0.5938(6) 0.2023(5) 0.9230(3)
O2 O 0.4716(5) -0.0623(5) 0.8318(3)
O3 O 0.1868(6) 0.0886(5) 0.9246(4)
O4 O 0.2726(6) 0.3309(5) 0.8940(4)
O5 O 0.3974(6) 0.0769(4) 0.6743(3)
O6 O 0.4789(5) 0.1433(4) 0.5710(3)
O7 O 0.0639(5) 0.0606(5) 0.6975(3)
O8 O -0.1352(5) -0.0849(5) 0.5898(3)
O12 O 0.3429(6) 0.3335(5) 0.4635(4)
O13 O 0.4366(6) 0.1158(5) 0.3453(3)
O14 O 0.6478(6) 0.4321(5) 0.4138(4)
O15 O 0.7494(5) 0.1397(5) 0.4807(3)
O16 O 0.7926(6) 0.4234(5) 0.6391(4)
Na1 Na 0.5933(3) 0.2824(3) 0.4990(2)
Na2 Na 0.3226(3) 0.1059(3) 0.8066(2)
O9 O 0.8308(6) 0.2014(5) 0.7066(4)
O10 O 0.0564(9) 0.4542(7) 0.5978(7)
O11 O 0.0590(5) 0.1863(5) 0.5642(4)
Cl1 Cl 0.3181(2) 0.3349(2) 0.2589(1)
Cl2 Cl 0.6666(3) 0.0183(3) 0.5775(2)
loop_
_geom_bond_atom_site_label_1
_geom_bond_atom_site_label_2
_geom_bond_site_symmetry_1
_geom_bond_site_symmetry_2
C1 C2 1_555 1_555
C2 O1 1_555 1_555
C3 C4 1_555 1_555
C4 O2 1_555 1_555
C5 C6 1_555 1_555
C6 N2 1_555 1_555
C7 C8 1_555 1_555
C8 O3 1_555 1_555
C9 C10 1_555 1_555
C10 O4 1_555 1_555
C11 C12 1_555 1_555
C12 N1 1_555 1_555
C13 C14 1_555 1_555
C14 O5 1_555 1_555
C15 C16 1_555 1_555
C16 O7 1_555 1_555
N1 C1 1_555 1_555
N2 C7 1_555 1_555
O1 C3 1_555 1_555
O2 C5 1_555 1_555
O3 C9 1_555 1_555
O4 C11 1_555 1_555
O5 Na2 1_555 1_555
O6 C14 1_555 1_555
O7 Na2 1_555 1_555
O8 C16 1_555 1_555
O12 Na1 1_555 1_555
O13 Na1 1_555 1_555
O14 Na1 1_555 1_555
O15 Na1 1_555 1_555
O16 Na1 1_555 1_555
Na1 O6 1_555 1_555
Na2 N1 1_555 1_555
C13 N1 1_555 1_555
C15 N2 1_555 1_555
N2 Na2 1_555 1_555
O1 Na2 1_555 1_555
O2 Na2 1_555 1_555
O3 Na2 1_555 1_555
O4 Na2 1_555 1_555

#END
