
#######################################################################
#
#                 Cambridge Crystallographic Data Centre
#                                CCDC 
#
#######################################################################
#
# If this CIF has been generated from an entry in the Cambridge 
# Structural Database, then it will include bibliographic, chemical, 
# crystal, experimental, refinement or atomic coordinate data resulting 
# from the CCDC's data processing and validation procedures.
#
#######################################################################

data_VOGNUC
_chemical_compound_source        'Cimicifuga foetida'
_chemical_name_common            
'3-(5,6-dihydroxy-6-methyl-4-oxoheptan-2-yl)-9-hydroxy-3a,10,10,12b-tetramethyl-3,3a,4,6,8,9,10,10a,11,12b-decahydrobenzo[4,5]cyclohepta[1,2-e]inden-2(1H)-one methanol solvate'
_chemical_formula_moiety         'C30 H44 O5,C1 H4 O1'
_chemical_name_systematic        'Cimifoetidanol A methanol solvate'
_symmetry_cell_setting           monoclinic
_symmetry_space_group_name_H-M   'P 21'
_symmetry_Int_Tables_number      4
_space_group_name_Hall           'P 2yb'
loop_
_symmetry_equiv_pos_site_id
_symmetry_equiv_pos_as_xyz
1 x,y,z
2 -x,1/2+y,-z
_cell_length_a                   10.4131(9)
_cell_length_b                   7.5296(6)
_cell_length_c                   18.6697(18)
_cell_angle_alpha                90
_cell_angle_beta                 99.683(8)
_cell_angle_gamma                90
_cell_volume                     1442.97
_exptl_crystal_colour            colorless
_exptl_crystal_description       block
_cell_formula_units_Z            2
_exptl_crystal_recrystallization_method Methanol
loop_
_atom_site_label
_atom_site_type_symbol
_atom_site_fract_x
_atom_site_fract_y
_atom_site_fract_z
O1 O 0.5432(3) 0.4160(5) 0.13292(18)
H1 H 0.5941 0.4943 0.1256
O2 O 0.2198(5) 0.0191(5) 0.66459(19)
O3 O -0.0168(3) 0.3177(7) 0.8016(2)
O4 O -0.0588(3) 0.0915(6) 0.9119(2)
H2 H -0.0809 0.1674 0.8807
O5 O 0.2848(3) 0.1753(5) 0.90351(18)
H3 H 0.3257 0.2503 0.9300
C1 C 0.3263(5) 0.6508(6) 0.2431(3)
H4 H 0.2880 0.7614 0.2466
C2 C 0.4083(5) 0.6243(7) 0.1847(3)
H5 H 0.4649 0.7262 0.1837
H6 H 0.3518 0.6166 0.1379
C3 C 0.4905(4) 0.4572(6) 0.1972(2)
H7 H 0.5632 0.4805 0.2367
C4 C 0.4150(4) 0.2974(6) 0.2185(2)
C5 C 0.3672(4) 0.3437(5) 0.2908(2)
H8 H 0.4450 0.3475 0.3285
C6 C 0.2764(4) 0.2009(6) 0.3151(2)
H9 H 0.1878 0.2241 0.2914
H10 H 0.3014 0.0855 0.2988
C7 C 0.2793(4) 0.1938(6) 0.3952(3)
H11 H 0.2876 0.0809 0.4156
C8 C 0.2716(4) 0.3268(5) 0.4418(2)
C9 C 0.2452(4) 0.5138(5) 0.4202(2)
C10 C 0.3058(4) 0.5259(6) 0.2894(2)
C11 C 0.2357(4) 0.6389(6) 0.4701(2)
H12 H 0.2273 0.7559 0.4540
C12 C 0.2375(4) 0.6068(5) 0.5495(2)
H13 H 0.1734 0.6820 0.5667
H14 H 0.3226 0.6359 0.5767
C13 C 0.2063(3) 0.4109(5) 0.5614(2)
C14 C 0.3005(4) 0.2969(5) 0.5238(2)
C15 C 0.2789(4) 0.1093(5) 0.5517(2)
H15 H 0.2093 0.0493 0.5197
H16 H 0.3577 0.0388 0.5553
C16 C 0.2429(4) 0.1384(6) 0.6250(2)
C17 C 0.2309(3) 0.3377(5) 0.6407(2)
H17 H 0.3172 0.3792 0.6638
C18 C 0.0641(4) 0.3726(6) 0.5281(2)
H18 H 0.0431 0.2521 0.5384
H19 H 0.0523 0.3897 0.4764
H20 H 0.0078 0.4520 0.5485
C19 C 0.2086(4) 0.5607(6) 0.3402(2)
H21 H 0.1874 0.6862 0.3372
H22 H 0.1294 0.4966 0.3212
C20 C 0.1355(4) 0.3793(6) 0.6931(2)
H23 H 0.0547 0.3135 0.6767
C21 C 0.1011(5) 0.5775(7) 0.6972(3)
H24 H 0.1798 0.6462 0.7070
H25 H 0.0511 0.5956 0.7353
H26 H 0.0510 0.6144 0.6517
C22 C 0.1939(4) 0.3133(7) 0.7692(2)
H27 H 0.2386 0.2020 0.7644
H28 H 0.2586 0.3985 0.7912
C23 C 0.0986(4) 0.2854(7) 0.8192(2)
C24 C 0.1489(4) 0.2126(7) 0.8954(2)
H29 H 0.1363 0.3045 0.9308
C25 C 0.0745(5) 0.0449(7) 0.9125(3)
C26 C 0.1265(7) -0.0140(10) 0.9894(3)
H30 H 0.1180 0.0813 1.0225
H31 H 0.2167 -0.0458 0.9933
H32 H 0.0779 -0.1150 1.0013
C27 C 0.0843(6) -0.1002(8) 0.8577(4)
H33 H 0.0424 -0.2056 0.8713
H34 H 0.1744 -0.1250 0.8566
H35 H 0.0424 -0.0620 0.8105
C28 C 0.4455(4) 0.3471(6) 0.5484(2)
H36 H 0.4680 0.3332 0.6002
H37 H 0.4590 0.4683 0.5356
H38 H 0.4994 0.2707 0.5249
C29 C 0.3011(5) 0.2511(7) 0.1584(3)
H39 H 0.2622 0.1416 0.1701
H40 H 0.3324 0.2383 0.1131
H41 H 0.2374 0.3443 0.1542
C30 C 0.5098(5) 0.1390(7) 0.2307(3)
H42 H 0.5791 0.1654 0.2700
H43 H 0.5453 0.1178 0.1872
H44 H 0.4640 0.0352 0.2424
O6 O 0.4005(5) 0.4202(6) 0.9927(2)
H45 H 0.4531 0.4233 1.0307
C31 C 0.3518(11) 0.5879(11) 0.9764(5)
H46 H 0.4115 0.6744 1.0006
H47 H 0.2693 0.5998 0.9924
H48 H 0.3405 0.6064 0.9249
loop_
_geom_bond_atom_site_label_1
_geom_bond_atom_site_label_2
_geom_bond_site_symmetry_1
_geom_bond_site_symmetry_2
O1 H1 1_555 1_555
O2 C16 1_555 1_555
O3 C23 1_555 1_555
O4 H2 1_555 1_555
O5 H3 1_555 1_555
C1 H4 1_555 1_555
C2 C1 1_555 1_555
H5 C2 1_555 1_555
H6 C2 1_555 1_555
C3 O1 1_555 1_555
H7 C3 1_555 1_555
C4 C3 1_555 1_555
C5 C4 1_555 1_555
H8 C5 1_555 1_555
C6 C5 1_555 1_555
H9 C6 1_555 1_555
H10 C6 1_555 1_555
C7 C6 1_555 1_555
H11 C7 1_555 1_555
C8 C7 1_555 1_555
C9 C8 1_555 1_555
C10 C1 1_555 1_555
C11 C9 1_555 1_555
H12 C11 1_555 1_555
C12 C11 1_555 1_555
H13 C12 1_555 1_555
H14 C12 1_555 1_555
C13 C12 1_555 1_555
C14 C8 1_555 1_555
C15 C14 1_555 1_555
H15 C15 1_555 1_555
H16 C15 1_555 1_555
C16 C15 1_555 1_555
C17 C13 1_555 1_555
H17 C17 1_555 1_555
C18 C13 1_555 1_555
H18 C18 1_555 1_555
H19 C18 1_555 1_555
H20 C18 1_555 1_555
C19 C9 1_555 1_555
H21 C19 1_555 1_555
H22 C19 1_555 1_555
C20 C17 1_555 1_555
H23 C20 1_555 1_555
C21 C20 1_555 1_555
H24 C21 1_555 1_555
H25 C21 1_555 1_555
H26 C21 1_555 1_555
C22 C20 1_555 1_555
H27 C22 1_555 1_555
H28 C22 1_555 1_555
C23 C22 1_555 1_555
C24 O5 1_555 1_555
H29 C24 1_555 1_555
C25 O4 1_555 1_555
C26 C25 1_555 1_555
H30 C26 1_555 1_555
H31 C26 1_555 1_555
H32 C26 1_555 1_555
C27 C25 1_555 1_555
H33 C27 1_555 1_555
H34 C27 1_555 1_555
H35 C27 1_555 1_555
C28 C14 1_555 1_555
H36 C28 1_555 1_555
H37 C28 1_555 1_555
H38 C28 1_555 1_555
C29 C4 1_555 1_555
H39 C29 1_555 1_555
H40 C29 1_555 1_555
H41 C29 1_555 1_555
C30 C4 1_555 1_555
H42 C30 1_555 1_555
H43 C30 1_555 1_555
H44 C30 1_555 1_555
O6 H45 1_555 1_555
C31 O6 1_555 1_555
H46 C31 1_555 1_555
H47 C31 1_555 1_555
H48 C31 1_555 1_555
C2 C3 1_555 1_555
C5 C10 1_555 1_555
C10 C19 1_555 1_555
C13 C14 1_555 1_555
C16 C17 1_555 1_555
C23 C24 1_555 1_555
C24 C25 1_555 1_555

#END
