
#######################################################################
#
#                 Cambridge Crystallographic Data Centre
#                                CCDC 
#
#######################################################################
#
# If this CIF has been generated from an entry in the Cambridge 
# Structural Database, then it will include bibliographic, chemical, 
# crystal, experimental, refinement or atomic coordinate data resulting 
# from the CCDC's data processing and validation procedures.
#
#######################################################################

data_VOHJUY
_chemical_formula_moiety         'C14 H13 N1 O4'
_chemical_name_systematic        
'(E)-ethyl 3-(1,3-dioxo-1,3-dihydro-2H-isoindol-2-yl)-2-butenoate'
_symmetry_cell_setting           monoclinic
_symmetry_space_group_name_H-M   'P c'
_symmetry_Int_Tables_number      7
_space_group_name_Hall           'P -2yc'
loop_
_symmetry_equiv_pos_site_id
_symmetry_equiv_pos_as_xyz
1 x,y,z
2 x,-y,1/2+z
_cell_length_a                   6.3701(7)
_cell_length_b                   13.0956(14)
_cell_length_c                   7.4352(8)
_cell_angle_alpha                90
_cell_angle_beta                 100.464(2)
_cell_angle_gamma                90
_cell_volume                     609.931
_exptl_crystal_colour            colorless
_exptl_crystal_description       plate
_cell_formula_units_Z            2
loop_
_atom_site_label
_atom_site_type_symbol
_atom_site_fract_x
_atom_site_fract_y
_atom_site_fract_z
O1 O -0.15605(13) 0.17682(7) 0.39659(13)
O2 O -0.84875(15) 0.15625(7) 0.08582(13)
O3 O -0.16432(14) 0.49539(7) 0.13484(13)
O4 O -0.47529(17) 0.52875(7) 0.22812(15)
N1 N -0.50707(15) 0.19549(7) 0.24065(15)
C1 C -0.32243(19) 0.14019(9) 0.32126(16)
C2 C -0.38154(18) 0.03056(9) 0.29464(15)
C3 C -0.2595(2) -0.05514(10) 0.34721(17)
H1 H -0.122(3) -0.0534(15) 0.405(3)
C4 C -0.3575(2) -0.14960(10) 0.30475(19)
H2 H -0.273(3) -0.2098(15) 0.342(3)
C5 C -0.5677(2) -0.15707(10) 0.21282(19)
H3 H -0.628(3) -0.2238(16) 0.187(3)
C6 C -0.6904(2) -0.06975(9) 0.15921(18)
H4 H -0.844(3) -0.0750(15) 0.101(3)
C7 C -0.59196(18) 0.02375(8) 0.20361(15)
C8 C -0.67542(19) 0.12913(9) 0.16611(16)
C9 C -0.52465(17) 0.30418(8) 0.23740(16)
C10 C -0.36704(18) 0.35605(9) 0.18227(16)
H5 H -0.261(4) 0.3230(17) 0.140(3)
C11 C -0.34867(18) 0.46863(9) 0.18581(15)
C12 C -0.1141(2) 0.60346(9) 0.12890(17)
H6 H -0.243(4) 0.6421(15) 0.115(3)
H7 H -0.046(3) 0.6094(14) 0.026(3)
C13 C 0.0371(2) 0.63364(10) 0.3005(2)
H8 H -0.031(4) 0.6187(17) 0.407(3)
H9 H 0.065(3) 0.7096(17) 0.300(3)
H10 H 0.162(4) 0.6026(19) 0.301(3)
C14 C -0.71200(19) 0.34759(9) 0.30804(18)
H11 H -0.661(3) 0.3828(16) 0.422(3)
H12 H -0.810(3) 0.2988(17) 0.329(3)
H13 H -0.777(4) 0.400(2) 0.222(3)
loop_
_geom_bond_atom_site_label_1
_geom_bond_atom_site_label_2
_geom_bond_site_symmetry_1
_geom_bond_site_symmetry_2
O1 C1 1_555 1_555
O2 C8 1_555 1_555
O3 C11 1_555 1_555
O4 C11 1_555 1_555
N1 C1 1_555 1_555
C1 C2 1_555 1_555
C2 C3 1_555 1_555
C3 H1 1_555 1_555
C4 C3 1_555 1_555
H2 C4 1_555 1_555
C5 C4 1_555 1_555
H3 C5 1_555 1_555
C6 C5 1_555 1_555
H4 C6 1_555 1_555
C7 C2 1_555 1_555
C8 N1 1_555 1_555
C9 N1 1_555 1_555
C10 C9 1_555 1_555
H5 C10 1_555 1_555
C11 C10 1_555 1_555
C12 O3 1_555 1_555
H6 C12 1_555 1_555
H7 C12 1_555 1_555
C13 C12 1_555 1_555
H8 C13 1_555 1_555
H9 C13 1_555 1_555
H10 C13 1_555 1_555
C14 C9 1_555 1_555
H11 C14 1_555 1_555
H12 C14 1_555 1_555
H13 C14 1_555 1_555
C6 C7 1_555 1_555
C7 C8 1_555 1_555

#END
