
#######################################################################
#
#                 Cambridge Crystallographic Data Centre
#                                CCDC 
#
#######################################################################
#
# If this CIF has been generated from an entry in the Cambridge 
# Structural Database, then it will include bibliographic, chemical, 
# crystal, experimental, refinement or atomic coordinate data resulting 
# from the CCDC's data processing and validation procedures.
#
#######################################################################

data_VOHJEI
_chemical_name_common            
1-(4-(3,6-bis(t-butyl)-N-carbazolyl)phenyl)octa-1,3,5,7-tetrayne
_chemical_formula_moiety         'C34 H29 N1'
_chemical_name_systematic        
3,6-bis(t-butyl)-9-(4-(1,3,5,7-octatetrayn-1-yl)phenyl)-9H-carbazole
_symmetry_cell_setting           monoclinic
_symmetry_space_group_name_H-M   'P 21/c'
_symmetry_Int_Tables_number      14
_space_group_name_Hall           '-P 2ybc'
loop_
_symmetry_equiv_pos_site_id
_symmetry_equiv_pos_as_xyz
1 x,y,z
2 -x,1/2+y,1/2-z
3 -x,-y,-z
4 x,1/2-y,1/2+z
_cell_length_a                   21.065(3)
_cell_length_b                   5.6665(8)
_cell_length_c                   22.090(4)
_cell_angle_alpha                90
_cell_angle_beta                 98.48(5)
_cell_angle_gamma                90
_cell_volume                     2607.94
_exptl_crystal_colour            'light brown'
_exptl_crystal_description       plate
_cell_formula_units_Z            4
_exptl_crystal_recrystallization_method dichloromethane/ethanol
loop_
_atom_site_label
_atom_site_type_symbol
_atom_site_fract_x
_atom_site_fract_y
_atom_site_fract_z
N1 N 0.22644(11) 0.1266(4) 0.34675(10)
C1 C 0.28914(14) 0.1543(6) 0.25785(13)
H1 H 0.3208 0.0410 0.2729
C2 C 0.29064(14) 0.2681(6) 0.20279(13)
H2 H 0.3238 0.2288 0.1798
C3 C 0.24508(14) 0.4394(5) 0.17884(13)
C4 C 0.19669(13) 0.4939(5) 0.21229(12)
H3 H 0.1653 0.6079 0.1972
C5 C 0.09667(13) 0.5441(5) 0.31665(12)
H4 H 0.0824 0.6527 0.2848
C6 C 0.06485(13) 0.5298(5) 0.36782(13)
C7 C 0.08882(13) 0.3733(5) 0.41425(13)
H5 H 0.0682 0.3668 0.4496
C8 C 0.14140(13) 0.2265(5) 0.41208(13)
H6 H 0.1562 0.1206 0.4444
C9 C 0.17127(13) 0.2410(5) 0.35964(12)
C10 C 0.14970(13) 0.3998(5) 0.31270(12)
C11 C 0.19343(14) 0.3829(5) 0.26814(12)
C12 C 0.23973(14) 0.2148(6) 0.29041(13)
C13 C 0.00481(13) 0.6772(6) 0.37238(13)
C14 C -0.05359(13) 0.5104(6) 0.36345(15)
H7 H -0.0575 0.4361 0.3231
H8 H -0.0925 0.6010 0.3666
H9 H -0.0479 0.3884 0.3951
C15 C -0.00597(13) 0.8712(5) 0.32441(12)
H10 H -0.0115 0.8014 0.2834
H11 H 0.0312 0.9771 0.3294
H12 H -0.0446 0.9605 0.3297
C16 C 0.00918(14) 0.7918(5) 0.43575(12)
H13 H 0.0131 0.6691 0.4673
H14 H -0.0296 0.8852 0.4378
H15 H 0.0469 0.8948 0.4426
C17 C 0.25189(15) 0.5536(6) 0.11723(13)
C18 C 0.19729(14) 0.7272(6) 0.09630(13)
H16 H 0.1560 0.6446 0.0922
H17 H 0.2031 0.7954 0.0568
H18 H 0.1979 0.8532 0.1267
C19 C 0.25291(14) 0.3656(6) 0.06783(12)
H19 H 0.2121 0.2800 0.0619
H20 H 0.2881 0.2551 0.0805
H21 H 0.2593 0.4414 0.0294
C20 C 0.31545(14) 0.6923(6) 0.12441(13)
H22 H 0.3155 0.8115 0.1565
H23 H 0.3198 0.7699 0.0857
H24 H 0.3514 0.5836 0.1356
C21 C 0.26521(14) -0.0348(6) 0.38453(12)
C22 C 0.23803(13) -0.2276(6) 0.40985(12)
H25 H 0.1928 -0.2485 0.4031
C23 C 0.27671(14) -0.3867(5) 0.44525(13)
H26 H 0.2578 -0.5185 0.4622
C24 C 0.34319(14) -0.3587(6) 0.45612(13)
C25 C 0.36931(14) -0.1630(6) 0.43091(13)
H27 H 0.4145 -0.1421 0.4376
C26 C 0.33146(14) -0.0021(6) 0.39629(13)
H28 H 0.3503 0.1324 0.3805
C27 C 0.38274(15) -0.5257(6) 0.49275(14)
C28 C 0.41302(15) -0.6740(7) 0.52323(14)
C29 C 0.44494(15) -0.8503(7) 0.55729(15)
C30 C 0.47051(15) -1.0135(7) 0.58713(15)
C31 C 0.49844(15) -1.1947(7) 0.62224(15)
C32 C 0.52087(16) -1.3549(7) 0.65348(16)
C33 C 0.54459(18) -1.5380(8) 0.69093(17)
C34 C 0.56291(19) -1.6969(8) 0.72314(17)
H29 H 0.5777 -1.8252 0.7491
loop_
_geom_bond_atom_site_label_1
_geom_bond_atom_site_label_2
_geom_bond_site_symmetry_1
_geom_bond_site_symmetry_2
N1 C9 1_555 1_555
C1 H1 1_555 1_555
C2 C1 1_555 1_555
H2 C2 1_555 1_555
C3 C2 1_555 1_555
C4 C3 1_555 1_555
H3 C4 1_555 1_555
C5 H4 1_555 1_555
C6 C5 1_555 1_555
C7 C6 1_555 1_555
H5 C7 1_555 1_555
C8 C7 1_555 1_555
H6 C8 1_555 1_555
C9 C8 1_555 1_555
C10 C5 1_555 1_555
C11 C4 1_555 1_555
C12 N1 1_555 1_555
C13 C6 1_555 1_555
C14 C13 1_555 1_555
H7 C14 1_555 1_555
H8 C14 1_555 1_555
H9 C14 1_555 1_555
C15 C13 1_555 1_555
H10 C15 1_555 1_555
H11 C15 1_555 1_555
H12 C15 1_555 1_555
C16 C13 1_555 1_555
H13 C16 1_555 1_555
H14 C16 1_555 1_555
H15 C16 1_555 1_555
C17 C3 1_555 1_555
C18 C17 1_555 1_555
H16 C18 1_555 1_555
H17 C18 1_555 1_555
H18 C18 1_555 1_555
C19 C17 1_555 1_555
H19 C19 1_555 1_555
H20 C19 1_555 1_555
H21 C19 1_555 1_555
C20 C17 1_555 1_555
H22 C20 1_555 1_555
H23 C20 1_555 1_555
H24 C20 1_555 1_555
C21 N1 1_555 1_555
C22 C21 1_555 1_555
H25 C22 1_555 1_555
C23 C22 1_555 1_555
H26 C23 1_555 1_555
C24 C23 1_555 1_555
C25 C24 1_555 1_555
H27 C25 1_555 1_555
C26 C21 1_555 1_555
H28 C26 1_555 1_555
C27 C24 1_555 1_555
C28 C27 1_555 1_555
C29 C28 1_555 1_555
C30 C29 1_555 1_555
C31 C30 1_555 1_555
C32 C31 1_555 1_555
C33 C32 1_555 1_555
C34 C33 1_555 1_555
H29 C34 1_555 1_555
C1 C12 1_555 1_555
C9 C10 1_555 1_555
C10 C11 1_555 1_555
C11 C12 1_555 1_555
C25 C26 1_555 1_555

#END
