
#######################################################################
#
#                 Cambridge Crystallographic Data Centre
#                                CCDC 
#
#######################################################################
#
# If this CIF has been generated from an entry in the Cambridge 
# Structural Database, then it will include bibliographic, chemical, 
# crystal, experimental, refinement or atomic coordinate data resulting 
# from the CCDC's data processing and validation procedures.
#
#######################################################################

data_VOHRER
_chemical_formula_moiety         'C12 H22 N4 O4 Si1'
_chemical_name_systematic        
(1-(3-(2,8,9-trioxa-5-aza-1-silabicyclo[3.3.3]undec-1-yl)propyl)-1H-1,2,3-triazol-4-yl)methanol
_symmetry_cell_setting           monoclinic
_symmetry_space_group_name_H-M   'C 2/c'
_symmetry_Int_Tables_number      15
_space_group_name_Hall           '-C 2yn'
loop_
_symmetry_equiv_pos_site_id
_symmetry_equiv_pos_as_xyz
1 x,y,z
2 -x,y,1/2-z
3 1/2+x,1/2+y,z
4 1/2-x,1/2+y,1/2-z
5 -x,-y,-z
6 x,-y,1/2+z
7 1/2-x,1/2-y,-z
8 1/2+x,1/2-y,1/2+z
_cell_length_a                   23.2106(5)
_cell_length_b                   11.4407(3)
_cell_length_c                   14.1836(10)
_cell_angle_alpha                90
_cell_angle_beta                 127.208(9)
_cell_angle_gamma                90
_cell_volume                     2999.73
_cell_formula_units_Z            8
loop_
_atom_site_label
_atom_site_type_symbol
_atom_site_fract_x
_atom_site_fract_y
_atom_site_fract_z
C1 C 0.04090(14) 0.3984(3) 1.1674(2)
H1 H 0.0527 0.4808 1.1845
H2 H -0.0090 0.3884 1.1374
C2 C 0.04837(13) 0.3621(2) 1.0748(2)
C3 C 0.09959(13) 0.3887(3) 1.0587(2)
H3 H 0.1390 0.4385 1.1047
C4 C 0.11528(13) 0.3205(2) 0.9036(2)
H4 H 0.0781 0.3286 0.8190
H5 H 0.1366 0.2435 0.9178
C5 C 0.17290(13) 0.4109(2) 0.9432(2)
H6 H 0.2117 0.4014 1.0270
H7 H 0.1526 0.4885 0.9310
C6 C 0.20304(13) 0.3976(2) 0.8725(2)
H8 H 0.1629 0.4057 0.7892
H9 H 0.2212 0.3185 0.8840
C7 C 0.33531(18) 0.4787(3) 0.7897(3)
H10 H 0.3179 0.4734 0.7081
H11 H 0.3755 0.4250 0.8369
C8 C 0.35956(17) 0.6025(3) 0.8349(3)
H12 H 0.4070 0.6173 0.8551
H13 H 0.3256 0.6586 0.7754
C9 C 0.40540(15) 0.5161(3) 1.1231(3)
H14 H 0.4409 0.4597 1.1798
H15 H 0.4030 0.5791 1.1664
C10 C 0.42732(14) 0.5641(3) 1.0489(3)
H16 H 0.4634 0.6250 1.0917
H17 H 0.4474 0.5024 1.0298
C11 C 0.26097(17) 0.7359(3) 0.8765(3)
H18 H 0.2454 0.7979 0.9030
H19 H 0.2431 0.7531 0.7960
C12 C 0.34212(16) 0.7290(3) 0.9557(3)
H20 H 0.3619 0.7883 0.9338
H21 H 0.3612 0.7415 1.0375
N1 N 0.00144(13) 0.2873(3) 0.9880(2)
N2 N 0.02121(14) 0.2664(3) 0.9201(2)
N3 N 0.08120(10) 0.3284(2) 0.96338(18)
N4 N 0.36186(11) 0.6111(2) 0.94111(19)
O1 O 0.08620(11) 0.3336(2) 1.27363(18)
H22 H 0.136(2) 0.3448(5) 1.3052(14)
O2 O 0.23255(9) 0.62588(16) 0.87997(17)
O3 O 0.33664(9) 0.46173(18) 1.04640(16)
O4 O 0.27887(11) 0.4494(2) 0.79807(19)
Si1 Si 0.27641(3) 0.49981(6) 0.90568(6)
loop_
_geom_bond_atom_site_label_1
_geom_bond_atom_site_label_2
_geom_bond_site_symmetry_1
_geom_bond_site_symmetry_2
C1 H1 1_555 1_555
H2 C1 1_555 1_555
C2 C1 1_555 1_555
C3 C2 1_555 1_555
H3 C3 1_555 1_555
C4 H4 1_555 1_555
H5 C4 1_555 1_555
C5 C4 1_555 1_555
H6 C5 1_555 1_555
H7 C5 1_555 1_555
C6 C5 1_555 1_555
H8 C6 1_555 1_555
H9 C6 1_555 1_555
C7 H10 1_555 1_555
H11 C7 1_555 1_555
C8 C7 1_555 1_555
H12 C8 1_555 1_555
H13 C8 1_555 1_555
C9 H14 1_555 1_555
H15 C9 1_555 1_555
C10 C9 1_555 1_555
H16 C10 1_555 1_555
H17 C10 1_555 1_555
C11 H18 1_555 1_555
H19 C11 1_555 1_555
C12 C11 1_555 1_555
H20 C12 1_555 1_555
H21 C12 1_555 1_555
N1 C2 1_555 1_555
N2 N1 1_555 1_555
N3 C3 1_555 1_555
N4 C8 1_555 1_555
O1 C1 1_555 1_555
H22 O1 1_555 1_555
O2 C11 1_555 1_555
O3 C9 1_555 1_555
O4 C7 1_555 1_555
Si1 C6 1_555 1_555
C4 N3 1_555 1_555
C10 N4 1_555 1_555
C12 N4 1_555 1_555
N2 N3 1_555 1_555
N4 Si1 1_555 1_555
O2 Si1 1_555 1_555
O3 Si1 1_555 1_555
O4 Si1 1_555 1_555

#END
