
#######################################################################
#
#                 Cambridge Crystallographic Data Centre
#                                CCDC 
#
#######################################################################
#
# If this CIF has been generated from an entry in the Cambridge 
# Structural Database, then it will include bibliographic, chemical, 
# crystal, experimental, refinement or atomic coordinate data resulting 
# from the CCDC's data processing and validation procedures.
#
#######################################################################

data_VOJCIH
_chemical_formula_moiety         'C11 H18 N4 2+,2(F6 P1 1-)'
_chemical_name_systematic        
"3,3'-Dimethyl-1,1'-(propane-1,3-diyl)diimidazol-1-ium bis(hexafluorophosphate)"
_symmetry_cell_setting           triclinic
_symmetry_space_group_name_H-M   'P -1'
_symmetry_Int_Tables_number      2
_space_group_name_Hall           '-P 1'
loop_
_symmetry_equiv_pos_site_id
_symmetry_equiv_pos_as_xyz
1 x,y,z
2 -x,-y,-z
_cell_length_a                   8.2300(16)
_cell_length_b                   10.192(2)
_cell_length_c                   12.856(3)
_cell_angle_alpha                107.99(3)
_cell_angle_beta                 104.50(3)
_cell_angle_gamma                96.35(3)
_cell_volume                     972.073
_exptl_crystal_colour            colorless
_exptl_crystal_description       block
_chemical_melting_point          '414 K'
_cell_formula_units_Z            2
_exptl_crystal_recrystallization_method water
loop_
_atom_site_label
_atom_site_type_symbol
_atom_site_fract_x
_atom_site_fract_y
_atom_site_fract_z
P1 P 0.17011(11) 0.74314(10) 0.95610(8)
F1 F 0.2940(19) 0.681(2) 1.0328(16)
F2 F 0.0282(10) 0.752(2) 0.8566(8)
F3 F 0.2002(14) 0.6372(10) 0.8485(8)
F4 F 0.114(3) 0.871(3) 1.042(3)
F5 F 0.0358(18) 0.6358(16) 0.9717(13)
F6 F 0.3276(19) 0.8550(14) 0.9610(14)
P2 P 0.71510(11) 0.77369(9) 0.42397(8)
F13 F 0.863(3) 0.772(3) 0.536(2)
F14 F 0.671(5) 0.902(2) 0.513(3)
F15 F 0.573(4) 0.776(5) 0.328(3)
F16 F 0.803(4) 0.865(3) 0.380(3)
F17 F 0.765(3) 0.6468(16) 0.3366(17)
F18 F 0.588(3) 0.659(2) 0.4499(13)
N1 N 0.6733(4) 0.7139(4) 0.9682(3)
C1 C 0.7252(7) 0.7372(7) 1.0910(4)
H1 H 0.7686 0.8359 1.1336
H2 H 0.8132 0.6858 1.1081
H3 H 0.6281 0.7052 1.1119
N2 N 0.6251(4) 0.7563(3) 0.8105(2)
C2 C 0.6823(4) 0.8143(4) 0.9236(3)
H4 H 0.7224 0.9101 0.9650
N3 N 0.2487(4) 0.7375(3) 0.5612(3)
C3 C 0.5781(5) 0.6144(4) 0.7827(4)
H5 H 0.5335 0.5478 0.7091
N4 N 0.1799(4) 0.6783(3) 0.3781(3)
C4 C 0.6078(5) 0.5889(4) 0.8803(4)
H6 H 0.5874 0.5008 0.8873
C5 C 0.6155(6) 0.8329(5) 0.7305(4)
H7 H 0.5976 0.7665 0.6540
H8 H 0.7237 0.8980 0.7523
C6 C 0.4733(7) 0.9135(5) 0.7285(4)
H9 H 0.4898 0.9764 0.8060
H10 H 0.4830 0.9715 0.6822
C7 C 0.2951(6) 0.8265(5) 0.6833(4)
H11 H 0.2848 0.7666 0.7281
H12 H 0.2147 0.8886 0.6931
C8 C 0.2296(4) 0.7848(4) 0.4749(3)
H13 H 0.2486 0.8793 0.4819
C9 C 0.1662(5) 0.5574(4) 0.4025(4)
H14 H 0.1337 0.4660 0.3495
C10 C 0.2074(5) 0.5934(4) 0.5150(4)
H15 H 0.2082 0.5320 0.5556
C11 C 0.1433(6) 0.6887(6) 0.2638(4)
H16 H 0.1623 0.7862 0.2709
H17 H 0.0261 0.6447 0.2209
H18 H 0.2176 0.6422 0.2247
F7? F 0.309(3) 0.753(3) 1.0618(19)
F8? F 0.072(3) 0.838(3) 0.894(2)
F9? F 0.229(3) 0.618(2) 0.880(3)
F10? F 0.143(2) 0.8495(18) 1.0606(13)
F11? F 0.004(3) 0.643(3) 0.937(3)
F12? F 0.298(4) 0.843(3) 0.936(2)
F19? F 0.633(2) 0.8923(15) 0.4897(19)
F20? F 0.561(2) 0.747(2) 0.3081(16)
F21? F 0.864(3) 0.800(4) 0.526(2)
F22? F 0.791(2) 0.6508(15) 0.359(2)
F23? F 0.849(3) 0.891(2) 0.402(2)
F24? F 0.602(3) 0.673(2) 0.4581(16)
loop_
_geom_bond_atom_site_label_1
_geom_bond_atom_site_label_2
_geom_bond_site_symmetry_1
_geom_bond_site_symmetry_2
P1 F1 1_555 1_555
F2 P1 1_555 1_555
F3 P1 1_555 1_555
F4 P1 1_555 1_555
F5 P1 1_555 1_555
F6 P1 1_555 1_555
P2 F13 1_555 1_555
F14 P2 1_555 1_555
F15 P2 1_555 1_555
F16 P2 1_555 1_555
F17 P2 1_555 1_555
F18 P2 1_555 1_555
N1 C1 1_555 1_555
C1 H1 1_555 1_555
H2 C1 1_555 1_555
H3 C1 1_555 1_555
N2 C2 1_555 1_555
C2 N1 1_555 1_555
H4 C2 1_555 1_555
N3 C7 1_555 1_555
C3 N2 1_555 1_555
H5 C3 1_555 1_555
N4 C8 1_555 1_555
C4 N1 1_555 1_555
H6 C4 1_555 1_555
C5 N2 1_555 1_555
H7 C5 1_555 1_555
H8 C5 1_555 1_555
C6 C5 1_555 1_555
H9 C6 1_555 1_555
H10 C6 1_555 1_555
C7 C6 1_555 1_555
H11 C7 1_555 1_555
H12 C7 1_555 1_555
C8 N3 1_555 1_555
H13 C8 1_555 1_555
C9 N4 1_555 1_555
H14 C9 1_555 1_555
C10 N3 1_555 1_555
H15 C10 1_555 1_555
C11 N4 1_555 1_555
H16 C11 1_555 1_555
H17 C11 1_555 1_555
H18 C11 1_555 1_555
C3 C4 1_555 1_555
C9 C10 1_555 1_555

#END
