
#######################################################################
#
#                 Cambridge Crystallographic Data Centre
#                                CCDC 
#
#######################################################################
#
# If this CIF has been generated from an entry in the Cambridge 
# Structural Database, then it will include bibliographic, chemical, 
# crystal, experimental, refinement or atomic coordinate data resulting 
# from the CCDC's data processing and validation procedures.
#
#######################################################################

data_VOJHUY
_chemical_formula_moiety         'C18 H16 F2 O4'
_chemical_name_systematic        
'Ethyl 3-(2,4-difluorophenoxy)-2-(4-methoxyphenyl)acrylate'
_symmetry_cell_setting           monoclinic
_symmetry_space_group_name_H-M   'P 21/c'
_symmetry_Int_Tables_number      14
_space_group_name_Hall           '-P 2ybc'
loop_
_symmetry_equiv_pos_site_id
_symmetry_equiv_pos_as_xyz
1 x,y,z
2 -x,1/2+y,1/2-z
3 -x,-y,-z
4 x,1/2-y,1/2+z
_cell_length_a                   17.295(3)
_cell_length_b                   7.294(2)
_cell_length_c                   14.233(2)
_cell_angle_alpha                90
_cell_angle_beta                 113.73(3)
_cell_angle_gamma                90
_cell_volume                     1643.68
_exptl_crystal_colour            colorless
_exptl_crystal_description       block
_cell_formula_units_Z            4
loop_
_atom_site_label
_atom_site_type_symbol
_atom_site_fract_x
_atom_site_fract_y
_atom_site_fract_z
F1 F -0.10160(10) 0.2759(3) 0.53359(13)
F2 F -0.21582(12) 0.0299(3) 0.20055(15)
O1 O 0.11843(13) 0.3874(4) 0.73642(16)
O2 O 0.25578(13) 0.4637(3) 0.80903(15)
O3 O 0.52673(12) 0.3660(3) 0.63131(16)
O4 O 0.05420(13) 0.2906(4) 0.53932(19)
C1 C -0.01146(16) 0.2255(4) 0.4503(2)
C2 C -0.09183(17) 0.2176(4) 0.4484(2)
C3 C -0.16113(18) 0.1544(5) 0.3667(2)
H1 H -0.2144 0.1520 0.3682
C4 C -0.14818(19) 0.0949(5) 0.2827(2)
C5 C -0.0706(2) 0.0975(5) 0.2794(2)
H2 H -0.0637 0.0558 0.2215
C6 C -0.00211(18) 0.1628(5) 0.3632(2)
H3 H 0.0510 0.1649 0.3612
C7 C 0.28913(16) 0.3613(4) 0.6413(2)
C8 C 0.35658(17) 0.2736(4) 0.7170(2)
H4 H 0.3479 0.2147 0.7699
C9 C 0.43628(17) 0.2708(4) 0.7167(2)
H5 H 0.4803 0.2108 0.7686
C10 C 0.45029(17) 0.3582(4) 0.6383(2)
C11 C 0.38402(17) 0.4463(4) 0.5619(2)
H6 H 0.3928 0.5041 0.5087
C12 C 0.30513(17) 0.4491(4) 0.5639(2)
H7 H 0.2615 0.5109 0.5124
C13 C 0.13631(16) 0.3039(4) 0.5529(2)
H8 H 0.1485 0.2747 0.4967
C14 C 0.20244(17) 0.3551(4) 0.6398(2)
C15 C 0.18686(18) 0.4008(4) 0.7308(2)
C16 C 0.2474(2) 0.5001(6) 0.9039(2)
H9 H 0.2254 0.3927 0.9251
H10 H 0.2085 0.6009 0.8950
C17 C 0.3315(3) 0.5472(6) 0.9827(3)
H11 H 0.3700 0.4482 0.9896
H12 H 0.3273 0.5675 1.0472
H13 H 0.3517 0.6565 0.9626
C18 C 0.59573(18) 0.2753(5) 0.7078(3)
H14 H 0.6035 0.3215 0.7741
H15 H 0.6460 0.2967 0.6962
H16 H 0.5846 0.1460 0.7049
loop_
_geom_bond_atom_site_label_1
_geom_bond_atom_site_label_2
_geom_bond_site_symmetry_1
_geom_bond_site_symmetry_2
F1 C2 1_555 1_555
F2 C4 1_555 1_555
O1 C15 1_555 1_555
O2 C15 1_555 1_555
O3 C10 1_555 1_555
O4 C1 1_555 1_555
C1 C2 1_555 1_555
C2 C3 1_555 1_555
C3 H1 1_555 1_555
C4 C3 1_555 1_555
C5 C4 1_555 1_555
H2 C5 1_555 1_555
C6 C1 1_555 1_555
H3 C6 1_555 1_555
C7 C8 1_555 1_555
C8 H4 1_555 1_555
C9 C8 1_555 1_555
H5 C9 1_555 1_555
C10 C9 1_555 1_555
C11 C10 1_555 1_555
H6 C11 1_555 1_555
C12 C7 1_555 1_555
H7 C12 1_555 1_555
C13 O4 1_555 1_555
H8 C13 1_555 1_555
C14 C7 1_555 1_555
C15 C14 1_555 1_555
C16 O2 1_555 1_555
H9 C16 1_555 1_555
H10 C16 1_555 1_555
C17 C16 1_555 1_555
H11 C17 1_555 1_555
H12 C17 1_555 1_555
H13 C17 1_555 1_555
C18 O3 1_555 1_555
H14 C18 1_555 1_555
H15 C18 1_555 1_555
H16 C18 1_555 1_555
C5 C6 1_555 1_555
C11 C12 1_555 1_555
C13 C14 1_555 1_555

#END
