
#######################################################################
#
#                 Cambridge Crystallographic Data Centre
#                                CCDC 
#
#######################################################################
#
# If this CIF has been generated from an entry in the Cambridge 
# Structural Database, then it will include bibliographic, chemical, 
# crystal, experimental, refinement or atomic coordinate data resulting 
# from the CCDC's data processing and validation procedures.
#
#######################################################################

data_VOJJIO
_chemical_formula_moiety         'C17 H13 Cl1 F2 O3'
_chemical_name_systematic        
'Ethyl 2-(4-chlorophenyl)-3-(2,4-difluorophenoxy)acrylate'
_symmetry_cell_setting           monoclinic
_symmetry_space_group_name_H-M   'P 21/c'
_symmetry_Int_Tables_number      14
_space_group_name_Hall           '-P 2ybc'
loop_
_symmetry_equiv_pos_site_id
_symmetry_equiv_pos_as_xyz
1 x,y,z
2 -x,1/2+y,1/2-z
3 -x,-y,-z
4 x,1/2-y,1/2+z
_cell_length_a                   16.275(3)
_cell_length_b                   7.503(2)
_cell_length_c                   13.812(3)
_cell_angle_alpha                90
_cell_angle_beta                 111.11(3)
_cell_angle_gamma                90
_cell_volume                     1573.41
_exptl_crystal_colour            colorless
_exptl_crystal_description       block
_cell_formula_units_Z            4
loop_
_atom_site_label
_atom_site_type_symbol
_atom_site_fract_x
_atom_site_fract_y
_atom_site_fract_z
C1 C 1.0187(2) 0.7796(5) 0.9699(3)
C2 C 1.1022(2) 0.7724(5) 1.0453(3)
C3 C 1.1764(2) 0.8337(6) 1.0319(3)
H1 H 1.2315 0.8266 1.0844
C4 C 1.1654(3) 0.9066(6) 0.9368(3)
C5 C 1.0851(3) 0.9178(6) 0.8598(3)
H2 H 1.0797 0.9691 0.7964
C6 C 1.0121(3) 0.8535(6) 0.8755(3)
H3 H 0.9574 0.8596 0.8222
C7 C 0.7054(2) 0.6469(5) 0.8670(3)
C8 C 0.6325(2) 0.7234(5) 0.8808(3)
H4 H 0.6376 0.7663 0.9459
C9 C 0.5527(2) 0.7366(6) 0.7996(3)
H5 H 0.5045 0.7876 0.8100
C10 C 0.5451(2) 0.6742(5) 0.7036(3)
C11 C 0.6147(3) 0.5952(6) 0.6881(3)
H6 H 0.6086 0.5513 0.6229
C12 C 0.6947(2) 0.5804(5) 0.7696(3)
H7 H 0.7418 0.5252 0.7588
C13 C 0.8635(2) 0.7022(5) 0.9293(3)
H8 H 0.8526 0.7373 0.8612
C14 C 0.7936(2) 0.6482(5) 0.9511(3)
C15 C 0.8065(2) 0.5946(5) 1.0579(3)
C16 C 0.7414(3) 0.4744(6) 1.1715(3)
H9 H 0.7580 0.5754 1.2185
H10 H 0.7858 0.3824 1.1975
C17 C 0.6537(3) 0.4055(7) 1.1643(3)
H11 H 0.6093 0.4922 1.1303
H12 H 0.6538 0.3831 1.2327
H13 H 0.6415 0.2968 1.1250
Cl1 Cl 0.44478(7) 0.69754(19) 0.60039(9)
F1 F 1.10978(13) 0.7012(3) 1.13855(15)
F2 F 1.23761(16) 0.9699(4) 0.9209(2)
O1 O 0.94846(18) 0.7113(4) 0.9954(2)
O2 O 0.87704(17) 0.6033(4) 1.13049(18)
O3 O 0.73412(16) 0.5282(4) 1.06775(17)
loop_
_geom_bond_atom_site_label_1
_geom_bond_atom_site_label_2
_geom_bond_site_symmetry_1
_geom_bond_site_symmetry_2
C1 C2 1_555 1_555
C2 C3 1_555 1_555
C3 H1 1_555 1_555
C4 C3 1_555 1_555
C5 C4 1_555 1_555
H2 C5 1_555 1_555
C6 C1 1_555 1_555
H3 C6 1_555 1_555
C7 C8 1_555 1_555
C8 H4 1_555 1_555
C9 C8 1_555 1_555
H5 C9 1_555 1_555
C10 C9 1_555 1_555
C11 C10 1_555 1_555
H6 C11 1_555 1_555
C12 C7 1_555 1_555
H7 C12 1_555 1_555
C13 H8 1_555 1_555
C14 C7 1_555 1_555
C15 C14 1_555 1_555
C16 H9 1_555 1_555
H10 C16 1_555 1_555
C17 C16 1_555 1_555
H11 C17 1_555 1_555
H12 C17 1_555 1_555
H13 C17 1_555 1_555
Cl1 C10 1_555 1_555
F1 C2 1_555 1_555
F2 C4 1_555 1_555
O1 C1 1_555 1_555
O2 C15 1_555 1_555
O3 C15 1_555 1_555
C5 C6 1_555 1_555
C11 C12 1_555 1_555
C13 C14 1_555 1_555
C13 O1 1_555 1_555
C16 O3 1_555 1_555

#END
