
#######################################################################
#
#                 Cambridge Crystallographic Data Centre
#                                CCDC 
#
#######################################################################
#
# If this CIF has been generated from an entry in the Cambridge 
# Structural Database, then it will include bibliographic, chemical, 
# crystal, experimental, refinement or atomic coordinate data resulting 
# from the CCDC's data processing and validation procedures.
#
#######################################################################

data_VOJKEM
_chemical_formula_moiety         'C23 H18 O1'
_chemical_name_systematic        
phenyl(6a-phenyl-1,1a,6,6a-tetrahydrocyclopropa[a]inden-1-yl)methanone
_symmetry_cell_setting           orthorhombic
_symmetry_space_group_name_H-M   'P 21 21 21'
_symmetry_Int_Tables_number      19
_space_group_name_Hall           'P 2ac 2ab'
loop_
_symmetry_equiv_pos_site_id
_symmetry_equiv_pos_as_xyz
1 x,y,z
2 1/2-x,-y,1/2+z
3 -x,1/2+y,1/2-z
4 1/2+x,1/2-y,-z
_cell_length_a                   6.1046(6)
_cell_length_b                   15.4141(15)
_cell_length_c                   17.5871(17)
_cell_angle_alpha                90
_cell_angle_beta                 90
_cell_angle_gamma                90
_cell_volume                     1654.89
_exptl_crystal_colour            colorless
_exptl_crystal_description       prismatic
_cell_formula_units_Z            4
loop_
_atom_site_label
_atom_site_type_symbol
_atom_site_fract_x
_atom_site_fract_y
_atom_site_fract_z
O1 O -0.0162(2) 0.28588(9) 0.69784(6)
C1 C 0.3424(2) 0.32987(9) 0.90149(8)
C2 C 0.2795(3) 0.39151(10) 0.95423(9)
H1 H 0.1406 0.4162 0.9522
C3 C 0.4261(3) 0.41579(11) 1.00985(9)
H2 H 0.3853 0.4568 1.0459
C4 C 0.6328(3) 0.37984(12) 1.01257(9)
H3 H 0.7299 0.3969 1.0505
C5 C 0.6970(3) 0.31882(11) 0.95967(9)
H4 H 0.8367 0.2948 0.9616
C6 C 0.5511(2) 0.29390(10) 0.90396(8)
C7 C 0.5799(2) 0.22679(11) 0.84297(8)
H5 H 0.6063 0.1701 0.8650
H6 H 0.7017 0.2416 0.8100
C8 C 0.3646(2) 0.22784(9) 0.79904(8)
C9 C 0.2188(2) 0.29379(9) 0.83617(8)
H7 H 0.0614 0.2825 0.8410
C10 C 0.3155(3) 0.31431(10) 0.75938(8)
H8 H 0.4345 0.3570 0.7585
C11 C 0.1710(3) 0.31229(10) 0.69228(9)
C12 C 0.2590(3) 0.33983(10) 0.61720(9)
C13 C 0.4642(4) 0.37553(15) 0.60664(12)
H9 H 0.5557 0.3845 0.6482
C14 C 0.5339(4) 0.39792(16) 0.53461(14)
H10 H 0.6718 0.4223 0.5278
C15 C 0.4014(6) 0.38446(16) 0.47343(13)
H11 H 0.4493 0.3995 0.4250
C16 C 0.1996(6) 0.34922(16) 0.48302(12)
H12 H 0.1097 0.3397 0.4411
C17 C 0.1282(4) 0.32766(13) 0.55434(10)
H13 H -0.0112 0.3044 0.5604
C18 C 0.2927(3) 0.14485(9) 0.76383(8)
C19 C 0.4291(3) 0.10382(12) 0.71242(10)
H14 H 0.5618 0.1295 0.6994
C20 C 0.3719(4) 0.02571(13) 0.68017(12)
H15 H 0.4649 -0.0005 0.6452
C21 C 0.1800(4) -0.01314(12) 0.69925(12)
H16 H 0.1420 -0.0662 0.6778
C22 C 0.0436(3) 0.02599(12) 0.74996(12)
H17 H -0.0878 -0.0006 0.7631
C23 C 0.0985(3) 0.10478(11) 0.78202(10)
H18 H 0.0032 0.1310 0.8163
loop_
_geom_bond_atom_site_label_1
_geom_bond_atom_site_label_2
_geom_bond_site_symmetry_1
_geom_bond_site_symmetry_2
O1 C11 1_555 1_555
C1 C2 1_555 1_555
C2 H1 1_555 1_555
C3 C2 1_555 1_555
H2 C3 1_555 1_555
C4 C3 1_555 1_555
H3 C4 1_555 1_555
C5 C4 1_555 1_555
H4 C5 1_555 1_555
C6 C1 1_555 1_555
C7 C6 1_555 1_555
H5 C7 1_555 1_555
H6 C7 1_555 1_555
C8 C7 1_555 1_555
C9 C1 1_555 1_555
H7 C9 1_555 1_555
C10 C8 1_555 1_555
H8 C10 1_555 1_555
C11 C10 1_555 1_555
C12 C11 1_555 1_555
C13 C12 1_555 1_555
H9 C13 1_555 1_555
C14 C13 1_555 1_555
H10 C14 1_555 1_555
C15 C14 1_555 1_555
H11 C15 1_555 1_555
C16 C15 1_555 1_555
H12 C16 1_555 1_555
C17 C12 1_555 1_555
H13 C17 1_555 1_555
C18 C8 1_555 1_555
C19 C18 1_555 1_555
H14 C19 1_555 1_555
C20 C19 1_555 1_555
H15 C20 1_555 1_555
C21 C20 1_555 1_555
H16 C21 1_555 1_555
C22 C21 1_555 1_555
H17 C22 1_555 1_555
C23 C18 1_555 1_555
H18 C23 1_555 1_555
C5 C6 1_555 1_555
C8 C9 1_555 1_555
C9 C10 1_555 1_555
C16 C17 1_555 1_555
C22 C23 1_555 1_555

#END
