
#######################################################################
#
#                 Cambridge Crystallographic Data Centre
#                                CCDC 
#
#######################################################################
#
# If this CIF has been generated from an entry in the Cambridge 
# Structural Database, then it will include bibliographic, chemical, 
# crystal, experimental, refinement or atomic coordinate data resulting 
# from the CCDC's data processing and validation procedures.
#
#######################################################################

data_VOJRUJ
_chemical_formula_moiety         'C29 H26 Cl2 N2 O7'
_chemical_name_systematic        
7,9-bis(4-chlorophenyl)-11-(4-methoxyphenyl)-3,3-dimethyl-10-nitro-2,4-dioxa-8-azaspiro[5.5]undecane-1,5-dione
_symmetry_cell_setting           monoclinic
_symmetry_space_group_name_H-M   'P 21/c'
_symmetry_Int_Tables_number      14
_space_group_name_Hall           '-P 2ybc'
loop_
_symmetry_equiv_pos_site_id
_symmetry_equiv_pos_as_xyz
1 x,y,z
2 -x,1/2+y,1/2-z
3 -x,-y,-z
4 x,1/2-y,1/2+z
_cell_length_a                   12.541(4)
_cell_length_b                   18.857(5)
_cell_length_c                   11.998(4)
_cell_angle_alpha                90
_cell_angle_beta                 93.044(4)
_cell_angle_gamma                90
_cell_volume                     2833.35
_exptl_crystal_colour            colorless
_exptl_crystal_description       block
_cell_formula_units_Z            4
loop_
_atom_site_label
_atom_site_type_symbol
_atom_site_fract_x
_atom_site_fract_y
_atom_site_fract_z
C1 C 0.3025(2) 0.83785(13) 0.0040(2)
C2 C 0.2475(2) 0.76700(13) 0.0296(2)
C3 C 0.3163(2) 0.70183(13) 0.00626(19)
C4 C 0.42986(19) 0.70764(13) 0.06627(17)
C5 C 0.4789(2) 0.78286(13) 0.0326(2)
C6 C 0.23771(19) 0.90192(13) 0.0349(2)
C7 C 0.1802(2) 0.90473(16) 0.1301(2)
C8 C 0.1233(3) 0.96490(16) 0.1583(3)
C9 C 0.1242(2) 1.02291(15) 0.0898(3)
C10 C 0.1797(3) 1.02142(17) -0.0058(3)
C11 C 0.2357(3) 0.96155(16) -0.0322(3)
C12 C 0.2599(2) 0.63268(13) 0.03037(19)
C13 C 0.2083(2) 0.62027(16) 0.1293(2)
C14 C 0.1583(3) 0.55703(17) 0.1468(3)
C15 C 0.1549(3) 0.50442(15) 0.0668(3)
C16 C 0.2054(3) 0.51553(17) -0.0320(3)
C17 C 0.2560(3) 0.57906(16) -0.0488(3)
C18 C 0.0899(4) 0.3912(2) 0.0080(4)
H1 H 0.0577 0.4112 -0.0592
H2 H 0.0460 0.3534 0.0332
H3 H 0.1594 0.3731 -0.0065
C19 C 0.5004(2) 0.65081(14) 0.0185(2)
C20 C 0.5394(2) 0.59883(17) 0.2014(2)
C21 C 0.4717(4) 0.5330(2) 0.2073(4)
H4 H 0.4031 0.5415 0.1705
H5 H 0.4628 0.5210 0.2841
H6 H 0.5062 0.4945 0.1712
C22 C 0.6453(3) 0.5957(3) 0.2653(3)
H7 H 0.6837 0.5544 0.2430
H8 H 0.6342 0.5931 0.3438
H9 H 0.6858 0.6374 0.2501
C23 C 0.42460(19) 0.70456(13) 0.19174(19)
C24 C 0.59140(19) 0.79269(13) 0.08021(19)
C25 C 0.6141(2) 0.81927(16) 0.1863(2)
C26 C 0.7181(2) 0.82351(18) 0.2308(3)
C27 C 0.8006(2) 0.80105(17) 0.1672(3)
C28 C 0.7813(2) 0.77778(16) 0.0601(3)
C29 C 0.6779(2) 0.77392(15) 0.0169(2)
Cl1 Cl 0.05633(8) 1.09950(5) 0.12548(10)
Cl2 Cl 0.93081(7) 0.80140(7) 0.22595(10)
H10 H 0.312(2) 0.8389(13) -0.075(2)
H11 H 0.225(2) 0.7675(13) 0.105(2)
H12 H 0.3341(18) 0.7024(12) -0.073(2)
H13 H 0.4789(18) 0.7796(12) -0.043(2)
H14 H 0.179(2) 0.8652(16) 0.179(3)
H15 H 0.080(3) 0.9632(19) 0.220(3)
H16 H 0.181(3) 1.061(2) -0.054(3)
H17 H 0.269(2) 0.9593(16) -0.099(3)
H18 H 0.207(2) 0.6575(15) 0.184(2)
H19 H 0.125(3) 0.5506(18) 0.210(3)
H20 H 0.210(3) 0.4795(18) -0.085(3)
H21 H 0.290(2) 0.5874(15) -0.111(3)
H22 H 0.561(3) 0.8310(17) 0.226(3)
H23 H 0.736(2) 0.8434(16) 0.301(3)
H24 H 0.842(3) 0.7663(18) 0.018(3)
H25 H 0.661(2) 0.7559(16) -0.052(3)
H26 H 0.407(2) 0.8491(14) 0.126(2)
N1 N 0.40989(16) 0.84215(11) 0.05823(19)
N2 N 0.14641(19) 0.76124(12) -0.0436(2)
O1 O 0.15333(19) 0.76178(17) -0.1437(2)
O2 O 0.06205(17) 0.75612(13) 0.0009(2)
O3 O 0.0998(2) 0.44400(13) 0.0910(2)
O4 O 0.50854(17) 0.64355(10) -0.08017(14)
O5 O 0.56063(18) 0.61126(12) 0.08795(16)
O6 O 0.48169(18) 0.65627(11) 0.24933(14)
O7 O 0.37381(15) 0.74622(10) 0.24335(13)
loop_
_geom_bond_atom_site_label_1
_geom_bond_atom_site_label_2
_geom_bond_site_symmetry_1
_geom_bond_site_symmetry_2
C1 C2 1_555 1_555
C2 C3 1_555 1_555
C3 C4 1_555 1_555
C4 C5 1_555 1_555
C5 C24 1_555 1_555
C6 C1 1_555 1_555
C7 C6 1_555 1_555
C8 C7 1_555 1_555
C9 C8 1_555 1_555
C10 C9 1_555 1_555
C11 C6 1_555 1_555
C12 C3 1_555 1_555
C13 C12 1_555 1_555
C14 C13 1_555 1_555
C15 C14 1_555 1_555
C16 C15 1_555 1_555
C17 C12 1_555 1_555
C18 H1 1_555 1_555
H2 C18 1_555 1_555
H3 C18 1_555 1_555
C19 C4 1_555 1_555
C20 C21 1_555 1_555
C21 H4 1_555 1_555
H5 C21 1_555 1_555
H6 C21 1_555 1_555
C22 C20 1_555 1_555
H7 C22 1_555 1_555
H8 C22 1_555 1_555
H9 C22 1_555 1_555
C23 C4 1_555 1_555
C24 C25 1_555 1_555
C25 C26 1_555 1_555
C26 C27 1_555 1_555
C27 C28 1_555 1_555
C28 C29 1_555 1_555
C29 C24 1_555 1_555
Cl1 C9 1_555 1_555
Cl2 C27 1_555 1_555
H10 C1 1_555 1_555
H11 C2 1_555 1_555
H12 C3 1_555 1_555
H13 C5 1_555 1_555
H14 C7 1_555 1_555
H15 C8 1_555 1_555
H16 C10 1_555 1_555
H17 C11 1_555 1_555
H18 C13 1_555 1_555
H19 C14 1_555 1_555
H20 C16 1_555 1_555
H21 C17 1_555 1_555
H22 C25 1_555 1_555
H23 C26 1_555 1_555
H24 C28 1_555 1_555
H25 C29 1_555 1_555
H26 N1 1_555 1_555
N1 C1 1_555 1_555
N2 C2 1_555 1_555
O1 N2 1_555 1_555
O2 N2 1_555 1_555
O3 C15 1_555 1_555
O4 C19 1_555 1_555
O5 C19 1_555 1_555
O6 C20 1_555 1_555
O7 C23 1_555 1_555
C5 N1 1_555 1_555
C10 C11 1_555 1_555
C16 C17 1_555 1_555
C18 O3 1_555 1_555
C20 O5 1_555 1_555
C23 O6 1_555 1_555

#END
