
#######################################################################
#
#                 Cambridge Crystallographic Data Centre
#                                CCDC 
#
#######################################################################
#
# If this CIF has been generated from an entry in the Cambridge 
# Structural Database, then it will include bibliographic, chemical, 
# crystal, experimental, refinement or atomic coordinate data resulting 
# from the CCDC's data processing and validation procedures.
#
#######################################################################

data_VOJZUQ
_chemical_formula_moiety         'C22 H13 Cl2 N5 O1'
_chemical_name_systematic        
6-(6-chloro-3-pyridyl)-4-((4-chlorophenyl)azamethylene)-1-phenylpyrazolo[5,4-d]-1,3-oxazine
_symmetry_cell_setting           triclinic
_symmetry_space_group_name_H-M   'P -1'
_symmetry_Int_Tables_number      2
_space_group_name_Hall           '-P 1'
loop_
_symmetry_equiv_pos_site_id
_symmetry_equiv_pos_as_xyz
1 x,y,z
2 -x,-y,-z
_cell_length_a                   9.9416(9)
_cell_length_b                   10.3052(10)
_cell_length_c                   21.780(2)
_cell_angle_alpha                78.1500(10)
_cell_angle_beta                 84.1490(10)
_cell_angle_gamma                64.7940(10)
_cell_volume                     1975.61
_exptl_crystal_colour            'pale yellow'
_exptl_crystal_description       prismatic
_chemical_melting_point          '184.0-185.0 deg.C'
_cell_formula_units_Z            4
loop_
_atom_site_label
_atom_site_type_symbol
_atom_site_fract_x
_atom_site_fract_y
_atom_site_fract_z
Cl1 Cl 0.28035(11) -0.08568(10) -0.10314(4)
Cl2 Cl 0.56918(7) 0.03299(6) 0.29777(3)
O1 O 0.31936(16) -0.38942(15) 0.20089(6)
N1 N 0.32727(19) -0.47573(18) 0.31047(8)
N2 N 0.23846(19) -0.66695(18) 0.33984(8)
N3 N 0.1868(2) -0.7419(2) 0.31052(9)
N4 N 0.2297(2) -0.4737(2) 0.12997(9)
N5 N 0.4923(2) -0.1818(2) 0.33397(9)
C1 C 0.3485(2) -0.3931(2) 0.26153(10)
C2 C 0.2723(2) -0.5687(2) 0.29756(10)
C3 C 0.2402(2) -0.5785(2) 0.23907(10)
C4 C 0.2602(2) -0.4813(2) 0.18559(10)
C5 C 0.1883(2) -0.6880(2) 0.25040(11)
H1 H 0.1585 -0.7190 0.2191
C6 C 0.2541(2) -0.7013(2) 0.40643(10)
C7 C 0.2249(3) -0.5925(3) 0.44020(11)
H2 H 0.1927 -0.4959 0.4201
C8 C 0.2441(3) -0.6291(3) 0.50442(12)
H3 H 0.2260 -0.5566 0.5275
C9 C 0.2897(3) -0.7721(3) 0.53442(12)
H4 H 0.3033 -0.7964 0.5776
C10 C 0.3146(3) -0.8779(3) 0.50030(12)
H5 H 0.3433 -0.9740 0.5207
C11 C 0.2980(3) -0.8446(3) 0.43627(11)
H6 H 0.3161 -0.9175 0.4134
C12 C 0.2462(3) -0.3755(2) 0.07757(10)
C13 C 0.1934(3) -0.2263(3) 0.07428(11)
H7 H 0.1521 -0.1858 0.1098
C14 C 0.2017(3) -0.1374(3) 0.01862(12)
H8 H 0.1642 -0.0372 0.0166
C15 C 0.2647(3) -0.1961(3) -0.03328(11)
C16 C 0.3174(3) -0.3432(3) -0.03136(12)
H9 H 0.3602 -0.3831 -0.0669
C17 C 0.3061(3) -0.4313(3) 0.02388(11)
H10 H 0.3398 -0.5309 0.0250
C18 C 0.4057(2) -0.2851(2) 0.26612(10)
C19 C 0.4435(3) -0.2778(2) 0.32422(10)
H11 H 0.4342 -0.3440 0.3587
C20 C 0.5052(2) -0.0906(2) 0.28397(11)
C21 C 0.4729(3) -0.0886(3) 0.22393(11)
H12 H 0.4849 -0.0219 0.1904
C22 C 0.4222(3) -0.1886(2) 0.21485(10)
H13 H 0.3994 -0.1910 0.1748
Cl3 Cl 0.82121(11) 0.87446(9) -0.10815(3)
Cl4 Cl 1.06775(7) 1.03122(6) 0.29890(3)
O2 O 0.82279(16) 0.60709(15) 0.20283(6)
N6 N 0.83138(19) 0.51531(18) 0.31190(8)
N7 N 0.73991(19) 0.32629(19) 0.33884(8)
N8 N 0.6788(2) 0.2600(2) 0.30892(9)
N9 N 0.7099(2) 0.5466(2) 0.13165(9)
N10 N 0.9901(2) 0.8153(2) 0.33771(9)
C23 C 0.8517(2) 0.6007(2) 0.26407(10)
C24 C 0.7756(2) 0.4244(2) 0.29750(10)
C25 C 0.7352(2) 0.4238(2) 0.23900(10)
C26 C 0.7532(2) 0.5251(2) 0.18667(10)
C27 C 0.6767(3) 0.3192(2) 0.24912(11)
H14 H 0.6408 0.2945 0.2175
C28 C 0.7576(2) 0.2884(2) 0.40538(10)
C29 C 0.8933(3) 0.2496(3) 0.43011(11)
H15 H 0.9740 0.2481 0.4041
C30 C 0.9081(3) 0.2127(3) 0.49456(12)
H16 H 0.9994 0.1874 0.5120
C31 C 0.7907(3) 0.2127(3) 0.53288(12)
H17 H 0.8022 0.1862 0.5761
C32 C 0.6558(3) 0.2523(3) 0.50698(12)
H18 H 0.5751 0.2533 0.5329
C33 C 0.6386(3) 0.2907(3) 0.44299(11)
H19 H 0.5467 0.3178 0.4256
C34 C 0.7379(3) 0.6401(3) 0.07998(10)
C35 C 0.8799(3) 0.6231(3) 0.06085(11)
H20 H 0.9597 0.5609 0.0866
C36 C 0.9048(3) 0.6979(3) 0.00351(12)
H21 H 1.0010 0.6851 -0.0095
C37 C 0.7868(3) 0.7908(3) -0.03381(11)
C38 C 0.6442(3) 0.8161(3) -0.01428(12)
H22 H 0.5645 0.8841 -0.0389
C39 C 0.6197(3) 0.7394(3) 0.04251(12)
H23 H 0.5230 0.7545 0.0557
C40 C 0.9070(2) 0.7089(2) 0.26977(9)
C41 C 0.9413(3) 0.7178(2) 0.32821(10)
H24 H 0.9301 0.6530 0.3628
C42 C 1.0041(2) 0.9061(2) 0.28660(11)
C43 C 0.9747(3) 0.9049(2) 0.22742(10)
H25 H 0.9881 0.9700 0.1936
C44 C 0.9249(3) 0.8053(2) 0.21894(10)
H26 H 0.9029 0.8025 0.1789
loop_
_geom_bond_atom_site_label_1
_geom_bond_atom_site_label_2
_geom_bond_site_symmetry_1
_geom_bond_site_symmetry_2
Cl1 C15 1_555 1_555
Cl2 C20 1_555 1_555
O1 C1 1_555 1_555
N1 C1 1_555 1_555
N2 N3 1_555 1_555
N3 C5 1_555 1_555
N4 C4 1_555 1_555
N5 C19 1_555 1_555
C1 C18 1_555 1_555
C2 N1 1_555 1_555
C3 C2 1_555 1_555
C4 O1 1_555 1_555
C5 C3 1_555 1_555
H1 C5 1_555 1_555
C6 N2 1_555 1_555
C7 C6 1_555 1_555
H2 C7 1_555 1_555
C8 C7 1_555 1_555
H3 C8 1_555 1_555
C9 C8 1_555 1_555
H4 C9 1_555 1_555
C10 C9 1_555 1_555
H5 C10 1_555 1_555
C11 C6 1_555 1_555
H6 C11 1_555 1_555
C12 N4 1_555 1_555
C13 C12 1_555 1_555
H7 C13 1_555 1_555
C14 C13 1_555 1_555
H8 C14 1_555 1_555
C15 C14 1_555 1_555
C16 C15 1_555 1_555
H9 C16 1_555 1_555
C17 C12 1_555 1_555
H10 C17 1_555 1_555
C18 C19 1_555 1_555
C19 H11 1_555 1_555
C20 N5 1_555 1_555
C21 C20 1_555 1_555
H12 C21 1_555 1_555
C22 C18 1_555 1_555
H13 C22 1_555 1_555
Cl3 C37 1_555 1_555
Cl4 C42 1_555 1_555
O2 C23 1_555 1_555
N6 C23 1_555 1_555
N7 N8 1_555 1_555
N8 C27 1_555 1_555
N9 C26 1_555 1_555
N10 C41 1_555 1_555
C23 C40 1_555 1_555
C24 N6 1_555 1_555
C25 C24 1_555 1_555
C26 O2 1_555 1_555
C27 C25 1_555 1_555
H14 C27 1_555 1_555
C28 N7 1_555 1_555
C29 C28 1_555 1_555
H15 C29 1_555 1_555
C30 C29 1_555 1_555
H16 C30 1_555 1_555
C31 C30 1_555 1_555
H17 C31 1_555 1_555
C32 C31 1_555 1_555
H18 C32 1_555 1_555
C33 C28 1_555 1_555
H19 C33 1_555 1_555
C34 N9 1_555 1_555
C35 C34 1_555 1_555
H20 C35 1_555 1_555
C36 C35 1_555 1_555
H21 C36 1_555 1_555
C37 C36 1_555 1_555
C38 C37 1_555 1_555
H22 C38 1_555 1_555
C39 C34 1_555 1_555
H23 C39 1_555 1_555
C40 C41 1_555 1_555
C41 H24 1_555 1_555
C42 N10 1_555 1_555
C43 C42 1_555 1_555
H25 C43 1_555 1_555
C44 C40 1_555 1_555
H26 C44 1_555 1_555
N2 C2 1_555 1_555
C3 C4 1_555 1_555
C10 C11 1_555 1_555
C16 C17 1_555 1_555
C21 C22 1_555 1_555
N7 C24 1_555 1_555
C25 C26 1_555 1_555
C32 C33 1_555 1_555
C38 C39 1_555 1_555
C43 C44 1_555 1_555

#END
