
#######################################################################
#
#                 Cambridge Crystallographic Data Centre
#                                CCDC 
#
#######################################################################
#
# If this CIF has been generated from an entry in the Cambridge 
# Structural Database, then it will include bibliographic, chemical, 
# crystal, experimental, refinement or atomic coordinate data resulting 
# from the CCDC's data processing and validation procedures.
#
#######################################################################

data_VOJZOK
_chemical_formula_moiety         'C30 H17 Cl5 N4 O3'
_chemical_name_systematic        
5-(bis((2,4-dichlorophenyl)carbonyl)amino)-N-(4-chlorophenyl)-1-phenyl-1H-pyrazole-4-carboxamide
_symmetry_cell_setting           monoclinic
_symmetry_space_group_name_H-M   'C 2/c'
_symmetry_Int_Tables_number      15
_space_group_name_Hall           '-C 2yn'
loop_
_symmetry_equiv_pos_site_id
_symmetry_equiv_pos_as_xyz
1 x,y,z
2 1/2+x,1/2+y,z
3 -x,y,1/2-z
4 1/2-x,1/2+y,1/2-z
5 -x,-y,-z
6 1/2-x,1/2-y,-z
7 x,-y,1/2+z
8 1/2+x,1/2-y,1/2+z
_cell_length_a                   25.3575(18)
_cell_length_b                   11.2786(8)
_cell_length_c                   21.0139(15)
_cell_angle_alpha                90
_cell_angle_beta                 104.2680(10)
_cell_angle_gamma                90
_cell_volume                     5824.53
_exptl_crystal_colour            colorless
_exptl_crystal_description       prismatic
_cell_formula_units_Z            8
loop_
_atom_site_label
_atom_site_type_symbol
_atom_site_fract_x
_atom_site_fract_y
_atom_site_fract_z
Cl1 Cl 0.06780(4) 1.07848(7) 0.45914(5)
Cl2 Cl 0.27671(3) 0.32284(7) 0.18545(4)
Cl3 Cl 0.30437(4) 0.73502(12) 0.07445(6)
Cl4 Cl 0.07815(3) 0.64495(6) 0.03729(4)
Cl5 Cl 0.20418(5) 0.41283(11) -0.08812(5)
O1 O 0.10186(8) 0.62283(15) 0.26200(10)
O2 O 0.20163(7) 0.40677(17) 0.27755(9)
O3 O 0.04477(7) 0.4439(2) 0.12204(9)
N1 N 0.08856(7) 0.25251(16) 0.25011(9)
N2 N 0.06152(8) 0.23441(18) 0.29774(9)
N3 N 0.04973(9) 0.60525(18) 0.33516(11)
H1 H 0.0331(9) 0.5576(18) 0.3538(11)
N4 N 0.12516(7) 0.40866(15) 0.19540(8)
C1 C 0.05376(9) 0.3420(2) 0.31859(11)
H2 H 0.0362 0.3570 0.3518
C2 C 0.07483(9) 0.4313(2) 0.28522(11)
C3 C 0.09686(9) 0.36874(19) 0.24192(10)
C4 C 0.10244(10) 0.15311(19) 0.21491(11)
C5 C 0.06191(12) 0.0761(3) 0.18569(17)
H3 H 0.0262 0.0892 0.1880
C6 C 0.07492(14) -0.0209(3) 0.1528(2)
H4 H 0.0481 -0.0758 0.1344
C7 C 0.12715(13) -0.0370(3) 0.14703(18)
H5 H 0.1352 -0.1005 0.1228
C8 C 0.16734(11) 0.0397(2) 0.17667(14)
H6 H 0.2028 0.0279 0.1731
C9 C 0.15534(10) 0.1350(2) 0.21195(12)
H7 H 0.1827 0.1862 0.2334
C10 C 0.07691(9) 0.5612(2) 0.29205(12)
C11 C 0.05358(9) 0.7207(2) 0.36208(12)
C12 C 0.04392(10) 0.7335(2) 0.42389(12)
H8 H 0.0343 0.6677 0.4452
C13 C 0.04844(11) 0.8429(2) 0.45394(13)
H9 H 0.0419 0.8512 0.4954
C14 C 0.06267(11) 0.9396(2) 0.42200(14)
C15 C 0.07162(11) 0.9290(2) 0.36044(14)
H10 H 0.0808 0.9954 0.3392
C16 C 0.06698(10) 0.8193(2) 0.32996(13)
H11 H 0.0728 0.8118 0.2882
C17 C 0.18039(9) 0.4388(2) 0.22265(12)
C18 C 0.20973(9) 0.5110(2) 0.18333(11)
C19 C 0.25499(10) 0.4659(2) 0.16541(12)
C20 C 0.28362(11) 0.5343(3) 0.13082(14)
H12 H 0.3131 0.5029 0.1176
C21 C 0.26771(12) 0.6493(3) 0.11647(14)
C22 C 0.22465(11) 0.6983(2) 0.13594(15)
H13 H 0.2154 0.7774 0.1272
C23 C 0.19540(10) 0.6284(2) 0.16865(13)
H14 H 0.1656 0.6604 0.1811
C24 C 0.09345(9) 0.4315(2) 0.13149(11)
C25 C 0.12146(9) 0.4293(2) 0.07715(11)
C26 C 0.11512(10) 0.5189(2) 0.03049(12)
C27 C 0.14058(11) 0.5130(2) -0.02010(12)
H15 H 0.1369 0.5745 -0.0504
C28 C 0.17129(12) 0.4158(3) -0.02540(13)
C29 C 0.17627(11) 0.3230(3) 0.01756(13)
H16 H 0.1961 0.2559 0.0123
C30 C 0.15139(10) 0.3305(2) 0.06883(12)
H17 H 0.1548 0.2680 0.0984
loop_
_geom_bond_atom_site_label_1
_geom_bond_atom_site_label_2
_geom_bond_site_symmetry_1
_geom_bond_site_symmetry_2
Cl1 C14 1_555 1_555
Cl2 C19 1_555 1_555
Cl3 C21 1_555 1_555
Cl4 C26 1_555 1_555
Cl5 C28 1_555 1_555
O1 C10 1_555 1_555
O2 C17 1_555 1_555
O3 C24 1_555 1_555
N1 N2 1_555 1_555
N2 C1 1_555 1_555
N3 H1 1_555 1_555
N4 C3 1_555 1_555
C1 H2 1_555 1_555
C2 C1 1_555 1_555
C3 N1 1_555 1_555
C4 N1 1_555 1_555
C5 C4 1_555 1_555
H3 C5 1_555 1_555
C6 C5 1_555 1_555
H4 C6 1_555 1_555
C7 C6 1_555 1_555
H5 C7 1_555 1_555
C8 C7 1_555 1_555
H6 C8 1_555 1_555
C9 C4 1_555 1_555
H7 C9 1_555 1_555
C10 N3 1_555 1_555
C11 N3 1_555 1_555
C12 C11 1_555 1_555
H8 C12 1_555 1_555
C13 C12 1_555 1_555
H9 C13 1_555 1_555
C14 C13 1_555 1_555
C15 C14 1_555 1_555
H10 C15 1_555 1_555
C16 C11 1_555 1_555
H11 C16 1_555 1_555
C17 N4 1_555 1_555
C18 C17 1_555 1_555
C19 C18 1_555 1_555
C20 C19 1_555 1_555
H12 C20 1_555 1_555
C21 C20 1_555 1_555
C22 C21 1_555 1_555
H13 C22 1_555 1_555
C23 C18 1_555 1_555
H14 C23 1_555 1_555
C24 N4 1_555 1_555
C25 C24 1_555 1_555
C26 C25 1_555 1_555
C27 C26 1_555 1_555
H15 C27 1_555 1_555
C28 C27 1_555 1_555
C29 C28 1_555 1_555
H16 C29 1_555 1_555
C30 C25 1_555 1_555
H17 C30 1_555 1_555
C2 C3 1_555 1_555
C2 C10 1_555 1_555
C8 C9 1_555 1_555
C15 C16 1_555 1_555
C22 C23 1_555 1_555
C29 C30 1_555 1_555

#END
