
#######################################################################
#
#                 Cambridge Crystallographic Data Centre
#                                CCDC 
#
#######################################################################
#
# If this CIF has been generated from an entry in the Cambridge 
# Structural Database, then it will include bibliographic, chemical, 
# crystal, experimental, refinement or atomic coordinate data resulting 
# from the CCDC's data processing and validation procedures.
#
#######################################################################

data_VOKDAC
_chemical_formula_moiety         'C26 H19 Br1 N2 O2'
_chemical_name_systematic        
5-(4-bromobenzyl)-2-(2-naphthyl)-4-phenyl-4,5-dihydro-6H-1,3,4-oxadiazin-6-one
_symmetry_cell_setting           monoclinic
_symmetry_space_group_name_H-M   'P 21'
_symmetry_Int_Tables_number      4
_space_group_name_Hall           'P 2yb'
loop_
_symmetry_equiv_pos_site_id
_symmetry_equiv_pos_as_xyz
1 x,y,z
2 -x,1/2+y,-z
_cell_length_a                   11.2046(5)
_cell_length_b                   5.9421(2)
_cell_length_c                   15.3755(7)
_cell_angle_alpha                90
_cell_angle_beta                 92.792(2)
_cell_angle_gamma                90
_cell_volume                     1022.47
_exptl_crystal_colour            colorless
_exptl_crystal_description       plate
_cell_formula_units_Z            2
loop_
_atom_site_label
_atom_site_type_symbol
_atom_site_fract_x
_atom_site_fract_y
_atom_site_fract_z
Br1 Br 1.38074(3) -0.00674(9) 0.48012(2)
C1 C 0.6650(2) -0.0430(5) 0.01044(18)
H1 H 0.6889 -0.1277 0.0607
C2 C 0.5813(2) -0.1278(5) -0.04861(19)
H2 H 0.5479 -0.2721 -0.0390
C3 C 0.5434(2) -0.0040(6) -0.12404(15)
C4 C 0.4556(2) -0.0867(5) -0.18501(19)
H3 H 0.4200 -0.2294 -0.1758
C5 C 0.4213(3) 0.0364(6) -0.2569(2)
H4 H 0.3623 -0.0210 -0.2975
C6 C 0.4737(3) 0.2507(6) -0.2713(2)
H5 H 0.4494 0.3358 -0.3214
C7 C 0.5589(3) 0.3345(5) -0.21348(19)
H6 H 0.5936 0.4774 -0.2238
C8 C 0.5960(2) 0.2101(5) -0.13824(17)
C9 C 0.6830(2) 0.2939(5) -0.07722(17)
H7 H 0.7191 0.4359 -0.0869
C10 C 0.7163(2) 0.1724(5) -0.00371(18)
C11 C 0.7960(2) 0.2691(4) 0.06397(18)
C12 C 0.9331(3) 0.5671(5) 0.09444(19)
C13 C 0.9743(2) 0.4289(4) 0.17317(18)
H8 H 1.0000 0.5353 0.2209
C14 C 1.0831(2) 0.2842(5) 0.15132(18)
H9 H 1.0552 0.1497 0.1182
H10 H 1.1353 0.3720 0.1138
C15 C 1.1540(2) 0.2108(5) 0.23135(17)
C16 C 1.2356(2) 0.3575(5) 0.27222(19)
H11 H 1.2470 0.5026 0.2480
C17 C 1.3002(3) 0.2965(6) 0.3472(2)
H12 H 1.3549 0.3991 0.3748
C18 C 1.2844(3) 0.0853(5) 0.3814(2)
C19 C 1.2026(3) -0.0629(5) 0.3436(2)
H13 H 1.1904 -0.2066 0.3687
C20 C 1.1387(2) 0.0011(6) 0.26850(16)
H14 H 1.0830 -0.1012 0.2418
C21 C 0.8703(2) 0.2113(5) 0.28733(17)
C22 C 0.9153(3) 0.3332(6) 0.3576(2)
H15 H 0.9526 0.4744 0.3487
C23 C 0.9065(3) 0.2510(7) 0.4416(2)
H16 H 0.9383 0.3358 0.4897
C24 C 0.8523(3) 0.0478(6) 0.4556(2)
H17 H 0.8448 -0.0068 0.5131
C25 C 0.8090(3) -0.0753(6) 0.3855(2)
H18 H 0.7734 -0.2179 0.3949
C26 C 0.8161(2) 0.0043(7) 0.30108(18)
H19 H 0.7843 -0.0814 0.2532
N1 N 0.8727(2) 0.3005(4) 0.20208(15)
N2 N 0.80784(19) 0.1817(4) 0.13965(15)
O1 O 0.84449(16) 0.4769(4) 0.04183(12)
O2 O 0.9743(2) 0.7446(3) 0.07555(15)
loop_
_geom_bond_atom_site_label_1
_geom_bond_atom_site_label_2
_geom_bond_site_symmetry_1
_geom_bond_site_symmetry_2
Br1 C18 1_555 1_555
C1 H1 1_555 1_555
C2 C1 1_555 1_555
H2 C2 1_555 1_555
C3 C2 1_555 1_555
C4 C3 1_555 1_555
H3 C4 1_555 1_555
C5 C4 1_555 1_555
H4 C5 1_555 1_555
C6 C5 1_555 1_555
H5 C6 1_555 1_555
C7 C6 1_555 1_555
H6 C7 1_555 1_555
C8 C3 1_555 1_555
C9 C8 1_555 1_555
H7 C9 1_555 1_555
C10 C1 1_555 1_555
C11 C10 1_555 1_555
C12 C13 1_555 1_555
C13 H8 1_555 1_555
C14 C13 1_555 1_555
H9 C14 1_555 1_555
H10 C14 1_555 1_555
C15 C14 1_555 1_555
C16 C15 1_555 1_555
H11 C16 1_555 1_555
C17 C16 1_555 1_555
H12 C17 1_555 1_555
C18 C17 1_555 1_555
C19 C18 1_555 1_555
H13 C19 1_555 1_555
C20 C15 1_555 1_555
H14 C20 1_555 1_555
C21 C22 1_555 1_555
C22 H15 1_555 1_555
C23 C22 1_555 1_555
H16 C23 1_555 1_555
C24 C23 1_555 1_555
H17 C24 1_555 1_555
C25 C24 1_555 1_555
H18 C25 1_555 1_555
C26 C21 1_555 1_555
H19 C26 1_555 1_555
N1 C13 1_555 1_555
N2 C11 1_555 1_555
O1 C11 1_555 1_555
O2 C12 1_555 1_555
C7 C8 1_555 1_555
C9 C10 1_555 1_555
C12 O1 1_555 1_555
C19 C20 1_555 1_555
C21 N1 1_555 1_555
C25 C26 1_555 1_555
N1 N2 1_555 1_555

#END
