
#######################################################################
#
#                 Cambridge Crystallographic Data Centre
#                                CCDC 
#
#######################################################################
#
# If this CIF has been generated from an entry in the Cambridge 
# Structural Database, then it will include bibliographic, chemical, 
# crystal, experimental, refinement or atomic coordinate data resulting 
# from the CCDC's data processing and validation procedures.
#
#######################################################################

data_VOKJUC
_chemical_formula_moiety         'C33 H32 B2 F2 O2,0.5(C1 H2 Cl2)'
_chemical_name_systematic        
'(3-(4-(dimesitylboryl)phenyl)-3-(hydroxy)-1-phenylprop-2-en-1-onato)(difluoro)boron dichloromethane solvate'
_symmetry_cell_setting           triclinic
_symmetry_space_group_name_H-M   'P -1'
_symmetry_Int_Tables_number      2
_space_group_name_Hall           '-P 1'
loop_
_symmetry_equiv_pos_site_id
_symmetry_equiv_pos_as_xyz
1 x,y,z
2 -x,-y,-z
_cell_length_a                   9.8714(9)
_cell_length_b                   14.9480(13)
_cell_length_c                   21.2648(19)
_cell_angle_alpha                105.9140(10)
_cell_angle_beta                 92.1230(10)
_cell_angle_gamma                100.8790(10)
_cell_volume                     2950.17
_exptl_crystal_colour            yellow
_exptl_crystal_description       plate
_cell_formula_units_Z            4
loop_
_atom_site_label
_atom_site_type_symbol
_atom_site_fract_x
_atom_site_fract_y
_atom_site_fract_z
B1 B 0.7337(3) 1.0908(2) 0.44593(18)
B2 B 0.4050(4) 0.5561(3) 0.23852(17)
F1 F 0.80670(18) 1.09529(12) 0.50271(8)
F2 F 0.81664(17) 1.12994(12) 0.40628(9)
O1 O 0.62182(19) 1.14422(14) 0.46203(10)
O2 O 0.6756(2) 0.98978(14) 0.41086(11)
C1 C 0.4904(3) 1.1048(2) 0.45191(12)
C2 C 0.4488(3) 1.0086(2) 0.42285(13)
H1 H 0.3529 0.9802 0.4172
C3 C 0.5439(3) 0.9523(2) 0.40173(12)
C4 C 0.5075(3) 0.85109(19) 0.36537(13)
C5 C 0.3741(3) 0.7972(2) 0.36008(13)
H2 H 0.3039 0.8248 0.3825
C6 C 0.3438(3) 0.7029(2) 0.32199(14)
H3 H 0.2528 0.6666 0.3196
C7 C 0.4432(3) 0.6596(2) 0.28697(14)
C8 C 0.5776(3) 0.7148(2) 0.29521(15)
H4 H 0.6486 0.6873 0.2734
C9 C 0.6099(3) 0.8078(2) 0.33394(15)
H5 H 0.7026 0.8427 0.3393
C10 C 0.3967(3) 1.1705(2) 0.47101(12)
C11 C 0.2552(3) 1.1386(2) 0.47004(14)
H6 H 0.2176 1.0723 0.4591
C12 C 0.1684(3) 1.2024(2) 0.48494(15)
H7 H 0.0713 1.1799 0.4833
C13 C 0.2219(3) 1.2981(3) 0.50204(17)
H8 H 0.1619 1.3418 0.5121
C14 C 0.3619(4) 1.3309(2) 0.5047(2)
H9 H 0.3988 1.3973 0.5167
C15 C 0.4500(3) 1.2674(2) 0.49001(17)
H10 H 0.5472 1.2905 0.4930
C16 C 0.2691(3) 0.4881(2) 0.24764(14)
C17 C 0.1571(3) 0.4584(2) 0.19808(15)
C18 C 0.0356(3) 0.4003(2) 0.20670(18)
H11 H -0.0402 0.3829 0.1738
C19 C 0.0208(3) 0.3674(2) 0.26072(19)
C20 C 0.1296(4) 0.3954(2) 0.30912(18)
H12 H 0.1211 0.3730 0.3468
C21 C 0.2531(3) 0.4567(2) 0.30376(15)
C22 C 0.3676(4) 0.4847(3) 0.35935(17)
H13 H 0.4492 0.5236 0.3480
H14 H 0.3919 0.4273 0.3663
H15 H 0.3356 0.5213 0.3996
C23 C -0.1135(4) 0.3035(3) 0.2670(2)
H16 H -0.0981 0.2717 0.3004
H17 H -0.1455 0.2557 0.2247
H18 H -0.1837 0.3418 0.2798
C24 C 0.1639(4) 0.4918(3) 0.13747(17)
H19 H 0.0790 0.4613 0.1081
H20 H 0.2442 0.4750 0.1148
H21 H 0.1728 0.5610 0.1499
C25 C 0.5002(3) 0.5248(2) 0.18167(14)
C26 C 0.5540(3) 0.4411(2) 0.17352(15)
C27 C 0.6379(3) 0.4152(2) 0.12381(16)
H22 H 0.6761 0.3604 0.1204
C28 C 0.6681(3) 0.4657(3) 0.07908(16)
C29 C 0.6121(3) 0.5451(2) 0.08569(15)
H23 H 0.6283 0.5796 0.0543
C30 C 0.5331(3) 0.5766(2) 0.13638(15)
C31 C 0.4812(4) 0.6665(2) 0.13825(17)
H24 H 0.4677 0.6711 0.0934
H25 H 0.5494 0.7220 0.1645
H26 H 0.3929 0.6645 0.1580
C32 C 0.7615(4) 0.4362(3) 0.02547(18)
H27 H 0.7330 0.4538 -0.0134
H28 H 0.7543 0.3672 0.0139
H29 H 0.8577 0.4685 0.0412
C33 C 0.5270(3) 0.3800(2) 0.21983(17)
H30 H 0.5647 0.3227 0.2037
H31 H 0.4270 0.3619 0.2221
H32 H 0.5719 0.4160 0.2637
B3 B 0.7124(4) 1.1333(3) -0.0280(2)
B4 B 1.0356(4) 0.9106(2) 0.22574(16)
F3 F 0.6747(2) 1.06947(15) -0.08991(9)
F4 F 0.8069(2) 1.20828(16) -0.03045(12)
O3 O 0.5847(2) 1.16468(16) -0.00354(10)
O4 O 0.7686(2) 1.08291(17) 0.01412(10)
C34 C 0.5243(3) 1.1411(2) 0.04467(14)
C35 C 0.5840(3) 1.0889(2) 0.07826(15)
H33 H 0.5391 1.0715 0.1132
C36 C 0.7063(3) 1.0618(2) 0.06231(14)
C37 C 0.7809(3) 1.0126(2) 0.09869(13)
C38 C 0.7189(3) 0.9682(2) 0.14310(14)
H34 H 0.6231 0.9649 0.1484
C39 C 0.7968(3) 0.9289(2) 0.17938(15)
H35 H 0.7524 0.8956 0.2076
C40 C 0.9395(3) 0.9370(2) 0.17552(14)
C41 C 0.9984(3) 0.9785(2) 0.12908(14)
H36 H 1.0945 0.9829 0.1242
C42 C 0.9198(3) 1.0134(2) 0.08981(14)
H37 H 0.9609 1.0380 0.0567
C43 C 0.3954(3) 1.1736(2) 0.05876(14)
C44 C 0.3287(3) 1.1644(2) 0.11387(15)
H38 H 0.3673 1.1363 0.1434
C45 C 0.2074(3) 1.1956(2) 0.12584(16)
H39 H 0.1638 1.1906 0.1642
C46 C 0.1486(4) 1.2341(2) 0.08237(17)
H40 H 0.0636 1.2543 0.0902
C47 C 0.2131(4) 1.2431(3) 0.02772(17)
H41 H 0.1718 1.2691 -0.0024
C48 C 0.3367(4) 1.2149(2) 0.01607(15)
H42 H 0.3822 1.2236 -0.0211
C49 C 1.1793(3) 0.9815(2) 0.24996(13)
C50 C 1.3043(3) 0.9482(2) 0.24148(13)
C51 C 1.4300(3) 1.0129(3) 0.25857(15)
H43 H 1.5132 0.9896 0.2527
C52 C 1.4393(4) 1.1099(3) 0.28379(15)
C53 C 1.3166(4) 1.1411(2) 0.29338(14)
H44 H 1.3203 1.2071 0.3120
C54 C 1.1878(3) 1.0797(2) 0.27690(14)
C55 C 1.0605(3) 1.1218(2) 0.29149(16)
H45 H 1.0872 1.1846 0.3236
H46 H 0.9940 1.0800 0.3094
H47 H 1.0180 1.1279 0.2509
C56 C 1.5775(4) 1.1782(3) 0.3002(2)
H48 H 1.6445 1.1500 0.3193
H49 H 1.5676 1.2376 0.3318
H50 H 1.6102 1.1915 0.2601
C57 C 1.3060(3) 0.8453(2) 0.21198(15)
H51 H 1.4009 0.8355 0.2166
H52 H 1.2726 0.8261 0.1653
H53 H 1.2457 0.8069 0.2347
C58 C 0.9872(3) 0.8200(2) 0.24892(13)
C59 C 0.9472(3) 0.7287(2) 0.20356(14)
C60 C 0.9105(3) 0.6493(2) 0.22548(14)
H54 H 0.8854 0.5884 0.1942
C61 C 0.9094(3) 0.6560(2) 0.29179(15)
C62 C 0.9471(3) 0.7453(2) 0.33619(14)
H55 H 0.9467 0.7510 0.3818
C63 C 0.9856(3) 0.8268(2) 0.31657(13)
C64 C 1.0167(3) 0.9223(2) 0.36823(14)
H56 H 1.0220 0.9128 0.4120
H57 H 0.9429 0.9566 0.3644
H58 H 1.1054 0.9594 0.3617
C65 C 0.8635(4) 0.5686(2) 0.31448(17)
H59 H 0.7982 0.5813 0.3478
H60 H 0.9444 0.5524 0.3334
H61 H 0.8183 0.5153 0.2770
C66 C 0.9482(4) 0.7143(2) 0.13035(14)
H62 H 0.9564 0.6489 0.1087
H63 H 1.0271 0.7587 0.1219
H64 H 0.8618 0.7260 0.1131
C67 C 0.8517(4) 0.3672(3) 0.4519(2)
H65 H 0.8180 0.2986 0.4295
H66 H 0.9412 0.3879 0.4353
Cl1 Cl 0.73249(15) 0.43018(8) 0.43230(7)
Cl2 Cl 0.87797(13) 0.38378(12) 0.53618(6)
loop_
_geom_bond_atom_site_label_1
_geom_bond_atom_site_label_2
_geom_bond_site_symmetry_1
_geom_bond_site_symmetry_2
B1 F1 1_555 1_555
B2 C7 1_555 1_555
F2 B1 1_555 1_555
O1 B1 1_555 1_555
O2 B1 1_555 1_555
C1 O1 1_555 1_555
C2 C1 1_555 1_555
H1 C2 1_555 1_555
C3 O2 1_555 1_555
C4 C3 1_555 1_555
C5 C4 1_555 1_555
H2 C5 1_555 1_555
C6 C5 1_555 1_555
H3 C6 1_555 1_555
C7 C6 1_555 1_555
C8 C7 1_555 1_555
H4 C8 1_555 1_555
C9 C4 1_555 1_555
H5 C9 1_555 1_555
C10 C1 1_555 1_555
C11 C10 1_555 1_555
H6 C11 1_555 1_555
C12 C11 1_555 1_555
H7 C12 1_555 1_555
C13 C12 1_555 1_555
H8 C13 1_555 1_555
C14 C13 1_555 1_555
H9 C14 1_555 1_555
C15 C10 1_555 1_555
H10 C15 1_555 1_555
C16 B2 1_555 1_555
C17 C16 1_555 1_555
C18 C17 1_555 1_555
H11 C18 1_555 1_555
C19 C18 1_555 1_555
C20 C19 1_555 1_555
H12 C20 1_555 1_555
C21 C16 1_555 1_555
C22 C21 1_555 1_555
H13 C22 1_555 1_555
H14 C22 1_555 1_555
H15 C22 1_555 1_555
C23 C19 1_555 1_555
H16 C23 1_555 1_555
H17 C23 1_555 1_555
H18 C23 1_555 1_555
C24 C17 1_555 1_555
H19 C24 1_555 1_555
H20 C24 1_555 1_555
H21 C24 1_555 1_555
C25 B2 1_555 1_555
C26 C25 1_555 1_555
C27 C26 1_555 1_555
H22 C27 1_555 1_555
C28 C27 1_555 1_555
C29 C28 1_555 1_555
H23 C29 1_555 1_555
C30 C25 1_555 1_555
C31 C30 1_555 1_555
H24 C31 1_555 1_555
H25 C31 1_555 1_555
H26 C31 1_555 1_555
C32 C28 1_555 1_555
H27 C32 1_555 1_555
H28 C32 1_555 1_555
H29 C32 1_555 1_555
C33 C26 1_555 1_555
H30 C33 1_555 1_555
H31 C33 1_555 1_555
H32 C33 1_555 1_555
B3 F3 1_555 1_555
B4 C40 1_555 1_555
F4 B3 1_555 1_555
O3 B3 1_555 1_555
O4 B3 1_555 1_555
C34 O3 1_555 1_555
C35 C34 1_555 1_555
H33 C35 1_555 1_555
C36 O4 1_555 1_555
C37 C36 1_555 1_555
C38 C37 1_555 1_555
H34 C38 1_555 1_555
C39 C38 1_555 1_555
H35 C39 1_555 1_555
C40 C39 1_555 1_555
C41 C40 1_555 1_555
H36 C41 1_555 1_555
C42 C37 1_555 1_555
H37 C42 1_555 1_555
C43 C34 1_555 1_555
C44 C43 1_555 1_555
H38 C44 1_555 1_555
C45 C44 1_555 1_555
H39 C45 1_555 1_555
C46 C45 1_555 1_555
H40 C46 1_555 1_555
C47 C46 1_555 1_555
H41 C47 1_555 1_555
C48 C43 1_555 1_555
H42 C48 1_555 1_555
C49 B4 1_555 1_555
C50 C49 1_555 1_555
C51 C50 1_555 1_555
H43 C51 1_555 1_555
C52 C51 1_555 1_555
C53 C52 1_555 1_555
H44 C53 1_555 1_555
C54 C49 1_555 1_555
C55 C54 1_555 1_555
H45 C55 1_555 1_555
H46 C55 1_555 1_555
H47 C55 1_555 1_555
C56 C52 1_555 1_555
H48 C56 1_555 1_555
H49 C56 1_555 1_555
H50 C56 1_555 1_555
C57 C50 1_555 1_555
H51 C57 1_555 1_555
H52 C57 1_555 1_555
H53 C57 1_555 1_555
C58 B4 1_555 1_555
C59 C58 1_555 1_555
C60 C59 1_555 1_555
H54 C60 1_555 1_555
C61 C60 1_555 1_555
C62 C61 1_555 1_555
H55 C62 1_555 1_555
C63 C58 1_555 1_555
C64 C63 1_555 1_555
H56 C64 1_555 1_555
H57 C64 1_555 1_555
H58 C64 1_555 1_555
C65 C61 1_555 1_555
H59 C65 1_555 1_555
H60 C65 1_555 1_555
H61 C65 1_555 1_555
C66 C59 1_555 1_555
H62 C66 1_555 1_555
H63 C66 1_555 1_555
H64 C66 1_555 1_555
C67 H65 1_555 1_555
H66 C67 1_555 1_555
Cl1 C67 1_555 1_555
Cl2 C67 1_555 1_555
C2 C3 1_555 1_555
C8 C9 1_555 1_555
C14 C15 1_555 1_555
C20 C21 1_555 1_555
C29 C30 1_555 1_555
C35 C36 1_555 1_555
C41 C42 1_555 1_555
C47 C48 1_555 1_555
C53 C54 1_555 1_555
C62 C63 1_555 1_555

#END
