
#######################################################################
#
#                 Cambridge Crystallographic Data Centre
#                                CCDC 
#
#######################################################################
#
# If this CIF has been generated from an entry in the Cambridge 
# Structural Database, then it will include bibliographic, chemical, 
# crystal, experimental, refinement or atomic coordinate data resulting 
# from the CCDC's data processing and validation procedures.
#
#######################################################################

data_VOKNOA
_chemical_formula_moiety         'C5 H8 N1 O3 1-,C4 H10 N1 O1 1+,H2 O1'
_chemical_name_systematic        
'morpholin-4-ium morpholine-4-carboxylate monohydrate'
_symmetry_cell_setting           triclinic
_symmetry_space_group_name_H-M   'P -1'
_symmetry_Int_Tables_number      2
_space_group_name_Hall           '-P 1'
loop_
_symmetry_equiv_pos_site_id
_symmetry_equiv_pos_as_xyz
1 x,y,z
2 -x,-y,-z
_cell_length_a                   6.494(2)
_cell_length_b                   8.098(4)
_cell_length_c                   13.533(4)
_cell_angle_alpha                96.99(3)
_cell_angle_beta                 102.57(2)
_cell_angle_gamma                104.15(3)
_cell_volume                     661.944
_cell_formula_units_Z            2
loop_
_atom_site_label
_atom_site_type_symbol
_atom_site_fract_x
_atom_site_fract_y
_atom_site_fract_z
O1 O -0.1789(6) 0.3241(4) -0.1442(3)
O2 O 0.1542(6) 0.2860(5) -0.1344(3)
N1 N -0.0862(7) 0.2455(5) -0.2917(4)
O3 O -0.1511(11) 0.2399(7) -0.5080(5)
C1 C -0.3056(9) 0.2185(7) -0.3552(5)
C2 C -0.2982(11) 0.3021(8) -0.4487(5)
C3 C 0.0723(9) 0.2650(7) -0.4397(4)
C4 C 0.0612(9) 0.1842(6) -0.3433(4)
C5 C -0.0360(9) 0.2863(5) -0.1882(5)
H1 H -0.3909 0.2678 -0.3155
H2 H -0.3769 0.0952 -0.3770
H3 H -0.4455 0.2748 -0.4932
H4 H -0.2442 0.4270 -0.4270
H5 H 0.1462 0.3880 -0.4189
H6 H 0.1578 0.2126 -0.4778
H7 H 0.0100 0.0590 -0.3629
H8 H 0.2068 0.2149 -0.2967
N2 N 0.1887(8) 0.3482(5) 0.0675(4)
O4 O 0.2752(14) 0.2194(8) 0.2609(6)
C6 C 0.4084(10) 0.3235(8) 0.1136(5)
C7 C 0.4555(11) 0.3413(8) 0.2299(6)
C8 C 0.0049(9) 0.2281(6) 0.0944(5)
C9 C 0.0481(11) 0.2483(7) 0.2101(6)
H9 H 0.5221 0.4087 0.0963
H10 H 0.4125 0.2094 0.0840
H11 H 0.4693 0.4596 0.2602
H12 H 0.5940 0.3166 0.2561
H13 H -0.1320 0.2538 0.0664
H14 H -0.0083 0.1095 0.0648
H15 H -0.0685 0.1654 0.2271
H16 H 0.0460 0.3636 0.2384
H17 H 0.150(12) 0.317(9) 0.007(6)
H18 H 0.171(8) 0.462(7) 0.085(4)
O5 O 0.4417(10) 0.0727(7) -0.1380(6)
H19 H 0.356(7) 0.131(5) -0.128(4)
H20 H 0.524(10) 0.066(10) -0.083(4)
loop_
_geom_bond_atom_site_label_1
_geom_bond_atom_site_label_2
_geom_bond_site_symmetry_1
_geom_bond_site_symmetry_2
O1 C5 1_555 1_555
O2 C5 1_555 1_555
N1 C1 1_555 1_555
O3 C2 1_555 1_555
C1 C2 1_555 1_555
C2 H3 1_555 1_555
C3 O3 1_555 1_555
C4 N1 1_555 1_555
C5 N1 1_555 1_555
H1 C1 1_555 1_555
H2 C1 1_555 1_555
H4 C2 1_555 1_555
H5 C3 1_555 1_555
H6 C3 1_555 1_555
H7 C4 1_555 1_555
H8 C4 1_555 1_555
N2 C6 1_555 1_555
O4 C7 1_555 1_555
C6 C7 1_555 1_555
C7 H11 1_555 1_555
C8 N2 1_555 1_555
C9 O4 1_555 1_555
H9 C6 1_555 1_555
H10 C6 1_555 1_555
H12 C7 1_555 1_555
H13 C8 1_555 1_555
H14 C8 1_555 1_555
H15 C9 1_555 1_555
H16 C9 1_555 1_555
H17 N2 1_555 1_555
H18 N2 1_555 1_555
O5 H19 1_555 1_555
H20 O5 1_555 1_555
C3 C4 1_555 1_555
C8 C9 1_555 1_555

#END
