
#######################################################################
#
#                 Cambridge Crystallographic Data Centre
#                                CCDC 
#
#######################################################################
#
# If this CIF has been generated from an entry in the Cambridge 
# Structural Database, then it will include bibliographic, chemical, 
# crystal, experimental, refinement or atomic coordinate data resulting 
# from the CCDC's data processing and validation procedures.
#
#######################################################################

data_VOKQAO
_chemical_formula_moiety         'C26 H20 O2'
_chemical_name_systematic        
trans-9,10-diphenyl-9,10-dihydro-9,10-phenanthrenediol
_symmetry_cell_setting           monoclinic
_symmetry_space_group_name_H-M   'P 21'
_symmetry_Int_Tables_number      4
_space_group_name_Hall           'P 2yb'
loop_
_symmetry_equiv_pos_site_id
_symmetry_equiv_pos_as_xyz
1 x,y,z
2 -x,1/2+y,-z
_cell_length_a                   14.467(3)
_cell_length_b                   9.497(2)
_cell_length_c                   14.872(3)
_cell_angle_alpha                90
_cell_angle_beta                 112.75(3)
_cell_angle_gamma                90
_cell_volume                     1884.34
_cell_formula_units_Z            2
loop_
_atom_site_label
_atom_site_type_symbol
_atom_site_fract_x
_atom_site_fract_y
_atom_site_fract_z
O1 O 0.8448(5) -0.0749(10) 0.5147(8)
O2 O 0.9405(5) 0.1507(10) 0.5447(8)
C1 C 0.8777(8) 0.0501(15) 0.3466(12)
C2 C 0.9266(8) -0.0427(16) 0.3325(14)
C3 C 0.9613(8) -0.0600(19) 0.2318(15)
C4 C 0.9468(9) 0.0204(21) 0.1404(16)
C5 C 0.8926(9) 0.1198(19) 0.1500(13)
C6 C 0.8610(8) 0.1343(17) 0.2517(15)
C7 C 0.8432(7) 0.0618(15) 0.4557(13)
C8 C 0.8757(8) 0.1807(15) 0.5381(14)
C9 C 0.8454(7) 0.1735(16) 0.6551(13)
C10 C 0.7989(9) 0.2721(17) 0.6919(15)
C11 C 0.7768(7) 0.2593(19) 0.7980(15)
C12 C 0.6461(7) 0.1605(18) 0.4081(14)
C13 C 0.6628(7) 0.0221(19) 0.4202(14)
C14 C 0.7269(7) -0.0111(17) 0.4369(13)
C15 C 0.7754(7) 0.0964(16) 0.4395(12)
H1 H 0.893 -0.082 0.516
H2 H 0.968 0.170 0.620
H3 H 0.938 -0.114 0.404
H4 H 1.000 -0.139 0.227
H5 H 0.976 0.013 0.062
H6 H 0.876 0.180 0.075
H7 H 0.823 0.215 0.264
H8 H 0.782 0.357 0.635
H9 H 0.741 0.340 0.830
C16 C 0.7984(8) 0.1609(20) 0.8738(14)
C17 C 0.8447(10) 0.0658(19) 0.8376(17)
C18 C 0.8731(8) 0.0718(18) 0.7308(11)
C19 C 0.8618(7) 0.3269(15) 0.4745(11)
C20 C 0.9072(7) 0.4369(16) 0.4854(12)
C21 C 0.8969(9) 0.5695(17) 0.4379(14)
C22 C 0.8398(9) 0.5936(17) 0.3855(14)
C23 C 0.7886(9) 0.4881(17) 0.3772(15)
C24 C 0.8025(7) 0.3537(16) 0.4325(12)
C25 C 0.7532(8) 0.2393(16) 0.4227(14)
C26 C 0.6912(8) 0.2711(17) 0.4099(13)
H10 H 0.778 0.154 0.957
H11 H 0.859 -0.020 0.897
H12 H 0.913 0.007 0.707
H13 H 0.951 0.414 0.532
H14 H 0.933 0.656 0.444
H15 H 0.831 0.701 0.342
H16 H 0.742 0.509 0.336
H17 H 0.677 0.384 0.402
H18 H 0.595 0.189 0.399
H19 H 0.627 -0.065 0.416
H20 H 0.741 -0.125 0.449
loop_
_geom_bond_atom_site_label_1
_geom_bond_atom_site_label_2
_geom_bond_site_symmetry_1
_geom_bond_site_symmetry_2
O1 C7 1_555 1_555
O2 C7 1_555 1_555
C1 C2 1_555 1_555
C2 C3 1_555 1_555
C3 C4 1_555 1_555
C4 C5 1_555 1_555
C5 C6 1_555 1_555
C6 C1 1_555 1_555
C7 C1 1_555 1_555
C8 O2 1_555 1_555
C9 C8 1_555 1_555
C10 C9 1_555 1_555
C11 C10 1_555 1_555
C12 C13 1_555 1_555
C13 C14 1_555 1_555
C14 O1 1_555 1_555
C15 C7 1_555 1_555
H1 O1 1_555 1_555
H2 O2 1_555 1_555
H3 C2 1_555 1_555
H4 C3 1_555 1_555
H5 C4 1_555 1_555
H6 C5 1_555 1_555
H7 C6 1_555 1_555
H8 C10 1_555 1_555
H9 C11 1_555 1_555
C16 C11 1_555 1_555
C17 C16 1_555 1_555
C18 C9 1_555 1_555
C19 C8 1_555 1_555
C20 C19 1_555 1_555
C21 C20 1_555 1_555
C22 C21 1_555 1_555
C23 C20 1_555 1_555
C24 C19 1_555 1_555
C25 C12 1_555 1_555
C26 C12 1_555 1_555
H10 C16 1_555 1_555
H11 C17 1_555 1_555
H12 C18 1_555 1_555
H13 C20 1_555 1_555
H14 C21 1_555 1_555
H15 C22 1_555 1_555
H16 C23 1_555 1_555
H17 C26 1_555 1_555
H18 C12 1_555 1_555
H19 C13 1_555 1_555
H20 C14 1_555 1_555
C7 C8 1_555 1_555
C7 C14 1_555 1_555
C8 C15 1_555 1_555
C12 C14 1_555 1_555
C12 C15 1_555 1_555
C13 C15 1_555 1_555
C14 C15 1_555 1_555
C15 C25 1_555 1_555
C17 C18 1_555 1_555
C19 C25 1_555 1_555
C20 C24 1_555 1_555
C21 C23 1_555 1_555
C22 C23 1_555 1_555
C23 C24 1_555 1_555
C24 C25 1_555 1_555
C24 C26 1_555 1_555
C25 C26 1_555 1_555

#END
