
#######################################################################
#
#                 Cambridge Crystallographic Data Centre
#                                CCDC 
#
#######################################################################
#
# If this CIF has been generated from an entry in the Cambridge 
# Structural Database, then it will include bibliographic, chemical, 
# crystal, experimental, refinement or atomic coordinate data resulting 
# from the CCDC's data processing and validation procedures.
#
#######################################################################

data_VOKZAY
_chemical_name_common            
1a,1b,5,5a,6a,6b,10,10a-octahydrooxireno[7,8]perylo[1,2-b]oxirene-4,5,9,10-tetrol
_chemical_formula_moiety         'C20 H16 O6'
_chemical_name_systematic        
(7aR,8aR,8bS,8cR)-perylo(1,2-b)oxirene-7,11-dione,7a,8a,8b,8c,9,10-hexahydro-1,6,8c-trihydroxy
_symmetry_cell_setting           orthorhombic
_symmetry_space_group_name_H-M   'P 21 21 21'
_symmetry_Int_Tables_number      19
_space_group_name_Hall           'P 2ac 2ab'
loop_
_symmetry_equiv_pos_site_id
_symmetry_equiv_pos_as_xyz
1 x,y,z
2 1/2+x,1/2-y,-z
3 -x,1/2+y,1/2-z
4 1/2-x,-y,1/2+z
_cell_length_a                   9.82130(10)
_cell_length_b                   10.64660(10)
_cell_length_c                   14.5417(2)
_cell_angle_alpha                90
_cell_angle_beta                 90
_cell_angle_gamma                90
_cell_volume                     1520.53
_exptl_crystal_colour            colorless
_exptl_crystal_description       column
_cell_formula_units_Z            4
loop_
_atom_site_label
_atom_site_type_symbol
_atom_site_fract_x
_atom_site_fract_y
_atom_site_fract_z
O1 O 0.55458(15) -0.09604(12) 1.00626(10)
H1 H 0.4812 -0.1319 1.0003
O2 O 0.46856(12) 0.15166(13) 1.09716(8)
H2 H 0.5369 0.1925 1.0847
O3 O 0.21219(10) 0.22874(12) 0.92044(8)
O4 O 0.83759(15) 0.67729(12) 0.82031(11)
H3 H 0.9055 0.6457 0.7970
O5 O 0.97916(12) 0.48162(14) 0.74307(10)
H4 H 0.9868 0.4291 0.7840
O6 O 0.73107(14) 0.33949(14) 0.58175(8)
C1 C 0.50700(14) 0.18383(14) 0.86297(10)
C2 C 0.61002(15) 0.16582(14) 0.79753(10)
C3 C 0.69248(16) 0.06040(15) 0.80458(12)
H5 H 0.7624 0.0480 0.7624
C4 C 0.67140(17) -0.02655(15) 0.87407(12)
H6 H 0.7263 -0.0976 0.8777
C5 C 0.56921(17) -0.00815(14) 0.93790(12)
C6 C 0.48762(14) 0.09999(14) 0.93510(10)
C7 C 0.39277(16) 0.12784(15) 1.01462(11)
H7 H 0.3360 0.0535 1.0250
C8 C 0.30030(16) 0.23797(17) 1.00015(12)
H8 H 0.2591 0.2737 1.0557
C9 C 0.31833(15) 0.32418(15) 0.92309(11)
H9 H 0.2878 0.4108 0.9330
C10 C 0.42790(15) 0.30607(13) 0.85272(10)
H10 H 0.3821 0.3020 0.7929
C11 C 0.53081(16) 0.41197(14) 0.84614(10)
C12 C 0.53313(17) 0.51826(15) 0.90088(10)
H11 H 0.4656 0.5302 0.9449
C13 C 0.63522(18) 0.60703(15) 0.89068(11)
H12 H 0.6362 0.6785 0.9275
C14 C 0.73536(18) 0.58853(15) 0.82549(12)
C15 C 0.73589(16) 0.48263(14) 0.76838(11)
C16 C 0.63293(15) 0.39431(14) 0.78019(10)
C17 C 0.62623(15) 0.27086(14) 0.72741(10)
H13 H 0.5411 0.2731 0.6923
C18 C 0.73777(19) 0.25310(17) 0.65830(11)
H14 H 0.7626 0.1662 0.6437
C19 C 0.84408(19) 0.34829(18) 0.64473(13)
H15 H 0.9316 0.3172 0.6217
C20 C 0.84948(18) 0.46747(17) 0.69906(12)
H16 H 0.8407 0.5367 0.6551
loop_
_geom_bond_atom_site_label_1
_geom_bond_atom_site_label_2
_geom_bond_site_symmetry_1
_geom_bond_site_symmetry_2
O1 H1 1_555 1_555
O2 H2 1_555 1_555
O3 C8 1_555 1_555
O4 H3 1_555 1_555
O5 H4 1_555 1_555
O6 C18 1_555 1_555
C1 C2 1_555 1_555
C2 C3 1_555 1_555
C3 H5 1_555 1_555
C4 C3 1_555 1_555
H6 C4 1_555 1_555
C5 O1 1_555 1_555
C6 C1 1_555 1_555
C7 O2 1_555 1_555
H7 C7 1_555 1_555
C8 C7 1_555 1_555
H8 C8 1_555 1_555
C9 O3 1_555 1_555
H9 C9 1_555 1_555
C10 C1 1_555 1_555
H10 C10 1_555 1_555
C11 C10 1_555 1_555
C12 C11 1_555 1_555
H11 C12 1_555 1_555
C13 C12 1_555 1_555
H12 C13 1_555 1_555
C14 O4 1_555 1_555
C15 C14 1_555 1_555
C16 C11 1_555 1_555
C17 C2 1_555 1_555
H13 C17 1_555 1_555
C18 C17 1_555 1_555
H14 C18 1_555 1_555
C19 O6 1_555 1_555
H15 C19 1_555 1_555
C20 O5 1_555 1_555
H16 C20 1_555 1_555
C4 C5 1_555 1_555
C5 C6 1_555 1_555
C6 C7 1_555 1_555
C8 C9 1_555 1_555
C9 C10 1_555 1_555
C13 C14 1_555 1_555
C15 C16 1_555 1_555
C15 C20 1_555 1_555
C16 C17 1_555 1_555
C18 C19 1_555 1_555
C19 C20 1_555 1_555

#END
