
#######################################################################
#
#                 Cambridge Crystallographic Data Centre
#                                CCDC 
#
#######################################################################
#
# If this CIF has been generated from an entry in the Cambridge 
# Structural Database, then it will include bibliographic, chemical, 
# crystal, experimental, refinement or atomic coordinate data resulting 
# from the CCDC's data processing and validation procedures.
#
#######################################################################

data_VOLFUX
_chemical_compound_source        'Amorpha fruticosa'
_chemical_formula_moiety         'C23 H22 O7'
_chemical_name_systematic        Amorphispironone
_chemical_properties_biological  
'cytotoxic antitumour, insecticidal, antiparasitic, antimicrobial and hypotensive activity'
_symmetry_cell_setting           monoclinic
_symmetry_space_group_name_H-M   'P 21'
_symmetry_Int_Tables_number      4
_space_group_name_Hall           'P 2yb'
loop_
_symmetry_equiv_pos_site_id
_symmetry_equiv_pos_as_xyz
1 x,y,z
2 -x,1/2+y,-z
_cell_length_a                   12.596(2)
_cell_length_b                   8.635(1)
_cell_length_c                   9.763(1)
_cell_angle_alpha                90
_cell_angle_beta                 102.03(1)
_cell_angle_gamma                90
_cell_volume                     1038.57
_exptl_crystal_colour            colorless
_chemical_melting_point          152-152.5deg.C
_cell_formula_units_Z            2
loop_
_atom_site_label
_atom_site_type_symbol
_atom_site_fract_x
_atom_site_fract_y
_atom_site_fract_z
O1 O 0.0863(1) 0.5797(2) 0.1953(1)
C1 C 0.1955(2) 0.6366(3) 0.1970(2)
C2 C 0.2804(2) 0.5169(3) 0.2520(2)
C3 C 0.2665(2) 0.4393(3) 0.3862(2)
C4 C 0.1567(2) 0.4404(3) 0.4112(2)
C5 C 0.1336(2) 0.3698(3) 0.5307(2)
C6 C 0.0297(2) 0.3595(3) 0.5500(2)
C7 C -0.0551(2) 0.4164(3) 0.4482(2)
C8 C -0.0364(2) 0.4890(2) 0.3269(2)
C9 C 0.0709(2) 0.5037(2) 0.3122(2)
C10 C 0.2072(2) 0.6539(3) 0.0486(2)
C11 C -0.1301(2) 0.5525(3) 0.2288(2)
C12 C -0.2295(2) 0.5188(4) 0.2463(2)
C13 C -0.2493(2) 0.4094(4) 0.3574(2)
C14 C -0.2647(2) 0.2444(4) 0.3001(3)
C15 C -0.3430(2) 0.4622(5) 0.4215(3)
O2 O 0.3439(1) 0.3796(3) 0.4645(2)
O3 O -0.1558(1) 0.4076(2) 0.4749(2)
O4 O 0.2274(2) 0.5007(2) 0.0041(2)
C16 C 0.2731(2) 0.4060(3) 0.1227(2)
C17 C 0.3902(2) 0.3584(3) 0.1149(2)
C18 C 0.4232(2) 0.2022(4) 0.1436(3)
C19 C 0.3521(2) 0.0921(3) 0.1660(2)
C20 C 0.2358(1) 0.1275(3) 0.1504(2)
C21 C 0.1987(2) 0.2714(3) 0.1270(2)
O5 O 0.4517(1) 0.4608(3) 0.0913(2)
O6 O 0.3754(1) -0.0552(2) 0.1977(2)
C22 C 0.4881(2) -0.1029(4) 0.2242(4)
O7 O 0.1755(1) 0.0000 0.1602(2)
C23 C 0.0623(2) 0.0235(3) 0.1497(3)
H1 H 0.208(2) 0.722(4) 0.245(2)
H2 H 0.348(2) 0.572(3) 0.268(2)
H3 H 0.200(2) 0.326(3) 0.606(2)
H4 H 0.011(2) 0.319(4) 0.637(3)
H5 H 0.276(2) 0.717(4) 0.039(3)
H6 H 0.136(2) 0.689(4) -0.015(2)
H7 H -0.126(2) 0.619(3) 0.162(2)
H8 H -0.298(2) 0.561(3) 0.183(2)
H9 H -0.204(2) 0.207(4) 0.285(2)
H10 H -0.325(2) 0.255(5) 0.212(3)
H11 H -0.290(2) 0.176(4) 0.373(3)
H12 H -0.340(2) 0.570(4) 0.475(3)
H13 H -0.345(2) 0.392(6) 0.483(3)
H14 H -0.407(3) 0.472(5) 0.361(3)
H15 H 0.494(2) 0.175(4) 0.145(2)
H16 H 0.118(2) 0.292(3) 0.108(2)
H17 H 0.502(2) -0.210(6) 0.234(4)
H18 H 0.521(2) -0.033(5) 0.316(3)
H19 H 0.519(3) -0.069(6) 0.145(3)
H20 H 0.031(2) -0.069(4) 0.165(3)
H21 H 0.031(2) 0.063(3) 0.051(2)
H22 H 0.048(2) 0.096(4) 0.233(2)
loop_
_geom_bond_atom_site_label_1
_geom_bond_atom_site_label_2
_geom_bond_site_symmetry_1
_geom_bond_site_symmetry_2
O1 C1 1_555 1_555
C1 C2 1_555 1_555
C2 C3 1_555 1_555
C3 C4 1_555 1_555
C4 C5 1_555 1_555
C5 C6 1_555 1_555
C6 C7 1_555 1_555
C7 C8 1_555 1_555
C8 C9 1_555 1_555
C9 O1 1_555 1_555
C10 C1 1_555 1_555
C11 C8 1_555 1_555
C12 C11 1_555 1_555
C13 C12 1_555 1_555
C14 C13 1_555 1_555
C15 C13 1_555 1_555
O2 C3 1_555 1_555
O3 C7 1_555 1_555
O4 C10 1_555 1_555
C16 C2 1_555 1_555
C17 C16 1_555 1_555
C18 C17 1_555 1_555
C19 C18 1_555 1_555
C20 C19 1_555 1_555
C21 C16 1_555 1_555
O5 C17 1_555 1_555
O6 C19 1_555 1_555
C22 O6 1_555 1_555
O7 C20 1_555 1_555
C23 O7 1_555 1_555
H1 C1 1_555 1_555
H2 C2 1_555 1_555
H3 C5 1_555 1_555
H4 C6 1_555 1_555
H5 C10 1_555 1_555
H6 C10 1_555 1_555
H7 C11 1_555 1_555
H8 C12 1_555 1_555
H9 C14 1_555 1_555
H10 C14 1_555 1_555
H11 C14 1_555 1_555
H12 C15 1_555 1_555
H13 C15 1_555 1_555
H14 C15 1_555 1_555
H15 C18 1_555 1_555
H16 C21 1_555 1_555
H17 C22 1_555 1_555
H18 C22 1_555 1_555
H19 C22 1_555 1_555
H20 C23 1_555 1_555
H21 C23 1_555 1_555
H22 C23 1_555 1_555
C4 C9 1_555 1_555
C13 O3 1_555 1_555
O4 C16 1_555 1_555
C20 C21 1_555 1_555

#END
