
#######################################################################
#
#                 Cambridge Crystallographic Data Centre
#                                CCDC 
#
#######################################################################
#
# If this CIF has been generated from an entry in the Cambridge 
# Structural Database, then it will include bibliographic, chemical, 
# crystal, experimental, refinement or atomic coordinate data resulting 
# from the CCDC's data processing and validation procedures.
#
#######################################################################

data_VOLJAI
_chemical_formula_moiety         'C20 H22 F1 N1 O2 S1'
_chemical_name_systematic        
(Z)-N-Benzyl-3-fluoro-4-methyl-1-(p-toluenesulfonyl)-penta-1,3-dien-2-amine
_symmetry_cell_setting           monoclinic
_symmetry_space_group_name_H-M   'P 21/c'
_symmetry_Int_Tables_number      14
_space_group_name_Hall           '-P 2ybc'
loop_
_symmetry_equiv_pos_site_id
_symmetry_equiv_pos_as_xyz
1 x,y,z
2 -x,1/2+y,1/2-z
3 -x,-y,-z
4 x,1/2-y,1/2+z
_cell_length_a                   10.1086(10)
_cell_length_b                   21.657(2)
_cell_length_c                   9.2441(10)
_cell_angle_alpha                90
_cell_angle_beta                 102.323(2)
_cell_angle_gamma                90
_cell_volume                     1977.11
_exptl_crystal_colour            colorless
_exptl_crystal_description       prismatic
_cell_formula_units_Z            4
loop_
_atom_site_label
_atom_site_type_symbol
_atom_site_fract_x
_atom_site_fract_y
_atom_site_fract_z
S1 S 0.47403(5) 0.623964(19) 1.03572(5)
F1 F 0.96380(15) 0.60416(8) 1.09785(19)
O1 O 0.41534(17) 0.66953(7) 1.11523(17)
O2 O 0.46933(14) 0.56028(6) 1.08059(15)
N1 N 0.71249(18) 0.54992(7) 0.95152(19)
C1 C 0.6397(2) 0.64524(9) 1.0421(2)
H1 H 0.6674 0.6841 1.0794
C2 C 0.73163(19) 0.60912(9) 0.99653(19)
C3 C 0.8673(2) 0.63575(10) 1.0001(2)
C4 C 0.9031(2) 0.68116(12) 0.9247(3)
C5 C 1.0500(3) 0.7007(2) 0.9451(5)
H2 H 1.1062 0.6726 1.0115
H3 H 1.0608 0.7416 0.9856
H4 H 1.0759 0.7002 0.8510
C6 C 0.8029(3) 0.71599(13) 0.8100(4)
H5 H 0.7156 0.6968 0.7972
H6 H 0.8320 0.7155 0.7177
H7 H 0.7973 0.7579 0.8420
C7 C 0.7973(2) 0.51805(10) 0.8657(2)
H8 H 0.7714 0.4749 0.8570
H9 H 0.8908 0.5201 0.9193
C8 C 0.78789(19) 0.54396(9) 0.7133(2)
C9 C 0.9020(2) 0.55345(13) 0.6584(3)
H10 H 0.9864 0.5436 0.7164
C10 C 0.8936(4) 0.57737(16) 0.5183(4)
H11 H 0.9723 0.5834 0.4832
C11 C 0.7731(4) 0.59212(15) 0.4321(3)
H12 H 0.7683 0.6086 0.3382
C12 C 0.6583(4) 0.58264(16) 0.4837(3)
H13 H 0.5744 0.5923 0.4244
C13 C 0.6656(2) 0.55880(12) 0.6233(3)
H14 H 0.5863 0.5526 0.6571
C14 C 0.39410(18) 0.62773(7) 0.8466(2)
C15 C 0.3419(2) 0.57533(8) 0.7696(2)
H15 H 0.3449 0.5376 0.8182
C16 C 0.2855(2) 0.57926(9) 0.6206(2)
H16 H 0.2496 0.5439 0.5698
C17 C 0.28087(19) 0.63468(9) 0.5447(2)
C18 C 0.3323(2) 0.68682(9) 0.6246(2)
H17 H 0.3292 0.7246 0.5762
C19 C 0.3876(2) 0.68379(8) 0.7731(2)
H18 H 0.4207 0.7194 0.8247
C20 C 0.2236(3) 0.63778(12) 0.3805(3)
H19 H 0.1466 0.6648 0.3616
H20 H 0.1964 0.5972 0.3440
H21 H 0.2914 0.6533 0.3314
H22 H 0.6424(19) 0.5312(10) 0.960(3)
loop_
_geom_bond_atom_site_label_1
_geom_bond_atom_site_label_2
_geom_bond_site_symmetry_1
_geom_bond_site_symmetry_2
S1 O1 1_555 1_555
F1 C3 1_555 1_555
O2 S1 1_555 1_555
N1 C2 1_555 1_555
C1 S1 1_555 1_555
H1 C1 1_555 1_555
C2 C1 1_555 1_555
C3 C2 1_555 1_555
C4 C3 1_555 1_555
C5 C4 1_555 1_555
H2 C5 1_555 1_555
H3 C5 1_555 1_555
H4 C5 1_555 1_555
C6 C4 1_555 1_555
H5 C6 1_555 1_555
H6 C6 1_555 1_555
H7 C6 1_555 1_555
C7 N1 1_555 1_555
H8 C7 1_555 1_555
H9 C7 1_555 1_555
C8 C7 1_555 1_555
C9 C8 1_555 1_555
H10 C9 1_555 1_555
C10 C9 1_555 1_555
H11 C10 1_555 1_555
C11 C10 1_555 1_555
H12 C11 1_555 1_555
C12 C11 1_555 1_555
H13 C12 1_555 1_555
C13 C8 1_555 1_555
H14 C13 1_555 1_555
C14 S1 1_555 1_555
C15 C14 1_555 1_555
H15 C15 1_555 1_555
C16 C15 1_555 1_555
H16 C16 1_555 1_555
C17 C16 1_555 1_555
C18 C17 1_555 1_555
H17 C18 1_555 1_555
C19 C14 1_555 1_555
H18 C19 1_555 1_555
C20 C17 1_555 1_555
H19 C20 1_555 1_555
H20 C20 1_555 1_555
H21 C20 1_555 1_555
H22 N1 1_555 1_555
C12 C13 1_555 1_555
C18 C19 1_555 1_555

#END
