
#######################################################################
#
#                 Cambridge Crystallographic Data Centre
#                                CCDC 
#
#######################################################################
#
# If this CIF has been generated from an entry in the Cambridge 
# Structural Database, then it will include bibliographic, chemical, 
# crystal, experimental, refinement or atomic coordinate data resulting 
# from the CCDC's data processing and validation procedures.
#
#######################################################################

data_VOLXOK
_chemical_formula_moiety         'C11 H8 O1'
_chemical_name_systematic        1-(buta-1,3-diynyl)-4-methoxybenzene
_symmetry_cell_setting           orthorhombic
_symmetry_space_group_name_H-M   'P 21 21 21'
_symmetry_Int_Tables_number      19
_space_group_name_Hall           'P 2ac 2ab'
loop_
_symmetry_equiv_pos_site_id
_symmetry_equiv_pos_as_xyz
1 x,y,z
2 1/2-x,-y,1/2+z
3 -x,1/2+y,1/2-z
4 1/2+x,1/2-y,-z
_cell_length_a                   3.9344(5)
_cell_length_b                   7.6826(10)
_cell_length_c                   27.921(4)
_cell_angle_alpha                90
_cell_angle_beta                 90
_cell_angle_gamma                90
_cell_volume                     843.952
_exptl_crystal_colour            off-white
_exptl_crystal_description       'irregular plate'
_cell_formula_units_Z            4
_exptl_crystal_recrystallization_method chloroform/ether
loop_
_atom_site_label
_atom_site_type_symbol
_atom_site_fract_x
_atom_site_fract_y
_atom_site_fract_z
O1 O 0.2650(4) 0.59382(16) 0.04203(4)
C1 C 0.3420(5) 0.4596(2) 0.07229(7)
C2 C 0.2693(6) 0.4567(3) 0.12092(7)
H1 H 0.164(6) 0.557(3) 0.1363(7)
C3 C 0.3554(6) 0.3115(3) 0.14767(7)
H2 H 0.298(6) 0.313(2) 0.1822(7)
C4 C 0.5151(5) 0.1684(2) 0.12679(7)
C5 C 0.5911(5) 0.1749(3) 0.07769(7)
H3 H 0.700(6) 0.077(3) 0.0628(7)
C6 C 0.5054(5) 0.3189(2) 0.05095(7)
H4 H 0.562(5) 0.324(2) 0.0169(7)
C7 C 0.6024(5) 0.0183(3) 0.15477(7)
C8 C 0.6729(5) -0.1079(3) 0.17824(7)
C9 C 0.7591(6) -0.2503(3) 0.20582(6)
C10 C 0.8342(7) -0.3714(3) 0.22998(8)
H5 H 0.902(8) -0.464(3) 0.2514(10)
C11 C 0.1016(6) 0.7441(3) 0.06228(8)
H6 H 0.245(6) 0.795(3) 0.0887(7)
H7 H -0.121(6) 0.709(3) 0.0771(7)
H8 H 0.072(7) 0.827(3) 0.0347(8)
loop_
_geom_bond_atom_site_label_1
_geom_bond_atom_site_label_2
_geom_bond_site_symmetry_1
_geom_bond_site_symmetry_2
O1 C1 1_555 1_555
C1 C2 1_555 1_555
C2 H1 1_555 1_555
C3 C2 1_555 1_555
H2 C3 1_555 1_555
C4 C3 1_555 1_555
C5 C4 1_555 1_555
H3 C5 1_555 1_555
C6 C1 1_555 1_555
H4 C6 1_555 1_555
C7 C4 1_555 1_555
C8 C7 1_555 1_555
C9 C8 1_555 1_555
C10 C9 1_555 1_555
H5 C10 1_555 1_555
C11 O1 1_555 1_555
H6 C11 1_555 1_555
H7 C11 1_555 1_555
H8 C11 1_555 1_555
C5 C6 1_555 1_555

#END
