
#######################################################################
#
#                 Cambridge Crystallographic Data Centre
#                                CCDC 
#
#######################################################################
#
# If this CIF has been generated from an entry in the Cambridge 
# Structural Database, then it will include bibliographic, chemical, 
# crystal, experimental, refinement or atomic coordinate data resulting 
# from the CCDC's data processing and validation procedures.
#
#######################################################################

data_VOMVEY
_chemical_formula_moiety         'C9 H8 I2 O1 Te1'
_chemical_name_systematic        o-(3-Iodopropionyl)phenyl-iodo-tellurium
_symmetry_cell_setting           monoclinic
_symmetry_space_group_name_H-M   'P 21/c'
_symmetry_Int_Tables_number      14
_space_group_name_Hall           '-P 2ybc'
loop_
_symmetry_equiv_pos_site_id
_symmetry_equiv_pos_as_xyz
1 x,y,z
2 -x,1/2+y,1/2-z
3 -x,-y,-z
4 x,1/2-y,1/2+z
_cell_length_a                   7.694(1)
_cell_length_b                   20.622(2)
_cell_length_c                   7.785(1)
_cell_angle_alpha                90
_cell_angle_beta                 95.27(1)
_cell_angle_gamma                90
_cell_volume                     1229.99
_exptl_crystal_colour            'dark red'
_chemical_melting_point          111deg.C
_cell_formula_units_Z            4
loop_
_atom_site_label
_atom_site_type_symbol
_atom_site_fract_x
_atom_site_fract_y
_atom_site_fract_z
Te1 Te 0.68669(7) 0.57019(3) 0.19970(7)
I1 I 0.75161(9) 0.31378(3) 0.05008(9)
I2 I 0.83565(10) 0.69327(3) 0.23370(11)
O1 O 0.5997(8) 0.4602(3) 0.2114(7)
C1 C 0.7622(9) 0.5401(4) 0.4549(10)
C2 C 0.8366(11) 0.5812(5) 0.5844(11)
C3 C 0.8753(11) 0.5550(5) 0.7526(11)
C4 C 0.8420(11) 0.4916(5) 0.7870(11)
C5 C 0.7718(10) 0.4516(4) 0.6616(10)
C6 C 0.7264(10) 0.4756(4) 0.4920(10)
C7 C 0.6427(10) 0.4345(4) 0.3535(11)
C8 C 0.6116(12) 0.3640(4) 0.3813(12)
C9 C 0.5465(13) 0.3289(5) 0.2192(14)
loop_
_geom_bond_atom_site_label_1
_geom_bond_atom_site_label_2
_geom_bond_site_symmetry_1
_geom_bond_site_symmetry_2
Te1 I2 1_555 1_555
I1 C9 1_555 1_555
O1 Te1 1_555 1_555
C1 Te1 1_555 1_555
C2 C1 1_555 1_555
C3 C2 1_555 1_555
C4 C3 1_555 1_555
C5 C4 1_555 1_555
C6 C1 1_555 1_555
C7 O1 1_555 1_555
C8 C7 1_555 1_555
C9 C8 1_555 1_555
C5 C6 1_555 1_555
C6 C7 1_555 1_555

#END
