
#######################################################################
#
#                 Cambridge Crystallographic Data Centre
#                                CCDC 
#
#######################################################################
#
# If this CIF has been generated from an entry in the Cambridge 
# Structural Database, then it will include bibliographic, chemical, 
# crystal, experimental, refinement or atomic coordinate data resulting 
# from the CCDC's data processing and validation procedures.
#
#######################################################################

data_VONNOC
_chemical_name_common            
13,15-Dibromo-3,10-dithiatricyclo[10.2.2.2$5,8!]octadeca-1(14),5,7,12,15,17-hexaene-6,17-dicarbonitrile
_chemical_formula_moiety         'C18 H12 Br2 N2 S2'
_chemical_name_systematic        
5,8-dibromo-15,18-dicyano-2,11-dithia(3.3)paracyclophane
_symmetry_cell_setting           monoclinic
_symmetry_space_group_name_H-M   'P 21/c'
_symmetry_Int_Tables_number      14
_space_group_name_Hall           '-P 2ybc'
loop_
_symmetry_equiv_pos_site_id
_symmetry_equiv_pos_as_xyz
1 x,y,z
2 -x,1/2+y,1/2-z
3 -x,-y,-z
4 x,1/2-y,1/2+z
_cell_length_a                   17.5997(11)
_cell_length_b                   6.8768(4)
_cell_length_c                   29.8669(17)
_cell_angle_alpha                90
_cell_angle_beta                 98.199(2)
_cell_angle_gamma                90
_cell_volume                     3577.83
_exptl_crystal_colour            colorless
_exptl_crystal_description       'Long Rod'
_chemical_melting_point          'above 300 deg.C'
_cell_formula_units_Z            8
_exptl_crystal_recrystallization_method toluene
loop_
_atom_site_label
_atom_site_type_symbol
_atom_site_fract_x
_atom_site_fract_y
_atom_site_fract_z
Br1 Br 0.50404(3) -0.22264(9) 0.19894(2)
Br2 Br 0.73055(3) -0.22364(9) 0.044742(19)
S1 S 0.83188(7) -0.02349(17) 0.14752(4)
S2 S 0.44154(8) 0.0995(2) 0.05522(5)
N1 N 0.5996(3) 0.3522(7) 0.00158(16)
N2 N 0.6588(3) 0.1868(7) 0.26537(15)
C1 C 0.5689(3) -0.2096(6) 0.15352(15)
C2 C 0.5392(3) -0.1609(6) 0.10946(17)
C3 C 0.5899(3) -0.1754(7) 0.07778(18)
H1 H 0.571(2) -0.152(6) 0.0498(14)
C4 C 0.6656(3) -0.2132(6) 0.09027(16)
C5 C 0.6973(3) -0.2413(5) 0.13531(16)
C6 C 0.6459(3) -0.2457(6) 0.16613(17)
H2 H 0.661(2) -0.264(6) 0.1965(15)
C7 C 0.7810(3) -0.2529(8) 0.1515(2)
H3 H 0.806(3) -0.340(7) 0.1334(15)
H4 H 0.791(3) -0.281(6) 0.1789(15)
C8 C 0.7807(3) 0.1437(8) 0.17908(19)
H5 H 0.772(3) 0.076(8) 0.2045(19)
H6 H 0.813(2) 0.239(5) 0.1853(12)
C9 C 0.7049(2) 0.2129(6) 0.15564(15)
C10 C 0.6423(3) 0.2366(6) 0.17904(14)
C11 C 0.5697(3) 0.2785(7) 0.15738(17)
H7 H 0.532(3) 0.282(6) 0.1729(14)
C12 C 0.5560(3) 0.3021(6) 0.11087(16)
C13 C 0.6193(3) 0.2979(6) 0.08739(15)
C14 C 0.6923(3) 0.2549(6) 0.10979(16)
H8 H 0.733(2) 0.241(5) 0.0938(12)
C15 C 0.4580(3) -0.0940(9) 0.0971(2)
H9 H 0.428(3) -0.173(6) 0.0814(14)
H10 H 0.436(3) -0.044(7) 0.1215(18)
C16 C 0.4753(3) 0.3161(9) 0.0873(2)
H11 H 0.444(3) 0.343(7) 0.1126(16)
H12 H 0.468(3) 0.394(7) 0.0691(15)
C17 C 0.6083(3) 0.3281(7) 0.03932(18)
C18 C 0.6518(3) 0.2073(7) 0.22734(18)
Br3 Br 0.05587(3) 0.54228(10) 0.22422(2)
Br4 Br 0.22410(3) 0.59346(9) 0.043796(19)
S3 S 0.32475(8) 0.2376(2) 0.17862(5)
S4 S -0.07554(7) 0.38145(18) 0.12475(5)
N3 N 0.0584(3) 0.2082(8) -0.01478(18)
N4 N 0.1823(3) -0.0002(7) 0.24452(17)
C19 C 0.1030(3) 0.5564(6) 0.17085(16)
C20 C 0.0596(3) 0.5976(6) 0.12937(16)
C21 C 0.0984(3) 0.6118(6) 0.09245(18)
H13 H 0.069(2) 0.643(6) 0.0641(14)
C22 C 0.1763(3) 0.5729(6) 0.09656(16)
C23 C 0.2181(3) 0.5120(6) 0.13736(16)
C24 C 0.1797(3) 0.5145(6) 0.17467(17)
H14 H 0.209(3) 0.470(6) 0.2033(15)
C25 C 0.2995(3) 0.4396(9) 0.1407(2)
H15 H 0.311(2) 0.412(6) 0.1115(14)
H16 H 0.332(3) 0.524(6) 0.1496(16)
C26 C 0.2812(3) 0.0311(8) 0.1459(2)
H17 H 0.309(3) 0.016(8) 0.1205(19)
H18 H 0.289(3) -0.067(7) 0.1665(15)
C27 C 0.1975(3) 0.0528(6) 0.13021(16)
C28 C 0.1427(3) 0.0559(6) 0.15900(16)
C29 C 0.0672(3) 0.1029(7) 0.14424(18)
H19 H 0.0331(19) 0.105(5) 0.1625(11)
C30 C 0.0428(3) 0.1526(6) 0.09929(16)
C31 C 0.0965(3) 0.1334(6) 0.06965(15)
C32 C 0.1726(3) 0.0862(7) 0.08493(18)
H20 H 0.198(2) 0.081(6) 0.0643(13)
C33 C -0.0263(3) 0.6127(8) 0.1216(2)
H21 H -0.039(3) 0.679(6) 0.1436(14)
H22 H -0.044(3) 0.670(8) 0.0941(18)
C34 C -0.0361(3) 0.2320(9) 0.08394(19)
H23 H -0.074(3) 0.138(7) 0.0735(16)
H24 H -0.044(3) 0.322(8) 0.0604(18)
C35 C 0.0754(3) 0.1761(8) 0.0225(2)
C36 C 0.1650(3) 0.0220(7) 0.20669(19)
loop_
_geom_bond_atom_site_label_1
_geom_bond_atom_site_label_2
_geom_bond_site_symmetry_1
_geom_bond_site_symmetry_2
Br1 C1 1_555 1_555
Br2 C4 1_555 1_555
S1 C7 1_555 1_555
S2 C15 1_555 1_555
N1 C17 1_555 1_555
N2 C18 1_555 1_555
C1 C2 1_555 1_555
C2 C3 1_555 1_555
C3 H1 1_555 1_555
C4 C3 1_555 1_555
C5 C4 1_555 1_555
C6 C1 1_555 1_555
H2 C6 1_555 1_555
C7 C5 1_555 1_555
H3 C7 1_555 1_555
H4 C7 1_555 1_555
C8 S1 1_555 1_555
H5 C8 1_555 1_555
H6 C8 1_555 1_555
C9 C8 1_555 1_555
C10 C9 1_555 1_555
C11 C10 1_555 1_555
H7 C11 1_555 1_555
C12 C11 1_555 1_555
C13 C12 1_555 1_555
C14 C9 1_555 1_555
H8 C14 1_555 1_555
C15 C2 1_555 1_555
H9 C15 1_555 1_555
H10 C15 1_555 1_555
C16 S2 1_555 1_555
H11 C16 1_555 1_555
H12 C16 1_555 1_555
C17 C13 1_555 1_555
C18 C10 1_555 1_555
Br3 C19 1_555 1_555
Br4 C22 1_555 1_555
S3 C25 1_555 1_555
S4 C33 1_555 1_555
N3 C35 1_555 1_555
N4 C36 1_555 1_555
C19 C20 1_555 1_555
C20 C21 1_555 1_555
C21 H13 1_555 1_555
C22 C21 1_555 1_555
C23 C22 1_555 1_555
C24 C19 1_555 1_555
H14 C24 1_555 1_555
C25 C23 1_555 1_555
H15 C25 1_555 1_555
H16 C25 1_555 1_555
C26 S3 1_555 1_555
H17 C26 1_555 1_555
H18 C26 1_555 1_555
C27 C26 1_555 1_555
C28 C27 1_555 1_555
C29 C28 1_555 1_555
H19 C29 1_555 1_555
C30 C29 1_555 1_555
C31 C30 1_555 1_555
C32 C27 1_555 1_555
H20 C32 1_555 1_555
C33 C20 1_555 1_555
H21 C33 1_555 1_555
H22 C33 1_555 1_555
C34 S4 1_555 1_555
H23 C34 1_555 1_555
H24 C34 1_555 1_555
C35 C31 1_555 1_555
C36 C28 1_555 1_555
C5 C6 1_555 1_555
C12 C16 1_555 1_555
C13 C14 1_555 1_555
C23 C24 1_555 1_555
C30 C34 1_555 1_555
C31 C32 1_555 1_555

#END
