
#######################################################################
#
#                 Cambridge Crystallographic Data Centre
#                                CCDC 
#
#######################################################################
#
# If this CIF has been generated from an entry in the Cambridge 
# Structural Database, then it will include bibliographic, chemical, 
# crystal, experimental, refinement or atomic coordinate data resulting 
# from the CCDC's data processing and validation procedures.
#
#######################################################################

data_VOPKEQ
_chemical_formula_moiety         'C34 H27 O1 P1,C1 H1 Cl3'
_chemical_name_systematic        
'9-((Diphenylphosphinoyl)(phenyl)methyl)-10-methylanthracene chloroform solvate'
_symmetry_cell_setting           monoclinic
_symmetry_space_group_name_H-M   'P 21/n'
_symmetry_Int_Tables_number      14
_space_group_name_Hall           '-P 2yn'
loop_
_symmetry_equiv_pos_site_id
_symmetry_equiv_pos_as_xyz
1 x,y,z
2 1/2+x,1/2-y,1/2+z
3 -x,-y,-z
4 1/2-x,1/2+y,1/2-z
_cell_length_a                   10.308(1)
_cell_length_b                   16.573(1)
_cell_length_c                   17.620(1)
_cell_angle_alpha                90
_cell_angle_beta                 100.03(1)
_cell_angle_gamma                90
_cell_volume                     2964.1
_exptl_crystal_colour            orange
_exptl_crystal_description       plates
_cell_formula_units_Z            4
loop_
_atom_site_label
_atom_site_type_symbol
_atom_site_fract_x
_atom_site_fract_y
_atom_site_fract_z
P1 P 0.57264(8) 0.30457(5) 0.26238(4)
O1 O 0.5017(2) 0.23173(13) 0.22755(12)
C1 C 0.7459(3) 0.28627(19) 0.29465(17)
C2 C 0.7782(4) 0.2178(2) 0.3401(2)
H1 H 0.7118 0.1847 0.3522
C3 C 0.9100(4) 0.1988(2) 0.3676(3)
H2 H 0.9312 0.1536 0.3985
C4 C 1.0075(4) 0.2464(3) 0.3491(2)
H3 H 1.0951 0.2330 0.3670
C5 C 0.9776(4) 0.3138(3) 0.3045(2)
H4 H 1.0449 0.3454 0.2914
C6 C 0.8479(3) 0.3348(2) 0.2789(2)
H5 H 0.8284 0.3821 0.2508
C7 C 0.5114(3) 0.33803(19) 0.34688(17)
C8 C 0.3788(3) 0.3277(2) 0.34960(19)
H6 H 0.3240 0.3027 0.3089
C9 C 0.3279(4) 0.3544(2) 0.4125(2)
H7 H 0.2386 0.3481 0.4136
C10 C 0.4088(4) 0.3902(2) 0.4738(2)
H8 H 0.3740 0.4079 0.5162
C11 C 0.5401(4) 0.3999(2) 0.4723(2)
H9 H 0.5948 0.4233 0.5141
C12 C 0.5920(3) 0.3749(2) 0.40888(19)
H10 H 0.6810 0.3828 0.4076
C13 C 0.5599(3) 0.39530(18) 0.20170(17)
H11 H 0.6160 0.4347 0.2334
C14 C 0.6179(3) 0.39097(19) 0.12771(17)
C15 C 0.6691(4) 0.3220(2) 0.10086(19)
H12 H 0.6663 0.2738 0.1276
C16 C 0.7250(4) 0.3232(3) 0.0343(2)
H13 H 0.7586 0.2761 0.0166
C17 C 0.7303(4) 0.3945(3) -0.0052(2)
H14 H 0.7661 0.3956 -0.0501
C18 C 0.6830(4) 0.4629(3) 0.0218(3)
H15 H 0.6884 0.5112 -0.0044
C19 C 0.6266(4) 0.4622(3) 0.0879(2)
H16 H 0.5946 0.5098 0.1054
C20 C 0.4213(3) 0.43353(18) 0.19088(16)
C21 C 0.4028(3) 0.50669(19) 0.22891(17)
C22 C 0.5060(4) 0.5492(2) 0.2762(2)
H17 H 0.5902 0.5272 0.2840
C23 C 0.4874(5) 0.6209(2) 0.3106(2)
H18 H 0.5581 0.6468 0.3408
C24 C 0.3612(5) 0.6557(3) 0.3005(2)
H19 H 0.3483 0.7045 0.3241
C25 C 0.2597(5) 0.6185(2) 0.2569(3)
H20 H 0.1770 0.6425 0.2508
C26 C 0.2732(4) 0.5425(2) 0.21889(19)
C27 C 0.1653(3) 0.5044(2) 0.1733(2)
C28 C 0.1853(3) 0.4328(2) 0.13388(19)
C29 C 0.0803(4) 0.3944(3) 0.0835(3)
H21 H -0.0043 0.4155 0.0789
C30 C 0.1000(4) 0.3282(3) 0.0421(2)
H22 H 0.0297 0.3052 0.0089
C31 C 0.2259(4) 0.2939(2) 0.0492(2)
H23 H 0.2390 0.2485 0.0204
C32 C 0.3290(3) 0.3270(2) 0.09818(18)
H24 H 0.4114 0.3028 0.1030
C33 C 0.3144(3) 0.39733(19) 0.14202(17)
C34 C 0.0275(4) 0.5400(3) 0.1636(3)
H25 H -0.0011 0.5550 0.1107
H26 H 0.0285 0.5869 0.1957
H27 H -0.0319 0.5007 0.1782
C35 C 1.0037(4) 0.5973(2) 0.3959(2)
H28 H 1.0209 0.6382 0.3587
Cl1 Cl 1.11825(15) 0.52107(8) 0.39817(9)
Cl2 Cl 1.01772(14) 0.64286(8) 0.48757(7)
Cl3 Cl 0.84473(15) 0.56222(12) 0.36864(11)
loop_
_geom_bond_atom_site_label_1
_geom_bond_atom_site_label_2
_geom_bond_site_symmetry_1
_geom_bond_site_symmetry_2
P1 O1 1_555 1_555
C1 P1 1_555 1_555
C2 C1 1_555 1_555
H1 C2 1_555 1_555
C3 C2 1_555 1_555
H2 C3 1_555 1_555
C4 C3 1_555 1_555
H3 C4 1_555 1_555
C5 C4 1_555 1_555
H4 C5 1_555 1_555
C6 C1 1_555 1_555
H5 C6 1_555 1_555
C7 P1 1_555 1_555
C8 C7 1_555 1_555
H6 C8 1_555 1_555
C9 C8 1_555 1_555
H7 C9 1_555 1_555
C10 C9 1_555 1_555
H8 C10 1_555 1_555
C11 C10 1_555 1_555
H9 C11 1_555 1_555
C12 C7 1_555 1_555
H10 C12 1_555 1_555
C13 P1 1_555 1_555
H11 C13 1_555 1_555
C14 C13 1_555 1_555
C15 C14 1_555 1_555
H12 C15 1_555 1_555
C16 C15 1_555 1_555
H13 C16 1_555 1_555
C17 C16 1_555 1_555
H14 C17 1_555 1_555
C18 C17 1_555 1_555
H15 C18 1_555 1_555
C19 C14 1_555 1_555
H16 C19 1_555 1_555
C20 C13 1_555 1_555
C21 C20 1_555 1_555
C22 C21 1_555 1_555
H17 C22 1_555 1_555
C23 C22 1_555 1_555
H18 C23 1_555 1_555
C24 C23 1_555 1_555
H19 C24 1_555 1_555
C25 C24 1_555 1_555
H20 C25 1_555 1_555
C26 C21 1_555 1_555
C27 C26 1_555 1_555
C28 C27 1_555 1_555
C29 C28 1_555 1_555
H21 C29 1_555 1_555
C30 C29 1_555 1_555
H22 C30 1_555 1_555
C31 C30 1_555 1_555
H23 C31 1_555 1_555
C32 C31 1_555 1_555
H24 C32 1_555 1_555
C33 C20 1_555 1_555
C34 C27 1_555 1_555
H25 C34 1_555 1_555
H26 C34 1_555 1_555
H27 C34 1_555 1_555
C35 H28 1_555 1_555
Cl1 C35 1_555 1_555
Cl2 C35 1_555 1_555
Cl3 C35 1_555 1_555
C5 C6 1_555 1_555
C11 C12 1_555 1_555
C18 C19 1_555 1_555
C25 C26 1_555 1_555
C28 C33 1_555 1_555
C32 C33 1_555 1_555

#END
