
#######################################################################
#
#                 Cambridge Crystallographic Data Centre
#                                CCDC 
#
#######################################################################
#
# If this CIF has been generated from an entry in the Cambridge 
# Structural Database, then it will include bibliographic, chemical, 
# crystal, experimental, refinement or atomic coordinate data resulting 
# from the CCDC's data processing and validation procedures.
#
#######################################################################

data_VOPNIZ
_chemical_formula_moiety         'C34 H28 S8,C60'
_chemical_name_systematic        
'2-(4,5-bis((3-methylphenyl)sulfanyl)-1,3-dithiol-2-ylidene)-4,5-bis((3-methylphenyl)sulfanyl)-1,3-dithiole C60fullerene'
_symmetry_cell_setting           triclinic
_symmetry_space_group_name_H-M   'P -1'
_symmetry_Int_Tables_number      2
_space_group_name_Hall           '-P 1'
loop_
_symmetry_equiv_pos_site_id
_symmetry_equiv_pos_as_xyz
1 x,y,z
2 -x,-y,-z
_cell_length_a                   10.346(8)
_cell_length_b                   10.452(9)
_cell_length_c                   13.714(12)
_cell_angle_alpha                88.75(3)
_cell_angle_beta                 86.12(3)
_cell_angle_gamma                79.37(3)
_cell_volume                     1454.13
_exptl_crystal_colour            black
_exptl_crystal_description       platelet
_chemical_melting_point          '496 K'
_cell_formula_units_Z            1
_exptl_crystal_recrystallization_method chlorobenzene
_exptl_crystal_preparation       'optical and electronic transport properties'
loop_
_atom_site_label
_atom_site_type_symbol
_atom_site_fract_x
_atom_site_fract_y
_atom_site_fract_z
C1 C 1.0105(4) -0.0067(4) 0.4514(2)
C2 C 1.0165(4) -0.0815(4) 0.2715(3)
C3 C 1.0972(4) 0.0061(4) 0.2699(3)
C4 C 0.8278(4) -0.1385(4) 0.1501(3)
C5 C 0.7837(4) -0.2205(4) 0.0861(3)
H1 H 0.8433 -0.2902 0.0589
C6 C 0.6524(4) -0.2009(4) 0.0617(3)
C7 C 0.5657(4) -0.0954(4) 0.1029(3)
H2 H 0.4778 -0.0801 0.0879
C8 C 0.6088(4) -0.0118(4) 0.1667(3)
H3 H 0.5491 0.0577 0.1939
C9 C 0.7401(4) -0.0314(4) 0.1899(3)
H4 H 0.7688 0.0256 0.2311
C10 C 1.0684(4) 0.1986(4) 0.1365(3)
C11 C 0.9580(4) 0.1848(4) 0.0869(3)
H5 H 0.9460 0.1022 0.0703
C12 C 0.8663(4) 0.2933(4) 0.0623(3)
C13 C 0.8890(4) 0.4157(4) 0.0854(3)
H6 H 0.8291 0.4890 0.0680
C14 C 0.9994(4) 0.4316(4) 0.1339(3)
H7 H 1.0125 0.5145 0.1486
C15 C 1.0897(4) 0.3220(4) 0.1601(3)
H8 H 1.1632 0.3310 0.1929
C16 C 0.6074(4) -0.2913(4) -0.0070(3)
H9 H 0.6806 -0.3576 -0.0279
H10 H 0.5731 -0.2430 -0.0629
H11 H 0.5397 -0.3310 0.0258
C17 C 0.7434(4) 0.2789(4) 0.0124(3)
H12 H 0.6920 0.3635 0.0008
H13 H 0.6922 0.2289 0.0535
H14 H 0.7683 0.2353 -0.0488
S1 S 0.93696(10) -0.11341(9) 0.38453(7)
S2 S 1.11755(10) 0.07783(9) 0.38090(7)
S3 S 0.99844(10) -0.17614(10) 0.17064(7)
S4 S 1.18591(10) 0.05694(10) 0.16606(7)
C1A C 0.9895(4) 0.0067(4) 0.5486(2)
C2A C 0.9835(4) 0.0815(4) 0.7285(3)
C3A C 0.9028(4) -0.0061(4) 0.7301(3)
C4A C 1.1722(4) 0.1385(4) 0.8499(3)
C5A C 1.2163(4) 0.2205(4) 0.9139(3)
H1A H 1.1567 0.2902 0.9411
C6A C 1.3476(4) 0.2009(4) 0.9383(3)
C7A C 1.4343(4) 0.0954(4) 0.8971(3)
H2A H 1.5222 0.0801 0.9121
C8A C 1.3912(4) 0.0118(4) 0.8333(3)
H3A H 1.4509 -0.0577 0.8061
C9A C 1.2599(4) 0.0314(4) 0.8101(3)
H4A H 1.2312 -0.0256 0.7689
C10A C 0.9316(4) -0.1986(4) 0.8635(3)
C11A C 1.0420(4) -0.1848(4) 0.9131(3)
H5A H 1.0540 -0.1022 0.9297
C12A C 1.1337(4) -0.2933(4) 0.9377(3)
C13A C 1.1110(4) -0.4157(4) 0.9146(3)
H6A H 1.1709 -0.4890 0.9320
C14A C 1.0006(4) -0.4316(4) 0.8661(3)
H7A H 0.9875 -0.5145 0.8514
C15A C 0.9103(4) -0.3220(4) 0.8399(3)
H8A H 0.8368 -0.3310 0.8071
C16A C 1.3926(4) 0.2913(4) 1.0070(3)
H9A H 1.3194 0.3576 1.0279
H10A H 1.4269 0.2430 1.0629
H11A H 1.4603 0.3310 0.9742
C17A C 1.2566(4) -0.2789(4) 0.9876(3)
H12A H 1.3080 -0.3635 0.9992
H13A H 1.3078 -0.2289 0.9465
H14A H 1.2317 -0.2353 1.0488
S1A S 1.06304(10) 0.11341(9) 0.61547(7)
S2A S 0.88245(10) -0.07783(9) 0.61910(7)
S3A S 1.00156(10) 0.17614(10) 0.82936(7)
S4A S 0.81409(10) -0.05694(10) 0.83394(7)
C18 C 0.8492(4) 0.4372(5) 0.4938(4)
C19 C 0.8213(4) 0.5629(5) 0.4399(3)
C20 C 0.7678(4) 0.6654(4) 0.5075(4)
C21 C 0.7606(4) 0.6152(5) 0.6049(3)
C22 C 0.8101(5) 0.4683(6) 0.6007(4)
C23 C 0.8239(5) 0.3264(5) 0.4512(5)
C24 C 0.7728(5) 0.3345(6) 0.3559(4)
C25 C 0.6735(11) 0.2348(8) 0.3636(6)
C26 C 0.6740(5) 0.1783(4) 0.4621(5)
C27 C 0.7652(5) 0.2355(5) 0.5095(5)
C28 C 0.7710(5) 0.5686(6) 0.3492(4)
C29 C 0.6627(9) 0.6757(7) 0.3247(4)
C30 C 0.5687(7) 0.6156(7) 0.2621(4)
C31 C 0.6244(5) 0.4811(5) 0.2532(3)
C32 C 0.7441(5) 0.4562(6) 0.3047(4)
C33 C 0.6673(5) 0.7654(5) 0.4796(4)
C34 C 0.5599(6) 0.8133(5) 0.5508(7)
C35 C 0.5540(9) 0.7630(8) 0.6390(6)
C36 C 0.6553(6) 0.6625(7) 0.6698(4)
C37 C 0.5940(6) 0.5739(9) 0.7324(4)
C38 C 0.6467(6) 0.4359(9) 0.7258(4)
C39 C 0.7555(6) 0.3851(7) 0.6574(5)
C40 C 0.7351(6) 0.2678(5) 0.6148(5)
C41 C 0.5878(11) 0.2705(6) 0.3110(5)
C42 C 0.5465(5) 0.3837(6) 0.2575(3)
C43 C 0.6183(7) 0.7653(7) 0.3856(6)
C44 C 0.4456(8) 0.6596(8) 0.2726(4)
C45 C 0.4700(7) 0.8160(6) 0.3952(6)
C46 C 0.6119(7) 0.2359(6) 0.6589(4)
C47 C 0.5635(7) 0.1560(5) 0.5054(8)
C18A C 0.1508(4) 0.5628(5) 0.5062(4)
C19A C 0.1787(4) 0.4371(5) 0.5601(3)
C20A C 0.2322(4) 0.3346(4) 0.4925(4)
C21A C 0.2394(4) 0.3848(5) 0.3951(3)
C22A C 0.1899(5) 0.5317(6) 0.3993(4)
C23A C 0.1761(5) 0.6736(5) 0.5488(5)
C24A C 0.2272(5) 0.6655(6) 0.6441(4)
C25A C 0.3265(11) 0.7652(8) 0.6364(6)
C26A C 0.3260(5) 0.8217(4) 0.5379(5)
C27A C 0.2348(5) 0.7645(5) 0.4905(5)
C28A C 0.2290(5) 0.4314(6) 0.6508(4)
C29A C 0.3373(9) 0.3243(7) 0.6753(4)
C30A C 0.4313(7) 0.3844(7) 0.7379(4)
C31A C 0.3756(5) 0.5189(5) 0.7468(3)
C32A C 0.2559(5) 0.5438(6) 0.6953(4)
C33A C 0.3327(5) 0.2346(5) 0.5204(4)
C34A C 0.4401(6) 0.1867(5) 0.4492(7)
C35A C 0.4460(9) 0.2370(8) 0.3610(6)
C36A C 0.3447(6) 0.3375(7) 0.3302(4)
C37A C 0.4060(6) 0.4261(9) 0.2676(4)
C38A C 0.3533(6) 0.5641(9) 0.2742(4)
C39A C 0.2445(6) 0.6149(7) 0.3426(5)
C40A C 0.2649(6) 0.7322(5) 0.3852(5)
C41A C 0.4122(11) 0.7295(6) 0.6890(5)
C42A C 0.4535(5) 0.6163(6) 0.7425(3)
C43A C 0.3817(7) 0.2347(7) 0.6144(6)
C44A C 0.5544(8) 0.3404(8) 0.7274(4)
C45A C 0.5300(7) 0.1840(6) 0.6048(6)
C46A C 0.3881(7) 0.7641(6) 0.3411(4)
C47A C 0.4365(7) 0.8440(5) 0.4946(8)
loop_
_geom_bond_atom_site_label_1
_geom_bond_atom_site_label_2
_geom_bond_site_symmetry_1
_geom_bond_site_symmetry_2
C1 S1 1_555 1_555
C2 C3 1_555 1_555
C3 S2 1_555 1_555
C4 C5 1_555 1_555
C5 H1 1_555 1_555
C6 C5 1_555 1_555
C7 C6 1_555 1_555
H2 C7 1_555 1_555
C8 C7 1_555 1_555
H3 C8 1_555 1_555
C9 C4 1_555 1_555
H4 C9 1_555 1_555
C10 C11 1_555 1_555
C11 H5 1_555 1_555
C12 C11 1_555 1_555
C13 C12 1_555 1_555
H6 C13 1_555 1_555
C14 C13 1_555 1_555
H7 C14 1_555 1_555
C15 C10 1_555 1_555
H8 C15 1_555 1_555
C16 C6 1_555 1_555
H9 C16 1_555 1_555
H10 C16 1_555 1_555
H11 C16 1_555 1_555
C17 C12 1_555 1_555
H12 C17 1_555 1_555
H13 C17 1_555 1_555
H14 C17 1_555 1_555
S1 C2 1_555 1_555
S2 C1 1_555 1_555
S3 C2 1_555 1_555
S4 C3 1_555 1_555
C18 C19 1_555 1_555
C19 C20 1_555 1_555
C20 C21 1_555 1_555
C21 C22 1_555 1_555
C22 C18 1_555 1_555
C23 C18 1_555 1_555
C24 C23 1_555 1_555
C25 C24 1_555 1_555
C26 C25 1_555 1_555
C27 C23 1_555 1_555
C28 C19 1_555 1_555
C29 C28 1_555 1_555
C30 C29 1_555 1_555
C31 C30 1_555 1_555
C32 C24 1_555 1_555
C33 C20 1_555 1_555
C34 C33 1_555 1_555
C35 C34 1_555 1_555
C36 C21 1_555 1_555
C37 C36 1_555 1_555
C38 C37 1_555 1_555
C39 C22 1_555 1_555
C40 C27 1_555 1_555
C41 C25 1_555 1_555
C42 C31 1_555 1_555
C43 C29 1_555 1_555
C44 C30 1_555 1_555
C45 C43 1_555 1_555
C46 C40 1_555 1_555
C47 C26 1_555 1_555
C1A C1 1_555 1_555
C2A C3A 1_555 1_555
C3A S2A 1_555 1_555
C4A C5A 1_555 1_555
C5A H1A 1_555 1_555
C6A C5A 1_555 1_555
C7A C6A 1_555 1_555
H2A C7A 1_555 1_555
C8A C7A 1_555 1_555
H3A C8A 1_555 1_555
C9A C4A 1_555 1_555
H4A C9A 1_555 1_555
C10A C11A 1_555 1_555
C11A H5A 1_555 1_555
C12A C11A 1_555 1_555
C13A C12A 1_555 1_555
H6A C13A 1_555 1_555
C14A C13A 1_555 1_555
H7A C14A 1_555 1_555
C15A C10A 1_555 1_555
H8A C15A 1_555 1_555
C16A C6A 1_555 1_555
H9A C16A 1_555 1_555
H10A C16A 1_555 1_555
H11A C16A 1_555 1_555
C17A C12A 1_555 1_555
H12A C17A 1_555 1_555
H13A C17A 1_555 1_555
H14A C17A 1_555 1_555
S1A C1A 1_555 1_555
S2A C1A 1_555 1_555
S3A C2A 1_555 1_555
S4A C3A 1_555 1_555
C18A C19A 1_555 1_555
C19A C20A 1_555 1_555
C20A C21A 1_555 1_555
C21A C22A 1_555 1_555
C22A C18A 1_555 1_555
C23A C18A 1_555 1_555
C24A C23A 1_555 1_555
C25A C24A 1_555 1_555
C26A C25A 1_555 1_555
C27A C23A 1_555 1_555
C28A C19A 1_555 1_555
C29A C28A 1_555 1_555
C30A C29A 1_555 1_555
C31A C30A 1_555 1_555
C32A C24A 1_555 1_555
C33A C20A 1_555 1_555
C34A C47 1_555 1_555
C35A C41 1_555 1_555
C36A C21A 1_555 1_555
C37A C42 1_555 1_555
C38A C44 1_555 1_555
C39A C22A 1_555 1_555
C40A C27A 1_555 1_555
C41A C35 1_555 1_555
C42A C37 1_555 1_555
C43A C29A 1_555 1_555
C44A C38 1_555 1_555
C45A C46 1_555 1_555
C46A C44 1_555 1_555
C47A C34 1_555 1_555
C4 S3 1_555 1_555
C8 C9 1_555 1_555
C10 S4 1_555 1_555
C14 C15 1_555 1_555
C26 C27 1_555 1_555
C28 C32 1_555 1_555
C31 C32 1_555 1_555
C33 C43 1_555 1_555
C35 C36 1_555 1_555
C38 C39 1_555 1_555
C39 C40 1_555 1_555
C41 C42 1_555 1_555
C45 C46A 1_555 1_555
C45 C47A 1_555 1_555
C46 C44A 1_555 1_555
C47 C45A 1_555 1_555
C2A S1A 1_555 1_555
C4A S3A 1_555 1_555
C8A C9A 1_555 1_555
C10A S4A 1_555 1_555
C14A C15A 1_555 1_555
C25A C41A 1_555 1_555
C26A C27A 1_555 1_555
C26A C47A 1_555 1_555
C28A C32A 1_555 1_555
C30A C44A 1_555 1_555
C31A C32A 1_555 1_555
C31A C42A 1_555 1_555
C33A C34A 1_555 1_555
C33A C43A 1_555 1_555
C34A C35A 1_555 1_555
C35A C36A 1_555 1_555
C36A C37A 1_555 1_555
C37A C38A 1_555 1_555
C38A C39A 1_555 1_555
C39A C40A 1_555 1_555
C40A C46A 1_555 1_555
C41A C42A 1_555 1_555
C43A C45A 1_555 1_555

#END
