
#######################################################################
#
#                 Cambridge Crystallographic Data Centre
#                                CCDC 
#
#######################################################################
#
# If this CIF has been generated from an entry in the Cambridge 
# Structural Database, then it will include bibliographic, chemical, 
# crystal, experimental, refinement or atomic coordinate data resulting 
# from the CCDC's data processing and validation procedures.
#
#######################################################################

data_VORJUI
_chemical_formula_moiety         'C32 H28 N12 O4'
_chemical_name_systematic        
5,11,17,23-tetrakis(Azidomethyl)-25,26,27,28-tetrahydroxycalix(4)arene
_symmetry_cell_setting           monoclinic
_symmetry_space_group_name_H-M   'P 21/c'
_symmetry_Int_Tables_number      14
_space_group_name_Hall           '-P 2ybc'
loop_
_symmetry_equiv_pos_site_id
_symmetry_equiv_pos_as_xyz
1 x,y,z
2 -x,1/2+y,1/2-z
3 -x,-y,-z
4 x,1/2-y,1/2+z
_cell_length_a                   12.377(2)
_cell_length_b                   12.446(2)
_cell_length_c                   19.979(3)
_cell_angle_alpha                90
_cell_angle_beta                 104.812(3)
_cell_angle_gamma                90
_cell_volume                     2975.38
_exptl_crystal_colour            colorless
_exptl_crystal_description       block
_chemical_melting_point          '423 K (dec.)'
_cell_formula_units_Z            4
_exptl_crystal_recrystallization_method methanol
loop_
_atom_site_label
_atom_site_type_symbol
_atom_site_fract_x
_atom_site_fract_y
_atom_site_fract_z
C1 C 0.1875(3) 0.5130(3) 0.63322(15)
H1 H 0.1924 0.5505 0.5915
H2 H 0.2608 0.4834 0.6543
C2 C 0.1596(2) 0.5942(2) 0.68268(13)
C3 C 0.0814(2) 0.5764(2) 0.71977(13)
H3 H 0.0394 0.5136 0.7120
C4 C 0.0635(2) 0.6495(2) 0.76838(13)
C5 C 0.1265(2) 0.7437(2) 0.77840(13)
C6 C 0.2065(2) 0.7644(2) 0.74207(13)
C7 C 0.2210(2) 0.6885(2) 0.69442(13)
H4 H 0.2737 0.7012 0.6695
C8 C 0.2802(2) 0.8629(2) 0.75653(14)
H5 H 0.2400 0.9207 0.7721
H6 H 0.2974 0.8859 0.7140
C9 C 0.3886(2) 0.8418(2) 0.81111(14)
C10 C 0.3982(2) 0.8555(2) 0.88161(14)
C11 C 0.4975(2) 0.8330(2) 0.93143(14)
C12 C 0.5874(2) 0.7951(2) 0.90846(16)
H7 H 0.6539 0.7793 0.9409
C13 C 0.5814(3) 0.7802(2) 0.83944(17)
C14 C 0.4816(3) 0.8054(2) 0.79147(15)
H8 H 0.4773 0.7976 0.7446
C15 C 0.6779(3) 0.7352(3) 0.8164(2)
H9 H 0.6886 0.7773 0.7778
H10 H 0.7450 0.7417 0.8539
C16 C 0.5056(2) 0.8431(2) 1.00852(14)
H11 H 0.5819 0.8604 1.0330
H12 H 0.4579 0.9013 1.0160
C17 C 0.4706(2) 0.7394(2) 1.03720(13)
C18 C 0.3613(2) 0.7210(2) 1.03999(12)
C19 C 0.3283(2) 0.6232(2) 1.06271(12)
C20 C 0.4092(2) 0.5448(2) 1.08352(13)
H13 H 0.3889 0.4796 1.0994
C21 C 0.5187(2) 0.5596(2) 1.08160(14)
C22 C 0.5479(2) 0.6577(2) 1.05814(14)
H14 H 0.6214 0.6688 1.0564
C23 C 0.6045(3) 0.4726(3) 1.10523(19)
H15 H 0.5672 0.4035 1.1010
H16 H 0.6551 0.4719 1.0753
C24 C 0.2077(2) 0.5993(2) 1.06159(13)
H17 H 0.2062 0.5523 1.1001
H18 H 0.1708 0.6658 1.0680
C25 C 0.1434(2) 0.5467(2) 0.99489(13)
C26 C 0.0913(2) 0.6062(2) 0.93678(13)
C27 C 0.0337(2) 0.5580(2) 0.87478(13)
C28 C 0.0285(2) 0.4470(2) 0.87343(14)
H19 H -0.0096 0.4130 0.8328
C29 C 0.0778(2) 0.3848(2) 0.93020(15)
C30 C 0.1350(2) 0.4357(2) 0.99048(14)
H20 H 0.1686 0.3945 1.0290
C31 C 0.0686(3) 0.2643(3) 0.92787(18)
H21 H 0.0368 0.2398 0.9648
H22 H 0.0189 0.2425 0.8841
C32 C -0.0185(2) 0.6242(3) 0.81098(14)
H23 H -0.0815 0.5852 0.7825
H24 H -0.0466 0.6909 0.8252
N1 N -0.0784(3) 0.4633(3) 0.55025(17)
N2 N 0.0131(3) 0.4503(2) 0.58022(14)
N3 N 0.1085(3) 0.4237(2) 0.61315(15)
N4 N 0.2128(4) 0.1146(4) 0.8429(2)
N5 N 0.1914(2) 0.1649(3) 0.88542(17)
N6 N 0.1790(2) 0.2138(2) 0.93553(15)
N7 N 0.7906(4) 0.6355(4) 1.20391(19)
N8 N 0.7318(3) 0.5662(4) 1.18505(18)
N9 N 0.6686(4) 0.4875(4) 1.1765(2)
N10 N 0.5192(6) 0.5844(4) 0.6944(4)
N11 N 0.5875(5) 0.6071(3) 0.7417(3)
N12 N 0.6624(4) 0.6221(3) 0.7954(2)
O1 O 0.11049(18) 0.82045(16) 0.82495(10)
H25 H 0.0944 0.7908 0.8578
O2 O 0.30977(16) 0.89352(16) 0.90442(10)
H26 H 0.2510 0.8774 0.8765
O3 O 0.28120(15) 0.80002(15) 1.02037(9)
H27 H 0.2923 0.8334 0.9874
O4 O 0.09191(16) 0.71711(15) 0.93971(10)
H28 H 0.1487 0.7375 0.9679
H29? H 0.5812 0.4014 1.1041
O5? O 0.7081(16) 0.4940(18) 1.1267(10)
loop_
_geom_bond_atom_site_label_1
_geom_bond_atom_site_label_2
_geom_bond_site_symmetry_1
_geom_bond_site_symmetry_2
C1 H1 1_555 1_555
H2 C1 1_555 1_555
C2 C1 1_555 1_555
C3 C2 1_555 1_555
H3 C3 1_555 1_555
C4 C3 1_555 1_555
C5 C4 1_555 1_555
C6 C5 1_555 1_555
C7 C2 1_555 1_555
H4 C7 1_555 1_555
C8 C6 1_555 1_555
H5 C8 1_555 1_555
H6 C8 1_555 1_555
C9 C8 1_555 1_555
C10 C9 1_555 1_555
C11 C10 1_555 1_555
C12 C11 1_555 1_555
H7 C12 1_555 1_555
C13 C12 1_555 1_555
C14 C9 1_555 1_555
H8 C14 1_555 1_555
C15 C13 1_555 1_555
H9 C15 1_555 1_555
H10 C15 1_555 1_555
C16 C11 1_555 1_555
H11 C16 1_555 1_555
H12 C16 1_555 1_555
C17 C16 1_555 1_555
C18 C17 1_555 1_555
C19 C18 1_555 1_555
C20 C19 1_555 1_555
H13 C20 1_555 1_555
C21 C20 1_555 1_555
C22 C17 1_555 1_555
H14 C22 1_555 1_555
C23 C21 1_555 1_555
H15 C23 1_555 1_555
H16 C23 1_555 1_555
C24 C19 1_555 1_555
H17 C24 1_555 1_555
H18 C24 1_555 1_555
C25 C24 1_555 1_555
C26 C25 1_555 1_555
C27 C26 1_555 1_555
C28 C27 1_555 1_555
H19 C28 1_555 1_555
C29 C28 1_555 1_555
C30 C25 1_555 1_555
H20 C30 1_555 1_555
C31 C29 1_555 1_555
H21 C31 1_555 1_555
H22 C31 1_555 1_555
C32 C4 1_555 1_555
H23 C32 1_555 1_555
H24 C32 1_555 1_555
N1 N2 1_555 1_555
N2 N3 1_555 1_555
N3 C1 1_555 1_555
N4 N5 1_555 1_555
N5 N6 1_555 1_555
N6 C31 1_555 1_555
N7 N8 1_555 1_555
N8 N9 1_555 1_555
N9 C23 1_555 1_555
N10 N11 1_555 1_555
N11 N12 1_555 1_555
N12 C15 1_555 1_555
O1 C5 1_555 1_555
H25 O1 1_555 1_555
O2 C10 1_555 1_555
H26 O2 1_555 1_555
O3 C18 1_555 1_555
H27 O3 1_555 1_555
O4 C26 1_555 1_555
H28 O4 1_555 1_555
C6 C7 1_555 1_555
C13 C14 1_555 1_555
C21 C22 1_555 1_555
C27 C32 1_555 1_555
C29 C30 1_555 1_555

#END
