
#######################################################################
#
#                 Cambridge Crystallographic Data Centre
#                                CCDC 
#
#######################################################################
#
# If this CIF has been generated from an entry in the Cambridge 
# Structural Database, then it will include bibliographic, chemical, 
# crystal, experimental, refinement or atomic coordinate data resulting 
# from the CCDC's data processing and validation procedures.
#
#######################################################################

data_VORKOE
_chemical_formula_moiety         'C38 H56 Mg1 N2 O3'
_chemical_name_systematic        
bis(4-((2,6-diisopropylphenyl)imino)pent-2-en-2-olato)-(tetrahydrofuran)-magnesium
_symmetry_cell_setting           monoclinic
_symmetry_space_group_name_H-M   'P 21/n'
_symmetry_Int_Tables_number      14
_space_group_name_Hall           '-P 2yn'
loop_
_symmetry_equiv_pos_site_id
_symmetry_equiv_pos_as_xyz
1 x,y,z
2 1/2-x,1/2+y,1/2-z
3 -x,-y,-z
4 1/2+x,1/2-y,1/2+z
_cell_length_a                   10.0598(2)
_cell_length_b                   17.3386(3)
_cell_length_c                   21.5094(4)
_cell_angle_alpha                90
_cell_angle_beta                 98.7390(10)
_cell_angle_gamma                90
_cell_volume                     3708.18
_exptl_crystal_colour            colorless
_exptl_crystal_description       block
_cell_formula_units_Z            4
loop_
_atom_site_label
_atom_site_type_symbol
_atom_site_fract_x
_atom_site_fract_y
_atom_site_fract_z
C1 C 0.10366(16) 0.87985(9) -0.03400(7)
H1 H 0.1629 0.8574 -0.0614
H2 H 0.0756 0.9315 -0.0491
H3 H 0.0241 0.8471 -0.0345
C2 C 0.17782(14) 0.88526(8) 0.03205(6)
C3 C 0.19700(15) 0.95581(8) 0.06180(7)
H4 H 0.1576 0.9993 0.0392
C4 C 0.26940(14) 0.97031(8) 0.12269(7)
C5 C 0.27407(17) 1.05384(8) 0.14361(7)
H5 H 0.2362 1.0584 0.1828
H6 H 0.2215 1.0855 0.1110
H7 H 0.3676 1.0717 0.1506
C6 C 0.40197(14) 0.93995(7) 0.22000(6)
C7 C 0.33359(15) 0.94320(8) 0.27256(7)
C8 C 0.40589(18) 0.96448(8) 0.33049(7)
H8 H 0.3607 0.9677 0.3661
C9 C 0.54111(17) 0.98091(9) 0.33739(7)
H9 H 0.5881 0.9961 0.3772
C10 C 0.60805(16) 0.97520(8) 0.28625(7)
H10 H 0.7020 0.9850 0.2915
C11 C 0.54051(14) 0.95531(7) 0.22700(6)
C12 C 0.61854(15) 0.94993(8) 0.17226(7)
H11 H 0.5536 0.9366 0.1338
C13 C 0.72380(16) 0.88586(10) 0.18295(9)
H12 H 0.7900 0.8982 0.2199
H13 H 0.7692 0.8814 0.1459
H14 H 0.6797 0.8369 0.1899
C14 C 0.68570(19) 1.02665(10) 0.15986(9)
H15 H 0.6172 1.0672 0.1523
H16 H 0.7310 1.0215 0.1228
H17 H 0.7518 1.0403 0.1965
C15 C 0.18617(17) 0.92197(10) 0.26844(8)
H18 H 0.1523 0.9066 0.2241
C16 C 0.09965(18) 0.98860(13) 0.28558(10)
H19 H 0.1324 1.0056 0.3286
H20 H 0.0061 0.9715 0.2827
H21 H 0.1049 1.0316 0.2564
C17 C 0.1710(2) 0.85300(12) 0.31064(10)
H22 H 0.2300 0.8112 0.3008
H23 H 0.0774 0.8353 0.3035
H24 H 0.1960 0.8681 0.3548
C18 C 0.56323(17) 0.71066(10) 0.30551(7)
H25 H 0.5886 0.7617 0.3229
H26 H 0.6411 0.6761 0.3132
H27 H 0.4901 0.6898 0.3258
C19 C 0.51707(14) 0.71744(8) 0.23573(6)
C20 C 0.57062(14) 0.67056(8) 0.19418(6)
H28 H 0.6382 0.6354 0.2120
C21 C 0.53618(14) 0.66891(8) 0.12780(7)
C22 C 0.61078(15) 0.60975(9) 0.09420(7)
H29 H 0.5478 0.5698 0.0758
H30 H 0.6820 0.5860 0.1243
H31 H 0.6507 0.6352 0.0608
C23 C 0.42347(14) 0.70815(8) 0.02794(6)
C24 C 0.49408(14) 0.75712(8) -0.00733(7)
C25 C 0.46847(16) 0.75233(9) -0.07284(7)
H32 H 0.5167 0.7847 -0.0972
C26 C 0.37476(16) 0.70173(10) -0.10268(7)
H33 H 0.3585 0.6992 -0.1473
C27 C 0.30446(17) 0.65469(10) -0.06768(7)
H34 H 0.2393 0.6201 -0.0887
C28 C 0.32687(15) 0.65660(9) -0.00202(7)
C29 C 0.24554(17) 0.60347(10) 0.03411(7)
H35 H 0.2759 0.6118 0.0801
C30 C 0.09585(18) 0.62317(11) 0.01970(9)
H36 H 0.0828 0.6779 0.0286
H37 H 0.0459 0.5915 0.0460
H38 H 0.0629 0.6127 -0.0248
C31 C 0.26850(19) 0.51853(10) 0.01926(8)
H39 H 0.2455 0.5100 -0.0261
H40 H 0.2115 0.4860 0.0416
H41 H 0.3632 0.5053 0.0329
C32 C 0.59590(15) 0.81542(9) 0.02306(7)
H42 H 0.6008 0.8106 0.0697
C33 C 0.55130(18) 0.89765(9) 0.00486(8)
H43 H 0.5442 0.9039 -0.0408
H44 H 0.6175 0.9343 0.0259
H45 H 0.4636 0.9076 0.0178
C34 C 0.73656(16) 0.79974(11) 0.00717(8)
H46 H 0.7661 0.7482 0.0221
H47 H 0.7994 0.8385 0.0277
H48 H 0.7342 0.8025 -0.0385
C35 C 0.15636(16) 0.67843(9) 0.20788(8)
H49 H 0.2236 0.6862 0.2460
H50 H 0.1781 0.6302 0.1870
C36 C 0.01672(17) 0.67469(10) 0.22474(8)
H51 H 0.0078 0.7082 0.2611
H52 H -0.0082 0.6212 0.2342
C37 C -0.06741(17) 0.70428(10) 0.16505(9)
H53 H -0.0833 0.6633 0.1327
H54 H -0.1550 0.7244 0.1735
C38 C 0.01840(14) 0.76782(9) 0.14481(8)
H55 H 0.0012 0.7743 0.0986
H56 H -0.0002 0.8173 0.1648
Mg1 Mg 0.32431(4) 0.79525(3) 0.13807(2)
N1 N 0.33072(11) 0.91628(6) 0.15962(5)
N2 N 0.44549(11) 0.71461(6) 0.09586(5)
O1 O 0.21966(10) 0.82114(5) 0.05698(4)
O2 O 0.42692(9) 0.76868(6) 0.21964(4)
O3 O 0.15588(9) 0.74352(5) 0.16542(4)
loop_
_geom_bond_atom_site_label_1
_geom_bond_atom_site_label_2
_geom_bond_site_symmetry_1
_geom_bond_site_symmetry_2
C1 H1 1_555 1_555
H2 C1 1_555 1_555
H3 C1 1_555 1_555
C2 C1 1_555 1_555
C3 C2 1_555 1_555
H4 C3 1_555 1_555
C4 C3 1_555 1_555
C5 C4 1_555 1_555
H5 C5 1_555 1_555
H6 C5 1_555 1_555
H7 C5 1_555 1_555
C6 C7 1_555 1_555
C7 C8 1_555 1_555
C8 H8 1_555 1_555
C9 C8 1_555 1_555
H9 C9 1_555 1_555
C10 C9 1_555 1_555
H10 C10 1_555 1_555
C11 C6 1_555 1_555
C12 C11 1_555 1_555
H11 C12 1_555 1_555
C13 C12 1_555 1_555
H12 C13 1_555 1_555
H13 C13 1_555 1_555
H14 C13 1_555 1_555
C14 C12 1_555 1_555
H15 C14 1_555 1_555
H16 C14 1_555 1_555
H17 C14 1_555 1_555
C15 C7 1_555 1_555
H18 C15 1_555 1_555
C16 C15 1_555 1_555
H19 C16 1_555 1_555
H20 C16 1_555 1_555
H21 C16 1_555 1_555
C17 C15 1_555 1_555
H22 C17 1_555 1_555
H23 C17 1_555 1_555
H24 C17 1_555 1_555
C18 H25 1_555 1_555
H26 C18 1_555 1_555
H27 C18 1_555 1_555
C19 C18 1_555 1_555
C20 C19 1_555 1_555
H28 C20 1_555 1_555
C21 C20 1_555 1_555
C22 C21 1_555 1_555
H29 C22 1_555 1_555
H30 C22 1_555 1_555
H31 C22 1_555 1_555
C23 C24 1_555 1_555
C24 C25 1_555 1_555
C25 H32 1_555 1_555
C26 C25 1_555 1_555
H33 C26 1_555 1_555
C27 C26 1_555 1_555
H34 C27 1_555 1_555
C28 C23 1_555 1_555
C29 C28 1_555 1_555
H35 C29 1_555 1_555
C30 C29 1_555 1_555
H36 C30 1_555 1_555
H37 C30 1_555 1_555
H38 C30 1_555 1_555
C31 C29 1_555 1_555
H39 C31 1_555 1_555
H40 C31 1_555 1_555
H41 C31 1_555 1_555
C32 C24 1_555 1_555
H42 C32 1_555 1_555
C33 C32 1_555 1_555
H43 C33 1_555 1_555
H44 C33 1_555 1_555
H45 C33 1_555 1_555
C34 C32 1_555 1_555
H46 C34 1_555 1_555
H47 C34 1_555 1_555
H48 C34 1_555 1_555
C35 H49 1_555 1_555
H50 C35 1_555 1_555
C36 C35 1_555 1_555
H51 C36 1_555 1_555
H52 C36 1_555 1_555
C37 C36 1_555 1_555
H53 C37 1_555 1_555
H54 C37 1_555 1_555
C38 C37 1_555 1_555
H55 C38 1_555 1_555
H56 C38 1_555 1_555
Mg1 N1 1_555 1_555
N1 C4 1_555 1_555
N2 C21 1_555 1_555
O1 C2 1_555 1_555
O2 C19 1_555 1_555
O3 C35 1_555 1_555
C6 N1 1_555 1_555
C10 C11 1_555 1_555
C23 N2 1_555 1_555
C27 C28 1_555 1_555
C38 O3 1_555 1_555
Mg1 N2 1_555 1_555
Mg1 O1 1_555 1_555
Mg1 O2 1_555 1_555
Mg1 O3 1_555 1_555

#END
