
#######################################################################
#
#                 Cambridge Crystallographic Data Centre
#                                CCDC 
#
#######################################################################
#
# If this CIF has been generated from an entry in the Cambridge 
# Structural Database, then it will include bibliographic, chemical, 
# crystal, experimental, refinement or atomic coordinate data resulting 
# from the CCDC's data processing and validation procedures.
#
#######################################################################

data_VORKEU
_chemical_formula_moiety         'C22 H38 Mg1 N4 O2'
_chemical_name_systematic        
bis(2-((dimethylamino)methyl)-1H-pyrrol-1-yl)-bis(tetrahydrofuran)-magnesium
_symmetry_cell_setting           tetragonal
_symmetry_space_group_name_H-M   'I 41/a'
_symmetry_Int_Tables_number      88
_space_group_name_Hall           '-I 4ad'
loop_
_symmetry_equiv_pos_site_id
_symmetry_equiv_pos_as_xyz
1 x,y,z
2 1/2-x,-y,1/2+z
3 3/4-y,1/4+x,1/4+z
4 3/4+y,3/4-x,3/4+z
5 1/2+x,1/2+y,1/2+z
6 -x,1/2-y,z
7 1/4-y,3/4+x,3/4+z
8 1/4+y,1/4-x,1/4+z
9 -x,-y,-z
10 1/2+x,y,1/2-z
11 1/4+y,3/4-x,3/4-z
12 1/4-y,1/4+x,1/4-z
13 1/2-x,1/2-y,1/2-z
14 x,1/2+y,-z
15 3/4+y,1/4-x,1/4-z
16 3/4-y,3/4+x,3/4-z
_cell_length_a                   17.1674(8)
_cell_length_b                   17.1674(8)
_cell_length_c                   31.129(3)
_cell_angle_alpha                90
_cell_angle_beta                 90
_cell_angle_gamma                90
_cell_volume                     9174.33
_exptl_crystal_colour            colorless
_exptl_crystal_description       block
_cell_formula_units_Z            16
loop_
_atom_site_label
_atom_site_type_symbol
_atom_site_fract_x
_atom_site_fract_y
_atom_site_fract_z
C1 C 1.11232(8) 0.64881(8) 0.02158(5)
H1 H 1.0890 0.6877 0.0041
C2 C 1.17663(8) 0.66086(9) 0.04730(5)
H2 H 1.2050 0.7080 0.0506
C3 C 1.19185(8) 0.58908(9) 0.06771(5)
H3 H 1.2324 0.5782 0.0876
C4 C 1.13593(8) 0.53779(8) 0.05296(4)
C5 C 1.12674(9) 0.45245(9) 0.06161(5)
H4 H 1.1549 0.4223 0.0394
H5 H 1.1498 0.4397 0.0899
C6 C 1.00684(10) 0.45816(10) 0.10133(5)
H6 H 0.9511 0.4458 0.1010
H7 H 1.0138 0.5147 0.1037
H8 H 1.0316 0.4325 0.1259
C7 C 1.03582(11) 0.34496(9) 0.05996(6)
H9 H 1.0635 0.3222 0.0845
H10 H 1.0585 0.3254 0.0332
H11 H 0.9807 0.3304 0.0613
C8 C 0.83481(9) 0.52246(10) 0.04732(5)
H12 H 0.8405 0.4664 0.0540
H13 H 0.7991 0.5280 0.0225
C9 C 0.80339(11) 0.56574(12) 0.08572(6)
H14 H 0.7532 0.5910 0.0786
H15 H 0.7950 0.5296 0.1101
C10 C 0.86367(11) 0.62596(11) 0.09711(6)
H16 H 0.8388 0.6765 0.1039
H17 H 0.8950 0.6090 0.1221
C11 C 0.91361(11) 0.63248(10) 0.05759(7)
H18 H 0.8931 0.6730 0.0380
H19 H 0.9679 0.6459 0.0654
Mg1 Mg 1.0000 0.5000 0.0000
N1 N 1.08632(7) 0.57359(6) 0.02448(4)
N2 N 1.04296(7) 0.43033(7) 0.06133(4)
O1 O 0.91037(6) 0.55671(6) 0.03746(3)
C1H C 0.88768(8) 0.35119(8) -0.02158(5)
H1H H 0.9110 0.3123 -0.0041
C2H C 0.82337(8) 0.33914(9) -0.04730(5)
H2H H 0.7950 0.2920 -0.0506
C3H C 0.80815(8) 0.41092(9) -0.06771(5)
H3H H 0.7676 0.4218 -0.0876
C4H C 0.86407(8) 0.46221(8) -0.05296(4)
C5H C 0.87326(9) 0.54755(9) -0.06161(5)
H4H H 0.8451 0.5777 -0.0394
H5H H 0.8502 0.5603 -0.0899
C6H C 0.99316(10) 0.54184(10) -0.10133(5)
H6H H 1.0489 0.5542 -0.1010
H7H H 0.9862 0.4853 -0.1037
H8H H 0.9684 0.5675 -0.1259
C7H C 0.96418(11) 0.65504(9) -0.05996(6)
H9H H 0.9365 0.6778 -0.0845
H10H H 0.9415 0.6746 -0.0332
H11H H 1.0193 0.6696 -0.0613
C8H C 1.16519(9) 0.47754(10) -0.04732(5)
H12H H 1.1595 0.5336 -0.0540
H13H H 1.2009 0.4720 -0.0225
C9H C 1.19661(11) 0.43426(12) -0.08572(6)
H14H H 1.2468 0.4090 -0.0786
H15H H 1.2050 0.4704 -0.1101
C10H C 1.13633(11) 0.37404(11) -0.09711(6)
H16H H 1.1612 0.3235 -0.1039
H17H H 1.1050 0.3910 -0.1221
C11H C 1.08639(11) 0.36752(10) -0.05759(7)
H18H H 1.1069 0.3270 -0.0380
H19H H 1.0321 0.3541 -0.0654
N1H N 0.91368(7) 0.42641(6) -0.02448(4)
N2H N 0.95704(7) 0.56967(7) -0.06133(4)
O1H O 1.08963(6) 0.44329(6) -0.03746(3)
C12 C 0.54521(9) 0.52816(8) 0.09819(5)
H20 H 0.5425 0.5584 0.1249
H21 H 0.5985 0.5298 0.0869
H22 H 0.5305 0.4740 0.1040
C13 C 0.41300(8) 0.56504(9) 0.08558(5)
H23 H 0.3954 0.5121 0.0924
H24 H 0.3766 0.5890 0.0652
H25 H 0.4148 0.5962 0.1119
C14 C 0.51756(8) 0.64194(8) 0.05574(5)
H26 H 0.5307 0.6701 0.0825
H27 H 0.4749 0.6705 0.0413
C15 C 0.58731(8) 0.63933(7) 0.02706(4)
C16 C 0.64904(8) 0.69066(8) 0.02416(5)
H28 H 0.6582 0.7350 0.0417
C17 C 0.65976(8) 0.59765(8) -0.02566(5)
H29 H 0.6789 0.5672 -0.0488
C18 C 0.69575(8) 0.66388(9) -0.01010(5)
H30 H 0.7425 0.6868 -0.0204
C19 C 0.65988(8) 0.40699(10) 0.02469(5)
H31 H 0.6821 0.4600 0.0224
H32 H 0.6767 0.3763 -0.0006
C20 C 0.68642(9) 0.36824(10) 0.06571(5)
H33 H 0.7029 0.4076 0.0871
H34 H 0.7305 0.3325 0.0601
C21 C 0.61513(10) 0.32303(9) 0.08177(5)
H35 H 0.6264 0.2666 0.0834
H36 H 0.5989 0.3416 0.1105
C22 C 0.55224(9) 0.33958(8) 0.04847(5)
H37 H 0.5483 0.2960 0.0278
H38 H 0.5010 0.3467 0.0626
Mg2 Mg 0.5000 0.5000 0.0000
N3 N 0.49118(6) 0.56173(6) 0.06630(4)
N4 N 0.59279(6) 0.58163(6) -0.00332(4)
O2 O 0.57596(5) 0.41052(5) 0.02681(3)
C12H C 0.45479(9) 0.47184(8) -0.09819(5)
H20H H 0.4575 0.4416 -0.1249
H21H H 0.4015 0.4702 -0.0869
H22H H 0.4695 0.5260 -0.1040
C13H C 0.58700(8) 0.43496(9) -0.08558(5)
H23H H 0.6046 0.4879 -0.0924
H24H H 0.6234 0.4110 -0.0652
H25H H 0.5852 0.4038 -0.1119
C14H C 0.48244(8) 0.35806(8) -0.05574(5)
H26H H 0.4693 0.3299 -0.0825
H27H H 0.5251 0.3295 -0.0413
C15H C 0.41269(8) 0.36067(7) -0.02706(4)
C16H C 0.35096(8) 0.30934(8) -0.02416(5)
H28H H 0.3418 0.2650 -0.0417
C17H C 0.34024(8) 0.40235(8) 0.02566(5)
H29H H 0.3211 0.4328 0.0488
C18H C 0.30425(8) 0.33612(9) 0.01010(5)
H30H H 0.2575 0.3132 0.0204
C19H C 0.34012(8) 0.59301(10) -0.02469(5)
H31H H 0.3179 0.5400 -0.0224
H32H H 0.3233 0.6237 0.0006
C20H C 0.31358(9) 0.63176(10) -0.06571(5)
H33H H 0.2971 0.5924 -0.0871
H34H H 0.2695 0.6675 -0.0601
C21H C 0.38487(10) 0.67697(9) -0.08177(5)
H35H H 0.3736 0.7334 -0.0834
H36H H 0.4011 0.6584 -0.1105
C22H C 0.44776(9) 0.66042(8) -0.04847(5)
H37H H 0.4517 0.7040 -0.0278
H38H H 0.4990 0.6533 -0.0626
N3H N 0.50882(6) 0.43827(6) -0.06630(4)
N4H N 0.40721(6) 0.41837(6) 0.00332(4)
O2H O 0.42404(5) 0.58948(5) -0.02681(3)
loop_
_geom_bond_atom_site_label_1
_geom_bond_atom_site_label_2
_geom_bond_site_symmetry_1
_geom_bond_site_symmetry_2
C1 H1 1_555 1_555
C2 C1 1_555 1_555
H2 C2 1_555 1_555
C3 C2 1_555 1_555
H3 C3 1_555 1_555
C4 C3 1_555 1_555
C5 C4 1_555 1_555
H4 C5 1_555 1_555
H5 C5 1_555 1_555
C6 H6 1_555 1_555
H7 C6 1_555 1_555
H8 C6 1_555 1_555
C7 H9 1_555 1_555
H10 C7 1_555 1_555
H11 C7 1_555 1_555
C8 H12 1_555 1_555
H13 C8 1_555 1_555
C9 C8 1_555 1_555
H14 C9 1_555 1_555
H15 C9 1_555 1_555
C10 C9 1_555 1_555
H16 C10 1_555 1_555
H17 C10 1_555 1_555
C11 C10 1_555 1_555
H18 C11 1_555 1_555
H19 C11 1_555 1_555
Mg1 N1 1_555 1_555
N1 C1 1_555 1_555
N2 C5 1_555 1_555
O1 C8 1_555 1_555
C12 H20 1_555 1_555
H21 C12 1_555 1_555
H22 C12 1_555 1_555
C13 H23 1_555 1_555
H24 C13 1_555 1_555
H25 C13 1_555 1_555
C14 H26 1_555 1_555
H27 C14 1_555 1_555
C15 C14 1_555 1_555
C16 C15 1_555 1_555
H28 C16 1_555 1_555
C17 H29 1_555 1_555
C18 C16 1_555 1_555
H30 C18 1_555 1_555
C19 H31 1_555 1_555
H32 C19 1_555 1_555
C20 C19 1_555 1_555
H33 C20 1_555 1_555
H34 C20 1_555 1_555
C21 C20 1_555 1_555
H35 C21 1_555 1_555
H36 C21 1_555 1_555
C22 C21 1_555 1_555
H37 C22 1_555 1_555
H38 C22 1_555 1_555
Mg2 N3 1_555 1_555
N3 C12 1_555 1_555
N4 C15 1_555 1_555
O2 C19 1_555 1_555
C1H H1H 1_555 1_555
C2H C1H 1_555 1_555
H2H C2H 1_555 1_555
C3H C2H 1_555 1_555
H3H C3H 1_555 1_555
C4H C3H 1_555 1_555
C5H C4H 1_555 1_555
H4H C5H 1_555 1_555
H5H C5H 1_555 1_555
C6H H6H 1_555 1_555
H7H C6H 1_555 1_555
H8H C6H 1_555 1_555
C7H H9H 1_555 1_555
H10H C7H 1_555 1_555
H11H C7H 1_555 1_555
C8H H12H 1_555 1_555
H13H C8H 1_555 1_555
C9H C8H 1_555 1_555
H14H C9H 1_555 1_555
H15H C9H 1_555 1_555
C10H C9H 1_555 1_555
H16H C10H 1_555 1_555
H17H C10H 1_555 1_555
C11H C10H 1_555 1_555
H18H C11H 1_555 1_555
H19H C11H 1_555 1_555
N1H Mg1 1_555 1_555
N2H Mg1 1_555 1_555
O1H Mg1 1_555 1_555
C12H H20H 1_555 1_555
H21H C12H 1_555 1_555
H22H C12H 1_555 1_555
C13H H23H 1_555 1_555
H24H C13H 1_555 1_555
H25H C13H 1_555 1_555
C14H H26H 1_555 1_555
H27H C14H 1_555 1_555
C15H C14H 1_555 1_555
C16H C15H 1_555 1_555
H28H C16H 1_555 1_555
C17H H29H 1_555 1_555
C18H C16H 1_555 1_555
H30H C18H 1_555 1_555
C19H H31H 1_555 1_555
H32H C19H 1_555 1_555
C20H C19H 1_555 1_555
H33H C20H 1_555 1_555
H34H C20H 1_555 1_555
C21H C20H 1_555 1_555
H35H C21H 1_555 1_555
H36H C21H 1_555 1_555
C22H C21H 1_555 1_555
H37H C22H 1_555 1_555
H38H C22H 1_555 1_555
N3H Mg2 1_555 1_555
N4H Mg2 1_555 1_555
O2H Mg2 1_555 1_555
C4 N1 1_555 1_555
C6 N2 1_555 1_555
C7 N2 1_555 1_555
C11 O1 1_555 1_555
Mg1 N2 1_555 1_555
Mg1 O1 1_555 1_555
C13 N3 1_555 1_555
C14 N3 1_555 1_555
C17 C18 1_555 1_555
C17 N4 1_555 1_555
C22 O2 1_555 1_555
Mg2 N4 1_555 1_555
Mg2 O2 1_555 1_555
C1H N1H 1_555 1_555
C4H N1H 1_555 1_555
C5H N2H 1_555 1_555
C6H N2H 1_555 1_555
C7H N2H 1_555 1_555
C8H O1H 1_555 1_555
C11H O1H 1_555 1_555
C12H N3H 1_555 1_555
C13H N3H 1_555 1_555
C14H N3H 1_555 1_555
C15H N4H 1_555 1_555
C17H C18H 1_555 1_555
C17H N4H 1_555 1_555
C19H O2H 1_555 1_555
C22H O2H 1_555 1_555

#END
