
#######################################################################
#
#                 Cambridge Crystallographic Data Centre
#                                CCDC 
#
#######################################################################
#
# If this CIF has been generated from an entry in the Cambridge 
# Structural Database, then it will include bibliographic, chemical, 
# crystal, experimental, refinement or atomic coordinate data resulting 
# from the CCDC's data processing and validation procedures.
#
#######################################################################

data_VORNAS
_chemical_formula_moiety         'C26 H19 Cl1 N2'
_chemical_name_systematic        
9-Chloro-1-methyl-7-phenyl-5,6-dihydro-13H-indolo[3,2-c]acridine
_symmetry_cell_setting           triclinic
_symmetry_space_group_name_H-M   'P -1'
_symmetry_Int_Tables_number      2
_space_group_name_Hall           '-P 1'
loop_
_symmetry_equiv_pos_site_id
_symmetry_equiv_pos_as_xyz
1 x,y,z
2 -x,-y,-z
_cell_length_a                   9.981(4)
_cell_length_b                   10.057(4)
_cell_length_c                   10.281(4)
_cell_angle_alpha                76.459(7)
_cell_angle_beta                 80.279(7)
_cell_angle_gamma                81.754(7)
_cell_volume                     983.074
_exptl_crystal_colour            yellow
_exptl_crystal_description       needle
_chemical_melting_point          '527-529 K'
_cell_formula_units_Z            2
_exptl_crystal_recrystallization_method ethanol
loop_
_atom_site_label
_atom_site_type_symbol
_atom_site_fract_x
_atom_site_fract_y
_atom_site_fract_z
C1 C 1.0539(2) 0.6878(2) 0.9185(2)
C2 C 1.1590(2) 0.6123(2) 0.8474(2)
H1 H 1.1628 0.6231 0.7546
C3 C 1.2550(2) 0.5237(2) 0.9125(2)
H2 H 1.3237 0.4741 0.8645
C4 C 1.2495(2) 0.5079(2) 1.0516(2)
C5 C 1.1507(2) 0.5793(2) 1.1249(2)
H3 H 1.1498 0.5674 1.2175
C6 C 1.04930(19) 0.6717(2) 1.05958(19)
C7 C 0.9424(2) 0.7498(2) 1.12968(19)
C8 C 0.8504(2) 0.8392(2) 1.0570(2)
C9 C 0.7306(2) 0.9240(2) 1.1197(2)
H4 H 0.7504 0.9349 1.2056
H5 H 0.6509 0.8741 1.1379
C10 C 0.6961(2) 1.0667(2) 1.0325(2)
H6 H 0.6064 1.1058 1.0675
H7 H 0.7625 1.1270 1.0357
C11 C 0.6973(2) 1.0559(2) 0.8900(2)
C12 C 0.6403(2) 1.1467(2) 0.7787(2)
C13 C 0.5656(2) 1.2770(2) 0.7608(2)
H8 H 0.5405 1.3216 0.8323
C14 C 0.5304(2) 1.3371(3) 0.6356(3)
H9 H 0.4825 1.4245 0.6219
C15 C 0.5649(2) 1.2703(3) 0.5283(3)
H10 H 0.5364 1.3135 0.4457
C16 C 0.6396(2) 1.1428(2) 0.5396(2)
C17 C 0.6786(2) 1.0840(2) 0.6669(2)
C18 C 0.7711(2) 0.9486(2) 0.8411(2)
C19 C 0.8654(2) 0.8472(2) 0.91467(19)
C20 C 0.6795(3) 1.0715(3) 0.4238(2)
H11 H 0.6358 1.1226 0.3482
H12 H 0.6512 0.9805 0.4503
H13 H 0.7769 1.0657 0.3987
C21 C 0.9294(2) 0.7292(2) 1.27990(19)
C22 C 0.8344(2) 0.6490(3) 1.3624(2)
H14 H 0.7773 0.6089 1.3236
C23 C 0.8222(3) 0.6269(3) 1.5009(2)
H15 H 0.7574 0.5723 1.5548
C24 C 0.9056(2) 0.6854(2) 1.5591(2)
H16 H 0.8983 0.6703 1.6527
C25 C 0.9988(3) 0.7656(3) 1.4794(2)
H17 H 1.0548 0.8065 1.5188
C26 C 1.0116(2) 0.7874(3) 1.3397(2)
H18 H 1.0767 0.8420 1.2864
Cl1 Cl 1.37259(6) 0.39220(7) 1.13247(6)
N1 N 0.96084(17) 0.77544(17) 0.84684(16)
N2 N 0.75957(17) 0.96338(17) 0.70665(17)
H19 H 0.7966 0.9069 0.6563
loop_
_geom_bond_atom_site_label_1
_geom_bond_atom_site_label_2
_geom_bond_site_symmetry_1
_geom_bond_site_symmetry_2
C1 C2 1_555 1_555
C2 H1 1_555 1_555
C3 C2 1_555 1_555
H2 C3 1_555 1_555
C4 C3 1_555 1_555
C5 C4 1_555 1_555
H3 C5 1_555 1_555
C6 C1 1_555 1_555
C7 C6 1_555 1_555
C8 C7 1_555 1_555
C9 C8 1_555 1_555
H4 C9 1_555 1_555
H5 C9 1_555 1_555
C10 C9 1_555 1_555
H6 C10 1_555 1_555
H7 C10 1_555 1_555
C11 C10 1_555 1_555
C12 C11 1_555 1_555
C13 C12 1_555 1_555
H8 C13 1_555 1_555
C14 C13 1_555 1_555
H9 C14 1_555 1_555
C15 C14 1_555 1_555
H10 C15 1_555 1_555
C16 C15 1_555 1_555
C17 C12 1_555 1_555
C18 C11 1_555 1_555
C19 C8 1_555 1_555
C20 C16 1_555 1_555
H11 C20 1_555 1_555
H12 C20 1_555 1_555
H13 C20 1_555 1_555
C21 C7 1_555 1_555
C22 C21 1_555 1_555
H14 C22 1_555 1_555
C23 C22 1_555 1_555
H15 C23 1_555 1_555
C24 C23 1_555 1_555
H16 C24 1_555 1_555
C25 C24 1_555 1_555
H17 C25 1_555 1_555
C26 C21 1_555 1_555
H18 C26 1_555 1_555
Cl1 C4 1_555 1_555
N1 C1 1_555 1_555
N2 C17 1_555 1_555
H19 N2 1_555 1_555
C5 C6 1_555 1_555
C16 C17 1_555 1_555
C18 C19 1_555 1_555
C18 N2 1_555 1_555
C19 N1 1_555 1_555
C25 C26 1_555 1_555

#END
