
#######################################################################
#
#                 Cambridge Crystallographic Data Centre
#                                CCDC 
#
#######################################################################
#
# If this CIF has been generated from an entry in the Cambridge 
# Structural Database, then it will include bibliographic, chemical, 
# crystal, experimental, refinement or atomic coordinate data resulting 
# from the CCDC's data processing and validation procedures.
#
#######################################################################

data_VOSRIG
_chemical_formula_moiety         'C20 H19 N5 O2,C1 H4 O1'
_chemical_name_systematic        
'methyl (2-(6-amino-5,7-dicyano-2-methyl-1,2,3,4-tetrahydroisoquinolin-8-yl)phenyl)carbamate methanol solvate'
_symmetry_cell_setting           monoclinic
_symmetry_space_group_name_H-M   'P 21/c'
_symmetry_Int_Tables_number      14
_space_group_name_Hall           '-P 2ybc'
loop_
_symmetry_equiv_pos_site_id
_symmetry_equiv_pos_as_xyz
1 x,y,z
2 -x,1/2+y,1/2-z
3 -x,-y,-z
4 x,1/2-y,1/2+z
_cell_length_a                   7.8442(3)
_cell_length_b                   18.3838(7)
_cell_length_c                   14.4096(5)
_cell_angle_alpha                90
_cell_angle_beta                 98.106(4)
_cell_angle_gamma                90
_cell_volume                     2057.19
_cell_formula_units_Z            4
loop_
_atom_site_label
_atom_site_type_symbol
_atom_site_fract_x
_atom_site_fract_y
_atom_site_fract_z
C1 C 0.8688(3) 0.76919(15) 0.28399(19)
H1 H 0.9313 0.8081 0.2598
H2 H 0.9459 0.7297 0.3031
H3 H 0.8184 0.7863 0.3369
C2 C 0.6011(3) 0.78934(11) 0.19228(14)
C3 C 0.2721(3) 0.85825(11) 0.10867(14)
H4 H 0.3578 0.8917 0.1297
C4 C 0.1038(3) 0.88096(12) 0.08657(15)
H5 H 0.0771 0.9298 0.0931
C5 C -0.0251(3) 0.83285(13) 0.05511(16)
H6 H -0.1387 0.8486 0.0420
C6 C 0.0160(3) 0.76083(12) 0.04319(14)
H7 H -0.0710 0.7281 0.0214
C7 C 0.1846(2) 0.73615(10) 0.06312(12)
C8 C 0.3137(2) 0.78500(10) 0.09950(13)
C9 C 0.3125(3) 0.70369(11) -0.10519(14)
C10 C 0.2780(2) 0.64464(9) -0.04580(12)
C11 C 0.3058(2) 0.57292(10) -0.07623(12)
C12 C 0.2695(2) 0.51645(9) -0.01588(12)
C13 C 0.2118(2) 0.53008(10) 0.07037(12)
C14 C 0.1898(2) 0.60143(10) 0.09927(12)
C15 C 0.2203(2) 0.65874(10) 0.04030(12)
C16 C 0.2999(2) 0.44272(11) -0.04194(13)
C17 C 0.1774(2) 0.46704(10) 0.13177(13)
H8 H 0.2842 0.4409 0.1501
H9 H 0.0974 0.4340 0.0957
C18 C 0.1039(3) 0.48944(11) 0.21931(14)
H10 H -0.0191 0.4973 0.2040
H11 H 0.1222 0.4508 0.2654
C19 C 0.1379(2) 0.61656(11) 0.19418(13)
H12 H 0.1936 0.6608 0.2196
H13 H 0.0144 0.6239 0.1878
C20 C 0.1364(3) 0.57219(13) 0.35051(14)
H14 H 0.0134 0.5768 0.3447
H15 H 0.1891 0.6169 0.3740
H16 H 0.1737 0.5334 0.3932
N1 N 0.4824(2) 0.75877(9) 0.12576(12)
H17 H 0.5126 0.7206 0.0976
N2 N 0.3424(3) 0.74915(11) -0.15444(14)
N3 N 0.3643(2) 0.56058(9) -0.15835(11)
H18 H 0.3810 0.5167 -0.1759
H19 H 0.3850 0.5965 -0.1933
N4 N 0.3287(2) 0.38458(10) -0.06287(14)
N5 N 0.1864(2) 0.55621(9) 0.25869(10)
O1 O 0.5901(2) 0.84784(8) 0.22828(12)
O2 O 0.73539(19) 0.74451(8) 0.21260(11)
C21 C 0.6111(4) 0.5856(2) 0.3612(4)
H20 H 0.6647 0.6262 0.3347
H21 H 0.6952 0.5604 0.4043
H22 H 0.5204 0.6029 0.3937
O3 O 0.5452(2) 0.53986(13) 0.29187(16)
H23 H 0.4444 0.5506 0.2740
loop_
_geom_bond_atom_site_label_1
_geom_bond_atom_site_label_2
_geom_bond_site_symmetry_1
_geom_bond_site_symmetry_2
C1 H1 1_555 1_555
H2 C1 1_555 1_555
H3 C1 1_555 1_555
C2 N1 1_555 1_555
C3 H4 1_555 1_555
C4 C3 1_555 1_555
H5 C4 1_555 1_555
C5 C4 1_555 1_555
H6 C5 1_555 1_555
C6 C5 1_555 1_555
H7 C6 1_555 1_555
C7 C6 1_555 1_555
C8 C3 1_555 1_555
C9 C10 1_555 1_555
C10 C11 1_555 1_555
C11 C12 1_555 1_555
C12 C13 1_555 1_555
C13 C14 1_555 1_555
C14 C15 1_555 1_555
C15 C7 1_555 1_555
C16 C12 1_555 1_555
C17 C13 1_555 1_555
H8 C17 1_555 1_555
H9 C17 1_555 1_555
C18 C17 1_555 1_555
H10 C18 1_555 1_555
H11 C18 1_555 1_555
C19 C14 1_555 1_555
H12 C19 1_555 1_555
H13 C19 1_555 1_555
C20 H14 1_555 1_555
H15 C20 1_555 1_555
H16 C20 1_555 1_555
N1 C8 1_555 1_555
H17 N1 1_555 1_555
N2 C9 1_555 1_555
N3 C11 1_555 1_555
H18 N3 1_555 1_555
H19 N3 1_555 1_555
N4 C16 1_555 1_555
N5 C18 1_555 1_555
O1 C2 1_555 1_555
O2 C1 1_555 1_555
C21 H20 1_555 1_555
H21 C21 1_555 1_555
H22 C21 1_555 1_555
O3 C21 1_555 1_555
H23 O3 1_555 1_555
C2 O2 1_555 1_555
C7 C8 1_555 1_555
C10 C15 1_555 1_555
C19 N5 1_555 1_555
C20 N5 1_555 1_555

#END
