
#######################################################################
#
#                 Cambridge Crystallographic Data Centre
#                                CCDC 
#
#######################################################################
#
# If this CIF has been generated from an entry in the Cambridge 
# Structural Database, then it will include bibliographic, chemical, 
# crystal, experimental, refinement or atomic coordinate data resulting 
# from the CCDC's data processing and validation procedures.
#
#######################################################################

data_VUBBUP
_chemical_formula_moiety         'C16 H44 N6 O2 6+,6(Cl1 1-),4(H2 O1)'
_chemical_name_systematic        
'1,13-Dioxa-4,7,10,16,19,22-hexa-azoniacyclotetraeicosane hexachloride tetrahydrate'
_symmetry_cell_setting           monoclinic
_symmetry_space_group_name_H-M   'P 21/c'
_symmetry_Int_Tables_number      14
_space_group_name_Hall           '-P 2ybc'
loop_
_symmetry_equiv_pos_site_id
_symmetry_equiv_pos_as_xyz
1 x,y,z
2 -x,1/2+y,1/2-z
3 -x,-y,-z
4 x,1/2-y,1/2+z
_cell_length_a                   22.178(5)
_cell_length_b                   10.759(3)
_cell_length_c                   12.924(3)
_cell_angle_alpha                90
_cell_angle_beta                 97.01(2)
_cell_angle_gamma                90
_cell_volume                     3060.78
_cell_formula_units_Z            4
loop_
_atom_site_label
_atom_site_type_symbol
_atom_site_fract_x
_atom_site_fract_y
_atom_site_fract_z
Cl1 Cl 0.11323(4) 0.10671(8) 0.84823(7)
Cl2 Cl 0.86282(4) 0.09041(8) 0.42577(7)
Cl3 Cl 0.22645(4) 0.10745(8) 0.39232(7)
Cl4 Cl 0.80278(4) 0.06548(8) 0.86874(7)
Cl5 Cl 0.38212(4) 0.03188(9) 0.56380(7)
Cl6 Cl 0.53635(5) 0.1663(1) 0.11486(9)
O1 O 0.9544(1) 0.0152(2) 0.6458(2)
C1 C 0.9846(2) -0.1020(3) 0.6563(3)
C2 C 0.9766(2) -0.1616(3) 0.5509(3)
N1 N 0.9105(1) -0.1717(3) 0.5132(2)
C3 C 0.8981(2) -0.2437(3) 0.4135(3)
C4 C 0.8335(2) -0.2330(3) 0.3653(3)
N2 N 0.7881(1) -0.2962(3) 0.4268(2)
C5 C 0.7263(2) -0.2777(3) 0.3748(3)
C6 C 0.6781(2) -0.3500(3) 0.4217(3)
N3 N 0.6649(1) -0.3036(3) 0.5256(2)
C7 C 0.6086(2) -0.3602(4) 0.5574(3)
C8 C 0.6010(2) -0.3275(4) 0.6678(3)
O2 O 0.5984(1) -0.1965(2) 0.6854(2)
C9 C 0.5401(2) -0.1430(4) 0.6504(3)
C10 C 0.5390(2) -0.0121(4) 0.6904(3)
N4 N 0.5852(1) 0.0686(3) 0.6492(2)
C11 C 0.6447(2) 0.0755(3) 0.7163(3)
C12 C 0.6842(2) 0.1820(4) 0.6891(3)
N5 N 0.7129(1) 0.1571(3) 0.5925(2)
C13 C 0.7573(2) 0.2548(3) 0.5674(3)
C14 C 0.8114(2) 0.2721(3) 0.6477(3)
N6 N 0.8511(1) 0.1596(3) 0.6604(2)
C15 C 0.9116(2) 0.1873(3) 0.7197(3)
C16 C 0.9467(2) 0.0707(4) 0.7435(3)
H1 H 0.9670 -0.1526 0.7048
H2 H 1.0265 -0.0904 0.6792
H3 H 0.9942 -0.2421 0.5552
H4 H 0.9959 -0.1123 0.5035
H5 H 0.8943 -0.0903 0.5020
H6 H 0.8908 -0.2121 0.5651
H7 H 0.9069 -0.3287 0.4276
H8 H 0.9237 -0.2130 0.3654
H9 H 0.8301 -0.2694 0.2978
H10 H 0.8233 -0.1472 0.3591
H11 H 0.7913 -0.2616 0.4948
H12 H 0.7967 -0.3826 0.4314
H13 H 0.7254 -0.3021 0.3039
H14 H 0.7167 -0.1918 0.3780
H15 H 0.6910 -0.4340 0.4294
H16 H 0.6415 -0.3460 0.3749
H17 H 0.6600 -0.2159 0.5220
H18 H 0.6982 -0.3236 0.5762
H19 H 0.6110 -0.4479 0.5512
H20 H 0.5745 -0.3304 0.5126
H21 H 0.6343 -0.3607 0.7123
H22 H 0.5643 -0.3638 0.6844
H23 H 0.5090 -0.1902 0.6764
H24 H 0.5336 -0.1426 0.5763
H25 H 0.5468 -0.0137 0.7642
H26 H 0.4998 0.0220 0.6700
H27 H 0.5690 0.1503 0.6414
H28 H 0.5921 0.0374 0.5830
H29 H 0.6659 0.0000 0.7091
H30 H 0.6371 0.0850 0.7867
H31 H 0.7153 0.1949 0.7453
H32 H 0.6599 0.2547 0.6787
H33 H 0.6815 0.1516 0.5355
H34 H 0.7337 0.0799 0.6007
H35 H 0.7362 0.3317 0.5592
H36 H 0.7715 0.2326 0.5035
H37 H 0.7975 0.2903 0.7127
H38 H 0.8346 0.3399 0.6271
H39 H 0.8570 0.1291 0.5933
H40 H 0.8315 0.0977 0.6968
H41 H 0.9058 0.2276 0.7831
H42 H 0.9336 0.2404 0.6792
H43 H 0.9851 0.0890 0.7812
H44 H 0.9249 0.0162 0.7833
O3 O 0.2514(1) 0.4396(2) 0.3547(2)
O4 O 0.2700(1) 0.5620(3) 0.1761(2)
O5 O 0.3811(1) 0.7736(3) 0.0626(3)
O6 O 0.9369(2) 0.3932(4) 0.5152(3)
loop_
_geom_bond_atom_site_label_1
_geom_bond_atom_site_label_2
_geom_bond_site_symmetry_1
_geom_bond_site_symmetry_2
O1 C1 1_555 1_555
C1 C2 1_555 1_555
C2 N1 1_555 1_555
N1 C3 1_555 1_555
C3 C4 1_555 1_555
C4 N2 1_555 1_555
N2 C5 1_555 1_555
C5 C6 1_555 1_555
C6 N3 1_555 1_555
N3 C7 1_555 1_555
C7 C8 1_555 1_555
C8 O2 1_555 1_555
O2 C9 1_555 1_555
C9 C10 1_555 1_555
C10 N4 1_555 1_555
N4 C11 1_555 1_555
C11 C12 1_555 1_555
C12 N5 1_555 1_555
N5 C13 1_555 1_555
C13 C14 1_555 1_555
C14 N6 1_555 1_555
N6 C15 1_555 1_555
C15 C16 1_555 1_555
C16 O1 1_555 1_555
H1 C1 1_555 1_555
H2 C1 1_555 1_555
H3 C2 1_555 1_555
H4 C2 1_555 1_555
H5 N1 1_555 1_555
H6 N1 1_555 1_555
H7 C3 1_555 1_555
H8 C3 1_555 1_555
H9 C4 1_555 1_555
H10 C4 1_555 1_555
H11 N2 1_555 1_555
H12 N2 1_555 1_555
H13 C5 1_555 1_555
H14 C5 1_555 1_555
H15 C6 1_555 1_555
H16 C6 1_555 1_555
H17 N3 1_555 1_555
H18 N3 1_555 1_555
H19 C7 1_555 1_555
H20 C7 1_555 1_555
H21 C8 1_555 1_555
H22 C8 1_555 1_555
H23 C9 1_555 1_555
H24 C9 1_555 1_555
H25 C10 1_555 1_555
H26 C10 1_555 1_555
H27 N4 1_555 1_555
H28 N4 1_555 1_555
H29 C11 1_555 1_555
H30 C11 1_555 1_555
H31 C12 1_555 1_555
H32 C12 1_555 1_555
H33 N5 1_555 1_555
H34 N5 1_555 1_555
H35 C13 1_555 1_555
H36 C13 1_555 1_555
H37 C14 1_555 1_555
H38 C14 1_555 1_555
H39 N6 1_555 1_555
H40 N6 1_555 1_555
H41 C15 1_555 1_555
H42 C15 1_555 1_555
H43 C16 1_555 1_555
H44 C16 1_555 1_555

#END
