
#######################################################################
#
#                 Cambridge Crystallographic Data Centre
#                                CCDC 
#
#######################################################################
#
# If this CIF has been generated from an entry in the Cambridge 
# Structural Database, then it will include bibliographic, chemical, 
# crystal, experimental, refinement or atomic coordinate data resulting 
# from the CCDC's data processing and validation procedures.
#
#######################################################################

data_VUCYEZ
_chemical_formula_moiety         'C27 H24 Cl2 N2 O4 S1'
_chemical_name_systematic        
'Methyl 1-(3,5-dichlorophenyl)-4-((4-methylphenyl)sulfonyl)-1,6,7,11b-tetrahydro-4H-pyridazino[6,1-a]isoquinoline-2-carboxylate'
_symmetry_cell_setting           monoclinic
_symmetry_space_group_name_H-M   'P 21'
_symmetry_Int_Tables_number      4
_space_group_name_Hall           'P 2yb'
loop_
_symmetry_equiv_pos_site_id
_symmetry_equiv_pos_as_xyz
1 x,y,z
2 -x,1/2+y,-z
_cell_length_a                   12.181(3)
_cell_length_b                   11.497(3)
_cell_length_c                   19.231(5)
_cell_angle_alpha                90
_cell_angle_beta                 108.349(3)
_cell_angle_gamma                90
_cell_volume                     2556.27
_exptl_crystal_colour            colorless
_exptl_crystal_description       block
_cell_formula_units_Z            4
loop_
_atom_site_label
_atom_site_type_symbol
_atom_site_fract_x
_atom_site_fract_y
_atom_site_fract_z
Cl1 Cl 0.66056(6) 0.70587(6) 0.53201(4)
Cl2 Cl 0.36674(6) 0.41629(8) 0.60318(5)
S1 S 0.80071(8) 0.07920(6) 0.86092(4)
O1 O 0.69641(19) 0.10527(19) 0.57443(12)
O2 O 0.80139(17) 0.26057(18) 0.56249(10)
O3 O 0.8767(2) 0.0945(2) 0.93324(12)
O4 O 0.7778(3) -0.0334(2) 0.82844(14)
N1 N 0.8560(2) 0.1532(2) 0.80440(13)
N2 N 0.89207(19) 0.2676(2) 0.82983(12)
C1 C 0.8195(2) 0.3580(2) 0.78330(14)
H1 H 0.7411 0.3489 0.7862
C2 C 0.8116(2) 0.3459(2) 0.70107(14)
H2 H 0.8835 0.3743 0.6945
C3 C 0.7961(2) 0.2188(2) 0.67997(14)
C4 C 0.8100(2) 0.1336(2) 0.72879(15)
H3 H 0.7885 0.0584 0.7122
C5 C 1.0162(2) 0.2820(3) 0.83882(16)
H4 H 1.0276 0.2886 0.7913
H5 H 1.0594 0.2152 0.8640
C6 C 1.0575(2) 0.3909(3) 0.88302(16)
H6 H 1.0671 0.3746 0.9341
H7 H 1.1327 0.4120 0.8795
C7 C 0.9769(2) 0.4929(2) 0.85879(14)
C8 C 1.0133(3) 0.6042(3) 0.88477(15)
H8 H 1.0893 0.6157 0.9142
C9 C 0.9382(3) 0.6977(3) 0.86746(15)
H9 H 0.9639 0.7715 0.8851
C10 C 0.8249(3) 0.6817(3) 0.82393(16)
H10 H 0.7742 0.7444 0.8119
C11 C 0.7876(2) 0.5714(2) 0.79839(15)
H11 H 0.7109 0.5604 0.7701
C12 C 0.8626(2) 0.4763(2) 0.81409(14)
C13 C 0.7110(2) 0.4169(2) 0.65365(14)
C14 C 0.7301(2) 0.5162(2) 0.61754(14)
H12 H 0.8050 0.5383 0.6207
C15 C 0.6364(2) 0.5817(2) 0.57690(14)
C16 C 0.5236(2) 0.5523(3) 0.57085(15)
H13 H 0.4615 0.5968 0.5432
C17 C 0.5073(2) 0.4540(3) 0.60767(16)
C18 C 0.5983(2) 0.3853(2) 0.64844(15)
H14 H 0.5843 0.3190 0.6720
C19 C 0.7581(2) 0.1864(2) 0.60134(14)
C20 C 0.7601(3) 0.2449(3) 0.48392(15)
H15 H 0.7649 0.1642 0.4725
H16 H 0.8068 0.2900 0.4620
H17 H 0.6811 0.2703 0.4651
C21 C 0.6711(3) 0.1509(3) 0.85266(16)
C22 C 0.6644(3) 0.2334(3) 0.90361(18)
H18 H 0.7302 0.2544 0.9416
C23 C 0.5592(9) 0.2842(12) 0.8975(8)
H19 H 0.5507 0.3331 0.9340
C24 C 0.4658(10) 0.2606(12) 0.8353(7)
C25 C 0.4729(10) 0.1831(12) 0.7822(9)
H20 H 0.4088 0.1672 0.7417
C26 C 0.5761(3) 0.1306(3) 0.79066(18)
H21 H 0.5836 0.0803 0.7546
C27 C 0.3530(10) 0.3183(17) 0.8280(8)
H22 H 0.3257 0.2940 0.8674
H23 H 0.2975 0.2968 0.7821
H24 H 0.3631 0.4011 0.8298
Cl3 Cl 0.28706(5) 0.30850(7) 0.03994(4)
Cl4 Cl 0.64915(7) 0.04269(7) 0.04088(5)
S2 S 1.05742(5) 0.35589(6) 0.35673(3)
O5 O 0.7027(2) 0.5030(3) 0.06069(13)
O6 O 0.88774(18) 0.4593(2) 0.07989(11)
O7 O 1.08117(16) 0.40903(18) 0.42689(10)
O8 O 1.13991(15) 0.35843(18) 0.31790(10)
N3 N 0.94060(17) 0.4218(2) 0.30086(12)
N4 N 0.84671(17) 0.42714(19) 0.32954(12)
C32 C 0.7430(2) 0.3693(2) 0.28019(13)
H32 H 0.7612 0.2867 0.2779
C33 C 0.7067(2) 0.4188(2) 0.20048(14)
H33 H 0.6670 0.4932 0.1995
C34 C 0.8136(2) 0.4393(2) 0.17816(14)
C35 C 0.9207(2) 0.4317(2) 0.22548(14)
H34 H 0.9835 0.4329 0.2078
C36 C 0.8252(2) 0.5502(2) 0.34321(15)
H35 H 0.7925 0.5908 0.2971
H36 H 0.8972 0.5880 0.3702
C37 C 0.7412(2) 0.5539(3) 0.38737(15)
H37 H 0.7825 0.5341 0.4379
H38 H 0.7120 0.6325 0.3866
C38 C 0.6403(2) 0.4715(2) 0.35859(14)
C39 C 0.5431(2) 0.4829(3) 0.38223(15)
H39 H 0.5389 0.5450 0.4122
C40 C 0.4536(2) 0.4036(3) 0.36188(16)
H40 H 0.3887 0.4136 0.3769
C41 C 0.4611(2) 0.3089(3) 0.31872(16)
H41 H 0.4025 0.2535 0.3063
C42 C 0.5559(2) 0.2970(3) 0.29420(15)
H42 H 0.5602 0.2338 0.2650
C43 C 0.6448(2) 0.3787(2) 0.31271(14)
C44 C 0.6251(2) 0.3356(2) 0.14741(14)
C45 C 0.5067(2) 0.3581(2) 0.12109(14)
H43 H 0.4763 0.4244 0.1358
C46 C 0.4349(2) 0.2803(2) 0.07267(15)
C47 C 0.4758(2) 0.1820(3) 0.04793(16)
H44 H 0.4263 0.1311 0.0151
C48 C 0.5939(2) 0.1623(3) 0.07422(16)
C49 C 0.6682(2) 0.2361(2) 0.12390(15)
H45 H 0.7468 0.2194 0.1416
C50 C 0.7939(2) 0.4709(3) 0.10083(15)
C51 C 0.8742(3) 0.4901(4) 0.00465(17)
H46 H 0.8160 0.4417 -0.0277
H47 H 0.9464 0.4789 -0.0048
H48 H 0.8514 0.5702 -0.0035
C52 C 1.0112(2) 0.2117(2) 0.36266(14)
C53 C 1.0127(3) 0.1674(3) 0.43001(16)
H49 H 1.0369 0.2134 0.4719
C54 C 0.9775(3) 0.0532(3) 0.43404(16)
H50 H 0.9790 0.0226 0.4791
C55 C 0.9401(2) -0.0157(3) 0.37192(16)
C56 C 0.9378(2) 0.0320(2) 0.30487(16)
H51 H 0.9112 -0.0129 0.2627
C57 C 0.9745(2) 0.1453(2) 0.29969(15)
H52 H 0.9743 0.1756 0.2548
C58 C 0.9070(3) -0.1412(3) 0.3776(2)
H53 H 0.9736 -0.1899 0.3844
H54 H 0.8477 -0.1634 0.3334
H55 H 0.8787 -0.1500 0.4186
H25? H 0.7213 0.2368 0.9491
H26? H 0.5739 0.0684 0.7594
C28? C 0.4835(16) 0.2100(16) 0.7782(13)
H27? H 0.4239 0.2029 0.7341
C29? C 0.4728(17) 0.298(2) 0.8256(10)
C30? C 0.5715(14) 0.3120(17) 0.8864(11)
H28? H 0.5758 0.3759 0.9168
C31? C 0.3646(18) 0.379(3) 0.8049(13)
H29? H 0.3538 0.4130 0.7576
H30? H 0.3758 0.4397 0.8408
H31? H 0.2975 0.3344 0.8037
loop_
_geom_bond_atom_site_label_1
_geom_bond_atom_site_label_2
_geom_bond_site_symmetry_1
_geom_bond_site_symmetry_2
Cl1 C15 1_555 1_555
Cl2 C17 1_555 1_555
S1 O3 1_555 1_555
O1 C19 1_555 1_555
O2 C19 1_555 1_555
O4 S1 1_555 1_555
N1 S1 1_555 1_555
N2 N1 1_555 1_555
C1 N2 1_555 1_555
H1 C1 1_555 1_555
C2 C1 1_555 1_555
H2 C2 1_555 1_555
C3 C2 1_555 1_555
C4 N1 1_555 1_555
H3 C4 1_555 1_555
C5 N2 1_555 1_555
H4 C5 1_555 1_555
H5 C5 1_555 1_555
C6 C5 1_555 1_555
H6 C6 1_555 1_555
H7 C6 1_555 1_555
C7 C6 1_555 1_555
C8 C7 1_555 1_555
H8 C8 1_555 1_555
C9 C8 1_555 1_555
H9 C9 1_555 1_555
C10 C9 1_555 1_555
H10 C10 1_555 1_555
C11 C10 1_555 1_555
H11 C11 1_555 1_555
C12 C1 1_555 1_555
C13 C2 1_555 1_555
C14 C13 1_555 1_555
H12 C14 1_555 1_555
C15 C14 1_555 1_555
C16 C15 1_555 1_555
H13 C16 1_555 1_555
C17 C16 1_555 1_555
C18 C13 1_555 1_555
H14 C18 1_555 1_555
C19 C3 1_555 1_555
C20 O2 1_555 1_555
H15 C20 1_555 1_555
H16 C20 1_555 1_555
H17 C20 1_555 1_555
C21 S1 1_555 1_555
C22 C21 1_555 1_555
H18 C22 1_555 1_555
C23 C22 1_555 1_555
H19 C23 1_555 1_555
C24 C23 1_555 1_555
C25 C24 1_555 1_555
H20 C25 1_555 1_555
C26 C21 1_555 1_555
H21 C26 1_555 1_555
C27 C24 1_555 1_555
H22 C27 1_555 1_555
H23 C27 1_555 1_555
H24 C27 1_555 1_555
Cl3 C46 1_555 1_555
Cl4 C48 1_555 1_555
S2 O7 1_555 1_555
O5 C50 1_555 1_555
O6 C50 1_555 1_555
O8 S2 1_555 1_555
N3 S2 1_555 1_555
N4 N3 1_555 1_555
C32 N4 1_555 1_555
H32 C32 1_555 1_555
C33 C32 1_555 1_555
H33 C33 1_555 1_555
C34 C33 1_555 1_555
C35 N3 1_555 1_555
H34 C35 1_555 1_555
C36 N4 1_555 1_555
H35 C36 1_555 1_555
H36 C36 1_555 1_555
C37 C36 1_555 1_555
H37 C37 1_555 1_555
H38 C37 1_555 1_555
C38 C37 1_555 1_555
C39 C38 1_555 1_555
H39 C39 1_555 1_555
C40 C39 1_555 1_555
H40 C40 1_555 1_555
C41 C40 1_555 1_555
H41 C41 1_555 1_555
C42 C41 1_555 1_555
H42 C42 1_555 1_555
C43 C32 1_555 1_555
C44 C33 1_555 1_555
C45 C44 1_555 1_555
H43 C45 1_555 1_555
C46 C45 1_555 1_555
C47 C46 1_555 1_555
H44 C47 1_555 1_555
C48 C47 1_555 1_555
C49 C44 1_555 1_555
H45 C49 1_555 1_555
C50 C34 1_555 1_555
C51 O6 1_555 1_555
H46 C51 1_555 1_555
H47 C51 1_555 1_555
H48 C51 1_555 1_555
C52 S2 1_555 1_555
C53 C52 1_555 1_555
H49 C53 1_555 1_555
C54 C53 1_555 1_555
H50 C54 1_555 1_555
C55 C54 1_555 1_555
C56 C55 1_555 1_555
H51 C56 1_555 1_555
C57 C52 1_555 1_555
H52 C57 1_555 1_555
C58 C55 1_555 1_555
H53 C58 1_555 1_555
H54 C58 1_555 1_555
H55 C58 1_555 1_555
C3 C4 1_555 1_555
C7 C12 1_555 1_555
C11 C12 1_555 1_555
C17 C18 1_555 1_555
C25 C26 1_555 1_555
C34 C35 1_555 1_555
C38 C43 1_555 1_555
C42 C43 1_555 1_555
C48 C49 1_555 1_555
C56 C57 1_555 1_555

#END
