
#######################################################################
#
#                 Cambridge Crystallographic Data Centre
#                                CCDC 
#
#######################################################################
#
# If this CIF has been generated from an entry in the Cambridge 
# Structural Database, then it will include bibliographic, chemical, 
# crystal, experimental, refinement or atomic coordinate data resulting 
# from the CCDC's data processing and validation procedures.
#
#######################################################################

data_VUFHUZ
_chemical_formula_moiety         'C20 H20 O4'
_chemical_name_systematic        
syn-9,18-Dimethoxy(3.3)metacyclophan-2,11-dione
_symmetry_cell_setting           triclinic
_symmetry_space_group_name_H-M   'P -1'
_symmetry_Int_Tables_number      2
_space_group_name_Hall           '-P 1'
loop_
_symmetry_equiv_pos_site_id
_symmetry_equiv_pos_as_xyz
1 x,y,z
2 -x,-y,-z
_cell_length_a                   8.709(1)
_cell_length_b                   12.782(1)
_cell_length_c                   15.087(1)
_cell_angle_alpha                78.91(1)
_cell_angle_beta                 83.91(1)
_cell_angle_gamma                89.72(1)
_cell_volume                     1638.59
_exptl_crystal_colour            colorless
_cell_formula_units_Z            4
loop_
_atom_site_label
_atom_site_type_symbol
_atom_site_fract_x
_atom_site_fract_y
_atom_site_fract_z
O1 O 0.3069(2) 0.2548(1) 0.3335(1)
O2 O 0.1279(3) 0.3669(2) 0.0223(1)
O3 O 0.1122(2) 0.4260(1) 0.3365(1)
O4 O 0.5902(3) 0.5694(2) 0.4043(2)
C1 C 0.5118(3) 0.3838(2) 0.2892(1)
C2 C 0.4022(2) 0.3184(2) 0.2650(2)
C3 C 0.3790(3) 0.3224(2) 0.1757(2)
C4 C 0.4816(3) 0.3829(2) 0.1084(2)
C5 C 0.5989(3) 0.4420(2) 0.1306(2)
C6 C 0.6103(3) 0.4444(2) 0.2204(2)
C7 C 0.2382(3) 0.2733(2) 0.1493(2)
C8 C 0.1358(3) 0.3565(2) 0.1021(2)
C9 C 0.0460(3) 0.4276(2) 0.1553(2)
C10 C 0.1409(2) 0.5135(2) 0.1805(2)
C11 C 0.1764(3) 0.5073(2) 0.2689(1)
C12 C 0.2820(3) 0.5761(2) 0.2909(2)
C13 C 0.3414(3) 0.6579(2) 0.2236(2)
C14 C 0.3004(3) 0.6710(2) 0.1371(2)
C15 C 0.2021(3) 0.5984(2) 0.1153(2)
C16 C 0.3361(3) 0.5601(3) 0.3844(2)
C17 C 0.4875(4) 0.5126(3) 0.3931(2)
C18 C 0.5125(3) 0.3971(2) 0.3862(2)
C19 C 0.3571(3) 0.1514(2) 0.3600(2)
C20 C -0.0236(3) 0.4558(2) 0.3852(2)
H1 H 0.4713 0.3836 0.0456
H2 H 0.6715 0.4816 0.0841
H3 H 0.6887 0.4880 0.2360
H4 H 0.1805 0.2347 0.2034
H5 H 0.2689 0.2235 0.1107
H6 H -0.0065 0.3855 0.2095
H7 H -0.0309 0.4617 0.1190
H8 H 0.4134 0.7070 0.2381
H9 H 0.3412 0.7304 0.0918
H10 H 0.1741 0.6068 0.0545
H11 H 0.2848 0.1129 0.4073
H12 H 0.3650 0.1165 0.3087
H13 H 0.4565 0.1531 0.3818
H14 H -0.0629 0.3963 0.4309
H15 H -0.0010 0.5142 0.4135
H16 H -0.0995 0.4770 0.3438
O5 O 0.3896(2) 1.0837(1) 0.6484(1)
O6 O 0.3866(3) 0.8886(2) 0.9722(1)
O7 O 0.2006(2) 0.9000(1) 0.6733(1)
O8 O -0.1002(2) 1.2397(2) 0.5763(1)
C21 C 0.2157(3) 1.2109(2) 0.6962(2)
C22 C 0.3227(2) 1.1319(2) 0.7175(1)
C23 C 0.3564(3) 1.0957(2) 0.8055(2)
C24 C 0.2928(3) 1.1499(2) 0.8717(2)
C25 C 0.1934(3) 1.2330(2) 0.8508(2)
C26 C 0.1528(3) 1.2610(2) 0.7645(2)
C27 C 0.4507(3) 0.9966(2) 0.8300(2)
C28 C 0.3656(3) 0.9076(2) 0.8942(2)
C29 C 0.2539(3) 0.8393(2) 0.8603(2)
C30 C 0.1159(3) 0.9026(2) 0.8288(2)
C31 C 0.0993(2) 0.9364(2) 0.7377(2)
C32 C -0.0082(3) 1.0128(2) 0.7090(1)
C33 C -0.1109(3) 1.0456(2) 0.7741(2)
C34 C -0.1049(3) 1.0054(2) 0.8650(2)
C35 C 0.0091(3) 0.9358(2) 0.8918(2)
C36 C -0.0014(3) 1.0665(2) 0.6101(2)
C37 C 0.0089(3) 1.1856(2) 0.5959(1)
C38 C 0.1608(3) 1.2375(2) 0.6033(2)
C39 C 0.5307(3) 1.1326(2) 0.6051(2)
C40 C 0.1462(3) 0.8126(2) 0.6421(2)
H17 H 0.3193 1.1286 0.9327
H18 H 0.1533 1.2707 0.8972
H19 H 0.0798 1.3168 0.7509
H20 H 0.5386 1.0161 0.8570
H21 H 0.4880 0.9728 0.7752
H22 H 0.2192 0.7799 0.9073
H23 H 0.3059 0.8122 0.8102
H24 H -0.1870 1.0974 0.7554
H25 H -0.1818 1.0248 0.9091
H26 H 0.0165 0.9102 0.9553
H27 H -0.0904 1.0458 0.5847
H28 H 0.0886 1.0418 0.5781
H29 H 0.2382 1.2163 0.5602
H30 H 0.1507 1.3134 0.5873
H31 H 0.5713 1.0963 0.5578
H32 H 0.5129 1.2058 0.5794
H33 H 0.6036 1.1292 0.6490
H34 H 0.2232 0.7930 0.5981
H35 H 0.1260 0.7537 0.6921
H36 H 0.0529 0.8309 0.6145
O9? O 0.3271(7) 0.4461(5) 0.5014(4)
C41? C 0.3863(10) 0.4687(7) 0.4229(5)
H37? H 0.2613 0.5159 0.4262
H38? H 0.3383 0.6282 0.4023
H39? H 0.6097 0.3745 0.4074
H40? H 0.4321 0.3534 0.4238
loop_
_geom_bond_atom_site_label_1
_geom_bond_atom_site_label_2
_geom_bond_site_symmetry_1
_geom_bond_site_symmetry_2
O1 C2 1_555 1_555
O2 C8 1_555 1_555
O3 C11 1_555 1_555
O4 C17 1_555 1_555
C1 C2 1_555 1_555
C2 C3 1_555 1_555
C3 C4 1_555 1_555
C4 C5 1_555 1_555
C5 C6 1_555 1_555
C6 C1 1_555 1_555
C7 C3 1_555 1_555
C8 C7 1_555 1_555
C9 C8 1_555 1_555
C10 C9 1_555 1_555
C11 C10 1_555 1_555
C12 C11 1_555 1_555
C13 C12 1_555 1_555
C14 C13 1_555 1_555
C15 C10 1_555 1_555
C16 C12 1_555 1_555
C17 C16 1_555 1_555
C18 C1 1_555 1_555
C19 O1 1_555 1_555
C20 O3 1_555 1_555
H1 C4 1_555 1_555
H2 C5 1_555 1_555
H3 C6 1_555 1_555
H4 C7 1_555 1_555
H5 C7 1_555 1_555
H6 C9 1_555 1_555
H7 C9 1_555 1_555
H8 C13 1_555 1_555
H9 C14 1_555 1_555
H10 C15 1_555 1_555
H11 C19 1_555 1_555
H12 C19 1_555 1_555
H13 C19 1_555 1_555
H14 C20 1_555 1_555
H15 C20 1_555 1_555
H16 C20 1_555 1_555
O5 C22 1_555 1_555
O6 C28 1_555 1_555
O7 C31 1_555 1_555
O8 C37 1_555 1_555
C21 C22 1_555 1_555
C22 C23 1_555 1_555
C23 C24 1_555 1_555
C24 C25 1_555 1_555
C25 C26 1_555 1_555
C26 C21 1_555 1_555
C27 C23 1_555 1_555
C28 C27 1_555 1_555
C29 C28 1_555 1_555
C30 C29 1_555 1_555
C31 C30 1_555 1_555
C32 C31 1_555 1_555
C33 C32 1_555 1_555
C34 C33 1_555 1_555
C35 C30 1_555 1_555
C36 C32 1_555 1_555
C37 C36 1_555 1_555
C38 C21 1_555 1_555
C39 O5 1_555 1_555
C40 O7 1_555 1_555
H17 C24 1_555 1_555
H18 C25 1_555 1_555
H19 C26 1_555 1_555
H20 C27 1_555 1_555
H21 C27 1_555 1_555
H22 C29 1_555 1_555
H23 C29 1_555 1_555
H24 C33 1_555 1_555
H25 C34 1_555 1_555
H26 C35 1_555 1_555
H27 C36 1_555 1_555
H28 C36 1_555 1_555
H29 C38 1_555 1_555
H30 C38 1_555 1_555
H31 C39 1_555 1_555
H32 C39 1_555 1_555
H33 C39 1_555 1_555
H34 C40 1_555 1_555
H35 C40 1_555 1_555
H36 C40 1_555 1_555
C14 C15 1_555 1_555
C17 C18 1_555 1_555
C34 C35 1_555 1_555
C37 C38 1_555 1_555

#END
