
#######################################################################
#
#                 Cambridge Crystallographic Data Centre
#                                CCDC 
#
#######################################################################
#
# If this CIF has been generated from an entry in the Cambridge 
# Structural Database, then it will include bibliographic, chemical, 
# crystal, experimental, refinement or atomic coordinate data resulting 
# from the CCDC's data processing and validation procedures.
#
#######################################################################

data_VUFHOV
_chemical_formula_moiety         'C11 H18 N2 O1 S1'
_chemical_name_systematic        
(1,3-diisopropyl-1H-imidazol-3-ium-2-yl)ethanethioate
_symmetry_cell_setting           monoclinic
_symmetry_space_group_name_H-M   'P 21/n'
_symmetry_Int_Tables_number      14
_space_group_name_Hall           '-P 2yn'
loop_
_symmetry_equiv_pos_site_id
_symmetry_equiv_pos_as_xyz
1 x,y,z
2 1/2-x,1/2+y,1/2-z
3 -x,-y,-z
4 1/2+x,1/2-y,1/2+z
_cell_length_a                   12.6450(3)
_cell_length_b                   15.1066(4)
_cell_length_c                   13.2140(2)
_cell_angle_alpha                90
_cell_angle_beta                 93.207(2)
_cell_angle_gamma                90
_cell_volume                     2520.22
_exptl_crystal_colour            colorless
_exptl_crystal_description       block
_cell_formula_units_Z            8
loop_
_atom_site_label
_atom_site_type_symbol
_atom_site_fract_x
_atom_site_fract_y
_atom_site_fract_z
S1 S 0.29752(5) 0.06989(5) 0.83171(6)
N1 N 0.18286(15) 0.16457(13) 0.58372(14)
O1 O 0.12224(14) -0.02219(12) 0.82876(15)
C1 C 0.15849(17) 0.17616(16) 0.68099(17)
C2 C 0.16925(18) 0.04509(16) 0.80357(17)
N2 N 0.19428(15) 0.25623(13) 0.70975(14)
C3 C 0.09988(18) 0.11265(16) 0.74137(17)
H1 H 0.0511 0.0801 0.6959
H2 H 0.0580 0.1457 0.7877
C4 C 0.19222(19) 0.29222(17) 0.81450(17)
H3 H 0.1731 0.2439 0.8595
C5 C 0.24154(19) 0.29625(17) 0.62991(18)
H4 H 0.2726 0.3521 0.6301
C6 C 0.1610(2) 0.08413(18) 0.52260(18)
H5 H 0.1352 0.0384 0.5676
C7 C 0.2341(2) 0.23943(17) 0.55215(18)
H6 H 0.2592 0.2487 0.4882
C8 C 0.3014(2) 0.32477(18) 0.84937(18)
H7 H 0.3515 0.2773 0.8454
H8 H 0.3005 0.3451 0.9182
H9 H 0.3216 0.3726 0.8067
C9 C 0.1081(2) 0.36317(18) 0.8184(2)
H10 H 0.0405 0.3388 0.7966
H11 H 0.1250 0.4111 0.7745
H12 H 0.1054 0.3846 0.8866
C10 C 0.2612(3) 0.0505(2) 0.4797(2)
H13 H 0.3130 0.0389 0.5340
H14 H 0.2882 0.0942 0.4351
H15 H 0.2464 -0.0032 0.4426
C11 C 0.0743(3) 0.1029(2) 0.4419(2)
H16 H 0.0123 0.1235 0.4734
H17 H 0.0578 0.0497 0.4047
H18 H 0.0979 0.1475 0.3966
S2 S 0.83164(6) 0.25570(5) 0.78548(5)
N3 N 0.66140(15) 0.38608(13) 0.62083(14)
N4 N 0.79690(15) 0.47044(13) 0.65536(15)
O2 O 0.8587(2) 0.16440(14) 0.62004(15)
C12 C 0.83567(19) 0.31774(16) 0.58749(18)
H19 H 0.9066 0.3408 0.5810
H20 H 0.8094 0.2980 0.5209
C13 C 0.76723(18) 0.39055(16) 0.62024(17)
C14 C 0.8426(2) 0.23664(17) 0.65930(19)
C15 C 0.6238(2) 0.46489(17) 0.65743(19)
H21 H 0.5532 0.4790 0.6660
C16 C 0.90486(19) 0.50777(18) 0.66646(19)
H22 H 0.9552 0.4614 0.6499
C17 C 0.59256(19) 0.31115(17) 0.58905(19)
H23 H 0.6369 0.2642 0.5627
C18 C 0.9288(2) 0.53553(19) 0.7753(2)
H24 H 0.9225 0.4852 0.8190
H25 H 0.8794 0.5804 0.7933
H26 H 0.9995 0.5586 0.7827
C19 C 0.7073(2) 0.51729(18) 0.6782(2)
H27 H 0.7055 0.5747 0.7035
C20 C 0.5372(2) 0.27492(18) 0.6788(2)
H28 H 0.5891 0.2561 0.7301
H29 H 0.4939 0.2254 0.6574
H30 H 0.4936 0.3202 0.7057
C21 C 0.5151(2) 0.3414(2) 0.50458(19)
H31 H 0.5535 0.3634 0.4492
H32 H 0.4711 0.3876 0.5291
H33 H 0.4716 0.2924 0.4819
C22 C 0.9142(2) 0.5830(2) 0.5911(2)
H34 H 0.8987 0.5612 0.5236
H35 H 0.9849 0.6063 0.5963
H36 H 0.8649 0.6289 0.6057
loop_
_geom_bond_atom_site_label_1
_geom_bond_atom_site_label_2
_geom_bond_site_symmetry_1
_geom_bond_site_symmetry_2
S1 C2 1_555 1_555
N1 C1 1_555 1_555
O1 C2 1_555 1_555
C1 N2 1_555 1_555
C2 C3 1_555 1_555
N2 C4 1_555 1_555
C3 C1 1_555 1_555
H1 C3 1_555 1_555
H2 C3 1_555 1_555
C4 H3 1_555 1_555
C5 N2 1_555 1_555
H4 C5 1_555 1_555
C6 N1 1_555 1_555
H5 C6 1_555 1_555
C7 N1 1_555 1_555
H6 C7 1_555 1_555
C8 C4 1_555 1_555
H7 C8 1_555 1_555
H8 C8 1_555 1_555
H9 C8 1_555 1_555
C9 C4 1_555 1_555
H10 C9 1_555 1_555
H11 C9 1_555 1_555
H12 C9 1_555 1_555
C10 C6 1_555 1_555
H13 C10 1_555 1_555
H14 C10 1_555 1_555
H15 C10 1_555 1_555
C11 C6 1_555 1_555
H16 C11 1_555 1_555
H17 C11 1_555 1_555
H18 C11 1_555 1_555
S2 C14 1_555 1_555
N3 C13 1_555 1_555
N4 C13 1_555 1_555
O2 C14 1_555 1_555
C12 H19 1_555 1_555
H20 C12 1_555 1_555
C13 C12 1_555 1_555
C14 C12 1_555 1_555
C15 N3 1_555 1_555
H21 C15 1_555 1_555
C16 N4 1_555 1_555
H22 C16 1_555 1_555
C17 N3 1_555 1_555
H23 C17 1_555 1_555
C18 C16 1_555 1_555
H24 C18 1_555 1_555
H25 C18 1_555 1_555
H26 C18 1_555 1_555
C19 N4 1_555 1_555
H27 C19 1_555 1_555
C20 C17 1_555 1_555
H28 C20 1_555 1_555
H29 C20 1_555 1_555
H30 C20 1_555 1_555
C21 C17 1_555 1_555
H31 C21 1_555 1_555
H32 C21 1_555 1_555
H33 C21 1_555 1_555
C22 C16 1_555 1_555
H34 C22 1_555 1_555
H35 C22 1_555 1_555
H36 C22 1_555 1_555
C5 C7 1_555 1_555
C15 C19 1_555 1_555

#END
