
#######################################################################
#
#                 Cambridge Crystallographic Data Centre
#                                CCDC 
#
#######################################################################
#
# If this CIF has been generated from an entry in the Cambridge 
# Structural Database, then it will include bibliographic, chemical, 
# crystal, experimental, refinement or atomic coordinate data resulting 
# from the CCDC's data processing and validation procedures.
#
#######################################################################

data_VUFJAJ
_chemical_formula_moiety         'C11 H18 N2 S2'
_chemical_name_systematic        
(1,3-diisopropyl-1H-imidazol-3-ium-2-yl)ethane(dithioate)
_symmetry_cell_setting           monoclinic
_symmetry_space_group_name_H-M   'P 21/n'
_symmetry_Int_Tables_number      14
_space_group_name_Hall           '-P 2yn'
loop_
_symmetry_equiv_pos_site_id
_symmetry_equiv_pos_as_xyz
1 x,y,z
2 1/2-x,1/2+y,1/2-z
3 -x,-y,-z
4 1/2+x,1/2-y,1/2+z
_cell_length_a                   7.9953(12)
_cell_length_b                   15.115(2)
_cell_length_c                   11.4875(17)
_cell_angle_alpha                90
_cell_angle_beta                 107.186(5)
_cell_angle_gamma                90
_cell_volume                     1326.27
_exptl_crystal_colour            yellow
_exptl_crystal_description       block
_cell_formula_units_Z            4
loop_
_atom_site_label
_atom_site_type_symbol
_atom_site_fract_x
_atom_site_fract_y
_atom_site_fract_z
S1 S 0.21769(8) 0.18308(4) 0.83904(5)
S2 S -0.10464(7) 0.08193(4) 0.71854(7)
C1 C 0.1256(2) 0.28774(11) 0.60222(14)
C2 C 0.0366(2) 0.16423(11) 0.72586(15)
N1 N 0.16297(19) 0.36911(9) 0.64776(13)
N2 N 0.23090(18) 0.27080(9) 0.53331(12)
C3 C -0.0138(2) 0.22876(12) 0.61841(15)
H1 H -0.0590 0.1946 0.5443
H2 H -0.1088 0.2655 0.6272
C4 C 0.3343(2) 0.34367(12) 0.53431(16)
H3 H 0.4177 0.3495 0.4929
C5 C 0.2401(3) 0.18650(12) 0.46939(18)
H4 H 0.1659 0.1430 0.4937
C6 C 0.2931(2) 0.40478(12) 0.60576(17)
H5 H 0.3428 0.4607 0.6236
C7 C 0.0812(3) 0.41341(13) 0.73160(19)
H6 H 0.0181 0.3685 0.7636
C8 C 0.2213(3) 0.45235(16) 0.8378(2)
H7 H 0.2995 0.4064 0.8786
H8 H 0.1677 0.4791 0.8937
H9 H 0.2856 0.4963 0.8085
C9 C 0.1694(3) 0.19988(18) 0.3328(2)
H10 H 0.0511 0.2211 0.3126
H11 H 0.1718 0.1446 0.2920
H12 H 0.2405 0.2424 0.3071
C10 C 0.4261(3) 0.15255(16) 0.5086(2)
H13 H 0.4643 0.1450 0.5954
H14 H 0.5009 0.1943 0.4854
H15 H 0.4312 0.0968 0.4698
C11 C -0.0506(4) 0.48022(19) 0.6616(3)
H16 H -0.1358 0.4511 0.5961
H17 H 0.0082 0.5250 0.6291
H18 H -0.1081 0.5071 0.7152
loop_
_geom_bond_atom_site_label_1
_geom_bond_atom_site_label_2
_geom_bond_site_symmetry_1
_geom_bond_site_symmetry_2
S1 C2 1_555 1_555
S2 C2 1_555 1_555
C1 N1 1_555 1_555
C2 C3 1_555 1_555
N1 C6 1_555 1_555
N2 C1 1_555 1_555
C3 C1 1_555 1_555
H1 C3 1_555 1_555
H2 C3 1_555 1_555
C4 N2 1_555 1_555
H3 C4 1_555 1_555
C5 N2 1_555 1_555
H4 C5 1_555 1_555
C6 C4 1_555 1_555
H5 C6 1_555 1_555
C7 N1 1_555 1_555
H6 C7 1_555 1_555
C8 C7 1_555 1_555
H7 C8 1_555 1_555
H8 C8 1_555 1_555
H9 C8 1_555 1_555
C9 C5 1_555 1_555
H10 C9 1_555 1_555
H11 C9 1_555 1_555
H12 C9 1_555 1_555
C10 C5 1_555 1_555
H13 C10 1_555 1_555
H14 C10 1_555 1_555
H15 C10 1_555 1_555
C11 C7 1_555 1_555
H16 C11 1_555 1_555
H17 C11 1_555 1_555
H18 C11 1_555 1_555

#END
