
#######################################################################
#
#                 Cambridge Crystallographic Data Centre
#                                CCDC 
#
#######################################################################
#
# If this CIF has been generated from an entry in the Cambridge 
# Structural Database, then it will include bibliographic, chemical, 
# crystal, experimental, refinement or atomic coordinate data resulting 
# from the CCDC's data processing and validation procedures.
#
#######################################################################

data_VUFLUD01
_chemical_formula_moiety         'C4 H16 B10 O1'
_chemical_name_systematic        
1-Methoxymethyl-1,2-dicarba-closo-dodecaborane(11)
_symmetry_cell_setting           monoclinic
_symmetry_space_group_name_H-M   'P 21/c'
_symmetry_Int_Tables_number      14
_space_group_name_Hall           '-P 2ybc'
loop_
_symmetry_equiv_pos_site_id
_symmetry_equiv_pos_as_xyz
1 x,y,z
2 -x,1/2+y,1/2-z
3 -x,-y,-z
4 x,1/2-y,1/2+z
_cell_length_a                   14.2526(8)
_cell_length_b                   11.3858(12)
_cell_length_c                   14.4510(10)
_cell_angle_alpha                90
_cell_angle_beta                 91.760(5)
_cell_angle_gamma                90
_cell_volume                     2343.96
_exptl_crystal_colour            colorless
_exptl_crystal_description       block
_chemical_melting_point          '68-70 deg.C'
_cell_formula_units_Z            8
_exptl_crystal_recrystallization_method toluene
loop_
_atom_site_label
_atom_site_type_symbol
_atom_site_fract_x
_atom_site_fract_y
_atom_site_fract_z
O1 O 0.69866(19) 0.5952(2) 0.11513(18)
C1 C 0.7997(2) 0.6746(2) 0.2311(2)
C2 C 0.8602(3) 0.5545(3) 0.2314(2)
H1 H 0.8494 0.4885 0.1765
C3 C 0.7277(3) 0.6955(4) 0.1531(3)
H2 H 0.6743 0.7372 0.1771
H3 H 0.7552 0.7443 0.1061
C4 C 0.6335(3) 0.6102(4) 0.0393(3)
H4 H 0.5707 0.6084 0.0615
H5 H 0.6413 0.5479 -0.0046
H6 H 0.6445 0.6843 0.0099
B1 B 0.9123(3) 0.6857(4) 0.2061(3)
H7 H 0.9379 0.7095 0.1375
B2 B 0.8600(3) 0.7877(3) 0.2783(3)
H8 H 0.8504 0.8800 0.2577
B3 B 0.7773(3) 0.7123(4) 0.3415(4)
H9 H 0.7119 0.7549 0.3621
B4 B 0.7786(3) 0.5684(4) 0.3099(3)
H10 H 0.7140 0.5155 0.3091
B5 B 0.9687(3) 0.5814(4) 0.2757(4)
H11 H 1.0320 0.5360 0.2524
B6 B 0.9689(3) 0.7310(4) 0.3087(4)
H12 H 1.0326 0.7854 0.3083
B7 B 0.8841(4) 0.7473(4) 0.3934(3)
H13 H 0.8905 0.8131 0.4490
B8 B 0.8355(4) 0.6089(5) 0.4128(3)
H14 H 0.8104 0.5823 0.4808
B9 B 0.8874(3) 0.5093(4) 0.3409(3)
H15 H 0.8973 0.4167 0.3608
B10 B 0.9533(4) 0.6220(4) 0.3930(3)
H16 H 1.0068 0.6056 0.4479
O2 O 0.79966(19) 0.3579(2) 0.0349(2)
C5 C 0.70412(19) 0.2070(2) 0.09022(19)
C6 C 0.6513(2) 0.3073(3) 0.15140(19)
H17 H 0.6733 0.3998 0.1488
C7 C 0.7832(2) 0.2426(3) 0.0287(3)
H18 H 0.8396 0.1998 0.0469
H19 H 0.7669 0.2224 -0.0350
C8 C 0.8678(2) 0.3959(4) -0.02833(19)
H20 H 0.9245 0.3515 -0.0185
H21 H 0.8807 0.4778 -0.0186
H22 H 0.8442 0.3840 -0.0906
B11 B 0.59561(19) 0.2512(3) 0.05520(19)
H23 H 0.5795 0.3009 -0.0086
B12 B 0.6288(3) 0.1024(3) 0.0537(3)
H24 H 0.6339 0.0535 -0.0117
B13 B 0.7076(3) 0.0780(3) 0.1479(3)
H25 H 0.7647 0.0134 0.1435
B14 B 0.7233(3) 0.2113(4) 0.2102(2)
H26 H 0.7901 0.2349 0.2455
B15 B 0.5373(2) 0.2775(4) 0.1591(3)
H27 H 0.4816 0.3440 0.1626
B16 B 0.5219(3) 0.1438(4) 0.0980(3)
H28 H 0.4552 0.1218 0.0617
B17 B 0.5905(3) 0.0365(4) 0.1560(3)
H29 H 0.5691 -0.0563 0.1576
B18 B 0.6485(3) 0.1043(4) 0.2528(3)
H30 H 0.6655 0.0560 0.3171
B19 B 0.6159(3) 0.2525(4) 0.2545(3)
H31 H 0.6118 0.3030 0.3191
B20 B 0.5348(3) 0.1439(4) 0.2223(3)
H32 H 0.4765 0.1213 0.2671
loop_
_geom_bond_atom_site_label_1
_geom_bond_atom_site_label_2
_geom_bond_site_symmetry_1
_geom_bond_site_symmetry_2
O1 C3 1_555 1_555
C1 C2 1_555 1_555
C2 H1 1_555 1_555
C3 C1 1_555 1_555
H2 C3 1_555 1_555
H3 C3 1_555 1_555
C4 O1 1_555 1_555
H4 C4 1_555 1_555
H5 C4 1_555 1_555
H6 C4 1_555 1_555
B1 C1 1_555 1_555
H7 B1 1_555 1_555
B2 C1 1_555 1_555
H8 B2 1_555 1_555
B3 C1 1_555 1_555
H9 B3 1_555 1_555
B4 C1 1_555 1_555
H10 B4 1_555 1_555
B5 C2 1_555 1_555
H11 B5 1_555 1_555
B6 B1 1_555 1_555
H12 B6 1_555 1_555
B7 B2 1_555 1_555
H13 B7 1_555 1_555
B8 B3 1_555 1_555
H14 B8 1_555 1_555
B9 C2 1_555 1_555
H15 B9 1_555 1_555
B10 B5 1_555 1_555
H16 B10 1_555 1_555
O2 C7 1_555 1_555
C5 C6 1_555 1_555
C6 H17 1_555 1_555
C7 C5 1_555 1_555
H18 C7 1_555 1_555
H19 C7 1_555 1_555
C8 O2 1_555 1_555
H20 C8 1_555 1_555
H21 C8 1_555 1_555
H22 C8 1_555 1_555
B11 C5 1_555 1_555
H23 B11 1_555 1_555
B12 C5 1_555 1_555
H24 B12 1_555 1_555
B13 C5 1_555 1_555
H25 B13 1_555 1_555
B14 C5 1_555 1_555
H26 B14 1_555 1_555
B15 C6 1_555 1_555
H27 B15 1_555 1_555
B16 B11 1_555 1_555
H28 B16 1_555 1_555
B17 B12 1_555 1_555
H29 B17 1_555 1_555
B18 B13 1_555 1_555
H30 B18 1_555 1_555
B19 C6 1_555 1_555
H31 B19 1_555 1_555
B20 B15 1_555 1_555
H32 B20 1_555 1_555
C2 B1 1_555 1_555
C2 B4 1_555 1_555
B1 B2 1_555 1_555
B1 B5 1_555 1_555
B2 B3 1_555 1_555
B2 B6 1_555 1_555
B3 B4 1_555 1_555
B3 B7 1_555 1_555
B4 B8 1_555 1_555
B4 B9 1_555 1_555
B5 B6 1_555 1_555
B5 B9 1_555 1_555
B6 B7 1_555 1_555
B6 B10 1_555 1_555
B7 B8 1_555 1_555
B7 B10 1_555 1_555
B8 B9 1_555 1_555
B8 B10 1_555 1_555
B9 B10 1_555 1_555
C6 B11 1_555 1_555
C6 B14 1_555 1_555
B11 B12 1_555 1_555
B11 B15 1_555 1_555
B12 B13 1_555 1_555
B12 B16 1_555 1_555
B13 B14 1_555 1_555
B13 B17 1_555 1_555
B14 B18 1_555 1_555
B14 B19 1_555 1_555
B15 B16 1_555 1_555
B15 B19 1_555 1_555
B16 B17 1_555 1_555
B16 B20 1_555 1_555
B17 B18 1_555 1_555
B17 B20 1_555 1_555
B18 B19 1_555 1_555
B18 B20 1_555 1_555
B19 B20 1_555 1_555

#END
