
#######################################################################
#
#                 Cambridge Crystallographic Data Centre
#                                CCDC 
#
#######################################################################
#
# If this CIF has been generated from an entry in the Cambridge 
# Structural Database, then it will include bibliographic, chemical, 
# crystal, experimental, refinement or atomic coordinate data resulting 
# from the CCDC's data processing and validation procedures.
#
#######################################################################

data_VUGHUA
_chemical_formula_moiety         'C48 H32 Cl6 O12'
_chemical_name_systematic        'D-Glucitol hexakis(p-chlorobenzoate)'
_symmetry_cell_setting           monoclinic
_symmetry_space_group_name_H-M   'P 21'
_symmetry_Int_Tables_number      4
_space_group_name_Hall           'P 2yb'
loop_
_symmetry_equiv_pos_site_id
_symmetry_equiv_pos_as_xyz
1 x,y,z
2 -x,1/2+y,-z
_cell_length_a                   11.402(3)
_cell_length_b                   15.194(4)
_cell_length_c                   13.815(4)
_cell_angle_alpha                90
_cell_angle_beta                 101.75(2)
_cell_angle_gamma                90
_cell_volume                     2343.19
_cell_formula_units_Z            2
loop_
_atom_site_label
_atom_site_type_symbol
_atom_site_fract_x
_atom_site_fract_y
_atom_site_fract_z
Cl1 Cl -1.1991(4) -0.9702(3) -1.0701(3)
Cl2 Cl -1.2355(3) -0.7461(3) -1.7763(2)
Cl3 Cl -0.8680(3) -1.0283(2) -1.0819(2)
Cl4 Cl -0.8946(4) -0.7500(3) -1.8014(2)
Cl5 Cl -0.4472(3) -0.2376 -0.7096(2)
Cl6 Cl -0.5169(4) 0.0202(3) -1.4587(2)
O1 O -1.0704(7) -0.5649(6) -1.1791(5)
O2 O -0.9995(6) -0.5353(5) -1.3641(5)
O3 O -0.8385(6) -0.6091(4) -1.2199(4)
O4 O -0.7450(6) -0.5425(4) -1.3728(4)
O5 O -0.5965(6) -0.4517(4) -1.1387(5)
O6 O -0.5246(6) -0.3992(5) -1.3210(5)
O7 O -1.2295(7) -0.5842(6) -1.3049(6)
O8 O -1.1111(8) -0.4221(5) -1.4387(6)
O9 O -0.7391(8) -0.6002(5) -1.0601(5)
O10 O -0.8153(8) -0.4266(5) -1.4681(5)
O11 O -0.4624(7) -0.5472(5) -1.0552(5)
O12 O -0.3905(8) -0.3467(6) -1.1900(6)
C1 C -1.0455(10) -0.4776(7) -1.2136(9)
C2 C -0.9553(9) -0.4796(7) -1.2765(7)
C3 C -0.8307(10) -0.5145(6) -1.2290(8)
C4 C -0.7325(9) -0.4893(6) -1.2831(7)
C5 C -0.6076(10) -0.5083(7) -1.2243(7)
C6 C -0.5089(10) -0.4875(7) -1.2804(8)
C7 C -1.1657(10) -0.6131(10) -1.2332(10)
C8 C -1.1709(10) -0.7015(8) -1.1894(10)
C9 C -1.2296(10) -0.7659(9) -1.2509(10)
C10 C -1.2371(10) -0.8496(10) -1.2140(10)
C11 C -1.1846(20) -0.8667(10) -1.1179(10)
C12 C -1.1278(10) -0.8011(10) -1.0572(10)
C13 C -1.1151(10) -0.7198(10) -1.0917(10)
C14 C -1.0804(10) -0.4965(7) -1.4389(8)
C15 C -1.1207(10) -0.5628(8) -1.5201(8)
C16 C -1.1861(10) -0.5295(9) -1.6075(8)
C17 C -1.2205(10) -0.5879(9) -1.6849(9)
C18 C -1.1944(10) -0.6767(9) -1.6755(9)
C19 C -1.1284(10) -0.7092(9) -1.5891(9)
C20 C -1.0935(10) -0.6508(8) -1.5095(9)
C21 C -0.7935(10) -0.6425(7) -1.1284(8)
C22 C -0.8145(10) -0.7390(8) -1.1212(8)
C23 C -0.7774(10) -0.7786(8) -1.0306(8)
C24 C -0.7936(10) -0.8675(8) -1.0193(8)
C25 C -0.8493(10) -0.9154(7) -1.0994(8)
C26 C -0.8918(10) -0.8775(8) -1.1905(8)
C27 C -0.8741(10) -0.7890(8) -1.2027(8)
C28 C -0.7923(10) -0.5030(7) -1.4601(8)
C29 C -0.8072(10) -0.5671(8) -1.5421(8)
C30 C -0.8586(10) -0.5349(9) -1.6344(8)
C31 C -0.8829(10) -0.5918(10) -1.7145(9)
C32 C -0.8614(10) -0.6789(10) -1.7011(8)
C33 C -0.8131(10) -0.7148(8) -1.6102(9)
C34 C -0.7849(10) -0.6560(8) -1.5288(8)
C35 C -0.5172(10) -0.4786(8) -1.0568(8)
C36 C -0.5040(10) -0.4160(8) -0.9709(8)
C37 C -0.4533(10) -0.4479(8) -0.8793(8)
C38 C -0.4351(10) -0.3936(9) -0.7985(9)
C39 C -0.4708(10) -0.3054(9) -0.8121(8)
C40 C -0.5229(10) -0.2729(8) -0.9038(8)
C41 C -0.5404(10) -0.3285(8) -0.9839(9)
C42 C -0.4594(10) -0.3349(8) -1.2698(9)
C43 C -0.4778(10) -0.2489(9) -1.3179(9)
C44 C -0.4321(10) -0.1754(9) -1.2662(10)
C45 C -0.4424(10) -0.0915(9) -1.3084(10)
C46 C -0.5018(10) -0.0825(8) -1.4055(10)
C47 C -0.5530(10) -0.1557(10) -1.4554(9)
C48 C -0.5420(10) -0.2381(9) -1.4153(9)
loop_
_geom_bond_atom_site_label_1
_geom_bond_atom_site_label_2
_geom_bond_site_symmetry_1
_geom_bond_site_symmetry_2
Cl1 C11 1_555 1_555
Cl2 C18 1_555 1_555
Cl3 C25 1_555 1_555
Cl4 C32 1_555 1_555
Cl5 C39 1_555 1_555
Cl6 C46 1_555 1_555
O1 C1 1_555 1_555
O2 C2 1_555 1_555
O3 C3 1_555 1_555
O4 C4 1_555 1_555
O5 C5 1_555 1_555
O6 C6 1_555 1_555
O7 C7 1_555 1_555
O8 C14 1_555 1_555
O9 C21 1_555 1_555
O10 C28 1_555 1_555
O11 C35 1_555 1_555
O12 C42 1_555 1_555
C1 C2 1_555 1_555
C2 C3 1_555 1_555
C3 C4 1_555 1_555
C4 C5 1_555 1_555
C5 C6 1_555 1_555
C7 O1 1_555 1_555
C8 C7 1_555 1_555
C9 C8 1_555 1_555
C10 C9 1_555 1_555
C11 C10 1_555 1_555
C12 C11 1_555 1_555
C13 C8 1_555 1_555
C14 O2 1_555 1_555
C15 C14 1_555 1_555
C16 C15 1_555 1_555
C17 C16 1_555 1_555
C18 C17 1_555 1_555
C19 C18 1_555 1_555
C20 C15 1_555 1_555
C21 O3 1_555 1_555
C22 C21 1_555 1_555
C23 C22 1_555 1_555
C24 C23 1_555 1_555
C25 C24 1_555 1_555
C26 C25 1_555 1_555
C27 C22 1_555 1_555
C28 O4 1_555 1_555
C29 C28 1_555 1_555
C30 C29 1_555 1_555
C31 C30 1_555 1_555
C32 C31 1_555 1_555
C33 C32 1_555 1_555
C34 C29 1_555 1_555
C35 O5 1_555 1_555
C36 C35 1_555 1_555
C37 C36 1_555 1_555
C38 C37 1_555 1_555
C39 C38 1_555 1_555
C40 C39 1_555 1_555
C41 C36 1_555 1_555
C42 O6 1_555 1_555
C43 C42 1_555 1_555
C44 C43 1_555 1_555
C45 C44 1_555 1_555
C46 C45 1_555 1_555
C47 C46 1_555 1_555
C48 C43 1_555 1_555
C12 C13 1_555 1_555
C19 C20 1_555 1_555
C26 C27 1_555 1_555
C33 C34 1_555 1_555
C40 C41 1_555 1_555
C47 C48 1_555 1_555

#END
