
#######################################################################
#
#                 Cambridge Crystallographic Data Centre
#                                CCDC 
#
#######################################################################
#
# If this CIF has been generated from an entry in the Cambridge 
# Structural Database, then it will include bibliographic, chemical, 
# crystal, experimental, refinement or atomic coordinate data resulting 
# from the CCDC's data processing and validation procedures.
#
#######################################################################

data_VUJBEH
_chemical_compound_source        'Aerial parts of Siphonostegia chinensis'
_chemical_formula_moiety         'C11 H16 O4'
_chemical_name_systematic        Siphonostegiol
_chemical_properties_biological  
'source plant used in traditional Chinese medicine with activity against hepatitis, dysuria and wounds'
_symmetry_cell_setting           monoclinic
_symmetry_space_group_name_H-M   'P 21'
_symmetry_Int_Tables_number      4
_space_group_name_Hall           'P 2yb'
loop_
_symmetry_equiv_pos_site_id
_symmetry_equiv_pos_as_xyz
1 x,y,z
2 -x,1/2+y,-z
_cell_length_a                   6.803(2)
_cell_length_b                   16.924(7)
_cell_length_c                   9.303(3)
_cell_angle_alpha                90
_cell_angle_beta                 90.34(3)
_cell_angle_gamma                90
_cell_volume                     1071.07
_chemical_melting_point          84-85deg.C
_cell_formula_units_Z            4
loop_
_atom_site_label
_atom_site_type_symbol
_atom_site_fract_x
_atom_site_fract_y
_atom_site_fract_z
C1 C 0.6485(6) 0.3791(3) 0.5192(4)
C2 C 0.4968(8) 0.4262(3) 0.4855(6)
C3 C 0.3956(7) 0.4325(3) 0.7257(5)
C4 C 0.4779(6) 0.3505(3) 0.7505(4)
C5 C 0.5486(6) 0.3390(3) 0.9055(4)
C6 C 0.7513(6) 0.3775(3) 0.9106(4)
C7 C 0.8347(6) 0.3684(3) 0.7583(4)
C8 C 0.6648(5) 0.3390(3) 0.6619(4)
C9 C 0.7969(7) 0.3667(3) 0.4078(5)
C10 C 1.0942(7) 0.3040(4) 0.3514(5)
C11 C 0.4103(7) 0.3677(3) 1.0231(5)
O1 O 0.3516(5) 0.4463(2) 0.5748(4)
O2 O 0.8808(4) 0.3410(3) 1.0115(3)
O3 O 0.7963(5) 0.3973(2) 0.2894(3)
O4 O 0.9364(4) 0.3172(2) 0.4499(3)
C12 C 0.1493(7) 0.1141(3) 1.0664(4)
C13 C -0.0063(7) 0.0713(3) 1.1033(5)
C14 C -0.1075(7) 0.0565(3) 0.8650(5)
C15 C -0.0201(6) 0.1368(3) 0.8321(4)
C16 C 0.0473(6) 0.1453(3) 0.6762(4)
C17 C 0.2517(6) 0.1080(3) 0.6734(4)
C18 C 0.3321(6) 0.1127(3) 0.8268(4)
C19 C 0.1692(6) 0.1485(3) 0.9183(4)
C20 C 0.2960(7) 0.1276(3) 1.1777(4)
C21 C 0.5965(7) 0.1897(4) 1.2366(5)
C22 C -0.0920(7) 0.1135(4) 0.5603(5)
O5 O -0.1517(5) 0.0482(2) 1.0160(3)
O6 O 0.3823(4) 0.1482(3) 0.5778(3)
O7 O 0.2924(5) 0.0995(2) 1.2981(3)
O8 O 0.4401(5) 0.1748(2) 1.1345(3)
loop_
_geom_bond_atom_site_label_1
_geom_bond_atom_site_label_2
_geom_bond_site_symmetry_1
_geom_bond_site_symmetry_2
C1 C2 1_555 1_555
C2 O1 1_555 1_555
C3 C4 1_555 1_555
C4 C5 1_555 1_555
C5 C6 1_555 1_555
C6 C7 1_555 1_555
C7 C8 1_555 1_555
C8 C1 1_555 1_555
C9 C1 1_555 1_555
C10 O4 1_555 1_555
C11 C5 1_555 1_555
O1 C3 1_555 1_555
O2 C6 1_555 1_555
O3 C9 1_555 1_555
O4 C9 1_555 1_555
C12 C13 1_555 1_555
C13 O5 1_555 1_555
C14 C15 1_555 1_555
C15 C16 1_555 1_555
C16 C17 1_555 1_555
C17 C18 1_555 1_555
C18 C19 1_555 1_555
C19 C12 1_555 1_555
C20 C12 1_555 1_555
C21 O8 1_555 1_555
C22 C16 1_555 1_555
O5 C14 1_555 1_555
O6 C17 1_555 1_555
O7 C20 1_555 1_555
O8 C20 1_555 1_555
C4 C8 1_555 1_555
C15 C19 1_555 1_555

#END
