
#######################################################################
#
#                 Cambridge Crystallographic Data Centre
#                                CCDC 
#
#######################################################################
#
# If this CIF has been generated from an entry in the Cambridge 
# Structural Database, then it will include bibliographic, chemical, 
# crystal, experimental, refinement or atomic coordinate data resulting 
# from the CCDC's data processing and validation procedures.
#
#######################################################################

data_VUJTIF
_chemical_name_common            
"Benzil dihydrazone-N,N$'!-bis(2-chloro-1-formylbenzene)"
_chemical_formula_moiety         'C28 H20 Cl2 N4'
_chemical_name_systematic        
1,1'-(1,2-Diphenylethane-1,2-diylidene)bis((2-chlorobenzylidene)hydrazine)
_symmetry_cell_setting           monoclinic
_symmetry_space_group_name_H-M   'P 21/n'
_symmetry_Int_Tables_number      14
_space_group_name_Hall           '-P 2yn'
loop_
_symmetry_equiv_pos_site_id
_symmetry_equiv_pos_as_xyz
1 x,y,z
2 1/2-x,1/2+y,1/2-z
3 -x,-y,-z
4 1/2+x,1/2-y,1/2+z
_cell_length_a                   9.271(3)
_cell_length_b                   15.786(5)
_cell_length_c                   17.035(6)
_cell_angle_alpha                90
_cell_angle_beta                 95.322(5)
_cell_angle_gamma                90
_cell_volume                     2482.36
_exptl_crystal_colour            yellow
_exptl_crystal_description       block
_cell_formula_units_Z            4
loop_
_atom_site_label
_atom_site_type_symbol
_atom_site_fract_x
_atom_site_fract_y
_atom_site_fract_z
C1 C 0.2031(3) 0.23878(17) 0.70015(14)
C2 C 0.1559(3) 0.2309(2) 0.62107(16)
C3 C 0.0460(3) 0.1775(2) 0.59691(19)
C4 C -0.0187(3) 0.13020(19) 0.65161(18)
C5 C 0.0258(3) 0.13836(15) 0.73091(16)
C6 C 0.13700(19) 0.19350(12) 0.75645(12)
C7 C 0.18144(18) 0.20286(11) 0.84089(12)
C8 C 0.0868(2) 0.14054(13) 1.01586(13)
C9 C 0.1350(2) 0.13633(11) 1.09981(12)
C10 C 0.0487(2) 0.10266(13) 1.15489(15)
C11 C 0.0999(4) 0.09847(19) 1.23475(17)
C12 C 0.2363(4) 0.1268(2) 1.25811(19)
C13 C 0.3234(3) 0.15985(17) 1.20556(17)
C14 C 0.2727(3) 0.16413(14) 1.12724(15)
C15 C 0.4309(3) 0.09363(15) 0.88704(17)
C16 C 0.5477(3) 0.03943(18) 0.9015(2)
C17 C 0.6852(3) 0.07083(19) 0.90641(19)
C18 C 0.7087(3) 0.1552(2) 0.89774(18)
C19 C 0.5926(2) 0.20920(16) 0.88542(15)
C20 C 0.45228(19) 0.17922(11) 0.87971(11)
C21 C 0.32974(18) 0.23870(11) 0.86653(11)
C22 C 0.2490(2) 0.43873(12) 0.89966(13)
C23 C 0.1406(2) 0.50573(12) 0.89255(13)
C24 C 0.1317(3) 0.56503(13) 0.95207(15)
C25 C 0.0276(4) 0.62802(18) 0.9463(3)
C26 C -0.0639(4) 0.63357(19) 0.8797(3)
C27 C -0.0564(3) 0.57727(19) 0.8184(3)
C28 C 0.0447(3) 0.51328(16) 0.82488(17)
N1 N 0.09605(16) 0.17574(11) 0.89066(10)
N2 N 0.15540(17) 0.18352(11) 0.96920(10)
N3 N 0.35533(16) 0.31738(10) 0.87708(10)
N4 N 0.23339(17) 0.37024(10) 0.86230(10)
Cl1 Cl -0.12354(7) 0.06504(5) 1.12484(5)
Cl2 Cl 0.25019(11) 0.56054(5) 1.03667(4)
H1 H 0.281(3) 0.2780(14) 0.7172(13)
H2 H 0.200(3) 0.267(2) 0.5844(19)
H3 H 0.010(3) 0.1689(17) 0.5460(16)
H4 H -0.091(3) 0.0920(17) 0.6367(16)
H5 H -0.017(2) 0.1095(15) 0.7678(14)
H6 H -0.001(3) 0.1085(15) 0.9945(14)
H7 H 0.035(3) 0.0692(18) 1.2690(19)
H8 H 0.279(3) 0.1251(19) 1.313(2)
H9 H 0.432(3) 0.1795(17) 1.2252(15)
H10 H 0.334(3) 0.1880(15) 1.0871(14)
H11 H 0.343(3) 0.0724(14) 0.8842(14)
H12 H 0.526(3) -0.019(2) 0.9092(16)
H13 H 0.770(3) 0.0319(18) 0.9167(15)
H14 H 0.804(3) 0.1780(19) 0.8968(16)
H15 H 0.607(2) 0.2663(15) 0.8792(13)
H16 H 0.330(2) 0.4493(13) 0.9328(13)
H17 H 0.030(3) 0.6658(19) 0.9909(18)
H18 H -0.132(4) 0.677(2) 0.8754(19)
H19 H -0.119(4) 0.5799(18) 0.7749(19)
H20 H 0.056(2) 0.4698(17) 0.7830(13)
loop_
_geom_bond_atom_site_label_1
_geom_bond_atom_site_label_2
_geom_bond_site_symmetry_1
_geom_bond_site_symmetry_2
C1 C2 1_555 1_555
C2 C3 1_555 1_555
C3 C4 1_555 1_555
C4 C5 1_555 1_555
C5 C6 1_555 1_555
C6 C1 1_555 1_555
C7 C6 1_555 1_555
C8 C9 1_555 1_555
C9 C10 1_555 1_555
C10 C11 1_555 1_555
C11 C12 1_555 1_555
C12 C13 1_555 1_555
C13 C14 1_555 1_555
C14 C9 1_555 1_555
C15 C16 1_555 1_555
C16 C17 1_555 1_555
C17 C18 1_555 1_555
C18 C19 1_555 1_555
C19 C20 1_555 1_555
C20 C15 1_555 1_555
C21 C7 1_555 1_555
C22 C23 1_555 1_555
C23 C24 1_555 1_555
C24 C25 1_555 1_555
C25 C26 1_555 1_555
C26 C27 1_555 1_555
C27 C28 1_555 1_555
C28 C23 1_555 1_555
N1 C7 1_555 1_555
N2 C8 1_555 1_555
N3 C21 1_555 1_555
N4 C22 1_555 1_555
Cl1 C10 1_555 1_555
Cl2 C24 1_555 1_555
H1 C1 1_555 1_555
H2 C2 1_555 1_555
H3 C3 1_555 1_555
H4 C4 1_555 1_555
H5 C5 1_555 1_555
H6 C8 1_555 1_555
H7 C11 1_555 1_555
H8 C12 1_555 1_555
H9 C13 1_555 1_555
H10 C14 1_555 1_555
H11 C15 1_555 1_555
H12 C16 1_555 1_555
H13 C17 1_555 1_555
H14 C18 1_555 1_555
H15 C19 1_555 1_555
H16 C22 1_555 1_555
H17 C25 1_555 1_555
H18 C26 1_555 1_555
H19 C27 1_555 1_555
H20 C28 1_555 1_555
C20 C21 1_555 1_555
N1 N2 1_555 1_555
N3 N4 1_555 1_555

#END
