
#######################################################################
#
#                 Cambridge Crystallographic Data Centre
#                                CCDC 
#
#######################################################################
#
# If this CIF has been generated from an entry in the Cambridge 
# Structural Database, then it will include bibliographic, chemical, 
# crystal, experimental, refinement or atomic coordinate data resulting 
# from the CCDC's data processing and validation procedures.
#
#######################################################################

data_VUJYEF
_chemical_formula_moiety         'C22 H23 N7'
_chemical_name_systematic        
9-Hexyl-3,6-bis(1H-1,2,4-triazol-1-yl)-9H-carbazole
_symmetry_cell_setting           monoclinic
_symmetry_space_group_name_H-M   'P 21/c'
_symmetry_Int_Tables_number      14
_space_group_name_Hall           '-P 2ybc'
loop_
_symmetry_equiv_pos_site_id
_symmetry_equiv_pos_as_xyz
1 x,y,z
2 -x,1/2+y,1/2-z
3 -x,-y,-z
4 x,1/2-y,1/2+z
_cell_length_a                   16.573(5)
_cell_length_b                   12.057(5)
_cell_length_c                   10.417(5)
_cell_angle_alpha                90
_cell_angle_beta                 107.518(5)
_cell_angle_gamma                90
_cell_volume                     1985
_exptl_crystal_colour            colorless
_exptl_crystal_description       needle
_cell_formula_units_Z            4
_exptl_crystal_recrystallization_method 'ethyl acetate'
loop_
_atom_site_label
_atom_site_type_symbol
_atom_site_fract_x
_atom_site_fract_y
_atom_site_fract_z
N1 N 0.7553(2) 1.2622(3) 1.0888(3)
N2 N 0.7659(2) 0.8060(2) 1.0497(3)
C1 C 0.7587(3) 1.1450(3) 1.0860(4)
N3 N 0.7355(2) 1.3167(3) 1.1901(4)
C2 C 0.8085(3) 0.9791(3) 1.0127(4)
C3 C 0.9068(3) 0.9107(3) 0.8763(4)
H1 H 0.9265 0.9800 0.8605
C4 C 0.7574(3) 0.9183(3) 1.0726(4)
N4 N 0.9895(2) 0.8245(3) 0.7469(4)
C5 C 0.8097(3) 1.0944(3) 1.0199(4)
H2 H 0.8437 1.1360 0.9815
C6 C 0.8217(3) 0.7948(3) 0.9750(4)
C7 C 0.8507(3) 0.8999(3) 0.9504(4)
C8 C 0.7088(3) 0.9691(3) 1.1432(4)
H3 H 0.6771 0.9278 1.1860
C9 C 0.7093(3) 1.0830(3) 1.1473(4)
H4 H 0.6760 1.1196 1.1917
C10 C 0.8487(3) 0.6992(3) 0.9251(4)
H5 H 0.8299 0.6295 0.9416
N5 N 0.7613(3) 1.4377(3) 1.0434(4)
C11 C 0.9328(3) 0.8155(3) 0.8262(4)
C12 C 1.0051(2) 0.9210(3) 0.6963(4)
H6 H 0.9840 0.9908 0.7065
C13 C 1.0768(3) 0.7845(3) 0.6321(4)
H7 H 1.1118 0.7481 0.5908
C14 C 0.7187(3) 0.7178(3) 1.0890(5)
H8 H 0.7314 0.7216 1.1860
H9 H 0.7418 0.6482 1.0690
C15 C 0.7698(3) 1.3361(3) 1.0046(5)
H10 H 0.7842 1.3182 0.9275
C16 C 0.7406(3) 1.4205(3) 1.1563(5)
H11 H 0.7305 1.4788 1.2079
N6 N 1.0346(3) 0.7427(4) 0.7074(5)
C17 C 0.9039(3) 0.7109(3) 0.8510(4)
H12 H 0.9225 0.6481 0.8163
C18 C 0.6243(7) 0.7106(10) 1.0311(18)
H13 H 0.6031 0.6572 1.0827
H14 H 0.5999 0.7822 1.0403
C19 C 0.5963(7) 0.6784(10) 0.8906(13)
H15 H 0.6162 0.6039 0.8817
H16 H 0.6210 0.7281 0.8394
C20 C 0.5015(11) 0.6816(19) 0.834(2)
H17 H 0.4780 0.6505 0.9006
H18 H 0.4844 0.7588 0.8222
N7 N 1.0575(3) 0.8934(4) 0.6282(5)
C21 C 0.4653(6) 0.6294(8) 0.7169(10)
H19 H 0.4845 0.6672 0.6492
H20 H 0.4050 0.6433 0.6946
C22 C 0.4749(7) 0.5109(9) 0.6972(11)
H21 H 0.5253 0.4845 0.7628
H22 H 0.4792 0.4983 0.6084
H23 H 0.4267 0.4720 0.7073
C23? C 0.6324(10) 0.7185(14) 0.962(3)
C24? C 0.5723(8) 0.6332(12) 0.9889(15)
C25? C 0.4839(13) 0.637(2) 0.885(2)
H24? H 0.6066 0.7915 0.9513
H25? H 0.6453 0.7002 0.8793
H26? H 0.5669 0.6459 1.0779
H27? H 0.5962 0.5598 0.9884
H28? H 0.4578 0.7049 0.9021
H29? H 0.4520 0.5766 0.9087
loop_
_geom_bond_atom_site_label_1
_geom_bond_atom_site_label_2
_geom_bond_site_symmetry_1
_geom_bond_site_symmetry_2
N1 C1 1_555 1_555
N2 C4 1_555 1_555
C1 C5 1_555 1_555
N3 N1 1_555 1_555
C2 C4 1_555 1_555
C3 H1 1_555 1_555
C4 C8 1_555 1_555
N4 C11 1_555 1_555
C5 C2 1_555 1_555
H2 C5 1_555 1_555
C6 N2 1_555 1_555
C7 C2 1_555 1_555
C8 H3 1_555 1_555
C9 C1 1_555 1_555
H4 C9 1_555 1_555
C10 C6 1_555 1_555
H5 C10 1_555 1_555
N5 C15 1_555 1_555
C11 C3 1_555 1_555
C12 N4 1_555 1_555
H6 C12 1_555 1_555
C13 H7 1_555 1_555
C14 N2 1_555 1_555
H8 C14 1_555 1_555
H9 C14 1_555 1_555
C15 N1 1_555 1_555
H10 C15 1_555 1_555
C16 N3 1_555 1_555
H11 C16 1_555 1_555
N6 N4 1_555 1_555
C17 C10 1_555 1_555
H12 C17 1_555 1_555
C18 C14 1_555 1_555
H13 C18 1_555 1_555
H14 C18 1_555 1_555
C19 C18 1_555 1_555
H15 C19 1_555 1_555
H16 C19 1_555 1_555
C20 C19 1_555 1_555
H17 C20 1_555 1_555
H18 C20 1_555 1_555
N7 C12 1_555 1_555
C21 C20 1_555 1_555
H19 C21 1_555 1_555
H20 C21 1_555 1_555
C22 C21 1_555 1_555
H21 C22 1_555 1_555
H22 C22 1_555 1_555
H23 C22 1_555 1_555
C3 C7 1_555 1_555
C6 C7 1_555 1_555
C8 C9 1_555 1_555
N5 C16 1_555 1_555
C11 C17 1_555 1_555
C13 N6 1_555 1_555
C13 N7 1_555 1_555

#END
