
#######################################################################
#
#                 Cambridge Crystallographic Data Centre
#                                CCDC 
#
#######################################################################
#
# If this CIF has been generated from an entry in the Cambridge 
# Structural Database, then it will include bibliographic, chemical, 
# crystal, experimental, refinement or atomic coordinate data resulting 
# from the CCDC's data processing and validation procedures.
#
#######################################################################

data_VUKBOT
_chemical_name_common            
"bis(Diaminomethaniminium) 4,4'-ethene-1,2-diyldibenzenesulfonate bis(coumarin 1) clathrate"
_chemical_formula_moiety         
'2(C1 H6 N3 1+),C14 H10 O6 S2 2-,2(C14 H17 N1 O2)'
_chemical_name_systematic        
"bis(Guanidinium) trans-stilbene-4,4'-disulfonate bis(7-diethylamino-4-methylcoumarin) clathrate"
_symmetry_cell_setting           monoclinic
_symmetry_space_group_name_H-M   'P 21/n'
_symmetry_Int_Tables_number      14
_space_group_name_Hall           '-P 2yn'
loop_
_symmetry_equiv_pos_site_id
_symmetry_equiv_pos_as_xyz
1 x,y,z
2 1/2-x,1/2+y,1/2-z
3 -x,-y,-z
4 1/2+x,1/2-y,1/2+z
_cell_length_a                   7.6611(4)
_cell_length_b                   31.3689(16)
_cell_length_c                   9.9610(5)
_cell_angle_alpha                90
_cell_angle_beta                 94.132(1)
_cell_angle_gamma                90
_cell_volume                     2387.61
_exptl_crystal_colour            yellow
_exptl_crystal_description       block
_cell_formula_units_Z            2
loop_
_atom_site_label
_atom_site_type_symbol
_atom_site_fract_x
_atom_site_fract_y
_atom_site_fract_z
C1 C 0.2728(2) 0.22567(6) 0.7826(2)
N1 N 0.4244(2) 0.23958(6) 0.83764(18)
H1 H 0.4281 0.2542 0.9131
H2 H 0.5217 0.2342 0.7988
N2 N 0.1277(2) 0.23383(6) 0.84095(19)
H3 H 0.1317 0.2485 0.9164
H4 H 0.0266 0.2246 0.8045
N3 N 0.2676(2) 0.20299(5) 0.66964(18)
H5 H 0.1670 0.1934 0.6337
H6 H 0.3649 0.1976 0.6308
C2 C 0.6998(2) 0.13723(6) 0.60727(17)
C3 C 0.6664(2) 0.11242(6) 0.71734(19)
H7 H 0.6776 0.1242 0.8054
C4 C 0.6167(3) 0.07049(6) 0.69846(19)
H8 H 0.5976 0.0533 0.7745
C5 C 0.5941(2) 0.05304(6) 0.57091(19)
C6 C 0.6321(3) 0.07824(7) 0.4611(2)
H9 H 0.6213 0.0665 0.3729
C7 C 0.6848(3) 0.11983(7) 0.47932(19)
H10 H 0.7110 0.1366 0.4041
C8 C 0.5295(3) 0.00899(6) 0.55720(19)
H11 H 0.5301 -0.0078 0.6366
S1 S 0.75425(6) 0.191326(15) 0.62811(5)
O1 O 0.90963(15) 0.19896(4) 0.55519(13)
O2 O 0.78162(19) 0.19933(5) 0.77101(14)
O3 O 0.60382(17) 0.21504(4) 0.56868(15)
C2B C 0.3002(2) -0.13723(6) 0.39273(17)
C3B C 0.3336(2) -0.11242(6) 0.28266(19)
H7B H 0.3224 -0.1242 0.1946
C4B C 0.3833(3) -0.07049(6) 0.30154(19)
H8B H 0.4024 -0.0533 0.2255
C5B C 0.4059(2) -0.05304(6) 0.42909(19)
C6B C 0.3679(3) -0.07824(7) 0.5389(2)
H9B H 0.3787 -0.0665 0.6271
C7B C 0.3152(3) -0.11983(7) 0.52068(19)
H10B H 0.2890 -0.1366 0.5959
C8B C 0.4705(3) -0.00899(6) 0.44280(19)
H11B H 0.4699 0.0078 0.3634
S1B S 0.24575(6) -0.191326(15) 0.37189(5)
O1B O 0.09037(15) -0.19896(4) 0.44481(13)
O2B O 0.21838(19) -0.19933(5) 0.22899(14)
O3B O 0.39618(17) -0.21504(4) 0.43132(15)
C9 C 0.6603(3) -0.04100(7) -0.0393(2)
C10 C 0.7139(3) -0.06862(7) 0.0710(2)
H12 H 0.6783 -0.0976 0.0666
C11 C 0.8126(3) -0.05523(7) 0.1808(2)
C12 C 0.8711(2) -0.01192(7) 0.18681(18)
C13 C 0.8182(2) 0.01541(6) 0.08064(17)
C14 C 0.8620(3) 0.05771(7) 0.07807(18)
H13 H 0.8209 0.0748 0.0037
C15 C 0.9798(3) 0.00667(7) 0.29061(19)
H14 H 1.0215 -0.0106 0.3644
C16 C 1.0277(3) 0.04846(8) 0.2894(2)
H15 H 1.1036 0.0593 0.3609
C17 C 0.9667(3) 0.07607(7) 0.1837(2)
C18 C 0.8576(3) -0.08499(8) 0.2971(3)
H16 H 0.8121 -0.1135 0.2749
H17 H 0.8050 -0.0744 0.3775
H18 H 0.9850 -0.0864 0.3145
C19 C 1.0964(5) 0.14075(11) 0.2988(3)
H19 H 1.0928 0.1228 0.3804
H20 H 1.0351 0.1679 0.3150
C20 C 1.2821(6) 0.14964(17) 0.2718(5)
H21 H 1.3446 0.1226 0.2629
H22 H 1.3382 0.1661 0.3465
H23 H 1.2852 0.1660 0.1881
C21 C 0.9344(4) 0.14715(8) 0.0785(2)
H24 H 0.9363 0.1326 -0.0096
H25 H 1.0090 0.1729 0.0756
C22 C 0.7489(4) 0.16082(9) 0.0987(3)
H26 H 0.6741 0.1356 0.1022
H27 H 0.7057 0.1791 0.0238
H28 H 0.7467 0.1767 0.1834
N4 N 1.0087(3) 0.11867(7) 0.18338(19)
O4 O 0.71422(17) 0.00087(4) -0.02869(12)
O5 O 0.5708(2) -0.05049(5) -0.14014(15)
C23? C 1.199(2) 0.1257(8) 0.255(2)
C24? C 1.202(3) 0.1532(8) 0.365(2)
H29? H 1.2471 0.0978 0.2860
H30? H 1.2767 0.1372 0.1887
H31? H 1.0996 0.1478 0.4157
H32? H 1.1990 0.1827 0.3324
H33? H 1.3089 0.1485 0.4226
loop_
_geom_bond_atom_site_label_1
_geom_bond_atom_site_label_2
_geom_bond_site_symmetry_1
_geom_bond_site_symmetry_2
C1 N1 1_555 1_555
N1 H1 1_555 1_555
H2 N1 1_555 1_555
N2 C1 1_555 1_555
H3 N2 1_555 1_555
H4 N2 1_555 1_555
N3 C1 1_555 1_555
H5 N3 1_555 1_555
H6 N3 1_555 1_555
C2 C3 1_555 1_555
C3 H7 1_555 1_555
C4 C3 1_555 1_555
H8 C4 1_555 1_555
C5 C4 1_555 1_555
C6 C5 1_555 1_555
H9 C6 1_555 1_555
C7 C2 1_555 1_555
H10 C7 1_555 1_555
C8 C5 1_555 1_555
H11 C8 1_555 1_555
S1 C2 1_555 1_555
O1 S1 1_555 1_555
O2 S1 1_555 1_555
O3 S1 1_555 1_555
C9 C10 1_555 1_555
C10 H12 1_555 1_555
C11 C10 1_555 1_555
C12 C11 1_555 1_555
C13 C12 1_555 1_555
C14 C13 1_555 1_555
H13 C14 1_555 1_555
C15 C12 1_555 1_555
H14 C15 1_555 1_555
C16 C15 1_555 1_555
H15 C16 1_555 1_555
C17 C14 1_555 1_555
C18 C11 1_555 1_555
H16 C18 1_555 1_555
H17 C18 1_555 1_555
H18 C18 1_555 1_555
C19 H19 1_555 1_555
H20 C19 1_555 1_555
C20 C19 1_555 1_555
H21 C20 1_555 1_555
H22 C20 1_555 1_555
H23 C20 1_555 1_555
C21 H24 1_555 1_555
H25 C21 1_555 1_555
C22 C21 1_555 1_555
H26 C22 1_555 1_555
H27 C22 1_555 1_555
H28 C22 1_555 1_555
N4 C17 1_555 1_555
O4 C9 1_555 1_555
O5 C9 1_555 1_555
C2B C3B 1_555 1_555
C3B H7B 1_555 1_555
C4B C3B 1_555 1_555
H8B C4B 1_555 1_555
C5B C4B 1_555 1_555
C6B C5B 1_555 1_555
H9B C6B 1_555 1_555
C7B C2B 1_555 1_555
H10B C7B 1_555 1_555
C8B C8 1_555 1_555
H11B C8B 1_555 1_555
S1B C2B 1_555 1_555
O1B S1B 1_555 1_555
O2B S1B 1_555 1_555
O3B S1B 1_555 1_555
C6 C7 1_555 1_555
C13 O4 1_555 1_555
C16 C17 1_555 1_555
C19 N4 1_555 1_555
C21 N4 1_555 1_555
C5B C8B 1_555 1_555
C6B C7B 1_555 1_555

#END
