
#######################################################################
#
#                 Cambridge Crystallographic Data Centre
#                                CCDC 
#
#######################################################################
#
# If this CIF has been generated from an entry in the Cambridge 
# Structural Database, then it will include bibliographic, chemical, 
# crystal, experimental, refinement or atomic coordinate data resulting 
# from the CCDC's data processing and validation procedures.
#
#######################################################################

data_VUKCUA
_chemical_name_common            
"bis(Diaminomethaniminium) biphenyl-4,4'-disulfonate bis(coumarin 102) clathrate"
_chemical_formula_moiety         
'2(C1 H6 N3 1+),C12 H8 O6 S2 2-,2(C16 H17 N1 O2)'
_chemical_name_systematic        
"bis(Guanidinium) 4,4'-biphenyldisulfonate bis(2,3,6,7-tetrahydro-9-methyl-1H,5H-quinolizino(9,1-gh)coumarin) clathrate"
_symmetry_cell_setting           orthorhombic
_symmetry_space_group_name_H-M   'A b a 2'
_symmetry_Int_Tables_number      41
_space_group_name_Hall           'A 2 -2ab'
loop_
_symmetry_equiv_pos_site_id
_symmetry_equiv_pos_as_xyz
1 x,y,z
2 -x,-y,z
3 1/2+x,1/2-y,z
4 1/2-x,1/2+y,z
5 x,1/2+y,1/2+z
6 -x,1/2-y,1/2+z
7 1/2+x,-y,1/2+z
8 1/2-x,y,1/2+z
_cell_length_a                   13.1383(14)
_cell_length_b                   27.585(3)
_cell_length_c                   12.4518(13)
_cell_angle_alpha                90
_cell_angle_beta                 90
_cell_angle_gamma                90
_cell_volume                     4512.78
_exptl_crystal_colour            yellow
_exptl_crystal_description       plate
_cell_formula_units_Z            4
loop_
_atom_site_label
_atom_site_type_symbol
_atom_site_fract_x
_atom_site_fract_y
_atom_site_fract_z
C1 C 0.69755(17) 0.77988(7) 0.81161(17)
N1 N 0.71225(14) 0.76763(7) 0.70961(15)
H1 H 0.6632 0.7534 0.6732
H2 H 0.7710 0.7737 0.6785
N2 N 0.60933(15) 0.77076(7) 0.85844(15)
H3 H 0.5988 0.7799 0.9253
H4 H 0.5611 0.7556 0.8228
N3 N 0.77088(15) 0.80276(6) 0.86459(16)
H5 H 0.7610 0.8120 0.9314
H6 H 0.8294 0.8087 0.8329
C2 C 0.98886(14) 0.87231(6) 0.63986(19)
C3 C 0.90544(16) 0.89885(8) 0.67469(19)
H7 H 0.8451 0.8826 0.6965
C4 C 0.91020(15) 0.94864(8) 0.67762(19)
H8 H 0.8531 0.9666 0.7020
C5 C 0.99824(14) 0.97308(7) 0.64507(19)
C6 C 1.08180(15) 0.94585(7) 0.61172(17)
H9 H 1.1426 0.9619 0.5909
C7 C 1.07756(16) 0.89545(7) 0.60839(16)
H10 H 1.1347 0.8772 0.5849
S1 S 0.97823(4) 0.808310(17) 0.63779(5)
O1 O 1.06860(13) 0.78952(5) 0.58624(13)
O2 O 0.96815(12) 0.79347(5) 0.75034(13)
O3 O 0.88456(12) 0.79821(5) 0.57892(12)
C2A C 1.01114(14) 1.12769(6) 0.63986(19)
C3A C 1.09456(16) 1.10115(8) 0.67469(19)
H7A H 1.1549 1.1174 0.6965
C4A C 1.08980(15) 1.05136(8) 0.67762(19)
H8A H 1.1469 1.0334 0.7020
C5A C 1.00176(14) 1.02692(7) 0.64507(19)
C6A C 0.91820(15) 1.05415(7) 0.61172(17)
H9A H 0.8574 1.0381 0.5909
C7A C 0.92244(16) 1.10455(7) 0.60839(16)
H10A H 0.8653 1.1228 0.5849
S1A S 1.02177(4) 1.191690(17) 0.63779(5)
O1A O 0.93140(13) 1.21048(5) 0.58624(13)
O2A O 1.03185(12) 1.20653(5) 0.75034(13)
O3A O 1.11544(12) 1.20179(5) 0.57892(12)
C8 C 1.14946(17) 1.09207(8) 0.0872(2)
C9 C 1.14594(16) 1.09737(8) 0.2005(2)
H11 H 1.1486 1.1291 0.2298
C10 C 1.13895(15) 1.05932(8) 0.26877(18)
C11 C 1.13291(14) 1.01112(8) 0.22500(16)
C12 C 1.13387(14) 1.00535(7) 0.11305(16)
C13 C 1.12706(15) 0.96094(8) 0.06168(17)
C14 C 1.1282(2) 0.95667(9) -0.05889(19)
H12 H 1.0616 0.9678 -0.0867
H13 H 1.1808 0.9789 -0.0874
C15 C 1.0727(3) 0.91212(12) -0.0930(3)
H14 H 0.9990 0.9170 -0.0806
H15 H 1.0829 0.9075 -0.1711
C16 C 1.1051(2) 0.86745(10) -0.0365(2)
H16 H 1.0325 0.8633 -0.0557
H17 H 1.1411 0.8373 -0.0568
C17 C 1.1050(2) 0.82943(8) 0.1428(2)
H18 H 1.1392 0.8027 0.1039
H19 H 1.0323 0.8207 0.1509
C18 C 1.1524(2) 0.83480(8) 0.2528(2)
H20 H 1.2269 0.8393 0.2459
H21 H 1.1399 0.8052 0.2958
C19 C 1.10552(19) 0.87848(8) 0.30840(19)
H22 H 1.0324 0.8723 0.3219
H23 H 1.1393 0.8836 0.3785
C20 C 1.11688(15) 0.92331(7) 0.24037(17)
C21 C 1.12442(15) 0.96857(8) 0.28554(16)
H24 H 1.1238 0.9711 0.3616
C22 C 1.11864(14) 0.91891(7) 0.12648(18)
C23 C 1.13704(18) 1.06663(9) 0.3881(2)
H25 H 1.1428 1.1013 0.4043
H26 H 1.1942 1.0492 0.4208
H27 H 1.0729 1.0541 0.4172
N4 N 1.11298(16) 0.87385(6) 0.07947(15)
O4 O 1.14288(12) 1.04532(5) 0.04645(12)
O5 O 1.15871(14) 1.12416(6) 0.02075(15)
C24? C 1.1478(8) 0.9085(3) -0.1005(6)
H28? H 1.2224 0.9040 -0.1059
H29? H 1.1198 0.9066 -0.1742
loop_
_geom_bond_atom_site_label_1
_geom_bond_atom_site_label_2
_geom_bond_site_symmetry_1
_geom_bond_site_symmetry_2
C1 N1 1_555 1_555
N1 H1 1_555 1_555
H2 N1 1_555 1_555
N2 C1 1_555 1_555
H3 N2 1_555 1_555
H4 N2 1_555 1_555
N3 C1 1_555 1_555
H5 N3 1_555 1_555
H6 N3 1_555 1_555
C2 C3 1_555 1_555
C3 H7 1_555 1_555
C4 C3 1_555 1_555
H8 C4 1_555 1_555
C5 C4 1_555 1_555
C6 C5 1_555 1_555
H9 C6 1_555 1_555
C7 C2 1_555 1_555
H10 C7 1_555 1_555
S1 C2 1_555 1_555
O1 S1 1_555 1_555
O2 S1 1_555 1_555
O3 S1 1_555 1_555
C8 C9 1_555 1_555
C9 H11 1_555 1_555
C10 C9 1_555 1_555
C11 C10 1_555 1_555
C12 C11 1_555 1_555
C13 C12 1_555 1_555
C14 C13 1_555 1_555
H12 C14 1_555 1_555
H13 C14 1_555 1_555
C15 C14 1_555 1_555
H14 C15 1_555 1_555
H15 C15 1_555 1_555
C16 C15 1_555 1_555
H16 C16 1_555 1_555
H17 C16 1_555 1_555
C17 H18 1_555 1_555
H19 C17 1_555 1_555
C18 C17 1_555 1_555
H20 C18 1_555 1_555
H21 C18 1_555 1_555
C19 C18 1_555 1_555
H22 C19 1_555 1_555
H23 C19 1_555 1_555
C20 C19 1_555 1_555
C21 C11 1_555 1_555
H24 C21 1_555 1_555
C22 C13 1_555 1_555
C23 C10 1_555 1_555
H25 C23 1_555 1_555
H26 C23 1_555 1_555
H27 C23 1_555 1_555
N4 C16 1_555 1_555
O4 C8 1_555 1_555
O5 C8 1_555 1_555
C2A C3A 1_555 1_555
C3A H7A 1_555 1_555
C4A C3A 1_555 1_555
H8A C4A 1_555 1_555
C5A C5 1_555 1_555
C6A C5A 1_555 1_555
H9A C6A 1_555 1_555
C7A C2A 1_555 1_555
H10A C7A 1_555 1_555
S1A C2A 1_555 1_555
O1A S1A 1_555 1_555
O2A S1A 1_555 1_555
O3A S1A 1_555 1_555
C6 C7 1_555 1_555
C12 O4 1_555 1_555
C17 N4 1_555 1_555
C20 C21 1_555 1_555
C20 C22 1_555 1_555
C22 N4 1_555 1_555
C4A C5A 1_555 1_555
C6A C7A 1_555 1_555

#END
