
#######################################################################
#
#                 Cambridge Crystallographic Data Centre
#                                CCDC 
#
#######################################################################
#
# If this CIF has been generated from an entry in the Cambridge 
# Structural Database, then it will include bibliographic, chemical, 
# crystal, experimental, refinement or atomic coordinate data resulting 
# from the CCDC's data processing and validation procedures.
#
#######################################################################

data_VUKDIP
_chemical_name_common            
'bis(Diaminomethaniminium) naphthalene-2,6-disulfonate coumarin 1 clathrate'
_chemical_formula_moiety         
'2(C1 H6 N3 1+),C10 H6 O6 S2 2-,1.33(C14 H17 N1 O2)'
_chemical_name_systematic        
'bis(Guanidinium) 2,6-naphthalenedisulfonate 7-diethylamino-4-methylcoumarin clathrate'
_symmetry_cell_setting           monoclinic
_symmetry_space_group_name_H-M   'P 21/c'
_symmetry_Int_Tables_number      14
_space_group_name_Hall           '-P 2ybc'
loop_
_symmetry_equiv_pos_site_id
_symmetry_equiv_pos_as_xyz
1 x,y,z
2 -x,1/2+y,1/2-z
3 -x,-y,-z
4 x,1/2-y,1/2+z
_cell_length_a                   21.2661(5)
_cell_length_b                   12.6664(3)
_cell_length_c                   19.8581(5)
_cell_angle_alpha                90
_cell_angle_beta                 93.233(1)
_cell_angle_gamma                90
_cell_volume                     5340.56
_exptl_crystal_colour            green
_exptl_crystal_description       block
_cell_formula_units_Z            6
loop_
_atom_site_label
_atom_site_type_symbol
_atom_site_fract_x
_atom_site_fract_y
_atom_site_fract_z
S1 S 0.403045(19) 0.01640(3) 0.25151(2)
S2 S 0.25426(2) 0.00912(3) -0.15532(2)
O1 O 0.35526(6) 0.06641(9) 0.29074(6)
O2 O 0.46325(6) 0.07058(9) 0.25793(7)
O3 O 0.40828(6) -0.09629(9) 0.26455(6)
O4 O 0.19234(6) -0.04067(9) -0.16169(7)
O5 O 0.25245(6) 0.12173(9) -0.16888(6)
O6 O 0.29989(6) -0.04584(9) -0.19448(7)
C1 C 0.37593(8) 0.03082(13) 0.16606(9)
C2 C 0.34565(8) -0.05003(13) 0.13226(10)
H1 H 0.3398 -0.1155 0.1543
C3 C 0.32294(8) -0.03642(13) 0.06417(9)
C4 C 0.33283(8) 0.06180(13) 0.03216(9)
C5 C 0.36386(8) 0.14401(13) 0.06882(10)
H2 H 0.3702 0.2101 0.0476
C6 C 0.38471(8) 0.12949(13) 0.13423(10)
H3 H 0.4052 0.1855 0.1586
C7 C 0.29120(9) -0.11798(13) 0.02737(10)
H4 H 0.2842 -0.1837 0.0487
C8 C 0.27054(9) -0.10383(14) -0.03808(10)
H5 H 0.2494 -0.1594 -0.0622
C9 C 0.28068(8) -0.00619(13) -0.06993(9)
C10 C 0.31072(8) 0.07452(13) -0.03608(9)
H6 H 0.3169 0.1398 -0.0584
S3 S 0.06543(2) 0.53112(3) 0.80318(2)
O7 O 0.07293(6) 0.64143(9) 0.78427(7)
O8 O 0.02055(6) 0.47599(9) 0.75752(7)
O9 O 0.12516(5) 0.47596(9) 0.81271(7)
C11 C 0.03126(8) 0.53148(13) 0.88202(10)
C12 C -0.02571(9) 0.58781(15) 0.88805(10)
H7 H -0.0436 0.6267 0.8508
C13 C 0.05809(8) 0.47564(14) 0.93473(10)
H8 H 0.0965 0.4391 0.9298
C14 C 0.02865(8) 0.47202(14) 0.99709(10)
C15 C -0.05457(9) 0.58591(15) 0.94733(11)
H9 H -0.0926 0.6240 0.9514
S3B S -0.06543(2) 0.46888(3) 1.19682(2)
O7B O -0.07293(6) 0.35857(9) 1.21573(7)
O8B O -0.02055(6) 0.52401(9) 1.24248(7)
O9B O -0.12516(5) 0.52404(9) 1.18729(7)
C11B C -0.03126(8) 0.46852(13) 1.11798(10)
C12B C 0.02571(9) 0.41219(15) 1.11195(10)
H7B H 0.0436 0.3733 1.1492
C13B C -0.05809(8) 0.52436(14) 1.06527(10)
H8B H -0.0965 0.5609 1.0702
C14B C -0.02865(8) 0.52798(14) 1.00291(10)
C15B C 0.05457(9) 0.41409(15) 1.05267(11)
H9B H 0.0926 0.3760 1.0486
C16 C 0.42469(8) 0.34778(13) 0.28120(9)
N1 N 0.37432(7) 0.29373(11) 0.29863(8)
H10 H 0.3757 0.2244 0.3008
H11 H 0.3397 0.3274 0.3080
N2 N 0.42268(7) 0.45211(11) 0.27920(8)
H12 H 0.4561 0.4881 0.2685
H13 H 0.3880 0.4855 0.2886
N3 N 0.47650(7) 0.29654(11) 0.26721(8)
H14 H 0.5101 0.3319 0.2564
H15 H 0.4774 0.2271 0.2687
C17 C 0.08649(8) 0.19654(13) 0.79888(9)
N4 N 0.03535(7) 0.24792(11) 0.77560(8)
H16 H 0.0356 0.3173 0.7733
H17 H 0.0012 0.2126 0.7624
N5 N 0.13772(7) 0.24888(11) 0.81865(8)
H18 H 0.1715 0.2145 0.8340
H19 H 0.1382 0.3183 0.8165
N6 N 0.08572(7) 0.09201(11) 0.80206(9)
H20 H 0.1195 0.0575 0.8174
H21 H 0.0514 0.0571 0.7888
C18 C 0.24861(8) 0.82242(14) 0.29967(10)
N7 N 0.19668(7) 0.76617(12) 0.30615(9)
H22 H 0.1987 0.6968 0.3079
H23 H 0.1602 0.7982 0.3087
N8 N 0.24539(7) 0.92692(11) 0.29803(9)
H24 H 0.2798 0.9645 0.2944
H25 H 0.2088 0.9587 0.3006
N9 N 0.30320(7) 0.77444(12) 0.29584(9)
H26 H 0.3378 0.8117 0.2922
H27 H 0.3052 0.7051 0.2969
O10 O 0.17462(6) 0.31083(10) 0.47088(6)
O11 O 0.21527(7) 0.16152(10) 0.43673(7)
N10 N 0.08664(10) 0.64052(15) 0.52760(10)
C19 C 0.11597(10) 0.54857(16) 0.54747(12)
C20 C 0.13142(11) 0.52654(18) 0.61605(12)
H28 H 0.1201 0.5756 0.6495
C21 C 0.16232(10) 0.43615(17) 0.63525(11)
H29 H 0.1726 0.4245 0.6818
C22 C 0.17954(9) 0.35968(15) 0.58856(10)
C23 C 0.16210(9) 0.38149(14) 0.52138(10)
C24 C 0.13183(9) 0.47235(15) 0.49996(11)
H30 H 0.1217 0.4835 0.4533
C25 C 0.21394(9) 0.26480(16) 0.60440(10)
C26 C 0.23582(11) 0.2407(2) 0.67590(11)
H31 H 0.2593 0.1741 0.6773
H32 H 0.1993 0.2344 0.7036
H33 H 0.2631 0.2978 0.6935
C27 C 0.22668(9) 0.19832(15) 0.55383(10)
H34 H 0.2497 0.1356 0.5645
C28 C 0.20699(8) 0.21825(14) 0.48462(10)
C29 C 0.05863(13) 0.7117(2) 0.57569(14)
H35 H 0.0443 0.6697 0.6140
H36 H 0.0212 0.7461 0.5534
C30 C 0.10372(16) 0.7957(2) 0.60241(17)
H37 H 0.1399 0.7623 0.6266
H38 H 0.0822 0.8421 0.6333
H39 H 0.1183 0.8374 0.5647
C31 C 0.07806(11) 0.67013(17) 0.45647(13)
H40 H 0.1147 0.6449 0.4324
H41 H 0.0769 0.7481 0.4530
C32 C 0.01866(12) 0.6256(2) 0.42245(15)
H42 H 0.0199 0.5483 0.4247
H43 H 0.0154 0.6480 0.3751
H44 H -0.0179 0.6516 0.4454
O12 O 0.42222(6) 0.53757(10) 0.13531(7)
O13 O 0.38169(7) 0.65705(10) 0.20089(7)
N11 N 0.52800(7) 0.29060(12) 0.00309(8)
C33 C 0.42751(9) 0.36393(14) -0.03958(10)
H45 H 0.4291 0.3237 -0.0798
C34 C 0.47698(8) 0.35386(13) 0.01157(10)
C35 C 0.47126(8) 0.41306(13) 0.07077(9)
H46 H 0.5022 0.4068 0.1070
C36 C 0.42114(9) 0.47974(13) 0.07625(9)
C37 C 0.37239(8) 0.49163(13) 0.02689(10)
C38 C 0.37780(9) 0.43045(14) -0.03173(10)
H47 H 0.3459 0.4356 -0.0670
C39 C 0.32113(9) 0.56206(14) 0.03990(11)
C40 C 0.26895(9) 0.57973(15) -0.01316(12)
H48 H 0.2365 0.6247 0.0052
H49 H 0.2504 0.5117 -0.0268
H50 H 0.2859 0.6143 -0.0524
C41 C 0.32238(9) 0.61292(14) 0.09999(11)
H51 H 0.2871 0.6549 0.1101
C42 C 0.37406(9) 0.60652(14) 0.14885(10)
C43 C 0.57481(8) 0.27162(14) 0.05865(10)
H52 H 0.5854 0.3398 0.0809
H53 H 0.6137 0.2440 0.0399
C44 C 0.55343(10) 0.19436(15) 0.11154(10)
H54 H 0.5150 0.2209 0.1306
H55 H 0.5866 0.1870 0.1476
H56 H 0.5450 0.1254 0.0905
C45 C 0.53459(9) 0.23008(14) -0.05851(10)
H57 H 0.5800 0.2207 -0.0654
H58 H 0.5162 0.2714 -0.0971
C46 C 0.50343(10) 0.12198(15) -0.05886(11)
H59 H 0.5225 0.0791 -0.0220
H60 H 0.5094 0.0870 -0.1020
H61 H 0.4583 0.1302 -0.0527
loop_
_geom_bond_atom_site_label_1
_geom_bond_atom_site_label_2
_geom_bond_site_symmetry_1
_geom_bond_site_symmetry_2
S1 O1 1_555 1_555
S2 O4 1_555 1_555
O2 S1 1_555 1_555
O3 S1 1_555 1_555
O5 S2 1_555 1_555
O6 S2 1_555 1_555
C1 S1 1_555 1_555
C2 C1 1_555 1_555
H1 C2 1_555 1_555
C3 C2 1_555 1_555
C4 C3 1_555 1_555
C5 C4 1_555 1_555
H2 C5 1_555 1_555
C6 C1 1_555 1_555
H3 C6 1_555 1_555
C7 C3 1_555 1_555
H4 C7 1_555 1_555
C8 C7 1_555 1_555
H5 C8 1_555 1_555
C9 S2 1_555 1_555
C10 C4 1_555 1_555
H6 C10 1_555 1_555
S3 O7 1_555 1_555
O8 S3 1_555 1_555
O9 S3 1_555 1_555
C11 S3 1_555 1_555
C12 C11 1_555 1_555
H7 C12 1_555 1_555
C13 C11 1_555 1_555
H8 C13 1_555 1_555
C14 C13 1_555 1_555
C15 C12 1_555 1_555
H9 C15 1_555 1_555
C16 N1 1_555 1_555
N1 H10 1_555 1_555
H11 N1 1_555 1_555
N2 C16 1_555 1_555
H12 N2 1_555 1_555
H13 N2 1_555 1_555
N3 C16 1_555 1_555
H14 N3 1_555 1_555
H15 N3 1_555 1_555
C17 N4 1_555 1_555
N4 H16 1_555 1_555
H17 N4 1_555 1_555
N5 C17 1_555 1_555
H18 N5 1_555 1_555
H19 N5 1_555 1_555
N6 C17 1_555 1_555
H20 N6 1_555 1_555
H21 N6 1_555 1_555
C18 N7 1_555 1_555
N7 H22 1_555 1_555
H23 N7 1_555 1_555
N8 C18 1_555 1_555
H24 N8 1_555 1_555
H25 N8 1_555 1_555
N9 C18 1_555 1_555
H26 N9 1_555 1_555
H27 N9 1_555 1_555
O10 C23 1_555 1_555
O11 C28 1_555 1_555
N10 C19 1_555 1_555
C19 C20 1_555 1_555
C20 H28 1_555 1_555
C21 C20 1_555 1_555
H29 C21 1_555 1_555
C22 C21 1_555 1_555
C23 C22 1_555 1_555
C24 C19 1_555 1_555
H30 C24 1_555 1_555
C25 C22 1_555 1_555
C26 C25 1_555 1_555
H31 C26 1_555 1_555
H32 C26 1_555 1_555
H33 C26 1_555 1_555
C27 C25 1_555 1_555
H34 C27 1_555 1_555
C28 O10 1_555 1_555
C29 N10 1_555 1_555
H35 C29 1_555 1_555
H36 C29 1_555 1_555
C30 C29 1_555 1_555
H37 C30 1_555 1_555
H38 C30 1_555 1_555
H39 C30 1_555 1_555
C31 N10 1_555 1_555
H40 C31 1_555 1_555
H41 C31 1_555 1_555
C32 C31 1_555 1_555
H42 C32 1_555 1_555
H43 C32 1_555 1_555
H44 C32 1_555 1_555
O12 C36 1_555 1_555
O13 C42 1_555 1_555
N11 C34 1_555 1_555
C33 H45 1_555 1_555
C34 C33 1_555 1_555
C35 C34 1_555 1_555
H46 C35 1_555 1_555
C36 C35 1_555 1_555
C37 C36 1_555 1_555
C38 C33 1_555 1_555
H47 C38 1_555 1_555
C39 C37 1_555 1_555
C40 C39 1_555 1_555
H48 C40 1_555 1_555
H49 C40 1_555 1_555
H50 C40 1_555 1_555
C41 C39 1_555 1_555
H51 C41 1_555 1_555
C42 O12 1_555 1_555
C43 N11 1_555 1_555
H52 C43 1_555 1_555
H53 C43 1_555 1_555
C44 C43 1_555 1_555
H54 C44 1_555 1_555
H55 C44 1_555 1_555
H56 C44 1_555 1_555
C45 N11 1_555 1_555
H57 C45 1_555 1_555
H58 C45 1_555 1_555
C46 C45 1_555 1_555
H59 C46 1_555 1_555
H60 C46 1_555 1_555
H61 C46 1_555 1_555
S3B O7B 1_555 1_555
O8B S3B 1_555 1_555
O9B S3B 1_555 1_555
C11B S3B 1_555 1_555
C12B C11B 1_555 1_555
H7B C12B 1_555 1_555
C13B C11B 1_555 1_555
H8B C13B 1_555 1_555
C14B C14 1_555 1_555
C15B C14 1_555 1_555
H9B C15B 1_555 1_555
C5 C6 1_555 1_555
C8 C9 1_555 1_555
C9 C10 1_555 1_555
C15 C14B 1_555 1_555
C23 C24 1_555 1_555
C27 C28 1_555 1_555
C37 C38 1_555 1_555
C41 C42 1_555 1_555
C12B C15B 1_555 1_555
C13B C14B 1_555 1_555

#END
