
#######################################################################
#
#                 Cambridge Crystallographic Data Centre
#                                CCDC 
#
#######################################################################
#
# If this CIF has been generated from an entry in the Cambridge 
# Structural Database, then it will include bibliographic, chemical, 
# crystal, experimental, refinement or atomic coordinate data resulting 
# from the CCDC's data processing and validation procedures.
#
#######################################################################

data_VULCUC
_chemical_formula_moiety         'C41 H27 N3 O2,2(C4 H8 O1)'
_chemical_name_systematic        
'3,4-bis(4-(9H-carbazol-9-yl)phenyl)-1-methyl-1H-pyrrole-2,5-dione tetrahydrofuran solvate'
_symmetry_cell_setting           monoclinic
_symmetry_space_group_name_H-M   'C 2/c'
_symmetry_Int_Tables_number      15
_space_group_name_Hall           '-C 2yn'
loop_
_symmetry_equiv_pos_site_id
_symmetry_equiv_pos_as_xyz
1 x,y,z
2 -x,y,1/2-z
3 1/2+x,1/2+y,z
4 1/2-x,1/2+y,1/2-z
5 -x,-y,-z
6 x,-y,1/2+z
7 1/2-x,1/2-y,-z
8 1/2+x,1/2-y,1/2+z
_cell_length_a                   26.2357(7)
_cell_length_b                   15.5476(3)
_cell_length_c                   19.4629(5)
_cell_angle_alpha                90
_cell_angle_beta                 107.126(3)
_cell_angle_gamma                90
_cell_volume                     7586.94
_cell_formula_units_Z            8
loop_
_atom_site_label
_atom_site_type_symbol
_atom_site_fract_x
_atom_site_fract_y
_atom_site_fract_z
O1 O 0.09729(5) 0.10890(7) 0.02789(7)
N1 N 0.12689(5) 0.24644(9) 0.01937(8)
C1 C 0.17287(7) 0.22650(12) -0.00502(10)
H1 H 0.2053 0.2285 0.0359
H2 H 0.1755 0.2687 -0.0412
H3 H 0.1687 0.1688 -0.0262
O2 O 0.13409(5) 0.39403(8) 0.02569(7)
N2 N -0.11837(5) 0.05636(9) 0.12451(7)
C2 C 0.09240(6) 0.18604(10) 0.03286(8)
N3 N -0.04154(6) 0.60225(9) 0.14119(8)
C3 C 0.05071(6) 0.23413(11) 0.05688(8)
C4 C 0.06287(6) 0.31849(10) 0.05835(9)
C5 C 0.11185(6) 0.32818(11) 0.03384(9)
C6 C 0.00790(6) 0.18840(10) 0.07636(9)
C7 C -0.01324(6) 0.11223(10) 0.04029(9)
H4 H 0.0005 0.0906 0.0037
C8 C -0.05387(6) 0.06813(10) 0.05727(9)
H5 H -0.0673 0.0162 0.0329
C9 C -0.07502(6) 0.09983(10) 0.11014(9)
C10 C -0.05381(7) 0.17478(11) 0.14737(9)
H6 H -0.0676 0.1962 0.1840
C11 C -0.01253(7) 0.21797(10) 0.13086(9)
H7 H 0.0020 0.2683 0.1570
C12 C -0.16387(6) 0.02614(11) 0.07195(9)
C13 C -0.17780(7) 0.03254(12) -0.00282(9)
H8 H -0.1549 0.0601 -0.0259
C14 C -0.22620(7) -0.00270(12) -0.04240(10)
H9 H -0.2364 0.0006 -0.0934
C15 C -0.26039(7) -0.04295(12) -0.00897(10)
H10 H -0.2931 -0.0668 -0.0374
C16 C -0.24670(7) -0.04811(12) 0.06533(10)
H11 H -0.2700 -0.0749 0.0881
C17 C -0.19806(7) -0.01321(11) 0.10625(9)
C18 C -0.17241(7) -0.00693(11) 0.18275(9)
C19 C -0.18668(8) -0.03501(13) 0.24292(10)
H12 H -0.2197 -0.0633 0.2374
C20 C -0.15162(9) -0.02077(14) 0.31055(11)
H13 H -0.1611 -0.0386 0.3519
C21 C -0.10254(8) 0.01944(13) 0.31892(10)
H14 H -0.0789 0.0273 0.3659
C22 C -0.08741(7) 0.04812(12) 0.26029(10)
H15 H -0.0539 0.0752 0.2663
C23 C -0.12330(7) 0.03564(11) 0.19215(9)
C24 C 0.03627(6) 0.39406(10) 0.07721(9)
C25 C -0.01909(7) 0.40397(11) 0.04953(9)
H16 H -0.0394 0.3625 0.0170
C26 C -0.04427(7) 0.47383(11) 0.06930(9)
H17 H -0.0817 0.4810 0.0496
C27 C -0.01451(7) 0.53390(11) 0.11829(9)
C28 C 0.04070(7) 0.52601(11) 0.14468(9)
H18 H 0.0610 0.5676 0.1771
C29 C 0.06582(7) 0.45706(11) 0.12325(9)
H19 H 0.1036 0.4525 0.1400
C30 C -0.08696(7) 0.59272(12) 0.16379(9)
C31 C -0.11373(7) 0.51813(13) 0.17296(10)
H20 H -0.1029 0.4633 0.1609
C32 C -0.15676(8) 0.52674(15) 0.20026(10)
H21 H -0.1756 0.4768 0.2069
C33 C -0.17287(8) 0.60711(16) 0.21810(12)
H22 H -0.2025 0.6111 0.2365
C34 C -0.14618(9) 0.68085(15) 0.20930(11)
H23 H -0.1572 0.7353 0.2218
C35 C -0.10273(8) 0.67461(13) 0.18175(10)
C36 C -0.06552(8) 0.73611(12) 0.16825(9)
C37 C -0.06150(9) 0.82562(13) 0.17407(10)
H24 H -0.0869 0.8580 0.1894
C38 C -0.01981(10) 0.86599(13) 0.15711(11)
H25 H -0.0166 0.9268 0.1608
C39 C 0.01774(9) 0.81870(12) 0.13459(10)
H26 H 0.0463 0.8481 0.1240
C40 C 0.01427(8) 0.72970(12) 0.12732(9)
H27 H 0.0395 0.6978 0.1114
C41 C -0.02781(8) 0.68956(11) 0.14437(9)
O3 O -0.13132(8) 0.32433(12) -0.08867(11)
C42 C -0.13858(11) 0.24298(16) -0.06006(15)
H28 H -0.1045 0.2225 -0.0267
H29 H -0.1508 0.2004 -0.0993
C43 C -0.18043(13) 0.25348(17) -0.02013(16)
H30 H -0.2160 0.2340 -0.0499
H31 H -0.1703 0.2214 0.0259
C44 C -0.17943(14) 0.34718(17) -0.00798(18)
H32 H -0.1521 0.3626 0.0374
H33 H -0.2146 0.3680 -0.0060
C45 C -0.16574(10) 0.38469(15) -0.07206(13)
H34 H -0.1983 0.3924 -0.1131
H35 H -0.1478 0.4411 -0.0598
O4 O 0.16696(6) 0.31393(11) 0.19158(9)
C46 C 0.13959(9) 0.28757(16) 0.24155(12)
H36 H 0.1155 0.2386 0.2222
H37 H 0.1183 0.3355 0.2522
C47 C 0.18365(9) 0.26101(17) 0.30913(12)
H38 H 0.1967 0.3109 0.3411
H39 H 0.1711 0.2159 0.3362
C48 C 0.22588(13) 0.2274(3) 0.27879(16)
H40 H 0.2286 0.1640 0.2836
H41 H 0.2610 0.2529 0.3040
C49 C 0.20843(11) 0.2535(2) 0.19989(14)
H42 H 0.2386 0.2794 0.1864
H43 H 0.1956 0.2027 0.1689
loop_
_geom_bond_atom_site_label_1
_geom_bond_atom_site_label_2
_geom_bond_site_symmetry_1
_geom_bond_site_symmetry_2
O1 C2 1_555 1_555
N1 C1 1_555 1_555
C1 H1 1_555 1_555
H2 C1 1_555 1_555
H3 C1 1_555 1_555
O2 C5 1_555 1_555
N2 C9 1_555 1_555
C2 N1 1_555 1_555
N3 C27 1_555 1_555
C3 C2 1_555 1_555
C4 C3 1_555 1_555
C5 N1 1_555 1_555
C6 C3 1_555 1_555
C7 C6 1_555 1_555
H4 C7 1_555 1_555
C8 C7 1_555 1_555
H5 C8 1_555 1_555
C9 C8 1_555 1_555
C10 C9 1_555 1_555
H6 C10 1_555 1_555
C11 C6 1_555 1_555
H7 C11 1_555 1_555
C12 N2 1_555 1_555
C13 C12 1_555 1_555
H8 C13 1_555 1_555
C14 C13 1_555 1_555
H9 C14 1_555 1_555
C15 C14 1_555 1_555
H10 C15 1_555 1_555
C16 C15 1_555 1_555
H11 C16 1_555 1_555
C17 C12 1_555 1_555
C18 C17 1_555 1_555
C19 C18 1_555 1_555
H12 C19 1_555 1_555
C20 C19 1_555 1_555
H13 C20 1_555 1_555
C21 C20 1_555 1_555
H14 C21 1_555 1_555
C22 C21 1_555 1_555
H15 C22 1_555 1_555
C23 N2 1_555 1_555
C24 C4 1_555 1_555
C25 C24 1_555 1_555
H16 C25 1_555 1_555
C26 C25 1_555 1_555
H17 C26 1_555 1_555
C27 C26 1_555 1_555
C28 C27 1_555 1_555
H18 C28 1_555 1_555
C29 C24 1_555 1_555
H19 C29 1_555 1_555
C30 N3 1_555 1_555
C31 C30 1_555 1_555
H20 C31 1_555 1_555
C32 C31 1_555 1_555
H21 C32 1_555 1_555
C33 C32 1_555 1_555
H22 C33 1_555 1_555
C34 C33 1_555 1_555
H23 C34 1_555 1_555
C35 C30 1_555 1_555
C36 C35 1_555 1_555
C37 C36 1_555 1_555
H24 C37 1_555 1_555
C38 C37 1_555 1_555
H25 C38 1_555 1_555
C39 C38 1_555 1_555
H26 C39 1_555 1_555
C40 C39 1_555 1_555
H27 C40 1_555 1_555
C41 N3 1_555 1_555
O3 C42 1_555 1_555
C42 H28 1_555 1_555
H29 C42 1_555 1_555
C43 C42 1_555 1_555
H30 C43 1_555 1_555
H31 C43 1_555 1_555
C44 C43 1_555 1_555
H32 C44 1_555 1_555
H33 C44 1_555 1_555
C45 O3 1_555 1_555
H34 C45 1_555 1_555
H35 C45 1_555 1_555
O4 C46 1_555 1_555
C46 H36 1_555 1_555
H37 C46 1_555 1_555
C47 C46 1_555 1_555
H38 C47 1_555 1_555
H39 C47 1_555 1_555
C48 C47 1_555 1_555
H40 C48 1_555 1_555
H41 C48 1_555 1_555
C49 O4 1_555 1_555
H42 C49 1_555 1_555
H43 C49 1_555 1_555
C4 C5 1_555 1_555
C10 C11 1_555 1_555
C16 C17 1_555 1_555
C18 C23 1_555 1_555
C22 C23 1_555 1_555
C28 C29 1_555 1_555
C34 C35 1_555 1_555
C36 C41 1_555 1_555
C40 C41 1_555 1_555
C44 C45 1_555 1_555
C48 C49 1_555 1_555

#END
