
#######################################################################
#
#                 Cambridge Crystallographic Data Centre
#                                CCDC 
#
#######################################################################
#
# If this CIF has been generated from an entry in the Cambridge 
# Structural Database, then it will include bibliographic, chemical, 
# crystal, experimental, refinement or atomic coordinate data resulting 
# from the CCDC's data processing and validation procedures.
#
#######################################################################

data_VULQUQ
_chemical_formula_moiety         'C62 H54 N2 O4,2(C1 H2 Cl2)'
_chemical_name_systematic        
"4,7,11,14-tetrakis(4-methylphenyl)-2,9-bis(pentan-3-yl)isoquinolino[4',5',6':6,5,10]anthra[2,1,9-def]isoquinoline-1,3,8,10(2H,9H)-tetrone dichloromethane solvate"
_symmetry_cell_setting           monoclinic
_symmetry_space_group_name_H-M   'C 2/c'
_symmetry_Int_Tables_number      15
_space_group_name_Hall           '-C 2yn'
loop_
_symmetry_equiv_pos_site_id
_symmetry_equiv_pos_as_xyz
1 x,y,z
2 -x,y,1/2-z
3 1/2+x,1/2+y,z
4 1/2-x,1/2+y,1/2-z
5 -x,-y,-z
6 x,-y,1/2+z
7 1/2-x,1/2-y,-z
8 1/2+x,1/2-y,1/2+z
_cell_length_a                   38.429(16)
_cell_length_b                   8.548(3)
_cell_length_c                   17.774(8)
_cell_angle_alpha                90
_cell_angle_beta                 112.242(6)
_cell_angle_gamma                90
_cell_volume                     5404.17
_exptl_crystal_colour            red
_exptl_crystal_description       block
_cell_formula_units_Z            4
loop_
_atom_site_label
_atom_site_type_symbol
_atom_site_fract_x
_atom_site_fract_y
_atom_site_fract_z
Cl1 Cl 0.0679(2) 0.8732(6) 0.2754(3)
Cl2 Cl 0.02152(12) 0.9199(7) 0.1070(4)
C1 C 0.0439(4) 0.9988(15) 0.2034(9)
H1 H 0.0610 1.0799 0.2004
H2 H 0.0251 1.0483 0.2195
O1 O 0.19463(12) 0.4374(5) 0.1415(3)
O2 O 0.09872(12) 0.2868(6) 0.2164(3)
N1 N 0.14599(13) 0.3613(6) 0.1772(3)
C2 C 0.24930(16) 0.3043(7) 0.2887(4)
C3 C 0.27362(17) 0.2701(8) 0.3675(4)
H3 H 0.2988 0.2532 0.3767
C4 C 0.26268(16) 0.2597(7) 0.4330(3)
C5 C 0.22397(16) 0.2801(7) 0.4182(4)
C6 C 0.21062(17) 0.2703(8) 0.4835(3)
C7 C 0.17261(17) 0.2889(8) 0.4651(3)
H4 H 0.1639 0.2851 0.5073
C8 C 0.14605(17) 0.3133(8) 0.3849(4)
C9 C 0.15865(16) 0.3195(7) 0.3211(3)
C10 C 0.19810(17) 0.3071(7) 0.3385(3)
C11 C 0.21136(16) 0.3245(7) 0.2736(3)
C12 C 0.18423(16) 0.3796(7) 0.1932(3)
C13 C 0.13146(16) 0.3207(7) 0.2357(4)
C14 C 0.26619(16) 0.3069(7) 0.2256(3)
C15 C 0.29711(16) 0.4020(8) 0.2357(4)
H5 H 0.3057 0.4704 0.2796
C16 C 0.31565(19) 0.3970(9) 0.1812(4)
H6 H 0.3362 0.4618 0.1890
C17 C 0.30319(19) 0.2945(9) 0.1152(4)
C18 C 0.27305(19) 0.1963(9) 0.1054(4)
H7 H 0.2654 0.1244 0.0630
C19 C 0.25408(19) 0.2044(8) 0.1588(4)
H8 H 0.2332 0.1412 0.1499
C20 C 0.3237(2) 0.2899(12) 0.0572(5)
H9 H 0.3150 0.2022 0.0212
H10 H 0.3502 0.2799 0.0877
H11 H 0.3189 0.3849 0.0261
C21 C 0.11810(17) 0.3994(8) 0.0929(4)
H12 H 0.1329 0.4305 0.0611
C22 C 0.0958(2) 0.2525(10) 0.0510(4)
H13 H 0.0744 0.2419 0.0672
H14 H 0.0858 0.2701 -0.0072
C23 C 0.1167(3) 0.1001(11) 0.0677(5)
H15 H 0.0992 0.0155 0.0472
H16 H 0.1299 0.0878 0.1252
H17 H 0.1343 0.0995 0.0412
C24 C 0.09438(18) 0.5371(9) 0.0936(5)
H18 H 0.0785 0.5620 0.0378
H19 H 0.0780 0.5076 0.1214
C25 C 0.1153(2) 0.6811(10) 0.1327(6)
H20 H 0.1299 0.7173 0.1028
H21 H 0.1316 0.6579 0.1876
H22 H 0.0977 0.7609 0.1329
C26 C 0.10623(18) 0.3335(8) 0.3767(4)
C27 C 0.08660(18) 0.4722(9) 0.3474(4)
H23 H 0.0975 0.5515 0.3279
C28 C 0.05063(18) 0.4914(10) 0.3475(5)
H24 H 0.0381 0.5854 0.3289
C29 C 0.03322(18) 0.3791(10) 0.3733(4)
C30 C 0.05222(18) 0.2359(10) 0.4005(4)
H25 H 0.0407 0.1549 0.4174
C31 C 0.08822(19) 0.2181(9) 0.4017(4)
H26 H 0.1007 0.1241 0.4201
C32 C -0.0058(2) 0.4059(13) 0.3752(6)
H27 H -0.0246 0.3899 0.3218
H28 H -0.0075 0.5110 0.3924
H29 H -0.0098 0.3336 0.4124
O1F O 0.30537(12) 0.0626(5) 0.8585(3)
O2F O 0.40128(12) 0.2132(6) 0.7836(3)
N1F N 0.35401(13) 0.1387(6) 0.8228(3)
C2F C 0.25070(16) 0.1957(7) 0.7113(4)
C3F C 0.22638(17) 0.2299(8) 0.6325(4)
H3F H 0.2012 0.2468 0.6233
C4F C 0.23732(16) 0.2403(7) 0.5670(3)
C5F C 0.27603(16) 0.2199(7) 0.5818(4)
C6F C 0.28938(17) 0.2297(8) 0.5165(3)
C7F C 0.32739(17) 0.2111(8) 0.5349(3)
H4F H 0.3361 0.2149 0.4927
C8F C 0.35395(17) 0.1867(8) 0.6151(4)
C9F C 0.34135(16) 0.1805(7) 0.6789(3)
C10F C 0.30190(17) 0.1929(7) 0.6615(3)
C11F C 0.28864(16) 0.1755(7) 0.7264(3)
C12F C 0.31577(16) 0.1204(7) 0.8068(3)
C13F C 0.36854(16) 0.1793(7) 0.7643(4)
C14F C 0.23381(16) 0.1931(7) 0.7744(3)
C15F C 0.20289(16) 0.0980(8) 0.7643(4)
H5F H 0.1943 0.0296 0.7204
C16F C 0.18435(19) 0.1030(9) 0.8188(4)
H6F H 0.1638 0.0382 0.8110
C17F C 0.19681(19) 0.2055(9) 0.8848(4)
C18F C 0.22695(19) 0.3037(9) 0.8946(4)
H7F H 0.2346 0.3756 0.9370
C19F C 0.24592(19) 0.2956(8) 0.8412(4)
H8F H 0.2668 0.3588 0.8501
C20F C 0.1763(2) 0.2101(12) 0.9428(5)
H9F H 0.1850 0.2978 0.9788
H10F H 0.1498 0.2201 0.9123
H11F H 0.1811 0.1151 0.9739
C21F C 0.38190(17) 0.1006(8) 0.9071(4)
H12F H 0.3671 0.0695 0.9389
C22F C 0.4042(2) 0.2475(10) 0.9490(4)
H13F H 0.4256 0.2581 0.9328
H14F H 0.4142 0.2299 1.0072
C23F C 0.3833(3) 0.3999(11) 0.9323(5)
H15F H 0.4008 0.4845 0.9528
H16F H 0.3701 0.4122 0.8748
H17F H 0.3657 0.4005 0.9588
C24F C 0.40562(18) -0.0371(9) 0.9064(5)
H18F H 0.4215 -0.0620 0.9622
H19F H 0.4220 -0.0076 0.8786
C25F C 0.3847(2) -0.1811(10) 0.8673(6)
H20F H 0.3701 -0.2173 0.8972
H21F H 0.3684 -0.1579 0.8124
H22F H 0.4023 -0.2609 0.8671
C26F C 0.39377(18) 0.1665(8) 0.6233(4)
C27F C 0.41340(18) 0.0278(9) 0.6526(4)
H23F H 0.4025 -0.0515 0.6721
C28F C 0.44937(18) 0.0086(10) 0.6525(5)
H24F H 0.4619 -0.0854 0.6711
C29F C 0.46678(18) 0.1209(10) 0.6267(4)
C30F C 0.44778(18) 0.2641(10) 0.5995(4)
H25F H 0.4593 0.3451 0.5826
C31F C 0.41178(19) 0.2819(9) 0.5983(4)
H26F H 0.3993 0.3759 0.5799
C32F C 0.5058(2) 0.0941(13) 0.6248(6)
H27F H 0.5246 0.1101 0.6782
H28F H 0.5075 -0.0110 0.6076
H29F H 0.5098 0.1664 0.5876
loop_
_geom_bond_atom_site_label_1
_geom_bond_atom_site_label_2
_geom_bond_site_symmetry_1
_geom_bond_site_symmetry_2
Cl1 C1 1_555 1_555
Cl2 C1 1_555 1_555
C1 H1 1_555 1_555
H2 C1 1_555 1_555
O1 C12 1_555 1_555
O2 C13 1_555 1_555
N1 C12 1_555 1_555
C2 C3 1_555 1_555
C3 H3 1_555 1_555
C4 C3 1_555 1_555
C5 C4 1_555 1_555
C6 C5 1_555 1_555
C7 C6 1_555 1_555
H4 C7 1_555 1_555
C8 C7 1_555 1_555
C9 C8 1_555 1_555
C10 C5 1_555 1_555
C11 C2 1_555 1_555
C12 C11 1_555 1_555
C13 N1 1_555 1_555
C14 C2 1_555 1_555
C15 C14 1_555 1_555
H5 C15 1_555 1_555
C16 C15 1_555 1_555
H6 C16 1_555 1_555
C17 C16 1_555 1_555
C18 C17 1_555 1_555
H7 C18 1_555 1_555
C19 C14 1_555 1_555
H8 C19 1_555 1_555
C20 C17 1_555 1_555
H9 C20 1_555 1_555
H10 C20 1_555 1_555
H11 C20 1_555 1_555
C21 N1 1_555 1_555
H12 C21 1_555 1_555
C22 C21 1_555 1_555
H13 C22 1_555 1_555
H14 C22 1_555 1_555
C23 C22 1_555 1_555
H15 C23 1_555 1_555
H16 C23 1_555 1_555
H17 C23 1_555 1_555
C24 C21 1_555 1_555
H18 C24 1_555 1_555
H19 C24 1_555 1_555
C25 C24 1_555 1_555
H20 C25 1_555 1_555
H21 C25 1_555 1_555
H22 C25 1_555 1_555
C26 C8 1_555 1_555
C27 C26 1_555 1_555
H23 C27 1_555 1_555
C28 C27 1_555 1_555
H24 C28 1_555 1_555
C29 C28 1_555 1_555
C30 C29 1_555 1_555
H25 C30 1_555 1_555
C31 C26 1_555 1_555
H26 C31 1_555 1_555
C32 C29 1_555 1_555
H27 C32 1_555 1_555
H28 C32 1_555 1_555
H29 C32 1_555 1_555
O1F C12F 1_555 1_555
O2F C13F 1_555 1_555
N1F C12F 1_555 1_555
C2F C3F 1_555 1_555
C3F H3F 1_555 1_555
C4F C6 1_555 1_555
C5F C4F 1_555 1_555
C6F C4 1_555 1_555
C7F C6F 1_555 1_555
H4F C7F 1_555 1_555
C8F C7F 1_555 1_555
C9F C8F 1_555 1_555
C10F C5F 1_555 1_555
C11F C2F 1_555 1_555
C12F C11F 1_555 1_555
C13F N1F 1_555 1_555
C14F C2F 1_555 1_555
C15F C14F 1_555 1_555
H5F C15F 1_555 1_555
C16F C15F 1_555 1_555
H6F C16F 1_555 1_555
C17F C16F 1_555 1_555
C18F C17F 1_555 1_555
H7F C18F 1_555 1_555
C19F C14F 1_555 1_555
H8F C19F 1_555 1_555
C20F C17F 1_555 1_555
H9F C20F 1_555 1_555
H10F C20F 1_555 1_555
H11F C20F 1_555 1_555
C21F N1F 1_555 1_555
H12F C21F 1_555 1_555
C22F C21F 1_555 1_555
H13F C22F 1_555 1_555
H14F C22F 1_555 1_555
C23F C22F 1_555 1_555
H15F C23F 1_555 1_555
H16F C23F 1_555 1_555
H17F C23F 1_555 1_555
C24F C21F 1_555 1_555
H18F C24F 1_555 1_555
H19F C24F 1_555 1_555
C25F C24F 1_555 1_555
H20F C25F 1_555 1_555
H21F C25F 1_555 1_555
H22F C25F 1_555 1_555
C26F C8F 1_555 1_555
C27F C26F 1_555 1_555
H23F C27F 1_555 1_555
C28F C27F 1_555 1_555
H24F C28F 1_555 1_555
C29F C28F 1_555 1_555
C30F C29F 1_555 1_555
H25F C30F 1_555 1_555
C31F C26F 1_555 1_555
H26F C31F 1_555 1_555
C32F C29F 1_555 1_555
H27F C32F 1_555 1_555
H28F C32F 1_555 1_555
H29F C32F 1_555 1_555
C9 C10 1_555 1_555
C9 C13 1_555 1_555
C10 C11 1_555 1_555
C18 C19 1_555 1_555
C30 C31 1_555 1_555
C3F C4F 1_555 1_555
C5F C6F 1_555 1_555
C9F C10F 1_555 1_555
C9F C13F 1_555 1_555
C10F C11F 1_555 1_555
C18F C19F 1_555 1_555
C30F C31F 1_555 1_555

#END
