
#######################################################################
#
#                 Cambridge Crystallographic Data Centre
#                                CCDC 
#
#######################################################################
#
# If this CIF has been generated from an entry in the Cambridge 
# Structural Database, then it will include bibliographic, chemical, 
# crystal, experimental, refinement or atomic coordinate data resulting 
# from the CCDC's data processing and validation procedures.
#
#######################################################################

data_VUNMUN
_chemical_formula_moiety         'C16 H13 N1 O3'
_chemical_name_systematic        3-Benzoyl-5-phenyl-1,3-oxazolidin-2-one
_symmetry_cell_setting           monoclinic
_symmetry_space_group_name_H-M   'P 21'
_symmetry_Int_Tables_number      4
_space_group_name_Hall           'P 2yb'
loop_
_symmetry_equiv_pos_site_id
_symmetry_equiv_pos_as_xyz
1 x,y,z
2 -x,1/2+y,-z
_cell_length_a                   5.6326(3)
_cell_length_b                   18.9526(10)
_cell_length_c                   12.2105(9)
_cell_angle_alpha                90
_cell_angle_beta                 92.608(4)
_cell_angle_gamma                90
_cell_volume                     1302.15
_exptl_crystal_colour            colorless
_cell_formula_units_Z            4
loop_
_atom_site_label
_atom_site_type_symbol
_atom_site_fract_x
_atom_site_fract_y
_atom_site_fract_z
O1 O 0.4980(5) 0.69304(15) 0.5272(2)
O2 O 0.5474(5) 0.76485(14) 0.3847(2)
O3 O 1.1026(4) 0.59939(15) 0.4025(2)
N1 N 0.7894(5) 0.67241(16) 0.4024(3)
C1 C 0.6022(7) 0.70794(19) 0.4475(3)
C2 C 0.7464(7) 0.7793(2) 0.3148(3)
H1 H 0.8631 0.8106 0.3554
C3 C 0.8580(7) 0.7069(2) 0.3006(3)
H2 H 0.7900 0.6824 0.2348
H3 H 1.0328 0.7100 0.2963
C4 C 0.6605(7) 0.81572(18) 0.2102(3)
C5 C 0.4588(7) 0.7959(2) 0.1517(4)
H4 H 0.3620 0.7593 0.1786
C6 C 0.3948(8) 0.8289(3) 0.0536(4)
H5 H 0.2544 0.8149 0.0133
C7 C 0.5364(9) 0.8825(2) 0.0139(4)
H6 H 0.4947 0.9051 -0.0537
C8 C 0.7381(9) 0.9023(2) 0.0743(4)
H7 H 0.8360 0.9390 0.0486
C9 C 0.7980(7) 0.8691(2) 0.1715(4)
H8 H 0.9370 0.8834 0.2126
C10 C 0.9218(6) 0.61680(18) 0.4466(3)
C11 C 0.8445(6) 0.57991(18) 0.5463(3)
C12 C 0.6272(6) 0.54523(18) 0.5491(3)
H9 H 0.5130 0.5500 0.4899
C13 C 0.5784(6) 0.5038(2) 0.6384(3)
H10 H 0.4334 0.4783 0.6386
C14 C 0.7372(7) 0.49912(19) 0.7271(4)
H11 H 0.7000 0.4716 0.7890
C15 C 0.9526(6) 0.53494(18) 0.7256(3)
H12 H 1.0620 0.5325 0.7870
C16 C 1.0074(6) 0.57418(18) 0.6342(3)
H13 H 1.1570 0.5972 0.6319
O4 O 0.9355(4) 0.70686(13) 1.0445(2)
O5 O 0.9750(4) 0.75446(12) 0.8777(2)
O6 O 0.3325(4) 0.62200(15) 0.8894(2)
N2 N 0.6931(5) 0.67304(16) 0.8926(2)
C17 C 0.8751(6) 0.71003(18) 0.9492(3)
C18 C 0.8964(6) 0.73495(19) 0.7663(3)
H14 H 1.0037 0.6970 0.7406
C19 C 0.6509(6) 0.70240(19) 0.7828(3)
H15 H 0.5239 0.7385 0.7809
H16 H 0.6113 0.6653 0.7279
C20 C 0.9105(6) 0.79647(18) 0.6896(3)
C21 C 1.0909(6) 0.7974(2) 0.6160(3)
H17 H 1.2014 0.7596 0.6156
C22 C 1.1123(7) 0.8529(2) 0.5430(3)
H18 H 1.2376 0.8534 0.4935
C23 C 0.9497(7) 0.9074(2) 0.5431(4)
H19 H 0.9620 0.9454 0.4929
C24 C 0.7697(8) 0.9068(2) 0.6157(4)
H20 H 0.6584 0.9445 0.6152
C25 C 0.7495(7) 0.8522(2) 0.6890(4)
H21 H 0.6256 0.8526 0.7392
C26 C 0.5248(6) 0.62957(19) 0.9380(3)
C27 C 0.5912(6) 0.59121(18) 1.0400(3)
C28 C 0.8033(6) 0.55401(18) 1.0533(3)
H22 H 0.9169 0.5566 0.9983
C29 C 0.8505(6) 0.5135(2) 1.1451(3)
H23 H 0.9934 0.4870 1.1520
C30 C 0.6895(6) 0.5115(2) 1.2273(3)
H24 H 0.7232 0.4842 1.2913
C31 C 0.4797(7) 0.5493(2) 1.2164(3)
H25 H 0.3707 0.5483 1.2735
C32 C 0.4278(6) 0.58852(19) 1.1229(3)
H26 H 0.2819 0.6135 1.1150
loop_
_geom_bond_atom_site_label_1
_geom_bond_atom_site_label_2
_geom_bond_site_symmetry_1
_geom_bond_site_symmetry_2
O1 C1 1_555 1_555
O2 C1 1_555 1_555
O3 C10 1_555 1_555
N1 C1 1_555 1_555
C2 O2 1_555 1_555
H1 C2 1_555 1_555
C3 N1 1_555 1_555
H2 C3 1_555 1_555
H3 C3 1_555 1_555
C4 C2 1_555 1_555
C5 C4 1_555 1_555
H4 C5 1_555 1_555
C6 C5 1_555 1_555
H5 C6 1_555 1_555
C7 C6 1_555 1_555
H6 C7 1_555 1_555
C8 C7 1_555 1_555
H7 C8 1_555 1_555
C9 C4 1_555 1_555
H8 C9 1_555 1_555
C10 N1 1_555 1_555
C11 C10 1_555 1_555
C12 C11 1_555 1_555
H9 C12 1_555 1_555
C13 C12 1_555 1_555
H10 C13 1_555 1_555
C14 C13 1_555 1_555
H11 C14 1_555 1_555
C15 C14 1_555 1_555
H12 C15 1_555 1_555
C16 C11 1_555 1_555
H13 C16 1_555 1_555
O4 C17 1_555 1_555
O5 C17 1_555 1_555
O6 C26 1_555 1_555
N2 C17 1_555 1_555
C18 O5 1_555 1_555
H14 C18 1_555 1_555
C19 N2 1_555 1_555
H15 C19 1_555 1_555
H16 C19 1_555 1_555
C20 C18 1_555 1_555
C21 C20 1_555 1_555
H17 C21 1_555 1_555
C22 C21 1_555 1_555
H18 C22 1_555 1_555
C23 C22 1_555 1_555
H19 C23 1_555 1_555
C24 C23 1_555 1_555
H20 C24 1_555 1_555
C25 C20 1_555 1_555
H21 C25 1_555 1_555
C26 N2 1_555 1_555
C27 C26 1_555 1_555
C28 C27 1_555 1_555
H22 C28 1_555 1_555
C29 C28 1_555 1_555
H23 C29 1_555 1_555
C30 C29 1_555 1_555
H24 C30 1_555 1_555
C31 C30 1_555 1_555
H25 C31 1_555 1_555
C32 C27 1_555 1_555
H26 C32 1_555 1_555
C2 C3 1_555 1_555
C8 C9 1_555 1_555
C15 C16 1_555 1_555
C18 C19 1_555 1_555
C24 C25 1_555 1_555
C31 C32 1_555 1_555

#END
