
#######################################################################
#
#                 Cambridge Crystallographic Data Centre
#                                CCDC 
#
#######################################################################
#
# If this CIF has been generated from an entry in the Cambridge 
# Structural Database, then it will include bibliographic, chemical, 
# crystal, experimental, refinement or atomic coordinate data resulting 
# from the CCDC's data processing and validation procedures.
#
#######################################################################

data_VUNNOJ
_chemical_formula_moiety         'C37 H57 N1'
_chemical_name_systematic        
3-(2-(6-ethylpyridin-2-yl)prop-1-en-1-yl)cholest-5-ene
_symmetry_cell_setting           orthorhombic
_symmetry_space_group_name_H-M   'P 21 21 21'
_symmetry_Int_Tables_number      19
_space_group_name_Hall           'P 2ac 2ab'
loop_
_symmetry_equiv_pos_site_id
_symmetry_equiv_pos_as_xyz
1 x,y,z
2 1/2-x,-y,1/2+z
3 -x,1/2+y,1/2-z
4 1/2+x,1/2-y,-z
_cell_length_a                   7.6206(10)
_cell_length_b                   13.630(2)
_cell_length_c                   30.139(4)
_cell_angle_alpha                90
_cell_angle_beta                 90
_cell_angle_gamma                90
_cell_volume                     3130.5
_exptl_crystal_colour            colorless
_exptl_crystal_description       needle
_cell_formula_units_Z            4
_exptl_crystal_recrystallization_method 'methanol and dichloromethane'
loop_
_atom_site_label
_atom_site_type_symbol
_atom_site_fract_x
_atom_site_fract_y
_atom_site_fract_z
N1 N 0.7683(4) 1.32175(19) 0.20522(8)
C1 C 0.7520(7) 1.5634(3) 0.26364(12)
H1 H 0.6365 1.5541 0.2773
H2 H 0.7598 1.6298 0.2513
H3 H 0.8436 1.5544 0.2861
C2 C 0.7762(8) 1.4911(3) 0.22785(13)
H4 H 0.7994 1.5111 0.1982
C3 C 0.7628(5) 1.3838(2) 0.23997(10)
C4 C 0.7470(5) 1.3505(2) 0.28292(10)
H5 H 0.7454 1.3954 0.3071
C5 C 0.7334(6) 1.2515(2) 0.29026(10)
H6 H 0.7213 1.2268 0.3196
C6 C 0.7375(6) 1.1882(2) 0.25474(9)
H7 H 0.7286 1.1194 0.2594
C7 C 0.7545(5) 1.2251(2) 0.21214(8)
C8 C 0.7586(4) 1.1623(2) 0.17158(8)
C9 C 0.7645(5) 1.2150(2) 0.12798(9)
H8 H 0.7727 1.1671 0.1038
H9 H 0.8671 1.2583 0.1272
H10 H 0.6576 1.2541 0.1244
C10 C 0.7553(5) 1.0653(2) 0.17484(9)
H11 H 0.7527 1.0407 0.2043
C11 C 0.7755(5) 0.7148(2) 0.15737(9)
H12 H 0.7667 0.7604 0.1824
H13 H 0.8891 0.6812 0.1584
H14 H 0.6809 0.6663 0.1593
C12 C 0.9166(4) 0.8420(2) 0.10817(11)
H15 H 1.0259 0.8034 0.1116
H16 H 0.9157 0.8691 0.0777
C13 C 0.9210(5) 0.9270(2) 0.14094(11)
H17 H 0.9364 0.9007 0.1713
H18 H 1.0232 0.9693 0.1342
C14 C 0.7593(4) 0.7724(2) 0.11328(8)
C15 C 0.5920(4) 0.8334(2) 0.11509(10)
C16 C 0.5954(5) 0.9216(2) 0.14520(10)
H19 H 0.5920 0.8986 0.1763
H20 H 0.4878 0.9607 0.1399
C17 C 0.7548(5) 0.9886(2) 0.13936(8)
H21 H 0.7472 1.0215 0.1098
C18 C 0.4499(4) 0.8098(2) 0.09235(10)
H22 H 0.3522 0.8528 0.0946
C19 C 0.4287(4) 0.7217(2) 0.06340(11)
H23 H 0.4206 0.7433 0.0321
H24 H 0.3172 0.6885 0.0711
C20 C 0.5801(4) 0.6479(2) 0.06782(10)
H25 H 0.5607 0.6064 0.0948
C21 C 0.9098(4) 0.6307(3) 0.07058(11)
H26 H 1.0203 0.6690 0.0707
H27 H 0.9085 0.5896 0.0976
C22 C 0.7539(4) 0.7024(2) 0.07242(8)
H28 H 0.7643 0.7452 0.0456
C23 C 0.9085(4) 0.5639(2) 0.03000(10)
H29 H 1.0078 0.5173 0.0320
H30 H 0.9253 0.6041 0.0030
C24 C 0.7214(4) 0.4314(2) 0.06346(9)
H31 H 0.8177 0.3840 0.0613
H32 H 0.6090 0.3969 0.0610
H33 H 0.7275 0.4652 0.0921
C25 C 0.7370(4) 0.50634(19) 0.02600(8)
C26 C 0.5873(4) 0.5820(2) 0.02683(10)
H34 H 0.6105 0.6271 0.0013
C27 C 0.4259(4) 0.5231(2) 0.01377(10)
H35 H 0.3362 0.5657 -0.0001
H36 H 0.3738 0.4901 0.0399
C28 C 0.6986(4) 0.4579(2) -0.01955(9)
H37 H 0.7281 0.5078 -0.0427
C29 C 0.4969(4) 0.4473(3) -0.01976(11)
H38 H 0.4496 0.4604 -0.0498
H39 H 0.4626 0.3801 -0.0108
C30 C 0.7908(4) 0.3625(2) -0.03327(9)
H40 H 0.7400 0.3079 -0.0152
C31 C 0.9886(4) 0.3633(3) -0.02570(11)
H41 H 1.0395 0.4216 -0.0397
H42 H 1.0405 0.3042 -0.0388
H43 H 1.0128 0.3647 0.0062
C32 C 0.7515(5) 0.3410(2) -0.08275(9)
H44 H 0.6287 0.3603 -0.0889
H45 H 0.8283 0.3832 -0.1011
C33 C 0.7761(5) 0.2357(2) -0.09746(9)
H46 H 0.6849 0.1943 -0.0834
H47 H 0.8920 0.2120 -0.0872
C34 C 0.7646(5) 0.2248(2) -0.14777(9)
H48 H 0.6446 0.2432 -0.1573
H49 H 0.8469 0.2721 -0.1615
C35 C 0.8052(6) 0.1232(3) -0.16581(11)
H50 H 0.9304 0.1084 -0.1585
C36 C 0.7895(7) 0.1261(3) -0.21708(11)
H51 H 0.8272 0.0630 -0.2294
H52 H 0.8641 0.1786 -0.2288
H53 H 0.6672 0.1386 -0.2254
C37 C 0.6980(8) 0.0446(3) -0.14657(13)
H54 H 0.7172 0.0421 -0.1144
H55 H 0.7315 -0.0183 -0.1598
H56 H 0.5738 0.0576 -0.1526
loop_
_geom_bond_atom_site_label_1
_geom_bond_atom_site_label_2
_geom_bond_site_symmetry_1
_geom_bond_site_symmetry_2
N1 C3 1_555 1_555
C1 H1 1_555 1_555
H2 C1 1_555 1_555
H3 C1 1_555 1_555
C2 C1 1_555 1_555
H4 C2 1_555 1_555
C3 C2 1_555 1_555
C4 C3 1_555 1_555
H5 C4 1_555 1_555
C5 C4 1_555 1_555
H6 C5 1_555 1_555
C6 C5 1_555 1_555
H7 C6 1_555 1_555
C7 N1 1_555 1_555
C8 C7 1_555 1_555
C9 C8 1_555 1_555
H8 C9 1_555 1_555
H9 C9 1_555 1_555
H10 C9 1_555 1_555
C10 C8 1_555 1_555
H11 C10 1_555 1_555
C11 H12 1_555 1_555
H13 C11 1_555 1_555
H14 C11 1_555 1_555
C12 H15 1_555 1_555
H16 C12 1_555 1_555
C13 C12 1_555 1_555
H17 C13 1_555 1_555
H18 C13 1_555 1_555
C14 C11 1_555 1_555
C15 C14 1_555 1_555
C16 C15 1_555 1_555
H19 C16 1_555 1_555
H20 C16 1_555 1_555
C17 C10 1_555 1_555
H21 C17 1_555 1_555
C18 C15 1_555 1_555
H22 C18 1_555 1_555
C19 C18 1_555 1_555
H23 C19 1_555 1_555
H24 C19 1_555 1_555
C20 C19 1_555 1_555
H25 C20 1_555 1_555
C21 H26 1_555 1_555
H27 C21 1_555 1_555
C22 C14 1_555 1_555
H28 C22 1_555 1_555
C23 C21 1_555 1_555
H29 C23 1_555 1_555
H30 C23 1_555 1_555
C24 H31 1_555 1_555
H32 C24 1_555 1_555
H33 C24 1_555 1_555
C25 C23 1_555 1_555
C26 C20 1_555 1_555
H34 C26 1_555 1_555
C27 C26 1_555 1_555
H35 C27 1_555 1_555
H36 C27 1_555 1_555
C28 C25 1_555 1_555
H37 C28 1_555 1_555
C29 C27 1_555 1_555
H38 C29 1_555 1_555
H39 C29 1_555 1_555
C30 C28 1_555 1_555
H40 C30 1_555 1_555
C31 C30 1_555 1_555
H41 C31 1_555 1_555
H42 C31 1_555 1_555
H43 C31 1_555 1_555
C32 C30 1_555 1_555
H44 C32 1_555 1_555
H45 C32 1_555 1_555
C33 C32 1_555 1_555
H46 C33 1_555 1_555
H47 C33 1_555 1_555
C34 C33 1_555 1_555
H48 C34 1_555 1_555
H49 C34 1_555 1_555
C35 C34 1_555 1_555
H50 C35 1_555 1_555
C36 C35 1_555 1_555
H51 C36 1_555 1_555
H52 C36 1_555 1_555
H53 C36 1_555 1_555
C37 C35 1_555 1_555
H54 C37 1_555 1_555
H55 C37 1_555 1_555
H56 C37 1_555 1_555
C6 C7 1_555 1_555
C12 C14 1_555 1_555
C13 C17 1_555 1_555
C16 C17 1_555 1_555
C20 C22 1_555 1_555
C21 C22 1_555 1_555
C24 C25 1_555 1_555
C25 C26 1_555 1_555
C28 C29 1_555 1_555

#END
