
#######################################################################
#
#                 Cambridge Crystallographic Data Centre
#                                CCDC 
#
#######################################################################
#
# If this CIF has been generated from an entry in the Cambridge 
# Structural Database, then it will include bibliographic, chemical, 
# crystal, experimental, refinement or atomic coordinate data resulting 
# from the CCDC's data processing and validation procedures.
#
#######################################################################

data_VUNPUQ
_chemical_formula_moiety         'C52 H42 N4 O2,4(C1 H1 Cl3)'
_chemical_name_systematic        
'5,12-bis(4-(9H-carbazol-9-yl)butyl)-5,12-dihydroquino[2,3-b]acridine-7,14-dione chloroform solvate'
_symmetry_cell_setting           monoclinic
_symmetry_space_group_name_H-M   'P 21/c'
_symmetry_Int_Tables_number      14
_space_group_name_Hall           '-P 2ybc'
loop_
_symmetry_equiv_pos_site_id
_symmetry_equiv_pos_as_xyz
1 x,y,z
2 -x,1/2+y,1/2-z
3 -x,-y,-z
4 x,1/2-y,1/2+z
_cell_length_a                   13.8066(6)
_cell_length_b                   18.7678(10)
_cell_length_c                   11.3177(5)
_cell_angle_alpha                90
_cell_angle_beta                 111.467(9)
_cell_angle_gamma                90
_cell_volume                     2729.2
_exptl_crystal_colour            red
_exptl_crystal_description       block
_cell_formula_units_Z            2
loop_
_atom_site_label
_atom_site_type_symbol
_atom_site_fract_x
_atom_site_fract_y
_atom_site_fract_z
C1 C 0.2168(2) 0.49269(17) 0.6446(3)
C2 C 0.2578(2) 0.54180(17) 0.7504(3)
C3 C 0.3645(2) 0.53983(19) 0.8249(3)
H1 H 0.4075 0.5054 0.8067
C4 C 0.4076(3) 0.5862(2) 0.9227(3)
H2 H 0.4800 0.5845 0.9720
C5 C 0.3442(3) 0.6359(2) 0.9489(3)
H3 H 0.3739 0.6690 1.0160
C6 C 0.2386(3) 0.63836(18) 0.8798(3)
H4 H 0.1965 0.6717 0.9022
C7 C 0.1925(2) 0.59212(16) 0.7766(3)
C8 C 0.1058(2) 0.49765(16) 0.5716(3)
C9 C 0.0445(2) 0.54883(16) 0.6032(3)
C10 C -0.0619(2) 0.54903(16) 0.5291(3)
H5 H -0.1058 0.5823 0.5484
C11 C 0.0219(2) 0.64976(16) 0.7303(3)
H6 H -0.0319 0.6658 0.6495
H7 H 0.0648 0.6916 0.7709
C12 C -0.0310(2) 0.62114(16) 0.8168(3)
H8 H 0.0217 0.6163 0.9036
H9 H -0.0583 0.5729 0.7873
C13 C -0.1208(2) 0.66751(17) 0.8229(3)
H10 H -0.1574 0.6884 0.7378
H11 H -0.1710 0.6361 0.8418
C14 C -0.0911(2) 0.72776(18) 0.9195(3)
H12 H -0.1551 0.7529 0.9159
H13 H -0.0586 0.7071 1.0056
C15 C 0.0866(2) 0.78309(17) 0.9680(3)
C16 C 0.1477(3) 0.74599(18) 1.0761(3)
H14 H 0.1184 0.7109 1.1136
C17 C 0.2516(3) 0.7619(2) 1.1265(4)
H15 H 0.2948 0.7377 1.2009
C18 C 0.2956(3) 0.8123(2) 1.0721(4)
H16 H 0.3682 0.8216 1.1092
C19 C 0.2364(3) 0.84901(19) 0.9656(4)
H17 H 0.2673 0.8834 0.9289
C20 C 0.1288(2) 0.83498(17) 0.9112(3)
C21 C 0.0446(2) 0.86355(16) 0.8054(3)
C22 C 0.0358(3) 0.91714(18) 0.7155(3)
H18 H 0.0957 0.9418 0.7150
C23 C -0.0613(3) 0.93326(19) 0.6283(3)
H19 H -0.0678 0.9690 0.5664
C24 C -0.1501(3) 0.89822(19) 0.6288(3)
H20 H -0.2161 0.9113 0.5684
C25 C -0.1444(2) 0.84559(18) 0.7142(3)
H21 H -0.2052 0.8217 0.7136
C26 C -0.0462(2) 0.82791(16) 0.8027(3)
N1 N 0.08822(18) 0.59600(13) 0.7030(2)
N2 N -0.01990(18) 0.77916(13) 0.8999(2)
O1 O 0.27302(16) 0.44928(13) 0.6170(2)
C1B C -0.2168(2) 0.50731(17) 0.3554(3)
C2B C -0.2578(2) 0.45820(17) 0.2496(3)
C3B C -0.3645(2) 0.46017(19) 0.1751(3)
H1B H -0.4075 0.4946 0.1933
C4B C -0.4076(3) 0.4138(2) 0.0773(3)
H2B H -0.4800 0.4155 0.0280
C5B C -0.3442(3) 0.3641(2) 0.0511(3)
H3B H -0.3739 0.3310 -0.0160
C6B C -0.2386(3) 0.36164(18) 0.1202(3)
H4B H -0.1965 0.3283 0.0978
C7B C -0.1925(2) 0.40788(16) 0.2234(3)
C8B C -0.1058(2) 0.50235(16) 0.4284(3)
C9B C -0.0445(2) 0.45117(16) 0.3968(3)
C10B C 0.0619(2) 0.45097(16) 0.4709(3)
H5B H 0.1058 0.4177 0.4516
C11B C -0.0219(2) 0.35024(16) 0.2697(3)
H6B H 0.0319 0.3342 0.3505
H7B H -0.0648 0.3084 0.2291
C12B C 0.0310(2) 0.37886(16) 0.1832(3)
H8B H -0.0217 0.3837 0.0964
H9B H 0.0583 0.4271 0.2127
C13B C 0.1208(2) 0.33249(17) 0.1771(3)
H10B H 0.1574 0.3116 0.2622
H11B H 0.1710 0.3639 0.1582
C14B C 0.0911(2) 0.27224(18) 0.0805(3)
H12B H 0.1551 0.2471 0.0841
H13B H 0.0586 0.2929 -0.0056
C15B C -0.0866(2) 0.21691(17) 0.0320(3)
C16B C -0.1477(3) 0.25401(18) -0.0761(3)
H14B H -0.1184 0.2891 -0.1136
C17B C -0.2516(3) 0.2381(2) -0.1265(4)
H15B H -0.2948 0.2623 -0.2009
C18B C -0.2956(3) 0.1877(2) -0.0721(4)
H16B H -0.3682 0.1784 -0.1092
C19B C -0.2364(3) 0.15099(19) 0.0344(4)
H17B H -0.2673 0.1166 0.0711
C20B C -0.1288(2) 0.16502(17) 0.0888(3)
C21B C -0.0446(2) 0.13645(16) 0.1946(3)
C22B C -0.0358(3) 0.08286(18) 0.2845(3)
H18B H -0.0957 0.0582 0.2850
C23B C 0.0613(3) 0.06674(19) 0.3717(3)
H19B H 0.0678 0.0310 0.4336
C24B C 0.1501(3) 0.10178(19) 0.3712(3)
H20B H 0.2161 0.0887 0.4316
C25B C 0.1444(2) 0.15441(18) 0.2858(3)
H21B H 0.2052 0.1783 0.2864
C26B C 0.0462(2) 0.17209(16) 0.1973(3)
N1B N -0.08822(18) 0.40400(13) 0.2970(2)
N2B N 0.01990(18) 0.22084(13) 0.1001(2)
O1B O -0.27302(16) 0.55072(13) 0.3830(2)
C27 C 0.3917(4) 0.4751(3) 0.2908(4)
H22 H 0.4618 0.4981 0.3274
Cl1 Cl 0.31187(18) 0.52568(9) 0.16039(15)
Cl2 Cl 0.40552(9) 0.38962(8) 0.23890(14)
Cl3 Cl 0.33722(11) 0.47186(7) 0.40486(12)
C28 C 0.5891(2) 0.6772(2) 0.3786(3)
H23 H 0.6256 0.6302 0.3955
Cl4 Cl 0.66622(8) 0.73908(7) 0.48776(10)
Cl5 Cl 0.47064(7) 0.66775(8) 0.39822(12)
Cl6 Cl 0.57142(8) 0.70346(7) 0.22431(9)
loop_
_geom_bond_atom_site_label_1
_geom_bond_atom_site_label_2
_geom_bond_site_symmetry_1
_geom_bond_site_symmetry_2
C1 C2 1_555 1_555
C2 C3 1_555 1_555
C3 H1 1_555 1_555
C4 C3 1_555 1_555
H2 C4 1_555 1_555
C5 C4 1_555 1_555
H3 C5 1_555 1_555
C6 C5 1_555 1_555
H4 C6 1_555 1_555
C7 C2 1_555 1_555
C8 C1 1_555 1_555
C9 C8 1_555 1_555
C10 C9 1_555 1_555
H5 C10 1_555 1_555
C11 H6 1_555 1_555
H7 C11 1_555 1_555
C12 C11 1_555 1_555
H8 C12 1_555 1_555
H9 C12 1_555 1_555
C13 C12 1_555 1_555
H10 C13 1_555 1_555
H11 C13 1_555 1_555
C14 C13 1_555 1_555
H12 C14 1_555 1_555
H13 C14 1_555 1_555
C15 C16 1_555 1_555
C16 H14 1_555 1_555
C17 C16 1_555 1_555
H15 C17 1_555 1_555
C18 C17 1_555 1_555
H16 C18 1_555 1_555
C19 C18 1_555 1_555
H17 C19 1_555 1_555
C20 C15 1_555 1_555
C21 C20 1_555 1_555
C22 C21 1_555 1_555
H18 C22 1_555 1_555
C23 C22 1_555 1_555
H19 C23 1_555 1_555
C24 C23 1_555 1_555
H20 C24 1_555 1_555
C25 C24 1_555 1_555
H21 C25 1_555 1_555
C26 C21 1_555 1_555
C27 H22 1_555 1_555
C28 H23 1_555 1_555
Cl1 C27 1_555 1_555
Cl2 C27 1_555 1_555
Cl3 C27 1_555 1_555
Cl4 C28 1_555 1_555
Cl5 C28 1_555 1_555
Cl6 C28 1_555 1_555
N1 C7 1_555 1_555
N2 C14 1_555 1_555
O1 C1 1_555 1_555
C1B C2B 1_555 1_555
C2B C3B 1_555 1_555
C3B H1B 1_555 1_555
C4B C3B 1_555 1_555
H2B C4B 1_555 1_555
C5B C4B 1_555 1_555
H3B C5B 1_555 1_555
C6B C5B 1_555 1_555
H4B C6B 1_555 1_555
C7B C2B 1_555 1_555
C8B C10 1_555 1_555
C9B C8B 1_555 1_555
C10B C8 1_555 1_555
H5B C10B 1_555 1_555
C11B H6B 1_555 1_555
H7B C11B 1_555 1_555
C12B C11B 1_555 1_555
H8B C12B 1_555 1_555
H9B C12B 1_555 1_555
C13B C12B 1_555 1_555
H10B C13B 1_555 1_555
H11B C13B 1_555 1_555
C14B C13B 1_555 1_555
H12B C14B 1_555 1_555
H13B C14B 1_555 1_555
C15B C16B 1_555 1_555
C16B H14B 1_555 1_555
C17B C16B 1_555 1_555
H15B C17B 1_555 1_555
C18B C17B 1_555 1_555
H16B C18B 1_555 1_555
C19B C18B 1_555 1_555
H17B C19B 1_555 1_555
C20B C15B 1_555 1_555
C21B C20B 1_555 1_555
C22B C21B 1_555 1_555
H18B C22B 1_555 1_555
C23B C22B 1_555 1_555
H19B C23B 1_555 1_555
C24B C23B 1_555 1_555
H20B C24B 1_555 1_555
C25B C24B 1_555 1_555
H21B C25B 1_555 1_555
C26B C21B 1_555 1_555
N1B C7B 1_555 1_555
N2B C14B 1_555 1_555
O1B C1B 1_555 1_555
C6 C7 1_555 1_555
C9 N1 1_555 1_555
C11 N1 1_555 1_555
C15 N2 1_555 1_555
C19 C20 1_555 1_555
C25 C26 1_555 1_555
C26 N2 1_555 1_555
C1B C8B 1_555 1_555
C6B C7B 1_555 1_555
C9B C10B 1_555 1_555
C9B N1B 1_555 1_555
C11B N1B 1_555 1_555
C15B N2B 1_555 1_555
C19B C20B 1_555 1_555
C25B C26B 1_555 1_555
C26B N2B 1_555 1_555

#END
