
#######################################################################
#
#                 Cambridge Crystallographic Data Centre
#                                CCDC 
#
#######################################################################
#
# If this CIF has been generated from an entry in the Cambridge 
# Structural Database, then it will include bibliographic, chemical, 
# crystal, experimental, refinement or atomic coordinate data resulting 
# from the CCDC's data processing and validation procedures.
#
#######################################################################

data_VUPDUF
_chemical_formula_moiety         'C25 H20 N2 O2,C3 H6 O1'
_chemical_name_systematic        
'Methyl 4-(bis(3-indolyl)methyl)benzoate acetone clathrate'
_symmetry_cell_setting           triclinic
_symmetry_space_group_name_H-M   'P -1'
_symmetry_Int_Tables_number      2
_space_group_name_Hall           '-P 1'
loop_
_symmetry_equiv_pos_site_id
_symmetry_equiv_pos_as_xyz
1 x,y,z
2 -x,-y,-z
_cell_length_a                   9.902(3)
_cell_length_b                   10.626(2)
_cell_length_c                   12.945(2)
_cell_angle_alpha                70.69(2)
_cell_angle_beta                 72.56(2)
_cell_angle_gamma                69.53(2)
_cell_volume                     1177.88
_exptl_crystal_colour            colorless
_cell_formula_units_Z            2
loop_
_atom_site_label
_atom_site_type_symbol
_atom_site_fract_x
_atom_site_fract_y
_atom_site_fract_z
C1 C 0.2840 0.4637 0.0645
C2 C 0.2937(2) 0.4694(2) -0.0578(2)
C3 C 0.3769(4) 0.3622(3) -0.1151(3)
C4 C 0.4528(4) 0.2212(4) -0.0832(3)
C5 C 0.5179(4) 0.1483(4) -0.1643(4)
C6 C 0.5112(5) 0.2103(4) -0.2763(4)
C7 C 0.4383(5) 0.3479(4) -0.3103(4)
C8 C 0.3715(4) 0.4222(4) -0.2291(3)
N1 N 0.2905(4) 0.5586(3) -0.2398(3)
C9 C 0.2451(4) 0.5855(4) -0.1364(3)
C10 C 0.2379(4) 0.3379(3) 0.1472(3)
C11 C 0.2667(4) 0.2847(4) 0.2578(3)
C12 C 0.3375(4) 0.3211(4) 0.3172(3)
C13 C 0.3473(6) 0.2448(5) 0.4246(4)
C14 C 0.2878(6) 0.1328(6) 0.4734(4)
C15 C 0.2169(6) 0.0932(5) 0.4184(4)
C16 C 0.2043(4) 0.1715(4) 0.3095(3)
N2 N 0.1411(3) 0.1592(3) 0.2340(3)
C17 C 0.1619(4) 0.2609(4) 0.1365(3)
C18 C 0.1768(3) 0.5971(3) 0.0920(3)
C19 C 0.2314(4) 0.7002(4) 0.0918(3)
C20 C 0.1385(4) 0.8233(3) 0.1148(3)
C21 C -0.0133(4) 0.8451(3) 0.1397(3)
C22 C -0.0690(4) 0.7429(3) 0.1387(3)
C23 C 0.0255(4) 0.6202(3) 0.1149(3)
C24 C -0.1110(4) 0.9744(4) 0.1711(3)
O1 O -0.2513(3) 0.9854(3) 0.1814(3)
C25 C -0.3619(5) 1.1035(4) 0.2173(4)
O2 O -0.0707(3) 1.0594(2) 0.1873(3)
C26 C 0.1491(5) 0.6749(5) 0.5110(4)
C27 C 0.1256(6) 0.7294(7) 0.3940(4)
C28 C 0.0868(5) 0.5567(5) 0.5831(4)
O3 O 0.2127(4) 0.7239(3) 0.5466(3)
loop_
_geom_bond_atom_site_label_1
_geom_bond_atom_site_label_2
_geom_bond_site_symmetry_1
_geom_bond_site_symmetry_2
C1 C2 1_555 1_555
C2 C3 1_555 1_555
C3 C4 1_555 1_555
C4 C5 1_555 1_555
C5 C6 1_555 1_555
C6 C7 1_555 1_555
C7 C8 1_555 1_555
C8 C3 1_555 1_555
N1 C8 1_555 1_555
C9 C2 1_555 1_555
C10 C1 1_555 1_555
C11 C10 1_555 1_555
C12 C11 1_555 1_555
C13 C12 1_555 1_555
C14 C13 1_555 1_555
C15 C14 1_555 1_555
C16 C11 1_555 1_555
N2 C16 1_555 1_555
C17 C10 1_555 1_555
C18 C1 1_555 1_555
C19 C18 1_555 1_555
C20 C19 1_555 1_555
C21 C20 1_555 1_555
C22 C21 1_555 1_555
C23 C18 1_555 1_555
C24 C21 1_555 1_555
O1 C24 1_555 1_555
C25 O1 1_555 1_555
O2 C24 1_555 1_555
C26 C27 1_555 1_555
C28 C26 1_555 1_555
O3 C26 1_555 1_555
N1 C9 1_555 1_555
C15 C16 1_555 1_555
N2 C17 1_555 1_555
C22 C23 1_555 1_555

#END
