
#######################################################################
#
#                 Cambridge Crystallographic Data Centre
#                                CCDC 
#
#######################################################################
#
# If this CIF has been generated from an entry in the Cambridge 
# Structural Database, then it will include bibliographic, chemical, 
# crystal, experimental, refinement or atomic coordinate data resulting 
# from the CCDC's data processing and validation procedures.
#
#######################################################################

data_VUPHIZ
_chemical_formula_moiety         'C30 H42 N4'
_chemical_name_systematic        
2,2'-dicyclohexyl-1,1',3,3'-tetramethyl-2,2',3,3'-tetrahydro-1H,1'H-2,2'-bibenzimidazole
_symmetry_cell_setting           trigonal
_symmetry_space_group_name_H-M   'P 32 2 1'
_symmetry_Int_Tables_number      154
_space_group_name_Hall           'P 32 2"'
loop_
_symmetry_equiv_pos_site_id
_symmetry_equiv_pos_as_xyz
1 x,y,z
2 -y,x-y,2/3+z
3 -x+y,-x,1/3+z
4 y,x,-z
5 x-y,-y,1/3-z
6 -x,-x+y,2/3-z
_cell_length_a                   10.8746(15)
_cell_length_b                   10.8746(15)
_cell_length_c                   19.181(4)
_cell_angle_alpha                90
_cell_angle_beta                 90
_cell_angle_gamma                120
_cell_volume                     1964.39
_exptl_crystal_colour            colorless
_exptl_crystal_description       slab
_cell_formula_units_Z            3
_chemical_properties_physical    Oxygen-sensitive
_exptl_crystal_recrystallization_method n-hexane
loop_
_atom_site_label
_atom_site_type_symbol
_atom_site_fract_x
_atom_site_fract_y
_atom_site_fract_z
N1 N 0.15399(19) 0.24919(18) 0.05491(9)
N2 N 0.37161(18) 0.43129(19) 0.08522(8)
C1 C 0.2866(2) 0.3608(2) 0.02233(9)
C2 C 0.2912(3) 0.3772(3) 0.14485(10)
C3 C 0.3250(4) 0.4143(4) 0.21398(11)
H1 H 0.4157 0.4890 0.2278
C4 C 0.2148(5) 0.3332(4) 0.26385(11)
H2 H 0.2344 0.3530 0.3121
C5 C 0.0831(4) 0.2288(4) 0.24389(15)
H3 H 0.0125 0.1791 0.2783
C6 C 0.0513(4) 0.1947(3) 0.17502(13)
H4 H -0.0409 0.1228 0.1612
C7 C 0.1567(3) 0.2674(2) 0.12594(11)
C8 C 0.0169(2) 0.1749(2) 0.02021(13)
H5 H 0.0309 0.1641 -0.0294
H6 H -0.0319 0.2296 0.0253
H7 H -0.0407 0.0810 0.0413
C9 C 0.5003(3) 0.5669(3) 0.08744(14)
H8 H 0.5327 0.5996 0.0398
H9 H 0.5737 0.5575 0.1126
H10 H 0.4822 0.6359 0.1114
C10 C 0.2659(2) 0.4707(2) -0.02054(10)
H11 H 0.3633 0.5468 -0.0343
C11 C 0.1783(3) 0.4245(3) -0.08833(11)
H12 H 0.2098 0.3712 -0.1181
H13 H 0.0766 0.3616 -0.0772
C12 C 0.1984(3) 0.5565(3) -0.12708(12)
H14 H 0.3002 0.6190 -0.1381
H15 H 0.1452 0.5276 -0.1716
C13 C 0.1458(4) 0.6378(3) -0.08275(13)
H16 H 0.1661 0.7263 -0.1071
H17 H 0.0417 0.5793 -0.0766
C14 C 0.2176(3) 0.6746(3) -0.01156(12)
H18 H 0.1737 0.7171 0.0178
H19 H 0.3193 0.7461 -0.0174
C15 C 0.2048(2) 0.5441(2) 0.02531(11)
H20 H 0.1037 0.4764 0.0355
H21 H 0.2568 0.5731 0.0701
N1C N 0.24919(18) 0.15399(19) -0.05491(9)
N2C N 0.43129(19) 0.37161(18) -0.08522(8)
C1C C 0.3608(2) 0.2866(2) -0.02233(9)
C2C C 0.3772(3) 0.2912(3) -0.14485(10)
C3C C 0.4143(4) 0.3250(4) -0.21398(11)
H1C H 0.4890 0.4157 -0.2278
C4C C 0.3332(4) 0.2148(5) -0.26385(11)
H2C H 0.3530 0.2344 -0.3121
C5C C 0.2288(4) 0.0831(4) -0.24389(15)
H3C H 0.1791 0.0125 -0.2783
C6C C 0.1947(3) 0.0513(4) -0.17502(13)
H4C H 0.1228 -0.0409 -0.1612
C7C C 0.2674(2) 0.1567(3) -0.12594(11)
C8C C 0.1749(2) 0.0169(2) -0.02021(13)
H5C H 0.1641 0.0309 0.0294
H6C H 0.2296 -0.0319 -0.0253
H7C H 0.0810 -0.0407 -0.0413
C9C C 0.5669(3) 0.5003(3) -0.08744(14)
H8C H 0.5996 0.5327 -0.0398
H9C H 0.5575 0.5737 -0.1126
H10C H 0.6359 0.4822 -0.1114
C10C C 0.4707(2) 0.2659(2) 0.02054(10)
H11C H 0.5468 0.3633 0.0343
C11C C 0.4245(3) 0.1783(3) 0.08833(11)
H12C H 0.3712 0.2098 0.1181
H13C H 0.3616 0.0766 0.0772
C12C C 0.5565(3) 0.1984(3) 0.12708(12)
H14C H 0.6190 0.3002 0.1381
H15C H 0.5276 0.1452 0.1716
C13C C 0.6378(3) 0.1458(4) 0.08275(13)
H16C H 0.7263 0.1661 0.1071
H17C H 0.5793 0.0417 0.0766
C14C C 0.6746(3) 0.2176(3) 0.01156(12)
H18C H 0.7171 0.1737 -0.0178
H19C H 0.7461 0.3193 0.0174
C15C C 0.5441(2) 0.2048(2) -0.02531(11)
H20C H 0.4764 0.1037 -0.0355
H21C H 0.5731 0.2568 -0.0701
loop_
_geom_bond_atom_site_label_1
_geom_bond_atom_site_label_2
_geom_bond_site_symmetry_1
_geom_bond_site_symmetry_2
N1 C1 1_555 1_555
N2 C1 1_555 1_555
C1 C10 1_555 1_555
C2 N2 1_555 1_555
C3 C2 1_555 1_555
H1 C3 1_555 1_555
C4 C3 1_555 1_555
H2 C4 1_555 1_555
C5 C4 1_555 1_555
H3 C5 1_555 1_555
C6 C5 1_555 1_555
H4 C6 1_555 1_555
C7 N1 1_555 1_555
C8 N1 1_555 1_555
H5 C8 1_555 1_555
H6 C8 1_555 1_555
H7 C8 1_555 1_555
C9 N2 1_555 1_555
H8 C9 1_555 1_555
H9 C9 1_555 1_555
H10 C9 1_555 1_555
C10 H11 1_555 1_555
C11 C10 1_555 1_555
H12 C11 1_555 1_555
H13 C11 1_555 1_555
C12 C11 1_555 1_555
H14 C12 1_555 1_555
H15 C12 1_555 1_555
C13 C12 1_555 1_555
H16 C13 1_555 1_555
H17 C13 1_555 1_555
C14 C13 1_555 1_555
H18 C14 1_555 1_555
H19 C14 1_555 1_555
C15 C10 1_555 1_555
H20 C15 1_555 1_555
H21 C15 1_555 1_555
N1C C1C 1_555 1_555
N2C C1C 1_555 1_555
C1C C1 1_555 1_555
C2C N2C 1_555 1_555
C3C C2C 1_555 1_555
H1C C3C 1_555 1_555
C4C C3C 1_555 1_555
H2C C4C 1_555 1_555
C5C C4C 1_555 1_555
H3C C5C 1_555 1_555
C6C C5C 1_555 1_555
H4C C6C 1_555 1_555
C7C N1C 1_555 1_555
C8C N1C 1_555 1_555
H5C C8C 1_555 1_555
H6C C8C 1_555 1_555
H7C C8C 1_555 1_555
C9C N2C 1_555 1_555
H8C C9C 1_555 1_555
H9C C9C 1_555 1_555
H10C C9C 1_555 1_555
C10C C1C 1_555 1_555
H11C C10C 1_555 1_555
C11C C10C 1_555 1_555
H12C C11C 1_555 1_555
H13C C11C 1_555 1_555
C12C C11C 1_555 1_555
H14C C12C 1_555 1_555
H15C C12C 1_555 1_555
C13C C12C 1_555 1_555
H16C C13C 1_555 1_555
H17C C13C 1_555 1_555
C14C C13C 1_555 1_555
H18C C14C 1_555 1_555
H19C C14C 1_555 1_555
C15C C10C 1_555 1_555
H20C C15C 1_555 1_555
H21C C15C 1_555 1_555
C2 C7 1_555 1_555
C6 C7 1_555 1_555
C14 C15 1_555 1_555
C2C C7C 1_555 1_555
C6C C7C 1_555 1_555
C14C C15C 1_555 1_555

#END
