
#######################################################################
#
#                 Cambridge Crystallographic Data Centre
#                                CCDC 
#
#######################################################################
#
# If this CIF has been generated from an entry in the Cambridge 
# Structural Database, then it will include bibliographic, chemical, 
# crystal, experimental, refinement or atomic coordinate data resulting 
# from the CCDC's data processing and validation procedures.
#
#######################################################################

data_VUPRII
_chemical_formula_moiety         'C3 H7 N1 O1,C1 H1 Cl3'
_chemical_name_systematic        'N,N-Dimethylformamide chloroform'
_symmetry_cell_setting           monoclinic
_symmetry_space_group_name_H-M   'C c'
_symmetry_Int_Tables_number      9
_space_group_name_Hall           'C -2yc'
loop_
_symmetry_equiv_pos_site_id
_symmetry_equiv_pos_as_xyz
1 x,y,z
2 x,-y,1/2+z
3 1/2+x,1/2+y,z
4 1/2+x,1/2-y,1/2+z
_cell_length_a                   8.2840(7)
_cell_length_b                   8.6700(9)
_cell_length_c                   12.8290(15)
_cell_angle_alpha                90
_cell_angle_beta                 107.10(3)
_cell_angle_gamma                90
_cell_volume                     880.675
_exptl_crystal_colour            colorless
_exptl_crystal_description       cylinder
_chemical_melting_point          '190 K'
_cell_formula_units_Z            4
loop_
_atom_site_label
_atom_site_type_symbol
_atom_site_fract_x
_atom_site_fract_y
_atom_site_fract_z
Cl1 Cl 0.85095(15) 0.06032(12) 0.26507(10)
Cl2 Cl 0.53646(14) 0.13761(13) 0.30628(9)
Cl3 Cl 0.76104(14) -0.08497(12) 0.44345(8)
C1 C 0.6846(5) -0.0112(4) 0.3108(3)
H1 H 0.654(8) -0.102(7) 0.267(5)
N1 N 0.7151(4) 0.5559(3) 0.0623(3)
O1 O 0.5883(4) 0.7163(3) 0.1546(3)
C2 C 0.6711(5) 0.6933(4) 0.0916(3)
C3 C 0.8136(8) 0.5395(6) -0.0129(5)
C4 C 0.6685(8) 0.4170(5) 0.1086(5)
H2 H 0.712(6) 0.780(6) 0.048(4)
H3 H 0.914(9) 0.462(8) 0.020(6)
H4 H 0.842(10) 0.655(8) -0.038(6)
H5 H 0.760(8) 0.476(8) -0.077(6)
H6 H 0.751(8) 0.361(6) 0.137(4)
H7 H 0.593(10) 0.350(10) 0.051(7)
H8 H 0.646(12) 0.438(8) 0.179(7)
loop_
_geom_bond_atom_site_label_1
_geom_bond_atom_site_label_2
_geom_bond_site_symmetry_1
_geom_bond_site_symmetry_2
Cl1 C1 1_555 1_555
Cl2 C1 1_555 1_555
Cl3 C1 1_555 1_555
N1 C2 1_555 1_555
O1 C2 1_555 1_555
C1 H1 1_555 1_555
C2 H2 1_555 1_555
C3 N1 1_555 1_555
C4 N1 1_555 1_555
H3 C3 1_555 1_555
H4 C3 1_555 1_555
H5 C3 1_555 1_555
H6 C4 1_555 1_555
H7 C4 1_555 1_555
H8 C4 1_555 1_555

#END
