
#######################################################################
#
#                 Cambridge Crystallographic Data Centre
#                                CCDC 
#
#######################################################################
#
# If this CIF has been generated from an entry in the Cambridge 
# Structural Database, then it will include bibliographic, chemical, 
# crystal, experimental, refinement or atomic coordinate data resulting 
# from the CCDC's data processing and validation procedures.
#
#######################################################################

data_VUQCAM
_chemical_formula_moiety         'C4 Cl4 N8'
_chemical_name_systematic        
4,4'-(Diazene-1,2-diyl)-bis(3,5-dichloro-4H-1,2,4-triazole)
_symmetry_cell_setting           triclinic
_symmetry_space_group_name_H-M   'P -1'
_symmetry_Int_Tables_number      2
_space_group_name_Hall           '-P 1'
loop_
_symmetry_equiv_pos_site_id
_symmetry_equiv_pos_as_xyz
1 x,y,z
2 -x,-y,-z
_cell_length_a                   6.2824(13)
_cell_length_b                   7.7173(15)
_cell_length_c                   10.443(2)
_cell_angle_alpha                89.16(3)
_cell_angle_beta                 88.20(3)
_cell_angle_gamma                89.10(3)
_cell_volume                     505.947
_exptl_crystal_colour            colorless
_exptl_crystal_description       block
_cell_formula_units_Z            2
loop_
_atom_site_label
_atom_site_type_symbol
_atom_site_fract_x
_atom_site_fract_y
_atom_site_fract_z
Cl1 Cl 0.47160(15) 0.74318(14) 0.04528(9)
Cl2 Cl -0.21952(15) 0.45402(14) 0.27096(10)
N1 N 0.2927(5) 0.7132(5) 0.2789(3)
N2 N 0.1122(5) 0.6363(4) 0.3370(3)
N3 N 0.1142(4) 0.5854(4) 0.1300(3)
N4 N 0.0811(4) 0.5419(4) 0.0043(3)
C1 C 0.2904(5) 0.6796(5) 0.1586(3)
C2 C 0.0101(5) 0.5633(5) 0.2483(3)
Cl1A Cl -0.47160(15) 0.25682(14) -0.04528(9)
Cl2A Cl 0.21952(15) 0.54598(14) -0.27096(10)
N1A N -0.2927(5) 0.2868(5) -0.2789(3)
N2A N -0.1122(5) 0.3637(4) -0.3370(3)
N3A N -0.1142(4) 0.4146(4) -0.1300(3)
N4A N -0.0811(4) 0.4581(4) -0.0043(3)
C1A C -0.2904(5) 0.3204(5) -0.1586(3)
C2A C -0.0101(5) 0.4367(5) -0.2483(3)
Cl3 Cl -0.58496(16) 0.22474(15) 0.50552(10)
Cl4 Cl -1.14265(17) -0.00869(15) 0.17131(10)
N5 N -0.6445(5) 0.2341(5) 0.2569(3)
N6 N -0.7884(5) 0.1737(5) 0.1686(3)
N7 N -0.8929(4) 0.0867(4) 0.3616(3)
N8 N -1.0345(5) 0.0034(4) 0.4473(3)
C3 C -0.7085(5) 0.1814(5) 0.3698(4)
C4 C -0.9305(6) 0.0886(5) 0.2332(3)
Cl3A Cl -1.41504(16) -0.22474(15) 0.49448(10)
Cl4A Cl -0.85735(17) 0.00869(15) 0.82869(10)
N5A N -1.3555(5) -0.2341(5) 0.7431(3)
N6A N -1.2116(5) -0.1737(5) 0.8314(3)
N7A N -1.1071(4) -0.0867(4) 0.6384(3)
N8A N -0.9655(5) -0.0034(4) 0.5527(3)
C3A C -1.2915(5) -0.1814(5) 0.6302(4)
C4A C -1.0695(6) -0.0886(5) 0.7668(3)
loop_
_geom_bond_atom_site_label_1
_geom_bond_atom_site_label_2
_geom_bond_site_symmetry_1
_geom_bond_site_symmetry_2
Cl1 C1 1_555 1_555
Cl2 C2 1_555 1_555
Cl3 C3 1_555 1_555
Cl4 C4 1_555 1_555
N1 N2 1_555 1_555
N2 C2 1_555 1_555
N3 N4 1_555 1_555
N4 N4A 1_555 1_555
N5 N6 1_555 1_555
N6 C4 1_555 1_555
N7 N8 1_555 1_555
N8 N8A 1_555 1_555
C1 N1 1_555 1_555
C2 N3 1_555 1_555
C3 N5 1_555 1_555
C4 N7 1_555 1_555
Cl1A C1A 1_555 1_555
Cl2A C2A 1_555 1_555
Cl3A C3A 1_555 1_555
Cl4A C4A 1_555 1_555
N1A N2A 1_555 1_555
N2A C2A 1_555 1_555
N3A N4A 1_555 1_555
N5A N6A 1_555 1_555
N6A C4A 1_555 1_555
N7A N8A 1_555 1_555
C1A N1A 1_555 1_555
C2A N3A 1_555 1_555
C3A N5A 1_555 1_555
C4A N7A 1_555 1_555
N3 C1 1_555 1_555
N7 C3 1_555 1_555
N3A C1A 1_555 1_555
N7A C3A 1_555 1_555

#END
