
#######################################################################
#
#                 Cambridge Crystallographic Data Centre
#                                CCDC 
#
#######################################################################
#
# If this CIF has been generated from an entry in the Cambridge 
# Structural Database, then it will include bibliographic, chemical, 
# crystal, experimental, refinement or atomic coordinate data resulting 
# from the CCDC's data processing and validation procedures.
#
#######################################################################

data_VUQGUK
_chemical_formula_moiety         'C7 H2 F3 N2 S2'
_chemical_name_systematic        
'4-(2,3,6-Trifluorophenyl)-1,2,3,5-dithiadiazolyl radical'
_symmetry_cell_setting           tetragonal
_symmetry_space_group_name_H-M   'I 41/a'
_symmetry_Int_Tables_number      88
_space_group_name_Hall           '-I 4ad'
loop_
_symmetry_equiv_pos_site_id
_symmetry_equiv_pos_as_xyz
1 x,y,z
2 1/2-x,-y,1/2+z
3 3/4-y,1/4+x,1/4+z
4 3/4+y,3/4-x,3/4+z
5 1/2+x,1/2+y,1/2+z
6 -x,1/2-y,z
7 1/4-y,3/4+x,3/4+z
8 1/4+y,1/4-x,1/4+z
9 -x,-y,-z
10 1/2+x,y,1/2-z
11 1/4+y,3/4-x,3/4-z
12 1/4-y,1/4+x,1/4-z
13 1/2-x,1/2-y,1/2-z
14 x,1/2+y,-z
15 3/4+y,1/4-x,1/4-z
16 3/4-y,3/4+x,3/4-z
_cell_length_a                   30.483(2)
_cell_length_b                   30.483(2)
_cell_length_c                   7.117(1)
_cell_angle_alpha                90
_cell_angle_beta                 90
_cell_angle_gamma                90
_cell_volume                     6613.21
_exptl_crystal_colour            black
_exptl_crystal_description       prism
_cell_formula_units_Z            32
loop_
_atom_site_label
_atom_site_type_symbol
_atom_site_fract_x
_atom_site_fract_y
_atom_site_fract_z
S1 S 0.311074(11) 0.461245(10) 0.41199(5)
S2 S 0.378673(11) 0.462462(10) 0.46540(5)
N1 N 0.30943(4) 0.40851(3) 0.36544(16)
N2 N 0.38528(4) 0.41009(4) 0.42687(17)
C1 C 0.34866(4) 0.38853(4) 0.37896(17)
C2 C 0.35213(4) 0.34061(4) 0.34049(17)
C3 C 0.31798(4) 0.31105(4) 0.37798(17)
F1 F 0.28069(2) 0.32616(3) 0.45577(12)
C4 C 0.32114(4) 0.26637(4) 0.34538(19)
H1 H 0.2969 0.2478 0.3715
C5 C 0.35977(5) 0.24887(4) 0.2745(2)
H2 H 0.3624 0.2183 0.2516
C6 C 0.39436(4) 0.27698(4) 0.23791(19)
F2 F 0.43247(4) 0.26180(4) 0.17208(19)
C7 C 0.39046(4) 0.32166(4) 0.26867(18)
F3 F 0.42511(3) 0.34694(3) 0.22454(13)
S3 S 0.300880(10) 0.450920(10) 0.85578(5)
S4 S 0.369004(10) 0.455211(10) 0.89432(5)
N3 N 0.30077(3) 0.39746(3) 0.82774(16)
N4 N 0.37655(4) 0.40238(3) 0.88360(17)
C8 C 0.34035(4) 0.37888(4) 0.84734(17)
C9 C 0.34497(4) 0.33057(4) 0.82839(17)
C10 C 0.31055(4) 0.30175(4) 0.86974(18)
F4 F 0.27201(3) 0.31707(3) 0.93311(13)
C11 C 0.31520(4) 0.25666(4) 0.85229(19)
F5 F 0.28117(3) 0.23108(3) 0.90172(17)
C12 C 0.35412(5) 0.23819(4) 0.79383(19)
H3 H 0.3570 0.2073 0.7829
C13 C 0.38909(4) 0.26574(4) 0.75109(19)
H4 H 0.4166 0.2540 0.7113
C14 C 0.38418(4) 0.31055(4) 0.76856(18)
F6 F 0.41886(3) 0.33576(3) 0.72201(13)
F7? F 0.28724(11) 0.23995(10) 0.3776(6)
F8? F 0.42860(17) 0.25039(16) 0.7123(8)
H5? H 0.4212 0.2655 0.1912
H6? H 0.2910 0.2382 0.8812
loop_
_geom_bond_atom_site_label_1
_geom_bond_atom_site_label_2
_geom_bond_site_symmetry_1
_geom_bond_site_symmetry_2
S1 S2 1_555 1_555
S2 N2 1_555 1_555
N1 S1 1_555 1_555
N2 C1 1_555 1_555
C1 N1 1_555 1_555
C2 C1 1_555 1_555
C3 C2 1_555 1_555
F1 C3 1_555 1_555
C4 C3 1_555 1_555
H1 C4 1_555 1_555
C5 C4 1_555 1_555
H2 C5 1_555 1_555
C6 C5 1_555 1_555
F2 C6 1_555 1_555
C7 C2 1_555 1_555
F3 C7 1_555 1_555
S3 S4 1_555 1_555
S4 N4 1_555 1_555
N3 S3 1_555 1_555
N4 C8 1_555 1_555
C8 N3 1_555 1_555
C9 C8 1_555 1_555
C10 C9 1_555 1_555
F4 C10 1_555 1_555
C11 C10 1_555 1_555
F5 C11 1_555 1_555
C12 C11 1_555 1_555
H3 C12 1_555 1_555
C13 C12 1_555 1_555
H4 C13 1_555 1_555
C14 C9 1_555 1_555
F6 C14 1_555 1_555
C6 C7 1_555 1_555
C13 C14 1_555 1_555

#END
