
#######################################################################
#
#                 Cambridge Crystallographic Data Centre
#                                CCDC 
#
#######################################################################
#
# If this CIF has been generated from an entry in the Cambridge 
# Structural Database, then it will include bibliographic, chemical, 
# crystal, experimental, refinement or atomic coordinate data resulting 
# from the CCDC's data processing and validation procedures.
#
#######################################################################

data_VUQJUO
_chemical_formula_moiety         'C17 H8 O9 2-,2(C3 H5 N2 1+)'
_chemical_name_systematic        
'di(1H-imidazol-3-ium) 2-carboxy-4-(3-carboxy-4-carboxylatobenzoyl)benzoate unknown solvate'
_symmetry_cell_setting           monoclinic
_symmetry_space_group_name_H-M   'C 2/c'
_symmetry_Int_Tables_number      15
_space_group_name_Hall           '-C 2yn'
loop_
_symmetry_equiv_pos_site_id
_symmetry_equiv_pos_as_xyz
1 x,y,z
2 -x,y,1/2-z
3 1/2+x,1/2+y,z
4 1/2-x,1/2+y,1/2-z
5 -x,-y,-z
6 x,-y,1/2+z
7 1/2-x,1/2-y,-z
8 1/2+x,1/2-y,1/2+z
_cell_length_a                   23.712(5)
_cell_length_b                   7.0681(14)
_cell_length_c                   29.299(6)
_cell_angle_alpha                90
_cell_angle_beta                 102.94(3)
_cell_angle_gamma                90
_cell_volume                     4785.78
_exptl_crystal_description       plate
_cell_formula_units_Z            8
loop_
_atom_site_label
_atom_site_type_symbol
_atom_site_fract_x
_atom_site_fract_y
_atom_site_fract_z
C1 C 0.49612(16) 0.5676(6) 0.34529(14)
C2 C 0.43372(15) 0.6102(5) 0.32497(12)
C3 C 0.41656(15) 0.5768(6) 0.27721(13)
H1 H 0.4437 0.5286 0.2618
C4 C 0.36182(16) 0.6109(6) 0.25149(13)
H2 H 0.3519 0.5811 0.2198
C5 C 0.32045(15) 0.6922(5) 0.27374(12)
C6 C 0.33645(14) 0.7242(5) 0.32125(12)
H3 H 0.3089 0.7721 0.3363
C7 C 0.39200(15) 0.6882(5) 0.34788(12)
C8 C 0.39921(16) 0.7308(6) 0.39942(14)
C9 C 0.25990(15) 0.7292(5) 0.24796(13)
C10 C 0.24486(15) 0.7637(5) 0.19640(12)
C11 C 0.28266(15) 0.8466(5) 0.17272(13)
H4 H 0.3199 0.8784 0.1888
C12 C 0.26578(15) 0.8825(5) 0.12550(12)
H5 H 0.2923 0.9379 0.1105
C13 C 0.21101(14) 0.8400(5) 0.09923(12)
C14 C 0.17075(14) 0.7604(5) 0.12350(12)
C15 C 0.18918(14) 0.7256(5) 0.17120(12)
H6 H 0.1629 0.6743 0.1870
C16 C 0.20099(17) 0.8876(6) 0.04805(13)
C17 C 0.10735(16) 0.7128(6) 0.10386(14)
O1 O 0.51867(12) 0.6038(6) 0.38795(11)
O2 O 0.52616(12) 0.4982(5) 0.32011(11)
O3 O 0.44911(12) 0.7176(5) 0.42716(10)
H7 H 0.4818 0.6643 0.4124
O4 O 0.35746(12) 0.7812(5) 0.41459(9)
O5 O 0.22121(11) 0.7320(4) 0.26976(9)
O6 O 0.15361(13) 0.8512(6) 0.01942(10)
O7 O 0.24108(12) 0.9627(5) 0.03329(10)
O8 O 0.08536(12) 0.7314(5) 0.05988(10)
H8 H 0.1187 0.7745 0.0380
O9 O 0.07726(11) 0.6560(5) 0.13022(10)
C18 C 0.45614(16) 0.1774(6) 0.02886(14)
H9 H 0.4827 0.2350 0.0143
C19 C 0.37683(18) 0.0567(6) 0.04083(15)
H10 H 0.3388 0.0147 0.0357
C20 C 0.41759(17) 0.0428(7) 0.08131(15)
H11 H 0.4126 -0.0076 0.1095
N1 N 0.46688(13) 0.1164(5) 0.07292(12)
H12 H 0.5065 0.1394 0.0971
N2 N 0.40178(13) 0.1424(5) 0.00950(12)
H13 H 0.3828 0.1736 -0.0235
C21 C 0.64538(16) 0.5156(6) 0.41902(14)
H14 H 0.6191 0.5775 0.4331
C22 C 0.68301(16) 0.3662(6) 0.36795(14)
H15 H 0.6869 0.3071 0.3405
C23 C 0.72365(16) 0.3806(6) 0.40745(14)
H16 H 0.7614 0.3352 0.4124
N3 N 0.69964(13) 0.4744(5) 0.43941(11)
H17 H 0.7190 0.5068 0.4741
N4 N 0.63481(13) 0.4542(5) 0.37536(11)
H18 H 0.5998 0.4810 0.3556
loop_
_geom_bond_atom_site_label_1
_geom_bond_atom_site_label_2
_geom_bond_site_symmetry_1
_geom_bond_site_symmetry_2
C1 C2 1_555 1_555
C2 C3 1_555 1_555
C3 H1 1_555 1_555
C4 C3 1_555 1_555
H2 C4 1_555 1_555
C5 C4 1_555 1_555
C6 C5 1_555 1_555
H3 C6 1_555 1_555
C7 C2 1_555 1_555
C8 C7 1_555 1_555
C9 C5 1_555 1_555
C10 C9 1_555 1_555
C11 C10 1_555 1_555
H4 C11 1_555 1_555
C12 C11 1_555 1_555
H5 C12 1_555 1_555
C13 C12 1_555 1_555
C14 C13 1_555 1_555
C15 C10 1_555 1_555
H6 C15 1_555 1_555
C16 C13 1_555 1_555
C17 C14 1_555 1_555
O1 C1 1_555 1_555
O2 C1 1_555 1_555
O3 C8 1_555 1_555
H7 O3 1_555 1_555
O4 C8 1_555 1_555
O5 C9 1_555 1_555
O6 C16 1_555 1_555
O7 C16 1_555 1_555
O8 C17 1_555 1_555
H8 O8 1_555 1_555
O9 C17 1_555 1_555
C18 H9 1_555 1_555
C19 H10 1_555 1_555
C20 C19 1_555 1_555
H11 C20 1_555 1_555
N1 C18 1_555 1_555
H12 N1 1_555 1_555
N2 C18 1_555 1_555
H13 N2 1_555 1_555
C21 H14 1_555 1_555
C22 H15 1_555 1_555
C23 C22 1_555 1_555
H16 C23 1_555 1_555
N3 C21 1_555 1_555
H17 N3 1_555 1_555
N4 C21 1_555 1_555
H18 N4 1_555 1_555
C6 C7 1_555 1_555
C14 C15 1_555 1_555
C19 N2 1_555 1_555
C20 N1 1_555 1_555
C22 N4 1_555 1_555
C23 N3 1_555 1_555

#END
