
#######################################################################
#
#                 Cambridge Crystallographic Data Centre
#                                CCDC 
#
#######################################################################
#
# If this CIF has been generated from an entry in the Cambridge 
# Structural Database, then it will include bibliographic, chemical, 
# crystal, experimental, refinement or atomic coordinate data resulting 
# from the CCDC's data processing and validation procedures.
#
#######################################################################

data_VUQMIE
_chemical_formula_moiety         'C38 H34 N10 4+,2(C2 H3 N1),4(F6 P1 1-)'
_chemical_name_systematic        
'cyclo-[bis((2,6-bis(1H-imidazol-1-yl)pyridine)-(1,4-dimethylenebenzene))] tetrakis(hexafluorophosphate) acetonitrile solvate'
_symmetry_cell_setting           triclinic
_symmetry_space_group_name_H-M   'P -1'
_symmetry_Int_Tables_number      2
_space_group_name_Hall           '-P 1'
loop_
_symmetry_equiv_pos_site_id
_symmetry_equiv_pos_as_xyz
1 x,y,z
2 -x,-y,-z
_cell_length_a                   9.832(2)
_cell_length_b                   10.944(2)
_cell_length_c                   12.335(3)
_cell_angle_alpha                94.45(3)
_cell_angle_beta                 97.04(3)
_cell_angle_gamma                104.09(3)
_cell_volume                     1269.65
_exptl_crystal_colour            colorless
_exptl_crystal_description       prism
_cell_formula_units_Z            1
loop_
_atom_site_label
_atom_site_type_symbol
_atom_site_fract_x
_atom_site_fract_y
_atom_site_fract_z
P1 P 1.61974(5) 0.35413(5) 0.33452(4)
F1 F 1.73186(15) 0.27995(13) 0.38268(12)
F2 F 1.52305(16) 0.31004(13) 0.42671(12)
F3 F 1.53586(14) 0.23244(12) 0.25427(12)
F4 F 1.70480(15) 0.47864(12) 0.41516(11)
F5 F 1.50921(13) 0.43083(12) 0.28611(12)
F6 F 1.71755(14) 0.40187(13) 0.24346(11)
P2 P 1.0000 1.0000 0.5000
F7 F 1.0665(2) 1.13876(15) 0.56097(15)
F8 F 1.11995(17) 0.94768(15) 0.56540(13)
F9 F 1.0905(2) 1.03097(19) 0.40310(17)
F7A F 0.9335(2) 0.86124(15) 0.43903(15)
F8A F 0.88005(17) 1.05232(15) 0.43460(13)
F9A F 0.9095(2) 0.96903(19) 0.59690(17)
P3 P 1.5000 1.0000 0.0000
F10 F 1.47666(15) 1.13408(13) -0.03049(12)
F11 F 1.37538(14) 0.92934(14) -0.09695(11)
F12 F 1.38659(14) 0.99226(14) 0.08344(11)
F10A F 1.52334(15) 0.86592(13) 0.03049(12)
F11A F 1.62462(14) 1.07066(14) 0.09695(11)
F12A F 1.61341(14) 1.00774(14) -0.08344(11)
N1 N 1.75803(18) 0.35268(16) -0.36063(14)
N3 N 1.86163(19) 0.55134(16) -0.35373(14)
N4 N 1.86736(18) 0.83014(16) 0.17876(14)
N5 N 1.67697(18) 0.81303(15) 0.25309(14)
N6 N 1.45896(18) 0.73914(15) 0.30864(14)
C1 C 1.6523(2) 0.24019(18) -0.35078(16)
C3 C 1.7400(2) 0.46989(19) -0.34639(16)
H4 H 1.6548 0.4910 -0.3333
C5 C 1.8964(2) 0.3611(2) -0.37796(17)
H5 H 1.9379 0.2925 -0.3908
C6 C 1.9607(2) 0.4852(2) -0.37303(17)
H6 H 2.0566 0.5208 -0.3813
C7 C 1.8869(2) 0.69090(19) -0.34129(17)
H7 H 1.8033 0.7142 -0.3786
H8 H 1.9697 0.7288 -0.3770
C8 C 1.9141(2) 0.74388(18) -0.22168(17)
C9 C 1.8037(2) 0.7682(2) -0.17008(18)
H9 H 1.7122 0.7548 -0.2113
C10 C 1.8262(2) 0.8119(2) -0.05871(18)
H10 H 1.7502 0.8279 -0.0241
C11 C 1.9600(2) 0.83200(18) 0.00182(16)
C12 C 2.0713(2) 0.81045(19) -0.05015(17)
H11 H 2.1634 0.8258 -0.0093
C13 C 2.0486(2) 0.76672(19) -0.16129(17)
H12 H 2.1252 0.7524 -0.1962
C14 C 1.9891(2) 0.88157(19) 0.12283(17)
H13 H 2.0735 0.8577 0.1581
H14 H 2.0099 0.9753 0.1307
C15 C 1.7782(2) 0.89333(18) 0.21167(16)
H15 H 1.7848 0.9807 0.2068
C16 C 1.8231(2) 0.70538(19) 0.19868(17)
H16 H 1.8678 0.6397 0.1825
C17 C 1.7042(2) 0.69432(18) 0.24555(17)
H17 H 1.6495 0.6195 0.2689
C18 C 1.5588(2) 0.84134(18) 0.29733(15)
C19 C 1.5531(2) 0.96478(19) 0.32351(17)
H18 H 1.6274 1.0348 0.3132
C20 C 1.4337(2) 0.9815(2) 0.36555(18)
H19 H 1.4240 1.0646 0.3837
C21 C 1.3283(2) 0.8773(2) 0.38122(18)
H20 H 1.2466 0.8865 0.4115
N1A N 1.24197(18) 0.64732(16) 0.36063(14)
N3A N 1.13837(19) 0.44866(16) 0.35373(14)
N4A N 1.13264(18) 0.16986(16) -0.17876(14)
N5A N 1.32303(18) 0.18697(15) -0.25309(14)
N6A N 1.54104(18) 0.26086(15) -0.30864(14)
C1A C 1.3477(2) 0.75981(18) 0.35078(16)
C3A C 1.2600(2) 0.53011(19) 0.34639(16)
H4A H 1.3452 0.5090 0.3333
C5A C 1.1036(2) 0.6389(2) 0.37796(17)
H5A H 1.0621 0.7075 0.3908
C6A C 1.0393(2) 0.5148(2) 0.37303(17)
H6A H 0.9434 0.4792 0.3813
C7A C 1.1131(2) 0.30910(19) 0.34129(17)
H7A H 1.1967 0.2858 0.3786
H8A H 1.0303 0.2712 0.3770
C8A C 1.0859(2) 0.25612(18) 0.22168(17)
C9A C 1.1963(2) 0.2318(2) 0.17008(18)
H9A H 1.2878 0.2452 0.2113
C10A C 1.1738(2) 0.1881(2) 0.05871(18)
H10A H 1.2498 0.1721 0.0241
C11A C 1.0400(2) 0.16800(18) -0.00182(16)
C12A C 0.9287(2) 0.18955(19) 0.05015(17)
H11A H 0.8366 0.1742 0.0093
C13A C 0.9514(2) 0.23328(19) 0.16129(17)
H12A H 0.8748 0.2476 0.1962
C14A C 1.0109(2) 0.11843(19) -0.12283(17)
H13A H 0.9265 0.1423 -0.1581
H14A H 0.9901 0.0247 -0.1307
C15A C 1.2218(2) 0.10667(18) -0.21167(16)
H15A H 1.2152 0.0193 -0.2068
C16A C 1.1769(2) 0.29462(19) -0.19868(17)
H16A H 1.1322 0.3603 -0.1825
C17A C 1.2958(2) 0.30568(18) -0.24555(17)
H17A H 1.3505 0.3805 -0.2689
C18A C 1.4412(2) 0.15866(18) -0.29733(15)
C19A C 1.4469(2) 0.03522(19) -0.32351(17)
H18A H 1.3726 -0.0348 -0.3132
C20A C 1.5663(2) 0.0185(2) -0.36555(18)
H19A H 1.5760 -0.0646 -0.3837
C21A C 1.6717(2) 0.1227(2) -0.38122(18)
H20A H 1.7534 0.1135 -0.4115
N2 N 2.0945(3) 0.5916(3) 0.12082(19)
C2 C 2.3145(4) 0.5687(3) 0.0326(3)
H1 H 2.3705 0.6531 0.0223
H2 H 2.2842 0.5169 -0.0387
H3 H 2.3724 0.5282 0.0812
C4 C 2.1898(3) 0.5804(3) 0.0820(2)
loop_
_geom_bond_atom_site_label_1
_geom_bond_atom_site_label_2
_geom_bond_site_symmetry_1
_geom_bond_site_symmetry_2
P1 F1 1_555 1_555
P2 F7 1_555 1_555
P3 F10 1_555 1_555
F2 P1 1_555 1_555
F3 P1 1_555 1_555
F4 P1 1_555 1_555
F5 P1 1_555 1_555
F6 P1 1_555 1_555
F8 P2 1_555 1_555
F9 P2 1_555 1_555
F11 P3 1_555 1_555
F12 P3 1_555 1_555
N1 C1 1_555 1_555
N2 C4 1_555 1_555
N3 C3 1_555 1_555
N4 C14 1_555 1_555
N5 C15 1_555 1_555
N6 C18 1_555 1_555
C1 N6A 1_555 1_555
C2 H1 1_555 1_555
H2 C2 1_555 1_555
H3 C2 1_555 1_555
C3 N1 1_555 1_555
H4 C3 1_555 1_555
C4 C2 1_555 1_555
C5 N1 1_555 1_555
H5 C5 1_555 1_555
C6 N3 1_555 1_555
H6 C6 1_555 1_555
C7 N3 1_555 1_555
H7 C7 1_555 1_555
H8 C7 1_555 1_555
C8 C7 1_555 1_555
C9 C8 1_555 1_555
H9 C9 1_555 1_555
C10 C9 1_555 1_555
H10 C10 1_555 1_555
C11 C10 1_555 1_555
C12 C11 1_555 1_555
H11 C12 1_555 1_555
C13 C8 1_555 1_555
H12 C13 1_555 1_555
C14 C11 1_555 1_555
H13 C14 1_555 1_555
H14 C14 1_555 1_555
C15 N4 1_555 1_555
H15 C15 1_555 1_555
C16 N4 1_555 1_555
H16 C16 1_555 1_555
C17 N5 1_555 1_555
H17 C17 1_555 1_555
C18 N5 1_555 1_555
C19 C18 1_555 1_555
H18 C19 1_555 1_555
C20 C19 1_555 1_555
H19 C20 1_555 1_555
C21 C20 1_555 1_555
H20 C21 1_555 1_555
F7A P2 1_555 1_555
F8A P2 1_555 1_555
F9A P2 1_555 1_555
F10A P3 1_555 1_555
F11A P3 1_555 1_555
F12A P3 1_555 1_555
N1A C1A 1_555 1_555
N3A C3A 1_555 1_555
N4A C14A 1_555 1_555
N5A C15A 1_555 1_555
N6A C18A 1_555 1_555
C1A N6 1_555 1_555
C3A N1A 1_555 1_555
H4A C3A 1_555 1_555
C5A N1A 1_555 1_555
H5A C5A 1_555 1_555
C6A N3A 1_555 1_555
H6A C6A 1_555 1_555
C7A N3A 1_555 1_555
H7A C7A 1_555 1_555
H8A C7A 1_555 1_555
C8A C7A 1_555 1_555
C9A C8A 1_555 1_555
H9A C9A 1_555 1_555
C10A C9A 1_555 1_555
H10A C10A 1_555 1_555
C11A C10A 1_555 1_555
C12A C11A 1_555 1_555
H11A C12A 1_555 1_555
C13A C8A 1_555 1_555
H12A C13A 1_555 1_555
C14A C11A 1_555 1_555
H13A C14A 1_555 1_555
H14A C14A 1_555 1_555
C15A N4A 1_555 1_555
H15A C15A 1_555 1_555
C16A N4A 1_555 1_555
H16A C16A 1_555 1_555
C17A N5A 1_555 1_555
H17A C17A 1_555 1_555
C18A N5A 1_555 1_555
C19A C18A 1_555 1_555
H18A C19A 1_555 1_555
C20A C19A 1_555 1_555
H19A C20A 1_555 1_555
C21A C1 1_555 1_555
H20A C21A 1_555 1_555
C5 C6 1_555 1_555
C12 C13 1_555 1_555
C16 C17 1_555 1_555
C21 C1A 1_555 1_555
C5A C6A 1_555 1_555
C12A C13A 1_555 1_555
C16A C17A 1_555 1_555
C20A C21A 1_555 1_555

#END
