
#######################################################################
#
#                 Cambridge Crystallographic Data Centre
#                                CCDC 
#
#######################################################################
#
# If this CIF has been generated from an entry in the Cambridge 
# Structural Database, then it will include bibliographic, chemical, 
# crystal, experimental, refinement or atomic coordinate data resulting 
# from the CCDC's data processing and validation procedures.
#
#######################################################################

data_VUQQOP
_chemical_formula_moiety         
'C38 H34 N10 4+,C9 H3 O6 3-,2(C3 H7 N1 O1),17(H2 O1),H1 O1 1-'
_chemical_name_systematic        
'6,12,25,31,42,47-hexaaza-3,15,22,34-tetraazonianonacyclo[34.2.2.2^17,20^.1^3,6^.1^7,11^.1^12,15^.1^22,25^.1^26,30^.1^31,34^]octatetraconta-1(38),3(48),4,7(47),8,10,13,15(46),17,19,22(43),23,26(42),27,29,32,34(41),36,39,44-icosaene hydroxide benzene-1,3,5-tricarboxylate N,N-dimethylformamide unknown solvate heptadecahydrate'
_symmetry_cell_setting           triclinic
_symmetry_space_group_name_H-M   'P -1'
_symmetry_Int_Tables_number      2
_space_group_name_Hall           '-P 1'
loop_
_symmetry_equiv_pos_site_id
_symmetry_equiv_pos_as_xyz
1 x,y,z
2 -x,-y,-z
_cell_length_a                   14.082(3)
_cell_length_b                   15.521(3)
_cell_length_c                   16.805(3)
_cell_angle_alpha                67.27(3)
_cell_angle_beta                 71.23(3)
_cell_angle_gamma                78.83(3)
_cell_volume                     3197.44
_exptl_crystal_colour            colorless
_exptl_crystal_description       prism
_cell_formula_units_Z            2
loop_
_atom_site_label
_atom_site_type_symbol
_atom_site_fract_x
_atom_site_fract_y
_atom_site_fract_z
O1 O 0.5629(2) 0.2564(2) 0.6933(2)
O2 O 0.6158(2) 0.3334(3) 0.5447(2)
O3 O 0.3580(2) 0.4682(2) 0.3741(2)
O4 O 0.2033(2) 0.4220(3) 0.4320(2)
O5 O 0.1332(2) 0.1457(2) 0.7165(3)
O6 O 0.2292(2) 0.1097(3) 0.8093(3)
C1 C 0.5497(3) 0.2933(3) 0.6143(3)
C2 C 0.4440(3) 0.2910(3) 0.6068(3)
C3 C 0.4173(3) 0.3508(3) 0.5272(3)
H1 H 0.4642 0.3897 0.4811
C4 C 0.3220(3) 0.3528(3) 0.5163(3)
C5 C 0.2573(3) 0.2869(3) 0.5850(3)
H2 H 0.1954 0.2839 0.5778
C6 C 0.2817(3) 0.2248(3) 0.6647(3)
C7 C 0.3783(3) 0.2299(3) 0.6744(3)
H3 H 0.3960 0.1917 0.7266
C8 C 0.2911(3) 0.4195(3) 0.4375(3)
C9 C 0.2115(3) 0.1547(4) 0.7338(4)
O7 O 0.6819(2) 0.3527(2) 0.7262(3)
O8 O 0.1179(3) -0.0198(3) 0.6967(3)
O9 O 0.5968(3) 0.2671(3) 0.3245(3)
N1 N 0.7572(3) 0.3123(3) 0.2727(3)
C10 C 0.6654(4) 0.3141(4) 0.2654(3)
H4 H 0.6515 0.3536 0.2119
C11 C 0.7775(5) 0.2513(5) 0.3591(4)
H5 H 0.7171 0.2234 0.4003
H6 H 0.7996 0.2880 0.3835
H7 H 0.8289 0.2029 0.3496
C12 C 0.8393(4) 0.3634(4) 0.1978(4)
H8 H 0.8142 0.3996 0.1468
H9 H 0.8931 0.3193 0.1821
H10 H 0.8638 0.4045 0.2159
N2 N 0.6169(2) 0.5930(3) 0.2215(3)
N3 N 0.7295(2) 0.5515(2) 0.2955(2)
N4 N 0.8271(2) 0.4709(3) 0.3938(3)
N5 N 0.9154(2) 0.3792(3) 0.4961(3)
N6 N 0.8692(2) 0.2553(3) 0.6120(3)
N7 N 0.7642(3) -0.1458(3) 0.5385(3)
N8 N 0.6255(2) -0.1190(2) 0.5008(2)
N9 N 0.5945(2) -0.0089(2) 0.3698(2)
N10 N 0.5801(3) 0.1040(3) 0.2335(2)
N11 N 0.5928(3) 0.2289(3) 0.1134(3)
C13 C 0.7069(3) 0.6064(3) 0.2168(3)
H11 H 0.7495 0.6470 0.1676
C14 C 0.5741(3) 0.5287(4) 0.3057(3)
H12 H 0.5100 0.5079 0.3262
C15 C 0.6469(3) 0.5018(3) 0.3531(3)
H13 H 0.6411 0.4594 0.4111
C16 C 0.8219(3) 0.5444(3) 0.3156(3)
C17 C 0.8962(3) 0.6048(3) 0.2652(3)
H14 H 0.8887 0.6543 0.2137
C18 C 0.9825(3) 0.5905(4) 0.2928(4)
H15 H 1.0341 0.6301 0.2589
C19 C 0.9926(3) 0.5166(3) 0.3716(3)
H16 H 1.0497 0.5056 0.3915
C20 C 0.9114(3) 0.4604(4) 0.4183(3)
C21 C 0.8389(3) 0.3267(3) 0.5485(3)
H17 H 0.7743 0.3384 0.5415
C22 C 1.0007(3) 0.3401(3) 0.5254(3)
H18 H 1.0644 0.3623 0.5009
C23 C 0.9709(3) 0.2622(4) 0.5978(4)
H19 H 1.0117 0.2204 0.6322
C24 C 0.8098(3) 0.1738(3) 0.6739(3)
H20 H 0.7387 0.1940 0.6829
H21 H 0.8241 0.1521 0.7316
C25 C 0.8327(3) 0.0933(3) 0.6390(3)
C26 C 0.8126(3) 0.0032(4) 0.6992(3)
H22 H 0.7902 -0.0081 0.7606
C27 C 0.8260(4) -0.0697(4) 0.6672(4)
H23 H 0.8136 -0.1302 0.7074
C28 C 0.8584(3) -0.0531(4) 0.5740(4)
C29 C 0.8790(3) 0.0365(3) 0.5135(3)
H24 H 0.8994 0.0474 0.4522
C30 C 0.8688(3) 0.1115(3) 0.5448(3)
H25 H 0.8854 0.1712 0.5049
C31 C 0.8662(3) -0.1321(4) 0.5382(4)
H26 H 0.9103 -0.1162 0.4776
H27 H 0.8945 -0.1897 0.5756
C32 C 0.7201(3) -0.0913(3) 0.4744(3)
H28 H 0.7486 -0.0438 0.4221
C33 C 0.6963(4) -0.2110(3) 0.6092(4)
H29 H 0.7093 -0.2558 0.6612
C34 C 0.6091(3) -0.1945(3) 0.5851(3)
H30 H 0.5509 -0.2258 0.6169
C35 C 0.5574(3) -0.0798(3) 0.4457(3)
C36 C 0.4634(3) -0.1110(3) 0.4702(3)
H31 H 0.4402 -0.1580 0.5249
C37 C 0.4047(3) -0.0705(3) 0.4112(3)
H32 H 0.3409 -0.0901 0.4259
C38 C 0.4416(3) 0.0007(3) 0.3285(3)
H33 H 0.4046 0.0282 0.2867
C39 C 0.5369(3) 0.0273(3) 0.3132(3)
C40 C 0.5295(4) 0.1723(3) 0.1787(3)
H34 H 0.4604 0.1776 0.1866
C41 C 0.6808(4) 0.1197(4) 0.1998(3)
H35 H 0.7330 0.0853 0.2241
C42 C 0.6878(4) 0.1971(4) 0.1223(4)
H36 H 0.7469 0.2232 0.0830
C43 C 0.5624(5) 0.3128(3) 0.0431(3)
H37 H 0.4955 0.3080 0.0412
H38 H 0.6088 0.3178 -0.0152
C44 C 0.5632(4) 0.4015(4) 0.0661(3)
C45 C 0.4823(4) 0.4213(4) 0.1328(3)
H39 H 0.4282 0.3841 0.1604
C46 C 0.4829(3) 0.4963(3) 0.1574(3)
H40 H 0.4292 0.5091 0.2019
C47 C 0.5637(3) 0.5535(3) 0.1158(3)
C48 C 0.6414(4) 0.5319(4) 0.0471(3)
H41 H 0.6942 0.5706 0.0169
C49 C 0.6433(4) 0.4587(4) 0.0231(3)
H42 H 0.6971 0.4461 -0.0215
C50 C 0.5696(3) 0.6314(3) 0.1449(3)
H43 H 0.5027 0.6601 0.1636
H44 H 0.6096 0.6790 0.0952
loop_
_geom_bond_atom_site_label_1
_geom_bond_atom_site_label_2
_geom_bond_site_symmetry_1
_geom_bond_site_symmetry_2
O1 C1 1_555 1_555
O2 C1 1_555 1_555
O3 C8 1_555 1_555
O4 C8 1_555 1_555
O5 C9 1_555 1_555
O6 C9 1_555 1_555
C1 C2 1_555 1_555
C2 C3 1_555 1_555
C3 H1 1_555 1_555
C4 C3 1_555 1_555
C5 C4 1_555 1_555
H2 C5 1_555 1_555
C6 C5 1_555 1_555
C7 C2 1_555 1_555
H3 C7 1_555 1_555
C8 C4 1_555 1_555
C9 C6 1_555 1_555
O9 C10 1_555 1_555
N1 C10 1_555 1_555
C10 H4 1_555 1_555
C11 N1 1_555 1_555
H5 C11 1_555 1_555
H6 C11 1_555 1_555
H7 C11 1_555 1_555
C12 N1 1_555 1_555
H8 C12 1_555 1_555
H9 C12 1_555 1_555
H10 C12 1_555 1_555
N2 C13 1_555 1_555
N3 C13 1_555 1_555
N4 C16 1_555 1_555
N5 C20 1_555 1_555
N6 C21 1_555 1_555
N7 C31 1_555 1_555
N8 C32 1_555 1_555
N9 C35 1_555 1_555
N10 C39 1_555 1_555
N11 C40 1_555 1_555
C13 H11 1_555 1_555
C14 N2 1_555 1_555
H12 C14 1_555 1_555
C15 N3 1_555 1_555
H13 C15 1_555 1_555
C16 N3 1_555 1_555
C17 C16 1_555 1_555
H14 C17 1_555 1_555
C18 C17 1_555 1_555
H15 C18 1_555 1_555
C19 C18 1_555 1_555
H16 C19 1_555 1_555
C20 N4 1_555 1_555
C21 N5 1_555 1_555
H17 C21 1_555 1_555
C22 N5 1_555 1_555
H18 C22 1_555 1_555
C23 N6 1_555 1_555
H19 C23 1_555 1_555
C24 N6 1_555 1_555
H20 C24 1_555 1_555
H21 C24 1_555 1_555
C25 C24 1_555 1_555
C26 C25 1_555 1_555
H22 C26 1_555 1_555
C27 C26 1_555 1_555
H23 C27 1_555 1_555
C28 C27 1_555 1_555
C29 C28 1_555 1_555
H24 C29 1_555 1_555
C30 C25 1_555 1_555
H25 C30 1_555 1_555
C31 C28 1_555 1_555
H26 C31 1_555 1_555
H27 C31 1_555 1_555
C32 N7 1_555 1_555
H28 C32 1_555 1_555
C33 N7 1_555 1_555
H29 C33 1_555 1_555
C34 N8 1_555 1_555
H30 C34 1_555 1_555
C35 N8 1_555 1_555
C36 C35 1_555 1_555
H31 C36 1_555 1_555
C37 C36 1_555 1_555
H32 C37 1_555 1_555
C38 C37 1_555 1_555
H33 C38 1_555 1_555
C39 N9 1_555 1_555
C40 N10 1_555 1_555
H34 C40 1_555 1_555
C41 N10 1_555 1_555
H35 C41 1_555 1_555
C42 N11 1_555 1_555
H36 C42 1_555 1_555
C43 N11 1_555 1_555
H37 C43 1_555 1_555
H38 C43 1_555 1_555
C44 C43 1_555 1_555
C45 C44 1_555 1_555
H39 C45 1_555 1_555
C46 C45 1_555 1_555
H40 C46 1_555 1_555
C47 C46 1_555 1_555
C48 C47 1_555 1_555
H41 C48 1_555 1_555
C49 C44 1_555 1_555
H42 C49 1_555 1_555
C50 N2 1_555 1_555
H43 C50 1_555 1_555
H44 C50 1_555 1_555
C6 C7 1_555 1_555
C14 C15 1_555 1_555
C19 C20 1_555 1_555
C22 C23 1_555 1_555
C29 C30 1_555 1_555
C33 C34 1_555 1_555
C38 C39 1_555 1_555
C41 C42 1_555 1_555
C47 C50 1_555 1_555
C48 C49 1_555 1_555

#END
