
#######################################################################
#
#                 Cambridge Crystallographic Data Centre
#                                CCDC 
#
#######################################################################
#
# If this CIF has been generated from an entry in the Cambridge 
# Structural Database, then it will include bibliographic, chemical, 
# crystal, experimental, refinement or atomic coordinate data resulting 
# from the CCDC's data processing and validation procedures.
#
#######################################################################

data_VUQYOX
_chemical_formula_moiety         'C26 H33 N3 O2'
_chemical_name_systematic        
2-(4-isopropyl-4,5-dihydro-1,3-oxazol-2-yl)-N-(2-(4-isopropyl-5,5-dimethyl-4,5-dihydro-1,3-oxazol-2-yl)phenyl)aniline
_symmetry_cell_setting           trigonal
_symmetry_space_group_name_H-M   'P 31 2 1'
_symmetry_Int_Tables_number      152
_space_group_name_Hall           'P 31 2"'
loop_
_symmetry_equiv_pos_site_id
_symmetry_equiv_pos_as_xyz
1 x,y,z
2 -y,x-y,1/3+z
3 -x+y,-x,2/3+z
4 x-y,-y,2/3-z
5 -x,-x+y,1/3-z
6 y,x,-z
_cell_length_a                   9.51079(4)
_cell_length_b                   9.51079(4)
_cell_length_c                   44.3094(2)
_cell_angle_alpha                90
_cell_angle_beta                 90
_cell_angle_gamma                120
_cell_volume                     3471.04
_exptl_crystal_colour            colorless
_exptl_crystal_description       irregular
_cell_formula_units_Z            6
loop_
_atom_site_label
_atom_site_type_symbol
_atom_site_fract_x
_atom_site_fract_y
_atom_site_fract_z
C1 C 0.77989(11) 0.37137(11) 0.053676(19)
O1 O 0.75885(8) 0.44785(9) 0.029431(15)
C2 C 0.92114(11) 0.58427(11) 0.02236(2)
C3 C 0.92988(14) 0.73684(13) 0.03528(2)
H1 H 1.0356(17) 0.8336(16) 0.0299(3)
H2 H 0.8419(19) 0.7535(18) 0.0265(3)
H3 H 0.9207(18) 0.7269(17) 0.0576(3)
C4 C 0.93636(13) 0.59434(13) -0.01186(2)
H4 H 0.9215(16) 0.4885(17) -0.0212(3)
H5 H 0.8495(18) 0.6132(17) -0.0203(3)
H6 H 1.0462(18) 0.6858(18) -0.0179(3)
C5 C 1.03425(11) 0.53990(11) 0.040330(19)
H7 H 1.1130(14) 0.6377(15) 0.0516(3)
C6 C 1.13278(12) 0.47889(12) 0.02260(2)
H8 H 1.1851(14) 0.5532(14) 0.0051(3)
C7 C 1.26937(14) 0.48949(16) 0.04241(3)
H9 H 1.2246(18) 0.4174(17) 0.0604(3)
H10 H 1.342(2) 0.606(2) 0.0492(3)
H11 H 1.342(2) 0.465(2) 0.0311(4)
C8 C 1.02958(14) 0.30566(13) 0.01081(2)
H12 H 0.9333(18) 0.2931(18) -0.0017(3)
H13 H 1.099(2) 0.2805(19) -0.0023(3)
H14 H 0.9857(18) 0.2285(18) 0.0279(3)
N1 N 0.92394(10) 0.41512(10) 0.062019(17)
C9 C 0.62815(11) 0.24401(11) 0.067374(19)
C10 C 0.48515(12) 0.24826(12) 0.06173(2)
H15 H 0.4919(14) 0.3337(15) 0.0495(3)
C11 C 0.33715(12) 0.13275(13) 0.07357(2)
H16 H 0.2379(16) 0.1376(16) 0.0689(3)
C12 C 0.33184(12) 0.01147(12) 0.09198(2)
H17 H 0.2315(17) -0.0677(16) 0.1009(3)
C13 C 0.47144(12) 0.00531(12) 0.09795(2)
H18 H 0.4684(15) -0.0752(16) 0.1114(3)
C14 C 0.62259(11) 0.11896(11) 0.085487(19)
N2 N 0.76181(10) 0.11054(10) 0.091546(17)
H19 H 0.8535(18) 0.2002(18) 0.0917(3)
C15 C 0.76548(11) -0.03044(11) 0.098673(19)
C16 C 0.64365(12) -0.18359(12) 0.08848(2)
H20 H 0.5584(15) -0.1883(15) 0.0762(3)
C17 C 0.64568(12) -0.32394(12) 0.09566(2)
H21 H 0.5605(16) -0.4258(16) 0.0881(3)
C18 C 0.76930(13) -0.31841(12) 0.11341(2)
H22 H 0.7716(16) -0.4206(17) 0.1182(3)
C19 C 0.89308(12) -0.16883(12) 0.12285(2)
H23 H 0.9818(15) -0.1646(15) 0.1340(3)
C20 C 0.89551(11) -0.02388(11) 0.115442(19)
C21 C 1.03597(11) 0.13069(12) 0.124819(19)
O2 O 1.14740(8) 0.11814(9) 0.142201(16)
C22 C 1.27678(13) 0.28262(14) 0.14737(2)
H24 H 1.2899(16) 0.3029(16) 0.1692(3)
H25 H 1.3795(18) 0.2917(17) 0.1390(3)
C23 C 1.22249(11) 0.39027(12) 0.13079(2)
H26 H 1.3010(16) 0.4512(15) 0.1149(3)
C24 C 1.20943(12) 0.51367(13) 0.15082(2)
H27 H 1.1360(16) 0.4510(16) 0.1676(3)
C25 C 1.37549(13) 0.63596(14) 0.16372(2)
H28 H 1.4516(18) 0.6985(17) 0.1473(3)
H29 H 1.366(2) 0.716(2) 0.1771(4)
H30 H 1.4235(18) 0.5817(17) 0.1757(3)
C26 C 1.13715(14) 0.60073(14) 0.13334(3)
H31 H 1.0271(18) 0.5248(19) 0.1259(3)
H32 H 1.2069(17) 0.6587(18) 0.1158(3)
H33 H 1.138(2) 0.683(2) 0.1460(4)
N3 N 1.06460(10) 0.27185(10) 0.117466(18)
loop_
_geom_bond_atom_site_label_1
_geom_bond_atom_site_label_2
_geom_bond_site_symmetry_1
_geom_bond_site_symmetry_2
C1 O1 1_555 1_555
O1 C2 1_555 1_555
C2 C3 1_555 1_555
C3 H1 1_555 1_555
H2 C3 1_555 1_555
H3 C3 1_555 1_555
C4 C2 1_555 1_555
H4 C4 1_555 1_555
H5 C4 1_555 1_555
H6 C4 1_555 1_555
C5 C2 1_555 1_555
H7 C5 1_555 1_555
C6 C5 1_555 1_555
H8 C6 1_555 1_555
C7 C6 1_555 1_555
H9 C7 1_555 1_555
H10 C7 1_555 1_555
H11 C7 1_555 1_555
C8 C6 1_555 1_555
H12 C8 1_555 1_555
H13 C8 1_555 1_555
H14 C8 1_555 1_555
N1 C1 1_555 1_555
C9 C1 1_555 1_555
C10 C9 1_555 1_555
H15 C10 1_555 1_555
C11 C10 1_555 1_555
H16 C11 1_555 1_555
C12 C11 1_555 1_555
H17 C12 1_555 1_555
C13 C12 1_555 1_555
H18 C13 1_555 1_555
C14 C9 1_555 1_555
N2 C14 1_555 1_555
H19 N2 1_555 1_555
C15 N2 1_555 1_555
C16 C15 1_555 1_555
H20 C16 1_555 1_555
C17 C16 1_555 1_555
H21 C17 1_555 1_555
C18 C17 1_555 1_555
H22 C18 1_555 1_555
C19 C18 1_555 1_555
H23 C19 1_555 1_555
C20 C15 1_555 1_555
C21 C20 1_555 1_555
O2 C21 1_555 1_555
C22 O2 1_555 1_555
H24 C22 1_555 1_555
H25 C22 1_555 1_555
C23 C22 1_555 1_555
H26 C23 1_555 1_555
C24 C23 1_555 1_555
H27 C24 1_555 1_555
C25 C24 1_555 1_555
H28 C25 1_555 1_555
H29 C25 1_555 1_555
H30 C25 1_555 1_555
C26 C24 1_555 1_555
H31 C26 1_555 1_555
H32 C26 1_555 1_555
H33 C26 1_555 1_555
N3 C21 1_555 1_555
C5 N1 1_555 1_555
C13 C14 1_555 1_555
C19 C20 1_555 1_555
C23 N3 1_555 1_555

#END
