
#######################################################################
#
#                 Cambridge Crystallographic Data Centre
#                                CCDC 
#
#######################################################################
#
# If this CIF has been generated from an entry in the Cambridge 
# Structural Database, then it will include bibliographic, chemical, 
# crystal, experimental, refinement or atomic coordinate data resulting 
# from the CCDC's data processing and validation procedures.
#
#######################################################################

data_VUSBAO
_chemical_formula_moiety         'C17 H26 N1 O8 P1 S1'
_chemical_name_systematic        
't-butyl 5-(diethoxyphosphoryl)-4-phenyl-1,2,3-oxathiazolidine-3-carboxylate 2,2-dioxide'
_symmetry_cell_setting           orthorhombic
_symmetry_space_group_name_H-M   'P 21 21 21'
_symmetry_Int_Tables_number      19
_space_group_name_Hall           'P 2ac 2ab'
loop_
_symmetry_equiv_pos_site_id
_symmetry_equiv_pos_as_xyz
1 x,y,z
2 1/2+x,1/2-y,-z
3 -x,1/2+y,1/2-z
4 1/2-x,-y,1/2+z
_cell_length_a                   8.3695(2)
_cell_length_b                   27.3023(8)
_cell_length_c                   27.5300(8)
_cell_angle_alpha                90
_cell_angle_beta                 90
_cell_angle_gamma                90
_cell_volume                     6290.79
_exptl_crystal_colour            silver
_exptl_crystal_description       block
_cell_formula_units_Z            12
loop_
_atom_site_label
_atom_site_type_symbol
_atom_site_fract_x
_atom_site_fract_y
_atom_site_fract_z
S1 S 0.05037(11) 0.36827(3) 0.75727(3)
P1 P 0.25519(12) 0.29486(3) 0.64345(3)
O1 O 0.1338(3) 0.40428(9) 0.78415(8)
O2 O -0.0523(3) 0.33529(9) 0.78188(9)
O3 O 0.1782(3) 0.33957(8) 0.72621(8)
O4 O 0.3104(3) 0.24979(9) 0.66645(9)
O5 O 0.1654(3) 0.28823(10) 0.59416(9)
O6 O 0.3804(3) 0.33549(9) 0.63427(9)
O7 O -0.2726(3) 0.42218(9) 0.67782(9)
O8 O -0.2072(3) 0.42905(8) 0.75811(8)
N1 N -0.0396(3) 0.39197(10) 0.70840(10)
C1 C 0.2192(4) 0.44190(12) 0.65781(12)
H1 H 0.2190 0.4435 0.6923
C2 C 0.3171(4) 0.47268(12) 0.63133(13)
H2 H 0.3840 0.4954 0.6478
C3 C 0.3189(5) 0.47079(14) 0.58134(13)
H3 H 0.3866 0.4920 0.5633
C4 C 0.2208(5) 0.43759(14) 0.55758(13)
H4 H 0.2219 0.4358 0.5231
C5 C 0.1211(5) 0.40699(13) 0.58403(13)
H5 H 0.0526 0.3848 0.5675
C6 C 0.1208(4) 0.40860(12) 0.63410(12)
C7 C 0.0192(4) 0.37220(12) 0.66179(12)
H6 H -0.0742 0.3626 0.6412
C8 C 0.1043(4) 0.32550(12) 0.67965(12)
H7 H 0.0195 0.3008 0.6871
C9 C 0.0933(7) 0.24175(17) 0.5821(2)
H8 H 0.0519 0.2262 0.6120
H9 H 0.1753 0.2198 0.5680
C10 C -0.0379(8) 0.2480(2) 0.5472(2)
H10 H -0.0859 0.2160 0.5402
H11 H 0.0037 0.2623 0.5171
H12 H -0.1191 0.2697 0.5611
C11 C 0.5347(6) 0.3296(3) 0.61202(19)
H13 H 0.5961 0.3057 0.6315
H14 H 0.5915 0.3614 0.6142
C12 C 0.5387(11) 0.3136(3) 0.5613(2)
H15 H 0.6499 0.3101 0.5508
H16 H 0.4848 0.3380 0.5410
H17 H 0.4839 0.2821 0.5583
C13 C -0.1873(4) 0.41537(12) 0.71196(13)
C14 C -0.3691(4) 0.43310(13) 0.78027(14)
C15 C -0.4537(5) 0.47795(13) 0.76071(14)
H18 H -0.3912 0.5073 0.7685
H19 H -0.5598 0.4805 0.7755
H20 H -0.4647 0.4751 0.7254
C16 C -0.4602(5) 0.38662(14) 0.7696(2)
H21 H -0.4020 0.3585 0.7829
H22 H -0.4716 0.3827 0.7343
H23 H -0.5663 0.3884 0.7845
C17 C -0.3289(5) 0.43844(17) 0.83293(14)
H24 H -0.2743 0.4088 0.8443
H25 H -0.4273 0.4432 0.8516
H26 H -0.2587 0.4668 0.8374
S2 S 0.58295(11) 0.15033(3) 0.57943(3)
P2 P 0.75524(11) 0.21387(3) 0.70346(3)
O9 O 0.6819(3) 0.12434(9) 0.54681(9)
O10 O 0.4617(3) 0.18162(9) 0.56083(9)
O11 O 0.6963(3) 0.17968(8) 0.61499(8)
O12 O 0.7846(3) 0.26454(8) 0.68851(9)
O13 O 0.6698(3) 0.20745(8) 0.75383(8)
O14 O 0.9039(3) 0.17967(8) 0.70401(9)
O15 O 0.3026(3) 0.06696(9) 0.64847(9)
O16 O 0.3625(3) 0.07809(9) 0.56829(8)
N2 N 0.5105(3) 0.11493(10) 0.62343(10)
C18 C 0.7867(4) 0.06832(12) 0.66632(12)
H27 H 0.7850 0.0722 0.6320
C19 C 0.8953(4) 0.03662(12) 0.68743(13)
H28 H 0.9680 0.0188 0.6677
C20 C 0.8981(4) 0.03083(12) 0.73759(13)
H29 H 0.9721 0.0089 0.7521
C21 C 0.7933(4) 0.05698(12) 0.76640(12)
H30 H 0.7958 0.0534 0.8007
C22 C 0.6845(4) 0.08848(12) 0.74492(12)
H31 H 0.6121 0.1062 0.7648
C23 C 0.6793(4) 0.09462(12) 0.69517(12)
C24 C 0.5608(4) 0.12986(12) 0.67307(12)
H32 H 0.4642 0.1315 0.6944
C25 C 0.6194(4) 0.18263(12) 0.66278(12)
H33 H 0.5226 0.2038 0.6592
C26 C 0.6318(5) 0.24803(13) 0.78587(14)
H34 H 0.6795 0.2786 0.7730
H35 H 0.6773 0.2419 0.8185
C27 C 0.4534(5) 0.25371(14) 0.78959(14)
H36 H 0.4282 0.2810 0.8114
H37 H 0.4067 0.2235 0.8025
H38 H 0.4090 0.2604 0.7573
C28 C 1.0213(5) 0.18380(15) 0.74307(15)
H39 H 0.9748 0.1724 0.7741
H40 H 1.0553 0.2183 0.7470
C29 C 1.1590(5) 0.15295(15) 0.72945(16)
H41 H 1.2401 0.1545 0.7551
H42 H 1.2048 0.1649 0.6989
H43 H 1.1236 0.1190 0.7253
C30 C 0.3791(4) 0.08444(13) 0.61585(14)
C31 C 0.2040(4) 0.06397(14) 0.54680(14)
C32 C 0.0798(5) 0.09938(16) 0.56479(15)
H44 H 0.0620 0.0941 0.5996
H45 H -0.0203 0.0941 0.5471
H46 H 0.1169 0.1330 0.5594
C33 C 0.1672(5) 0.01169(15) 0.55836(17)
H47 H 0.1457 0.0084 0.5932
H48 H 0.2588 -0.0089 0.5496
H49 H 0.0731 0.0012 0.5399
C34 C 0.2373(5) 0.07072(18) 0.49286(14)
H50 H 0.2610 0.1052 0.4863
H51 H 0.1432 0.0607 0.4741
H52 H 0.3290 0.0505 0.4834
S3 S -0.12855(10) -0.13745(3) 0.40261(3)
P3 P -0.34749(10) -0.20583(3) 0.51757(3)
O17 O -0.0353(3) -0.17275(9) 0.37722(8)
O18 O -0.2034(3) -0.09945(9) 0.37607(8)
O19 O -0.2624(3) -0.16352(8) 0.43370(7)
O20 O -0.4063(3) -0.25214(8) 0.49751(8)
O21 O -0.4711(3) -0.16365(8) 0.52137(8)
O22 O -0.2652(3) -0.20902(8) 0.56856(7)
O23 O 0.2086(3) -0.09199(9) 0.48105(8)
O24 O 0.1372(3) -0.07879(8) 0.40221(8)
N3 N -0.0303(3) -0.11742(10) 0.45094(9)
C35 C -0.1441(4) -0.09481(12) 0.57671(12)
H53 H -0.0727 -0.1171 0.5919
C36 C -0.2208(5) -0.05900(13) 0.60424(12)
H54 H -0.2013 -0.0570 0.6382
C37 C -0.3243(4) -0.02661(13) 0.58269(13)
H55 H -0.3759 -0.0023 0.6017
C38 C -0.3534(4) -0.02935(12) 0.53368(13)
H56 H -0.4261 -0.0072 0.5189
C39 C -0.2761(4) -0.06485(12) 0.50547(12)
H57 H -0.2949 -0.0663 0.4715
C40 C -0.1720(4) -0.09794(11) 0.52720(11)
C41 C -0.0895(4) -0.13756(11) 0.49758(11)
H58 H 0.0031 -0.1506 0.5165
C42 C -0.1915(4) -0.18083(12) 0.47943(11)
H59 H -0.1169 -0.2082 0.4712
C43 C -0.5534(5) -0.14793(13) 0.56535(13)
H60 H -0.6174 -0.1183 0.5580
H61 H -0.4731 -0.1390 0.5902
C44 C -0.6607(5) -0.18662(14) 0.58545(14)
H62 H -0.7125 -0.1744 0.6150
H63 H -0.5977 -0.2158 0.5932
H64 H -0.7423 -0.1950 0.5613
C45 C -0.2004(4) -0.25523(12) 0.58721(12)
H65 H -0.1546 -0.2748 0.5603
H66 H -0.2861 -0.2746 0.6028
C46 C -0.0731(5) -0.24285(14) 0.62359(15)
H67 H -0.0276 -0.2731 0.6368
H68 H -0.1198 -0.2235 0.6500
H69 H 0.0113 -0.2238 0.6077
C47 C 0.1206(4) -0.09544(12) 0.44731(12)
C48 C 0.2982(4) -0.06949(13) 0.38110(13)
C49 C 0.3810(5) -0.02777(15) 0.40702(14)
H70 H 0.3160 0.0020 0.4042
H71 H 0.4859 -0.0221 0.3922
H72 H 0.3946 -0.0361 0.4414
C50 C 0.3908(5) -0.11668(14) 0.38387(15)
H73 H 0.3331 -0.1423 0.3662
H74 H 0.4029 -0.1264 0.4179
H75 H 0.4965 -0.1120 0.3693
C51 C 0.2587(5) -0.05569(14) 0.32949(13)
H76 H 0.2072 -0.0835 0.3132
H77 H 0.3571 -0.0471 0.3122
H78 H 0.1860 -0.0275 0.3295
loop_
_geom_bond_atom_site_label_1
_geom_bond_atom_site_label_2
_geom_bond_site_symmetry_1
_geom_bond_site_symmetry_2
S1 O1 1_555 1_555
P1 O4 1_555 1_555
O2 S1 1_555 1_555
O3 S1 1_555 1_555
O5 P1 1_555 1_555
O6 P1 1_555 1_555
O7 C13 1_555 1_555
O8 C13 1_555 1_555
N1 S1 1_555 1_555
C1 H1 1_555 1_555
C2 C1 1_555 1_555
H2 C2 1_555 1_555
C3 C2 1_555 1_555
H3 C3 1_555 1_555
C4 C3 1_555 1_555
H4 C4 1_555 1_555
C5 C4 1_555 1_555
H5 C5 1_555 1_555
C6 C1 1_555 1_555
C7 N1 1_555 1_555
H6 C7 1_555 1_555
C8 P1 1_555 1_555
H7 C8 1_555 1_555
C9 O5 1_555 1_555
H8 C9 1_555 1_555
H9 C9 1_555 1_555
C10 C9 1_555 1_555
H10 C10 1_555 1_555
H11 C10 1_555 1_555
H12 C10 1_555 1_555
C11 O6 1_555 1_555
H13 C11 1_555 1_555
H14 C11 1_555 1_555
C12 C11 1_555 1_555
H15 C12 1_555 1_555
H16 C12 1_555 1_555
H17 C12 1_555 1_555
C13 N1 1_555 1_555
C14 O8 1_555 1_555
C15 C14 1_555 1_555
H18 C15 1_555 1_555
H19 C15 1_555 1_555
H20 C15 1_555 1_555
C16 C14 1_555 1_555
H21 C16 1_555 1_555
H22 C16 1_555 1_555
H23 C16 1_555 1_555
C17 C14 1_555 1_555
H24 C17 1_555 1_555
H25 C17 1_555 1_555
H26 C17 1_555 1_555
S2 O9 1_555 1_555
P2 O12 1_555 1_555
O10 S2 1_555 1_555
O11 S2 1_555 1_555
O13 P2 1_555 1_555
O14 P2 1_555 1_555
O15 C30 1_555 1_555
O16 C30 1_555 1_555
N2 S2 1_555 1_555
C18 H27 1_555 1_555
C19 C18 1_555 1_555
H28 C19 1_555 1_555
C20 C19 1_555 1_555
H29 C20 1_555 1_555
C21 C20 1_555 1_555
H30 C21 1_555 1_555
C22 C21 1_555 1_555
H31 C22 1_555 1_555
C23 C18 1_555 1_555
C24 N2 1_555 1_555
H32 C24 1_555 1_555
C25 P2 1_555 1_555
H33 C25 1_555 1_555
C26 O13 1_555 1_555
H34 C26 1_555 1_555
H35 C26 1_555 1_555
C27 C26 1_555 1_555
H36 C27 1_555 1_555
H37 C27 1_555 1_555
H38 C27 1_555 1_555
C28 O14 1_555 1_555
H39 C28 1_555 1_555
H40 C28 1_555 1_555
C29 C28 1_555 1_555
H41 C29 1_555 1_555
H42 C29 1_555 1_555
H43 C29 1_555 1_555
C30 N2 1_555 1_555
C31 O16 1_555 1_555
C32 C31 1_555 1_555
H44 C32 1_555 1_555
H45 C32 1_555 1_555
H46 C32 1_555 1_555
C33 C31 1_555 1_555
H47 C33 1_555 1_555
H48 C33 1_555 1_555
H49 C33 1_555 1_555
C34 C31 1_555 1_555
H50 C34 1_555 1_555
H51 C34 1_555 1_555
H52 C34 1_555 1_555
S3 O17 1_555 1_555
P3 O20 1_555 1_555
O18 S3 1_555 1_555
O19 S3 1_555 1_555
O21 P3 1_555 1_555
O22 P3 1_555 1_555
O23 C47 1_555 1_555
O24 C47 1_555 1_555
N3 S3 1_555 1_555
C35 H53 1_555 1_555
C36 C35 1_555 1_555
H54 C36 1_555 1_555
C37 C36 1_555 1_555
H55 C37 1_555 1_555
C38 C37 1_555 1_555
H56 C38 1_555 1_555
C39 C38 1_555 1_555
H57 C39 1_555 1_555
C40 C35 1_555 1_555
C41 N3 1_555 1_555
H58 C41 1_555 1_555
C42 P3 1_555 1_555
H59 C42 1_555 1_555
C43 O21 1_555 1_555
H60 C43 1_555 1_555
H61 C43 1_555 1_555
C44 C43 1_555 1_555
H62 C44 1_555 1_555
H63 C44 1_555 1_555
H64 C44 1_555 1_555
C45 O22 1_555 1_555
H65 C45 1_555 1_555
H66 C45 1_555 1_555
C46 C45 1_555 1_555
H67 C46 1_555 1_555
H68 C46 1_555 1_555
H69 C46 1_555 1_555
C47 N3 1_555 1_555
C48 O24 1_555 1_555
C49 C48 1_555 1_555
H70 C49 1_555 1_555
H71 C49 1_555 1_555
H72 C49 1_555 1_555
C50 C48 1_555 1_555
H73 C50 1_555 1_555
H74 C50 1_555 1_555
H75 C50 1_555 1_555
C51 C48 1_555 1_555
H76 C51 1_555 1_555
H77 C51 1_555 1_555
H78 C51 1_555 1_555
O3 C8 1_555 1_555
C5 C6 1_555 1_555
C6 C7 1_555 1_555
C7 C8 1_555 1_555
O11 C25 1_555 1_555
C22 C23 1_555 1_555
C23 C24 1_555 1_555
C24 C25 1_555 1_555
O19 C42 1_555 1_555
C39 C40 1_555 1_555
C40 C41 1_555 1_555
C41 C42 1_555 1_555

#END
