
#######################################################################
#
#                 Cambridge Crystallographic Data Centre
#                                CCDC 
#
#######################################################################
#
# If this CIF has been generated from an entry in the Cambridge 
# Structural Database, then it will include bibliographic, chemical, 
# crystal, experimental, refinement or atomic coordinate data resulting 
# from the CCDC's data processing and validation procedures.
#
#######################################################################

data_VUSFIY
_chemical_formula_moiety         'C28 H36 N4'
_chemical_name_systematic        
5,10,15,20,22,24-Hexahydro-5,5,10,10,15,15,20,20-octamethylporphine
_symmetry_cell_setting           triclinic
_symmetry_space_group_name_H-M   'P -1'
_symmetry_Int_Tables_number      2
_space_group_name_Hall           '-P 1'
loop_
_symmetry_equiv_pos_site_id
_symmetry_equiv_pos_as_xyz
1 x,y,z
2 -x,-y,-z
_cell_length_a                   10.165(3)
_cell_length_b                   10.185(2)
_cell_length_c                   13.012(3)
_cell_angle_alpha                85.41(2)
_cell_angle_beta                 67.84(2)
_cell_angle_gamma                89.75(2)
_cell_volume                     1243.14
_exptl_crystal_colour            colorless
_chemical_melting_point          290-291deg.C
_cell_formula_units_Z            2
loop_
_atom_site_label
_atom_site_type_symbol
_atom_site_fract_x
_atom_site_fract_y
_atom_site_fract_z
N1 N 0.2228(6) 0.3814(6) 0.7393(5)
C1 C 0.0827(7) 0.3848(7) 0.8126(6)
C2 C 0.0779(8) 0.3186(9) 0.9107(7)
C3 C 0.2185(8) 0.2810(9) 0.8967(7)
C4 C 0.3057(7) 0.3212(7) 0.7919(6)
N2 N 0.5077(6) 0.5419(6) 0.7549(5)
C5 C 0.5241(7) 0.4434(7) 0.6870(6)
C6 C 0.6316(9) 0.4891(8) 0.5876(7)
C7 C 0.6666(8) 0.6235(8) 0.5952(7)
C8 C 0.5886(7) 0.6561(7) 0.6994(6)
N3 N 0.3541(6) 0.8374(6) 0.7341(5)
C9 C 0.4327(7) 0.8266(7) 0.8012(6)
C10 C 0.3519(8) 0.8737(8) 0.8998(6)
C11 C 0.2195(8) 0.9142(8) 0.8973(7)
C12 C 0.2241(7) 0.8899(7) 0.7903(6)
N4 N 0.0438(6) 0.6730(6) 0.7680(5)
C13 C 0.0832(7) 0.7860(7) 0.6971(6)
C14 C 0.0754(8) 0.7577(8) 0.5986(6)
C15 C 0.0304(8) 0.6224(8) 0.6108(7)
C16 C 0.0125(7) 0.5719(7) 0.7159(6)
C17 C -0.0321(7) 0.4368(7) 0.7743(6)
C18 C -0.1742(8) 0.4418(8) 0.8775(8)
C19 C -0.0570(8) 0.3455(8) 0.6955(7)
C20 C 0.4643(7) 0.3075(7) 0.7300(7)
C21 C 0.4927(8) 0.2218(8) 0.6296(8)
C22 C 0.5278(8) 0.2401(8) 0.8123(8)
C23 C 0.5837(7) 0.7808(7) 0.7560(7)
C24 C 0.6354(8) 0.7540(8) 0.8545(7)
C25 C 0.6806(8) 0.8887(8) 0.6700(8)
C26 C 0.1170(7) 0.9139(7) 0.7361(6)
C27 C 0.1813(8) 1.0165(8) 0.6339(7)
C28 C -0.0216(8) 0.9675(8) 0.8204(8)
loop_
_geom_bond_atom_site_label_1
_geom_bond_atom_site_label_2
_geom_bond_site_symmetry_1
_geom_bond_site_symmetry_2
N1 C1 1_555 1_555
C1 C2 1_555 1_555
C2 C3 1_555 1_555
C3 C4 1_555 1_555
C4 N1 1_555 1_555
N2 C5 1_555 1_555
C5 C6 1_555 1_555
C6 C7 1_555 1_555
C7 C8 1_555 1_555
C8 N2 1_555 1_555
N3 C9 1_555 1_555
C9 C10 1_555 1_555
C10 C11 1_555 1_555
C11 C12 1_555 1_555
C12 N3 1_555 1_555
N4 C13 1_555 1_555
C13 C14 1_555 1_555
C14 C15 1_555 1_555
C15 C16 1_555 1_555
C16 N4 1_555 1_555
C17 C1 1_555 1_555
C18 C17 1_555 1_555
C19 C17 1_555 1_555
C20 C4 1_555 1_555
C21 C20 1_555 1_555
C22 C20 1_555 1_555
C23 C8 1_555 1_555
C24 C23 1_555 1_555
C25 C23 1_555 1_555
C26 C12 1_555 1_555
C27 C26 1_555 1_555
C28 C26 1_555 1_555
C5 C20 1_555 1_555
C9 C23 1_555 1_555
C13 C26 1_555 1_555
C16 C17 1_555 1_555

#END
