
#######################################################################
#
#                 Cambridge Crystallographic Data Centre
#                                CCDC 
#
#######################################################################
#
# If this CIF has been generated from an entry in the Cambridge 
# Structural Database, then it will include bibliographic, chemical, 
# crystal, experimental, refinement or atomic coordinate data resulting 
# from the CCDC's data processing and validation procedures.
#
#######################################################################

data_VUSTUA
_chemical_formula_moiety         'C18 H15 F2 N1 O1'
_chemical_name_systematic        
4-(3,5-Difluoro-2-(phenylethynyl)phenyl)morpholine
_symmetry_cell_setting           monoclinic
_symmetry_space_group_name_H-M   'P 21/c'
_symmetry_Int_Tables_number      14
_space_group_name_Hall           '-P 2ybc'
loop_
_symmetry_equiv_pos_site_id
_symmetry_equiv_pos_as_xyz
1 x,y,z
2 -x,1/2+y,1/2-z
3 -x,-y,-z
4 x,1/2-y,1/2+z
_cell_length_a                   9.4549(6)
_cell_length_b                   15.6927(9)
_cell_length_c                   10.1768(7)
_cell_angle_alpha                90
_cell_angle_beta                 100.707(6)
_cell_angle_gamma                90
_cell_volume                     1483.67
_exptl_crystal_colour            yellow
_exptl_crystal_description       block
_cell_formula_units_Z            4
_exptl_crystal_recrystallization_method dichloromethane
loop_
_atom_site_label
_atom_site_type_symbol
_atom_site_fract_x
_atom_site_fract_y
_atom_site_fract_z
N1 N 0.34789(16) 0.09923(9) 0.01557(14)
F1 F 0.03422(14) -0.09739(8) -0.25123(12)
F2 F 0.28627(17) 0.09952(10) -0.46192(11)
C1 C 0.18878(19) -0.00164(11) -0.11799(16)
O1 O 0.45030(16) 0.19946(9) 0.24488(13)
C2 C 0.28487(19) 0.06799(11) -0.11119(16)
C3 C 0.16981(19) -0.04475(12) 0.00149(19)
C4 C 0.3176(2) 0.10144(12) -0.22888(18)
H1 H 0.3815 0.1467 -0.2263
C5 C 0.1700(2) -0.07967(12) 0.10569(19)
C6 C 0.1840(2) -0.11920(11) 0.23468(18)
C7 C 0.1572(2) 0.00092(14) -0.36063(18)
H2 H 0.1146 -0.0208 -0.4436
C8 C 0.1265(2) -0.03104(12) -0.24370(19)
C9 C 0.4797(2) 0.14891(13) 0.02648(18)
H3 H 0.4582 0.2048 -0.0131
H4 H 0.5465 0.1205 -0.0207
C10 C 0.3196(2) 0.15241(14) 0.2328(2)
H5 H 0.2545 0.1818 0.2808
H6 H 0.3398 0.0967 0.2733
C11 C 0.2481(2) 0.14176(13) 0.08894(18)
H7 H 0.1613 0.1080 0.0835
H8 H 0.2214 0.1971 0.0495
C12 C 0.0789(2) -0.17249(13) 0.2678(2)
H9 H -0.0051 -0.1829 0.2063
C13 C 0.5456(2) 0.15778(14) 0.17240(19)
H10 H 0.5691 0.1017 0.2103
H11 H 0.6342 0.1902 0.1811
C14 C 0.3081(2) -0.10518(13) 0.3291(2)
H12 H 0.3794 -0.0696 0.3081
C15 C 0.2536(2) 0.06631(14) -0.34828(18)
C16 C 0.3273(3) -0.14286(14) 0.4529(2)
H13 H 0.4108 -0.1327 0.5152
C17 C 0.2223(3) -0.19563(14) 0.4841(2)
H14 H 0.2349 -0.2215 0.5677
C18 C 0.0998(3) -0.21010(14) 0.3929(2)
H15 H 0.0292 -0.2458 0.4149
loop_
_geom_bond_atom_site_label_1
_geom_bond_atom_site_label_2
_geom_bond_site_symmetry_1
_geom_bond_site_symmetry_2
N1 C2 1_555 1_555
F1 C8 1_555 1_555
F2 C15 1_555 1_555
C1 C2 1_555 1_555
O1 C10 1_555 1_555
C2 C4 1_555 1_555
C3 C1 1_555 1_555
C4 H1 1_555 1_555
C5 C3 1_555 1_555
C6 C5 1_555 1_555
C7 H2 1_555 1_555
C8 C1 1_555 1_555
C9 N1 1_555 1_555
H3 C9 1_555 1_555
H4 C9 1_555 1_555
C10 H5 1_555 1_555
H6 C10 1_555 1_555
C11 N1 1_555 1_555
H7 C11 1_555 1_555
H8 C11 1_555 1_555
C12 C6 1_555 1_555
H9 C12 1_555 1_555
C13 O1 1_555 1_555
H10 C13 1_555 1_555
H11 C13 1_555 1_555
C14 C6 1_555 1_555
H12 C14 1_555 1_555
C15 C4 1_555 1_555
C16 C14 1_555 1_555
H13 C16 1_555 1_555
C17 C16 1_555 1_555
H14 C17 1_555 1_555
C18 C12 1_555 1_555
H15 C18 1_555 1_555
C7 C8 1_555 1_555
C7 C15 1_555 1_555
C9 C13 1_555 1_555
C10 C11 1_555 1_555
C17 C18 1_555 1_555

#END
