
#######################################################################
#
#                 Cambridge Crystallographic Data Centre
#                                CCDC 
#
#######################################################################
#
# If this CIF has been generated from an entry in the Cambridge 
# Structural Database, then it will include bibliographic, chemical, 
# crystal, experimental, refinement or atomic coordinate data resulting 
# from the CCDC's data processing and validation procedures.
#
#######################################################################

data_VUSTUZ
_chemical_formula_moiety         'C22 H37 N2 O4 1+,H2 O1,Cl1 1-'
_chemical_name_systematic        
"N,N-Diethyl-2-((3-(6'-methylspiro[tricyclo[3.3.1.1^3,7^]decane-2,3'-[1,2,4]trioxan]-6'-yl)acryloyl)amino)ethanaminium chloride monohydrate"
_symmetry_cell_setting           monoclinic
_symmetry_space_group_name_H-M   'P 21/c'
_symmetry_Int_Tables_number      14
_space_group_name_Hall           '-P 2ybc'
loop_
_symmetry_equiv_pos_site_id
_symmetry_equiv_pos_as_xyz
1 x,y,z
2 -x,1/2+y,1/2-z
3 -x,-y,-z
4 x,1/2-y,1/2+z
_cell_length_a                   18.705(3)
_cell_length_b                   7.6876(13)
_cell_length_c                   16.257(3)
_cell_angle_alpha                90
_cell_angle_beta                 93.288(3)
_cell_angle_gamma                90
_cell_volume                     2333.85
_exptl_crystal_colour            colorless
_exptl_crystal_description       plate
_cell_formula_units_Z            4
loop_
_atom_site_label
_atom_site_type_symbol
_atom_site_fract_x
_atom_site_fract_y
_atom_site_fract_z
O1 O 0.81413(13) 0.0778(3) 0.39824(14)
O2 O 0.83545(13) 0.2081(3) 0.46133(15)
O3 O 0.80147(12) -0.1318(3) 0.49626(14)
O4 O 0.56728(12) 0.2745(3) 0.49708(13)
N1 N 0.58338(14) 0.3883(3) 0.37295(15)
N2 N 0.38585(14) 0.3252(3) 0.32264(15)
C1 C 0.83851(18) -0.0877(4) 0.4261(2)
C2 C 0.81421(18) -0.2150(5) 0.3592(2)
C3 C 0.8493(2) -0.1687(5) 0.2790(2)
C4 C 0.9300(2) -0.1783(6) 0.2931(2)
C5 C 0.9539(2) -0.0485(6) 0.3599(2)
C6 C 0.91988(18) -0.0946(5) 0.4403(2)
C7 C 0.83620(19) -0.3978(5) 0.3860(2)
C8 C 0.9174(2) -0.4063(5) 0.3994(3)
C9 C 0.9413(2) -0.2785(5) 0.4674(2)
C10 C 0.9516(2) -0.3597(6) 0.3199(3)
C11 C 0.81202(18) -0.0085(5) 0.5608(2)
C12 C 0.79541(18) 0.1739(4) 0.5319(2)
C13 C 0.71637(18) 0.2045(4) 0.5153(2)
C14 C 0.68552(19) 0.2754(4) 0.4494(2)
C15 C 0.60816(17) 0.3109(4) 0.44302(18)
C16 C 0.8241(2) 0.3012(5) 0.5968(2)
C17 C 0.50961(17) 0.4420(4) 0.36055(18)
C18 C 0.46416(17) 0.2882(4) 0.33027(18)
C19 C 0.35396(19) 0.3722(5) 0.4018(2)
C20 C 0.3745(2) 0.2504(5) 0.4716(2)
C21 C 0.3633(2) 0.4579(4) 0.2584(2)
C22 C 0.3835(2) 0.4043(5) 0.1738(2)
H1 H 0.61290 0.40670 0.33360
H2 H 0.76090 -0.20930 0.35000
H3 H 0.36400 0.22150 0.30560
H4 H 0.83320 -0.25090 0.23490
H5 H 0.83510 -0.04980 0.26130
H6 H 0.95310 -0.14870 0.24090
H7 H 0.93950 0.07040 0.34250
H8 H 1.00680 -0.05100 0.36840
H9 H 0.93570 -0.00960 0.48420
H10 H 0.81980 -0.48250 0.34300
H11 H 0.81360 -0.42820 0.43760
H12 H 0.93200 -0.52680 0.41640
H13 H 0.99380 -0.28520 0.47810
H14 H 0.91830 -0.30840 0.51890
H15 H 1.00440 -0.36640 0.32830
H16 H 0.93620 -0.44380 0.27630
H17 H 0.86240 -0.01420 0.58300
H18 H 0.78090 -0.03870 0.60590
H19 H 0.689(2) 0.167(5) 0.559(2)
H20 H 0.708(2) 0.312(5) 0.407(2)
H21 H 0.87590 0.28550 0.60580
H22 H 0.80090 0.28010 0.64840
H23 H 0.81400 0.42030 0.57800
H24 H 0.50570 0.53710 0.31950
H25 H 0.49210 0.48600 0.41300
H26 H 0.47990 0.25140 0.27580
H27 H 0.47270 0.18980 0.36890
H28 H 0.30110 0.37320 0.39300
H29 H 0.36940 0.49140 0.41760
H30 H 0.36520 0.13020 0.45400
H31 H 0.34620 0.27730 0.51880
H32 H 0.42550 0.26430 0.48740
H33 H 0.38620 0.57080 0.27290
H34 H 0.31070 0.47400 0.25800
H35 H 0.43540 0.41560 0.17020
H36 H 0.35900 0.47930 0.13250
H37 H 0.36930 0.28310 0.16380
O5 O 0.44550(13) -0.1648(3) 0.34317(14)
H38 H 0.3992(11) -0.124(6) 0.320(2)
H39 H 0.4380(19) -0.184(6) 0.4015(9)
Cl1 Cl 0.30671(4) -0.00603(10) 0.26567(5)
loop_
_geom_bond_atom_site_label_1
_geom_bond_atom_site_label_2
_geom_bond_site_symmetry_1
_geom_bond_site_symmetry_2
O1 O2 1_555 1_555
O2 C12 1_555 1_555
O3 C1 1_555 1_555
O4 C15 1_555 1_555
N1 C15 1_555 1_555
N2 C18 1_555 1_555
C1 O1 1_555 1_555
C2 C1 1_555 1_555
C3 C2 1_555 1_555
C4 C3 1_555 1_555
C5 C4 1_555 1_555
C6 C1 1_555 1_555
C7 C2 1_555 1_555
C8 C7 1_555 1_555
C9 C6 1_555 1_555
C10 C4 1_555 1_555
C11 O3 1_555 1_555
C12 C11 1_555 1_555
C13 C12 1_555 1_555
C14 C13 1_555 1_555
C15 C14 1_555 1_555
C16 C12 1_555 1_555
C17 N1 1_555 1_555
C18 C17 1_555 1_555
C19 N2 1_555 1_555
C20 C19 1_555 1_555
C21 N2 1_555 1_555
C22 C21 1_555 1_555
O5 H38 1_555 1_555
H1 N1 1_555 1_555
H2 C2 1_555 1_555
H3 N2 1_555 1_555
H4 C3 1_555 1_555
H5 C3 1_555 1_555
H6 C4 1_555 1_555
H7 C5 1_555 1_555
H8 C5 1_555 1_555
H9 C6 1_555 1_555
H10 C7 1_555 1_555
H11 C7 1_555 1_555
H12 C8 1_555 1_555
H13 C9 1_555 1_555
H14 C9 1_555 1_555
H15 C10 1_555 1_555
H16 C10 1_555 1_555
H17 C11 1_555 1_555
H18 C11 1_555 1_555
H19 C13 1_555 1_555
H20 C14 1_555 1_555
H21 C16 1_555 1_555
H22 C16 1_555 1_555
H23 C16 1_555 1_555
H24 C17 1_555 1_555
H25 C17 1_555 1_555
H26 C18 1_555 1_555
H27 C18 1_555 1_555
H28 C19 1_555 1_555
H29 C19 1_555 1_555
H30 C20 1_555 1_555
H31 C20 1_555 1_555
H32 C20 1_555 1_555
H33 C21 1_555 1_555
H34 C21 1_555 1_555
H35 C22 1_555 1_555
H36 C22 1_555 1_555
H37 C22 1_555 1_555
H39 O5 1_555 1_555
C5 C6 1_555 1_555
C8 C9 1_555 1_555
C8 C10 1_555 1_555

#END
