
#######################################################################
#
#                 Cambridge Crystallographic Data Centre
#                                CCDC 
#
#######################################################################
#
# If this CIF has been generated from an entry in the Cambridge 
# Structural Database, then it will include bibliographic, chemical, 
# crystal, experimental, refinement or atomic coordinate data resulting 
# from the CCDC's data processing and validation procedures.
#
#######################################################################

data_VUSWEM
_chemical_formula_moiety         'C35 H45 N2 1+,I1 1-'
_chemical_name_systematic        
'1,3-bis(2,6-diisopropylphenyl)-2-(4-methylbenzyl)imidazolium iodide'
_symmetry_cell_setting           triclinic
_symmetry_space_group_name_H-M   'P -1'
_symmetry_Int_Tables_number      2
_space_group_name_Hall           '-P 1'
loop_
_symmetry_equiv_pos_site_id
_symmetry_equiv_pos_as_xyz
1 x,y,z
2 -x,-y,-z
_cell_length_a                   9.9198(3)
_cell_length_b                   10.5205(4)
_cell_length_c                   16.6770(6)
_cell_angle_alpha                83.068(2)
_cell_angle_beta                 85.616(2)
_cell_angle_gamma                69.015(2)
_cell_volume                     1612.08
_exptl_crystal_colour            colorless
_exptl_crystal_description       prism
_cell_formula_units_Z            2
loop_
_atom_site_label
_atom_site_type_symbol
_atom_site_fract_x
_atom_site_fract_y
_atom_site_fract_z
N1 N 0.32090(17) -0.01333(17) 0.82429(10)
N2 N 0.31140(16) 0.06388(17) 0.69760(10)
C1 C 0.2305(2) 0.0432(2) 0.76286(12)
C2 C 0.4554(2) 0.0173(2) 0.71829(13)
H1 H 0.5349 0.0191 0.6833
C3 C 0.4615(2) -0.0304(2) 0.79634(13)
H2 H 0.5461 -0.0689 0.8271
C4 C 0.2813(2) -0.0508(2) 0.90697(12)
C5 C 0.2590(2) 0.1307(2) 0.61900(12)
C6 C 0.2431(2) 0.0490(2) 0.96098(12)
C7 C 0.2253(2) 0.2726(2) 0.60565(13)
C8 C 0.2128(2) 0.0082(2) 1.04084(13)
H3 H 0.1844 0.0732 1.0795
C9 C 0.1752(2) 0.3341(2) 0.53006(13)
H4 H 0.1501 0.4303 0.5186
C10 C 0.2235(2) -0.1258(2) 1.06461(13)
H5 H 0.2044 -0.1519 1.1196
C11 C 0.1609(2) 0.2586(3) 0.47105(14)
H6 H 0.1260 0.3034 0.4198
C12 C 0.2616(2) -0.2213(2) 1.00966(13)
H7 H 0.2677 -0.3125 1.0272
C13 C 0.1970(2) 0.1188(2) 0.48593(13)
H8 H 0.1870 0.0682 0.4447
C14 C 0.2912(2) -0.1867(2) 0.92867(13)
C15 C 0.2478(2) 0.0507(2) 0.56041(12)
C16 C 0.3376(2) -0.2943(2) 0.86935(13)
H9 H 0.3319 -0.2460 0.8136
C17 C 0.2923(2) -0.1042(2) 0.57379(13)
H10 H 0.3304 -0.1357 0.6293
C18 C 0.4952(2) -0.3878(3) 0.88214(16)
H11 H 0.5579 -0.3331 0.8729
H12 H 0.5235 -0.4577 0.8441
H13 H 0.5049 -0.4322 0.9376
C19 C 0.4119(2) -0.1703(3) 0.51216(15)
H14 H 0.3773 -0.1368 0.4574
H15 H 0.4381 -0.2699 0.5202
H16 H 0.4967 -0.1464 0.5194
C20 C 0.2396(3) -0.3784(3) 0.87499(17)
H17 H 0.2440 -0.4276 0.9291
H18 H 0.2717 -0.4443 0.8345
H19 H 0.1400 -0.3174 0.8650
C21 C 0.1645(3) -0.1500(3) 0.56645(16)
H20 H 0.0885 -0.1092 0.6066
H21 H 0.1962 -0.2499 0.5760
H22 H 0.1266 -0.1202 0.5121
C22 C 0.2403(2) 0.1938(2) 0.93705(13)
H23 H 0.2263 0.2146 0.8775
C23 C 0.2459(2) 0.3555(2) 0.66934(14)
H24 H 0.2378 0.3060 0.7236
C24 C 0.3846(3) 0.2048(3) 0.95433(18)
H25 H 0.3996 0.1870 1.0126
H26 H 0.3836 0.2970 0.9354
H27 H 0.4630 0.1374 0.9260
C25 C 0.3978(2) 0.3654(3) 0.66025(17)
H28 H 0.4710 0.2732 0.6655
H29 H 0.4095 0.4174 0.7025
H30 H 0.4094 0.4119 0.6070
C26 C 0.1169(3) 0.3021(3) 0.97989(16)
H31 H 0.0260 0.2869 0.9753
H32 H 0.1081 0.3936 0.9546
H33 H 0.1379 0.2947 1.0371
C27 C 0.1313(3) 0.4987(2) 0.66742(16)
H34 H 0.1432 0.5526 0.6170
H35 H 0.1422 0.5434 0.7135
H36 H 0.0350 0.4920 0.6705
C28 C 0.0739(2) 0.0612(2) 0.76770(13)
H37 H 0.0478 0.0376 0.8246
H38 H 0.0606 -0.0060 0.7353
C29 C -0.0338(2) 0.2033(2) 0.73938(13)
C30 C -0.0641(2) 0.3114(2) 0.78581(14)
H39 H -0.0120 0.2994 0.8333
C31 C -0.1692(2) 0.4363(2) 0.76410(14)
H40 H -0.1879 0.5092 0.7968
C32 C -0.2486(2) 0.4574(2) 0.69467(14)
C33 C -0.2145(2) 0.3485(3) 0.64786(15)
H41 H -0.2636 0.3610 0.5992
C34 C -0.1110(2) 0.2228(2) 0.67020(14)
H42 H -0.0927 0.1493 0.6380
C35 C -0.3643(2) 0.5935(2) 0.67167(16)
H43 H -0.4576 0.5931 0.6954
H44 H -0.3696 0.6094 0.6127
H45 H -0.3408 0.6664 0.6920
I1 I 0.149551(14) 0.162933(15) 0.248146(8)
loop_
_geom_bond_atom_site_label_1
_geom_bond_atom_site_label_2
_geom_bond_site_symmetry_1
_geom_bond_site_symmetry_2
N1 C1 1_555 1_555
N2 C1 1_555 1_555
C1 C28 1_555 1_555
C2 N2 1_555 1_555
H1 C2 1_555 1_555
C3 N1 1_555 1_555
H2 C3 1_555 1_555
C4 N1 1_555 1_555
C5 N2 1_555 1_555
C6 C4 1_555 1_555
C7 C5 1_555 1_555
C8 C6 1_555 1_555
H3 C8 1_555 1_555
C9 C7 1_555 1_555
H4 C9 1_555 1_555
C10 C8 1_555 1_555
H5 C10 1_555 1_555
C11 C9 1_555 1_555
H6 C11 1_555 1_555
C12 C10 1_555 1_555
H7 C12 1_555 1_555
C13 C11 1_555 1_555
H8 C13 1_555 1_555
C14 C4 1_555 1_555
C15 C5 1_555 1_555
C16 C14 1_555 1_555
H9 C16 1_555 1_555
C17 C15 1_555 1_555
H10 C17 1_555 1_555
C18 C16 1_555 1_555
H11 C18 1_555 1_555
H12 C18 1_555 1_555
H13 C18 1_555 1_555
C19 C17 1_555 1_555
H14 C19 1_555 1_555
H15 C19 1_555 1_555
H16 C19 1_555 1_555
C20 C16 1_555 1_555
H17 C20 1_555 1_555
H18 C20 1_555 1_555
H19 C20 1_555 1_555
C21 C17 1_555 1_555
H20 C21 1_555 1_555
H21 C21 1_555 1_555
H22 C21 1_555 1_555
C22 C6 1_555 1_555
H23 C22 1_555 1_555
C23 C7 1_555 1_555
H24 C23 1_555 1_555
C24 C22 1_555 1_555
H25 C24 1_555 1_555
H26 C24 1_555 1_555
H27 C24 1_555 1_555
C25 C23 1_555 1_555
H28 C25 1_555 1_555
H29 C25 1_555 1_555
H30 C25 1_555 1_555
C26 C22 1_555 1_555
H31 C26 1_555 1_555
H32 C26 1_555 1_555
H33 C26 1_555 1_555
C27 C23 1_555 1_555
H34 C27 1_555 1_555
H35 C27 1_555 1_555
H36 C27 1_555 1_555
C28 H37 1_555 1_555
H38 C28 1_555 1_555
C29 C28 1_555 1_555
C30 C29 1_555 1_555
H39 C30 1_555 1_555
C31 C30 1_555 1_555
H40 C31 1_555 1_555
C32 C31 1_555 1_555
C33 C32 1_555 1_555
H41 C33 1_555 1_555
C34 C29 1_555 1_555
H42 C34 1_555 1_555
C35 C32 1_555 1_555
H43 C35 1_555 1_555
H44 C35 1_555 1_555
H45 C35 1_555 1_555
C2 C3 1_555 1_555
C12 C14 1_555 1_555
C13 C15 1_555 1_555
C33 C34 1_555 1_555

#END
