
#######################################################################
#
#                 Cambridge Crystallographic Data Centre
#                                CCDC 
#
#######################################################################
#
# If this CIF has been generated from an entry in the Cambridge 
# Structural Database, then it will include bibliographic, chemical, 
# crystal, experimental, refinement or atomic coordinate data resulting 
# from the CCDC's data processing and validation procedures.
#
#######################################################################

data_VUVRIO
_chemical_formula_moiety         'C23 H22 N2 O1 Si1'
_chemical_name_systematic        
5-Methyl-4-(((triphenylsilyl)oxy)methyl)-1H-imidazole
_symmetry_cell_setting           triclinic
_symmetry_space_group_name_H-M   'P -1'
_symmetry_Int_Tables_number      2
_space_group_name_Hall           '-P 1'
loop_
_symmetry_equiv_pos_site_id
_symmetry_equiv_pos_as_xyz
1 x,y,z
2 -x,-y,-z
_cell_length_a                   9.7024(15)
_cell_length_b                   14.885(2)
_cell_length_c                   16.040(3)
_cell_angle_alpha                111.814(3)
_cell_angle_beta                 106.339(3)
_cell_angle_gamma                95.631(3)
_cell_volume                     2009.67
_exptl_crystal_colour            colorless
_exptl_crystal_description       plate
_chemical_melting_point          '98 deg.C'
_cell_formula_units_Z            4
loop_
_atom_site_label
_atom_site_type_symbol
_atom_site_fract_x
_atom_site_fract_y
_atom_site_fract_z
Si1 Si 0.78097(7) 0.00867(5) 0.28219(4)
O1 O 0.88358(17) 0.09583(11) 0.38765(11)
N1 N 0.8192(2) 0.29885(14) 0.49013(13)
N2 N 0.5860(2) 0.29205(15) 0.47785(13)
H1 H 0.5021 0.3106 0.4755
C1 C 0.7133(3) 0.34867(18) 0.49054(16)
H3 H 0.7258 0.4159 0.4988
C2 C 0.7541(3) 0.20517(17) 0.47688(15)
C3 C 0.6097(3) 0.20030(17) 0.46914(16)
C4 C 0.8410(3) 0.12739(18) 0.47177(16)
H4 H 0.9308 0.1537 0.5295
H5 H 0.7815 0.0692 0.4714
C5 C 0.4882(3) 0.1182(2) 0.4518(2)
H6 H 0.5257 0.0581 0.4454
H7 H 0.4074 0.1049 0.3929
H8 H 0.4520 0.1380 0.5058
C6 C 0.9183(2) -0.02930(16) 0.22179(16)
C7 C 1.0642(3) -0.02017(18) 0.27431(18)
H9 H 1.0960 0.0086 0.3422
C8 C 1.1644(3) -0.0528(2) 0.2285(2)
H10 H 1.2633 -0.0468 0.2653
C9 C 1.1203(3) -0.09385(19) 0.1299(2)
H11 H 1.1888 -0.1155 0.0988
C10 C 0.9765(3) -0.10320(18) 0.07668(19)
H12 H 0.9455 -0.1315 0.0088
C11 C 0.8768(3) -0.07106(17) 0.12258(17)
H13 H 0.7779 -0.0778 0.0852
C12 C 0.6891(3) -0.09956(16) 0.29468(15)
C13 C 0.7735(3) -0.15947(19) 0.32544(18)
H14 H 0.8768 -0.1453 0.3382
C14 C 0.7102(3) -0.23916(19) 0.33788(19)
H15 H 0.7702 -0.2785 0.3592
C15 C 0.5607(3) -0.26126(18) 0.31943(18)
H16 H 0.5176 -0.3156 0.3284
C16 C 0.4732(3) -0.20445(19) 0.28786(18)
H17 H 0.3697 -0.2202 0.2740
C17 C 0.5372(3) -0.12437(18) 0.27651(17)
H18 H 0.4763 -0.0851 0.2558
C18 C 0.6409(2) 0.05662(17) 0.21403(16)
C19 C 0.5191(3) -0.00630(18) 0.13313(17)
H19 H 0.5054 -0.0762 0.1128
C20 C 0.4187(3) 0.03075(19) 0.08244(18)
H20 H 0.3367 -0.0134 0.0284
C21 C 0.4379(3) 0.13273(19) 0.11050(17)
H21 H 0.3685 0.1586 0.0763
C22 C 0.5587(3) 0.19624(18) 0.18850(17)
H22 H 0.5736 0.2659 0.2066
C23 C 0.6580(3) 0.15947(17) 0.24034(16)
H23 H 0.7391 0.2044 0.2946
Si2 Si 0.70660(7) 0.53651(5) 0.79375(4)
O2 O 0.58886(16) 0.48139(11) 0.68370(11)
N3 N 0.3335(2) 0.36508(14) 0.49784(14)
N4 N 0.1122(2) 0.36459(14) 0.51128(13)
H2 H 0.0172 0.3448 0.4985
C24 C 0.1943(3) 0.31689(19) 0.46184(17)
H24 H 0.1560 0.2553 0.4070
C25 C 0.3413(2) 0.44940(17) 0.57690(16)
C26 C 0.2045(2) 0.44984(17) 0.58528(16)
C27 C 0.4831(2) 0.52454(17) 0.63707(17)
H25 H 0.5226 0.5483 0.5965
H26 H 0.4658 0.5823 0.6858
C28 C 0.1492(3) 0.52223(19) 0.65445(19)
H27 H 0.0821 0.5528 0.6211
H28 H 0.2327 0.5739 0.7060
H29 H 0.0965 0.4873 0.6815
C29 C 0.8078(2) 0.44011(16) 0.80835(16)
C30 C 0.8567(3) 0.38468(18) 0.73526(17)
H30 H 0.8304 0.3931 0.6773
C31 C 0.9428(3) 0.31765(19) 0.74528(18)
H31 H 0.9764 0.2816 0.6951
C32 C 0.9795(3) 0.30352(18) 0.82824(18)
H32 H 1.0384 0.2577 0.8353
C33 C 0.9308(3) 0.35605(19) 0.90121(17)
H33 H 0.9551 0.3457 0.9581
C34 C 0.8461(3) 0.42404(17) 0.89143(16)
H34 H 0.8138 0.4602 0.9422
C35 C 0.8458(3) 0.64564(17) 0.81231(16)
C36 C 0.9971(3) 0.65172(18) 0.84794(17)
H35 H 1.0301 0.5991 0.8616
C37 C 1.1004(3) 0.73348(18) 0.86373(18)
H36 H 1.2028 0.7361 0.8878
C38 C 1.0544(3) 0.81059(19) 0.84448(18)
H37 H 1.1250 0.8666 0.8557
C39 C 0.9046(3) 0.80648(18) 0.80855(17)
H38 H 0.8726 0.8594 0.7949
C40 C 0.8022(3) 0.72479(17) 0.79281(17)
H39 H 0.7000 0.7225 0.7682
C41 C 0.6039(3) 0.57824(17) 0.87923(16)
C42 C 0.6683(3) 0.65989(18) 0.96785(17)
H40 H 0.7650 0.6966 0.9841
C43 C 0.5945(3) 0.68850(19) 1.03258(18)
H41 H 0.6414 0.7436 1.0927
C44 C 0.4530(3) 0.6371(2) 1.00999(19)
H42 H 0.4019 0.6571 1.0540
C45 C 0.3858(3) 0.5557(2) 0.92196(19)
H43 H 0.2885 0.5200 0.9058
C46 C 0.4610(3) 0.52681(19) 0.85800(18)
H44 H 0.4144 0.4708 0.7985
loop_
_geom_bond_atom_site_label_1
_geom_bond_atom_site_label_2
_geom_bond_site_symmetry_1
_geom_bond_site_symmetry_2
Si1 O1 1_555 1_555
Si2 O2 1_555 1_555
O1 C4 1_555 1_555
O2 C27 1_555 1_555
N1 C1 1_555 1_555
N2 H1 1_555 1_555
N3 C24 1_555 1_555
N4 H2 1_555 1_555
C1 N2 1_555 1_555
H3 C1 1_555 1_555
C2 N1 1_555 1_555
C3 N2 1_555 1_555
C4 C2 1_555 1_555
H4 C4 1_555 1_555
H5 C4 1_555 1_555
C5 C3 1_555 1_555
H6 C5 1_555 1_555
H7 C5 1_555 1_555
H8 C5 1_555 1_555
C6 Si1 1_555 1_555
C7 C6 1_555 1_555
H9 C7 1_555 1_555
C8 C7 1_555 1_555
H10 C8 1_555 1_555
C9 C8 1_555 1_555
H11 C9 1_555 1_555
C10 C9 1_555 1_555
H12 C10 1_555 1_555
C11 C6 1_555 1_555
H13 C11 1_555 1_555
C12 Si1 1_555 1_555
C13 C12 1_555 1_555
H14 C13 1_555 1_555
C14 C13 1_555 1_555
H15 C14 1_555 1_555
C15 C14 1_555 1_555
H16 C15 1_555 1_555
C16 C15 1_555 1_555
H17 C16 1_555 1_555
C17 C12 1_555 1_555
H18 C17 1_555 1_555
C18 Si1 1_555 1_555
C19 C18 1_555 1_555
H19 C19 1_555 1_555
C20 C19 1_555 1_555
H20 C20 1_555 1_555
C21 C20 1_555 1_555
H21 C21 1_555 1_555
C22 C21 1_555 1_555
H22 C22 1_555 1_555
C23 C18 1_555 1_555
H23 C23 1_555 1_555
C24 N4 1_555 1_555
H24 C24 1_555 1_555
C25 N3 1_555 1_555
C26 N4 1_555 1_555
C27 C25 1_555 1_555
H25 C27 1_555 1_555
H26 C27 1_555 1_555
C28 C26 1_555 1_555
H27 C28 1_555 1_555
H28 C28 1_555 1_555
H29 C28 1_555 1_555
C29 Si2 1_555 1_555
C30 C29 1_555 1_555
H30 C30 1_555 1_555
C31 C30 1_555 1_555
H31 C31 1_555 1_555
C32 C31 1_555 1_555
H32 C32 1_555 1_555
C33 C32 1_555 1_555
H33 C33 1_555 1_555
C34 C29 1_555 1_555
H34 C34 1_555 1_555
C35 Si2 1_555 1_555
C36 C35 1_555 1_555
H35 C36 1_555 1_555
C37 C36 1_555 1_555
H36 C37 1_555 1_555
C38 C37 1_555 1_555
H37 C38 1_555 1_555
C39 C38 1_555 1_555
H38 C39 1_555 1_555
C40 C35 1_555 1_555
H39 C40 1_555 1_555
C41 Si2 1_555 1_555
C42 C41 1_555 1_555
H40 C42 1_555 1_555
C43 C42 1_555 1_555
H41 C43 1_555 1_555
C44 C43 1_555 1_555
H42 C44 1_555 1_555
C45 C44 1_555 1_555
H43 C45 1_555 1_555
C46 C41 1_555 1_555
H44 C46 1_555 1_555
C2 C3 1_555 1_555
C10 C11 1_555 1_555
C16 C17 1_555 1_555
C22 C23 1_555 1_555
C25 C26 1_555 1_555
C33 C34 1_555 1_555
C39 C40 1_555 1_555
C45 C46 1_555 1_555

#END
