
#######################################################################
#
#                 Cambridge Crystallographic Data Centre
#                                CCDC 
#
#######################################################################
#
# If this CIF has been generated from an entry in the Cambridge 
# Structural Database, then it will include bibliographic, chemical, 
# crystal, experimental, refinement or atomic coordinate data resulting 
# from the CCDC's data processing and validation procedures.
#
#######################################################################

data_VUVSIQ
_chemical_formula_moiety         'C21 H20 Cl1 F3 N2 O2 S1'
_chemical_name_systematic        
2-(4-chlorophenyl)-7-methyl-5-((4-methylphenyl)sulfonyl)-7-(2,2,2-trifluoroethyl)-1,5-diazaspiro[2.4]hept-1-ene
_symmetry_cell_setting           monoclinic
_symmetry_space_group_name_H-M   'P 21/n'
_symmetry_Int_Tables_number      14
_space_group_name_Hall           '-P 2yn'
loop_
_symmetry_equiv_pos_site_id
_symmetry_equiv_pos_as_xyz
1 x,y,z
2 1/2-x,1/2+y,1/2-z
3 -x,-y,-z
4 1/2+x,1/2-y,1/2+z
_cell_length_a                   12.007(2)
_cell_length_b                   9.1955(16)
_cell_length_c                   19.722(5)
_cell_angle_alpha                90
_cell_angle_beta                 96.528(20)
_cell_angle_gamma                90
_cell_volume                     2163.4
_exptl_crystal_colour            'light colorless'
_exptl_crystal_description       block
_cell_formula_units_Z            4
loop_
_atom_site_label
_atom_site_type_symbol
_atom_site_fract_x
_atom_site_fract_y
_atom_site_fract_z
S1 S 0.66104(11) 0.57179(14) 0.13247(8)
Cl1 Cl 1.26819(17) 1.3998(2) 0.24324(11)
O1 O 0.5422(3) 0.5586(4) 0.1168(2)
O2 O 0.7171(3) 0.5107(4) 0.19323(19)
C1 C 0.7249(4) 0.5031(5) 0.0643(3)
C2 C 0.8110(4) 0.9300(5) 0.1148(3)
C3 C 0.6690(4) 0.5028(5) -0.0010(3)
H1 H 0.5964 0.5393 -0.0084
N1 N 0.8941(4) 0.9335(5) 0.0609(3)
C4 C 0.7192(4) 0.4492(5) -0.0555(3)
H2 H 0.6799 0.4495 -0.0989
C5 C 0.8340(5) 0.4465(5) 0.0742(3)
H3 H 0.8730 0.4443 0.1177
N2 N 0.6870(3) 0.7457(4) 0.1357(2)
C6 C 0.9136(4) 1.0124(6) 0.1131(3)
C7 C 0.8278(5) 0.3948(6) -0.0461(3)
C8 C 0.8042(4) 0.7944(5) 0.1550(3)
H4 H 0.8573 0.7223 0.1426
H5 H 0.8182 0.8135 0.2036
C9 C 0.9908(5) 1.1647(6) 0.2075(3)
H6 H 0.9280 1.1440 0.2294
C10 C 0.6517(5) 1.0693(6) 0.1526(3)
H7 H 0.6648 1.0073 0.1925
H8 H 0.7003 1.1532 0.1609
C11 C 0.6910(4) 0.9857(5) 0.0924(3)
C12 C 0.8835(5) 0.3941(6) 0.0194(4)
H9 H 0.9560 0.3573 0.0265
C13 C 0.9997(4) 1.1090(5) 0.1446(3)
F1 F 0.4583(3) 1.0199(5) 0.1365(3)
C14 C 1.0917(5) 1.1423(6) 0.1121(3)
H10 H 1.0982 1.1041 0.0691
C15 C 1.0745(6) 1.2516(7) 0.2390(3)
H11 H 1.0701 1.2863 0.2829
C16 C 0.6333(4) 0.8368(5) 0.0808(3)
H12 H 0.5534 0.8447 0.0837
H13 H 0.6449 0.7975 0.0366
C17 C 1.1627(5) 1.2862(6) 0.2059(4)
F2 F 0.5082(4) 1.2138(6) 0.0981(3)
C18 C 0.5353(6) 1.1215(8) 0.1488(5)
F3 F 0.5133(4) 1.1913(6) 0.2030(3)
C19 C 0.6827(6) 1.0755(6) 0.0268(3)
H14 H 0.7196 1.1672 0.0359
H15 H 0.6053 1.0918 0.0106
H16 H 0.7181 1.0239 -0.0072
C20 C 0.8824(6) 0.3370(8) -0.1052(4)
H17 H 0.8284 0.2839 -0.1351
H18 H 0.9430 0.2736 -0.0886
H19 H 0.9110 0.4165 -0.1296
C21 C 1.1740(5) 1.2315(6) 0.1426(4)
H20 H 1.2363 1.2545 0.1207
loop_
_geom_bond_atom_site_label_1
_geom_bond_atom_site_label_2
_geom_bond_site_symmetry_1
_geom_bond_site_symmetry_2
S1 O1 1_555 1_555
Cl1 C17 1_555 1_555
O2 S1 1_555 1_555
C1 S1 1_555 1_555
C2 N1 1_555 1_555
C3 C1 1_555 1_555
H1 C3 1_555 1_555
N1 C6 1_555 1_555
C4 C3 1_555 1_555
H2 C4 1_555 1_555
C5 C1 1_555 1_555
H3 C5 1_555 1_555
N2 S1 1_555 1_555
C6 C2 1_555 1_555
C7 C4 1_555 1_555
C8 C2 1_555 1_555
H4 C8 1_555 1_555
H5 C8 1_555 1_555
C9 H6 1_555 1_555
C10 H7 1_555 1_555
H8 C10 1_555 1_555
C11 C2 1_555 1_555
C12 C5 1_555 1_555
H9 C12 1_555 1_555
C13 C6 1_555 1_555
F1 C18 1_555 1_555
C14 C13 1_555 1_555
H10 C14 1_555 1_555
C15 C9 1_555 1_555
H11 C15 1_555 1_555
C16 N2 1_555 1_555
H12 C16 1_555 1_555
H13 C16 1_555 1_555
C17 C15 1_555 1_555
F2 C18 1_555 1_555
C18 C10 1_555 1_555
F3 C18 1_555 1_555
C19 C11 1_555 1_555
H14 C19 1_555 1_555
H15 C19 1_555 1_555
H16 C19 1_555 1_555
C20 C7 1_555 1_555
H17 C20 1_555 1_555
H18 C20 1_555 1_555
H19 C20 1_555 1_555
C21 C14 1_555 1_555
H20 C21 1_555 1_555
N2 C8 1_555 1_555
C7 C12 1_555 1_555
C9 C13 1_555 1_555
C10 C11 1_555 1_555
C11 C16 1_555 1_555
C17 C21 1_555 1_555

#END
