
#######################################################################
#
#                 Cambridge Crystallographic Data Centre
#                                CCDC 
#
#######################################################################
#
# If this CIF has been generated from an entry in the Cambridge 
# Structural Database, then it will include bibliographic, chemical, 
# crystal, experimental, refinement or atomic coordinate data resulting 
# from the CCDC's data processing and validation procedures.
#
#######################################################################

data_VUWJUU
_chemical_formula_moiety         'C16 H36 N1 1+,C18 H15 F2 Si1 1-'
_chemical_name_systematic        
'tetra-n-butylammonium difluoro(triphenyl)silicate'
_symmetry_cell_setting           orthorhombic
_symmetry_space_group_name_H-M   'P n a 21'
_symmetry_Int_Tables_number      33
_space_group_name_Hall           'P 2c -2n'
loop_
_symmetry_equiv_pos_site_id
_symmetry_equiv_pos_as_xyz
1 x,y,z
2 -x,-y,1/2+z
3 1/2-x,1/2+y,1/2+z
4 1/2+x,1/2-y,z
_cell_length_a                   18.3442(2)
_cell_length_b                   11.57320(10)
_cell_length_c                   15.1368(2)
_cell_angle_alpha                90
_cell_angle_beta                 90
_cell_angle_gamma                90
_cell_volume                     3213.56
_exptl_crystal_colour            colorless
_exptl_crystal_description       block
_cell_formula_units_Z            4
loop_
_atom_site_label
_atom_site_type_symbol
_atom_site_fract_x
_atom_site_fract_y
_atom_site_fract_z
F1 F 0.15167(5) 0.47170(9) 0.60524(8)
F2 F 0.15775(5) 0.35766(8) 0.39423(8)
Si1 Si 0.15363(2) 0.41551(3) 0.49920(6)
C1 C 0.12447(8) 0.26807(14) 0.54524(12)
C2 C 0.09381(11) 0.25580(16) 0.62908(14)
C3 C 0.07298(13) 0.1493(2) 0.66260(15)
C4 C 0.08385(11) 0.05004(17) 0.61397(16)
C5 C 0.11442(11) 0.05863(16) 0.53107(16)
C6 C 0.13314(9) 0.16575(14) 0.49715(14)
C7 C 0.25416(8) 0.45621(12) 0.49013(13)
C8 C 0.28199(9) 0.50204(14) 0.41197(13)
C9 C 0.35511(10) 0.53347(16) 0.40405(17)
C10 C 0.40246(10) 0.51597(17) 0.47295(18)
C11 C 0.37664(10) 0.46986(18) 0.55138(18)
C12 C 0.30314(9) 0.44243(16) 0.56019(14)
C13 C 0.08433(8) 0.52897(14) 0.46001(14)
C14 C 0.06837(9) 0.54441(15) 0.37037(14)
C15 C 0.01994(11) 0.62856(18) 0.34024(17)
C16 C -0.01451(11) 0.69912(18) 0.3995(2)
C17 C -0.00051(12) 0.6872(2) 0.4879(2)
C18 C 0.04869(11) 0.60345(17) 0.51796(16)
H1 H 0.0870 0.3212 0.6652
H2 H 0.0511 0.1419 0.7201
H3 H 0.0706 -0.0225 0.6363
H4 H 0.1222 -0.0067 0.4948
H5 H 0.1524 0.1694 0.4405
H6 H 0.2507 0.5146 0.3641
H7 H 0.3719 0.5662 0.3511
H8 H 0.4523 0.5338 0.4662
H9 H 0.4089 0.4560 0.5999
H10 H 0.2846 0.4139 0.6170
H11 H 0.0923 0.4961 0.3285
H12 H 0.0100 0.6362 0.2780
H13 H -0.0481 0.7562 0.3785
H14 H -0.0240 0.7339 0.5306
H15 H 0.0551 0.5923 0.5785
N1 N 0.14675(7) 0.64744(11) 0.83528(10)
C19 C 0.20379(8) 0.72501(13) 0.79256(12)
C20 C 0.20936(10) 0.71797(14) 0.69316(13)
C21 C 0.27360(12) 0.7882(2) 0.66135(15)
C22 C 0.28237(14) 0.78760(19) 0.56232(16)
C23 C 0.07133(8) 0.67073(14) 0.79852(13)
C24 C 0.04203(9) 0.79206(15) 0.81228(15)
C25 C -0.03146(10) 0.80379(18) 0.76658(17)
C26 C -0.06277(12) 0.9245(2) 0.7778(2)
C27 C 0.16183(8) 0.52064(13) 0.81564(12)
C28 C 0.23665(9) 0.47628(14) 0.84121(14)
C29 C 0.24099(10) 0.34653(15) 0.82283(14)
C30 C 0.31734(12) 0.29943(18) 0.8372(2)
C31 C 0.15024(9) 0.67258(15) 0.93376(12)
C32 C 0.09810(12) 0.60357(19) 0.99079(15)
C33 C 0.10508(18) 0.6352(2) 1.08843(17)
C34 C 0.1787(2) 0.6142(3) 1.1271(2)
H16 H 0.1918 0.8031 0.8089
H17 H 0.2501 0.7034 0.8172
H18 H 0.1648 0.7482 0.6683
H19 H 0.2158 0.6392 0.6750
H20 H 0.2707 0.8660 0.6835
H21 H 0.3176 0.7528 0.6869
H22 H 0.3268 0.8223 0.5418
H23 H 0.2427 0.8300 0.5364
H24 H 0.2793 0.7114 0.5363
H25 H 0.0382 0.6183 0.8284
H26 H 0.0742 0.6531 0.7368
H27 H 0.0371 0.8082 0.8746
H28 H 0.0763 0.8471 0.7864
H29 H -0.0655 0.7492 0.7934
H30 H -0.0251 0.7889 0.7051
H31 H -0.1095 0.9325 0.7486
H32 H -0.0697 0.9419 0.8408
H33 H -0.0293 0.9814 0.7488
H34 H 0.1249 0.4765 0.8471
H35 H 0.1526 0.5092 0.7529
H36 H 0.2455 0.4923 0.9038
H37 H 0.2732 0.5157 0.8088
H38 H 0.2061 0.3063 0.8614
H39 H 0.2277 0.3309 0.7637
H40 H 0.3170 0.2172 0.8309
H41 H 0.3348 0.3220 0.8947
H42 H 0.3520 0.3292 0.7950
H43 H 0.1414 0.7515 0.9420
H44 H 0.1987 0.6558 0.9511
H45 H 0.0513 0.6121 0.9718
H46 H 0.1075 0.5217 0.9837
H47 H 0.0911 0.7171 1.0981
H48 H 0.0755 0.5735 1.1303
H49 H 0.1747 0.6142 1.1928
H50 H 0.2148 0.6749 1.1021
H51 H 0.1917 0.5343 1.1081
loop_
_geom_bond_atom_site_label_1
_geom_bond_atom_site_label_2
_geom_bond_site_symmetry_1
_geom_bond_site_symmetry_2
F1 Si1 1_555 1_555
F2 Si1 1_555 1_555
Si1 C1 1_555 1_555
C1 C2 1_555 1_555
C2 C3 1_555 1_555
C3 C4 1_555 1_555
C4 C5 1_555 1_555
C5 C6 1_555 1_555
C6 C1 1_555 1_555
C7 Si1 1_555 1_555
C8 C7 1_555 1_555
C9 C8 1_555 1_555
C10 C9 1_555 1_555
C11 C10 1_555 1_555
C12 C7 1_555 1_555
C13 Si1 1_555 1_555
C14 C13 1_555 1_555
C15 C14 1_555 1_555
C16 C15 1_555 1_555
C17 C16 1_555 1_555
C18 C13 1_555 1_555
H1 C2 1_555 1_555
H2 C3 1_555 1_555
H3 C4 1_555 1_555
H4 C5 1_555 1_555
H5 C6 1_555 1_555
H6 C8 1_555 1_555
H7 C9 1_555 1_555
H8 C10 1_555 1_555
H9 C11 1_555 1_555
H10 C12 1_555 1_555
H11 C14 1_555 1_555
H12 C15 1_555 1_555
H13 C16 1_555 1_555
H14 C17 1_555 1_555
H15 C18 1_555 1_555
N1 C19 1_555 1_555
C19 C20 1_555 1_555
C20 C21 1_555 1_555
C21 C22 1_555 1_555
C22 H22 1_555 1_555
C23 N1 1_555 1_555
C24 C23 1_555 1_555
C25 C24 1_555 1_555
C26 C25 1_555 1_555
C27 N1 1_555 1_555
C28 C27 1_555 1_555
C29 C28 1_555 1_555
C30 C29 1_555 1_555
C31 N1 1_555 1_555
C32 C31 1_555 1_555
C33 C32 1_555 1_555
C34 C33 1_555 1_555
H16 C19 1_555 1_555
H17 C19 1_555 1_555
H18 C20 1_555 1_555
H19 C20 1_555 1_555
H20 C21 1_555 1_555
H21 C21 1_555 1_555
H23 C22 1_555 1_555
H24 C22 1_555 1_555
H25 C23 1_555 1_555
H26 C23 1_555 1_555
H27 C24 1_555 1_555
H28 C24 1_555 1_555
H29 C25 1_555 1_555
H30 C25 1_555 1_555
H31 C26 1_555 1_555
H32 C26 1_555 1_555
H33 C26 1_555 1_555
H34 C27 1_555 1_555
H35 C27 1_555 1_555
H36 C28 1_555 1_555
H37 C28 1_555 1_555
H38 C29 1_555 1_555
H39 C29 1_555 1_555
H40 C30 1_555 1_555
H41 C30 1_555 1_555
H42 C30 1_555 1_555
H43 C31 1_555 1_555
H44 C31 1_555 1_555
H45 C32 1_555 1_555
H46 C32 1_555 1_555
H47 C33 1_555 1_555
H48 C33 1_555 1_555
H49 C34 1_555 1_555
H50 C34 1_555 1_555
H51 C34 1_555 1_555
C11 C12 1_555 1_555
C17 C18 1_555 1_555

#END
