
#######################################################################
#
#                 Cambridge Crystallographic Data Centre
#                                CCDC 
#
#######################################################################
#
# If this CIF has been generated from an entry in the Cambridge 
# Structural Database, then it will include bibliographic, chemical, 
# crystal, experimental, refinement or atomic coordinate data resulting 
# from the CCDC's data processing and validation procedures.
#
#######################################################################

data_VUXWOA
_chemical_formula_moiety         'C24 H28 N2'
_chemical_name_systematic        
N,N'-Di-isopropyl-2,5-diphenyl-1,4-phenylenediamine
_symmetry_cell_setting           triclinic
_symmetry_space_group_name_H-M   'P -1'
_symmetry_Int_Tables_number      2
_space_group_name_Hall           '-P 1'
loop_
_symmetry_equiv_pos_site_id
_symmetry_equiv_pos_as_xyz
1 x,y,z
2 -x,-y,-z
_cell_length_a                   9.926(13)
_cell_length_b                   6.187(8)
_cell_length_c                   8.034(7)
_cell_angle_alpha                90.65(9)
_cell_angle_beta                 97.68(9)
_cell_angle_gamma                100.48(10)
_cell_volume                     480.481
_exptl_crystal_colour            yellow
_chemical_melting_point          427K
_cell_formula_units_Z            1
loop_
_atom_site_label
_atom_site_type_symbol
_atom_site_fract_x
_atom_site_fract_y
_atom_site_fract_z
C1 C 0.8672(3) 0.0465(5) -0.0540(4)
C2 C 0.9395(3) 0.1303(5) 0.1005(4)
C3 C 0.9300(4) -0.0833(6) -0.1513(4)
C4 C 0.8821(3) 0.2705(5) 0.2136(4)
C5 C 0.8740(4) 0.2219(6) 0.3814(4)
C6 C 0.8233(4) 0.3543(7) 0.4858(5)
C7 C 0.7793(4) 0.5415(7) 0.4248(5)
C8 C 0.7892(4) 0.5938(7) 0.2614(5)
C9 C 0.8407(4) 0.4635(6) 0.1567(5)
N1 N 0.7352(3) 0.0889(5) -0.1103(4)
C10 C 0.6370(4) -0.0434(6) -0.2363(5)
C11 C 0.5916(5) -0.2779(7) -0.1873(6)
C12 C 0.5122(5) 0.0670(9) -0.2750(6)
H1 H 0.8824(37) -0.1390(60) -0.2576(49)
H2 H 0.8989(39) 0.0812(66) 0.4172(48)
H3 H 0.8200(38) 0.3204(63) 0.6124(54)
H4 H 0.7491(38) 0.6312(63) 0.5058(49)
H5 H 0.7585(38) 0.7165(66) 0.2175(48)
H6 H 0.8522(38) 0.5003(62) 0.0379(52)
H7 H 0.7043(39) 0.1506(63) -0.0304(50)
H8 H 0.6811(37) -0.0385(61) -0.3499(50)
H9 H 0.5441(39) -0.2769(61) -0.0809(52)
H10 H 0.5358(41) -0.3636(67) -0.2835(51)
H11 H 0.6715(39) -0.3686(62) -0.1564(45)
H12 H 0.4757(38) 0.0928(61) -0.1700(55)
H13 H 0.4396(42) -0.0231(63) -0.3605(52)
H14 H 0.5386(43) 0.2220(71) -0.3154(54)
C3A C 1.0700(4) 0.0833(6) 0.1513(4)
C2A C 1.0605(3) -0.1303(5) -0.1005(4)
C1A C 1.1328(3) -0.0465(5) 0.0540(4)
H1A H 1.1176(37) 0.1390(60) 0.2576(49)
C4A C 1.1179(3) -0.2705(5) -0.2136(4)
N1A N 1.2648(3) -0.0889(5) 0.1103(4)
C5A C 1.1260(4) -0.2219(6) -0.3814(4)
C9A C 1.1593(4) -0.4635(6) -0.1567(5)
C10A C 1.3630(4) 0.0434(6) 0.2363(5)
H7A H 1.2957(39) -0.1506(63) 0.0304(50)
C6A C 1.1767(4) -0.3543(7) -0.4858(5)
H2A H 1.1011(39) -0.0812(66) -0.4172(48)
C8A C 1.2108(4) -0.5938(7) -0.2614(5)
H6A H 1.1478(38) -0.5003(62) -0.0379(52)
C11A C 1.4084(5) 0.2779(7) 0.1873(6)
C12A C 1.4878(5) -0.0670(9) 0.2750(6)
H8A H 1.3189(37) 0.0385(61) 0.3499(50)
C7A C 1.2207(4) -0.5415(7) -0.4248(5)
H3A H 1.1800(38) -0.3204(63) -0.6124(54)
H5A H 1.2415(38) -0.7165(66) -0.2175(48)
H9A H 1.4559(39) 0.2769(61) 0.0809(52)
H10A H 1.4642(41) 0.3636(67) 0.2835(51)
H11A H 1.3285(39) 0.3686(62) 0.1564(45)
H12A H 1.5243(38) -0.0928(61) 0.1700(55)
H13A H 1.5604(42) 0.0231(63) 0.3605(52)
H14A H 1.4614(43) -0.2220(71) 0.3154(54)
H4A H 1.2509(38) -0.6312(63) -0.5058(49)
loop_
_geom_bond_atom_site_label_1
_geom_bond_atom_site_label_2
_geom_bond_site_symmetry_1
_geom_bond_site_symmetry_2
C1 C2 1_555 1_555
C2 C4 1_555 1_555
C3 C1 1_555 1_555
C4 C5 1_555 1_555
C5 C6 1_555 1_555
C6 C7 1_555 1_555
C7 C8 1_555 1_555
C8 C9 1_555 1_555
C9 C4 1_555 1_555
N1 C1 1_555 1_555
C10 N1 1_555 1_555
C11 C10 1_555 1_555
C12 C10 1_555 1_555
H1 C3 1_555 1_555
H2 C5 1_555 1_555
H3 C6 1_555 1_555
H4 C7 1_555 1_555
H5 C8 1_555 1_555
H6 C9 1_555 1_555
H7 N1 1_555 1_555
H8 C10 1_555 1_555
H9 C11 1_555 1_555
H10 C11 1_555 1_555
H11 C11 1_555 1_555
H12 C12 1_555 1_555
H13 C12 1_555 1_555
H14 C12 1_555 1_555
C3A C2 1_555 1_555
C2A C3 1_555 1_555
C1A C3A 1_555 1_555
H1A C3A 1_555 1_555
C4A C2A 1_555 1_555
N1A C1A 1_555 1_555
C5A C4A 1_555 1_555
C9A C4A 1_555 1_555
C10A N1A 1_555 1_555
H7A N1A 1_555 1_555
C6A C5A 1_555 1_555
H2A C5A 1_555 1_555
C8A C9A 1_555 1_555
H6A C9A 1_555 1_555
C11A C10A 1_555 1_555
C12A C10A 1_555 1_555
H8A C10A 1_555 1_555
C7A C6A 1_555 1_555
H3A C6A 1_555 1_555
H5A C8A 1_555 1_555
H9A C11A 1_555 1_555
H10A C11A 1_555 1_555
H11A C11A 1_555 1_555
H12A C12A 1_555 1_555
H13A C12A 1_555 1_555
H14A C12A 1_555 1_555
H4A C7A 1_555 1_555
C2A C1A 1_555 1_555
C8A C7A 1_555 1_555

#END
