
#######################################################################
#
#                 Cambridge Crystallographic Data Centre
#                                CCDC 
#
#######################################################################
#
# If this CIF has been generated from an entry in the Cambridge 
# Structural Database, then it will include bibliographic, chemical, 
# crystal, experimental, refinement or atomic coordinate data resulting 
# from the CCDC's data processing and validation procedures.
#
#######################################################################

data_VUXWOC
_chemical_formula_moiety         'C17 H18 O5'
_chemical_name_systematic        
'diethyl 2-(1-benzofuran-2-ylmethylene)succinate'
_symmetry_cell_setting           orthorhombic
_symmetry_space_group_name_H-M   'P 21 21 21'
_symmetry_Int_Tables_number      19
_space_group_name_Hall           'P 2ac 2ab'
loop_
_symmetry_equiv_pos_site_id
_symmetry_equiv_pos_as_xyz
1 x,y,z
2 1/2+x,1/2-y,-z
3 -x,1/2+y,1/2-z
4 1/2-x,-y,1/2+z
_cell_length_a                   7.0974(4)
_cell_length_b                   8.0898(4)
_cell_length_c                   26.9429(15)
_cell_angle_alpha                90
_cell_angle_beta                 90
_cell_angle_gamma                90
_cell_volume                     1546.97
_exptl_crystal_colour            colorless
_exptl_crystal_description       prism
_cell_formula_units_Z            4
loop_
_atom_site_label
_atom_site_type_symbol
_atom_site_fract_x
_atom_site_fract_y
_atom_site_fract_z
C1 C 1.1845(2) 0.8258(2) 0.20175(6)
C2 C 1.3594(3) 0.9003(2) 0.20151(7)
H1 H 1.4074 0.9551 0.1730
C3 C 1.4612(3) 0.8902(2) 0.24552(8)
H2 H 1.5820 0.9403 0.2473
C4 C 1.3901(3) 0.8079(2) 0.28718(7)
H3 H 1.4637 0.8033 0.3166
C5 C 1.2152(3) 0.7334(2) 0.28647(6)
H4 H 1.1677 0.6777 0.3149
C6 C 1.1097(2) 0.7422(2) 0.24256(6)
C7 C 0.9292(3) 0.6833(2) 0.22697(6)
H5 H 0.8431 0.6206 0.2463
C8 C 0.9040(3) 0.7338(2) 0.17946(6)
C9 C 0.7443(3) 0.7013(2) 0.14801(6)
H6 H 0.6562 0.6249 0.1613
C10 C 0.6987(3) 0.7607(2) 0.10299(6)
C11 C 0.8049(3) 0.8887(2) 0.07369(6)
H7 H 0.8143 0.8530 0.0386
H8 H 0.9342 0.8994 0.0871
C12 C 0.7066(3) 1.0538(2) 0.07631(6)
C13 C 0.6907(3) 1.3237(2) 0.04296(7)
H9 H 0.7166 1.3773 0.0753
H10 H 0.5525 1.3171 0.0384
C14 C 0.7776(4) 1.4218(3) 0.00172(8)
H11 H 0.9137 1.4307 0.0072
H12 H 0.7219 1.5326 0.0010
H13 H 0.7541 1.3662 -0.0300
C15 C 0.5193(3) 0.7059(2) 0.07940(6)
C16 C 0.2480(3) 0.5350(3) 0.08479(7)
H14 H 0.2709 0.4904 0.0511
H15 H 0.1552 0.6259 0.0823
C17 C 0.1757(3) 0.4019(3) 0.11828(9)
H16 H 0.2665 0.3106 0.1193
H17 H 0.0547 0.3612 0.1057
H18 H 0.1586 0.4465 0.1518
O1 O 1.05847(18) 0.82331(16) 0.16268(4)
O2 O 0.77290(18) 1.15850(15) 0.04184(4)
O3 O 0.5870(2) 1.09132(17) 0.10586(5)
O4 O 0.42296(19) 0.59499(17) 0.10627(5)
O5 O 0.4678(2) 0.75572(19) 0.03924(5)
loop_
_geom_bond_atom_site_label_1
_geom_bond_atom_site_label_2
_geom_bond_site_symmetry_1
_geom_bond_site_symmetry_2
C1 C2 1_555 1_555
C2 H1 1_555 1_555
C3 C2 1_555 1_555
H2 C3 1_555 1_555
C4 C3 1_555 1_555
H3 C4 1_555 1_555
C5 C4 1_555 1_555
H4 C5 1_555 1_555
C6 C1 1_555 1_555
C7 C6 1_555 1_555
H5 C7 1_555 1_555
C8 C7 1_555 1_555
C9 C8 1_555 1_555
H6 C9 1_555 1_555
C10 C9 1_555 1_555
C11 C10 1_555 1_555
H7 C11 1_555 1_555
H8 C11 1_555 1_555
C12 C11 1_555 1_555
C13 H9 1_555 1_555
H10 C13 1_555 1_555
C14 C13 1_555 1_555
H11 C14 1_555 1_555
H12 C14 1_555 1_555
H13 C14 1_555 1_555
C15 C10 1_555 1_555
C16 H14 1_555 1_555
H15 C16 1_555 1_555
C17 C16 1_555 1_555
H16 C17 1_555 1_555
H17 C17 1_555 1_555
H18 C17 1_555 1_555
O1 C1 1_555 1_555
O2 C12 1_555 1_555
O3 C12 1_555 1_555
O4 C15 1_555 1_555
O5 C15 1_555 1_555
C5 C6 1_555 1_555
C8 O1 1_555 1_555
C13 O2 1_555 1_555
C16 O4 1_555 1_555

#END
