
#######################################################################
#
#                 Cambridge Crystallographic Data Centre
#                                CCDC 
#
#######################################################################
#
# If this CIF has been generated from an entry in the Cambridge 
# Structural Database, then it will include bibliographic, chemical, 
# crystal, experimental, refinement or atomic coordinate data resulting 
# from the CCDC's data processing and validation procedures.
#
#######################################################################

data_VUXXOB
_chemical_formula_moiety         'C14 H16 N2'
_chemical_name_systematic        
3-(1-Methyl-1,2,3,6-tetrahydropyrid-4-yl)-indole
_symmetry_cell_setting           orthorhombic
_symmetry_space_group_name_H-M   'P c a 21'
_symmetry_Int_Tables_number      29
_space_group_name_Hall           'P 2c -2ac'
loop_
_symmetry_equiv_pos_site_id
_symmetry_equiv_pos_as_xyz
1 x,y,z
2 1/2-x,y,1/2+z
3 1/2+x,-y,z
4 -x,-y,1/2+z
_cell_length_a                   19.424(3)
_cell_length_b                   6.770(1)
_cell_length_c                   8.899(1)
_cell_angle_alpha                90
_cell_angle_beta                 90
_cell_angle_gamma                90
_cell_volume                     1170.22
_exptl_crystal_colour            'pale yellow'
_chemical_melting_point          491-493K
_cell_formula_units_Z            4
loop_
_atom_site_label
_atom_site_type_symbol
_atom_site_fract_x
_atom_site_fract_y
_atom_site_fract_z
N1 N 0.9092(1) 0.8132(2) 0.345
N2 N 1.10123(9) 1.4990(2) 0.0833(2)
C1 C 0.9609(1) 0.9492(3) 0.3456(2)
C2 C 0.9508(1) 1.0865(2) 0.2335(2)
C3 C 0.8508(1) 1.1011(3) 0.0343(2)
C4 C 0.7935(1) 1.0008(4) -0.0131(3)
C5 C 0.7714(1) 0.8289(3) 0.0589(3)
C6 C 0.8067(1) 0.7535(3) 0.1799(3)
C7 C 0.8646(1) 0.8554(3) 0.2290(2)
C8 C 0.8887(1) 1.0295(3) 0.1577(2)
C9 C 0.9987(1) 1.2497(2) 0.1994(2)
C10 C 0.9805(1) 1.4130(3) 0.1247(2)
C11 C 1.0307(1) 1.5680(3) 0.0763(3)
C12 C 1.1138(1) 1.4128(3) 0.2317(2)
C13 C 1.0718(1) 1.2239(3) 0.2493(2)
C14 C 1.1495(1) 1.6601(3) 0.0524(3)
H1 H 1.140 1.715 -0.043
H2 H 1.145 1.759 0.127
H3 H 1.195 1.610 0.053
H4 H 1.101 1.503 0.308
H5 H 1.162 1.384 0.240
H6 H 1.073 1.185 0.352
H7 H 1.092 1.124 0.189
H8 H 1.026 1.680 0.140
H9 H 1.021 1.605 -0.024
H10 H 0.933 1.431 0.101
H11 H 0.999 0.950 0.414
H12 H 0.905 0.706 0.410
H13 H 0.793 0.635 0.228
H14 H 0.731 0.764 0.026
H15 H 0.769 1.048 -0.098
H16 H 0.865 1.219 -0.015
loop_
_geom_bond_atom_site_label_1
_geom_bond_atom_site_label_2
_geom_bond_site_symmetry_1
_geom_bond_site_symmetry_2
N1 C1 1_555 1_555
N2 C11 1_555 1_555
C1 C2 1_555 1_555
C2 C8 1_555 1_555
C3 C4 1_555 1_555
C4 C5 1_555 1_555
C5 C6 1_555 1_555
C6 C7 1_555 1_555
C7 N1 1_555 1_555
C8 C3 1_555 1_555
C9 C2 1_555 1_555
C10 C9 1_555 1_555
C11 C10 1_555 1_555
C12 N2 1_555 1_555
C13 C9 1_555 1_555
C14 N2 1_555 1_555
H1 C14 1_555 1_555
H2 C14 1_555 1_555
H3 C14 1_555 1_555
H4 C12 1_555 1_555
H5 C12 1_555 1_555
H6 C13 1_555 1_555
H7 C13 1_555 1_555
H8 C11 1_555 1_555
H9 C11 1_555 1_555
H10 C10 1_555 1_555
H11 C1 1_555 1_555
H12 N1 1_555 1_555
H13 C6 1_555 1_555
H14 C5 1_555 1_555
H15 C4 1_555 1_555
H16 C3 1_555 1_555
C7 C8 1_555 1_555
C12 C13 1_555 1_555

#END
