
#######################################################################
#
#                 Cambridge Crystallographic Data Centre
#                                CCDC 
#
#######################################################################
#
# If this CIF has been generated from an entry in the Cambridge 
# Structural Database, then it will include bibliographic, chemical, 
# crystal, experimental, refinement or atomic coordinate data resulting 
# from the CCDC's data processing and validation procedures.
#
#######################################################################

data_VUYDUQ
_chemical_formula_moiety         'C14 H14 Cl1 N1 O3'
_chemical_name_systematic        
4-Chloro-7-(diethylamino)-2-oxo-2H-chromene-3-carbaldehyde
_symmetry_cell_setting           monoclinic
_symmetry_space_group_name_H-M   'C 2/c'
_symmetry_Int_Tables_number      15
_space_group_name_Hall           '-C 2yn'
loop_
_symmetry_equiv_pos_site_id
_symmetry_equiv_pos_as_xyz
1 x,y,z
2 -x,y,1/2-z
3 1/2+x,1/2+y,z
4 1/2-x,1/2+y,1/2-z
5 -x,-y,-z
6 x,-y,1/2+z
7 1/2-x,1/2-y,-z
8 1/2+x,1/2-y,1/2+z
_cell_length_a                   21.121(12)
_cell_length_b                   10.292(6)
_cell_length_c                   14.295(8)
_cell_angle_alpha                90
_cell_angle_beta                 120.327(6)
_cell_angle_gamma                90
_cell_volume                     2682.18
_exptl_crystal_colour            yellow
_exptl_crystal_description       block
_chemical_melting_point          '138-140 deg.C'
_cell_formula_units_Z            8
loop_
_atom_site_label
_atom_site_type_symbol
_atom_site_fract_x
_atom_site_fract_y
_atom_site_fract_z
C1 C 0.3832(3) -0.3879(6) 0.1825(5)
H1 H 0.3462 -0.3895 0.1071
H2 H 0.3979 -0.4752 0.2079
H3 H 0.4249 -0.3397 0.1916
C2 C 0.3532(3) -0.3245(5) 0.2459(4)
H4 H 0.3088 -0.3693 0.2317
H5 H 0.3886 -0.3329 0.3227
C3 C 0.2618(3) -0.1577(5) 0.1307(4)
H6 H 0.2454 -0.2283 0.0787
H7 H 0.2625 -0.0791 0.0938
C4 C 0.2085(3) -0.1410(5) 0.1698(5)
H8 H 0.1617 -0.1158 0.1102
H9 H 0.2261 -0.0750 0.2247
H10 H 0.2037 -0.2216 0.1995
C5 C 0.3885(3) -0.0931(5) 0.2692(4)
C6 C 0.4617(3) -0.1257(5) 0.3425(4)
H11 H 0.4753 -0.2124 0.3580
C7 C 0.5128(2) -0.0307(5) 0.3908(3)
C8 C 0.4954(3) 0.1015(5) 0.3717(4)
C9 C 0.4217(3) 0.1329(5) 0.2977(4)
H12 H 0.4083 0.2198 0.2824
C10 C 0.3696(3) 0.0396(5) 0.2480(4)
H13 H 0.3212 0.0632 0.1999
C11 C 0.5532(3) 0.1907(5) 0.4256(4)
C12 C 0.6240(3) 0.1528(5) 0.4915(4)
C13 C 0.6409(3) 0.0164(6) 0.5096(4)
C14 C 0.6879(3) 0.2358(8) 0.5449(5)
H14 H 0.7327 0.1930 0.5832
Cl1 Cl 0.53125(9) 0.35250(13) 0.40624(14)
N1 N 0.3365(2) -0.1856(4) 0.2189(3)
O1 O 0.58163(19) -0.0703(3) 0.4579(3)
O2 O 0.6984(2) -0.0320(4) 0.5642(3)
O3 O 0.6909(2) 0.3502(4) 0.5464(4)
loop_
_geom_bond_atom_site_label_1
_geom_bond_atom_site_label_2
_geom_bond_site_symmetry_1
_geom_bond_site_symmetry_2
C1 H1 1_555 1_555
H2 C1 1_555 1_555
H3 C1 1_555 1_555
C2 C1 1_555 1_555
H4 C2 1_555 1_555
H5 C2 1_555 1_555
C3 H6 1_555 1_555
H7 C3 1_555 1_555
C4 C3 1_555 1_555
H8 C4 1_555 1_555
H9 C4 1_555 1_555
H10 C4 1_555 1_555
C5 C6 1_555 1_555
C6 H11 1_555 1_555
C7 C6 1_555 1_555
C8 C7 1_555 1_555
C9 C8 1_555 1_555
H12 C9 1_555 1_555
C10 C5 1_555 1_555
H13 C10 1_555 1_555
C11 C8 1_555 1_555
C12 C11 1_555 1_555
C13 C12 1_555 1_555
C14 C12 1_555 1_555
H14 C14 1_555 1_555
Cl1 C11 1_555 1_555
N1 C2 1_555 1_555
O1 C7 1_555 1_555
O2 C13 1_555 1_555
O3 C14 1_555 1_555
C3 N1 1_555 1_555
C5 N1 1_555 1_555
C9 C10 1_555 1_555
C13 O1 1_555 1_555

#END
