
#######################################################################
#
#                 Cambridge Crystallographic Data Centre
#                                CCDC 
#
#######################################################################
#
# If this CIF has been generated from an entry in the Cambridge 
# Structural Database, then it will include bibliographic, chemical, 
# crystal, experimental, refinement or atomic coordinate data resulting 
# from the CCDC's data processing and validation procedures.
#
#######################################################################

data_VUZLIM
_chemical_formula_moiety         'C13 H14 N4 O1,C3 H7 N1 O1'
_chemical_name_systematic        
'1,5-Diphenylcarbonohydrazide N,N-dimethylformamide solvate'
_symmetry_cell_setting           monoclinic
_symmetry_space_group_name_H-M   'P 21/c'
_symmetry_Int_Tables_number      14
_space_group_name_Hall           '-P 2ybc'
loop_
_symmetry_equiv_pos_site_id
_symmetry_equiv_pos_as_xyz
1 x,y,z
2 -x,1/2+y,1/2-z
3 -x,-y,-z
4 x,1/2-y,1/2+z
_cell_length_a                   5.9774(2)
_cell_length_b                   14.8531(6)
_cell_length_c                   18.4827(7)
_cell_angle_alpha                90
_cell_angle_beta                 96.029(3)
_cell_angle_gamma                90
_cell_volume                     1631.87
_exptl_crystal_colour            colorless
_exptl_crystal_description       block
_cell_formula_units_Z            4
loop_
_atom_site_label
_atom_site_type_symbol
_atom_site_fract_x
_atom_site_fract_y
_atom_site_fract_z
C1 C 0.4510(4) 0.55844(17) 0.25962(14)
C2 C 0.6356(5) 0.5015(2) 0.26959(15)
H1 H 0.7563 0.5097 0.2423
C3 C 0.6407(5) 0.4328(2) 0.31971(17)
H2 H 0.7645 0.3946 0.3256
C4 C 0.4651(5) 0.4197(2) 0.36131(16)
H3 H 0.4689 0.3728 0.3947
C5 C 0.2840(5) 0.4774(2) 0.35257(16)
H4 H 0.1658 0.4698 0.3809
C6 C 0.2757(4) 0.54590(18) 0.30260(15)
H5 H 0.1521 0.5842 0.2974
C7 C 0.5425(4) 0.57813(16) 0.09720(13)
C8 C 0.8908(4) 0.71277(16) 0.02790(12)
C9 C 0.6983(4) 0.74404(19) -0.01259(15)
H6 H 0.5677 0.7095 -0.0165
C10 C 0.7002(5) 0.8262(2) -0.04697(17)
H7 H 0.5706 0.8467 -0.0742
C11 C 0.8908(5) 0.8785(2) -0.04161(17)
H8 H 0.8907 0.9339 -0.0650
C12 C 1.0807(5) 0.8478(2) -0.00140(17)
H9 H 1.2104 0.8828 0.0023
C13 C 1.0828(4) 0.76617(19) 0.03362(15)
H10 H 1.2129 0.7466 0.0612
N1 N 0.7115(3) 0.57302(14) 0.05309(11)
H18 H 0.7038 0.5346 0.0181
N2 N 0.8964(3) 0.63018(13) 0.06480(11)
H19 H 1.0117 0.6151 0.0941
N3 N 0.5839(4) 0.63150(15) 0.15609(11)
H20 H 0.6994 0.6664 0.1597
N4 N 0.4411(4) 0.63076(15) 0.21120(12)
H21 H 0.3483 0.6743 0.2152
O1 O 0.3662(3) 0.53634(12) 0.08206(10)
C14 C 0.9098(5) 0.78263(19) 0.25852(16)
H11 H 0.7616 0.8000 0.2453
C15 C 0.9162(6) 0.8990(2) 0.34963(18)
H12 H 1.0221 0.9236 0.3871
H13 H 0.7887 0.8755 0.3710
H14 H 0.8675 0.9454 0.3154
C16 C 1.2467(5) 0.8018(2) 0.33949(17)
H15 H 1.3015 0.8413 0.3785
H16 H 1.3423 0.8060 0.3010
H17 H 1.2467 0.7410 0.3571
N5 N 1.0222(3) 0.82726(15) 0.31247(11)
O2 O 0.9826(3) 0.72042(14) 0.22424(12)
loop_
_geom_bond_atom_site_label_1
_geom_bond_atom_site_label_2
_geom_bond_site_symmetry_1
_geom_bond_site_symmetry_2
C1 C2 1_555 1_555
C2 H1 1_555 1_555
C3 C2 1_555 1_555
H2 C3 1_555 1_555
C4 C3 1_555 1_555
H3 C4 1_555 1_555
C5 C4 1_555 1_555
H4 C5 1_555 1_555
C6 C1 1_555 1_555
H5 C6 1_555 1_555
C7 N1 1_555 1_555
C8 C9 1_555 1_555
C9 H6 1_555 1_555
C10 C9 1_555 1_555
H7 C10 1_555 1_555
C11 C10 1_555 1_555
H8 C11 1_555 1_555
C12 C11 1_555 1_555
H9 C12 1_555 1_555
C13 C8 1_555 1_555
H10 C13 1_555 1_555
C14 H11 1_555 1_555
C15 H12 1_555 1_555
H13 C15 1_555 1_555
H14 C15 1_555 1_555
C16 H15 1_555 1_555
H16 C16 1_555 1_555
H17 C16 1_555 1_555
N1 H18 1_555 1_555
N2 C8 1_555 1_555
H19 N2 1_555 1_555
N3 C7 1_555 1_555
H20 N3 1_555 1_555
N4 C1 1_555 1_555
H21 N4 1_555 1_555
N5 C14 1_555 1_555
O1 C7 1_555 1_555
O2 C14 1_555 1_555
C5 C6 1_555 1_555
C12 C13 1_555 1_555
C15 N5 1_555 1_555
C16 N5 1_555 1_555
N1 N2 1_555 1_555
N3 N4 1_555 1_555

#END
