
#######################################################################
#
#                 Cambridge Crystallographic Data Centre
#                                CCDC 
#
#######################################################################
#
# If this CIF has been generated from an entry in the Cambridge 
# Structural Database, then it will include bibliographic, chemical, 
# crystal, experimental, refinement or atomic coordinate data resulting 
# from the CCDC's data processing and validation procedures.
#
#######################################################################

data_VUZNUA
_chemical_formula_moiety         'C15 H20 N2 O5'
_chemical_name_systematic        
(3R,4R,5R)-5-(Acetamidomethyl)-N-benzyl-3,4-dihydroxytetrahydrofuran-3-carboxamide
_symmetry_cell_setting           orthorhombic
_symmetry_space_group_name_H-M   'P 21 21 21'
_symmetry_Int_Tables_number      19
_space_group_name_Hall           'P 2ac 2ab'
loop_
_symmetry_equiv_pos_site_id
_symmetry_equiv_pos_as_xyz
1 x,y,z
2 1/2+x,1/2-y,-z
3 -x,1/2+y,1/2-z
4 1/2-x,-y,1/2+z
_cell_length_a                   5.4130(2)
_cell_length_b                   8.5082(2)
_cell_length_c                   32.6501(4)
_cell_angle_alpha                90
_cell_angle_beta                 90
_cell_angle_gamma                90
_cell_volume                     1503.7
_exptl_crystal_colour            colorless
_exptl_crystal_description       plate
_cell_formula_units_Z            4
loop_
_atom_site_label
_atom_site_type_symbol
_atom_site_fract_x
_atom_site_fract_y
_atom_site_fract_z
O1 O 0.5384(3) 0.54901(19) 0.24407(4)
C1 C 0.5370(4) 0.5114(3) 0.28721(7)
C2 C 0.2641(4) 0.5070(3) 0.29786(7)
C3 C 0.1541(4) 0.4286(3) 0.25891(7)
C4 C 0.3580(4) 0.4433(3) 0.22659(7)
O2 O 0.1751(3) 0.6640(2) 0.30274(4)
O3 O 0.0770(3) 0.27045(18) 0.26442(4)
C5 C 0.2035(5) 0.4123(4) 0.33591(8)
O4 O 0.3097(3) 0.2865(2) 0.34244(5)
N1 N 0.0228(4) 0.4687(2) 0.35927(6)
C6 C -0.0761(5) 0.3862(3) 0.39501(7)
C7 C 0.0572(5) 0.4266(4) 0.43394(8)
C8 C 0.2683(6) 0.3472(4) 0.44544(9)
C9 C 0.3884(6) 0.3856(4) 0.48131(11)
C10 C 0.3030(7) 0.5041(5) 0.50564(9)
C11 C 0.0949(7) 0.5856(4) 0.49430(9)
C12 C -0.0278(5) 0.5475(4) 0.45838(8)
C13 C 0.2707(4) 0.5031(3) 0.18519(7)
N2 N 0.4531(4) 0.4865(2) 0.15327(6)
C14 C 0.4739(5) 0.3543(4) 0.13069(8)
O5 O 0.3280(4) 0.2440(2) 0.13419(5)
C15 C 0.6860(5) 0.3518(3) 0.10127(8)
H1 H 0.1223 0.6945 0.2814
H2 H 0.1969 0.2186 0.2694
H3 H -0.0317 0.5582 0.3538
H4 H 0.5586 0.5638 0.1497
H5 H 0.6302 0.5904 0.3029
H6 H 0.6124 0.4078 0.2913
H7 H 0.0066 0.4876 0.2499
H8 H 0.4304 0.3372 0.2225
H9 H -0.2474 0.4142 0.3983
H10 H -0.0631 0.2706 0.3888
H11 H 0.3326 0.2659 0.4287
H12 H 0.5300 0.3272 0.4883
H13 H 0.3864 0.5282 0.5307
H14 H 0.0278 0.6652 0.5111
H15 H -0.1695 0.6031 0.4505
H16 H 0.2260 0.6167 0.1869
H17 H 0.1239 0.4446 0.1778
H18 H 0.6719 0.2678 0.0820
H19 H 0.8402 0.3475 0.1150
H20 H 0.6889 0.4446 0.0854
loop_
_geom_bond_atom_site_label_1
_geom_bond_atom_site_label_2
_geom_bond_site_symmetry_1
_geom_bond_site_symmetry_2
O1 C1 1_555 1_555
C1 C2 1_555 1_555
C2 C3 1_555 1_555
C3 C4 1_555 1_555
C4 O1 1_555 1_555
O2 C2 1_555 1_555
O3 C3 1_555 1_555
C5 C2 1_555 1_555
O4 C5 1_555 1_555
N1 C5 1_555 1_555
C6 N1 1_555 1_555
C7 C6 1_555 1_555
C8 C7 1_555 1_555
C9 C8 1_555 1_555
C10 C9 1_555 1_555
C11 C10 1_555 1_555
C12 C7 1_555 1_555
C13 C4 1_555 1_555
N2 C13 1_555 1_555
C14 N2 1_555 1_555
O5 C14 1_555 1_555
C15 C14 1_555 1_555
H1 O2 1_555 1_555
H2 O3 1_555 1_555
H3 N1 1_555 1_555
H4 N2 1_555 1_555
H5 C1 1_555 1_555
H6 C1 1_555 1_555
H7 C3 1_555 1_555
H8 C4 1_555 1_555
H9 C6 1_555 1_555
H10 C6 1_555 1_555
H11 C8 1_555 1_555
H12 C9 1_555 1_555
H13 C10 1_555 1_555
H14 C11 1_555 1_555
H15 C12 1_555 1_555
H16 C13 1_555 1_555
H17 C13 1_555 1_555
H18 C15 1_555 1_555
H19 C15 1_555 1_555
H20 C15 1_555 1_555
C11 C12 1_555 1_555

#END
