
#######################################################################
#
#                 Cambridge Crystallographic Data Centre
#                                CCDC 
#
#######################################################################
#
# If this CIF has been generated from an entry in the Cambridge 
# Structural Database, then it will include bibliographic, chemical, 
# crystal, experimental, refinement or atomic coordinate data resulting 
# from the CCDC's data processing and validation procedures.
#
#######################################################################

data_VUZTAM
_chemical_formula_moiety         'C9 H9 F3 O3 S1'
_chemical_name_systematic        '2,2,2-Trifluoroethyl 4-methylbenzenesulfonate'
_symmetry_cell_setting           monoclinic
_symmetry_space_group_name_H-M   'P 21/c'
_symmetry_Int_Tables_number      14
_space_group_name_Hall           '-P 2ybc'
loop_
_symmetry_equiv_pos_site_id
_symmetry_equiv_pos_as_xyz
1 x,y,z
2 -x,1/2+y,1/2-z
3 -x,-y,-z
4 x,1/2-y,1/2+z
_cell_length_a                   8.3760(17)
_cell_length_b                   11.827(2)
_cell_length_c                   11.145(2)
_cell_angle_alpha                90
_cell_angle_beta                 94.54(3)
_cell_angle_gamma                90
_cell_volume                     1100.59
_exptl_crystal_colour            colorless
_exptl_crystal_description       needle
_chemical_melting_point          '312 K'
_cell_formula_units_Z            4
_exptl_crystal_recrystallization_method methanol
loop_
_atom_site_label
_atom_site_type_symbol
_atom_site_fract_x
_atom_site_fract_y
_atom_site_fract_z
S1 S 0.22668(10) 0.81228(8) 0.14051(7)
O1 O 0.2130(3) 0.8490(2) 0.2610(2)
O2 O 0.2305(3) 0.6787(2) 0.15228(18)
O3 O 0.3590(3) 0.8450(2) 0.0778(2)
C1 C -0.3915(5) 0.8728(4) -0.1679(4)
H1 H -0.3695 0.8862 -0.2499
H2 H -0.4531 0.9345 -0.1399
H3 H -0.4509 0.8038 -0.1630
C2 C -0.2361(5) 0.8634(3) -0.0908(3)
C3 C -0.0892(5) 0.8731(3) -0.1392(3)
H4 H -0.0870 0.8893 -0.2207
C4 C 0.0537(4) 0.8594(3) -0.0705(3)
H5 H 0.1509 0.8650 -0.1051
C5 C 0.0493(4) 0.8369(3) 0.0522(3)
C6 C -0.0958(4) 0.8308(3) 0.1034(3)
H6 H -0.0981 0.8178 0.1856
C7 C -0.2343(5) 0.8439(3) 0.0336(3)
H7 H -0.3310 0.8399 0.0690
C8 C 0.2628(5) 0.6142(3) 0.0482(3)
H8 H 0.3679 0.6333 0.0234
H9 H 0.1840 0.6316 -0.0178
C9 C 0.2565(6) 0.4960(4) 0.0770(4)
F1 F 0.1153(4) 0.4632(3) 0.1101(3)
F2 F 0.3549(4) 0.4617(2) 0.1673(3)
F3 F 0.2812(4) 0.4335(3) -0.0197(3)
loop_
_geom_bond_atom_site_label_1
_geom_bond_atom_site_label_2
_geom_bond_site_symmetry_1
_geom_bond_site_symmetry_2
S1 O1 1_555 1_555
O2 S1 1_555 1_555
O3 S1 1_555 1_555
C1 H1 1_555 1_555
H2 C1 1_555 1_555
H3 C1 1_555 1_555
C2 C1 1_555 1_555
C3 C2 1_555 1_555
H4 C3 1_555 1_555
C4 C3 1_555 1_555
H5 C4 1_555 1_555
C5 S1 1_555 1_555
C6 C5 1_555 1_555
H6 C6 1_555 1_555
C7 C2 1_555 1_555
H7 C7 1_555 1_555
C8 O2 1_555 1_555
H8 C8 1_555 1_555
H9 C8 1_555 1_555
C9 C8 1_555 1_555
F1 C9 1_555 1_555
F2 C9 1_555 1_555
F3 C9 1_555 1_555
C4 C5 1_555 1_555
C6 C7 1_555 1_555

#END
