
#######################################################################
#
#                 Cambridge Crystallographic Data Centre
#                                CCDC 
#
#######################################################################
#
# If this CIF has been generated from an entry in the Cambridge 
# Structural Database, then it will include bibliographic, chemical, 
# crystal, experimental, refinement or atomic coordinate data resulting 
# from the CCDC's data processing and validation procedures.
#
#######################################################################

data_WACNAS
_chemical_formula_moiety         'C15 H14 O2'
_chemical_name_systematic        
2-Methyl-2,3-dihydronaphtho[2,1-b]oxepin-4(1H)-one
_symmetry_cell_setting           monoclinic
_symmetry_space_group_name_H-M   'P 21/n'
_symmetry_Int_Tables_number      14
_space_group_name_Hall           '-P 2yn'
loop_
_symmetry_equiv_pos_site_id
_symmetry_equiv_pos_as_xyz
1 x,y,z
2 1/2-x,1/2+y,1/2-z
3 -x,-y,-z
4 1/2+x,1/2-y,1/2+z
_cell_length_a                   5.3480(11)
_cell_length_b                   12.242(2)
_cell_length_c                   17.786(4)
_cell_angle_alpha                90
_cell_angle_beta                 93.89(3)
_cell_angle_gamma                90
_cell_volume                     1161.77
_exptl_crystal_description       block
_cell_formula_units_Z            4
loop_
_atom_site_label
_atom_site_type_symbol
_atom_site_fract_x
_atom_site_fract_y
_atom_site_fract_z
O1 O -0.0869(4) 0.8585(2) 0.55032(13)
C1 C 0.0546(6) 0.6756(3) 0.51910(18)
H1 H 0.2208 0.7071 0.5186
H2 H 0.0322 0.6257 0.4768
O2 O -0.3282(5) 0.7607(3) 0.47200(15)
C2 C -0.1361(6) 0.7643(3) 0.51031(19)
C3 C 0.1172(6) 0.8648(3) 0.60441(18)
C4 C 0.2671(7) 0.9578(3) 0.6001(2)
H3 H 0.2348 1.0088 0.5620
C5 C 0.4610(7) 0.9723(3) 0.6527(2)
H4 H 0.5623 1.0337 0.6501
C6 C 0.5108(6) 0.8958(3) 0.71098(19)
C7 C 0.7157(6) 0.9090(3) 0.7647(2)
H5 H 0.8192 0.9697 0.7616
C8 C 0.7648(7) 0.8352(3) 0.8206(2)
H6 H 0.9013 0.8450 0.8551
C9 C 0.6091(7) 0.7445(3) 0.82590(19)
H7 H 0.6417 0.6945 0.8647
C10 C 0.3556(6) 0.8029(3) 0.71502(17)
C11 C 0.4098(6) 0.7280(3) 0.77515(18)
H8 H 0.3081 0.6671 0.7799
C12 C 0.1515(6) 0.7876(3) 0.65937(17)
C13 C -0.0197(6) 0.6898(3) 0.65727(18)
H9 H -0.1924 0.7142 0.6511
H10 H 0.0023 0.6509 0.7048
C14 C 0.0343(6) 0.6119(3) 0.59246(17)
H11 H -0.1080 0.5617 0.5851
C15 C 0.2693(7) 0.5437(3) 0.6101(2)
H12 H 0.2957 0.4964 0.5682
H13 H 0.2492 0.5004 0.6543
H14 H 0.4113 0.5911 0.6187
loop_
_geom_bond_atom_site_label_1
_geom_bond_atom_site_label_2
_geom_bond_site_symmetry_1
_geom_bond_site_symmetry_2
O1 C2 1_555 1_555
C1 H1 1_555 1_555
H2 C1 1_555 1_555
O2 C2 1_555 1_555
C2 C1 1_555 1_555
C3 O1 1_555 1_555
C4 C3 1_555 1_555
H3 C4 1_555 1_555
C5 C4 1_555 1_555
H4 C5 1_555 1_555
C6 C5 1_555 1_555
C7 C6 1_555 1_555
H5 C7 1_555 1_555
C8 C7 1_555 1_555
H6 C8 1_555 1_555
C9 C8 1_555 1_555
H7 C9 1_555 1_555
C10 C6 1_555 1_555
C11 C9 1_555 1_555
H8 C11 1_555 1_555
C12 C3 1_555 1_555
C13 C12 1_555 1_555
H9 C13 1_555 1_555
H10 C13 1_555 1_555
C14 C1 1_555 1_555
H11 C14 1_555 1_555
C15 C14 1_555 1_555
H12 C15 1_555 1_555
H13 C15 1_555 1_555
H14 C15 1_555 1_555
C10 C11 1_555 1_555
C10 C12 1_555 1_555
C13 C14 1_555 1_555

#END
