
#######################################################################
#
#                 Cambridge Crystallographic Data Centre
#                                CCDC 
#
#######################################################################
#
# If this CIF has been generated from an entry in the Cambridge 
# Structural Database, then it will include bibliographic, chemical, 
# crystal, experimental, refinement or atomic coordinate data resulting 
# from the CCDC's data processing and validation procedures.
#
#######################################################################

data_WACQUO
_chemical_name_common            6-Chloro-4-(2-phenylvinyl)chroman-2-one
_chemical_formula_moiety         'C17 H13 Cl1 O2'
_chemical_name_systematic        6-Chloro-4-(2-phenylethenyl)chroman-2-one
_symmetry_cell_setting           monoclinic
_symmetry_space_group_name_H-M   'P 21/c'
_symmetry_Int_Tables_number      14
_space_group_name_Hall           '-P 2ybc'
loop_
_symmetry_equiv_pos_site_id
_symmetry_equiv_pos_as_xyz
1 x,y,z
2 -x,1/2+y,1/2-z
3 -x,-y,-z
4 x,1/2-y,1/2+z
_cell_length_a                   15.6682(3)
_cell_length_b                   6.2800(1)
_cell_length_c                   14.9383(3)
_cell_angle_alpha                90
_cell_angle_beta                 115.129(1)
_cell_angle_gamma                90
_cell_volume                     1330.76
_exptl_crystal_colour            silver
_exptl_crystal_description       block
_cell_formula_units_Z            4
_exptl_crystal_recrystallization_method dichloromethane/n-hexane
loop_
_atom_site_label
_atom_site_type_symbol
_atom_site_fract_x
_atom_site_fract_y
_atom_site_fract_z
Cl1 Cl 0.64583(2) 0.83763(5) 0.61691(2)
O1 O 0.35931(6) 0.24736(14) 0.62698(7)
O2 O 0.21611(7) 0.17409(16) 0.60995(8)
C1 C 0.39949(9) 0.6045(2) 0.59464(9)
C2 C 0.42529(9) 0.3975(2) 0.62766(9)
C3 C 0.51713(9) 0.3250(2) 0.65950(9)
H1 H 0.5325 0.1864 0.6827
C4 C 0.58581(9) 0.4603(2) 0.65657(9)
H2 H 0.6477 0.4141 0.6777
C5 C 0.56024(9) 0.6657(2) 0.62152(9)
C6 C 0.46877(9) 0.7392(2) 0.59102(9)
H3 H 0.4536 0.8781 0.5682
C7 C 0.27232(9) 0.3112(2) 0.61886(10)
C8 C 0.25822(9) 0.5461(2) 0.62445(10)
H4 H 0.2881 0.5907 0.6931
H5 H 0.1913 0.5753 0.5998
C9 C 0.29900(9) 0.6771(2) 0.56459(9)
H6 H 0.2998 0.8275 0.5824
C10 C 0.24087(9) 0.6545(2) 0.45496(9)
H7 H 0.2362 0.5208 0.4265
C11 C 0.19575(9) 0.8170(2) 0.39674(10)
H8 H 0.2035 0.9496 0.4269
C12 C 0.13500(9) 0.8094(2) 0.28984(9)
C13 C 0.07977(9) 0.9877(2) 0.24476(10)
H9 H 0.0856 1.1106 0.2816
C14 C 0.01637(9) 0.9834(2) 0.14573(10)
H10 H -0.0200 1.1029 0.1169
C15 C 0.00700(9) 0.8019(2) 0.08960(10)
H11 H -0.0367 0.7976 0.0238
C16 C 0.06374(9) 0.6256(2) 0.13271(10)
H12 H 0.0591 0.5048 0.0949
C17 C 0.12697(9) 0.6293(2) 0.23151(10)
H13 H 0.1645 0.5109 0.2594
loop_
_geom_bond_atom_site_label_1
_geom_bond_atom_site_label_2
_geom_bond_site_symmetry_1
_geom_bond_site_symmetry_2
Cl1 C5 1_555 1_555
O1 C2 1_555 1_555
O2 C7 1_555 1_555
C1 C2 1_555 1_555
C2 C3 1_555 1_555
C3 H1 1_555 1_555
C4 C3 1_555 1_555
H2 C4 1_555 1_555
C5 C4 1_555 1_555
C6 C1 1_555 1_555
H3 C6 1_555 1_555
C7 O1 1_555 1_555
C8 C7 1_555 1_555
H4 C8 1_555 1_555
H5 C8 1_555 1_555
C9 C1 1_555 1_555
H6 C9 1_555 1_555
C10 C9 1_555 1_555
H7 C10 1_555 1_555
C11 C10 1_555 1_555
H8 C11 1_555 1_555
C12 C11 1_555 1_555
C13 C12 1_555 1_555
H9 C13 1_555 1_555
C14 C13 1_555 1_555
H10 C14 1_555 1_555
C15 C14 1_555 1_555
H11 C15 1_555 1_555
C16 C15 1_555 1_555
H12 C16 1_555 1_555
C17 C12 1_555 1_555
H13 C17 1_555 1_555
C5 C6 1_555 1_555
C8 C9 1_555 1_555
C16 C17 1_555 1_555

#END
