
#######################################################################
#
#                 Cambridge Crystallographic Data Centre
#                                CCDC 
#
#######################################################################
#
# If this CIF has been generated from an entry in the Cambridge 
# Structural Database, then it will include bibliographic, chemical, 
# crystal, experimental, refinement or atomic coordinate data resulting 
# from the CCDC's data processing and validation procedures.
#
#######################################################################

data_WACQAV
_chemical_formula_moiety         'C13 H14 O3'
_chemical_name_systematic        
7-Acetyl-4-methyl-4,5-dihydro-1-benzoxepin-2(3H)-one
_symmetry_cell_setting           monoclinic
_symmetry_space_group_name_H-M   'P 21/c'
_symmetry_Int_Tables_number      14
_space_group_name_Hall           '-P 2ybc'
loop_
_symmetry_equiv_pos_site_id
_symmetry_equiv_pos_as_xyz
1 x,y,z
2 -x,1/2+y,1/2-z
3 -x,-y,-z
4 x,1/2-y,1/2+z
_cell_length_a                   7.3630(15)
_cell_length_b                   17.941(4)
_cell_length_c                   8.5680(17)
_cell_angle_alpha                90
_cell_angle_beta                 91.50(3)
_cell_angle_gamma                90
_cell_volume                     1131.44
_exptl_crystal_description       block
_cell_formula_units_Z            4
loop_
_atom_site_label
_atom_site_type_symbol
_atom_site_fract_x
_atom_site_fract_y
_atom_site_fract_z
O1 O 1.3623(6) 0.1785(3) 0.9870(5)
C1 C 1.2805(9) 0.1574(4) 1.2454(7)
H1 H 1.3938 0.1824 1.2659
H2 H 1.2871 0.1075 1.2861
H3 H 1.1845 0.1839 1.2948
O2 O 0.6065(5) 0.0320(2) 0.8067(5)
C2 C 1.2432(9) 0.1546(4) 1.0741(7)
O3 O 0.3727(5) 0.0321(2) 0.6383(4)
C3 C 1.0790(7) 0.1220(3) 1.0046(7)
C4 C 0.9451(8) 0.0931(3) 1.0953(6)
H4 H 0.9622 0.0922 1.2032
C5 C 0.7836(8) 0.0648(3) 1.0295(7)
H5 H 0.6922 0.0464 1.0916
C6 C 0.7651(8) 0.0653(3) 0.8700(7)
C7 C 0.4998(8) 0.0660(4) 0.6909(7)
C8 C 0.5577(6) 0.1417(3) 0.6434(6)
H6 H 0.5889 0.1704 0.7362
H7 H 0.4565 0.1665 0.5903
C9 C 0.7213(8) 0.1412(4) 0.5354(7)
H8 H 0.6799 0.1238 0.4321
C10 C 0.8687(7) 0.0874(3) 0.5980(6)
H9 H 0.8351 0.0369 0.5690
H10 H 0.9824 0.0989 0.5486
C11 C 0.8972(8) 0.0910(3) 0.7708(6)
C12 C 1.0511(7) 0.1205(3) 0.8432(6)
H11 H 1.1407 0.1404 0.7809
C13 C 0.7971(8) 0.2161(3) 0.5190(8)
H12 H 0.7041 0.2494 0.4807
H13 H 0.8945 0.2148 0.4467
H14 H 0.8425 0.2333 0.6187
loop_
_geom_bond_atom_site_label_1
_geom_bond_atom_site_label_2
_geom_bond_site_symmetry_1
_geom_bond_site_symmetry_2
O1 C2 1_555 1_555
C1 H1 1_555 1_555
H2 C1 1_555 1_555
H3 C1 1_555 1_555
O2 C6 1_555 1_555
C2 C1 1_555 1_555
O3 C7 1_555 1_555
C3 C2 1_555 1_555
C4 C3 1_555 1_555
H4 C4 1_555 1_555
C5 C4 1_555 1_555
H5 C5 1_555 1_555
C6 C5 1_555 1_555
C7 O2 1_555 1_555
C8 C7 1_555 1_555
H6 C8 1_555 1_555
H7 C8 1_555 1_555
C9 C8 1_555 1_555
H8 C9 1_555 1_555
C10 C9 1_555 1_555
H9 C10 1_555 1_555
H10 C10 1_555 1_555
C11 C6 1_555 1_555
C12 C3 1_555 1_555
H11 C12 1_555 1_555
C13 C9 1_555 1_555
H12 C13 1_555 1_555
H13 C13 1_555 1_555
H14 C13 1_555 1_555
C10 C11 1_555 1_555
C11 C12 1_555 1_555

#END
