
#######################################################################
#
#                 Cambridge Crystallographic Data Centre
#                                CCDC 
#
#######################################################################
#
# If this CIF has been generated from an entry in the Cambridge 
# Structural Database, then it will include bibliographic, chemical, 
# crystal, experimental, refinement or atomic coordinate data resulting 
# from the CCDC's data processing and validation procedures.
#
#######################################################################

data_WACQIC
_chemical_formula_moiety         'C19 H28 O3 Si1'
_chemical_name_systematic        
'(2SR,3SR)-Isopropyl 3-((dimethyl(phenyl)silyl)methyl)-2-hydroxy-2-vinylpent-4-enoate'
_symmetry_cell_setting           monoclinic
_symmetry_space_group_name_H-M   'C c'
_symmetry_Int_Tables_number      9
_space_group_name_Hall           'C -2yc'
loop_
_symmetry_equiv_pos_site_id
_symmetry_equiv_pos_as_xyz
1 x,y,z
2 x,-y,1/2+z
3 1/2+x,1/2+y,z
4 1/2+x,1/2-y,1/2+z
_cell_length_a                   18.4311(15)
_cell_length_b                   12.0676(10)
_cell_length_c                   8.8508(6)
_cell_angle_alpha                90
_cell_angle_beta                 95.366(7)
_cell_angle_gamma                90
_cell_volume                     1959.96
_exptl_crystal_colour            colorless
_exptl_crystal_description       block
_cell_formula_units_Z            4
_exptl_crystal_recrystallization_method 'ethyl acetate/isohexane'
loop_
_atom_site_label
_atom_site_type_symbol
_atom_site_fract_x
_atom_site_fract_y
_atom_site_fract_z
Si1 Si 0.22320(4) 0.22241(6) 0.31540(6)
C1 C 0.17453(12) 0.2779(2) 0.4769(2)
O1 O 0.42490(8) 0.24617(13) 0.68996(16)
O2 O 0.50238(10) 0.17136(15) 0.53585(17)
C2 C 0.17399(13) 0.2176(2) 0.6094(2)
H1 H 0.1974 0.1474 0.6173
O3 O 0.46978(10) 0.32269(15) 0.32107(15)
H2 H 0.4988 0.2689 0.3297
C3 C 0.13979(16) 0.2578(2) 0.7307(3)
H3 H 0.1404 0.2155 0.8213
C4 C 0.10492(15) 0.3585(2) 0.7211(3)
H4 H 0.0810 0.3856 0.8042
C5 C 0.10492(16) 0.4195(2) 0.5904(3)
H5 H 0.0811 0.4894 0.5828
C6 C 0.13942(14) 0.3794(2) 0.4699(2)
H6 H 0.1391 0.4225 0.3800
C7 C 0.32344(12) 0.2331(2) 0.3641(2)
H7 H 0.3377 0.1759 0.4413
H8 H 0.3475 0.2140 0.2722
C8 C 0.35493(12) 0.3452(2) 0.4244(2)
H9 H 0.3331 0.3620 0.5211
C9 C 0.43837(13) 0.3388(2) 0.4608(2)
C10 C 0.45930(13) 0.2409(2) 0.5653(3)
C11 C 0.44411(16) 0.1640(2) 0.8072(3)
H10 H 0.4981 0.1532 0.8184
C12 C 0.40720(19) 0.0556(2) 0.7641(3)
H11 H 0.4224 0.0303 0.6667
H12 H 0.3542 0.0659 0.7553
H13 H 0.4210 0.0001 0.8425
C13 C 0.20207(15) 0.0718(2) 0.2902(3)
H14 H 0.2285 0.0419 0.2082
H15 H 0.1496 0.0621 0.2645
H16 H 0.2170 0.0322 0.3847
C14 C 0.19202(14) 0.2949(2) 0.1357(2)
H17 H 0.1999 0.3748 0.1485
H18 H 0.1400 0.2805 0.1098
H19 H 0.2197 0.2677 0.0540
C15 C 0.33501(13) 0.4375(2) 0.3156(2)
H20 H 0.3503 0.4310 0.2164
C16 C 0.29856(14) 0.5262(2) 0.3452(3)
H21 H 0.2823 0.5361 0.4430
H22 H 0.2883 0.5809 0.2690
C17 C 0.46867(14) 0.4419(2) 0.5398(3)
H23 H 0.4481 0.4647 0.6292
C18 C 0.52116(15) 0.5018(2) 0.4934(3)
H24 H 0.5429 0.4813 0.4044
H25 H 0.5376 0.5659 0.5488
C19 C 0.42038(18) 0.2118(2) 0.9503(3)
H26 H 0.4444 0.2834 0.9707
H27 H 0.4338 0.1610 1.0348
H28 H 0.3674 0.2221 0.9394
loop_
_geom_bond_atom_site_label_1
_geom_bond_atom_site_label_2
_geom_bond_site_symmetry_1
_geom_bond_site_symmetry_2
Si1 C1 1_555 1_555
C1 C2 1_555 1_555
O1 C10 1_555 1_555
O2 C10 1_555 1_555
C2 H1 1_555 1_555
O3 H2 1_555 1_555
C3 C2 1_555 1_555
H3 C3 1_555 1_555
C4 C3 1_555 1_555
H4 C4 1_555 1_555
C5 C4 1_555 1_555
H5 C5 1_555 1_555
C6 C1 1_555 1_555
H6 C6 1_555 1_555
C7 Si1 1_555 1_555
H7 C7 1_555 1_555
H8 C7 1_555 1_555
C8 C7 1_555 1_555
H9 C8 1_555 1_555
C9 O3 1_555 1_555
C10 C9 1_555 1_555
C11 O1 1_555 1_555
H10 C11 1_555 1_555
C12 C11 1_555 1_555
H11 C12 1_555 1_555
H12 C12 1_555 1_555
H13 C12 1_555 1_555
C13 Si1 1_555 1_555
H14 C13 1_555 1_555
H15 C13 1_555 1_555
H16 C13 1_555 1_555
C14 Si1 1_555 1_555
H17 C14 1_555 1_555
H18 C14 1_555 1_555
H19 C14 1_555 1_555
C15 C8 1_555 1_555
H20 C15 1_555 1_555
C16 C15 1_555 1_555
H21 C16 1_555 1_555
H22 C16 1_555 1_555
C17 C9 1_555 1_555
H23 C17 1_555 1_555
C18 C17 1_555 1_555
H24 C18 1_555 1_555
H25 C18 1_555 1_555
C19 C11 1_555 1_555
H26 C19 1_555 1_555
H27 C19 1_555 1_555
H28 C19 1_555 1_555
C5 C6 1_555 1_555
C8 C9 1_555 1_555

#END
