
#######################################################################
#
#                 Cambridge Crystallographic Data Centre
#                                CCDC 
#
#######################################################################
#
# If this CIF has been generated from an entry in the Cambridge 
# Structural Database, then it will include bibliographic, chemical, 
# crystal, experimental, refinement or atomic coordinate data resulting 
# from the CCDC's data processing and validation procedures.
#
#######################################################################

data_WADGEP
_chemical_formula_moiety         'C22 H24 N6 O5'
_chemical_name_systematic        
'Ethyl 1-benzyl-5-([(isopropylamino)(3-nitrophenoxy)methylidene]amino)-1H-1,2,3-triazole-4-carboxylate'
_symmetry_cell_setting           monoclinic
_symmetry_space_group_name_H-M   'P 21/n'
_symmetry_Int_Tables_number      14
_space_group_name_Hall           '-P 2yn'
loop_
_symmetry_equiv_pos_site_id
_symmetry_equiv_pos_as_xyz
1 x,y,z
2 1/2-x,1/2+y,1/2-z
3 -x,-y,-z
4 1/2+x,1/2-y,1/2+z
_cell_length_a                   11.5019(7)
_cell_length_b                   14.5616(9)
_cell_length_c                   14.1758(9)
_cell_angle_alpha                90
_cell_angle_beta                 106.3840(10)
_cell_angle_gamma                90
_cell_volume                     2277.84
_exptl_crystal_colour            colorless
_exptl_crystal_description       block
_cell_formula_units_Z            4
_exptl_crystal_recrystallization_method ethanol/dichloromethane
loop_
_atom_site_label
_atom_site_type_symbol
_atom_site_fract_x
_atom_site_fract_y
_atom_site_fract_z
C1 C 0.83494(16) 0.73129(13) 0.46761(13)
C2 C 0.92546(19) 0.79033(16) 0.45953(18)
H1 H 0.9053 0.8448 0.4245
C3 C 1.0448(2) 0.7693(2) 0.5027(2)
H2 H 1.1051 0.8096 0.4969
C4 C 1.0756(2) 0.6893(3) 0.5545(2)
H3 H 1.1565 0.6761 0.5855
C5 C 0.9865(3) 0.6285(2) 0.56061(19)
H4 H 1.0073 0.5731 0.5936
C6 C 0.8662(2) 0.64966(17) 0.51778(17)
H5 H 0.8061 0.6088 0.5227
C7 C 0.70362(17) 0.75548(14) 0.42216(15)
H6 H 0.6892 0.7643 0.3520
H7 H 0.6531 0.7050 0.4318
C8 C 0.67486(14) 0.92697(13) 0.43699(12)
C9 C 0.64906(14) 0.97754(13) 0.51172(12)
C10 C 0.65826(15) 1.07626(14) 0.52721(13)
C11 C 0.6438(2) 1.19830(17) 0.63312(18)
H8 H 0.5876 1.2347 0.5832
H9 H 0.7256 1.2178 0.6369
C12 C 0.6194(3) 1.2108(2) 0.7301(2)
H10 H 0.5398 1.1884 0.7264
H11 H 0.6244 1.2749 0.7468
H12 H 0.6784 1.1773 0.7795
C13 C 0.65271(15) 1.00782(13) 0.29254(12)
C14 C 0.48968(17) 1.11872(14) 0.21120(13)
H13 H 0.5274 1.1187 0.1572
C15 C 0.35540(19) 1.09763(18) 0.16922(17)
H14 H 0.3457 1.0371 0.1413
H15 H 0.3194 1.1417 0.1191
H16 H 0.3164 1.1008 0.2207
C16 C 0.5115(3) 1.21091(17) 0.26153(18)
H17 H 0.4759 1.2116 0.3152
H18 H 0.4754 1.2582 0.2153
H19 H 0.5971 1.2216 0.2861
C17 C 0.82682(16) 1.01845(14) 0.23484(13)
C18 C 0.85824(16) 0.97580(13) 0.15946(13)
H20 H 0.7997 0.9553 0.1038
C19 C 0.98042(18) 0.96439(14) 0.16946(15)
C20 C 1.06905(19) 0.99366(19) 0.25005(19)
H21 H 1.1505 0.9845 0.2549
C21 C 1.0339(2) 1.0371(2) 0.32389(19)
H22 H 1.0926 1.0580 0.3792
C22 C 0.9133(2) 1.04989(19) 0.31693(16)
H23 H 0.8903 1.0794 0.3670
N1 N 0.66986(13) 0.83894(11) 0.46539(11)
N2 N 0.64102(15) 0.83418(12) 0.55231(12)
N3 N 0.62788(13) 0.91804(12) 0.57907(11)
N4 N 0.70987(13) 0.94745(12) 0.35461(11)
N5 N 0.54469(13) 1.04458(12) 0.28047(11)
H24 H 0.5090(19) 1.0317(14) 0.3220(16)
N6 N 1.0155(2) 0.91968(15) 0.08856(18)
O1 O 0.69213(14) 1.12893(11) 0.47476(11)
O2 O 0.62878(12) 1.10169(9) 0.60849(10)
O3 O 0.70407(11) 1.03569(10) 0.22136(9)
O4 O 0.9375(2) 0.89508(16) 0.01765(16)
O5 O 1.1227(2) 0.91031(17) 0.09688(19)
loop_
_geom_bond_atom_site_label_1
_geom_bond_atom_site_label_2
_geom_bond_site_symmetry_1
_geom_bond_site_symmetry_2
C1 C2 1_555 1_555
C2 H1 1_555 1_555
C3 C2 1_555 1_555
H2 C3 1_555 1_555
C4 C3 1_555 1_555
H3 C4 1_555 1_555
C5 C4 1_555 1_555
H4 C5 1_555 1_555
C6 C1 1_555 1_555
H5 C6 1_555 1_555
C7 C1 1_555 1_555
H6 C7 1_555 1_555
H7 C7 1_555 1_555
C8 C9 1_555 1_555
C9 C10 1_555 1_555
C10 O1 1_555 1_555
C11 H8 1_555 1_555
H9 C11 1_555 1_555
C12 C11 1_555 1_555
H10 C12 1_555 1_555
H11 C12 1_555 1_555
H12 C12 1_555 1_555
C13 N4 1_555 1_555
C14 H13 1_555 1_555
C15 C14 1_555 1_555
H14 C15 1_555 1_555
H15 C15 1_555 1_555
H16 C15 1_555 1_555
C16 C14 1_555 1_555
H17 C16 1_555 1_555
H18 C16 1_555 1_555
H19 C16 1_555 1_555
C17 C18 1_555 1_555
C18 H20 1_555 1_555
C19 C18 1_555 1_555
C20 C19 1_555 1_555
H21 C20 1_555 1_555
C21 C20 1_555 1_555
H22 C21 1_555 1_555
C22 C17 1_555 1_555
H23 C22 1_555 1_555
N1 C7 1_555 1_555
N2 N1 1_555 1_555
N3 C9 1_555 1_555
N4 C8 1_555 1_555
N5 C13 1_555 1_555
H24 N5 1_555 1_555
N6 C19 1_555 1_555
O2 C10 1_555 1_555
O3 C13 1_555 1_555
O4 N6 1_555 1_555
O5 N6 1_555 1_555
C5 C6 1_555 1_555
C8 N1 1_555 1_555
C11 O2 1_555 1_555
C14 N5 1_555 1_555
C17 O3 1_555 1_555
C21 C22 1_555 1_555
N2 N3 1_555 1_555

#END
