
#######################################################################
#
#                 Cambridge Crystallographic Data Centre
#                                CCDC 
#
#######################################################################
#
# If this CIF has been generated from an entry in the Cambridge 
# Structural Database, then it will include bibliographic, chemical, 
# crystal, experimental, refinement or atomic coordinate data resulting 
# from the CCDC's data processing and validation procedures.
#
#######################################################################

data_WADJIW
_chemical_name_common            
"2,2',2''-(nitrilotris(ethane-2,1-diylnitrilomethylylidene))tris(4-nitrophenol) acetonitrile solvate"
_chemical_formula_moiety         'C27 H27 N7 O9,C2 H3 N1'
_chemical_name_systematic        
'2-[(2-(bis[2-(2-hydroxy-5-nitrobenzylideneamino)ethyl]amino)ethyl)iminomethyl]-4-nitrophenol acetonitrile solvate'
_symmetry_cell_setting           triclinic
_symmetry_space_group_name_H-M   'P -1'
_symmetry_Int_Tables_number      2
_space_group_name_Hall           '-P 1'
loop_
_symmetry_equiv_pos_site_id
_symmetry_equiv_pos_as_xyz
1 x,y,z
2 -x,-y,-z
_cell_length_a                   10.6097(9)
_cell_length_b                   11.8168(9)
_cell_length_c                   12.8003(10)
_cell_angle_alpha                79.054(2)
_cell_angle_beta                 68.293(2)
_cell_angle_gamma                88.527(2)
_cell_volume                     1462.14
_exptl_crystal_colour            yellow
_exptl_crystal_description       block
_cell_formula_units_Z            2
_exptl_crystal_recrystallization_method acetonitrile
loop_
_atom_site_label
_atom_site_type_symbol
_atom_site_fract_x
_atom_site_fract_y
_atom_site_fract_z
O1 O 1.1867(3) -0.08637(18) 0.09431(18)
H1 H 1.1937 -0.0154 0.0928
O2 O 0.8123(3) -0.2527(2) 0.6061(2)
O3 O 0.8574(3) -0.4164(2) 0.5510(2)
O4 O 0.8089(3) -0.13330(19) 0.10667(19)
H2 H 0.7975 -0.0622 0.0925
O5 O 0.4797(3) -0.2368(2) 0.6310(2)
O6 O 0.4974(3) -0.4093(2) 0.5958(2)
O7 O 0.7816(3) 0.09156(19) 0.4737(2)
H3 H 0.8186 0.1513 0.4252
O8 O 0.4783(3) 0.3083(3) 0.9032(2)
O9 O 0.4522(3) 0.1281(3) 0.9805(2)
N1 N 0.9339(3) 0.2871(2) 0.1376(2)
N2 N 1.1352(3) 0.1102(2) 0.1657(2)
N3 N 0.8708(3) -0.3096(3) 0.5314(3)
N4 N 0.7479(3) 0.0770(2) 0.1510(2)
N5 N 0.5246(3) -0.3041(3) 0.5642(3)
N6 N 0.8372(3) 0.3109(2) 0.3871(2)
N7 N 0.4978(3) 0.2066(3) 0.8974(3)
C1 C 1.0834(3) 0.3037(3) 0.0811(3)
H4 H 1.1088 0.3867 0.0680
H5 H 1.1120 0.2813 0.0052
C2 C 1.1598(3) 0.2351(2) 0.1490(3)
H6 H 1.2583 0.2544 0.1084
H7 H 1.1319 0.2575 0.2248
C3 C 1.0620(3) 0.0478(3) 0.2639(3)
H8 H 1.0176 0.0862 0.3256
C4 C 1.0438(3) -0.0738(3) 0.2849(3)
C5 C 1.1155(3) -0.1371(3) 0.1946(3)
C6 C 1.1040(3) -0.2603(3) 0.2275(3)
H9 H 1.1518 -0.3051 0.1721
C7 C 1.0271(3) -0.3153(3) 0.3355(3)
H10 H 1.0223 -0.3971 0.3547
C8 C 0.9544(3) -0.2504(3) 0.4190(3)
C9 C 0.9646(3) -0.1321(3) 0.3945(3)
H11 H 0.9175 -0.0898 0.4524
C10 C 0.8749(3) 0.2637(3) 0.0560(3)
H12 H 0.9375 0.2169 0.0044
H13 H 0.8665 0.3378 0.0083
C11 C 0.7373(3) 0.2011(3) 0.1132(3)
H14 H 0.6827 0.2347 0.1803
H15 H 0.6896 0.2122 0.0589
C12 C 0.7036(3) 0.0251(3) 0.2570(3)
H16 H 0.6720 0.0712 0.3140
C13 C 0.6991(3) -0.0966(3) 0.2943(3)
C14 C 0.7506(4) -0.1716(3) 0.2118(3)
C15 C 0.7267(4) -0.2933(3) 0.2577(3)
H17 H 0.7619 -0.3456 0.2071
C16 C 0.6556(3) -0.3364(3) 0.3706(3)
H18 H 0.6389 -0.4173 0.3977
C17 C 0.6071(3) -0.2591(3) 0.4471(3)
C18 C 0.6295(3) -0.1425(3) 0.4103(3)
H19 H 0.5977 -0.0925 0.4637
C19 C 0.8723(4) 0.3882(3) 0.1849(3)
H20 H 0.7726 0.3806 0.2069
H21 H 0.9062 0.4583 0.1245
C20 C 0.9027(4) 0.4034(3) 0.2889(3)
H22 H 1.0021 0.4043 0.2694
H23 H 0.8703 0.4785 0.3093
C21 C 0.7671(3) 0.3281(3) 0.4904(3)
H24 H 0.7578 0.4052 0.5025
C22 C 0.7048(3) 0.2381(3) 0.5843(3)
C23 C 0.7173(3) 0.1188(3) 0.5718(3)
C24 C 0.6567(3) 0.0327(3) 0.6723(3)
H25 H 0.6650 -0.0463 0.6666
C25 C 0.5872(3) 0.0604(3) 0.7763(3)
H26 H 0.5484 0.0012 0.8421
C26 C 0.5731(3) 0.1773(3) 0.7858(3)
C27 C 0.6304(3) 0.2637(3) 0.6931(3)
H27 H 0.6201 0.3419 0.7018
N8 N 0.2620(4) 0.5168(3) 0.1139(4)
C28 C 0.4516(4) 0.4093(4) 0.1626(4)
H28 H 0.4123 0.3395 0.2205
H29 H 0.4975 0.4587 0.1924
H30 H 0.5173 0.3877 0.0931
C29 C 0.3459(4) 0.4707(3) 0.1358(3)
loop_
_geom_bond_atom_site_label_1
_geom_bond_atom_site_label_2
_geom_bond_site_symmetry_1
_geom_bond_site_symmetry_2
O1 H1 1_555 1_555
O2 N3 1_555 1_555
O3 N3 1_555 1_555
O4 H2 1_555 1_555
O5 N5 1_555 1_555
O6 N5 1_555 1_555
O7 H3 1_555 1_555
O8 N7 1_555 1_555
O9 N7 1_555 1_555
N1 C1 1_555 1_555
N2 C2 1_555 1_555
N3 C8 1_555 1_555
N4 C11 1_555 1_555
N5 C17 1_555 1_555
N6 C20 1_555 1_555
N7 C26 1_555 1_555
C1 H4 1_555 1_555
H5 C1 1_555 1_555
C2 C1 1_555 1_555
H6 C2 1_555 1_555
H7 C2 1_555 1_555
C3 N2 1_555 1_555
H8 C3 1_555 1_555
C4 C3 1_555 1_555
C5 O1 1_555 1_555
C6 C5 1_555 1_555
H9 C6 1_555 1_555
C7 C6 1_555 1_555
H10 C7 1_555 1_555
C8 C7 1_555 1_555
C9 C4 1_555 1_555
H11 C9 1_555 1_555
C10 N1 1_555 1_555
H12 C10 1_555 1_555
H13 C10 1_555 1_555
C11 C10 1_555 1_555
H14 C11 1_555 1_555
H15 C11 1_555 1_555
C12 N4 1_555 1_555
H16 C12 1_555 1_555
C13 C12 1_555 1_555
C14 O4 1_555 1_555
C15 C14 1_555 1_555
H17 C15 1_555 1_555
C16 C15 1_555 1_555
H18 C16 1_555 1_555
C17 C16 1_555 1_555
C18 C13 1_555 1_555
H19 C18 1_555 1_555
C19 N1 1_555 1_555
H20 C19 1_555 1_555
H21 C19 1_555 1_555
C20 C19 1_555 1_555
H22 C20 1_555 1_555
H23 C20 1_555 1_555
C21 N6 1_555 1_555
H24 C21 1_555 1_555
C22 C21 1_555 1_555
C23 O7 1_555 1_555
C24 C23 1_555 1_555
H25 C24 1_555 1_555
C25 C24 1_555 1_555
H26 C25 1_555 1_555
C26 C25 1_555 1_555
C27 C22 1_555 1_555
H27 C27 1_555 1_555
N8 C29 1_555 1_555
C28 H28 1_555 1_555
H29 C28 1_555 1_555
H30 C28 1_555 1_555
C29 C28 1_555 1_555
C4 C5 1_555 1_555
C8 C9 1_555 1_555
C13 C14 1_555 1_555
C17 C18 1_555 1_555
C22 C23 1_555 1_555
C26 C27 1_555 1_555

#END
