
#######################################################################
#
#                 Cambridge Crystallographic Data Centre
#                                CCDC 
#
#######################################################################
#
# If this CIF has been generated from an entry in the Cambridge 
# Structural Database, then it will include bibliographic, chemical, 
# crystal, experimental, refinement or atomic coordinate data resulting 
# from the CCDC's data processing and validation procedures.
#
#######################################################################

data_WAFBIP
_chemical_formula_moiety         'C24 H19 N3 O5'
_chemical_name_systematic        
4-((3aSR,4RS,8aSR,8bRS)-2-((benzo(1,3)dioxol-5-yl)methyl)-1,3,7-trioxo-2,3,3a,4,5,6,7,8,8a,8b-decahydro-1H-pyrrolo(3,4-a)pyrrolizin-4-yl)benzonitrile
_symmetry_cell_setting           monoclinic
_symmetry_space_group_name_H-M   'P 21/n'
_symmetry_Int_Tables_number      14
_space_group_name_Hall           '-P 2yn'
loop_
_symmetry_equiv_pos_site_id
_symmetry_equiv_pos_as_xyz
1 x,y,z
2 1/2+x,1/2-y,1/2+z
3 -x,-y,-z
4 1/2-x,1/2+y,1/2-z
_cell_length_a                   10.7504(4)
_cell_length_b                   16.9363(9)
_cell_length_c                   11.0123(5)
_cell_angle_alpha                90
_cell_angle_beta                 92.045(2)
_cell_angle_gamma                90
_cell_volume                     2003.75
_exptl_crystal_colour            colorless
_chemical_melting_point          '192 deg.C'
_cell_formula_units_Z            4
loop_
_atom_site_label
_atom_site_type_symbol
_atom_site_fract_x
_atom_site_fract_y
_atom_site_fract_z
N1 N -0.11241(16) 0.45047(14) 0.39717(19)
C1 C -0.03488(16) 0.40607(12) 0.38717(16)
C2 C 0.06721(13) 0.35036(10) 0.37696(13)
C3 C 0.18781(14) 0.37664(10) 0.40184(15)
H1 H 0.2022 0.4289 0.4272
C4 C 0.28689(14) 0.32509(10) 0.38889(14)
H2 H 0.3685 0.3429 0.4055
C5 C 0.26721(12) 0.24765(9) 0.35185(12)
C6 C 0.14532(13) 0.22174(10) 0.32989(13)
H3 H 0.1307 0.1691 0.3067
C7 C 0.04539(14) 0.27265(11) 0.34186(14)
H4 H -0.0364 0.2547 0.3263
C8 C 0.37610(13) 0.19275(9) 0.33192(12)
H5 H 0.3521 0.1385 0.3552
N2 N 0.48698(10) 0.21643(8) 0.40633(10)
C9 C 0.59716(13) 0.18126(9) 0.34966(13)
H6 H 0.6724 0.2126 0.3717
C10 C 0.56643(13) 0.18917(9) 0.21376(13)
H7 H 0.6022 0.1451 0.1673
C11 C 0.42380(13) 0.19095(9) 0.19927(13)
H8 H 0.3924 0.1437 0.1551
C12 C 0.48754(14) 0.18402(11) 0.52986(13)
H9 H 0.4022 0.1756 0.5555
H10 H 0.5294 0.2204 0.5872
C13 C 0.55734(14) 0.10576(10) 0.52605(14)
O1 O 0.57037(13) 0.05954(8) 0.60905(11)
C14 C 0.61059(15) 0.09782(10) 0.40128(14)
H11 H 0.5632 0.0596 0.3514
H12 H 0.6981 0.0815 0.4068
C15 C 0.39555(14) 0.26558(9) 0.12711(12)
N3 N 0.50464(12) 0.30809(8) 0.11832(11)
C16 C 0.60816(13) 0.26842(10) 0.16678(13)
O2 O 0.71253(10) 0.29479(8) 0.16934(12)
O3 O 0.29614(10) 0.28605(7) 0.08237(10)
C17 C 0.51061(16) 0.38668(10) 0.06327(15)
H13 H 0.4399 0.3936 0.0056
H14 H 0.5873 0.3913 0.0182
C18 C 0.50795(14) 0.45064(9) 0.15857(14)
C19 C 0.39401(14) 0.47486(9) 0.20525(15)
H15 H 0.3176 0.4550 0.1744
C20 C 0.39981(13) 0.52882(9) 0.29774(14)
C21 C 0.51074(15) 0.56061(10) 0.34112(16)
C22 C 0.62260(15) 0.53927(11) 0.29549(18)
H16 H 0.6979 0.5617 0.3246
C23 C 0.61918(15) 0.48251(10) 0.20360(17)
H17 H 0.6943 0.4654 0.1713
O4 O 0.30247(10) 0.56187(7) 0.35866(11)
C24 C 0.36059(16) 0.60695(11) 0.45550(17)
H18 H 0.3214 0.6590 0.4606
H19 H 0.3516 0.5798 0.5332
O5 O 0.48877(11) 0.61508(8) 0.42977(13)
loop_
_geom_bond_atom_site_label_1
_geom_bond_atom_site_label_2
_geom_bond_site_symmetry_1
_geom_bond_site_symmetry_2
N1 C1 1_555 1_555
C1 C2 1_555 1_555
C2 C3 1_555 1_555
C3 H1 1_555 1_555
C4 C3 1_555 1_555
H2 C4 1_555 1_555
C5 C4 1_555 1_555
C6 C5 1_555 1_555
H3 C6 1_555 1_555
C7 C2 1_555 1_555
H4 C7 1_555 1_555
C8 C5 1_555 1_555
H5 C8 1_555 1_555
N2 C8 1_555 1_555
C9 N2 1_555 1_555
H6 C9 1_555 1_555
C10 C9 1_555 1_555
H7 C10 1_555 1_555
C11 C8 1_555 1_555
H8 C11 1_555 1_555
C12 N2 1_555 1_555
H9 C12 1_555 1_555
H10 C12 1_555 1_555
C13 C12 1_555 1_555
O1 C13 1_555 1_555
C14 C9 1_555 1_555
H11 C14 1_555 1_555
H12 C14 1_555 1_555
C15 C11 1_555 1_555
N3 C15 1_555 1_555
C16 C10 1_555 1_555
O2 C16 1_555 1_555
O3 C15 1_555 1_555
C17 N3 1_555 1_555
H13 C17 1_555 1_555
H14 C17 1_555 1_555
C18 C17 1_555 1_555
C19 C18 1_555 1_555
H15 C19 1_555 1_555
C20 C19 1_555 1_555
C21 C20 1_555 1_555
C22 C21 1_555 1_555
H16 C22 1_555 1_555
C23 C18 1_555 1_555
H17 C23 1_555 1_555
O4 C20 1_555 1_555
C24 O4 1_555 1_555
H18 C24 1_555 1_555
H19 C24 1_555 1_555
O5 C21 1_555 1_555
C6 C7 1_555 1_555
C10 C11 1_555 1_555
C13 C14 1_555 1_555
N3 C16 1_555 1_555
C22 C23 1_555 1_555
C24 O5 1_555 1_555

#END
