
#######################################################################
#
#                 Cambridge Crystallographic Data Centre
#                                CCDC 
#
#######################################################################
#
# If this CIF has been generated from an entry in the Cambridge 
# Structural Database, then it will include bibliographic, chemical, 
# crystal, experimental, refinement or atomic coordinate data resulting 
# from the CCDC's data processing and validation procedures.
#
#######################################################################

data_WAFCIR
_chemical_formula_moiety         'C7 H7 N2 1+,H2 O1,I1 1-'
_chemical_name_systematic        '3-Cyanoanilinium iodide monohydrate'
_symmetry_cell_setting           monoclinic
_symmetry_space_group_name_H-M   'P 21/c'
_symmetry_Int_Tables_number      14
_space_group_name_Hall           '-P 2ybc'
loop_
_symmetry_equiv_pos_site_id
_symmetry_equiv_pos_as_xyz
1 x,y,z
2 -x,1/2+y,1/2-z
3 -x,-y,-z
4 x,1/2-y,1/2+z
_cell_length_a                   8.0436(16)
_cell_length_b                   16.603(3)
_cell_length_c                   7.6746(15)
_cell_angle_alpha                90
_cell_angle_beta                 115.39(3)
_cell_angle_gamma                90
_cell_volume                     925.929
_exptl_crystal_colour            colorless
_exptl_crystal_description       block
_cell_formula_units_Z            4
loop_
_atom_site_label
_atom_site_type_symbol
_atom_site_fract_x
_atom_site_fract_y
_atom_site_fract_z
N1 N 1.0275(3) 0.37559(16) 0.8592(4)
H1 H 0.9606 0.4146 0.8775
H2 H 1.0861 0.3949 0.7927
H3 H 1.1093 0.3575 0.9730
N2 N 0.3209(4) 0.3013(2) 0.2122(4)
C1 C 0.4542(4) 0.2842(2) 0.3388(4)
C2 C 0.6270(4) 0.26503(19) 0.4998(4)
C3 C 0.6773(4) 0.18539(19) 0.5508(5)
H4 H 0.5995 0.1436 0.4829
C4 C 0.8443(4) 0.1692(2) 0.7037(5)
H5 H 0.8788 0.1161 0.7394
C5 C 0.9614(4) 0.23118(18) 0.8048(4)
H6 H 1.0747 0.2200 0.9065
C6 C 0.9070(4) 0.30971(17) 0.7520(4)
C7 C 0.7422(4) 0.32826(19) 0.6002(4)
H7 H 0.7085 0.3815 0.5653
O1 O 0.2139(3) 0.49557(16) 0.1596(4)
H8 H 0.2348 0.4707 0.2806
H9 H 0.3325 0.5071 0.1742
I1 I 0.30166(3) 0.451061(14) 0.64728(3)
loop_
_geom_bond_atom_site_label_1
_geom_bond_atom_site_label_2
_geom_bond_site_symmetry_1
_geom_bond_site_symmetry_2
N1 H1 1_555 1_555
H2 N1 1_555 1_555
H3 N1 1_555 1_555
N2 C1 1_555 1_555
C1 C2 1_555 1_555
C2 C3 1_555 1_555
C3 H4 1_555 1_555
C4 C3 1_555 1_555
H5 C4 1_555 1_555
C5 C4 1_555 1_555
H6 C5 1_555 1_555
C6 N1 1_555 1_555
C7 C2 1_555 1_555
H7 C7 1_555 1_555
O1 H8 1_555 1_555
H9 O1 1_555 1_555
C5 C6 1_555 1_555
C6 C7 1_555 1_555

#END
