
#######################################################################
#
#                 Cambridge Crystallographic Data Centre
#                                CCDC 
#
#######################################################################
#
# If this CIF has been generated from an entry in the Cambridge 
# Structural Database, then it will include bibliographic, chemical, 
# crystal, experimental, refinement or atomic coordinate data resulting 
# from the CCDC's data processing and validation procedures.
#
#######################################################################

data_WAFQAX
_chemical_formula_moiety         'C8 H12 N1 O1 1+,Br1 1-'
_chemical_name_systematic        '4-Ethoxyanilinium bromide'
_symmetry_cell_setting           monoclinic
_symmetry_space_group_name_H-M   'P 21/c'
_symmetry_Int_Tables_number      14
_space_group_name_Hall           '-P 2ybc'
loop_
_symmetry_equiv_pos_site_id
_symmetry_equiv_pos_as_xyz
1 x,y,z
2 -x,1/2+y,1/2-z
3 -x,-y,-z
4 x,1/2-y,1/2+z
_cell_length_a                   11.842(2)
_cell_length_b                   6.5263(13)
_cell_length_c                   12.488(3)
_cell_angle_alpha                90
_cell_angle_beta                 96.44(3)
_cell_angle_gamma                90
_cell_volume                     959.038
_exptl_crystal_colour            colorless
_exptl_crystal_description       prism
_cell_formula_units_Z            4
loop_
_atom_site_label
_atom_site_type_symbol
_atom_site_fract_x
_atom_site_fract_y
_atom_site_fract_z
Br1 Br 0.01352(5) 0.76484(8) 0.12594(4)
O1 O 0.5504(4) 0.2634(6) 0.0985(5)
N1 N 0.0856(4) 0.2654(7) 0.1354(4)
H1 H 0.0671 0.3613 0.1810
H2 H 0.0632 0.1434 0.1568
H3 H 0.0516 0.2921 0.0697
C1 C 0.4385(6) 0.2722(9) 0.1145(6)
C2 C 0.2549(5) 0.1252(9) 0.0666(5)
H4 H 0.2087 0.0301 0.0274
C3 C 0.2087(5) 0.2643(7) 0.1331(5)
C4 C 0.3688(5) 0.1288(10) 0.0589(5)
H5 H 0.4001 0.0332 0.0156
C5 C 0.3918(6) 0.4084(9) 0.1824(6)
H6 H 0.4380 0.5023 0.2225
C6 C 0.7385(6) 0.3844(11) 0.1062(6)
H7 H 0.7906 0.4880 0.1355
H8 H 0.7315 0.3907 0.0289
H9 H 0.7665 0.2519 0.1296
C7 C 0.2756(6) 0.4042(10) 0.1902(5)
H10 H 0.2438 0.4972 0.2346
C8 C 0.6253(6) 0.4193(11) 0.1441(6)
H11 H 0.6314 0.4131 0.2221
H12 H 0.5965 0.5534 0.1213
loop_
_geom_bond_atom_site_label_1
_geom_bond_atom_site_label_2
_geom_bond_site_symmetry_1
_geom_bond_site_symmetry_2
O1 C1 1_555 1_555
N1 H1 1_555 1_555
H2 N1 1_555 1_555
H3 N1 1_555 1_555
C1 C4 1_555 1_555
C2 H4 1_555 1_555
C3 N1 1_555 1_555
C4 C2 1_555 1_555
H5 C4 1_555 1_555
C5 C1 1_555 1_555
H6 C5 1_555 1_555
C6 H7 1_555 1_555
H8 C6 1_555 1_555
H9 C6 1_555 1_555
C7 C3 1_555 1_555
H10 C7 1_555 1_555
C8 O1 1_555 1_555
H11 C8 1_555 1_555
H12 C8 1_555 1_555
C2 C3 1_555 1_555
C5 C7 1_555 1_555
C6 C8 1_555 1_555

#END
