
#######################################################################
#
#                 Cambridge Crystallographic Data Centre
#                                CCDC 
#
#######################################################################
#
# If this CIF has been generated from an entry in the Cambridge 
# Structural Database, then it will include bibliographic, chemical, 
# crystal, experimental, refinement or atomic coordinate data resulting 
# from the CCDC's data processing and validation procedures.
#
#######################################################################

data_WAFTIJ
_chemical_formula_moiety         'C22 H23 B1 F3 N1'
_chemical_name_systematic        
2-(4-(trifluoromethyl)phenyl)-1H-spiro[1,2-azaborolo[1,5-a]pyridine-1,9'-[9\l^5^]borabicyclo[3.3.1]nonane]
_symmetry_cell_setting           triclinic
_symmetry_space_group_name_H-M   'P -1'
_symmetry_Int_Tables_number      2
_space_group_name_Hall           '-P 1'
loop_
_symmetry_equiv_pos_site_id
_symmetry_equiv_pos_as_xyz
1 x,y,z
2 -x,-y,-z
_cell_length_a                   10.2818(3)
_cell_length_b                   13.6050(4)
_cell_length_c                   14.1948(4)
_cell_angle_alpha                75.660(2)
_cell_angle_beta                 74.772(2)
_cell_angle_gamma                86.297(2)
_cell_volume                     1856.21
_exptl_crystal_colour            colorless
_exptl_crystal_description       block
_cell_formula_units_Z            4
loop_
_atom_site_label
_atom_site_type_symbol
_atom_site_fract_x
_atom_site_fract_y
_atom_site_fract_z
C1 C 0.25655(19) 1.03779(16) 0.58194(15)
C2 C 0.2915(2) 1.11574(16) 0.50117(16)
H1 H 0.3119 1.1818 0.5044
C3 C 0.07643(19) 0.89037(15) 0.59501(15)
H2 H 0.0116 0.9472 0.5827
C4 C 0.0530(2) 0.84985(16) 0.70918(16)
H3 H 0.0552 0.9077 0.7395
H4 H -0.0383 0.8197 0.7367
C5 C 0.1553(2) 0.77029(18) 0.74151(18)
H5 H 0.1446 0.7601 0.8147
H6 H 0.1348 0.7050 0.7296
C6 C 0.3018(2) 0.79846(18) 0.68658(18)
H7 H 0.3586 0.7376 0.6997
H8 H 0.3310 0.8502 0.7151
C7 C 0.3273(2) 0.83990(16) 0.57208(17)
H9 H 0.4227 0.8642 0.5448
C8 C 0.3077(2) 0.75732(18) 0.52016(19)
H10 H 0.3584 0.6963 0.5448
H11 H 0.3483 0.7816 0.4471
C9 C 0.1608(2) 0.72570(17) 0.5355(2)
H12 H 0.1365 0.6709 0.5977
H13 H 0.1571 0.6966 0.4789
C10 C 0.0522(2) 0.80913(16) 0.54332(17)
H14 H 0.0453 0.8432 0.4746
H15 H -0.0357 0.7763 0.5806
C11 C 0.2489(2) 1.05398(16) 0.68291(16)
C12 C 0.3610(2) 1.03967(18) 0.72199(17)
H16 H 0.4442 1.0206 0.6828
C13 C 0.3541(3) 1.05252(19) 0.81623(18)
H17 H 0.4319 1.0421 0.8417
C14 C 0.2338(3) 1.08067(18) 0.87368(17)
C15 C 0.1223(3) 1.0990(2) 0.8347(2)
H18 H 0.0402 1.1209 0.8730
C16 C 0.1303(2) 1.08553(19) 0.74038(18)
H19 H 0.0531 1.0981 0.7142
C17 C 0.2239(4) 1.0889(2) 0.9776(2)
C18 C 0.29441(19) 1.08816(15) 0.40942(16)
C19 C 0.3270(2) 1.14786(18) 0.31172(17)
H20 H 0.3536 1.2165 0.2988
C20 C 0.3205(2) 1.1067(2) 0.23362(17)
H21 H 0.3411 1.1471 0.1666
C21 C 0.2841(2) 1.00694(19) 0.25358(16)
H22 H 0.2794 0.9775 0.2004
C22 C 0.2544(2) 0.95015(17) 0.35085(16)
H23 H 0.2295 0.8811 0.3640
N1 N 0.25935(16) 0.98876(12) 0.42864(12)
B1 B 0.2285(2) 0.93626(18) 0.54937(17)
F1 F 0.0946(6) 1.1406(4) 1.0156(3)
F2 F 0.3065(8) 1.1436(5) 0.9876(4)
F3 F 0.1984(10) 1.0058(4) 1.0424(6)
C23 C 0.2471(2) 0.47250(15) 0.21663(15)
C24 C 0.1877(2) 0.40110(16) 0.19102(16)
H24 H 0.1525 0.3393 0.2366
C25 C 0.4418(2) 0.61113(15) 0.08402(15)
H25 H 0.5025 0.5517 0.0761
C26 C 0.4748(2) 0.65722(17) 0.16383(17)
H26 H 0.4763 0.6018 0.2237
H27 H 0.5667 0.6865 0.1367
C27 C 0.3777(2) 0.73951(18) 0.19752(18)
H28 H 0.3952 0.7525 0.2587
H29 H 0.3960 0.8032 0.1442
C28 C 0.2296(2) 0.71116(17) 0.21974(17)
H30 H 0.1735 0.7716 0.2293
H31 H 0.2057 0.6584 0.2836
C29 C 0.4667(2) 0.68831(17) -0.01810(16)
H32 H 0.4662 0.6518 -0.0703
H33 H 0.5579 0.7175 -0.0339
C30 C 0.3644(2) 0.77609(17) -0.02511(17)
H34 H 0.3645 0.8023 -0.0967
H35 H 0.3968 0.8315 -0.0032
C31 C 0.2171(2) 0.75178(16) 0.03624(17)
H36 H 0.1739 0.8156 0.0503
H37 H 0.1690 0.7290 -0.0066
C32 C 0.1952(2) 0.67147(16) 0.13655(16)
H38 H 0.0981 0.6510 0.1592
C33 C 0.2557(2) 0.45153(15) 0.32228(15)
C34 C 0.1380(2) 0.43699(16) 0.40030(16)
H39 H 0.0533 0.4426 0.3844
C35 C 0.1412(2) 0.41483(17) 0.49960(16)
H40 H 0.0594 0.4049 0.5511
C36 C 0.2631(2) 0.40704(16) 0.52460(15)
C37 C 0.3811(2) 0.41871(17) 0.44928(16)
H41 H 0.4653 0.4124 0.4660
C38 C 0.3777(2) 0.43958(16) 0.34958(16)
H42 H 0.4600 0.4459 0.2987
C39 C 0.2684(3) 0.3880(2) 0.63106(18)
C40 C 0.1835(2) 0.42848(15) 0.08734(15)
C41 C 0.1325(2) 0.37290(18) 0.03561(18)
H43 H 0.0924 0.3085 0.0694
C42 C 0.1399(2) 0.41117(18) -0.06463(18)
H44 H 0.1066 0.3733 -0.1012
C43 C 0.1967(2) 0.50576(18) -0.11148(17)
H45 H 0.2025 0.5338 -0.1807
C44 C 0.2448(2) 0.55885(17) -0.05705(16)
H46 H 0.2828 0.6241 -0.0897
N2 N 0.23976(16) 0.52153(12) 0.04098(12)
B2 B 0.2867(2) 0.57080(17) 0.12228(17)
F7 F 0.15467(19) 0.35853(19) 0.69656(12)
F8 F 0.3067(2) 0.46891(14) 0.65288(12)
F9 F 0.3563(2) 0.31785(16) 0.65506(13)
F4? F 0.2210(12) 1.1733(5) 0.9909(6)
F5? F 0.3607(5) 1.0563(8) 1.0035(4)
F6? F 0.1579(13) 1.0244(9) 1.0469(7)
loop_
_geom_bond_atom_site_label_1
_geom_bond_atom_site_label_2
_geom_bond_site_symmetry_1
_geom_bond_site_symmetry_2
C1 C2 1_555 1_555
C2 H1 1_555 1_555
C3 H2 1_555 1_555
C4 C3 1_555 1_555
H3 C4 1_555 1_555
H4 C4 1_555 1_555
C5 C4 1_555 1_555
H5 C5 1_555 1_555
H6 C5 1_555 1_555
C6 C5 1_555 1_555
H7 C6 1_555 1_555
H8 C6 1_555 1_555
C7 C6 1_555 1_555
H9 C7 1_555 1_555
C8 C7 1_555 1_555
H10 C8 1_555 1_555
H11 C8 1_555 1_555
C9 C8 1_555 1_555
H12 C9 1_555 1_555
H13 C9 1_555 1_555
C10 C3 1_555 1_555
H14 C10 1_555 1_555
H15 C10 1_555 1_555
C11 C1 1_555 1_555
C12 C11 1_555 1_555
H16 C12 1_555 1_555
C13 C12 1_555 1_555
H17 C13 1_555 1_555
C14 C13 1_555 1_555
C15 C14 1_555 1_555
H18 C15 1_555 1_555
C16 C11 1_555 1_555
H19 C16 1_555 1_555
C17 C14 1_555 1_555
C18 C2 1_555 1_555
C19 C18 1_555 1_555
H20 C19 1_555 1_555
C20 C19 1_555 1_555
H21 C20 1_555 1_555
C21 C20 1_555 1_555
H22 C21 1_555 1_555
C22 C21 1_555 1_555
H23 C22 1_555 1_555
N1 C18 1_555 1_555
B1 C1 1_555 1_555
F1 C17 1_555 1_555
F2 C17 1_555 1_555
F3 C17 1_555 1_555
C23 C24 1_555 1_555
C24 H24 1_555 1_555
C25 H25 1_555 1_555
C26 C25 1_555 1_555
H26 C26 1_555 1_555
H27 C26 1_555 1_555
C27 C26 1_555 1_555
H28 C27 1_555 1_555
H29 C27 1_555 1_555
C28 C27 1_555 1_555
H30 C28 1_555 1_555
H31 C28 1_555 1_555
C29 C25 1_555 1_555
H32 C29 1_555 1_555
H33 C29 1_555 1_555
C30 C29 1_555 1_555
H34 C30 1_555 1_555
H35 C30 1_555 1_555
C31 C30 1_555 1_555
H36 C31 1_555 1_555
H37 C31 1_555 1_555
C32 C28 1_555 1_555
H38 C32 1_555 1_555
C33 C23 1_555 1_555
C34 C33 1_555 1_555
H39 C34 1_555 1_555
C35 C34 1_555 1_555
H40 C35 1_555 1_555
C36 C35 1_555 1_555
C37 C36 1_555 1_555
H41 C37 1_555 1_555
C38 C33 1_555 1_555
H42 C38 1_555 1_555
C39 C36 1_555 1_555
C40 C24 1_555 1_555
C41 C40 1_555 1_555
H43 C41 1_555 1_555
C42 C41 1_555 1_555
H44 C42 1_555 1_555
C43 C42 1_555 1_555
H45 C43 1_555 1_555
C44 C43 1_555 1_555
H46 C44 1_555 1_555
N2 C40 1_555 1_555
B2 C23 1_555 1_555
F7 C39 1_555 1_555
F8 C39 1_555 1_555
F9 C39 1_555 1_555
C3 B1 1_555 1_555
C7 B1 1_555 1_555
C9 C10 1_555 1_555
C15 C16 1_555 1_555
C22 N1 1_555 1_555
N1 B1 1_555 1_555
C25 B2 1_555 1_555
C31 C32 1_555 1_555
C32 B2 1_555 1_555
C37 C38 1_555 1_555
C44 N2 1_555 1_555
N2 B2 1_555 1_555

#END
