
#######################################################################
#
#                 Cambridge Crystallographic Data Centre
#                                CCDC 
#
#######################################################################
#
# If this CIF has been generated from an entry in the Cambridge 
# Structural Database, then it will include bibliographic, chemical, 
# crystal, experimental, refinement or atomic coordinate data resulting 
# from the CCDC's data processing and validation procedures.
#
#######################################################################

data_WAFTII
_chemical_formula_moiety         'C18 H22 N2'
_chemical_name_systematic        1,4-Dibenzylpiperazine
_symmetry_cell_setting           orthorhombic
_symmetry_space_group_name_H-M   'P b c a'
_symmetry_Int_Tables_number      61
_space_group_name_Hall           '-P 2ac 2ab'
loop_
_symmetry_equiv_pos_site_id
_symmetry_equiv_pos_as_xyz
1 x,y,z
2 1/2-x,-y,1/2+z
3 -x,1/2+y,1/2-z
4 1/2+x,1/2-y,-z
5 -x,-y,-z
6 1/2+x,y,1/2-z
7 x,1/2-y,1/2+z
8 1/2-x,1/2+y,z
_cell_length_a                   7.5130(15)
_cell_length_b                   19.127(4)
_cell_length_c                   21.366(4)
_cell_angle_alpha                90
_cell_angle_beta                 90
_cell_angle_gamma                90
_cell_volume                     3070.32
_exptl_crystal_colour            colorless
_exptl_crystal_description       strip
_chemical_melting_point          '372 K'
_cell_formula_units_Z            8
_exptl_crystal_recrystallization_method ethanol/cyclohexane
loop_
_atom_site_label
_atom_site_type_symbol
_atom_site_fract_x
_atom_site_fract_y
_atom_site_fract_z
N1 N 0.1744(2) 0.09152(8) 0.62991(8)
C1 C 0.6103(3) 0.28645(12) 0.57631(12)
H1 H 0.6752 0.3217 0.5569
N2 N -0.1771(2) 0.03706(8) 0.61285(8)
C2 C 0.5050(3) 0.24229(12) 0.54133(10)
H2 H 0.4989 0.2477 0.4981
C3 C 0.4087(3) 0.19002(11) 0.57034(10)
H3 H 0.3382 0.1604 0.5463
C4 C 0.4150(3) 0.18090(10) 0.63433(10)
C5 C 0.5204(3) 0.22622(11) 0.66895(11)
H4 H 0.5252 0.2218 0.7123
C6 C 0.6185(3) 0.27799(12) 0.63953(13)
H5 H 0.6908 0.3073 0.6632
C7 C 0.3183(3) 0.12199(11) 0.66679(10)
H6 H 0.4034 0.0855 0.6769
H7 H 0.2696 0.1393 0.7059
C8 C 0.0184(3) 0.13693(10) 0.62714(10)
H8 H 0.0520 0.1819 0.6098
H9 H -0.0268 0.1446 0.6691
C9 C -0.1255(3) 0.10464(10) 0.58725(10)
H10 H -0.2282 0.1354 0.5860
H11 H -0.0824 0.0987 0.5448
C10 C -0.0218(3) -0.00859(10) 0.61446(10)
H12 H 0.0230 -0.0154 0.5723
H13 H -0.0551 -0.0539 0.6313
C11 C 0.1210(3) 0.02366(10) 0.65474(10)
H14 H 0.0768 0.0293 0.6971
H15 H 0.2235 -0.0072 0.6562
C12 C -0.3259(3) 0.00581(11) 0.57907(10)
H16 H -0.2825 -0.0132 0.5399
H17 H -0.4116 0.0421 0.5692
C13 C -0.4189(3) -0.05156(10) 0.61511(9)
C14 C -0.5306(3) -0.09799(11) 0.58415(10)
H18 H -0.5413 -0.0954 0.5408
C15 C -0.6260(3) -0.14791(12) 0.61664(12)
H19 H -0.7012 -0.1782 0.5952
C16 C -0.6102(3) -0.15299(11) 0.68032(12)
H20 H -0.6745 -0.1866 0.7022
C17 C -0.4989(3) -0.10828(11) 0.71169(10)
H21 H -0.4870 -0.1119 0.7549
C18 C -0.4041(3) -0.05765(11) 0.67923(10)
H22 H -0.3295 -0.0274 0.7010
loop_
_geom_bond_atom_site_label_1
_geom_bond_atom_site_label_2
_geom_bond_site_symmetry_1
_geom_bond_site_symmetry_2
N1 C7 1_555 1_555
C1 H1 1_555 1_555
N2 C9 1_555 1_555
C2 C1 1_555 1_555
H2 C2 1_555 1_555
C3 C2 1_555 1_555
H3 C3 1_555 1_555
C4 C3 1_555 1_555
C5 C4 1_555 1_555
H4 C5 1_555 1_555
C6 C1 1_555 1_555
H5 C6 1_555 1_555
C7 C4 1_555 1_555
H6 C7 1_555 1_555
H7 C7 1_555 1_555
C8 N1 1_555 1_555
H8 C8 1_555 1_555
H9 C8 1_555 1_555
C9 C8 1_555 1_555
H10 C9 1_555 1_555
H11 C9 1_555 1_555
C10 N2 1_555 1_555
H12 C10 1_555 1_555
H13 C10 1_555 1_555
C11 N1 1_555 1_555
H14 C11 1_555 1_555
H15 C11 1_555 1_555
C12 N2 1_555 1_555
H16 C12 1_555 1_555
H17 C12 1_555 1_555
C13 C12 1_555 1_555
C14 C13 1_555 1_555
H18 C14 1_555 1_555
C15 C14 1_555 1_555
H19 C15 1_555 1_555
C16 C15 1_555 1_555
H20 C16 1_555 1_555
C17 C16 1_555 1_555
H21 C17 1_555 1_555
C18 C13 1_555 1_555
H22 C18 1_555 1_555
C5 C6 1_555 1_555
C10 C11 1_555 1_555
C17 C18 1_555 1_555

#END
