
#######################################################################
#
#                 Cambridge Crystallographic Data Centre
#                                CCDC 
#
#######################################################################
#
# If this CIF has been generated from an entry in the Cambridge 
# Structural Database, then it will include bibliographic, chemical, 
# crystal, experimental, refinement or atomic coordinate data resulting 
# from the CCDC's data processing and validation procedures.
#
#######################################################################

data_WAFWIM
_chemical_formula_moiety         'C28 H27 N1 O3,0.5(C1 H2 Cl2)'
_chemical_name_systematic        
'2-(5-isobutyl-2-(4-methoxyphenyl)-3-phenyl-1H-pyrrol-1-yl)benzoic acid dichloromethane solvate'
_symmetry_cell_setting           monoclinic
_symmetry_space_group_name_H-M   'P 21/n'
_symmetry_Int_Tables_number      14
_space_group_name_Hall           '-P 2yn'
loop_
_symmetry_equiv_pos_site_id
_symmetry_equiv_pos_as_xyz
1 x,y,z
2 1/2-x,1/2+y,1/2-z
3 -x,-y,-z
4 1/2+x,1/2-y,1/2+z
_cell_length_a                   10.55810(10)
_cell_length_b                   24.5948(3)
_cell_length_c                   19.2677(2)
_cell_angle_alpha                90
_cell_angle_beta                 93.3707(10)
_cell_angle_gamma                90
_cell_volume                     4994.67
_exptl_crystal_colour            yellow
_exptl_crystal_description       block
_cell_formula_units_Z            8
loop_
_atom_site_label
_atom_site_type_symbol
_atom_site_fract_x
_atom_site_fract_y
_atom_site_fract_z
Cl1 Cl 0.72215(8) 0.57900(4) 0.55921(5)
Cl2 Cl 0.4756(2) 0.53786(8) 0.57346(19)
C1 C 0.5911(10) 0.5825(3) 0.6119(7)
H1 H 0.5591 0.6186 0.6139
H2 H 0.6156 0.5704 0.6575
O1 O 0.68257(13) 0.25057(5) 0.62028(7)
O2 O 0.80776(13) 0.28191(6) 0.70811(7)
O3 O 1.13249(13) 0.44029(6) 0.59953(8)
N1 N 0.56317(13) 0.33490(6) 0.54708(7)
C2 C 0.71196(16) 0.28577(7) 0.66547(8)
C3 C 0.62899(16) 0.33425(7) 0.67182(9)
C4 C 0.62343(17) 0.35785(8) 0.73737(9)
C5 C 0.54086(18) 0.40028(9) 0.74787(10)
C6 C 0.46405(19) 0.41971(8) 0.69325(11)
C7 C 0.47040(18) 0.39755(8) 0.62720(10)
C8 C 0.55298(16) 0.35489(7) 0.61623(8)
C9 C 0.47337(16) 0.30366(7) 0.50978(9)
C10 C 0.52445(16) 0.28938(7) 0.44882(9)
C11 C 0.64824(16) 0.31251(7) 0.44740(8)
C12 C 0.67142(16) 0.33974(7) 0.50959(8)
C13 C 0.78773(16) 0.36723(7) 0.53750(8)
C14 C 0.90290(17) 0.33913(8) 0.53932(10)
C15 C 1.01516(17) 0.36476(8) 0.55989(11)
C16 C 1.01587(17) 0.41884(8) 0.58029(9)
C17 C 1.1364(2) 0.49573(10) 0.61995(16)
C18 C 0.90252(18) 0.44722(8) 0.58020(10)
C19 C 0.78957(17) 0.42121(7) 0.55876(9)
C20 C 0.73016(16) 0.31116(7) 0.38800(8)
C21 C 0.81288(18) 0.35391(8) 0.37492(9)
C22 C 0.88906(19) 0.35240(8) 0.31892(9)
C23 C 0.88326(19) 0.30868(8) 0.27352(9)
C24 C 0.80109(19) 0.26634(8) 0.28527(9)
C25 C 0.72517(17) 0.26732(8) 0.34177(9)
C26 C 0.34724(16) 0.28967(8) 0.53663(9)
C27 C 0.34667(17) 0.24385(8) 0.59040(9)
C28 C 0.4061(2) 0.19169(9) 0.56472(11)
C29 C 0.20972(19) 0.23359(10) 0.60919(11)
H3 H 0.6752 0.3448 0.7741
H4 H 0.5390 0.4165 0.7934
H5 H 0.4089 0.4495 0.7007
H6 H 0.4193 0.4112 0.5886
H7 H 0.4835 0.2681 0.4135
H8 H 0.9035 0.3016 0.5258
H9 H 1.0915 0.3451 0.5603
H10 H 1.0925 0.5005 0.6619
H11 H 1.2234 0.5056 0.6288
H12 H 1.0967 0.5187 0.5829
H13 H 0.9004 0.4847 0.5934
H14 H 0.7127 0.4416 0.5572
H15 H 0.8167 0.3847 0.4051
H16 H 0.9451 0.3816 0.3117
H17 H 0.9354 0.3075 0.2342
H18 H 0.7961 0.2354 0.2539
H19 H 0.6685 0.2378 0.3499
H20 H 0.3098 0.3228 0.5569
H21 H 0.2929 0.2784 0.4965
H22 H 0.3972 0.2568 0.6326
H23 H 0.4954 0.1965 0.5534
H24 H 0.3989 0.1617 0.5986
H25 H 0.3597 0.1805 0.5220
H26 H 0.1709 0.2671 0.6286
H27 H 0.2065 0.2046 0.6432
H28 H 0.1583 0.2231 0.5673
H29 H 0.7261 0.2228 0.6198
O4 O 1.23755(12) 0.22668(6) 0.37770(7)
O5 O 0.82317(16) 0.16495(6) 0.61114(8)
O6 O 0.93382(18) 0.19023(7) 0.70648(9)
N2 N 0.87390(13) 0.06759(6) 0.55204(7)
C30 C 1.14247(17) 0.19816(8) 0.40685(9)
C31 C 1.02243(17) 0.21886(7) 0.41736(9)
C32 C 0.93359(16) 0.18565(7) 0.44677(9)
C33 C 0.96051(16) 0.13198(7) 0.46504(8)
C34 C 1.08286(16) 0.11220(7) 0.45497(8)
C35 C 1.17229(16) 0.14494(8) 0.42628(9)
C36 C 0.85971(16) 0.09716(7) 0.49046(8)
C37 C 0.98176(16) 0.06965(7) 0.60100(8)
C38 C 0.99867(16) 0.11082(7) 0.65110(9)
C39 C 0.91247(17) 0.15842(7) 0.65611(9)
C40 C 1.10396(18) 0.10834(8) 0.69870(10)
C41 C 1.19191(19) 0.06674(8) 0.69585(10)
C42 C 1.17586(19) 0.02707(8) 0.64555(11)
C43 C 1.07045(18) 0.02817(8) 0.59895(10)
C44 C 0.76118(17) 0.04081(7) 0.56349(9)
C45 C 0.67739(17) 0.05293(8) 0.50899(9)
C46 C 0.73768(16) 0.08851(7) 0.46264(9)
C47 C 0.67802(16) 0.10893(7) 0.39620(9)
C48 C 0.74322(17) 0.11099(8) 0.33527(9)
C49 C 0.68306(19) 0.12721(8) 0.27266(9)
C50 C 0.5570(2) 0.14251(9) 0.26958(10)
C51 C 0.49177(19) 0.14206(10) 0.32988(10)
C52 C 0.55124(17) 0.12530(9) 0.39225(10)
C53 C 0.74214(19) 0.00793(8) 0.62753(10)
C54 C 0.6944(3) 0.03918(10) 0.68805(12)
C55 C 0.6819(3) 0.00235(12) 0.75107(13)
C56 C 0.5744(4) 0.0690(2) 0.67131(17)
C57 C 1.2061(2) 0.27889(9) 0.34939(12)
H30 H 1.0014 0.2554 0.4052
H31 H 0.8508 0.1995 0.4554
H32 H 1.1052 0.0757 0.4679
H33 H 1.2529 0.1303 0.4191
H34 H 1.1156 0.1351 0.7345
H35 H 1.2632 0.0657 0.7292
H36 H 1.2368 -0.0012 0.6425
H37 H 1.0574 0.0011 0.5638
H38 H 0.5847 0.0391 0.5025
H39 H 0.8299 0.1011 0.3371
H40 H 0.7279 0.1273 0.2324
H41 H 0.5161 0.1533 0.2268
H42 H 0.4062 0.1537 0.3284
H43 H 0.5062 0.1254 0.4339
H44 H 0.6778 -0.0202 0.6175
H45 H 0.8212 -0.0099 0.6428
H46 H 0.7611 0.0686 0.7016
H47 H 0.6128 -0.0253 0.7327
H48 H 0.6527 0.0235 0.7902
H49 H 0.7619 -0.0167 0.7638
H50 H 0.5128 0.0413 0.6594
H51 H 0.5507 0.0886 0.7100
H52 H 0.5840 0.0931 0.6338
H53 H 1.2844 0.2927 0.3290
H54 H 1.1821 0.3036 0.3870
H55 H 1.1367 0.2764 0.3127
H56 H 0.7800 0.1923 0.6143
Cl3? Cl 0.5438(4) 0.57646(18) 0.66523(15)
C58? C 0.5526(10) 0.5667(5) 0.5751(5)
H57? H 0.4992 0.5917 0.5498
H58? H 0.5289 0.5306 0.5624
H59? H 0.8471 0.2532 0.7077
H60? H 0.8969 0.2189 0.7063
Cl4? Cl 0.5162(9) 0.5335(3) 0.6243(7)
C59? C 0.589(3) 0.5948(8) 0.607(3)
H61? H 0.6129 0.6139 0.6481
H62? H 0.5313 0.6165 0.5786
loop_
_geom_bond_atom_site_label_1
_geom_bond_atom_site_label_2
_geom_bond_site_symmetry_1
_geom_bond_site_symmetry_2
Cl1 C1 1_555 1_555
Cl2 C1 1_555 1_555
C1 H1 1_555 1_555
H2 C1 1_555 1_555
O1 C2 1_555 1_555
O2 C2 1_555 1_555
O3 C16 1_555 1_555
N1 C8 1_555 1_555
C2 C3 1_555 1_555
C3 C4 1_555 1_555
C4 C5 1_555 1_555
C5 C6 1_555 1_555
C6 C7 1_555 1_555
C7 C8 1_555 1_555
C8 C3 1_555 1_555
C9 N1 1_555 1_555
C10 C9 1_555 1_555
C11 C10 1_555 1_555
C12 N1 1_555 1_555
C13 C12 1_555 1_555
C14 C13 1_555 1_555
C15 C14 1_555 1_555
C16 C15 1_555 1_555
C17 O3 1_555 1_555
C18 C16 1_555 1_555
C19 C13 1_555 1_555
C20 C11 1_555 1_555
C21 C20 1_555 1_555
C22 C21 1_555 1_555
C23 C22 1_555 1_555
C24 C23 1_555 1_555
C25 C20 1_555 1_555
C26 C9 1_555 1_555
C27 C26 1_555 1_555
C28 C27 1_555 1_555
C29 C27 1_555 1_555
H3 C4 1_555 1_555
H4 C5 1_555 1_555
H5 C6 1_555 1_555
H6 C7 1_555 1_555
H7 C10 1_555 1_555
H8 C14 1_555 1_555
H9 C15 1_555 1_555
H10 C17 1_555 1_555
H11 C17 1_555 1_555
H12 C17 1_555 1_555
H13 C18 1_555 1_555
H14 C19 1_555 1_555
H15 C21 1_555 1_555
H16 C22 1_555 1_555
H17 C23 1_555 1_555
H18 C24 1_555 1_555
H19 C25 1_555 1_555
H20 C26 1_555 1_555
H21 C26 1_555 1_555
H22 C27 1_555 1_555
H23 C28 1_555 1_555
H24 C28 1_555 1_555
H25 C28 1_555 1_555
H26 C29 1_555 1_555
H27 C29 1_555 1_555
H28 C29 1_555 1_555
H29 O1 1_555 1_555
O4 C30 1_555 1_555
O5 C39 1_555 1_555
O6 C39 1_555 1_555
N2 C36 1_555 1_555
C30 C31 1_555 1_555
C31 C32 1_555 1_555
C32 C33 1_555 1_555
C33 C34 1_555 1_555
C34 C35 1_555 1_555
C35 C30 1_555 1_555
C36 C33 1_555 1_555
C37 N2 1_555 1_555
C38 C37 1_555 1_555
C39 C38 1_555 1_555
C40 C38 1_555 1_555
C41 C40 1_555 1_555
C42 C41 1_555 1_555
C43 C37 1_555 1_555
C44 N2 1_555 1_555
C45 C44 1_555 1_555
C46 C36 1_555 1_555
C47 C46 1_555 1_555
C48 C47 1_555 1_555
C49 C48 1_555 1_555
C50 C49 1_555 1_555
C51 C50 1_555 1_555
C52 C47 1_555 1_555
C53 C44 1_555 1_555
C54 C53 1_555 1_555
C55 C54 1_555 1_555
C56 C54 1_555 1_555
C57 O4 1_555 1_555
H30 C31 1_555 1_555
H31 C32 1_555 1_555
H32 C34 1_555 1_555
H33 C35 1_555 1_555
H34 C40 1_555 1_555
H35 C41 1_555 1_555
H36 C42 1_555 1_555
H37 C43 1_555 1_555
H38 C45 1_555 1_555
H39 C48 1_555 1_555
H40 C49 1_555 1_555
H41 C50 1_555 1_555
H42 C51 1_555 1_555
H43 C52 1_555 1_555
H44 C53 1_555 1_555
H45 C53 1_555 1_555
H46 C54 1_555 1_555
H47 C55 1_555 1_555
H48 C55 1_555 1_555
H49 C55 1_555 1_555
H50 C56 1_555 1_555
H51 C56 1_555 1_555
H52 C56 1_555 1_555
H53 C57 1_555 1_555
H54 C57 1_555 1_555
H55 C57 1_555 1_555
H56 O5 1_555 1_555
C11 C12 1_555 1_555
C18 C19 1_555 1_555
C24 C25 1_555 1_555
C42 C43 1_555 1_555
C45 C46 1_555 1_555
C51 C52 1_555 1_555

#END
