
#######################################################################
#
#                 Cambridge Crystallographic Data Centre
#                                CCDC 
#
#######################################################################
#
# If this CIF has been generated from an entry in the Cambridge 
# Structural Database, then it will include bibliographic, chemical, 
# crystal, experimental, refinement or atomic coordinate data resulting 
# from the CCDC's data processing and validation procedures.
#
#######################################################################

data_WAGDIU
_chemical_formula_moiety         'C13 H7 F3 N2 O1'
_chemical_name_systematic        
4-(trifluoromethyl)-11H-pyrido[2,1-b]quinazolin-11-one
_symmetry_cell_setting           monoclinic
_symmetry_space_group_name_H-M   'P 21/c'
_symmetry_Int_Tables_number      14
_space_group_name_Hall           '-P 2ybc'
loop_
_symmetry_equiv_pos_site_id
_symmetry_equiv_pos_as_xyz
1 x,y,z
2 -x,1/2+y,1/2-z
3 -x,-y,-z
4 x,1/2-y,1/2+z
_cell_length_a                   16.4147(15)
_cell_length_b                   4.7888(6)
_cell_length_c                   14.7033(14)
_cell_angle_alpha                90
_cell_angle_beta                 109.132(10)
_cell_angle_gamma                90
_cell_volume                     1091.94
_exptl_crystal_colour            yellow
_exptl_crystal_description       Block
_cell_formula_units_Z            4
loop_
_atom_site_label
_atom_site_type_symbol
_atom_site_fract_x
_atom_site_fract_y
_atom_site_fract_z
N1 N 0.23917(9) 0.0310(3) 0.22114(10)
N2 N 0.35480(9) -0.1380(3) 0.35625(10)
C1 C 0.21345(11) 0.1977(4) 0.28250(12)
C2 C 0.30639(11) -0.1303(4) 0.25763(11)
C3 C 0.13947(11) 0.3710(4) 0.24496(14)
C4 C 0.25745(11) 0.2046(4) 0.38291(13)
C5 C 0.33284(12) 0.0330(4) 0.42398(13)
F1 F 0.06146(8) 0.1147(3) 0.10621(10)
F2 F 0.13686(8) 0.4603(3) 0.08583(8)
C6 C 0.33455(12) -0.3135(4) 0.19755(12)
H1 H 0.3042 -0.3155 0.1311
C7 C 0.40311(12) -0.4840(4) 0.23255(15)
H2 H 0.4198 -0.6023 0.1908
C8 C 0.42600(11) -0.3139(5) 0.39085(13)
H3 H 0.4579 -0.3124 0.4569
O1 O 0.37760(9) 0.0245(4) 0.50896(9)
C9 C 0.44991(12) -0.4844(5) 0.33237(15)
H4 H 0.4975 -0.6039 0.3573
C10 C 0.22733(14) 0.3751(5) 0.44339(14)
H5 H 0.2561 0.3760 0.5102
F3 F 0.01968(8) 0.5306(3) 0.11690(11)
C11 C 0.11291(13) 0.5369(5) 0.30583(16)
H6 H 0.0644 0.6519 0.2802
C12 C 0.09028(12) 0.3690(5) 0.13904(16)
C13 C 0.15612(16) 0.5392(5) 0.40470(19)
H7 H 0.1363 0.6539 0.4449
loop_
_geom_bond_atom_site_label_1
_geom_bond_atom_site_label_2
_geom_bond_site_symmetry_1
_geom_bond_site_symmetry_2
N1 C1 1_555 1_555
N2 C2 1_555 1_555
C1 C3 1_555 1_555
C2 N1 1_555 1_555
C3 C11 1_555 1_555
C4 C1 1_555 1_555
C5 N2 1_555 1_555
F1 C12 1_555 1_555
F2 C12 1_555 1_555
C6 C2 1_555 1_555
H1 C6 1_555 1_555
C7 C6 1_555 1_555
H2 C7 1_555 1_555
C8 N2 1_555 1_555
H3 C8 1_555 1_555
O1 C5 1_555 1_555
C9 C7 1_555 1_555
H4 C9 1_555 1_555
C10 C4 1_555 1_555
H5 C10 1_555 1_555
F3 C12 1_555 1_555
C11 H6 1_555 1_555
C12 C3 1_555 1_555
C13 C10 1_555 1_555
H7 C13 1_555 1_555
C4 C5 1_555 1_555
C8 C9 1_555 1_555
C11 C13 1_555 1_555

#END
