
#######################################################################
#
#                 Cambridge Crystallographic Data Centre
#                                CCDC 
#
#######################################################################
#
# If this CIF has been generated from an entry in the Cambridge 
# Structural Database, then it will include bibliographic, chemical, 
# crystal, experimental, refinement or atomic coordinate data resulting 
# from the CCDC's data processing and validation procedures.
#
#######################################################################

data_WAGNUP
_chemical_formula_moiety         'C92 H68 Br8 F2 K2 O12,2(C4 H8 O2)'
_chemical_name_systematic        
"bis((\m~2~-Fluoro)-(2',2''-(ethane-1,2-diylbis(oxyethane-2,1-diyloxy))-bis(3,3'-dibromo-1,1'-binaphthalen-2-ol)))-di-potassium ethyl acetate solvate"
_symmetry_cell_setting           orthorhombic
_symmetry_space_group_name_H-M   'P 21 21 21'
_symmetry_Int_Tables_number      19
_space_group_name_Hall           'P 2ac 2ab'
loop_
_symmetry_equiv_pos_site_id
_symmetry_equiv_pos_as_xyz
1 x,y,z
2 1/2-x,-y,1/2+z
3 -x,1/2+y,1/2-z
4 1/2+x,1/2-y,-z
_cell_length_a                   12.6149(7)
_cell_length_b                   22.9566(14)
_cell_length_c                   33.3577(18)
_cell_angle_alpha                90
_cell_angle_beta                 90
_cell_angle_gamma                90
_cell_volume                     9660.23
_exptl_crystal_colour            yellow
_exptl_crystal_description       block
_cell_formula_units_Z            4
loop_
_atom_site_label
_atom_site_type_symbol
_atom_site_fract_x
_atom_site_fract_y
_atom_site_fract_z
Br1 Br 0.56767(5) -0.15303(3) 1.03911(2)
Br2 Br 1.10232(4) 0.03191(3) 1.00313(2)
Br3 Br 1.29173(5) -0.01307(3) 1.11394(2)
Br4 Br 0.84082(5) -0.23926(3) 1.074673(17)
Br5 Br 1.17952(5) 0.13383(3) 1.09784(2)
Br6 Br 0.55693(5) 0.03824(4) 1.131300(19)
Br7 Br 0.51786(5) -0.13689(3) 1.15289(2)
Br8 Br 1.06313(5) -0.00355(2) 1.235649(17)
K1 K 0.95850(10) -0.09253(5) 1.05672(3)
K2 K 0.82848(11) 0.00344(5) 1.15832(3)
F1 F 1.0075(3) -0.00592(17) 1.11288(13)
F2 F 0.7751(3) -0.0819(2) 1.10405(11)
O1 O 0.8831(2) 0.02100(13) 1.03773(11)
O2 O 0.7580(3) -0.09057(14) 1.00510(10)
O3 O 0.9405(4) -0.14305(18) 0.97429(11)
O4 O 1.1316(4) -0.1570(2) 1.01588(15)
O5 O 1.1743(2) -0.12339(13) 1.09531(11)
O6 O 0.9581(2) -0.15682(14) 1.12846(9)
O7 O 0.7583(3) 0.05861(15) 1.08774(9)
O8 O 0.9509(3) 0.12692(14) 1.12645(13)
O9 O 0.8450(4) 0.11228(16) 1.20201(14)
O10 O 0.7220(3) 0.01641(18) 1.23609(11)
O11 O 0.7005(2) -0.09168(15) 1.20087(10)
O12 O 0.9439(2) -0.08979(13) 1.18535(11)
C1 C 0.6736(4) -0.0517(2) 1.00941(14)
C2 C 0.5782(5) -0.0737(2) 1.02535(16)
C3 C 0.4929(5) -0.0374(3) 1.03030(16)
H1 H 0.4304 -0.0520 1.0411
C4 C 0.4988(5) 0.0213(3) 1.01926(17)
C5 C 0.4110(5) 0.0580(3) 1.02307(19)
H2 H 0.3477 0.0442 1.0338
C6 C 0.4197(6) 0.1142(4) 1.0109(2)
H3 H 0.3615 0.1388 1.0135
C7 C 0.5119(6) 0.1357(3) 0.9948(2)
H4 H 0.5155 0.1745 0.9869
C8 C 0.5964(5) 0.1012(3) 0.99039(17)
H5 H 0.6577 0.1165 0.9790
C9 C 0.5953(4) 0.0423(3) 1.00251(16)
C10 C 0.6835(4) 0.0048(2) 0.99731(14)
C11 C 0.7830(4) 0.02360(19) 0.97726(17)
C12 C 0.8756(4) 0.02786(19) 0.99885(18)
C13 C 0.9705(4) 0.0379(2) 0.9766(2)
C14 C 0.9688(5) 0.0517(2) 0.9362(2)
H6 H 1.0314 0.0614 0.9231
C15 C 0.8732(6) 0.0510(2) 0.9151(2)
C16 C 0.8700(7) 0.0614(3) 0.8726(3)
H7 H 0.9307 0.0724 0.8588
C17 C 0.7759(8) 0.0547(3) 0.8532(2)
H8 H 0.7733 0.0612 0.8257
C18 C 0.6851(6) 0.0390(3) 0.8727(2)
H9 H 0.6220 0.0360 0.8585
C19 C 0.6864(5) 0.0277(2) 0.9126(2)
H10 H 0.6246 0.0153 0.9251
C20 C 0.7794(5) 0.0343(2) 0.93539(19)
C21 C 1.1976(4) -0.1219(2) 1.13488(17)
C22 C 1.2569(4) -0.0726(2) 1.1501(2)
C23 C 1.2834(4) -0.0691(3) 1.1888(3)
H11 H 1.3219 -0.0372 1.1978
C24 C 1.2545(5) -0.1122(3) 1.2158(2)
C25 C 1.2812(5) -0.1101(3) 1.2556(3)
H12 H 1.3234 -0.0793 1.2642
C26 C 1.2507(6) -0.1492(5) 1.2828(2)
H13 H 1.2659 -0.1443 1.3098
C27 C 1.1937(6) -0.1993(3) 1.2686(2)
H14 H 1.1757 -0.2289 1.2863
C28 C 1.1657(4) -0.2035(3) 1.2291(2)
H15 H 1.1265 -0.2354 1.2203
C29 C 1.1956(4) -0.1604(3) 1.20203(17)
C30 C 1.1686(4) -0.1651(2) 1.16194(18)
C31 C 1.1101(4) -0.2150(2) 1.14399(14)
C32 C 1.0089(4) -0.2063(2) 1.12637(14)
C33 C 0.9656(4) -0.2538(3) 1.10497(13)
C34 C 1.0112(5) -0.3089(2) 1.10421(16)
H16 H 0.9794 -0.3388 1.0898
C35 C 1.1050(5) -0.3191(2) 1.12522(17)
C36 C 1.1537(6) -0.3747(3) 1.12604(17)
H17 H 1.1173 -0.4062 1.1153
C37 C 1.2509(6) -0.3837(3) 1.14177(17)
H18 H 1.2803 -0.4208 1.1423
C38 C 1.3058(5) -0.3368(3) 1.15704(17)
H19 H 1.3736 -0.3423 1.1673
C39 C 1.2619(4) -0.2821(2) 1.15736(15)
H20 H 1.3004 -0.2510 1.1677
C40 C 1.1584(5) -0.2725(2) 1.14200(13)
C41 C 1.2476(4) -0.1553(2) 1.07165(18)
H21 H 1.2380 -0.1968 1.0760
H22 H 1.3195 -0.1451 1.0791
C42 C 1.2291(6) -0.1413(4) 1.0296(2)
H23 H 1.2377 -0.0996 1.0259
H24 H 1.2826 -0.1605 1.0134
C43 C 1.1208(6) -0.1583(4) 0.9741(2)
H25 H 1.1768 -0.1820 0.9626
H26 H 1.1279 -0.1191 0.9635
C44 C 1.0210(6) -0.1814(4) 0.9629(2)
H27 H 1.0190 -0.1872 0.9341
H28 H 1.0105 -0.2188 0.9758
C45 C 0.8383(6) -0.1639(2) 0.96489(17)
H29 H 0.8184 -0.1941 0.9838
H30 H 0.8387 -0.1808 0.9382
C46 C 0.7608(4) -0.1166(2) 0.96647(16)
H31 H 0.7789 -0.0873 0.9467
H32 H 0.6911 -0.1317 0.9599
C47 C 0.9559(5) 0.1501(2) 1.0884(2)
C48 C 1.0585(5) 0.1546(2) 1.0686(2)
C49 C 1.0650(6) 0.1753(2) 1.0307(2)
H33 H 1.1314 0.1791 1.0188
C50 C 0.9748(6) 0.1912(2) 1.0088(2)
C51 C 0.9816(6) 0.2109(3) 0.9687(2)
H34 H 1.0472 0.2143 0.9562
C52 C 0.8925(8) 0.2248(3) 0.9488(2)
H35 H 0.8971 0.2355 0.9219
C53 C 0.7963(6) 0.2235(3) 0.9666(3)
H36 H 0.7367 0.2357 0.9525
C54 C 0.7861(5) 0.2039(2) 1.0064(2)
H37 H 0.7197 0.2026 1.0185
C55 C 0.8760(5) 0.1861(2) 1.0278(2)
C56 C 0.8663(5) 0.1656(2) 1.06841(19)
C57 C 0.7630(5) 0.1630(3) 1.08755(14)
C58 C 0.7167(4) 0.1107(3) 1.09610(15)
C59 C 0.6181(5) 0.1118(3) 1.11867(15)
C60 C 0.5697(5) 0.1604(4) 1.12990(17)
H38 H 0.5049 0.1589 1.1432
C61 C 0.6181(6) 0.2146(4) 1.12134(19)
C62 C 0.5689(8) 0.2675(4) 1.1332(2)
H39 H 0.5036 0.2662 1.1461
C63 C 0.6131(10) 0.3175(5) 1.1263(3)
H40 H 0.5797 0.3513 1.1350
C64 C 0.7110(8) 0.3216(3) 1.1059(2)
H41 H 0.7424 0.3577 1.1013
C65 C 0.7584(6) 0.2717(3) 1.09311(16)
H42 H 0.8214 0.2744 1.0787
C66 C 0.7155(5) 0.2160(3) 1.10089(18)
C67 C 0.7149(4) -0.1503(2) 1.19375(14)
C68 C 0.6392(4) -0.1785(3) 1.17021(17)
C69 C 0.6503(5) -0.2359(3) 1.15976(16)
H43 H 0.5994 -0.2540 1.1439
C70 C 0.7386(5) -0.2671(3) 1.17304(17)
C71 C 0.7532(6) -0.3265(3) 1.16308(19)
H44 H 0.7043 -0.3447 1.1464
C72 C 0.8371(6) -0.3580(3) 1.1773(2)
H45 H 0.8449 -0.3971 1.1706
C73 C 0.9097(5) -0.3311(3) 1.20174(18)
H46 H 0.9684 -0.3518 1.2108
C74 C 0.8971(4) -0.2742(2) 1.21290(14)
H47 H 0.9459 -0.2574 1.2303
C75 C 0.8119(4) -0.2406(2) 1.19864(15)
C76 C 0.7994(4) -0.1799(2) 1.20862(15)
C77 C 0.8734(4) -0.1509(2) 1.23718(16)
C78 C 0.9365(4) -0.1061(2) 1.22393(17)
C79 C 0.9957(4) -0.0730(2) 1.2531(2)
C80 C 0.9998(4) -0.0887(3) 1.2910(2)
H48 H 1.0406 -0.0670 1.3088
C81 C 0.9447(5) -0.1370(3) 1.30520(19)
C82 C 0.9496(6) -0.1537(3) 1.3450(2)
H49 H 0.9979 -0.1350 1.3617
C83 C 0.8861(7) -0.1968(4) 1.3609(2)
H50 H 0.8911 -0.2080 1.3877
C84 C 0.8126(6) -0.2229(3) 1.3342(2)
H51 H 0.7653 -0.2504 1.3442
C85 C 0.8086(5) -0.2095(2) 1.2949(2)
H52 H 0.7615 -0.2295 1.2784
C86 C 0.8742(4) -0.1658(2) 1.27781(18)
C87 C 0.6529(4) -0.0792(2) 1.23899(16)
H53 H 0.7015 -0.0889 1.2605
H54 H 0.5887 -0.1019 1.2424
C88 C 0.6277(5) -0.0157(3) 1.23989(17)
H55 H 0.5799 -0.0061 1.2181
H56 H 0.5929 -0.0059 1.2650
C89 C 0.7113(6) 0.0777(3) 1.24376(19)
H57 H 0.6640 0.0946 1.2240
H58 H 0.6798 0.0833 1.2700
C90 C 0.8104(6) 0.1070(3) 1.2423(2)
H59 H 0.8035 0.1454 1.2541
H60 H 0.8625 0.0854 1.2576
C91 C 0.9372(6) 0.1433(3) 1.1968(2)
H61 H 0.9970 0.1175 1.2010
H62 H 0.9406 0.1736 1.2171
C92 C 0.9475(5) 0.1700(2) 1.1577(2)
H63 H 0.8879 0.1959 1.1532
H64 H 1.0118 0.1931 1.1569
O13 O 0.5196(6) -0.3481(4) 1.2251(2)
O14 O 0.5911(4) -0.3210(2) 1.27399(14)
C93 C 0.4738(7) -0.2464(4) 1.2519(2)
H65 H 0.4105 -0.2400 1.2366
H66 H 0.5300 -0.2227 1.2415
H67 H 0.4610 -0.2364 1.2794
C94 C 0.5002(9) -0.3001(6) 1.2496(3)
C95 C 0.6231(8) -0.3822(4) 1.2675(3)
H68 H 0.5695 -0.4091 1.2770
H69 H 0.6380 -0.3899 1.2395
C96 C 0.7101(8) -0.3846(4) 1.2896(3)
H70 H 0.7404 -0.4229 1.2877
H71 H 0.6928 -0.3764 1.3170
H72 H 0.7603 -0.3564 1.2801
O15 O 1.0413(10) -0.0589(5) 0.8547(3)
O16 O 1.2026(5) -0.0335(2) 0.88645(16)
C97 C 1.1539(12) 0.0260(6) 0.8466(4)
H73 H 1.2278 0.0313 0.8524
H74 H 1.1125 0.0511 0.8635
H75 H 1.1406 0.0355 0.8190
C98 C 1.1316(11) -0.0198(6) 0.8522(4)
C99 C 1.2998(9) 0.0076(5) 0.8842(3)
H76 H 1.3411 0.0027 0.8599
H77 H 1.2820 0.0483 0.8883
C100 C 1.3489(9) -0.0199(4) 0.9197(3)
H78 H 1.4149 -0.0009 0.9256
H79 H 1.3615 -0.0604 0.9144
H80 H 1.3021 -0.0162 0.9423
loop_
_geom_bond_atom_site_label_1
_geom_bond_atom_site_label_2
_geom_bond_site_symmetry_1
_geom_bond_site_symmetry_2
Br1 C2 1_555 1_555
Br2 K1 1_555 1_555
Br3 C22 1_555 1_555
Br4 K1 1_555 1_555
Br5 C48 1_555 1_555
Br6 K2 1_555 1_555
Br7 C68 1_555 1_555
Br8 K2 1_555 1_555
K1 F1 1_555 1_555
K2 F1 1_555 1_555
F2 K1 1_555 1_555
O1 K1 1_555 1_555
O2 K1 1_555 1_555
O3 K1 1_555 1_555
O4 K1 1_555 1_555
O5 K1 1_555 1_555
O6 K1 1_555 1_555
O7 K2 1_555 1_555
O8 K2 1_555 1_555
O9 K2 1_555 1_555
O10 K2 1_555 1_555
O11 K2 1_555 1_555
O12 K2 1_555 1_555
C1 O2 1_555 1_555
C2 C1 1_555 1_555
C3 C2 1_555 1_555
H1 C3 1_555 1_555
C4 C3 1_555 1_555
C5 C4 1_555 1_555
H2 C5 1_555 1_555
C6 C5 1_555 1_555
H3 C6 1_555 1_555
C7 C6 1_555 1_555
H4 C7 1_555 1_555
C8 C7 1_555 1_555
H5 C8 1_555 1_555
C9 C4 1_555 1_555
C10 C1 1_555 1_555
C11 C10 1_555 1_555
C12 O1 1_555 1_555
C13 Br2 1_555 1_555
C14 C13 1_555 1_555
H6 C14 1_555 1_555
C15 C14 1_555 1_555
C16 C15 1_555 1_555
H7 C16 1_555 1_555
C17 C16 1_555 1_555
H8 C17 1_555 1_555
C18 C17 1_555 1_555
H9 C18 1_555 1_555
C19 C18 1_555 1_555
H10 C19 1_555 1_555
C20 C11 1_555 1_555
C21 O5 1_555 1_555
C22 C21 1_555 1_555
C23 C22 1_555 1_555
H11 C23 1_555 1_555
C24 C23 1_555 1_555
C25 C24 1_555 1_555
H12 C25 1_555 1_555
C26 C25 1_555 1_555
H13 C26 1_555 1_555
C27 C26 1_555 1_555
H14 C27 1_555 1_555
C28 C27 1_555 1_555
H15 C28 1_555 1_555
C29 C24 1_555 1_555
C30 C21 1_555 1_555
C31 C30 1_555 1_555
C32 O6 1_555 1_555
C33 Br4 1_555 1_555
C34 C33 1_555 1_555
H16 C34 1_555 1_555
C35 C34 1_555 1_555
C36 C35 1_555 1_555
H17 C36 1_555 1_555
C37 C36 1_555 1_555
H18 C37 1_555 1_555
C38 C37 1_555 1_555
H19 C38 1_555 1_555
C39 C38 1_555 1_555
H20 C39 1_555 1_555
C40 C31 1_555 1_555
C41 O5 1_555 1_555
H21 C41 1_555 1_555
H22 C41 1_555 1_555
C42 O4 1_555 1_555
H23 C42 1_555 1_555
H24 C42 1_555 1_555
C43 O4 1_555 1_555
H25 C43 1_555 1_555
H26 C43 1_555 1_555
C44 O3 1_555 1_555
H27 C44 1_555 1_555
H28 C44 1_555 1_555
C45 O3 1_555 1_555
H29 C45 1_555 1_555
H30 C45 1_555 1_555
C46 O2 1_555 1_555
H31 C46 1_555 1_555
H32 C46 1_555 1_555
C47 O8 1_555 1_555
C48 C47 1_555 1_555
C49 C48 1_555 1_555
H33 C49 1_555 1_555
C50 C49 1_555 1_555
C51 C50 1_555 1_555
H34 C51 1_555 1_555
C52 C51 1_555 1_555
H35 C52 1_555 1_555
C53 C52 1_555 1_555
H36 C53 1_555 1_555
C54 C53 1_555 1_555
H37 C54 1_555 1_555
C55 C50 1_555 1_555
C56 C47 1_555 1_555
C57 C56 1_555 1_555
C58 O7 1_555 1_555
C59 Br6 1_555 1_555
C60 C59 1_555 1_555
H38 C60 1_555 1_555
C61 C60 1_555 1_555
C62 C61 1_555 1_555
H39 C62 1_555 1_555
C63 C62 1_555 1_555
H40 C63 1_555 1_555
C64 C63 1_555 1_555
H41 C64 1_555 1_555
C65 C64 1_555 1_555
H42 C65 1_555 1_555
C66 C57 1_555 1_555
C67 O11 1_555 1_555
C68 C67 1_555 1_555
C69 C68 1_555 1_555
H43 C69 1_555 1_555
C70 C69 1_555 1_555
C71 C70 1_555 1_555
H44 C71 1_555 1_555
C72 C71 1_555 1_555
H45 C72 1_555 1_555
C73 C72 1_555 1_555
H46 C73 1_555 1_555
C74 C73 1_555 1_555
H47 C74 1_555 1_555
C75 C70 1_555 1_555
C76 C67 1_555 1_555
C77 C76 1_555 1_555
C78 O12 1_555 1_555
C79 Br8 1_555 1_555
C80 C79 1_555 1_555
H48 C80 1_555 1_555
C81 C80 1_555 1_555
C82 C81 1_555 1_555
H49 C82 1_555 1_555
C83 C82 1_555 1_555
H50 C83 1_555 1_555
C84 C83 1_555 1_555
H51 C84 1_555 1_555
C85 C84 1_555 1_555
H52 C85 1_555 1_555
C86 C77 1_555 1_555
C87 O11 1_555 1_555
H53 C87 1_555 1_555
H54 C87 1_555 1_555
C88 O10 1_555 1_555
H55 C88 1_555 1_555
H56 C88 1_555 1_555
C89 O10 1_555 1_555
H57 C89 1_555 1_555
H58 C89 1_555 1_555
C90 O9 1_555 1_555
H59 C90 1_555 1_555
H60 C90 1_555 1_555
C91 O9 1_555 1_555
H61 C91 1_555 1_555
H62 C91 1_555 1_555
C92 O8 1_555 1_555
H63 C92 1_555 1_555
H64 C92 1_555 1_555
O13 C94 1_555 1_555
O14 C94 1_555 1_555
O15 C98 1_555 1_555
O16 C98 1_555 1_555
C93 H65 1_555 1_555
H66 C93 1_555 1_555
H67 C93 1_555 1_555
C94 C93 1_555 1_555
C95 O14 1_555 1_555
H68 C95 1_555 1_555
H69 C95 1_555 1_555
C96 C95 1_555 1_555
H70 C96 1_555 1_555
H71 C96 1_555 1_555
H72 C96 1_555 1_555
C97 H73 1_555 1_555
H74 C97 1_555 1_555
H75 C97 1_555 1_555
C98 C97 1_555 1_555
C99 O16 1_555 1_555
H76 C99 1_555 1_555
H77 C99 1_555 1_555
C100 C99 1_555 1_555
H78 C100 1_555 1_555
H79 C100 1_555 1_555
H80 C100 1_555 1_555
K2 F2 1_555 1_555
C8 C9 1_555 1_555
C9 C10 1_555 1_555
C11 C12 1_555 1_555
C12 C13 1_555 1_555
C15 C20 1_555 1_555
C19 C20 1_555 1_555
C28 C29 1_555 1_555
C29 C30 1_555 1_555
C31 C32 1_555 1_555
C32 C33 1_555 1_555
C35 C40 1_555 1_555
C39 C40 1_555 1_555
C41 C42 1_555 1_555
C43 C44 1_555 1_555
C45 C46 1_555 1_555
C54 C55 1_555 1_555
C55 C56 1_555 1_555
C57 C58 1_555 1_555
C58 C59 1_555 1_555
C61 C66 1_555 1_555
C65 C66 1_555 1_555
C74 C75 1_555 1_555
C75 C76 1_555 1_555
C77 C78 1_555 1_555
C78 C79 1_555 1_555
C81 C86 1_555 1_555
C85 C86 1_555 1_555
C87 C88 1_555 1_555
C89 C90 1_555 1_555
C91 C92 1_555 1_555

#END
