
#######################################################################
#
#                 Cambridge Crystallographic Data Centre
#                                CCDC 
#
#######################################################################
#
# If this CIF has been generated from an entry in the Cambridge 
# Structural Database, then it will include bibliographic, chemical, 
# crystal, experimental, refinement or atomic coordinate data resulting 
# from the CCDC's data processing and validation procedures.
#
#######################################################################

data_WAGTEG
_chemical_name_common            (E)-2,3-diphenyl-N-tosylbut-2-enamide
_chemical_formula_moiety         'C23 H21 N1 O3 S1'
_chemical_name_systematic        
N-((4-methylphenyl)sulfonyl)-2,3-diphenylbut-2-enamide
_symmetry_cell_setting           monoclinic
_symmetry_space_group_name_H-M   'P 21/n'
_symmetry_Int_Tables_number      14
_space_group_name_Hall           '-P 2yn'
loop_
_symmetry_equiv_pos_site_id
_symmetry_equiv_pos_as_xyz
1 x,y,z
2 1/2-x,1/2+y,1/2-z
3 -x,-y,-z
4 1/2+x,1/2-y,1/2+z
_cell_length_a                   9.710(3)
_cell_length_b                   19.200(5)
_cell_length_c                   22.065(6)
_cell_angle_alpha                90
_cell_angle_beta                 97.104(4)
_cell_angle_gamma                90
_cell_volume                     4082.04
_exptl_crystal_colour            colorless
_exptl_crystal_description       rod
_cell_formula_units_Z            8
loop_
_atom_site_label
_atom_site_type_symbol
_atom_site_fract_x
_atom_site_fract_y
_atom_site_fract_z
S1 S 0.36934(8) 0.27681(5) 0.26825(4)
O1 O 0.16688(18) 0.27228(11) 0.35755(9)
O2 O 0.5055(2) 0.28374(14) 0.25079(10)
O3 O 0.2875(2) 0.21684(12) 0.24991(10)
N1 N 0.3944(2) 0.27954(13) 0.34378(10)
H1 H 0.4783 0.2813 0.3615
C1 C 0.4561(3) 0.35264(15) 0.53352(13)
C2 C 0.4173(3) 0.40711(16) 0.56991(13)
H2 H 0.3550 0.4406 0.5529
C3 C 0.4705(3) 0.41170(17) 0.63105(14)
H3 H 0.4426 0.4477 0.6550
C4 C 0.5652(3) 0.36276(17) 0.65643(14)
H4 H 0.5995 0.3652 0.6976
C5 C 0.6086(3) 0.31014(16) 0.62038(14)
H5 H 0.6749 0.2783 0.6371
C6 C 0.5542(3) 0.30445(16) 0.55955(14)
H6 H 0.5830 0.2684 0.5359
C7 C 0.3939(3) 0.34495(15) 0.46879(12)
C8 C 0.4005(3) 0.40875(15) 0.42903(13)
H7 H 0.3869 0.4498 0.4525
H8 H 0.3291 0.4060 0.3949
H9 H 0.4896 0.4109 0.4145
C9 C 0.3353(3) 0.28455(15) 0.44694(13)
C10 C 0.3104(3) 0.21979(16) 0.48064(14)
C11 C 0.3191(3) 0.15558(17) 0.45273(16)
H10 H 0.3399 0.1537 0.4127
C12 C 0.2974(4) 0.09439(19) 0.48303(19)
H11 H 0.3051 0.0519 0.4634
C13 C 0.2647(4) 0.0955(2) 0.54177(19)
H12 H 0.2510 0.0542 0.5622
C14 C 0.2524(4) 0.1590(2) 0.56988(18)
H13 H 0.2290 0.1604 0.6095
C15 C 0.2744(3) 0.22056(18) 0.54000(15)
H14 H 0.2651 0.2629 0.5596
C16 C 0.2883(3) 0.27918(15) 0.37963(13)
C17 C 0.2736(3) 0.35230(17) 0.24664(13)
C18 C 0.1360(3) 0.34825(18) 0.22209(14)
H15 H 0.0902 0.3056 0.2194
C19 C 0.0669(3) 0.4086(2) 0.20148(15)
H16 H -0.0257 0.4059 0.1849
C20 C 0.1326(4) 0.4725(2) 0.20500(15)
C21 C 0.2681(4) 0.47552(19) 0.23123(16)
H17 H 0.3127 0.5185 0.2350
C22 C 0.3402(3) 0.41634(19) 0.25229(15)
H18 H 0.4320 0.4195 0.2700
C23 C 0.0591(5) 0.5372(2) 0.1792(2)
H19 H 0.0583 0.5379 0.1356
H20 H 0.1069 0.5777 0.1966
H21 H -0.0345 0.5373 0.1889
S2 S 0.91773(8) 0.41462(4) 0.38445(4)
O4 O 0.67441(19) 0.31817(11) 0.38867(10)
O5 O 1.0524(2) 0.42963(11) 0.36804(10)
O6 O 0.7987(2) 0.45224(12) 0.35798(10)
N2 N 0.8965(2) 0.33013(13) 0.36765(11)
H22 H 0.9614 0.3095 0.3513
C24 C 0.8668(3) 0.10188(16) 0.33432(14)
C25 C 0.9601(3) 0.07505(18) 0.38176(15)
H23 H 1.0016 0.1050 0.4117
C26 C 0.9924(4) 0.00478(19) 0.38513(17)
H24 H 1.0547 -0.0120 0.4172
C27 C 0.9320(4) -0.04041(19) 0.34081(17)
H25 H 0.9525 -0.0877 0.3434
C28 C 0.8416(4) -0.01518(19) 0.29295(18)
H26 H 0.8015 -0.0454 0.2628
C29 C 0.8101(3) 0.05517(18) 0.28957(16)
H27 H 0.7497 0.0717 0.2567
C30 C 0.8331(3) 0.17775(16) 0.33075(14)
C31 C 0.8323(4) 0.21080(18) 0.26865(15)
H28 H 0.9242 0.2094 0.2569
H29 H 0.8023 0.2583 0.2703
H30 H 0.7699 0.1857 0.2393
C32 C 0.8062(3) 0.21388(15) 0.38008(13)
C33 C 0.7930(3) 0.18584(16) 0.44224(14)
C34 C 0.8780(3) 0.21136(18) 0.49304(15)
H31 H 0.9451 0.2446 0.4876
C35 C 0.8643(4) 0.1882(2) 0.55148(16)
H32 H 0.9222 0.2056 0.5847
C36 C 0.7654(4) 0.1396(2) 0.56021(17)
H33 H 0.7560 0.1240 0.5994
C37 C 0.6796(4) 0.11399(19) 0.51056(19)
H34 H 0.6120 0.0812 0.5165
C38 C 0.6936(3) 0.13681(17) 0.45198(16)
H35 H 0.6357 0.1190 0.4189
C39 C 0.7828(3) 0.29095(16) 0.37794(13)
C40 C 0.9241(3) 0.41485(15) 0.46416(14)
C41 C 0.8063(3) 0.42781(15) 0.49194(14)
H36 H 0.7229 0.4389 0.4685
C42 C 0.8137(3) 0.42419(16) 0.55459(14)
H37 H 0.7345 0.4332 0.5731
C43 C 0.9365(3) 0.40742(16) 0.59095(15)
C44 C 1.0529(3) 0.39406(18) 0.56187(15)
H38 H 1.1359 0.3822 0.5853
C45 C 1.0484(3) 0.39789(17) 0.49956(15)
H39 H 1.1278 0.3892 0.4811
C46 C 0.9444(4) 0.40341(19) 0.65936(15)
H40 H 0.8611 0.4224 0.6721
H41 H 1.0230 0.4296 0.6776
H42 H 0.9541 0.3557 0.6721
loop_
_geom_bond_atom_site_label_1
_geom_bond_atom_site_label_2
_geom_bond_site_symmetry_1
_geom_bond_site_symmetry_2
S1 O2 1_555 1_555
O1 C16 1_555 1_555
O3 S1 1_555 1_555
N1 S1 1_555 1_555
H1 N1 1_555 1_555
C1 C2 1_555 1_555
C2 H2 1_555 1_555
C3 C2 1_555 1_555
H3 C3 1_555 1_555
C4 C3 1_555 1_555
H4 C4 1_555 1_555
C5 C4 1_555 1_555
H5 C5 1_555 1_555
C6 C1 1_555 1_555
H6 C6 1_555 1_555
C7 C1 1_555 1_555
C8 C7 1_555 1_555
H7 C8 1_555 1_555
H8 C8 1_555 1_555
H9 C8 1_555 1_555
C9 C7 1_555 1_555
C10 C9 1_555 1_555
C11 C10 1_555 1_555
H10 C11 1_555 1_555
C12 C11 1_555 1_555
H11 C12 1_555 1_555
C13 C12 1_555 1_555
H12 C13 1_555 1_555
C14 C13 1_555 1_555
H13 C14 1_555 1_555
C15 C10 1_555 1_555
H14 C15 1_555 1_555
C16 N1 1_555 1_555
C17 S1 1_555 1_555
C18 C17 1_555 1_555
H15 C18 1_555 1_555
C19 C18 1_555 1_555
H16 C19 1_555 1_555
C20 C19 1_555 1_555
C21 C20 1_555 1_555
H17 C21 1_555 1_555
C22 C17 1_555 1_555
H18 C22 1_555 1_555
C23 C20 1_555 1_555
H19 C23 1_555 1_555
H20 C23 1_555 1_555
H21 C23 1_555 1_555
S2 O5 1_555 1_555
O4 C39 1_555 1_555
O6 S2 1_555 1_555
N2 S2 1_555 1_555
H22 N2 1_555 1_555
C24 C25 1_555 1_555
C25 H23 1_555 1_555
C26 C25 1_555 1_555
H24 C26 1_555 1_555
C27 C26 1_555 1_555
H25 C27 1_555 1_555
C28 C27 1_555 1_555
H26 C28 1_555 1_555
C29 C24 1_555 1_555
H27 C29 1_555 1_555
C30 C24 1_555 1_555
C31 C30 1_555 1_555
H28 C31 1_555 1_555
H29 C31 1_555 1_555
H30 C31 1_555 1_555
C32 C30 1_555 1_555
C33 C32 1_555 1_555
C34 C33 1_555 1_555
H31 C34 1_555 1_555
C35 C34 1_555 1_555
H32 C35 1_555 1_555
C36 C35 1_555 1_555
H33 C36 1_555 1_555
C37 C36 1_555 1_555
H34 C37 1_555 1_555
C38 C33 1_555 1_555
H35 C38 1_555 1_555
C39 N2 1_555 1_555
C40 S2 1_555 1_555
C41 C40 1_555 1_555
H36 C41 1_555 1_555
C42 C41 1_555 1_555
H37 C42 1_555 1_555
C43 C42 1_555 1_555
C44 C43 1_555 1_555
H38 C44 1_555 1_555
C45 C40 1_555 1_555
H39 C45 1_555 1_555
C46 C43 1_555 1_555
H40 C46 1_555 1_555
H41 C46 1_555 1_555
H42 C46 1_555 1_555
C5 C6 1_555 1_555
C9 C16 1_555 1_555
C14 C15 1_555 1_555
C21 C22 1_555 1_555
C28 C29 1_555 1_555
C32 C39 1_555 1_555
C37 C38 1_555 1_555
C44 C45 1_555 1_555

#END
