
#######################################################################
#
#                 Cambridge Crystallographic Data Centre
#                                CCDC 
#
#######################################################################
#
# If this CIF has been generated from an entry in the Cambridge 
# Structural Database, then it will include bibliographic, chemical, 
# crystal, experimental, refinement or atomic coordinate data resulting 
# from the CCDC's data processing and validation procedures.
#
#######################################################################

data_WAGXIO
_chemical_formula_moiety         'C18 H14 N4 O1 S1'
_chemical_name_systematic        
5-(1-benzyl-3-phenyl-1H-pyrazol-5-yl)-1,3,4-oxadiazole-2(3H)-thione
_symmetry_cell_setting           monoclinic
_symmetry_space_group_name_H-M   'P 21/c'
_symmetry_Int_Tables_number      14
_space_group_name_Hall           '-P 2ybc'
loop_
_symmetry_equiv_pos_site_id
_symmetry_equiv_pos_as_xyz
1 x,y,z
2 -x,1/2+y,1/2-z
3 -x,-y,-z
4 x,1/2-y,1/2+z
_cell_length_a                   12.4306(7)
_cell_length_b                   11.5638(7)
_cell_length_c                   12.1015(7)
_cell_angle_alpha                90
_cell_angle_beta                 110.9590(10)
_cell_angle_gamma                90
_cell_volume                     1624.44
_exptl_crystal_colour            colorless
_exptl_crystal_description       block
_chemical_melting_point          '487 K'
_cell_formula_units_Z            4
_exptl_crystal_recrystallization_method Methanol
_exptl_crystal_preparation       Luminescent
loop_
_atom_site_label
_atom_site_type_symbol
_atom_site_fract_x
_atom_site_fract_y
_atom_site_fract_z
C1 C 0.73256(12) 0.18605(12) 1.12278(13)
C2 C 0.80222(14) 0.23588(16) 1.06800(16)
H1 H 0.7694 0.2668 0.9924
C3 C 0.92013(16) 0.2395(2) 1.1259(2)
H2 H 0.9661 0.2738 1.0891
C4 C 0.97052(16) 0.19327(18) 1.23700(19)
H3 H 1.0500 0.1960 1.2753
C5 C 0.90200(16) 0.14291(19) 1.29079(18)
H4 H 0.9354 0.1109 1.3659
C6 C 0.78419(15) 0.13940(16) 1.23440(15)
H5 H 0.7388 0.1052 1.2720
C7 C 0.60707(12) 0.18147(12) 1.06235(12)
C8 C 0.52563(12) 0.12268(12) 1.09651(12)
H6 H 0.5393 0.0780 1.1640
C9 C 0.42177(12) 0.14482(11) 1.00971(12)
C10 C 0.30908(12) 0.10638(12) 1.00260(12)
C11 C 0.19166(13) 0.02320(13) 1.07692(14)
C12 C 0.36281(13) 0.25909(13) 0.81647(12)
H7 H 0.3920 0.3320 0.7991
H8 H 0.2888 0.2739 0.8237
C13 C 0.34623(13) 0.17677(12) 0.71531(12)
C14 C 0.43965(15) 0.12559(14) 0.69796(14)
H9 H 0.5137 0.1405 0.7508
C15 C 0.4243(2) 0.05260(16) 0.60304(17)
H10 H 0.4878 0.0180 0.5932
C16 C 0.3164(2) 0.03111(17) 0.52381(18)
H11 H 0.3065 -0.0176 0.4597
C17 C 0.2231(2) 0.0812(2) 0.53866(17)
H12 H 0.1496 0.0667 0.4843
C18 C 0.23729(15) 0.15393(16) 0.63495(15)
H13 H 0.1732 0.1871 0.6450
H14 H 0.0574(19) 0.0618(17) 0.9271(18)
N1 N 0.55552(10) 0.23767(11) 0.96007(11)
N2 N 0.44234(10) 0.21472(10) 0.92883(10)
N3 N 0.20972(11) 0.11863(11) 0.92105(11)
N4 N 0.13661(12) 0.06610(12) 0.96964(12)
O1 O 0.30546(8) 0.04845(8) 1.09989(9)
S1 S 0.14702(4) -0.04516(5) 1.17171(4)
loop_
_geom_bond_atom_site_label_1
_geom_bond_atom_site_label_2
_geom_bond_site_symmetry_1
_geom_bond_site_symmetry_2
C1 C2 1_555 1_555
C2 H1 1_555 1_555
C3 C2 1_555 1_555
H2 C3 1_555 1_555
C4 C3 1_555 1_555
H3 C4 1_555 1_555
C5 C4 1_555 1_555
H4 C5 1_555 1_555
C6 C1 1_555 1_555
H5 C6 1_555 1_555
C7 C1 1_555 1_555
C8 C7 1_555 1_555
H6 C8 1_555 1_555
C9 C8 1_555 1_555
C10 C9 1_555 1_555
C11 N4 1_555 1_555
C12 H7 1_555 1_555
H8 C12 1_555 1_555
C13 C12 1_555 1_555
C14 C13 1_555 1_555
H9 C14 1_555 1_555
C15 C14 1_555 1_555
H10 C15 1_555 1_555
C16 C15 1_555 1_555
H11 C16 1_555 1_555
C17 C16 1_555 1_555
H12 C17 1_555 1_555
C18 C13 1_555 1_555
H13 C18 1_555 1_555
H14 N4 1_555 1_555
N1 C7 1_555 1_555
N2 C9 1_555 1_555
N3 C10 1_555 1_555
N4 N3 1_555 1_555
O1 C10 1_555 1_555
S1 C11 1_555 1_555
C5 C6 1_555 1_555
C11 O1 1_555 1_555
C12 N2 1_555 1_555
C17 C18 1_555 1_555
N1 N2 1_555 1_555

#END
