
#######################################################################
#
#                 Cambridge Crystallographic Data Centre
#                                CCDC 
#
#######################################################################
#
# If this CIF has been generated from an entry in the Cambridge 
# Structural Database, then it will include bibliographic, chemical, 
# crystal, experimental, refinement or atomic coordinate data resulting 
# from the CCDC's data processing and validation procedures.
#
#######################################################################

data_WAHDAM
_chemical_formula_moiety         'C12 H10 N4 O2,3(H2 O1)'
_chemical_name_systematic        
"N'-(E)-(4-Hydroxybenzylidene)-2-pyrazinecarbohydrazide trihydrate"
_symmetry_cell_setting           monoclinic
_symmetry_space_group_name_H-M   'P 21/c'
_symmetry_Int_Tables_number      14
_space_group_name_Hall           '-P 2ybc'
loop_
_symmetry_equiv_pos_site_id
_symmetry_equiv_pos_as_xyz
1 x,y,z
2 -x,1/2+y,1/2-z
3 -x,-y,-z
4 x,1/2-y,1/2+z
_cell_length_a                   7.0560(3)
_cell_length_b                   19.6818(7)
_cell_length_c                   10.3976(3)
_cell_angle_alpha                90
_cell_angle_beta                 105.989(2)
_cell_angle_gamma                90
_cell_volume                     1388.1
_exptl_crystal_colour            colorless
_exptl_crystal_description       block
_chemical_melting_point          '536-537 K'
_cell_formula_units_Z            4
_exptl_crystal_recrystallization_method ethanol
loop_
_atom_site_label
_atom_site_type_symbol
_atom_site_fract_x
_atom_site_fract_y
_atom_site_fract_z
O1 O 0.50755(19) 0.51723(6) 0.19896(12)
O2 O 1.1660(2) 0.68902(6) 0.97127(12)
H1 H 1.2097 0.6702 1.0461
N1 N 0.3270(2) 0.34381(8) -0.03039(15)
N2 N 0.5029(2) 0.33834(7) 0.24672(14)
N3 N 0.6442(2) 0.45265(7) 0.38298(14)
H2 H 0.6620 0.4117 0.4184
N4 N 0.7204(2) 0.50941(7) 0.45916(14)
C1 C 0.4740(2) 0.39715(9) 0.17889(16)
C2 C 0.3866(3) 0.39992(9) 0.04233(17)
H3 H 0.3684 0.4429 -0.0010
C3 C 0.3545(3) 0.28535(10) 0.03720(18)
H4 H 0.3132 0.2442 -0.0101
C4 C 0.4413(3) 0.28255(9) 0.17424(18)
H5 H 0.4574 0.2396 0.2177
C5 C 0.5428(2) 0.46136(9) 0.25446(16)
C6 C 0.8107(3) 0.49624(9) 0.58168(17)
H6 H 0.8176 0.4503 0.6103
C7 C 0.9029(2) 0.54786(9) 0.67905(16)
C8 C 0.8995(3) 0.61750(9) 0.65094(17)
H7 H 0.8354 0.6331 0.5633
C9 C 0.9881(3) 0.66366(9) 0.74889(17)
H8 H 0.9847 0.7107 0.7283
C10 C 1.0825(3) 0.64151(9) 0.87795(16)
C11 C 1.0905(3) 0.57234(9) 0.90731(17)
H9 H 1.1566 0.5568 0.9947
C12 C 1.0015(3) 0.52636(9) 0.80852(17)
H10 H 1.0075 0.4792 0.8289
O3 O 0.8074(2) 0.33076(7) 0.56941(13)
H11 H 0.933(4) 0.3394(11) 0.605(2)
H12 H 0.806(3) 0.2875(13) 0.545(2)
O4 O 0.8120(2) 0.63372(7) 0.31563(14)
H13 H 0.772(4) 0.6382(12) 0.232(3)
H14 H 0.760(4) 0.5976(13) 0.336(2)
O5 O 0.6874(2) 0.36204(7) 0.79164(13)
H15 H 0.616(4) 0.3960(13) 0.776(2)
H16 H 0.720(4) 0.3508(12) 0.717(3)
loop_
_geom_bond_atom_site_label_1
_geom_bond_atom_site_label_2
_geom_bond_site_symmetry_1
_geom_bond_site_symmetry_2
O1 C5 1_555 1_555
O2 H1 1_555 1_555
N1 C2 1_555 1_555
N2 C1 1_555 1_555
N3 H2 1_555 1_555
N4 N3 1_555 1_555
C1 C2 1_555 1_555
C2 H3 1_555 1_555
C3 N1 1_555 1_555
H4 C3 1_555 1_555
C4 N2 1_555 1_555
H5 C4 1_555 1_555
C5 N3 1_555 1_555
C6 N4 1_555 1_555
H6 C6 1_555 1_555
C7 C6 1_555 1_555
C8 C7 1_555 1_555
H7 C8 1_555 1_555
C9 C8 1_555 1_555
H8 C9 1_555 1_555
C10 O2 1_555 1_555
C11 C10 1_555 1_555
H9 C11 1_555 1_555
C12 C7 1_555 1_555
H10 C12 1_555 1_555
O3 H11 1_555 1_555
H12 O3 1_555 1_555
O4 H13 1_555 1_555
H14 O4 1_555 1_555
O5 H15 1_555 1_555
H16 O5 1_555 1_555
C1 C5 1_555 1_555
C3 C4 1_555 1_555
C9 C10 1_555 1_555
C11 C12 1_555 1_555

#END
