
#######################################################################
#
#                 Cambridge Crystallographic Data Centre
#                                CCDC 
#
#######################################################################
#
# If this CIF has been generated from an entry in the Cambridge 
# Structural Database, then it will include bibliographic, chemical, 
# crystal, experimental, refinement or atomic coordinate data resulting 
# from the CCDC's data processing and validation procedures.
#
#######################################################################

data_WAHKAS
_chemical_formula_moiety         'C32 H35 N2 O2 P1'
_chemical_name_systematic        
(+)-2,4-Dibenzyl-5,8,8-trimethyl-3-(1-hydroxy-2-naphthyl)-3-oxo-2,4,3(S)-diazaphospha-\l^5^-bicyclo(3.2.1)octane
_symmetry_cell_setting           orthorhombic
_symmetry_space_group_name_H-M   'P 21 21 21'
_symmetry_Int_Tables_number      19
_space_group_name_Hall           'P 2ac 2ab'
loop_
_symmetry_equiv_pos_site_id
_symmetry_equiv_pos_as_xyz
1 x,y,z
2 1/2-x,-y,1/2+z
3 -x,1/2+y,1/2-z
4 1/2+x,1/2-y,-z
_cell_length_a                   7.462(3)
_cell_length_b                   18.118(7)
_cell_length_c                   20.615(8)
_cell_angle_alpha                90
_cell_angle_beta                 90
_cell_angle_gamma                90
_cell_volume                     2787.08
_chemical_melting_point          206-207deg.C
_cell_formula_units_Z            4
loop_
_atom_site_label
_atom_site_type_symbol
_atom_site_fract_x
_atom_site_fract_y
_atom_site_fract_z
P1 P -0.11724(10) 0.92226(4) 0.80707(4)
N1 N -0.0896(3) 0.85627(12) 0.86183(11)
N2 N -0.0203(3) 0.99276(11) 0.84270(11)
O1 O -0.3053(2) 0.93414(10) 0.78406(9)
O2 O -0.2451(3) 0.90625(10) 0.66634(11)
H1 H -0.2874 0.9180 0.7035
C1 C -0.1066(4) 0.87490(16) 0.93333(15)
C2 C 0.0345(4) 0.93465(17) 0.94897(14)
C3 C -0.0450(4) 1.00068(16) 0.91365(15)
H2 H 0.0106 1.0465 0.9289
C4 C -0.2439(5) 0.99856(19) 0.93280(16)
H3 H -0.3183 1.0179 0.8982
H4 H -0.2648 1.0273 0.9718
C5 C -0.2850(4) 0.91614(19) 0.94484(15)
H5 H -0.3764 0.8988 0.9151
H6 H -0.3267 0.9085 0.9889
C6 C -0.0898(5) 0.80597(17) 0.97440(15)
H7 H 0.0237 0.7829 0.9661
H8 H -0.1847 0.7724 0.9637
H9 H -0.0977 0.8190 1.0194
C7 C 0.2268(4) 0.91586(19) 0.93002(15)
H10 H 0.3017 0.9583 0.9366
H11 H 0.2305 0.9017 0.8852
H12 H 0.2691 0.8758 0.9564
C8 C 0.0361(5) 0.95299(19) 1.02287(15)
H13 H -0.0838 0.9634 1.0371
H14 H 0.1106 0.9953 1.0304
H15 H 0.0824 0.9116 1.0466
C9 C -0.1740(4) 0.78670(15) 0.84024(15)
H16 H -0.2043 0.7913 0.7947
H17 H -0.2851 0.7801 0.8640
C10 C -0.0606(5) 0.71850(17) 0.84902(15)
C11 C 0.1223(5) 0.71976(18) 0.84097(15)
H18 H 0.1793 0.7641 0.8315
C12 C 0.2230(6) 0.6557(2) 0.84684(17)
H19 H 0.3465 0.6570 0.8408
C13 C 0.1388(7) 0.5902(2) 0.86160(16)
H20 H 0.2055 0.5472 0.8667
C14 C -0.0414(7) 0.5887(2) 0.86868(18)
H21 H -0.0983 0.5443 0.8780
C15 C -0.1411(5) 0.65178(19) 0.86236(16)
H22 H -0.2649 0.6495 0.8671
C16 C -0.0239(4) 1.06325(14) 0.80767(16)
H23 H -0.1187 1.0939 0.8254
H24 H -0.0517 1.0539 0.7624
C17 C 0.1499(4) 1.10445(14) 0.81174(14)
C18 C 0.3084(4) 1.07133(16) 0.79582(16)
H25 H 0.3080 1.0215 0.7848
C19 C 0.4683(5) 1.10880(17) 0.79543(17)
H26 H 0.5734 1.0847 0.7836
C20 C 0.4722(5) 1.18203(18) 0.81266(18)
H27 H 0.5795 1.2082 0.8128
C21 C 0.3149(5) 1.21561(18) 0.82962(17)
H28 H 0.3161 1.2649 0.8421
C22 C 0.1552(4) 1.17788(16) 0.82850(14)
H29 H 0.0495 1.2023 0.8392
C23 C 0.0116(4) 0.89865(13) 0.73682(13)
C24 C -0.0700(4) 0.89276(13) 0.67700(15)
C25 C 0.0326(5) 0.87248(14) 0.62089(15)
C26 C -0.0497(5) 0.86537(17) 0.55965(18)
H30 H -0.1717 0.8744 0.5550
C27 C 0.0501(7) 0.8452(2) 0.50732(19)
H31 H -0.0048 0.8408 0.4670
C28 C 0.2331(7) 0.8310(2) 0.5129(2)
H32 H 0.2989 0.8165 0.4767
C29 C 0.3148(5) 0.83835(18) 0.57166(19)
H33 H 0.4373 0.8296 0.5751
C30 C 0.2171(5) 0.85900(15) 0.62730(17)
C31 C 0.2981(4) 0.86618(14) 0.68874(17)
H34 H 0.4205 0.8581 0.6934
C32 C 0.1978(4) 0.88478(14) 0.74095(15)
H35 H 0.2536 0.8886 0.7812
loop_
_geom_bond_atom_site_label_1
_geom_bond_atom_site_label_2
_geom_bond_site_symmetry_1
_geom_bond_site_symmetry_2
P1 N1 1_555 1_555
N1 C1 1_555 1_555
N2 P1 1_555 1_555
O1 P1 1_555 1_555
O2 H1 1_555 1_555
C1 C2 1_555 1_555
C2 C3 1_555 1_555
C3 N2 1_555 1_555
H2 C3 1_555 1_555
C4 C3 1_555 1_555
H3 C4 1_555 1_555
H4 C4 1_555 1_555
C5 C1 1_555 1_555
H5 C5 1_555 1_555
H6 C5 1_555 1_555
C6 C1 1_555 1_555
H7 C6 1_555 1_555
H8 C6 1_555 1_555
H9 C6 1_555 1_555
C7 C2 1_555 1_555
H10 C7 1_555 1_555
H11 C7 1_555 1_555
H12 C7 1_555 1_555
C8 C2 1_555 1_555
H13 C8 1_555 1_555
H14 C8 1_555 1_555
H15 C8 1_555 1_555
C9 N1 1_555 1_555
H16 C9 1_555 1_555
H17 C9 1_555 1_555
C10 C9 1_555 1_555
C11 C10 1_555 1_555
H18 C11 1_555 1_555
C12 C11 1_555 1_555
H19 C12 1_555 1_555
C13 C12 1_555 1_555
H20 C13 1_555 1_555
C14 C13 1_555 1_555
H21 C14 1_555 1_555
C15 C10 1_555 1_555
H22 C15 1_555 1_555
C16 N2 1_555 1_555
H23 C16 1_555 1_555
H24 C16 1_555 1_555
C17 C16 1_555 1_555
C18 C17 1_555 1_555
H25 C18 1_555 1_555
C19 C18 1_555 1_555
H26 C19 1_555 1_555
C20 C19 1_555 1_555
H27 C20 1_555 1_555
C21 C20 1_555 1_555
H28 C21 1_555 1_555
C22 C17 1_555 1_555
H29 C22 1_555 1_555
C23 P1 1_555 1_555
C24 O2 1_555 1_555
C25 C24 1_555 1_555
C26 C25 1_555 1_555
H30 C26 1_555 1_555
C27 C26 1_555 1_555
H31 C27 1_555 1_555
C28 C27 1_555 1_555
H32 C28 1_555 1_555
C29 C28 1_555 1_555
H33 C29 1_555 1_555
C30 C25 1_555 1_555
C31 C30 1_555 1_555
H34 C31 1_555 1_555
C32 C23 1_555 1_555
H35 C32 1_555 1_555
C4 C5 1_555 1_555
C14 C15 1_555 1_555
C21 C22 1_555 1_555
C23 C24 1_555 1_555
C29 C30 1_555 1_555
C31 C32 1_555 1_555

#END
