
#######################################################################
#
#                 Cambridge Crystallographic Data Centre
#                                CCDC 
#
#######################################################################
#
# If this CIF has been generated from an entry in the Cambridge 
# Structural Database, then it will include bibliographic, chemical, 
# crystal, experimental, refinement or atomic coordinate data resulting 
# from the CCDC's data processing and validation procedures.
#
#######################################################################

data_WAHLEZ
_chemical_formula_moiety         'C23 H22 Br2 N2 O2'
_chemical_name_systematic        
5-bromo-4'-(4-bromophenyl)-1'-methyl-3'-(3-methylbut-2-enoyl)spiro[indole-3,2'-pyrrolidin]-2(1H)-one
_symmetry_cell_setting           monoclinic
_symmetry_space_group_name_H-M   'P 21/n'
_symmetry_Int_Tables_number      14
_space_group_name_Hall           '-P 2yn'
loop_
_symmetry_equiv_pos_site_id
_symmetry_equiv_pos_as_xyz
1 x,y,z
2 1/2-x,1/2+y,1/2-z
3 -x,-y,-z
4 1/2+x,1/2-y,1/2+z
_cell_length_a                   13.351(3)
_cell_length_b                   10.635(3)
_cell_length_c                   16.076(4)
_cell_angle_alpha                90
_cell_angle_beta                 94.415(4)
_cell_angle_gamma                90
_cell_volume                     2275.82
_exptl_crystal_colour            colorless
_exptl_crystal_description       parallelepiped
_cell_formula_units_Z            4
loop_
_atom_site_label
_atom_site_type_symbol
_atom_site_fract_x
_atom_site_fract_y
_atom_site_fract_z
Br1 Br 0.31552(7) 0.27901(10) -0.45604(5)
Br2 Br 0.40787(5) 0.23075(6) 0.34503(4)
O1 O 0.0661(3) 0.1200(4) -0.0546(3)
O2 O 0.4536(4) 0.2275(6) 0.0264(3)
N1 N 0.1773(4) 0.3507(5) 0.0311(3)
C1 C 0.4481(6) -0.0200(9) 0.1158(5)
C2 C 0.2354(5) 0.0850(6) 0.2907(4)
H1 H 0.2408 0.0525 0.3459
C3 C 0.3027(5) 0.1749(6) 0.2670(4)
C4 C 0.2976(4) 0.2268(6) 0.1874(4)
H2 H 0.3427 0.2910 0.1732
C5 C 0.2240(5) 0.1809(6) 0.1295(4)
C6 C 0.2001(5) 0.2169(6) 0.0395(4)
C7 C 0.2827(5) 0.1938(6) -0.0242(4)
H3 H 0.2586 0.1250 -0.0632
C8 C 0.2845(5) 0.3179(7) -0.0744(4)
H4 H 0.3424 0.3699 -0.0509
C9 C 0.2929(5) 0.3029(8) -0.1674(4)
C10 C 0.2326(6) 0.2224(8) -0.2161(5)
H5 H 0.1867 0.1705 -0.1895
C11 C 0.2357(7) 0.2132(8) -0.3020(5)
H6 H 0.1924 0.1582 -0.3344
C12 C 0.3060(6) 0.2892(8) -0.3386(5)
C13 C 0.1566(4) 0.0904(6) 0.1527(4)
C14 C 0.1597(5) 0.0426(6) 0.2328(4)
H7 H 0.1116 -0.0173 0.2480
N2 N 0.0892(4) 0.0611(5) 0.0835(3)
H8 H 0.0399 0.0063 0.0843
C15 C 0.1103(4) 0.1288(6) 0.0157(4)
C16 C 0.1875(5) 0.3837(7) -0.0561(4)
H9 H 0.1929 0.4758 -0.0633
H10 H 0.1299 0.3520 -0.0927
C17 C 0.3661(6) 0.3704(9) -0.2935(5)
H11 H 0.4113 0.4228 -0.3204
C18 C 0.3613(5) 0.3770(8) -0.2059(5)
H12 H 0.4049 0.4320 -0.1736
C19 C 0.3828(5) 0.1533(7) 0.0202(4)
C20 C 0.3833(5) 0.0275(8) 0.0546(4)
H13 H 0.3326 -0.0279 0.0318
C21 C 0.5385(7) 0.0496(11) 0.1557(5)
H14 H 0.5954 0.0391 0.1213
H15 H 0.5560 0.0156 0.2115
H16 H 0.5224 0.1392 0.1599
C22 C 0.4281(8) -0.1495(10) 0.1507(6)
H17 H 0.3700 -0.1871 0.1191
H18 H 0.4143 -0.1419 0.2095
H19 H 0.4872 -0.2030 0.1461
C23 C 0.0841(5) 0.3885(6) 0.0632(4)
H20 H 0.0281 0.3463 0.0317
H21 H 0.0762 0.4798 0.0575
H22 H 0.0847 0.3653 0.1222
loop_
_geom_bond_atom_site_label_1
_geom_bond_atom_site_label_2
_geom_bond_site_symmetry_1
_geom_bond_site_symmetry_2
Br1 C12 1_555 1_555
Br2 C3 1_555 1_555
O1 C15 1_555 1_555
O2 C19 1_555 1_555
N1 C6 1_555 1_555
C1 C20 1_555 1_555
C2 H1 1_555 1_555
C3 C2 1_555 1_555
C4 C3 1_555 1_555
H2 C4 1_555 1_555
C5 C4 1_555 1_555
C6 C5 1_555 1_555
C7 C6 1_555 1_555
H3 C7 1_555 1_555
C8 C7 1_555 1_555
H4 C8 1_555 1_555
C9 C8 1_555 1_555
C10 C9 1_555 1_555
H5 C10 1_555 1_555
C11 C10 1_555 1_555
H6 C11 1_555 1_555
C12 C11 1_555 1_555
C13 C5 1_555 1_555
C14 C2 1_555 1_555
H7 C14 1_555 1_555
N2 C13 1_555 1_555
H8 N2 1_555 1_555
C15 C6 1_555 1_555
C16 N1 1_555 1_555
H9 C16 1_555 1_555
H10 C16 1_555 1_555
C17 C12 1_555 1_555
H11 C17 1_555 1_555
C18 C9 1_555 1_555
H12 C18 1_555 1_555
C19 C7 1_555 1_555
C20 C19 1_555 1_555
H13 C20 1_555 1_555
C21 C1 1_555 1_555
H14 C21 1_555 1_555
H15 C21 1_555 1_555
H16 C21 1_555 1_555
C22 C1 1_555 1_555
H17 C22 1_555 1_555
H18 C22 1_555 1_555
H19 C22 1_555 1_555
C23 N1 1_555 1_555
H20 C23 1_555 1_555
H21 C23 1_555 1_555
H22 C23 1_555 1_555
C8 C16 1_555 1_555
C13 C14 1_555 1_555
N2 C15 1_555 1_555
C17 C18 1_555 1_555

#END
