
#######################################################################
#
#                 Cambridge Crystallographic Data Centre
#                                CCDC 
#
#######################################################################
#
# If this CIF has been generated from an entry in the Cambridge 
# Structural Database, then it will include bibliographic, chemical, 
# crystal, experimental, refinement or atomic coordinate data resulting 
# from the CCDC's data processing and validation procedures.
#
#######################################################################

data_WAHVUW
_chemical_formula_moiety         'C23 H35 B2 N1 O1'
_chemical_name_systematic        
(\m~2~-Hydrido)-(\m~2~-phenylcarbamoyl-O,N)-bis(9-borabicyclo(3.3.1)nonane)
_symmetry_cell_setting           triclinic
_symmetry_space_group_name_H-M   'P -1'
_symmetry_Int_Tables_number      2
_space_group_name_Hall           '-P 1'
loop_
_symmetry_equiv_pos_site_id
_symmetry_equiv_pos_as_xyz
1 x,y,z
2 -x,-y,-z
_cell_length_a                   10.288(1)
_cell_length_b                   12.563(1)
_cell_length_c                   16.463(2)
_cell_angle_alpha                81.59(1)
_cell_angle_beta                 82.03(1)
_cell_angle_gamma                78.49(1)
_cell_volume                     2049.41
_exptl_crystal_colour            colorless
_chemical_melting_point          136-137deg.C
_cell_formula_units_Z            4
loop_
_atom_site_label
_atom_site_type_symbol
_atom_site_fract_x
_atom_site_fract_y
_atom_site_fract_z
N1 N 0.34943(29) 0.05531(23) 0.20818(17)
H1 H 0.41934(29) 0.08728(23) 0.21087(17)
O1 O 0.19585(25) 0.02612(21) 0.13469(15)
B1 B 0.09197(44) 0.02889(36) 0.20997(26)
B2 B 0.28692(44) -0.00458(36) 0.28875(27)
H2 H 0.1691(34) -0.0003(27) 0.2767(21)
C1 C 0.30594(36) 0.06093(28) 0.13740(22)
C2 C 0.00176(39) 0.14575(31) 0.21367(23)
H3 H 0.05803(39) 0.19868(31) 0.21196(23)
C3 C -0.07042(41) 0.16930(32) 0.13456(24)
H4 H -0.00481(41) 0.17907(32) 0.08794(24)
H5 H -0.13303(41) 0.23696(32) 0.13620(24)
C4 C -0.14248(41) 0.08048(33) 0.12027(25)
H6 H -0.16341(41) 0.09345(33) 0.06422(25)
H7 H -0.22533(41) 0.08710(33) 0.15569(25)
C5 C -0.06663(42) -0.03765(33) 0.13701(25)
H8 H -0.00039(42) -0.05204(33) 0.09087(25)
H9 H -0.12745(42) -0.08742(33) 0.14048(25)
C6 C 0.00234(37) -0.06145(31) 0.21631(23)
H10 H 0.05999(37) -0.13176(31) 0.21729(23)
C7 C -0.09496(39) -0.05822(31) 0.29618(24)
H11 H -0.04480(39) -0.08641(31) 0.34216(24)
H12 H -0.15573(39) -0.10662(31) 0.29468(24)
C8 C -0.17480(40) 0.05549(32) 0.31178(25)
H13 H -0.21571(40) 0.05237(32) 0.36794(25)
H14 H -0.24480(40) 0.07419(32) 0.27642(25)
C9 C -0.09172(41) 0.14580(32) 0.29488(24)
H15 H -0.15038(41) 0.21561(32) 0.29458(24)
H16 H -0.03905(41) 0.13802(32) 0.33990(24)
C10 C 0.34700(37) -0.13098(31) 0.30596(23)
H17 H 0.34322(37) -0.16444(31) 0.25772(23)
C11 C 0.26174(40) -0.18361(31) 0.37935(23)
H18 H 0.30565(40) -0.25768(31) 0.39335(23)
H19 H 0.17746(40) -0.18639(31) 0.36175(23)
C12 C 0.23321(42) -0.12539(31) 0.45742(24)
H20 H 0.31080(42) -0.14508(31) 0.48659(24)
H21 H 0.16063(42) -0.15116(31) 0.49275(24)
C13 C 0.20048(42) -0.00075(32) 0.44121(24)
H22 H 0.20747(42) 0.02957(32) 0.49034(24)
H23 H 0.10904(42) 0.01929(32) 0.43009(24)
C14 C 0.28819(41) 0.05145(31) 0.36903(23)
H24 H 0.25108(41) 0.12790(31) 0.35845(23)
C15 C 0.43576(43) 0.03772(34) 0.38437(25)
H25 H 0.43873(43) 0.06526(34) 0.43536(25)
H26 H 0.47970(43) 0.08209(34) 0.34089(25)
C16 C 0.51558(42) -0.07925(33) 0.38789(25)
H27 H 0.48910(42) -0.11858(33) 0.44010(25)
H28 H 0.60896(42) -0.07770(33) 0.38551(25)
C17 C 0.49380(38) -0.14110(33) 0.31910(24)
H29 H 0.54138(38) -0.11373(33) 0.26852(24)
H30 H 0.53174(38) -0.21706(33) 0.33162(24)
C18 C 0.30230(39) 0.13460(30) -0.01013(22)
H31 H 0.21252(39) 0.12195(30) -0.00623(22)
C19 C 0.36170(41) 0.18091(31) -0.08342(23)
H32 H 0.31301(41) 0.20026(31) -0.13076(23)
C20 C 0.49036(40) 0.19878(30) -0.08928(24)
H33 H 0.53144(40) 0.23080(30) -0.14051(24)
C21 C 0.56115(40) 0.17029(31) -0.02155(24)
H34 H 0.65093(40) 0.18293(31) -0.02546(24)
C22 C 0.50220(38) 0.12438(30) 0.05260(24)
H35 H 0.55090(38) 0.10502(30) 0.09993(24)
C23 C 0.37249(36) 0.10681(28) 0.05869(21)
N2 N 0.13181(27) 0.60030(22) 0.27025(17)
H36 H 0.06977(27) 0.66064(22) 0.25995(17)
O2 O 0.26286(28) 0.49589(24) 0.36154(17)
B3 B 0.37865(44) 0.47078(37) 0.29378(27)
B4 B 0.20477(43) 0.54062(35) 0.19870(27)
H37 H 0.3269(33) 0.4935(27) 0.2236(20)
C24 C 0.15530(37) 0.56735(29) 0.34543(25)
C25 C 0.45121(38) 0.34652(31) 0.29800(23)
H38 H 0.38569(38) 0.30166(31) 0.29835(23)
C26 C 0.51426(41) 0.31820(32) 0.38044(24)
H39 H 0.56514(41) 0.24515(32) 0.38239(24)
H40 H 0.44369(41) 0.31896(32) 0.42522(24)
C27 C 0.60350(40) 0.39581(32) 0.39454(25)
H41 H 0.68783(40) 0.37694(32) 0.36203(25)
H42 H 0.61963(40) 0.38381(32) 0.45151(25)
C28 C 0.54946(42) 0.51832(32) 0.37149(24)
H43 H 0.62132(42) 0.55770(32) 0.36823(24)
H44 H 0.48347(42) 0.54319(32) 0.41519(24)
C29 C 0.48696(39) 0.54634(31) 0.28911(24)
H45 H 0.44202(39) 0.62131(31) 0.28482(24)
C30 C 0.58929(39) 0.53009(31) 0.21248(24)
H46 H 0.65874(39) 0.57068(31) 0.21343(24)
H47 H 0.54478(39) 0.56010(31) 0.16444(24)
C31 C 0.65210(40) 0.41098(32) 0.20341(25)
H48 H 0.71973(40) 0.38830(32) 0.24030(25)
H49 H 0.69527(40) 0.40673(32) 0.14811(25)
C32 C 0.55456(39) 0.33061(31) 0.22142(24)
H50 H 0.50813(39) 0.33608(31) 0.17383(24)
H51 H 0.60486(39) 0.25754(31) 0.22937(24)
C33 C 0.23384(40) 0.61992(31) 0.11698(23)
H52 H 0.28055(40) 0.67311(31) 0.12997(23)
C34 C 0.32360(43) 0.55354(34) 0.05279(24)
H53 H 0.41090(43) 0.52945(34) 0.07050(24)
H54 H 0.33291(43) 0.60116(34) 0.00196(24)
C35 C 0.27291(42) 0.45275(33) 0.03530(24)
H55 H 0.34486(42) 0.40729(33) 0.00587(24)
H56 H 0.20356(42) 0.47709(33) -0.00025(24)
C36 C 0.21887(42) 0.38393(32) 0.11274(25)
H57 H 0.29296(42) 0.33759(32) 0.13721(25)
H58 H 0.16679(42) 0.33742(32) 0.09571(25)
C37 C 0.13127(38) 0.44982(31) 0.17835(24)
H59 H 0.11642(38) 0.40126(31) 0.22806(24)
C38 C -0.00391(41) 0.50931(36) 0.15095(27)
H60 H -0.05944(41) 0.53810(36) 0.19750(27)
H61 H -0.04644(41) 0.45633(36) 0.13366(27)
C39 C 0.00328(44) 0.60343(36) 0.08098(28)
H62 H -0.08444(44) 0.64637(36) 0.07698(28)
H63 H 0.03224(44) 0.57279(36) 0.02997(28)
C40 C 0.09892(46) 0.67843(34) 0.09083(26)
H64 H 0.11371(46) 0.72379(34) 0.03944(26)
H65 H 0.05553(46) 0.72574(34) 0.13120(26)
C41 C 0.06147(46) 0.61047(32) 0.41409(29)
C42 C 0.09642(66) 0.60446(50) 0.49089(34)
H66 H 0.18542(66) 0.57019(50) 0.50180(34)
C43 C 0.0070(12) 0.64718(80) 0.55164(56)
H67 H 0.0331(12) 0.64247(80) 0.60600(56)
C44 C -0.1106(15) 0.69212(67) 0.54324(75)
H68 H -0.1735(15) 0.72170(67) 0.58669(75)
C45 C -0.15737(80) 0.70206(49) 0.46325(70)
H69 H -0.24637(80) 0.73634(49) 0.45235(70)
C46 C -0.06596(60) 0.66191(43) 0.40085(46)
H70 H -0.09210(60) 0.66660(43) 0.34649(46)
loop_
_geom_bond_atom_site_label_1
_geom_bond_atom_site_label_2
_geom_bond_site_symmetry_1
_geom_bond_site_symmetry_2
N1 H1 1_555 1_555
O1 B1 1_555 1_555
B1 H2 1_555 1_555
B2 N1 1_555 1_555
H2 B2 1_555 1_555
C1 N1 1_555 1_555
C2 B1 1_555 1_555
H3 C2 1_555 1_555
C3 C2 1_555 1_555
H4 C3 1_555 1_555
H5 C3 1_555 1_555
C4 C3 1_555 1_555
H6 C4 1_555 1_555
H7 C4 1_555 1_555
C5 C4 1_555 1_555
H8 C5 1_555 1_555
H9 C5 1_555 1_555
C6 B1 1_555 1_555
H10 C6 1_555 1_555
C7 C6 1_555 1_555
H11 C7 1_555 1_555
H12 C7 1_555 1_555
C8 C7 1_555 1_555
H13 C8 1_555 1_555
H14 C8 1_555 1_555
C9 C2 1_555 1_555
H15 C9 1_555 1_555
H16 C9 1_555 1_555
C10 B2 1_555 1_555
H17 C10 1_555 1_555
C11 C10 1_555 1_555
H18 C11 1_555 1_555
H19 C11 1_555 1_555
C12 C11 1_555 1_555
H20 C12 1_555 1_555
H21 C12 1_555 1_555
C13 C12 1_555 1_555
H22 C13 1_555 1_555
H23 C13 1_555 1_555
C14 B2 1_555 1_555
H24 C14 1_555 1_555
C15 C14 1_555 1_555
H25 C15 1_555 1_555
H26 C15 1_555 1_555
C16 C15 1_555 1_555
H27 C16 1_555 1_555
H28 C16 1_555 1_555
C17 C10 1_555 1_555
H29 C17 1_555 1_555
H30 C17 1_555 1_555
C18 H31 1_555 1_555
C19 C18 1_555 1_555
H32 C19 1_555 1_555
C20 C19 1_555 1_555
H33 C20 1_555 1_555
C21 C20 1_555 1_555
H34 C21 1_555 1_555
C22 C21 1_555 1_555
H35 C22 1_555 1_555
C23 C1 1_555 1_555
N2 H36 1_555 1_555
O2 B3 1_555 1_555
B3 H37 1_555 1_555
B4 N2 1_555 1_555
H37 B4 1_555 1_555
C24 N2 1_555 1_555
C25 B3 1_555 1_555
H38 C25 1_555 1_555
C26 C25 1_555 1_555
H39 C26 1_555 1_555
H40 C26 1_555 1_555
C27 C26 1_555 1_555
H41 C27 1_555 1_555
H42 C27 1_555 1_555
C28 C27 1_555 1_555
H43 C28 1_555 1_555
H44 C28 1_555 1_555
C29 B3 1_555 1_555
H45 C29 1_555 1_555
C30 C29 1_555 1_555
H46 C30 1_555 1_555
H47 C30 1_555 1_555
C31 C30 1_555 1_555
H48 C31 1_555 1_555
H49 C31 1_555 1_555
C32 C25 1_555 1_555
H50 C32 1_555 1_555
H51 C32 1_555 1_555
C33 B4 1_555 1_555
H52 C33 1_555 1_555
C34 C33 1_555 1_555
H53 C34 1_555 1_555
H54 C34 1_555 1_555
C35 C34 1_555 1_555
H55 C35 1_555 1_555
H56 C35 1_555 1_555
C36 C35 1_555 1_555
H57 C36 1_555 1_555
H58 C36 1_555 1_555
C37 B4 1_555 1_555
H59 C37 1_555 1_555
C38 C37 1_555 1_555
H60 C38 1_555 1_555
H61 C38 1_555 1_555
C39 C38 1_555 1_555
H62 C39 1_555 1_555
H63 C39 1_555 1_555
C40 C33 1_555 1_555
H64 C40 1_555 1_555
H65 C40 1_555 1_555
C41 C24 1_555 1_555
C42 C41 1_555 1_555
H66 C42 1_555 1_555
C43 C42 1_555 1_555
H67 C43 1_555 1_555
C44 C43 1_555 1_555
H68 C44 1_555 1_555
C45 C44 1_555 1_555
H69 C45 1_555 1_555
C46 C41 1_555 1_555
H70 C46 1_555 1_555
O1 C1 1_555 1_555
C5 C6 1_555 1_555
C8 C9 1_555 1_555
C13 C14 1_555 1_555
C16 C17 1_555 1_555
C18 C23 1_555 1_555
C22 C23 1_555 1_555
O2 C24 1_555 1_555
C28 C29 1_555 1_555
C31 C32 1_555 1_555
C36 C37 1_555 1_555
C39 C40 1_555 1_555
C45 C46 1_555 1_555

#END
