
#######################################################################
#
#                 Cambridge Crystallographic Data Centre
#                                CCDC 
#
#######################################################################
#
# If this CIF has been generated from an entry in the Cambridge 
# Structural Database, then it will include bibliographic, chemical, 
# crystal, experimental, refinement or atomic coordinate data resulting 
# from the CCDC's data processing and validation procedures.
#
#######################################################################

data_WAHWAD
_chemical_formula_moiety         'C22 H25 B1 N2 O1'
_chemical_name_systematic        
2,2-(1,5-Cyclo-octanediyl)-2,3-dihydro-4,6-diphenyl-1,5,3,2-oxaza-azoniaboratin
_symmetry_cell_setting           monoclinic
_symmetry_space_group_name_H-M   'C 2/c'
_symmetry_Int_Tables_number      15
_space_group_name_Hall           '-C 2yn'
loop_
_symmetry_equiv_pos_site_id
_symmetry_equiv_pos_as_xyz
1 x,y,z
2 1/2+x,1/2+y,z
3 -x,y,1/2-z
4 1/2-x,1/2+y,1/2-z
5 -x,-y,-z
6 1/2-x,1/2-y,-z
7 x,-y,1/2+z
8 1/2+x,1/2-y,1/2+z
_cell_length_a                   14.748(12)
_cell_length_b                   19.480(16)
_cell_length_c                   6.886(3)
_cell_angle_alpha                90
_cell_angle_beta                 115.62(5)
_cell_angle_gamma                90
_cell_volume                     1783.78
_exptl_crystal_colour            orange
_chemical_melting_point          220-222deg.C
_cell_formula_units_Z            4
loop_
_atom_site_label
_atom_site_type_symbol
_atom_site_fract_x
_atom_site_fract_y
_atom_site_fract_z
B1 B 0.00000 0.34832(57) 0.25000
N1 N -0.09234(46) 0.39752(26) 0.16696(98)
N2 N 0.00000 0.49734(42) 0.25000
C1 C 0.00027(59) 0.29914(38) 0.4373(12)
H1 H 0.00138(59) 0.32820(38) 0.5509(12)
C2 C -0.09624(64) 0.25742(40) 0.3489(11)
H2 H -0.15070(64) 0.28898(40) 0.3188(11)
H3 H -0.09487(64) 0.22653(40) 0.4587(11)
C3 C -0.11645(67) 0.21692(38) 0.1444(13)
H4 H -0.18531(67) 0.20215(38) 0.0827(13)
H5 H -0.07497(67) 0.17657(38) 0.1837(13)
C4 C 0.09689(71) 0.25502(40) 0.5266(13)
H6 H 0.15254(71) 0.28533(40) 0.6011(13)
H7 H 0.09426(71) 0.22287(40) 0.6297(13)
C5 C -0.08567(58) 0.46293(35) 0.1763(10)
C6 C -0.17784(25) 0.57385(19) 0.09197(64)
C7 C -0.26659(25) 0.61169(19) 0.02402(64)
C8 C -0.35821(25) 0.57806(19) -0.03478(64)
C9 C -0.36107(25) 0.50659(19) -0.02565(64)
C10 C -0.27232(25) 0.46876(19) 0.04229(64)
C11 C -0.18070(25) 0.50239(19) 0.10110(64)
H8 H -0.11479(25) 0.59700(19) 0.13244(64)
H9 H -0.26462(25) 0.66087(19) 0.01774(64)
H10 H -0.41929(25) 0.60409(19) -0.08154(64)
H11 H -0.42412(25) 0.48345(19) -0.06612(64)
H12 H -0.27429(25) 0.41958(19) 0.04858(64)
C5B C 0.08567(58) 0.46293(35) 0.3237(10)
N1B N 0.09234(46) 0.39752(26) 0.33304(98)
C4B C -0.09689(71) 0.25502(40) -0.0266(13)
C1B C -0.00027(59) 0.29914(38) 0.0627(12)
H1B H -0.00138(59) 0.32820(38) -0.0509(12)
C2B C 0.09624(64) 0.25742(40) 0.1511(11)
H2B H 0.15070(64) 0.28898(40) 0.1812(11)
H3B H 0.09487(64) 0.22653(40) 0.0413(11)
C3B C 0.11645(67) 0.21692(38) 0.3556(13)
H4B H 0.18531(67) 0.20215(38) 0.4173(13)
H5B H 0.07497(67) 0.17657(38) 0.3163(13)
H6B H -0.15254(71) 0.28533(40) -0.1011(13)
H7B H -0.09426(71) 0.22287(40) -0.1297(13)
C11B C 0.18070(25) 0.50239(19) 0.39890(64)
C6B C 0.17784(25) 0.57385(19) 0.40803(64)
C7B C 0.26659(25) 0.61169(19) 0.47598(64)
C8B C 0.35821(25) 0.57806(19) 0.53478(64)
C9B C 0.36107(25) 0.50659(19) 0.52565(64)
C10B C 0.27232(25) 0.46876(19) 0.45771(64)
H12B H 0.27429(25) 0.41958(19) 0.45142(64)
H11B H 0.42412(25) 0.48345(19) 0.56612(64)
H10B H 0.41929(25) 0.60409(19) 0.58154(64)
H9B H 0.26462(25) 0.66087(19) 0.48226(64)
H8B H 0.11479(25) 0.59700(19) 0.36756(64)
loop_
_geom_bond_atom_site_label_1
_geom_bond_atom_site_label_2
_geom_bond_site_symmetry_1
_geom_bond_site_symmetry_2
B1 N1 1_555 1_555
N1 C5 1_555 1_555
N2 C5 1_555 1_555
C1 B1 1_555 1_555
H1 C1 1_555 1_555
C2 C1 1_555 1_555
H2 C2 1_555 1_555
H3 C2 1_555 1_555
C3 C2 1_555 1_555
H4 C3 1_555 1_555
H5 C3 1_555 1_555
C4 C1 1_555 1_555
H6 C4 1_555 1_555
H7 C4 1_555 1_555
C5 C11 1_555 1_555
C6 C7 1_555 1_555
C7 C8 1_555 1_555
C8 C9 1_555 1_555
C9 C10 1_555 1_555
C10 C11 1_555 1_555
C11 C6 1_555 1_555
H8 C6 1_555 1_555
H9 C7 1_555 1_555
H10 C8 1_555 1_555
H11 C9 1_555 1_555
H12 C10 1_555 1_555
C5B N2 1_555 1_555
N1B B1 1_555 1_555
C4B C3 1_555 1_555
C1B B1 1_555 1_555
H1B C1B 1_555 1_555
C2B C1B 1_555 1_555
H2B C2B 1_555 1_555
H3B C2B 1_555 1_555
C3B C4 1_555 1_555
H4B C3B 1_555 1_555
H5B C3B 1_555 1_555
H6B C4B 1_555 1_555
H7B C4B 1_555 1_555
C11B C5B 1_555 1_555
C6B C11B 1_555 1_555
C7B C6B 1_555 1_555
C8B C7B 1_555 1_555
C9B C8B 1_555 1_555
C10B C11B 1_555 1_555
H12B C10B 1_555 1_555
H11B C9B 1_555 1_555
H10B C8B 1_555 1_555
H9B C7B 1_555 1_555
H8B C6B 1_555 1_555
C5B N1B 1_555 1_555
C4B C1B 1_555 1_555
C2B C3B 1_555 1_555
C9B C10B 1_555 1_555

#END
