
#######################################################################
#
#                 Cambridge Crystallographic Data Centre
#                                CCDC 
#
#######################################################################
#
# If this CIF has been generated from an entry in the Cambridge 
# Structural Database, then it will include bibliographic, chemical, 
# crystal, experimental, refinement or atomic coordinate data resulting 
# from the CCDC's data processing and validation procedures.
#
#######################################################################

data_WAJMAW
_chemical_formula_moiety         '1.5(C14 H12 S10 Se2 1+),1.5(I3 1-)'
_chemical_name_systematic        
'2,5-bis(4,5-bis(Methylthio)-1,3-dithiol-2-ylidene)-1,3-diselena-4,6-dithiapentalene tri-iodide'
_symmetry_cell_setting           triclinic
_symmetry_space_group_name_H-M   'P -1'
_symmetry_Int_Tables_number      2
_space_group_name_Hall           '-P 1'
loop_
_symmetry_equiv_pos_site_id
_symmetry_equiv_pos_as_xyz
1 x,y,z
2 -x,-y,-z
_cell_length_a                   9.9035(8)
_cell_length_b                   13.871(2)
_cell_length_c                   15.586(2)
_cell_angle_alpha                98.449(4)
_cell_angle_beta                 91.074(2)
_cell_angle_gamma                105.0883(13)
_cell_volume                     2041.18
_exptl_crystal_colour            black
_exptl_crystal_description       needle
_cell_formula_units_Z            2
_exptl_crystal_preparation       insulator
loop_
_atom_site_label
_atom_site_type_symbol
_atom_site_fract_x
_atom_site_fract_y
_atom_site_fract_z
I4 I 1.0000 0.0000 0.5000
I5 I 1.06336(6) 0.15350(5) 0.38634(4)
I5A I 0.93664(6) -0.15350(5) 0.61366(4)
Se1 Se 0.65949(11) -0.01789(9) 0.31049(7)
Se2 Se 0.33906(11) -0.02068(9) 0.30755(7)
Se3 Se 0.60333(11) -0.17777(9) 0.14071(7)
Se4 Se 0.28113(11) -0.18092(8) 0.13720(7)
S1 S 0.7839(2) 0.3033(2) 0.6490(1)
S2 S 0.4632(2) 0.2981(2) 0.6523(1)
S3 S 0.7078(2) 0.1431(2) 0.48812(12)
S4 S 0.4118(2) 0.1426(2) 0.48752(12)
S5 S 0.5359(2) -0.3368(2) -0.04004(13)
S6 S 0.2375(2) -0.3406(2) -0.04487(12)
S7 S 0.4855(3) -0.5216(2) -0.1801(2)
S8 S 0.1585(3) -0.5214(2) -0.1867(2)
C1 C 0.9474(8) 0.2881(9) 0.6108(6)
C2 C 0.2938(10) 0.2972(10) 0.6162(7)
C3 C 0.6619(7) 0.2282(6) 0.5688(5)
C4 C 0.5250(7) 0.2263(6) 0.5691(5)
C5 C 0.5410(6) 0.0950(5) 0.4367(4)
C6 C 0.5141(7) 0.0271(6) 0.3630(4)
C7 C 0.5377(7) -0.1007(5) 0.2269(4)
C8 C 0.4014(7) -0.1031(6) 0.2252(5)
C9 C 0.4261(7) -0.2258(5) 0.0838(4)
C10 C 0.4024(8) -0.2920(6) 0.0101(5)
C11 C 0.4220(9) -0.4346(5) -0.1106(4)
C12 C 0.2864(8) -0.4362(5) -0.1135(5)
C13 C 0.6567(13) -0.5074(9) -0.1352(8)
C14 C 0.042(2) -0.580(2) -0.1167(10)
H1 H 0.9951 0.3461 0.5849
H2 H 1.0071 0.2822 0.6571
H3 H 0.9334 0.2296 0.5673
H4 H 0.2977 0.3559 0.5885
H5 H 0.2349 0.2990 0.6632
H6 H 0.2539 0.2386 0.5743
H7 H 0.7185 -0.4439 -0.1446
H8 H 0.6565 -0.5081 -0.0741
H9 H 0.6949 -0.5602 -0.1617
H10 H -0.0463 -0.5626 -0.1209
H11 H 0.0775 -0.5607 -0.0577
H12 H 0.0212 -0.6525 -0.1306
Se5 Se 0.69008(10) 0.08023(9) 0.08627(7)
Se6 Se 0.36934(10) 0.07646(8) 0.08576(7)
S9 S 0.8220(2) 0.4137(2) 0.4170(2)
S10 S 0.4980(3) 0.4072(2) 0.4222(1)
S11 S 0.7421(2) 0.2436(2) 0.26378(12)
S12 S 0.4455(2) 0.2420(2) 0.26546(12)
C15 C 0.9832(9) 0.4170(7) 0.3654(7)
C16 C 0.3418(9) 0.4232(7) 0.3756(6)
C17 C 0.6977(8) 0.3342(6) 0.3400(4)
C18 C 0.5605(8) 0.3330(6) 0.3420(5)
C19 C 0.5729(7) 0.1954(5) 0.2141(4)
C20 C 0.5480(7) 0.1275(6) 0.1392(4)
C21 C 0.5679(7) 0.0013(6) 0.0006(4)
H13 H 1.0119 0.4769 0.3383
H14 H 1.0561 0.4180 0.4063
H15 H 0.9722 0.3596 0.3209
H16 H 0.3617 0.4816 0.3473
H17 H 0.2770 0.4307 0.4189
H18 H 0.2976 0.3654 0.3329
C21A C 0.4321(7) -0.0013(6) -0.0006(4)
Se5A Se 0.30992(10) -0.08023(9) -0.08627(7)
C20A C 0.4520(7) -0.1275(6) -0.1392(4)
Se6A Se 0.63066(10) -0.07646(8) -0.08576(7)
C19A C 0.4271(7) -0.1954(5) -0.2141(4)
S11A S 0.2579(2) -0.2436(2) -0.26378(12)
C17A C 0.3023(8) -0.3342(6) -0.3400(4)
S9A S 0.1780(2) -0.4137(2) -0.4170(2)
C15A C 0.0168(9) -0.4170(7) -0.3654(7)
H13A H -0.0119 -0.4769 -0.3383
H14A H -0.0561 -0.4180 -0.4063
H15A H 0.0278 -0.3596 -0.3209
C18A C 0.4395(8) -0.3330(6) -0.3420(5)
S10A S 0.5020(3) -0.4072(2) -0.4222(1)
C16A C 0.6582(9) -0.4232(7) -0.3756(6)
H16A H 0.6383 -0.4816 -0.3473
H17A H 0.7230 -0.4307 -0.4189
H18A H 0.7024 -0.3654 -0.3329
S12A S 0.5545(2) -0.2420(2) -0.26546(12)
I1 I 0.96898(8) -0.11012(7) 0.21850(4)
I2 I 0.94324(6) -0.16428(6) 0.02620(4)
I3 I 0.91821(7) -0.22197(9) -0.15850(4)
loop_
_geom_bond_atom_site_label_1
_geom_bond_atom_site_label_2
_geom_bond_site_symmetry_1
_geom_bond_site_symmetry_2
I1 I2 1_555 1_555
I2 I3 1_555 1_555
I4 I5 1_555 1_555
Se1 C6 1_555 1_555
Se2 C6 1_555 1_555
Se3 C7 1_555 1_555
Se4 C8 1_555 1_555
Se5 C20 1_555 1_555
Se6 C20 1_555 1_555
S1 C1 1_555 1_555
S2 C2 1_555 1_555
S3 C3 1_555 1_555
S4 C4 1_555 1_555
S5 C10 1_555 1_555
S6 C10 1_555 1_555
S7 C11 1_555 1_555
S8 C12 1_555 1_555
S9 C15 1_555 1_555
S10 C16 1_555 1_555
S11 C17 1_555 1_555
S12 C18 1_555 1_555
C1 H1 1_555 1_555
C2 H4 1_555 1_555
C3 S1 1_555 1_555
C4 S2 1_555 1_555
C5 S3 1_555 1_555
C6 C5 1_555 1_555
C7 Se1 1_555 1_555
C8 Se2 1_555 1_555
C9 Se3 1_555 1_555
C10 C9 1_555 1_555
C11 S5 1_555 1_555
C12 S6 1_555 1_555
C13 S7 1_555 1_555
C14 S8 1_555 1_555
C15 H13 1_555 1_555
C16 H16 1_555 1_555
C17 S9 1_555 1_555
C18 S10 1_555 1_555
C19 S11 1_555 1_555
C20 C19 1_555 1_555
C21 Se5 1_555 1_555
H2 C1 1_555 1_555
H3 C1 1_555 1_555
H5 C2 1_555 1_555
H6 C2 1_555 1_555
H7 C13 1_555 1_555
H8 C13 1_555 1_555
H9 C13 1_555 1_555
H10 C14 1_555 1_555
H11 C14 1_555 1_555
H12 C14 1_555 1_555
H14 C15 1_555 1_555
H15 C15 1_555 1_555
H17 C16 1_555 1_555
H18 C16 1_555 1_555
I5A I4 1_555 1_555
C21A Se6 1_555 1_555
Se5A C21A 1_555 1_555
C20A Se5A 1_555 1_555
Se6A C21 1_555 1_555
C19A C20A 1_555 1_555
S11A C19A 1_555 1_555
C17A S11A 1_555 1_555
S9A C17A 1_555 1_555
C15A S9A 1_555 1_555
H13A C15A 1_555 1_555
H14A C15A 1_555 1_555
H15A C15A 1_555 1_555
C18A C17A 1_555 1_555
S10A C18A 1_555 1_555
C16A S10A 1_555 1_555
H16A C16A 1_555 1_555
H17A C16A 1_555 1_555
H18A C16A 1_555 1_555
S12A C19A 1_555 1_555
Se4 C9 1_555 1_555
S4 C5 1_555 1_555
S12 C19 1_555 1_555
C3 C4 1_555 1_555
C7 C8 1_555 1_555
C11 C12 1_555 1_555
C17 C18 1_555 1_555
C21 C21A 1_555 1_555
C20A Se6A 1_555 1_555
C18A S12A 1_555 1_555

#END
