
#######################################################################
#
#                 Cambridge Crystallographic Data Centre
#                                CCDC 
#
#######################################################################
#
# If this CIF has been generated from an entry in the Cambridge 
# Structural Database, then it will include bibliographic, chemical, 
# crystal, experimental, refinement or atomic coordinate data resulting 
# from the CCDC's data processing and validation procedures.
#
#######################################################################

data_WAKMAX01
_chemical_formula_moiety         'C9 H9 N1 O1 S1'
_chemical_name_systematic        2-methyl-2H-1,4-benzothiazin-3(4H)-one
_symmetry_cell_setting           triclinic
_symmetry_space_group_name_H-M   'P -1'
_symmetry_Int_Tables_number      2
_space_group_name_Hall           '-P 1'
loop_
_symmetry_equiv_pos_site_id
_symmetry_equiv_pos_as_xyz
1 x,y,z
2 -x,-y,-z
_cell_length_a                   4.6992(6)
_cell_length_b                   8.6605(11)
_cell_length_c                   11.5069(15)
_cell_angle_alpha                112.040(2)
_cell_angle_beta                 91.683(2)
_cell_angle_gamma                93.911(2)
_cell_volume                     432.302
_exptl_crystal_colour            colorless
_chemical_melting_point          '124-126 deg.C'
_cell_formula_units_Z            2
loop_
_atom_site_label
_atom_site_type_symbol
_atom_site_fract_x
_atom_site_fract_y
_atom_site_fract_z
S1 S 0.37327(12) 0.85048(7) 0.10909(5)
C1 C 0.6952(5) 0.6169(3) 0.1414(2)
H1 H 0.7559 0.5985 0.0615
C2 C 0.7882(5) 0.5225(3) 0.2046(2)
H2 H 0.9086 0.4390 0.1671
C3 C 0.7031(5) 0.5512(3) 0.3244(2)
H3 H 0.7666 0.4870 0.3674
C4 C 0.5241(5) 0.6747(3) 0.3804(2)
H4 H 0.4701 0.6948 0.4615
N1 N 0.2317(3) 0.8884(2) 0.37207(14)
H5 H 0.1500 0.8800 0.4356
C5 C 0.1592(4) 1.0138(2) 0.33874(16)
C6 C 0.3251(4) 1.0448(2) 0.23742(18)
H6 H 0.5143 1.0984 0.2744
C7 C 0.5112(4) 0.7402(2) 0.19510(18)
C8 C 0.4247(4) 0.7691(2) 0.31575(17)
O1 O -0.0237(3) 1.10572(18) 0.39276(12)
C9 C 0.1814(6) 1.1590(3) 0.1864(2)
H7 H -0.0017 1.1067 0.1468
H8 H 0.2981 1.1801 0.1260
H9 H 0.1564 1.2628 0.2540
loop_
_geom_bond_atom_site_label_1
_geom_bond_atom_site_label_2
_geom_bond_site_symmetry_1
_geom_bond_site_symmetry_2
S1 C6 1_555 1_555
C1 H1 1_555 1_555
C2 C1 1_555 1_555
H2 C2 1_555 1_555
C3 C2 1_555 1_555
H3 C3 1_555 1_555
C4 C3 1_555 1_555
H4 C4 1_555 1_555
N1 H5 1_555 1_555
C5 N1 1_555 1_555
C6 C5 1_555 1_555
H6 C6 1_555 1_555
C7 S1 1_555 1_555
C8 C4 1_555 1_555
O1 C5 1_555 1_555
C9 C6 1_555 1_555
H7 C9 1_555 1_555
H8 C9 1_555 1_555
H9 C9 1_555 1_555
C1 C7 1_555 1_555
N1 C8 1_555 1_555
C7 C8 1_555 1_555

#END
