
#######################################################################
#
#                 Cambridge Crystallographic Data Centre
#                                CCDC 
#
#######################################################################
#
# If this CIF has been generated from an entry in the Cambridge 
# Structural Database, then it will include bibliographic, chemical, 
# crystal, experimental, refinement or atomic coordinate data resulting 
# from the CCDC's data processing and validation procedures.
#
#######################################################################

data_WAKPAC
_chemical_formula_moiety         'C13 H17 N1 O6'
_chemical_name_systematic        
'2-(2-(2-ethoxypyridin-3-yl)ethyl)-2-hydroxysuccinic acid'
_chemical_properties_biological  'citrate transport inhibitor activity'
_symmetry_cell_setting           orthorhombic
_symmetry_space_group_name_H-M   'P 21 21 21'
_symmetry_Int_Tables_number      19
_space_group_name_Hall           'P 2ac 2ab'
loop_
_symmetry_equiv_pos_site_id
_symmetry_equiv_pos_as_xyz
1 x,y,z
2 1/2-x,-y,1/2+z
3 -x,1/2+y,1/2-z
4 1/2+x,1/2-y,-z
_cell_length_a                   8.22650(10)
_cell_length_b                   12.2890(2)
_cell_length_c                   13.9051(2)
_cell_angle_alpha                90
_cell_angle_beta                 90
_cell_angle_gamma                90
_cell_volume                     1405.74
_exptl_crystal_colour            colorless
_exptl_crystal_description       rhombohedral
_cell_formula_units_Z            4
loop_
_atom_site_label
_atom_site_type_symbol
_atom_site_fract_x
_atom_site_fract_y
_atom_site_fract_z
C1 C 0.0753(4) 0.5620(3) 0.20533(17)
H1 H 0.0665 0.5575 0.1366
H2 H 0.1865 0.5512 0.2240
H3 H 0.0396 0.6324 0.2265
C2 C -0.0280(3) 0.47647(18) 0.25013(13)
H4 H -0.1406 0.4861 0.2313
H5 H 0.0074 0.4048 0.2297
C3 C -0.09396(18) 0.41887(12) 0.40977(11)
C4 C -0.2628(2) 0.27293(14) 0.43213(14)
H6 H -0.3270 0.2182 0.4059
C5 C -0.2498(3) 0.27973(15) 0.52986(14)
H7 H -0.3033 0.2305 0.5696
C6 C -0.1543(2) 0.36227(14) 0.56837(11)
H8 H -0.1449 0.3688 0.6348
C7 C -0.07378(18) 0.43428(11) 0.50974(11)
C8 C 0.0331(2) 0.52355(12) 0.54932(11)
H9 H 0.1418 0.5154 0.5232
H10 H 0.0402 0.5157 0.6186
C9 C -0.0299(2) 0.63786(12) 0.52557(10)
H11 H -0.1477 0.6361 0.5241
H12 H 0.0074 0.6578 0.4618
C10 C 0.02490(19) 0.72603(11) 0.59725(10)
C11 C -0.04351(19) 0.69920(11) 0.69708(10)
C12 C -0.0350(2) 0.83625(12) 0.56143(10)
H13 H 0.0167 0.8517 0.5002
H14 H -0.1512 0.8316 0.5502
C13 C -0.0027(2) 0.92950(12) 0.62868(11)
N1 N -0.18681(17) 0.34182(11) 0.37234(10)
O1 O -0.01152(15) 0.48733(10) 0.35267(8)
O2 O 0.19691(14) 0.72498(10) 0.60282(9)
H15 H 0.231(4) 0.727(3) 0.6658(14)
O3 O -0.20151(15) 0.70283(12) 0.69994(9)
H16 H -0.249(4) 0.671(3) 0.7600(18)
O4 O 0.04441(16) 0.67507(9) 0.76352(7)
O5 O -0.0507(2) 1.02314(10) 0.59353(9)
H17 H -0.052(3) 1.0770(18) 0.6404(16)
O6 O 0.0617(3) 0.92148(12) 0.70466(10)
loop_
_geom_bond_atom_site_label_1
_geom_bond_atom_site_label_2
_geom_bond_site_symmetry_1
_geom_bond_site_symmetry_2
C1 H1 1_555 1_555
H2 C1 1_555 1_555
H3 C1 1_555 1_555
C2 C1 1_555 1_555
H4 C2 1_555 1_555
H5 C2 1_555 1_555
C3 C7 1_555 1_555
C4 H6 1_555 1_555
C5 C4 1_555 1_555
H7 C5 1_555 1_555
C6 C5 1_555 1_555
H8 C6 1_555 1_555
C7 C6 1_555 1_555
C8 C7 1_555 1_555
H9 C8 1_555 1_555
H10 C8 1_555 1_555
C9 C8 1_555 1_555
H11 C9 1_555 1_555
H12 C9 1_555 1_555
C10 C9 1_555 1_555
C11 C10 1_555 1_555
C12 C10 1_555 1_555
H13 C12 1_555 1_555
H14 C12 1_555 1_555
C13 C12 1_555 1_555
N1 C3 1_555 1_555
O1 C2 1_555 1_555
O2 C10 1_555 1_555
H15 O2 1_555 1_555
O3 C11 1_555 1_555
H16 O3 1_555 1_555
O4 C11 1_555 1_555
O5 C13 1_555 1_555
H17 O5 1_555 1_555
O6 C13 1_555 1_555
C3 O1 1_555 1_555
C4 N1 1_555 1_555

#END
