
#######################################################################
#
#                 Cambridge Crystallographic Data Centre
#                                CCDC 
#
#######################################################################
#
# If this CIF has been generated from an entry in the Cambridge 
# Structural Database, then it will include bibliographic, chemical, 
# crystal, experimental, refinement or atomic coordinate data resulting 
# from the CCDC's data processing and validation procedures.
#
#######################################################################

data_WALDUI
_chemical_formula_moiety         'C16 H16 O1'
_chemical_name_systematic        cis-1,2-Diphenylcyclobutanol
_symmetry_cell_setting           triclinic
_symmetry_space_group_name_H-M   'P -1'
_symmetry_Int_Tables_number      2
_space_group_name_Hall           '-P 1'
loop_
_symmetry_equiv_pos_site_id
_symmetry_equiv_pos_as_xyz
1 x,y,z
2 -x,-y,-z
_cell_length_a                   10.907(2)
_cell_length_b                   13.011(3)
_cell_length_c                   9.360(1)
_cell_angle_alpha                95.00(5)
_cell_angle_beta                 89.47(5)
_cell_angle_gamma                104.20(1)
_cell_volume                     1282.7
_exptl_crystal_colour            straw
_chemical_melting_point          89-90deg.C
_cell_formula_units_Z            4
loop_
_atom_site_label
_atom_site_type_symbol
_atom_site_fract_x
_atom_site_fract_y
_atom_site_fract_z
O1 O 0.0416(1) 0.4026(1) 0.1284(2)
C1 C 0.1108(2) 0.3301(2) 0.1690(2)
C2 C 0.2100(2) 0.3725(2) 0.2951(2)
C3 C 0.2993(2) 0.3157(2) 0.2097(3)
C4 C 0.2226(2) 0.3165(2) 0.0726(3)
C5 C 0.0141(2) 0.2301(2) 0.2011(2)
C6 C -0.0845(2) 0.2394(2) 0.2927(3)
C7 C -0.1713(2) 0.1502(2) 0.3330(3)
C8 C -0.1619(3) 0.0508(2) 0.2810(3)
C9 C -0.0661(3) 0.0405(2) 0.1917(3)
C10 C 0.0225(3) 0.1292(2) 0.1522(3)
C11 C 0.1719(2) 0.3513(1) 0.4454(2)
C12 C 0.1304(2) 0.4274(2) 0.5330(3)
C13 C 0.0842(2) 0.4085(2) 0.6672(3)
C14 C 0.0806(3) 0.3131(3) 0.7201(3)
C15 C 0.1222(3) 0.2374(2) 0.6370(3)
C16 C 0.1689(2) 0.2564(2) 0.5014(3)
H1 H 0.241(2) 0.448(2) 0.290(2)
H2 H 0.387(3) 0.350(2) 0.215(3)
H3 H 0.288(2) 0.237(2) 0.235(3)
H4 H 0.250(2) 0.382(2) 0.020(2)
H5 H 0.208(2) 0.253(2) 0.004(3)
H6 H -0.086(2) 0.313(2) 0.339(2)
H7 H -0.232(3) 0.157(2) 0.407(3)
H8 H -0.225(3) -0.012(2) 0.314(3)
H9 H -0.059(2) -0.030(2) 0.156(3)
H10 H 0.089(2) 0.122(2) 0.086(3)
H11 H 0.087(3) 0.469(2) 0.112(3)
H12 H 0.134(2) 0.492(2) 0.503(3)
H13 H 0.053(3) 0.471(2) 0.723(3)
H14 H 0.042(2) 0.299(2) 0.813(3)
H15 H 0.120(3) 0.175(2) 0.678(3)
H16 H 0.192(2) 0.204(2) 0.433(3)
O2 O -0.1536(1) 0.3905(1) -0.0693(2)
C17 C -0.2825(2) 0.3354(2) -0.0502(2)
C18 C -0.3051(2) 0.2169(2) -0.0143(3)
C19 C -0.4056(3) 0.2397(2) 0.0922(4)
C20 C -0.3419(3) 0.3577(2) 0.0941(3)
C21 C -0.3536(2) 0.3474(1) -0.1827(3)
C22 C -0.4700(2) 0.3741(2) -0.1788(4)
C23 C -0.5324(3) 0.3810(3) -0.3007(5)
C24 C -0.4834(3) 0.3615(2) -0.4328(5)
C25 C -0.3695(3) 0.3342(2) -0.4401(4)
C26 C -0.3053(2) 0.3272(2) -0.3167(3)
C27 C -0.3294(2) 0.1276(2) -0.1296(3)
C28 C -0.4486(3) 0.0804(2) -0.1860(4)
C29 C -0.4639(3) 0.0022(3) -0.2982(4)
C30 C -0.3638(3) -0.0305(2) -0.3576(4)
C31 C -0.2473(4) 0.0154(2) -0.3033(4)
C32 C -0.2305(3) 0.0928(2) -0.1911(4)
H17 H -0.237(2) 0.214(1) 0.039(2)
H18 H -0.496(3) 0.220(2) 0.033(3)
H19 H -0.406(3) 0.211(2) 0.184(3)
H20 H -0.280(3) 0.374(2) 0.163(3)
H21 H -0.395(3) 0.408(2) 0.099(3)
H22 H -0.500(2) 0.393(2) -0.079(3)
H23 H -0.610(4) 0.405(3) -0.307(1)
H24 H -0.532(3) 0.368(2) -0.519(3)
H25 H -0.334(2) 0.323(2) -0.532(3)
H26 H -0.221(2) 0.309(2) -0.321(2)
H27 H -0.102(3) 0.380(2) 0.004(4)
H28 H -0.523(3) 0.112(2) -0.144(3)
H29 H -0.542(4) -0.027(3) -0.338(4)
H30 H -0.378(2) -0.089(2) -0.436(3)
H31 H -0.179(4) -0.004(3) -0.345(4)
H32 H -0.156(3) 0.121(2) -0.147(3)
loop_
_geom_bond_atom_site_label_1
_geom_bond_atom_site_label_2
_geom_bond_site_symmetry_1
_geom_bond_site_symmetry_2
O1 C1 1_555 1_555
C1 C2 1_555 1_555
C2 C3 1_555 1_555
C3 C4 1_555 1_555
C4 C1 1_555 1_555
C5 C1 1_555 1_555
C6 C5 1_555 1_555
C7 C6 1_555 1_555
C8 C7 1_555 1_555
C9 C8 1_555 1_555
C10 C5 1_555 1_555
C11 C2 1_555 1_555
C12 C11 1_555 1_555
C13 C12 1_555 1_555
C14 C13 1_555 1_555
C15 C14 1_555 1_555
C16 C11 1_555 1_555
H1 C2 1_555 1_555
H2 C3 1_555 1_555
H3 C3 1_555 1_555
H4 C4 1_555 1_555
H5 C4 1_555 1_555
H6 C6 1_555 1_555
H7 C7 1_555 1_555
H8 C8 1_555 1_555
H9 C9 1_555 1_555
H10 C10 1_555 1_555
H11 O1 1_555 1_555
H12 C12 1_555 1_555
H13 C13 1_555 1_555
H14 C14 1_555 1_555
H15 C15 1_555 1_555
H16 C16 1_555 1_555
O2 C17 1_555 1_555
C17 C18 1_555 1_555
C18 C19 1_555 1_555
C19 C20 1_555 1_555
C20 C17 1_555 1_555
C21 C17 1_555 1_555
C22 C21 1_555 1_555
C23 C22 1_555 1_555
C24 C23 1_555 1_555
C25 C24 1_555 1_555
C26 C21 1_555 1_555
C27 C18 1_555 1_555
C28 C27 1_555 1_555
C29 C28 1_555 1_555
C30 C29 1_555 1_555
C31 C30 1_555 1_555
C32 C27 1_555 1_555
H17 C18 1_555 1_555
H18 C19 1_555 1_555
H19 C19 1_555 1_555
H20 C20 1_555 1_555
H21 C20 1_555 1_555
H22 C22 1_555 1_555
H23 C23 1_555 1_555
H24 C24 1_555 1_555
H25 C25 1_555 1_555
H26 C26 1_555 1_555
H27 O2 1_555 1_555
H28 C28 1_555 1_555
H29 C29 1_555 1_555
H30 C30 1_555 1_555
H31 C31 1_555 1_555
H32 C32 1_555 1_555
C9 C10 1_555 1_555
C15 C16 1_555 1_555
C25 C26 1_555 1_555
C31 C32 1_555 1_555

#END
