
#######################################################################
#
#                 Cambridge Crystallographic Data Centre
#                                CCDC 
#
#######################################################################
#
# If this CIF has been generated from an entry in the Cambridge 
# Structural Database, then it will include bibliographic, chemical, 
# crystal, experimental, refinement or atomic coordinate data resulting 
# from the CCDC's data processing and validation procedures.
#
#######################################################################

data_WALYOA
_chemical_formula_moiety         'C18 H16 Cl1 N3 O2,C2 H6 O1 S1'
_chemical_name_systematic        
'methyl (2-amino-3-(4-chlorophenyl)-1,4,5,6-tetrahydro-7H-indol-7-ylidene)(cyano)acetate dimethyl sulfoxide solvate'
_symmetry_cell_setting           triclinic
_symmetry_space_group_name_H-M   'P -1'
_symmetry_Int_Tables_number      2
_space_group_name_Hall           '-P 1'
loop_
_symmetry_equiv_pos_site_id
_symmetry_equiv_pos_as_xyz
1 x,y,z
2 -x,-y,-z
_cell_length_a                   9.3313(15)
_cell_length_b                   10.8187(16)
_cell_length_c                   12.1938(16)
_cell_angle_alpha                69.795(4)
_cell_angle_beta                 89.557(5)
_cell_angle_gamma                64.897(4)
_cell_volume                     1032.08
_exptl_crystal_colour            yellow
_exptl_crystal_description       block
_cell_formula_units_Z            2
loop_
_atom_site_label
_atom_site_type_symbol
_atom_site_fract_x
_atom_site_fract_y
_atom_site_fract_z
Cl1 Cl -0.04033(16) -0.26669(13) 0.14258(11)
O1 O 0.5422(4) 0.1255(3) 0.8167(2)
N1 N 0.3844(4) -0.0901(3) 0.6147(3)
O2 O 0.5413(4) -0.0580(3) 0.7751(3)
C1 C 0.2377(4) -0.0838(4) 0.4659(3)
N2 N 0.4190(5) -0.3233(3) 0.6282(3)
C2 C 0.2878(4) 0.1822(3) 0.5588(3)
C3 C -0.0498(4) -0.0854(4) 0.2517(3)
H1 H -0.1538 -0.0249 0.2104
C4 C 0.2976(4) 0.0584(3) 0.5411(3)
C5 C 0.3673(4) 0.1922(4) 0.6510(3)
C6 C 0.3505(4) -0.1749(4) 0.5719(3)
C7 C 0.2064(4) 0.0611(4) 0.4482(3)
C8 C 0.0128(4) -0.0458(4) 0.3276(3)
H2 H -0.0512 0.0408 0.3389
C9 C 0.1976(5) -0.3050(4) 0.2966(3)
H3 H 0.2590 -0.3927 0.2862
C10 C 0.0421(5) -0.2151(4) 0.2373(3)
C11 C 0.1708(4) -0.1319(4) 0.3889(3)
C12 C 0.2603(4) -0.2634(4) 0.3712(3)
H4 H 0.3650 -0.3240 0.4110
C13 C 0.1666(5) 0.3270(4) 0.4651(3)
H5 H 0.0637 0.3561 0.4922
H6 H 0.2006 0.4025 0.4574
N3 N 0.2942(5) 0.4524(4) 0.6455(4)
C14 C 0.4878(5) 0.0735(4) 0.7501(3)
C15 C 0.3275(5) 0.3360(4) 0.6488(3)
C16 C 0.0968(5) 0.2023(4) 0.3508(3)
H7 H -0.0129 0.2313 0.3653
H8 H 0.1028 0.1889 0.2759
C17 C 0.1448(5) 0.3216(4) 0.3447(3)
H9 H 0.2443 0.3030 0.3130
H10 H 0.0628 0.4163 0.2913
C18 C 0.6756(6) 0.0202(5) 0.9084(4)
H11 H 0.6418 -0.0399 0.9702
H12 H 0.7166 0.0708 0.9401
H13 H 0.7581 -0.0410 0.8767
H14 H 0.441(5) -0.116(4) 0.670(3)
H15 H 0.475(5) -0.360(4) 0.708(4)
H16 H 0.378(5) -0.364(5) 0.613(4)
S1 S 0.2837(3) 0.4467(3) 1.04174(16)
O3 O 0.3991(5) 0.4338(4) 1.1370(3)
C19 C 0.3964(16) 0.3426(11) 0.9631(7)
H17 H 0.4825 0.3673 0.9404
H18 H 0.3292 0.3632 0.8936
H19 H 0.4398 0.2397 1.0121
C20 C 0.2207(10) 0.6167(12) 0.9269(7)
H20 H 0.1395 0.6915 0.9485
H21 H 0.1775 0.6143 0.8569
H22 H 0.3102 0.6385 0.9117
loop_
_geom_bond_atom_site_label_1
_geom_bond_atom_site_label_2
_geom_bond_site_symmetry_1
_geom_bond_site_symmetry_2
Cl1 C10 1_555 1_555
O1 C14 1_555 1_555
N1 C4 1_555 1_555
O2 C14 1_555 1_555
C1 C6 1_555 1_555
N2 C6 1_555 1_555
C2 C4 1_555 1_555
C3 H1 1_555 1_555
C4 C7 1_555 1_555
C5 C2 1_555 1_555
C6 N1 1_555 1_555
C7 C1 1_555 1_555
C8 C3 1_555 1_555
H2 C8 1_555 1_555
C9 H3 1_555 1_555
C10 C3 1_555 1_555
C11 C1 1_555 1_555
C12 C9 1_555 1_555
H4 C12 1_555 1_555
C13 C2 1_555 1_555
H5 C13 1_555 1_555
H6 C13 1_555 1_555
N3 C15 1_555 1_555
C14 C5 1_555 1_555
C15 C5 1_555 1_555
C16 C7 1_555 1_555
H7 C16 1_555 1_555
H8 C16 1_555 1_555
C17 C13 1_555 1_555
H9 C17 1_555 1_555
H10 C17 1_555 1_555
C18 O1 1_555 1_555
H11 C18 1_555 1_555
H12 C18 1_555 1_555
H13 C18 1_555 1_555
H14 N1 1_555 1_555
H15 N2 1_555 1_555
H16 N2 1_555 1_555
S1 O3 1_555 1_555
C19 S1 1_555 1_555
H17 C19 1_555 1_555
H18 C19 1_555 1_555
H19 C19 1_555 1_555
C20 S1 1_555 1_555
H20 C20 1_555 1_555
H21 C20 1_555 1_555
H22 C20 1_555 1_555
C8 C11 1_555 1_555
C9 C10 1_555 1_555
C11 C12 1_555 1_555
C16 C17 1_555 1_555

#END
