
#######################################################################
#
#                 Cambridge Crystallographic Data Centre
#                                CCDC 
#
#######################################################################
#
# If this CIF has been generated from an entry in the Cambridge 
# Structural Database, then it will include bibliographic, chemical, 
# crystal, experimental, refinement or atomic coordinate data resulting 
# from the CCDC's data processing and validation procedures.
#
#######################################################################

data_WALYIU
_chemical_formula_moiety         'C21 H22 N2 O5'
_chemical_name_systematic        
5-(2-amino-3-(3-methoxyphenyl)-1,4,5,6-tetrahydro-7H-indol-7-ylidene)-2,2-dimethyl-1,3-dioxane-4,6-dione
_symmetry_cell_setting           triclinic
_symmetry_space_group_name_H-M   'P -1'
_symmetry_Int_Tables_number      2
_space_group_name_Hall           '-P 1'
loop_
_symmetry_equiv_pos_site_id
_symmetry_equiv_pos_as_xyz
1 x,y,z
2 -x,-y,-z
_cell_length_a                   7.4031(14)
_cell_length_b                   8.9347(15)
_cell_length_c                   14.479(2)
_cell_angle_alpha                96.332(5)
_cell_angle_beta                 96.040(6)
_cell_angle_gamma                98.588(6)
_cell_volume                     933.947
_exptl_crystal_colour            yellow
_exptl_crystal_description       block
_cell_formula_units_Z            2
loop_
_atom_site_label
_atom_site_type_symbol
_atom_site_fract_x
_atom_site_fract_y
_atom_site_fract_z
C1 C 0.9265(2) 0.63502(18) 0.10480(12)
C2 C 1.1054(2) 0.72727(18) 0.11554(12)
C3 C 1.1257(2) 0.77792(18) 0.03053(12)
C4 C 0.9643(2) 0.71739(18) -0.03334(12)
C5 C 0.9413(2) 0.72759(18) -0.12740(12)
C6 C 1.1029(3) 0.8240(2) -0.16109(13)
H1 H 1.1860 0.7576 -0.1831
H2 H 1.0572 0.8721 -0.2137
C7 C 1.2092(3) 0.9465(2) -0.08616(13)
H3 H 1.1299 1.0191 -0.0684
H4 H 1.3124 1.0009 -0.1114
C8 C 1.2803(3) 0.8804(2) 0.00005(13)
H5 H 1.3776 0.8232 -0.0142
H6 H 1.3304 0.9622 0.0500
C9 C 1.2351(3) 0.76077(19) 0.20282(12)
C10 C 1.1699(3) 0.7881(2) 0.28901(12)
H7 H 1.0443 0.7848 0.2913
C11 C 1.2897(3) 0.8200(2) 0.37067(13)
C12 C 1.4773(3) 0.8297(2) 0.36772(15)
H8 H 1.5589 0.8540 0.4226
C13 C 1.5414(3) 0.8033(2) 0.28361(16)
H9 H 1.6674 0.8091 0.2816
C14 C 1.4225(3) 0.7680(2) 0.20106(14)
H10 H 1.4688 0.7491 0.1444
C15 C 1.0506(4) 0.7940(4) 0.46788(17)
H11 H 0.9726 0.8565 0.4386
H12 H 1.0363 0.7989 0.5332
H13 H 1.0169 0.6903 0.4388
C16 C 0.7863(2) 0.66035(19) -0.19550(11)
C17 C 0.6033(2) 0.62073(19) -0.17563(12)
C18 C 0.5047(2) 0.6380(2) -0.33705(11)
C19 C 0.8196(3) 0.6205(2) -0.29094(12)
C20 C 0.5155(3) 0.8074(2) -0.33229(14)
H14 H 0.3992 0.8348 -0.3197
H15 H 0.5446 0.8389 -0.3910
H16 H 0.6096 0.8569 -0.2832
C21 C 0.3542(3) 0.5512(2) -0.40897(13)
H17 H 0.3566 0.4438 -0.4107
H18 H 0.3723 0.5816 -0.4693
H19 H 0.2373 0.5726 -0.3929
N1 N 0.84729(19) 0.63112(15) 0.01767(9)
H20 H 0.7394 0.5825 -0.0042
N2 N 0.8423(2) 0.56493(16) 0.16814(10)
H21 H 0.7326 0.5147 0.1534
H22 H 0.8972 0.5696 0.2240
O1 O 0.96699(19) 0.60038(17) -0.31584(9)
O2 O 0.54554(17) 0.60825(15) -0.09926(8)
O3 O 1.2361(2) 0.84769(18) 0.45769(10)
O4 O 0.67283(17) 0.59141(15) -0.35896(8)
O5 O 0.46753(16) 0.58891(13) -0.24938(8)
loop_
_geom_bond_atom_site_label_1
_geom_bond_atom_site_label_2
_geom_bond_site_symmetry_1
_geom_bond_site_symmetry_2
C1 C2 1_555 1_555
C2 C3 1_555 1_555
C3 C4 1_555 1_555
C4 C5 1_555 1_555
C5 C6 1_555 1_555
C6 H1 1_555 1_555
H2 C6 1_555 1_555
C7 C6 1_555 1_555
H3 C7 1_555 1_555
H4 C7 1_555 1_555
C8 C3 1_555 1_555
H5 C8 1_555 1_555
H6 C8 1_555 1_555
C9 C2 1_555 1_555
C10 C9 1_555 1_555
H7 C10 1_555 1_555
C11 C10 1_555 1_555
C12 C11 1_555 1_555
H8 C12 1_555 1_555
C13 C12 1_555 1_555
H9 C13 1_555 1_555
C14 C9 1_555 1_555
H10 C14 1_555 1_555
C15 H11 1_555 1_555
H12 C15 1_555 1_555
H13 C15 1_555 1_555
C16 C5 1_555 1_555
C17 C16 1_555 1_555
C18 C20 1_555 1_555
C19 C16 1_555 1_555
C20 H14 1_555 1_555
H15 C20 1_555 1_555
H16 C20 1_555 1_555
C21 C18 1_555 1_555
H17 C21 1_555 1_555
H18 C21 1_555 1_555
H19 C21 1_555 1_555
N1 C1 1_555 1_555
H20 N1 1_555 1_555
N2 C1 1_555 1_555
H21 N2 1_555 1_555
H22 N2 1_555 1_555
O1 C19 1_555 1_555
O2 C17 1_555 1_555
O3 C11 1_555 1_555
O4 C18 1_555 1_555
O5 C17 1_555 1_555
C4 N1 1_555 1_555
C7 C8 1_555 1_555
C13 C14 1_555 1_555
C15 O3 1_555 1_555
C18 O5 1_555 1_555
C19 O4 1_555 1_555

#END
