
#######################################################################
#
#                 Cambridge Crystallographic Data Centre
#                                CCDC 
#
#######################################################################
#
# If this CIF has been generated from an entry in the Cambridge 
# Structural Database, then it will include bibliographic, chemical, 
# crystal, experimental, refinement or atomic coordinate data resulting 
# from the CCDC's data processing and validation procedures.
#
#######################################################################

data_WALZUF
_chemical_formula_moiety         'C24 H26 O4 Se2'
_chemical_name_systematic        bis(2,6-Diformyl-4-t-butylphenyl)-diselenide
_symmetry_cell_setting           monoclinic
_symmetry_space_group_name_H-M   'P 21/c'
_symmetry_Int_Tables_number      14
_space_group_name_Hall           '-P 2ybc'
loop_
_symmetry_equiv_pos_site_id
_symmetry_equiv_pos_as_xyz
1 x,y,z
2 -x,1/2+y,1/2-z
3 -x,-y,-z
4 x,1/2-y,1/2+z
_cell_length_a                   13.1015(19)
_cell_length_b                   11.423(2)
_cell_length_c                   32.125(5)
_cell_angle_alpha                90.00
_cell_angle_beta                 91.448(12)
_cell_angle_gamma                90.00
_cell_volume                     4806.24
_exptl_crystal_colour            orange
_chemical_melting_point          116-118deg.C
_cell_formula_units_Z            8
_exptl_crystal_recrystallization_method 'chloroform/petroleum ether (1:1)'
loop_
_atom_site_label
_atom_site_type_symbol
_atom_site_fract_x
_atom_site_fract_y
_atom_site_fract_z
Se1 Se 0.66552(7) 0.58440(11) 0.03868(4)
Se2 Se 0.69682(9) 0.74827(11) 0.08095(4)
O1 O 0.5558(6) 0.3509(8) 0.1369(3)
O2 O 0.3979(6) 0.7558(8) -0.0203(3)
O3 O 0.9214(7) 0.5122(9) 0.1412(3)
O4 O 0.4251(6) 0.7555(9) 0.1568(3)
C1 C 0.5245(7) 0.5661(8) 0.0541(3)
C2 C 0.5007(7) 0.4926(9) 0.0865(3)
C3 C 0.5753(9) 0.4156(10) 0.1085(4)
H1 H 0.6425 0.4173 0.0998
C4 C 0.4004(7) 0.4882(9) 0.1025(3)
H2 H 0.3862 0.4404 0.1250
C5 C 0.3228(7) 0.5575(9) 0.0837(3)
C6 C 0.2140(7) 0.5576(9) 0.1007(4)
C7 C 0.2098(9) 0.4951(16) 0.1422(4)
H3 H 0.1398 0.4850 0.1497
H4 H 0.2449 0.5407 0.1632
H5 H 0.2419 0.4198 0.1401
C8 C 0.1753(9) 0.6813(10) 0.1033(5)
H6 H 0.1059 0.6807 0.1121
H7 H 0.1785 0.7176 0.0764
H8 H 0.2168 0.7245 0.1229
C9 C 0.1468(8) 0.4913(12) 0.0696(5)
H9 H 0.0765 0.5007 0.0766
H10 H 0.1644 0.4097 0.0703
H11 H 0.1571 0.5215 0.0421
C10 C 0.3479(7) 0.6243(10) 0.0501(3)
H12 H 0.2967 0.6690 0.0373
C11 C 0.4462(7) 0.6294(8) 0.0338(3)
C12 C 0.4612(8) 0.6995(10) -0.0031(3)
H13 H 0.5262 0.7001 -0.0141
C13 C 0.6842(7) 0.6706(9) 0.1342(3)
C14 C 0.7615(8) 0.6000(10) 0.1505(4)
C15 C 0.8605(9) 0.5814(13) 0.1300(4)
H14 H 0.8750 0.6271 0.1069
C16 C 0.7465(9) 0.5404(12) 0.1864(4)
H15 H 0.7979 0.4914 0.1967
C17 C 0.6549(10) 0.5507(13) 0.2087(4)
C18 C 0.6363(10) 0.4794(13) 0.2501(4)
C19 C 0.5276(13) 0.485(2) 0.2660(9)
H16 H 0.5150 0.5614 0.2771
H17 H 0.5195 0.4273 0.2874
H18 H 0.4801 0.4695 0.2434
C20 C 0.663(2) 0.3526(17) 0.2399(9)
H19 H 0.6642 0.3070 0.2650
H20 H 0.7290 0.3498 0.2276
H21 H 0.6128 0.3213 0.2207
C21 C 0.7106(19) 0.525(3) 0.2836(8)
H22 H 0.7734 0.5478 0.2710
H23 H 0.7239 0.4652 0.3038
H24 H 0.6813 0.5921 0.2969
C25 C 0.5824(9) 0.6226(12) 0.1917(4)
H34 H 0.5214 0.6300 0.2057
C26 C 0.5923(8) 0.6846(10) 0.1558(3)
C27 C 0.5055(9) 0.7562(11) 0.1402(4)
H35 H 0.5137 0.8029 0.1168
Se3 Se 0.83220(9) 1.28514(11) 0.08276(4)
Se4 Se 0.84126(7) 1.15781(11) 0.02622(4)
O5 O 1.1148(7) 1.2187(9) 0.1547(3)
O6 O 0.6061(7) 1.0183(10) 0.1203(3)
O7 O 0.9705(6) 0.8631(8) 0.0981(3)
O8 O 1.0946(6) 1.3669(8) -0.0229(3)
C28 C 0.8477(8) 1.1695(9) 0.1282(3)
C29 C 0.9426(8) 1.1631(11) 0.1488(3)
C30 C 1.0333(9) 1.2325(10) 0.1391(4)
H36 H 1.0259 1.2914 0.1193
C31 C 0.9534(9) 1.0792(11) 0.1792(4)
H37 H 1.0169 1.0721 0.1925
C32 C 0.8753(9) 1.0032(11) 0.1914(4)
C33 C 0.8950(11) 0.9147(14) 0.2257(4)
C34 C 0.961(3) 0.813(2) 0.2087(7)
H38 H 1.0301 0.8399 0.2056
H39 H 0.9338 0.7884 0.1821
H40 H 0.9606 0.7486 0.2278
C35 C 0.9511(16) 0.9714(18) 0.2624(4)
H41 H 1.0185 0.9932 0.2543
H42 H 0.9556 0.9170 0.2851
H43 H 0.9146 1.0399 0.2709
C36 C 0.7925(16) 0.864(2) 0.2409(7)
H44 H 0.7482 0.8482 0.2174
H45 H 0.7607 0.9198 0.2588
H46 H 0.8054 0.7928 0.2560
C37 C 0.7850(8) 1.0157(11) 0.1685(4)
H47 H 0.7315 0.9652 0.1744
C38 C 0.7688(8) 1.0983(11) 0.1374(3)
C39 C 0.6675(8) 1.0959(13) 0.1147(4)
H48 H 0.6514 1.1552 0.0958
C40 C 0.9845(6) 1.1259(9) 0.0343(3)
C41 C 1.0161(7) 1.0323(10) 0.0580(3)
C42 C 0.9441(9) 0.9415(11) 0.0761(4)
H49 H 0.8748 0.9482 0.0695
C43 C 1.1211(7) 1.0123(10) 0.0675(3)
H50 H 1.1407 0.9503 0.0847
C44 C 1.1948(6) 1.0858(9) 0.0508(3)
C45 C 1.3088(7) 1.0703(10) 0.0625(3)
C46 C 1.3305(9) 0.9633(13) 0.0882(6)
H51 H 1.2881 0.9000 0.0784
H52 H 1.3162 0.9793 0.1168
H53 H 1.4010 0.9420 0.0859
C47 C 1.3458(9) 1.1797(11) 0.0846(4)
H54 H 1.4151 1.1687 0.0942
H55 H 1.3034 1.1951 0.1079
H56 H 1.3423 1.2447 0.0657
C48 C 1.3678(8) 1.0576(15) 0.0220(4)
H57 H 1.3473 0.9868 0.0081
H58 H 1.4397 1.0546 0.0284
H59 H 1.3534 1.1234 0.0042
C49 C 1.1617(7) 1.1777(9) 0.0272(3)
H60 H 1.2101 1.2289 0.0168
C50 C 1.0589(7) 1.1991(9) 0.0177(3)
C51 C 1.0336(9) 1.3014(11) -0.0085(4)
H61 H 0.9649 1.3163 -0.0142
C22? C 0.5448(17) 0.398(2) 0.2430(9)
H25? H 0.5396 0.3460 0.2662
H26? H 0.5537 0.3541 0.2179
H27? H 0.4836 0.4443 0.2403
C23? C 0.7277(17) 0.408(3) 0.2660(10)
H28? H 0.7174 0.3857 0.2944
H29? H 0.7885 0.4546 0.2645
H30? H 0.7347 0.3393 0.2492
C24? C 0.610(3) 0.572(2) 0.2824(9)
H31? H 0.6114 0.5374 0.3096
H32? H 0.5428 0.6024 0.2762
H33? H 0.6587 0.6346 0.2815
loop_
_geom_bond_atom_site_label_1
_geom_bond_atom_site_label_2
_geom_bond_site_symmetry_1
_geom_bond_site_symmetry_2
Se1 Se2 1_555 1_555
Se2 C13 1_555 1_555
Se3 Se4 1_555 1_555
Se4 C40 1_555 1_555
O1 C3 1_555 1_555
O2 C12 1_555 1_555
O3 C15 1_555 1_555
O4 C27 1_555 1_555
O5 C30 1_555 1_555
O6 C39 1_555 1_555
O7 C42 1_555 1_555
O8 C51 1_555 1_555
C1 Se1 1_555 1_555
C2 C1 1_555 1_555
C3 C2 1_555 1_555
H1 C3 1_555 1_555
C4 C2 1_555 1_555
H2 C4 1_555 1_555
C5 C4 1_555 1_555
C6 C5 1_555 1_555
C7 C6 1_555 1_555
H3 C7 1_555 1_555
H4 C7 1_555 1_555
H5 C7 1_555 1_555
C8 C6 1_555 1_555
H6 C8 1_555 1_555
H7 C8 1_555 1_555
H8 C8 1_555 1_555
C9 C6 1_555 1_555
H9 C9 1_555 1_555
H10 C9 1_555 1_555
H11 C9 1_555 1_555
C10 C5 1_555 1_555
H12 C10 1_555 1_555
C11 C1 1_555 1_555
C12 C11 1_555 1_555
H13 C12 1_555 1_555
C13 C14 1_555 1_555
C14 C15 1_555 1_555
C15 H14 1_555 1_555
C16 C14 1_555 1_555
H15 C16 1_555 1_555
C17 C16 1_555 1_555
C18 C17 1_555 1_555
C19 C18 1_555 1_555
H16 C19 1_555 1_555
H17 C19 1_555 1_555
H18 C19 1_555 1_555
C20 C18 1_555 1_555
H19 C20 1_555 1_555
H20 C20 1_555 1_555
H21 C20 1_555 1_555
C21 C18 1_555 1_555
H22 C21 1_555 1_555
H23 C21 1_555 1_555
H24 C21 1_555 1_555
C25 C17 1_555 1_555
H34 C25 1_555 1_555
C26 C13 1_555 1_555
C27 C26 1_555 1_555
H35 C27 1_555 1_555
C28 Se3 1_555 1_555
C29 C28 1_555 1_555
C30 C29 1_555 1_555
H36 C30 1_555 1_555
C31 C29 1_555 1_555
H37 C31 1_555 1_555
C32 C31 1_555 1_555
C33 C32 1_555 1_555
C34 C33 1_555 1_555
H38 C34 1_555 1_555
H39 C34 1_555 1_555
H40 C34 1_555 1_555
C35 C33 1_555 1_555
H41 C35 1_555 1_555
H42 C35 1_555 1_555
H43 C35 1_555 1_555
C36 C33 1_555 1_555
H44 C36 1_555 1_555
H45 C36 1_555 1_555
H46 C36 1_555 1_555
C37 C32 1_555 1_555
H47 C37 1_555 1_555
C38 C28 1_555 1_555
C39 C38 1_555 1_555
H48 C39 1_555 1_555
C40 C41 1_555 1_555
C41 C42 1_555 1_555
C42 H49 1_555 1_555
C43 C41 1_555 1_555
H50 C43 1_555 1_555
C44 C43 1_555 1_555
C45 C44 1_555 1_555
C46 C45 1_555 1_555
H51 C46 1_555 1_555
H52 C46 1_555 1_555
H53 C46 1_555 1_555
C47 C45 1_555 1_555
H54 C47 1_555 1_555
H55 C47 1_555 1_555
H56 C47 1_555 1_555
C48 C45 1_555 1_555
H57 C48 1_555 1_555
H58 C48 1_555 1_555
H59 C48 1_555 1_555
C49 C44 1_555 1_555
H60 C49 1_555 1_555
C50 C40 1_555 1_555
C51 C50 1_555 1_555
H61 C51 1_555 1_555
C10 C11 1_555 1_555
C25 C26 1_555 1_555
C37 C38 1_555 1_555
C49 C50 1_555 1_555

#END
