
#######################################################################
#
#                 Cambridge Crystallographic Data Centre
#                                CCDC 
#
#######################################################################
#
# If this CIF has been generated from an entry in the Cambridge 
# Structural Database, then it will include bibliographic, chemical, 
# crystal, experimental, refinement or atomic coordinate data resulting 
# from the CCDC's data processing and validation procedures.
#
#######################################################################

data_WAMCOD
_chemical_formula_moiety         'C44 H78 P2 Si2'
_chemical_name_systematic        
2,3-bis(Trimethylsilyl)-1,4-bis(2,4,6-tri-t-butylphenyl)-1,4-diphosphabut-1-ene
_symmetry_cell_setting           monoclinic
_symmetry_space_group_name_H-M   'P 21/n'
_symmetry_Int_Tables_number      14
_space_group_name_Hall           '-P 2yn'
loop_
_symmetry_equiv_pos_site_id
_symmetry_equiv_pos_as_xyz
1 x,y,z
2 1/2-x,1/2+y,1/2-z
3 -x,-y,-z
4 1/2+x,1/2-y,1/2+z
_cell_length_a                   10.5921(5)
_cell_length_b                   14.9698(6)
_cell_length_c                   29.559(1)
_cell_angle_alpha                90
_cell_angle_beta                 94.8471(6)
_cell_angle_gamma                90
_cell_volume                     4670.16
_exptl_crystal_description       prism
_chemical_melting_point          155-158deg.C
_cell_formula_units_Z            4
loop_
_atom_site_label
_atom_site_type_symbol
_atom_site_fract_x
_atom_site_fract_y
_atom_site_fract_z
P1 P 0.1041(2) 0.3788(1) 0.23722(7)
P2 P 0.1701(2) 0.2513(2) 0.33024(7)
Si1 Si -0.0567(3) 0.1921(2) 0.22344(9)
Si2 Si -0.0876(2) 0.3772(2) 0.33418(9)
C1 C 0.0174(7) 0.2929(5) 0.2545(3)
C2 C 0.0092(8) 0.2874(5) 0.3071(3)
C3 C 0.1171(8) 0.3705(5) 0.1748(3)
C4 C 0.0274(8) 0.4149(5) 0.1435(3)
C5 C 0.0263(8) 0.3926(6) 0.0977(3)
C6 C 0.1153(8) 0.3355(5) 0.0810(3)
C7 C 0.2125(8) 0.3053(5) 0.1107(3)
C8 C 0.2198(8) 0.3238(5) 0.1573(3)
C9 C -0.0722(10) 0.4842(7) 0.1568(3)
C10 C -0.188(1) 0.4373(9) 0.1729(5)
C11 C -0.015(1) 0.5515(7) 0.1925(5)
C12 C -0.118(1) 0.5422(9) 0.1154(4)
C13 C 0.1094(9) 0.3079(7) 0.0303(3)
C14 C -0.009(1) 0.339(1) 0.0031(4)
C15 C 0.224(1) 0.3465(9) 0.0088(4)
C16 C 0.119(2) 0.2058(8) 0.0275(4)
C17 C 0.3397(9) 0.2907(6) 0.1858(3)
C18 C 0.446(1) 0.272(1) 0.1555(5)
C19 C 0.314(1) 0.2045(7) 0.2120(4)
C20 C 0.391(1) 0.3624(8) 0.2199(5)
C21 C 0.1908(7) 0.2691(5) 0.3929(2)
C22 C 0.2605(8) 0.3425(6) 0.4121(3)
C23 C 0.2422(8) 0.3659(5) 0.4576(3)
C24 C 0.1698(8) 0.3176(6) 0.4848(3)
C25 C 0.1230(8) 0.2359(5) 0.4674(3)
C26 C 0.1348(7) 0.2081(5) 0.4229(3)
C27 C 0.3664(10) 0.3946(7) 0.3889(3)
C28 C 0.451(1) 0.324(1) 0.3662(5)
C29 C 0.317(1) 0.4653(9) 0.3554(5)
C30 C 0.456(1) 0.4432(10) 0.4242(5)
C31 C 0.1446(10) 0.3455(7) 0.5330(3)
C32 C 0.223(1) 0.4261(10) 0.5489(4)
C33 C 0.001(1) 0.369(1) 0.5325(5)
C34 C 0.175(2) 0.270(1) 0.5663(4)
C35 C 0.0993(8) 0.1094(5) 0.4113(3)
C36 C 0.062(1) 0.0578(6) 0.4536(4)
C37 C -0.014(1) 0.0985(7) 0.3768(4)
C38 C 0.216(1) 0.0627(6) 0.3954(5)
C39 C -0.230(1) 0.1895(10) 0.2348(6)
C40 C 0.013(1) 0.0857(7) 0.2464(4)
C41 C -0.054(1) 0.1891(7) 0.1613(4)
C42 C -0.126(1) 0.3425(9) 0.3914(4)
C43 C -0.013(2) 0.4889(9) 0.3395(7)
C44 C -0.238(1) 0.395(1) 0.3000(4)
H1 H 0.1940 0.3191 0.3291
H2 H -0.0527 0.2190 0.3127
H3 H -0.0532 0.4118 0.0756
H4 H 0.2985 0.2672 0.0982
H5 H -0.2280 0.4035 0.1495
H6 H -0.1617 0.4008 0.1983
H7 H -0.2443 0.4824 0.1825
H8 H 0.0148 0.5203 0.2198
H9 H -0.0796 0.5925 0.2002
H10 H 0.0523 0.5833 0.1815
H11 H -0.1775 0.5853 0.1247
H12 H -0.0457 0.5755 0.1061
H13 H -0.1528 0.5081 0.0916
H14 H -0.0823 0.3157 0.0163
H15 H -0.0142 0.4025 0.0032
H16 H -0.0107 0.3183 -0.0273
H17 H 0.2177 0.4111 0.0089
H18 H 0.2217 0.3278 -0.0222
H19 H 0.2994 0.3291 0.0247
H20 H 0.1230 0.1870 -0.0032
H21 H 0.2012 0.1870 0.0437
H22 H 0.0550 0.1773 0.0411
H23 H 0.4663 0.3254 0.1402
H24 H 0.4197 0.2276 0.1339
H25 H 0.5192 0.2518 0.1736
H26 H 0.3886 0.1867 0.2306
H27 H 0.2893 0.1574 0.1918
H28 H 0.2478 0.2145 0.2318
H29 H 0.4638 0.3407 0.2368
H30 H 0.3269 0.3756 0.2398
H31 H 0.4102 0.4147 0.2038
H32 H 0.2813 0.4224 0.4707
H33 H 0.1108 0.1841 0.4861
H34 H 0.4870 0.2830 0.3888
H35 H 0.4003 0.2905 0.3440
H36 H 0.5172 0.3526 0.3523
H37 H 0.2612 0.4378 0.3324
H38 H 0.3857 0.4918 0.3418
H39 H 0.2722 0.5090 0.3706
H40 H 0.5216 0.4705 0.4093
H41 H 0.4098 0.4866 0.4389
H42 H 0.4915 0.4008 0.4457
H43 H 0.3119 0.4213 0.5473
H44 H 0.1934 0.4897 0.5258
H45 H 0.2167 0.4296 0.5856
H46 H -0.0156 0.4192 0.5117
H47 H -0.0168 0.3882 0.5618
H48 H -0.0485 0.3209 0.5225
H49 H 0.1572 0.2857 0.5953
H50 H 0.1285 0.2177 0.5562
H51 H 0.2644 0.2555 0.5660
H52 H 0.1308 0.0601 0.4769
H53 H -0.0107 0.0832 0.4645
H54 H 0.0466 -0.0033 0.4457
H55 H -0.0881 0.1247 0.3891
H56 H -0.0303 0.0384 0.3704
H57 H -0.0005 0.1304 0.3497
H58 H 0.2831 0.0648 0.4186
H59 H 0.1954 0.0024 0.3881
H60 H 0.2411 0.0921 0.3690
H61 H -0.2728 0.2391 0.2210
H62 H -0.2371 0.1911 0.2668
H63 H -0.2678 0.1356 0.2229
H64 H 0.0026 0.0805 0.2882
H65 H -0.0243 0.0171 0.2335
H66 H 0.1078 0.0898 0.2449
H67 H -0.1030 0.1400 0.1494
H68 H 0.0310 0.1826 0.1537
H69 H -0.0883 0.2431 0.1486
H70 H -0.1694 0.2855 0.3891
H71 H -0.0518 0.3363 0.4109
H72 H -0.1814 0.3848 0.4033
H73 H 0.0613 0.4851 0.3599
H74 H -0.0709 0.5295 0.3513
H75 H 0.0080 0.5082 0.3107
H76 H -0.2851 0.4411 0.3134
H77 H -0.2863 0.3418 0.2984
H78 H -0.2219 0.4134 0.2701
loop_
_geom_bond_atom_site_label_1
_geom_bond_atom_site_label_2
_geom_bond_site_symmetry_1
_geom_bond_site_symmetry_2
P1 C1 1_555 1_555
P2 C2 1_555 1_555
Si1 C1 1_555 1_555
Si2 C2 1_555 1_555
C1 C2 1_555 1_555
C2 H2 1_555 1_555
C3 P1 1_555 1_555
C4 C3 1_555 1_555
C5 C4 1_555 1_555
C6 C5 1_555 1_555
C7 C6 1_555 1_555
C8 C3 1_555 1_555
C9 C4 1_555 1_555
C10 C9 1_555 1_555
C11 C9 1_555 1_555
C12 C9 1_555 1_555
C13 C6 1_555 1_555
C14 C13 1_555 1_555
C15 C13 1_555 1_555
C16 C13 1_555 1_555
C17 C8 1_555 1_555
C18 C17 1_555 1_555
C19 C17 1_555 1_555
C20 C17 1_555 1_555
C21 P2 1_555 1_555
C22 C21 1_555 1_555
C23 C22 1_555 1_555
C24 C23 1_555 1_555
C25 C24 1_555 1_555
C26 C21 1_555 1_555
C27 C22 1_555 1_555
C28 C27 1_555 1_555
C29 C27 1_555 1_555
C30 C27 1_555 1_555
C31 C24 1_555 1_555
C32 C31 1_555 1_555
C33 C31 1_555 1_555
C34 C31 1_555 1_555
C35 C26 1_555 1_555
C36 C35 1_555 1_555
C37 C35 1_555 1_555
C38 C35 1_555 1_555
C39 Si1 1_555 1_555
C40 Si1 1_555 1_555
C41 Si1 1_555 1_555
C42 Si2 1_555 1_555
C43 Si2 1_555 1_555
C44 Si2 1_555 1_555
H1 P2 1_555 1_555
H3 C5 1_555 1_555
H4 C7 1_555 1_555
H5 C10 1_555 1_555
H6 C10 1_555 1_555
H7 C10 1_555 1_555
H8 C11 1_555 1_555
H9 C11 1_555 1_555
H10 C11 1_555 1_555
H11 C12 1_555 1_555
H12 C12 1_555 1_555
H13 C12 1_555 1_555
H14 C14 1_555 1_555
H15 C14 1_555 1_555
H16 C14 1_555 1_555
H17 C15 1_555 1_555
H18 C15 1_555 1_555
H19 C15 1_555 1_555
H20 C16 1_555 1_555
H21 C16 1_555 1_555
H22 C16 1_555 1_555
H23 C18 1_555 1_555
H24 C18 1_555 1_555
H25 C18 1_555 1_555
H26 C19 1_555 1_555
H27 C19 1_555 1_555
H28 C19 1_555 1_555
H29 C20 1_555 1_555
H30 C20 1_555 1_555
H31 C20 1_555 1_555
H32 C23 1_555 1_555
H33 C25 1_555 1_555
H34 C28 1_555 1_555
H35 C28 1_555 1_555
H36 C28 1_555 1_555
H37 C29 1_555 1_555
H38 C29 1_555 1_555
H39 C29 1_555 1_555
H40 C30 1_555 1_555
H41 C30 1_555 1_555
H42 C30 1_555 1_555
H43 C32 1_555 1_555
H44 C32 1_555 1_555
H45 C32 1_555 1_555
H46 C33 1_555 1_555
H47 C33 1_555 1_555
H48 C33 1_555 1_555
H49 C34 1_555 1_555
H50 C34 1_555 1_555
H51 C34 1_555 1_555
H52 C36 1_555 1_555
H53 C36 1_555 1_555
H54 C36 1_555 1_555
H55 C37 1_555 1_555
H56 C37 1_555 1_555
H57 C37 1_555 1_555
H58 C38 1_555 1_555
H59 C38 1_555 1_555
H60 C38 1_555 1_555
H61 C39 1_555 1_555
H62 C39 1_555 1_555
H63 C39 1_555 1_555
H64 C40 1_555 1_555
H65 C40 1_555 1_555
H66 C40 1_555 1_555
H67 C41 1_555 1_555
H68 C41 1_555 1_555
H69 C41 1_555 1_555
H70 C42 1_555 1_555
H71 C42 1_555 1_555
H72 C42 1_555 1_555
H73 C43 1_555 1_555
H74 C43 1_555 1_555
H75 C43 1_555 1_555
H76 C44 1_555 1_555
H77 C44 1_555 1_555
H78 C44 1_555 1_555
C7 C8 1_555 1_555
C25 C26 1_555 1_555

#END
