
#######################################################################
#
#                 Cambridge Crystallographic Data Centre
#                                CCDC 
#
#######################################################################
#
# If this CIF has been generated from an entry in the Cambridge 
# Structural Database, then it will include bibliographic, chemical, 
# crystal, experimental, refinement or atomic coordinate data resulting 
# from the CCDC's data processing and validation procedures.
#
#######################################################################

data_WAMFAS04
_chemical_name_common            
5,12-Dibutyl-5,12-dihydroquino[2,3-b]acridine-7,14-dione
_chemical_formula_moiety         'C28 H28 N2 O2'
_chemical_name_systematic        N,N-Di-n-butylquinacridone
_symmetry_cell_setting           triclinic
_symmetry_space_group_name_H-M   'P -1'
_symmetry_Int_Tables_number      2
_space_group_name_Hall           '-P 1'
loop_
_symmetry_equiv_pos_site_id
_symmetry_equiv_pos_as_xyz
1 x,y,z
2 -x,-y,-z
_cell_length_a                   7.1938(14)
_cell_length_b                   10.337(2)
_cell_length_c                   15.022(3)
_cell_angle_alpha                94.67(3)
_cell_angle_beta                 90.58(3)
_cell_angle_gamma                101.87(3)
_cell_volume                     1089.14
_exptl_crystal_colour            red
_exptl_crystal_description       block
_cell_formula_units_Z            2
_exptl_crystal_recrystallization_method methanol/chloroform
_exptl_crystal_preparation       luminescent
loop_
_atom_site_label
_atom_site_type_symbol
_atom_site_fract_x
_atom_site_fract_y
_atom_site_fract_z
C1 C 0.1257(5) 0.9169(3) 0.9696(2)
C2 C 0.1439(5) 0.9824(3) 1.0563(2)
C3 C 0.0209(5) 1.0623(3) 1.0855(2)
H1 H 0.0361 1.1032 1.1433
C4 C 0.2993(5) 0.9709(3) 1.1175(2)
C5 C 0.4169(5) 0.8794(3) 1.0860(2)
C6 C 0.5607(5) 0.8568(4) 1.1424(2)
H2 H 0.5777 0.9005 1.1995
C7 C 0.6775(6) 0.7720(4) 1.1161(3)
H3 H 0.7731 0.7584 1.1542
C8 C 0.6490(5) 0.7072(4) 1.0313(2)
H4 H 0.7274 0.6494 1.0129
C9 C 0.5099(5) 0.7248(4) 0.9735(2)
H5 H 0.4935 0.6784 0.9173
C10 C 0.3915(5) 0.8135(3) 0.9994(2)
C11 C 0.2370(5) 0.7807(3) 0.8470(2)
H6 H 0.3577 0.7588 0.8307
H7 H 0.2143 0.8481 0.8094
C12 C 0.0781(7) 0.6557(4) 0.8281(3)
H8 H -0.0425 0.6805 0.8408
H9 H 0.0766 0.6282 0.7648
C13 C 0.0889(7) 0.5414(4) 0.8771(3)
H10 H 0.0997 0.5689 0.9405
H11 H 0.2028 0.5099 0.8604
C14 C -0.0836(7) 0.4274(4) 0.8594(3)
H12 H -0.1973 0.4585 0.8742
H13 H -0.0721 0.3568 0.8956
H14 H -0.0897 0.3952 0.7975
N1 N 0.2504(4) 0.8358(3) 0.94078(16)
O1 O 0.3270(4) 1.0351(3) 1.19155(15)
C1A C -0.1257(5) 1.0831(3) 1.0304(2)
C2A C -0.1439(5) 1.0176(3) 0.9437(2)
C3A C -0.0209(5) 0.9377(3) 0.9145(2)
H1A H -0.0361 0.8968 0.8567
C4A C -0.2993(5) 1.0291(3) 0.8825(2)
C5A C -0.4169(5) 1.1206(3) 0.9140(2)
C6A C -0.5607(5) 1.1432(4) 0.8576(2)
H2A H -0.5777 1.0995 0.8005
C7A C -0.6775(6) 1.2280(4) 0.8839(3)
H3A H -0.7731 1.2416 0.8458
C8A C -0.6490(5) 1.2928(4) 0.9687(2)
H4A H -0.7274 1.3506 0.9871
C9A C -0.5099(5) 1.2752(4) 1.0265(2)
H5A H -0.4935 1.3216 1.0827
C10A C -0.3915(5) 1.1865(3) 1.0006(2)
C11A C -0.2370(5) 1.2193(3) 1.1530(2)
H6A H -0.3577 1.2412 1.1693
H7A H -0.2143 1.1519 1.1906
C12A C -0.0781(7) 1.3443(4) 1.1719(3)
H8A H 0.0425 1.3195 1.1592
H9A H -0.0766 1.3718 1.2352
C13A C -0.0889(7) 1.4586(4) 1.1229(3)
H10A H -0.0997 1.4311 1.0595
H11A H -0.2028 1.4901 1.1396
C14A C 0.0836(7) 1.5726(4) 1.1406(3)
H12A H 0.1973 1.5415 1.1258
H13A H 0.0721 1.6432 1.1044
H14A H 0.0897 1.6048 1.2025
N1A N -0.2504(4) 1.1642(3) 1.05922(16)
O1A O -0.3270(4) 0.9649(3) 0.80845(15)
C15 C 0.1151(5) 0.1905(3) 0.5188(2)
C16 C 0.0024(5) 0.2845(4) 0.5045(2)
H15 H 0.0238 0.3344 0.4554
C17 C -0.1366(6) 0.3026(4) 0.5618(3)
H16 H -0.2078 0.3658 0.5515
C18 C -0.1752(6) 0.2291(4) 0.6355(3)
H17 H -0.2736 0.2405 0.6731
C19 C -0.0664(5) 0.1405(4) 0.6514(2)
H18 H -0.0894 0.0927 0.7014
C20 C 0.0803(5) 0.1186(3) 0.5946(2)
C21 C 0.1929(5) 0.0229(3) 0.6152(2)
C22 C 0.3508(5) 0.0133(3) 0.5556(2)
C23 C 0.3767(5) 0.0856(3) 0.4796(2)
C24 C 0.5270(5) 0.0687(3) 0.4247(2)
H19 H 0.5456 0.1139 0.3734
C25 C 0.2788(5) 0.2357(3) 0.3768(2)
H20 H 0.1572 0.2511 0.3569
H21 H 0.3227 0.1788 0.3307
C26 C 0.4207(5) 0.3678(4) 0.3896(2)
H22 H 0.3838 0.4203 0.4402
H23 H 0.5450 0.3509 0.4037
C27 C 0.4353(6) 0.4465(4) 0.3096(2)
H24 H 0.3123 0.4663 0.2967
H25 H 0.4687 0.3932 0.2584
C28 C 0.5818(7) 0.5751(5) 0.3230(3)
H26 H 0.5528 0.6265 0.3752
H27 H 0.5796 0.6245 0.2717
H28 H 0.7057 0.5559 0.3305
N2 N 0.2535(4) 0.1678(3) 0.45940(16)
O2 O 0.1589(4) -0.0461(3) 0.67883(15)
C15A C 0.8849(5) -0.1905(3) 0.4812(2)
C16A C 0.9976(5) -0.2845(4) 0.4955(2)
H15A H 0.9762 -0.3344 0.5446
C17A C 1.1366(6) -0.3026(4) 0.4382(3)
H16A H 1.2078 -0.3658 0.4485
C18A C 1.1752(6) -0.2291(4) 0.3645(3)
H17A H 1.2736 -0.2405 0.3269
C19A C 1.0664(5) -0.1405(4) 0.3486(2)
H18A H 1.0894 -0.0927 0.2986
C20A C 0.9197(5) -0.1186(3) 0.4054(2)
C21A C 0.8071(5) -0.0229(3) 0.3848(2)
C22A C 0.6492(5) -0.0133(3) 0.4444(2)
C23A C 0.6233(5) -0.0856(3) 0.5204(2)
C24A C 0.4730(5) -0.0687(3) 0.5753(2)
H19A H 0.4544 -0.1139 0.6266
C25A C 0.7212(5) -0.2357(3) 0.6232(2)
H20A H 0.8428 -0.2511 0.6431
H21A H 0.6773 -0.1788 0.6693
C26A C 0.5793(5) -0.3678(4) 0.6104(2)
H22A H 0.6162 -0.4203 0.5598
H23A H 0.4550 -0.3509 0.5963
C27A C 0.5647(6) -0.4465(4) 0.6904(2)
H24A H 0.6877 -0.4663 0.7033
H25A H 0.5313 -0.3932 0.7416
C28A C 0.4182(7) -0.5751(5) 0.6770(3)
H26A H 0.4472 -0.6265 0.6248
H27A H 0.4204 -0.6245 0.7283
H28A H 0.2943 -0.5559 0.6695
N2A N 0.7465(4) -0.1678(3) 0.54060(16)
O2A O 0.8411(4) 0.0461(3) 0.32117(15)
loop_
_geom_bond_atom_site_label_1
_geom_bond_atom_site_label_2
_geom_bond_site_symmetry_1
_geom_bond_site_symmetry_2
C1 C2 1_555 1_555
C2 C3 1_555 1_555
C3 H1 1_555 1_555
C4 C2 1_555 1_555
C5 C4 1_555 1_555
C6 C5 1_555 1_555
H2 C6 1_555 1_555
C7 C6 1_555 1_555
H3 C7 1_555 1_555
C8 C7 1_555 1_555
H4 C8 1_555 1_555
C9 C8 1_555 1_555
H5 C9 1_555 1_555
C10 C5 1_555 1_555
C11 H6 1_555 1_555
H7 C11 1_555 1_555
C12 C11 1_555 1_555
H8 C12 1_555 1_555
H9 C12 1_555 1_555
C13 C12 1_555 1_555
H10 C13 1_555 1_555
H11 C13 1_555 1_555
C14 C13 1_555 1_555
H12 C14 1_555 1_555
H13 C14 1_555 1_555
H14 C14 1_555 1_555
C15 C16 1_555 1_555
C16 H15 1_555 1_555
C17 C16 1_555 1_555
H16 C17 1_555 1_555
C18 C17 1_555 1_555
H17 C18 1_555 1_555
C19 C18 1_555 1_555
H18 C19 1_555 1_555
C20 C15 1_555 1_555
C21 C20 1_555 1_555
C22 C21 1_555 1_555
C23 C22 1_555 1_555
C24 C23 1_555 1_555
H19 C24 1_555 1_555
C25 H20 1_555 1_555
H21 C25 1_555 1_555
C26 C25 1_555 1_555
H22 C26 1_555 1_555
H23 C26 1_555 1_555
C27 C26 1_555 1_555
H24 C27 1_555 1_555
H25 C27 1_555 1_555
C28 C27 1_555 1_555
H26 C28 1_555 1_555
H27 C28 1_555 1_555
H28 C28 1_555 1_555
N1 C1 1_555 1_555
N2 C15 1_555 1_555
O1 C4 1_555 1_555
O2 C21 1_555 1_555
C1A C3 1_555 1_555
C2A C1A 1_555 1_555
C3A C1 1_555 1_555
H1A C3A 1_555 1_555
C4A C2A 1_555 1_555
C5A C4A 1_555 1_555
C6A C5A 1_555 1_555
H2A C6A 1_555 1_555
C7A C6A 1_555 1_555
H3A C7A 1_555 1_555
C8A C7A 1_555 1_555
H4A C8A 1_555 1_555
C9A C8A 1_555 1_555
H5A C9A 1_555 1_555
C10A C5A 1_555 1_555
C11A H6A 1_555 1_555
H7A C11A 1_555 1_555
C12A C11A 1_555 1_555
H8A C12A 1_555 1_555
H9A C12A 1_555 1_555
C13A C12A 1_555 1_555
H10A C13A 1_555 1_555
H11A C13A 1_555 1_555
C14A C13A 1_555 1_555
H12A C14A 1_555 1_555
H13A C14A 1_555 1_555
H14A C14A 1_555 1_555
C15A C16A 1_555 1_555
C16A H15A 1_555 1_555
C17A C16A 1_555 1_555
H16A C17A 1_555 1_555
C18A C17A 1_555 1_555
H17A C18A 1_555 1_555
C19A C18A 1_555 1_555
H18A C19A 1_555 1_555
C20A C15A 1_555 1_555
C21A C20A 1_555 1_555
C22A C24 1_555 1_555
C23A C22A 1_555 1_555
C24A C22 1_555 1_555
H19A C24A 1_555 1_555
C25A H20A 1_555 1_555
H21A C25A 1_555 1_555
C26A C25A 1_555 1_555
H22A C26A 1_555 1_555
H23A C26A 1_555 1_555
C27A C26A 1_555 1_555
H24A C27A 1_555 1_555
H25A C27A 1_555 1_555
C28A C27A 1_555 1_555
H26A C28A 1_555 1_555
H27A C28A 1_555 1_555
H28A C28A 1_555 1_555
N1A C1A 1_555 1_555
N2A C15A 1_555 1_555
O1A C4A 1_555 1_555
O2A C21A 1_555 1_555
C9 C10 1_555 1_555
C10 N1 1_555 1_555
C11 N1 1_555 1_555
C19 C20 1_555 1_555
C23 N2 1_555 1_555
C25 N2 1_555 1_555
C2A C3A 1_555 1_555
C9A C10A 1_555 1_555
C10A N1A 1_555 1_555
C11A N1A 1_555 1_555
C19A C20A 1_555 1_555
C21A C22A 1_555 1_555
C23A C24A 1_555 1_555
C23A N2A 1_555 1_555
C25A N2A 1_555 1_555

#END
