
#######################################################################
#
#                 Cambridge Crystallographic Data Centre
#                                CCDC 
#
#######################################################################
#
# If this CIF has been generated from an entry in the Cambridge 
# Structural Database, then it will include bibliographic, chemical, 
# crystal, experimental, refinement or atomic coordinate data resulting 
# from the CCDC's data processing and validation procedures.
#
#######################################################################

data_WAMJOJ
_chemical_formula_moiety         'C27 H22 Cl6 N2'
_chemical_name_systematic        
endo,endo-5,6-Diaza-1,11,12,13,14,14-hexachloro-5,7-bis(p-tolyl)pentacyclo(9.2.1.1^3,9^.0^2,10^.0^4,8^)pentadeca-4(8),6-diene
_symmetry_cell_setting           monoclinic
_symmetry_space_group_name_H-M   'P 21/n'
_symmetry_Int_Tables_number      14
_space_group_name_Hall           '-P 2yn'
loop_
_symmetry_equiv_pos_site_id
_symmetry_equiv_pos_as_xyz
1 x,y,z
2 1/2-x,1/2+y,1/2-z
3 -x,-y,-z
4 1/2+x,1/2-y,1/2+z
_cell_length_a                   8.744(4)
_cell_length_b                   33.92(2)
_cell_length_c                   8.788(5)
_cell_angle_alpha                90
_cell_angle_beta                 94.82(4)
_cell_angle_gamma                90
_cell_volume                     2597.27
_exptl_crystal_colour            colorless
_chemical_melting_point          257-258deg.C
_cell_formula_units_Z            4
loop_
_atom_site_label
_atom_site_type_symbol
_atom_site_fract_x
_atom_site_fract_y
_atom_site_fract_z
Cl1 Cl 0.8016(3) 0.2231(1) 0.4506(3)
Cl2 Cl 0.9179(3) 0.2633(1) 0.1139(3)
Cl3 Cl 1.1438(3) 0.2181(1) 0.2808(3)
Cl4 Cl 1.0506(3) 0.1864(1) -0.0939(3)
Cl5 Cl 1.1531(3) 0.1269(1) 0.1758(3)
Cl6 Cl 1.0039(3) 0.1453(1) 0.4778(3)
C1 C 0.8324(11) 0.1974(3) 0.2825(10)
C2 C 0.6932(11) 0.2002(3) 0.1614(12)
C3 C 0.5420(11) 0.1760(3) 0.1585(12)
C4 C 0.5710(10) 0.1321(3) 0.1670(11)
C5 C 0.6355(10) 0.1209(3) 0.0366(11)
C6 C 0.6492(11) 0.1568(3) -0.0619(12)
C7 C 0.7658(11) 0.1880(3) 0.0112(11)
C8 C 0.9347(11) 0.1822(3) 0.0616(11)
C9 C 0.9593(11) 0.1440(3) 0.1552(12)
C10 C 0.8872(12) 0.1544(3) 0.3058(12)
C11 C 0.9583(11) 0.2150(3) 0.1867(11)
C12 C 0.5013(13) 0.1779(4) -0.0179(15)
N1 N 0.5619(9) 0.0990(3) 0.2568(10)
N2 N 0.6201(9) 0.0675(3) 0.1858(10)
C13 C 0.6665(10) 0.0810(3) 0.0524(10)
C14 C 0.4976(11) 0.0941(3) 0.4017(11)
C15 C 0.4412(26) 0.0565(6) 0.4407(23)
C17 C 0.3739(28) 0.0523(7) 0.5754(26)
C19 C 0.3602(13) 0.0850(3) 0.6756(12)
C20 C 0.3852(12) 0.1208(3) 0.6170(12)
C21 C 0.4563(12) 0.1259(3) 0.4828(12)
C22 C 0.2827(14) 0.0798(4) 0.8216(13)
C23 C 0.7357(12) 0.0543(3) -0.0483(12)
C24 C 0.8002(15) 0.0661(4) -0.1748(14)
C25 C 0.8640(15) 0.0400(4) -0.2719(16)
C26 C 0.8825(17) 0.0016(5) -0.2311(17)
C27 C 0.7483(33) -0.0118(8) -0.1484(30)
C29 C 0.6919(28) 0.0136(7) -0.0457(26)
C31 C 0.9613(20) -0.0276(5) -0.3278(19)
H1 H 0.678(10) 0.2281(27) 0.148(10)
H2 H 0.469(11) 0.1868(27) 0.210(10)
H3 H 0.6670(99) 0.1543(26) -0.168(10)
H4 H 0.746(10) 0.2109(28) -0.0543(98)
H5 H 0.899(10) 0.1209(27) 0.1037(98)
H6 H 0.796(11) 0.1384(26) 0.3017(98)
H7 H 0.493(10) 0.2037(29) -0.049(10)
H8 H 0.432(11) 0.1639(30) -0.020(11)
H9 H 0.3521 0.1436 0.6696
H10 H 0.4770 0.1520 0.4479
H11 H 0.2755 0.0522 0.8446
H12 H 0.1815 0.0910 0.8090
H13 H 0.3414 0.0929 0.9038
H14 H 0.8019 0.0937 -0.1981
H15 H 0.8957 0.0491 -0.3677
H16 H 0.9710 -0.0168 -0.4275
H17 H 0.9026 -0.0515 -0.3370
H18 H 1.0615 -0.0331 -0.2792
H19 H 0.4527 0.0340 0.3735
H21 H 0.3328 0.0266 0.6033
H23 H 0.7051 -0.0386 -0.1658
H25 H 0.6256 0.0039 0.0305
C16? C 0.5165(32) 0.0583(8) 0.4885(30)
C18? C 0.4499(33) 0.0530(8) 0.6269(30)
C28? C 0.8586(36) -0.0090(9) -0.0822(35)
C30? C 0.7920(36) 0.0190(9) 0.0088(33)
H20? H 0.5780 0.0367 0.4481
H22? H 0.4620 0.0280 0.6853
H24? H 0.8888 -0.0357 -0.0412
H26? H 0.7842 0.0128 0.1172
loop_
_geom_bond_atom_site_label_1
_geom_bond_atom_site_label_2
_geom_bond_site_symmetry_1
_geom_bond_site_symmetry_2
Cl1 C1 1_555 1_555
Cl2 C11 1_555 1_555
Cl3 C11 1_555 1_555
Cl4 C8 1_555 1_555
Cl5 C9 1_555 1_555
Cl6 C10 1_555 1_555
C1 C2 1_555 1_555
C2 C3 1_555 1_555
C3 C4 1_555 1_555
C4 C5 1_555 1_555
C5 C6 1_555 1_555
C6 C7 1_555 1_555
C7 C2 1_555 1_555
C8 C7 1_555 1_555
C9 C8 1_555 1_555
C10 C1 1_555 1_555
C11 C1 1_555 1_555
C12 C3 1_555 1_555
N1 C4 1_555 1_555
N2 N1 1_555 1_555
C13 C5 1_555 1_555
C14 N1 1_555 1_555
C15 C14 1_555 1_555
C17 C15 1_555 1_555
C19 C17 1_555 1_555
C20 C19 1_555 1_555
C21 C14 1_555 1_555
C22 C19 1_555 1_555
C23 C13 1_555 1_555
C24 C23 1_555 1_555
C25 C24 1_555 1_555
C26 C25 1_555 1_555
C27 C26 1_555 1_555
C29 C23 1_555 1_555
C31 C26 1_555 1_555
H1 C2 1_555 1_555
H2 C3 1_555 1_555
H3 C6 1_555 1_555
H4 C7 1_555 1_555
H5 C9 1_555 1_555
H6 C10 1_555 1_555
H7 C12 1_555 1_555
H8 C12 1_555 1_555
H9 C20 1_555 1_555
H10 C21 1_555 1_555
H11 C22 1_555 1_555
H12 C22 1_555 1_555
H13 C22 1_555 1_555
H14 C24 1_555 1_555
H15 C25 1_555 1_555
H16 C31 1_555 1_555
H17 C31 1_555 1_555
H18 C31 1_555 1_555
H19 C15 1_555 1_555
H21 C17 1_555 1_555
H23 C27 1_555 1_555
H25 C29 1_555 1_555
C6 C12 1_555 1_555
C8 C11 1_555 1_555
C9 C10 1_555 1_555
N2 C13 1_555 1_555
C20 C21 1_555 1_555
C27 C29 1_555 1_555

#END
