
#######################################################################
#
#                 Cambridge Crystallographic Data Centre
#                                CCDC 
#
#######################################################################
#
# If this CIF has been generated from an entry in the Cambridge 
# Structural Database, then it will include bibliographic, chemical, 
# crystal, experimental, refinement or atomic coordinate data resulting 
# from the CCDC's data processing and validation procedures.
#
#######################################################################

data_WAMJEZ
_chemical_formula_moiety         'C27 H22 Cl6 N2'
_chemical_name_systematic        
endo,endo,exo-5,6-Diaza-1,11,12,13,14,14-hexachloro-5,7-bis(p-tolyl)pentacyclo(9.2.1.1^3,9^.0^2,10^.0^4,8^)pentadeca-6,12-diene
_symmetry_cell_setting           orthorhombic
_symmetry_space_group_name_H-M   'P b c a'
_symmetry_Int_Tables_number      61
_space_group_name_Hall           '-P 2ac 2ab'
loop_
_symmetry_equiv_pos_site_id
_symmetry_equiv_pos_as_xyz
1 x,y,z
2 1/2-x,1/2+y,z
3 x,1/2-y,1/2+z
4 1/2-x,-y,1/2+z
5 -x,-y,-z
6 1/2+x,1/2-y,-z
7 -x,1/2+y,1/2-z
8 1/2+x,y,1/2-z
_cell_length_a                   14.187(3)
_cell_length_b                   17.786(4)
_cell_length_c                   21.284(4)
_cell_angle_alpha                90
_cell_angle_beta                 90
_cell_angle_gamma                90
_cell_volume                     5370.59
_exptl_crystal_colour            'pale yellow'
_chemical_melting_point          229-231deg.C
_cell_formula_units_Z            8
loop_
_atom_site_label
_atom_site_type_symbol
_atom_site_fract_x
_atom_site_fract_y
_atom_site_fract_z
Cl1 Cl -0.1334(2) 0.5070(1) 0.4686(1)
Cl2 Cl -0.2763(2) 0.5516(1) 0.2287(1)
Cl3 Cl -0.0542(2) 0.6041(1) 0.2325(1)
Cl4 Cl 0.0310(2) 0.5774(1) 0.3798(1)
Cl5 Cl -0.3414(2) 0.4990(1) 0.3814(1)
Cl6 Cl -0.2427(2) 0.6369(1) 0.3718(1)
N1 N 0.0185(5) 0.3517(4) 0.2050(3)
N2 N 0.0885(4) 0.3179(3) 0.2383(3)
C1 C -0.1445(5) 0.5006(5) 0.3868(3)
C2 C -0.1562(6) 0.4195(4) 0.3612(3)
C3 C -0.0754(6) 0.3629(4) 0.3499(4)
C4 C 0.0062(6) 0.3941(5) 0.3104(3)
C5 C 0.0815(5) 0.3376(4) 0.2979(3)
C6 C -0.0366(6) 0.4053(4) 0.2442(3)
C7 C -0.1396(5) 0.3790(4) 0.2521(4)
C8 C -0.1974(6) 0.4323(4) 0.2940(4)
C9 C -0.2013(5) 0.5194(4) 0.2893(3)
C10 C -0.1057(5) 0.5557(4) 0.2920(4)
C11 C -0.0722(5) 0.5452(4) 0.3492(4)
C12 C -0.2345(6) 0.5387(4) 0.3578(3)
C13 C -0.1265(6) 0.3143(4) 0.2998(4)
C14 C 0.2091(3) 0.2509(3) 0.3282(2)
C15 C 0.2740 0.2245 0.3723
C16 C 0.2811 0.2591 0.4310
C17 C 0.2233 0.3201 0.4457
C18 C 0.1584 0.3465 0.4016
C19 C 0.1513 0.3119 0.3429
C20 C 0.3468(6) 0.2279(5) 0.4807(4)
C21 C -0.0381(3) 0.4029(3) 0.1051(2)
C22 C -0.0312 0.4075 0.0398
C23 C 0.0334 0.3624 0.0077
C24 C 0.0910 0.3128 0.0409
C25 C 0.0841 0.3083 0.1063
C26 C 0.0195 0.3533 0.1384
C27 C 0.0407(6) 0.3660(5) -0.0641(4)
H1 H 0.2040 0.2270 0.2878
H2 H 0.3137 0.1825 0.3622
H3 H 0.2281 0.3439 0.4860
H4 H 0.1184 0.3884 0.4116
H5 H 0.3816 0.1865 0.4635
H6 H 0.3105 0.2109 0.5161
H7 H 0.3899 0.2664 0.4941
H8 H -0.0825 0.4338 0.1272
H9 H -0.0706 0.4416 0.0168
H10 H 0.1356 0.2818 0.0189
H11 H 0.1237 0.2740 0.1292
H12 H -0.0032 0.4025 -0.0798
H13 H 0.0261 0.3176 -0.0816
H14 H 0.1035 0.3801 -0.0760
H15 H -0.2043(46) 0.3931(36) 0.3886(30)
H16 H -0.0586(46) 0.3306(36) 0.3886(30)
H17 H 0.0346(48) 0.4365(39) 0.3245(32)
H18 H -0.0362(47) 0.4562(38) 0.2298(30)
H19 H -0.1712(48) 0.3684(39) 0.2155(31)
H20 H -0.2669(50) 0.4158(37) 0.2934(30)
H21 H -0.1885(45) 0.2941(37) 0.3167(31)
H22 H -0.0839(45) 0.2711(36) 0.2814(30)
loop_
_geom_bond_atom_site_label_1
_geom_bond_atom_site_label_2
_geom_bond_site_symmetry_1
_geom_bond_site_symmetry_2
Cl1 C1 1_555 1_555
Cl2 C9 1_555 1_555
Cl3 C10 1_555 1_555
Cl4 C11 1_555 1_555
Cl5 C12 1_555 1_555
Cl6 C12 1_555 1_555
N1 N2 1_555 1_555
N2 C5 1_555 1_555
C1 C2 1_555 1_555
C2 C3 1_555 1_555
C3 C4 1_555 1_555
C4 C5 1_555 1_555
C5 C19 1_555 1_555
C6 N1 1_555 1_555
C7 C6 1_555 1_555
C8 C2 1_555 1_555
C9 C8 1_555 1_555
C10 C9 1_555 1_555
C11 C1 1_555 1_555
C12 C1 1_555 1_555
C13 C3 1_555 1_555
C14 C15 1_555 1_555
C15 C16 1_555 1_555
C16 C17 1_555 1_555
C17 C18 1_555 1_555
C18 C19 1_555 1_555
C19 C14 1_555 1_555
C20 C16 1_555 1_555
C21 C22 1_555 1_555
C22 C23 1_555 1_555
C23 C24 1_555 1_555
C24 C25 1_555 1_555
C25 C26 1_555 1_555
C26 N1 1_555 1_555
C27 C23 1_555 1_555
H1 C14 1_555 1_555
H2 C15 1_555 1_555
H3 C17 1_555 1_555
H4 C18 1_555 1_555
H5 C20 1_555 1_555
H6 C20 1_555 1_555
H7 C20 1_555 1_555
H8 C21 1_555 1_555
H9 C22 1_555 1_555
H10 C24 1_555 1_555
H11 C25 1_555 1_555
H12 C27 1_555 1_555
H13 C27 1_555 1_555
H14 C27 1_555 1_555
H15 C2 1_555 1_555
H16 C3 1_555 1_555
H17 C4 1_555 1_555
H18 C6 1_555 1_555
H19 C7 1_555 1_555
H20 C8 1_555 1_555
H21 C13 1_555 1_555
H22 C13 1_555 1_555
C4 C6 1_555 1_555
C7 C8 1_555 1_555
C7 C13 1_555 1_555
C9 C12 1_555 1_555
C10 C11 1_555 1_555
C21 C26 1_555 1_555

#END
