
#######################################################################
#
#                 Cambridge Crystallographic Data Centre
#                                CCDC 
#
#######################################################################
#
# If this CIF has been generated from an entry in the Cambridge 
# Structural Database, then it will include bibliographic, chemical, 
# crystal, experimental, refinement or atomic coordinate data resulting 
# from the CCDC's data processing and validation procedures.
#
#######################################################################

data_WAMWAJ
_chemical_formula_moiety         'C32 H24 O4'
_chemical_name_systematic        
cis-syn-3,3'-Di-p-tolyl-3,3'-dihydroxy-[2,2'-bi-1H-indene]-1,1'-dione
_symmetry_cell_setting           orthorhombic
_symmetry_space_group_name_H-M   'P b c a'
_symmetry_Int_Tables_number      61
_space_group_name_Hall           '-P 2ac 2ab'
loop_
_symmetry_equiv_pos_site_id
_symmetry_equiv_pos_as_xyz
1 x,y,z
2 1/2-x,-y,1/2+z
3 -x,1/2+y,1/2-z
4 1/2+x,1/2-y,-z
5 -x,-y,-z
6 1/2+x,y,1/2-z
7 x,1/2-y,1/2+z
8 1/2-x,1/2+y,z
_cell_length_a                   13.025(7)
_cell_length_b                   13.966(7)
_cell_length_c                   27.234(14)
_cell_angle_alpha                90
_cell_angle_beta                 90
_cell_angle_gamma                90
_cell_volume                     4954.06
_exptl_crystal_colour            yellow
_exptl_crystal_description       prism
_chemical_melting_point          '319-320 deg.C'
_cell_formula_units_Z            8
loop_
_atom_site_label
_atom_site_type_symbol
_atom_site_fract_x
_atom_site_fract_y
_atom_site_fract_z
O1 O 0.7116(5) 0.3633(5) 0.0910(3)
O2 O 0.6381(5) 0.5017(4) 0.0282(2)
O3 O 0.3538(5) 0.2940(4) 0.0998(2)
H1 H 0.3472 0.3589 0.0973
O4 O 0.3136(4) 0.4734(4) 0.0690(2)
H2 H 0.3478 0.4947 0.0345
C1 C 0.5246(7) 0.3739(6) 0.0987(3)
C2 C 0.6293(8) 0.3255(7) 0.0913(4)
C3 C 0.6065(7) 0.2220(7) 0.0894(4)
C4 C 0.6706(8) 0.1473(8) 0.0734(4)
H3 H 0.7381 0.1585 0.0640
C5 C 0.6287(9) 0.0557(7) 0.0724(4)
H4 H 0.6687 0.0046 0.0619
C6 C 0.5295(9) 0.0399(8) 0.0867(4)
H5 H 0.5034 -0.0221 0.0855
C7 C 0.4669(8) 0.1132(7) 0.1028(4)
H6 H 0.3996 0.1013 0.1124
C8 C 0.5070(7) 0.2047(7) 0.1042(4)
C9 C 0.4544(7) 0.2960(6) 0.1212(4)
C10 C 0.4495(8) 0.2981(6) 0.1770(4)
C11 C 0.5354(9) 0.3137(7) 0.2053(4)
H7 H 0.5980 0.3252 0.1900
C12 C 0.5304(10) 0.3128(8) 0.2562(4)
H8 H 0.5895 0.3243 0.2744
C13 C 0.4409(12) 0.2954(8) 0.2796(5)
C14 C 0.3567(10) 0.2781(8) 0.2522(5)
H9 H 0.2950 0.2654 0.2680
C15 C 0.3588(9) 0.2785(7) 0.2016(4)
H10 H 0.2993 0.2655 0.1840
C16 C 0.4347(12) 0.2948(9) 0.3348(5)
H11 H 0.3782 0.3340 0.3452
H12 H 0.4974 0.3197 0.3482
H13 H 0.4247 0.2304 0.3461
C17 C 0.4993(7) 0.4615(6) 0.0856(3)
C18 C 0.5637(8) 0.5255(6) 0.0529(3)
C19 C 0.5142(7) 0.6188(6) 0.0510(3)
C20 C 0.5464(8) 0.7026(7) 0.0276(4)
H14 H 0.6093 0.7048 0.0115
C21 C 0.4837(8) 0.7816(7) 0.0287(4)
H15 H 0.5044 0.8382 0.0137
C22 C 0.3901(8) 0.7767(7) 0.0522(4)
H16 H 0.3482 0.8307 0.0525
C23 C 0.3562(8) 0.6940(7) 0.0755(4)
H17 H 0.2927 0.6918 0.0911
C24 C 0.4206(7) 0.6149(6) 0.0746(3)
C25 C 0.3985(7) 0.5163(6) 0.0956(3)
C26 C 0.3677(8) 0.5221(6) 0.1492(4)
C27 C 0.4400(9) 0.5497(7) 0.1842(4)
H18 H 0.5072 0.5625 0.1748
C28 C 0.4110(9) 0.5581(7) 0.2334(4)
H19 H 0.4598 0.5753 0.2567
C29 C 0.3130(11) 0.5414(8) 0.2477(5)
C30 C 0.2434(9) 0.5154(8) 0.2138(4)
H20 H 0.1760 0.5045 0.2236
C31 C 0.2685(8) 0.5043(7) 0.1649(4)
H21 H 0.2188 0.4849 0.1425
C32 C 0.2835(11) 0.5504(10) 0.3011(4)
H22 H 0.2315 0.5986 0.3045
H23 H 0.3428 0.5682 0.3200
H24 H 0.2575 0.4902 0.3127
loop_
_geom_bond_atom_site_label_1
_geom_bond_atom_site_label_2
_geom_bond_site_symmetry_1
_geom_bond_site_symmetry_2
O1 C2 1_555 1_555
O2 C18 1_555 1_555
O3 H1 1_555 1_555
O4 H2 1_555 1_555
C1 C2 1_555 1_555
C2 C3 1_555 1_555
C3 C4 1_555 1_555
C4 H3 1_555 1_555
C5 C4 1_555 1_555
H4 C5 1_555 1_555
C6 C5 1_555 1_555
H5 C6 1_555 1_555
C7 C6 1_555 1_555
H6 C7 1_555 1_555
C8 C3 1_555 1_555
C9 O3 1_555 1_555
C10 C9 1_555 1_555
C11 C10 1_555 1_555
H7 C11 1_555 1_555
C12 C11 1_555 1_555
H8 C12 1_555 1_555
C13 C12 1_555 1_555
C14 C13 1_555 1_555
H9 C14 1_555 1_555
C15 C10 1_555 1_555
H10 C15 1_555 1_555
C16 C13 1_555 1_555
H11 C16 1_555 1_555
H12 C16 1_555 1_555
H13 C16 1_555 1_555
C17 C1 1_555 1_555
C18 C17 1_555 1_555
C19 C18 1_555 1_555
C20 C19 1_555 1_555
H14 C20 1_555 1_555
C21 C20 1_555 1_555
H15 C21 1_555 1_555
C22 C21 1_555 1_555
H16 C22 1_555 1_555
C23 C22 1_555 1_555
H17 C23 1_555 1_555
C24 C19 1_555 1_555
C25 O4 1_555 1_555
C26 C25 1_555 1_555
C27 C26 1_555 1_555
H18 C27 1_555 1_555
C28 C27 1_555 1_555
H19 C28 1_555 1_555
C29 C28 1_555 1_555
C30 C29 1_555 1_555
H20 C30 1_555 1_555
C31 C26 1_555 1_555
H21 C31 1_555 1_555
C32 C29 1_555 1_555
H22 C32 1_555 1_555
H23 C32 1_555 1_555
H24 C32 1_555 1_555
C1 C9 1_555 1_555
C7 C8 1_555 1_555
C8 C9 1_555 1_555
C14 C15 1_555 1_555
C17 C25 1_555 1_555
C23 C24 1_555 1_555
C24 C25 1_555 1_555
C30 C31 1_555 1_555

#END
