
#######################################################################
#
#                 Cambridge Crystallographic Data Centre
#                                CCDC 
#
#######################################################################
#
# If this CIF has been generated from an entry in the Cambridge 
# Structural Database, then it will include bibliographic, chemical, 
# crystal, experimental, refinement or atomic coordinate data resulting 
# from the CCDC's data processing and validation procedures.
#
#######################################################################

data_WANCAS
_chemical_formula_moiety         'C36 H47 N5 O1,0.92(C1 H1 Cl3)'
_chemical_name_systematic        
'3,3,7,8,12,13,17,18-octaethyl-2-(hydroxyimino)chlorin chloroform solvate'
_symmetry_cell_setting           triclinic
_symmetry_space_group_name_H-M   'P -1'
_symmetry_Int_Tables_number      2
_space_group_name_Hall           '-P 1'
loop_
_symmetry_equiv_pos_site_id
_symmetry_equiv_pos_as_xyz
1 x,y,z
2 -x,-y,-z
_cell_length_a                   10.9398(12)
_cell_length_b                   11.9741(15)
_cell_length_c                   14.422(3)
_cell_angle_alpha                97.601(8)
_cell_angle_beta                 94.954(6)
_cell_angle_gamma                105.895(5)
_cell_volume                     1786.05
_exptl_crystal_colour            brown
_exptl_crystal_description       plate
_cell_formula_units_Z            2
loop_
_atom_site_label
_atom_site_type_symbol
_atom_site_fract_x
_atom_site_fract_y
_atom_site_fract_z
O1 O 0.3499(2) 0.9752(2) 0.49701(16)
H1 H 0.4079 1.0027 0.5430
N1 N 0.2519(3) 0.8155(4) 0.1854(2)
N2 N 0.0545(3) 0.6851(6) 0.0283(3)
H2 H 0.1365 0.7233 0.0342
N3 N 0.2583(4) 0.7121(5) -0.0952(3)
N4 N 0.4557(3) 0.8473(5) 0.0550(3)
H3 H 0.3750 0.8047 0.0491
N5 N 0.4056(3) 0.9550(3) 0.41383(18)
C1 C 0.3581(3) 0.8781(3) 0.2465(2)
C2 C 0.3228(3) 0.9014(3) 0.3426(2)
C3 C 0.1807(3) 0.8517(3) 0.3370(2)
C4 C 0.1476(4) 0.7971(3) 0.2321(2)
C5 C 0.0233(3) 0.7354(3) 0.1927(3)
H4 H -0.0400 0.7295 0.2344
C6 C -0.0201(3) 0.6813(4) 0.0998(2)
C7 C -0.1481(3) 0.6104(3) 0.0605(2)
C8 C -0.1460(4) 0.5722(4) -0.0332(3)
C9 C -0.0170(5) 0.6207(5) -0.0540(3)
C10 C 0.0303(3) 0.6023(7) -0.1395(3)
H5 H -0.0296 0.5536 -0.1904
C11 C 0.1560(3) 0.6473(2) -0.15922(19)
C12 C 0.1954(4) 0.6213(4) -0.2518(2)
C13 C 0.3243(4) 0.6723(3) -0.2426(3)
C14 C 0.3615(3) 0.7311(3) -0.1451(3)
C15 C 0.4858(4) 0.8009(8) -0.1086(3)
H6 H 0.5476 0.8089 -0.1516
C16 C 0.5292(4) 0.8594(4) -0.0176(2)
C17 C 0.6547(4) 0.9355(3) 0.0221(3)
C18 C 0.6524(3) 0.9653(4) 0.1165(2)
C19 C 0.5255(4) 0.9106(4) 0.1374(3)
C20 C 0.4814(3) 0.9204(3) 0.2248(2)
H7 H 0.5444 0.9617 0.2765
C21 C 0.1427(3) 0.7565(3) 0.4009(2)
H8 H 0.1594 0.7955 0.4675
H9 H 0.0496 0.7167 0.3860
C22 C 0.2146(4) 0.6644(3) 0.3895(2)
H10 H 0.2007 0.6269 0.3233
H11 H 0.1831 0.6048 0.4291
H12 H 0.3064 0.7022 0.4089
C23 C 0.1154(3) 0.9498(3) 0.3606(2)
H13 H 0.0213 0.9150 0.3466
H14 H 0.1359 0.9807 0.4289
C24 C 0.1562(4) 1.0513(3) 0.3062(3)
H15 H 0.1335 1.0220 0.2384
H16 H 0.2490 1.0872 0.3203
H17 H 0.1122 1.1104 0.3247
C25 C -0.2620(3) 0.5804(3) 0.1142(3)
H18 H -0.2308 0.5953 0.1825
H19 H -0.3069 0.4953 0.0963
C26 C -0.3573(5) 0.6494(5) 0.0972(3)
H20 H -0.3920 0.6324 0.0302
H21 H -0.3140 0.7338 0.1151
H22 H -0.4274 0.6265 0.1352
C27 C -0.2529(4) 0.4906(4) -0.1031(3)
H23 H -0.3206 0.4486 -0.0684
H24 H -0.2197 0.4311 -0.1387
C28 C -0.3134(5) 0.5529(5) -0.1741(4)
H25 H -0.2463 0.5983 -0.2065
H26 H -0.3547 0.6059 -0.1402
H27 H -0.3773 0.4938 -0.2205
C29 C 0.1078(4) 0.5561(3) -0.3393(3)
H28 H 0.0468 0.4850 -0.3242
H29 H 0.1589 0.5301 -0.3866
C30 C 0.0319(4) 0.6324(4) -0.3821(3)
H30 H 0.0917 0.7053 -0.3935
H31 H -0.0256 0.6516 -0.3381
H32 H -0.0186 0.5889 -0.4418
C31 C 0.4123(4) 0.6713(3) -0.3169(3)
H33 H 0.3787 0.5970 -0.3623
H34 H 0.4978 0.6733 -0.2867
C32 C 0.4265(4) 0.7738(3) -0.3699(3)
H35 H 0.4781 0.7650 -0.4211
H36 H 0.4690 0.8473 -0.3266
H37 H 0.3416 0.7757 -0.3962
C33 C 0.7656(4) 0.9714(4) -0.0328(3)
H38 H 0.8207 1.0504 -0.0029
H39 H 0.7324 0.9771 -0.0975
C34 C 0.8474(7) 0.8857(7) -0.0387(7)
H40 H 0.7944 0.8078 -0.0704
H41 H 0.8815 0.8802 0.0251
H42 H 0.9185 0.9144 -0.0745
C35 C 0.7589(4) 1.0434(3) 0.1893(3)
H43 H 0.7253 1.1001 0.2280
H44 H 0.8273 1.0889 0.1569
C36 C 0.8167(5) 0.9739(4) 0.2543(3)
H45 H 0.8591 0.9244 0.2174
H46 H 0.7483 0.9242 0.2831
H47 H 0.8794 1.0290 0.3040
C37 C 0.3169(5) 0.2631(6) 0.5265(5)
H48 H 0.3301 0.1930 0.4872
Cl1 Cl 0.3391(3) 0.3771(3) 0.4590(2)
Cl2 Cl 0.4251(2) 0.2987(3) 0.62927(17)
Cl3 Cl 0.15928(16) 0.2248(2) 0.55274(14)
O2? O 0.5316(15) 0.953(3) 0.401(2)
H49? H 0.5821 0.9891 0.4492
O3? O 0.073(3) 0.876(2) 0.4668(15)
H50? H 0.0075 0.8678 0.4942
N6? N 0.212(2) 0.802(4) 0.1816(18)
N7? N 0.428(3) 0.845(6) 0.060(2)
H51? H 0.3440 0.8179 0.0471
N8? N 0.251(3) 0.727(6) -0.095(2)
N9? N 0.030(4) 0.674(7) 0.020(3)
H52? H 0.1098 0.7188 0.0308
N10? N 0.040(2) 0.812(2) 0.3741(15)
C38? C 0.106(3) 0.764(4) 0.2247(17)
C39? C 0.134(2) 0.820(3) 0.3266(15)
C40? C 0.274(2) 0.8771(19) 0.3482(15)
C41? C 0.313(2) 0.855(3) 0.2485(17)
C42? C 0.438(3) 0.897(4) 0.231(2)
H53? H 0.4969 0.9355 0.2857
C43? C 0.494(3) 0.893(4) 0.149(2)
C44? C 0.621(3) 0.958(4) 0.1332(19)
C45? C 0.638(3) 0.919(4) 0.0424(19)
C46? C 0.513(3) 0.845(5) -0.004(2)
C47? C 0.480(4) 0.815(10) -0.101(2)
H54? H 0.5448 0.8358 -0.1410
C48? C 0.355(3) 0.754(5) -0.143(2)
C49? C 0.320(3) 0.704(3) -0.2427(18)
C50? C 0.195(3) 0.642(4) -0.2541(14)
C51? C 0.0267(11) 0.614(8) -0.146(2)
H55? H -0.0327 0.5985 -0.2015
C52? C -0.027(4) 0.602(6) -0.062(3)
C53? C -0.160(3) 0.550(4) -0.051(2)
C54? C -0.175(3) 0.587(4) 0.039(2)
C55? C -0.056(3) 0.666(4) 0.0851(19)
C56? C -0.016(3) 0.706(4) 0.1811(19)
H56? H -0.0808 0.6909 0.2214
C57? C 0.342(3) 0.814(2) 0.4139(18)
H57? H 0.4359 0.8506 0.4188
H58? H 0.3168 0.8277 0.4778
C58? C 0.312(4) 0.682(2) 0.381(3)
H59? H 0.3730 0.6673 0.3383
H60? H 0.2249 0.6512 0.3485
H61? H 0.3206 0.6431 0.4361
C59? C 0.309(3) 1.0111(19) 0.3822(18)
H62? H 0.2780 1.0257 0.4438
H63? H 0.4036 1.0441 0.3915
C60? C 0.252(4) 1.074(3) 0.312(3)
H64? H 0.3084 1.0920 0.2639
H65? H 0.2419 1.1471 0.3458
H66? H 0.1674 1.0229 0.2823
C61? C 0.732(3) 1.023(3) 0.209(3)
H67? H 0.6992 1.0333 0.2709
H68? H 0.7726 1.1024 0.1947
C62? C 0.832(4) 0.955(5) 0.216(3)
H69? H 0.8030 0.8917 0.2526
H70? H 0.9140 1.0087 0.2470
H71? H 0.8421 0.9215 0.1524
C63? C 0.745(4) 0.974(4) -0.009(3)
H72? H 0.8014 1.0454 0.0329
H73? H 0.7086 1.0006 -0.0645
C64? C 0.827(7) 0.894(7) -0.042(6)
H74? H 0.8224 0.8844 -0.1111
H75? H 0.7939 0.8169 -0.0232
H76? H 0.9160 0.9298 -0.0137
C65? C 0.407(3) 0.724(3) -0.318(2)
H77? H 0.4721 0.8015 -0.3003
H78? H 0.3556 0.7251 -0.3783
C66? C 0.474(4) 0.626(3) -0.333(3)
H79? H 0.4088 0.5493 -0.3468
H80? H 0.5306 0.6304 -0.2757
H81? H 0.5237 0.6372 -0.3860
C67? C 0.099(4) 0.595(3) -0.342(2)
H82? H 0.0411 0.5179 -0.3357
H83? H 0.1458 0.5829 -0.3969
C68? C 0.021(4) 0.679(4) -0.360(3)
H84? H 0.0763 0.7506 -0.3774
H85? H -0.0157 0.6996 -0.3030
H86? H -0.0483 0.6409 -0.4119
C69? C -0.261(4) 0.487(4) -0.132(3)
H87? H -0.3181 0.4160 -0.1135
H88? H -0.2205 0.4615 -0.1864
C70? C -0.341(5) 0.567(5) -0.161(4)
H89? H -0.2897 0.6277 -0.1921
H90? H -0.3690 0.6033 -0.1050
H91? H -0.4170 0.5193 -0.2049
C71? C -0.297(3) 0.557(3) 0.085(2)
H92? H -0.2740 0.5607 0.1531
H93? H -0.3475 0.4752 0.0582
C72? C -0.380(5) 0.639(5) 0.070(4)
H94? H -0.3250 0.7158 0.0611
H95? H -0.4234 0.6493 0.1257
H96? H -0.4431 0.6050 0.0143
C73? C 0.264(3) 0.308(2) 0.5789(19)
H97? H 0.1890 0.3131 0.6128
Cl4? Cl 0.283(3) 0.388(3) 0.4835(19)
Cl5? Cl 0.412(4) 0.353(2) 0.652(3)
Cl6? Cl 0.260(2) 0.1634(12) 0.5326(11)
C74? C 0.324(3) 0.283(3) 0.5490(15)
H98? H 0.3730 0.2261 0.5332
Cl7? Cl 0.156(2) 0.218(2) 0.531(2)
Cl8? Cl 0.355(2) 0.4000(15) 0.4833(13)
Cl9? Cl 0.344(3) 0.3378(16) 0.6693(9)
loop_
_geom_bond_atom_site_label_1
_geom_bond_atom_site_label_2
_geom_bond_site_symmetry_1
_geom_bond_site_symmetry_2
O1 H1 1_555 1_555
N1 C1 1_555 1_555
N2 H2 1_555 1_555
N3 C11 1_555 1_555
N4 H3 1_555 1_555
N5 O1 1_555 1_555
C1 C2 1_555 1_555
C2 N5 1_555 1_555
C3 C2 1_555 1_555
C4 N1 1_555 1_555
C5 C4 1_555 1_555
H4 C5 1_555 1_555
C6 N2 1_555 1_555
C7 C6 1_555 1_555
C8 C7 1_555 1_555
C9 N2 1_555 1_555
C10 C9 1_555 1_555
H5 C10 1_555 1_555
C11 C10 1_555 1_555
C12 C11 1_555 1_555
C13 C12 1_555 1_555
C14 N3 1_555 1_555
C15 C14 1_555 1_555
H6 C15 1_555 1_555
C16 N4 1_555 1_555
C17 C16 1_555 1_555
C18 C17 1_555 1_555
C19 N4 1_555 1_555
C20 C1 1_555 1_555
H7 C20 1_555 1_555
C21 C3 1_555 1_555
H8 C21 1_555 1_555
H9 C21 1_555 1_555
C22 C21 1_555 1_555
H10 C22 1_555 1_555
H11 C22 1_555 1_555
H12 C22 1_555 1_555
C23 C3 1_555 1_555
H13 C23 1_555 1_555
H14 C23 1_555 1_555
C24 C23 1_555 1_555
H15 C24 1_555 1_555
H16 C24 1_555 1_555
H17 C24 1_555 1_555
C25 C7 1_555 1_555
H18 C25 1_555 1_555
H19 C25 1_555 1_555
C26 C25 1_555 1_555
H20 C26 1_555 1_555
H21 C26 1_555 1_555
H22 C26 1_555 1_555
C27 C8 1_555 1_555
H23 C27 1_555 1_555
H24 C27 1_555 1_555
C28 C27 1_555 1_555
H25 C28 1_555 1_555
H26 C28 1_555 1_555
H27 C28 1_555 1_555
C29 C12 1_555 1_555
H28 C29 1_555 1_555
H29 C29 1_555 1_555
C30 C29 1_555 1_555
H30 C30 1_555 1_555
H31 C30 1_555 1_555
H32 C30 1_555 1_555
C31 C13 1_555 1_555
H33 C31 1_555 1_555
H34 C31 1_555 1_555
C32 C31 1_555 1_555
H35 C32 1_555 1_555
H36 C32 1_555 1_555
H37 C32 1_555 1_555
C33 C17 1_555 1_555
H38 C33 1_555 1_555
H39 C33 1_555 1_555
C34 C33 1_555 1_555
H40 C34 1_555 1_555
H41 C34 1_555 1_555
H42 C34 1_555 1_555
C35 C18 1_555 1_555
H43 C35 1_555 1_555
H44 C35 1_555 1_555
C36 C35 1_555 1_555
H45 C36 1_555 1_555
H46 C36 1_555 1_555
H47 C36 1_555 1_555
C37 H48 1_555 1_555
Cl1 C37 1_555 1_555
Cl2 C37 1_555 1_555
Cl3 C37 1_555 1_555
C3 C4 1_555 1_555
C5 C6 1_555 1_555
C8 C9 1_555 1_555
C13 C14 1_555 1_555
C15 C16 1_555 1_555
C18 C19 1_555 1_555
C19 C20 1_555 1_555

#END
