
#######################################################################
#
#                 Cambridge Crystallographic Data Centre
#                                CCDC 
#
#######################################################################
#
# If this CIF has been generated from an entry in the Cambridge 
# Structural Database, then it will include bibliographic, chemical, 
# crystal, experimental, refinement or atomic coordinate data resulting 
# from the CCDC's data processing and validation procedures.
#
#######################################################################

data_WANDEX
_chemical_name_common            
3,7,8,12,13,17,18-heptaethyl-3-hydroxyporphyrin-2(3H)-one
_chemical_formula_moiety         'C34 H42 N4 O2'
_chemical_name_systematic        
3,7,8,12,13,17,18-heptaethyl-3-hydroxy-2-oxochlorin
_symmetry_cell_setting           triclinic
_symmetry_space_group_name_H-M   'P -1'
_symmetry_Int_Tables_number      2
_space_group_name_Hall           '-P 1'
loop_
_symmetry_equiv_pos_site_id
_symmetry_equiv_pos_as_xyz
1 x,y,z
2 -x,-y,-z
_cell_length_a                   7.1471(4)
_cell_length_b                   9.5685(6)
_cell_length_c                   22.3657(13)
_cell_angle_alpha                99.940(3)
_cell_angle_beta                 94.975(3)
_cell_angle_gamma                104.049(3)
_cell_volume                     1448.2
_exptl_crystal_colour            black
_exptl_crystal_description       plate
_cell_formula_units_Z            2
loop_
_atom_site_label
_atom_site_type_symbol
_atom_site_fract_x
_atom_site_fract_y
_atom_site_fract_z
C1 C 0.9755(4) 0.1957(3) 0.36479(10)
C2 C 0.6727(4) 0.0708(3) 0.36707(10)
C3 C 0.4758(4) 0.0027(3) 0.35062(10)
H1 H 0.4122 -0.0466 0.3796
C4 C 0.3607(3) -0.0018(2) 0.29658(9)
C5 C 0.1558(3) -0.0688(2) 0.28006(10)
C6 C 0.1020(3) -0.0426(2) 0.22346(9)
C7 C 0.2741(3) 0.0389(2) 0.20355(9)
C8 C 0.2900(3) 0.0888(2) 0.14924(9)
H2 H 0.1741 0.0637 0.1210
C9 C 0.4573(3) 0.1721(2) 0.13093(8)
C10 C 0.4545(3) 0.2286(2) 0.07443(9)
C11 C 0.6391(3) 0.3096(2) 0.07393(9)
C12 C 0.7518(3) 0.2993(2) 0.12976(9)
C13 C 0.9508(3) 0.3675(2) 0.14598(9)
H3 H 1.0129 0.4193 0.1174
C14 C 1.0681(3) 0.3684(2) 0.19891(10)
C15 C 1.2724(3) 0.4354(2) 0.21536(10)
C16 C 1.3263(3) 0.4078(2) 0.27179(11)
C17 C 1.1551(3) 0.3247(2) 0.29128(10)
C18 C 1.1393(3) 0.2744(3) 0.34582(11)
H4 H 1.2563 0.2974 0.3734
C19 C 0.0304(3) -0.1558(3) 0.31860(11)
H5 H -0.1070 -0.1576 0.3069
H6 H 0.0680 -0.1059 0.3621
C20 C 0.0472(4) -0.3132(3) 0.31189(14)
H7 H -0.0029 -0.3665 0.2698
H8 H -0.0287 -0.3620 0.3405
H9 H 0.1841 -0.3124 0.3211
C21 C -0.0959(3) -0.0894(2) 0.18714(10)
H10 H -0.1128 -0.0121 0.1645
H11 H -0.1952 -0.1002 0.2155
C22 C -0.1287(3) -0.2352(2) 0.14146(10)
H12 H -0.2585 -0.2601 0.1178
H13 H -0.1188 -0.3132 0.1638
H14 H -0.0299 -0.2254 0.1136
C23 C 0.2805(3) 0.2026(2) 0.02772(9)
H15 H 0.2982 0.2855 0.0059
H16 H 0.1639 0.2002 0.0488
C24 C 0.2461(4) 0.0588(3) -0.01901(11)
H17 H 0.1285 0.0454 -0.0477
H18 H 0.2297 -0.0237 0.0023
H19 H 0.3581 0.0626 -0.0416
C25 C 0.7101(3) 0.3992(2) 0.02785(10)
H20 H 0.8117 0.4882 0.0493
H21 H 0.6006 0.4321 0.0100
C26 C 0.7928(4) 0.3203(3) -0.02366(11)
H22 H 0.6937 0.2319 -0.0454
H23 H 0.9064 0.2922 -0.0068
H24 H 0.8320 0.3855 -0.0522
C27 C 1.3973(3) 0.5254(2) 0.17790(11)
H25 H 1.3510 0.4843 0.1339
H26 H 1.5329 0.5189 0.1862
C28 C 1.3938(3) 0.6862(3) 0.19203(12)
H27 H 1.4706 0.7397 0.1649
H28 H 1.4493 0.7294 0.2348
H29 H 1.2591 0.6929 0.1855
C29 C 1.5242(3) 0.4534(3) 0.30893(12)
H30 H 1.6242 0.4758 0.2815
H31 H 1.5452 0.3704 0.3272
C30 C 1.5499(4) 0.5887(3) 0.36035(13)
H32 H 1.5462 0.6746 0.3423
H33 H 1.6753 0.6075 0.3859
H34 H 1.4445 0.5704 0.3856
N1 N 0.7910(3) 0.1481(2) 0.33378(8)
N2 N 0.4257(2) 0.06046(18) 0.24915(7)
H35 H 0.5471 0.1076 0.2480
N3 N 0.6388(2) 0.21590(17) 0.16370(7)
N4 N 1.0034(2) 0.30311(18) 0.24586(8)
H36 H 0.8825 0.2545 0.2467
O1 O 1.1364(8) 0.1538(5) 0.4567(2)
O2 O 0.7484(7) -0.0749(4) 0.43702(18)
H37 H 0.826(5) -0.091(6) 0.4637(15)
C31 C 0.9888(13) 0.1451(12) 0.4224(5)
C32 C 0.7819(14) 0.0736(8) 0.4305(3)
C33 C 0.7143(8) 0.1652(5) 0.48386(19)
H38 H 0.5775 0.1164 0.4870
H39 H 0.7941 0.1664 0.5225
C34 C 0.7280(15) 0.3224(10) 0.4775(5)
H40 H 0.8581 0.3675 0.4684
H41 H 0.7044 0.3783 0.5159
H42 H 0.6302 0.3231 0.4441
O3? O 0.722(2) -0.0361(16) 0.4566(6)
O4? O 1.1278(17) 0.0908(14) 0.4393(5)
H43? H 1.131(11) 0.049(11) 0.470(4)
C35? C 0.770(3) 0.0422(19) 0.4199(8)
C36? C 0.969(3) 0.151(3) 0.4283(12)
C37? C 0.9785(16) 0.2791(12) 0.4818(4)
H44? H 0.9967 0.2451 0.5207
H45? H 1.0947 0.3597 0.4811
C38? C 0.804(3) 0.340(3) 0.4814(14)
H46? H 0.7783 0.3678 0.4419
H47? H 0.8285 0.4268 0.5144
H48? H 0.6904 0.2652 0.4876
loop_
_geom_bond_atom_site_label_1
_geom_bond_atom_site_label_2
_geom_bond_site_symmetry_1
_geom_bond_site_symmetry_2
C1 C18 1_555 1_555
C2 C3 1_555 1_555
C3 H1 1_555 1_555
C4 C3 1_555 1_555
C5 C4 1_555 1_555
C6 C5 1_555 1_555
C7 C6 1_555 1_555
C8 C7 1_555 1_555
H2 C8 1_555 1_555
C9 C8 1_555 1_555
C10 C9 1_555 1_555
C11 C10 1_555 1_555
C12 C11 1_555 1_555
C13 C12 1_555 1_555
H3 C13 1_555 1_555
C14 C13 1_555 1_555
C15 C14 1_555 1_555
C16 C15 1_555 1_555
C17 C16 1_555 1_555
C18 C17 1_555 1_555
H4 C18 1_555 1_555
C19 C5 1_555 1_555
H5 C19 1_555 1_555
H6 C19 1_555 1_555
C20 C19 1_555 1_555
H7 C20 1_555 1_555
H8 C20 1_555 1_555
H9 C20 1_555 1_555
C21 C6 1_555 1_555
H10 C21 1_555 1_555
H11 C21 1_555 1_555
C22 C21 1_555 1_555
H12 C22 1_555 1_555
H13 C22 1_555 1_555
H14 C22 1_555 1_555
C23 C10 1_555 1_555
H15 C23 1_555 1_555
H16 C23 1_555 1_555
C24 C23 1_555 1_555
H17 C24 1_555 1_555
H18 C24 1_555 1_555
H19 C24 1_555 1_555
C25 C11 1_555 1_555
H20 C25 1_555 1_555
H21 C25 1_555 1_555
C26 C25 1_555 1_555
H22 C26 1_555 1_555
H23 C26 1_555 1_555
H24 C26 1_555 1_555
C27 C15 1_555 1_555
H25 C27 1_555 1_555
H26 C27 1_555 1_555
C28 C27 1_555 1_555
H27 C28 1_555 1_555
H28 C28 1_555 1_555
H29 C28 1_555 1_555
C29 C16 1_555 1_555
H30 C29 1_555 1_555
H31 C29 1_555 1_555
C30 C29 1_555 1_555
H32 C30 1_555 1_555
H33 C30 1_555 1_555
H34 C30 1_555 1_555
N1 C1 1_555 1_555
N2 C4 1_555 1_555
H35 N2 1_555 1_555
N3 C9 1_555 1_555
N4 C14 1_555 1_555
H36 N4 1_555 1_555
O1 C31 1_555 1_555
O2 H37 1_555 1_555
C31 C1 1_555 1_555
C32 C2 1_555 1_555
C33 C32 1_555 1_555
H38 C33 1_555 1_555
H39 C33 1_555 1_555
C34 C33 1_555 1_555
H40 C34 1_555 1_555
H41 C34 1_555 1_555
H42 C34 1_555 1_555
C2 N1 1_555 1_555
C7 N2 1_555 1_555
C12 N3 1_555 1_555
C17 N4 1_555 1_555
O2 C32 1_555 1_555
C31 C32 1_555 1_555

#END
