
#######################################################################
#
#                 Cambridge Crystallographic Data Centre
#                                CCDC 
#
#######################################################################
#
# If this CIF has been generated from an entry in the Cambridge 
# Structural Database, then it will include bibliographic, chemical, 
# crystal, experimental, refinement or atomic coordinate data resulting 
# from the CCDC's data processing and validation procedures.
#
#######################################################################

data_WANDIZ
_chemical_formula_moiety         'C10 H6 O8,C12 H8 N4 O1,2(H2 O1)'
_chemical_name_systematic        
'Benzene-1,2,4,5-tetracarboxylic acid 2,5-bis(3-pyridyl)-1,3,4-oxadiazole dihydrate'
_symmetry_cell_setting           monoclinic
_symmetry_space_group_name_H-M   'C 2/c'
_symmetry_Int_Tables_number      15
_space_group_name_Hall           '-C 2yn'
loop_
_symmetry_equiv_pos_site_id
_symmetry_equiv_pos_as_xyz
1 x,y,z
2 1/2+x,1/2+y,z
3 -x,y,1/2-z
4 1/2-x,1/2+y,1/2-z
5 -x,-y,-z
6 1/2-x,1/2-y,-z
7 x,-y,1/2+z
8 1/2+x,1/2-y,1/2+z
_cell_length_a                   8.730(3)
_cell_length_b                   16.337(5)
_cell_length_c                   16.476(6)
_cell_angle_alpha                90
_cell_angle_beta                 104.030(6)
_cell_angle_gamma                90
_cell_volume                     2279.74
_exptl_crystal_colour            colorless
_exptl_crystal_description       lamellar
_chemical_melting_point          236.2-237.7deg.C
_cell_formula_units_Z            4
loop_
_atom_site_label
_atom_site_type_symbol
_atom_site_fract_x
_atom_site_fract_y
_atom_site_fract_z
N1 N 0.04667(17) 0.23806(9) 0.52081(9)
N2 N 0.4338(2) 0.33122(10) 0.71554(11)
O1 O 0.5000 0.20386(10) 0.7500
C1 C 0.1641(2) 0.26941(11) 0.58073(10)
H5 H 0.1726 0.3259 0.5870
C2 C 0.27323(19) 0.21966(11) 0.63368(10)
C3 C 0.2592(2) 0.13526(11) 0.62442(11)
H6 H 0.3307 0.1006 0.6593
C4 C 0.1376(2) 0.10357(12) 0.56270(12)
H7 H 0.1254 0.0473 0.5556
C5 C 0.0347(2) 0.15674(12) 0.51176(11)
H8 H -0.0461 0.1353 0.4696
C6 C 0.3999(2) 0.25583(11) 0.69802(10)
N1B N 0.95333(17) 0.23806(9) 0.97919(9)
N2B N 0.5662(2) 0.33122(10) 0.78446(11)
C1B C 0.8359(2) 0.26941(11) 0.91927(10)
H5B H 0.8274 0.3259 0.9130
C2B C 0.72677(19) 0.21966(11) 0.86632(10)
C3B C 0.7408(2) 0.13526(11) 0.87558(11)
H6B H 0.6693 0.1006 0.8407
C4B C 0.8624(2) 0.10357(12) 0.93730(12)
H7B H 0.8746 0.0473 0.9444
C5B C 0.9653(2) 0.15674(12) 0.98824(11)
H8B H 1.0461 0.1353 1.0304
C6B C 0.6001(2) 0.25583(11) 0.80198(10)
O2 O 0.86627(16) 0.48404(9) 0.32086(9)
H1 H 0.9356 0.5113 0.3516
O3 O 0.74497(17) 0.49900(9) 0.42460(9)
O4 O 0.84821(17) 0.32670(8) 0.41669(9)
H2 H 0.9090 0.2956 0.4480
O5 O 0.73285(17) 0.21076(8) 0.36772(10)
C7 C 0.5000 0.46223(15) 0.2500
H9 H 0.5000 0.5192 0.2500
C8 C 0.6219(2) 0.42007(10) 0.30396(10)
C9 C 0.61988(19) 0.33447(10) 0.30599(10)
C10 C 0.5000 0.29324(14) 0.2500
H10 H 0.5000 0.2363 0.2500
C11 C 0.7516(2) 0.47098(11) 0.35791(11)
C12 C 0.7402(2) 0.28468(11) 0.36686(10)
O2B O 0.13373(16) 0.48404(9) 0.17914(9)
H1B H 0.0644 0.5113 0.1484
O3B O 0.25503(17) 0.49900(9) 0.07540(9)
O4B O 0.15179(17) 0.32670(8) 0.08331(9)
H2B H 0.0910 0.2956 0.0520
O5B O 0.26715(17) 0.21076(8) 0.13228(10)
C8B C 0.3781(2) 0.42007(10) 0.19604(10)
C9B C 0.38012(19) 0.33447(10) 0.19401(10)
C11B C 0.2484(2) 0.47098(11) 0.14209(11)
C12B C 0.2598(2) 0.28468(11) 0.13314(10)
O6 O 0.10592(19) 0.56487(10) 0.41043(10)
H3 H 0.1397 0.6107 0.3975
H4 H 0.1427 0.5544 0.4620
loop_
_geom_bond_atom_site_label_1
_geom_bond_atom_site_label_2
_geom_bond_site_symmetry_1
_geom_bond_site_symmetry_2
N1 C1 1_555 1_555
N2 C6 1_555 1_555
O1 C6 1_555 1_555
O2 H1 1_555 1_555
O3 C11 1_555 1_555
O4 H2 1_555 1_555
O5 C12 1_555 1_555
O6 H3 1_555 1_555
H4 O6 1_555 1_555
C1 H5 1_555 1_555
C2 C1 1_555 1_555
C3 C2 1_555 1_555
H6 C3 1_555 1_555
C4 C3 1_555 1_555
H7 C4 1_555 1_555
C5 N1 1_555 1_555
H8 C5 1_555 1_555
C6 C2 1_555 1_555
C7 H9 1_555 1_555
C8 C7 1_555 1_555
C9 C8 1_555 1_555
C10 C9 1_555 1_555
H10 C10 1_555 1_555
C11 O2 1_555 1_555
C12 O4 1_555 1_555
N1B C1B 1_555 1_555
N2B N2 1_555 1_555
O2B H1B 1_555 1_555
O3B C11B 1_555 1_555
O4B H2B 1_555 1_555
O5B C12B 1_555 1_555
C1B H5B 1_555 1_555
C2B C1B 1_555 1_555
C3B C2B 1_555 1_555
H6B C3B 1_555 1_555
C4B C3B 1_555 1_555
H7B C4B 1_555 1_555
C5B N1B 1_555 1_555
H8B C5B 1_555 1_555
C6B O1 1_555 1_555
C8B C7 1_555 1_555
C9B C10 1_555 1_555
C11B O2B 1_555 1_555
C12B O4B 1_555 1_555
C4 C5 1_555 1_555
C8 C11 1_555 1_555
C9 C12 1_555 1_555
N2B C6B 1_555 1_555
C2B C6B 1_555 1_555
C4B C5B 1_555 1_555
C8B C9B 1_555 1_555
C8B C11B 1_555 1_555
C9B C12B 1_555 1_555

#END
