
#######################################################################
#
#                 Cambridge Crystallographic Data Centre
#                                CCDC 
#
#######################################################################
#
# If this CIF has been generated from an entry in the Cambridge 
# Structural Database, then it will include bibliographic, chemical, 
# crystal, experimental, refinement or atomic coordinate data resulting 
# from the CCDC's data processing and validation procedures.
#
#######################################################################

data_WANLIH
_chemical_formula_moiety         'C22 H30 B2 O4'
_chemical_name_systematic        
2,6-bis(4,4,5,5-Tetramethyl-1,3,2-dioxaborolan-2-yl)naphthalene
_symmetry_cell_setting           monoclinic
_symmetry_space_group_name_H-M   'P 21/n'
_symmetry_Int_Tables_number      14
_space_group_name_Hall           '-P 2yn'
loop_
_symmetry_equiv_pos_site_id
_symmetry_equiv_pos_as_xyz
1 x,y,z
2 1/2-x,1/2+y,1/2-z
3 -x,-y,-z
4 1/2+x,1/2-y,1/2+z
_cell_length_a                   6.501(1)
_cell_length_b                   16.249(2)
_cell_length_c                   10.146(2)
_cell_angle_alpha                90
_cell_angle_beta                 99.70(1)
_cell_angle_gamma                90
_cell_volume                     1056.45
_exptl_crystal_colour            colorless
_exptl_crystal_description       block
_cell_formula_units_Z            2
_exptl_crystal_recrystallization_method dichloromethane/hexane
loop_
_atom_site_label
_atom_site_type_symbol
_atom_site_fract_x
_atom_site_fract_y
_atom_site_fract_z
O1 O 0.05579(18) 0.13297(8) 0.63244(11)
O2 O 0.36379(17) 0.14875(7) 0.55316(11)
B1 B 0.2659(2) 0.11682(9) 0.65079(14)
C1 C 0.2916(2) 0.05567(7) 0.88438(12)
H1 H 0.150(2) 0.0737(8) 0.8897(13)
C2 C 0.3842(2) 0.06872(7) 0.77359(12)
C3 C 0.5913(2) 0.03933(8) 0.77555(12)
H2 H 0.661(2) 0.0491(10) 0.6960(16)
C4 C 0.6964(2) -0.00170(8) 0.88494(13)
H3 H 0.841(3) -0.0236(9) 0.8899(16)
C5 C 0.39709(19) 0.01468(7) 1.00021(12)
C6 C 0.0010(2) 0.16798(9) 0.49768(13)
C7 C 0.2129(2) 0.20461(9) 0.47441(13)
C10 C -0.1718(2) 0.23018(9) 0.49682(14)
H4 H -0.1988 0.2526 0.4079
H5 H -0.2883 0.1997 0.5140
H6 H -0.1336 0.2704 0.5577
C11 C -0.0753(4) 0.09686(12) 0.4048(2)
H7 H 0.0374 0.0681 0.3886
H8 H -0.1208 0.1168 0.3168
H9 H -0.2018 0.0691 0.4316
C13 C 0.2480(2) 0.20309(9) 0.32988(13)
H13 H 0.1448 0.2341 0.2767
H14 H 0.3784 0.2305 0.3334
H15 H 0.2516 0.1500 0.2886
C14 C 0.2555(3) 0.28980(11) 0.53433(18)
H16 H 0.1666 0.3296 0.4780
H17 H 0.2270 0.2910 0.6222
H18 H 0.4138 0.3077 0.5307
O1B O 0.94421(18) -0.13297(8) 1.36756(11)
O2B O 0.63621(17) -0.14875(7) 1.44684(11)
B1B B 0.7341(2) -0.11682(9) 1.34921(14)
C1B C 0.7084(2) -0.05567(7) 1.11562(12)
H1B H 0.850(2) -0.0737(8) 1.1103(13)
C2B C 0.6158(2) -0.06872(7) 1.22641(12)
C3B C 0.4087(2) -0.03933(8) 1.22445(12)
H2B H 0.339(2) -0.0491(10) 1.3040(16)
C4B C 0.3036(2) 0.00170(8) 1.11506(13)
H3B H 0.159(3) 0.0236(9) 1.1101(16)
C5B C 0.60291(19) -0.01468(7) 0.99979(12)
C6B C 0.9990(2) -0.16798(9) 1.50232(13)
C7B C 0.7871(2) -0.20461(9) 1.52559(13)
C10B C 1.1718(2) -0.23018(9) 1.50318(14)
H4B H 1.1988 -0.2526 1.5921
H5B H 1.2883 -0.1997 1.4860
H6B H 1.1336 -0.2704 1.4423
C11B C 1.0753(4) -0.09686(12) 1.5952(2)
H7B H 0.9626 -0.0681 1.6114
H8B H 1.1208 -0.1168 1.6832
H9B H 1.2018 -0.0691 1.5684
C13B C 0.7520(2) -0.20309(9) 1.67012(13)
H13B H 0.8552 -0.2341 1.7233
H14B H 0.6216 -0.2305 1.6666
H15B H 0.7484 -0.1500 1.7114
C14B C 0.7445(3) -0.28980(11) 1.46567(18)
H16B H 0.8334 -0.3296 1.5220
H17B H 0.7730 -0.2910 1.3778
H18B H 0.5862 -0.3077 1.4693
O3? O 0.0984(11) 0.1658(5) 0.6570(7)
O4? O 0.3172(11) 0.1123(5) 0.5269(7)
C8? C 0.0621(14) 0.2126(6) 0.5298(9)
C9? C 0.1518(14) 0.1536(6) 0.4346(9)
C12? C -0.005(2) 0.0861(10) 0.3809(15)
H10? H -0.0552 0.0590 0.4559
H11? H 0.0628 0.0454 0.3313
H12? H -0.1237 0.1106 0.3212
C15? C 0.1844(18) 0.2943(7) 0.5580(12)
H19? H 0.3342 0.2824 0.5792
H20? H 0.1400 0.3225 0.6339
H21? H 0.1568 0.3296 0.4787
loop_
_geom_bond_atom_site_label_1
_geom_bond_atom_site_label_2
_geom_bond_site_symmetry_1
_geom_bond_site_symmetry_2
O1 B1 1_555 1_555
O2 B1 1_555 1_555
B1 C2 1_555 1_555
C1 H1 1_555 1_555
C2 C1 1_555 1_555
C3 C2 1_555 1_555
H2 C3 1_555 1_555
C4 C3 1_555 1_555
H3 C4 1_555 1_555
C5 C1 1_555 1_555
C6 O1 1_555 1_555
C7 O2 1_555 1_555
C10 C6 1_555 1_555
H4 C10 1_555 1_555
H5 C10 1_555 1_555
H6 C10 1_555 1_555
C11 C6 1_555 1_555
H7 C11 1_555 1_555
H8 C11 1_555 1_555
H9 C11 1_555 1_555
C13 C7 1_555 1_555
H13 C13 1_555 1_555
H14 C13 1_555 1_555
H15 C13 1_555 1_555
C14 C7 1_555 1_555
H16 C14 1_555 1_555
H17 C14 1_555 1_555
H18 C14 1_555 1_555
O1B B1B 1_555 1_555
O2B B1B 1_555 1_555
B1B C2B 1_555 1_555
C1B H1B 1_555 1_555
C2B C1B 1_555 1_555
C3B C2B 1_555 1_555
H2B C3B 1_555 1_555
C4B C5 1_555 1_555
H3B C4B 1_555 1_555
C5B C4 1_555 1_555
C6B O1B 1_555 1_555
C7B O2B 1_555 1_555
C10B C6B 1_555 1_555
H4B C10B 1_555 1_555
H5B C10B 1_555 1_555
H6B C10B 1_555 1_555
C11B C6B 1_555 1_555
H7B C11B 1_555 1_555
H8B C11B 1_555 1_555
H9B C11B 1_555 1_555
C13B C7B 1_555 1_555
H13B C13B 1_555 1_555
H14B C13B 1_555 1_555
H15B C13B 1_555 1_555
C14B C7B 1_555 1_555
H16B C14B 1_555 1_555
H17B C14B 1_555 1_555
H18B C14B 1_555 1_555
C5 C5B 1_555 1_555
C6 C7 1_555 1_555
C1B C5B 1_555 1_555
C3B C4B 1_555 1_555
C6B C7B 1_555 1_555

#END
