
#######################################################################
#
#                 Cambridge Crystallographic Data Centre
#                                CCDC 
#
#######################################################################
#
# If this CIF has been generated from an entry in the Cambridge 
# Structural Database, then it will include bibliographic, chemical, 
# crystal, experimental, refinement or atomic coordinate data resulting 
# from the CCDC's data processing and validation procedures.
#
#######################################################################

data_WANMAC
_chemical_formula_moiety         'C16 H14 F3 N1 O1,C15 H14 N2 O3'
_chemical_name_systematic        
'(R)-N-(1-phenylethyl)-2-(trifluoromethyl)benzamide (S)-2-nitro-N-(1-phenylethyl)benzamide'
_symmetry_cell_setting           monoclinic
_symmetry_space_group_name_H-M   'P 21'
_symmetry_Int_Tables_number      4
_space_group_name_Hall           'P 2yb'
loop_
_symmetry_equiv_pos_site_id
_symmetry_equiv_pos_as_xyz
1 x,y,z
2 -x,1/2+y,-z
_cell_length_a                   8.3035(14)
_cell_length_b                   9.6853(13)
_cell_length_c                   17.333(3)
_cell_angle_alpha                90
_cell_angle_beta                 101.057(9)
_cell_angle_gamma                90
_cell_volume                     1368.08
_exptl_crystal_colour            colorless
_exptl_crystal_description       plate
_cell_formula_units_Z            2
_exptl_crystal_recrystallization_method '1:1 hexanes/dichloromethane'
loop_
_atom_site_label
_atom_site_type_symbol
_atom_site_fract_x
_atom_site_fract_y
_atom_site_fract_z
F1 F 0.2896(5) 0.3657(4) 0.1217(2)
F2 F 0.2999(5) 0.5864(4) 0.1389(2)
F3 F 0.3293(5) 0.4487(4) 0.2383(2)
O1 O 0.0009(7) 0.7265(4) 0.0217(3)
N1 N 0.0710(7) 0.5161(5) -0.0194(3)
H1 H 0.063(13) 0.411(11) -0.014(6)
C1 C 0.0122(8) 0.5999(6) 0.0294(3)
C2 C -0.0452(8) 0.5302(6) 0.0982(3)
C3 C 0.0588(8) 0.4711(6) 0.1622(3)
C4 C -0.0001(10) 0.4147(6) 0.2243(4)
H2 H 0.0736 0.3757 0.2675
C5 C -0.1664(10) 0.4152(7) 0.2233(4)
H3 H -0.2073 0.3750 0.2657
C6 C -0.2735(9) 0.4732(7) 0.1615(4)
H4 H -0.3880 0.4744 0.1615
C7 C -0.2132(8) 0.5307(6) 0.0987(4)
H5 H -0.2873 0.5704 0.0558
C8 C 0.1388(9) 0.5652(6) -0.0868(4)
H6 H 0.1425 0.6684 -0.0847
C9 C 0.0301(9) 0.5232(9) -0.1640(4)
H7 H 0.0214 0.4223 -0.1666
H8 H 0.0781 0.5568 -0.2079
H9 H -0.0794 0.5633 -0.1673
C10 C 0.3104(8) 0.5137(6) -0.0844(3)
C11 C 0.4259(9) 0.5955(7) -0.1115(3)
H10 H 0.3970 0.6870 -0.1285
C12 C 0.5803(9) 0.5475(6) -0.1143(4)
H11 H 0.6553 0.6057 -0.1339
C13 C 0.6288(9) 0.4138(6) -0.0887(4)
H12 H 0.7356 0.3807 -0.0907
C14 C 0.5171(9) 0.3318(6) -0.0604(4)
H13 H 0.5477 0.2410 -0.0427
C15 C 0.3608(9) 0.3798(6) -0.0574(4)
H14 H 0.2867 0.3219 -0.0368
C16 C 0.2429(8) 0.4698(6) 0.1658(3)
O2 O 0.4981(7) 0.4466(4) 0.4817(3)
O3 O 0.1685(6) 0.8119(5) 0.3133(3)
O4 O 0.1950(6) 0.6164(5) 0.3761(3)
N2 N 0.4333(7) 0.6584(5) 0.5248(3)
H15 H 0.438(7) 0.746(7) 0.515(3)
N3 N 0.2518(8) 0.7156(5) 0.3464(3)
C17 C 0.4860(8) 0.5747(6) 0.4742(4)
C18 C 0.5373(8) 0.6445(6) 0.4052(3)
C19 C 0.4282(9) 0.7157(6) 0.3468(3)
C20 C 0.4810(10) 0.7835(6) 0.2845(4)
H16 H 0.4050 0.8323 0.2461
C21 C 0.6459(9) 0.7783(6) 0.2797(4)
H17 H 0.6835 0.8225 0.2376
C22 C 0.7552(10) 0.7082(7) 0.3367(4)
H18 H 0.8681 0.7051 0.3334
C23 C 0.7023(8) 0.6424(6) 0.3986(4)
H19 H 0.7797 0.5952 0.4372
C24 C 0.3614(8) 0.6098(6) 0.5913(3)
H20 H 0.3611 0.5066 0.5905
C25 C 0.4703(10) 0.6570(8) 0.6686(4)
H21 H 0.5795 0.6158 0.6733
H22 H 0.4211 0.6274 0.7129
H23 H 0.4797 0.7578 0.6688
C26 C 0.1856(8) 0.6582(6) 0.5841(3)
C27 C 0.0718(9) 0.5788(6) 0.6137(4)
H24 H 0.1036 0.4901 0.6345
C28 C -0.0868(9) 0.6244(7) 0.6140(4)
H25 H -0.1629 0.5668 0.6333
C29 C -0.1317(9) 0.7557(7) 0.5857(3)
H26 H -0.2384 0.7899 0.5871
C30 C -0.0215(9) 0.8372(7) 0.5555(4)
H27 H -0.0542 0.9259 0.5348
C31 C 0.1365(8) 0.7903(6) 0.5550(4)
H28 H 0.2116 0.8476 0.5349
loop_
_geom_bond_atom_site_label_1
_geom_bond_atom_site_label_2
_geom_bond_site_symmetry_1
_geom_bond_site_symmetry_2
F1 C16 1_555 1_555
F2 C16 1_555 1_555
F3 C16 1_555 1_555
O1 C1 1_555 1_555
N1 H1 1_555 1_555
C1 N1 1_555 1_555
C2 C1 1_555 1_555
C3 C2 1_555 1_555
C4 C3 1_555 1_555
H2 C4 1_555 1_555
C5 C4 1_555 1_555
H3 C5 1_555 1_555
C6 C5 1_555 1_555
H4 C6 1_555 1_555
C7 C2 1_555 1_555
H5 C7 1_555 1_555
C8 N1 1_555 1_555
H6 C8 1_555 1_555
C9 C8 1_555 1_555
H7 C9 1_555 1_555
H8 C9 1_555 1_555
H9 C9 1_555 1_555
C10 C8 1_555 1_555
C11 C10 1_555 1_555
H10 C11 1_555 1_555
C12 C11 1_555 1_555
H11 C12 1_555 1_555
C13 C12 1_555 1_555
H12 C13 1_555 1_555
C14 C13 1_555 1_555
H13 C14 1_555 1_555
C15 C10 1_555 1_555
H14 C15 1_555 1_555
C16 C3 1_555 1_555
O2 C17 1_555 1_555
O3 N3 1_555 1_555
O4 N3 1_555 1_555
N2 H15 1_555 1_555
N3 C19 1_555 1_555
C17 N2 1_555 1_555
C18 C17 1_555 1_555
C19 C18 1_555 1_555
C20 C19 1_555 1_555
H16 C20 1_555 1_555
C21 C20 1_555 1_555
H17 C21 1_555 1_555
C22 C21 1_555 1_555
H18 C22 1_555 1_555
C23 C18 1_555 1_555
H19 C23 1_555 1_555
C24 N2 1_555 1_555
H20 C24 1_555 1_555
C25 C24 1_555 1_555
H21 C25 1_555 1_555
H22 C25 1_555 1_555
H23 C25 1_555 1_555
C26 C24 1_555 1_555
C27 C26 1_555 1_555
H24 C27 1_555 1_555
C28 C27 1_555 1_555
H25 C28 1_555 1_555
C29 C28 1_555 1_555
H26 C29 1_555 1_555
C30 C29 1_555 1_555
H27 C30 1_555 1_555
C31 C26 1_555 1_555
H28 C31 1_555 1_555
C6 C7 1_555 1_555
C14 C15 1_555 1_555
C22 C23 1_555 1_555
C30 C31 1_555 1_555

#END
