
#######################################################################
#
#                 Cambridge Crystallographic Data Centre
#                                CCDC 
#
#######################################################################
#
# If this CIF has been generated from an entry in the Cambridge 
# Structural Database, then it will include bibliographic, chemical, 
# crystal, experimental, refinement or atomic coordinate data resulting 
# from the CCDC's data processing and validation procedures.
#
#######################################################################

data_WANMEG
_chemical_formula_moiety         'C16 H17 N1 O1,C16 H14 F3 N1 O1'
_chemical_name_systematic        
'(R)-2-methyl-N-(1-phenylethyl)benzamide (S)-N-(1-phenylethyl)-2-(trifluoromethyl)benzamide'
_symmetry_cell_setting           monoclinic
_symmetry_space_group_name_H-M   'P 21'
_symmetry_Int_Tables_number      4
_space_group_name_Hall           'P 2yb'
loop_
_symmetry_equiv_pos_site_id
_symmetry_equiv_pos_as_xyz
1 x,y,z
2 -x,1/2+y,-z
_cell_length_a                   8.7183(13)
_cell_length_b                   18.007(2)
_cell_length_c                   9.5051(11)
_cell_angle_alpha                90
_cell_angle_beta                 106.811(8)
_cell_angle_gamma                90
_cell_volume                     1428.44
_exptl_crystal_colour            colorless
_exptl_crystal_description       plate
_cell_formula_units_Z            2
_exptl_crystal_recrystallization_method '1:1 hexanes/dichloromethane'
loop_
_atom_site_label
_atom_site_type_symbol
_atom_site_fract_x
_atom_site_fract_y
_atom_site_fract_z
O1 O 0.7906(5) 0.8425(2) 0.3689(4)
N1 N 0.7895(5) 0.7697(2) 0.1749(4)
C1 C 0.5351(7) 0.7097(3) 0.1739(5)
C2 C 0.7173(6) 0.7054(3) 0.2249(5)
H1 H 0.7528 0.7052 0.3348
C3 C 0.8112(7) 0.8343(3) 0.2476(5)
C4 C 0.8673(7) 0.8979(3) 0.1728(5)
C5 C 1.0091(7) 0.8940(4) 0.1331(6)
H2 H 1.0709 0.8497 0.1508
C6 C 0.2819(10) 0.6783(5) 0.2143(10)
H3 H 0.2242 0.6551 0.2732
C7 C 0.7726(9) 0.9622(3) 0.1405(6)
C8 C 0.8269(13) 1.0215(4) 0.0709(8)
H4 H 0.7643 1.0654 0.0475
C9 C 0.7796(8) 0.6347(3) 0.1715(7)
H5 H 0.7596 0.6372 0.0647
H6 H 0.7241 0.5916 0.1964
H7 H 0.8950 0.6301 0.2191
C10 C 0.4472(8) 0.6776(4) 0.2585(7)
H8 H 0.5021 0.6546 0.3490
C11 C 0.4528(9) 0.7425(4) 0.0444(8)
H9 H 0.5100 0.7641 -0.0165
C12 C 1.0610(10) 0.9544(5) 0.0677(7)
H10 H 1.1600 0.9523 0.0448
C13 C 0.2003(9) 0.7127(4) 0.0845(10)
H11 H 0.0865 0.7140 0.0539
C14 C 0.9676(14) 1.0167(5) 0.0369(9)
H12 H 1.0020 1.0577 -0.0093
C15 C 0.2858(10) 0.7447(5) 0.0009(11)
H13 H 0.2307 0.7688 -0.0883
C16 C 0.6154(11) 0.9684(5) 0.1744(9)
H14 H 0.5657 0.9193 0.1680
H15 H 0.5444 1.0019 0.1034
H16 H 0.6334 0.9883 0.2739
H17 H 0.811(6) 0.774(3) 0.092(4)
O2 O 0.7876(5) 0.7502(2) 0.8692(4)
N2 N 0.7779(5) 0.8211(2) 0.6689(4)
C17 C 0.8047(6) 0.7575(3) 0.7454(5)
C18 C 0.5277(6) 0.8834(3) 0.6748(5)
C19 C 0.7094(6) 0.8867(3) 0.7201(5)
H18 H 0.7488 0.8878 0.8299
C20 C 0.8627(6) 0.6938(3) 0.6702(5)
C21 C 0.7833(7) 0.6260(3) 0.6408(6)
C22 C 1.0082(7) 0.7024(3) 0.6380(6)
H19 H 1.0636 0.7485 0.6554
C23 C 0.7696(7) 0.9563(3) 0.6620(7)
H20 H 0.8862 0.9597 0.7030
H21 H 0.7195 1.0002 0.6909
H22 H 0.7418 0.9539 0.5545
C24 C 0.6261(9) 0.6138(4) 0.6718(7)
C25 C 0.4388(8) 0.8504(4) 0.5469(7)
H23 H 0.4915 0.8272 0.4840
C26 C 0.8486(11) 0.5680(3) 0.5813(7)
H24 H 0.7923 0.5223 0.5602
C27 C 0.4457(8) 0.9168(3) 0.7627(7)
H25 H 0.5039 0.9403 0.8516
C28 C 1.0718(9) 0.6419(5) 0.5793(8)
H26 H 1.1711 0.6473 0.5579
C29 C 0.9916(11) 0.5754(4) 0.5525(8)
H27 H 1.0361 0.5347 0.5140
C30 C 0.1931(8) 0.8835(4) 0.5936(9)
H28 H 0.0793 0.8836 0.5645
F1 F 0.6428(6) 0.5945(2) 0.8109(4)
C31 C 0.2735(9) 0.8507(4) 0.5088(9)
H29 H 0.2147 0.8271 0.4202
F2 F 0.5317(5) 0.6745(2) 0.6443(4)
C32 C 0.2776(9) 0.9164(4) 0.7218(9)
H30 H 0.2227 0.9390 0.7836
F3 F 0.5398(6) 0.5607(3) 0.5865(4)
H31 H 0.769(5) 0.820(2) 0.577(3)
loop_
_geom_bond_atom_site_label_1
_geom_bond_atom_site_label_2
_geom_bond_site_symmetry_1
_geom_bond_site_symmetry_2
O1 C3 1_555 1_555
N1 C2 1_555 1_555
C1 C2 1_555 1_555
C2 H1 1_555 1_555
C3 N1 1_555 1_555
C4 C3 1_555 1_555
C5 C4 1_555 1_555
H2 C5 1_555 1_555
C6 H3 1_555 1_555
C7 C4 1_555 1_555
C8 C7 1_555 1_555
H4 C8 1_555 1_555
C9 C2 1_555 1_555
H5 C9 1_555 1_555
H6 C9 1_555 1_555
H7 C9 1_555 1_555
C10 C1 1_555 1_555
H8 C10 1_555 1_555
C11 C1 1_555 1_555
H9 C11 1_555 1_555
C12 C5 1_555 1_555
H10 C12 1_555 1_555
C13 C6 1_555 1_555
H11 C13 1_555 1_555
C14 C8 1_555 1_555
H12 C14 1_555 1_555
C15 C11 1_555 1_555
H13 C15 1_555 1_555
C16 C7 1_555 1_555
H14 C16 1_555 1_555
H15 C16 1_555 1_555
H16 C16 1_555 1_555
H17 N1 1_555 1_555
O2 C17 1_555 1_555
N2 C17 1_555 1_555
C17 C20 1_555 1_555
C18 C19 1_555 1_555
C19 N2 1_555 1_555
H18 C19 1_555 1_555
C20 C21 1_555 1_555
C21 C24 1_555 1_555
C22 C20 1_555 1_555
H19 C22 1_555 1_555
C23 C19 1_555 1_555
H20 C23 1_555 1_555
H21 C23 1_555 1_555
H22 C23 1_555 1_555
C24 F1 1_555 1_555
C25 C18 1_555 1_555
H23 C25 1_555 1_555
C26 C21 1_555 1_555
H24 C26 1_555 1_555
C27 C18 1_555 1_555
H25 C27 1_555 1_555
C28 C22 1_555 1_555
H26 C28 1_555 1_555
C29 C26 1_555 1_555
H27 C29 1_555 1_555
C30 H28 1_555 1_555
C31 C25 1_555 1_555
H29 C31 1_555 1_555
F2 C24 1_555 1_555
C32 C27 1_555 1_555
H30 C32 1_555 1_555
F3 C24 1_555 1_555
H31 N2 1_555 1_555
C6 C10 1_555 1_555
C12 C14 1_555 1_555
C13 C15 1_555 1_555
C28 C29 1_555 1_555
C30 C31 1_555 1_555
C30 C32 1_555 1_555

#END
