
#######################################################################
#
#                 Cambridge Crystallographic Data Centre
#                                CCDC 
#
#######################################################################
#
# If this CIF has been generated from an entry in the Cambridge 
# Structural Database, then it will include bibliographic, chemical, 
# crystal, experimental, refinement or atomic coordinate data resulting 
# from the CCDC's data processing and validation procedures.
#
#######################################################################

data_WANPIM
_chemical_formula_moiety         'C7 H7 N3 O1'
_chemical_name_systematic        2-Methyl-2H-pyrazolo[3,4-c]pyridin-7-ol
_symmetry_cell_setting           monoclinic
_symmetry_space_group_name_H-M   'P 21/c'
_symmetry_Int_Tables_number      14
_space_group_name_Hall           '-P 2ybc'
loop_
_symmetry_equiv_pos_site_id
_symmetry_equiv_pos_as_xyz
1 x,y,z
2 -x,1/2+y,1/2-z
3 -x,-y,-z
4 x,1/2-y,1/2+z
_cell_length_a                   3.9751(3)
_cell_length_b                   20.1727(17)
_cell_length_c                   8.5661(7)
_cell_angle_alpha                90
_cell_angle_beta                 101.284(2)
_cell_angle_gamma                90
_cell_volume                     673.624
_cell_formula_units_Z            4
loop_
_atom_site_label
_atom_site_type_symbol
_atom_site_fract_x
_atom_site_fract_y
_atom_site_fract_z
O1 O 0.5207(3) 0.41353(5) 0.03874(14)
N1 N 0.1631(3) 0.46850(6) -0.15902(15)
N2 N 0.2556(3) 0.28970(6) -0.12322(14)
C1 C 0.1645(3) 0.35205(7) -0.16848(16)
N3 N 0.0650(3) 0.25255(6) -0.23809(13)
C2 C -0.1391(4) 0.28789(7) -0.35209(18)
H1 H -0.2917 0.2709 -0.4426
C3 C 0.2997(4) 0.41156(6) -0.08551(17)
C4 C -0.0767(4) 0.47133(8) -0.29923(19)
H2 H -0.1540 0.5135 -0.3410
C5 C -0.0827(4) 0.35387(7) -0.31135(17)
C6 C -0.2051(4) 0.41649(8) -0.37887(19)
H3 H -0.3694 0.4192 -0.4755
C7 C 0.1083(4) 0.18102(7) -0.23420(18)
H4 H -0.0475 0.1612 -0.3250
H5 H 0.0560 0.1635 -0.1349
H6 H 0.3458 0.1701 -0.2400
loop_
_geom_bond_atom_site_label_1
_geom_bond_atom_site_label_2
_geom_bond_site_symmetry_1
_geom_bond_site_symmetry_2
O1 C3 1_555 1_555
N1 C3 1_555 1_555
N2 C1 1_555 1_555
C1 C3 1_555 1_555
N3 N2 1_555 1_555
C2 N3 1_555 1_555
H1 C2 1_555 1_555
C4 N1 1_555 1_555
H2 C4 1_555 1_555
C5 C1 1_555 1_555
C6 C4 1_555 1_555
H3 C6 1_555 1_555
C7 N3 1_555 1_555
H4 C7 1_555 1_555
H5 C7 1_555 1_555
H6 C7 1_555 1_555
C2 C5 1_555 1_555
C5 C6 1_555 1_555

#END
