
#######################################################################
#
#                 Cambridge Crystallographic Data Centre
#                                CCDC 
#
#######################################################################
#
# If this CIF has been generated from an entry in the Cambridge 
# Structural Database, then it will include bibliographic, chemical, 
# crystal, experimental, refinement or atomic coordinate data resulting 
# from the CCDC's data processing and validation procedures.
#
#######################################################################

data_WAPBOE
_chemical_formula_moiety         'C60 H57 N3 O18 S3,C2 H3 N1,3.5(H2 O1)'
_chemical_name_systematic        
'1,3,5-tris((3,5-bis(Methoxycarbonyl)phenyl)(p-tosyl)aminomethyl)benzene acetonitrile hydrate clathrate'
_symmetry_cell_setting           triclinic
_symmetry_space_group_name_H-M   'P -1'
_symmetry_Int_Tables_number      2
_space_group_name_Hall           '-P 1'
loop_
_symmetry_equiv_pos_site_id
_symmetry_equiv_pos_as_xyz
1 x,y,z
2 -x,-y,-z
_cell_length_a                   15.173(6)
_cell_length_b                   15.633(2)
_cell_length_c                   17.513(2)
_cell_angle_alpha                115.26(1)
_cell_angle_beta                 90.14(2)
_cell_angle_gamma                103.81(2)
_cell_volume                     3622.44
_exptl_crystal_colour            colorless
_chemical_melting_point          193-194deg.C
_cell_formula_units_Z            2
_chemical_properties_physical    air-sensitive
loop_
_atom_site_label
_atom_site_type_symbol
_atom_site_fract_x
_atom_site_fract_y
_atom_site_fract_z
S1 S 0.2256(1) 0.7573(1) 0.51768(8)
S2 S 0.3219(1) 0.1972(1) 0.1706(1)
S3 S 0.2206(1) 0.7715(1) 0.1043(1)
O1 O 0.4986(3) 1.0335(4) 0.3528(3)
O2 O 0.3491(3) 0.9920(3) 0.3545(3)
O3 O 0.6775(4) 0.8419(7) 0.4170(6)
O4 O 0.6076(4) 0.7282(6) 0.4571(5)
O5 O 0.2598(3) 0.8617(3) 0.5540(2)
O6 O 0.1299(3) 0.7136(4) 0.4975(3)
O7 O 0.0946(4) 0.1153(5) -0.1565(3)
O8 O -0.0450(3) 0.0492(3) -0.1413(3)
O9 O -0.1404(3) 0.0853(4) 0.1327(4)
O10 O -0.0357(3) 0.1611(4) 0.2449(3)
O11 O 0.3966(3) 0.2680(4) 0.2316(3)
O12 O 0.2582(3) 0.1299(4) 0.1917(3)
O13 O 0.3367(3) 0.4288(3) -0.1702(3)
O14 O 0.4880(3) 0.4744(3) -0.1532(2)
O15 O 0.6650(3) 0.7538(4) 0.0940(3)
O16 O 0.5921(3) 0.8424(3) 0.1967(2)
O17 O 0.3005(3) 0.8453(3) 0.1111(3)
O18 O 0.1579(4) 0.7912(3) 0.1654(3)
N1 N 0.2706(3) 0.7122(3) 0.4274(2)
N2 N 0.2630(3) 0.2591(3) 0.1458(3)
N3 N 0.2566(3) 0.6814(3) 0.1074(3)
C1 C 0.2548(4) 0.5597(3) 0.2929(3)
C2 C 0.2832(3) 0.4752(3) 0.2537(3)
C3 C 0.2801(3) 0.4282(3) 0.1659(3)
C4 C 0.2479(3) 0.4666(3) 0.1171(3)
C5 C 0.2205(3) 0.5530(3) 0.1557(3)
C6 C 0.2249(3) 0.5988(3) 0.2437(3)
C7 C 0.2547(4) 0.6050(4) 0.3886(3)
C8 C 0.3559(4) 0.7706(4) 0.4199(3)
C9 C 0.3523(4) 0.8449(4) 0.3976(3)
C10 C 0.4321(4) 0.9034(4) 0.3889(3)
C11 C 0.5158(4) 0.8871(4) 0.4018(3)
C12 C 0.5193(4) 0.8128(5) 0.4229(3)
C13 C 0.4388(4) 0.7549(4) 0.4326(3)
C14 C 0.4325(4) 0.9836(4) 0.3635(4)
C15 C 0.3419(6) 1.0609(6) 0.3212(6)
C16 C 0.6070(6) 0.7932(7) 0.4331(5)
C17 C 0.6924(3) 0.7046(3) 0.4745(2)
C18 C 0.2669(3) 0.7118(4) 0.5827(3)
C19 C 0.2137(4) 0.6307(4) 0.5874(3)
C20 C 0.2483(5) 0.5924(4) 0.6351(4)
C21 C 0.3375(5) 0.6348(5) 0.6781(4)
C22 C 0.3879(4) 0.7167(4) 0.6723(4)
C23 C 0.3552(4) 0.7561(4) 0.6260(3)
C24 C 0.3732(6) 0.5917(6) 0.7288(5)
C25 C 0.3147(3) 0.3380(4) 0.1250(3)
C26 C 0.1709(3) 0.2092(3) 0.1039(3)
C27 C 0.1496(3) 0.1775(4) 0.0179(3)
C28 C 0.0605(4) 0.1315(3) -0.0195(3)
C29 C -0.0075(3) 0.1163(4) 0.0279(4)
C30 C 0.0128(3) 0.1468(4) 0.1142(4)
C31 C 0.1020(3) 0.1948(3) 0.1530(3)
C32 C 0.0405(4) 0.0991(5) -0.1130(4)
C33 C -0.0735(5) 0.0157(6) -0.2295(5)
C34 C -0.0628(4) 0.1272(5) 0.1632(5)
C35 C -0.1084(7) 0.1374(7) 0.2927(6)
C36 C 0.3684(3) 0.1318(4) 0.0782(3)
C37 C 0.4541(4) 0.1716(4) 0.0645(4)
C38 C 0.4881(4) 0.1221(4) -0.0089(4)
C39 C 0.4386(4) 0.0336(4) -0.0704(4)
C40 C 0.3540(5) -0.0047(4) -0.0575(5)
C41 C 0.3167(4) 0.0418(4) 0.0170(5)
C42 C 0.4774(6) -0.0192(6) -0.1528(5)
C43 C 0.1855(3) 0.5951(4) 0.1034(3)
C44 C 0.3386(3) 0.6626(3) 0.0691(3)
C45 C 0.3333(3) 0.5850(3) -0.0100(3)
C46 C 0.4138(3) 0.5658(3) -0.0423(3)
C47 C 0.4972(3) 0.6248(4) 0.0026(3)
C48 C 0.5023(3) 0.7039(4) 0.0809(3)
C49 C 0.4225(3) 0.7220(3) 0.1148(3)
C50 C 0.4068(4) 0.4824(4) -0.1286(3)
C51 C 0.4897(5) 0.3955(5) -0.2347(4)
C52 C 0.5960(4) 0.7678(4) 0.1236(3)
C53 C 0.6795(5) 0.9126(6) 0.2395(5)
C54 C 0.1590(4) 0.7235(4) 0.0034(4)
C55 C 0.2041(4) 0.7279(5) -0.0636(4)
C56 C 0.1547(5) 0.6848(6) -0.1433(4)
C57 C 0.0637(4) 0.6385(5) -0.1572(5)
C58 C 0.0210(4) 0.6370(5) -0.0891(5)
C59 C 0.0674(4) 0.6792(5) -0.0092(5)
C60 C 0.0133(6) 0.5932(6) -0.2456(6)
H1 H 0.3064 0.4474 0.2891
H2 H 0.2443 0.4323 0.0537
H3 H 0.2060 0.6612 0.2718
H4 H 0.3039 0.5890 0.4140
H5 H 0.1940 0.5758 0.4018
H6 H 0.2920 0.8563 0.3878
H7 H 0.5734 0.9294 0.3957
H8 H 0.4415 0.7016 0.4491
H9 H 0.2767 1.0626 0.3165
H10 H 0.3805 1.1277 0.3605
H11 H 0.3637 1.0398 0.2638
H12 H 0.7423 0.7644 0.5102
H13 H 0.7156 0.6635 0.4214
H14 H 0.1503 0.5994 0.5567
H15 H 0.2093 0.5335 0.6392
H16 H 0.4510 0.7488 0.7032
H17 H 0.3938 0.8159 0.6231
H18 H 0.4372 0.6307 0.7548
H19 H 0.3337 0.5933 0.7747
H20 H 0.3727 0.5223 0.6908
H21 H 0.3808 0.3551 0.1461
H22 H 0.3075 0.3141 0.0619
H23 H 0.1989 0.1879 -0.0175
H24 H -0.0719 0.0833 0.0003
H25 H 0.1165 0.2189 0.2156
H26 H -0.1396 -0.0211 -0.2428
H27 H -0.0645 0.0733 -0.2426
H28 H -0.0363 -0.0285 -0.2647
H29 H -0.0836 0.1649 0.3538
H30 H -0.1589 0.1664 0.2880
H31 H -0.1324 0.0645 0.2691
H32 H 0.4915 0.2366 0.1081
H33 H 0.5509 0.1515 -0.0180
H34 H 0.3166 -0.0686 -0.1029
H35 H 0.2544 0.0112 0.0261
H36 H 0.4318 -0.0824 -0.1899
H37 H 0.5351 -0.0329 -0.1394
H38 H 0.4907 0.0232 -0.1832
H39 H 0.1298 0.6161 0.1259
H40 H 0.1695 0.5442 0.0430
H41 H 0.2726 0.5433 -0.0434
H42 H 0.5546 0.6106 -0.0214
H43 H 0.4254 0.7776 0.1720
H44 H 0.5545 0.3972 -0.2460
H45 H 0.4569 0.4031 -0.2801
H46 H 0.4589 0.3314 -0.2347
H47 H 0.6695 0.9657 0.2936
H48 H 0.7080 0.9419 0.2017
H49 H 0.7211 0.8784 0.2526
H50 H 0.2709 0.7614 -0.0548
H51 H 0.1868 0.6877 -0.1923
H52 H -0.0459 0.6043 -0.0977
H53 H 0.0345 0.6776 0.0398
H54 H -0.0523 0.5624 -0.2446
H55 H 0.0172 0.6452 -0.2652
H56 H 0.0415 0.5419 -0.2853
N4? N 0.911(2) 0.589(2) 0.109(2)
C61? C 0.885(2) 0.653(2) 0.156(1)
C62? C 0.844(2) 0.732(2) 0.214(2)
N5? N 0.206(2) 0.369(2) 0.396(2)
C63? C 0.138(2) 0.389(1) 0.415(2)
C64? C 0.053(2) 0.415(3) 0.451(3)
O19? O 0.141(3) 0.342(4) 0.420(3)
O20? O 0.440(4) 0.496(5) 0.450(4)
O21? O 0.895(3) 0.636(3) 0.337(3)
O22? O 0.850(2) 0.650(2) 0.104(2)
O23? O 0.504(2) 0.516(2) 0.502(2)
O24? O 0.088(4) 0.326(4) 0.455(3)
O25? O 0.002(6) 0.702(6) 0.322(5)
O26? O 0.396(6) 0.374(7) 0.438(5)
O27? O 0.079(4) 0.066(4) 0.452(3)
O28? O 0.453(8) 0.524(8) 0.448(7)
O29? O 0.859(4) 0.014(5) 0.499(4)
H57? H 0.8837 0.7981 0.2527
H58? H 0.7899 0.7377 0.1869
H59? H 0.8120 0.7080 0.2623
H60? H -0.0002 0.4035 0.4197
H61? H 0.0604 0.4606 0.5130
H62? H 0.0172 0.3419 0.4711
loop_
_geom_bond_atom_site_label_1
_geom_bond_atom_site_label_2
_geom_bond_site_symmetry_1
_geom_bond_site_symmetry_2
S1 O5 1_555 1_555
S2 O11 1_555 1_555
S3 O17 1_555 1_555
O1 C14 1_555 1_555
O2 C14 1_555 1_555
O3 C16 1_555 1_555
O4 C16 1_555 1_555
O6 S1 1_555 1_555
O7 C32 1_555 1_555
O8 C32 1_555 1_555
O9 C34 1_555 1_555
O10 C34 1_555 1_555
O12 S2 1_555 1_555
O13 C50 1_555 1_555
O14 C50 1_555 1_555
O15 C52 1_555 1_555
O16 C52 1_555 1_555
O18 S3 1_555 1_555
N1 S1 1_555 1_555
N2 S2 1_555 1_555
N3 S3 1_555 1_555
C1 C2 1_555 1_555
C2 C3 1_555 1_555
C3 C4 1_555 1_555
C4 C5 1_555 1_555
C5 C6 1_555 1_555
C6 C1 1_555 1_555
C7 N1 1_555 1_555
C8 N1 1_555 1_555
C9 C8 1_555 1_555
C10 C9 1_555 1_555
C11 C10 1_555 1_555
C12 C11 1_555 1_555
C13 C8 1_555 1_555
C14 C10 1_555 1_555
C15 O2 1_555 1_555
C16 C12 1_555 1_555
C17 O4 1_555 1_555
C18 S1 1_555 1_555
C19 C18 1_555 1_555
C20 C19 1_555 1_555
C21 C20 1_555 1_555
C22 C21 1_555 1_555
C23 C18 1_555 1_555
C24 C21 1_555 1_555
C25 N2 1_555 1_555
C26 N2 1_555 1_555
C27 C26 1_555 1_555
C28 C27 1_555 1_555
C29 C28 1_555 1_555
C30 C29 1_555 1_555
C31 C26 1_555 1_555
C32 C28 1_555 1_555
C33 O8 1_555 1_555
C34 C30 1_555 1_555
C35 O10 1_555 1_555
C36 S2 1_555 1_555
C37 C36 1_555 1_555
C38 C37 1_555 1_555
C39 C38 1_555 1_555
C40 C39 1_555 1_555
C41 C36 1_555 1_555
C42 C39 1_555 1_555
C43 N3 1_555 1_555
C44 N3 1_555 1_555
C45 C44 1_555 1_555
C46 C45 1_555 1_555
C47 C46 1_555 1_555
C48 C47 1_555 1_555
C49 C44 1_555 1_555
C50 C46 1_555 1_555
C51 O14 1_555 1_555
C52 C48 1_555 1_555
C53 O16 1_555 1_555
C54 S3 1_555 1_555
C55 C54 1_555 1_555
C56 C55 1_555 1_555
C57 C56 1_555 1_555
C58 C57 1_555 1_555
C59 C54 1_555 1_555
C60 C57 1_555 1_555
H1 C2 1_555 1_555
H2 C4 1_555 1_555
H3 C6 1_555 1_555
H4 C7 1_555 1_555
H5 C7 1_555 1_555
H6 C9 1_555 1_555
H7 C11 1_555 1_555
H8 C13 1_555 1_555
H9 C15 1_555 1_555
H10 C15 1_555 1_555
H11 C15 1_555 1_555
H12 C17 1_555 1_555
H13 C17 1_555 1_555
H14 C19 1_555 1_555
H15 C20 1_555 1_555
H16 C22 1_555 1_555
H17 C23 1_555 1_555
H18 C24 1_555 1_555
H19 C24 1_555 1_555
H20 C24 1_555 1_555
H21 C25 1_555 1_555
H22 C25 1_555 1_555
H23 C27 1_555 1_555
H24 C29 1_555 1_555
H25 C31 1_555 1_555
H26 C33 1_555 1_555
H27 C33 1_555 1_555
H28 C33 1_555 1_555
H29 C35 1_555 1_555
H30 C35 1_555 1_555
H31 C35 1_555 1_555
H32 C37 1_555 1_555
H33 C38 1_555 1_555
H34 C40 1_555 1_555
H35 C41 1_555 1_555
H36 C42 1_555 1_555
H37 C42 1_555 1_555
H38 C42 1_555 1_555
H39 C43 1_555 1_555
H40 C43 1_555 1_555
H41 C45 1_555 1_555
H42 C47 1_555 1_555
H43 C49 1_555 1_555
H44 C51 1_555 1_555
H45 C51 1_555 1_555
H46 C51 1_555 1_555
H47 C53 1_555 1_555
H48 C53 1_555 1_555
H49 C53 1_555 1_555
H50 C55 1_555 1_555
H51 C56 1_555 1_555
H52 C58 1_555 1_555
H53 C59 1_555 1_555
H54 C60 1_555 1_555
H55 C60 1_555 1_555
H56 C60 1_555 1_555
C1 C7 1_555 1_555
C3 C25 1_555 1_555
C5 C43 1_555 1_555
C12 C13 1_555 1_555
C22 C23 1_555 1_555
C30 C31 1_555 1_555
C40 C41 1_555 1_555
C48 C49 1_555 1_555
C58 C59 1_555 1_555

#END
