
#######################################################################
#
#                 Cambridge Crystallographic Data Centre
#                                CCDC 
#
#######################################################################
#
# If this CIF has been generated from an entry in the Cambridge 
# Structural Database, then it will include bibliographic, chemical, 
# crystal, experimental, refinement or atomic coordinate data resulting 
# from the CCDC's data processing and validation procedures.
#
#######################################################################

data_WAPCIC
_chemical_formula_moiety         'C21 H14 N2'
_chemical_name_systematic        11-phenyl-6H-indolo[2,3-b]quinoline
_symmetry_cell_setting           monoclinic
_symmetry_space_group_name_H-M   'P 21/n'
_symmetry_Int_Tables_number      14
_space_group_name_Hall           '-P 2yn'
loop_
_symmetry_equiv_pos_site_id
_symmetry_equiv_pos_as_xyz
1 x,y,z
2 1/2-x,1/2+y,1/2-z
3 -x,-y,-z
4 1/2+x,1/2-y,1/2+z
_cell_length_a                   13.1263(9)
_cell_length_b                   18.8252(13)
_cell_length_c                   13.4559(10)
_cell_angle_alpha                90
_cell_angle_beta                 112.916(9)
_cell_angle_gamma                90
_cell_volume                     3062.6
_exptl_crystal_colour            colorless
_exptl_crystal_description       Block
_cell_formula_units_Z            8
loop_
_atom_site_label
_atom_site_type_symbol
_atom_site_fract_x
_atom_site_fract_y
_atom_site_fract_z
N1 N 0.9624(3) 0.54508(18) 0.8293(3)
N2 N 0.8838(3) 0.43118(19) 0.7733(3)
C1 C 0.8950(3) 0.4930(2) 0.8290(3)
C2 C 0.7570(3) 0.4208(2) 0.8535(3)
C3 C 0.8048(3) 0.3885(2) 0.7870(3)
C4 C 0.7334(3) 0.5443(3) 1.0005(3)
C5 C 0.9604(3) 0.6015(2) 0.8937(3)
C6 C 1.0351(3) 0.7153(2) 0.9687(4)
H1 H 1.0827 0.7532 0.9749
C7 C 0.8896(3) 0.6029(2) 0.9510(3)
C8 C 0.6512(4) 0.5950(3) 0.9741(4)
H2 H 0.6408 0.6263 0.9175
C9 C 0.9661(3) 0.7161(2) 1.0265(4)
H3 H 0.9684 0.7544 1.0709
C10 C 0.7450(3) 0.4967(3) 1.0828(3)
H4 H 0.7985 0.4612 1.0999
C11 C 0.6745(3) 0.3843(3) 0.8741(3)
H5 H 0.6415 0.4047 0.9171
C12 C 0.8962(3) 0.6613(2) 1.0177(3)
H6 H 0.8515 0.6625 1.0570
C13 C 1.0325(3) 0.6596(2) 0.9039(4)
H7 H 1.0784 0.6595 0.8659
C14 C 0.6779(3) 0.5017(3) 1.1390(3)
H8 H 0.6868 0.4702 1.1949
C15 C 0.7727(4) 0.3210(2) 0.7449(3)
H9 H 0.8059 0.2994 0.7029
C16 C 0.8172(4) 0.4904(3) 0.8841(3)
C17 C 0.5985(4) 0.5527(3) 1.1134(4)
H10 H 0.5532 0.5560 1.1518
C18 C 0.6427(4) 0.3181(3) 0.8303(4)
H11 H 0.5877 0.2937 0.8435
C19 C 0.6919(4) 0.2869(3) 0.7662(4)
H12 H 0.6691 0.2420 0.7374
C20 C 0.8136(4) 0.5448(3) 0.9429(4)
C21 C 0.5852(4) 0.5991(3) 1.0312(4)
H13 H 0.5306 0.6338 1.0139
H14 H 0.942(5) 0.420(3) 0.733(4)
N3 N 0.0495(3) 0.40415(19) 0.6844(3)
N4 N 0.0548(3) 0.5289(2) 0.6612(3)
C22 C 0.0841(3) 0.4609(2) 0.6495(3)
C23 C 0.0924(3) 0.3413(2) 0.6655(3)
C24 C 0.1664(3) 0.3402(2) 0.6123(3)
C25 C 0.1758(3) 0.5409(2) 0.5749(3)
C26 C 0.1087(3) 0.5765(3) 0.6188(3)
C27 C 0.0632(4) 0.2770(3) 0.7001(3)
H15 H 0.0148 0.2773 0.7355
C28 C 0.3977(4) 0.4104(3) 0.5858(4)
H16 H 0.4213 0.4141 0.6604
C29 C 0.1044(4) 0.2142(3) 0.6827(4)
H17 H 0.0847 0.1721 0.7067
C30 C 0.2065(4) 0.2735(3) 0.5948(4)
H18 H 0.2547 0.2716 0.5593
C31 C 0.3300(5) 0.4018(3) 0.3675(4)
H19 H 0.3065 0.3986 0.2929
C32 C 0.1003(4) 0.6498(3) 0.6189(4)
H20 H 0.0550 0.6723 0.6479
C33 C 0.1602(4) 0.4629(3) 0.5946(3)
C34 C 0.2282(4) 0.6541(3) 0.5296(4)
H21 H 0.2685 0.6811 0.4996
C35 C 0.4402(5) 0.4049(3) 0.4296(5)
H22 H 0.4916 0.4043 0.3977
C36 C 0.2861(4) 0.4065(3) 0.5227(4)
C37 C 0.1760(4) 0.2127(3) 0.6290(4)
H23 H 0.2031 0.1694 0.6164
C38 C 0.4744(4) 0.4088(3) 0.5391(5)
H24 H 0.5495 0.4104 0.5823
C39 C 0.1615(4) 0.6880(3) 0.5746(4)
H25 H 0.1585 0.7374 0.5747
C40 C 0.2348(4) 0.5808(3) 0.5291(4)
H26 H 0.2786 0.5584 0.4982
C41 C 0.2527(4) 0.4034(4) 0.4131(4)
H27 H 0.1777 0.4024 0.3693
C42 C 0.2018(4) 0.4041(3) 0.5764(4)
H28 H 0.018(4) 0.543(3) 0.718(4)
loop_
_geom_bond_atom_site_label_1
_geom_bond_atom_site_label_2
_geom_bond_site_symmetry_1
_geom_bond_site_symmetry_2
N1 C1 1_555 1_555
N2 C1 1_555 1_555
C1 C16 1_555 1_555
C2 C3 1_555 1_555
C3 N2 1_555 1_555
C4 C8 1_555 1_555
C5 N1 1_555 1_555
C6 H1 1_555 1_555
C7 C5 1_555 1_555
C8 H2 1_555 1_555
C9 C6 1_555 1_555
H3 C9 1_555 1_555
C10 C4 1_555 1_555
H4 C10 1_555 1_555
C11 C2 1_555 1_555
H5 C11 1_555 1_555
C12 C7 1_555 1_555
H6 C12 1_555 1_555
C13 C5 1_555 1_555
H7 C13 1_555 1_555
C14 C10 1_555 1_555
H8 C14 1_555 1_555
C15 C3 1_555 1_555
H9 C15 1_555 1_555
C16 C2 1_555 1_555
C17 C14 1_555 1_555
H10 C17 1_555 1_555
C18 C11 1_555 1_555
H11 C18 1_555 1_555
C19 C15 1_555 1_555
H12 C19 1_555 1_555
C20 C4 1_555 1_555
C21 C8 1_555 1_555
H13 C21 1_555 1_555
H14 N2 1_555 1_555
N3 C22 1_555 1_555
N4 C22 1_555 1_555
C22 C33 1_555 1_555
C23 N3 1_555 1_555
C24 C23 1_555 1_555
C25 C26 1_555 1_555
C26 N4 1_555 1_555
C27 C23 1_555 1_555
H15 C27 1_555 1_555
C28 H16 1_555 1_555
C29 C27 1_555 1_555
H17 C29 1_555 1_555
C30 C24 1_555 1_555
H18 C30 1_555 1_555
C31 H19 1_555 1_555
C32 C26 1_555 1_555
H20 C32 1_555 1_555
C33 C25 1_555 1_555
C34 H21 1_555 1_555
C35 C31 1_555 1_555
H22 C35 1_555 1_555
C36 C28 1_555 1_555
C37 C29 1_555 1_555
H23 C37 1_555 1_555
C38 C28 1_555 1_555
H24 C38 1_555 1_555
C39 C32 1_555 1_555
H25 C39 1_555 1_555
C40 C25 1_555 1_555
H26 C40 1_555 1_555
C41 C31 1_555 1_555
H27 C41 1_555 1_555
C42 C24 1_555 1_555
H28 N4 1_555 1_555
C6 C13 1_555 1_555
C7 C20 1_555 1_555
C9 C12 1_555 1_555
C16 C20 1_555 1_555
C17 C21 1_555 1_555
C18 C19 1_555 1_555
C30 C37 1_555 1_555
C33 C42 1_555 1_555
C34 C39 1_555 1_555
C34 C40 1_555 1_555
C35 C38 1_555 1_555
C36 C41 1_555 1_555
C36 C42 1_555 1_555

#END
