
#######################################################################
#
#                 Cambridge Crystallographic Data Centre
#                                CCDC 
#
#######################################################################
#
# If this CIF has been generated from an entry in the Cambridge 
# Structural Database, then it will include bibliographic, chemical, 
# crystal, experimental, refinement or atomic coordinate data resulting 
# from the CCDC's data processing and validation procedures.
#
#######################################################################

data_WAPFOJ
_chemical_formula_moiety         'C23 H16 O3'
_chemical_name_systematic        
3-Methoxy-3-phenyl-3H-1-oxacyclopenta(l)phenanthren-2-one
_symmetry_cell_setting           triclinic
_symmetry_space_group_name_H-M   'P -1'
_symmetry_Int_Tables_number      2
_space_group_name_Hall           '-P 1'
loop_
_symmetry_equiv_pos_site_id
_symmetry_equiv_pos_as_xyz
1 x,y,z
2 -x,-y,-z
_cell_length_a                   8.4695(7)
_cell_length_b                   10.2384(9)
_cell_length_c                   10.9698(5)
_cell_angle_alpha                100.368(5)
_cell_angle_beta                 110.282(4)
_cell_angle_gamma                102.529(7)
_cell_volume                     836.506
_exptl_crystal_colour            colorless
_exptl_crystal_description       plate
_chemical_melting_point          '214-216 deg.C'
_cell_formula_units_Z            2
loop_
_atom_site_label
_atom_site_type_symbol
_atom_site_fract_x
_atom_site_fract_y
_atom_site_fract_z
O1 O 0.15890(18) 0.70518(15) -0.01529(12)
O2 O 0.24175(14) 0.91694(11) 0.24054(12)
C1 C 0.1580(2) 0.68532(17) 0.08812(15)
O3 O 0.19039(16) 0.56963(12) 0.12474(11)
C2 C 0.1947(2) 0.58448(16) 0.25577(16)
C3 C 0.2315(2) 0.48332(16) 0.32535(18)
C4 C 0.2594(3) 0.36149(19) 0.2665(2)
H1 H 0.2544 0.3445 0.1789
C5 C 0.2939(3) 0.2683(2) 0.3388(3)
H2 H 0.3107 0.1867 0.3000
C6 C 0.3039(3) 0.2954(2) 0.4706(3)
H3 H 0.3292 0.2318 0.5195
C7 C 0.2771(3) 0.4138(2) 0.5300(2)
H4 H 0.2844 0.4291 0.6183
C8 C 0.2386(2) 0.51254(17) 0.45853(18)
C9 C 0.20594(19) 0.63860(17) 0.51667(16)
C10 C 0.2087(2) 0.6721(2) 0.64803(18)
H5 H 0.2338 0.6122 0.7014
C11 C 0.1756(2) 0.7901(2) 0.69894(18)
H6 H 0.1765 0.8083 0.7854
C12 C 0.1405(2) 0.8833(2) 0.62267(18)
H7 H 0.1200 0.9643 0.6586
C13 C 0.1362(2) 0.85541(18) 0.49450(16)
H8 H 0.1123 0.9176 0.4435
C14 C 0.16744(19) 0.73383(16) 0.43937(15)
C15 C 0.16361(19) 0.70097(15) 0.30572(15)
C16 C 0.12700(19) 0.77926(15) 0.20066(14)
C17 C -0.06133(19) 0.78650(16) 0.14245(14)
C18 C -0.0945(2) 0.89538(19) 0.08861(16)
H9 H -0.0011 0.9659 0.0928
C19 C -0.2658(3) 0.8994(2) 0.02888(19)
H10 H -0.2871 0.9720 -0.0080
C20 C -0.4045(3) 0.7969(3) 0.0236(2)
H11 H -0.5195 0.7997 -0.0170
C21 C -0.3726(3) 0.6900(3) 0.0787(2)
H12 H -0.4663 0.6214 0.0768
C22 C -0.2014(2) 0.6838(2) 0.1372(2)
H13 H -0.1810 0.6103 0.1729
C23 C 0.4249(2) 0.9306(2) 0.2962(2)
H14 H 0.4920 1.0267 0.3203
H15 H 0.4537 0.8765 0.2306
H16 H 0.4528 0.8977 0.3754
loop_
_geom_bond_atom_site_label_1
_geom_bond_atom_site_label_2
_geom_bond_site_symmetry_1
_geom_bond_site_symmetry_2
O1 C1 1_555 1_555
O2 C16 1_555 1_555
C1 O3 1_555 1_555
O3 C2 1_555 1_555
C2 C3 1_555 1_555
C3 C4 1_555 1_555
C4 H1 1_555 1_555
C5 C4 1_555 1_555
H2 C5 1_555 1_555
C6 C5 1_555 1_555
H3 C6 1_555 1_555
C7 C6 1_555 1_555
H4 C7 1_555 1_555
C8 C3 1_555 1_555
C9 C8 1_555 1_555
C10 C9 1_555 1_555
H5 C10 1_555 1_555
C11 C10 1_555 1_555
H6 C11 1_555 1_555
C12 C11 1_555 1_555
H7 C12 1_555 1_555
C13 C12 1_555 1_555
H8 C13 1_555 1_555
C14 C9 1_555 1_555
C15 C2 1_555 1_555
C16 C1 1_555 1_555
C17 C16 1_555 1_555
C18 C17 1_555 1_555
H9 C18 1_555 1_555
C19 C18 1_555 1_555
H10 C19 1_555 1_555
C20 C19 1_555 1_555
H11 C20 1_555 1_555
C21 C20 1_555 1_555
H12 C21 1_555 1_555
C22 C17 1_555 1_555
H13 C22 1_555 1_555
C23 O2 1_555 1_555
H14 C23 1_555 1_555
H15 C23 1_555 1_555
H16 C23 1_555 1_555
C7 C8 1_555 1_555
C13 C14 1_555 1_555
C14 C15 1_555 1_555
C15 C16 1_555 1_555
C21 C22 1_555 1_555

#END
