
#######################################################################
#
#                 Cambridge Crystallographic Data Centre
#                                CCDC 
#
#######################################################################
#
# If this CIF has been generated from an entry in the Cambridge 
# Structural Database, then it will include bibliographic, chemical, 
# crystal, experimental, refinement or atomic coordinate data resulting 
# from the CCDC's data processing and validation procedures.
#
#######################################################################

data_WAPTUC
_chemical_formula_moiety         'C11 H18 N2'
_chemical_name_systematic        
2,7-Diazatetracyclo(6.2.2.1^3,6^.0^2,7^)tridecane
_symmetry_cell_setting           monoclinic
_symmetry_space_group_name_H-M   'P 21/n'
_symmetry_Int_Tables_number      14
_space_group_name_Hall           '-P 2yn'
loop_
_symmetry_equiv_pos_site_id
_symmetry_equiv_pos_as_xyz
1 x,y,z
2 1/2-x,1/2+y,1/2-z
3 -x,-y,-z
4 1/2+x,1/2-y,1/2+z
_cell_length_a                   8.318(2)
_cell_length_b                   9.999(3)
_cell_length_c                   11.718(3)
_cell_angle_alpha                90
_cell_angle_beta                 105.70(3)
_cell_angle_gamma                90
_cell_volume                     938.245
_cell_formula_units_Z            4
loop_
_atom_site_label
_atom_site_type_symbol
_atom_site_fract_x
_atom_site_fract_y
_atom_site_fract_z
N1 N 0.10315(16) 0.14818(13) 0.61153(10)
N2 N 0.16948(16) 0.22678(13) 0.72494(11)
C1 C -0.08175(19) 0.15414(17) 0.57309(14)
C2 C -0.13901(20) 0.08513(18) 0.67151(14)
C3 C -0.07292(21) 0.16387(18) 0.78733(15)
C4 C 0.02772(21) 0.28364(17) 0.76284(15)
C5 C -0.08887(20) 0.37427(18) 0.67178(14)
C6 C -0.15707(20) 0.29458(18) 0.55577(15)
C7 C 0.28733(20) 0.32307(18) 0.69499(15)
C8 C 0.44071(22) 0.23876(18) 0.69166(16)
C9 C 0.37409(20) 0.15681(18) 0.57607(15)
C10 C 0.19421(20) 0.20701(17) 0.53059(14)
C11 C 0.21701(21) 0.35509(18) 0.56323(14)
H1 H -0.1100 0.0993 0.4958
H2 H -0.1066 0.0026 0.6717
H3 H -0.2665 0.0775 0.6457
H4 H 0.0015 0.1065 0.8426
H5 H -0.1682 0.1956 0.8215
H6 H 0.0769 0.3446 0.8375
H7 H -0.0340 0.4487 0.6624
H8 H -0.1819 0.4068 0.7106
H9 H -0.2863 0.2865 0.5336
H10 H -0.1351 0.3389 0.4893
H11 H 0.3026 0.4058 0.7474
H12 H 0.5303 0.2989 0.6879
H13 H 0.4776 0.1856 0.7611
H14 H 0.4439 0.1725 0.5153
H15 H 0.3741 0.0672 0.5856
H16 H 0.1337 0.1845 0.4455
H17 H 0.2992 0.3999 0.5259
H18 H 0.1154 0.4114 0.5395
loop_
_geom_bond_atom_site_label_1
_geom_bond_atom_site_label_2
_geom_bond_site_symmetry_1
_geom_bond_site_symmetry_2
N1 N2 1_555 1_555
N2 C4 1_555 1_555
C1 N1 1_555 1_555
C2 C1 1_555 1_555
C3 C2 1_555 1_555
C4 C3 1_555 1_555
C5 C4 1_555 1_555
C6 C1 1_555 1_555
C7 N2 1_555 1_555
C8 C7 1_555 1_555
C9 C8 1_555 1_555
C10 N1 1_555 1_555
C11 C7 1_555 1_555
H1 C1 1_555 1_555
H2 C2 1_555 1_555
H3 C2 1_555 1_555
H4 C3 1_555 1_555
H5 C3 1_555 1_555
H6 C4 1_555 1_555
H7 C5 1_555 1_555
H8 C5 1_555 1_555
H9 C6 1_555 1_555
H10 C6 1_555 1_555
H11 C7 1_555 1_555
H12 C8 1_555 1_555
H13 C8 1_555 1_555
H14 C9 1_555 1_555
H15 C9 1_555 1_555
H16 C10 1_555 1_555
H17 C11 1_555 1_555
H18 C11 1_555 1_555
C5 C6 1_555 1_555
C9 C10 1_555 1_555
C10 C11 1_555 1_555

#END
