
#######################################################################
#
#                 Cambridge Crystallographic Data Centre
#                                CCDC 
#
#######################################################################
#
# If this CIF has been generated from an entry in the Cambridge 
# Structural Database, then it will include bibliographic, chemical, 
# crystal, experimental, refinement or atomic coordinate data resulting 
# from the CCDC's data processing and validation procedures.
#
#######################################################################

data_WAQDIE
_chemical_formula_moiety         'C18 H18 N2 O3'
_chemical_name_systematic        
'ethyl [5-methyl-2-oxo-1-(pyridin-2-yl)-2,3-dihydro-1H-indol-7-yl]acetate'
_symmetry_cell_setting           orthorhombic
_symmetry_space_group_name_H-M   'P b c n'
_symmetry_Int_Tables_number      60
_space_group_name_Hall           '-P 2n 2ab'
loop_
_symmetry_equiv_pos_site_id
_symmetry_equiv_pos_as_xyz
1 x,y,z
2 1/2-x,1/2-y,1/2+z
3 1/2+x,1/2-y,-z
4 -x,y,1/2-z
5 -x,-y,-z
6 1/2+x,1/2+y,1/2-z
7 1/2-x,1/2+y,z
8 x,-y,1/2+z
_cell_length_a                   13.8048(3)
_cell_length_b                   15.2327(3)
_cell_length_c                   15.2102(4)
_cell_angle_alpha                90
_cell_angle_beta                 90
_cell_angle_gamma                90
_cell_volume                     3198.47
_exptl_crystal_colour            colorless
_exptl_crystal_description       plane
_chemical_melting_point          '113.5-114.2 deg.C'
_cell_formula_units_Z            8
loop_
_atom_site_label
_atom_site_type_symbol
_atom_site_fract_x
_atom_site_fract_y
_atom_site_fract_z
O1 O 0.39143(9) 0.72877(8) -0.02420(11)
O2 O 0.16696(7) 0.45592(9) 0.21384(7)
O3 O 0.32496(8) 0.43938(10) 0.18972(8)
N1 N 0.32825(8) 0.59334(8) 0.00933(9)
C1 C 0.39027(11) 0.64981(11) -0.03490(12)
C2 C 0.44985(11) 0.59624(10) -0.09742(11)
H1 H 0.4393 0.6148 -0.1577
H2 H 0.5183 0.6010 -0.0838
C3 C 0.41446(10) 0.50449(10) -0.08340(10)
C4 C 0.34042(9) 0.50545(10) -0.02087(9)
C5 C 0.29225(10) 0.42910(9) 0.00344(9)
C6 C 0.32185(11) 0.35260(10) -0.03916(10)
H3 H 0.2899 0.3006 -0.0256
C7 C 0.39625(12) 0.34929(11) -0.10066(10)
C8 C 0.44258(11) 0.42747(11) -0.12241(10)
H4 H 0.4926 0.4275 -0.1634
C9 C 0.42542(16) 0.26291(12) -0.14118(13)
H5 H 0.3854 0.2169 -0.1180
H6 H 0.4920 0.2509 -0.1275
H7 H 0.4175 0.2659 -0.2038
C10 C 0.25453(11) 0.62743(9) 0.06522(11)
C11 C 0.27833(15) 0.66247(13) 0.14474(14)
H8 H 0.3418 0.6606 0.1652
C12 C 0.20617(19) 0.70063(16) 0.19386(17)
H9 H 0.2200 0.7256 0.2482
C13 C 0.11440(19) 0.70127(14) 0.16175(18)
H10 H 0.0644 0.7270 0.1936
C14 C 0.09682(14) 0.66366(14) 0.08230(17)
H11 H 0.0335 0.6636 0.0614
N2 N 0.16568(9) 0.62654(10) 0.03233(11)
C15 C 0.21207(10) 0.42382(10) 0.07035(10)
H12 H 0.1626 0.4663 0.0550
H13 H 0.1829 0.3660 0.0672
C16 C 0.24364(11) 0.44033(10) 0.16320(10)
C17 C 0.18487(13) 0.47420(15) 0.30585(11)
H14 H 0.2334 0.5199 0.3118
H15 H 0.2082 0.4219 0.3354
C18 C 0.09144(16) 0.5033(2) 0.34508(13)
H16 H 0.1009 0.5166 0.4062
H17 H 0.0443 0.4574 0.3393
H18 H 0.0689 0.5549 0.3150
loop_
_geom_bond_atom_site_label_1
_geom_bond_atom_site_label_2
_geom_bond_site_symmetry_1
_geom_bond_site_symmetry_2
O1 C1 1_555 1_555
O2 C16 1_555 1_555
O3 C16 1_555 1_555
N1 C1 1_555 1_555
C1 C2 1_555 1_555
C2 H1 1_555 1_555
H2 C2 1_555 1_555
C3 C2 1_555 1_555
C4 N1 1_555 1_555
C5 C4 1_555 1_555
C6 C5 1_555 1_555
H3 C6 1_555 1_555
C7 C6 1_555 1_555
C8 C3 1_555 1_555
H4 C8 1_555 1_555
C9 C7 1_555 1_555
H5 C9 1_555 1_555
H6 C9 1_555 1_555
H7 C9 1_555 1_555
C10 N1 1_555 1_555
C11 C10 1_555 1_555
H8 C11 1_555 1_555
C12 C11 1_555 1_555
H9 C12 1_555 1_555
C13 C12 1_555 1_555
H10 C13 1_555 1_555
C14 C13 1_555 1_555
H11 C14 1_555 1_555
N2 C10 1_555 1_555
C15 C5 1_555 1_555
H12 C15 1_555 1_555
H13 C15 1_555 1_555
C16 C15 1_555 1_555
C17 O2 1_555 1_555
H14 C17 1_555 1_555
H15 C17 1_555 1_555
C18 C17 1_555 1_555
H16 C18 1_555 1_555
H17 C18 1_555 1_555
H18 C18 1_555 1_555
C3 C4 1_555 1_555
C7 C8 1_555 1_555
C14 N2 1_555 1_555

#END
