
#######################################################################
#
#                 Cambridge Crystallographic Data Centre
#                                CCDC 
#
#######################################################################
#
# If this CIF has been generated from an entry in the Cambridge 
# Structural Database, then it will include bibliographic, chemical, 
# crystal, experimental, refinement or atomic coordinate data resulting 
# from the CCDC's data processing and validation procedures.
#
#######################################################################

data_WAQPUA
_chemical_formula_moiety         'C24 H20 O10'
_chemical_name_systematic        
'Diethyl 2,3-bis(benzo(1,3)dioxole-5-carbonyl)but-2-enedioate'
_symmetry_cell_setting           monoclinic
_symmetry_space_group_name_H-M   'P 21/c'
_symmetry_Int_Tables_number      14
_space_group_name_Hall           '-P 2ybc'
loop_
_symmetry_equiv_pos_site_id
_symmetry_equiv_pos_as_xyz
1 x,y,z
2 -x,1/2+y,1/2-z
3 -x,-y,-z
4 x,1/2-y,1/2+z
_cell_length_a                   11.1653(14)
_cell_length_b                   13.3535(17)
_cell_length_c                   7.7380(10)
_cell_angle_alpha                90
_cell_angle_beta                 107.082(2)
_cell_angle_gamma                90
_cell_volume                     1102.81
_exptl_crystal_colour            green
_exptl_crystal_description       block
_cell_formula_units_Z            2
_exptl_crystal_recrystallization_method methanol/chloroform
loop_
_atom_site_label
_atom_site_type_symbol
_atom_site_fract_x
_atom_site_fract_y
_atom_site_fract_z
C1 C 1.0238(2) 0.85072(19) 1.4073(4)
H1 H 1.0954 0.8677 1.3664
H2 H 1.0327 0.8843 1.5216
C2 C 0.90515(17) 0.71541(15) 1.3163(3)
C3 C 0.85665(16) 0.62104(14) 1.2899(2)
H3 H 0.9008 0.5662 1.3506
C4 C 0.73631(15) 0.61072(13) 1.1661(2)
C5 C 0.67326(18) 0.69364(14) 1.0766(3)
H4 H 0.5943 0.6850 0.9944
C6 C 0.72411(19) 0.78954(15) 1.1056(3)
H5 H 0.6810 0.8452 1.0462
C7 C 0.84063(18) 0.79737(14) 1.2260(3)
C8 C 0.67920(16) 0.51033(13) 1.1402(2)
C9 C 0.55693(16) 0.49448(13) 0.9899(2)
C10 C 0.56989(16) 0.45819(13) 0.8124(2)
C11 C 0.71194(19) 0.41650(16) 0.6491(3)
H6 H 0.7960 0.4357 0.6504
H7 H 0.6533 0.4494 0.5470
C12 C 0.6980(3) 0.30670(18) 0.6270(4)
H8 H 0.7550 0.2741 0.7289
H9 H 0.7163 0.2868 0.5183
H10 H 0.6136 0.2880 0.6197
O1 O 0.91102(14) 0.88209(11) 1.2770(2)
O2 O 1.01817(14) 0.74570(13) 1.4299(2)
O3 O 0.72849(13) 0.43734(10) 1.22574(19)
O4 O 0.48243(12) 0.43951(12) 0.68404(18)
O5 O 0.68882(12) 0.44996(11) 0.81721(17)
C1B C -0.0238(2) 0.14928(19) 0.5927(4)
H1B H -0.0954 0.1323 0.6336
H2B H -0.0327 0.1157 0.4784
C2B C 0.09485(17) 0.28459(15) 0.6837(3)
C3B C 0.14335(16) 0.37896(14) 0.7101(2)
H3B H 0.0992 0.4338 0.6494
C4B C 0.26369(15) 0.38928(13) 0.8339(2)
C5B C 0.32674(18) 0.30636(14) 0.9234(3)
H4B H 0.4057 0.3150 1.0056
C6B C 0.27589(19) 0.21046(15) 0.8944(3)
H5B H 0.3190 0.1548 0.9538
C7B C 0.15937(18) 0.20263(14) 0.7740(3)
C8B C 0.32080(16) 0.48967(13) 0.8598(2)
C9B C 0.44307(16) 0.50552(13) 1.0101(2)
C10B C 0.43011(16) 0.54181(13) 1.1876(2)
C11B C 0.28806(19) 0.58350(16) 1.3509(3)
H6B H 0.2040 0.5643 1.3496
H7B H 0.3467 0.5506 1.4530
C12B C 0.3020(3) 0.69330(18) 1.3730(4)
H8B H 0.2450 0.7259 1.2711
H9B H 0.2837 0.7132 1.4817
H10B H 0.3864 0.7120 1.3803
O1B O 0.08898(14) 0.11791(11) 0.7230(2)
O2B O -0.01817(14) 0.25430(13) 0.5701(2)
O3B O 0.27151(13) 0.56266(10) 0.77426(19)
O4B O 0.51757(12) 0.56049(12) 1.31596(18)
O5B O 0.31118(12) 0.55004(11) 1.18279(17)
loop_
_geom_bond_atom_site_label_1
_geom_bond_atom_site_label_2
_geom_bond_site_symmetry_1
_geom_bond_site_symmetry_2
C1 H1 1_555 1_555
H2 C1 1_555 1_555
C2 C3 1_555 1_555
C3 H3 1_555 1_555
C4 C3 1_555 1_555
C5 C4 1_555 1_555
H4 C5 1_555 1_555
C6 C5 1_555 1_555
H5 C6 1_555 1_555
C7 C2 1_555 1_555
C8 C4 1_555 1_555
C9 C8 1_555 1_555
C10 C9 1_555 1_555
C11 H6 1_555 1_555
H7 C11 1_555 1_555
C12 C11 1_555 1_555
H8 C12 1_555 1_555
H9 C12 1_555 1_555
H10 C12 1_555 1_555
O1 C1 1_555 1_555
O2 C1 1_555 1_555
O3 C8 1_555 1_555
O4 C10 1_555 1_555
O5 C10 1_555 1_555
C1B H1B 1_555 1_555
H2B C1B 1_555 1_555
C2B C3B 1_555 1_555
C3B H3B 1_555 1_555
C4B C3B 1_555 1_555
C5B C4B 1_555 1_555
H4B C5B 1_555 1_555
C6B C5B 1_555 1_555
H5B C6B 1_555 1_555
C7B C2B 1_555 1_555
C8B C4B 1_555 1_555
C9B C9 1_555 1_555
C10B C9B 1_555 1_555
C11B H6B 1_555 1_555
H7B C11B 1_555 1_555
C12B C11B 1_555 1_555
H8B C12B 1_555 1_555
H9B C12B 1_555 1_555
H10B C12B 1_555 1_555
O1B C1B 1_555 1_555
O2B C1B 1_555 1_555
O3B C8B 1_555 1_555
O4B C10B 1_555 1_555
O5B C10B 1_555 1_555
C2 O2 1_555 1_555
C6 C7 1_555 1_555
C7 O1 1_555 1_555
C11 O5 1_555 1_555
C2B O2B 1_555 1_555
C6B C7B 1_555 1_555
C7B O1B 1_555 1_555
C8B C9B 1_555 1_555
C11B O5B 1_555 1_555

#END
