
#######################################################################
#
#                 Cambridge Crystallographic Data Centre
#                                CCDC 
#
#######################################################################
#
# If this CIF has been generated from an entry in the Cambridge 
# Structural Database, then it will include bibliographic, chemical, 
# crystal, experimental, refinement or atomic coordinate data resulting 
# from the CCDC's data processing and validation procedures.
#
#######################################################################

data_WARKUW
_chemical_formula_moiety         'C16 H16 N2 O3,0.5(C6 H6)'
_chemical_name_systematic        
'N-Phenyl-(2S)-hydroxy-3-((2-hydroxybenzylidene)amino)propionamide benzene solvate'
_symmetry_cell_setting           monoclinic
_symmetry_space_group_name_H-M   'P 21'
_symmetry_Int_Tables_number      4
_space_group_name_Hall           'P 2yb'
loop_
_symmetry_equiv_pos_site_id
_symmetry_equiv_pos_as_xyz
1 x,y,z
2 -x,1/2+y,-z
_cell_length_a                   5.673(3)
_cell_length_b                   15.486(8)
_cell_length_c                   18.753(9)
_cell_angle_alpha                90
_cell_angle_beta                 90.086(7)
_cell_angle_gamma                90
_cell_volume                     1647.49
_exptl_crystal_colour            yellow
_exptl_crystal_description       platelet
_cell_formula_units_Z            4
loop_
_atom_site_label
_atom_site_type_symbol
_atom_site_fract_x
_atom_site_fract_y
_atom_site_fract_z
O1 O 1.1212(6) 0.6962(3) 0.76787(19)
H1 H 1.0147 0.7039 0.7374
O2 O 0.8266(5) 0.7689(2) 0.55862(18)
H2 H 0.9481 0.7380 0.5562
O3 O 0.2494(5) 0.6790(2) 0.55949(18)
N1 N 0.7304(7) 0.7537(3) 0.7145(2)
N2 N 0.4722(6) 0.7387(2) 0.4712(2)
H5 H 0.6098 0.7630 0.4631
C1 C 1.0483(8) 0.7260(3) 0.8314(3)
C2 C 1.1839(9) 0.7110(4) 0.8918(3)
H7 H 1.3290 0.6808 0.8882
C3 C 1.1057(10) 0.7406(4) 0.9572(3)
H8 H 1.1985 0.7300 0.9985
C4 C 0.8987(10) 0.7846(4) 0.9639(3)
H9 H 0.8491 0.8047 1.0093
C5 C 0.7640(10) 0.7994(4) 0.9054(3)
H10 H 0.6207 0.8305 0.9105
C6 C 0.8307(8) 0.7701(3) 0.8377(3)
C7 C 0.3184(8) 0.7333(3) 0.4121(2)
C8 C 0.3811(8) 0.7790(3) 0.3515(3)
H11 H 0.5237 0.8111 0.3507
C9 C 0.2363(9) 0.7777(3) 0.2922(3)
H12 H 0.2787 0.8099 0.2511
C10 C 0.0302(8) 0.7301(3) 0.2921(3)
H13 H -0.0695 0.7298 0.2514
C11 C -0.0282(8) 0.6834(3) 0.3514(3)
H14 H -0.1683 0.6498 0.3513
C12 C 0.1140(8) 0.6845(3) 0.4115(3)
H15 H 0.0713 0.6517 0.4523
C13 C 0.6786(8) 0.7819(3) 0.7757(3)
H16 H 0.5342 0.8121 0.7816
C14 C 0.5583(8) 0.7647(3) 0.6571(2)
H17 H 0.5345 0.8270 0.6478
H18 H 0.4053 0.7397 0.6718
C15 C 0.6412(7) 0.7209(3) 0.5897(2)
H19 H 0.7014 0.6620 0.6021
C16 C 0.4355(8) 0.7114(3) 0.5381(3)
O4 O 0.2678(7) 0.3587(2) 0.8155(2)
H3 H 0.1942 0.3812 0.7813
O5 O 0.2551(5) 0.4106(2) 0.56283(18)
H4 H 0.3581 0.4480 0.5718
O6 O -0.3194(6) 0.5046(2) 0.55275(19)
N3 N 0.1936(7) 0.4688(3) 0.7115(2)
N4 N -0.0791(6) 0.4431(3) 0.4695(2)
H6 H 0.0523 0.4132 0.4659
C17 C 0.4522(9) 0.4096(3) 0.8335(3)
C18 C 0.5930(10) 0.3857(3) 0.8911(3)
H20 H 0.5556 0.3352 0.9176
C19 C 0.7856(10) 0.4344(4) 0.9099(3)
H21 H 0.8810 0.4169 0.9490
C20 C 0.8422(10) 0.5084(4) 0.8728(3)
H22 H 0.9753 0.5420 0.8860
C21 C 0.7019(9) 0.5325(4) 0.8163(3)
H23 H 0.7394 0.5837 0.7908
C22 C 0.5076(9) 0.4845(3) 0.7954(3)
C23 C -0.1948(8) 0.4594(3) 0.4041(3)
C24 C -0.0853(8) 0.4304(3) 0.3427(3)
H24 H 0.0590 0.3996 0.3464
C25 C -0.1808(10) 0.4453(4) 0.2770(3)
H25 H -0.1009 0.4255 0.2357
C26 C -0.3915(10) 0.4887(3) 0.2700(3)
H26 H -0.4582 0.4987 0.2242
C27 C -0.5031(9) 0.5171(3) 0.3306(3)
H27 H -0.6491 0.5467 0.3263
C28 C -0.4078(9) 0.5036(3) 0.3982(3)
H28 H -0.4866 0.5241 0.4395
C29 C 0.3702(9) 0.5114(3) 0.7343(3)
H29 H 0.4135 0.5630 0.7102
C30 C 0.0618(9) 0.5033(3) 0.6507(2)
H30 H 0.1446 0.5545 0.6316
H31 H -0.0966 0.5218 0.6667
C31 C 0.0364(8) 0.4367(3) 0.5925(2)
H32 H -0.0335 0.3843 0.6153
C32 C -0.1375(8) 0.4661(3) 0.5364(3)
C33 C 0.1740(12) 0.5368(4) 0.0821(4)
H33 H 0.0391 0.5007 0.0783
C34 C 0.1959(13) 0.5923(5) 0.1383(4)
H34 H 0.0761 0.5953 0.1736
C35 C 0.3912(12) 0.6437(4) 0.1435(3)
H35 H 0.4070 0.6818 0.1829
C36 C 0.5643(12) 0.6409(4) 0.0928(3)
H36 H 0.6992 0.6769 0.0973
C37 C 0.5437(13) 0.5865(5) 0.0359(4)
H37 H 0.6617 0.5852 0.0000
C38 C 0.3475(14) 0.5333(5) 0.0311(4)
H38 H 0.3330 0.4941 -0.0076
loop_
_geom_bond_atom_site_label_1
_geom_bond_atom_site_label_2
_geom_bond_site_symmetry_1
_geom_bond_site_symmetry_2
O1 H1 1_555 1_555
O2 H2 1_555 1_555
O3 C16 1_555 1_555
O4 H3 1_555 1_555
O5 H4 1_555 1_555
O6 C32 1_555 1_555
N1 C13 1_555 1_555
N2 H5 1_555 1_555
N3 C29 1_555 1_555
N4 H6 1_555 1_555
C1 O1 1_555 1_555
C2 C1 1_555 1_555
H7 C2 1_555 1_555
C3 C2 1_555 1_555
H8 C3 1_555 1_555
C4 C3 1_555 1_555
H9 C4 1_555 1_555
C5 C4 1_555 1_555
H10 C5 1_555 1_555
C6 C1 1_555 1_555
C7 N2 1_555 1_555
C8 C7 1_555 1_555
H11 C8 1_555 1_555
C9 C8 1_555 1_555
H12 C9 1_555 1_555
C10 C9 1_555 1_555
H13 C10 1_555 1_555
C11 C10 1_555 1_555
H14 C11 1_555 1_555
C12 C7 1_555 1_555
H15 C12 1_555 1_555
C13 C6 1_555 1_555
H16 C13 1_555 1_555
C14 N1 1_555 1_555
H17 C14 1_555 1_555
H18 C14 1_555 1_555
C15 O2 1_555 1_555
H19 C15 1_555 1_555
C16 N2 1_555 1_555
C17 O4 1_555 1_555
C18 C17 1_555 1_555
H20 C18 1_555 1_555
C19 C18 1_555 1_555
H21 C19 1_555 1_555
C20 C19 1_555 1_555
H22 C20 1_555 1_555
C21 C20 1_555 1_555
H23 C21 1_555 1_555
C22 C17 1_555 1_555
C23 N4 1_555 1_555
C24 C23 1_555 1_555
H24 C24 1_555 1_555
C25 C24 1_555 1_555
H25 C25 1_555 1_555
C26 C25 1_555 1_555
H26 C26 1_555 1_555
C27 C26 1_555 1_555
H27 C27 1_555 1_555
C28 C23 1_555 1_555
H28 C28 1_555 1_555
C29 C22 1_555 1_555
H29 C29 1_555 1_555
C30 N3 1_555 1_555
H30 C30 1_555 1_555
H31 C30 1_555 1_555
C31 O5 1_555 1_555
H32 C31 1_555 1_555
C32 N4 1_555 1_555
C33 H33 1_555 1_555
C34 C33 1_555 1_555
H34 C34 1_555 1_555
C35 C34 1_555 1_555
H35 C35 1_555 1_555
C36 C35 1_555 1_555
H36 C36 1_555 1_555
C37 C36 1_555 1_555
H37 C37 1_555 1_555
C38 C33 1_555 1_555
H38 C38 1_555 1_555
C5 C6 1_555 1_555
C11 C12 1_555 1_555
C14 C15 1_555 1_555
C15 C16 1_555 1_555
C21 C22 1_555 1_555
C27 C28 1_555 1_555
C30 C31 1_555 1_555
C31 C32 1_555 1_555
C37 C38 1_555 1_555

#END
