
#######################################################################
#
#                 Cambridge Crystallographic Data Centre
#                                CCDC 
#
#######################################################################
#
# If this CIF has been generated from an entry in the Cambridge 
# Structural Database, then it will include bibliographic, chemical, 
# crystal, experimental, refinement or atomic coordinate data resulting 
# from the CCDC's data processing and validation procedures.
#
#######################################################################

data_WARLAF
_chemical_formula_moiety         'C22 H29 N1'
_chemical_name_systematic        1-butyl-2,9-diethyl-3,4-dimethyl-9H-carbazole
_symmetry_cell_setting           monoclinic
_symmetry_space_group_name_H-M   'P 21/n'
_symmetry_Int_Tables_number      14
_space_group_name_Hall           '-P 2yn'
loop_
_symmetry_equiv_pos_site_id
_symmetry_equiv_pos_as_xyz
1 x,y,z
2 1/2-x,1/2+y,1/2-z
3 -x,-y,-z
4 1/2+x,1/2-y,1/2+z
_cell_length_a                   8.7284(14)
_cell_length_b                   10.1708(12)
_cell_length_c                   21.323(4)
_cell_angle_alpha                90
_cell_angle_beta                 93.076(16)
_cell_angle_gamma                90
_cell_volume                     1890.22
_exptl_crystal_colour            colorless
_exptl_crystal_description       block
_cell_formula_units_Z            4
loop_
_atom_site_label
_atom_site_type_symbol
_atom_site_fract_x
_atom_site_fract_y
_atom_site_fract_z
N1 N -0.11158(19) 0.68303(16) 0.25813(9)
C1 C -0.1495(2) 0.7022(2) 0.19516(11)
C2 C -0.2385(3) 0.6217(3) 0.15454(13)
H1 H -0.2774 0.5423 0.1683
C3 C -0.2667(4) 0.6626(3) 0.09419(15)
H2 H -0.3260 0.6106 0.0665
C4 C -0.2079(4) 0.7813(3) 0.07341(13)
H3 H -0.2292 0.8077 0.0321
C5 C -0.1188(3) 0.8600(3) 0.11310(11)
H4 H -0.0787 0.9383 0.0985
C6 C -0.0887(2) 0.8221(2) 0.17537(10)
C7 C -0.0070(2) 0.87907(19) 0.23010(10)
C8 C -0.0233(2) 0.79021(18) 0.28046(10)
C9 C 0.0400(2) 0.8167(2) 0.34095(10)
C10 C 0.1189(2) 0.9366(2) 0.34954(11)
C11 C 0.1359(2) 1.0255(2) 0.29911(11)
C12 C 0.0746(2) 0.9969(2) 0.23939(10)
C13 C -0.1490(3) 0.5597(2) 0.28841(13)
H5 H -0.2472 0.5288 0.2708
H6 H -0.1595 0.5758 0.3328
C14 C -0.0308(3) 0.4532(2) 0.28119(17)
H7 H -0.0255 0.4314 0.2375
H8 H -0.0594 0.3766 0.3041
H9 H 0.0676 0.4839 0.2973
C15 C 0.0217(3) 0.7256(2) 0.39598(11)
H10 H 0.1073 0.7387 0.4263
H11 H 0.0256 0.6355 0.3814
C16 C -0.1280(3) 0.7462(3) 0.42881(12)
H12 H -0.1292 0.8347 0.4458
H13 H -0.2135 0.7384 0.3981
C17 C -0.1493(4) 0.6497(3) 0.48097(14)
H14 H -0.0690 0.6635 0.5135
H15 H -0.1376 0.5614 0.4647
C18 C -0.3033(5) 0.6598(4) 0.51001(17)
H16 H -0.3834 0.6390 0.4790
H17 H -0.3175 0.7476 0.5251
H18 H -0.3067 0.5990 0.5444
C19 C 0.1894(3) 0.9713(3) 0.41381(12)
H19 H 0.1304 0.9297 0.4456
H20 H 0.1833 1.0656 0.4197
C20 C 0.3570(3) 0.9282(4) 0.42288(15)
H21 H 0.4163 0.9698 0.3918
H22 H 0.3635 0.8344 0.4184
H23 H 0.3965 0.9532 0.4641
C21 C 0.2209(3) 1.1539(2) 0.31163(14)
H24 H 0.2260 1.2021 0.2731
H25 H 0.3230 1.1356 0.3284
H26 H 0.1676 1.2052 0.3413
C22 C 0.0892(3) 1.0895(2) 0.18438(12)
H27 H 0.1257 1.0418 0.1493
H28 H 0.1604 1.1584 0.1960
H29 H -0.0092 1.1271 0.1729
loop_
_geom_bond_atom_site_label_1
_geom_bond_atom_site_label_2
_geom_bond_site_symmetry_1
_geom_bond_site_symmetry_2
N1 C1 1_555 1_555
C1 C2 1_555 1_555
C2 H1 1_555 1_555
C3 C2 1_555 1_555
H2 C3 1_555 1_555
C4 C3 1_555 1_555
H3 C4 1_555 1_555
C5 C4 1_555 1_555
H4 C5 1_555 1_555
C6 C1 1_555 1_555
C7 C6 1_555 1_555
C8 N1 1_555 1_555
C9 C8 1_555 1_555
C10 C9 1_555 1_555
C11 C10 1_555 1_555
C12 C7 1_555 1_555
C13 N1 1_555 1_555
H5 C13 1_555 1_555
H6 C13 1_555 1_555
C14 C13 1_555 1_555
H7 C14 1_555 1_555
H8 C14 1_555 1_555
H9 C14 1_555 1_555
C15 C9 1_555 1_555
H10 C15 1_555 1_555
H11 C15 1_555 1_555
C16 C15 1_555 1_555
H12 C16 1_555 1_555
H13 C16 1_555 1_555
C17 C16 1_555 1_555
H14 C17 1_555 1_555
H15 C17 1_555 1_555
C18 C17 1_555 1_555
H16 C18 1_555 1_555
H17 C18 1_555 1_555
H18 C18 1_555 1_555
C19 C10 1_555 1_555
H19 C19 1_555 1_555
H20 C19 1_555 1_555
C20 C19 1_555 1_555
H21 C20 1_555 1_555
H22 C20 1_555 1_555
H23 C20 1_555 1_555
C21 C11 1_555 1_555
H24 C21 1_555 1_555
H25 C21 1_555 1_555
H26 C21 1_555 1_555
C22 C12 1_555 1_555
H27 C22 1_555 1_555
H28 C22 1_555 1_555
H29 C22 1_555 1_555
C5 C6 1_555 1_555
C7 C8 1_555 1_555
C11 C12 1_555 1_555

#END
