
#######################################################################
#
#                 Cambridge Crystallographic Data Centre
#                                CCDC 
#
#######################################################################
#
# If this CIF has been generated from an entry in the Cambridge 
# Structural Database, then it will include bibliographic, chemical, 
# crystal, experimental, refinement or atomic coordinate data resulting 
# from the CCDC's data processing and validation procedures.
#
#######################################################################

data_WARMEK
_chemical_formula_moiety         'C27 H38 N2 O2 P1 1+,H2 O1,I1 1-'
_chemical_name_systematic        
'tri-n-butyl(4-hydroxy-3-(4-oxo-3,4-dihydroquinazolin-2-yl)benzyl)phosphonium iodide monohydrate'
_symmetry_cell_setting           monoclinic
_symmetry_space_group_name_H-M   'P 21/c'
_symmetry_Int_Tables_number      14
_space_group_name_Hall           '-P 2ybc'
loop_
_symmetry_equiv_pos_site_id
_symmetry_equiv_pos_as_xyz
1 x,y,z
2 -x,1/2+y,1/2-z
3 -x,-y,-z
4 x,1/2-y,1/2+z
_cell_length_a                   24.2819(6)
_cell_length_b                   9.3561(2)
_cell_length_c                   25.4208(7)
_cell_angle_alpha                90
_cell_angle_beta                 90.908(2)
_cell_angle_gamma                90
_cell_volume                     5774.47
_exptl_crystal_colour            colorless
_exptl_crystal_description       needle
_cell_formula_units_Z            8
loop_
_atom_site_label
_atom_site_type_symbol
_atom_site_fract_x
_atom_site_fract_y
_atom_site_fract_z
P1 P 0.08544(4) 0.53129(10) 0.28489(4)
O1 O 0.04623(12) 0.3128(3) 0.53159(10)
H1 H 0.0768 0.2848 0.5436
O2 O 0.25463(12) -0.0031(3) 0.44060(11)
C1 C 0.04879(15) 0.3785(4) 0.31002(14)
H2 H 0.0100 0.3855 0.2978
H3 H 0.0645 0.2916 0.2939
C2 C 0.04895(15) 0.3572(3) 0.36902(15)
C3 C 0.09320(15) 0.2956(3) 0.39526(15)
H4 H 0.1240 0.2651 0.3756
C4 C 0.09409(16) 0.2766(4) 0.44992(15)
C5 C 0.04832(16) 0.3212(4) 0.47867(16)
C6 C 0.00281(16) 0.3767(4) 0.45205(16)
H5 H -0.0291 0.4018 0.4711
C7 C 0.00337(16) 0.3959(4) 0.39801(16)
H6 H -0.0279 0.4360 0.3806
C8 C 0.14132(15) 0.2083(4) 0.47754(15)
N1 N 0.17739(12) 0.1296(3) 0.44819(12)
H7 H 0.1708 0.1213 0.4142
C9 C 0.22343(16) 0.0628(4) 0.46924(16)
C10 C 0.23062(16) 0.0829(4) 0.52623(15)
C11 C 0.27619(17) 0.0208(4) 0.55272(17)
H8 H 0.3018 -0.0361 0.5342
C12 C 0.28280(19) 0.0441(5) 0.60565(18)
H9 H 0.3134 0.0036 0.6240
C13 C 0.24512(19) 0.1263(5) 0.63264(18)
H10 H 0.2504 0.1413 0.6693
C14 C 0.19978(18) 0.1872(4) 0.60734(16)
H11 H 0.1741 0.2429 0.6263
C15 C 0.19267(16) 0.1645(4) 0.55291(15)
N2 N 0.14728(13) 0.2265(3) 0.52773(12)
C16 C 0.07482(17) 0.5202(4) 0.21497(14)
H12 H 0.0816 0.4203 0.2040
H13 H 0.0356 0.5416 0.2070
C17 C 0.11033(17) 0.6188(4) 0.18134(15)
H14 H 0.1045 0.7192 0.1922
H15 H 0.1497 0.5953 0.1874
C18 C 0.09622(17) 0.6033(4) 0.12301(15)
H16 H 0.0572 0.6305 0.1169
H17 H 0.1004 0.5020 0.1126
C19 C 0.1328(2) 0.6960(5) 0.08863(17)
H18 H 0.1212 0.6859 0.0517
H19 H 0.1712 0.6653 0.0928
H20 H 0.1294 0.7962 0.0993
C20 C 0.15772(15) 0.5246(4) 0.30156(16)
H21 H 0.1755 0.6117 0.2876
H22 H 0.1618 0.5271 0.3404
C21 C 0.18893(16) 0.3937(4) 0.28103(16)
H23 H 0.1738 0.3067 0.2976
H24 H 0.1824 0.3858 0.2426
C22 C 0.24990(18) 0.3997(5) 0.2918(2)
H25 H 0.2656 0.4766 0.2699
H26 H 0.2559 0.4268 0.3291
C23 C 0.28104(19) 0.2658(5) 0.28163(19)
H27 H 0.2727 0.2321 0.2459
H28 H 0.2703 0.1926 0.3071
H29 H 0.3206 0.2845 0.2853
C24 C 0.05746(16) 0.6965(4) 0.30942(15)
H30 H 0.0695 0.7752 0.2862
H31 H 0.0168 0.6913 0.3069
C25 C 0.07377(17) 0.7340(4) 0.36620(15)
H32 H 0.0659 0.6515 0.3893
H33 H 0.1139 0.7530 0.3683
C26 C 0.04280(18) 0.8643(4) 0.38573(16)
H34 H 0.0027 0.8457 0.3831
H35 H 0.0511 0.9469 0.3629
C27 C 0.0580(2) 0.9015(4) 0.44237(17)
H36 H 0.0979 0.9158 0.4455
H37 H 0.0469 0.8232 0.4655
H38 H 0.0389 0.9893 0.4525
P2 P 0.39693(5) 0.29011(12) 0.46976(5)
O3 O 0.24436(12) 0.8290(3) 0.32262(12)
O4 O 0.45343(14) 0.5073(4) 0.23149(12)
H39 H 0.4297 0.5656 0.2202
C28 C 0.44320(16) 0.4331(4) 0.45225(15)
H40 H 0.4310 0.5224 0.4694
H41 H 0.4806 0.4104 0.4659
C29 C 0.44589(16) 0.4575(4) 0.39363(15)
C30 C 0.40825(15) 0.5448(4) 0.36797(16)
H42 H 0.3811 0.5921 0.3880
C31 C 0.40867(16) 0.5661(4) 0.31338(16)
C32 C 0.44911(18) 0.4947(5) 0.28388(19)
C33 C 0.48670(19) 0.4056(5) 0.31009(18)
H43 H 0.5135 0.3557 0.2904
C34 C 0.48581(18) 0.3888(5) 0.36330(18)
H44 H 0.5126 0.3297 0.3801
C35 C 0.36737(16) 0.6553(4) 0.28625(17)
N3 N 0.32571(13) 0.7151(3) 0.31552(13)
H45 H 0.3275 0.7055 0.3499
C36 C 0.28131(18) 0.7889(4) 0.29407(17)
C37 C 0.28439(17) 0.8114(4) 0.23769(16)
C38 C 0.24436(18) 0.8909(4) 0.21013(17)
H46 H 0.2136 0.9276 0.2283
C39 C 0.2491(2) 0.9162(4) 0.15747(18)
H47 H 0.2217 0.9698 0.1391
C40 C 0.2951(2) 0.8619(5) 0.13071(18)
H48 H 0.2987 0.8800 0.0942
C41 C 0.33445(19) 0.7833(4) 0.15679(17)
H49 H 0.3653 0.7474 0.1385
C42 C 0.32903(17) 0.7561(4) 0.21052(17)
N4 N 0.36961(14) 0.6733(3) 0.23548(13)
C43 C 0.32746(19) 0.3305(5) 0.44919(18)
H50 H 0.3283 0.3653 0.4124
H51 H 0.3061 0.2404 0.4491
C44 C 0.2963(2) 0.4409(5) 0.48214(19)
H52 H 0.2877 0.3985 0.5167
H53 H 0.3203 0.5249 0.4884
C45 C 0.2434(2) 0.4895(5) 0.4554(2)
H54 H 0.2213 0.4042 0.4456
H55 H 0.2525 0.5406 0.4226
C46 C 0.2083(2) 0.5876(5) 0.4896(2)
H56 H 0.1753 0.6169 0.4697
H57 H 0.2298 0.6724 0.4995
H58 H 0.1974 0.5362 0.5214
C47 C 0.4178(2) 0.1300(4) 0.4372(2)
H59 H 0.4586 0.1266 0.4371
H60 H 0.4048 0.0470 0.4577
C48 C 0.39642(19) 0.1154(5) 0.3803(2)
H61 H 0.3569 0.0895 0.3808
H62 H 0.3996 0.2090 0.3625
C49 C 0.4273(2) 0.0040(6) 0.3490(3)
H63 H 0.4673 0.0225 0.3524
H64 H 0.4200 -0.0917 0.3641
C50 C 0.4115(3) 0.0036(8) 0.2933(3)
H65 H 0.4286 -0.0782 0.2758
H66 H 0.4239 0.0924 0.2768
H67 H 0.3713 -0.0037 0.2898
C51 C 0.3908(3) 0.2893(9) 0.5404(3)
H68 H 0.3772 0.3837 0.5521
H69 H 0.3633 0.2165 0.5505
C52 C 0.4452(3) 0.2572(8) 0.5680(3)
H70 H 0.4683 0.3445 0.5681
H71 H 0.4648 0.1826 0.5480
C53 C 0.4383(6) 0.2065(15) 0.6247(4)
C54 C 0.3987(6) 0.2985(17) 0.6526(7)
I1 I 0.09721(2) 0.06498(2) 0.21907(2)
I2 I 0.41491(2) 0.78919(3) 0.52876(2)
O5 O 0.16800(13) 0.0401(3) 0.34413(11)
H72 H 0.1464 0.0437 0.3165
H73 H 0.1938 -0.0228 0.3392
O6 O 0.32234(13) 0.7669(3) 0.42263(11)
H74 H 0.3474 0.7827 0.4468
H75 H 0.2998 0.8391 0.4211
C55? C 0.4173(5) 0.2218(12) 0.5349(4)
H76? H 0.3974 0.1314 0.5415
H77? H 0.4572 0.2002 0.5351
C56? C 0.4055(6) 0.3257(13) 0.5791(4)
H78? H 0.3653 0.3304 0.5848
H79? H 0.4183 0.4224 0.5692
C57? C 0.3977(7) 0.3277(19) 0.6755(7)
C58? C 0.3953(10) 0.198(3) 0.6635(9)
C59? C 0.4360(5) 0.2766(13) 0.6320(4)
loop_
_geom_bond_atom_site_label_1
_geom_bond_atom_site_label_2
_geom_bond_site_symmetry_1
_geom_bond_site_symmetry_2
P1 C1 1_555 1_555
O1 H1 1_555 1_555
O2 C9 1_555 1_555
C1 H2 1_555 1_555
H3 C1 1_555 1_555
C2 C1 1_555 1_555
C3 C2 1_555 1_555
H4 C3 1_555 1_555
C4 C3 1_555 1_555
C5 O1 1_555 1_555
C6 C5 1_555 1_555
H5 C6 1_555 1_555
C7 C2 1_555 1_555
H6 C7 1_555 1_555
C8 C4 1_555 1_555
N1 C8 1_555 1_555
H7 N1 1_555 1_555
C9 N1 1_555 1_555
C10 C9 1_555 1_555
C11 C10 1_555 1_555
H8 C11 1_555 1_555
C12 C11 1_555 1_555
H9 C12 1_555 1_555
C13 C12 1_555 1_555
H10 C13 1_555 1_555
C14 C13 1_555 1_555
H11 C14 1_555 1_555
C15 C10 1_555 1_555
N2 C8 1_555 1_555
C16 P1 1_555 1_555
H12 C16 1_555 1_555
H13 C16 1_555 1_555
C17 C16 1_555 1_555
H14 C17 1_555 1_555
H15 C17 1_555 1_555
C18 C17 1_555 1_555
H16 C18 1_555 1_555
H17 C18 1_555 1_555
C19 C18 1_555 1_555
H18 C19 1_555 1_555
H19 C19 1_555 1_555
H20 C19 1_555 1_555
C20 P1 1_555 1_555
H21 C20 1_555 1_555
H22 C20 1_555 1_555
C21 C20 1_555 1_555
H23 C21 1_555 1_555
H24 C21 1_555 1_555
C22 C21 1_555 1_555
H25 C22 1_555 1_555
H26 C22 1_555 1_555
C23 C22 1_555 1_555
H27 C23 1_555 1_555
H28 C23 1_555 1_555
H29 C23 1_555 1_555
C24 P1 1_555 1_555
H30 C24 1_555 1_555
H31 C24 1_555 1_555
C25 C24 1_555 1_555
H32 C25 1_555 1_555
H33 C25 1_555 1_555
C26 C25 1_555 1_555
H34 C26 1_555 1_555
H35 C26 1_555 1_555
C27 C26 1_555 1_555
H36 C27 1_555 1_555
H37 C27 1_555 1_555
H38 C27 1_555 1_555
P2 C28 1_555 1_555
O3 C36 1_555 1_555
O4 H39 1_555 1_555
C28 H40 1_555 1_555
H41 C28 1_555 1_555
C29 C28 1_555 1_555
C30 C29 1_555 1_555
H42 C30 1_555 1_555
C31 C30 1_555 1_555
C32 O4 1_555 1_555
C33 C32 1_555 1_555
H43 C33 1_555 1_555
C34 C29 1_555 1_555
H44 C34 1_555 1_555
C35 C31 1_555 1_555
N3 C35 1_555 1_555
H45 N3 1_555 1_555
C36 N3 1_555 1_555
C37 C36 1_555 1_555
C38 C37 1_555 1_555
H46 C38 1_555 1_555
C39 C38 1_555 1_555
H47 C39 1_555 1_555
C40 C39 1_555 1_555
H48 C40 1_555 1_555
C41 C40 1_555 1_555
H49 C41 1_555 1_555
C42 C37 1_555 1_555
N4 C35 1_555 1_555
C43 P2 1_555 1_555
H50 C43 1_555 1_555
H51 C43 1_555 1_555
C44 C43 1_555 1_555
H52 C44 1_555 1_555
H53 C44 1_555 1_555
C45 C44 1_555 1_555
H54 C45 1_555 1_555
H55 C45 1_555 1_555
C46 C45 1_555 1_555
H56 C46 1_555 1_555
H57 C46 1_555 1_555
H58 C46 1_555 1_555
C47 P2 1_555 1_555
H59 C47 1_555 1_555
H60 C47 1_555 1_555
C48 C47 1_555 1_555
H61 C48 1_555 1_555
H62 C48 1_555 1_555
C49 C48 1_555 1_555
H63 C49 1_555 1_555
H64 C49 1_555 1_555
C50 C49 1_555 1_555
H65 C50 1_555 1_555
H66 C50 1_555 1_555
H67 C50 1_555 1_555
C51 P2 1_555 1_555
H68 C51 1_555 1_555
H69 C51 1_555 1_555
C52 C51 1_555 1_555
H70 C52 1_555 1_555
H71 C52 1_555 1_555
C53 C52 1_555 1_555
C54 C53 1_555 1_555
O5 H72 1_555 1_555
H73 O5 1_555 1_555
O6 H74 1_555 1_555
H75 O6 1_555 1_555
C4 C5 1_555 1_555
C6 C7 1_555 1_555
C14 C15 1_555 1_555
C15 N2 1_555 1_555
C31 C32 1_555 1_555
C33 C34 1_555 1_555
C41 C42 1_555 1_555
C42 N4 1_555 1_555

#END
