
#######################################################################
#
#                 Cambridge Crystallographic Data Centre
#                                CCDC 
#
#######################################################################
#
# If this CIF has been generated from an entry in the Cambridge 
# Structural Database, then it will include bibliographic, chemical, 
# crystal, experimental, refinement or atomic coordinate data resulting 
# from the CCDC's data processing and validation procedures.
#
#######################################################################

data_WARMOU
_chemical_formula_moiety         'C20 H23 N1 O3'
_chemical_name_systematic        
9-((4-methoxyphenyl)amino)-1,2,3,4,9,9a-hexahydro-4aH-xanthen-4a-ol
_symmetry_cell_setting           monoclinic
_symmetry_space_group_name_H-M   'P 21/n'
_symmetry_Int_Tables_number      14
_space_group_name_Hall           '-P 2yn'
loop_
_symmetry_equiv_pos_site_id
_symmetry_equiv_pos_as_xyz
1 x,y,z
2 1/2-x,1/2+y,1/2-z
3 -x,-y,-z
4 1/2+x,1/2-y,1/2+z
_cell_length_a                   11.6820(6)
_cell_length_b                   7.2674(4)
_cell_length_c                   20.0741(10)
_cell_angle_alpha                90
_cell_angle_beta                 103.443(4)
_cell_angle_gamma                90
_cell_volume                     1657.55
_exptl_crystal_colour            colorless
_exptl_crystal_description       prism
_cell_formula_units_Z            4
_exptl_crystal_recrystallization_method chloroform/cyclohexane
loop_
_atom_site_label
_atom_site_type_symbol
_atom_site_fract_x
_atom_site_fract_y
_atom_site_fract_z
O1 O 0.84027(17) 0.9067(3) 0.64689(10)
H1 H 0.997(2) 0.738(5) 0.6041(13)
O2 O 0.94019(17) 0.7733(3) 0.57141(11)
O3 O 0.63382(17) 0.8218(3) 0.17810(10)
N1 N 0.6066(2) 0.8504(4) 0.45109(13)
H2 H 0.556(2) 0.933(4) 0.4597(16)
C1 C 0.7387(2) 0.8035(4) 0.63786(15)
C2 C 0.7110(3) 0.7353(4) 0.69691(15)
H3 H 0.7612 0.7599 0.7405
C3 C 0.6101(3) 0.6316(5) 0.69216(16)
H4 H 0.5915 0.5838 0.7324
C4 C 0.5362(3) 0.5975(5) 0.62858(16)
H5 H 0.4667 0.5268 0.6252
C5 C 0.5639(2) 0.6666(4) 0.57026(15)
H6 H 0.5123 0.6435 0.5270
C6 C 0.6657(2) 0.7694(4) 0.57317(14)
C7 C 0.7057(2) 0.8239(4) 0.50870(15)
H7 H 0.7513 0.7172 0.4969
C8 C 0.7919(2) 0.9860(4) 0.52470(15)
H8 H 0.8287 1.0017 0.4848
C9 C 0.7355(3) 1.1678(5) 0.53602(16)
H9 H 0.6946 1.1541 0.5737
H10 H 0.6761 1.2014 0.4940
C10 C 0.8275(3) 1.3226(4) 0.55383(17)
H11 H 0.8643 1.3433 0.5147
H12 H 0.7884 1.4382 0.5624
C11 C 0.9227(3) 1.2714(5) 0.61772(17)
H13 H 0.9838 1.3685 0.6269
H14 H 0.8871 1.2634 0.6578
C12 C 0.9790(3) 1.0889(5) 0.60776(16)
H15 H 1.0351 1.0545 0.6510
H16 H 1.0242 1.1032 0.5720
C13 C 0.8898(2) 0.9340(4) 0.58699(14)
C14 C 0.6197(3) 0.8421(4) 0.38336(15)
C15 C 0.5299(3) 0.9076(4) 0.33134(16)
H17 H 0.4625 0.9614 0.3424
C16 C 0.5360(2) 0.8967(4) 0.26430(15)
H18 H 0.4733 0.9425 0.2293
C17 C 0.6343(2) 0.8185(4) 0.24734(14)
C18 C 0.7245(2) 0.7480(4) 0.29735(14)
H19 H 0.7907 0.6922 0.2856
C19 C 0.7171(3) 0.7597(4) 0.36572(15)
H20 H 0.7789 0.7111 0.4007
C20 C 0.7392(3) 0.7656(5) 0.15958(15)
H21 H 0.8059 0.8359 0.1862
H22 H 0.7318 0.7883 0.1106
H23 H 0.7523 0.6341 0.1691
loop_
_geom_bond_atom_site_label_1
_geom_bond_atom_site_label_2
_geom_bond_site_symmetry_1
_geom_bond_site_symmetry_2
O1 C1 1_555 1_555
H1 O2 1_555 1_555
O2 C13 1_555 1_555
O3 C17 1_555 1_555
N1 H2 1_555 1_555
C1 C2 1_555 1_555
C2 H3 1_555 1_555
C3 C2 1_555 1_555
H4 C3 1_555 1_555
C4 C3 1_555 1_555
H5 C4 1_555 1_555
C5 C4 1_555 1_555
H6 C5 1_555 1_555
C6 C1 1_555 1_555
C7 N1 1_555 1_555
H7 C7 1_555 1_555
C8 C7 1_555 1_555
H8 C8 1_555 1_555
C9 C8 1_555 1_555
H9 C9 1_555 1_555
H10 C9 1_555 1_555
C10 C9 1_555 1_555
H11 C10 1_555 1_555
H12 C10 1_555 1_555
C11 C10 1_555 1_555
H13 C11 1_555 1_555
H14 C11 1_555 1_555
C12 C11 1_555 1_555
H15 C12 1_555 1_555
H16 C12 1_555 1_555
C13 O1 1_555 1_555
C14 N1 1_555 1_555
C15 C14 1_555 1_555
H17 C15 1_555 1_555
C16 C15 1_555 1_555
H18 C16 1_555 1_555
C17 C16 1_555 1_555
C18 C17 1_555 1_555
H19 C18 1_555 1_555
C19 C14 1_555 1_555
H20 C19 1_555 1_555
C20 O3 1_555 1_555
H21 C20 1_555 1_555
H22 C20 1_555 1_555
H23 C20 1_555 1_555
C5 C6 1_555 1_555
C6 C7 1_555 1_555
C8 C13 1_555 1_555
C12 C13 1_555 1_555
C18 C19 1_555 1_555

#END
