
#######################################################################
#
#                 Cambridge Crystallographic Data Centre
#                                CCDC 
#
#######################################################################
#
# If this CIF has been generated from an entry in the Cambridge 
# Structural Database, then it will include bibliographic, chemical, 
# crystal, experimental, refinement or atomic coordinate data resulting 
# from the CCDC's data processing and validation procedures.
#
#######################################################################

data_WARTOB
_chemical_formula_moiety         'C21 H25 N1 O2 S1'
_chemical_name_systematic        
1-((4-methylphenyl)sulfonyl)-2-phenyloctahydro-1H-indole
_symmetry_cell_setting           orthorhombic
_symmetry_space_group_name_H-M   'P 21 21 21'
_symmetry_Int_Tables_number      19
_space_group_name_Hall           'P 2ac 2ab'
loop_
_symmetry_equiv_pos_site_id
_symmetry_equiv_pos_as_xyz
1 x,y,z
2 1/2-x,-y,1/2+z
3 -x,1/2+y,1/2-z
4 1/2+x,1/2-y,-z
_cell_length_a                   11.8441(4)
_cell_length_b                   11.9103(5)
_cell_length_c                   13.4579(5)
_cell_angle_alpha                90
_cell_angle_beta                 90
_cell_angle_gamma                90
_cell_volume                     1898.46
_exptl_crystal_colour            colorless
_exptl_crystal_description       Block
_cell_formula_units_Z            4
loop_
_atom_site_label
_atom_site_type_symbol
_atom_site_fract_x
_atom_site_fract_y
_atom_site_fract_z
S1 S 0.98155(6) 1.38768(8) 1.10496(6)
N1 N 1.01840(18) 1.3532(2) 1.21631(16)
O1 O 0.86815(15) 1.4285(2) 1.10955(17)
O2 O 1.06971(17) 1.4576(2) 1.06630(15)
C1 C 0.7347(3) 1.2841(3) 1.3015(3)
H1 H 0.7313 1.2140 1.2712
C2 C 0.6362(3) 1.3348(4) 1.3352(3)
H2 H 0.5673 1.2983 1.3275
C3 C 0.6398(3) 1.4369(4) 1.3791(3)
H3 H 0.5737 1.4706 1.4014
C4 C 0.7415(3) 1.4902(3) 1.3905(3)
H4 H 0.7444 1.5605 1.4206
C5 C 0.8392(3) 1.4400(3) 1.3577(2)
H5 H 0.9077 1.4768 1.3663
C6 C 0.8376(2) 1.3371(3) 1.3127(2)
C7 C 0.9431(2) 1.2795(3) 1.2776(2)
H6 H 0.9215 1.2143 1.2375
C8 C 1.0238(2) 1.2403(3) 1.3594(2)
H7 H 1.0306 1.2962 1.4114
H8 H 0.9988 1.1700 1.3884
C9 C 1.1397(2) 1.3309(3) 1.2390(2)
H9 H 1.1808 1.3148 1.1775
C10 C 1.1347(2) 1.2257(3) 1.3036(2)
H10 H 1.1259 1.1612 1.2590
C11 C 0.9782(2) 1.2646(3) 1.0337(2)
C12 C 1.0731(3) 1.2285(4) 0.9836(2)
H11 H 1.1389 1.2709 0.9856
C13 C 1.0704(3) 1.1297(4) 0.9308(3)
H12 H 1.1353 1.1057 0.8983
C14 C 0.9740(3) 1.0655(3) 0.9248(2)
C15 C 0.8792(3) 1.1037(4) 0.9747(2)
H13 H 0.8127 1.0623 0.9714
C16 C 0.8813(2) 1.2007(4) 1.0288(2)
H14 H 0.8168 1.2238 1.0625
C17 C 0.9729(3) 0.9572(3) 0.8688(3)
H15 H 1.0454 0.9451 0.8389
H16 H 0.9161 0.9602 0.8180
H17 H 0.9564 0.8967 0.9137
C18 C 1.2416(3) 1.2060(4) 1.3649(3)
H18 H 1.2258 1.1499 1.4152
H19 H 1.3000 1.1763 1.3218
C19 C 1.2852(3) 1.3095(4) 1.4145(3)
H20 H 1.3562 1.2928 1.4472
H21 H 1.2318 1.3338 1.4648
C20 C 1.1904(2) 1.4315(3) 1.2899(3)
H22 H 1.1381 1.4593 1.3396
H23 H 1.2022 1.4906 1.2414
C21 C 1.3026(3) 1.4031(4) 1.3395(3)
H24 H 1.3569 1.3796 1.2897
H25 H 1.3322 1.4691 1.3728
loop_
_geom_bond_atom_site_label_1
_geom_bond_atom_site_label_2
_geom_bond_site_symmetry_1
_geom_bond_site_symmetry_2
S1 N1 1_555 1_555
N1 C7 1_555 1_555
O1 S1 1_555 1_555
O2 S1 1_555 1_555
C1 H1 1_555 1_555
C2 C1 1_555 1_555
H2 C2 1_555 1_555
C3 C2 1_555 1_555
H3 C3 1_555 1_555
C4 C3 1_555 1_555
H4 C4 1_555 1_555
C5 C4 1_555 1_555
H5 C5 1_555 1_555
C6 C1 1_555 1_555
C7 C6 1_555 1_555
H6 C7 1_555 1_555
C8 C7 1_555 1_555
H7 C8 1_555 1_555
H8 C8 1_555 1_555
C9 N1 1_555 1_555
H9 C9 1_555 1_555
C10 C8 1_555 1_555
H10 C10 1_555 1_555
C11 S1 1_555 1_555
C12 C11 1_555 1_555
H11 C12 1_555 1_555
C13 C12 1_555 1_555
H12 C13 1_555 1_555
C14 C13 1_555 1_555
C15 C14 1_555 1_555
H13 C15 1_555 1_555
C16 C11 1_555 1_555
H14 C16 1_555 1_555
C17 C14 1_555 1_555
H15 C17 1_555 1_555
H16 C17 1_555 1_555
H17 C17 1_555 1_555
C18 C10 1_555 1_555
H18 C18 1_555 1_555
H19 C18 1_555 1_555
C19 C18 1_555 1_555
H20 C19 1_555 1_555
H21 C19 1_555 1_555
C20 C9 1_555 1_555
H22 C20 1_555 1_555
H23 C20 1_555 1_555
C21 C19 1_555 1_555
H24 C21 1_555 1_555
H25 C21 1_555 1_555
C5 C6 1_555 1_555
C9 C10 1_555 1_555
C15 C16 1_555 1_555
C20 C21 1_555 1_555

#END
