
#######################################################################
#
#                 Cambridge Crystallographic Data Centre
#                                CCDC 
#
#######################################################################
#
# If this CIF has been generated from an entry in the Cambridge 
# Structural Database, then it will include bibliographic, chemical, 
# crystal, experimental, refinement or atomic coordinate data resulting 
# from the CCDC's data processing and validation procedures.
#
#######################################################################

data_WARXOC
_chemical_formula_moiety         'C6 H10 N2 O5'
_chemical_name_systematic        N-(Carboxymethyl)-N'-(2-carbamoxyethyl)urea
_symmetry_cell_setting           orthorhombic
_symmetry_space_group_name_H-M   'P 21 21 21'
_symmetry_Int_Tables_number      19
_space_group_name_Hall           'P 2ac 2ab'
loop_
_symmetry_equiv_pos_site_id
_symmetry_equiv_pos_as_xyz
1 x,y,z
2 1/2+x,1/2-y,-z
3 -x,1/2+y,1/2-z
4 1/2-x,-y,1/2+z
_cell_length_a                   4.719(1)
_cell_length_b                   8.075(1)
_cell_length_c                   21.193(4)
_cell_angle_alpha                90
_cell_angle_beta                 90
_cell_angle_gamma                90
_cell_volume                     807.579
_exptl_crystal_colour            colorless
_chemical_melting_point          173-175deg.C
_cell_formula_units_Z            4
loop_
_atom_site_label
_atom_site_type_symbol
_atom_site_fract_x
_atom_site_fract_y
_atom_site_fract_z
O1 O 0.686(1) 0.4554(7) 0.3780(3)
O2 O 0.875(1) 0.2654(8) 0.1634(3)
O3 O 0.929(1) 0.0101(7) 0.2036(2)
O4 O 0.315(1) 0.6839(6) 0.5588(2)
O5 O 0.622(1) 0.4780(7) 0.5494(2)
N1 N 0.348(1) 0.3562(8) 0.4443(3)
N2 N 0.560(2) 0.1815(8) 0.3729(3)
C1 C 0.545(2) 0.337(1) 0.3974(3)
C2 C 0.748(2) 0.146(1) 0.3211(4)
C3 C 0.820(2) 0.161(1) 0.2033(3)
C4 C 0.279(2) 0.513(1) 0.4698(4)
C5 C 0.423(2) 0.5557(9) 0.5294(3)
C6 C 0.622(2) 0.1906(9) 0.2563(3)
H1 H 0.4527 0.0935 0.3891
H2 H 0.2537 0.2606 0.4622
H3 H 0.3272 0.5933 0.4386
H4 H 0.5681 0.3023 0.2567
H5 H 0.4568 0.1222 0.2508
H6 H 0.0817 0.5168 0.4776
H7 H 0.7956 0.0326 0.3221
H8 H 0.9165 0.2109 0.3269
H9 H 1.0021 0.2401 0.1294
H10 H 0.7130 0.5114 0.5876
loop_
_geom_bond_atom_site_label_1
_geom_bond_atom_site_label_2
_geom_bond_site_symmetry_1
_geom_bond_site_symmetry_2
O1 C1 1_555 1_555
O2 C3 1_555 1_555
O3 C3 1_555 1_555
O4 C5 1_555 1_555
O5 C5 1_555 1_555
N1 C1 1_555 1_555
N2 C1 1_555 1_555
C2 N2 1_555 1_555
C3 C6 1_555 1_555
C4 N1 1_555 1_555
C5 C4 1_555 1_555
C6 C2 1_555 1_555
H1 N2 1_555 1_555
H2 N1 1_555 1_555
H3 C4 1_555 1_555
H4 C6 1_555 1_555
H5 C6 1_555 1_555
H6 C4 1_555 1_555
H7 C2 1_555 1_555
H8 C2 1_555 1_555
H9 O2 1_555 1_555
H10 O5 1_555 1_555

#END
