
#######################################################################
#
#                 Cambridge Crystallographic Data Centre
#                                CCDC 
#
#######################################################################
#
# If this CIF has been generated from an entry in the Cambridge 
# Structural Database, then it will include bibliographic, chemical, 
# crystal, experimental, refinement or atomic coordinate data resulting 
# from the CCDC's data processing and validation procedures.
#
#######################################################################

data_WASBAU
_chemical_formula_moiety         'C12 H10 F4 N3 1+,B1 F4 1-'
_chemical_name_systematic        
'4-Dimethylamino-1-(2,3,5,6-tetrafluoropyridin-4-yl)pyridinium tetrafluoroborate'
_symmetry_cell_setting           monoclinic
_symmetry_space_group_name_H-M   'C 2/c'
_symmetry_Int_Tables_number      15
_space_group_name_Hall           '-C 2yn'
loop_
_symmetry_equiv_pos_site_id
_symmetry_equiv_pos_as_xyz
1 x,y,z
2 1/2+x,1/2+y,z
3 -x,y,1/2-z
4 1/2-x,1/2+y,1/2-z
5 -x,-y,-z
6 1/2-x,1/2-y,-z
7 x,-y,1/2+z
8 1/2+x,1/2-y,1/2+z
_cell_length_a                   7.9938(8)
_cell_length_b                   22.540(2)
_cell_length_c                   7.8484(8)
_cell_angle_alpha                90
_cell_angle_beta                 103.459(4)
_cell_angle_gamma                90
_cell_volume                     1375.29
_exptl_crystal_colour            colorless
_exptl_crystal_description       prism
_chemical_melting_point          'above 250deg.C'
_cell_formula_units_Z            4
_exptl_crystal_recrystallization_method acetonitrile
loop_
_atom_site_label
_atom_site_type_symbol
_atom_site_fract_x
_atom_site_fract_y
_atom_site_fract_z
F1 F 0.46162(13) 0.42809(4) 0.02580(14)
F2 F 0.45422(12) 0.30816(4) 0.03673(12)
N1 N 0.5000 0.42740(8) -0.2500
N2 N 0.5000 0.24086(7) -0.2500
N3 N 0.5000 0.05809(7) -0.2500
C1 C 0.47940(18) 0.39721(7) -0.1141(2)
C2 C 0.47712(18) 0.33594(6) -0.10643(19)
C3 C 0.5000 0.30430(8) -0.2500
C4 C 0.35393(18) 0.21068(6) -0.23998(18)
C5 C 0.35087(18) 0.15057(6) -0.23966(19)
C6 C 0.5000 0.11726(8) -0.2500
C7 C 0.3514(2) 0.02429(6) -0.2236(2)
H1 H 0.259(3) 0.2341(9) -0.234(3)
H2 H 0.251(2) 0.1319(9) -0.229(3)
H3 H 0.384(3) -0.0174(11) -0.199(3)
H4 H 0.312(2) 0.0391(9) -0.123(3)
H5 H 0.260(3) 0.0245(10) -0.326(3)
F1B F 0.53838(13) 0.42809(4) -0.52580(14)
F2B F 0.54578(12) 0.30816(4) -0.53673(12)
C1B C 0.52060(18) 0.39721(7) -0.3859(2)
C2B C 0.52288(18) 0.33594(6) -0.39357(19)
C4B C 0.64607(18) 0.21068(6) -0.26002(18)
C5B C 0.64913(18) 0.15057(6) -0.26034(19)
C7B C 0.6486(2) 0.02429(6) -0.2764(2)
H1B H 0.741(3) 0.2341(9) -0.266(3)
H2B H 0.749(2) 0.1319(9) -0.271(3)
H3B H 0.616(3) -0.0174(11) -0.301(3)
H4B H 0.688(2) 0.0391(9) -0.377(3)
H5B H 0.740(3) 0.0245(10) -0.174(3)
F3 F 0.38807(12) 0.11163(4) 0.13095(12)
F4 F 0.59469(17) 0.18248(6) 0.16179(17)
B1 B 0.5000 0.14725(10) 0.2500
F3B F 0.61193(12) 0.11163(4) 0.36905(12)
F4B F 0.40531(17) 0.18248(6) 0.33821(17)
loop_
_geom_bond_atom_site_label_1
_geom_bond_atom_site_label_2
_geom_bond_site_symmetry_1
_geom_bond_site_symmetry_2
F1 C1 1_555 1_555
F2 C2 1_555 1_555
F3 B1 1_555 1_555
F4 B1 1_555 1_555
N1 C1 1_555 1_555
N2 C3 1_555 1_555
N3 C6 1_555 1_555
B1 F3B 1_555 1_555
C1 C2 1_555 1_555
C2 C3 1_555 1_555
C3 C2B 1_555 1_555
C4 N2 1_555 1_555
C5 C4 1_555 1_555
C6 C5 1_555 1_555
C7 N3 1_555 1_555
H1 C4 1_555 1_555
H2 C5 1_555 1_555
H3 C7 1_555 1_555
H4 C7 1_555 1_555
H5 C7 1_555 1_555
F1B C1B 1_555 1_555
F2B C2B 1_555 1_555
F4B B1 1_555 1_555
C1B N1 1_555 1_555
C2B C1B 1_555 1_555
C4B N2 1_555 1_555
C5B C6 1_555 1_555
C7B N3 1_555 1_555
H1B C4B 1_555 1_555
H2B C5B 1_555 1_555
H3B C7B 1_555 1_555
H4B C7B 1_555 1_555
H5B C7B 1_555 1_555
C4B C5B 1_555 1_555

#END
