
#######################################################################
#
#                 Cambridge Crystallographic Data Centre
#                                CCDC 
#
#######################################################################
#
# If this CIF has been generated from an entry in the Cambridge 
# Structural Database, then it will include bibliographic, chemical, 
# crystal, experimental, refinement or atomic coordinate data resulting 
# from the CCDC's data processing and validation procedures.
#
#######################################################################

data_WASCOJ
_chemical_formula_moiety         'C62 H68 N4 O6,C52 H46 N4 O5,6(C1 H4 O1)'
_chemical_name_systematic        
"(2)-(11',29'-Dimethoxy-5',17',23',35',38',40',43',45'-octamethyl-7',15',25',33'-tetra-azadipsiro(cyclohexane-1,2'-heptacyclo(32.2.2.2^3,6^.2^16,19^.2^21,24^.1^9,13^.1^27,31^)-hexatetracontane-20',1''-cyclohexane)-1'(36'),3',5',9'(44'),10',12',16',18',21',23',27'(39'),28',30',34',37',40',42',4 5'-octadecaene-8',14',26',32'-tetraone)-(2-hydroxy-N,N'-bis(2-((triphenylacetyl)amino)ethyl)isophthalamide)-rotaxane methanol solvate"
_symmetry_cell_setting           triclinic
_symmetry_space_group_name_H-M   'P -1'
_symmetry_Int_Tables_number      2
_space_group_name_Hall           '-P 1'
loop_
_symmetry_equiv_pos_site_id
_symmetry_equiv_pos_as_xyz
1 x,y,z
2 -x,-y,-z
_cell_length_a                   14.9686(5)
_cell_length_b                   17.0315(8)
_cell_length_c                   24.6488(11)
_cell_angle_alpha                102.373(5)
_cell_angle_beta                 91.482(5)
_cell_angle_gamma                107.245(5)
_cell_volume                     5835.06
_exptl_crystal_colour            colorless
_exptl_crystal_description       parallelepiped
_cell_formula_units_Z            2
_exptl_crystal_recrystallization_method dichloromethane/methanol(1:1)
loop_
_atom_site_label
_atom_site_type_symbol
_atom_site_fract_x
_atom_site_fract_y
_atom_site_fract_z
O1 O 0.1150(3) -0.0190(2) 0.28439(14)
O2 O 0.3740(3) -0.2223(2) 0.26255(15)
O3 O 0.4209(3) -0.0770(3) 0.14374(16)
H1 H 0.4406 -0.0503 0.1193
O4 O 0.5006(3) -0.0424(3) 0.06162(16)
O5 O 0.5110(4) -0.2599(4) -0.1360(3)
N1 N 0.1428(4) -0.1223(3) 0.31879(18)
H2 H 0.1355 -0.1490 0.3460
N2 N 0.3516(4) -0.1092(3) 0.23727(18)
H3 H 0.3607 -0.0774 0.2128
N3 N 0.6060(4) -0.1043(4) 0.02504(19)
H4 H 0.6317 -0.1446 0.0246
N4 N 0.5108(4) -0.1321(3) -0.08935(19)
H5 H 0.4760 -0.0992 -0.0781
C1 C 0.1035(4) -0.0605(3) 0.3205(2)
C2 C 0.0441(4) -0.0461(4) 0.3702(2)
C3 C 0.1158(5) -0.0197(5) 0.4216(3)
C4 C 0.0975(4) -0.0664(5) 0.4621(3)
H11 H 0.0397 -0.1105 0.4590
C5 C 0.1636(5) -0.0487(5) 0.5073(3)
H12 H 0.1510 -0.0806 0.5350
C6 C 0.2480(5) 0.0157(5) 0.5119(3)
H13 H 0.2932 0.0278 0.5428
C7 C 0.2664(4) 0.0625(5) 0.4714(3)
H14 H 0.3241 0.1065 0.4746
C8 C 0.2003(5) 0.0447(5) 0.4262(3)
H15 H 0.2128 0.0767 0.3985
C15 C 0.0111(3) 0.0322(2) 0.36928(18)
C16 C -0.0487(3) 0.0276(3) 0.32386(17)
H21 H -0.0709 -0.0232 0.2956
C17 C -0.0762(4) 0.0975(4) 0.3197(2)
H22 H -0.1171 0.0943 0.2887
C18 C -0.0438(5) 0.1718(3) 0.3610(3)
H23 H -0.0625 0.2195 0.3582
C19 C 0.0161(4) 0.1763(3) 0.4064(3)
H24 H 0.0382 0.2272 0.4346
C20 C 0.0435(4) 0.1065(3) 0.41056(19)
H25 H 0.0844 0.1096 0.4416
C21 C -0.0482(2) -0.1222(2) 0.36361(15)
C22 C -0.0709(3) -0.1918(3) 0.31855(15)
H26 H -0.0287 -0.1954 0.2907
C23 C -0.1553(3) -0.2562(2) 0.31430(18)
H27 H -0.1708 -0.3038 0.2835
C24 C -0.2171(3) -0.2510(3) 0.3551(2)
H28 H -0.2747 -0.2949 0.3522
C25 C -0.1944(3) -0.1813(3) 0.40016(19)
H29 H -0.2366 -0.1777 0.4280
C26 C -0.1100(3) -0.1170(3) 0.40441(14)
H30 H -0.0945 -0.0694 0.4352
C27 C 0.1966(4) -0.1468(3) 0.2740(2)
H31 H 0.1679 -0.1433 0.2383
H32 H 0.1949 -0.2061 0.2710
C28 C 0.2986(4) -0.0895(4) 0.2843(2)
H33 H 0.3000 -0.0298 0.2904
H34 H 0.3287 -0.0965 0.3184
C29 C 0.3870(4) -0.1738(4) 0.2299(2)
C30 C 0.4454(3) -0.1866(2) 0.18166(12)
C31 C 0.4630(3) -0.1376(2) 0.14239(14)
C32 C 0.5198(3) -0.1536(2) 0.10039(13)
C33 C 0.5591(3) -0.2186(3) 0.09765(14)
H35 H 0.5980 -0.2295 0.0689
C34 C 0.5416(3) -0.2676(2) 0.13692(16)
H36 H 0.5684 -0.3120 0.1350
C35 C 0.4847(3) -0.2516(2) 0.17892(14)
H37 H 0.4727 -0.2851 0.2058
C36 C 0.5424(4) -0.0966(4) 0.0605(2)
C37 C 0.6356(5) -0.0488(4) -0.0136(2)
H38 H 0.7042 -0.0205 -0.0065
H39 H 0.6040 -0.0046 -0.0067
C38 C 0.6118(4) -0.0979(4) -0.0741(2)
H40 H 0.6402 -0.0600 -0.0987
H41 H 0.6394 -0.1448 -0.0802
C39 C 0.4677(5) -0.2106(4) -0.1195(2)
C40 C 0.3596(4) -0.2344(4) -0.1321(2)
C41 C 0.3106(3) -0.2566(3) -0.08015(13)
C42 C 0.2130(3) -0.2801(3) -0.08371(15)
H42 H 0.1785 -0.2823 -0.1172
C43 C 0.1659(2) -0.3006(3) -0.03830(19)
H43 H 0.0993 -0.3167 -0.0407
C44 C 0.2164(3) -0.2974(3) 0.01066(15)
H44 H 0.1843 -0.3114 0.0417
C45 C 0.3140(3) -0.2738(3) 0.01423(13)
H45 H 0.3485 -0.2717 0.0477
C46 C 0.3611(2) -0.2534(3) -0.03118(16)
H46 H 0.4277 -0.2373 -0.0287
C47 C 0.3415(3) -0.1566(2) -0.14895(14)
C48 C 0.3843(3) -0.1325(2) -0.19473(14)
H47 H 0.4213 -0.1636 -0.2145
C49 C 0.3730(3) -0.0629(3) -0.21153(14)
H48 H 0.4022 -0.0464 -0.2428
C50 C 0.3189(3) -0.0173(2) -0.18254(16)
H49 H 0.3111 0.0302 -0.1940
C51 C 0.2761(3) -0.0414(2) -0.13676(16)
H50 H 0.2391 -0.0103 -0.1170
C52 C 0.2874(3) -0.1111(2) -0.11996(13)
H51 H 0.2582 -0.1275 -0.0887
C53 C 0.3203(4) -0.3157(2) -0.18030(18)
C54 C 0.3393(4) -0.3889(3) -0.1749(2)
H52 H 0.3779 -0.3881 -0.1435
C55 C 0.3016(5) -0.4634(3) -0.2155(3)
H53 H 0.3145 -0.5135 -0.2119
C56 C 0.2450(5) -0.4646(3) -0.2615(3)
H54 H 0.2192 -0.5156 -0.2893
C57 C 0.2261(5) -0.3914(4) -0.2669(2)
H55 H 0.1874 -0.3922 -0.2983
C58 C 0.2637(4) -0.3169(3) -0.2263(2)
H56 H 0.2508 -0.2668 -0.2299
O6 O 0.5727(3) -0.1842(3) 0.44456(16)
O7 O 0.5216(10) -0.5026(8) 0.3778(5)
O8 O 0.1974(7) -0.5159(6) 0.2803(4)
O11 O -0.0781(3) -0.0127(2) 0.11069(16)
O12 O -0.0413(4) 0.2973(2) 0.1843(3)
O13 O 0.2717(3) 0.3163(2) 0.2928(2)
N5 N 0.2321(3) 0.1874(3) 0.3125(2)
H6 H 0.1846 0.1433 0.3148
N6 N 0.5141(3) -0.1689(3) 0.36265(17)
H7 H 0.4902 -0.1965 0.3285
N7 N 0.2488(8) -0.3939(6) 0.2528(4)
H8 H 0.2972 -0.3509 0.2502
N9 N -0.0115(4) -0.0412(2) 0.18476(19)
H10 H 0.0147 -0.0199 0.2192
C59 C 0.3234(2) 0.1941(2) 0.33606(14)
C60 C 0.3518(2) 0.2286(2) 0.39250(13)
C61 C 0.4389(2) 0.2301(2) 0.41453(10)
H57 H 0.4583 0.2536 0.4531
C62 C 0.49758(19) 0.1972(2) 0.38011(12)
C63 C 0.4692(2) 0.1628(2) 0.32366(11)
H58 H 0.5093 0.1404 0.3001
C64 C 0.3821(2) 0.1613(2) 0.30164(9)
C65 C 0.2902(6) 0.2664(6) 0.4310(3)
H59 H 0.3222 0.2879 0.4689
H60 H 0.2304 0.2228 0.4314
H61 H 0.2781 0.3129 0.4177
C66 C 0.3508(5) 0.1236(4) 0.2401(2)
H62 H 0.2883 0.1278 0.2317
H63 H 0.3484 0.0641 0.2310
H64 H 0.3955 0.1547 0.2179
C67 C 0.5932(4) 0.1922(3) 0.4031(2)
C68 C 0.6183(5) 0.2368(4) 0.4659(2)
H65 H 0.6077 0.2925 0.4717
H66 H 0.5741 0.2029 0.4876
C69 C 0.7139(7) 0.2499(6) 0.4888(4)
H67 H 0.7229 0.1943 0.4875
H68 H 0.7224 0.2808 0.5284
C70 C 0.7861(9) 0.2980(7) 0.4582(4)
H69 H 0.8492 0.2996 0.4725
H70 H 0.7843 0.3569 0.4645
C71 C 0.7690(8) 0.2570(6) 0.3954(4)
H71 H 0.8120 0.2951 0.3756
H72 H 0.7851 0.2036 0.3889
C72 C 0.6727(4) 0.2387(4) 0.3714(3)
H73 H 0.6662 0.2041 0.3329
H74 H 0.6629 0.2928 0.3688
C78 C 0.5806(2) 0.09582(14) 0.39428(13)
C79 C 0.6336(2) 0.05521(19) 0.36001(13)
H85 H 0.6836 0.0870 0.3430
C80 C 0.6136(2) -0.03194(19) 0.35069(12)
C81 C 0.5405(2) -0.07847(14) 0.37562(13)
C82 C 0.4875(2) -0.03786(19) 0.40989(13)
C83 C 0.5075(2) 0.0493(2) 0.41922(13)
H86 H 0.4713 0.0770 0.4426
C84 C 0.6702(5) -0.0776(4) 0.3131(3)
H87 H 0.7194 -0.0364 0.2992
H88 H 0.6286 -0.1181 0.2815
H89 H 0.6992 -0.1077 0.3343
C85 C 0.4031(4) -0.0883(4) 0.4354(3)
H90 H 0.3751 -0.0493 0.4586
H91 H 0.4241 -0.1210 0.4584
H92 H 0.3562 -0.1268 0.4054
C86 C 0.5239(4) -0.2148(4) 0.4001(2)
C87 C 0.4771(6) -0.3053(3) 0.3766(4)
C88 C 0.3932(6) -0.3317(4) 0.3425(4)
H93 H 0.3656 -0.2912 0.3348
C89 C 0.3497(5) -0.4173(4) 0.3197(3)
C90 C 0.3901(6) -0.4765(3) 0.3309(4)
H94 H 0.3604 -0.5350 0.3153
C91 C 0.4740(6) -0.4502(4) 0.3649(4)
C92 C 0.5175(5) -0.3646(5) 0.3878(4)
H95 H 0.5748 -0.3466 0.4110
C93 C 0.4966(15) -0.5944(12) 0.3298(8)
H96 H 0.5362 -0.6272 0.3390
H97 H 0.5086 -0.5828 0.2929
H98 H 0.4303 -0.6266 0.3294
C94 C 0.2595(9) -0.4459(7) 0.2823(5)
C103 C 0.1572(3) -0.4062(2) 0.22401(18)
C104 C 0.1680(3) -0.4190(2) 0.1673(2)
C105 C 0.0963(3) -0.4200(2) 0.12992(14)
H105 H 0.1036 -0.4288 0.0911
C106 C 0.0137(3) -0.4082(2) 0.14932(16)
C107 C 0.0029(3) -0.3954(2) 0.20607(17)
H106 H -0.0535 -0.3874 0.2193
C108 C 0.0747(3) -0.3944(3) 0.24342(14)
C109 C 0.2581(7) -0.4321(6) 0.1453(4)
H107 H 0.2527 -0.4416 0.1045
H108 H 0.2680 -0.4813 0.1559
H109 H 0.3114 -0.3818 0.1613
C110 C 0.0624(8) -0.3796(6) 0.3060(4)
H110 H -0.0002 -0.3743 0.3121
H111 H 0.1103 -0.3275 0.3260
H112 H 0.0692 -0.4274 0.3199
C111 C -0.0635(5) -0.3971(3) 0.1094(3)
C112 C -0.1605(5) -0.4572(3) 0.1166(3)
H113 H -0.1773 -0.4385 0.1547
H114 H -0.1558 -0.5149 0.1127
C113 C -0.2403(5) -0.4603(4) 0.0734(4)
H115 H -0.2979 -0.5056 0.0767
H116 H -0.2544 -0.4060 0.0826
C114 C -0.2159(6) -0.4762(4) 0.0136(4)
H117 H -0.2135 -0.5348 0.0016
H118 H -0.2652 -0.4697 -0.0110
C115 C -0.1237(6) -0.4160(4) 0.0083(3)
H119 H -0.1282 -0.3579 0.0169
H120 H -0.1080 -0.4290 -0.0307
C116 C -0.0447(5) -0.4201(4) 0.0476(3)
H121 H 0.0157 -0.3804 0.0417
H122 H -0.0391 -0.4778 0.0385
C117 C -0.0558(2) -0.30177(12) 0.12735(14)
C118 C 0.0280(2) -0.24351(18) 0.12047(14)
H123 H 0.0765 -0.2625 0.1037
C119 C 0.0407(2) -0.15742(16) 0.13817(14)
C120 C -0.0303(2) -0.12959(13) 0.16275(14)
C121 C -0.1141(2) -0.18785(18) 0.16964(14)
C122 C -0.1269(2) -0.27393(16) 0.15194(15)
H124 H -0.1842 -0.3137 0.1566
C123 C 0.1334(5) -0.0946(4) 0.1316(3)
H125 H 0.1750 -0.1251 0.1138
H126 H 0.1630 -0.0602 0.1684
H127 H 0.1220 -0.0578 0.1084
C124 C -0.1947(5) -0.1595(4) 0.1948(3)
H128 H -0.2476 -0.2093 0.1959
H129 H -0.2145 -0.1261 0.1718
H130 H -0.1736 -0.1250 0.2327
C125 C -0.0312(4) 0.0121(3) 0.1562(2)
C126 C 0.0099(2) 0.10377(13) 0.18479(15)
C127 C -0.0322(2) 0.16155(18) 0.17303(16)
H131 H -0.0866 0.1428 0.1472
C128 C 0.0052(3) 0.24676(16) 0.19908(19)
C129 C 0.0848(3) 0.27418(13) 0.23688(17)
H132 H 0.1104 0.3324 0.2547
C130 C 0.1270(2) 0.21640(18) 0.24864(15)
C131 C 0.0895(2) 0.13119(16) 0.22260(16)
H133 H 0.1184 0.0917 0.2306
C132 C -0.0007(7) 0.3866(4) 0.2058(5)
H134 H -0.0404 0.4161 0.1921
H135 H 0.0622 0.4053 0.1933
H136 H 0.0039 0.3994 0.2466
C133 C 0.2150(4) 0.2453(3) 0.2869(3)
O14 O 0.0784(8) -0.1307(5) -0.0144(3)
H137 H 0.0215 -0.1402 -0.0197
C134 C 0.1209(6) -0.0644(7) -0.0278(4)
H138 H 0.1026 -0.0175 -0.0058
H139 H 0.1051 -0.0702 -0.0676
H140 H 0.1888 -0.0532 -0.0206
O15 O -0.2284(7) -0.1497(6) 0.0399(4)
H141 H -0.1782 -0.1338 0.0268
C135 C -0.2907(10) -0.2244(7) 0.0019(5)
H142 H -0.3561 -0.2281 0.0081
H143 H -0.2779 -0.2748 0.0087
H144 H -0.2802 -0.2207 -0.0366
O17 O 0.0899(14) -0.5809(12) 0.4030(8)
H149 H 0.0967 -0.6278 0.3987
C137 C -0.0067(14) -0.5924(18) 0.3840(12)
H150 H -0.0489 -0.6365 0.3994
H151 H -0.0154 -0.6093 0.3432
H152 H -0.0210 -0.5393 0.3967
O19 O -0.0546(10) -0.3439(9) 0.4462(6)
H157 H -0.0240 -0.2949 0.4609
C139 C -0.1486(11) -0.3632(15) 0.4640(10)
H158 H -0.1615 -0.4130 0.4800
H159 H -0.1944 -0.3748 0.4319
H160 H -0.1536 -0.3149 0.4923
O21 O 0.5786(12) -0.3753(10) 0.2554(6)
H165 H 0.6125 -0.3295 0.2738
C141 C 0.6089(19) -0.3930(16) 0.2000(7)
H166 H 0.6189 -0.3431 0.1843
H167 H 0.5605 -0.4409 0.1760
H168 H 0.6677 -0.4068 0.2021
O23 O -0.1277(9) -0.0502(7) -0.0485(5)
H173 H -0.1726 -0.0452 -0.0314
C143 C -0.1544(14) -0.1337(8) -0.0855(6)
H174 H -0.1024 -0.1397 -0.1077
H175 H -0.2099 -0.1414 -0.1105
H176 H -0.1690 -0.1766 -0.0634
O9? O 0.4488(13) -0.5069(10) 0.4276(7)
O10? O 0.1661(6) -0.5055(5) 0.3093(4)
N8? N 0.2264(7) -0.3936(6) 0.2711(4)
H9? H 0.2724 -0.3455 0.2772
C9? C 0.1071(5) -0.0473(5) 0.4241(3)
C10? C 0.0844(5) -0.1015(5) 0.4600(3)
H16? H 0.0264 -0.1459 0.4532
C11? C 0.1464(6) -0.0906(5) 0.5059(3)
H17? H 0.1309 -0.1276 0.5305
C12? C 0.2312(5) -0.0255(6) 0.5159(3)
H18? H 0.2737 -0.0181 0.5472
C13? C 0.2539(5) 0.0286(5) 0.4799(3)
H19? H 0.3119 0.0731 0.4867
C14? C 0.1919(5) 0.0177(5) 0.4340(3)
H20? H 0.2074 0.0548 0.4094
C73? C 0.6183(5) 0.2368(4) 0.4659(2)
H75? H 0.5598 0.2223 0.4845
H76? H 0.6614 0.2110 0.4814
C74? C 0.6575(14) 0.3209(11) 0.4816(7)
H77? H 0.6832 0.3356 0.5211
H78? H 0.6074 0.3475 0.4795
C75? C 0.7340(17) 0.3590(14) 0.4486(9)
H79? H 0.7912 0.3448 0.4578
H80? H 0.7492 0.4213 0.4586
C76? C 0.7040(17) 0.3262(13) 0.3860(9)
H81? H 0.6531 0.3481 0.3759
H82? H 0.7579 0.3473 0.3649
C77? C 0.6727(4) 0.2387(4) 0.3714(3)
H83? H 0.7274 0.2186 0.3763
H84? H 0.6508 0.2210 0.3311
C95? C 0.4595(5) -0.3038(3) 0.3909(4)
C96? C 0.3767(6) -0.3306(4) 0.3558(3)
H99? H 0.3579 -0.2913 0.3397
C97? C 0.3214(5) -0.4148(4) 0.3443(3)
C98? C 0.3488(6) -0.4722(3) 0.3679(4)
H100? H 0.3110 -0.5297 0.3600
C99? C 0.4316(6) -0.4454(4) 0.4030(4)
C100? C 0.4869(5) -0.3612(5) 0.4145(4)
H101? H 0.5435 -0.3429 0.4385
C101? C 0.511(4) -0.481(3) 0.4754(18)
H102? H 0.5120 -0.5306 0.4894
H103? H 0.4910 -0.4420 0.5040
H104? H 0.5742 -0.4527 0.4665
C102? C 0.2320(8) -0.4433(6) 0.3074(5)
O16? O -0.2274(12) -0.1486(9) 0.0678(7)
H145? H -0.1777 -0.1126 0.0815
C136? C -0.2074(18) -0.2157(12) 0.0278(8)
H146? H -0.1536 -0.1914 0.0082
H147? H -0.2624 -0.2458 0.0008
H148? H -0.1925 -0.2553 0.0474
O18? O 0.157(3) -0.583(2) 0.3868(14)
H153? H 0.1679 -0.5619 0.3600
C138? C 0.204(3) -0.520(3) 0.4366(16)
H154? H 0.1824 -0.5406 0.4697
H155? H 0.1894 -0.4675 0.4371
H156? H 0.2719 -0.5096 0.4367
O20? O -0.2644(15) -0.4532(15) 0.4316(10)
H161? H -0.2807 -0.4159 0.4219
C140? C -0.1708(18) -0.449(2) 0.4155(15)
H162? H -0.1728 -0.4636 0.3747
H163? H -0.1481 -0.4884 0.4311
H164? H -0.1284 -0.3912 0.4299
O22? O 0.484(2) -0.437(2) 0.2261(13)
H169? H 0.5392 -0.4187 0.2393
C142? C 0.469(4) -0.488(3) 0.1695(15)
H170? H 0.4694 -0.5457 0.1703
H171? H 0.5201 -0.4634 0.1481
H172? H 0.4089 -0.4908 0.1519
O24? O -0.269(3) -0.316(2) -0.1371(15)
H177? H -0.2128 -0.3087 -0.1401
C144? C -0.323(4) -0.379(3) -0.1848(19)
H178? H -0.3090 -0.3593 -0.2189
H179? H -0.3902 -0.3907 -0.1803
H180? H -0.3065 -0.4316 -0.1873
loop_
_geom_bond_atom_site_label_1
_geom_bond_atom_site_label_2
_geom_bond_site_symmetry_1
_geom_bond_site_symmetry_2
O1 C1 1_555 1_555
O2 C29 1_555 1_555
O3 H1 1_555 1_555
O4 C36 1_555 1_555
O5 C39 1_555 1_555
O6 C86 1_555 1_555
O7 C91 1_555 1_555
O8 C94 1_555 1_555
O11 C125 1_555 1_555
O12 C128 1_555 1_555
O13 C133 1_555 1_555
N1 H2 1_555 1_555
N2 H3 1_555 1_555
N3 H4 1_555 1_555
N4 H5 1_555 1_555
N5 H6 1_555 1_555
N6 H7 1_555 1_555
N7 H8 1_555 1_555
N9 H10 1_555 1_555
C1 N1 1_555 1_555
C2 C1 1_555 1_555
C3 C2 1_555 1_555
C4 C3 1_555 1_555
H11 C4 1_555 1_555
C5 C4 1_555 1_555
H12 C5 1_555 1_555
C6 C5 1_555 1_555
H13 C6 1_555 1_555
C7 C6 1_555 1_555
H14 C7 1_555 1_555
C8 C3 1_555 1_555
H15 C8 1_555 1_555
C15 C2 1_555 1_555
C16 C15 1_555 1_555
H21 C16 1_555 1_555
C17 C16 1_555 1_555
H22 C17 1_555 1_555
C18 C17 1_555 1_555
H23 C18 1_555 1_555
C19 C18 1_555 1_555
H24 C19 1_555 1_555
C20 C15 1_555 1_555
H25 C20 1_555 1_555
C21 C2 1_555 1_555
C22 C21 1_555 1_555
H26 C22 1_555 1_555
C23 C22 1_555 1_555
H27 C23 1_555 1_555
C24 C23 1_555 1_555
H28 C24 1_555 1_555
C25 C24 1_555 1_555
H29 C25 1_555 1_555
C26 C21 1_555 1_555
H30 C26 1_555 1_555
C27 N1 1_555 1_555
H31 C27 1_555 1_555
H32 C27 1_555 1_555
C28 N2 1_555 1_555
H33 C28 1_555 1_555
H34 C28 1_555 1_555
C29 N2 1_555 1_555
C30 C29 1_555 1_555
C31 O3 1_555 1_555
C32 C31 1_555 1_555
C33 C32 1_555 1_555
H35 C33 1_555 1_555
C34 C33 1_555 1_555
H36 C34 1_555 1_555
C35 C30 1_555 1_555
H37 C35 1_555 1_555
C36 N3 1_555 1_555
C37 N3 1_555 1_555
H38 C37 1_555 1_555
H39 C37 1_555 1_555
C38 N4 1_555 1_555
H40 C38 1_555 1_555
H41 C38 1_555 1_555
C39 N4 1_555 1_555
C40 C39 1_555 1_555
C41 C40 1_555 1_555
C42 C41 1_555 1_555
H42 C42 1_555 1_555
C43 C42 1_555 1_555
H43 C43 1_555 1_555
C44 C43 1_555 1_555
H44 C44 1_555 1_555
C45 C44 1_555 1_555
H45 C45 1_555 1_555
C46 C41 1_555 1_555
H46 C46 1_555 1_555
C47 C40 1_555 1_555
C48 C47 1_555 1_555
H47 C48 1_555 1_555
C49 C48 1_555 1_555
H48 C49 1_555 1_555
C50 C49 1_555 1_555
H49 C50 1_555 1_555
C51 C50 1_555 1_555
H50 C51 1_555 1_555
C52 C47 1_555 1_555
H51 C52 1_555 1_555
C53 C40 1_555 1_555
C54 C53 1_555 1_555
H52 C54 1_555 1_555
C55 C54 1_555 1_555
H53 C55 1_555 1_555
C56 C55 1_555 1_555
H54 C56 1_555 1_555
C57 C56 1_555 1_555
H55 C57 1_555 1_555
C58 C53 1_555 1_555
H56 C58 1_555 1_555
C59 N5 1_555 1_555
C60 C59 1_555 1_555
C61 C60 1_555 1_555
H57 C61 1_555 1_555
C62 C61 1_555 1_555
C63 C62 1_555 1_555
H58 C63 1_555 1_555
C64 C59 1_555 1_555
C65 C60 1_555 1_555
H59 C65 1_555 1_555
H60 C65 1_555 1_555
H61 C65 1_555 1_555
C66 C64 1_555 1_555
H62 C66 1_555 1_555
H63 C66 1_555 1_555
H64 C66 1_555 1_555
C67 C62 1_555 1_555
C68 C67 1_555 1_555
H65 C68 1_555 1_555
H66 C68 1_555 1_555
C69 C68 1_555 1_555
H67 C69 1_555 1_555
H68 C69 1_555 1_555
C70 C69 1_555 1_555
H69 C70 1_555 1_555
H70 C70 1_555 1_555
C71 C70 1_555 1_555
H71 C71 1_555 1_555
H72 C71 1_555 1_555
C72 C67 1_555 1_555
H73 C72 1_555 1_555
H74 C72 1_555 1_555
C78 C67 1_555 1_555
C79 C78 1_555 1_555
H85 C79 1_555 1_555
C80 C79 1_555 1_555
C81 N6 1_555 1_555
C82 C81 1_555 1_555
C83 C78 1_555 1_555
H86 C83 1_555 1_555
C84 C80 1_555 1_555
H87 C84 1_555 1_555
H88 C84 1_555 1_555
H89 C84 1_555 1_555
C85 C82 1_555 1_555
H90 C85 1_555 1_555
H91 C85 1_555 1_555
H92 C85 1_555 1_555
C86 N6 1_555 1_555
C87 C86 1_555 1_555
C88 C87 1_555 1_555
H93 C88 1_555 1_555
C89 C88 1_555 1_555
C90 C89 1_555 1_555
H94 C90 1_555 1_555
C91 C90 1_555 1_555
C92 C87 1_555 1_555
H95 C92 1_555 1_555
C93 O7 1_555 1_555
H96 C93 1_555 1_555
H97 C93 1_555 1_555
H98 C93 1_555 1_555
C94 N7 1_555 1_555
C103 N7 1_555 1_555
C104 C103 1_555 1_555
C105 C104 1_555 1_555
H105 C105 1_555 1_555
C106 C105 1_555 1_555
C107 C106 1_555 1_555
H106 C107 1_555 1_555
C108 C103 1_555 1_555
C109 C104 1_555 1_555
H107 C109 1_555 1_555
H108 C109 1_555 1_555
H109 C109 1_555 1_555
C110 C108 1_555 1_555
H110 C110 1_555 1_555
H111 C110 1_555 1_555
H112 C110 1_555 1_555
C111 C106 1_555 1_555
C112 C111 1_555 1_555
H113 C112 1_555 1_555
H114 C112 1_555 1_555
C113 C112 1_555 1_555
H115 C113 1_555 1_555
H116 C113 1_555 1_555
C114 C113 1_555 1_555
H117 C114 1_555 1_555
H118 C114 1_555 1_555
C115 C114 1_555 1_555
H119 C115 1_555 1_555
H120 C115 1_555 1_555
C116 C111 1_555 1_555
H121 C116 1_555 1_555
H122 C116 1_555 1_555
C117 C111 1_555 1_555
C118 C117 1_555 1_555
H123 C118 1_555 1_555
C119 C118 1_555 1_555
C120 N9 1_555 1_555
C121 C120 1_555 1_555
C122 C117 1_555 1_555
H124 C122 1_555 1_555
C123 C119 1_555 1_555
H125 C123 1_555 1_555
H126 C123 1_555 1_555
H127 C123 1_555 1_555
C124 C121 1_555 1_555
H128 C124 1_555 1_555
H129 C124 1_555 1_555
H130 C124 1_555 1_555
C125 N9 1_555 1_555
C126 C125 1_555 1_555
C127 C126 1_555 1_555
H131 C127 1_555 1_555
C128 C127 1_555 1_555
C129 C128 1_555 1_555
H132 C129 1_555 1_555
C130 C129 1_555 1_555
C131 C126 1_555 1_555
H133 C131 1_555 1_555
C132 O12 1_555 1_555
H134 C132 1_555 1_555
H135 C132 1_555 1_555
H136 C132 1_555 1_555
C133 N5 1_555 1_555
O14 H137 1_555 1_555
C134 O14 1_555 1_555
H138 C134 1_555 1_555
H139 C134 1_555 1_555
H140 C134 1_555 1_555
O15 H141 1_555 1_555
C135 O15 1_555 1_555
H142 C135 1_555 1_555
H143 C135 1_555 1_555
H144 C135 1_555 1_555
O17 H149 1_555 1_555
C137 O17 1_555 1_555
H150 C137 1_555 1_555
H151 C137 1_555 1_555
H152 C137 1_555 1_555
O19 H157 1_555 1_555
C139 O19 1_555 1_555
H158 C139 1_555 1_555
H159 C139 1_555 1_555
H160 C139 1_555 1_555
O21 H165 1_555 1_555
C141 O21 1_555 1_555
H166 C141 1_555 1_555
H167 C141 1_555 1_555
H168 C141 1_555 1_555
O23 H173 1_555 1_555
C143 O23 1_555 1_555
H174 C143 1_555 1_555
H175 C143 1_555 1_555
H176 C143 1_555 1_555
C7 C8 1_555 1_555
C19 C20 1_555 1_555
C25 C26 1_555 1_555
C27 C28 1_555 1_555
C30 C31 1_555 1_555
C32 C36 1_555 1_555
C34 C35 1_555 1_555
C37 C38 1_555 1_555
C45 C46 1_555 1_555
C51 C52 1_555 1_555
C57 C58 1_555 1_555
C63 C64 1_555 1_555
C71 C72 1_555 1_555
C80 C81 1_555 1_555
C82 C83 1_555 1_555
C89 C94 1_555 1_555
C91 C92 1_555 1_555
C107 C108 1_555 1_555
C115 C116 1_555 1_555
C119 C120 1_555 1_555
C121 C122 1_555 1_555
C130 C131 1_555 1_555
C130 C133 1_555 1_555

#END
