
#######################################################################
#
#                 Cambridge Crystallographic Data Centre
#                                CCDC 
#
#######################################################################
#
# If this CIF has been generated from an entry in the Cambridge 
# Structural Database, then it will include bibliographic, chemical, 
# crystal, experimental, refinement or atomic coordinate data resulting 
# from the CCDC's data processing and validation procedures.
#
#######################################################################

data_WASJOS
_chemical_formula_moiety         'C16 H13 N3'
_chemical_name_systematic        2-(phenylcarbonohydrazonoyl)quinoline
_symmetry_cell_setting           orthorhombic
_symmetry_space_group_name_H-M   'P b c a'
_symmetry_Int_Tables_number      61
_space_group_name_Hall           '-P 2ac 2ab'
loop_
_symmetry_equiv_pos_site_id
_symmetry_equiv_pos_as_xyz
1 x,y,z
2 1/2-x,-y,1/2+z
3 1/2+x,1/2-y,-z
4 -x,1/2+y,1/2-z
5 -x,-y,-z
6 1/2+x,y,1/2-z
7 1/2-x,1/2+y,z
8 x,1/2-y,1/2+z
_cell_length_a                   7.7161(4)
_cell_length_b                   15.4334(9)
_cell_length_c                   21.2625(14)
_cell_angle_alpha                90
_cell_angle_beta                 90
_cell_angle_gamma                90
_cell_volume                     2532.06
_exptl_crystal_colour            orange
_exptl_crystal_description       rod
_cell_formula_units_Z            8
loop_
_atom_site_label
_atom_site_type_symbol
_atom_site_fract_x
_atom_site_fract_y
_atom_site_fract_z
N1 N 0.75234(16) 0.17486(8) 0.43827(5)
N2 N 0.37187(16) 0.28563(8) 0.39055(5)
N3 N 0.22811(17) 0.31597(9) 0.41928(6)
C1 C 0.64437(19) 0.21394(9) 0.39872(6)
C2 C 0.6809(2) 0.22340(10) 0.33328(7)
C3 C 0.8299(2) 0.18982(10) 0.30969(7)
C4 C 0.9477(2) 0.14579(10) 0.34988(7)
C5 C 1.1029(2) 0.10769(11) 0.32875(8)
C6 C 1.2129(2) 0.06740(10) 0.36976(8)
C7 C 1.1704(2) 0.06310(10) 0.43389(8)
C8 C 1.0197(2) 0.09873(10) 0.45613(7)
C9 C 0.9042(2) 0.14106(9) 0.41470(7)
C10 C 0.48486(19) 0.24742(9) 0.42558(7)
C11 C 0.10087(19) 0.35926(9) 0.38507(7)
C12 C -0.0340(2) 0.39856(10) 0.41803(8)
C13 C -0.1617(2) 0.44341(11) 0.38615(8)
C14 C -0.1573(2) 0.44971(11) 0.32115(8)
C15 C -0.0247(2) 0.40978(10) 0.28842(7)
C16 C 0.1042(2) 0.36439(10) 0.31957(7)
H1 H 0.60190 0.25290 0.30650
H2 H 0.223(2) 0.3162(10) 0.4612(7)
H3 H 0.85550 0.19580 0.26620
H4 H 1.13160 0.11000 0.28530
H5 H 1.31770 0.04240 0.35490
H6 H 1.24720 0.03510 0.46230
H7 H 0.99270 0.09500 0.49960
H8 H 0.46360 0.24110 0.46940
H9 H -0.03810 0.39450 0.46260
H10 H -0.25310 0.47010 0.40890
H11 H -0.24450 0.48110 0.29930
H12 H -0.02200 0.41350 0.24380
H13 H 0.19420 0.33690 0.29650
loop_
_geom_bond_atom_site_label_1
_geom_bond_atom_site_label_2
_geom_bond_site_symmetry_1
_geom_bond_site_symmetry_2
N1 C1 1_555 1_555
N2 N3 1_555 1_555
N3 C11 1_555 1_555
C1 C2 1_555 1_555
C2 C3 1_555 1_555
C3 C4 1_555 1_555
C4 C5 1_555 1_555
C5 C6 1_555 1_555
C6 C7 1_555 1_555
C7 C8 1_555 1_555
C8 C9 1_555 1_555
C9 N1 1_555 1_555
C10 N2 1_555 1_555
C11 C12 1_555 1_555
C12 C13 1_555 1_555
C13 C14 1_555 1_555
C14 C15 1_555 1_555
C15 C16 1_555 1_555
C16 C11 1_555 1_555
H1 C2 1_555 1_555
H2 N3 1_555 1_555
H3 C3 1_555 1_555
H4 C5 1_555 1_555
H5 C6 1_555 1_555
H6 C7 1_555 1_555
H7 C8 1_555 1_555
H8 C10 1_555 1_555
H9 C12 1_555 1_555
H10 C13 1_555 1_555
H11 C14 1_555 1_555
H12 C15 1_555 1_555
H13 C16 1_555 1_555
C1 C10 1_555 1_555
C4 C9 1_555 1_555

#END
