
#######################################################################
#
#                 Cambridge Crystallographic Data Centre
#                                CCDC 
#
#######################################################################
#
# If this CIF has been generated from an entry in the Cambridge 
# Structural Database, then it will include bibliographic, chemical, 
# crystal, experimental, refinement or atomic coordinate data resulting 
# from the CCDC's data processing and validation procedures.
#
#######################################################################

data_WASJUY
_chemical_formula_moiety         'C22 H17 N3'
_chemical_name_systematic        2-(diphenylcarbonohydrazonoyl)quinoline
_symmetry_cell_setting           monoclinic
_symmetry_space_group_name_H-M   'P 21/c'
_symmetry_Int_Tables_number      14
_space_group_name_Hall           '-P 2ybc'
loop_
_symmetry_equiv_pos_site_id
_symmetry_equiv_pos_as_xyz
1 x,y,z
2 -x,1/2+y,1/2-z
3 -x,-y,-z
4 x,1/2-y,1/2+z
_cell_length_a                   13.9807(9)
_cell_length_b                   5.9507(4)
_cell_length_c                   20.5579(16)
_cell_angle_alpha                90
_cell_angle_beta                 98.458(6)
_cell_angle_gamma                90
_cell_volume                     1691.71
_exptl_crystal_colour            yellow
_exptl_crystal_description       rod
_cell_formula_units_Z            4
loop_
_atom_site_label
_atom_site_type_symbol
_atom_site_fract_x
_atom_site_fract_y
_atom_site_fract_z
N1 N 0.27780(11) -0.0355(3) 0.32479(8)
N2 N 0.24035(11) 0.4292(3) 0.42475(8)
N3 N 0.17185(11) 0.5870(3) 0.43121(8)
C1 C 0.29907(13) 0.1112(3) 0.37364(9)
C2 C 0.38668(14) 0.1037(4) 0.41843(10)
C3 C 0.45162(14) -0.0610(4) 0.41187(10)
C4 C 0.43229(14) -0.2228(4) 0.36097(10)
C5 C 0.49613(15) -0.3999(4) 0.35077(10)
C6 C 0.47170(16) -0.5513(4) 0.30115(11)
C7 C 0.38264(15) -0.5336(4) 0.25975(11)
C8 C 0.31979(15) -0.3632(4) 0.26776(10)
C9 C 0.34323(14) -0.2030(3) 0.31822(10)
C10 C 0.22505(14) 0.2820(4) 0.37868(10)
C11 C 0.19422(14) 0.7399(3) 0.48355(10)
C12 C 0.27889(14) 0.7184(4) 0.52849(10)
C13 C 0.29972(15) 0.8719(4) 0.57916(10)
C14 C 0.23787(15) 1.0477(4) 0.58648(10)
C15 C 0.15348(16) 1.0686(4) 0.54244(10)
C16 C 0.13141(14) 0.9166(4) 0.49141(10)
C17 C 0.07861(13) 0.5864(3) 0.39013(9)
C18 C 0.00758(14) 0.4407(4) 0.40475(10)
C19 C -0.08197(14) 0.4372(4) 0.36540(10)
C20 C -0.10049(14) 0.5799(4) 0.31207(10)
C21 C -0.02959(15) 0.7261(4) 0.29792(10)
C22 C 0.06073(15) 0.7288(4) 0.33641(10)
H1 H 0.39960 0.21230 0.45250
H2 H 0.51040 -0.06800 0.44150
H3 H 0.55640 -0.41340 0.37860
H4 H 0.51510 -0.66910 0.29460
H5 H 0.36590 -0.64110 0.22580
H6 H 0.26000 -0.35250 0.23920
H7 H 0.16680 0.28400 0.34840
H8 H 0.32230 0.59810 0.52430
H9 H 0.35760 0.85590 0.60940
H10 H 0.25300 1.15290 0.62120
H11 H 0.11020 1.18850 0.54720
H12 H 0.07310 0.93280 0.46160
H13 H 0.02010 0.34320 0.44160
H14 H -0.13060 0.33660 0.37520
H15 H -0.16180 0.57750 0.28520
H16 H -0.04270 0.82550 0.26160
H17 H 0.10980 0.82730 0.32600
loop_
_geom_bond_atom_site_label_1
_geom_bond_atom_site_label_2
_geom_bond_site_symmetry_1
_geom_bond_site_symmetry_2
N1 C1 1_555 1_555
N2 N3 1_555 1_555
N3 C11 1_555 1_555
C1 C2 1_555 1_555
C2 C3 1_555 1_555
C3 C4 1_555 1_555
C4 C5 1_555 1_555
C5 C6 1_555 1_555
C6 C7 1_555 1_555
C7 C8 1_555 1_555
C8 C9 1_555 1_555
C9 N1 1_555 1_555
C10 N2 1_555 1_555
C11 C12 1_555 1_555
C12 C13 1_555 1_555
C13 C14 1_555 1_555
C14 C15 1_555 1_555
C15 C16 1_555 1_555
C16 C11 1_555 1_555
C17 N3 1_555 1_555
C18 C17 1_555 1_555
C19 C18 1_555 1_555
C20 C19 1_555 1_555
C21 C20 1_555 1_555
C22 C17 1_555 1_555
H1 C2 1_555 1_555
H2 C3 1_555 1_555
H3 C5 1_555 1_555
H4 C6 1_555 1_555
H5 C7 1_555 1_555
H6 C8 1_555 1_555
H7 C10 1_555 1_555
H8 C12 1_555 1_555
H9 C13 1_555 1_555
H10 C14 1_555 1_555
H11 C15 1_555 1_555
H12 C16 1_555 1_555
H13 C18 1_555 1_555
H14 C19 1_555 1_555
H15 C20 1_555 1_555
H16 C21 1_555 1_555
H17 C22 1_555 1_555
C1 C10 1_555 1_555
C4 C9 1_555 1_555
C21 C22 1_555 1_555

#END
