
#######################################################################
#
#                 Cambridge Crystallographic Data Centre
#                                CCDC 
#
#######################################################################
#
# If this CIF has been generated from an entry in the Cambridge 
# Structural Database, then it will include bibliographic, chemical, 
# crystal, experimental, refinement or atomic coordinate data resulting 
# from the CCDC's data processing and validation procedures.
#
#######################################################################

data_WASQUF
_chemical_formula_moiety         'C26 H25 N1 O4 S1'
_chemical_name_systematic        
N-(4-hydroxy-3-(2-oxo-1-propyl-1,2-dihydronaphthalen-1-yl)phenyl)-4-methylbenzenesulfonamide
_symmetry_cell_setting           orthorhombic
_symmetry_space_group_name_H-M   'P 21 21 21'
_symmetry_Int_Tables_number      19
_space_group_name_Hall           'P 2ac 2ab'
loop_
_symmetry_equiv_pos_site_id
_symmetry_equiv_pos_as_xyz
1 x,y,z
2 1/2-x,-y,1/2+z
3 -x,1/2+y,1/2-z
4 1/2+x,1/2-y,-z
_cell_length_a                   8.2994(10)
_cell_length_b                   13.5464(16)
_cell_length_c                   20.762(2)
_cell_angle_alpha                90
_cell_angle_beta                 90
_cell_angle_gamma                90
_cell_volume                     2334.21
_exptl_crystal_colour            colorless
_exptl_crystal_description       block
_cell_formula_units_Z            4
loop_
_atom_site_label
_atom_site_type_symbol
_atom_site_fract_x
_atom_site_fract_y
_atom_site_fract_z
S1 S 0.36286(7) 1.09029(3) 1.11271(2)
C1 C 0.7688(2) 0.76452(13) 0.89695(9)
C2 C 0.7686(2) 0.95055(13) 0.87433(9)
C3 C 0.8734(3) 0.75480(15) 0.84113(9)
H1 H 0.9108 0.6926 0.8294
C4 C 0.7267(3) 1.04682(14) 0.88919(11)
H2 H 0.6591 1.0593 0.9240
C5 C 0.9305(3) 1.01302(17) 0.78650(10)
H3 H 0.9997 1.0017 0.7521
C6 C 0.8867(3) 1.10781(17) 0.80185(11)
H4 H 0.9260 1.1605 0.7778
C7 C 0.9167(3) 0.83321(15) 0.80649(10)
H5 H 0.9796 0.8229 0.7700
C8 C 0.7846(3) 1.12476(16) 0.85273(12)
H6 H 0.7542 1.1890 0.8628
C9 C 0.8717(3) 0.93342(14) 0.82230(8)
C10 C 0.6928(2) 0.86464(13) 0.91108(9)
C11 C 0.5152(2) 0.85381(15) 0.88732(10)
H7 H 0.4621 0.8046 0.9138
H8 H 0.4603 0.9161 0.8944
C12 C 0.4937(3) 0.8249(2) 0.81687(11)
H9 H 0.5518 0.8710 0.7897
H10 H 0.5383 0.7596 0.8098
C13 C 0.3189(4) 0.8251(3) 0.79878(14)
H11 H 0.2601 0.7833 0.8278
H12 H 0.3070 0.8010 0.7556
H13 H 0.2777 0.8912 0.8014
C14 C 0.8568(3) 0.92176(17) 1.07845(10)
H14 H 0.9560 0.9230 1.0993
C15 C 0.7209(3) 0.95319(15) 1.11071(10)
H15 H 0.7285 0.9766 1.1527
C16 C 0.6994(2) 0.88744(13) 0.98328(8)
C17 C 0.5644(2) 0.91694(13) 1.01685(8)
H16 H 0.4645 0.9149 0.9966
C18 C 0.5735(3) 0.94955(13) 1.08011(9)
C19 C 0.8475(3) 0.88844(14) 1.01550(9)
C20 C 0.2459(3) 1.08162(18) 0.99053(10)
H17 H 0.1793 1.0315 1.0057
C21 C 0.3525(3) 1.12920(14) 1.03173(9)
C22 C 0.4373(4) 1.2323(2) 0.94578(13)
H18 H 0.5010 1.2841 0.9310
C23 C 0.4482(3) 1.20440(17) 1.00995(12)
H19 H 0.5193 1.2362 1.0377
C24 C 0.2404(3) 1.1099(2) 0.92660(11)
H20 H 0.1712 1.0773 0.8985
C25 C 0.3353(3) 1.1857(2) 0.90353(12)
C26 C 0.3291(5) 1.2157(4) 0.83360(14)
H21 H 0.2218 1.2364 0.8229
H22 H 0.3588 1.1605 0.8071
H23 H 0.4027 1.2691 0.8263
O1 O 0.72916(17) 0.69156(9) 0.92898(6)
O2 O 0.97892(19) 0.85723(12) 0.98168(7)
O3 O 0.2033(2) 1.08615(14) 1.13816(8)
O4 O 0.4811(2) 1.14932(11) 1.14425(8)
N1 N 0.4261(2) 0.97573(12) 1.11287(8)
H24 H 1.054(3) 0.8424(18) 1.0050(11)
H25 H 0.344(2) 0.9418(17) 1.1038(13)
loop_
_geom_bond_atom_site_label_1
_geom_bond_atom_site_label_2
_geom_bond_site_symmetry_1
_geom_bond_site_symmetry_2
S1 C21 1_555 1_555
C1 C3 1_555 1_555
C2 C4 1_555 1_555
C3 H1 1_555 1_555
C4 H2 1_555 1_555
C5 H3 1_555 1_555
C6 C5 1_555 1_555
H4 C6 1_555 1_555
C7 C3 1_555 1_555
H5 C7 1_555 1_555
C8 C4 1_555 1_555
H6 C8 1_555 1_555
C9 C2 1_555 1_555
C10 C1 1_555 1_555
C11 C10 1_555 1_555
H7 C11 1_555 1_555
H8 C11 1_555 1_555
C12 C11 1_555 1_555
H9 C12 1_555 1_555
H10 C12 1_555 1_555
C13 C12 1_555 1_555
H11 C13 1_555 1_555
H12 C13 1_555 1_555
H13 C13 1_555 1_555
C14 H14 1_555 1_555
C15 C14 1_555 1_555
H15 C15 1_555 1_555
C16 C10 1_555 1_555
C17 C16 1_555 1_555
H16 C17 1_555 1_555
C18 C15 1_555 1_555
C19 C14 1_555 1_555
C20 H17 1_555 1_555
C21 C20 1_555 1_555
C22 H18 1_555 1_555
C23 C21 1_555 1_555
H19 C23 1_555 1_555
C24 C20 1_555 1_555
H20 C24 1_555 1_555
C25 C22 1_555 1_555
C26 C25 1_555 1_555
H21 C26 1_555 1_555
H22 C26 1_555 1_555
H23 C26 1_555 1_555
O1 C1 1_555 1_555
O2 C19 1_555 1_555
O3 S1 1_555 1_555
O4 S1 1_555 1_555
N1 S1 1_555 1_555
H24 O2 1_555 1_555
H25 N1 1_555 1_555
C2 C10 1_555 1_555
C5 C9 1_555 1_555
C6 C8 1_555 1_555
C7 C9 1_555 1_555
C16 C19 1_555 1_555
C17 C18 1_555 1_555
C18 N1 1_555 1_555
C22 C23 1_555 1_555
C24 C25 1_555 1_555

#END
