
#######################################################################
#
#                 Cambridge Crystallographic Data Centre
#                                CCDC 
#
#######################################################################
#
# If this CIF has been generated from an entry in the Cambridge 
# Structural Database, then it will include bibliographic, chemical, 
# crystal, experimental, refinement or atomic coordinate data resulting 
# from the CCDC's data processing and validation procedures.
#
#######################################################################

data_WASQAL
_chemical_formula_moiety         'C26 H16 N6 S4'
_chemical_name_systematic        
4,5-bis(5-methyl-2-phenyl-1,3-thiazol-4-yl)[1,2,5]thiadiazolo[3,4-e][2,1,3]benzothiadiazole
_symmetry_cell_setting           monoclinic
_symmetry_space_group_name_H-M   'P 21/n'
_symmetry_Int_Tables_number      14
_space_group_name_Hall           '-P 2yn'
loop_
_symmetry_equiv_pos_site_id
_symmetry_equiv_pos_as_xyz
1 x,y,z
2 1/2-x,1/2+y,1/2-z
3 -x,-y,-z
4 1/2+x,1/2-y,1/2+z
_cell_length_a                   8.8711(9)
_cell_length_b                   25.349(2)
_cell_length_c                   11.4426(10)
_cell_angle_alpha                90
_cell_angle_beta                 110.358(2)
_cell_angle_gamma                90
_cell_volume                     2412.41
_exptl_crystal_description       prism
_cell_formula_units_Z            4
loop_
_atom_site_label
_atom_site_type_symbol
_atom_site_fract_x
_atom_site_fract_y
_atom_site_fract_z
S1 S 0.42311(15) 0.07835(5) 0.42202(11)
S2 S 0.44693(16) 0.21221(5) 0.82551(11)
S3 S 0.45964(18) 0.28797(5) 0.10140(11)
S4 S 0.7005(2) 0.39968(5) 0.60167(14)
N1 N 0.6180(5) 0.14536(14) 0.3862(3)
N2 N 0.6175(4) 0.18820(14) 0.6919(3)
N3 N 0.4642(5) 0.23996(16) 0.1960(3)
C1 C 0.5203(5) 0.23139(18) 0.4228(4)
N4 N 0.6457(5) 0.34341(16) 0.6405(4)
C2 C 0.5926(5) 0.09505(18) 0.3860(4)
C3 C 0.5130(5) 0.26056(17) 0.3104(4)
C4 C 0.4988(5) 0.17365(17) 0.4142(4)
C5 C 0.5382(5) 0.23484(18) 0.6464(4)
C6 C 0.5488(5) 0.25928(17) 0.5311(4)
C7 C 0.5483(6) 0.31561(18) 0.3112(4)
C8 C 0.5810(6) 0.17099(19) 0.7865(4)
C9 C 0.6947(6) 0.05444(18) 0.3621(4)
C10 C 0.4383(6) 0.25442(19) 0.7069(4)
C11 C 0.3859(5) 0.14406(19) 0.4344(4)
C12 C 0.5947(5) 0.31394(18) 0.5353(4)
N5 N 0.5248(5) 0.33642(16) 0.1994(4)
C13 C 0.2389(6) 0.1624(2) 0.4637(5)
H1 H 0.2430 0.1479 0.5423
H2 H 0.1429 0.1505 0.3994
H3 H 0.2384 0.2002 0.4679
C14 C 0.6395(6) 0.12238(19) 0.8534(4)
C15 C 0.6028(6) 0.34213(17) 0.4287(4)
C16 C 0.6420(7) 0.0034(2) 0.3274(5)
H4 H 0.5375 -0.0058 0.3197
C17 C 0.7411(8) -0.0344(2) 0.3036(5)
H5 H 0.7037 -0.0685 0.2807
N6 N 0.6595(6) 0.39113(18) 0.4526(4)
C18 C 0.3339(6) 0.3011(2) 0.6773(5)
H6 H 0.3985 0.3323 0.6868
H7 H 0.2741 0.3029 0.7328
H8 H 0.2607 0.2988 0.5929
C19 C 0.8494(7) 0.0672(2) 0.3725(5)
H9 H 0.8872 0.1012 0.3963
C20 C 0.7408(7) 0.0891(2) 0.8175(5)
H10 H 0.7725 0.0977 0.7505
C21 C 0.5923(8) 0.1070(2) 0.9528(5)
H11 H 0.5228 0.1283 0.9769
C22 C 0.8960(8) -0.0205(2) 0.3145(5)
H12 H 0.9633 -0.0456 0.2991
C23 C 0.9519(7) 0.0297(2) 0.3477(6)
H13 H 1.0558 0.0389 0.3538
C24 C 0.7924(8) 0.0434(2) 0.8835(6)
H14 H 0.8575 0.0210 0.8575
C25 C 0.6491(10) 0.0597(3) 1.0167(5)
H15 H 0.6157 0.0491 1.0817
C26 C 0.7559(9) 0.0291(3) 0.9815(6)
H16 H 0.8010 -0.0011 1.0262
loop_
_geom_bond_atom_site_label_1
_geom_bond_atom_site_label_2
_geom_bond_site_symmetry_1
_geom_bond_site_symmetry_2
S1 C2 1_555 1_555
S2 C8 1_555 1_555
S3 N3 1_555 1_555
S4 N4 1_555 1_555
N1 C2 1_555 1_555
N2 C5 1_555 1_555
N3 C3 1_555 1_555
C1 C3 1_555 1_555
N4 C12 1_555 1_555
C2 C9 1_555 1_555
C3 C7 1_555 1_555
C4 N1 1_555 1_555
C5 C6 1_555 1_555
C6 C1 1_555 1_555
C7 N5 1_555 1_555
C8 N2 1_555 1_555
C9 C16 1_555 1_555
C10 S2 1_555 1_555
C11 S1 1_555 1_555
C12 C6 1_555 1_555
N5 S3 1_555 1_555
C13 C11 1_555 1_555
H1 C13 1_555 1_555
H2 C13 1_555 1_555
H3 C13 1_555 1_555
C14 C8 1_555 1_555
C15 C7 1_555 1_555
C16 H4 1_555 1_555
C17 C16 1_555 1_555
H5 C17 1_555 1_555
N6 S4 1_555 1_555
C18 C10 1_555 1_555
H6 C18 1_555 1_555
H7 C18 1_555 1_555
H8 C18 1_555 1_555
C19 C9 1_555 1_555
H9 C19 1_555 1_555
C20 C14 1_555 1_555
H10 C20 1_555 1_555
C21 C14 1_555 1_555
H11 C21 1_555 1_555
C22 C17 1_555 1_555
H12 C22 1_555 1_555
C23 C19 1_555 1_555
H13 C23 1_555 1_555
C24 C20 1_555 1_555
H14 C24 1_555 1_555
C25 C21 1_555 1_555
H15 C25 1_555 1_555
C26 C24 1_555 1_555
H16 C26 1_555 1_555
C1 C4 1_555 1_555
C4 C11 1_555 1_555
C5 C10 1_555 1_555
C12 C15 1_555 1_555
C15 N6 1_555 1_555
C22 C23 1_555 1_555
C25 C26 1_555 1_555

#END
