
#######################################################################
#
#                 Cambridge Crystallographic Data Centre
#                                CCDC 
#
#######################################################################
#
# If this CIF has been generated from an entry in the Cambridge 
# Structural Database, then it will include bibliographic, chemical, 
# crystal, experimental, refinement or atomic coordinate data resulting 
# from the CCDC's data processing and validation procedures.
#
#######################################################################

data_WASWES
_chemical_formula_moiety         'C15 H20 O6'
_chemical_name_systematic        
7-Methylene-1-(methoxycarbonyl)bicyclo(4.4.0)deca-6-ol-8-one-3-spiro-2'-1',3'-dioxolane
_symmetry_cell_setting           monoclinic
_symmetry_space_group_name_H-M   'P 21/c'
_symmetry_Int_Tables_number      14
_space_group_name_Hall           '-P 2ybc'
loop_
_symmetry_equiv_pos_site_id
_symmetry_equiv_pos_as_xyz
1 x,y,z
2 -x,1/2+y,1/2-z
3 -x,-y,-z
4 x,1/2-y,1/2+z
_cell_length_a                   10.233(1)
_cell_length_b                   15.308(2)
_cell_length_c                   9.0745(7)
_cell_angle_alpha                90
_cell_angle_beta                 98.847(8)
_cell_angle_gamma                90
_cell_volume                     1404.58
_cell_formula_units_Z            4
loop_
_atom_site_label
_atom_site_type_symbol
_atom_site_fract_x
_atom_site_fract_y
_atom_site_fract_z
O1 O 0.8072(3) 0.8140(1) 0.2411(3)
O2 O 0.6558(2) 0.3845(1) 0.2105(2)
O3 O 0.8094(2) 0.3100(1) 0.1065(2)
O4 O 0.8880(2) 0.5953(1) 0.0228(2)
O5 O 0.6167(2) 0.5764(1) 0.3307(2)
O6 O 0.7686(2) 0.4983(1) 0.4777(2)
C1 C 0.6690(3) 0.5328(2) 0.0075(3)
C2 C 0.7159(3) 0.4398(2) -0.015(3)
C3 C 0.7642(3) 0.3956(2) 0.1313(3)
C4 C 0.8737(3) 0.4503(2) 0.2202(3)
C5 C 0.9443(3) 0.5974(2) 0.3281(3)
C6 C 0.9008(3) 0.6883(2) 0.3646(3)
C7 C 0.8143(3) 0.7344(2) 0.2415(3)
C8 C 0.7307(3) 0.6814(2) 0.1232(3)
C9 C 0.6843(4) 0.3084(2) 0.2997(4)
C10 C 0.7821(4) 0.2578(2) 0.2273(4)
C11 C 0.8280(2) 0.5433(2) 0.2494(3)
C12 C 0.6267(3) 0.7201(2) 0.0441(4)
C13 C 0.7740(3) 0.5887(2) 0.0985(3)
C14 C 0.7228(3) 0.5413(2) 0.3516(3)
C15 C 0.6821(4) 0.4937(2) 0.5871(3)
H1 H 0.865(4) 0.636(3) -0.065(4)
H2 H 0.593 0.530 0.057
H3 H 0.643 0.560 -0.088
H4 H 0.787 0.441 -0.075
H5 H 0.645 0.406 -0.070
H6 H 0.947 0.453 0.166
H7 H 0.903 0.421 0.314
H8 H 0.983 0.568 0.417
H9 H 1.010 0.601 0.263
H10 H 0.977 0.724 0.394
H11 H 0.853 0.684 0.448
H12 H 0.606 0.275 0.301
H13 H 0.720 0.324 0.399
H14 H 0.862 0.248 0.299
H15 H 0.748 0.202 0.193
H16 H 0.572 0.689 -0.033
H17 H 0.606 0.780 0.062
H18 H 0.688 0.546 0.645
H19 H 0.705 0.445 0.652
H20 H 0.593 0.487 0.539
loop_
_geom_bond_atom_site_label_1
_geom_bond_atom_site_label_2
_geom_bond_site_symmetry_1
_geom_bond_site_symmetry_2
O1 C7 1_555 1_555
O2 C3 1_555 1_555
O3 C3 1_555 1_555
O4 C13 1_555 1_555
O5 C14 1_555 1_555
O6 C14 1_555 1_555
C1 C2 1_555 1_555
C2 C3 1_555 1_555
C3 C4 1_555 1_555
C4 C11 1_555 1_555
C5 C6 1_555 1_555
C6 C7 1_555 1_555
C7 C8 1_555 1_555
C8 C12 1_555 1_555
C9 O2 1_555 1_555
C10 O3 1_555 1_555
C11 C5 1_555 1_555
C12 H16 1_555 1_555
C13 C1 1_555 1_555
C14 C11 1_555 1_555
C15 O6 1_555 1_555
H1 O4 1_555 1_555
H2 C1 1_555 1_555
H3 C1 1_555 1_555
H4 C2 1_555 1_555
H5 C2 1_555 1_555
H6 C4 1_555 1_555
H7 C4 1_555 1_555
H8 C5 1_555 1_555
H9 C5 1_555 1_555
H10 C6 1_555 1_555
H11 C6 1_555 1_555
H12 C9 1_555 1_555
H13 C9 1_555 1_555
H14 C10 1_555 1_555
H15 C10 1_555 1_555
H17 C12 1_555 1_555
H18 C15 1_555 1_555
H19 C15 1_555 1_555
H20 C15 1_555 1_555
C8 C13 1_555 1_555
C9 C10 1_555 1_555
C11 C13 1_555 1_555

#END
