
#######################################################################
#
#                 Cambridge Crystallographic Data Centre
#                                CCDC 
#
#######################################################################
#
# If this CIF has been generated from an entry in the Cambridge 
# Structural Database, then it will include bibliographic, chemical, 
# crystal, experimental, refinement or atomic coordinate data resulting 
# from the CCDC's data processing and validation procedures.
#
#######################################################################

data_WATJOT
_chemical_formula_moiety         
'C48 H48 N32 O16,3(H3 O1 1+),13.25(H2 O1),3(Br1 1-)'
_chemical_name_systematic        
'tris(oxonium) cucurbit[8]uril tris(bromide) hydrate'
_symmetry_cell_setting           orthorhombic
_symmetry_space_group_name_H-M   'P c c n'
_symmetry_Int_Tables_number      56
_space_group_name_Hall           '-P 2ab 2ac'
loop_
_symmetry_equiv_pos_site_id
_symmetry_equiv_pos_as_xyz
1 x,y,z
2 1/2-x,1/2-y,z
3 -x,1/2+y,1/2-z
4 1/2+x,-y,1/2-z
5 -x,-y,-z
6 1/2+x,1/2+y,-z
7 x,1/2-y,1/2+z
8 1/2-x,y,1/2+z
_cell_length_a                   25.909(5)
_cell_length_b                   26.983(5)
_cell_length_c                   13.028(2)
_cell_angle_alpha                90
_cell_angle_beta                 90
_cell_angle_gamma                90
_cell_volume                     9107.91
_exptl_crystal_colour            yellow
_exptl_crystal_description       block
_cell_formula_units_Z            4
loop_
_atom_site_label
_atom_site_type_symbol
_atom_site_fract_x
_atom_site_fract_y
_atom_site_fract_z
Br1 Br 0.2500 0.2500 0.1779(4)
Br2 Br 0.77700(11) 0.20225(12) 0.4148(3)
C1 C -0.2303(3) 0.4200(3) 0.5147(6)
H1 H -0.2321 0.4162 0.4392
H2 H -0.2635 0.4083 0.5435
C2 C -0.1892(3) 0.3715(3) 0.6594(6)
H3 H -0.2246 0.3622 0.6831
C3 C -0.1522(3) 0.3262(3) 0.6572(6)
H4 H -0.1700 0.2949 0.6780
C4 C -0.1216(3) 0.3842(3) 0.7760(6)
C5 C -0.1603(3) 0.3593(3) 0.4924(6)
C6 C -0.1106(3) 0.2811(3) 0.5067(6)
H5 H -0.1263 0.2511 0.5371
H6 H -0.1174 0.2804 0.4319
C7 C -0.0753(3) 0.3040(3) 0.7675(6)
H7 H -0.0629 0.3151 0.8356
H8 H -0.0928 0.2717 0.7769
C8 C -0.0323(3) 0.2620(2) 0.6176(5)
H9 H -0.0477 0.2297 0.6395
C9 C 0.0260(2) 0.2561(2) 0.5887(5)
H10 H 0.0382 0.2212 0.5967
C10 C 0.0175(3) 0.3118(2) 0.7260(5)
C11 C -0.0214(3) 0.2831(2) 0.4448(6)
C12 C 0.1060(3) 0.2894(3) 0.6753(5)
H11 H 0.1184 0.2548 0.6734
H12 H 0.1136 0.3029 0.7443
C13 C 0.0705(3) 0.2618(3) 0.4145(5)
H13 H 0.0839 0.2284 0.4304
H14 H 0.0578 0.2614 0.3429
C14 C 0.1510(3) 0.2954(2) 0.5018(5)
H15 H 0.1647 0.2611 0.5120
C15 C 0.1927(3) 0.3312(2) 0.4626(5)
H16 H 0.2259 0.3136 0.4487
C16 C 0.1659(3) 0.3567(2) 0.6256(5)
C17 C 0.1251(3) 0.3281(2) 0.3435(5)
C18 C 0.2385(2) 0.4033(2) 0.5511(5)
H17 H 0.2713 0.3881 0.5278
H18 H 0.2430 0.4132 0.6237
C19 C 0.2007(3) 0.3777(3) 0.2916(5)
H19 H 0.2358 0.3633 0.2898
H20 H 0.1849 0.3728 0.2232
C20 C 0.2424(3) 0.4517(2) 0.3827(5)
H21 H 0.2781 0.4394 0.3690
C21 C 0.2375(3) 0.5078(2) 0.3616(5)
H22 H 0.2707 0.5219 0.3355
C22 C 0.2215(3) 0.4924(3) 0.5357(6)
C23 C 0.1811(3) 0.4655(3) 0.2517(5)
C24 C 0.1922(4) 0.5548(3) 0.2208(6)
H23 H 0.2271 0.5668 0.2020
H24 H 0.1742 0.5454 0.1567
N1 N -0.1890(2) 0.3888(2) 0.5539(5)
N2 N -0.1355(2) 0.3249(2) 0.5506(4)
N3 N -0.1640(3) 0.4051(2) 0.7301(5)
N4 N -0.1127(2) 0.3401(2) 0.7284(4)
N5 N -0.0551(2) 0.2797(2) 0.5235(4)
N6 N 0.0277(2) 0.2725(2) 0.4823(4)
N7 N -0.0317(2) 0.2974(2) 0.7004(4)
N8 N 0.0513(2) 0.2895(2) 0.6603(4)
N9 N 0.1120(2) 0.2972(2) 0.4227(4)
N10 N 0.1700(2) 0.3512(2) 0.3681(4)
N11 N 0.1343(2) 0.3181(2) 0.5993(4)
N12 N 0.1979(2) 0.3667(2) 0.5450(4)
N13 N 0.2048(2) 0.4304(2) 0.3114(4)
N14 N 0.1973(2) 0.5113(2) 0.2858(4)
N15 N 0.2285(2) 0.44713(19) 0.4901(4)
N16 N 0.2240(3) 0.5286(2) 0.4611(5)
O1 O -0.1571(3) 0.3630(2) 0.3983(4)
O2 O -0.0972(3) 0.4017(2) 0.8464(4)
O3 O -0.0308(2) 0.29351(19) 0.3560(4)
O4 O 0.0287(2) 0.33863(19) 0.7977(4)
O5 O 0.1009(2) 0.33305(19) 0.2634(3)
O6 O 0.16488(19) 0.37925(17) 0.7081(3)
O7 O 0.1516(2) 0.4571(2) 0.1806(4)
O8 O 0.2149(2) 0.50010(18) 0.6275(4)
C1D C 0.2303(3) 0.5800(3) 0.4853(6)
H1D H 0.2321 0.5838 0.5608
H2D H 0.2635 0.5917 0.4565
C2D C 0.1892(3) 0.6285(3) 0.3406(6)
H3D H 0.2246 0.6378 0.3169
C3D C 0.1522(3) 0.6738(3) 0.3428(6)
H4D H 0.1700 0.7051 0.3220
C4D C 0.1216(3) 0.6158(3) 0.2240(6)
C5D C 0.1603(3) 0.6407(3) 0.5076(6)
C6D C 0.1106(3) 0.7189(3) 0.4933(6)
H5D H 0.1263 0.7489 0.4629
H6D H 0.1174 0.7196 0.5681
C7D C 0.0753(3) 0.6960(3) 0.2325(6)
H7D H 0.0629 0.6849 0.1644
H8D H 0.0928 0.7283 0.2231
C8D C 0.0323(3) 0.7380(2) 0.3824(5)
H9D H 0.0477 0.7703 0.3605
C9D C -0.0260(2) 0.7439(2) 0.4113(5)
H10D H -0.0382 0.7788 0.4033
C10D C -0.0175(3) 0.6882(2) 0.2740(5)
C11D C 0.0214(3) 0.7169(2) 0.5552(6)
C12D C -0.1060(3) 0.7106(3) 0.3247(5)
H11D H -0.1184 0.7452 0.3266
H12D H -0.1136 0.6971 0.2557
C13D C -0.0705(3) 0.7382(3) 0.5855(5)
H13D H -0.0839 0.7716 0.5696
H14D H -0.0578 0.7386 0.6571
C14D C -0.1510(3) 0.7046(2) 0.4982(5)
H15D H -0.1647 0.7389 0.4880
C15D C -0.1927(3) 0.6688(2) 0.5374(5)
H16D H -0.2259 0.6864 0.5513
C16D C -0.1659(3) 0.6433(2) 0.3744(5)
C17D C -0.1251(3) 0.6719(2) 0.6565(5)
C18D C -0.2385(2) 0.5967(2) 0.4489(5)
H17D H -0.2713 0.6119 0.4722
H18D H -0.2430 0.5868 0.3763
C19D C -0.2007(3) 0.6223(3) 0.7084(5)
H19D H -0.2358 0.6367 0.7102
H20D H -0.1849 0.6272 0.7768
C20D C -0.2424(3) 0.5483(2) 0.6173(5)
H21D H -0.2781 0.5606 0.6310
C21D C -0.2375(3) 0.4922(2) 0.6384(5)
H22D H -0.2707 0.4781 0.6645
C22D C -0.2215(3) 0.5076(3) 0.4643(6)
C23D C -0.1811(3) 0.5345(3) 0.7483(5)
C24D C -0.1922(4) 0.4452(3) 0.7792(6)
H23D H -0.2271 0.4332 0.7980
H24D H -0.1742 0.4546 0.8433
N1D N 0.1890(2) 0.6112(2) 0.4461(5)
N2D N 0.1355(2) 0.6751(2) 0.4494(4)
N3D N 0.1640(3) 0.5949(2) 0.2699(5)
N4D N 0.1127(2) 0.6599(2) 0.2716(4)
N5D N 0.0551(2) 0.7203(2) 0.4765(4)
N6D N -0.0277(2) 0.7275(2) 0.5177(4)
N7D N 0.0317(2) 0.7026(2) 0.2996(4)
N8D N -0.0513(2) 0.7105(2) 0.3397(4)
N9D N -0.1120(2) 0.7028(2) 0.5773(4)
N10D N -0.1700(2) 0.6488(2) 0.6319(4)
N11D N -0.1343(2) 0.6819(2) 0.4007(4)
N12D N -0.1979(2) 0.6333(2) 0.4550(4)
N13D N -0.2048(2) 0.5696(2) 0.6886(4)
N14D N -0.1973(2) 0.4887(2) 0.7142(4)
N15D N -0.2285(2) 0.55287(19) 0.5099(4)
N16D N -0.2240(3) 0.4714(2) 0.5389(5)
O1D O 0.1571(3) 0.6370(2) 0.6017(4)
O2D O 0.0972(3) 0.5983(2) 0.1536(4)
O3D O 0.0308(2) 0.70649(19) 0.6440(4)
O4D O -0.0287(2) 0.66137(19) 0.2023(4)
O5D O -0.1009(2) 0.66695(19) 0.7366(3)
O6D O -0.16488(19) 0.62075(17) 0.2919(3)
O7D O -0.1516(2) 0.5429(2) 0.8194(4)
O8D O -0.2149(2) 0.49990(18) 0.3725(4)
O9 O 0.1732(4) 0.3314(6) 0.9053(7)
H25 H 0.1412(13) 0.337(5) 0.898(7)
H26 H 0.184(3) 0.325(4) 0.965(4)
O10 O 0.0699(9) 0.4375(6) 0.807(2)
O11 O 0.1471(4) 0.4706(11) 0.9708(8)
O12 O 0.0931(6) 0.3563(6) 0.0528(7)
O13 O 0.8415(5) 0.3009(4) 0.2168(9)
O14 O 0.8824(6) 0.3490(5) 0.0481(13)
H27 H 0.853(2) 0.335(3) 0.051(11)
H28 H 0.885(4) 0.3798(15) 0.061(10)
O15 O 0.9827(5) 0.3471(4) 0.0062(7)
H29 H 0.9509(15) 0.342(4) 0.016(11)
H30 H 0.995(3) 0.3759(19) 0.014(10)
O16 O 0.9781(9) 0.5198(11) 0.861(3)
Br3? Br 0.2500 0.2500 0.2300(2)
loop_
_geom_bond_atom_site_label_1
_geom_bond_atom_site_label_2
_geom_bond_site_symmetry_1
_geom_bond_site_symmetry_2
C1 H1 1_555 1_555
H2 C1 1_555 1_555
C2 H3 1_555 1_555
C3 C2 1_555 1_555
H4 C3 1_555 1_555
C4 N3 1_555 1_555
C5 N1 1_555 1_555
C6 H5 1_555 1_555
H6 C6 1_555 1_555
C7 H7 1_555 1_555
H8 C7 1_555 1_555
C8 H9 1_555 1_555
C9 C8 1_555 1_555
H10 C9 1_555 1_555
C10 N7 1_555 1_555
C11 N5 1_555 1_555
C12 H11 1_555 1_555
H12 C12 1_555 1_555
C13 H13 1_555 1_555
H14 C13 1_555 1_555
C14 H15 1_555 1_555
C15 C14 1_555 1_555
H16 C15 1_555 1_555
C16 N11 1_555 1_555
C17 N9 1_555 1_555
C18 H17 1_555 1_555
H18 C18 1_555 1_555
C19 H19 1_555 1_555
H20 C19 1_555 1_555
C20 H21 1_555 1_555
C21 C20 1_555 1_555
H22 C21 1_555 1_555
C22 N15 1_555 1_555
C23 N13 1_555 1_555
C24 H23 1_555 1_555
H24 C24 1_555 1_555
N1 C1 1_555 1_555
N2 C3 1_555 1_555
N3 C2 1_555 1_555
N4 C3 1_555 1_555
N5 C6 1_555 1_555
N6 C9 1_555 1_555
N7 C7 1_555 1_555
N8 C9 1_555 1_555
N9 C13 1_555 1_555
N10 C15 1_555 1_555
N11 C12 1_555 1_555
N12 C15 1_555 1_555
N13 C19 1_555 1_555
N14 C21 1_555 1_555
N15 C18 1_555 1_555
N16 C21 1_555 1_555
O1 C5 1_555 1_555
O2 C4 1_555 1_555
O3 C11 1_555 1_555
O4 C10 1_555 1_555
O5 C17 1_555 1_555
O6 C16 1_555 1_555
O7 C23 1_555 1_555
O8 C22 1_555 1_555
O9 H25 1_555 1_555
H26 O9 1_555 1_555
O14 H27 1_555 1_555
H28 O14 1_555 1_555
O15 H29 1_555 1_555
H30 O15 1_555 1_555
C1D N16 1_555 1_555
H1D C1D 1_555 1_555
H2D C1D 1_555 1_555
C2D H3D 1_555 1_555
C3D C2D 1_555 1_555
H4D C3D 1_555 1_555
C4D N3D 1_555 1_555
C5D N1D 1_555 1_555
C6D H5D 1_555 1_555
H6D C6D 1_555 1_555
C7D H7D 1_555 1_555
H8D C7D 1_555 1_555
C8D H9D 1_555 1_555
C9D C8D 1_555 1_555
H10D C9D 1_555 1_555
C10D N7D 1_555 1_555
C11D N5D 1_555 1_555
C12D H11D 1_555 1_555
H12D C12D 1_555 1_555
C13D H13D 1_555 1_555
H14D C13D 1_555 1_555
C14D H15D 1_555 1_555
C15D C14D 1_555 1_555
H16D C15D 1_555 1_555
C16D N11D 1_555 1_555
C17D N9D 1_555 1_555
C18D H17D 1_555 1_555
H18D C18D 1_555 1_555
C19D H19D 1_555 1_555
H20D C19D 1_555 1_555
C20D H21D 1_555 1_555
C21D C20D 1_555 1_555
H22D C21D 1_555 1_555
C22D N15D 1_555 1_555
C23D N13D 1_555 1_555
C24D N3 1_555 1_555
H23D C24D 1_555 1_555
H24D C24D 1_555 1_555
N1D C1D 1_555 1_555
N2D C3D 1_555 1_555
N3D C24 1_555 1_555
N4D C3D 1_555 1_555
N5D C6D 1_555 1_555
N6D C9D 1_555 1_555
N7D C7D 1_555 1_555
N8D C9D 1_555 1_555
N9D C13D 1_555 1_555
N10D C15D 1_555 1_555
N11D C12D 1_555 1_555
N12D C15D 1_555 1_555
N13D C19D 1_555 1_555
N14D C21D 1_555 1_555
N15D C18D 1_555 1_555
N16D C1 1_555 1_555
O1D C5D 1_555 1_555
O2D C4D 1_555 1_555
O3D C11D 1_555 1_555
O4D C10D 1_555 1_555
O5D C17D 1_555 1_555
O6D C16D 1_555 1_555
O7D C23D 1_555 1_555
O8D C22D 1_555 1_555
C2 N1 1_555 1_555
C4 N4 1_555 1_555
C5 N2 1_555 1_555
C6 N2 1_555 1_555
C7 N4 1_555 1_555
C8 N5 1_555 1_555
C8 N7 1_555 1_555
C10 N8 1_555 1_555
C11 N6 1_555 1_555
C12 N8 1_555 1_555
C13 N6 1_555 1_555
C14 N9 1_555 1_555
C14 N11 1_555 1_555
C16 N12 1_555 1_555
C17 N10 1_555 1_555
C18 N12 1_555 1_555
C19 N10 1_555 1_555
C20 N13 1_555 1_555
C20 N15 1_555 1_555
C22 N16 1_555 1_555
C23 N14 1_555 1_555
C24 N14 1_555 1_555
C2D N1D 1_555 1_555
C2D N3D 1_555 1_555
C4D N4D 1_555 1_555
C5D N2D 1_555 1_555
C6D N2D 1_555 1_555
C7D N4D 1_555 1_555
C8D N5D 1_555 1_555
C8D N7D 1_555 1_555
C10D N8D 1_555 1_555
C11D N6D 1_555 1_555
C12D N8D 1_555 1_555
C13D N6D 1_555 1_555
C14D N9D 1_555 1_555
C14D N11D 1_555 1_555
C16D N12D 1_555 1_555
C17D N10D 1_555 1_555
C18D N12D 1_555 1_555
C19D N10D 1_555 1_555
C20D N13D 1_555 1_555
C20D N15D 1_555 1_555
C21D N16D 1_555 1_555
C22D N16D 1_555 1_555
C23D N14D 1_555 1_555
C24D N14D 1_555 1_555

#END
