
#######################################################################
#
#                 Cambridge Crystallographic Data Centre
#                                CCDC 
#
#######################################################################
#
# If this CIF has been generated from an entry in the Cambridge 
# Structural Database, then it will include bibliographic, chemical, 
# crystal, experimental, refinement or atomic coordinate data resulting 
# from the CCDC's data processing and validation procedures.
#
#######################################################################

data_WAVCUR
_chemical_formula_moiety         'C16 H17 N2 O5 S1 1-,K1 1+'
_chemical_name_systematic        'Potassium phenoxymethylpenicillin'
_chemical_properties_biological  'antibiotic activity'
_symmetry_cell_setting           triclinic
_symmetry_space_group_name_H-M   'P 1'
_symmetry_Int_Tables_number      1
_space_group_name_Hall           'P 1'
loop_
_symmetry_equiv_pos_site_id
_symmetry_equiv_pos_as_xyz
1 x,y,z
_cell_length_a                   9.387(2)
_cell_length_b                   12.578(1)
_cell_length_c                   15.518(4)
_cell_angle_alpha                94.36(2)
_cell_angle_beta                 99.07(2)
_cell_angle_gamma                90.09(2)
_cell_volume                     1803.89
_cell_formula_units_Z            4
loop_
_atom_site_label
_atom_site_type_symbol
_atom_site_fract_x
_atom_site_fract_y
_atom_site_fract_z
S1 S 0.2432(6) 0.3711(5) 0.7353(4)
O1 O 0.015(1) 0.3050(9) 0.8841(7)
O2 O 0.038(1) 0.1278(9) 0.8896(8)
O3 O 0.547(1) 0.262(1) 0.9518(9)
O4 O 0.750(1) 0.503(1) 0.9119(8)
O5 O 0.688(2) 0.412(2) 0.688(1)
N1 N 0.316(1) 0.3160(9) 0.8949(7)
N2 N 0.560(1) 0.4401(9) 0.8173(7)
C1 C 0.238(1) 0.227(1) 0.7538(8)
C2 C 0.101(2) 0.179(1) 0.696(1)
C3 C 0.374(2) 0.172(1) 0.730(1)
C4 C 0.235(1) 0.2236(9) 0.8536(8)
C5 C 0.084(1) 0.217(1) 0.8788(7)
C6 C 0.305(1) 0.413(1) 0.8493(8)
C7 C 0.471(1) 0.434(1) 0.8833(8)
C8 C 0.460(1) 0.325(1) 0.9165(8)
C9 C 0.696(1) 0.471(1) 0.8396(9)
C10 C 0.783(2) 0.449(3) 0.763(2)
C11 C 0.767(1) 0.357(1) 0.6265(9)
C12 C 0.870(1) 0.413(1) 0.591(1)
C13 C 0.921(1) 0.370(2) 0.517(1)
C14 C 0.870(2) 0.271(2) 0.477(1)
C15 C 0.768(2) 0.215(1) 0.512(1)
C16 C 0.718(1) 0.257(1) 0.587(1)
S2 S 1.6302(6) 0.1713(5) 0.2672(4)
O6 O 1.856(1) 0.0766(8) 0.1135(7)
O7 O 1.838(1) -0.099(1) 0.1091(8)
O8 O 1.324(1) 0.019(1) 0.0531(8)
O9 O 1.122(1) 0.265(1) 0.0854(7)
O10 O 1.181(2) 0.283(2) 0.311(1)
N3 N 1.558(1) 0.0845(9) 0.1077(7)
N4 N 1.312(1) 0.224(1) 0.1838(7)
C17 C 1.644(1) 0.025(1) 0.2497(8)
C18 C 1.783(2) -0.008(2) 0.304(1)
C19 C 1.517(2) -0.030(2) 0.276(1)
C20 C 1.643(1) 0.0013(9) 0.1493(8)
C21 C 1.792(1) -0.008(1) 0.1215(8)
C22 C 1.569(1) 0.192(1) 0.1543(8)
C23 C 1.405(1) 0.205(1) 0.1191(8)
C24 C 1.412(1) 0.086(1) 0.0855(9)
C25 C 1.174(1) 0.250(1) 0.1592(9)
C26 C 1.097(3) 0.295(4) 0.230(2)
C27 C 1.123(2) 0.343(1) 0.378(1)
C28 C 1.001(2) 0.305(1) 0.408(2)
C29 C 0.962(2) 0.349(2) 0.486(2)
C30 C 1.045(3) 0.431(2) 0.535(1)
C31 C 1.167(3) 0.468(1) 0.506(1)
C32 C 1.206(2) 0.425(1) 0.428(2)
H1 H 0.520(1) 0.4206(9) 0.7545(7)
H2 H 0.908(1) 0.483(1) 0.619(1)
H3 H 0.999(1) 0.407(2) 0.493(1)
H4 H 0.902(2) 0.242(2) 0.421(1)
H5 H 0.740(2) 0.141(1) 0.488(1)
H6 H 0.639(1) 0.219(1) 0.609(1)
H7 H 0.094(2) 0.101(1) 0.703(1)
H8 H 0.013(2) 0.215(1) 0.712(1)
H9 H 0.107(2) 0.190(1) 0.634(1)
H10 H 0.371(2) 0.094(1) 0.739(1)
H11 H 0.460(2) 0.206(1) 0.768(1)
H12 H 0.380(2) 0.182(1) 0.668(1)
H13 H 0.281(1) 0.1591(9) 0.8787(8)
H14 H 0.245(1) 0.475(1) 0.8653(8)
H15 H 0.516(1) 0.499(1) 0.9178(8)
H16 H 0.832(2) 0.516(3) 0.753(2)
H17 H 0.856(2) 0.393(3) 0.777(2)
H18 H 1.350(1) 0.217(1) 0.2471(7)
H19 H 0.945(2) 0.243(1) 0.375(2)
H20 H 0.890(2) 0.311(2) 0.514(2)
H21 H 0.998(3) 0.474(2) 0.579(1)
H22 H 1.222(3) 0.530(1) 0.541(1)
H23 H 1.301(2) 0.447(1) 0.414(2)
H24 H 1.794(2) -0.087(2) 0.295(1)
H25 H 1.866(2) 0.029(2) 0.285(1)
H26 H 1.782(2) 0.013(2) 0.367(1)
H27 H 1.527(2) -0.108(2) 0.265(1)
H28 H 1.514(2) -0.011(2) 0.339(1)
H29 H 1.426(2) -0.006(2) 0.241(1)
H30 H 1.597(1) -0.0692(9) 0.1267(8)
H31 H 1.628(1) 0.251(1) 0.1379(8)
H32 H 1.362(1) 0.263(1) 0.0832(8)
H33 H 1.089(3) 0.374(4) 0.225(2)
H34 H 0.999(3) 0.263(4) 0.226(2)
K2 K 1.0393(6) 0.9727(4) 0.0034(4)
K1 K 0.8349(6) 0.7218(4) -0.0045(4)
O11? O 0.689(2) 0.488(1) 0.683(1)
C33? C 0.785(2) 0.480(2) 0.764(2)
C34? C 0.676(1) 0.387(1) 0.633(1)
C35? C 0.611(1) 0.381(2) 0.546(1)
C36? C 0.591(1) 0.283(2) 0.497(1)
C37? C 0.638(2) 0.190(2) 0.537(2)
C38? C 0.704(2) 0.196(2) 0.624(2)
C39? C 0.723(1) 0.295(2) 0.672(1)
O12? O 0.153(2) 0.233(1) 0.314(1)
C40? C 0.073(1) 0.259(2) 0.230(1)
C41? C 0.210(1) 0.330(1) 0.3654(9)
C42? C 0.301(1) 0.323(2) 0.4446(9)
C43? C 0.347(1) 0.415(2) 0.498(1)
C44? C 0.303(2) 0.515(2) 0.471(1)
C45? C 0.211(2) 0.522(1) 0.392(1)
C46? C 0.165(1) 0.430(1) 0.339(1)
H35? H 0.582(1) 0.448(2) 0.517(1)
H36? H 0.536(1) 0.279(2) 0.437(1)
H37? H 0.624(2) 0.120(2) 0.501(2)
H38? H 0.737(2) 0.129(2) 0.651(2)
H39? H 0.768(1) 0.298(2) 0.735(1)
H40? H 0.846(2) 0.546(2) 0.777(2)
H41? H 0.848(2) 0.417(2) 0.758(2)
H42? H 0.336(1) 0.252(2) 0.4617(9)
H43? H 0.405(1) 0.408(2) 0.556(1)
H44? H 0.342(2) 0.580(2) 0.508(1)
H45? H 0.178(2) 0.594(1) 0.375(1)
H46? H 0.098(1) 0.437(1) 0.283(1)
H47? H 0.037(1) 0.333(2) 0.236(1)
H48? H -0.011(1) 0.208(2) 0.213(1)
loop_
_geom_bond_atom_site_label_1
_geom_bond_atom_site_label_2
_geom_bond_site_symmetry_1
_geom_bond_site_symmetry_2
S1 C1 1_555 1_555
O1 C5 1_555 1_555
O2 C5 1_555 1_555
O3 C8 1_555 1_555
O4 C9 1_555 1_555
O5 C10 1_555 1_555
N1 C4 1_555 1_555
N2 C7 1_555 1_555
C1 C2 1_555 1_555
C2 H7 1_555 1_555
C3 C1 1_555 1_555
C4 C1 1_555 1_555
C5 C4 1_555 1_555
C6 S1 1_555 1_555
C7 C6 1_555 1_555
C8 N1 1_555 1_555
C9 N2 1_555 1_555
C10 C9 1_555 1_555
C11 O5 1_555 1_555
C12 C11 1_555 1_555
C13 C12 1_555 1_555
C14 C13 1_555 1_555
C15 C14 1_555 1_555
C16 C11 1_555 1_555
S2 C17 1_555 1_555
O6 C21 1_555 1_555
O7 C21 1_555 1_555
O8 C24 1_555 1_555
O9 C25 1_555 1_555
O10 C26 1_555 1_555
N3 C20 1_555 1_555
N4 C23 1_555 1_555
C17 C18 1_555 1_555
C18 H24 1_555 1_555
C19 C17 1_555 1_555
C20 C17 1_555 1_555
C21 C20 1_555 1_555
C22 S2 1_555 1_555
C23 C22 1_555 1_555
C24 N3 1_555 1_555
C25 N4 1_555 1_555
C26 C25 1_555 1_555
C27 O10 1_555 1_555
C28 C27 1_555 1_555
C29 C13 1_555 1_555
C30 C13 1_555 1_555
C31 C30 1_555 1_555
C32 C27 1_555 1_555
H1 N2 1_555 1_555
H2 C12 1_555 1_555
H3 C13 1_555 1_555
H4 C14 1_555 1_555
H5 C15 1_555 1_555
H6 C16 1_555 1_555
H8 C2 1_555 1_555
H9 C2 1_555 1_555
H10 C3 1_555 1_555
H11 C3 1_555 1_555
H12 C3 1_555 1_555
H13 C4 1_555 1_555
H14 C6 1_555 1_555
H15 C7 1_555 1_555
H16 C10 1_555 1_555
H17 C10 1_555 1_555
H18 N4 1_555 1_555
H19 C28 1_555 1_555
H20 C13 1_555 1_555
H21 C30 1_555 1_555
H22 C31 1_555 1_555
H23 C32 1_555 1_555
H25 C18 1_555 1_555
H26 C18 1_555 1_555
H27 C19 1_555 1_555
H28 C19 1_555 1_555
H29 C19 1_555 1_555
H30 C20 1_555 1_555
H31 C22 1_555 1_555
H32 C23 1_555 1_555
H33 C26 1_555 1_555
H34 C26 1_555 1_555
N1 C6 1_555 1_555
C7 C8 1_555 1_555
C14 C29 1_555 1_555
C14 H20 1_555 1_555
C15 C16 1_555 1_555
N3 C22 1_555 1_555
C23 C24 1_555 1_555
C28 C29 1_555 1_555
C28 H4 1_555 1_555
C29 C30 1_555 1_555
C29 H3 1_555 1_555
C29 H20 1_555 1_555
C30 H3 1_555 1_555
C31 C32 1_555 1_555

#END
