
#######################################################################
#
#                 Cambridge Crystallographic Data Centre
#                                CCDC 
#
#######################################################################
#
# If this CIF has been generated from an entry in the Cambridge 
# Structural Database, then it will include bibliographic, chemical, 
# crystal, experimental, refinement or atomic coordinate data resulting 
# from the CCDC's data processing and validation procedures.
#
#######################################################################

data_WAVCED
_chemical_name_common            
'(+-)-erythro-mefloquinium tetraphenylborate ethanol solvate'
_chemical_formula_moiety         'C24 H20 B1 1-,C17 H17 F6 N2 O1 1+,C2 H6 O1'
_chemical_name_systematic        
'2-((2,8-bis(trifluoromethyl)quinolin-4-yl)(hydroxy)methyl)piperidinium tetraphenylborate ethanol solvate'
_chemical_properties_biological  'Mefloquine has anti-malarial activity'
_symmetry_cell_setting           monoclinic
_symmetry_space_group_name_H-M   'P 21/a'
_symmetry_Int_Tables_number      14
_space_group_name_Hall           '-P 2yab'
loop_
_symmetry_equiv_pos_site_id
_symmetry_equiv_pos_as_xyz
1 x,y,z
2 1/2-x,1/2+y,-z
3 -x,-y,-z
4 1/2+x,1/2-y,z
_cell_length_a                   18.6944(5)
_cell_length_b                   8.9283(2)
_cell_length_c                   23.0360(6)
_cell_angle_alpha                90
_cell_angle_beta                 98.4500(10)
_cell_angle_gamma                90
_cell_volume                     3803.18
_exptl_crystal_colour            colorless
_exptl_crystal_description       plate
_cell_formula_units_Z            4
loop_
_atom_site_label
_atom_site_type_symbol
_atom_site_fract_x
_atom_site_fract_y
_atom_site_fract_z
B1 B 0.01440(14) 0.3826(3) 0.34825(11)
C1 C 0.04862(12) 0.3281(2) 0.28961(10)
C2 C 0.10268(12) 0.4126(3) 0.26833(11)
H1 H 0.1179 0.5038 0.2875
C3 C 0.13486(13) 0.3685(3) 0.22041(11)
H2 H 0.1710 0.4298 0.2075
C4 C 0.11502(14) 0.2372(3) 0.19159(12)
H3 H 0.1362 0.2084 0.1582
C5 C 0.06348(14) 0.1473(3) 0.21195(12)
H4 H 0.0499 0.0549 0.1930
C6 C 0.03152(13) 0.1925(3) 0.26037(11)
H5 H -0.0032 0.1286 0.2739
C7 C -0.00490(11) 0.5633(2) 0.34629(10)
C8 C -0.01453(12) 0.6509(2) 0.29497(10)
H6 H -0.0059 0.6067 0.2591
C9 C -0.03635(12) 0.8007(3) 0.29494(11)
H7 H -0.0418 0.8563 0.2594
C10 C -0.05012(13) 0.8689(3) 0.34591(12)
H8 H -0.0655 0.9704 0.3457
C11 C -0.04110(13) 0.7861(3) 0.39763(12)
H9 H -0.0499 0.8312 0.4332
C12 C -0.01912(12) 0.6371(3) 0.39731(11)
H10 H -0.0135 0.5829 0.4332
C13 C -0.06291(12) 0.3005(2) 0.35485(10)
C14 C -0.11577(12) 0.2704(2) 0.30645(10)
H11 H -0.1045 0.2897 0.2683
C15 C -0.18415(13) 0.2134(3) 0.31154(12)
H12 H -0.2181 0.1948 0.2774
C16 C -0.20234(14) 0.1841(3) 0.36661(12)
H13 H -0.2487 0.1455 0.3707
C17 C -0.15155(14) 0.2122(3) 0.41574(12)
H14 H -0.1633 0.1928 0.4538
C18 C -0.08372(13) 0.2684(3) 0.40975(11)
H15 H -0.0500 0.2858 0.4442
C19 C 0.07666(11) 0.3413(3) 0.40398(9)
C20 C 0.12587(12) 0.4445(3) 0.43270(10)
H16 H 0.1217 0.5468 0.4214
C21 C 0.18107(13) 0.4023(3) 0.47752(11)
H17 H 0.2137 0.4756 0.4959
C22 C 0.18819(13) 0.2546(3) 0.49513(10)
H18 H 0.2257 0.2254 0.5254
C23 C 0.13998(14) 0.1497(3) 0.46813(10)
H19 H 0.1439 0.0480 0.4803
C24 C 0.08585(13) 0.1923(3) 0.42327(10)
H20 H 0.0539 0.1180 0.4049
F1 F 0.38372(11) 1.4271(2) 0.01690(8)
F2 F 0.42735(13) 1.4906(3) -0.05908(9)
F3 F 0.46228(10) 1.2918(2) -0.01199(11)
F4 F 0.31446(10) 0.9212(2) 0.03204(7)
F5 F 0.39218(9) 0.84925(19) -0.02231(8)
F6 F 0.30403(10) 0.7052(2) -0.00893(8)
O1 O 0.20544(9) 1.51268(18) -0.19573(8)
H21 H 0.1665 1.5428 -0.1856
N1 N 0.33911(11) 1.1471(2) -0.05336(9)
N2 N 0.18522(11) 1.4051(2) -0.30651(9)
H22 H 0.1899(14) 1.501(3) -0.2961(11)
H23 H 0.1380(16) 1.380(3) -0.3097(11)
C25 C 0.34660(13) 1.2877(3) -0.06905(10)
C26 C 0.30366(13) 1.3598(3) -0.11611(11)
H24 H 0.3116 1.4622 -0.1245
C27 C 0.24000(12) 1.1272(3) -0.13537(10)
C28 C 0.25009(13) 1.2796(3) -0.14964(10)
C29 C 0.18595(13) 1.0343(3) -0.16652(11)
H25 H 0.1551 1.0736 -0.1995
C30 C 0.17748(15) 0.8899(3) -0.15002(12)
H26 H 0.1409 0.8295 -0.1715
C31 C 0.22248(15) 0.8295(3) -0.10147(12)
H27 H 0.2160 0.7285 -0.0903
C32 C 0.28571(12) 1.0664(3) -0.08623(10)
C33 C 0.27530(13) 0.9140(3) -0.07032(11)
C34 C 0.20362(12) 1.3541(3) -0.20126(10)
H28 H 0.1526 1.3190 -0.2029
C35 C 0.23028(12) 1.3151(3) -0.25965(10)
H29 H 0.2214 1.2062 -0.2680
C36 C 0.30984(13) 1.3484(3) -0.26083(11)
H30 H 0.3395 1.2802 -0.2332
H31 H 0.3203 1.4523 -0.2471
C37 C 0.33166(14) 1.3306(3) -0.32162(11)
H32 H 0.3830 1.3596 -0.3204
H33 H 0.3266 1.2244 -0.3339
C38 C 0.28449(13) 1.4279(3) -0.36582(12)
H34 H 0.2925 1.5347 -0.3552
H35 H 0.2981 1.4125 -0.4053
C39 C 0.20554(13) 1.3896(3) -0.36705(10)
H36 H 0.1754 1.4576 -0.3945
H37 H 0.1965 1.2856 -0.3812
C40 C 0.40593(14) 1.3733(3) -0.03139(12)
C41 C 0.32192(16) 0.8486(3) -0.01782(12)
O2 O 0.07249(11) 1.5868(2) -0.16806(8)
H38 H 0.1088 1.5311 -0.1673
C42 C 0.04643(19) 1.5785(5) -0.11350(15)
H39 H 0.0144 1.6651 -0.1096
H40 H 0.0877 1.5842 -0.0813
C43 C 0.0065(2) 1.4402(7) -0.1079(2)
H41 H -0.0376 1.4398 -0.1367
H42 H -0.0064 1.4336 -0.0682
H43 H 0.0368 1.3543 -0.1149
loop_
_geom_bond_atom_site_label_1
_geom_bond_atom_site_label_2
_geom_bond_site_symmetry_1
_geom_bond_site_symmetry_2
B1 C1 1_555 1_555
C1 C2 1_555 1_555
C2 H1 1_555 1_555
C3 C2 1_555 1_555
H2 C3 1_555 1_555
C4 C3 1_555 1_555
H3 C4 1_555 1_555
C5 C4 1_555 1_555
H4 C5 1_555 1_555
C6 C1 1_555 1_555
H5 C6 1_555 1_555
C7 B1 1_555 1_555
C8 C7 1_555 1_555
H6 C8 1_555 1_555
C9 C8 1_555 1_555
H7 C9 1_555 1_555
C10 C9 1_555 1_555
H8 C10 1_555 1_555
C11 C10 1_555 1_555
H9 C11 1_555 1_555
C12 C7 1_555 1_555
H10 C12 1_555 1_555
C13 B1 1_555 1_555
C14 C13 1_555 1_555
H11 C14 1_555 1_555
C15 C14 1_555 1_555
H12 C15 1_555 1_555
C16 C15 1_555 1_555
H13 C16 1_555 1_555
C17 C16 1_555 1_555
H14 C17 1_555 1_555
C18 C13 1_555 1_555
H15 C18 1_555 1_555
C19 B1 1_555 1_555
C20 C19 1_555 1_555
H16 C20 1_555 1_555
C21 C20 1_555 1_555
H17 C21 1_555 1_555
C22 C21 1_555 1_555
H18 C22 1_555 1_555
C23 C22 1_555 1_555
H19 C23 1_555 1_555
C24 C19 1_555 1_555
H20 C24 1_555 1_555
F1 C40 1_555 1_555
F2 C40 1_555 1_555
F3 C40 1_555 1_555
F4 C41 1_555 1_555
F5 C41 1_555 1_555
F6 C41 1_555 1_555
O1 H21 1_555 1_555
N1 C25 1_555 1_555
N2 H22 1_555 1_555
H23 N2 1_555 1_555
C25 C26 1_555 1_555
C26 H24 1_555 1_555
C27 C28 1_555 1_555
C28 C26 1_555 1_555
C29 C27 1_555 1_555
H25 C29 1_555 1_555
C30 C29 1_555 1_555
H26 C30 1_555 1_555
C31 C30 1_555 1_555
H27 C31 1_555 1_555
C32 N1 1_555 1_555
C33 C31 1_555 1_555
C34 O1 1_555 1_555
H28 C34 1_555 1_555
C35 N2 1_555 1_555
H29 C35 1_555 1_555
C36 C35 1_555 1_555
H30 C36 1_555 1_555
H31 C36 1_555 1_555
C37 C36 1_555 1_555
H32 C37 1_555 1_555
H33 C37 1_555 1_555
C38 C37 1_555 1_555
H34 C38 1_555 1_555
H35 C38 1_555 1_555
C39 N2 1_555 1_555
H36 C39 1_555 1_555
H37 C39 1_555 1_555
C40 C25 1_555 1_555
C41 C33 1_555 1_555
O2 H38 1_555 1_555
C42 O2 1_555 1_555
H39 C42 1_555 1_555
H40 C42 1_555 1_555
C43 C42 1_555 1_555
H41 C43 1_555 1_555
H42 C43 1_555 1_555
H43 C43 1_555 1_555
C5 C6 1_555 1_555
C11 C12 1_555 1_555
C17 C18 1_555 1_555
C23 C24 1_555 1_555
C27 C32 1_555 1_555
C28 C34 1_555 1_555
C32 C33 1_555 1_555
C34 C35 1_555 1_555
C38 C39 1_555 1_555

#END
