
#######################################################################
#
#                 Cambridge Crystallographic Data Centre
#                                CCDC 
#
#######################################################################
#
# If this CIF has been generated from an entry in the Cambridge 
# Structural Database, then it will include bibliographic, chemical, 
# crystal, experimental, refinement or atomic coordinate data resulting 
# from the CCDC's data processing and validation procedures.
#
#######################################################################

data_WAVDII01
_chemical_formula_moiety         'C7 H15 Cl1 N2 2+,2(B1 F4 1-)'
_chemical_name_systematic        
'1-(Chloromethyl)-1,4-diazoniabicyclo[2.2.2]octane bis(tetrafluoroborate)'
_symmetry_cell_setting           orthorhombic
_symmetry_space_group_name_H-M   'P b c a'
_symmetry_Int_Tables_number      61
_space_group_name_Hall           '-P 2ac 2ab'
loop_
_symmetry_equiv_pos_site_id
_symmetry_equiv_pos_as_xyz
1 x,y,z
2 1/2-x,-y,1/2+z
3 1/2+x,1/2-y,-z
4 -x,1/2+y,1/2-z
5 -x,-y,-z
6 1/2+x,y,1/2-z
7 1/2-x,1/2+y,z
8 x,1/2-y,1/2+z
_cell_length_a                   13.4262(5)
_cell_length_b                   12.8602(5)
_cell_length_c                   15.6746(7)
_cell_angle_alpha                90
_cell_angle_beta                 90
_cell_angle_gamma                90
_cell_volume                     2706.43
_exptl_crystal_colour            colorless
_exptl_crystal_description       chunk
_cell_formula_units_Z            8
loop_
_atom_site_label
_atom_site_type_symbol
_atom_site_fract_x
_atom_site_fract_y
_atom_site_fract_z
C1 C 0.0141(2) 0.8314(3) 0.0742(2)
H1 H -0.0291 0.8683 0.1135
H2 H -0.0262 0.8081 0.0265
C2 C -0.0276(2) 0.6691(3) 0.1448(2)
H3 H -0.0642 0.6470 0.0946
H4 H -0.0728 0.7075 0.1814
C3 C 0.1260(2) 0.6771(3) 0.06140(19)
H5 H 0.1817 0.7204 0.0444
H6 H 0.0903 0.6563 0.0104
C4 C 0.1148(2) 0.7697(2) 0.19729(19)
H7 H 0.0715 0.8086 0.2352
H8 H 0.1700 0.8142 0.1812
C5 C 0.1538(3) 0.6747(2) 0.2428(2)
H9 H 0.2259 0.6776 0.2460
H10 H 0.1276 0.6723 0.3004
C6 C 0.0117(2) 0.5746(3) 0.1920(2)
H11 H -0.0150 0.5731 0.2494
H12 H -0.0090 0.5116 0.1629
C7 C 0.1640(2) 0.5817(2) 0.10755(19)
H13 H 0.1439 0.5195 0.0770
H14 H 0.2362 0.5832 0.1100
Cl1 Cl 0.10529(9) 0.91573(9) 0.03711(9)
N1 N 0.05787(16) 0.73774(17) 0.11884(14)
N2 N 0.12243(18) 0.57986(18) 0.19511(15)
H15 H 0.1459 0.5227 0.2228
B1 B 0.2569(3) 0.4436(3) 0.3555(2)
F1 F 0.29932(15) 0.47745(17) 0.27906(12)
F2 F 0.15754(14) 0.47465(16) 0.35295(12)
F3 F 0.30608(19) 0.4894(2) 0.42199(14)
F4 F 0.2627(2) 0.33706(16) 0.36017(15)
B2 B 0.0951(3) 0.2930(3) 0.1262(2)
F5 F 0.1616(6) 0.2954(9) 0.0673(7)
F6 F 0.0882(10) 0.1938(5) 0.1467(4)
F7 F 0.0171(8) 0.3394(9) 0.1002(9)
F8 F 0.1040(10) 0.3469(9) 0.1987(5)
F9? F 0.1309(12) 0.2039(11) 0.1391(13)
F10? F -0.0038(6) 0.2699(18) 0.1183(5)
F11? F 0.1156(16) 0.3345(12) 0.0514(5)
F12? F 0.1442(11) 0.3552(9) 0.1831(9)
loop_
_geom_bond_atom_site_label_1
_geom_bond_atom_site_label_2
_geom_bond_site_symmetry_1
_geom_bond_site_symmetry_2
C1 H1 1_555 1_555
H2 C1 1_555 1_555
C2 H3 1_555 1_555
H4 C2 1_555 1_555
C3 H5 1_555 1_555
H6 C3 1_555 1_555
C4 H7 1_555 1_555
H8 C4 1_555 1_555
C5 C4 1_555 1_555
H9 C5 1_555 1_555
H10 C5 1_555 1_555
C6 C2 1_555 1_555
H11 C6 1_555 1_555
H12 C6 1_555 1_555
C7 C3 1_555 1_555
H13 C7 1_555 1_555
H14 C7 1_555 1_555
Cl1 C1 1_555 1_555
N1 C1 1_555 1_555
N2 C5 1_555 1_555
H15 N2 1_555 1_555
B1 F1 1_555 1_555
F2 B1 1_555 1_555
F3 B1 1_555 1_555
F4 B1 1_555 1_555
B2 F5 1_555 1_555
F6 B2 1_555 1_555
F7 B2 1_555 1_555
F8 B2 1_555 1_555
C2 N1 1_555 1_555
C3 N1 1_555 1_555
C4 N1 1_555 1_555
C6 N2 1_555 1_555
C7 N2 1_555 1_555

#END
