
#######################################################################
#
#                 Cambridge Crystallographic Data Centre
#                                CCDC 
#
#######################################################################
#
# If this CIF has been generated from an entry in the Cambridge 
# Structural Database, then it will include bibliographic, chemical, 
# crystal, experimental, refinement or atomic coordinate data resulting 
# from the CCDC's data processing and validation procedures.
#
#######################################################################

data_WAVHIM
_chemical_formula_moiety         'C29 H37 N3 O2 S1'
_chemical_name_systematic        
N-(5-Cyclohexyl-3-phenyl-1,5-diazaspiro[5.5]undeca-1,3-dien-2-yl)-N,4-dimethylbenzenesulfonamide
_symmetry_cell_setting           monoclinic
_symmetry_space_group_name_H-M   'P 21/n'
_symmetry_Int_Tables_number      14
_space_group_name_Hall           '-P 2yn'
loop_
_symmetry_equiv_pos_site_id
_symmetry_equiv_pos_as_xyz
1 x,y,z
2 1/2-x,1/2+y,1/2-z
3 -x,-y,-z
4 1/2+x,1/2-y,1/2+z
_cell_length_a                   6.3036(12)
_cell_length_b                   28.939(6)
_cell_length_c                   14.110(3)
_cell_angle_alpha                90
_cell_angle_beta                 92.971(3)
_cell_angle_gamma                90
_cell_volume                     2570.48
_exptl_crystal_colour            yellow
_exptl_crystal_description       rod
_cell_formula_units_Z            4
loop_
_atom_site_label
_atom_site_type_symbol
_atom_site_fract_x
_atom_site_fract_y
_atom_site_fract_z
S1 S 0.81999(9) 0.13823(2) 0.64713(4)
O1 O 0.6914(3) 0.17031(6) 0.59267(12)
O2 O 0.7185(3) 0.10726(6) 0.70972(11)
N1 N 1.2903(3) 0.13388(6) 0.96823(12)
N2 N 1.1748(3) 0.11397(6) 0.80737(12)
N3 N 0.9940(3) 0.16738(6) 0.71075(12)
C1 C 1.2340(3) 0.09521(7) 0.90165(14)
C2 C 1.4202(4) 0.06219(8) 0.88964(15)
H1 H 1.5402 0.0794 0.8639
H2 H 1.4682 0.0496 0.9524
C3 C 1.3569(4) 0.02238(8) 0.82268(15)
H3 H 1.3192 0.0348 0.7586
H4 H 1.4788 0.0011 0.8176
C4 C 1.1683(4) -0.00410(8) 0.85891(16)
H5 H 1.1259 -0.0287 0.8131
H6 H 1.2106 -0.0190 0.9202
C5 C 0.9801(4) 0.02773(8) 0.87222(15)
H7 H 0.8639 0.0100 0.8998
H8 H 0.9270 0.0398 0.8097
C6 C 1.0432(3) 0.06820(8) 0.93764(14)
H9 H 1.0800 0.0563 1.0022
H10 H 0.9206 0.0894 0.9417
C7 C 1.0689(3) 0.15152(7) 0.80341(14)
C8 C 1.0375(3) 0.18209(7) 0.88293(14)
C9 C 1.1681(3) 0.17194(7) 0.96067(14)
H11 H 1.1728 0.1930 1.0123
C10 C 1.1040(5) 0.20651(8) 0.66921(17)
H12 H 1.2547 0.1990 0.6648
H13 H 1.0899 0.2338 0.7094
H14 H 1.0408 0.2129 0.6056
C11 C 0.9570(4) 0.10522(8) 0.56451(14)
C12 C 1.1630(4) 0.09026(8) 0.58405(15)
H15 H 1.2384 0.0991 0.6412
C13 C 1.2579(4) 0.06208(9) 0.51855(16)
H16 H 1.3998 0.0520 0.5315
C14 C 1.1506(4) 0.04834(8) 0.43464(16)
C15 C 0.9447(4) 0.06420(9) 0.41662(16)
H17 H 0.8689 0.0553 0.3596
C16 C 0.8475(4) 0.09275(9) 0.48013(16)
H18 H 0.7073 0.1037 0.4663
C17 C 1.2552(5) 0.01691(9) 0.36564(18)
H19 H 1.2071 -0.0149 0.3747
H20 H 1.4098 0.0184 0.3768
H21 H 1.2168 0.0268 0.3006
C18 C 0.8981(4) 0.22332(7) 0.88109(14)
C19 C 0.6935(4) 0.22209(8) 0.83746(15)
H22 H 0.6455 0.1950 0.8050
C20 C 0.5608(4) 0.25992(9) 0.84110(17)
H23 H 0.4232 0.2587 0.8104
C21 C 0.6257(4) 0.29968(9) 0.88900(17)
H24 H 0.5329 0.3255 0.8917
C22 C 0.8270(4) 0.30139(8) 0.93281(16)
H25 H 0.8725 0.3285 0.9661
C23 C 0.9625(4) 0.26392(8) 0.92836(15)
H26 H 1.1012 0.2658 0.9578
C24 C 1.4372(3) 0.12837(8) 1.05308(14)
H27 H 1.5210 0.0995 1.0437
C25 C 1.5940(4) 0.16796(10) 1.06186(16)
H28 H 1.5160 0.1973 1.0692
H29 H 1.6730 0.1701 1.0032
C26 C 1.7511(4) 0.16113(11) 1.14711(18)
H30 H 1.8392 0.1335 1.1366
H31 H 1.8468 0.1882 1.1531
C27 C 1.6371(4) 0.15524(9) 1.23808(17)
H32 H 1.5617 0.1842 1.2524
H33 H 1.7424 0.1491 1.2911
C28 C 1.4790(4) 0.11580(9) 1.23010(17)
H34 H 1.4004 0.1141 1.2889
H35 H 1.5563 0.0863 1.2232
C29 C 1.3213(4) 0.12228(9) 1.14488(15)
H36 H 1.2267 0.0950 1.1390
H37 H 1.2321 0.1498 1.1553
loop_
_geom_bond_atom_site_label_1
_geom_bond_atom_site_label_2
_geom_bond_site_symmetry_1
_geom_bond_site_symmetry_2
S1 O1 1_555 1_555
O2 S1 1_555 1_555
N1 C1 1_555 1_555
N2 C1 1_555 1_555
N3 S1 1_555 1_555
C1 C2 1_555 1_555
C2 H1 1_555 1_555
H2 C2 1_555 1_555
C3 C2 1_555 1_555
H3 C3 1_555 1_555
H4 C3 1_555 1_555
C4 C3 1_555 1_555
H5 C4 1_555 1_555
H6 C4 1_555 1_555
C5 C4 1_555 1_555
H7 C5 1_555 1_555
H8 C5 1_555 1_555
C6 C1 1_555 1_555
H9 C6 1_555 1_555
H10 C6 1_555 1_555
C7 N2 1_555 1_555
C8 C7 1_555 1_555
C9 N1 1_555 1_555
H11 C9 1_555 1_555
C10 N3 1_555 1_555
H12 C10 1_555 1_555
H13 C10 1_555 1_555
H14 C10 1_555 1_555
C11 S1 1_555 1_555
C12 C11 1_555 1_555
H15 C12 1_555 1_555
C13 C12 1_555 1_555
H16 C13 1_555 1_555
C14 C13 1_555 1_555
C15 C14 1_555 1_555
H17 C15 1_555 1_555
C16 C11 1_555 1_555
H18 C16 1_555 1_555
C17 C14 1_555 1_555
H19 C17 1_555 1_555
H20 C17 1_555 1_555
H21 C17 1_555 1_555
C18 C8 1_555 1_555
C19 C18 1_555 1_555
H22 C19 1_555 1_555
C20 C19 1_555 1_555
H23 C20 1_555 1_555
C21 C20 1_555 1_555
H24 C21 1_555 1_555
C22 C21 1_555 1_555
H25 C22 1_555 1_555
C23 C18 1_555 1_555
H26 C23 1_555 1_555
C24 N1 1_555 1_555
H27 C24 1_555 1_555
C25 C24 1_555 1_555
H28 C25 1_555 1_555
H29 C25 1_555 1_555
C26 C25 1_555 1_555
H30 C26 1_555 1_555
H31 C26 1_555 1_555
C27 C26 1_555 1_555
H32 C27 1_555 1_555
H33 C27 1_555 1_555
C28 C27 1_555 1_555
H34 C28 1_555 1_555
H35 C28 1_555 1_555
C29 C24 1_555 1_555
H36 C29 1_555 1_555
H37 C29 1_555 1_555
N3 C7 1_555 1_555
C5 C6 1_555 1_555
C8 C9 1_555 1_555
C15 C16 1_555 1_555
C22 C23 1_555 1_555
C28 C29 1_555 1_555

#END
