
#######################################################################
#
#                 Cambridge Crystallographic Data Centre
#                                CCDC 
#
#######################################################################
#
# If this CIF has been generated from an entry in the Cambridge 
# Structural Database, then it will include bibliographic, chemical, 
# crystal, experimental, refinement or atomic coordinate data resulting 
# from the CCDC's data processing and validation procedures.
#
#######################################################################

data_WAXVID
_chemical_formula_moiety         'C22 H24 N1 O7 P1,C2 H3 N1'
_chemical_name_systematic        
'diethyl [(4-methylphenoxy)(6-oxo-5,6-dihydro-2H-[1,3]dioxolo[4,5-g]quinolin-7-yl)methyl]phosphonate acetonitrile solvate'
_chemical_properties_biological  'antitumour activity'
_symmetry_cell_setting           monoclinic
_symmetry_space_group_name_H-M   'P 21/c'
_symmetry_Int_Tables_number      14
_space_group_name_Hall           '-P 2ybc'
loop_
_symmetry_equiv_pos_site_id
_symmetry_equiv_pos_as_xyz
1 x,y,z
2 -x,1/2+y,1/2-z
3 -x,-y,-z
4 x,1/2-y,1/2+z
_cell_length_a                   12.598(13)
_cell_length_b                   15.985(17)
_cell_length_c                   12.834(13)
_cell_angle_alpha                90
_cell_angle_beta                 93.364(18)
_cell_angle_gamma                90
_cell_volume                     2580.05
_cell_formula_units_Z            4
loop_
_atom_site_label
_atom_site_type_symbol
_atom_site_fract_x
_atom_site_fract_y
_atom_site_fract_z
P1 P 0.35930(10) 0.08553(7) 0.16334(8)
O1 O 0.0713(3) 0.5422(2) 0.2179(3)
O2 O 0.0858(3) 0.5861(2) 0.0463(3)
O3 O 0.4180(3) 0.23969(19) -0.0761(2)
O4 O 0.5055(3) 0.1939(2) 0.2302(2)
O5 O 0.2927(2) 0.09455(18) 0.2540(2)
O6 O 0.4457(3) 0.01372(18) 0.1714(2)
O7 O 0.2872(2) 0.0669(2) 0.0609(2)
N1 N 0.3098(3) 0.3482(2) -0.0364(2)
H1 H 0.3114 0.3650 -0.1000
C1 C 0.0483(5) 0.6087(3) 0.1453(4)
H2 H -0.0278 0.6187 0.1386
H3 H 0.0829 0.6597 0.1702
C2 C 0.1356(4) 0.4863(3) 0.1666(4)
C3 C 0.1837(4) 0.4156(3) 0.2032(3)
H4 H 0.1768 0.3981 0.2716
C4 C 0.2448(3) 0.3689(3) 0.1345(3)
C5 C 0.3056(3) 0.2969(3) 0.1659(3)
H5 H 0.3039 0.2791 0.2348
C6 C 0.3662(3) 0.2525(3) 0.0999(3)
C7 C 0.3665(4) 0.2784(3) -0.0100(3)
C8 C 0.2495(3) 0.3953(3) 0.0295(3)
C9 C 0.1988(4) 0.4690(3) -0.0065(4)
H6 H 0.2036 0.4872 -0.0750
C10 C 0.1429(4) 0.5126(3) 0.0621(4)
C11 C 0.6047(3) 0.2364(3) 0.2234(3)
C12 C 0.6465(4) 0.2620(3) 0.1311(3)
H7 H 0.6094 0.2516 0.0676
C13 C 0.7442(4) 0.3032(3) 0.1333(4)
H8 H 0.7715 0.3188 0.0704
C14 C 0.8022(4) 0.3217(3) 0.2251(4)
C15 C 0.9055(4) 0.3712(4) 0.2298(5)
H9 H 0.8910 0.4288 0.2445
H10 H 0.9377 0.3671 0.1640
H11 H 0.9532 0.3489 0.2839
C16 C 0.7604(4) 0.2937(3) 0.3164(4)
H12 H 0.7988 0.3032 0.3794
C17 C 0.6638(4) 0.2522(3) 0.3178(3)
H13 H 0.6383 0.2349 0.3808
C18 C 0.4361(3) 0.1780(3) 0.1362(3)
H14 H 0.4819 0.1641 0.0795
C19 C 0.4576(5) -0.0469(3) 0.2549(4)
H15 H 0.4969 -0.0947 0.2310
H16 H 0.3878 -0.0663 0.2720
C20 C 0.5139(6) -0.0122(4) 0.3505(5)
H17 H 0.5837 0.0061 0.3343
H18 H 0.5199 -0.0546 0.4034
H19 H 0.4746 0.0344 0.3754
C21 C 0.3278(6) 0.0357(4) -0.0352(4)
H20 H 0.4042 0.0285 -0.0259
H21 H 0.3134 0.0762 -0.0905
C22 C 0.2783(7) -0.0443(4) -0.0653(5)
H22 H 0.2961 -0.0586 -0.1348
H23 H 0.2025 -0.0397 -0.0630
H24 H 0.3039 -0.0871 -0.0177
N2 N 0.0995(5) 0.2147(4) -0.0721(5)
C23 C 0.0773(6) 0.1958(5) 0.0084(7)
C24 C 0.0494(6) 0.1694(6) 0.1115(7)
H25 H 0.0197 0.1142 0.1076
H26 H -0.0018 0.2075 0.1373
H27 H 0.1120 0.1692 0.1579
loop_
_geom_bond_atom_site_label_1
_geom_bond_atom_site_label_2
_geom_bond_site_symmetry_1
_geom_bond_site_symmetry_2
P1 O5 1_555 1_555
O1 C1 1_555 1_555
O2 C1 1_555 1_555
O3 C7 1_555 1_555
O4 C11 1_555 1_555
O6 P1 1_555 1_555
O7 P1 1_555 1_555
N1 H1 1_555 1_555
C1 H2 1_555 1_555
H3 C1 1_555 1_555
C2 O1 1_555 1_555
C3 C2 1_555 1_555
H4 C3 1_555 1_555
C4 C3 1_555 1_555
C5 C4 1_555 1_555
H5 C5 1_555 1_555
C6 C5 1_555 1_555
C7 N1 1_555 1_555
C8 N1 1_555 1_555
C9 C8 1_555 1_555
H6 C9 1_555 1_555
C10 O2 1_555 1_555
C11 C12 1_555 1_555
C12 H7 1_555 1_555
C13 C12 1_555 1_555
H8 C13 1_555 1_555
C14 C13 1_555 1_555
C15 C14 1_555 1_555
H9 C15 1_555 1_555
H10 C15 1_555 1_555
H11 C15 1_555 1_555
C16 C14 1_555 1_555
H12 C16 1_555 1_555
C17 C11 1_555 1_555
H13 C17 1_555 1_555
C18 P1 1_555 1_555
H14 C18 1_555 1_555
C19 O6 1_555 1_555
H15 C19 1_555 1_555
H16 C19 1_555 1_555
C20 C19 1_555 1_555
H17 C20 1_555 1_555
H18 C20 1_555 1_555
H19 C20 1_555 1_555
C21 O7 1_555 1_555
H20 C21 1_555 1_555
H21 C21 1_555 1_555
C22 C21 1_555 1_555
H22 C22 1_555 1_555
H23 C22 1_555 1_555
H24 C22 1_555 1_555
N2 C23 1_555 1_555
C23 C24 1_555 1_555
C24 H25 1_555 1_555
H26 C24 1_555 1_555
H27 C24 1_555 1_555
O4 C18 1_555 1_555
C2 C10 1_555 1_555
C4 C8 1_555 1_555
C6 C7 1_555 1_555
C6 C18 1_555 1_555
C9 C10 1_555 1_555
C16 C17 1_555 1_555

#END
